
  -OEChem-04052320453D

 86 95  0     1  0  0  0  0  0999 V2000
  -18.7161  -30.2285   24.3798 C   0  0  0  0  0  0  0  0  0  0  0  0
  -19.6068  -29.4855   25.1463 C   0  0  0  0  0  0  0  0  0  0  0  0
  -31.7472  -20.9442   20.2279 C   0  0  0  0  0  0  0  0  0  0  0  0
  -29.5961  -20.9688   19.1283 C   0  0  0  0  0  0  0  0  0  0  0  0
  -18.1616  -29.6732   23.2286 C   0  0  0  0  0  0  0  0  0  0  0  0
  -19.9524  -28.1914   24.7554 C   0  0  0  0  0  0  0  0  0  0  0  0
  -23.6284  -21.0958   25.1134 C   0  0  0  0  0  0  0  0  0  0  0  0
  -22.6254  -12.1640   21.8090 C   0  0  0  0  0  0  0  0  0  0  0  0
  -32.0706  -22.1585   19.6225 C   0  0  0  0  0  0  0  0  0  0  0  0
  -29.9195  -22.1831   18.5229 C   0  0  0  0  0  0  0  0  0  0  0  0
  -23.5954  -19.7866   24.6353 C   0  0  0  0  0  0  0  0  0  0  0  0
  -31.3707  -25.4347   20.0805 C   0  0  0  0  0  0  0  0  0  0  0  0
  -31.9544  -26.4205   20.8760 C   0  0  0  0  0  0  0  0  0  0  0  0
  -22.5059  -13.5491   21.8281 C   0  0  0  0  0  0  0  0  0  0  0  0
  -23.5580  -20.6204   22.3722 C   0  0  0  0  0  0  0  0  0  0  0  0
  -33.9029  -26.4195   19.4475 C   0  0  0  0  0  0  0  0  0  0  0  0
  -30.5100  -20.3493   19.9808 C   0  0  0  0  0  0  0  0  0  0  0  0
  -29.5387  -18.9062   21.8468 C   0  0  0  0  0  0  0  0  0  0  0  0
  -18.4915  -28.3670   22.8309 C   0  0  0  0  0  0  0  0  0  0  0  0
  -23.6159  -22.1797   24.2235 C   0  0  0  0  0  0  0  0  0  0  0  0
  -19.4218  -27.6220   23.5837 C   0  0  0  0  0  0  0  0  0  0  0  0
  -23.8695  -11.5820   21.5930 C   0  0  0  0  0  0  0  0  0  0  0  0
  -23.5957  -21.9422   22.8415 C   0  0  0  0  0  0  0  0  0  0  0  0
  -31.1567  -22.7779   18.7700 C   0  0  0  0  0  0  0  0  0  0  0  0
  -23.5579  -19.5488   23.2646 C   0  0  0  0  0  0  0  0  0  0  0  0
  -32.0530  -24.9411   18.9685 C   0  0  0  0  0  0  0  0  0  0  0  0
  -33.2205  -26.9130   20.5595 C   0  0  0  0  0  0  0  0  0  0  0  0
  -33.3191  -25.4336   18.6520 C   0  0  0  0  0  0  0  0  0  0  0  0
  -30.1756  -19.0947   20.6055 C   0  0  0  0  0  0  0  0  0  0  0  0
  -24.9545  -12.4225   21.4029 C   0  0  0  0  0  0  0  0  0  0  0  0
  -23.6520  -14.3016   21.6278 C   0  0  0  0  0  0  0  0  0  0  0  0
  -29.4518  -17.5424   21.9845 C   0  0  0  0  0  0  0  0  0  0  0  0
  -29.0677  -19.8771   22.7908 C   0  0  0  0  0  0  0  0  0  0  0  0
  -21.7071  -24.6832   23.6452 C   0  0  0  0  0  0  0  0  0  0  0  0
  -24.1907  -25.4342   21.5666 C   0  0  0  0  0  0  0  0  0  0  0  0
  -23.9705  -28.7998   22.0801 C   0  0  0  0  0  0  0  0  0  0  0  0
  -28.3324  -12.4992   19.8729 C   0  0  0  0  0  0  0  0  0  0  0  0
  -17.8678  -27.8182   21.5719 C   0  0  0  0  0  0  0  0  0  0  0  0
  -23.6826  -23.5843   24.7592 C   0  0  0  0  0  0  0  0  0  0  0  0
  -23.5849  -23.0705   21.8458 C   0  0  0  0  0  0  0  0  0  0  0  0
  -17.9480  -26.2977   21.4828 C   0  0  0  0  0  0  0  0  0  0  0  0
  -22.3425   -9.1531   20.0815 C   0  0  0  0  0  0  0  0  0  0  0  0
  -21.9666   -8.6928   21.4831 C   0  0  0  0  0  0  0  0  0  0  0  0
  -31.5901  -13.8203   19.3086 C   0  0  0  0  0  0  0  0  0  0  0  0
  -23.8251   -9.4769   20.1710 C   0  0  0  0  0  0  0  0  0  0  0  0
  -22.9938   -9.3087   22.4372 C   0  0  0  0  0  0  0  0  0  0  0  0
  -19.3694  -25.8347   21.7656 C   0  0  0  0  0  0  0  0  0  0  0  0
  -31.4582  -15.2953   19.6920 C   0  0  0  0  0  0  0  0  0  0  0  0
  -30.3238  -13.2970   18.6343 C   0  0  0  0  0  0  0  0  0  0  0  0
  -28.9485  -14.9909   19.7802 C   0  0  0  0  0  0  0  0  0  0  0  0
  -24.0057  -10.0738   21.5707 C   0  0  0  0  0  0  0  0  0  0  0  0
  -19.7889  -26.2013   23.1948 C   0  0  1  0  0  0  0  0  0  0  0  0
  -23.2041  -24.6400   23.7647 C   0  0  1  0  0  0  0  0  0  0  0  0
  -30.1801  -15.5489   20.5139 C   0  0  2  0  0  0  0  0  0  0  0  0
  -24.3262  -31.2478   21.6578 C   0  0  0  0  0  0  0  0  0  0  0  0
  -26.8443  -24.9210   22.9810 C   0  0  0  0  0  0  0  0  0  0  0  0
  -27.2744  -27.3866   22.9169 C   0  0  0  0  0  0  0  0  0  0  0  0
  -27.0429  -26.1069   20.7882 C   0  0  0  0  0  0  0  0  0  0  0  0
  -21.5779  -28.9669   20.3462 C   0  0  0  0  0  0  0  0  0  0  0  0
  -26.3151  -11.8532   21.1661 C   0  0  0  0  0  0  0  0  0  0  0  0
  -24.6179  -16.5959   21.4574 C   0  0  0  0  0  0  0  0  0  0  0  0
  -24.1267  -18.0323   21.5231 C   0  0  0  0  0  0  0  0  0  1  0  0
  -24.9925  -26.5426   22.2017 C   0  0  1  0  0  0  0  0  0  0  0  0
  -23.7387  -29.9524   21.1197 C   0  0  2  0  0  0  0  0  0  0  0  0
  -26.5150  -26.2290   22.2342 C   0  0  0  0  0  0  0  0  0  0  0  0
  -30.4724  -17.9428   19.9981 N   0  0  0  0  0  0  0  0  0  0  0  0
  -24.8775  -13.7721   21.4148 N   0  0  0  0  0  0  0  0  0  0  0  0
  -30.0201  -17.0174   20.8613 N   0  0  0  0  0  0  0  0  0  0  0  0
  -23.7362  -24.4161   22.4145 N   0  0  0  0  0  0  0  0  0  0  0  0
  -29.1485  -13.5675   19.4658 N   0  0  0  0  0  0  0  0  0  0  0  0
  -28.9456  -16.7531   22.9556 N   0  0  0  0  0  0  0  0  0  0  0  0
  -29.2366  -21.2360   22.4923 N   0  0  0  0  0  0  0  0  0  0  0  0
  -23.5170  -15.6799   21.6500 N   0  0  0  0  0  0  0  0  0  0  0  0
  -21.2017  -25.9360   23.3548 N   0  0  0  0  0  0  0  0  0  0  0  0
  -24.6489  -27.7616   21.4775 N   0  0  0  0  0  0  0  0  0  0  0  0
  -27.2428  -12.8422   20.6641 N   0  0  0  0  0  0  0  0  0  0  0  0
  -22.2792  -30.1553   20.8966 N   0  3  0  0  0  0  0  0  0  0  0  0
  -28.5282  -19.5491   23.8747 O   0  0  0  0  0  0  0  0  0  0  0  0
  -21.0585  -23.6555   23.8033 O   0  0  0  0  0  0  0  0  0  0  0  0
  -23.9783  -25.4638   20.3512 O   0  0  0  0  0  0  0  0  0  0  0  0
  -23.5913  -28.8202   23.2489 O   0  0  0  0  0  0  0  0  0  0  0  0
  -28.5611  -11.3261   19.5594 O   0  0  0  0  0  0  0  0  0  0  0  0
  -31.4718  -23.9629   18.1792 O   0  0  0  0  0  0  0  0  0  0  0  0
  -23.5262  -18.2718   22.7952 O   0  0  0  0  0  0  0  0  0  1  0  0
  -33.7802  -27.8608   21.3227 F   0  0  0  0  0  0  0  0  0  0  0  0
  -33.9791  -24.9642   17.5843 F   0  0  0  0  0  0  0  0  0  0  0  0
  1  2  1  0  0  0  0
  1  5  2  0  0  0  0
  2  6  2  0  0  0  0
  3  9  2  0  0  0  0
  3 17  1  0  0  0  0
  4 10  1  0  0  0  0
  4 17  2  0  0  0  0
  5 19  1  0  0  0  0
  6 21  1  0  0  0  0
  7 11  2  0  0  0  0
  7 20  1  0  0  0  0
  8 14  2  0  0  0  0
  8 22  1  0  0  0  0
  9 24  1  0  0  0  0
 10 24  2  0  0  0  0
 11 25  1  0  0  0  0
 12 13  2  0  0  0  0
 12 26  1  0  0  0  0
 13 27  1  0  0  0  0
 14 31  1  0  0  0  0
 15 23  1  0  0  0  0
 15 25  2  0  0  0  0
 16 27  2  0  0  0  0
 16 28  1  0  0  0  0
 17 29  1  0  0  0  0
 18 29  1  0  0  0  0
 18 32  2  0  0  0  0
 18 33  1  0  0  0  0
 19 21  2  0  0  0  0
 19 38  1  0  0  0  0
 20 23  2  0  0  0  0
 20 39  1  0  0  0  0
 21 52  1  0  0  0  0
 22 30  2  0  0  0  0
 22 51  1  0  0  0  0
 23 40  1  0  0  0  0
 24 83  1  0  0  0  0
 25 84  1  0  0  0  0
 26 28  2  0  0  0  0
 26 83  1  0  0  0  0
 27 85  1  0  0  0  0
 28 86  1  0  0  0  0
 29 66  2  0  0  0  0
 30 60  1  0  0  0  0
 30 67  1  0  0  0  0
 31 67  2  0  0  0  0
 31 73  1  0  0  0  0
 32 68  1  0  0  0  0
 32 71  1  0  0  0  0
 33 72  1  0  0  0  0
 33 78  2  0  0  0  0
 34 53  1  0  0  0  0
 34 74  1  0  0  0  0
 34 79  2  0  0  0  0
 35 63  1  0  0  0  0
 35 69  1  0  0  0  0
 35 80  2  0  0  0  0
 36 64  1  0  0  0  0
 36 75  1  0  0  0  0
 36 81  2  0  0  0  0
 37 70  1  0  0  0  0
 37 76  1  0  0  0  0
 37 82  2  0  0  0  0
 38 41  1  0  0  0  0
 39 53  1  0  0  0  0
 40 69  1  0  0  0  0
 41 47  1  0  0  0  0
 42 43  1  0  0  0  0
 42 45  1  0  0  0  0
 43 46  1  0  0  0  0
 44 48  1  0  0  0  0
 44 49  1  0  0  0  0
 45 51  1  0  0  0  0
 46 51  1  0  0  0  0
 47 52  1  0  0  0  0
 48 54  1  0  0  0  0
 49 70  1  0  0  0  0
 50 54  1  0  0  0  0
 50 70  1  0  0  0  0
 52 74  1  0  0  0  0
 53 69  1  0  0  0  0
 54 68  1  0  0  0  0
 55 64  1  0  0  0  0
 56 65  1  0  0  0  0
 57 65  1  0  0  0  0
 58 65  1  0  0  0  0
 59 77  1  0  0  0  0
 60 76  1  0  0  0  0
 61 62  1  0  0  0  0
 61 73  1  0  0  0  0
 62 84  1  0  0  0  0
 63 65  1  0  0  0  0
 63 75  1  0  0  0  0
 64 77  1  0  0  0  0
 66 68  1  0  0  0  0
M  CHG  1  77   1
M  ISO  4  37 100  62 101  76 100  84 101
M  END
> <Batch ID>
0129

> <Smiles>
CNC(C)C(=O)NC(C(=O)N1Cc2cc([101O:1][101CH2:1]CNc3ccc(C4CCCC4)c(C[100NH:0][100C:0](=O)N4CCCC(n5nc(-c6ccc(Oc7ccc(F)cc7F)cc6)c(C(N)=O)c5N)C4)n3)ccc2CC1C(=O)NC1CCCc2ccccc21)C(C)(C)C

> <Shape>
0.258

> <Color>
0.069

> <Negative vol penalty>
0.000

$$$$

  -OEChem-04052320453D

 81 89  0     1  0  0  0  0  0999 V2000
  -13.9785  -18.2862   17.5149 C   0  0  0  0  0  0  0  0  0  0  0  0
  -15.0940  -19.1167   17.4815 C   0  0  0  0  0  0  0  0  0  0  0  0
  -22.9996   -9.8950   19.9806 C   0  0  0  0  0  0  0  0  0  0  0  0
  -23.7291   -9.9435   22.2834 C   0  0  0  0  0  0  0  0  0  0  0  0
  -14.1362  -16.9171   17.7264 C   0  0  0  0  0  0  0  0  0  0  0  0
  -16.3680  -18.5788   17.6608 C   0  0  0  0  0  0  0  0  0  0  0  0
  -23.1616  -19.5042   15.5854 C   0  0  0  0  0  0  0  0  0  0  0  0
  -29.4597  -18.2415   17.1792 C   0  0  0  0  0  0  0  0  0  0  0  0
  -30.7030  -18.5824   17.7119 C   0  0  0  0  0  0  0  0  0  0  0  0
  -22.2346   -8.7594   20.2469 C   0  0  0  0  0  0  0  0  0  0  0  0
  -22.9641   -8.8080   22.5497 C   0  0  0  0  0  0  0  0  0  0  0  0
  -24.4402  -19.6544   16.1203 C   0  0  0  0  0  0  0  0  0  0  0  0
  -21.4877   -5.7120   23.7517 C   0  0  0  0  0  0  0  0  0  0  0  0
  -22.0760   -4.6957   24.5045 C   0  0  0  0  0  0  0  0  0  0  0  0
  -24.5978  -17.2635   16.3993 C   0  0  0  0  0  0  0  0  0  0  0  0
  -28.6249  -17.8088   19.4047 C   0  0  0  0  0  0  0  0  0  0  0  0
  -23.7994   -4.4523   22.8288 C   0  0  0  0  0  0  0  0  0  0  0  0
  -23.7470  -10.4870   20.9989 C   0  0  0  0  0  0  0  0  0  0  0  0
  -24.1297  -13.0032   20.8255 C   0  0  0  0  0  0  0  0  0  0  0  0
  -15.4134  -16.3607   17.8987 C   0  0  0  0  0  0  0  0  0  0  0  0
  -22.5861  -18.2313   15.4632 C   0  0  0  0  0  0  0  0  0  0  0  0
  -16.5428  -17.2012   17.8761 C   0  0  0  0  0  0  0  0  0  0  0  0
  -23.3127  -17.0996   15.8601 C   0  0  0  0  0  0  0  0  0  0  0  0
  -28.4206  -17.8547   18.0257 C   0  0  0  0  0  0  0  0  0  0  0  0
  -30.9072  -18.5364   19.0909 C   0  0  0  0  0  0  0  0  0  0  0  0
  -29.8681  -18.1496   19.9374 C   0  0  0  0  0  0  0  0  0  0  0  0
  -22.2168   -8.2159   21.5314 C   0  0  0  0  0  0  0  0  0  0  0  0
  -25.1574  -18.5342   16.5300 C   0  0  0  0  0  0  0  0  0  0  0  0
  -22.0551   -6.0984   22.5375 C   0  0  0  0  0  0  0  0  0  0  0  0
  -23.2319   -4.0659   24.0430 C   0  0  0  0  0  0  0  0  0  0  0  0
  -23.2110   -5.4686   22.0760 C   0  0  0  0  0  0  0  0  0  0  0  0
  -24.5379  -11.6597   20.7243 C   0  0  0  0  0  0  0  0  0  0  0  0
  -25.2381  -13.7272   20.4600 C   0  0  0  0  0  0  0  0  0  0  0  0
  -22.8620  -13.5479   21.2151 C   0  0  0  0  0  0  0  0  0  0  0  0
  -20.0132  -16.8075   16.6702 C   0  0  0  0  0  0  0  0  0  0  0  0
  -20.8693  -14.4165   14.6521 C   0  0  0  0  0  0  0  0  0  0  0  0
  -23.3362  -12.8765   12.8663 C   0  0  0  0  0  0  0  0  0  0  0  0
  -30.7341  -14.6664   20.6994 C   0  0  0  0  0  0  0  0  0  0  0  0
  -15.5303  -14.8821   18.1716 C   0  0  0  0  0  0  0  0  0  0  0  0
  -21.2164  -18.0839   14.8594 C   0  0  0  0  0  0  0  0  0  0  0  0
  -22.7480  -15.7093   15.7313 C   0  0  0  0  0  0  0  0  0  0  0  0
  -16.9432  -14.3370   17.9791 C   0  0  0  0  0  0  0  0  0  0  0  0
  -29.5911  -12.2448   18.3528 C   0  0  0  0  0  0  0  0  0  0  0  0
  -17.9632  -15.2468   18.6562 C   0  0  0  0  0  0  0  0  0  0  0  0
  -28.1437  -11.9832   18.7728 C   0  0  0  0  0  0  0  0  0  0  0  0
  -30.4956  -12.4794   19.5606 C   0  0  0  0  0  0  0  0  0  0  0  0
  -28.5873  -13.2714   20.9041 C   0  0  0  0  0  0  0  0  0  0  0  0
  -17.9431  -16.6516   18.0417 C   0  0  1  0  0  0  0  0  0  0  0  0
  -20.5246  -16.7838   15.2576 C   0  0  1  0  0  0  0  0  0  0  0  0
  -27.6262  -13.0845   19.7176 C   0  0  2  0  0  0  0  0  0  0  0  0
  -32.2472  -18.9048   19.6380 C   0  0  0  0  0  0  0  0  0  0  0  0
  -23.7394  -10.9234   11.3431 C   0  0  0  0  0  0  0  0  0  0  0  0
  -20.7892  -12.5324   17.0508 C   0  0  0  0  0  0  0  0  0  0  0  0
  -22.0886  -10.8715   15.7012 C   0  0  0  0  0  0  0  0  0  0  0  0
  -19.8203  -11.5863   14.9483 C   0  0  0  0  0  0  0  0  0  0  0  0
  -24.1825  -14.6368   10.6428 C   0  0  0  0  0  0  0  0  0  0  0  0
  -30.0636  -18.0927   21.4170 C   0  0  0  0  0  0  0  0  0  0  0  0
  -27.0835  -17.4876   17.4524 C   0  0  0  0  0  0  0  0  0  1  0  0
  -30.8171  -16.8438   21.8873 C   0  0  0  0  0  0  0  0  0  0  0  0
  -21.7570  -13.1996   14.7521 C   0  0  1  0  0  0  0  0  0  0  0  0
  -23.3900  -12.4012   11.4256 C   0  0  2  0  0  0  0  0  0  0  0  0
  -21.1239  -12.0736   15.6174 C   0  0  0  0  0  0  0  0  0  0  0  0
  -25.8065  -11.5348   20.3256 N   0  0  0  0  0  0  0  0  0  0  0  0
  -26.2050  -12.8092   20.1729 N   0  0  0  0  0  0  0  0  0  0  0  0
  -21.4025  -15.6177   15.1407 N   0  0  0  0  0  0  0  0  0  0  0  0
  -29.9495  -13.5365   20.4152 N   0  0  0  0  0  0  0  0  0  0  0  0
  -25.4702  -15.0533   20.3592 N   0  0  0  0  0  0  0  0  0  0  0  0
  -21.8316  -12.6624   21.5594 N   0  0  0  0  0  0  0  0  0  0  0  0
  -18.6434  -16.6594   16.7752 N   0  0  0  0  0  0  0  0  0  0  0  0
  -22.0595  -12.8013   13.3815 N   0  0  0  0  0  0  0  0  0  0  0  0
  -30.1384  -15.6236   21.5116 N   0  0  0  0  0  0  0  0  0  0  0  0
  -24.4153  -13.1697   10.6645 N   0  3  0  0  0  0  0  0  0  0  0  0
  -22.6442  -14.7830   21.2409 O   0  0  0  0  0  0  0  0  0  0  0  0
  -20.8032  -16.9481   17.5965 O   0  0  0  0  0  0  0  0  0  0  0  0
  -19.7469  -14.3069   14.1522 O   0  0  0  0  0  0  0  0  0  0  0  0
  -24.3283  -13.2712   13.4750 O   0  0  0  0  0  0  0  0  0  0  0  0
  -31.8786  -14.8139   20.2573 O   0  0  0  0  0  0  0  0  0  0  0  0
  -21.4702   -7.1080   21.7917 O   0  0  0  0  0  0  0  0  0  0  0  0
  -26.4055  -18.6780   17.0531 O   0  0  0  0  0  0  0  0  0  1  0  0
  -23.7977   -3.0911   24.7667 F   0  0  0  0  0  0  0  0  0  0  0  0
  -23.7614   -5.8363   20.9108 F   0  0  0  0  0  0  0  0  0  0  0  0
  1  2  1  0  0  0  0
  1  5  2  0  0  0  0
  2  6  2  0  0  0  0
  3 10  2  0  0  0  0
  3 18  1  0  0  0  0
  4 11  1  0  0  0  0
  4 18  2  0  0  0  0
  5 20  1  0  0  0  0
  6 22  1  0  0  0  0
  7 12  2  0  0  0  0
  7 21  1  0  0  0  0
  8  9  2  0  0  0  0
  8 24  1  0  0  0  0
  9 25  1  0  0  0  0
 10 27  1  0  0  0  0
 11 27  2  0  0  0  0
 12 28  1  0  0  0  0
 13 14  2  0  0  0  0
 13 29  1  0  0  0  0
 14 30  1  0  0  0  0
 15 23  1  0  0  0  0
 15 28  2  0  0  0  0
 16 24  2  0  0  0  0
 16 26  1  0  0  0  0
 17 30  2  0  0  0  0
 17 31  1  0  0  0  0
 18 32  1  0  0  0  0
 19 32  1  0  0  0  0
 19 33  2  0  0  0  0
 19 34  1  0  0  0  0
 20 22  2  0  0  0  0
 20 39  1  0  0  0  0
 21 23  2  0  0  0  0
 21 40  1  0  0  0  0
 22 48  1  0  0  0  0
 23 41  1  0  0  0  0
 24 58  1  0  0  0  0
 25 26  2  0  0  0  0
 25 51  1  0  0  0  0
 26 57  1  0  0  0  0
 27 78  1  0  0  0  0
 28 79  1  0  0  0  0
 29 31  2  0  0  0  0
 29 78  1  0  0  0  0
 30 80  1  0  0  0  0
 31 81  1  0  0  0  0
 32 63  2  0  0  0  0
 33 64  1  0  0  0  0
 33 67  1  0  0  0  0
 34 68  1  0  0  0  0
 34 73  2  0  0  0  0
 35 49  1  0  0  0  0
 35 69  1  0  0  0  0
 35 74  2  0  0  0  0
 36 60  1  0  0  0  0
 36 65  1  0  0  0  0
 36 75  2  0  0  0  0
 37 61  1  0  0  0  0
 37 70  1  0  0  0  0
 37 76  2  0  0  0  0
 38 66  1  0  0  0  0
 38 71  1  0  0  0  0
 38 77  2  0  0  0  0
 39 42  1  0  0  0  0
 40 49  1  0  0  0  0
 41 65  1  0  0  0  0
 42 44  1  0  0  0  0
 43 45  1  0  0  0  0
 43 46  1  0  0  0  0
 44 48  1  0  0  0  0
 45 50  1  0  0  0  0
 46 66  1  0  0  0  0
 47 50  1  0  0  0  0
 47 66  1  0  0  0  0
 48 69  1  0  0  0  0
 49 65  1  0  0  0  0
 50 64  1  0  0  0  0
 52 61  1  0  0  0  0
 53 62  1  0  0  0  0
 54 62  1  0  0  0  0
 55 62  1  0  0  0  0
 56 72  1  0  0  0  0
 57 59  1  0  0  0  0
 58 79  1  0  0  0  0
 59 71  1  0  0  0  0
 60 62  1  0  0  0  0
 60 70  1  0  0  0  0
 61 72  1  0  0  0  0
 63 64  1  0  0  0  0
M  CHG  1  72   1
M  ISO  4  38 100  58 101  71 100  79 101
M  END
> <Batch ID>
0129

> <Smiles>
CNC(C)C(=O)NC(C(=O)N1Cc2cc([101O:1][101CH2:1]c3ccc(C)c(CC[100NH:0][100C:0](=O)N4CCCC(n5nc(-c6ccc(Oc7ccc(F)cc7F)cc6)c(C(N)=O)c5N)C4)c3)ccc2CC1C(=O)NC1CCCc2ccccc21)C(C)(C)C

> <Shape>
0.196

> <Color>
0.206

> <Negative vol penalty>
0.000

$$$$

  -OEChem-04052320453D

 86 95  0     1  0  0  0  0  0999 V2000
  -35.9539  -20.8132   13.8028 C   0  0  0  0  0  0  0  0  0  0  0  0
  -34.8632  -20.6161   14.6437 C   0  0  0  0  0  0  0  0  0  0  0  0
  -23.0772   -9.8618   19.9448 C   0  0  0  0  0  0  0  0  0  0  0  0
  -23.8354   -9.8774   22.2387 C   0  0  0  0  0  0  0  0  0  0  0  0
  -37.0865  -21.4748   14.2756 C   0  0  0  0  0  0  0  0  0  0  0  0
  -34.9051  -21.0794   15.9582 C   0  0  0  0  0  0  0  0  0  0  0  0
  -30.2267  -23.2935   19.2319 C   0  0  0  0  0  0  0  0  0  0  0  0
  -22.3348   -8.7085   20.1980 C   0  0  0  0  0  0  0  0  0  0  0  0
  -23.0929   -8.7241   22.4919 C   0  0  0  0  0  0  0  0  0  0  0  0
  -29.3962  -22.7152   20.1909 C   0  0  0  0  0  0  0  0  0  0  0  0
  -19.8654   -7.9237   23.0946 C   0  0  0  0  0  0  0  0  0  0  0  0
  -19.1076   -7.8866   24.2651 C   0  0  0  0  0  0  0  0  0  0  0  0
  -30.8024  -23.6058   21.9369 C   0  0  0  0  0  0  0  0  0  0  0  0
  -31.4759  -19.3889   22.7357 C   0  0  0  0  0  0  0  0  0  0  0  0
  -29.7411  -17.7234   22.7044 C   0  0  0  0  0  0  0  0  0  0  0  0
  -20.3512   -5.9533   25.0088 C   0  0  0  0  0  0  0  0  0  0  0  0
  -23.8276  -10.4463   20.9651 C   0  0  0  0  0  0  0  0  0  0  0  0
  -24.1660  -12.9715   20.8371 C   0  0  0  0  0  0  0  0  0  0  0  0
  -37.1385  -21.9549   15.5936 C   0  0  0  0  0  0  0  0  0  0  0  0
  -31.3593  -24.0243   19.6186 C   0  0  0  0  0  0  0  0  0  0  0  0
  -36.0400  -21.7468   16.4494 C   0  0  0  0  0  0  0  0  0  0  0  0
  -31.6442  -24.1945   20.9810 C   0  0  0  0  0  0  0  0  0  0  0  0
  -30.2136  -18.9599   23.1302 C   0  0  0  0  0  0  0  0  0  0  0  0
  -22.3426   -8.1396   21.4715 C   0  0  0  0  0  0  0  0  0  0  0  0
  -29.6856  -22.8689   21.5435 C   0  0  0  0  0  0  0  0  0  0  0  0
  -20.8660   -6.9756   22.8812 C   0  0  0  0  0  0  0  0  0  0  0  0
  -19.3505   -6.9014   25.2222 C   0  0  0  0  0  0  0  0  0  0  0  0
  -21.1089   -5.9904   23.8383 C   0  0  0  0  0  0  0  0  0  0  0  0
  -24.5952  -11.6374   20.7041 C   0  0  0  0  0  0  0  0  0  0  0  0
  -32.2206  -18.5510   21.9215 C   0  0  0  0  0  0  0  0  0  0  0  0
  -30.5634  -16.9601   21.8913 C   0  0  0  0  0  0  0  0  0  0  0  0
  -25.2574  -13.7213   20.4721 C   0  0  0  0  0  0  0  0  0  0  0  0
  -22.8945  -13.4869   21.2533 C   0  0  0  0  0  0  0  0  0  0  0  0
  -34.4902  -23.7168   19.1643 C   0  0  0  0  0  0  0  0  0  0  0  0
  -34.5935  -26.6053   20.6367 C   0  0  0  0  0  0  0  0  0  0  0  0
  -33.1032  -28.8378   22.7443 C   0  0  0  0  0  0  0  0  0  0  0  0
  -30.7220  -14.7751   20.6475 C   0  0  0  0  0  0  0  0  0  0  0  0
  -38.4029  -22.6224   16.0738 C   0  0  0  0  0  0  0  0  0  0  0  0
  -32.2302  -24.6644   18.5725 C   0  0  0  0  0  0  0  0  0  0  0  0
  -32.8366  -24.9868   21.4488 C   0  0  0  0  0  0  0  0  0  0  0  0
  -38.2210  -23.4129   17.3669 C   0  0  0  0  0  0  0  0  0  0  0  0
  -29.6127  -12.3520   18.2864 C   0  0  0  0  0  0  0  0  0  0  0  0
  -28.8078  -19.4206   27.6933 C   0  0  0  0  0  0  0  0  0  0  0  0
  -37.4426  -22.5916   18.3898 C   0  0  0  0  0  0  0  0  0  0  0  0
  -28.1732  -12.0598   18.7158 C   0  0  0  0  0  0  0  0  0  0  0  0
  -28.3755  -20.0248   26.3704 C   0  0  0  0  0  0  0  0  0  0  0  0
  -30.5266  -12.5860   19.4879 C   0  0  0  0  0  0  0  0  0  0  0  0
  -28.6176  -13.3123   20.8654 C   0  0  0  0  0  0  0  0  0  0  0  0
  -30.2871  -19.1623   27.4876 C   0  0  0  0  0  0  0  0  0  0  0  0
  -36.0377  -22.2566   17.8743 C   0  0  1  0  0  0  0  0  0  0  0  0
  -33.6437  -24.9544   19.0676 C   0  0  1  0  0  0  0  0  0  0  0  0
  -27.6459  -13.1339   19.6874 C   0  0  2  0  0  0  0  0  0  0  0  0
  -29.1004  -19.1572   25.3520 C   0  0  1  0  0  0  0  0  0  0  0  0
  -33.5797  -18.9793   21.4778 C   0  0  0  0  0  0  0  0  0  0  0  0
  -33.4456  -31.0958   23.7843 C   0  0  0  0  0  0  0  0  0  0  0  0
  -36.6054  -25.3989   22.5878 C   0  0  0  0  0  0  0  0  0  0  0  0
  -36.1846  -27.3392   24.1130 C   0  0  0  0  0  0  0  0  0  0  0  0
  -37.1415  -27.7249   21.8418 C   0  0  0  0  0  0  0  0  0  0  0  0
  -30.6705  -29.9274   21.4583 C   0  0  0  0  0  0  0  0  0  0  0  0
  -28.0202  -20.2448   23.3665 C   0  0  0  0  0  0  0  0  0  0  0  0
  -28.2001  -21.1027   22.1175 C   0  0  0  0  0  0  0  0  0  1  0  0
  -29.3539  -19.8383   24.0227 C   0  0  2  0  0  0  0  0  0  0  0  0
  -34.7094  -27.0724   22.0676 C   0  0  1  0  0  0  0  0  0  0  0  0
  -32.8475  -30.3286   22.6154 C   0  0  2  0  0  0  0  0  0  0  0  0
  -36.1387  -26.8672   22.6440 C   0  0  0  0  0  0  0  0  0  0  0  0
  -25.8605  -11.5420   20.2870 N   0  0  0  0  0  0  0  0  0  0  0  0
  -31.7954  -17.3433   21.4875 N   0  0  0  0  0  0  0  0  0  0  0  0
  -26.2357  -12.8256   20.1548 N   0  0  0  0  0  0  0  0  0  0  0  0
  -33.6614  -25.5880   20.3877 N   0  0  0  0  0  0  0  0  0  0  0  0
  -29.9655  -13.6189   20.3615 N   0  0  0  0  0  0  0  0  0  0  0  0
  -25.4660  -15.0528   20.3949 N   0  0  0  0  0  0  0  0  0  0  0  0
  -21.8836  -12.5775   21.5928 N   0  0  0  0  0  0  0  0  0  0  0  0
  -30.0727  -15.7020   21.4624 N   0  0  0  0  0  0  0  0  0  0  0  0
  -35.1661  -23.4050   18.0000 N   0  0  0  0  0  0  0  0  0  0  0  0
  -34.2519  -28.4576   22.0831 N   0  0  0  0  0  0  0  0  0  0  0  0
  -30.4081  -18.8310   26.0266 N   0  3  0  0  0  0  0  0  0  0  0  0
  -31.3829  -30.6012   22.5743 N   0  3  0  0  0  0  0  0  0  0  0  0
  -22.6565  -14.7174   21.3064 O   0  0  0  0  0  0  0  0  0  0  0  0
  -34.5286  -23.0918   20.2177 O   0  0  0  0  0  0  0  0  0  0  0  0
  -35.2987  -27.1290   19.7706 O   0  0  0  0  0  0  0  0  0  0  0  0
  -32.3604  -28.0864   23.3721 O   0  0  0  0  0  0  0  0  0  0  0  0
  -31.8512  -14.9439   20.1802 O   0  0  0  0  0  0  0  0  0  0  0  0
  -21.6180   -7.0143   21.7190 O   0  0  0  0  0  0  0  0  0  0  0  0
  -28.8770  -22.3050   22.4816 O   0  0  0  0  0  0  0  0  0  1  0  0
  -18.6238   -6.8668   26.3468 F   0  0  0  0  0  0  0  0  0  0  0  0
  -22.0697   -5.0776   23.6394 F   0  0  0  0  0  0  0  0  0  0  0  0
  1  2  1  0  0  0  0
  1  5  2  0  0  0  0
  2  6  2  0  0  0  0
  3  8  2  0  0  0  0
  3 17  1  0  0  0  0
  4  9  1  0  0  0  0
  4 17  2  0  0  0  0
  5 19  1  0  0  0  0
  6 21  1  0  0  0  0
  7 10  2  0  0  0  0
  7 20  1  0  0  0  0
  8 24  1  0  0  0  0
  9 24  2  0  0  0  0
 10 25  1  0  0  0  0
 11 12  2  0  0  0  0
 11 26  1  0  0  0  0
 12 27  1  0  0  0  0
 13 22  1  0  0  0  0
 13 25  2  0  0  0  0
 14 23  1  0  0  0  0
 14 30  2  0  0  0  0
 15 23  2  0  0  0  0
 15 31  1  0  0  0  0
 16 27  2  0  0  0  0
 16 28  1  0  0  0  0
 17 29  1  0  0  0  0
 18 29  1  0  0  0  0
 18 32  2  0  0  0  0
 18 33  1  0  0  0  0
 19 21  2  0  0  0  0
 19 38  1  0  0  0  0
 20 22  2  0  0  0  0
 20 39  1  0  0  0  0
 21 50  1  0  0  0  0
 22 40  1  0  0  0  0
 23 62  1  0  0  0  0
 24 83  1  0  0  0  0
 25 84  1  0  0  0  0
 26 28  2  0  0  0  0
 26 83  1  0  0  0  0
 27 85  1  0  0  0  0
 28 86  1  0  0  0  0
 29 66  2  0  0  0  0
 30 54  1  0  0  0  0
 30 67  1  0  0  0  0
 31 67  2  0  0  0  0
 31 73  1  0  0  0  0
 32 68  1  0  0  0  0
 32 71  1  0  0  0  0
 33 72  1  0  0  0  0
 33 78  2  0  0  0  0
 34 51  1  0  0  0  0
 34 74  1  0  0  0  0
 34 79  2  0  0  0  0
 35 63  1  0  0  0  0
 35 69  1  0  0  0  0
 35 80  2  0  0  0  0
 36 64  1  0  0  0  0
 36 75  1  0  0  0  0
 36 81  2  0  0  0  0
 37 70  1  0  0  0  0
 37 73  1  0  0  0  0
 37 82  2  0  0  0  0
 38 41  1  0  0  0  0
 39 51  1  0  0  0  0
 40 69  1  0  0  0  0
 41 44  1  0  0  0  0
 42 45  1  0  0  0  0
 42 47  1  0  0  0  0
 43 46  1  0  0  0  0
 43 49  1  0  0  0  0
 44 50  1  0  0  0  0
 45 52  1  0  0  0  0
 46 53  1  0  0  0  0
 47 70  1  0  0  0  0
 48 52  1  0  0  0  0
 48 70  1  0  0  0  0
 49 76  1  0  0  0  0
 50 74  1  0  0  0  0
 51 69  1  0  0  0  0
 52 68  1  0  0  0  0
 53 62  1  0  0  0  0
 53 76  1  0  0  0  0
 55 64  1  0  0  0  0
 56 65  1  0  0  0  0
 57 65  1  0  0  0  0
 58 65  1  0  0  0  0
 59 77  1  0  0  0  0
 60 61  1  0  0  0  0
 60 62  1  0  0  0  0
 61 84  1  0  0  0  0
 63 65  1  0  0  0  0
 63 75  1  0  0  0  0
 64 77  1  0  0  0  0
 66 68  1  0  0  0  0
M  CHG  2  76   1  77   1
M  ISO  4  37 100  61 101  73 100  84 101
M  END
> <Batch ID>
0129

> <Smiles>
CNC(C)C(=O)NC(C(=O)N1Cc2cc([101O:1][101CH2:1]CC(c3cc(C)nc([100NH:0][100C:0](=O)N4CCCC(n5nc(-c6ccc(Oc7ccc(F)cc7F)cc6)c(C(N)=O)c5N)C4)c3)C3CCCN3)ccc2CC1C(=O)NC1CCCc2ccccc21)C(C)(C)C

> <Shape>
0.203

> <Color>
0.184

> <Negative vol penalty>
0.000

$$$$

  -OEChem-04052320453D

 86 95  0     1  0  0  0  0  0999 V2000
  -26.1178  -38.3563   22.9645 C   0  0  0  0  0  0  0  0  0  0  0  0
  -26.9844  -37.3498   22.5503 C   0  0  0  0  0  0  0  0  0  0  0  0
  -29.3051  -11.4992   19.2675 C   0  0  0  0  0  0  0  0  0  0  0  0
  -30.7461  -13.0544   20.4260 C   0  0  0  0  0  0  0  0  0  0  0  0
  -25.1858  -38.1020   23.9698 C   0  0  0  0  0  0  0  0  0  0  0  0
  -26.9201  -36.0888   23.1420 C   0  0  0  0  0  0  0  0  0  0  0  0
  -27.1201  -32.3371   19.7465 C   0  0  0  0  0  0  0  0  0  0  0  0
  -30.3210  -10.5436   19.2867 C   0  0  0  0  0  0  0  0  0  0  0  0
  -31.7620  -12.0987   20.4453 C   0  0  0  0  0  0  0  0  0  0  0  0
  -28.3721  -32.0192   19.2219 C   0  0  0  0  0  0  0  0  0  0  0  0
  -34.0660  -10.8683   18.2985 C   0  0  0  0  0  0  0  0  0  0  0  0
  -35.3533  -11.2839   17.9583 C   0  0  0  0  0  0  0  0  0  0  0  0
  -28.5290  -30.1535   20.7430 C   0  0  0  0  0  0  0  0  0  0  0  0
  -36.1470  -10.6103   20.1385 C   0  0  0  0  0  0  0  0  0  0  0  0
  -29.5177  -12.7547   19.8371 C   0  0  0  0  0  0  0  0  0  0  0  0
  -27.1871  -13.6331   20.3886 C   0  0  0  0  0  0  0  0  0  0  0  0
  -25.1036  -36.8345   24.5674 C   0  0  0  0  0  0  0  0  0  0  0  0
  -26.5670  -31.5708   20.7825 C   0  0  0  0  0  0  0  0  0  0  0  0
  -25.9870  -35.8178   24.1572 C   0  0  0  0  0  0  0  0  0  0  0  0
  -27.2687  -30.4622   21.2773 C   0  0  0  0  0  0  0  0  0  0  0  0
  -31.5494  -10.8433   19.8756 C   0  0  0  0  0  0  0  0  0  0  0  0
  -29.0780  -30.9290   19.7221 C   0  0  0  0  0  0  0  0  0  0  0  0
  -33.8192  -10.3238   19.5588 C   0  0  0  0  0  0  0  0  0  0  0  0
  -36.3938  -11.1549   18.8783 C   0  0  0  0  0  0  0  0  0  0  0  0
  -34.8597  -10.1947   20.4788 C   0  0  0  0  0  0  0  0  0  0  0  0
  -28.4690  -13.7425   19.8170 C   0  0  0  0  0  0  0  0  0  0  0  0
  -26.5775  -14.8286   20.0958 C   0  0  0  0  0  0  0  0  0  0  0  0
  -26.6000  -12.5480   21.1190 C   0  0  0  0  0  0  0  0  0  0  0  0
  -25.6889  -32.1541   23.7813 C   0  0  0  0  0  0  0  0  0  0  0  0
  -32.4462  -26.0350   18.3904 C   0  0  0  0  0  0  0  0  0  0  0  0
  -24.5805  -29.1089   23.6375 C   0  0  0  0  0  0  0  0  0  0  0  0
  -24.7611  -26.0255   22.1858 C   0  0  0  0  0  0  0  0  0  0  0  0
  -29.0236  -20.1794   18.8154 C   0  0  0  0  0  0  0  0  0  0  0  0
  -24.1116  -36.6209   25.6832 C   0  0  0  0  0  0  0  0  0  0  0  0
  -25.2037  -31.9108   21.3193 C   0  0  0  0  0  0  0  0  0  0  0  0
  -26.7101  -29.5955   22.3751 C   0  0  0  0  0  0  0  0  0  0  0  0
  -23.8565  -35.1491   25.9980 C   0  0  0  0  0  0  0  0  0  0  0  0
  -27.6057  -17.5758   16.3680 C   0  0  0  0  0  0  0  0  0  0  0  0
  -25.1744  -34.3867   26.0905 C   0  0  0  0  0  0  0  0  0  0  0  0
  -26.6966  -16.9449   17.4185 C   0  0  0  0  0  0  0  0  0  0  0  0
  -28.0638  -18.9638   16.8050 C   0  0  0  0  0  0  0  0  0  0  0  0
  -28.6539  -17.7260   18.8888 C   0  0  0  0  0  0  0  0  0  0  0  0
  -29.1658  -25.5611   18.6242 C   0  0  0  0  0  0  0  0  0  0  0  0
  -31.3167  -22.9960   16.8692 C   0  0  0  0  0  0  0  0  0  0  0  0
  -28.2497  -23.3139   19.2297 C   0  0  0  0  0  0  0  0  0  0  0  0
  -25.9314  -34.4298   24.7576 C   0  0  1  0  0  0  0  0  0  0  0  0
  -24.9630  -31.3696   22.7252 C   0  0  1  0  0  0  0  0  0  0  0  0
  -31.6174  -24.7995   18.5020 C   0  0  1  0  0  0  0  0  0  0  0  0
  -30.2675  -24.9179   17.7906 C   0  0  1  0  0  0  0  0  0  0  0  0
  -29.9570  -23.4761   17.3633 C   0  0  2  0  0  0  0  0  0  0  0  0
  -27.3244  -16.9531   18.8294 C   0  0  2  0  0  0  0  0  0  0  0  0
  -29.4005  -22.6165   18.5159 C   0  0  2  0  0  0  0  0  0  0  0  0
  -23.7552  -23.7297   22.3061 C   0  0  0  0  0  0  0  0  0  0  0  0
  -26.2057  -28.5313   26.1545 C   0  0  0  0  0  0  0  0  0  0  0  0
  -25.9383  -26.0872   25.6821 C   0  0  0  0  0  0  0  0  0  0  0  0
  -23.9286  -27.4977   26.1229 C   0  0  0  0  0  0  0  0  0  0  0  0
  -23.7630  -26.1908   19.4046 C   0  0  0  0  0  0  0  0  0  0  0  0
  -32.2986  -29.2896   19.0522 C   0  0  0  0  0  0  0  0  0  0  0  0
  -33.0953  -28.1110   19.5952 C   0  0  0  0  0  0  0  0  0  0  0  0
  -30.9692  -29.4878   19.7703 C   0  0  0  0  0  0  0  0  0  1  0  0
  -25.1597  -27.7455   23.9286 C   0  0  1  0  0  0  0  0  0  0  0  0
  -23.6839  -25.0998   21.6501 C   0  0  2  0  0  0  0  0  0  0  0  0
  -25.3197  -27.4827   25.4527 C   0  0  0  0  0  0  0  0  0  0  0  0
  -28.6633  -14.9148   19.2070 N   0  0  0  0  0  0  0  0  0  0  0  0
  -27.4954  -15.5530   19.3937 N   0  0  0  0  0  0  0  0  0  0  0  0
  -25.3763  -29.9725   22.8714 N   0  0  0  0  0  0  0  0  0  0  0  0
  -28.5670  -19.0061   18.1839 N   0  0  0  0  0  0  0  0  0  0  0  0
  -25.3512  -15.3203   20.3729 N   0  0  0  0  0  0  0  0  0  0  0  0
  -26.7550  -12.5187   22.5116 N   0  0  0  0  0  0  0  0  0  0  0  0
  -25.3529  -33.4939   23.8174 N   0  0  0  0  0  0  0  0  0  0  0  0
  -32.3715  -26.8641   19.4934 N   0  0  0  0  0  0  0  0  0  0  0  0
  -24.3037  -26.7835   23.2430 N   0  0  0  0  0  0  0  0  0  0  0  0
  -28.9689  -21.3265   18.0277 N   0  0  0  0  0  0  0  0  0  0  0  0
  -28.7191  -24.6465   19.7131 N   0  3  0  0  0  0  0  0  0  0  0  0
  -32.3028  -23.6558   17.7920 N   0  3  0  0  0  0  0  0  0  0  0  0
  -23.8367  -24.9245   20.1780 N   0  3  0  0  0  0  0  0  0  0  0  0
  -25.9710  -11.6228   20.5517 O   0  0  0  0  0  0  0  0  0  0  0  0
  -26.4931  -31.5855   24.5104 O   0  0  0  0  0  0  0  0  0  0  0  0
  -33.1101  -26.2279   17.3786 O   0  0  0  0  0  0  0  0  0  0  0  0
  -23.4603  -29.3944   24.0677 O   0  0  0  0  0  0  0  0  0  0  0  0
  -25.8960  -26.0691   21.7161 O   0  0  0  0  0  0  0  0  0  0  0  0
  -29.4444  -20.2012   19.9759 O   0  0  0  0  0  0  0  0  0  0  0  0
  -32.5408   -9.9109   19.8948 O   0  0  0  0  0  0  0  0  0  0  0  0
  -30.3093  -30.6146   19.2086 O   0  0  0  0  0  0  0  0  0  1  0  0
  -37.6303  -11.5526   18.5508 F   0  0  0  0  0  0  0  0  0  0  0  0
  -34.6289   -9.6713   21.6906 F   0  0  0  0  0  0  0  0  0  0  0  0
  1  2  1  0  0  0  0
  1  5  2  0  0  0  0
  2  6  2  0  0  0  0
  3  8  2  0  0  0  0
  3 15  1  0  0  0  0
  4  9  1  0  0  0  0
  4 15  2  0  0  0  0
  5 17  1  0  0  0  0
  6 19  1  0  0  0  0
  7 10  2  0  0  0  0
  7 18  1  0  0  0  0
  8 21  1  0  0  0  0
  9 21  2  0  0  0  0
 10 22  1  0  0  0  0
 11 12  2  0  0  0  0
 11 23  1  0  0  0  0
 12 24  1  0  0  0  0
 13 20  1  0  0  0  0
 13 22  2  0  0  0  0
 14 24  2  0  0  0  0
 14 25  1  0  0  0  0
 15 26  1  0  0  0  0
 16 26  1  0  0  0  0
 16 27  2  0  0  0  0
 16 28  1  0  0  0  0
 17 19  2  0  0  0  0
 17 34  1  0  0  0  0
 18 20  2  0  0  0  0
 18 35  1  0  0  0  0
 19 46  1  0  0  0  0
 20 36  1  0  0  0  0
 21 83  1  0  0  0  0
 22 84  1  0  0  0  0
 23 25  2  0  0  0  0
 23 83  1  0  0  0  0
 24 85  1  0  0  0  0
 25 86  1  0  0  0  0
 26 64  2  0  0  0  0
 27 65  1  0  0  0  0
 27 68  1  0  0  0  0
 28 69  1  0  0  0  0
 28 77  2  0  0  0  0
 29 47  1  0  0  0  0
 29 70  1  0  0  0  0
 29 78  2  0  0  0  0
 30 48  1  0  0  0  0
 30 71  1  0  0  0  0
 30 79  2  0  0  0  0
 31 61  1  0  0  0  0
 31 66  1  0  0  0  0
 31 80  2  0  0  0  0
 32 62  1  0  0  0  0
 32 72  1  0  0  0  0
 32 81  2  0  0  0  0
 33 67  1  0  0  0  0
 33 73  1  0  0  0  0
 33 82  2  0  0  0  0
 34 37  1  0  0  0  0
 35 47  1  0  0  0  0
 36 66  1  0  0  0  0
 37 39  1  0  0  0  0
 38 40  1  0  0  0  0
 38 41  1  0  0  0  0
 39 46  1  0  0  0  0
 40 51  1  0  0  0  0
 41 67  1  0  0  0  0
 42 51  1  0  0  0  0
 42 67  1  0  0  0  0
 43 49  1  0  0  0  0
 43 74  1  0  0  0  0
 44 50  1  0  0  0  0
 44 75  1  0  0  0  0
 45 52  1  0  0  0  0
 45 74  1  0  0  0  0
 46 70  1  0  0  0  0
 47 66  1  0  0  0  0
 48 49  1  0  0  0  0
 48 75  1  0  0  0  0
 49 50  1  0  0  0  0
 50 52  1  0  0  0  0
 51 65  1  0  0  0  0
 52 73  1  0  0  0  0
 53 62  1  0  0  0  0
 54 63  1  0  0  0  0
 55 63  1  0  0  0  0
 56 63  1  0  0  0  0
 57 76  1  0  0  0  0
 58 59  1  0  0  0  0
 58 60  1  0  0  0  0
 59 71  1  0  0  0  0
 60 84  1  0  0  0  0
 61 63  1  0  0  0  0
 61 72  1  0  0  0  0
 62 76  1  0  0  0  0
 64 65  1  0  0  0  0
M  CHG  3  74   1  75   1  76   1
M  ISO  4  33 100  60 101  73 100  84 101
M  END
> <Batch ID>
0129

> <Smiles>
CNC(C)C(=O)NC(C(=O)N1Cc2cc([101O:1][101CH2:1]CCNC(=O)C3NCC4C([100NH:0][100C:0](=O)N5CCCC(n6nc(-c7ccc(Oc8ccc(F)cc8F)cc7)c(C(N)=O)c6N)C5)CNCC34)ccc2CC1C(=O)NC1CCCc2ccccc21)C(C)(C)C

> <Shape>
0.234

> <Color>
0.091

> <Negative vol penalty>
0.000

$$$$

  -OEChem-04052320453D

 87 96  0     1  0  0  0  0  0999 V2000
  -25.2631  -33.9371   12.8903 C   0  0  0  0  0  0  0  0  0  0  0  0
  -25.4948  -32.6802   13.4398 C   0  0  0  0  0  0  0  0  0  0  0  0
  -24.4656   -9.5392   22.3056 C   0  0  0  0  0  0  0  0  0  0  0  0
  -24.0271   -9.5202   19.9298 C   0  0  0  0  0  0  0  0  0  0  0  0
  -25.6640  -35.0819   13.5778 C   0  0  0  0  0  0  0  0  0  0  0  0
  -26.1286  -32.5674   14.6768 C   0  0  0  0  0  0  0  0  0  0  0  0
  -29.8052  -22.4487   20.6243 C   0  0  0  0  0  0  0  0  0  0  0  0
  -27.8280  -21.6237   21.7412 C   0  0  0  0  0  0  0  0  0  0  0  0
  -25.0591  -28.3538   18.9905 C   0  0  0  0  0  0  0  0  0  0  0  0
  -29.0768  -23.5335   20.1362 C   0  0  0  0  0  0  0  0  0  0  0  0
  -27.0997  -22.7086   21.2531 C   0  0  0  0  0  0  0  0  0  0  0  0
  -24.0501   -8.2105   22.3930 C   0  0  0  0  0  0  0  0  0  0  0  0
  -23.6116   -8.1915   20.0171 C   0  0  0  0  0  0  0  0  0  0  0  0
  -25.7094  -27.1663   19.3234 C   0  0  0  0  0  0  0  0  0  0  0  0
  -21.1268   -6.5167   22.4920 C   0  0  0  0  0  0  0  0  0  0  0  0
  -20.2730   -6.1730   23.5400 C   0  0  0  0  0  0  0  0  0  0  0  0
  -26.9540  -28.3331   21.0289 C   0  0  0  0  0  0  0  0  0  0  0  0
  -21.9076   -4.5904   24.3527 C   0  0  0  0  0  0  0  0  0  0  0  0
  -24.4540  -10.1940   21.0740 C   0  0  0  0  0  0  0  0  0  0  0  0
  -24.3263  -12.6766   21.6470 C   0  0  0  0  0  0  0  0  0  0  0  0
  -29.1807  -21.4937   21.4267 C   0  0  0  0  0  0  0  0  0  0  0  0
  -26.2943  -34.9834   14.8283 C   0  0  0  0  0  0  0  0  0  0  0  0
  -25.3599  -29.5441   19.6680 C   0  0  0  0  0  0  0  0  0  0  0  0
  -26.5395  -33.7119   15.3811 C   0  0  0  0  0  0  0  0  0  0  0  0
  -26.3044  -29.5338   20.7044 C   0  0  0  0  0  0  0  0  0  0  0  0
  -27.7241  -23.6635   20.4506 C   0  0  0  0  0  0  0  0  0  0  0  0
  -23.6232   -7.5366   21.2487 C   0  0  0  0  0  0  0  0  0  0  0  0
  -26.6591  -27.1564   20.3408 C   0  0  0  0  0  0  0  0  0  0  0  0
  -22.3710   -5.8972   22.3742 C   0  0  0  0  0  0  0  0  0  0  0  0
  -20.6634   -5.2099   24.4704 C   0  0  0  0  0  0  0  0  0  0  0  0
  -22.7614   -4.9340   23.3046 C   0  0  0  0  0  0  0  0  0  0  0  0
  -24.8825  -11.5667   20.9833 C   0  0  0  0  0  0  0  0  0  0  0  0
  -25.0850  -13.7424   21.2289 C   0  0  0  0  0  0  0  0  0  0  0  0
  -23.2225  -12.7385   22.5600 C   0  0  0  0  0  0  0  0  0  0  0  0
  -26.5522  -32.3668   18.8225 C   0  0  0  0  0  0  0  0  0  0  0  0
  -25.8634  -33.1412   21.8963 C   0  0  0  0  0  0  0  0  0  0  0  0
  -25.3304  -32.0903   25.0991 C   0  0  0  0  0  0  0  0  0  0  0  0
  -30.0433  -16.0409   20.0985 C   0  0  0  0  0  0  0  0  0  0  0  0
  -26.7521  -36.2473   15.5121 C   0  0  0  0  0  0  0  0  0  0  0  0
  -24.6303  -30.8112   19.3149 C   0  0  0  0  0  0  0  0  0  0  0  0
  -26.6485  -30.7806   21.4760 C   0  0  0  0  0  0  0  0  0  0  0  0
  -27.0808  -36.0553   16.9904 C   0  0  0  0  0  0  0  0  0  0  0  0
  -28.5262  -14.0873   17.5375 C   0  0  0  0  0  0  0  0  0  0  0  0
  -27.9423  -34.8122   17.1886 C   0  0  0  0  0  0  0  0  0  0  0  0
  -30.8077  -19.0073   23.9779 C   0  0  0  0  0  0  0  0  0  0  0  0
  -27.4018  -13.3447   18.2616 C   0  0  0  0  0  0  0  0  0  0  0  0
  -30.2353  -17.7209   23.3892 C   0  0  0  0  0  0  0  0  0  0  0  0
  -29.4141  -18.9961   21.3754 C   0  0  0  0  0  0  0  0  0  0  0  0
  -29.7623  -14.2397   18.4212 C   0  0  0  0  0  0  0  0  0  0  0  0
  -28.3860  -14.1127   20.4616 C   0  0  0  0  0  0  0  0  0  0  0  0
  -29.9744  -20.3101   21.9595 C   0  0  2  0  0  0  0  0  0  0  0  0
  -27.2018  -33.5493   16.7320 C   0  0  1  0  0  0  0  0  0  0  0  0
  -25.3875  -32.0707   19.7244 C   0  0  1  0  0  0  0  0  0  0  0  0
  -30.0370  -20.2544   23.5098 C   0  0  2  0  0  0  0  0  0  0  0  0
  -27.0983  -13.9836   19.6302 C   0  0  2  0  0  0  0  0  0  0  0  0
  -30.2020  -17.7785   21.8634 C   0  0  2  0  0  0  0  0  0  0  0  0
  -24.8266  -32.9584   27.3991 C   0  0  0  0  0  0  0  0  0  0  0  0
  -32.1507  -21.6106   23.6926 C   0  0  0  0  0  0  0  0  0  0  0  0
  -28.7611  -34.0526   22.1844 C   0  0  0  0  0  0  0  0  0  0  0  0
  -28.4570  -34.0017   24.6689 C   0  0  0  0  0  0  0  0  0  0  0  0
  -27.0828  -35.5503   23.2775 C   0  0  0  0  0  0  0  0  0  0  0  0
  -22.7784  -30.5973   25.2297 C   0  0  0  0  0  0  0  0  0  0  0  0
  -26.9418  -24.8317   19.9266 C   0  0  0  0  0  0  0  0  0  1  0  0
  -26.6053  -33.0685   23.2090 C   0  0  1  0  0  0  0  0  0  0  0  0
  -24.2403  -32.4255   26.1010 C   0  0  2  0  0  0  0  0  0  0  0  0
  -30.6941  -21.5054   24.1054 C   0  0  2  0  0  0  0  0  0  0  0  0
  -27.7217  -34.1450   23.3193 C   0  0  0  0  0  0  0  0  0  0  0  0
  -25.9148  -11.8969   20.2026 N   0  0  0  0  0  0  0  0  0  0  0  0
  -26.0132  -13.2263   20.3732 N   0  0  0  0  0  0  0  0  0  0  0  0
  -25.9127  -31.9957   21.0893 N   0  0  0  0  0  0  0  0  0  0  0  0
  -29.4063  -14.8531   19.7030 N   0  0  0  0  0  0  0  0  0  0  0  0
  -25.0420  -15.0614   21.5133 N   0  0  0  0  0  0  0  0  0  0  0  0
  -21.9371  -12.9457   22.0411 N   0  0  0  0  0  0  0  0  0  0  0  0
  -26.2314  -33.1450   17.7266 N   0  0  0  0  0  0  0  0  0  0  0  0
  -25.5920  -33.1492   24.2555 N   0  0  0  0  0  0  0  0  0  0  0  0
  -29.6427  -16.5590   21.3240 N   0  0  0  0  0  0  0  0  0  0  0  0
  -23.4328  -31.2125   26.4131 N   0  3  0  0  0  0  0  0  0  0  0  0
  -23.3737  -12.6303   23.8005 O   0  0  0  0  0  0  0  0  0  0  0  0
  -27.6601  -31.9233   19.1010 O   0  0  0  0  0  0  0  0  0  0  0  0
  -25.2565  -34.1738   21.6010 O   0  0  0  0  0  0  0  0  0  0  0  0
  -25.8962  -30.9996   25.0703 O   0  0  0  0  0  0  0  0  0  0  0  0
  -30.9012  -16.6013   19.4079 O   0  0  0  0  0  0  0  0  0  0  0  0
  -23.2179   -6.2401   21.3336 O   0  0  0  0  0  0  0  0  0  0  0  0
  -27.2957  -25.9989   20.6674 O   0  0  0  0  0  0  0  0  0  1  0  0
  -19.8440   -4.8811   25.4777 F   0  0  0  0  0  0  0  0  0  0  0  0
  -23.9560   -4.3363   23.1973 F   0  0  0  0  0  0  0  0  0  0  0  0
  -30.5687  -21.4440   25.8829 Cl  0  0  0  0  0  0  0  0  0  0  0  0
  1  2  1  0  0  0  0
  1  5  2  0  0  0  0
  2  6  2  0  0  0  0
  3 12  2  0  0  0  0
  3 19  1  0  0  0  0
  4 13  1  0  0  0  0
  4 19  2  0  0  0  0
  5 22  1  0  0  0  0
  6 24  1  0  0  0  0
  7 10  2  0  0  0  0
  7 21  1  0  0  0  0
  8 11  1  0  0  0  0
  8 21  2  0  0  0  0
  9 14  2  0  0  0  0
  9 23  1  0  0  0  0
 10 26  1  0  0  0  0
 11 26  2  0  0  0  0
 12 27  1  0  0  0  0
 13 27  2  0  0  0  0
 14 28  1  0  0  0  0
 15 16  2  0  0  0  0
 15 29  1  0  0  0  0
 16 30  1  0  0  0  0
 17 25  1  0  0  0  0
 17 28  2  0  0  0  0
 18 30  2  0  0  0  0
 18 31  1  0  0  0  0
 19 32  1  0  0  0  0
 20 32  1  0  0  0  0
 20 33  2  0  0  0  0
 20 34  1  0  0  0  0
 21 51  1  0  0  0  0
 22 24  2  0  0  0  0
 22 39  1  0  0  0  0
 23 25  2  0  0  0  0
 23 40  1  0  0  0  0
 24 52  1  0  0  0  0
 25 41  1  0  0  0  0
 26 63  1  0  0  0  0
 27 83  1  0  0  0  0
 28 84  1  0  0  0  0
 29 31  2  0  0  0  0
 29 83  1  0  0  0  0
 30 85  1  0  0  0  0
 31 86  1  0  0  0  0
 32 68  2  0  0  0  0
 33 69  1  0  0  0  0
 33 72  1  0  0  0  0
 34 73  1  0  0  0  0
 34 78  2  0  0  0  0
 35 53  1  0  0  0  0
 35 74  1  0  0  0  0
 35 79  2  0  0  0  0
 36 64  1  0  0  0  0
 36 70  1  0  0  0  0
 36 80  2  0  0  0  0
 37 65  1  0  0  0  0
 37 75  1  0  0  0  0
 37 81  2  0  0  0  0
 38 71  1  0  0  0  0
 38 76  1  0  0  0  0
 38 82  2  0  0  0  0
 39 42  1  0  0  0  0
 40 53  1  0  0  0  0
 41 70  1  0  0  0  0
 42 44  1  0  0  0  0
 43 46  1  0  0  0  0
 43 49  1  0  0  0  0
 44 52  1  0  0  0  0
 45 47  1  0  0  0  0
 45 54  1  0  0  0  0
 46 55  1  0  0  0  0
 47 56  1  0  0  0  0
 48 51  1  0  0  0  0
 48 56  1  0  0  0  0
 49 71  1  0  0  0  0
 50 55  1  0  0  0  0
 50 71  1  0  0  0  0
 51 54  1  0  0  0  0
 52 74  1  0  0  0  0
 53 70  1  0  0  0  0
 54 66  1  0  0  0  0
 55 69  1  0  0  0  0
 56 76  1  0  0  0  0
 57 65  1  0  0  0  0
 58 66  1  0  0  0  0
 59 67  1  0  0  0  0
 60 67  1  0  0  0  0
 61 67  1  0  0  0  0
 62 77  1  0  0  0  0
 63 84  1  0  0  0  0
 64 67  1  0  0  0  0
 64 75  1  0  0  0  0
 65 77  1  0  0  0  0
 66 87  1  0  0  0  0
 68 69  1  0  0  0  0
M  CHG  1  77   1
M  ISO  4  38 100  63 101  76 100  84 101
M  END
> <Batch ID>
0129

> <Smiles>
CNC(C)C(=O)NC(C(=O)N1Cc2cc([101O:1][101CH2:1]c3ccc(C4CC([100NH:0][100C:0](=O)N5CCCC(n6nc(-c7ccc(Oc8ccc(F)cc8F)cc7)c(C(N)=O)c6N)C5)CCC4C(C)Cl)cc3)ccc2CC1C(=O)NC1CCCc2ccccc21)C(C)(C)C

> <Shape>
0.284

> <Color>
0.138

> <Negative vol penalty>
0.000

$$$$

  -OEChem-04052320453D

 91100  0     1  0  0  0  0  0999 V2000
  -27.2013  -19.3102   18.3668 C   0  0  0  0  0  0  0  0  0  0  0  0
  -26.6158  -20.5635   18.2277 C   0  0  0  0  0  0  0  0  0  0  0  0
  -24.9148  -14.1053   22.2645 C   0  0  0  0  0  0  0  0  0  0  0  0
  -25.6475  -14.6421   20.0258 C   0  0  0  0  0  0  0  0  0  0  0  0
  -28.3334  -19.1586   19.1646 C   0  0  0  0  0  0  0  0  0  0  0  0
  -27.1693  -21.6678   18.8767 C   0  0  0  0  0  0  0  0  0  0  0  0
  -18.4884  -28.1221   21.8977 C   0  0  0  0  0  0  0  0  0  0  0  0
  -25.2467  -27.4401   19.2106 C   0  0  0  0  0  0  0  0  0  0  0  0
  -19.0443  -27.1545   21.0609 C   0  0  0  0  0  0  0  0  0  0  0  0
  -24.9964  -12.7454   21.9652 C   0  0  0  0  0  0  0  0  0  0  0  0
  -25.7292  -13.2822   19.7264 C   0  0  0  0  0  0  0  0  0  0  0  0
  -24.4512  -28.2125   20.0558 C   0  0  0  0  0  0  0  0  0  0  0  0
  -24.6669   -9.1354   21.6771 C   0  0  0  0  0  0  0  0  0  0  0  0
  -23.6108   -8.3171   22.0778 C   0  0  0  0  0  0  0  0  0  0  0  0
  -26.4296  -28.9956   21.1924 C   0  0  0  0  0  0  0  0  0  0  0  0
  -20.6745  -26.6198   22.7620 C   0  0  0  0  0  0  0  0  0  0  0  0
  -22.0890   -9.6194   20.7268 C   0  0  0  0  0  0  0  0  0  0  0  0
  -25.2403  -15.0537   21.2948 C   0  0  0  0  0  0  0  0  0  0  0  0
  -26.1728  -17.2757   22.1318 C   0  0  0  0  0  0  0  0  0  0  0  0
  -28.8930  -20.2598   19.8333 C   0  0  0  0  0  0  0  0  0  0  0  0
  -26.6413  -27.4312   19.3573 C   0  0  0  0  0  0  0  0  0  0  0  0
  -28.3257  -21.5396   19.6671 C   0  0  0  0  0  0  0  0  0  0  0  0
  -19.0257  -28.3387   23.1667 C   0  0  0  0  0  0  0  0  0  0  0  0
  -27.2407  -28.2242   20.3461 C   0  0  0  0  0  0  0  0  0  0  0  0
  -20.1187  -27.5875   23.5988 C   0  0  0  0  0  0  0  0  0  0  0  0
  -20.1373  -26.4033   21.4930 C   0  0  0  0  0  0  0  0  0  0  0  0
  -25.4037  -12.3339   20.6962 C   0  0  0  0  0  0  0  0  0  0  0  0
  -25.0424  -28.9882   21.0487 C   0  0  0  0  0  0  0  0  0  0  0  0
  -24.4340  -10.1959   20.8013 C   0  0  0  0  0  0  0  0  0  0  0  0
  -22.3219   -8.5591   21.6026 C   0  0  0  0  0  0  0  0  0  0  0  0
  -23.1451  -10.4378   20.3261 C   0  0  0  0  0  0  0  0  0  0  0  0
  -25.1556  -16.4586   21.6032 C   0  0  0  0  0  0  0  0  0  0  0  0
  -25.5949  -18.5171   22.2394 C   0  0  0  0  0  0  0  0  0  0  0  0
  -27.5197  -16.9425   22.4932 C   0  0  0  0  0  0  0  0  0  0  0  0
  -28.8102  -25.2118   20.0455 C   0  0  0  0  0  0  0  0  0  0  0  0
  -30.8983  -27.6116   19.4106 C   0  0  0  0  0  0  0  0  0  0  0  0
  -31.4838  -30.9685   19.2220 C   0  0  0  0  0  0  0  0  0  0  0  0
  -21.9690  -21.8791   19.4179 C   0  0  0  0  0  0  0  0  0  0  0  0
  -30.1235  -20.0405   20.6778 C   0  0  0  0  0  0  0  0  0  0  0  0
  -27.4871  -26.6133   18.4203 C   0  0  0  0  0  0  0  0  0  0  0  0
  -28.7348  -28.2654   20.5319 C   0  0  0  0  0  0  0  0  0  0  0  0
  -30.3716  -21.1706   21.6716 C   0  0  0  0  0  0  0  0  0  0  0  0
  -20.9467  -20.1912   22.4516 C   0  0  0  0  0  0  0  0  0  0  0  0
  -30.2954  -22.5137   20.9610 C   0  0  0  0  0  0  0  0  0  0  0  0
  -22.0385  -19.1289   22.5913 C   0  0  0  0  0  0  0  0  0  0  0  0
  -18.5209  -30.8092   23.4559 C   0  0  0  0  0  0  0  0  0  0  0  0
  -16.9443  -29.0732   24.4199 C   0  0  0  0  0  0  0  0  0  0  0  0
  -20.5696  -20.4074   20.9890 C   0  0  0  0  0  0  0  0  0  0  0  0
  -22.8076  -19.6968   20.2406 C   0  0  0  0  0  0  0  0  0  0  0  0
  -17.8996  -31.8567   24.3687 C   0  0  0  0  0  0  0  0  0  0  0  0
  -16.3432  -30.1429   25.3205 C   0  0  0  0  0  0  0  0  0  0  0  0
  -18.4062  -29.3949   24.0559 C   0  0  0  0  0  0  0  0  0  0  0  0
  -28.8922  -22.7495   20.3880 C   0  0  1  0  0  0  0  0  0  0  0  0
  -28.8622  -26.2817   18.9919 C   0  0  1  0  0  0  0  0  0  0  0  0
  -23.2492  -19.4483   21.6943 C   0  0  2  0  0  0  0  0  0  0  0  0
  -33.2977  -32.6262   18.7131 C   0  0  0  0  0  0  0  0  0  0  0  0
  -32.1505  -27.0760   22.1410 C   0  0  0  0  0  0  0  0  0  0  0  0
  -33.2794  -29.3051   21.9829 C   0  0  0  0  0  0  0  0  0  0  0  0
  -33.7934  -27.5272   20.3102 C   0  0  0  0  0  0  0  0  0  0  0  0
  -29.9691  -32.1020   16.9461 C   0  0  0  0  0  0  0  0  0  0  0  0
  -20.7147  -27.8039   24.9597 C   0  0  0  0  0  0  0  0  0  0  0  0
  -20.1965  -25.1509   19.3358 C   0  0  0  0  0  0  0  0  0  0  0  0
  -20.9968  -24.0382   18.6761 C   0  0  0  0  0  0  0  0  0  0  0  0
  -21.5661  -29.0650   25.0665 C   0  0  0  0  0  0  0  0  0  0  0  0
  -23.5932  -30.1919   24.1393 C   0  0  0  0  0  0  0  0  0  0  0  0
  -24.7590  -29.9710   23.1957 C   0  0  0  0  0  0  0  0  0  1  0  0
  -31.5554  -28.7002   20.2242 C   0  0  1  0  0  0  0  0  0  0  0  0
  -32.1399  -31.8178   18.1484 C   0  0  2  0  0  0  0  0  0  0  0  0
  -32.6664  -28.1501   21.1626 C   0  0  0  0  0  0  0  0  0  0  0  0
  -24.0177  -17.1247   21.3900 N   0  0  0  0  0  0  0  0  0  0  0  0
  -24.3164  -18.3735   21.7867 N   0  0  0  0  0  0  0  0  0  0  0  0
  -29.5186  -27.4434   19.5951 N   0  0  0  0  0  0  0  0  0  0  0  0
  -21.7636  -20.7259   20.1933 N   0  0  0  0  0  0  0  0  0  0  0  0
  -26.0607  -19.7064   22.6763 N   0  0  0  0  0  0  0  0  0  0  0  0
  -27.9508  -15.6204   22.3181 N   0  0  0  0  0  0  0  0  0  0  0  0
  -20.6983  -25.4243   20.6469 N   0  0  0  0  0  0  0  0  0  0  0  0
  -28.9169  -23.9269   19.5484 N   0  0  0  0  0  0  0  0  0  0  0  0
  -32.0211  -29.6994   19.2687 N   0  0  0  0  0  0  0  0  0  0  0  0
  -20.9292  -22.8009   19.4214 N   0  0  0  0  0  0  0  0  0  0  0  0
  -16.4866  -31.4762   24.6643 N   0  3  0  0  0  0  0  0  0  0  0  0
  -31.1501  -32.7630   17.5588 N   0  3  0  0  0  0  0  0  0  0  0  0
  -22.7349  -28.9805   24.1497 N   0  3  0  0  0  0  0  0  0  0  0  0
  -28.3122  -17.7882   22.9730 O   0  0  0  0  0  0  0  0  0  0  0  0
  -28.6842  -25.5286   21.2226 O   0  0  0  0  0  0  0  0  0  0  0  0
  -31.5826  -26.9401   18.6344 O   0  0  0  0  0  0  0  0  0  0  0  0
  -30.5870  -31.3899   19.9492 O   0  0  0  0  0  0  0  0  0  0  0  0
  -23.0052  -22.0756   18.7739 O   0  0  0  0  0  0  0  0  0  0  0  0
  -25.4837  -11.0069   20.4038 O   0  0  0  0  0  0  0  0  0  0  0  0
  -24.2682  -29.7426   21.8754 O   0  0  0  0  0  0  0  0  0  1  0  0
  -21.3081   -7.7722   21.9863 F   0  0  0  0  0  0  0  0  0  0  0  0
  -22.9155  -11.4543   19.4836 F   0  0  0  0  0  0  0  0  0  0  0  0
  1  2  1  0  0  0  0
  1  5  2  0  0  0  0
  2  6  2  0  0  0  0
  3 10  2  0  0  0  0
  3 18  1  0  0  0  0
  4 11  1  0  0  0  0
  4 18  2  0  0  0  0
  5 20  1  0  0  0  0
  6 22  1  0  0  0  0
  7  9  2  0  0  0  0
  7 23  1  0  0  0  0
  8 12  2  0  0  0  0
  8 21  1  0  0  0  0
  9 26  1  0  0  0  0
 10 27  1  0  0  0  0
 11 27  2  0  0  0  0
 12 28  1  0  0  0  0
 13 14  2  0  0  0  0
 13 29  1  0  0  0  0
 14 30  1  0  0  0  0
 15 24  1  0  0  0  0
 15 28  2  0  0  0  0
 16 25  1  0  0  0  0
 16 26  2  0  0  0  0
 17 30  2  0  0  0  0
 17 31  1  0  0  0  0
 18 32  1  0  0  0  0
 19 32  1  0  0  0  0
 19 33  2  0  0  0  0
 19 34  1  0  0  0  0
 20 22  2  0  0  0  0
 20 39  1  0  0  0  0
 21 24  2  0  0  0  0
 21 40  1  0  0  0  0
 22 53  1  0  0  0  0
 23 25  2  0  0  0  0
 23 52  1  0  0  0  0
 24 41  1  0  0  0  0
 25 61  1  0  0  0  0
 26 76  1  0  0  0  0
 27 88  1  0  0  0  0
 28 89  1  0  0  0  0
 29 31  2  0  0  0  0
 29 88  1  0  0  0  0
 30 90  1  0  0  0  0
 31 91  1  0  0  0  0
 32 70  2  0  0  0  0
 33 71  1  0  0  0  0
 33 74  1  0  0  0  0
 34 75  1  0  0  0  0
 34 83  2  0  0  0  0
 35 54  1  0  0  0  0
 35 77  1  0  0  0  0
 35 84  2  0  0  0  0
 36 67  1  0  0  0  0
 36 72  1  0  0  0  0
 36 85  2  0  0  0  0
 37 68  1  0  0  0  0
 37 78  1  0  0  0  0
 37 86  2  0  0  0  0
 38 73  1  0  0  0  0
 38 79  1  0  0  0  0
 38 87  2  0  0  0  0
 39 42  1  0  0  0  0
 40 54  1  0  0  0  0
 41 72  1  0  0  0  0
 42 44  1  0  0  0  0
 43 45  1  0  0  0  0
 43 48  1  0  0  0  0
 44 53  1  0  0  0  0
 45 55  1  0  0  0  0
 46 50  1  0  0  0  0
 46 52  1  0  0  0  0
 47 51  1  0  0  0  0
 47 52  1  0  0  0  0
 48 73  1  0  0  0  0
 49 55  1  0  0  0  0
 49 73  1  0  0  0  0
 50 80  1  0  0  0  0
 51 80  1  0  0  0  0
 53 77  1  0  0  0  0
 54 72  1  0  0  0  0
 55 71  1  0  0  0  0
 56 68  1  0  0  0  0
 57 69  1  0  0  0  0
 58 69  1  0  0  0  0
 59 69  1  0  0  0  0
 60 81  1  0  0  0  0
 61 64  1  0  0  0  0
 62 63  1  0  0  0  0
 62 76  1  0  0  0  0
 63 79  1  0  0  0  0
 64 82  1  0  0  0  0
 65 66  1  0  0  0  0
 65 82  1  0  0  0  0
 66 89  1  0  0  0  0
 67 69  1  0  0  0  0
 67 78  1  0  0  0  0
 68 81  1  0  0  0  0
 70 71  1  0  0  0  0
M  CHG  3  80   1  81   1  82   1
M  ISO  4  38 100  66 101  79 100  89 101
M  END
> <Batch ID>
0129

> <Smiles>
CNC(C)C(=O)NC(C(=O)N1Cc2cc([101O:1][101CH2:1]CNCCc3cc(NCC[100NH:0][100C:0](=O)N4CCCC(n5nc(-c6ccc(Oc7ccc(F)cc7F)cc6)c(C(N)=O)c5N)C4)ccc3C3CCNCC3)ccc2CC1C(=O)NC1CCCc2ccccc21)C(C)(C)C

> <Shape>
0.272

> <Color>
0.067

> <Negative vol penalty>
0.000

$$$$

  -OEChem-04052320453D

 87 95  0     1  0  0  0  0  0999 V2000
  -37.9174  -30.4329   19.0942 C   0  0  0  0  0  0  0  0  0  0  0  0
  -36.5762  -30.0731   19.1789 C   0  0  0  0  0  0  0  0  0  0  0  0
  -23.0472   -9.8950   19.9244 C   0  0  0  0  0  0  0  0  0  0  0  0
  -23.8242   -9.8488   22.2116 C   0  0  0  0  0  0  0  0  0  0  0  0
  -38.7604  -29.7714   18.2022 C   0  0  0  0  0  0  0  0  0  0  0  0
  -36.0770  -29.0523   18.3707 C   0  0  0  0  0  0  0  0  0  0  0  0
  -31.7254  -24.9972   19.8289 C   0  0  0  0  0  0  0  0  0  0  0  0
  -28.3431  -21.8708   19.8182 C   0  0  0  0  0  0  0  0  0  0  0  0
  -28.5926  -20.7509   20.6114 C   0  0  0  0  0  0  0  0  0  0  0  0
  -22.2922   -8.7456   20.1577 C   0  0  0  0  0  0  0  0  0  0  0  0
  -23.0692   -8.6994   22.4449 C   0  0  0  0  0  0  0  0  0  0  0  0
  -30.3601  -24.9461   19.5515 C   0  0  0  0  0  0  0  0  0  0  0  0
  -22.8291   -5.4159   20.3798 C   0  0  0  0  0  0  0  0  0  0  0  0
  -22.8772   -4.4041   19.4209 C   0  0  0  0  0  0  0  0  0  0  0  0
  -30.8040  -23.5161   17.6602 C   0  0  0  0  0  0  0  0  0  0  0  0
  -28.6021  -20.5211   17.8312 C   0  0  0  0  0  0  0  0  0  0  0  0
  -20.4922   -4.6034   19.0908 C   0  0  0  0  0  0  0  0  0  0  0  0
  -23.8133  -10.4466   20.9514 C   0  0  0  0  0  0  0  0  0  0  0  0
  -24.1828  -12.9696   20.8777 C   0  0  0  0  0  0  0  0  0  0  0  0
  -38.2735  -28.7354   17.3897 C   0  0  0  0  0  0  0  0  0  0  0  0
  -32.6428  -24.3159   19.0161 C   0  0  0  0  0  0  0  0  0  0  0  0
  -36.9140  -28.3772   17.4661 C   0  0  0  0  0  0  0  0  0  0  0  0
  -32.1802  -23.5581   17.9308 C   0  0  0  0  0  0  0  0  0  0  0  0
  -28.3477  -21.7559   18.4281 C   0  0  0  0  0  0  0  0  0  0  0  0
  -28.8470  -19.5161   20.0145 C   0  0  0  0  0  0  0  0  0  0  0  0
  -28.8517  -19.4012   18.6244 C   0  0  0  0  0  0  0  0  0  0  0  0
  -22.3032   -8.1478   21.4179 C   0  0  0  0  0  0  0  0  0  0  0  0
  -29.8994  -24.2078   18.4653 C   0  0  0  0  0  0  0  0  0  0  0  0
  -21.6124   -6.0214   20.6943 C   0  0  0  0  0  0  0  0  0  0  0  0
  -21.7088   -3.9978   18.7764 C   0  0  0  0  0  0  0  0  0  0  0  0
  -20.4440   -5.6152   20.0498 C   0  0  0  0  0  0  0  0  0  0  0  0
  -24.5939  -11.6336   20.7109 C   0  0  0  0  0  0  0  0  0  0  0  0
  -25.2806  -13.7138   20.5207 C   0  0  0  0  0  0  0  0  0  0  0  0
  -22.9214  -13.4914   21.3163 C   0  0  0  0  0  0  0  0  0  0  0  0
  -35.0790  -25.1840   17.1680 C   0  0  0  0  0  0  0  0  0  0  0  0
  -35.5065  -21.9801   16.8945 C   0  0  0  0  0  0  0  0  0  0  0  0
  -34.1504  -18.8523   17.0521 C   0  0  0  0  0  0  0  0  0  0  0  0
  -30.7768  -14.6676   20.6866 C   0  0  0  0  0  0  0  0  0  0  0  0
  -29.1464  -17.8774   16.6490 C   0  0  0  0  0  0  0  0  0  0  0  0
  -39.2121  -28.0814   16.4068 C   0  0  0  0  0  0  0  0  0  0  0  0
  -34.1100  -24.3593   19.3445 C   0  0  0  0  0  0  0  0  0  0  0  0
  -33.1222  -22.7921   17.0396 C   0  0  0  0  0  0  0  0  0  0  0  0
  -38.6899  -26.7577   15.8542 C   0  0  0  0  0  0  0  0  0  0  0  0
  -29.5945  -12.3429   18.2628 C   0  0  0  0  0  0  0  0  0  0  0  0
  -37.2313  -26.8949   15.4295 C   0  0  0  0  0  0  0  0  0  0  0  0
  -28.1571  -12.0569   18.7010 C   0  0  0  0  0  0  0  0  0  0  0  0
  -30.5230  -12.5300   19.4607 C   0  0  0  0  0  0  0  0  0  0  0  0
  -28.6401  -13.2552   20.8758 C   0  0  0  0  0  0  0  0  0  0  0  0
  -36.3407  -27.2582   16.6238 C   0  0  1  0  0  0  0  0  0  0  0  0
  -35.0002  -24.0458   18.1458 C   0  0  1  0  0  0  0  0  0  0  0  0
  -27.6552  -13.1144   19.7025 C   0  0  2  0  0  0  0  0  0  0  0  0
  -26.5919  -23.1519   17.2830 C   0  0  0  0  0  0  0  0  0  0  0  0
  -34.0746  -16.3440   17.0408 C   0  0  0  0  0  0  0  0  0  0  0  0
  -35.4498  -22.3572   13.8672 C   0  0  0  0  0  0  0  0  0  0  0  0
  -35.0835  -19.8912   13.6369 C   0  0  0  0  0  0  0  0  0  0  0  0
  -37.1790  -20.7465   14.6856 C   0  0  0  0  0  0  0  0  0  0  0  0
  -34.6775  -18.7076   19.9607 C   0  0  0  0  0  0  0  0  0  0  0  0
  -29.5046  -16.0828   15.1323 C   0  0  0  0  0  0  0  0  0  0  0  0
  -29.1119  -18.3337   20.8890 C   0  0  0  0  0  0  0  0  0  0  0  0
  -30.6017  -17.9685   21.0291 C   0  0  0  0  0  0  0  0  0  0  0  0
  -30.8763  -16.7928   21.9644 C   0  0  0  0  0  0  0  0  0  0  0  0
  -28.0770  -22.9700   17.5693 C   0  0  1  0  0  0  0  0  0  1  0  0
  -35.0002  -20.9101   15.9576 C   0  0  1  0  0  0  0  0  0  0  0  0
  -34.6263  -17.5812   17.7320 C   0  0  2  0  0  0  0  0  0  0  0  0
  -35.6603  -20.9922   14.5523 C   0  0  0  0  0  0  0  0  0  0  0  0
  -25.8544  -11.5318   20.2811 N   0  0  0  0  0  0  0  0  0  0  0  0
  -26.2448  -12.8133   20.1748 N   0  0  0  0  0  0  0  0  0  0  0  0
  -34.5480  -22.8709   17.3980 N   0  0  0  0  0  0  0  0  0  0  0  0
  -29.9907  -13.5472   20.3706 N   0  0  0  0  0  0  0  0  0  0  0  0
  -25.5055  -15.0440   20.4719 N   0  0  0  0  0  0  0  0  0  0  0  0
  -21.9018  -12.5872   21.6437 N   0  0  0  0  0  0  0  0  0  0  0  0
  -29.1036  -18.1728   18.0081 N   0  0  0  0  0  0  0  0  0  0  0  0
  -36.0868  -26.0897   17.4389 N   0  0  0  0  0  0  0  0  0  0  0  0
  -35.2065  -19.6379   16.6413 N   0  0  0  0  0  0  0  0  0  0  0  0
  -30.1945  -15.5865   21.5510 N   0  0  0  0  0  0  0  0  0  0  0  0
  -34.1866  -17.5595   19.1558 N   0  3  0  0  0  0  0  0  0  0  0  0
  -22.6995  -14.7232   21.3993 O   0  0  0  0  0  0  0  0  0  0  0  0
  -34.2851  -25.2357   16.2359 O   0  0  0  0  0  0  0  0  0  0  0  0
  -36.7071  -22.0196   17.1751 O   0  0  0  0  0  0  0  0  0  0  0  0
  -32.9609  -19.1197   16.8973 O   0  0  0  0  0  0  0  0  0  0  0  0
  -31.9113  -14.8392   20.2277 O   0  0  0  0  0  0  0  0  0  0  0  0
  -28.9676  -18.6515   15.7166 O   0  0  0  0  0  0  0  0  0  0  0  0
  -21.5664   -7.0263   21.6460 O   0  0  0  0  0  0  0  0  0  0  0  0
  -28.5673  -24.1567   18.1920 O   0  0  0  0  0  0  0  0  0  1  0  0
  -29.4267  -16.5470   16.4851 O   0  0  0  0  0  0  0  0  0  0  0  0
  -21.7555   -3.0273   17.8544 F   0  0  0  0  0  0  0  0  0  0  0  0
  -19.2724   -6.1940   20.3468 F   0  0  0  0  0  0  0  0  0  0  0  0
  1  2  1  0  0  0  0
  1  5  2  0  0  0  0
  2  6  2  0  0  0  0
  3 10  2  0  0  0  0
  3 18  1  0  0  0  0
  4 11  1  0  0  0  0
  4 18  2  0  0  0  0
  5 20  1  0  0  0  0
  6 22  1  0  0  0  0
  7 12  2  0  0  0  0
  7 21  1  0  0  0  0
  8  9  2  0  0  0  0
  8 24  1  0  0  0  0
  9 25  1  0  0  0  0
 10 27  1  0  0  0  0
 11 27  2  0  0  0  0
 12 28  1  0  0  0  0
 13 14  2  0  0  0  0
 13 29  1  0  0  0  0
 14 30  1  0  0  0  0
 15 23  1  0  0  0  0
 15 28  2  0  0  0  0
 16 24  2  0  0  0  0
 16 26  1  0  0  0  0
 17 30  2  0  0  0  0
 17 31  1  0  0  0  0
 18 32  1  0  0  0  0
 19 32  1  0  0  0  0
 19 33  2  0  0  0  0
 19 34  1  0  0  0  0
 20 22  2  0  0  0  0
 20 40  1  0  0  0  0
 21 23  2  0  0  0  0
 21 41  1  0  0  0  0
 22 49  1  0  0  0  0
 23 42  1  0  0  0  0
 24 62  1  0  0  0  0
 25 26  2  0  0  0  0
 25 59  1  0  0  0  0
 26 72  1  0  0  0  0
 27 83  1  0  0  0  0
 28 84  1  0  0  0  0
 29 31  2  0  0  0  0
 29 83  1  0  0  0  0
 30 86  1  0  0  0  0
 31 87  1  0  0  0  0
 32 66  2  0  0  0  0
 33 67  1  0  0  0  0
 33 70  1  0  0  0  0
 34 71  1  0  0  0  0
 34 77  2  0  0  0  0
 35 50  1  0  0  0  0
 35 73  1  0  0  0  0
 35 78  2  0  0  0  0
 36 63  1  0  0  0  0
 36 68  1  0  0  0  0
 36 79  2  0  0  0  0
 37 64  1  0  0  0  0
 37 74  1  0  0  0  0
 37 80  2  0  0  0  0
 38 69  1  0  0  0  0
 38 75  1  0  0  0  0
 38 81  2  0  0  0  0
 39 72  1  0  0  0  0
 39 82  2  0  0  0  0
 39 85  1  0  0  0  0
 40 43  1  0  0  0  0
 41 50  1  0  0  0  0
 42 68  1  0  0  0  0
 43 45  1  0  0  0  0
 44 46  1  0  0  0  0
 44 47  1  0  0  0  0
 45 49  1  0  0  0  0
 46 51  1  0  0  0  0
 47 69  1  0  0  0  0
 48 51  1  0  0  0  0
 48 69  1  0  0  0  0
 49 73  1  0  0  0  0
 50 68  1  0  0  0  0
 51 67  1  0  0  0  0
 52 62  1  0  0  0  0
 53 64  1  0  0  0  0
 54 65  1  0  0  0  0
 55 65  1  0  0  0  0
 56 65  1  0  0  0  0
 57 76  1  0  0  0  0
 58 85  1  0  0  0  0
 59 60  1  0  0  0  0
 60 61  1  0  0  0  0
 61 75  1  0  0  0  0
 62 84  1  0  0  0  0
 63 65  1  0  0  0  0
 63 74  1  0  0  0  0
 64 76  1  0  0  0  0
 66 67  1  0  0  0  0
M  CHG  1  76   1
M  ISO  4  38 100  62 101  75 100  84 101
M  END
> <Batch ID>
0129

> <Smiles>
CNC(C)C(=O)NC(C(=O)N1Cc2cc([101O:1][101CH:1](C)c3ccc(CCC[100NH:0][100C:0](=O)N4CCCC(n5nc(-c6ccc(Oc7ccc(F)cc7F)cc6)c(C(N)=O)c5N)C4)c(NC(=O)OC)c3)ccc2CC1C(=O)NC1CCCc2ccccc21)C(C)(C)C

> <Shape>
0.223

> <Color>
0.194

> <Negative vol penalty>
0.000

$$$$

  -OEChem-04052320453D

 83 91  0     1  0  0  0  0  0999 V2000
  -17.7142  -25.6938   23.2030 C   0  0  0  0  0  0  0  0  0  0  0  0
  -18.9776  -25.3445   22.7369 C   0  0  0  0  0  0  0  0  0  0  0  0
  -24.2319  -14.6691   21.5804 C   0  0  0  0  0  0  0  0  0  0  0  0
  -25.0041  -14.9517   19.3087 C   0  0  0  0  0  0  0  0  0  0  0  0
  -17.2894  -27.0200   23.1351 C   0  0  0  0  0  0  0  0  0  0  0  0
  -19.8166  -26.3212   22.2015 C   0  0  0  0  0  0  0  0  0  0  0  0
  -25.9199  -26.5743   22.6390 C   0  0  0  0  0  0  0  0  0  0  0  0
  -23.5582  -13.5063   21.2068 C   0  0  0  0  0  0  0  0  0  0  0  0
  -24.3304  -13.7889   18.9350 C   0  0  0  0  0  0  0  0  0  0  0  0
  -26.9393  -26.2002   21.7645 C   0  0  0  0  0  0  0  0  0  0  0  0
  -24.3260  -10.2719   20.5889 C   0  0  0  0  0  0  0  0  0  0  0  0
  -24.4474   -9.1573   21.4187 C   0  0  0  0  0  0  0  0  0  0  0  0
  -27.0837  -28.4733   20.9699 C   0  0  0  0  0  0  0  0  0  0  0  0
  -27.0224  -25.2883   17.5692 C   0  0  0  0  0  0  0  0  0  0  0  0
  -22.0554   -9.1495   21.7582 C   0  0  0  0  0  0  0  0  0  0  0  0
  -28.9157  -24.1592   17.1105 C   0  0  0  0  0  0  0  0  0  0  0  0
  -24.9548  -15.3918   20.6314 C   0  0  0  0  0  0  0  0  0  0  0  0
  -26.9759  -16.6969   21.4798 C   0  0  0  0  0  0  0  0  0  0  0  0
  -18.1273  -28.0151   22.6075 C   0  0  0  0  0  0  0  0  0  0  0  0
  -25.4665  -27.9007   22.6777 C   0  0  0  0  0  0  0  0  0  0  0  0
  -19.4021  -27.6618   22.1252 C   0  0  0  0  0  0  0  0  0  0  0  0
  -26.0602  -28.8622   21.8475 C   0  0  0  0  0  0  0  0  0  0  0  0
  -28.4332  -25.3918   17.4916 C   0  0  0  0  0  0  0  0  0  0  0  0
  -23.6074  -13.0662   19.8841 C   0  0  0  0  0  0  0  0  0  0  0  0
  -27.5194  -27.1491   20.9277 C   0  0  0  0  0  0  0  0  0  0  0  0
  -23.0693  -10.8254   20.3438 C   0  0  0  0  0  0  0  0  0  0  0  0
  -23.3121   -8.5961   22.0033 C   0  0  0  0  0  0  0  0  0  0  0  0
  -21.9340  -10.2641   20.9284 C   0  0  0  0  0  0  0  0  0  0  0  0
  -25.6505  -16.5934   21.0166 C   0  0  0  0  0  0  0  0  0  0  0  0
  -26.6858  -23.9955   17.2332 C   0  0  0  0  0  0  0  0  0  0  0  0
  -27.1562  -18.0394   21.7072 C   0  0  0  0  0  0  0  0  0  0  0  0
  -27.9563  -15.6713   21.6860 C   0  0  0  0  0  0  0  0  0  0  0  0
  -22.6932  -29.3412   22.0968 C   0  0  0  0  0  0  0  0  0  0  0  0
  -24.2640  -31.9548   23.2032 C   0  0  0  0  0  0  0  0  0  0  0  0
  -27.2421  -33.5289   23.7510 C   0  0  0  0  0  0  0  0  0  0  0  0
  -24.5504  -22.9412   19.4637 C   0  0  0  0  0  0  0  0  0  0  0  0
  -17.6061  -29.4271   22.5114 C   0  0  0  0  0  0  0  0  0  0  0  0
  -24.3844  -28.2938   23.6456 C   0  0  0  0  0  0  0  0  0  0  0  0
  -25.6235  -30.3036   21.8651 C   0  0  0  0  0  0  0  0  0  0  0  0
  -18.6998  -30.4652   22.2741 C   0  0  0  0  0  0  0  0  0  0  0  0
  -24.7384  -21.9946   22.8909 C   0  0  0  0  0  0  0  0  0  0  0  0
  -19.6455  -30.0017   21.1707 C   0  0  0  0  0  0  0  0  0  0  0  0
  -25.1130  -20.5124   22.8409 C   0  0  0  0  0  0  0  0  0  0  0  0
  -23.7933  -22.3765   21.7538 C   0  0  0  0  0  0  0  0  0  0  0  0
  -24.6445  -20.5343   20.3552 C   0  0  0  0  0  0  0  0  0  0  0  0
  -20.3506  -28.6969   21.5604 C   0  0  1  0  0  0  0  0  0  0  0  0
  -23.6483  -29.5654   23.2349 C   0  0  1  0  0  0  0  0  0  0  0  0
  -25.6406  -20.1139   21.4495 C   0  0  2  0  0  0  0  0  0  0  0  0
  -29.5121  -27.4349   16.4949 C   0  0  0  0  0  0  0  0  0  0  0  0
  -28.2045  -35.6717   24.6338 C   0  0  0  0  0  0  0  0  0  0  0  0
  -28.7101  -21.0951   17.5871 C   0  0  0  0  0  0  0  0  0  0  0  0
  -28.5258  -21.7748   15.1560 C   0  0  0  0  0  0  0  0  0  0  0  0
  -23.4564  -33.3761   20.6268 C   0  0  0  0  0  0  0  0  0  0  0  0
  -25.1936  -35.1100   21.1209 C   0  0  0  0  0  0  0  0  0  0  0  0
  -23.2831  -34.7785   22.6902 C   0  0  0  0  0  0  0  0  0  0  0  0
  -28.7172  -32.1187   25.8945 C   0  0  0  0  0  0  0  0  0  0  0  0
  -25.3582  -23.3519   17.1533 C   0  0  0  0  0  0  0  0  0  0  0  0
  -28.6215  -27.5193   18.8531 C   0  0  0  0  0  0  0  0  0  1  0  0
  -29.2630  -26.6339   17.7760 C   0  0  1  0  0  0  0  0  0  0  0  0
  -25.1120  -33.0364   22.5786 C   0  0  1  0  0  0  0  0  0  0  0  0
  -27.7927  -34.2469   24.9699 C   0  0  2  0  0  0  0  0  0  0  0  0
  -27.9414  -21.9302   16.5612 C   0  0  0  0  0  0  0  0  0  0  0  0
  -24.2684  -34.0478   21.7522 C   0  0  0  0  0  0  0  0  0  0  0  0
  -25.0326  -17.7758   20.9532 N   0  0  0  0  0  0  0  0  0  0  0  0
  -27.8446  -23.3183   16.9566 N   0  0  0  0  0  0  0  0  0  0  0  0
  -25.9739  -18.6351   21.3796 N   0  0  0  0  0  0  0  0  0  0  0  0
  -24.5576  -30.6372   22.8243 N   0  0  0  0  0  0  0  0  0  0  0  0
  -24.3529  -21.9726   20.4616 N   0  0  0  0  0  0  0  0  0  0  0  0
  -28.2092  -18.7566   22.1537 N   0  0  0  0  0  0  0  0  0  0  0  0
  -27.6051  -14.3445   21.4023 N   0  0  0  0  0  0  0  0  0  0  0  0
  -21.4249  -28.9620   22.4931 N   0  0  0  0  0  0  0  0  0  0  0  0
  -25.8703  -33.6410   23.6685 N   0  0  0  0  0  0  0  0  0  0  0  0
  -25.0909  -22.4750   18.2715 N   0  0  0  0  0  0  0  0  0  0  0  0
  -28.9840  -33.5263   25.5014 N   0  3  0  0  0  0  0  0  0  0  0  0
  -29.1044  -15.9220   22.1248 O   0  0  0  0  0  0  0  0  0  0  0  0
  -23.0780  -29.5020   20.9445 O   0  0  0  0  0  0  0  0  0  0  0  0
  -23.3786  -32.2670   24.0033 O   0  0  0  0  0  0  0  0  0  0  0  0
  -27.9578  -32.9317   22.9500 O   0  0  0  0  0  0  0  0  0  0  0  0
  -24.2710  -24.1340   19.6252 O   0  0  0  0  0  0  0  0  0  0  0  0
  -22.9503  -11.9315   19.5192 O   0  0  0  0  0  0  0  0  0  0  0  0
  -28.5141  -26.7864   20.0728 O   0  0  0  0  0  0  0  0  0  1  0  0
  -23.4287   -7.5248   22.7988 F   0  0  0  0  0  0  0  0  0  0  0  0
  -20.7239  -10.7907   20.6957 F   0  0  0  0  0  0  0  0  0  0  0  0
  1  2  1  0  0  0  0
  1  5  2  0  0  0  0
  2  6  2  0  0  0  0
  3  8  2  0  0  0  0
  3 17  1  0  0  0  0
  4  9  1  0  0  0  0
  4 17  2  0  0  0  0
  5 19  1  0  0  0  0
  6 21  1  0  0  0  0
  7 10  2  0  0  0  0
  7 20  1  0  0  0  0
  8 24  1  0  0  0  0
  9 24  2  0  0  0  0
 10 25  1  0  0  0  0
 11 12  2  0  0  0  0
 11 26  1  0  0  0  0
 12 27  1  0  0  0  0
 13 22  1  0  0  0  0
 13 25  2  0  0  0  0
 14 23  1  0  0  0  0
 14 30  2  0  0  0  0
 15 27  2  0  0  0  0
 15 28  1  0  0  0  0
 16 23  2  0  0  0  0
 16 65  1  0  0  0  0
 17 29  1  0  0  0  0
 18 29  1  0  0  0  0
 18 31  2  0  0  0  0
 18 32  1  0  0  0  0
 19 21  2  0  0  0  0
 19 37  1  0  0  0  0
 20 22  2  0  0  0  0
 20 38  1  0  0  0  0
 21 46  1  0  0  0  0
 22 39  1  0  0  0  0
 23 59  1  0  0  0  0
 24 80  1  0  0  0  0
 25 81  1  0  0  0  0
 26 28  2  0  0  0  0
 26 80  1  0  0  0  0
 27 82  1  0  0  0  0
 28 83  1  0  0  0  0
 29 64  2  0  0  0  0
 30 57  1  0  0  0  0
 30 65  1  0  0  0  0
 31 66  1  0  0  0  0
 31 69  1  0  0  0  0
 32 70  1  0  0  0  0
 32 75  2  0  0  0  0
 33 47  1  0  0  0  0
 33 71  1  0  0  0  0
 33 76  2  0  0  0  0
 34 60  1  0  0  0  0
 34 67  1  0  0  0  0
 34 77  2  0  0  0  0
 35 61  1  0  0  0  0
 35 72  1  0  0  0  0
 35 78  2  0  0  0  0
 36 68  1  0  0  0  0
 36 73  1  0  0  0  0
 36 79  2  0  0  0  0
 37 40  1  0  0  0  0
 38 47  1  0  0  0  0
 39 67  1  0  0  0  0
 40 42  1  0  0  0  0
 41 43  1  0  0  0  0
 41 44  1  0  0  0  0
 42 46  1  0  0  0  0
 43 48  1  0  0  0  0
 44 68  1  0  0  0  0
 45 48  1  0  0  0  0
 45 68  1  0  0  0  0
 46 71  1  0  0  0  0
 47 67  1  0  0  0  0
 48 66  1  0  0  0  0
 49 59  1  0  0  0  0
 50 61  1  0  0  0  0
 51 62  1  0  0  0  0
 52 62  1  0  0  0  0
 53 63  1  0  0  0  0
 54 63  1  0  0  0  0
 55 63  1  0  0  0  0
 56 74  1  0  0  0  0
 57 73  1  0  0  0  0
 58 59  1  0  0  0  0
 58 81  1  0  0  0  0
 60 63  1  0  0  0  0
 60 72  1  0  0  0  0
 61 74  1  0  0  0  0
 62 65  1  0  0  0  0
 64 66  1  0  0  0  0
M  CHG  1  74   1
M  ISO  4  36 100  58 101  73 100  81 101
M  END
> <Batch ID>
0129

> <Smiles>
CNC(C)C(=O)NC(C(=O)N1Cc2cc([101O:1][101CH2:1]C(C)c3cc(C[100NH:0][100C:0](=O)N4CCCC(n5nc(-c6ccc(Oc7ccc(F)cc7F)cc6)c(C(N)=O)c5N)C4)n(C(C)C)c3)ccc2CC1C(=O)NC1CCCc2ccccc21)C(C)(C)C

> <Shape>
0.240

> <Color>
0.089

> <Negative vol penalty>
0.000

$$$$

  -OEChem-04052320453D

 85 93  0     1  0  0  0  0  0999 V2000
  -30.5491  -22.0330   15.4542 C   0  0  0  0  0  0  0  0  0  0  0  0
  -30.2966  -22.0781   16.8215 C   0  0  0  0  0  0  0  0  0  0  0  0
  -29.3234  -15.0361   18.5585 C   0  0  0  0  0  0  0  0  0  0  0  0
  -28.7209  -14.9805   20.8975 C   0  0  0  0  0  0  0  0  0  0  0  0
  -30.5269  -23.2076   14.7033 C   0  0  0  0  0  0  0  0  0  0  0  0
  -30.0228  -23.2981   17.4390 C   0  0  0  0  0  0  0  0  0  0  0  0
  -26.1107  -23.0192   20.6425 C   0  0  0  0  0  0  0  0  0  0  0  0
  -29.0181  -13.6796   18.4476 C   0  0  0  0  0  0  0  0  0  0  0  0
  -28.4154  -13.6240   20.7866 C   0  0  0  0  0  0  0  0  0  0  0  0
  -26.3503  -22.4488   21.8919 C   0  0  0  0  0  0  0  0  0  0  0  0
  -27.1334  -10.2308   21.0332 C   0  0  0  0  0  0  0  0  0  0  0  0
  -25.9506   -9.7815   21.6204 C   0  0  0  0  0  0  0  0  0  0  0  0
  -26.5095  -24.6524   22.8606 C   0  0  0  0  0  0  0  0  0  0  0  0
  -32.0099  -21.6617   26.7379 C   0  0  0  0  0  0  0  0  0  0  0  0
  -24.6824  -11.2813   20.2134 C   0  0  0  0  0  0  0  0  0  0  0  0
  -30.7501  -19.9657   27.5167 C   0  0  0  0  0  0  0  0  0  0  0  0
  -29.1749  -15.6865   19.7835 C   0  0  0  0  0  0  0  0  0  0  0  0
  -28.6187  -18.1748   19.7003 C   0  0  0  0  0  0  0  0  0  0  0  0
  -30.2432  -24.4412   15.3101 C   0  0  0  0  0  0  0  0  0  0  0  0
  -26.0795  -24.4129   20.4905 C   0  0  0  0  0  0  0  0  0  0  0  0
  -29.9981  -24.4904   16.6957 C   0  0  0  0  0  0  0  0  0  0  0  0
  -26.2668  -25.2379   21.6086 C   0  0  0  0  0  0  0  0  0  0  0  0
  -30.8451  -21.3393   27.4770 C   0  0  0  0  0  0  0  0  0  0  0  0
  -28.5640  -12.9736   19.5616 C   0  0  0  0  0  0  0  0  0  0  0  0
  -26.5526  -23.2655   23.0007 C   0  0  0  0  0  0  0  0  0  0  0  0
  -27.0907  -11.2055   20.0362 C   0  0  0  0  0  0  0  0  0  0  0  0
  -24.7251  -10.3067   21.2105 C   0  0  0  0  0  0  0  0  0  0  0  0
  -25.8652  -11.7306   19.6263 C   0  0  0  0  0  0  0  0  0  0  0  0
  -29.4907  -17.0876   19.8989 C   0  0  0  0  0  0  0  0  0  0  0  0
  -32.5913  -20.4753   26.3482 C   0  0  0  0  0  0  0  0  0  0  0  0
  -29.3958  -19.2842   19.9277 C   0  0  0  0  0  0  0  0  0  0  0  0
  -27.2304  -18.1812   19.3423 C   0  0  0  0  0  0  0  0  0  0  0  0
  -27.7854  -26.5282   18.8415 C   0  0  0  0  0  0  0  0  0  0  0  0
  -25.5507  -28.6055   19.9429 C   0  0  0  0  0  0  0  0  0  0  0  0
  -23.2090  -29.3558   22.3094 C   0  0  0  0  0  0  0  0  0  0  0  0
  -34.3660  -20.1922   23.1408 C   0  0  0  0  0  0  0  0  0  0  0  0
  -30.2769  -25.6904   14.4656 C   0  0  0  0  0  0  0  0  0  0  0  0
  -25.7933  -25.0123   19.1409 C   0  0  0  0  0  0  0  0  0  0  0  0
  -26.2230  -26.7397   21.5024 C   0  0  0  0  0  0  0  0  0  0  0  0
  -29.6093  -26.8923   15.1289 C   0  0  0  0  0  0  0  0  0  0  0  0
  -33.9252  -20.8020   19.6608 C   0  0  0  0  0  0  0  0  0  0  0  0
  -30.0679  -27.0255   16.5776 C   0  0  0  0  0  0  0  0  0  0  0  0
  -32.6601  -20.0173   19.3092 C   0  0  0  0  0  0  0  0  0  0  0  0
  -34.7722  -20.0710   20.7001 C   0  0  0  0  0  0  0  0  0  0  0  0
  -32.7863  -18.9048   21.5775 C   0  0  0  0  0  0  0  0  0  0  0  0
  -29.6727  -25.7912   17.3972 C   0  0  1  0  0  0  0  0  0  0  0  0
  -26.2941  -26.4470   19.0060 C   0  0  1  0  0  0  0  0  0  0  0  0
  -31.8718  -19.6285   20.5744 C   0  0  2  0  0  0  0  0  0  0  0  0
  -30.5850  -23.1462   29.1959 C   0  0  0  0  0  0  0  0  0  0  0  0
  -21.5719  -31.1415   22.9641 C   0  0  0  0  0  0  0  0  0  0  0  0
  -30.9610  -17.3577   25.8398 C   0  0  0  0  0  0  0  0  0  0  0  0
  -32.3241  -17.3251   27.9722 C   0  0  0  0  0  0  0  0  0  0  0  0
  -27.8443  -30.3162   21.0026 C   0  0  0  0  0  0  0  0  0  0  0  0
  -26.1851  -31.5335   22.4287 C   0  0  0  0  0  0  0  0  0  0  0  0
  -25.9827  -31.6075   19.9435 C   0  0  0  0  0  0  0  0  0  0  0  0
  -20.9105  -27.5119   22.0341 C   0  0  0  0  0  0  0  0  0  0  0  0
  -33.8182  -20.2344   25.5610 C   0  0  0  0  0  0  0  0  0  0  0  0
  -28.3251  -22.5089   26.0752 C   0  0  0  0  0  0  0  0  0  0  0  0
  -29.2060  -23.2618   27.0828 C   0  0  0  0  0  0  0  0  0  0  0  0
  -27.5986  -23.4571   25.1279 C   0  0  0  0  0  0  0  0  0  1  0  0
  -29.8785  -22.3254   28.1100 C   0  0  1  0  0  0  0  0  0  0  0  0
  -25.4100  -29.4725   21.1707 C   0  0  1  0  0  0  0  0  0  0  0  0
  -21.7783  -29.8489   22.1899 C   0  0  2  0  0  0  0  0  0  0  0  0
  -32.0707  -18.0389   26.6430 C   0  0  0  0  0  0  0  0  0  0  0  0
  -26.3583  -30.7042   21.1383 C   0  0  0  0  0  0  0  0  0  0  0  0
  -30.7272  -17.4717   20.2271 N   0  0  0  0  0  0  0  0  0  0  0  0
  -31.8167  -19.4510   26.8270 N   0  0  0  0  0  0  0  0  0  0  0  0
  -30.6377  -18.8126   20.2363 N   0  0  0  0  0  0  0  0  0  0  0  0
  -25.9461  -27.2780   20.1604 N   0  0  0  0  0  0  0  0  0  0  0  0
  -33.9659  -19.7322   21.8753 N   0  0  0  0  0  0  0  0  0  0  0  0
  -29.1311  -20.6075   19.8917 N   0  0  0  0  0  0  0  0  0  0  0  0
  -26.5853  -16.9525   19.1461 N   0  0  0  0  0  0  0  0  0  0  0  0
  -28.2684  -25.8426   17.7432 N   0  0  0  0  0  0  0  0  0  0  0  0
  -23.9944  -29.8108   21.2714 N   0  0  0  0  0  0  0  0  0  0  0  0
  -33.5421  -19.8315   24.2000 N   0  0  0  0  0  0  0  0  0  0  0  0
  -20.8322  -28.8270   22.7206 N   0  3  0  0  0  0  0  0  0  0  0  0
  -26.5852  -19.2454   19.1845 O   0  0  0  0  0  0  0  0  0  0  0  0
  -28.4486  -27.1667   19.6502 O   0  0  0  0  0  0  0  0  0  0  0  0
  -25.3116  -29.0864   18.8324 O   0  0  0  0  0  0  0  0  0  0  0  0
  -23.5925  -28.6417   23.2332 O   0  0  0  0  0  0  0  0  0  0  0  0
  -35.3792  -20.8782   23.3131 O   0  0  0  0  0  0  0  0  0  0  0  0
  -28.2657  -11.6500   19.4537 O   0  0  0  0  0  0  0  0  0  0  0  0
  -26.7873  -22.7114   24.2212 O   0  0  0  0  0  0  0  0  0  1  0  0
  -23.5893   -9.8739   21.7733 F   0  0  0  0  0  0  0  0  0  0  0  0
  -25.8177  -12.6663   18.6681 F   0  0  0  0  0  0  0  0  0  0  0  0
  1  2  1  0  0  0  0
  1  5  2  0  0  0  0
  2  6  2  0  0  0  0
  3  8  2  0  0  0  0
  3 17  1  0  0  0  0
  4  9  1  0  0  0  0
  4 17  2  0  0  0  0
  5 19  1  0  0  0  0
  6 21  1  0  0  0  0
  7 10  2  0  0  0  0
  7 20  1  0  0  0  0
  8 24  1  0  0  0  0
  9 24  2  0  0  0  0
 10 25  1  0  0  0  0
 11 12  2  0  0  0  0
 11 26  1  0  0  0  0
 12 27  1  0  0  0  0
 13 22  1  0  0  0  0
 13 25  2  0  0  0  0
 14 23  1  0  0  0  0
 14 30  2  0  0  0  0
 15 27  2  0  0  0  0
 15 28  1  0  0  0  0
 16 23  2  0  0  0  0
 16 67  1  0  0  0  0
 17 29  1  0  0  0  0
 18 29  1  0  0  0  0
 18 31  2  0  0  0  0
 18 32  1  0  0  0  0
 19 21  2  0  0  0  0
 19 37  1  0  0  0  0
 20 22  2  0  0  0  0
 20 38  1  0  0  0  0
 21 46  1  0  0  0  0
 22 39  1  0  0  0  0
 23 61  1  0  0  0  0
 24 82  1  0  0  0  0
 25 83  1  0  0  0  0
 26 28  2  0  0  0  0
 26 82  1  0  0  0  0
 27 84  1  0  0  0  0
 28 85  1  0  0  0  0
 29 66  2  0  0  0  0
 30 57  1  0  0  0  0
 30 67  1  0  0  0  0
 31 68  1  0  0  0  0
 31 71  1  0  0  0  0
 32 72  1  0  0  0  0
 32 77  2  0  0  0  0
 33 47  1  0  0  0  0
 33 73  1  0  0  0  0
 33 78  2  0  0  0  0
 34 62  1  0  0  0  0
 34 69  1  0  0  0  0
 34 79  2  0  0  0  0
 35 63  1  0  0  0  0
 35 74  1  0  0  0  0
 35 80  2  0  0  0  0
 36 70  1  0  0  0  0
 36 75  1  0  0  0  0
 36 81  2  0  0  0  0
 37 40  1  0  0  0  0
 38 47  1  0  0  0  0
 39 69  1  0  0  0  0
 40 42  1  0  0  0  0
 41 43  1  0  0  0  0
 41 44  1  0  0  0  0
 42 46  1  0  0  0  0
 43 48  1  0  0  0  0
 44 70  1  0  0  0  0
 45 48  1  0  0  0  0
 45 70  1  0  0  0  0
 46 73  1  0  0  0  0
 47 69  1  0  0  0  0
 48 68  1  0  0  0  0
 49 61  1  0  0  0  0
 50 63  1  0  0  0  0
 51 64  1  0  0  0  0
 52 64  1  0  0  0  0
 53 65  1  0  0  0  0
 54 65  1  0  0  0  0
 55 65  1  0  0  0  0
 56 76  1  0  0  0  0
 57 75  1  0  0  0  0
 58 59  1  0  0  0  0
 58 60  1  0  0  0  0
 59 61  1  0  0  0  0
 60 83  1  0  0  0  0
 62 65  1  0  0  0  0
 62 74  1  0  0  0  0
 63 76  1  0  0  0  0
 64 67  1  0  0  0  0
 66 68  1  0  0  0  0
M  CHG  1  76   1
M  ISO  4  36 100  60 101  75 100  83 101
M  END
> <Batch ID>
0129

> <Smiles>
CNC(C)C(=O)NC(C(=O)N1Cc2cc([101O:1][101CH2:1]CCC(C)c3cc(C[100NH:0][100C:0](=O)N4CCCC(n5nc(-c6ccc(Oc7ccc(F)cc7F)cc6)c(C(N)=O)c5N)C4)n(C(C)C)c3)ccc2CC1C(=O)NC1CCCc2ccccc21)C(C)(C)C

> <Shape>
0.210

> <Color>
0.076

> <Negative vol penalty>
0.000

$$$$

  -OEChem-04052320453D

 84 93  0     1  0  0  0  0  0999 V2000
  -18.9097  -30.7584   24.6011 C   0  0  0  0  0  0  0  0  0  0  0  0
  -20.2790  -30.5585   24.4586 C   0  0  0  0  0  0  0  0  0  0  0  0
  -28.2683  -13.5002   20.9481 C   0  0  0  0  0  0  0  0  0  0  0  0
  -29.5083  -14.1620   18.9831 C   0  0  0  0  0  0  0  0  0  0  0  0
  -18.0121  -29.8380   24.0615 C   0  0  0  0  0  0  0  0  0  0  0  0
  -20.7516  -29.4374   23.7773 C   0  0  0  0  0  0  0  0  0  0  0  0
  -25.7546  -29.1043   20.2608 C   0  0  0  0  0  0  0  0  0  0  0  0
  -29.3074  -25.5634   16.9745 C   0  0  0  0  0  0  0  0  0  0  0  0
  -28.1752  -12.2001   20.4515 C   0  0  0  0  0  0  0  0  0  0  0  0
  -29.4152  -12.8619   18.4864 C   0  0  0  0  0  0  0  0  0  0  0  0
  -27.0468  -28.6436   20.5093 C   0  0  0  0  0  0  0  0  0  0  0  0
  -27.1015  -10.9486   16.9318 C   0  0  0  0  0  0  0  0  0  0  0  0
  -26.7575  -10.7908   15.5893 C   0  0  0  0  0  0  0  0  0  0  0  0
  -28.3916  -24.6086   16.5468 C   0  0  0  0  0  0  0  0  0  0  0  0
  -26.4598  -26.5044   19.5613 C   0  0  0  0  0  0  0  0  0  0  0  0
  -28.8473   -9.6467   15.1883 C   0  0  0  0  0  0  0  0  0  0  0  0
  -28.9348  -14.4812   20.2139 C   0  0  0  0  0  0  0  0  0  0  0  0
  -30.0476  -16.3514   21.5449 C   0  0  0  0  0  0  0  0  0  0  0  0
  -18.4738  -28.7101   23.3649 C   0  0  0  0  0  0  0  0  0  0  0  0
  -24.8005  -28.2637   19.6697 C   0  0  0  0  0  0  0  0  0  0  0  0
  -19.8594  -28.5003   23.2290 C   0  0  0  0  0  0  0  0  0  0  0  0
  -25.1569  -26.9577   19.3041 C   0  0  0  0  0  0  0  0  0  0  0  0
  -30.2866  -25.2147   17.8980 C   0  0  0  0  0  0  0  0  0  0  0  0
  -28.7486  -11.8809   19.2207 C   0  0  0  0  0  0  0  0  0  0  0  0
  -27.3987  -27.3425   20.1622 C   0  0  0  0  0  0  0  0  0  0  0  0
  -28.3185  -10.4555   17.4026 C   0  0  0  0  0  0  0  0  0  0  0  0
  -27.6304  -10.1398   14.7175 C   0  0  0  0  0  0  0  0  0  0  0  0
  -29.1913   -9.8045   16.5308 C   0  0  0  0  0  0  0  0  0  0  0  0
  -29.0309  -15.8245   20.7261 C   0  0  0  0  0  0  0  0  0  0  0  0
  -28.4967  -23.3294   17.0687 C   0  0  0  0  0  0  0  0  0  0  0  0
  -30.3068  -23.9085   18.3596 C   0  0  0  0  0  0  0  0  0  0  0  0
  -29.6792  -17.6583   21.7516 C   0  0  0  0  0  0  0  0  0  0  0  0
  -31.2202  -15.7163   22.0715 C   0  0  0  0  0  0  0  0  0  0  0  0
  -21.9924  -27.0764   20.5690 C   0  0  0  0  0  0  0  0  0  0  0  0
  -21.9203  -25.9758   17.5185 C   0  0  0  0  0  0  0  0  0  0  0  0
  -23.6566  -25.0674   14.7244 C   0  0  0  0  0  0  0  0  0  0  0  0
  -26.2928  -21.4829   18.6282 C   0  0  0  0  0  0  0  0  0  0  0  0
  -17.4661  -27.7183   22.8400 C   0  0  0  0  0  0  0  0  0  0  0  0
  -23.4187  -28.7844   19.3839 C   0  0  0  0  0  0  0  0  0  0  0  0
  -24.1756  -26.0220   18.6485 C   0  0  0  0  0  0  0  0  0  0  0  0
  -18.0427  -26.7521   21.8084 C   0  0  0  0  0  0  0  0  0  0  0  0
  -25.8115  -20.4632   22.0054 C   0  0  0  0  0  0  0  0  0  0  0  0
  -19.3773  -26.1915   22.2895 C   0  0  0  0  0  0  0  0  0  0  0  0
  -26.6737  -19.2062   22.1343 C   0  0  0  0  0  0  0  0  0  0  0  0
  -30.5688  -28.5360   20.6861 C   0  0  0  0  0  0  0  0  0  0  0  0
  -25.1588  -20.5609   20.6283 C   0  0  0  0  0  0  0  0  0  0  0  0
  -26.9559  -19.2087   19.6205 C   0  0  0  0  0  0  0  0  0  0  0  0
  -31.8268  -27.9047   20.0743 C   0  0  0  0  0  0  0  0  0  0  0  0
  -20.4104  -27.3094   22.4753 C   0  0  1  0  0  0  0  0  0  0  0  0
  -22.3791  -27.6764   19.2468 C   0  0  1  0  0  0  0  0  0  0  0  0
  -27.6799  -19.0949   20.9731 C   0  0  2  0  0  0  0  0  0  0  0  0
  -29.7822  -27.5638   19.7895 C   0  0  1  0  0  0  0  0  0  1  0  0
  -31.3379  -23.4764   19.3500 C   0  0  0  0  0  0  0  0  0  0  0  0
  -23.3253  -24.1729   12.4033 C   0  0  0  0  0  0  0  0  0  0  0  0
  -21.4033  -23.1963   18.6662 C   0  0  0  0  0  0  0  0  0  0  0  0
  -22.0238  -22.2372   16.4383 C   0  0  0  0  0  0  0  0  0  0  0  0
  -20.0535  -23.7543   16.6361 C   0  0  0  0  0  0  0  0  0  0  0  0
  -24.8712  -27.4721   13.4993 C   0  0  0  0  0  0  0  0  0  0  0  0
  -31.2768  -26.2409   18.3643 C   0  0  0  0  0  0  0  0  0  0  0  0
  -27.5312  -22.2793   16.6304 C   0  0  0  0  0  0  0  0  0  0  0  0
  -22.3835  -24.7176   16.8247 C   0  0  1  0  0  0  0  0  0  0  0  0
  -23.4658  -25.4211   13.2605 C   0  0  2  0  0  0  0  0  0  0  0  0
  -21.4842  -23.4931   17.1554 C   0  0  0  0  0  0  0  0  0  0  0  0
  -28.0874  -16.7232   20.4328 N   0  0  0  0  0  0  0  0  0  0  0  0
  -29.4341  -22.9534   17.9674 N   0  0  0  0  0  0  0  0  0  0  0  0
  -28.5096  -17.8281   21.0709 N   0  0  0  0  0  0  0  0  0  0  0  0
  -22.8351  -26.5757   18.3955 N   0  0  0  0  0  0  0  0  0  0  0  0
  -26.1672  -20.4498   19.5715 N   0  0  0  0  0  0  0  0  0  0  0  0
  -30.2449  -18.6674   22.4475 N   0  0  0  0  0  0  0  0  0  0  0  0
  -31.4465  -14.3684   21.7612 N   0  0  0  0  0  0  0  0  0  0  0  0
  -20.9436  -27.7227   21.1949 N   0  0  0  0  0  0  0  0  0  0  0  0
  -22.4568  -25.0385   15.4034 N   0  0  0  0  0  0  0  0  0  0  0  0
  -27.2772  -21.3011   17.6645 N   0  0  0  0  0  0  0  0  0  0  0  0
  -31.0041  -26.7294   19.7336 N   0  3  1  0  0  0  0  0  0  0  0  0
  -24.6303  -26.2056   12.7611 N   0  3  0  0  0  0  0  0  0  0  0  0
  -32.0345  -16.3215   22.8092 O   0  0  0  0  0  0  0  0  0  0  0  0
  -22.5997  -26.0986   20.9895 O   0  0  0  0  0  0  0  0  0  0  0  0
  -20.7911  -26.4143   17.2853 O   0  0  0  0  0  0  0  0  0  0  0  0
  -24.7592  -24.8359   15.2155 O   0  0  0  0  0  0  0  0  0  0  0  0
  -25.5841  -22.4950   18.6469 O   0  0  0  0  0  0  0  0  0  0  0  0
  -28.6582  -10.6123   18.7358 O   0  0  0  0  0  0  0  0  0  0  0  0
  -28.6591  -26.8900   20.4042 O   0  0  0  0  0  0  0  0  0  1  0  0
  -27.2992   -9.9870   13.4287 F   0  0  0  0  0  0  0  0  0  0  0  0
  -30.3613   -9.3277   16.9775 F   0  0  0  0  0  0  0  0  0  0  0  0
  1  2  1  0  0  0  0
  1  5  2  0  0  0  0
  2  6  2  0  0  0  0
  3  9  2  0  0  0  0
  3 17  1  0  0  0  0
  4 10  1  0  0  0  0
  4 17  2  0  0  0  0
  5 19  1  0  0  0  0
  6 21  1  0  0  0  0
  7 11  2  0  0  0  0
  7 20  1  0  0  0  0
  8 14  2  0  0  0  0
  8 23  1  0  0  0  0
  9 24  1  0  0  0  0
 10 24  2  0  0  0  0
 11 25  1  0  0  0  0
 12 13  2  0  0  0  0
 12 26  1  0  0  0  0
 13 27  1  0  0  0  0
 14 30  1  0  0  0  0
 15 22  1  0  0  0  0
 15 25  2  0  0  0  0
 16 27  2  0  0  0  0
 16 28  1  0  0  0  0
 17 29  1  0  0  0  0
 18 29  1  0  0  0  0
 18 32  2  0  0  0  0
 18 33  1  0  0  0  0
 19 21  2  0  0  0  0
 19 38  1  0  0  0  0
 20 22  2  0  0  0  0
 20 39  1  0  0  0  0
 21 49  1  0  0  0  0
 22 40  1  0  0  0  0
 23 31  2  0  0  0  0
 23 59  1  0  0  0  0
 24 81  1  0  0  0  0
 25 82  1  0  0  0  0
 26 28  2  0  0  0  0
 26 81  1  0  0  0  0
 27 83  1  0  0  0  0
 28 84  1  0  0  0  0
 29 64  2  0  0  0  0
 30 60  1  0  0  0  0
 30 65  2  0  0  0  0
 31 53  1  0  0  0  0
 31 65  1  0  0  0  0
 32 66  1  0  0  0  0
 32 69  1  0  0  0  0
 33 70  1  0  0  0  0
 33 76  2  0  0  0  0
 34 50  1  0  0  0  0
 34 71  1  0  0  0  0
 34 77  2  0  0  0  0
 35 61  1  0  0  0  0
 35 67  1  0  0  0  0
 35 78  2  0  0  0  0
 36 62  1  0  0  0  0
 36 72  1  0  0  0  0
 36 79  2  0  0  0  0
 37 68  1  0  0  0  0
 37 73  1  0  0  0  0
 37 80  2  0  0  0  0
 38 41  1  0  0  0  0
 39 50  1  0  0  0  0
 40 67  1  0  0  0  0
 41 43  1  0  0  0  0
 42 44  1  0  0  0  0
 42 46  1  0  0  0  0
 43 49  1  0  0  0  0
 44 51  1  0  0  0  0
 45 48  1  0  0  0  0
 45 52  1  0  0  0  0
 46 68  1  0  0  0  0
 47 51  1  0  0  0  0
 47 68  1  0  0  0  0
 48 74  1  0  0  0  0
 49 71  1  0  0  0  0
 50 67  1  0  0  0  0
 51 66  1  0  0  0  0
 52 74  1  0  0  0  0
 52 82  1  0  0  0  0
 54 62  1  0  0  0  0
 55 63  1  0  0  0  0
 56 63  1  0  0  0  0
 57 63  1  0  0  0  0
 58 75  1  0  0  0  0
 59 74  1  0  0  0  0
 60 73  1  0  0  0  0
 61 63  1  0  0  0  0
 61 72  1  0  0  0  0
 62 75  1  0  0  0  0
 64 66  1  0  0  0  0
M  CHG  2  74   1  75   1
M  ISO  4  37 100  52 101  73 100  82 101
M  END
> <Batch ID>
0129

> <Smiles>
CNC(C)C(=O)NC(C(=O)N1Cc2cc([101O:1][101CH:1]3CCN3Cc3ccc(C[100NH:0][100C:0](=O)N4CCCC(n5nc(-c6ccc(Oc7ccc(F)cc7F)cc6)c(C(N)=O)c5N)C4)nc3C)ccc2CC1C(=O)NC1CCCc2ccccc21)C(C)(C)C

> <Shape>
0.257

> <Color>
0.067

> <Negative vol penalty>
0.000

$$$$

  -OEChem-04052320453D

 88 97  0     1  0  0  0  0  0999 V2000
  -23.0911  -38.3410   22.2620 C   0  0  0  0  0  0  0  0  0  0  0  0
  -24.4349  -38.4136   22.6149 C   0  0  0  0  0  0  0  0  0  0  0  0
  -22.8565   -9.2567   19.4792 C   0  0  0  0  0  0  0  0  0  0  0  0
  -23.7163   -9.7033   21.6925 C   0  0  0  0  0  0  0  0  0  0  0  0
  -22.2831  -37.3406   22.8007 C   0  0  0  0  0  0  0  0  0  0  0  0
  -24.9711  -37.4863   23.5077 C   0  0  0  0  0  0  0  0  0  0  0  0
  -31.0507  -32.6560   22.6510 C   0  0  0  0  0  0  0  0  0  0  0  0
  -28.6332  -19.6624   20.1675 C   0  0  0  0  0  0  0  0  0  0  0  0
  -22.0906   -8.2081   19.9884 C   0  0  0  0  0  0  0  0  0  0  0  0
  -22.9503   -8.6547   22.2016 C   0  0  0  0  0  0  0  0  0  0  0  0
  -32.0084  -31.6457   22.5604 C   0  0  0  0  0  0  0  0  0  0  0  0
  -23.1180   -5.2803   22.3292 C   0  0  0  0  0  0  0  0  0  0  0  0
  -23.7339   -4.4007   23.2195 C   0  0  0  0  0  0  0  0  0  0  0  0
  -28.3757  -18.2984   20.2489 C   0  0  0  0  0  0  0  0  0  0  0  0
  -30.7945  -30.3342   24.1897 C   0  0  0  0  0  0  0  0  0  0  0  0
  -22.1150   -4.9838   24.9155 C   0  0  0  0  0  0  0  0  0  0  0  0
  -23.6695  -10.0043   20.3313 C   0  0  0  0  0  0  0  0  0  0  0  0
  -23.9945  -12.2381   19.1428 C   0  0  0  0  0  0  0  0  0  0  0  0
  -22.8120  -36.3948   23.6931 C   0  0  0  0  0  0  0  0  0  0  0  0
  -29.9518  -32.5024   23.5009 C   0  0  0  0  0  0  0  0  0  0  0  0
  -24.1691  -36.4731   24.0599 C   0  0  0  0  0  0  0  0  0  0  0  0
  -29.8255  -31.3375   24.2753 C   0  0  0  0  0  0  0  0  0  0  0  0
  -29.9445  -20.1112   20.0560 C   0  0  0  0  0  0  0  0  0  0  0  0
  -22.1374   -7.9071   21.3496 C   0  0  0  0  0  0  0  0  0  0  0  0
  -31.8807  -30.4878   23.3280 C   0  0  0  0  0  0  0  0  0  0  0  0
  -22.0007   -6.0117   22.7321 C   0  0  0  0  0  0  0  0  0  0  0  0
  -23.2324   -4.2524   24.5126 C   0  0  0  0  0  0  0  0  0  0  0  0
  -21.4992   -5.8635   24.0252 C   0  0  0  0  0  0  0  0  0  0  0  0
  -24.4614  -11.0873   19.8058 C   0  0  0  0  0  0  0  0  0  0  0  0
  -30.9545  -19.1631   20.0305 C   0  0  0  0  0  0  0  0  0  0  0  0
  -29.4560  -17.4314   20.2145 C   0  0  0  0  0  0  0  0  0  0  0  0
  -25.1317  -12.9493   18.8473 C   0  0  0  0  0  0  0  0  0  0  0  0
  -22.6527  -12.6292   18.8227 C   0  0  0  0  0  0  0  0  0  0  0  0
  -26.7671  -33.9645   24.8410 C   0  0  0  0  0  0  0  0  0  0  0  0
  -26.2521  -30.9751   24.3839 C   0  0  0  0  0  0  0  0  0  0  0  0
  -25.9661  -27.7383   23.3455 C   0  0  0  0  0  0  0  0  0  0  0  0
  -30.1059  -14.9985   20.2829 C   0  0  0  0  0  0  0  0  0  0  0  0
  -21.8885  -35.3603   24.2860 C   0  0  0  0  0  0  0  0  0  0  0  0
  -28.9284  -33.5912   23.6764 C   0  0  0  0  0  0  0  0  0  0  0  0
  -28.6451  -31.2306   25.2017 C   0  0  0  0  0  0  0  0  0  0  0  0
  -22.6220  -34.1895   24.9352 C   0  0  0  0  0  0  0  0  0  0  0  0
  -30.0100  -11.6296   19.1348 C   0  0  0  0  0  0  0  0  0  0  0  0
  -23.7536  -34.6954   25.8242 C   0  0  0  0  0  0  0  0  0  0  0  0
  -28.5195  -11.2828   19.1525 C   0  0  0  0  0  0  0  0  0  0  0  0
  -31.2785  -27.8035   22.4691 C   0  0  0  0  0  0  0  0  0  0  0  0
  -33.5543  -27.2053   23.3328 C   0  0  0  0  0  0  0  0  0  0  0  0
  -30.3966  -12.5307   20.3062 C   0  0  0  0  0  0  0  0  0  0  0  0
  -30.8873  -26.3315   22.5953 C   0  0  0  0  0  0  0  0  0  0  0  0
  -33.0913  -25.7520   23.4313 C   0  0  0  0  0  0  0  0  0  0  0  0
  -28.0975  -13.4018   20.4635 C   0  0  0  0  0  0  0  0  0  0  0  0
  -24.7935  -35.4705   25.0061 C   0  0  1  0  0  0  0  0  0  0  0  0
  -27.5059  -33.0507   23.9079 C   0  0  1  0  0  0  0  0  0  0  0  0
  -27.6477  -12.5488   19.2662 C   0  0  2  0  0  0  0  0  0  0  0  0
  -32.3788  -28.1701   23.4612 C   0  0  0  0  0  0  0  0  0  1  0  0
  -32.3817  -19.5883   19.9133 C   0  0  0  0  0  0  0  0  0  0  0  0
  -24.3259  -25.8423   23.2364 C   0  0  0  0  0  0  0  0  0  0  0  0
  -26.6383  -30.4742   27.3678 C   0  0  0  0  0  0  0  0  0  0  0  0
  -25.8124  -28.1379   27.0102 C   0  0  0  0  0  0  0  0  0  0  0  0
  -24.3143  -30.0750   26.5348 C   0  0  0  0  0  0  0  0  0  0  0  0
  -26.1000  -27.6395   20.3906 C   0  0  0  0  0  0  0  0  0  0  0  0
  -30.2296  -21.5816   19.9692 C   0  0  0  0  0  0  0  0  0  0  0  0
  -31.6601  -24.0513   22.5020 C   0  0  0  0  0  0  0  0  0  0  0  0
  -31.1289  -23.5847   21.1597 C   0  0  0  0  0  0  0  0  0  0  0  0
  -26.2436  -29.5881   24.9751 C   0  0  1  0  0  0  0  0  0  0  0  0
  -24.9131  -27.0392   22.5048 C   0  0  2  0  0  0  0  0  0  0  0  0
  -25.7745  -29.5786   26.4574 C   0  0  0  0  0  0  0  0  0  0  0  0
  -25.7916  -11.0647   19.9246 N   0  0  0  0  0  0  0  0  0  0  0  0
  -30.7433  -17.8300   20.1071 N   0  0  0  0  0  0  0  0  0  0  0  0
  -26.1702  -12.2099   19.3321 N   0  0  0  0  0  0  0  0  0  0  0  0
  -27.4313  -31.7164   24.5269 N   0  0  0  0  0  0  0  0  0  0  0  0
  -29.5313  -13.7115   20.3481 N   0  0  0  0  0  0  0  0  0  0  0  0
  -32.0574  -25.4572   22.4286 N   0  0  0  0  0  0  0  0  0  0  0  0
  -25.3347  -14.1287   18.2226 N   0  0  0  0  0  0  0  0  0  0  0  0
  -21.9410  -13.3984   19.7533 N   0  0  0  0  0  0  0  0  0  0  0  0
  -29.1828  -16.0436   20.2981 N   0  0  0  0  0  0  0  0  0  0  0  0
  -25.6506  -34.5564   24.2821 N   0  0  0  0  0  0  0  0  0  0  0  0
  -25.4273  -28.7700   24.0848 N   0  0  0  0  0  0  0  0  0  0  0  0
  -25.5061  -26.5622   21.2234 N   0  3  0  0  0  0  0  0  0  0  0  0
  -30.7793  -22.1446   21.2325 N   0  3  0  0  0  0  0  0  0  0  0  0
  -22.0956  -12.2922   17.7506 O   0  0  0  0  0  0  0  0  0  0  0  0
  -27.1780  -34.1207   25.9849 O   0  0  0  0  0  0  0  0  0  0  0  0
  -25.2402  -31.3946   23.8152 O   0  0  0  0  0  0  0  0  0  0  0  0
  -27.1478  -27.4004   23.3491 O   0  0  0  0  0  0  0  0  0  0  0  0
  -31.3254  -15.1608   20.1910 O   0  0  0  0  0  0  0  0  0  0  0  0
  -21.3899   -6.8840   21.8468 O   0  0  0  0  0  0  0  0  0  0  0  0
  -32.8168  -29.5034   23.2313 O   0  0  0  0  0  0  0  0  0  1  0  0
  -23.8229   -3.4065   25.3670 F   0  0  0  0  0  0  0  0  0  0  0  0
  -20.4254   -6.5626   24.4176 F   0  0  0  0  0  0  0  0  0  0  0  0
  1  2  1  0  0  0  0
  1  5  2  0  0  0  0
  2  6  2  0  0  0  0
  3  9  2  0  0  0  0
  3 17  1  0  0  0  0
  4 10  1  0  0  0  0
  4 17  2  0  0  0  0
  5 19  1  0  0  0  0
  6 21  1  0  0  0  0
  7 11  2  0  0  0  0
  7 20  1  0  0  0  0
  8 14  2  0  0  0  0
  8 23  1  0  0  0  0
  9 24  1  0  0  0  0
 10 24  2  0  0  0  0
 11 25  1  0  0  0  0
 12 13  2  0  0  0  0
 12 26  1  0  0  0  0
 13 27  1  0  0  0  0
 14 31  1  0  0  0  0
 15 22  1  0  0  0  0
 15 25  2  0  0  0  0
 16 27  2  0  0  0  0
 16 28  1  0  0  0  0
 17 29  1  0  0  0  0
 18 29  1  0  0  0  0
 18 32  2  0  0  0  0
 18 33  1  0  0  0  0
 19 21  2  0  0  0  0
 19 38  1  0  0  0  0
 20 22  2  0  0  0  0
 20 39  1  0  0  0  0
 21 51  1  0  0  0  0
 22 40  1  0  0  0  0
 23 30  2  0  0  0  0
 23 61  1  0  0  0  0
 24 85  1  0  0  0  0
 25 86  1  0  0  0  0
 26 28  2  0  0  0  0
 26 85  1  0  0  0  0
 27 87  1  0  0  0  0
 28 88  1  0  0  0  0
 29 67  2  0  0  0  0
 30 55  1  0  0  0  0
 30 68  1  0  0  0  0
 31 68  2  0  0  0  0
 31 75  1  0  0  0  0
 32 69  1  0  0  0  0
 32 73  1  0  0  0  0
 33 74  1  0  0  0  0
 33 80  2  0  0  0  0
 34 52  1  0  0  0  0
 34 76  1  0  0  0  0
 34 81  2  0  0  0  0
 35 64  1  0  0  0  0
 35 70  1  0  0  0  0
 35 82  2  0  0  0  0
 36 65  1  0  0  0  0
 36 77  1  0  0  0  0
 36 83  2  0  0  0  0
 37 71  1  0  0  0  0
 37 75  1  0  0  0  0
 37 84  2  0  0  0  0
 38 41  1  0  0  0  0
 39 52  1  0  0  0  0
 40 70  1  0  0  0  0
 41 43  1  0  0  0  0
 42 44  1  0  0  0  0
 42 47  1  0  0  0  0
 43 51  1  0  0  0  0
 44 53  1  0  0  0  0
 45 48  1  0  0  0  0
 45 54  1  0  0  0  0
 46 49  1  0  0  0  0
 46 54  1  0  0  0  0
 47 71  1  0  0  0  0
 48 72  1  0  0  0  0
 49 72  1  0  0  0  0
 50 53  1  0  0  0  0
 50 71  1  0  0  0  0
 51 76  1  0  0  0  0
 52 70  1  0  0  0  0
 53 69  1  0  0  0  0
 54 86  1  0  0  0  0
 56 65  1  0  0  0  0
 57 66  1  0  0  0  0
 58 66  1  0  0  0  0
 59 66  1  0  0  0  0
 60 78  1  0  0  0  0
 61 79  1  0  0  0  0
 62 63  1  0  0  0  0
 62 72  1  0  0  0  0
 63 79  1  0  0  0  0
 64 66  1  0  0  0  0
 64 77  1  0  0  0  0
 65 78  1  0  0  0  0
 67 69  1  0  0  0  0
M  CHG  2  78   1  79   1
M  ISO  4  37 100  54 101  75 100  86 101
M  END
> <Batch ID>
0129

> <Smiles>
CNC(C)C(=O)NC(C(=O)N1Cc2cc([101O:1][101CH:1]3CCN(CCNCc4ccc([100NH:0][100C:0](=O)N5CCCC(n6nc(-c7ccc(Oc8ccc(F)cc8F)cc7)c(C(N)=O)c6N)C5)nc4C)CC3)ccc2CC1C(=O)NC1CCCc2ccccc21)C(C)(C)C

> <Shape>
0.269

> <Color>
0.103

> <Negative vol penalty>
0.000

$$$$

  -OEChem-04052320453D

 81 89  0     1  0  0  0  0  0999 V2000
  -38.9028  -30.3611   24.0003 C   0  0  0  0  0  0  0  0  0  0  0  0
  -38.5209  -29.0404   23.7873 C   0  0  0  0  0  0  0  0  0  0  0  0
  -30.2231  -18.9486   23.1449 C   0  0  0  0  0  0  0  0  0  0  0  0
  -23.0748   -9.8660   19.9418 C   0  0  0  0  0  0  0  0  0  0  0  0
  -23.8347   -9.8755   22.2352 C   0  0  0  0  0  0  0  0  0  0  0  0
  -38.3402  -31.3806   23.2335 C   0  0  0  0  0  0  0  0  0  0  0  0
  -37.5753  -28.7386   22.8079 C   0  0  0  0  0  0  0  0  0  0  0  0
  -37.4041  -23.7413   19.2718 C   0  0  0  0  0  0  0  0  0  0  0  0
  -22.3315   -8.7128   20.1928 C   0  0  0  0  0  0  0  0  0  0  0  0
  -23.0912   -8.7223   22.4863 C   0  0  0  0  0  0  0  0  0  0  0  0
  -36.6784  -22.5541   19.3602 C   0  0  0  0  0  0  0  0  0  0  0  0
  -19.8634   -7.9237   23.0895 C   0  0  0  0  0  0  0  0  0  0  0  0
  -19.1065   -7.8846   24.2604 C   0  0  0  0  0  0  0  0  0  0  0  0
  -31.4865  -19.3765   22.7524 C   0  0  0  0  0  0  0  0  0  0  0  0
  -29.7483  -17.7146   22.7146 C   0  0  0  0  0  0  0  0  0  0  0  0
  -35.0284  -23.4574   17.8500 C   0  0  0  0  0  0  0  0  0  0  0  0
  -20.3487   -5.9484   24.9988 C   0  0  0  0  0  0  0  0  0  0  0  0
  -23.8265  -10.4474   20.9629 C   0  0  0  0  0  0  0  0  0  0  0  0
  -24.1673  -12.9725   20.8404 C   0  0  0  0  0  0  0  0  0  0  0  0
  -37.3943  -31.0901   22.2377 C   0  0  0  0  0  0  0  0  0  0  0  0
  -36.9409  -24.8013   18.4791 C   0  0  0  0  0  0  0  0  0  0  0  0
  -36.9985  -29.7553   22.0279 C   0  0  0  0  0  0  0  0  0  0  0  0
  -35.7513  -24.6560   17.7512 C   0  0  0  0  0  0  0  0  0  0  0  0
  -22.3396   -8.1409   21.4651 C   0  0  0  0  0  0  0  0  0  0  0  0
  -35.4889  -22.4131   18.6515 C   0  0  0  0  0  0  0  0  0  0  0  0
  -20.8630   -6.9751   22.8731 C   0  0  0  0  0  0  0  0  0  0  0  0
  -19.3491   -6.8970   25.2151 C   0  0  0  0  0  0  0  0  0  0  0  0
  -21.1056   -5.9875   23.8278 C   0  0  0  0  0  0  0  0  0  0  0  0
  -24.5951  -11.6383   20.7040 C   0  0  0  0  0  0  0  0  0  0  0  0
  -32.2298  -18.5398   21.9355 C   0  0  0  0  0  0  0  0  0  0  0  0
  -30.5694  -16.9524   21.8992 C   0  0  0  0  0  0  0  0  0  0  0  0
  -25.2591  -13.7221   20.4765 C   0  0  0  0  0  0  0  0  0  0  0  0
  -22.8966  -13.4882   21.2588 C   0  0  0  0  0  0  0  0  0  0  0  0
  -36.0446  -27.7985   19.0423 C   0  0  0  0  0  0  0  0  0  0  0  0
  -35.8826  -27.9464   15.8059 C   0  0  0  0  0  0  0  0  0  0  0  0
  -35.5209  -26.2895   12.8444 C   0  0  0  0  0  0  0  0  0  0  0  0
  -30.7249  -14.7702   20.6503 C   0  0  0  0  0  0  0  0  0  0  0  0
  -36.7789  -32.2306   21.4662 C   0  0  0  0  0  0  0  0  0  0  0  0
  -37.7491  -26.0655   18.3733 C   0  0  0  0  0  0  0  0  0  0  0  0
  -35.2213  -25.7565   16.8700 C   0  0  0  0  0  0  0  0  0  0  0  0
  -36.0610  -31.7879   20.1938 C   0  0  0  0  0  0  0  0  0  0  0  0
  -29.6115  -12.3536   18.2843 C   0  0  0  0  0  0  0  0  0  0  0  0
  -35.1681  -30.5838   20.4760 C   0  0  0  0  0  0  0  0  0  0  0  0
  -28.1720  -12.0618   18.7141 C   0  0  0  0  0  0  0  0  0  0  0  0
  -30.5265  -12.5840   19.4858 C   0  0  0  0  0  0  0  0  0  0  0  0
  -28.6192  -13.3090   20.8663 C   0  0  0  0  0  0  0  0  0  0  0  0
  -35.9942  -29.3853   20.9581 C   0  0  1  0  0  0  0  0  0  0  0  0
  -36.9195  -27.2705   17.9407 C   0  0  1  0  0  0  0  0  0  0  0  0
  -27.6465  -13.1341   19.6886 C   0  0  2  0  0  0  0  0  0  0  0  0
  -35.3908  -26.6839   10.3696 C   0  0  0  0  0  0  0  0  0  0  0  0
  -33.0225  -28.9618   16.1205 C   0  0  0  0  0  0  0  0  0  0  0  0
  -32.6428  -28.4326   13.7031 C   0  0  0  0  0  0  0  0  0  0  0  0
  -34.3545  -30.1266   14.3533 C   0  0  0  0  0  0  0  0  0  0  0  0
  -37.9303  -24.6469   12.3388 C   0  0  0  0  0  0  0  0  0  0  0  0
  -33.6068  -18.9720   21.4895 C   0  0  0  0  0  0  0  0  0  0  0  0
  -34.8708  -20.5250   19.9588 C   0  0  0  0  0  0  0  0  0  1  0  0
  -34.8127  -27.6764   14.7756 C   0  0  1  0  0  0  0  0  0  0  0  0
  -36.3020  -26.3667   11.5451 C   0  0  2  0  0  0  0  0  0  0  0  0
  -33.5708  -19.7546   20.1729 C   0  0  1  0  0  0  0  0  0  0  0  0
  -33.7168  -28.7791   14.7562 C   0  0  0  0  0  0  0  0  0  0  0  0
  -25.8600  -11.5426   20.2859 N   0  0  0  0  0  0  0  0  0  0  0  0
  -31.8023  -17.3346   21.4972 N   0  0  0  0  0  0  0  0  0  0  0  0
  -26.2364  -12.8262   20.1563 N   0  0  0  0  0  0  0  0  0  0  0  0
  -36.0442  -26.9756   16.8045 N   0  0  0  0  0  0  0  0  0  0  0  0
  -29.9671  -13.6154   20.3621 N   0  0  0  0  0  0  0  0  0  0  0  0
  -25.4690  -15.0536   20.4022 N   0  0  0  0  0  0  0  0  0  0  0  0
  -21.8850  -12.5789   21.5970 N   0  0  0  0  0  0  0  0  0  0  0  0
  -30.0771  -15.6958   21.4677 N   0  0  0  0  0  0  0  0  0  0  0  0
  -36.6561  -28.7456   19.8414 N   0  0  0  0  0  0  0  0  0  0  0  0
  -35.5058  -27.5003   13.5040 N   0  0  0  0  0  0  0  0  0  0  0  0
  -36.9852  -25.0703   11.2736 N   0  3  0  0  0  0  0  0  0  0  0  0
  -22.6598  -14.7188   21.3150 O   0  0  0  0  0  0  0  0  0  0  0  0
  -34.8991  -27.3787   19.1578 O   0  0  0  0  0  0  0  0  0  0  0  0
  -36.5550  -28.9773   15.7236 O   0  0  0  0  0  0  0  0  0  0  0  0
  -34.9752  -25.2592   13.2334 O   0  0  0  0  0  0  0  0  0  0  0  0
  -31.8539  -14.9389   20.1825 O   0  0  0  0  0  0  0  0  0  0  0  0
  -33.4140  -18.8268   19.0973 O   0  0  0  0  0  0  0  0  0  0  0  0
  -21.6141   -7.0158   21.7105 O   0  0  0  0  0  0  0  0  0  0  0  0
  -34.7784  -21.2556   18.7365 O   0  0  0  0  0  0  0  0  0  1  0  0
  -18.6232   -6.8605   26.3402 F   0  0  0  0  0  0  0  0  0  0  0  0
  -22.0653   -5.0742   23.6261 F   0  0  0  0  0  0  0  0  0  0  0  0
  1  2  1  0  0  0  0
  1  6  2  0  0  0  0
  2  7  2  0  0  0  0
  3 14  2  0  0  0  0
  3 15  1  0  0  0  0
  4  9  2  0  0  0  0
  4 18  1  0  0  0  0
  5 10  1  0  0  0  0
  5 18  2  0  0  0  0
  6 20  1  0  0  0  0
  7 22  1  0  0  0  0
  8 11  2  0  0  0  0
  8 21  1  0  0  0  0
  9 24  1  0  0  0  0
 10 24  2  0  0  0  0
 11 25  1  0  0  0  0
 12 13  2  0  0  0  0
 12 26  1  0  0  0  0
 13 27  1  0  0  0  0
 14 30  1  0  0  0  0
 15 31  2  0  0  0  0
 16 23  1  0  0  0  0
 16 25  2  0  0  0  0
 17 27  2  0  0  0  0
 17 28  1  0  0  0  0
 18 29  1  0  0  0  0
 19 29  1  0  0  0  0
 19 32  2  0  0  0  0
 19 33  1  0  0  0  0
 20 22  2  0  0  0  0
 20 38  1  0  0  0  0
 21 23  2  0  0  0  0
 21 39  1  0  0  0  0
 22 47  1  0  0  0  0
 23 40  1  0  0  0  0
 24 78  1  0  0  0  0
 25 79  1  0  0  0  0
 26 28  2  0  0  0  0
 26 78  1  0  0  0  0
 27 80  1  0  0  0  0
 28 81  1  0  0  0  0
 29 61  2  0  0  0  0
 30 55  1  0  0  0  0
 30 62  2  0  0  0  0
 31 62  1  0  0  0  0
 31 68  1  0  0  0  0
 32 63  1  0  0  0  0
 32 66  1  0  0  0  0
 33 67  1  0  0  0  0
 33 72  2  0  0  0  0
 34 48  1  0  0  0  0
 34 69  1  0  0  0  0
 34 73  2  0  0  0  0
 35 57  1  0  0  0  0
 35 64  1  0  0  0  0
 35 74  2  0  0  0  0
 36 58  1  0  0  0  0
 36 70  1  0  0  0  0
 36 75  2  0  0  0  0
 37 65  1  0  0  0  0
 37 68  1  0  0  0  0
 37 76  2  0  0  0  0
 38 41  1  0  0  0  0
 39 48  1  0  0  0  0
 40 64  1  0  0  0  0
 41 43  1  0  0  0  0
 42 44  1  0  0  0  0
 42 45  1  0  0  0  0
 43 47  1  0  0  0  0
 44 49  1  0  0  0  0
 45 65  1  0  0  0  0
 46 49  1  0  0  0  0
 46 65  1  0  0  0  0
 47 69  1  0  0  0  0
 48 64  1  0  0  0  0
 49 63  1  0  0  0  0
 50 58  1  0  0  0  0
 51 60  1  0  0  0  0
 52 60  1  0  0  0  0
 53 60  1  0  0  0  0
 54 71  1  0  0  0  0
 55 59  1  0  0  0  0
 56 59  1  0  0  0  0
 56 79  1  0  0  0  0
 57 60  1  0  0  0  0
 57 70  1  0  0  0  0
 58 71  1  0  0  0  0
 59 77  1  0  0  0  0
 61 63  1  0  0  0  0
M  CHG  1  71   1
M  ISO  4  37 100  56 101  68 100  79 101
M  END
> <Batch ID>
0129

> <Smiles>
CNC(C)C(=O)NC(C(=O)N1Cc2cc([101O:1][101CH2:1]C(O)Cc3cccc([100NH:0][100C:0](=O)N4CCCC(n5nc(-c6ccc(Oc7ccc(F)cc7F)cc6)c(C(N)=O)c5N)C4)n3)ccc2CC1C(=O)NC1CCCc2ccccc21)C(C)(C)C

> <Shape>
0.171

> <Color>
0.188

> <Negative vol penalty>
0.000

$$$$

  -OEChem-04052320453D

 92101  0     1  0  0  0  0  0999 V2000
  -17.3577  -26.4111   22.9419 C   0  0  0  0  0  0  0  0  0  0  0  0
  -18.6180  -25.9668   22.5554 C   0  0  0  0  0  0  0  0  0  0  0  0
  -27.0411  -15.5264   18.2219 C   0  0  0  0  0  0  0  0  0  0  0  0
  -28.0951  -17.2294   16.8707 C   0  0  0  0  0  0  0  0  0  0  0  0
  -17.0321  -27.7623   22.8320 C   0  0  0  0  0  0  0  0  0  0  0  0
  -19.5533  -26.8734   22.0576 C   0  0  0  0  0  0  0  0  0  0  0  0
  -25.6238  -26.7081   22.8494 C   0  0  0  0  0  0  0  0  0  0  0  0
  -29.6374  -24.9870   18.1980 C   0  0  0  0  0  0  0  0  0  0  0  0
  -31.0940  -24.7760   20.1139 C   0  0  0  0  0  0  0  0  0  0  0  0
  -30.7130  -24.7205   17.3509 C   0  0  0  0  0  0  0  0  0  0  0  0
  -32.1696  -24.5095   19.2668 C   0  0  0  0  0  0  0  0  0  0  0  0
  -25.8616  -15.6781   17.4931 C   0  0  0  0  0  0  0  0  0  0  0  0
  -26.9155  -17.3811   16.1418 C   0  0  0  0  0  0  0  0  0  0  0  0
  -26.6630  -26.2490   22.0413 C   0  0  0  0  0  0  0  0  0  0  0  0
  -23.2612  -17.8347   17.3843 C   0  0  0  0  0  0  0  0  0  0  0  0
  -22.0641  -17.9026   18.0970 C   0  0  0  0  0  0  0  0  0  0  0  0
  -27.0131  -28.4926   21.2271 C   0  0  0  0  0  0  0  0  0  0  0  0
  -21.2619  -15.9413   16.9364 C   0  0  0  0  0  0  0  0  0  0  0  0
  -28.1579  -16.3021   17.9107 C   0  0  0  0  0  0  0  0  0  0  0  0
  -30.1499  -14.9776   18.7968 C   0  0  0  0  0  0  0  0  0  0  0  0
  -17.9672  -28.6875   22.3417 C   0  0  0  0  0  0  0  0  0  0  0  0
  -25.2637  -28.0633   22.8443 C   0  0  0  0  0  0  0  0  0  0  0  0
  -19.2395  -28.2381   21.9398 C   0  0  0  0  0  0  0  0  0  0  0  0
  -25.9706  -28.9668   22.0380 C   0  0  0  0  0  0  0  0  0  0  0  0
  -29.8279  -25.0148   19.5795 C   0  0  0  0  0  0  0  0  0  0  0  0
  -31.9791  -24.4817   17.8853 C   0  0  0  0  0  0  0  0  0  0  0  0
  -25.7988  -16.6054   16.4530 C   0  0  0  0  0  0  0  0  0  0  0  0
  -27.3559  -27.1407   21.2278 C   0  0  0  0  0  0  0  0  0  0  0  0
  -23.4586  -16.8201   16.4476 C   0  0  0  0  0  0  0  0  0  0  0  0
  -21.0644  -16.9560   17.8731 C   0  0  0  0  0  0  0  0  0  0  0  0
  -22.4590  -15.8734   16.2237 C   0  0  0  0  0  0  0  0  0  0  0  0
  -29.3765  -16.1463   18.6636 C   0  0  0  0  0  0  0  0  0  0  0  0
  -31.1962  -15.3485   19.6056 C   0  0  0  0  0  0  0  0  0  0  0  0
  -29.9414  -13.6733   18.2390 C   0  0  0  0  0  0  0  0  0  0  0  0
  -22.6371  -29.6834   22.0829 C   0  0  0  0  0  0  0  0  0  0  0  0
  -24.3219  -32.1997   23.2457 C   0  0  0  0  0  0  0  0  0  0  0  0
  -27.3671  -33.5715   23.9471 C   0  0  0  0  0  0  0  0  0  0  0  0
  -33.8093  -20.6164   20.7334 C   0  0  0  0  0  0  0  0  0  0  0  0
  -17.5533  -30.1305   22.1969 C   0  0  0  0  0  0  0  0  0  0  0  0
  -24.1580  -28.5473   23.7418 C   0  0  0  0  0  0  0  0  0  0  0  0
  -25.6364  -30.4352   22.0113 C   0  0  0  0  0  0  0  0  0  0  0  0
  -18.7294  -31.0858   22.0108 C   0  0  0  0  0  0  0  0  0  0  0  0
  -32.3215  -18.4140   23.1024 C   0  0  0  0  0  0  0  0  0  0  0  0
  -19.7021  -30.5388   20.9709 C   0  0  0  0  0  0  0  0  0  0  0  0
  -31.4678  -17.4776   22.2455 C   0  0  0  0  0  0  0  0  0  0  0  0
  -32.3201  -19.8392   22.5539 C   0  0  0  0  0  0  0  0  0  0  0  0
  -33.5511  -26.5502   16.6839 C   0  0  0  0  0  0  0  0  0  0  0  0
  -35.2989  -24.9336   16.2338 C   0  0  0  0  0  0  0  0  0  0  0  0
  -31.8493  -19.0205   20.2775 C   0  0  0  0  0  0  0  0  0  0  0  0
  -34.5768  -27.6705   16.8088 C   0  0  0  0  0  0  0  0  0  0  0  0
  -36.3692  -26.0126   16.3475 C   0  0  0  0  0  0  0  0  0  0  0  0
  -20.2897  -29.1948   21.4183 C   0  0  1  0  0  0  0  0  0  0  0  0
  -23.5384  -29.8598   23.2721 C   0  0  1  0  0  0  0  0  0  0  0  0
  -31.8649  -17.5597   20.7592 C   0  0  2  0  0  0  0  0  0  0  0  0
  -28.4257  -35.6568   24.8571 C   0  0  0  0  0  0  0  0  0  0  0  0
  -32.9974  -20.5933   15.0865 C   0  0  0  0  0  0  0  0  0  0  0  0
  -34.1670  -22.1849   13.5139 C   0  0  0  0  0  0  0  0  0  0  0  0
  -23.7665  -33.6297   20.6082 C   0  0  0  0  0  0  0  0  0  0  0  0
  -25.5903  -35.2465   21.1810 C   0  0  0  0  0  0  0  0  0  0  0  0
  -23.5738  -35.0757   22.6396 C   0  0  0  0  0  0  0  0  0  0  0  0
  -28.6129  -32.0987   26.1916 C   0  0  0  0  0  0  0  0  0  0  0  0
  -28.6713  -25.3013   20.4915 C   0  0  0  0  0  0  0  0  0  1  0  0
  -34.8423  -22.6999   18.3380 C   0  0  0  0  0  0  0  0  0  0  0  0
  -35.2212  -21.2948   18.8083 C   0  0  0  0  0  0  0  0  0  0  0  0
  -33.1284  -24.1952   16.9789 C   0  0  2  0  0  0  0  0  0  0  0  0
  -25.2787  -33.2088   22.6581 C   0  0  1  0  0  0  0  0  0  0  0  0
  -27.8957  -34.2701   25.1869 C   0  0  2  0  0  0  0  0  0  0  0  0
  -33.4762  -22.0179   14.8577 C   0  0  0  0  0  0  0  0  0  0  0  0
  -33.7935  -22.7979   17.2093 C   0  0  1  0  0  0  0  0  0  0  0  0
  -24.5576  -34.2622   21.7706 C   0  0  0  0  0  0  0  0  0  0  0  0
  -29.8876  -17.1821   19.3344 N   0  0  0  0  0  0  0  0  0  0  0  0
  -30.9935  -16.6655   19.8968 N   0  0  0  0  0  0  0  0  0  0  0  0
  -24.5432  -30.8586   22.9019 N   0  0  0  0  0  0  0  0  0  0  0  0
  -32.7068  -19.8474   21.1410 N   0  0  0  0  0  0  0  0  0  0  0  0
  -34.1319  -25.2552   17.0687 N   0  0  0  0  0  0  0  0  0  0  0  0
  -32.2605  -14.6734   20.0892 N   0  0  0  0  0  0  0  0  0  0  0  0
  -30.4989  -13.3856   16.9857 N   0  0  0  0  0  0  0  0  0  0  0  0
  -21.3244  -29.4003   22.4090 N   0  0  0  0  0  0  0  0  0  0  0  0
  -26.0136  -33.7775   23.7828 N   0  0  0  0  0  0  0  0  0  0  0  0
  -34.1119  -20.5630   19.3782 N   0  0  0  0  0  0  0  0  0  0  0  0
  -35.7715  -27.3300   15.9822 N   0  3  0  0  0  0  0  0  0  0  0  0
  -29.0005  -33.4774   25.7967 N   0  3  0  0  0  0  0  0  0  0  0  0
  -34.4401  -22.3674   15.9285 N   0  3  0  0  0  0  0  0  0  0  0  0
  -29.2664  -12.7945   18.8271 O   0  0  0  0  0  0  0  0  0  0  0  0
  -23.0981  -29.7973   20.9532 O   0  0  0  0  0  0  0  0  0  0  0  0
  -23.4160  -32.5863   23.9884 O   0  0  0  0  0  0  0  0  0  0  0  0
  -28.0838  -32.9123   23.1973 O   0  0  0  0  0  0  0  0  0  0  0  0
  -34.4781  -21.2957   21.5197 O   0  0  0  0  0  0  0  0  0  0  0  0
  -24.6480  -16.7535   15.7414 O   0  0  0  0  0  0  0  0  0  0  0  0
  -28.3702  -26.6952   20.4375 O   0  0  0  0  0  0  0  0  0  1  0  0
  -19.9155  -17.0204   18.5586 F   0  0  0  0  0  0  0  0  0  0  0  0
  -22.6433  -14.8957   15.3259 F   0  0  0  0  0  0  0  0  0  0  0  0
  1  2  1  0  0  0  0
  1  5  2  0  0  0  0
  2  6  2  0  0  0  0
  3 12  2  0  0  0  0
  3 19  1  0  0  0  0
  4 13  1  0  0  0  0
  4 19  2  0  0  0  0
  5 21  1  0  0  0  0
  6 23  1  0  0  0  0
  7 14  2  0  0  0  0
  7 22  1  0  0  0  0
  8 10  2  0  0  0  0
  8 25  1  0  0  0  0
  9 11  1  0  0  0  0
  9 25  2  0  0  0  0
 10 26  1  0  0  0  0
 11 26  2  0  0  0  0
 12 27  1  0  0  0  0
 13 27  2  0  0  0  0
 14 28  1  0  0  0  0
 15 16  2  0  0  0  0
 15 29  1  0  0  0  0
 16 30  1  0  0  0  0
 17 24  1  0  0  0  0
 17 28  2  0  0  0  0
 18 30  2  0  0  0  0
 18 31  1  0  0  0  0
 19 32  1  0  0  0  0
 20 32  1  0  0  0  0
 20 33  2  0  0  0  0
 20 34  1  0  0  0  0
 21 23  2  0  0  0  0
 21 39  1  0  0  0  0
 22 24  2  0  0  0  0
 22 40  1  0  0  0  0
 23 52  1  0  0  0  0
 24 41  1  0  0  0  0
 25 62  1  0  0  0  0
 26 65  1  0  0  0  0
 27 89  1  0  0  0  0
 28 90  1  0  0  0  0
 29 31  2  0  0  0  0
 29 89  1  0  0  0  0
 30 91  1  0  0  0  0
 31 92  1  0  0  0  0
 32 71  2  0  0  0  0
 33 72  1  0  0  0  0
 33 76  1  0  0  0  0
 34 77  1  0  0  0  0
 34 84  2  0  0  0  0
 35 53  1  0  0  0  0
 35 78  1  0  0  0  0
 35 85  2  0  0  0  0
 36 66  1  0  0  0  0
 36 73  1  0  0  0  0
 36 86  2  0  0  0  0
 37 67  1  0  0  0  0
 37 79  1  0  0  0  0
 37 87  2  0  0  0  0
 38 74  1  0  0  0  0
 38 80  1  0  0  0  0
 38 88  2  0  0  0  0
 39 42  1  0  0  0  0
 40 53  1  0  0  0  0
 41 73  1  0  0  0  0
 42 44  1  0  0  0  0
 43 45  1  0  0  0  0
 43 46  1  0  0  0  0
 44 52  1  0  0  0  0
 45 54  1  0  0  0  0
 46 74  1  0  0  0  0
 47 50  1  0  0  0  0
 47 75  1  0  0  0  0
 48 51  1  0  0  0  0
 48 75  1  0  0  0  0
 49 54  1  0  0  0  0
 49 74  1  0  0  0  0
 50 81  1  0  0  0  0
 51 81  1  0  0  0  0
 52 78  1  0  0  0  0
 53 73  1  0  0  0  0
 54 72  1  0  0  0  0
 55 67  1  0  0  0  0
 56 68  1  0  0  0  0
 57 68  1  0  0  0  0
 58 70  1  0  0  0  0
 59 70  1  0  0  0  0
 60 70  1  0  0  0  0
 61 82  1  0  0  0  0
 62 90  1  0  0  0  0
 63 64  1  0  0  0  0
 63 69  1  0  0  0  0
 64 80  1  0  0  0  0
 65 69  1  0  0  0  0
 65 75  1  0  0  0  0
 66 70  1  0  0  0  0
 66 79  1  0  0  0  0
 67 82  1  0  0  0  0
 68 83  1  0  0  0  0
 69 83  1  0  0  0  0
 71 72  1  0  0  0  0
M  CHG  3  81   1  82   1  83   1
M  ISO  4  38 100  62 101  80 100  90 101
M  END
> <Batch ID>
0129

> <Smiles>
CNC(C)C(=O)NC(C(=O)N1Cc2cc([101O:1][101CH2:1]c3ccc(C(C(CC[100NH:0][100C:0](=O)N4CCCC(n5nc(-c6ccc(Oc7ccc(F)cc7F)cc6)c(C(N)=O)c5N)C4)NC(C)C)N4CCNCC4)cc3)ccc2CC1C(=O)NC1CCCc2ccccc21)C(C)(C)C

> <Shape>
0.201

> <Color>
0.086

> <Negative vol penalty>
0.000

$$$$

  -OEChem-04052320453D

 80 88  0     1  0  0  0  0  0999 V2000
  -29.3943  -34.3631   25.1012 C   0  0  0  0  0  0  0  0  0  0  0  0
  -29.8932  -33.6637   24.0070 C   0  0  0  0  0  0  0  0  0  0  0  0
  -23.9245   -9.6533   22.3637 C   0  0  0  0  0  0  0  0  0  0  0  0
  -23.6478  -11.8278   23.3794 C   0  0  0  0  0  0  0  0  0  0  0  0
  -28.4622  -33.7615   25.9456 C   0  0  0  0  0  0  0  0  0  0  0  0
  -29.4610  -32.3616   23.7572 C   0  0  0  0  0  0  0  0  0  0  0  0
  -28.1449  -27.8580   18.3442 C   0  0  0  0  0  0  0  0  0  0  0  0
  -23.3392   -9.0570   23.4806 C   0  0  0  0  0  0  0  0  0  0  0  0
  -23.0624  -11.2316   24.4963 C   0  0  0  0  0  0  0  0  0  0  0  0
  -28.4651  -26.5721   17.9108 C   0  0  0  0  0  0  0  0  0  0  0  0
  -20.2236   -8.5856   24.7069 C   0  0  0  0  0  0  0  0  0  0  0  0
  -19.2637   -7.5979   24.4861 C   0  0  0  0  0  0  0  0  0  0  0  0
  -26.7921  -25.6629   19.3920 C   0  0  0  0  0  0  0  0  0  0  0  0
  -20.6263   -6.0051   25.6874 C   0  0  0  0  0  0  0  0  0  0  0  0
  -24.0789  -11.0387   22.3131 C   0  0  0  0  0  0  0  0  0  0  0  0
  -24.0308  -12.1139   20.0002 C   0  0  0  0  0  0  0  0  0  0  0  0
  -28.0110  -32.4550   25.7005 C   0  0  0  0  0  0  0  0  0  0  0  0
  -27.1518  -28.0555   19.3143 C   0  0  0  0  0  0  0  0  0  0  0  0
  -28.5229  -31.7415   24.5999 C   0  0  0  0  0  0  0  0  0  0  0  0
  -26.4595  -26.9525   19.8341 C   0  0  0  0  0  0  0  0  0  0  0  0
  -22.9081   -9.8462   24.5469 C   0  0  0  0  0  0  0  0  0  0  0  0
  -27.7907  -25.4741   18.4368 C   0  0  0  0  0  0  0  0  0  0  0  0
  -21.3849   -8.2830   25.4178 C   0  0  0  0  0  0  0  0  0  0  0  0
  -19.4650   -6.3077   24.9764 C   0  0  0  0  0  0  0  0  0  0  0  0
  -21.5863   -6.9927   25.9081 C   0  0  0  0  0  0  0  0  0  0  0  0
  -24.6840  -11.6551   21.1599 C   0  0  0  0  0  0  0  0  0  0  0  0
  -25.0396  -12.6113   19.2120 C   0  0  0  0  0  0  0  0  0  0  0  0
  -22.6368  -12.0923   19.6655 C   0  0  0  0  0  0  0  0  0  0  0  0
  -27.0940  -29.2746   22.2493 C   0  0  0  0  0  0  0  0  0  0  0  0
  -23.8930  -28.8484   21.9428 C   0  0  0  0  0  0  0  0  0  0  0  0
  -21.3228  -27.1872   20.4323 C   0  0  0  0  0  0  0  0  0  0  0  0
  -30.4815  -14.7842   20.4432 C   0  0  0  0  0  0  0  0  0  0  0  0
  -27.0380  -31.8294   26.6683 C   0  0  0  0  0  0  0  0  0  0  0  0
  -26.7997  -29.4509   19.7516 C   0  0  0  0  0  0  0  0  0  0  0  0
  -25.3711  -27.1123   20.8628 C   0  0  0  0  0  0  0  0  0  0  0  0
  -26.3502  -30.5819   26.1196 C   0  0  0  0  0  0  0  0  0  0  0  0
  -29.7027  -12.0494   18.3006 C   0  0  0  0  0  0  0  0  0  0  0  0
  -27.3699  -29.6530   25.4684 C   0  0  0  0  0  0  0  0  0  0  0  0
  -28.2693  -11.6796   18.6858 C   0  0  0  0  0  0  0  0  0  0  0  0
  -28.8406  -20.8644   19.5929 C   0  0  0  0  0  0  0  0  0  0  0  0
  -30.5182  -12.4878   19.5151 C   0  0  0  0  0  0  0  0  0  0  0  0
  -28.4762  -13.1997   20.6971 C   0  0  0  0  0  0  0  0  0  0  0  0
  -31.1148  -21.5487   19.6066 C   0  0  0  0  0  0  0  0  0  0  0  0
  -28.0599  -30.3364   24.2817 C   0  0  1  0  0  0  0  0  0  0  0  0
  -26.1275  -29.4964   21.1204 C   0  0  1  0  0  0  0  0  0  0  0  0
  -27.5987  -12.8045   19.4970 C   0  0  2  0  0  0  0  0  0  0  0  0
  -30.2542  -20.2987   19.5312 C   0  0  1  0  0  0  0  0  0  0  0  0
  -28.9211  -22.0588   18.6498 C   0  0  1  0  0  0  0  0  0  0  0  0
  -18.8184  -27.0300   20.4158 C   0  0  0  0  0  0  0  0  0  0  0  0
  -23.9761  -27.2877   24.5633 C   0  0  0  0  0  0  0  0  0  0  0  0
  -21.7119  -26.3737   24.0101 C   0  0  0  0  0  0  0  0  0  0  0  0
  -22.0204  -28.8286   24.3284 C   0  0  0  0  0  0  0  0  0  0  0  0
  -21.1755  -27.9874   17.5868 C   0  0  0  0  0  0  0  0  0  0  0  0
  -27.9238  -23.1564   18.9530 C   0  0  0  0  0  0  0  0  0  1  0  0
  -30.2888  -17.0597   21.4150 C   0  0  0  0  0  0  0  0  0  0  0  0
  -29.9651  -18.0433   20.2995 C   0  0  0  0  0  0  0  0  0  0  0  0
  -22.9303  -27.7251   22.2436 C   0  0  1  0  0  0  0  0  0  0  0  0
  -20.0402  -27.6854   19.7910 C   0  0  2  0  0  0  0  0  0  0  0  0
  -22.6815  -27.5503   23.7684 C   0  0  0  0  0  0  0  0  0  0  0  0
  -26.0055  -11.8442   21.1163 N   0  0  0  0  0  0  0  0  0  0  0  0
  -26.1909  -12.4272   19.9197 N   0  0  0  0  0  0  0  0  0  0  0  0
  -25.0676  -28.4962   21.2631 N   0  0  0  0  0  0  0  0  0  0  0  0
  -29.8280  -13.5577   20.2396 N   0  0  0  0  0  0  0  0  0  0  0  0
  -25.0453  -13.1839   17.9895 N   0  0  0  0  0  0  0  0  0  0  0  0
  -21.7362  -11.5453   20.5896 N   0  0  0  0  0  0  0  0  0  0  0  0
  -27.1904  -30.3393   23.1248 N   0  0  0  0  0  0  0  0  0  0  0  0
  -21.7252  -28.0019   21.4694 N   0  0  0  0  0  0  0  0  0  0  0  0
  -29.7541  -15.7461   21.1335 N   0  0  0  0  0  0  0  0  0  0  0  0
  -30.5288  -19.3536   20.6005 N   0  0  0  0  0  0  0  0  0  0  0  0
  -30.3290  -22.5715   18.8315 N   0  3  0  0  0  0  0  0  0  0  0  0
  -20.0401  -27.3846   18.3314 N   0  3  0  0  0  0  0  0  0  0  0  0
  -22.2047  -12.5299   18.5722 O   0  0  0  0  0  0  0  0  0  0  0  0
  -27.7058  -28.2153   22.3216 O   0  0  0  0  0  0  0  0  0  0  0  0
  -23.6097  -29.9973   22.2915 O   0  0  0  0  0  0  0  0  0  0  0  0
  -21.9072  -26.1745   20.0536 O   0  0  0  0  0  0  0  0  0  0  0  0
  -31.6262  -15.0076   20.0351 O   0  0  0  0  0  0  0  0  0  0  0  0
  -22.3366   -9.2648   25.6368 O   0  0  0  0  0  0  0  0  0  0  0  0
  -28.1017  -24.2179   18.0160 O   0  0  0  0  0  0  0  0  0  1  0  0
  -18.5424   -5.3598   24.7657 F   0  0  0  0  0  0  0  0  0  0  0  0
  -22.6994   -6.6963   26.5928 F   0  0  0  0  0  0  0  0  0  0  0  0
  1  2  1  0  0  0  0
  1  5  2  0  0  0  0
  2  6  2  0  0  0  0
  3  8  2  0  0  0  0
  3 15  1  0  0  0  0
  4  9  1  0  0  0  0
  4 15  2  0  0  0  0
  5 17  1  0  0  0  0
  6 19  1  0  0  0  0
  7 10  2  0  0  0  0
  7 18  1  0  0  0  0
  8 21  1  0  0  0  0
  9 21  2  0  0  0  0
 10 22  1  0  0  0  0
 11 12  2  0  0  0  0
 11 23  1  0  0  0  0
 12 24  1  0  0  0  0
 13 20  1  0  0  0  0
 13 22  2  0  0  0  0
 14 24  2  0  0  0  0
 14 25  1  0  0  0  0
 15 26  1  0  0  0  0
 16 26  1  0  0  0  0
 16 27  2  0  0  0  0
 16 28  1  0  0  0  0
 17 19  2  0  0  0  0
 17 33  1  0  0  0  0
 18 20  2  0  0  0  0
 18 34  1  0  0  0  0
 19 44  1  0  0  0  0
 20 35  1  0  0  0  0
 21 77  1  0  0  0  0
 22 78  1  0  0  0  0
 23 25  2  0  0  0  0
 23 77  1  0  0  0  0
 24 79  1  0  0  0  0
 25 80  1  0  0  0  0
 26 60  2  0  0  0  0
 27 61  1  0  0  0  0
 27 64  1  0  0  0  0
 28 65  1  0  0  0  0
 28 72  2  0  0  0  0
 29 45  1  0  0  0  0
 29 66  1  0  0  0  0
 29 73  2  0  0  0  0
 30 57  1  0  0  0  0
 30 62  1  0  0  0  0
 30 74  2  0  0  0  0
 31 58  1  0  0  0  0
 31 67  1  0  0  0  0
 31 75  2  0  0  0  0
 32 63  1  0  0  0  0
 32 68  1  0  0  0  0
 32 76  2  0  0  0  0
 33 36  1  0  0  0  0
 34 45  1  0  0  0  0
 35 62  1  0  0  0  0
 36 38  1  0  0  0  0
 37 39  1  0  0  0  0
 37 41  1  0  0  0  0
 38 44  1  0  0  0  0
 39 46  1  0  0  0  0
 40 47  1  0  0  0  0
 40 48  1  0  0  0  0
 41 63  1  0  0  0  0
 42 46  1  0  0  0  0
 42 63  1  0  0  0  0
 43 47  1  0  0  0  0
 43 70  1  0  0  0  0
 44 66  1  0  0  0  0
 45 62  1  0  0  0  0
 46 61  1  0  0  0  0
 47 69  1  0  0  0  0
 48 54  1  0  0  0  0
 48 70  1  0  0  0  0
 49 58  1  0  0  0  0
 50 59  1  0  0  0  0
 51 59  1  0  0  0  0
 52 59  1  0  0  0  0
 53 71  1  0  0  0  0
 54 78  1  0  0  0  0
 55 56  1  0  0  0  0
 55 68  1  0  0  0  0
 56 69  1  0  0  0  0
 57 59  1  0  0  0  0
 57 67  1  0  0  0  0
 58 71  1  0  0  0  0
 60 61  1  0  0  0  0
M  CHG  2  70   1  71   1
M  ISO  4  32 100  54 101  68 100  78 101
M  END
> <Batch ID>
0129

> <Smiles>
CNC(C)C(=O)NC(C(=O)N1Cc2cc([101O:1][101CH2:1]C3CC(NCC[100NH:0][100C:0](=O)N4CCCC(n5nc(-c6ccc(Oc7ccc(F)cc7F)cc6)c(C(N)=O)c5N)C4)CN3)ccc2CC1C(=O)NC1CCCc2ccccc21)C(C)(C)C

> <Shape>
0.280

> <Color>
0.082

> <Negative vol penalty>
0.000

$$$$

  -OEChem-04052320453D

 89 98  0     1  0  0  0  0  0999 V2000
  -15.7368  -28.4893   22.2991 C   0  0  0  0  0  0  0  0  0  0  0  0
  -16.6897  -27.4928   22.4848 C   0  0  0  0  0  0  0  0  0  0  0  0
  -23.3333  -10.2652   22.2449 C   0  0  0  0  0  0  0  0  0  0  0  0
  -23.4067   -9.8021   19.8749 C   0  0  0  0  0  0  0  0  0  0  0  0
  -16.1099  -29.7155   21.7503 C   0  0  0  0  0  0  0  0  0  0  0  0
  -18.0162  -27.7217   22.1208 C   0  0  0  0  0  0  0  0  0  0  0  0
  -23.0244  -25.5890   24.9272 C   0  0  0  0  0  0  0  0  0  0  0  0
  -26.1336  -20.2483   23.0136 C   0  0  0  0  0  0  0  0  0  0  0  0
  -27.0978  -19.2995   22.6735 C   0  0  0  0  0  0  0  0  0  0  0  0
  -22.5255   -9.1448   22.4389 C   0  0  0  0  0  0  0  0  0  0  0  0
  -22.5989   -8.6816   20.0688 C   0  0  0  0  0  0  0  0  0  0  0  0
  -23.8600  -24.5056   24.6595 C   0  0  0  0  0  0  0  0  0  0  0  0
  -19.2709   -8.3226   22.0435 C   0  0  0  0  0  0  0  0  0  0  0  0
  -18.1572   -8.4630   22.8715 C   0  0  0  0  0  0  0  0  0  0  0  0
  -25.3683  -25.9692   23.4754 C   0  0  0  0  0  0  0  0  0  0  0  0
  -27.7943  -21.4922   24.2514 C   0  0  0  0  0  0  0  0  0  0  0  0
  -19.0311   -6.7526   24.3371 C   0  0  0  0  0  0  0  0  0  0  0  0
  -23.7739  -10.5939   20.9629 C   0  0  0  0  0  0  0  0  0  0  0  0
  -24.2911  -13.0900   21.0619 C   0  0  0  0  0  0  0  0  0  0  0  0
  -17.4435  -29.9629   21.3884 C   0  0  0  0  0  0  0  0  0  0  0  0
  -23.3495  -26.8709   24.4608 C   0  0  0  0  0  0  0  0  0  0  0  0
  -18.4073  -28.9519   21.5654 C   0  0  0  0  0  0  0  0  0  0  0  0
  -24.5364  -27.0677   23.7407 C   0  0  0  0  0  0  0  0  0  0  0  0
  -26.4819  -21.3447   23.8026 C   0  0  0  0  0  0  0  0  0  0  0  0
  -28.7585  -20.5433   23.9113 C   0  0  0  0  0  0  0  0  0  0  0  0
  -28.4102  -19.4470   23.1223 C   0  0  0  0  0  0  0  0  0  0  0  0
  -22.1583   -8.3530   21.3508 C   0  0  0  0  0  0  0  0  0  0  0  0
  -25.0307  -24.6950   23.9310 C   0  0  0  0  0  0  0  0  0  0  0  0
  -20.2647   -7.3971   22.3623 C   0  0  0  0  0  0  0  0  0  0  0  0
  -18.0373   -7.6780   24.0182 C   0  0  0  0  0  0  0  0  0  0  0  0
  -20.1448   -6.6121   23.5091 C   0  0  0  0  0  0  0  0  0  0  0  0
  -24.6079  -11.7515   20.7619 C   0  0  0  0  0  0  0  0  0  0  0  0
  -25.4064  -13.7990   20.6877 C   0  0  0  0  0  0  0  0  0  0  0  0
  -23.0956  -13.6429   21.6283 C   0  0  0  0  0  0  0  0  0  0  0  0
  -21.9878  -28.9486   22.4777 C   0  0  0  0  0  0  0  0  0  0  0  0
  -24.3980  -30.8802   23.4690 C   0  0  0  0  0  0  0  0  0  0  0  0
  -27.5335  -31.1566   24.7875 C   0  0  0  0  0  0  0  0  0  0  0  0
  -30.9495  -14.4291   20.5388 C   0  0  0  0  0  0  0  0  0  0  0  0
  -17.7900  -31.2871   20.7551 C   0  0  0  0  0  0  0  0  0  0  0  0
  -22.4510  -28.0339   24.7810 C   0  0  0  0  0  0  0  0  0  0  0  0
  -24.9410  -28.4275   23.2351 C   0  0  0  0  0  0  0  0  0  0  0  0
  -19.2876  -31.5831   20.7429 C   0  0  0  0  0  0  0  0  0  0  0  0
  -29.4699  -12.3818   18.0296 C   0  0  0  0  0  0  0  0  0  0  0  0
  -20.0689  -30.3634   20.2646 C   0  0  0  0  0  0  0  0  0  0  0  0
  -28.0498  -12.1409   18.5445 C   0  0  0  0  0  0  0  0  0  0  0  0
  -31.0077  -17.6734   21.1143 C   0  0  0  0  0  0  0  0  0  0  0  0
  -30.9749  -16.7398   23.4377 C   0  0  0  0  0  0  0  0  0  0  0  0
  -30.4852  -12.4175   19.1697 C   0  0  0  0  0  0  0  0  0  0  0  0
  -29.6227  -18.2805   21.3389 C   0  0  0  0  0  0  0  0  0  0  0  0
  -29.5841  -17.3357   23.6565 C   0  0  0  0  0  0  0  0  0  0  0  0
  -28.7476  -13.1267   20.7671 C   0  0  0  0  0  0  0  0  0  0  0  0
  -19.8609  -29.1710   21.2060 C   0  0  1  0  0  0  0  0  0  0  0  0
  -22.6210  -29.2035   23.8163 C   0  0  1  0  0  0  0  0  0  0  0  0
  -27.6807  -13.1383   19.6590 C   0  0  2  0  0  0  0  0  0  0  0  0
  -31.2627  -16.4326   21.9695 C   0  0  0  0  0  0  0  0  0  0  0  0
  -31.5537  -23.4193   21.9314 C   0  0  0  0  0  0  0  0  0  0  0  0
  -30.2194  -20.6680   25.9457 C   0  0  0  0  0  0  0  0  0  0  0  0
  -29.2499  -32.8646   25.4465 C   0  0  0  0  0  0  0  0  0  0  0  0
  -25.0921  -31.3132   20.5295 C   0  0  0  0  0  0  0  0  0  0  0  0
  -27.3134  -32.2095   21.2581 C   0  0  0  0  0  0  0  0  0  0  0  0
  -25.2155  -33.3715   21.9447 C   0  0  0  0  0  0  0  0  0  0  0  0
  -27.4900  -30.2797   27.6138 C   0  0  0  0  0  0  0  0  0  0  0  0
  -25.4444  -22.3651   24.1682 C   0  0  0  0  0  0  0  0  0  1  0  0
  -30.9150  -22.1152   22.3843 C   0  0  0  0  0  0  0  0  0  0  0  0
  -30.8362  -22.0331   23.9124 C   0  0  0  0  0  0  0  0  0  0  0  0
  -30.1566  -20.7260   24.4056 C   0  0  2  0  0  0  0  0  0  0  0  0
  -25.8082  -31.1541   23.0050 C   0  0  1  0  0  0  0  0  0  0  0  0
  -28.0801  -32.0133   25.9152 C   0  0  2  0  0  0  0  0  0  0  0  0
  -25.8490  -31.9860   21.6920 C   0  0  0  0  0  0  0  0  0  0  0  0
  -25.8287  -11.6157   20.2373 N   0  0  0  0  0  0  0  0  0  0  0  0
  -26.2888  -12.8780   20.2047 N   0  0  0  0  0  0  0  0  0  0  0  0
  -29.3654  -18.4842   22.7708 N   0  0  0  0  0  0  0  0  0  0  0  0
  -24.0263  -29.5319   23.5683 N   0  0  0  0  0  0  0  0  0  0  0  0
  -30.0773  -13.3840   20.1922 N   0  0  0  0  0  0  0  0  0  0  0  0
  -25.7084  -15.1141   20.7278 N   0  0  0  0  0  0  0  0  0  0  0  0
  -22.0466  -12.7728   21.9548 N   0  0  0  0  0  0  0  0  0  0  0  0
  -20.6606  -29.3258   22.4022 N   0  0  0  0  0  0  0  0  0  0  0  0
  -26.4939  -31.7799   24.1304 N   0  0  0  0  0  0  0  0  0  0  0  0
  -30.4827  -15.3043   21.5119 N   0  0  0  0  0  0  0  0  0  0  0  0
  -28.5455  -31.1535   27.0400 N   0  3  0  0  0  0  0  0  0  0  0  0
  -22.9554  -14.8741   21.8234 O   0  0  0  0  0  0  0  0  0  0  0  0
  -22.6545  -28.4481   21.5795 O   0  0  0  0  0  0  0  0  0  0  0  0
  -23.6559  -31.8275   23.7403 O   0  0  0  0  0  0  0  0  0  0  0  0
  -27.9862  -30.0471   24.5143 O   0  0  0  0  0  0  0  0  0  0  0  0
  -32.0595  -14.5747   20.0158 O   0  0  0  0  0  0  0  0  0  0  0  0
  -21.3702   -7.2594   21.5397 O   0  0  0  0  0  0  0  0  0  0  0  0
  -25.8478  -23.6391   23.6678 O   0  0  0  0  0  0  0  0  0  1  0  0
  -16.9685   -7.8140   24.8140 F   0  0  0  0  0  0  0  0  0  0  0  0
  -21.0969   -5.7222   23.8211 F   0  0  0  0  0  0  0  0  0  0  0  0
  1  2  1  0  0  0  0
  1  5  2  0  0  0  0
  2  6  2  0  0  0  0
  3 10  2  0  0  0  0
  3 18  1  0  0  0  0
  4 11  1  0  0  0  0
  4 18  2  0  0  0  0
  5 20  1  0  0  0  0
  6 22  1  0  0  0  0
  7 12  2  0  0  0  0
  7 21  1  0  0  0  0
  8  9  2  0  0  0  0
  8 24  1  0  0  0  0
  9 26  1  0  0  0  0
 10 27  1  0  0  0  0
 11 27  2  0  0  0  0
 12 28  1  0  0  0  0
 13 14  2  0  0  0  0
 13 29  1  0  0  0  0
 14 30  1  0  0  0  0
 15 23  1  0  0  0  0
 15 28  2  0  0  0  0
 16 24  2  0  0  0  0
 16 25  1  0  0  0  0
 17 30  2  0  0  0  0
 17 31  1  0  0  0  0
 18 32  1  0  0  0  0
 19 32  1  0  0  0  0
 19 33  2  0  0  0  0
 19 34  1  0  0  0  0
 20 22  2  0  0  0  0
 20 39  1  0  0  0  0
 21 23  2  0  0  0  0
 21 40  1  0  0  0  0
 22 52  1  0  0  0  0
 23 41  1  0  0  0  0
 24 63  1  0  0  0  0
 25 26  2  0  0  0  0
 25 66  1  0  0  0  0
 26 72  1  0  0  0  0
 27 86  1  0  0  0  0
 28 87  1  0  0  0  0
 29 31  2  0  0  0  0
 29 86  1  0  0  0  0
 30 88  1  0  0  0  0
 31 89  1  0  0  0  0
 32 70  2  0  0  0  0
 33 71  1  0  0  0  0
 33 75  1  0  0  0  0
 34 76  1  0  0  0  0
 34 81  2  0  0  0  0
 35 53  1  0  0  0  0
 35 77  1  0  0  0  0
 35 82  2  0  0  0  0
 36 67  1  0  0  0  0
 36 73  1  0  0  0  0
 36 83  2  0  0  0  0
 37 68  1  0  0  0  0
 37 78  1  0  0  0  0
 37 84  2  0  0  0  0
 38 74  1  0  0  0  0
 38 79  1  0  0  0  0
 38 85  2  0  0  0  0
 39 42  1  0  0  0  0
 40 53  1  0  0  0  0
 41 73  1  0  0  0  0
 42 44  1  0  0  0  0
 43 45  1  0  0  0  0
 43 48  1  0  0  0  0
 44 52  1  0  0  0  0
 45 54  1  0  0  0  0
 46 49  1  0  0  0  0
 46 55  1  0  0  0  0
 47 50  1  0  0  0  0
 47 55  1  0  0  0  0
 48 74  1  0  0  0  0
 49 72  1  0  0  0  0
 50 72  1  0  0  0  0
 51 54  1  0  0  0  0
 51 74  1  0  0  0  0
 52 77  1  0  0  0  0
 53 73  1  0  0  0  0
 54 71  1  0  0  0  0
 55 79  1  0  0  0  0
 56 64  1  0  0  0  0
 57 66  1  0  0  0  0
 58 68  1  0  0  0  0
 59 69  1  0  0  0  0
 60 69  1  0  0  0  0
 61 69  1  0  0  0  0
 62 80  1  0  0  0  0
 63 87  1  0  0  0  0
 64 65  1  0  0  0  0
 65 66  1  0  0  0  0
 67 69  1  0  0  0  0
 67 78  1  0  0  0  0
 68 80  1  0  0  0  0
 70 71  1  0  0  0  0
M  CHG  1  80   1
M  ISO  4  38 100  63 101  79 100  87 101
M  END
> <Batch ID>
0129

> <Smiles>
CCCC(C)c1cc([101CH2:1][101O:1]c2ccc3c(c2)CN(C(=O)C(NC(=O)C(C)NC)C(C)(C)C)C(C(=O)NC2CCCc4ccccc42)C3)ccc1N1CCC([100NH:0][100C:0](=O)N2CCCC(n3nc(-c4ccc(Oc5ccc(F)cc5F)cc4)c(C(N)=O)c3N)C2)CC1

> <Shape>
0.294

> <Color>
0.207

> <Negative vol penalty>
0.000

$$$$

  -OEChem-04052320453D

 82 90  0     1  0  0  0  0  0999 V2000
  -31.4233  -22.5411   15.1143 C   0  0  0  0  0  0  0  0  0  0  0  0
  -30.9925  -22.3763   16.4269 C   0  0  0  0  0  0  0  0  0  0  0  0
  -32.3439  -17.7971   23.6612 C   0  0  0  0  0  0  0  0  0  0  0  0
  -23.1170   -9.8756   19.8942 C   0  0  0  0  0  0  0  0  0  0  0  0
  -23.8960   -9.8193   22.1805 C   0  0  0  0  0  0  0  0  0  0  0  0
  -31.5871  -23.8231   14.5914 C   0  0  0  0  0  0  0  0  0  0  0  0
  -30.7263  -23.4936   17.2176 C   0  0  0  0  0  0  0  0  0  0  0  0
  -26.4079  -23.0446   19.8242 C   0  0  0  0  0  0  0  0  0  0  0  0
  -31.5276  -18.5964   24.4614 C   0  0  0  0  0  0  0  0  0  0  0  0
  -31.7733  -16.9315   22.7280 C   0  0  0  0  0  0  0  0  0  0  0  0
  -22.4353   -8.6757   20.0969 C   0  0  0  0  0  0  0  0  0  0  0  0
  -23.2142   -8.6194   22.3832 C   0  0  0  0  0  0  0  0  0  0  0  0
  -26.4350  -22.2497   20.9692 C   0  0  0  0  0  0  0  0  0  0  0  0
  -23.6695   -5.3449   21.6749 C   0  0  0  0  0  0  0  0  0  0  0  0
  -24.3430   -4.3216   22.3418 C   0  0  0  0  0  0  0  0  0  0  0  0
  -26.6201  -24.2309   22.3329 C   0  0  0  0  0  0  0  0  0  0  0  0
  -22.6502   -4.3311   24.0656 C   0  0  0  0  0  0  0  0  0  0  0  0
  -23.8474  -10.4474   20.9360 C   0  0  0  0  0  0  0  0  0  0  0  0
  -24.0587  -12.9896   20.9276 C   0  0  0  0  0  0  0  0  0  0  0  0
  -31.3136  -24.9566   15.3730 C   0  0  0  0  0  0  0  0  0  0  0  0
  -26.4978  -24.4404   19.9244 C   0  0  0  0  0  0  0  0  0  0  0  0
  -30.8879  -24.7920   16.7050 C   0  0  0  0  0  0  0  0  0  0  0  0
  -26.5913  -25.0415   21.1878 C   0  0  0  0  0  0  0  0  0  0  0  0
  -30.1407  -18.5301   24.3285 C   0  0  0  0  0  0  0  0  0  0  0  0
  -29.5700  -17.6645   23.3952 C   0  0  0  0  0  0  0  0  0  0  0  0
  -30.3864  -16.8652   22.5950 C   0  0  0  0  0  0  0  0  0  0  0  0
  -22.4839   -8.0476   21.3413 C   0  0  0  0  0  0  0  0  0  0  0  0
  -26.5441  -22.8427   22.2237 C   0  0  0  0  0  0  0  0  0  0  0  0
  -22.4864   -5.8614   22.2033 C   0  0  0  0  0  0  0  0  0  0  0  0
  -23.8333   -3.8147   23.5372 C   0  0  0  0  0  0  0  0  0  0  0  0
  -21.9767   -5.3545   23.3987 C   0  0  0  0  0  0  0  0  0  0  0  0
  -24.5523  -11.6865   20.7271 C   0  0  0  0  0  0  0  0  0  0  0  0
  -25.1078  -13.8097   20.5912 C   0  0  0  0  0  0  0  0  0  0  0  0
  -22.7673  -13.4202   21.3777 C   0  0  0  0  0  0  0  0  0  0  0  0
  -28.5583  -26.6346   18.9028 C   0  0  0  0  0  0  0  0  0  0  0  0
  -26.3507  -28.6960   20.0857 C   0  0  0  0  0  0  0  0  0  0  0  0
  -23.7711  -29.2504   22.2503 C   0  0  0  0  0  0  0  0  0  0  0  0
  -30.5148  -15.1263   20.7767 C   0  0  0  0  0  0  0  0  0  0  0  0
  -31.5507  -26.3225   14.7791 C   0  0  0  0  0  0  0  0  0  0  0  0
  -26.4402  -25.2853   18.6813 C   0  0  0  0  0  0  0  0  0  0  0  0
  -26.6704  -26.5367   21.3508 C   0  0  0  0  0  0  0  0  0  0  0  0
  -30.8879  -27.4515   15.5640 C   0  0  0  0  0  0  0  0  0  0  0  0
  -29.5041  -12.7665   18.3096 C   0  0  0  0  0  0  0  0  0  0  0  0
  -31.1552  -27.2920   17.0573 C   0  0  0  0  0  0  0  0  0  0  0  0
  -28.0852  -12.3824   18.7351 C   0  0  0  0  0  0  0  0  0  0  0  0
  -30.4170  -12.9882   19.5142 C   0  0  0  0  0  0  0  0  0  0  0  0
  -28.4879  -13.5512   20.9393 C   0  0  0  0  0  0  0  0  0  0  0  0
  -30.5653  -25.9792   17.5863 C   0  0  1  0  0  0  0  0  0  0  0  0
  -27.0565  -26.6681   18.8696 C   0  0  1  0  0  0  0  0  0  0  0  0
  -27.5148  -13.3809   19.7613 C   0  0  2  0  0  0  0  0  0  0  0  0
  -28.0814  -17.5969   23.2561 C   0  0  0  0  0  0  0  0  0  0  0  0
  -22.1934  -31.0453   23.0162 C   0  0  0  0  0  0  0  0  0  0  0  0
  -28.5973  -29.9764   21.7054 C   0  0  0  0  0  0  0  0  0  0  0  0
  -26.8527  -31.0844   23.1186 C   0  0  0  0  0  0  0  0  0  0  0  0
  -26.9934  -31.5995   20.6819 C   0  0  0  0  0  0  0  0  0  0  0  0
  -21.4041  -27.7064   21.3716 C   0  0  0  0  0  0  0  0  0  0  0  0
  -29.2859  -19.4007   25.2017 C   0  0  0  0  0  0  0  0  0  0  0  0
  -27.8051  -21.4097   25.2989 C   0  0  0  0  0  0  0  0  0  0  0  0
  -27.3045  -22.5692   24.4604 C   0  0  0  0  0  0  0  0  0  1  0  0
  -26.1082  -29.3506   21.4243 C   0  0  1  0  0  0  0  0  0  0  0  0
  -22.4088  -29.8898   22.0512 C   0  0  2  0  0  0  0  0  0  0  0  0
  -27.1384  -30.4744   21.7297 C   0  0  0  0  0  0  0  0  0  0  0  0
  -25.8166  -11.6747   20.2966 N   0  0  0  0  0  0  0  0  0  0  0  0
  -26.1263  -12.9804   20.2237 N   0  0  0  0  0  0  0  0  0  0  0  0
  -26.6165  -27.3195   20.1051 N   0  0  0  0  0  0  0  0  0  0  0  0
  -29.8140  -13.9487   20.4408 N   0  0  0  0  0  0  0  0  0  0  0  0
  -25.2493  -15.1522   20.5769 N   0  0  0  0  0  0  0  0  0  0  0  0
  -21.8062  -12.4460   21.6803 N   0  0  0  0  0  0  0  0  0  0  0  0
  -29.8283  -15.9794   21.6402 N   0  0  0  0  0  0  0  0  0  0  0  0
  -29.1345  -26.1036   17.7646 N   0  0  0  0  0  0  0  0  0  0  0  0
  -24.7201  -29.7992   21.4139 N   0  0  0  0  0  0  0  0  0  0  0  0
  -21.3287  -28.8867   22.2705 N   0  3  0  0  0  0  0  0  0  0  0  0
  -28.7044  -20.5622   24.4760 N   0  3  0  0  0  0  0  0  0  0  0  0
  -22.4690  -14.6332   21.4920 O   0  0  0  0  0  0  0  0  0  0  0  0
  -29.1505  -27.0604   19.8875 O   0  0  0  0  0  0  0  0  0  0  0  0
  -26.2988  -29.3795   19.0601 O   0  0  0  0  0  0  0  0  0  0  0  0
  -23.9741  -28.3564   23.0688 O   0  0  0  0  0  0  0  0  0  0  0  0
  -31.6296  -15.3736   20.3097 O   0  0  0  0  0  0  0  0  0  0  0  0
  -21.8186   -6.8768   21.5395 O   0  0  0  0  0  0  0  0  0  0  0  0
  -26.5714  -22.0691   23.3429 O   0  0  0  0  0  0  0  0  0  1  0  0
  -24.4793   -2.8309   24.1768 F   0  0  0  0  0  0  0  0  0  0  0  0
  -20.8399   -5.8458   23.9106 F   0  0  0  0  0  0  0  0  0  0  0  0
  1  2  1  0  0  0  0
  1  6  2  0  0  0  0
  2  7  2  0  0  0  0
  3  9  2  0  0  0  0
  3 10  1  0  0  0  0
  4 11  2  0  0  0  0
  4 18  1  0  0  0  0
  5 12  1  0  0  0  0
  5 18  2  0  0  0  0
  6 20  1  0  0  0  0
  7 22  1  0  0  0  0
  8 13  2  0  0  0  0
  8 21  1  0  0  0  0
  9 24  1  0  0  0  0
 10 26  2  0  0  0  0
 11 27  1  0  0  0  0
 12 27  2  0  0  0  0
 13 28  1  0  0  0  0
 14 15  2  0  0  0  0
 14 29  1  0  0  0  0
 15 30  1  0  0  0  0
 16 23  1  0  0  0  0
 16 28  2  0  0  0  0
 17 30  2  0  0  0  0
 17 31  1  0  0  0  0
 18 32  1  0  0  0  0
 19 32  1  0  0  0  0
 19 33  2  0  0  0  0
 19 34  1  0  0  0  0
 20 22  2  0  0  0  0
 20 39  1  0  0  0  0
 21 23  2  0  0  0  0
 21 40  1  0  0  0  0
 22 48  1  0  0  0  0
 23 41  1  0  0  0  0
 24 25  2  0  0  0  0
 24 57  1  0  0  0  0
 25 26  1  0  0  0  0
 25 51  1  0  0  0  0
 26 69  1  0  0  0  0
 27 79  1  0  0  0  0
 28 80  1  0  0  0  0
 29 31  2  0  0  0  0
 29 79  1  0  0  0  0
 30 81  1  0  0  0  0
 31 82  1  0  0  0  0
 32 63  2  0  0  0  0
 33 64  1  0  0  0  0
 33 67  1  0  0  0  0
 34 68  1  0  0  0  0
 34 74  2  0  0  0  0
 35 49  1  0  0  0  0
 35 70  1  0  0  0  0
 35 75  2  0  0  0  0
 36 60  1  0  0  0  0
 36 65  1  0  0  0  0
 36 76  2  0  0  0  0
 37 61  1  0  0  0  0
 37 71  1  0  0  0  0
 37 77  2  0  0  0  0
 38 66  1  0  0  0  0
 38 69  1  0  0  0  0
 38 78  2  0  0  0  0
 39 42  1  0  0  0  0
 40 49  1  0  0  0  0
 41 65  1  0  0  0  0
 42 44  1  0  0  0  0
 43 45  1  0  0  0  0
 43 46  1  0  0  0  0
 44 48  1  0  0  0  0
 45 50  1  0  0  0  0
 46 66  1  0  0  0  0
 47 50  1  0  0  0  0
 47 66  1  0  0  0  0
 48 70  1  0  0  0  0
 49 65  1  0  0  0  0
 50 64  1  0  0  0  0
 52 61  1  0  0  0  0
 53 62  1  0  0  0  0
 54 62  1  0  0  0  0
 55 62  1  0  0  0  0
 56 72  1  0  0  0  0
 57 73  1  0  0  0  0
 58 59  1  0  0  0  0
 58 73  1  0  0  0  0
 59 80  1  0  0  0  0
 60 62  1  0  0  0  0
 60 71  1  0  0  0  0
 61 72  1  0  0  0  0
 63 64  1  0  0  0  0
M  CHG  2  72   1  73   1
M  ISO  4  38 100  59 101  69 100  80 101
M  END
> <Batch ID>
0129

> <Smiles>
CNC(C)C(=O)NC(C(=O)N1Cc2cc([101O:1][101CH2:1]CNCc3cccc([100NH:0][100C:0](=O)N4CCCC(n5nc(-c6ccc(Oc7ccc(F)cc7F)cc6)c(C(N)=O)c5N)C4)c3C)ccc2CC1C(=O)NC1CCCc2ccccc21)C(C)(C)C

> <Shape>
0.302

> <Color>
0.225

> <Negative vol penalty>
0.000

$$$$

  -OEChem-04052320453D

 83 91  0     1  0  0  0  0  0999 V2000
  -16.9045  -29.4052   24.7020 C   0  0  0  0  0  0  0  0  0  0  0  0
  -17.3378  -28.2842   24.0012 C   0  0  0  0  0  0  0  0  0  0  0  0
  -27.6224  -11.4113   20.5794 C   0  0  0  0  0  0  0  0  0  0  0  0
  -26.8241  -12.4524   18.5506 C   0  0  0  0  0  0  0  0  0  0  0  0
  -17.4608  -30.6543   24.4294 C   0  0  0  0  0  0  0  0  0  0  0  0
  -18.3269  -28.4119   23.0267 C   0  0  0  0  0  0  0  0  0  0  0  0
  -21.8548  -24.7936   23.3537 C   0  0  0  0  0  0  0  0  0  0  0  0
  -26.6513  -10.4183   20.4520 C   0  0  0  0  0  0  0  0  0  0  0  0
  -25.8529  -11.4593   18.4232 C   0  0  0  0  0  0  0  0  0  0  0  0
  -21.5271  -23.5371   22.8462 C   0  0  0  0  0  0  0  0  0  0  0  0
  -23.3417  -10.0804   21.0493 C   0  0  0  0  0  0  0  0  0  0  0  0
  -22.6223   -9.7283   22.1912 C   0  0  0  0  0  0  0  0  0  0  0  0
  -22.7556  -24.0371   20.8313 C   0  0  0  0  0  0  0  0  0  0  0  0
  -23.4288   -7.4590   21.9995 C   0  0  0  0  0  0  0  0  0  0  0  0
  -27.7088  -12.4284   19.6287 C   0  0  0  0  0  0  0  0  0  0  0  0
  -30.0184  -13.4385   19.2370 C   0  0  0  0  0  0  0  0  0  0  0  0
  -18.4641  -30.7957   23.4578 C   0  0  0  0  0  0  0  0  0  0  0  0
  -22.6276  -25.6870   22.5980 C   0  0  0  0  0  0  0  0  0  0  0  0
  -18.8962  -29.6642   22.7399 C   0  0  0  0  0  0  0  0  0  0  0  0
  -23.0939  -25.3034   21.3325 C   0  0  0  0  0  0  0  0  0  0  0  0
  -25.7665  -10.4422   19.3739 C   0  0  0  0  0  0  0  0  0  0  0  0
  -21.9751  -23.1598   21.5837 C   0  0  0  0  0  0  0  0  0  0  0  0
  -24.1046   -9.1219   20.3824 C   0  0  0  0  0  0  0  0  0  0  0  0
  -22.6659   -8.4176   22.6664 C   0  0  0  0  0  0  0  0  0  0  0  0
  -24.1482   -7.8111   20.8575 C   0  0  0  0  0  0  0  0  0  0  0  0
  -28.7115  -13.4549   19.7600 C   0  0  0  0  0  0  0  0  0  0  0  0
  -30.5628  -14.6348   19.6357 C   0  0  0  0  0  0  0  0  0  0  0  0
  -30.6810  -12.4319   18.4603 C   0  0  0  0  0  0  0  0  0  0  0  0
  -22.1529  -28.5808   21.3714 C   0  0  0  0  0  0  0  0  0  0  0  0
  -25.2959  -28.3447   20.6044 C   0  0  0  0  0  0  0  0  0  0  0  0
  -27.9801  -26.3352   19.9691 C   0  0  0  0  0  0  0  0  0  0  0  0
  -28.1621  -19.9235   21.0910 C   0  0  0  0  0  0  0  0  0  0  0  0
  -19.0018  -32.1740   23.1649 C   0  0  0  0  0  0  0  0  0  0  0  0
  -22.9948  -27.0285   23.1707 C   0  0  0  0  0  0  0  0  0  0  0  0
  -23.9434  -26.2180   20.4897 C   0  0  0  0  0  0  0  0  0  0  0  0
  -20.3109  -32.1630   22.3798 C   0  0  0  0  0  0  0  0  0  0  0  0
  -30.2785  -17.9023   23.1190 C   0  0  0  0  0  0  0  0  0  0  0  0
  -23.4251  -20.3856   16.9692 C   0  0  0  0  0  0  0  0  0  0  0  0
  -20.2213  -31.1930   21.2060 C   0  0  0  0  0  0  0  0  0  0  0  0
  -30.2348  -16.5318   22.4409 C   0  0  0  0  0  0  0  0  0  0  0  0
  -22.7997  -19.8013   18.2199 C   0  0  0  0  0  0  0  0  0  0  0  0
  -28.9276  -18.6107   23.0474 C   0  0  0  0  0  0  0  0  0  0  0  0
  -28.3191  -17.3611   21.0122 C   0  0  0  0  0  0  0  0  0  0  0  0
  -24.9160  -20.2776   17.2248 C   0  0  0  0  0  0  0  0  0  0  0  0
  -19.9847  -29.7582   21.6928 C   0  0  1  0  0  0  0  0  0  0  0  0
  -23.3562  -28.0557   22.1022 C   0  0  1  0  0  0  0  0  0  0  0  0
  -29.6736  -16.6320   21.0097 C   0  0  2  0  0  0  0  0  0  0  0  0
  -23.6637  -20.3744   19.3296 C   0  0  2  0  0  0  0  0  0  0  0  0
  -30.4058  -26.4308   19.3336 C   0  0  0  0  0  0  0  0  0  0  0  0
  -24.5141  -28.9959   17.7278 C   0  0  0  0  0  0  0  0  0  0  0  0
  -26.7576  -28.1549   17.0013 C   0  0  0  0  0  0  0  0  0  0  0  0
  -26.5989  -30.1250   18.5233 C   0  0  0  0  0  0  0  0  0  0  0  0
  -28.8078  -24.9846   22.4690 C   0  0  0  0  0  0  0  0  0  0  0  0
  -24.5288  -20.2267   22.0728 C   0  0  0  0  0  0  0  0  0  0  0  0
  -23.9732  -17.8049   20.5936 C   0  0  0  0  0  0  0  0  0  0  0  0
  -27.3913  -21.0992   19.0459 C   0  0  0  0  0  0  0  0  0  0  0  0
  -25.9310  -21.4808   19.2015 C   0  0  0  0  0  0  0  0  0  0  0  0
  -21.4724  -20.8781   22.0277 C   0  0  0  0  0  0  0  0  0  1  0  0
  -21.8054  -19.5535   21.3712 C   0  0  0  0  0  0  0  0  0  0  0  0
  -26.0707  -27.8207   19.4195 C   0  0  1  0  0  0  0  0  0  0  0  0
  -29.4089  -26.3714   20.4805 C   0  0  2  0  0  0  0  0  0  0  0  0
  -25.9677  -28.7574   18.1828 C   0  0  0  0  0  0  0  0  0  0  0  0
  -28.4419  -14.5729   20.4392 N   0  0  0  0  0  0  0  0  0  0  0  0
  -29.5870  -15.2701   20.3459 N   0  0  0  0  0  0  0  0  0  0  0  0
  -24.2705  -27.5215   21.0908 N   0  0  0  0  0  0  0  0  0  0  0  0
  -28.4521  -18.6738   21.6632 N   0  0  0  0  0  0  0  0  0  0  0  0
  -31.7762  -15.1947   19.4446 N   0  0  0  0  0  0  0  0  0  0  0  0
  -29.9761  -11.2639   18.1392 N   0  0  0  0  0  0  0  0  0  0  0  0
  -21.2165  -29.1834   22.1896 N   0  0  0  0  0  0  0  0  0  0  0  0
  -27.4340  -27.5988   19.8891 N   0  0  0  0  0  0  0  0  0  0  0  0
  -27.7231  -19.8942   19.7730 N   0  0  0  0  0  0  0  0  0  0  0  0
  -25.0611  -20.3563   18.7334 N   0  3  2  0  0  0  0  0  0  0  0  0
  -29.6992  -25.1563   21.2930 N   0  3  0  0  0  0  0  0  0  0  0  0
  -31.8687  -12.5571   18.0766 O   0  0  0  0  0  0  0  0  0  0  0  0
  -22.0802  -28.4502   20.1551 O   0  0  0  0  0  0  0  0  0  0  0  0
  -25.5942  -29.4408   21.0852 O   0  0  0  0  0  0  0  0  0  0  0  0
  -27.4070  -25.2907   19.6670 O   0  0  0  0  0  0  0  0  0  0  0  0
  -28.2905  -20.9868   21.7072 O   0  0  0  0  0  0  0  0  0  0  0  0
  -24.8188   -9.4732   19.2492 O   0  0  0  0  0  0  0  0  0  0  0  0
  -21.6561  -21.9341   21.0857 O   0  0  0  0  0  0  0  0  0  1  0  0
  -21.9762   -8.0799   23.7639 F   0  0  0  0  0  0  0  0  0  0  0  0
  -24.8803   -6.8861   20.2217 F   0  0  0  0  0  0  0  0  0  0  0  0
  -23.4891  -19.4918   20.8400 S   0  0  0  0  0  0  0  0  0  0  0  0
  1  2  1  0  0  0  0
  1  5  2  0  0  0  0
  2  6  2  0  0  0  0
  3  8  2  0  0  0  0
  3 15  1  0  0  0  0
  4  9  1  0  0  0  0
  4 15  2  0  0  0  0
  5 17  1  0  0  0  0
  6 19  1  0  0  0  0
  7 10  2  0  0  0  0
  7 18  1  0  0  0  0
  8 21  1  0  0  0  0
  9 21  2  0  0  0  0
 10 22  1  0  0  0  0
 11 12  2  0  0  0  0
 11 23  1  0  0  0  0
 12 24  1  0  0  0  0
 13 20  1  0  0  0  0
 13 22  2  0  0  0  0
 14 24  2  0  0  0  0
 14 25  1  0  0  0  0
 15 26  1  0  0  0  0
 16 26  1  0  0  0  0
 16 27  2  0  0  0  0
 16 28  1  0  0  0  0
 17 19  2  0  0  0  0
 17 33  1  0  0  0  0
 18 20  2  0  0  0  0
 18 34  1  0  0  0  0
 19 45  1  0  0  0  0
 20 35  1  0  0  0  0
 21 79  1  0  0  0  0
 22 80  1  0  0  0  0
 23 25  2  0  0  0  0
 23 79  1  0  0  0  0
 24 81  1  0  0  0  0
 25 82  1  0  0  0  0
 26 63  2  0  0  0  0
 27 64  1  0  0  0  0
 27 67  1  0  0  0  0
 28 68  1  0  0  0  0
 28 74  2  0  0  0  0
 29 46  1  0  0  0  0
 29 69  1  0  0  0  0
 29 75  2  0  0  0  0
 30 60  1  0  0  0  0
 30 65  1  0  0  0  0
 30 76  2  0  0  0  0
 31 61  1  0  0  0  0
 31 70  1  0  0  0  0
 31 77  2  0  0  0  0
 32 66  1  0  0  0  0
 32 71  1  0  0  0  0
 32 78  2  0  0  0  0
 33 36  1  0  0  0  0
 34 46  1  0  0  0  0
 35 65  1  0  0  0  0
 36 39  1  0  0  0  0
 37 40  1  0  0  0  0
 37 42  1  0  0  0  0
 38 41  1  0  0  0  0
 38 44  1  0  0  0  0
 39 45  1  0  0  0  0
 40 47  1  0  0  0  0
 41 48  1  0  0  0  0
 42 66  1  0  0  0  0
 43 47  1  0  0  0  0
 43 66  1  0  0  0  0
 44 72  1  0  0  0  0
 45 69  1  0  0  0  0
 46 65  1  0  0  0  0
 47 64  1  0  0  0  0
 48 72  1  0  0  0  0
 48 83  1  0  0  0  0
 49 61  1  0  0  0  0
 50 62  1  0  0  0  0
 51 62  1  0  0  0  0
 52 62  1  0  0  0  0
 53 73  1  0  0  0  0
 54 83  1  0  0  0  0
 55 83  1  0  0  0  0
 56 57  1  0  0  0  0
 56 71  1  0  0  0  0
 57 72  1  0  0  0  0
 58 59  1  0  0  0  0
 58 80  1  0  0  0  0
 59 83  1  0  0  0  0
 60 62  1  0  0  0  0
 60 70  1  0  0  0  0
 61 73  1  0  0  0  0
 63 64  1  0  0  0  0
M  CHG  2  72   1  73   1
M  ISO  4  32 100  58 101  71 100  80 101
M  END
> <Batch ID>
0129

> <Smiles>
CNC(C)C(=O)NC(C(=O)N1Cc2cc([101O:1][101CH2:1]CS(C)(C)C3CCCN3CC[100NH:0][100C:0](=O)N3CCCC(n4nc(-c5ccc(Oc6ccc(F)cc6F)cc5)c(C(N)=O)c4N)C3)ccc2CC1C(=O)NC1CCCc2ccccc21)C(C)(C)C

> <Shape>
0.239

> <Color>
0.060

> <Negative vol penalty>
0.000

$$$$

  -OEChem-04052320453D

 91100  0     1  0  0  0  0  0999 V2000
  -27.9517  -36.2293   21.9456 C   0  0  0  0  0  0  0  0  0  0  0  0
  -28.6441  -35.2228   22.6113 C   0  0  0  0  0  0  0  0  0  0  0  0
  -24.9597   -8.6618   21.8703 C   0  0  0  0  0  0  0  0  0  0  0  0
  -23.5273  -10.5463   21.3869 C   0  0  0  0  0  0  0  0  0  0  0  0
  -26.5692  -36.3362   22.0909 C   0  0  0  0  0  0  0  0  0  0  0  0
  -27.9544  -34.3234   23.4235 C   0  0  0  0  0  0  0  0  0  0  0  0
  -27.7152  -26.5194   23.1650 C   0  0  0  0  0  0  0  0  0  0  0  0
  -23.8641   -7.8040   21.7731 C   0  0  0  0  0  0  0  0  0  0  0  0
  -22.4317   -9.6886   21.2897 C   0  0  0  0  0  0  0  0  0  0  0  0
  -27.4684  -25.1470   23.1218 C   0  0  0  0  0  0  0  0  0  0  0  0
  -21.2456   -6.8806   23.7005 C   0  0  0  0  0  0  0  0  0  0  0  0
  -21.0995   -5.9030   24.6846 C   0  0  0  0  0  0  0  0  0  0  0  0
  -25.3106  -25.4916   24.1577 C   0  0  0  0  0  0  0  0  0  0  0  0
  -21.2327   -4.1818   22.9944 C   0  0  0  0  0  0  0  0  0  0  0  0
  -24.7914  -10.0329   21.6773 C   0  0  0  0  0  0  0  0  0  0  0  0
  -26.7501  -11.1177   22.8996 C   0  0  0  0  0  0  0  0  0  0  0  0
  -25.8609  -35.4317   22.8977 C   0  0  0  0  0  0  0  0  0  0  0  0
  -26.7530  -27.3857   23.6913 C   0  0  0  0  0  0  0  0  0  0  0  0
  -26.5613  -34.4192   23.5808 C   0  0  0  0  0  0  0  0  0  0  0  0
  -25.5470  -26.8685   24.1922 C   0  0  0  0  0  0  0  0  0  0  0  0
  -22.6001   -8.3174   21.4828 C   0  0  0  0  0  0  0  0  0  0  0  0
  -26.2692  -24.6344   23.6172 C   0  0  0  0  0  0  0  0  0  0  0  0
  -21.3851   -6.5089   22.3633 C   0  0  0  0  0  0  0  0  0  0  0  0
  -21.0931   -4.5535   24.3315 C   0  0  0  0  0  0  0  0  0  0  0  0
  -21.3787   -5.1595   22.0103 C   0  0  0  0  0  0  0  0  0  0  0  0
  -25.9227  -10.9196   21.7781 C   0  0  0  0  0  0  0  0  0  0  0  0
  -27.6698  -12.0507   22.4872 C   0  0  0  0  0  0  0  0  0  0  0  0
  -26.6927  -10.5123   24.1981 C   0  0  0  0  0  0  0  0  0  0  0  0
  -25.7846  -30.9221   24.4864 C   0  0  0  0  0  0  0  0  0  0  0  0
  -23.2764  -29.5360   23.3919 C   0  0  0  0  0  0  0  0  0  0  0  0
  -20.8626  -27.7697   21.7515 C   0  0  0  0  0  0  0  0  0  0  0  0
  -29.0831  -16.6647   19.8885 C   0  0  0  0  0  0  0  0  0  0  0  0
  -24.3731  -35.6162   23.0615 C   0  0  0  0  0  0  0  0  0  0  0  0
  -27.0017  -28.8645   23.8142 C   0  0  0  0  0  0  0  0  0  0  0  0
  -24.5555  -27.8345   24.7809 C   0  0  0  0  0  0  0  0  0  0  0  0
  -23.6682  -34.3937   23.6436 C   0  0  0  0  0  0  0  0  0  0  0  0
  -23.2003  -22.8607   27.2613 C   0  0  0  0  0  0  0  0  0  0  0  0
  -24.5947  -22.9981   27.8760 C   0  0  0  0  0  0  0  0  0  0  0  0
  -28.6950  -13.8702   17.8881 C   0  0  0  0  0  0  0  0  0  0  0  0
  -24.4346  -33.8594   24.8494 C   0  0  0  0  0  0  0  0  0  0  0  0
  -28.0070  -12.8590   18.8047 C   0  0  0  0  0  0  0  0  0  0  0  0
  -23.0461  -21.3907   26.8763 C   0  0  0  0  0  0  0  0  0  0  0  0
  -25.2192  -21.6048   27.8341 C   0  0  0  0  0  0  0  0  0  0  0  0
  -27.0323  -19.2639   21.0959 C   0  0  0  0  0  0  0  0  0  0  0  0
  -28.1180  -15.2671   18.0867 C   0  0  0  0  0  0  0  0  0  0  0  0
  -27.3220  -17.7773   21.3304 C   0  0  0  0  0  0  0  0  0  0  0  0
  -29.7269  -18.2839   21.6494 C   0  0  0  0  0  0  0  0  0  0  0  0
  -27.5056  -14.7529   20.4275 C   0  0  0  0  0  0  0  0  0  0  0  0
  -25.8453  -33.4092   24.4512 C   0  0  1  0  0  0  0  0  0  0  0  0
  -25.7323  -29.7094   23.6043 C   0  0  1  0  0  0  0  0  0  0  0  0
  -29.4822  -19.7767   21.3846 C   0  0  1  0  0  0  0  0  0  0  0  0
  -28.0558  -13.3205   20.2721 C   0  0  1  0  0  0  0  0  0  0  0  0
  -28.0464  -20.1872   21.7908 C   0  0  2  0  0  0  0  0  0  0  0  0
  -24.4681  -20.8714   26.7340 C   0  0  0  0  0  0  0  0  0  0  0  0
  -35.2461  -22.4442   21.7079 C   0  0  0  0  0  0  0  0  0  0  0  0
  -18.5022  -27.9618   20.9216 C   0  0  0  0  0  0  0  0  0  0  0  0
  -22.2497  -29.1896   26.2432 C   0  0  0  0  0  0  0  0  0  0  0  0
  -20.0579  -28.4466   25.2881 C   0  0  0  0  0  0  0  0  0  0  0  0
  -20.8994  -30.7498   24.8301 C   0  0  0  0  0  0  0  0  0  0  0  0
  -21.6930  -27.3475   18.9423 C   0  0  0  0  0  0  0  0  0  0  0  0
  -30.5612  -20.6274   22.0576 C   0  0  0  0  0  0  0  0  0  0  0  0
  -34.1750  -21.5966   21.0402 C   0  0  0  0  0  0  0  0  0  0  0  0
  -31.8271  -20.6827   21.2091 C   0  0  0  0  0  0  0  0  0  0  0  0
  -32.9141  -21.5081   21.8996 C   0  0  0  0  0  0  0  0  0  0  0  0
  -26.2101  -20.4846   24.9875 C   0  0  0  0  0  0  0  0  0  0  0  0
  -27.1686  -22.4320   23.6440 C   0  0  0  0  0  0  0  0  0  1  0  0
  -22.0117  -28.7775   23.7056 C   0  0  1  0  0  0  0  0  0  0  0  0
  -19.9733  -28.1312   20.5755 C   0  0  2  0  0  0  0  0  0  0  0  0
  -26.7146  -20.9691   23.6281 C   0  0  1  0  0  0  0  0  0  0  0  0
  -21.3288  -29.2774   25.0098 C   0  0  0  0  0  0  0  0  0  0  0  0
  -26.2846  -11.6668   20.7319 N   0  0  0  0  0  0  0  0  0  0  0  0
  -27.3495  -12.3437   21.1943 N   0  0  0  0  0  0  0  0  0  0  0  0
  -24.4651  -29.0374   23.9385 N   0  0  0  0  0  0  0  0  0  0  0  0
  -28.1787  -15.6677   19.4924 N   0  0  0  0  0  0  0  0  0  0  0  0
  -28.7149  -17.4588   20.9855 N   0  0  0  0  0  0  0  0  0  0  0  0
  -28.7131  -12.6411   23.1082 N   0  0  0  0  0  0  0  0  0  0  0  0
  -25.6839   -9.5734   24.4534 N   0  0  0  0  0  0  0  0  0  0  0  0
  -25.7984  -32.1194   23.7966 N   0  0  0  0  0  0  0  0  0  0  0  0
  -21.1720  -28.8744   22.5165 N   0  0  0  0  0  0  0  0  0  0  0  0
  -27.8379  -20.1324   23.2407 N   0  0  0  0  0  0  0  0  0  0  0  0
  -25.0151  -21.2584   25.4064 N   0  3  0  0  0  0  0  0  0  0  0  0
  -20.2838  -27.2627   19.4050 N   0  3  0  0  0  0  0  0  0  0  0  0
  -27.5016  -10.8078   25.1102 O   0  0  0  0  0  0  0  0  0  0  0  0
  -25.8092  -30.7832   25.7037 O   0  0  0  0  0  0  0  0  0  0  0  0
  -23.2142  -30.5468   22.6864 O   0  0  0  0  0  0  0  0  0  0  0  0
  -21.2417  -26.6215   21.9716 O   0  0  0  0  0  0  0  0  0  0  0  0
  -30.1566  -16.8356   19.2972 O   0  0  0  0  0  0  0  0  0  0  0  0
  -21.5308   -7.4807   21.3876 O   0  0  0  0  0  0  0  0  0  0  0  0
  -26.0314  -23.2857   23.5675 O   0  0  0  0  0  0  0  0  0  1  0  0
  -20.9545   -3.6147   25.2768 F   0  0  0  0  0  0  0  0  0  0  0  0
  -21.5136   -4.7962   20.7274 F   0  0  0  0  0  0  0  0  0  0  0  0
  1  2  1  0  0  0  0
  1  5  2  0  0  0  0
  2  6  2  0  0  0  0
  3  8  2  0  0  0  0
  3 15  1  0  0  0  0
  4  9  1  0  0  0  0
  4 15  2  0  0  0  0
  5 17  1  0  0  0  0
  6 19  1  0  0  0  0
  7 10  2  0  0  0  0
  7 18  1  0  0  0  0
  8 21  1  0  0  0  0
  9 21  2  0  0  0  0
 10 22  1  0  0  0  0
 11 12  2  0  0  0  0
 11 23  1  0  0  0  0
 12 24  1  0  0  0  0
 13 20  1  0  0  0  0
 13 22  2  0  0  0  0
 14 24  2  0  0  0  0
 14 25  1  0  0  0  0
 15 26  1  0  0  0  0
 16 26  1  0  0  0  0
 16 27  2  0  0  0  0
 16 28  1  0  0  0  0
 17 19  2  0  0  0  0
 17 33  1  0  0  0  0
 18 20  2  0  0  0  0
 18 34  1  0  0  0  0
 19 49  1  0  0  0  0
 20 35  1  0  0  0  0
 21 88  1  0  0  0  0
 22 89  1  0  0  0  0
 23 25  2  0  0  0  0
 23 88  1  0  0  0  0
 24 90  1  0  0  0  0
 25 91  1  0  0  0  0
 26 71  2  0  0  0  0
 27 72  1  0  0  0  0
 27 76  1  0  0  0  0
 28 77  1  0  0  0  0
 28 83  2  0  0  0  0
 29 50  1  0  0  0  0
 29 78  1  0  0  0  0
 29 84  2  0  0  0  0
 30 67  1  0  0  0  0
 30 73  1  0  0  0  0
 30 85  2  0  0  0  0
 31 68  1  0  0  0  0
 31 79  1  0  0  0  0
 31 86  2  0  0  0  0
 32 74  1  0  0  0  0
 32 75  1  0  0  0  0
 32 87  2  0  0  0  0
 33 36  1  0  0  0  0
 34 50  1  0  0  0  0
 35 73  1  0  0  0  0
 36 40  1  0  0  0  0
 37 38  1  0  0  0  0
 37 42  1  0  0  0  0
 38 43  1  0  0  0  0
 39 41  1  0  0  0  0
 39 45  1  0  0  0  0
 40 49  1  0  0  0  0
 41 52  1  0  0  0  0
 42 54  1  0  0  0  0
 43 54  1  0  0  0  0
 44 46  1  0  0  0  0
 44 53  1  0  0  0  0
 45 74  1  0  0  0  0
 46 75  1  0  0  0  0
 47 51  1  0  0  0  0
 47 75  1  0  0  0  0
 48 52  1  0  0  0  0
 48 74  1  0  0  0  0
 49 78  1  0  0  0  0
 50 73  1  0  0  0  0
 51 53  1  0  0  0  0
 51 61  1  0  0  0  0
 52 72  1  0  0  0  0
 53 80  1  0  0  0  0
 54 81  1  0  0  0  0
 55 62  1  0  0  0  0
 56 68  1  0  0  0  0
 57 70  1  0  0  0  0
 58 70  1  0  0  0  0
 59 70  1  0  0  0  0
 60 82  1  0  0  0  0
 61 63  1  0  0  0  0
 62 64  1  0  0  0  0
 63 64  1  0  0  0  0
 65 69  1  0  0  0  0
 65 81  1  0  0  0  0
 66 69  1  0  0  0  0
 66 89  1  0  0  0  0
 67 70  1  0  0  0  0
 67 79  1  0  0  0  0
 68 82  1  0  0  0  0
 69 80  1  0  0  0  0
 71 72  1  0  0  0  0
M  CHG  2  81   1  82   1
M  ISO  4  32 100  66 101  75 100  89 101
M  END
> <Batch ID>
0129

> <Smiles>
CCCCCC1C[100N:0]([100C:0](=O)N2CCCC(n3nc(-c4ccc(Oc5ccc(F)cc5F)cc4)c(C(N)=O)c3N)C2)CCC1NC(CNC1CCCC1)[101CH2:1][101O:1]c1ccc2c(c1)CN(C(=O)C(NC(=O)C(C)NC)C(C)(C)C)C(C(=O)NC1CCCc3ccccc31)C2

> <Shape>
0.256

> <Color>
0.073

> <Negative vol penalty>
0.000

$$$$

  -OEChem-04052320453D

 82 90  0     1  0  0  0  0  0999 V2000
  -18.3825  -27.2378   22.4257 C   0  0  0  0  0  0  0  0  0  0  0  0
  -19.7167  -27.0736   22.0674 C   0  0  0  0  0  0  0  0  0  0  0  0
  -24.8964  -10.2634   22.9248 C   0  0  0  0  0  0  0  0  0  0  0  0
  -24.5938  -11.8948   24.6810 C   0  0  0  0  0  0  0  0  0  0  0  0
  -17.9593  -28.4340   23.0036 C   0  0  0  0  0  0  0  0  0  0  0  0
  -20.6283  -28.1060   22.2857 C   0  0  0  0  0  0  0  0  0  0  0  0
  -24.9790  -26.4645   24.2911 C   0  0  0  0  0  0  0  0  0  0  0  0
  -24.5268   -9.2468   23.8055 C   0  0  0  0  0  0  0  0  0  0  0  0
  -24.2241  -10.8782   25.5616 C   0  0  0  0  0  0  0  0  0  0  0  0
  -25.8878  -25.8544   23.4278 C   0  0  0  0  0  0  0  0  0  0  0  0
  -21.6669   -7.9885   25.0980 C   0  0  0  0  0  0  0  0  0  0  0  0
  -20.7679   -7.0267   24.6372 C   0  0  0  0  0  0  0  0  0  0  0  0
  -27.1462  -27.9091   23.3100 C   0  0  0  0  0  0  0  0  0  0  0  0
  -26.9367  -20.4237   20.3890 C   0  0  0  0  0  0  0  0  0  0  0  0
  -22.4122   -5.3009   25.0314 C   0  0  0  0  0  0  0  0  0  0  0  0
  -24.9299  -11.5874   23.3626 C   0  0  0  0  0  0  0  0  0  0  0  0
  -24.4650  -13.3852   21.6135 C   0  0  0  0  0  0  0  0  0  0  0  0
  -18.8680  -29.4780   23.2379 C   0  0  0  0  0  0  0  0  0  0  0  0
  -25.1411  -27.8070   24.6624 C   0  0  0  0  0  0  0  0  0  0  0  0
  -20.2165  -29.3178   22.8660 C   0  0  0  0  0  0  0  0  0  0  0  0
  -26.2394  -28.5332   24.1803 C   0  0  0  0  0  0  0  0  0  0  0  0
  -26.7698  -21.7237   19.9246 C   0  0  0  0  0  0  0  0  0  0  0  0
  -27.8727  -22.4441   19.4797 C   0  0  0  0  0  0  0  0  0  0  0  0
  -24.1906   -9.5542   25.1239 C   0  0  0  0  0  0  0  0  0  0  0  0
  -26.9701  -26.5775   22.9348 C   0  0  0  0  0  0  0  0  0  0  0  0
  -22.9386   -7.6065   25.5254 C   0  0  0  0  0  0  0  0  0  0  0  0
  -21.1405   -5.6829   24.6039 C   0  0  0  0  0  0  0  0  0  0  0  0
  -23.3112   -6.2628   25.4922 C   0  0  0  0  0  0  0  0  0  0  0  0
  -25.3122  -12.6379   22.4535 C   0  0  0  0  0  0  0  0  0  0  0  0
  -29.1112  -21.8242   19.5194 C   0  0  0  0  0  0  0  0  0  0  0  0
  -28.2171  -19.8942   20.3877 C   0  0  0  0  0  0  0  0  0  0  0  0
  -25.3073  -14.2491   20.9572 C   0  0  0  0  0  0  0  0  0  0  0  0
  -23.0438  -13.3057   21.4419 C   0  0  0  0  0  0  0  0  0  0  0  0
  -23.4274  -30.4588   24.2947 C   0  0  0  0  0  0  0  0  0  0  0  0
  -25.7188  -31.7386   26.2009 C   0  0  0  0  0  0  0  0  0  0  0  0
  -28.9139  -31.5889   27.3909 C   0  0  0  0  0  0  0  0  0  0  0  0
  -29.5624  -17.8404   20.9519 C   0  0  0  0  0  0  0  0  0  0  0  0
  -18.3542  -30.7702   23.8217 C   0  0  0  0  0  0  0  0  0  0  0  0
  -24.1668  -28.4428   25.6158 C   0  0  0  0  0  0  0  0  0  0  0  0
  -26.4698  -29.9712   24.5645 C   0  0  0  0  0  0  0  0  0  0  0  0
  -19.4579  -31.6753   24.3632 C   0  0  0  0  0  0  0  0  0  0  0  0
  -30.3620  -14.3785   20.7210 C   0  0  0  0  0  0  0  0  0  0  0  0
  -20.6039  -31.7775   23.3616 C   0  0  0  0  0  0  0  0  0  0  0  0
  -29.0498  -13.6785   21.0821 C   0  0  0  0  0  0  0  0  0  0  0  0
  -30.5723  -15.6484   21.5437 C   0  0  0  0  0  0  0  0  0  0  0  0
  -28.1438  -15.9019   21.8713 C   0  0  0  0  0  0  0  0  0  0  0  0
  -21.2403  -30.4053   23.1096 C   0  0  1  0  0  0  0  0  0  0  0  0
  -24.1438  -29.9652   25.5197 C   0  0  1  0  0  0  0  0  0  0  0  0
  -27.8566  -14.6524   21.0228 C   0  0  2  0  0  0  0  0  0  0  0  0
  -25.4019  -22.3220   19.9142 C   0  0  0  0  0  0  0  0  0  0  0  0
  -30.3322  -22.5495   19.0554 C   0  0  0  0  0  0  0  0  0  0  0  0
  -30.5103  -32.7948   28.9056 C   0  0  0  0  0  0  0  0  0  0  0  0
  -26.1196  -33.8828   24.0674 C   0  0  0  0  0  0  0  0  0  0  0  0
  -28.2995  -34.4593   25.1555 C   0  0  0  0  0  0  0  0  0  0  0  0
  -26.1663  -34.7303   26.4199 C   0  0  0  0  0  0  0  0  0  0  0  0
  -29.1910  -29.2355   29.1640 C   0  0  0  0  0  0  0  0  0  0  0  0
  -27.7226  -23.8550   18.9696 C   0  0  0  0  0  0  0  0  0  0  0  0
  -28.1834  -24.9221   19.9649 C   0  0  0  0  0  0  0  0  0  0  0  0
  -27.3596  -24.9477   21.2472 C   0  0  0  0  0  0  0  0  0  1  0  0
  -27.0528  -32.4060   25.9685 C   0  0  1  0  0  0  0  0  0  0  0  0
  -29.4698  -31.6908   28.7998 C   0  0  2  0  0  0  0  0  0  0  0  0
  -26.9044  -33.8431   25.3939 C   0  0  0  0  0  0  0  0  0  0  0  0
  -26.5943  -12.9955   22.3428 N   0  0  0  0  0  0  0  0  0  0  0  0
  -29.3126  -20.5633   19.9635 N   0  0  0  0  0  0  0  0  0  0  0  0
  -26.5591  -13.9771   21.4255 N   0  0  0  0  0  0  0  0  0  0  0  0
  -25.4860  -30.5502   25.4942 N   0  0  0  0  0  0  0  0  0  0  0  0
  -29.4039  -16.5247   21.4363 N   0  0  0  0  0  0  0  0  0  0  0  0
  -25.0919  -15.2073   20.0310 N   0  0  0  0  0  0  0  0  0  0  0  0
  -22.3317  -12.3621   22.1947 N   0  0  0  0  0  0  0  0  0  0  0  0
  -28.3767  -18.5689   20.8631 N   0  0  0  0  0  0  0  0  0  0  0  0
  -22.1124  -30.0435   24.2064 N   0  0  0  0  0  0  0  0  0  0  0  0
  -27.7684  -32.3411   27.2382 N   0  0  0  0  0  0  0  0  0  0  0  0
  -30.1073  -30.4043   29.1994 N   0  3  0  0  0  0  0  0  0  0  0  0
  -22.4258  -14.0382   20.6325 O   0  0  0  0  0  0  0  0  0  0  0  0
  -24.0231  -31.1653   23.4899 O   0  0  0  0  0  0  0  0  0  0  0  0
  -24.9160  -32.2489   26.9861 O   0  0  0  0  0  0  0  0  0  0  0  0
  -29.4449  -30.9128   26.5126 O   0  0  0  0  0  0  0  0  0  0  0  0
  -30.6647  -18.2787   20.6131 O   0  0  0  0  0  0  0  0  0  0  0  0
  -23.8297   -8.5625   25.9834 O   0  0  0  0  0  0  0  0  0  0  0  0
  -27.8583  -25.9845   22.0914 O   0  0  0  0  0  0  0  0  0  1  0  0
  -20.2766   -4.7592   24.1628 F   0  0  0  0  0  0  0  0  0  0  0  0
  -24.5310   -5.8896   25.9026 F   0  0  0  0  0  0  0  0  0  0  0  0
  1  2  1  0  0  0  0
  1  5  2  0  0  0  0
  2  6  2  0  0  0  0
  3  8  2  0  0  0  0
  3 16  1  0  0  0  0
  4  9  1  0  0  0  0
  4 16  2  0  0  0  0
  5 18  1  0  0  0  0
  6 20  1  0  0  0  0
  7 10  2  0  0  0  0
  7 19  1  0  0  0  0
  8 24  1  0  0  0  0
  9 24  2  0  0  0  0
 10 25  1  0  0  0  0
 11 12  2  0  0  0  0
 11 26  1  0  0  0  0
 12 27  1  0  0  0  0
 13 21  1  0  0  0  0
 13 25  2  0  0  0  0
 14 22  2  0  0  0  0
 14 31  1  0  0  0  0
 15 27  2  0  0  0  0
 15 28  1  0  0  0  0
 16 29  1  0  0  0  0
 17 29  1  0  0  0  0
 17 32  2  0  0  0  0
 17 33  1  0  0  0  0
 18 20  2  0  0  0  0
 18 38  1  0  0  0  0
 19 21  2  0  0  0  0
 19 39  1  0  0  0  0
 20 47  1  0  0  0  0
 21 40  1  0  0  0  0
 22 23  1  0  0  0  0
 22 50  1  0  0  0  0
 23 30  2  0  0  0  0
 23 57  1  0  0  0  0
 24 79  1  0  0  0  0
 25 80  1  0  0  0  0
 26 28  2  0  0  0  0
 26 79  1  0  0  0  0
 27 81  1  0  0  0  0
 28 82  1  0  0  0  0
 29 63  2  0  0  0  0
 30 51  1  0  0  0  0
 30 64  1  0  0  0  0
 31 64  2  0  0  0  0
 31 70  1  0  0  0  0
 32 65  1  0  0  0  0
 32 68  1  0  0  0  0
 33 69  1  0  0  0  0
 33 74  2  0  0  0  0
 34 48  1  0  0  0  0
 34 71  1  0  0  0  0
 34 75  2  0  0  0  0
 35 60  1  0  0  0  0
 35 66  1  0  0  0  0
 35 76  2  0  0  0  0
 36 61  1  0  0  0  0
 36 72  1  0  0  0  0
 36 77  2  0  0  0  0
 37 67  1  0  0  0  0
 37 70  1  0  0  0  0
 37 78  2  0  0  0  0
 38 41  1  0  0  0  0
 39 48  1  0  0  0  0
 40 66  1  0  0  0  0
 41 43  1  0  0  0  0
 42 44  1  0  0  0  0
 42 45  1  0  0  0  0
 43 47  1  0  0  0  0
 44 49  1  0  0  0  0
 45 67  1  0  0  0  0
 46 49  1  0  0  0  0
 46 67  1  0  0  0  0
 47 71  1  0  0  0  0
 48 66  1  0  0  0  0
 49 65  1  0  0  0  0
 52 61  1  0  0  0  0
 53 62  1  0  0  0  0
 54 62  1  0  0  0  0
 55 62  1  0  0  0  0
 56 73  1  0  0  0  0
 57 58  1  0  0  0  0
 58 59  1  0  0  0  0
 59 80  1  0  0  0  0
 60 62  1  0  0  0  0
 60 72  1  0  0  0  0
 61 73  1  0  0  0  0
 63 65  1  0  0  0  0
M  CHG  1  73   1
M  ISO  4  37 100  59 101  70 100  80 101
M  END
> <Batch ID>
0129

> <Smiles>
CNC(C)C(=O)NC(C(=O)N1Cc2cc([101O:1][101CH2:1]CCc3c(C)cc([100NH:0][100C:0](=O)N4CCCC(n5nc(-c6ccc(Oc7ccc(F)cc7F)cc6)c(C(N)=O)c5N)C4)nc3C)ccc2CC1C(=O)NC1CCCc2ccccc21)C(C)(C)C

> <Shape>
0.275

> <Color>
0.113

> <Negative vol penalty>
0.000

$$$$

  -OEChem-04052320453D

 88 96  0     1  0  0  0  0  0999 V2000
  -28.9934  -35.9654   24.8174 C   0  0  0  0  0  0  0  0  0  0  0  0
  -28.9130  -34.5797   24.7240 C   0  0  0  0  0  0  0  0  0  0  0  0
  -24.6379   -9.0527   22.0022 C   0  0  0  0  0  0  0  0  0  0  0  0
  -23.6505   -9.2720   19.8081 C   0  0  0  0  0  0  0  0  0  0  0  0
  -27.8277  -36.7298   24.8456 C   0  0  0  0  0  0  0  0  0  0  0  0
  -27.6668  -33.9574   24.6599 C   0  0  0  0  0  0  0  0  0  0  0  0
  -27.4804  -30.3420   21.1188 C   0  0  0  0  0  0  0  0  0  0  0  0
  -23.4437   -8.5188   22.4863 C   0  0  0  0  0  0  0  0  0  0  0  0
  -22.4563   -8.7380   20.2922 C   0  0  0  0  0  0  0  0  0  0  0  0
  -28.0683  -29.1164   21.4286 C   0  0  0  0  0  0  0  0  0  0  0  0
  -21.8368   -5.5445   22.4189 C   0  0  0  0  0  0  0  0  0  0  0  0
  -21.9148   -4.4130   23.2307 C   0  0  0  0  0  0  0  0  0  0  0  0
  -25.8929  -28.2094   21.9423 C   0  0  0  0  0  0  0  0  0  0  0  0
  -20.8486   -5.6279   25.0264 C   0  0  0  0  0  0  0  0  0  0  0  0
  -24.7413   -9.4294   20.6631 C   0  0  0  0  0  0  0  0  0  0  0  0
  -27.0572   -9.2759   19.6045 C   0  0  0  0  0  0  0  0  0  0  0  0
  -26.5667  -36.1172   24.7721 C   0  0  0  0  0  0  0  0  0  0  0  0
  -26.0930  -30.5140   21.2291 C   0  0  0  0  0  0  0  0  0  0  0  0
  -26.4831  -34.7142   24.6885 C   0  0  0  0  0  0  0  0  0  0  0  0
  -25.2895  -29.4374   21.6308 C   0  0  0  0  0  0  0  0  0  0  0  0
  -22.3529   -8.3614   21.6313 C   0  0  0  0  0  0  0  0  0  0  0  0
  -27.2749  -28.0507   21.8432 C   0  0  0  0  0  0  0  0  0  0  0  0
  -21.2649   -6.7178   22.9108 C   0  0  0  0  0  0  0  0  0  0  0  0
  -21.4206   -4.4546   24.5345 C   0  0  0  0  0  0  0  0  0  0  0  0
  -20.7707   -6.7594   24.2146 C   0  0  0  0  0  0  0  0  0  0  0  0
  -25.9745   -9.9816   20.1625 C   0  0  0  0  0  0  0  0  0  0  0  0
  -27.9742  -10.2482   19.2880 C   0  0  0  0  0  0  0  0  0  0  0  0
  -24.3170  -15.2615   15.6162 C   0  0  0  0  0  0  0  0  0  0  0  0
  -24.0764  -15.7775   16.8344 C   0  0  0  0  0  0  0  0  0  0  0  0
  -27.2195   -7.8674   19.3912 C   0  0  0  0  0  0  0  0  0  0  0  0
  -24.1950  -32.3758   22.9712 C   0  0  0  0  0  0  0  0  0  0  0  0
  -21.8701  -31.0736   21.1214 C   0  0  0  0  0  0  0  0  0  0  0  0
  -20.8452  -28.4793   19.1552 C   0  0  0  0  0  0  0  0  0  0  0  0
  -27.6506  -15.9436   17.9895 C   0  0  0  0  0  0  0  0  0  0  0  0
  -25.3337  -36.9819   24.8537 C   0  0  0  0  0  0  0  0  0  0  0  0
  -25.4714  -31.8345   20.8655 C   0  0  0  0  0  0  0  0  0  0  0  0
  -23.7931  -29.5644   21.7459 C   0  0  0  0  0  0  0  0  0  0  0  0
  -25.6693  -15.2594   14.9724 C   0  0  0  0  0  0  0  0  0  0  0  0
  -24.0601  -36.2708   24.4038 C   0  0  0  0  0  0  0  0  0  0  0  0
  -29.4382  -14.6013   20.6127 C   0  0  0  0  0  0  0  0  0  0  0  0
  -23.9732  -34.8833   25.0316 C   0  0  0  0  0  0  0  0  0  0  0  0
  -28.8716  -13.1881   20.7483 C   0  0  0  0  0  0  0  0  0  0  0  0
  -26.6959  -16.1025   15.7214 C   0  0  0  0  0  0  0  0  0  0  0  0
  -28.3278  -15.6119   20.3484 C   0  0  0  0  0  0  0  0  0  0  0  0
  -26.9240  -13.8850   19.2686 C   0  0  0  0  0  0  0  0  0  0  0  0
  -25.1502  -34.0041   24.5919 C   0  0  1  0  0  0  0  0  0  0  0  0
  -25.1719  -16.3939   17.6826 C   0  0  2  0  0  0  0  0  0  0  0  0
  -24.1041  -32.0482   21.5076 C   0  0  1  0  0  0  0  0  0  0  0  0
  -28.0070  -12.8189   19.5295 C   0  0  2  0  0  0  0  0  0  0  0  0
  -21.7173  -16.5020   16.5733 C   0  0  0  0  0  0  0  0  0  0  0  0
  -22.2496  -14.2845   17.6304 C   0  0  0  0  0  0  0  0  0  0  0  0
  -18.8807  -27.6811   17.8132 C   0  0  0  0  0  0  0  0  0  0  0  0
  -20.4281  -30.3002   23.6968 C   0  0  0  0  0  0  0  0  0  0  0  0
  -19.0221  -28.7231   22.3537 C   0  0  0  0  0  0  0  0  0  0  0  0
  -18.9374  -31.1724   21.8880 C   0  0  0  0  0  0  0  0  0  0  0  0
  -22.4151  -28.4701   16.6464 C   0  0  0  0  0  0  0  0  0  0  0  0
  -25.0524  -17.9223   17.7433 C   0  0  0  0  0  0  0  0  0  0  0  0
  -26.1835  -18.5238   18.5698 C   0  0  0  0  0  0  0  0  0  0  0  0
  -26.0725  -20.0439   18.7195 C   0  0  0  0  0  0  0  0  0  0  0  0
  -27.2175  -20.6615   19.5269 C   0  0  0  0  0  0  0  0  0  0  0  0
  -27.0390  -22.1758   19.6672 C   0  0  0  0  0  0  0  0  0  0  0  0
  -28.1637  -22.8513   20.4574 C   0  0  0  0  0  0  0  0  0  0  0  0
  -27.9985  -24.3684   20.5767 C   0  0  0  0  0  0  0  0  0  0  0  0
  -29.1695  -24.9934   21.3426 C   0  0  0  0  0  0  0  0  0  0  0  0
  -29.0424  -26.5079   21.4539 C   0  0  0  0  0  0  0  0  0  1  0  0
  -22.7025  -15.7283   17.4412 C   0  0  0  0  0  0  0  0  0  0  0  0
  -20.9868  -29.8530   21.2161 C   0  0  1  0  0  0  0  0  0  0  0  0
  -20.1922  -28.4506   17.7851 C   0  0  2  0  0  0  0  0  0  0  0  0
  -19.8720  -30.0100   22.2884 C   0  0  0  0  0  0  0  0  0  0  0  0
  -26.1829  -11.3003   20.2000 N   0  0  0  0  0  0  0  0  0  0  0  0
  -27.4072  -11.4311   19.6615 N   0  0  0  0  0  0  0  0  0  0  0  0
  -23.2331  -30.8774   21.3854 N   0  0  0  0  0  0  0  0  0  0  0  0
  -27.5281  -15.2236   19.1874 N   0  0  0  0  0  0  0  0  0  0  0  0
  -26.5093  -15.9990   17.1689 N   0  0  0  0  0  0  0  0  0  0  0  0
  -29.2023  -10.1982   18.7296 N   0  0  0  0  0  0  0  0  0  0  0  0
  -26.1796   -7.0094   19.7743 N   0  0  0  0  0  0  0  0  0  0  0  0
  -24.9366  -33.5081   23.2493 N   0  0  0  0  0  0  0  0  0  0  0  0
  -20.4882  -29.6045   19.8677 N   0  0  0  0  0  0  0  0  0  0  0  0
  -21.0964  -27.8021   16.7938 N   0  3  0  0  0  0  0  0  0  0  0  0
  -28.2628   -7.3825   18.8912 O   0  0  0  0  0  0  0  0  0  0  0  0
  -23.6326  -31.6554   23.7876 O   0  0  0  0  0  0  0  0  0  0  0  0
  -21.3704  -32.1596   20.8172 O   0  0  0  0  0  0  0  0  0  0  0  0
  -21.5941  -27.5904   19.5549 O   0  0  0  0  0  0  0  0  0  0  0  0
  -28.7092  -16.4969   17.6682 O   0  0  0  0  0  0  0  0  0  0  0  0
  -21.1876   -7.8401   22.1033 O   0  0  0  0  0  0  0  0  0  0  0  0
  -27.8506  -26.8445   22.1492 O   0  0  0  0  0  0  0  0  0  1  0  0
  -21.4941   -3.3674   25.3135 F   0  0  0  0  0  0  0  0  0  0  0  0
  -20.2191   -7.8834   24.6923 F   0  0  0  0  0  0  0  0  0  0  0  0
  1  2  1  0  0  0  0
  1  5  2  0  0  0  0
  2  6  2  0  0  0  0
  3  8  2  0  0  0  0
  3 15  1  0  0  0  0
  4  9  1  0  0  0  0
  4 15  2  0  0  0  0
  5 17  1  0  0  0  0
  6 19  1  0  0  0  0
  7 10  2  0  0  0  0
  7 18  1  0  0  0  0
  8 21  1  0  0  0  0
  9 21  2  0  0  0  0
 10 22  1  0  0  0  0
 11 12  2  0  0  0  0
 11 23  1  0  0  0  0
 12 24  1  0  0  0  0
 13 20  1  0  0  0  0
 13 22  2  0  0  0  0
 14 24  2  0  0  0  0
 14 25  1  0  0  0  0
 15 26  1  0  0  0  0
 16 26  1  0  0  0  0
 16 27  2  0  0  0  0
 16 30  1  0  0  0  0
 17 19  2  0  0  0  0
 17 35  1  0  0  0  0
 18 20  2  0  0  0  0
 18 36  1  0  0  0  0
 19 46  1  0  0  0  0
 20 37  1  0  0  0  0
 21 85  1  0  0  0  0
 22 86  1  0  0  0  0
 23 25  2  0  0  0  0
 23 85  1  0  0  0  0
 24 87  1  0  0  0  0
 25 88  1  0  0  0  0
 26 70  2  0  0  0  0
 27 71  1  0  0  0  0
 27 75  1  0  0  0  0
 28 29  2  0  0  0  0
 28 38  1  0  0  0  0
 29 47  1  0  0  0  0
 29 66  1  0  0  0  0
 30 76  1  0  0  0  0
 30 80  2  0  0  0  0
 31 48  1  0  0  0  0
 31 77  1  0  0  0  0
 31 81  2  0  0  0  0
 32 67  1  0  0  0  0
 32 72  1  0  0  0  0
 32 82  2  0  0  0  0
 33 68  1  0  0  0  0
 33 78  1  0  0  0  0
 33 83  2  0  0  0  0
 34 73  1  0  0  0  0
 34 74  1  0  0  0  0
 34 84  2  0  0  0  0
 35 39  1  0  0  0  0
 36 48  1  0  0  0  0
 37 72  1  0  0  0  0
 38 43  1  0  0  0  0
 39 41  1  0  0  0  0
 40 42  1  0  0  0  0
 40 44  1  0  0  0  0
 41 46  1  0  0  0  0
 42 49  1  0  0  0  0
 43 74  1  0  0  0  0
 44 73  1  0  0  0  0
 45 49  1  0  0  0  0
 45 73  1  0  0  0  0
 46 77  1  0  0  0  0
 47 57  1  0  0  0  0
 47 74  1  0  0  0  0
 48 72  1  0  0  0  0
 49 71  1  0  0  0  0
 50 66  1  0  0  0  0
 51 66  1  0  0  0  0
 52 68  1  0  0  0  0
 53 69  1  0  0  0  0
 54 69  1  0  0  0  0
 55 69  1  0  0  0  0
 56 79  1  0  0  0  0
 57 58  1  0  0  0  0
 58 59  1  0  0  0  0
 59 60  1  0  0  0  0
 60 61  1  0  0  0  0
 61 62  1  0  0  0  0
 62 63  1  0  0  0  0
 63 64  1  0  0  0  0
 64 65  1  0  0  0  0
 65 86  1  0  0  0  0
 67 69  1  0  0  0  0
 67 78  1  0  0  0  0
 68 79  1  0  0  0  0
 70 71  1  0  0  0  0
M  CHG  1  79   1
M  ISO  4  34 100  65 101  74 100  86 101
M  END
> <Batch ID>
0129

> <Smiles>
CNC(C)C(=O)NC(C(=O)N1Cc2cc([101O:1][101CH2:1]CCCCCCCCC3C(C(C)C)=CCC[100N:0]3[100C:0](=O)N3CCCC(n4nc(-c5ccc(Oc6ccc(F)cc6F)cc5)c(C(N)=O)c4N)C3)ccc2CC1C(=O)NC1CCCc2ccccc21)C(C)(C)C

> <Shape>
0.268

> <Color>
0.084

> <Negative vol penalty>
0.000

$$$$

  -OEChem-04052320453D

 88 97  0     1  0  0  0  0  0999 V2000
  -29.2872  -35.4215   24.9100 C   0  0  0  0  0  0  0  0  0  0  0  0
  -29.4692  -34.1817   24.3059 C   0  0  0  0  0  0  0  0  0  0  0  0
  -27.8116   -6.6940   18.1508 C   0  0  0  0  0  0  0  0  0  0  0  0
  -27.9970   -8.2537   16.3151 C   0  0  0  0  0  0  0  0  0  0  0  0
  -28.0632  -35.7357   25.4991 C   0  0  0  0  0  0  0  0  0  0  0  0
  -28.4275  -33.2548   24.2914 C   0  0  0  0  0  0  0  0  0  0  0  0
  -27.1279  -29.2462   19.8475 C   0  0  0  0  0  0  0  0  0  0  0  0
  -27.6584   -5.6451   17.2442 C   0  0  0  0  0  0  0  0  0  0  0  0
  -27.8439   -7.2048   15.4084 C   0  0  0  0  0  0  0  0  0  0  0  0
  -27.4163  -27.8909   19.6930 C   0  0  0  0  0  0  0  0  0  0  0  0
  -27.1418   -4.9882   12.6149 C   0  0  0  0  0  0  0  0  0  0  0  0
  -26.2737   -5.1816   11.5404 C   0  0  0  0  0  0  0  0  0  0  0  0
  -25.2439  -27.3336   20.5815 C   0  0  0  0  0  0  0  0  0  0  0  0
  -27.2446  -23.0893   18.4421 C   0  0  0  0  0  0  0  0  0  0  0  0
  -29.1539  -23.1082   19.9222 C   0  0  0  0  0  0  0  0  0  0  0  0
  -24.4463   -5.5361   13.0805 C   0  0  0  0  0  0  0  0  0  0  0  0
  -27.9808   -7.9983   17.6863 C   0  0  0  0  0  0  0  0  0  0  0  0
  -29.3436   -9.5724   19.1603 C   0  0  0  0  0  0  0  0  0  0  0  0
  -27.0029  -34.8159   25.4834 C   0  0  0  0  0  0  0  0  0  0  0  0
  -25.8975  -29.6557   20.3812 C   0  0  0  0  0  0  0  0  0  0  0  0
  -27.1886  -33.5565   24.8820 C   0  0  0  0  0  0  0  0  0  0  0  0
  -24.9413  -28.6947   20.7393 C   0  0  0  0  0  0  0  0  0  0  0  0
  -28.1456  -23.7915   19.2425 C   0  0  0  0  0  0  0  0  0  0  0  0
  -27.3519  -21.7038   18.3214 C   0  0  0  0  0  0  0  0  0  0  0  0
  -29.2613  -21.7227   19.8015 C   0  0  0  0  0  0  0  0  0  0  0  0
  -28.3603  -21.0205   19.0010 C   0  0  0  0  0  0  0  0  0  0  0  0
  -27.6746   -5.9005   15.8730 C   0  0  0  0  0  0  0  0  0  0  0  0
  -26.4754  -26.9343   20.0627 C   0  0  0  0  0  0  0  0  0  0  0  0
  -26.6621   -5.0687   13.9223 C   0  0  0  0  0  0  0  0  0  0  0  0
  -24.9260   -5.4556   11.7732 C   0  0  0  0  0  0  0  0  0  0  0  0
  -25.3144   -5.3426   14.1551 C   0  0  0  0  0  0  0  0  0  0  0  0
  -28.1385   -9.0823   18.6223 C   0  0  0  0  0  0  0  0  0  0  0  0
  -28.9577  -10.5965   19.9903 C   0  0  0  0  0  0  0  0  0  0  0  0
  -30.6913   -9.1407   18.9302 C   0  0  0  0  0  0  0  0  0  0  0  0
  -25.0012  -31.2796   22.9626 C   0  0  0  0  0  0  0  0  0  0  0  0
  -22.0650  -31.0639   21.6007 C   0  0  0  0  0  0  0  0  0  0  0  0
  -19.9737  -29.4097   19.4707 C   0  0  0  0  0  0  0  0  0  0  0  0
  -25.7212  -15.2376   20.4826 C   0  0  0  0  0  0  0  0  0  0  0  0
  -25.7135  -35.1826   26.1746 C   0  0  0  0  0  0  0  0  0  0  0  0
  -25.5913  -31.1221   20.5166 C   0  0  0  0  0  0  0  0  0  0  0  0
  -23.5976  -29.0828   21.2982 C   0  0  0  0  0  0  0  0  0  0  0  0
  -24.5390  -34.2876   25.7874 C   0  0  0  0  0  0  0  0  0  0  0  0
  -24.3952  -11.9794   21.6524 C   0  0  0  0  0  0  0  0  0  0  0  0
  -29.3633  -15.2937   21.3606 C   0  0  0  0  0  0  0  0  0  0  0  0
  -24.9507  -32.8194   25.8276 C   0  0  0  0  0  0  0  0  0  0  0  0
  -25.3088  -10.9795   20.9453 C   0  0  0  0  0  0  0  0  0  0  0  0
  -29.6807  -16.7763   21.1699 C   0  0  0  0  0  0  0  0  0  0  0  0
  -24.2646  -13.2813   20.8679 C   0  0  0  0  0  0  0  0  0  0  0  0
  -27.9017  -15.0871   21.7451 C   0  0  0  0  0  0  0  0  0  0  0  0
  -26.4840  -12.9202   19.8359 C   0  0  0  0  0  0  0  0  0  0  0  0
  -27.2488  -17.1767   20.5890 C   0  0  0  0  0  0  0  0  0  0  0  0
  -26.0745  -32.5339   24.8242 C   0  0  1  0  0  0  0  0  0  0  0  0
  -24.5073  -31.4133   21.5498 C   0  0  1  0  0  0  0  0  0  0  0  0
  -26.6721  -11.6160   20.6248 C   0  0  2  0  0  0  0  0  0  0  0  0
  -28.7014  -17.4065   20.1827 C   0  0  1  0  0  0  0  0  0  0  0  0
  -26.3751  -20.9755   17.4569 C   0  0  0  0  0  0  0  0  0  0  0  0
  -30.3501  -21.0145   20.5397 C   0  0  0  0  0  0  0  0  0  0  0  0
  -29.4009  -19.0985   17.7300 C   0  0  0  0  0  0  0  0  0  0  0  0
  -17.6226  -29.4465   18.5943 C   0  0  0  0  0  0  0  0  0  0  0  0
  -21.0676  -29.8890   24.2340 C   0  0  0  0  0  0  0  0  0  0  0  0
  -19.0297  -29.0842   23.0227 C   0  0  0  0  0  0  0  0  0  0  0  0
  -19.5093  -31.5280   23.1663 C   0  0  0  0  0  0  0  0  0  0  0  0
  -20.8945  -29.8072   16.6862 C   0  0  0  0  0  0  0  0  0  0  0  0
  -28.0304  -25.2727   19.3722 C   0  0  0  0  0  0  0  0  0  1  0  0
  -28.4766  -19.5194   18.8697 C   0  0  1  0  0  0  0  0  0  0  0  0
  -20.9281  -30.0727   21.6625 C   0  0  1  0  0  0  0  0  0  0  0  0
  -19.0538  -29.9098   18.3715 C   0  0  2  0  0  0  0  0  0  0  0  0
  -20.1597  -30.1358   23.0127 C   0  0  0  0  0  0  0  0  0  0  0  0
  -27.0673   -9.7407   19.0729 N   0  0  0  0  0  0  0  0  0  0  0  0
  -27.5979  -10.6549   19.9027 N   0  0  0  0  0  0  0  0  0  0  0  0
  -23.3479  -30.5288   21.4173 N   0  0  0  0  0  0  0  0  0  0  0  0
  -25.5738  -13.8413   20.5322 N   0  0  0  0  0  0  0  0  0  0  0  0
  -26.9893  -15.7508   20.8027 N   0  0  0  0  0  0  0  0  0  0  0  0
  -29.6523  -11.4435   20.7792 N   0  0  0  0  0  0  0  0  0  0  0  0
  -30.9098   -8.0744   18.0472 N   0  0  0  0  0  0  0  0  0  0  0  0
  -25.5418  -32.4405   23.4818 N   0  0  0  0  0  0  0  0  0  0  0  0
  -20.0984  -30.3296   20.4903 N   0  0  0  0  0  0  0  0  0  0  0  0
  -28.9569  -18.8696   20.1181 N   0  3  0  0  0  0  0  0  0  0  0  0
  -19.5099  -29.4060   17.0452 N   0  3  0  0  0  0  0  0  0  0  0  0
  -31.6715   -9.6737   19.5035 O   0  0  0  0  0  0  0  0  0  0  0  0
  -24.8980  -30.2034   23.5394 O   0  0  0  0  0  0  0  0  0  0  0  0
  -21.8230  -32.2691   21.7039 O   0  0  0  0  0  0  0  0  0  0  0  0
  -20.5235  -28.3112   19.4307 O   0  0  0  0  0  0  0  0  0  0  0  0
  -24.7811  -15.9789   20.1704 O   0  0  0  0  0  0  0  0  0  0  0  0
  -27.5254   -4.8772   14.9880 O   0  0  0  0  0  0  0  0  0  0  0  0
  -26.7565  -25.6017   19.9125 O   0  0  0  0  0  0  0  0  0  1  0  0
  -24.0928   -5.6428   10.7412 F   0  0  0  0  0  0  0  0  0  0  0  0
  -24.8480   -5.4224   15.4088 F   0  0  0  0  0  0  0  0  0  0  0  0
  1  2  1  0  0  0  0
  1  5  2  0  0  0  0
  2  6  2  0  0  0  0
  3  8  2  0  0  0  0
  3 17  1  0  0  0  0
  4  9  1  0  0  0  0
  4 17  2  0  0  0  0
  5 19  1  0  0  0  0
  6 21  1  0  0  0  0
  7 10  2  0  0  0  0
  7 20  1  0  0  0  0
  8 27  1  0  0  0  0
  9 27  2  0  0  0  0
 10 28  1  0  0  0  0
 11 12  2  0  0  0  0
 11 29  1  0  0  0  0
 12 30  1  0  0  0  0
 13 22  1  0  0  0  0
 13 28  2  0  0  0  0
 14 23  1  0  0  0  0
 14 24  2  0  0  0  0
 15 23  2  0  0  0  0
 15 25  1  0  0  0  0
 16 30  2  0  0  0  0
 16 31  1  0  0  0  0
 17 32  1  0  0  0  0
 18 32  1  0  0  0  0
 18 33  2  0  0  0  0
 18 34  1  0  0  0  0
 19 21  2  0  0  0  0
 19 39  1  0  0  0  0
 20 22  2  0  0  0  0
 20 40  1  0  0  0  0
 21 52  1  0  0  0  0
 22 41  1  0  0  0  0
 23 64  1  0  0  0  0
 24 26  1  0  0  0  0
 24 56  1  0  0  0  0
 25 26  2  0  0  0  0
 25 57  1  0  0  0  0
 26 65  1  0  0  0  0
 27 85  1  0  0  0  0
 28 86  1  0  0  0  0
 29 31  2  0  0  0  0
 29 85  1  0  0  0  0
 30 87  1  0  0  0  0
 31 88  1  0  0  0  0
 32 69  2  0  0  0  0
 33 70  1  0  0  0  0
 33 74  1  0  0  0  0
 34 75  1  0  0  0  0
 34 80  2  0  0  0  0
 35 53  1  0  0  0  0
 35 76  1  0  0  0  0
 35 81  2  0  0  0  0
 36 66  1  0  0  0  0
 36 71  1  0  0  0  0
 36 82  2  0  0  0  0
 37 67  1  0  0  0  0
 37 77  1  0  0  0  0
 37 83  2  0  0  0  0
 38 72  1  0  0  0  0
 38 73  1  0  0  0  0
 38 84  2  0  0  0  0
 39 42  1  0  0  0  0
 40 53  1  0  0  0  0
 41 71  1  0  0  0  0
 42 45  1  0  0  0  0
 43 46  1  0  0  0  0
 43 48  1  0  0  0  0
 44 47  1  0  0  0  0
 44 49  1  0  0  0  0
 45 52  1  0  0  0  0
 46 54  1  0  0  0  0
 47 55  1  0  0  0  0
 48 72  1  0  0  0  0
 49 73  1  0  0  0  0
 50 54  1  0  0  0  0
 50 72  1  0  0  0  0
 51 55  1  0  0  0  0
 51 73  1  0  0  0  0
 52 76  1  0  0  0  0
 53 71  1  0  0  0  0
 54 70  1  0  0  0  0
 55 78  1  0  0  0  0
 58 65  1  0  0  0  0
 59 67  1  0  0  0  0
 60 68  1  0  0  0  0
 61 68  1  0  0  0  0
 62 68  1  0  0  0  0
 63 79  1  0  0  0  0
 64 86  1  0  0  0  0
 65 78  1  0  0  0  0
 66 68  1  0  0  0  0
 66 77  1  0  0  0  0
 67 79  1  0  0  0  0
 69 70  1  0  0  0  0
M  CHG  2  78   1  79   1
M  ISO  4  38 100  64 101  73 100  86 101
M  END
> <Batch ID>
0129

> <Smiles>
CNC(C)C(=O)NC(C(=O)N1Cc2cc([101O:1][101CH2:1]c3cc(C)c(C(C)NC4CCC[100N:0]([100C:0](=O)N5CCCC(n6nc(-c7ccc(Oc8ccc(F)cc8F)cc7)c(C(N)=O)c6N)C5)C4)c(C)c3)ccc2CC1C(=O)NC1CCCc2ccccc21)C(C)(C)C

> <Shape>
0.250

> <Color>
0.063

> <Negative vol penalty>
0.000

$$$$

  -OEChem-04052320453D

 84 93  0     1  0  0  0  0  0999 V2000
  -34.7958  -26.9461   12.0291 C   0  0  0  0  0  0  0  0  0  0  0  0
  -34.3304  -26.2306   13.1277 C   0  0  0  0  0  0  0  0  0  0  0  0
  -23.0742   -9.8571   19.9403 C   0  0  0  0  0  0  0  0  0  0  0  0
  -23.8323   -9.8708   22.2343 C   0  0  0  0  0  0  0  0  0  0  0  0
  -34.6558  -28.3328   11.9916 C   0  0  0  0  0  0  0  0  0  0  0  0
  -33.7257  -26.9016   14.1900 C   0  0  0  0  0  0  0  0  0  0  0  0
  -29.4999  -24.6098   15.7822 C   0  0  0  0  0  0  0  0  0  0  0  0
  -22.3562   -8.6865   20.1846 C   0  0  0  0  0  0  0  0  0  0  0  0
  -23.1143   -8.7002   22.4786 C   0  0  0  0  0  0  0  0  0  0  0  0
  -29.6519  -23.4834   16.5897 C   0  0  0  0  0  0  0  0  0  0  0  0
  -23.4798   -5.3881   21.9066 C   0  0  0  0  0  0  0  0  0  0  0  0
  -24.1177   -4.3736   22.6204 C   0  0  0  0  0  0  0  0  0  0  0  0
  -29.2149  -24.8314   18.5419 C   0  0  0  0  0  0  0  0  0  0  0  0
  -22.4117   -4.5014   24.3264 C   0  0  0  0  0  0  0  0  0  0  0  0
  -31.4240  -18.5330   20.1081 C   0  0  0  0  0  0  0  0  0  0  0  0
  -23.8123  -10.4493   20.9652 C   0  0  0  0  0  0  0  0  0  0  0  0
  -24.0976  -12.9820   20.8567 C   0  0  0  0  0  0  0  0  0  0  0  0
  -34.0404  -29.0201   13.0497 C   0  0  0  0  0  0  0  0  0  0  0  0
  -29.2145  -25.8596   16.3504 C   0  0  0  0  0  0  0  0  0  0  0  0
  -33.5785  -28.2990   14.1672 C   0  0  0  0  0  0  0  0  0  0  0  0
  -29.0572  -25.9716   17.7392 C   0  0  0  0  0  0  0  0  0  0  0  0
  -30.4060  -18.1491   20.9693 C   0  0  0  0  0  0  0  0  0  0  0  0
  -29.0015  -19.8349   19.9750 C   0  0  0  0  0  0  0  0  0  0  0  0
  -29.1834  -18.8099   20.8985 C   0  0  0  0  0  0  0  0  0  0  0  0
  -22.3762   -8.1081   21.4537 C   0  0  0  0  0  0  0  0  0  0  0  0
  -29.5123  -23.5947   17.9700 C   0  0  0  0  0  0  0  0  0  0  0  0
  -22.3080   -5.9593   22.4027 C   0  0  0  0  0  0  0  0  0  0  0  0
  -23.5836   -3.9302   23.8303 C   0  0  0  0  0  0  0  0  0  0  0  0
  -21.7739   -5.5160   23.6126 C   0  0  0  0  0  0  0  0  0  0  0  0
  -24.5547  -11.6582   20.7133 C   0  0  0  0  0  0  0  0  0  0  0  0
  -30.0551  -20.1763   19.1391 C   0  0  0  0  0  0  0  0  0  0  0  0
  -25.1730  -13.7573   20.4976 C   0  0  0  0  0  0  0  0  0  0  0  0
  -22.8156  -13.4673   21.2770 C   0  0  0  0  0  0  0  0  0  0  0  0
  -30.6974  -28.6693   16.4509 C   0  0  0  0  0  0  0  0  0  0  0  0
  -27.9491  -29.6295   17.8817 C   0  0  0  0  0  0  0  0  0  0  0  0
  -25.1665  -28.7884   19.6696 C   0  0  0  0  0  0  0  0  0  0  0  0
  -30.6324  -14.8980   20.6945 C   0  0  0  0  0  0  0  0  0  0  0  0
  -33.9542  -30.5245   12.9854 C   0  0  0  0  0  0  0  0  0  0  0  0
  -29.0270  -27.0598   15.4634 C   0  0  0  0  0  0  0  0  0  0  0  0
  -28.7308  -27.2867   18.3969 C   0  0  0  0  0  0  0  0  0  0  0  0
  -32.9649  -31.1211   13.9832 C   0  0  0  0  0  0  0  0  0  0  0  0
  -29.5500  -12.4994   18.2963 C   0  0  0  0  0  0  0  0  0  0  0  0
  -33.1573  -30.4988   15.3626 C   0  0  0  0  0  0  0  0  0  0  0  0
  -28.1192  -12.1716   18.7268 C   0  0  0  0  0  0  0  0  0  0  0  0
  -27.4362  -19.0222   24.1579 C   0  0  0  0  0  0  0  0  0  0  0  0
  -28.3675  -20.1011   23.6899 C   0  0  0  0  0  0  0  0  0  0  0  0
  -30.4612  -12.7353   19.4988 C   0  0  0  0  0  0  0  0  0  0  0  0
  -28.5427  -13.4174   20.8873 C   0  0  0  0  0  0  0  0  0  0  0  0
  -32.8947  -28.9884   15.3279 C   0  0  1  0  0  0  0  0  0  0  0  0
  -29.2454  -28.3818   16.1928 C   0  0  1  0  0  0  0  0  0  0  0  0
  -27.5734  -13.2263   19.7082 C   0  0  2  0  0  0  0  0  0  0  0  0
  -27.5345  -19.3450   22.6931 C   0  0  0  0  0  0  0  0  0  0  0  0
  -27.6985  -20.5590   19.8779 C   0  0  0  0  0  0  0  0  0  0  0  0
  -23.1240  -29.7949   20.7243 C   0  0  0  0  0  0  0  0  0  0  0  0
  -29.6614  -30.7025   20.1679 C   0  0  0  0  0  0  0  0  0  0  0  0
  -27.5915  -30.8168   21.5718 C   0  0  0  0  0  0  0  0  0  0  0  0
  -27.7664  -32.1901   19.4967 C   0  0  0  0  0  0  0  0  0  0  0  0
  -23.3544  -27.1836   17.9667 C   0  0  0  0  0  0  0  0  0  0  0  0
  -30.6493  -17.0440   21.9411 C   0  0  0  0  0  0  0  0  0  0  0  0
  -29.9593  -21.2630   18.1089 C   0  0  0  0  0  0  0  0  0  1  0  0
  -27.4491  -29.6892   19.3048 C   0  0  1  0  0  0  0  0  0  0  0  0
  -23.7023  -29.1408   19.4791 C   0  0  2  0  0  0  0  0  0  0  0  0
  -28.1252  -30.8251   20.1234 C   0  0  0  0  0  0  0  0  0  0  0  0
  -25.8217  -11.5926   20.2956 N   0  0  0  0  0  0  0  0  0  0  0  0
  -26.1698  -12.8849   20.1733 N   0  0  0  0  0  0  0  0  0  0  0  0
  -31.2219  -19.5234   19.2284 N   0  3  0  0  0  0  0  0  0  0  0  0
  -28.5634  -28.4324   17.4876 N   0  0  0  0  0  0  0  0  0  0  0  0
  -29.8872  -13.7473   20.3890 N   0  0  0  0  0  0  0  0  0  0  0  0
  -25.3535  -15.0935   20.4307 N   0  0  0  0  0  0  0  0  0  0  0  0
  -21.8241  -12.5342   21.6095 N   0  0  0  0  0  0  0  0  0  0  0  0
  -28.1282  -18.4379   21.7632 N   0  0  0  0  0  0  0  0  0  0  0  0
  -31.4722  -28.7230   15.3079 N   0  0  0  0  0  0  0  0  0  0  0  0
  -25.9963  -29.7950   19.2229 N   0  0  0  0  0  0  0  0  0  0  0  0
  -30.0121  -15.8094   21.5403 N   0  0  0  0  0  0  0  0  0  0  0  0
  -22.9091  -27.9149   19.1808 N   0  3  0  0  0  0  0  0  0  0  0  0
  -22.5519  -14.6921   21.3397 O   0  0  0  0  0  0  0  0  0  0  0  0
  -31.0859  -28.8320   17.6017 O   0  0  0  0  0  0  0  0  0  0  0  0
  -27.7939  -30.6064   17.1447 O   0  0  0  0  0  0  0  0  0  0  0  0
  -25.5371  -27.7280   20.1683 O   0  0  0  0  0  0  0  0  0  0  0  0
  -31.7644  -15.1009   20.2425 O   0  0  0  0  0  0  0  0  0  0  0  0
  -21.6755   -6.9659   21.6924 O   0  0  0  0  0  0  0  0  0  0  0  0
  -29.6609  -22.4970   18.7605 O   0  0  0  0  0  0  0  0  0  1  0  0
  -24.1954   -2.9549   24.5149 F   0  0  0  0  0  0  0  0  0  0  0  0
  -20.6477   -6.0601   24.0937 F   0  0  0  0  0  0  0  0  0  0  0  0
  1  2  1  0  0  0  0
  1  5  2  0  0  0  0
  2  6  2  0  0  0  0
  3  8  2  0  0  0  0
  3 16  1  0  0  0  0
  4  9  1  0  0  0  0
  4 16  2  0  0  0  0
  5 18  1  0  0  0  0
  6 20  1  0  0  0  0
  7 10  2  0  0  0  0
  7 19  1  0  0  0  0
  8 25  1  0  0  0  0
  9 25  2  0  0  0  0
 10 26  1  0  0  0  0
 11 12  2  0  0  0  0
 11 27  1  0  0  0  0
 12 28  1  0  0  0  0
 13 21  1  0  0  0  0
 13 26  2  0  0  0  0
 14 28  2  0  0  0  0
 14 29  1  0  0  0  0
 15 22  1  0  0  0  0
 15 66  2  0  0  0  0
 16 30  1  0  0  0  0
 17 30  1  0  0  0  0
 17 32  2  0  0  0  0
 17 33  1  0  0  0  0
 18 20  2  0  0  0  0
 18 38  1  0  0  0  0
 19 21  2  0  0  0  0
 19 39  1  0  0  0  0
 20 49  1  0  0  0  0
 21 40  1  0  0  0  0
 22 24  2  0  0  0  0
 22 59  1  0  0  0  0
 23 24  1  0  0  0  0
 23 31  2  0  0  0  0
 23 53  1  0  0  0  0
 24 71  1  0  0  0  0
 25 81  1  0  0  0  0
 26 82  1  0  0  0  0
 27 29  2  0  0  0  0
 27 81  1  0  0  0  0
 28 83  1  0  0  0  0
 29 84  1  0  0  0  0
 30 64  2  0  0  0  0
 31 60  1  0  0  0  0
 31 66  1  0  0  0  0
 32 65  1  0  0  0  0
 32 69  1  0  0  0  0
 33 70  1  0  0  0  0
 33 76  2  0  0  0  0
 34 50  1  0  0  0  0
 34 72  1  0  0  0  0
 34 77  2  0  0  0  0
 35 61  1  0  0  0  0
 35 67  1  0  0  0  0
 35 78  2  0  0  0  0
 36 62  1  0  0  0  0
 36 73  1  0  0  0  0
 36 79  2  0  0  0  0
 37 68  1  0  0  0  0
 37 74  1  0  0  0  0
 37 80  2  0  0  0  0
 38 41  1  0  0  0  0
 39 50  1  0  0  0  0
 40 67  1  0  0  0  0
 41 43  1  0  0  0  0
 42 44  1  0  0  0  0
 42 47  1  0  0  0  0
 43 49  1  0  0  0  0
 44 51  1  0  0  0  0
 45 46  1  0  0  0  0
 45 52  1  0  0  0  0
 46 52  1  0  0  0  0
 47 68  1  0  0  0  0
 48 51  1  0  0  0  0
 48 68  1  0  0  0  0
 49 72  1  0  0  0  0
 50 67  1  0  0  0  0
 51 65  1  0  0  0  0
 52 71  1  0  0  0  0
 54 62  1  0  0  0  0
 55 63  1  0  0  0  0
 56 63  1  0  0  0  0
 57 63  1  0  0  0  0
 58 75  1  0  0  0  0
 59 74  1  0  0  0  0
 60 82  1  0  0  0  0
 61 63  1  0  0  0  0
 61 73  1  0  0  0  0
 62 75  1  0  0  0  0
 64 65  1  0  0  0  0
M  CHG  2  66   1  75   1
M  ISO  4  37 100  60 101  74 100  82 101
M  END
> <Batch ID>
0129

> <Smiles>
CNC(C)C(=O)NC(C(=O)N1Cc2cc([101O:1][101CH2:1]c3ncc(C[100NH:0][100C:0](=O)N4CCCC(n5nc(-c6ccc(Oc7ccc(F)cc7F)cc6)c(C(N)=O)c5N)C4)c(NC4CC4)c3C)ccc2CC1C(=O)NC1CCCc2ccccc21)C(C)(C)C

> <Shape>
0.284

> <Color>
0.205

> <Negative vol penalty>
0.000

$$$$

  -OEChem-04052320453D

 89 98  0     1  0  0  0  0  0999 V2000
  -22.6501  -23.4134   19.0230 C   0  0  0  0  0  0  0  0  0  0  0  0
  -23.8239  -22.6969   19.2334 C   0  0  0  0  0  0  0  0  0  0  0  0
  -20.4030  -27.7098   23.4219 C   0  0  0  0  0  0  0  0  0  0  0  0
  -19.9804  -26.7257   21.2563 C   0  0  0  0  0  0  0  0  0  0  0  0
  -21.4559  -22.9760   19.5943 C   0  0  0  0  0  0  0  0  0  0  0  0
  -23.8043  -21.5431   20.0162 C   0  0  0  0  0  0  0  0  0  0  0  0
  -26.4176  -17.7380   17.9338 C   0  0  0  0  0  0  0  0  0  0  0  0
  -19.0507  -28.0304   23.5402 C   0  0  0  0  0  0  0  0  0  0  0  0
  -18.6280  -27.0462   21.3745 C   0  0  0  0  0  0  0  0  0  0  0  0
  -27.8064  -17.7825   18.0471 C   0  0  0  0  0  0  0  0  0  0  0  0
  -16.9423  -30.4018   22.3758 C   0  0  0  0  0  0  0  0  0  0  0  0
  -16.6173  -31.6789   22.8327 C   0  0  0  0  0  0  0  0  0  0  0  0
  -27.7012  -16.2171   19.8794 C   0  0  0  0  0  0  0  0  0  0  0  0
  -30.5362  -23.5598   19.3824 C   0  0  0  0  0  0  0  0  0  0  0  0
  -32.1128  -24.3852   21.0004 C   0  0  0  0  0  0  0  0  0  0  0  0
  -15.4465  -30.7092   24.7105 C   0  0  0  0  0  0  0  0  0  0  0  0
  -20.8679  -27.0575   22.2799 C   0  0  0  0  0  0  0  0  0  0  0  0
  -22.8972  -25.5396   22.5727 C   0  0  0  0  0  0  0  0  0  0  0  0
  -21.4197  -21.8109   20.3765 C   0  0  0  0  0  0  0  0  0  0  0  0
  -25.6580  -16.9397   18.8011 C   0  0  0  0  0  0  0  0  0  0  0  0
  -22.6087  -21.0904   20.5996 C   0  0  0  0  0  0  0  0  0  0  0  0
  -26.3030  -16.1622   19.7735 C   0  0  0  0  0  0  0  0  0  0  0  0
  -31.4932  -23.3169   20.3614 C   0  0  0  0  0  0  0  0  0  0  0  0
  -18.1632  -27.6986   22.5165 C   0  0  0  0  0  0  0  0  0  0  0  0
  -28.4483  -17.0242   19.0218 C   0  0  0  0  0  0  0  0  0  0  0  0
  -16.5193  -29.2783   23.0862 C   0  0  0  0  0  0  0  0  0  0  0  0
  -15.8694  -31.8327   24.0000 C   0  0  0  0  0  0  0  0  0  0  0  0
  -15.7714  -29.4320   24.2535 C   0  0  0  0  0  0  0  0  0  0  0  0
  -22.2649  -26.7267   22.1569 C   0  0  0  0  0  0  0  0  0  0  0  0
  -30.2368  -24.8787   19.0813 C   0  0  0  0  0  0  0  0  0  0  0  0
  -31.7429  -25.6671   20.6267 C   0  0  0  0  0  0  0  0  0  0  0  0
  -24.2164  -25.7164   22.2340 C   0  0  0  0  0  0  0  0  0  0  0  0
  -22.3416  -24.3807   23.2083 C   0  0  0  0  0  0  0  0  0  0  0  0
  -23.4051  -17.5016   20.9720 C   0  0  0  0  0  0  0  0  0  0  0  0
  -23.2521  -14.2633   21.0829 C   0  0  0  0  0  0  0  0  0  0  0  0
  -24.8072  -11.2699   20.5648 C   0  0  0  0  0  0  0  0  0  0  0  0
  -28.1341  -27.3385   18.6055 C   0  0  0  0  0  0  0  0  0  0  0  0
  -20.1141  -21.4036   21.0122 C   0  0  0  0  0  0  0  0  0  0  0  0
  -24.1627  -16.8821   18.6486 C   0  0  0  0  0  0  0  0  0  0  0  0
  -25.5348  -15.2733   20.7159 C   0  0  0  0  0  0  0  0  0  0  0  0
  -20.1069  -19.9639   21.5199 C   0  0  0  0  0  0  0  0  0  0  0  0
  -26.6921  -29.8455   20.6821 C   0  0  0  0  0  0  0  0  0  0  0  0
  -21.3798  -19.6690   22.3070 C   0  0  0  0  0  0  0  0  0  0  0  0
  -25.4611  -29.1618   21.2798 C   0  0  0  0  0  0  0  0  0  0  0  0
  -30.6221  -21.1721   21.2716 C   0  0  0  0  0  0  0  0  0  0  0  0
  -32.4297  -21.1774   19.5054 C   0  0  0  0  0  0  0  0  0  0  0  0
  -26.9336  -29.4109   19.2382 C   0  0  0  0  0  0  0  0  0  0  0  0
  -25.7813  -27.2685   19.6332 C   0  0  0  0  0  0  0  0  0  0  0  0
  -30.9368  -19.7130   21.5754 C   0  0  0  0  0  0  0  0  0  0  0  0
  -32.7308  -19.7183   19.8230 C   0  0  0  0  0  0  0  0  0  0  0  0
  -31.8538  -21.9129   20.7262 C   0  0  0  0  0  0  0  0  0  0  0  0
  -22.6231  -19.8203   21.4222 C   0  0  1  0  0  0  0  0  0  0  0  0
  -23.4494  -16.4304   19.9193 C   0  0  1  0  0  0  0  0  0  0  0  0
  -25.5294  -27.6326   21.1063 C   0  0  2  0  0  0  0  0  0  0  0  0
  -31.3792  -27.7059   22.0636 C   0  0  0  0  0  0  0  0  0  0  0  0
  -33.1809  -27.7116   20.3004 C   0  0  0  0  0  0  0  0  0  0  0  0
  -24.4420   -8.7967   20.7822 C   0  0  0  0  0  0  0  0  0  0  0  0
  -23.6458  -14.4730   24.1014 C   0  0  0  0  0  0  0  0  0  0  0  0
  -24.2188  -12.0359   24.1258 C   0  0  0  0  0  0  0  0  0  0  0  0
  -21.9544  -12.7756   23.3853 C   0  0  0  0  0  0  0  0  0  0  0  0
  -25.1708  -10.8435   17.6588 C   0  0  0  0  0  0  0  0  0  0  0  0
  -29.2135  -25.1773   18.0371 C   0  0  0  0  0  0  0  0  0  0  0  0
  -31.6869  -17.5717   20.5424 C   0  0  0  0  0  0  0  0  0  0  0  0
  -30.3538  -16.8580   20.4351 C   0  0  0  0  0  0  0  0  0  1  0  0
  -32.3888  -26.8372   21.2904 C   0  0  0  0  0  0  0  0  0  0  0  0
  -23.9457  -13.1870   21.8827 C   0  0  1  0  0  0  0  0  0  0  0  0
  -24.3482  -10.0046   19.8629 C   0  0  2  0  0  0  0  0  0  0  0  0
  -23.4558  -13.1360   23.3575 C   0  0  0  0  0  0  0  0  0  0  0  0
  -23.1128  -27.5936   21.5970 N   0  0  0  0  0  0  0  0  0  0  0  0
  -30.8175  -25.9424   19.6804 N   0  0  0  0  0  0  0  0  0  0  0  0
  -24.2913  -26.9507   21.6586 N   0  0  0  0  0  0  0  0  0  0  0  0
  -24.0743  -15.2560   20.5311 N   0  0  0  0  0  0  0  0  0  0  0  0
  -26.9894  -27.9502   19.1427 N   0  0  0  0  0  0  0  0  0  0  0  0
  -25.3081  -24.9350   22.3753 N   0  0  0  0  0  0  0  0  0  0  0  0
  -20.9677  -24.3643   23.4847 N   0  0  0  0  0  0  0  0  0  0  0  0
  -22.7778  -18.6639   20.5659 N   0  0  0  0  0  0  0  0  0  0  0  0
  -23.7531  -11.9428   21.1458 N   0  0  0  0  0  0  0  0  0  0  0  0
  -28.1076  -25.9501   18.5571 N   0  0  0  0  0  0  0  0  0  0  0  0
  -31.4813  -19.0276   20.3363 N   0  3  0  0  0  0  0  0  0  0  0  0
  -25.1885   -9.7458   18.6596 N   0  3  0  0  0  0  0  0  0  0  0  0
  -23.0457  -23.3958   23.5366 O   0  0  0  0  0  0  0  0  0  0  0  0
  -23.9020  -17.2888   22.0718 O   0  0  0  0  0  0  0  0  0  0  0  0
  -22.0269  -14.2207   20.9466 O   0  0  0  0  0  0  0  0  0  0  0  0
  -25.9837  -11.6240   20.5978 O   0  0  0  0  0  0  0  0  0  0  0  0
  -29.1098  -27.9818   18.2040 O   0  0  0  0  0  0  0  0  0  0  0  0
  -16.8435  -28.0110   22.6317 O   0  0  0  0  0  0  0  0  0  0  0  0
  -29.8037  -17.0663   19.1349 O   0  0  0  0  0  0  0  0  0  1  0  0
  -15.5587  -33.0593   24.4395 F   0  0  0  0  0  0  0  0  0  0  0  0
  -15.3632  -28.3565   24.9409 F   0  0  0  0  0  0  0  0  0  0  0  0
  1  2  1  0  0  0  0
  1  5  2  0  0  0  0
  2  6  2  0  0  0  0
  3  8  2  0  0  0  0
  3 17  1  0  0  0  0
  4  9  1  0  0  0  0
  4 17  2  0  0  0  0
  5 19  1  0  0  0  0
  6 21  1  0  0  0  0
  7 10  2  0  0  0  0
  7 20  1  0  0  0  0
  8 24  1  0  0  0  0
  9 24  2  0  0  0  0
 10 25  1  0  0  0  0
 11 12  2  0  0  0  0
 11 26  1  0  0  0  0
 12 27  1  0  0  0  0
 13 22  1  0  0  0  0
 13 25  2  0  0  0  0
 14 23  1  0  0  0  0
 14 30  2  0  0  0  0
 15 23  2  0  0  0  0
 15 31  1  0  0  0  0
 16 27  2  0  0  0  0
 16 28  1  0  0  0  0
 17 29  1  0  0  0  0
 18 29  1  0  0  0  0
 18 32  2  0  0  0  0
 18 33  1  0  0  0  0
 19 21  2  0  0  0  0
 19 38  1  0  0  0  0
 20 22  2  0  0  0  0
 20 39  1  0  0  0  0
 21 52  1  0  0  0  0
 22 40  1  0  0  0  0
 23 51  1  0  0  0  0
 24 86  1  0  0  0  0
 25 87  1  0  0  0  0
 26 28  2  0  0  0  0
 26 86  1  0  0  0  0
 27 88  1  0  0  0  0
 28 89  1  0  0  0  0
 29 69  2  0  0  0  0
 30 62  1  0  0  0  0
 30 70  1  0  0  0  0
 31 65  1  0  0  0  0
 31 70  2  0  0  0  0
 32 71  1  0  0  0  0
 32 74  1  0  0  0  0
 33 75  1  0  0  0  0
 33 81  2  0  0  0  0
 34 53  1  0  0  0  0
 34 76  1  0  0  0  0
 34 82  2  0  0  0  0
 35 66  1  0  0  0  0
 35 72  1  0  0  0  0
 35 83  2  0  0  0  0
 36 67  1  0  0  0  0
 36 77  1  0  0  0  0
 36 84  2  0  0  0  0
 37 73  1  0  0  0  0
 37 78  1  0  0  0  0
 37 85  2  0  0  0  0
 38 41  1  0  0  0  0
 39 53  1  0  0  0  0
 40 72  1  0  0  0  0
 41 43  1  0  0  0  0
 42 44  1  0  0  0  0
 42 47  1  0  0  0  0
 43 52  1  0  0  0  0
 44 54  1  0  0  0  0
 45 49  1  0  0  0  0
 45 51  1  0  0  0  0
 46 50  1  0  0  0  0
 46 51  1  0  0  0  0
 47 73  1  0  0  0  0
 48 54  1  0  0  0  0
 48 73  1  0  0  0  0
 49 79  1  0  0  0  0
 50 79  1  0  0  0  0
 52 76  1  0  0  0  0
 53 72  1  0  0  0  0
 54 71  1  0  0  0  0
 55 65  1  0  0  0  0
 56 65  1  0  0  0  0
 57 67  1  0  0  0  0
 58 68  1  0  0  0  0
 59 68  1  0  0  0  0
 60 68  1  0  0  0  0
 61 80  1  0  0  0  0
 62 78  1  0  0  0  0
 63 64  1  0  0  0  0
 63 79  1  0  0  0  0
 64 87  1  0  0  0  0
 66 68  1  0  0  0  0
 66 77  1  0  0  0  0
 67 80  1  0  0  0  0
 69 71  1  0  0  0  0
M  CHG  2  79   1  80   1
M  ISO  4  37 100  64 101  78 100  87 101
M  END
> <Batch ID>
0129

> <Smiles>
CNC(C)C(=O)NC(C(=O)N1Cc2cc([101O:1][101CH2:1]CN3CCC(c4cc(C[100NH:0][100C:0](=O)N5CCCC(n6nc(-c7ccc(Oc8ccc(F)cc8F)cc7)c(C(N)=O)c6N)C5)nc(C(C)C)c4)CC3)ccc2CC1C(=O)NC1CCCc2ccccc21)C(C)(C)C

> <Shape>
0.210

> <Color>
0.081

> <Negative vol penalty>
0.000

$$$$

  -OEChem-04052320453D

 91100  0     1  0  0  0  0  0999 V2000
  -22.7756  -11.4084   18.4325 C   0  0  0  0  0  0  0  0  0  0  0  0
  -22.5209  -12.7725   18.3326 C   0  0  0  0  0  0  0  0  0  0  0  0
  -25.9304  -29.0251   21.2510 C   0  0  0  0  0  0  0  0  0  0  0  0
  -24.9120  -27.6603   19.5371 C   0  0  0  0  0  0  0  0  0  0  0  0
  -23.8062  -10.9511   19.2527 C   0  0  0  0  0  0  0  0  0  0  0  0
  -23.2959  -13.6799   19.0539 C   0  0  0  0  0  0  0  0  0  0  0  0
  -24.7120  -17.6671   16.2714 C   0  0  0  0  0  0  0  0  0  0  0  0
  -27.1760  -28.4748   20.9491 C   0  0  0  0  0  0  0  0  0  0  0  0
  -26.1577  -27.1101   19.2352 C   0  0  0  0  0  0  0  0  0  0  0  0
  -23.7604  -18.6628   16.0550 C   0  0  0  0  0  0  0  0  0  0  0  0
  -28.8586  -25.6157   21.5965 C   0  0  0  0  0  0  0  0  0  0  0  0
  -29.6668  -25.2197   22.6620 C   0  0  0  0  0  0  0  0  0  0  0  0
  -24.7636  -19.9923   17.8001 C   0  0  0  0  0  0  0  0  0  0  0  0
  -31.3759  -26.7678   21.9410 C   0  0  0  0  0  0  0  0  0  0  0  0
  -24.7984  -28.6178   20.5451 C   0  0  0  0  0  0  0  0  0  0  0  0
  -23.1410  -30.5419   20.7874 C   0  0  0  0  0  0  0  0  0  0  0  0
  -24.6005  -11.8541   19.9768 C   0  0  0  0  0  0  0  0  0  0  0  0
  -25.6916  -17.8220   17.2627 C   0  0  0  0  0  0  0  0  0  0  0  0
  -24.3372  -13.2342   19.8856 C   0  0  0  0  0  0  0  0  0  0  0  0
  -25.7281  -18.9982   18.0253 C   0  0  0  0  0  0  0  0  0  0  0  0
  -27.2897  -27.5173   19.9411 C   0  0  0  0  0  0  0  0  0  0  0  0
  -23.7843  -19.8243   16.8214 C   0  0  0  0  0  0  0  0  0  0  0  0
  -29.3090  -26.5877   20.7030 C   0  0  0  0  0  0  0  0  0  0  0  0
  -30.9254  -25.7958   22.8344 C   0  0  0  0  0  0  0  0  0  0  0  0
  -30.5676  -27.1637   20.8754 C   0  0  0  0  0  0  0  0  0  0  0  0
  -23.5113  -29.1855   20.8569 C   0  0  0  0  0  0  0  0  0  0  0  0
  -21.8253  -30.5593   21.1812 C   0  0  0  0  0  0  0  0  0  0  0  0
  -23.9170  -31.6840   20.4014 C   0  0  0  0  0  0  0  0  0  0  0  0
  -26.4565  -16.2608   19.9238 C   0  0  0  0  0  0  0  0  0  0  0  0
  -28.9650  -18.3173   19.9455 C   0  0  0  0  0  0  0  0  0  0  0  0
  -29.5024  -21.8224   19.2802 C   0  0  0  0  0  0  0  0  0  0  0  0
  -17.4878  -26.4326   21.0921 C   0  0  0  0  0  0  0  0  0  0  0  0
  -25.6727  -11.3095   20.8870 C   0  0  0  0  0  0  0  0  0  0  0  0
  -26.7273  -16.7503   17.4655 C   0  0  0  0  0  0  0  0  0  0  0  0
  -26.7714  -19.2220   19.0882 C   0  0  0  0  0  0  0  0  0  0  0  0
  -26.6891  -12.3598   21.3274 C   0  0  0  0  0  0  0  0  0  0  0  0
  -13.7681  -22.0586   16.4690 C   0  0  0  0  0  0  0  0  0  0  0  0
  -14.1586  -20.9148   17.3991 C   0  0  0  0  0  0  0  0  0  0  0  0
  -18.7094  -28.1935   23.9353 C   0  0  0  0  0  0  0  0  0  0  0  0
  -25.9799  -13.6322   21.7800 C   0  0  0  0  0  0  0  0  0  0  0  0
  -20.0452  -28.7698   23.4625 C   0  0  0  0  0  0  0  0  0  0  0  0
  -14.9818  -22.6637   15.7641 C   0  0  0  0  0  0  0  0  0  0  0  0
  -15.2310  -21.3403   18.4006 C   0  0  0  0  0  0  0  0  0  0  0  0
  -19.4119  -21.0342   18.0954 C   0  0  0  0  0  0  0  0  0  0  0  0
  -20.9042  -21.2910   17.9149 C   0  0  0  0  0  0  0  0  0  0  0  0
  -20.7270  -20.6434   15.4815 C   0  0  0  0  0  0  0  0  0  0  0  0
  -18.4505  -26.8099   23.3432 C   0  0  0  0  0  0  0  0  0  0  0  0
  -19.8803  -27.3141   21.4003 C   0  0  0  0  0  0  0  0  0  0  0  0
  -25.1720  -14.2513   20.6330 C   0  0  1  0  0  0  0  0  0  0  0  0
  -27.3652  -16.7903   18.8507 C   0  0  1  0  0  0  0  0  0  0  0  0
  -19.2210  -20.3781   15.6423 C   0  0  1  0  0  0  0  0  0  0  0  0
  -20.1599  -28.7323   21.9267 C   0  0  2  0  0  0  0  0  0  0  0  0
  -16.0911  -23.0817   16.7390 C   0  0  2  0  0  0  0  0  0  0  0  0
  -18.6544  -21.2442   16.7829 C   0  0  1  0  0  0  0  0  0  0  0  0
  -16.4567  -21.9746   17.7369 C   0  0  2  0  0  0  0  0  0  0  0  0
  -21.4869  -20.4383   16.7919 C   0  0  1  0  0  0  0  0  0  1  0  0
  -31.5558  -23.0402   18.5069 C   0  0  0  0  0  0  0  0  0  0  0  0
  -18.6832  -22.0718   13.8686 C   0  0  0  0  0  0  0  0  0  0  0  0
  -19.0399  -19.6671   13.2413 C   0  0  0  0  0  0  0  0  0  0  0  0
  -29.4586  -18.7793   22.9209 C   0  0  0  0  0  0  0  0  0  0  0  0
  -30.2794  -21.0764   22.3569 C   0  0  0  0  0  0  0  0  0  0  0  0
  -31.4747  -19.0742   21.4708 C   0  0  0  0  0  0  0  0  0  0  0  0
  -15.4984  -25.3796   16.5035 C   0  0  0  0  0  0  0  0  0  0  0  0
  -28.0751  -23.0012   16.9710 C   0  0  0  0  0  0  0  0  0  0  0  0
  -16.6594  -26.1193   18.7737 C   0  0  0  0  0  0  0  0  0  0  0  0
  -16.7559  -24.6436   18.4139 C   0  0  0  0  0  0  0  0  0  0  0  0
  -29.2158  -19.6915   20.5178 C   0  0  1  0  0  0  0  0  0  0  0  0
  -30.2311  -22.4202   18.0902 C   0  0  2  0  0  0  0  0  0  0  0  0
  -18.5108  -20.6209   14.3079 C   0  0  0  0  0  0  0  0  0  0  0  0
  -30.0811  -19.6470   21.8088 C   0  0  0  0  0  0  0  0  0  0  0  0
  -22.5116  -28.3982   21.2630 N   0  0  0  0  0  0  0  0  0  0  0  0
  -21.5002  -29.2627   21.4523 N   0  0  0  0  0  0  0  0  0  0  0  0
  -27.7585  -18.1422   19.2530 N   0  0  0  0  0  0  0  0  0  0  0  0
  -18.5729  -26.8433   21.8838 N   0  0  0  0  0  0  0  0  0  0  0  0
  -20.9263  -31.5569   21.3185 N   0  0  0  0  0  0  0  0  0  0  0  0
  -23.9263  -32.0602   19.0513 N   0  0  0  0  0  0  0  0  0  0  0  0
  -26.0473  -14.9565   19.7215 N   0  0  0  0  0  0  0  0  0  0  0  0
  -29.7941  -20.4840   19.4380 N   0  0  0  0  0  0  0  0  0  0  0  0
  -17.6852  -26.5016   19.7184 N   0  0  0  0  0  0  0  0  0  0  0  0
  -15.7205  -24.2885   17.4477 N   0  0  2  0  0  0  0  0  0  0  0  0
  -17.2219  -20.9104   17.0198 N   0  3  0  0  0  0  0  0  0  0  0  0
  -29.3981  -23.4774   17.4504 N   0  3  0  0  0  0  0  0  0  0  0  0
  -24.5955  -32.3415   21.2265 O   0  0  0  0  0  0  0  0  0  0  0  0
  -26.1504  -16.9816   20.8663 O   0  0  0  0  0  0  0  0  0  0  0  0
  -29.8116  -17.4337   20.1009 O   0  0  0  0  0  0  0  0  0  0  0  0
  -28.7525  -22.4781   20.0001 O   0  0  0  0  0  0  0  0  0  0  0  0
  -16.4200  -26.0391   21.5738 O   0  0  0  0  0  0  0  0  0  0  0  0
  -28.5051  -26.9803   19.6461 O   0  0  0  0  0  0  0  0  0  0  0  0
  -22.8563  -20.7975   16.6128 O   0  0  0  0  0  0  0  0  0  1  0  0
  -31.7009  -25.4165   23.8586 F   0  0  0  0  0  0  0  0  0  0  0  0
  -31.0053  -28.0988   20.0210 F   0  0  0  0  0  0  0  0  0  0  0  0
  1  2  1  0  0  0  0
  1  5  2  0  0  0  0
  2  6  2  0  0  0  0
  3  8  2  0  0  0  0
  3 15  1  0  0  0  0
  4  9  1  0  0  0  0
  4 15  2  0  0  0  0
  5 17  1  0  0  0  0
  6 19  1  0  0  0  0
  7 10  2  0  0  0  0
  7 18  1  0  0  0  0
  8 21  1  0  0  0  0
  9 21  2  0  0  0  0
 10 22  1  0  0  0  0
 11 12  2  0  0  0  0
 11 23  1  0  0  0  0
 12 24  1  0  0  0  0
 13 20  1  0  0  0  0
 13 22  2  0  0  0  0
 14 24  2  0  0  0  0
 14 25  1  0  0  0  0
 15 26  1  0  0  0  0
 16 26  1  0  0  0  0
 16 27  2  0  0  0  0
 16 28  1  0  0  0  0
 17 19  2  0  0  0  0
 17 33  1  0  0  0  0
 18 20  2  0  0  0  0
 18 34  1  0  0  0  0
 19 49  1  0  0  0  0
 20 35  1  0  0  0  0
 21 88  1  0  0  0  0
 22 89  1  0  0  0  0
 23 25  2  0  0  0  0
 23 88  1  0  0  0  0
 24 90  1  0  0  0  0
 25 91  1  0  0  0  0
 26 71  2  0  0  0  0
 27 72  1  0  0  0  0
 27 75  1  0  0  0  0
 28 76  1  0  0  0  0
 28 83  2  0  0  0  0
 29 50  1  0  0  0  0
 29 77  1  0  0  0  0
 29 84  2  0  0  0  0
 30 67  1  0  0  0  0
 30 73  1  0  0  0  0
 30 85  2  0  0  0  0
 31 68  1  0  0  0  0
 31 78  1  0  0  0  0
 31 86  2  0  0  0  0
 32 74  1  0  0  0  0
 32 79  1  0  0  0  0
 32 87  2  0  0  0  0
 33 36  1  0  0  0  0
 34 50  1  0  0  0  0
 35 73  1  0  0  0  0
 36 40  1  0  0  0  0
 37 38  1  0  0  0  0
 37 42  1  0  0  0  0
 38 43  1  0  0  0  0
 39 41  1  0  0  0  0
 39 47  1  0  0  0  0
 40 49  1  0  0  0  0
 41 52  1  0  0  0  0
 42 53  1  0  0  0  0
 43 55  1  0  0  0  0
 44 45  1  0  0  0  0
 44 54  1  0  0  0  0
 45 56  1  0  0  0  0
 46 51  1  0  0  0  0
 46 56  1  0  0  0  0
 47 74  1  0  0  0  0
 48 52  1  0  0  0  0
 48 74  1  0  0  0  0
 49 77  1  0  0  0  0
 50 73  1  0  0  0  0
 51 54  1  0  0  0  0
 51 69  1  0  0  0  0
 52 72  1  0  0  0  0
 53 55  1  0  0  0  0
 53 80  1  0  0  0  0
 54 81  1  0  0  0  0
 55 81  1  0  0  0  0
 56 89  1  0  0  0  0
 57 68  1  0  0  0  0
 58 69  1  0  0  0  0
 59 69  1  0  0  0  0
 60 70  1  0  0  0  0
 61 70  1  0  0  0  0
 62 70  1  0  0  0  0
 63 80  1  0  0  0  0
 64 82  1  0  0  0  0
 65 66  1  0  0  0  0
 65 79  1  0  0  0  0
 66 80  1  0  0  0  0
 67 70  1  0  0  0  0
 67 78  1  0  0  0  0
 68 82  1  0  0  0  0
 71 72  1  0  0  0  0
M  CHG  2  81   1  82   1
M  ISO  4  32 100  56 101  79 100  89 101
M  END
> <Batch ID>
0129

> <Smiles>
CNC(C)C(=O)NC(C(=O)N1Cc2cc([101O:1][101CH:1]3CCC(NC4CCCCC4N(C)CC[100NH:0][100C:0](=O)N4CCCC(n5nc(-c6ccc(Oc7ccc(F)cc7F)cc6)c(C(N)=O)c5N)C4)C(C(C)C)C3)ccc2CC1C(=O)NC1CCCc2ccccc21)C(C)(C)C

> <Shape>
0.237

> <Color>
0.093

> <Negative vol penalty>
0.000

$$$$

  -OEChem-04052320453D

 86 95  0     1  0  0  0  0  0999 V2000
  -21.9599  -36.1181   18.7791 C   0  0  0  0  0  0  0  0  0  0  0  0
  -21.6161  -34.9659   19.4771 C   0  0  0  0  0  0  0  0  0  0  0  0
  -24.1096   -9.8371   22.6432 C   0  0  0  0  0  0  0  0  0  0  0  0
  -24.0194  -11.8955   23.9048 C   0  0  0  0  0  0  0  0  0  0  0  0
  -23.1343  -36.1502   18.0300 C   0  0  0  0  0  0  0  0  0  0  0  0
  -22.4523  -33.8497   19.4361 C   0  0  0  0  0  0  0  0  0  0  0  0
  -30.0877  -21.6187   17.7984 C   0  0  0  0  0  0  0  0  0  0  0  0
  -24.9629  -26.4313   21.0647 C   0  0  0  0  0  0  0  0  0  0  0  0
  -29.0826  -22.5128   18.1671 C   0  0  0  0  0  0  0  0  0  0  0  0
  -23.6339   -9.1368   23.7517 C   0  0  0  0  0  0  0  0  0  0  0  0
  -23.5436  -11.1953   25.0133 C   0  0  0  0  0  0  0  0  0  0  0  0
  -25.8299  -25.4210   20.6508 C   0  0  0  0  0  0  0  0  0  0  0  0
  -20.6615   -8.6008   25.2718 C   0  0  0  0  0  0  0  0  0  0  0  0
  -19.6512   -7.6624   25.0611 C   0  0  0  0  0  0  0  0  0  0  0  0
  -27.6680  -26.9817   20.7118 C   0  0  0  0  0  0  0  0  0  0  0  0
  -29.0089  -21.5218   20.3693 C   0  0  0  0  0  0  0  0  0  0  0  0
  -21.0872   -5.9223   25.9256 C   0  0  0  0  0  0  0  0  0  0  0  0
  -24.3024  -11.2165   22.7197 C   0  0  0  0  0  0  0  0  0  0  0  0
  -24.0308  -12.5340   20.5522 C   0  0  0  0  0  0  0  0  0  0  0  0
  -23.9785  -35.0292   17.9702 C   0  0  0  0  0  0  0  0  0  0  0  0
  -25.4405  -27.7295   21.2958 C   0  0  0  0  0  0  0  0  0  0  0  0
  -23.6539  -33.8707   18.7050 C   0  0  0  0  0  0  0  0  0  0  0  0
  -30.5534  -20.6761   18.7152 C   0  0  0  0  0  0  0  0  0  0  0  0
  -26.8058  -28.0054   21.1332 C   0  0  0  0  0  0  0  0  0  0  0  0
  -28.5432  -22.4644   19.4526 C   0  0  0  0  0  0  0  0  0  0  0  0
  -30.0141  -20.6277   20.0006 C   0  0  0  0  0  0  0  0  0  0  0  0
  -23.3508   -9.8159   24.9368 C   0  0  0  0  0  0  0  0  0  0  0  0
  -27.1822  -25.6967   20.4721 C   0  0  0  0  0  0  0  0  0  0  0  0
  -21.8847   -8.1999   25.8093 C   0  0  0  0  0  0  0  0  0  0  0  0
  -19.8640   -6.3232   25.3880 C   0  0  0  0  0  0  0  0  0  0  0  0
  -22.0975   -6.8607   26.1363 C   0  0  0  0  0  0  0  0  0  0  0  0
  -24.7944  -11.9403   21.5751 C   0  0  0  0  0  0  0  0  0  0  0  0
  -24.9607  -13.0922   19.7095 C   0  0  0  0  0  0  0  0  0  0  0  0
  -22.6081  -12.5771   20.3793 C   0  0  0  0  0  0  0  0  0  0  0  0
  -24.8870  -30.6496   20.1075 C   0  0  0  0  0  0  0  0  0  0  0  0
  -26.9505  -31.4785   22.5790 C   0  0  0  0  0  0  0  0  0  0  0  0
  -25.3454  -34.3991   23.3092 C   0  0  0  0  0  0  0  0  0  0  0  0
  -30.5526  -15.0299   20.4985 C   0  0  0  0  0  0  0  0  0  0  0  0
  -25.2412  -35.1213   17.1504 C   0  0  0  0  0  0  0  0  0  0  0  0
  -24.4936  -28.7980   21.7713 C   0  0  0  0  0  0  0  0  0  0  0  0
  -27.3681  -29.3807   21.3720 C   0  0  0  0  0  0  0  0  0  0  0  0
  -25.8301  -33.7561   16.8101 C   0  0  0  0  0  0  0  0  0  0  0  0
  -33.6807  -19.2902   17.0807 C   0  0  0  0  0  0  0  0  0  0  0  0
  -32.6279  -18.2621   16.6644 C   0  0  0  0  0  0  0  0  0  0  0  0
  -29.4762  -12.5345   18.2195 C   0  0  0  0  0  0  0  0  0  0  0  0
  -32.9358  -20.3889   17.8356 C   0  0  0  0  0  0  0  0  0  0  0  0
  -31.2836  -18.8315   17.1042 C   0  0  0  0  0  0  0  0  0  0  0  0
  -25.9253  -32.9034   18.0663 C   0  0  0  0  0  0  0  0  0  0  0  0
  -28.0816  -12.1562   18.7226 C   0  0  0  0  0  0  0  0  0  0  0  0
  -30.4328  -12.8260   19.3739 C   0  0  0  0  0  0  0  0  0  0  0  0
  -28.5577  -13.4481   20.8445 C   0  0  0  0  0  0  0  0  0  0  0  0
  -31.6375  -19.7232   18.2952 C   0  0  0  0  0  0  0  0  0  0  0  0
  -24.5326  -32.6341   18.6504 C   0  0  1  0  0  0  0  0  0  0  0  0
  -25.0096  -30.2170   21.5411 C   0  0  1  0  0  0  0  0  0  0  0  0
  -27.5404  -13.2011   19.7175 C   0  0  2  0  0  0  0  0  0  0  0  0
  -24.9972  -36.6823   24.2906 C   0  0  0  0  0  0  0  0  0  0  0  0
  -26.1859  -29.8927   25.0702 C   0  0  0  0  0  0  0  0  0  0  0  0
  -25.5084  -32.0483   26.1484 C   0  0  0  0  0  0  0  0  0  0  0  0
  -27.8788  -31.6922   25.4576 C   0  0  0  0  0  0  0  0  0  0  0  0
  -26.5591  -35.7225   20.9567 C   0  0  0  0  0  0  0  0  0  0  0  0
  -30.4986  -19.6225   21.0034 C   0  0  0  0  0  0  0  0  0  0  0  0
  -27.4684  -23.4201   19.8466 C   0  0  0  0  0  0  0  0  0  1  0  0
  -30.5086  -17.2170   21.6855 C   0  0  0  0  0  0  0  0  0  0  0  0
  -26.1151  -32.0711   23.6862 C   0  0  1  0  0  0  0  0  0  0  0  0
  -25.8342  -35.8359   23.3442 C   0  0  2  0  0  0  0  0  0  0  0  0
  -26.4105  -31.4179   25.0659 C   0  0  0  0  0  0  0  0  0  0  0  0
  -26.1082  -12.1058   21.4001 N   0  0  0  0  0  0  0  0  0  0  0  0
  -26.1773  -12.8097   20.2573 N   0  0  0  0  0  0  0  0  0  0  0  0
  -26.4220  -30.3643   21.9146 N   0  0  0  0  0  0  0  0  0  0  0  0
  -29.8584  -13.8297   20.2730 N   0  0  0  0  0  0  0  0  0  0  0  0
  -24.8481  -13.7922   18.5607 N   0  0  0  0  0  0  0  0  0  0  0  0
  -21.7993  -11.9528   21.3387 N   0  0  0  0  0  0  0  0  0  0  0  0
  -24.6771  -32.0057   19.9451 N   0  0  0  0  0  0  0  0  0  0  0  0
  -26.3453  -33.5111   23.6452 N   0  0  0  0  0  0  0  0  0  0  0  0
  -29.9327  -15.9314   21.3562 N   0  0  0  0  0  0  0  0  0  0  0  0
  -25.7621  -36.4408   21.9842 N   0  3  0  0  0  0  0  0  0  0  0  0
  -30.0002  -18.2476   20.7375 N   0  3  0  0  0  0  0  0  0  0  0  0
  -22.0708  -13.1380   19.3944 O   0  0  0  0  0  0  0  0  0  0  0  0
  -24.9776  -29.8151   19.2147 O   0  0  0  0  0  0  0  0  0  0  0  0
  -28.0452  -31.9829   22.3136 O   0  0  0  0  0  0  0  0  0  0  0  0
  -24.1909  -34.0952   23.0170 O   0  0  0  0  0  0  0  0  0  0  0  0
  -31.6393  -15.2824   19.9671 O   0  0  0  0  0  0  0  0  0  0  0  0
  -22.8864   -9.1329   26.0186 O   0  0  0  0  0  0  0  0  0  0  0  0
  -28.0366  -24.7054   20.0659 O   0  0  0  0  0  0  0  0  0  1  0  0
  -18.8932   -5.4224   25.1871 F   0  0  0  0  0  0  0  0  0  0  0  0
  -23.2700   -6.4699   26.6541 F   0  0  0  0  0  0  0  0  0  0  0  0
  1  2  1  0  0  0  0
  1  5  2  0  0  0  0
  2  6  2  0  0  0  0
  3 10  2  0  0  0  0
  3 18  1  0  0  0  0
  4 11  1  0  0  0  0
  4 18  2  0  0  0  0
  5 20  1  0  0  0  0
  6 22  1  0  0  0  0
  7  9  2  0  0  0  0
  7 23  1  0  0  0  0
  8 12  2  0  0  0  0
  8 21  1  0  0  0  0
  9 25  1  0  0  0  0
 10 27  1  0  0  0  0
 11 27  2  0  0  0  0
 12 28  1  0  0  0  0
 13 14  2  0  0  0  0
 13 29  1  0  0  0  0
 14 30  1  0  0  0  0
 15 24  1  0  0  0  0
 15 28  2  0  0  0  0
 16 25  2  0  0  0  0
 16 26  1  0  0  0  0
 17 30  2  0  0  0  0
 17 31  1  0  0  0  0
 18 32  1  0  0  0  0
 19 32  1  0  0  0  0
 19 33  2  0  0  0  0
 19 34  1  0  0  0  0
 20 22  2  0  0  0  0
 20 39  1  0  0  0  0
 21 24  2  0  0  0  0
 21 40  1  0  0  0  0
 22 53  1  0  0  0  0
 23 26  2  0  0  0  0
 23 52  1  0  0  0  0
 24 41  1  0  0  0  0
 25 62  1  0  0  0  0
 26 61  1  0  0  0  0
 27 83  1  0  0  0  0
 28 84  1  0  0  0  0
 29 31  2  0  0  0  0
 29 83  1  0  0  0  0
 30 85  1  0  0  0  0
 31 86  1  0  0  0  0
 32 67  2  0  0  0  0
 33 68  1  0  0  0  0
 33 71  1  0  0  0  0
 34 72  1  0  0  0  0
 34 78  2  0  0  0  0
 35 54  1  0  0  0  0
 35 73  1  0  0  0  0
 35 79  2  0  0  0  0
 36 64  1  0  0  0  0
 36 69  1  0  0  0  0
 36 80  2  0  0  0  0
 37 65  1  0  0  0  0
 37 74  1  0  0  0  0
 37 81  2  0  0  0  0
 38 70  1  0  0  0  0
 38 75  1  0  0  0  0
 38 82  2  0  0  0  0
 39 42  1  0  0  0  0
 40 54  1  0  0  0  0
 41 69  1  0  0  0  0
 42 48  1  0  0  0  0
 43 44  1  0  0  0  0
 43 46  1  0  0  0  0
 44 47  1  0  0  0  0
 45 49  1  0  0  0  0
 45 50  1  0  0  0  0
 46 52  1  0  0  0  0
 47 52  1  0  0  0  0
 48 53  1  0  0  0  0
 49 55  1  0  0  0  0
 50 70  1  0  0  0  0
 51 55  1  0  0  0  0
 51 70  1  0  0  0  0
 53 73  1  0  0  0  0
 54 69  1  0  0  0  0
 55 68  1  0  0  0  0
 56 65  1  0  0  0  0
 57 66  1  0  0  0  0
 58 66  1  0  0  0  0
 59 66  1  0  0  0  0
 60 76  1  0  0  0  0
 61 77  1  0  0  0  0
 62 84  1  0  0  0  0
 63 75  1  0  0  0  0
 63 77  1  0  0  0  0
 64 66  1  0  0  0  0
 64 74  1  0  0  0  0
 65 76  1  0  0  0  0
 67 68  1  0  0  0  0
M  CHG  2  76   1  77   1
M  ISO  4  38 100  62 101  75 100  84 101
M  END
> <Batch ID>
0129

> <Smiles>
CNC(C)C(=O)NC(C(=O)N1Cc2cc([101O:1][101CH2:1]c3ccc(C4CCCC4)c(CNC[100NH:0][100C:0](=O)N4CCCC(n5nc(-c6ccc(Oc7ccc(F)cc7F)cc6)c(C(N)=O)c5N)C4)c3)ccc2CC1C(=O)NC1CCCc2ccccc21)C(C)(C)C

> <Shape>
0.285

> <Color>
0.093

> <Negative vol penalty>
0.000

$$$$

  -OEChem-04052320453D

 90100  0     1  0  0  0  0  0999 V2000
  -16.9132  -26.3880   25.3146 C   0  0  0  0  0  0  0  0  0  0  0  0
  -17.8396  -25.3514   25.3646 C   0  0  0  0  0  0  0  0  0  0  0  0
  -25.4352  -19.4344   15.8503 C   0  0  0  0  0  0  0  0  0  0  0  0
  -23.9885  -15.2379   23.0894 C   0  0  0  0  0  0  0  0  0  0  0  0
  -23.0667  -15.6799   20.9003 C   0  0  0  0  0  0  0  0  0  0  0  0
  -17.0302  -27.3795   24.3414 C   0  0  0  0  0  0  0  0  0  0  0  0
  -18.8831  -25.3051   24.4408 C   0  0  0  0  0  0  0  0  0  0  0  0
  -25.7266  -23.2735   23.8454 C   0  0  0  0  0  0  0  0  0  0  0  0
  -25.7273  -20.2299   16.9614 C   0  0  0  0  0  0  0  0  0  0  0  0
  -23.2643  -16.3100   23.6108 C   0  0  0  0  0  0  0  0  0  0  0  0
  -22.3425  -16.7519   21.4217 C   0  0  0  0  0  0  0  0  0  0  0  0
  -26.5520  -22.4930   23.0372 C   0  0  0  0  0  0  0  0  0  0  0  0
  -20.5289  -19.8272   22.1025 C   0  0  0  0  0  0  0  0  0  0  0  0
  -20.5253  -21.0200   21.3794 C   0  0  0  0  0  0  0  0  0  0  0  0
  -28.4692  -17.3064   15.7049 C   0  0  0  0  0  0  0  0  0  0  0  0
  -27.8198  -19.0800   17.2226 C   0  0  0  0  0  0  0  0  0  0  0  0
  -26.7000  -24.3037   21.4502 C   0  0  0  0  0  0  0  0  0  0  0  0
  -22.9285  -21.1537   21.5882 C   0  0  0  0  0  0  0  0  0  0  0  0
  -26.3261  -18.4344   15.3884 C   0  0  0  0  0  0  0  0  0  0  0  0
  -27.5410  -18.2731   16.1065 C   0  0  0  0  0  0  0  0  0  0  0  0
  -23.8898  -14.9229   21.7342 C   0  0  0  0  0  0  0  0  0  0  0  0
  -24.2217  -12.4746   21.0991 C   0  0  0  0  0  0  0  0  0  0  0  0
  -18.0811  -27.3507   23.4112 C   0  0  0  0  0  0  0  0  0  0  0  0
  -25.3723  -24.5732   23.4562 C   0  0  0  0  0  0  0  0  0  0  0  0
  -19.0134  -26.2965   23.4534 C   0  0  0  0  0  0  0  0  0  0  0  0
  -25.8721  -25.0996   22.2565 C   0  0  0  0  0  0  0  0  0  0  0  0
  -27.0443  -16.6490   13.8652 C   0  0  0  0  0  0  0  0  0  0  0  0
  -28.2247  -16.5020   14.5984 C   0  0  0  0  0  0  0  0  0  0  0  0
  -26.0679  -17.5940   14.2610 C   0  0  0  0  0  0  0  0  0  0  0  0
  -22.4412  -17.0669   22.7770 C   0  0  0  0  0  0  0  0  0  0  0  0
  -26.9192  -20.0522   17.6476 C   0  0  0  0  0  0  0  0  0  0  0  0
  -27.0365  -23.0070   21.8380 C   0  0  0  0  0  0  0  0  0  0  0  0
  -21.7323  -19.2977   22.5685 C   0  0  0  0  0  0  0  0  0  0  0  0
  -21.7251  -21.6833   21.1223 C   0  0  0  0  0  0  0  0  0  0  0  0
  -22.9321  -19.9609   22.3113 C   0  0  0  0  0  0  0  0  0  0  0  0
  -24.6381  -13.8160   21.1949 C   0  0  0  0  0  0  0  0  0  0  0  0
  -25.2846  -11.8257   20.5197 C   0  0  0  0  0  0  0  0  0  0  0  0
  -22.9848  -11.8693   21.4983 C   0  0  0  0  0  0  0  0  0  0  0  0
  -22.6375  -26.0448   22.7785 C   0  0  0  0  0  0  0  0  0  0  0  0
  -24.5402  -28.6669   22.6151 C   0  0  0  0  0  0  0  0  0  0  0  0
  -27.6623  -29.9550   22.1248 C   0  0  0  0  0  0  0  0  0  0  0  0
  -29.7431  -13.6660   16.9720 C   0  0  0  0  0  0  0  0  0  0  0  0
  -18.1391  -28.4189   22.3481 C   0  0  0  0  0  0  0  0  0  0  0  0
  -24.5027  -25.4120   24.3522 C   0  0  0  0  0  0  0  0  0  0  0  0
  -26.8152  -15.7496   12.6743 C   0  0  0  0  0  0  0  0  0  0  0  0
  -25.5378  -26.4964   21.8032 C   0  0  0  0  0  0  0  0  0  0  0  0
  -19.4893  -28.5016   21.6407 C   0  0  0  0  0  0  0  0  0  0  0  0
  -25.7900  -16.3424   11.7148 C   0  0  0  0  0  0  0  0  0  0  0  0
  -30.0478  -12.0500   20.1299 C   0  0  0  0  0  0  0  0  0  0  0  0
  -19.9720  -27.1090   21.2473 C   0  0  0  0  0  0  0  0  0  0  0  0
  -28.6584  -12.1984   20.7523 C   0  0  0  0  0  0  0  0  0  0  0  0
  -24.5485  -16.7703   12.4805 C   0  0  0  0  0  0  0  0  0  0  0  0
  -30.4376  -13.2839   19.3189 C   0  0  0  0  0  0  0  0  0  0  0  0
  -28.0693  -13.8320   18.9130 C   0  0  0  0  0  0  0  0  0  0  0  0
  -20.1735  -26.2252   22.4842 C   0  0  1  0  0  0  0  0  0  0  0  0
  -23.7887  -26.5370   23.6092 C   0  0  1  0  0  0  0  0  0  0  0  0
  -27.6090  -12.5896   19.6945 C   0  0  2  0  0  0  0  0  0  0  0  0
  -28.8982  -32.1362   22.0139 C   0  0  0  0  0  0  0  0  0  0  0  0
  -23.3879  -29.1758   19.8361 C   0  0  0  0  0  0  0  0  0  0  0  0
  -25.2914  -30.7454   19.4104 C   0  0  0  0  0  0  0  0  0  0  0  0
  -23.6666  -31.2257   21.2413 C   0  0  0  0  0  0  0  0  0  0  0  0
  -29.3957  -29.2219   24.4088 C   0  0  0  0  0  0  0  0  0  0  0  0
  -29.2573  -15.4830   14.2341 C   0  0  0  0  0  0  0  0  0  0  0  0
  -28.8933  -14.0618   14.6740 C   0  0  0  0  0  0  0  0  0  0  0  0
  -28.0216  -20.2405   19.7464 C   0  0  0  0  0  0  0  0  0  0  0  0
  -27.6496  -20.8337   21.0915 C   0  0  0  0  0  0  0  0  0  1  0  0
  -25.3334  -29.3460   21.5249 C   0  0  1  0  0  0  0  0  0  0  0  0
  -28.4615  -30.9835   22.9046 C   0  0  2  0  0  0  0  0  0  0  0  0
  -24.4247  -30.0962   20.5105 C   0  0  0  0  0  0  0  0  0  0  0  0
  -25.8694  -14.0092   20.7148 N   0  0  0  0  0  0  0  0  0  0  0  0
  -26.2360  -12.7806   20.3120 N   0  0  0  0  0  0  0  0  0  0  0  0
  -24.8922  -17.7224   13.5193 N   0  0  0  0  0  0  0  0  0  0  0  0
  -24.6789  -27.2750   22.7107 N   0  0  0  0  0  0  0  0  0  0  0  0
  -29.4014  -13.6002   18.3329 N   0  0  0  0  0  0  0  0  0  0  0  0
  -25.4888  -10.5372   20.1728 N   0  0  0  0  0  0  0  0  0  0  0  0
  -22.0000  -12.6810   22.0776 N   0  0  0  0  0  0  0  0  0  0  0  0
  -21.4124  -26.5640   23.1511 N   0  0  0  0  0  0  0  0  0  0  0  0
  -26.3070  -30.1982   22.1988 N   0  0  0  0  0  0  0  0  0  0  0  0
  -28.7002  -13.9652   16.1038 N   0  0  0  0  0  0  0  0  0  0  0  0
  -29.6789  -30.3563   23.4924 N   0  3  0  0  0  0  0  0  0  0  0  0
  -22.7658  -10.6418   21.3607 O   0  0  0  0  0  0  0  0  0  0  0  0
  -22.8456  -25.2538   21.8660 O   0  0  0  0  0  0  0  0  0  0  0  0
  -23.8295  -29.3473   23.3592 O   0  0  0  0  0  0  0  0  0  0  0  0
  -28.1879  -29.0307   21.5084 O   0  0  0  0  0  0  0  0  0  0  0  0
  -30.8912  -13.4672   16.5606 O   0  0  0  0  0  0  0  0  0  0  0  0
  -21.7342  -18.1129   23.2855 O   0  0  0  0  0  0  0  0  0  0  0  0
  -27.2088  -20.8292   18.7383 O   0  0  0  0  0  0  0  0  0  0  0  0
  -27.8418  -22.2470   21.0468 O   0  0  0  0  0  0  0  0  0  1  0  0
  -21.7217  -22.8279   20.4266 F   0  0  0  0  0  0  0  0  0  0  0  0
  -24.0915  -19.4565   22.7554 F   0  0  0  0  0  0  0  0  0  0  0  0
  1  2  1  0  0  0  0
  1  6  2  0  0  0  0
  2  7  2  0  0  0  0
  3  9  2  0  0  0  0
  3 19  1  0  0  0  0
  4 10  2  0  0  0  0
  4 21  1  0  0  0  0
  5 11  1  0  0  0  0
  5 21  2  0  0  0  0
  6 23  1  0  0  0  0
  7 25  1  0  0  0  0
  8 12  2  0  0  0  0
  8 24  1  0  0  0  0
  9 31  1  0  0  0  0
 10 30  1  0  0  0  0
 11 30  2  0  0  0  0
 12 32  1  0  0  0  0
 13 14  2  0  0  0  0
 13 33  1  0  0  0  0
 14 34  1  0  0  0  0
 15 20  1  0  0  0  0
 15 28  2  0  0  0  0
 16 20  1  0  0  0  0
 16 31  2  0  0  0  0
 17 26  1  0  0  0  0
 17 32  2  0  0  0  0
 18 34  2  0  0  0  0
 18 35  1  0  0  0  0
 19 20  2  0  0  0  0
 19 29  1  0  0  0  0
 21 36  1  0  0  0  0
 22 36  1  0  0  0  0
 22 37  2  0  0  0  0
 22 38  1  0  0  0  0
 23 25  2  0  0  0  0
 23 43  1  0  0  0  0
 24 26  2  0  0  0  0
 24 44  1  0  0  0  0
 25 55  1  0  0  0  0
 26 46  1  0  0  0  0
 27 28  1  0  0  0  0
 27 29  2  0  0  0  0
 27 45  1  0  0  0  0
 28 63  1  0  0  0  0
 29 72  1  0  0  0  0
 30 86  1  0  0  0  0
 31 87  1  0  0  0  0
 32 88  1  0  0  0  0
 33 35  2  0  0  0  0
 33 86  1  0  0  0  0
 34 89  1  0  0  0  0
 35 90  1  0  0  0  0
 36 70  2  0  0  0  0
 37 71  1  0  0  0  0
 37 75  1  0  0  0  0
 38 76  1  0  0  0  0
 38 81  2  0  0  0  0
 39 56  1  0  0  0  0
 39 77  1  0  0  0  0
 39 82  2  0  0  0  0
 40 67  1  0  0  0  0
 40 73  1  0  0  0  0
 40 83  2  0  0  0  0
 41 68  1  0  0  0  0
 41 78  1  0  0  0  0
 41 84  2  0  0  0  0
 42 74  1  0  0  0  0
 42 79  1  0  0  0  0
 42 85  2  0  0  0  0
 43 47  1  0  0  0  0
 44 56  1  0  0  0  0
 45 48  1  0  0  0  0
 46 73  1  0  0  0  0
 47 50  1  0  0  0  0
 48 52  1  0  0  0  0
 49 51  1  0  0  0  0
 49 53  1  0  0  0  0
 50 55  1  0  0  0  0
 51 57  1  0  0  0  0
 52 72  1  0  0  0  0
 53 74  1  0  0  0  0
 54 57  1  0  0  0  0
 54 74  1  0  0  0  0
 55 77  1  0  0  0  0
 56 73  1  0  0  0  0
 57 71  1  0  0  0  0
 58 68  1  0  0  0  0
 59 69  1  0  0  0  0
 60 69  1  0  0  0  0
 61 69  1  0  0  0  0
 62 80  1  0  0  0  0
 63 64  1  0  0  0  0
 64 79  1  0  0  0  0
 65 66  1  0  0  0  0
 65 87  1  0  0  0  0
 66 88  1  0  0  0  0
 67 69  1  0  0  0  0
 67 78  1  0  0  0  0
 68 80  1  0  0  0  0
 70 71  1  0  0  0  0
M  CHG  1  80   1
M  ISO  4  42 100  66 101  79 100  88 101
M  END
> <Batch ID>
0129

> <Smiles>
CNC(C)C(=O)NC(C(=O)N1Cc2cc([101O:1][101CH2:1]COc3ccc4c5c(c(CC[100NH:0][100C:0](=O)N6CCCC(n7nc(-c8ccc(Oc9ccc(F)cc9F)cc8)c(C(N)=O)c7N)C6)cc4c3)CCCN5)ccc2CC1C(=O)NC1CCCc2ccccc21)C(C)(C)C

> <Shape>
0.195

> <Color>
0.088

> <Negative vol penalty>
0.000

$$$$

  -OEChem-04052320453D

 92101  0     1  0  0  0  0  0999 V2000
  -21.3488  -30.6953   15.8901 C   0  0  0  0  0  0  0  0  0  0  0  0
  -22.5625  -30.0892   16.1985 C   0  0  0  0  0  0  0  0  0  0  0  0
  -23.5034   -9.6407   19.9924 C   0  0  0  0  0  0  0  0  0  0  0  0
  -23.8064  -10.0320   22.3572 C   0  0  0  0  0  0  0  0  0  0  0  0
  -20.8346  -31.6873   16.7240 C   0  0  0  0  0  0  0  0  0  0  0  0
  -23.2632  -30.4755   17.3405 C   0  0  0  0  0  0  0  0  0  0  0  0
  -25.0353  -26.5223   19.9627 C   0  0  0  0  0  0  0  0  0  0  0  0
  -31.1831  -19.5663   22.9624 C   0  0  0  0  0  0  0  0  0  0  0  0
  -30.9073  -18.2449   22.6112 C   0  0  0  0  0  0  0  0  0  0  0  0
  -22.8649   -8.4330   20.2741 C   0  0  0  0  0  0  0  0  0  0  0  0
  -23.1678   -8.8243   22.6389 C   0  0  0  0  0  0  0  0  0  0  0  0
  -26.1844  -25.8996   19.4772 C   0  0  0  0  0  0  0  0  0  0  0  0
  -19.9991   -7.6583   22.7824 C   0  0  0  0  0  0  0  0  0  0  0  0
  -19.0429   -7.6540   23.7978 C   0  0  0  0  0  0  0  0  0  0  0  0
  -27.5108  -27.0971   21.0976 C   0  0  0  0  0  0  0  0  0  0  0  0
  -28.8882  -20.1671   22.5050 C   0  0  0  0  0  0  0  0  0  0  0  0
  -20.3381   -6.0143   25.0107 C   0  0  0  0  0  0  0  0  0  0  0  0
  -23.9742  -10.4402   21.0340 C   0  0  0  0  0  0  0  0  0  0  0  0
  -24.0365  -12.9551   20.6107 C   0  0  0  0  0  0  0  0  0  0  0  0
  -21.5246  -32.0792   17.8820 C   0  0  0  0  0  0  0  0  0  0  0  0
  -25.1169  -27.4468   21.0140 C   0  0  0  0  0  0  0  0  0  0  0  0
  -22.7584  -31.4747   18.1900 C   0  0  0  0  0  0  0  0  0  0  0  0
  -26.3610  -27.7282   21.5964 C   0  0  0  0  0  0  0  0  0  0  0  0
  -30.1736  -20.5274   22.9094 C   0  0  0  0  0  0  0  0  0  0  0  0
  -28.6123  -18.8456   22.1537 C   0  0  0  0  0  0  0  0  0  0  0  0
  -29.6219  -17.8846   22.2068 C   0  0  0  0  0  0  0  0  0  0  0  0
  -22.6970   -8.0248   21.5973 C   0  0  0  0  0  0  0  0  0  0  0  0
  -27.4227  -26.1892   20.0426 C   0  0  0  0  0  0  0  0  0  0  0  0
  -21.1249   -6.8405   22.8810 C   0  0  0  0  0  0  0  0  0  0  0  0
  -19.2123   -6.8320   24.9120 C   0  0  0  0  0  0  0  0  0  0  0  0
  -21.2944   -6.0186   23.9952 C   0  0  0  0  0  0  0  0  0  0  0  0
  -24.6344  -11.6876   20.7437 C   0  0  0  0  0  0  0  0  0  0  0  0
  -25.0831  -13.8015   20.3374 C   0  0  0  0  0  0  0  0  0  0  0  0
  -22.6582  -13.3335   20.7242 C   0  0  0  0  0  0  0  0  0  0  0  0
  -24.4420  -30.5356   21.3422 C   0  0  0  0  0  0  0  0  0  0  0  0
  -25.1460  -29.9590   24.4557 C   0  0  0  0  0  0  0  0  0  0  0  0
  -26.7816  -28.0300   26.7471 C   0  0  0  0  0  0  0  0  0  0  0  0
  -30.2563  -15.6204   21.3027 C   0  0  0  0  0  0  0  0  0  0  0  0
  -20.9522  -33.1893   18.7275 C   0  0  0  0  0  0  0  0  0  0  0  0
  -23.8647  -28.0898   21.5441 C   0  0  0  0  0  0  0  0  0  0  0  0
  -26.4998  -28.6980   22.7404 C   0  0  0  0  0  0  0  0  0  0  0  0
  -21.5735  -33.2774   20.1190 C   0  0  0  0  0  0  0  0  0  0  0  0
  -27.0324  -19.7234   18.0434 C   0  0  0  0  0  0  0  0  0  0  0  0
  -29.9021  -12.8051   19.1519 C   0  0  0  0  0  0  0  0  0  0  0  0
  -25.5596  -19.3847   17.8279 C   0  0  0  0  0  0  0  0  0  0  0  0
  -23.0939  -33.1901   20.0313 C   0  0  0  0  0  0  0  0  0  0  0  0
  -28.4509  -12.3676   19.3634 C   0  0  0  0  0  0  0  0  0  0  0  0
  -27.5942  -19.0110   19.2724 C   0  0  0  0  0  0  0  0  0  0  0  0
  -30.5386  -13.3042   20.4479 C   0  0  0  0  0  0  0  0  0  0  0  0
  -28.3323  -13.9144   21.3585 C   0  0  0  0  0  0  0  0  0  0  0  0
  -24.7336  -19.6580   19.0747 C   0  0  0  0  0  0  0  0  0  0  0  0
  -23.5359  -31.8491   19.4331 C   0  0  1  0  0  0  0  0  0  0  0  0
  -24.1306  -29.4011   22.2769 C   0  0  1  0  0  0  0  0  0  0  0  0
  -27.6286  -13.4646   20.0677 C   0  0  2  0  0  0  0  0  0  0  0  0
  -26.7553  -19.2933   20.5190 C   0  0  2  0  0  0  0  0  0  0  0  0
  -30.8699  -22.0594   24.7694 C   0  0  0  0  0  0  0  0  0  0  0  0
  -27.1989  -27.8283   29.2134 C   0  0  0  0  0  0  0  0  0  0  0  0
  -27.1223  -32.2790   24.3087 C   0  0  0  0  0  0  0  0  0  0  0  0
  -28.1611  -31.4370   26.4253 C   0  0  0  0  0  0  0  0  0  0  0  0
  -25.7809  -32.1834   26.4172 C   0  0  0  0  0  0  0  0  0  0  0  0
  -25.5173  -25.3565   26.8600 C   0  0  0  0  0  0  0  0  0  0  0  0
  -31.5658  -22.6122   22.4060 C   0  0  0  0  0  0  0  0  0  0  0  0
  -31.2710  -22.6288   20.9074 C   0  0  0  0  0  0  0  0  0  0  0  0
  -29.6953  -23.5075   19.1800 C   0  0  0  0  0  0  0  0  0  0  0  0
  -28.3965  -24.2735   19.0239 C   0  0  0  0  0  0  0  0  0  1  0  0
  -27.2270  -18.4886   21.7213 C   0  0  2  0  0  0  0  0  0  0  0  0
  -30.4747  -21.9666   23.2895 C   0  0  1  0  0  0  0  0  0  0  0  0
  -26.4004  -30.0045   25.2944 C   0  0  1  0  0  0  0  0  0  0  0  0
  -26.3184  -27.4017   28.0491 C   0  0  2  0  0  0  0  0  0  0  0  0
  -26.8642  -31.4591   25.5885 C   0  0  0  0  0  0  0  0  0  0  0  0
  -25.9582  -11.7211   20.5690 N   0  0  0  0  0  0  0  0  0  0  0  0
  -26.2007  -13.0199   20.3235 N   0  0  0  0  0  0  0  0  0  0  0  0
  -25.2472  -29.3056   23.2193 N   0  0  0  0  0  0  0  0  0  0  0  0
  -29.7066  -14.3445   21.0567 N   0  0  0  0  0  0  0  0  0  0  0  0
  -25.1471  -15.1306   20.1100 N   0  0  0  0  0  0  0  0  0  0  0  0
  -21.7134  -12.3383   21.0092 N   0  0  0  0  0  0  0  0  0  0  0  0
  -29.3617  -16.5371   21.8540 N   0  0  0  0  0  0  0  0  0  0  0  0
  -23.4432  -30.7985   20.4241 N   0  0  0  0  0  0  0  0  0  0  0  0
  -26.1224  -29.2130   26.4880 N   0  0  0  0  0  0  0  0  0  0  0  0
  -25.3289  -18.9227   20.2313 N   0  3  0  0  0  0  0  0  0  0  0  0
  -26.3581  -25.9153   27.9499 N   0  3  0  0  0  0  0  0  0  0  0  0
  -30.0249  -23.3906   20.6229 N   0  3  0  0  0  0  0  0  0  0  0  0
  -22.2738  -14.5163   20.5610 O   0  0  0  0  0  0  0  0  0  0  0  0
  -25.5088  -31.1294   21.4471 O   0  0  0  0  0  0  0  0  0  0  0  0
  -24.1124  -30.4776   24.8851 O   0  0  0  0  0  0  0  0  0  0  0  0
  -27.6448  -27.5240   26.0334 O   0  0  0  0  0  0  0  0  0  0  0  0
  -31.4264  -15.8888   21.0182 O   0  0  0  0  0  0  0  0  0  0  0  0
  -26.3248  -18.7301   22.8059 O   0  0  0  0  0  0  0  0  0  0  0  0
  -22.0738   -6.8465   21.8725 O   0  0  0  0  0  0  0  0  0  0  0  0
  -28.5459  -25.5834   19.5701 O   0  0  0  0  0  0  0  0  0  1  0  0
  -18.2947   -6.8291   25.8877 F   0  0  0  0  0  0  0  0  0  0  0  0
  -22.3744   -5.2317   24.0961 F   0  0  0  0  0  0  0  0  0  0  0  0
  1  2  1  0  0  0  0
  1  5  2  0  0  0  0
  2  6  2  0  0  0  0
  3 10  2  0  0  0  0
  3 18  1  0  0  0  0
  4 11  1  0  0  0  0
  4 18  2  0  0  0  0
  5 20  1  0  0  0  0
  6 22  1  0  0  0  0
  7 12  2  0  0  0  0
  7 21  1  0  0  0  0
  8  9  2  0  0  0  0
  8 24  1  0  0  0  0
  9 26  1  0  0  0  0
 10 27  1  0  0  0  0
 11 27  2  0  0  0  0
 12 28  1  0  0  0  0
 13 14  2  0  0  0  0
 13 29  1  0  0  0  0
 14 30  1  0  0  0  0
 15 23  1  0  0  0  0
 15 28  2  0  0  0  0
 16 24  2  0  0  0  0
 16 25  1  0  0  0  0
 17 30  2  0  0  0  0
 17 31  1  0  0  0  0
 18 32  1  0  0  0  0
 19 32  1  0  0  0  0
 19 33  2  0  0  0  0
 19 34  1  0  0  0  0
 20 22  2  0  0  0  0
 20 39  1  0  0  0  0
 21 23  2  0  0  0  0
 21 40  1  0  0  0  0
 22 52  1  0  0  0  0
 23 41  1  0  0  0  0
 24 67  1  0  0  0  0
 25 26  2  0  0  0  0
 25 66  1  0  0  0  0
 26 77  1  0  0  0  0
 27 89  1  0  0  0  0
 28 90  1  0  0  0  0
 29 31  2  0  0  0  0
 29 89  1  0  0  0  0
 30 91  1  0  0  0  0
 31 92  1  0  0  0  0
 32 71  2  0  0  0  0
 33 72  1  0  0  0  0
 33 75  1  0  0  0  0
 34 76  1  0  0  0  0
 34 83  2  0  0  0  0
 35 53  1  0  0  0  0
 35 78  1  0  0  0  0
 35 84  2  0  0  0  0
 36 68  1  0  0  0  0
 36 73  1  0  0  0  0
 36 85  2  0  0  0  0
 37 69  1  0  0  0  0
 37 79  1  0  0  0  0
 37 86  2  0  0  0  0
 38 74  1  0  0  0  0
 38 77  1  0  0  0  0
 38 87  2  0  0  0  0
 39 42  1  0  0  0  0
 40 53  1  0  0  0  0
 41 73  1  0  0  0  0
 42 46  1  0  0  0  0
 43 45  1  0  0  0  0
 43 48  1  0  0  0  0
 44 47  1  0  0  0  0
 44 49  1  0  0  0  0
 45 51  1  0  0  0  0
 46 52  1  0  0  0  0
 47 54  1  0  0  0  0
 48 55  1  0  0  0  0
 49 74  1  0  0  0  0
 50 54  1  0  0  0  0
 50 74  1  0  0  0  0
 51 80  1  0  0  0  0
 52 78  1  0  0  0  0
 53 73  1  0  0  0  0
 54 72  1  0  0  0  0
 55 66  1  0  0  0  0
 55 80  1  0  0  0  0
 56 67  1  0  0  0  0
 57 69  1  0  0  0  0
 58 70  1  0  0  0  0
 59 70  1  0  0  0  0
 60 70  1  0  0  0  0
 61 81  1  0  0  0  0
 62 63  1  0  0  0  0
 62 67  1  0  0  0  0
 63 82  1  0  0  0  0
 64 65  1  0  0  0  0
 64 82  1  0  0  0  0
 65 90  1  0  0  0  0
 66 88  1  0  0  0  0
 68 70  1  0  0  0  0
 68 79  1  0  0  0  0
 69 81  1  0  0  0  0
 71 72  1  0  0  0  0
M  CHG  3  80   1  81   1  82   1
M  ISO  4  38 100  65 101  77 100  90 101
M  END
> <Batch ID>
0129

> <Smiles>
CNC(C)C(=O)NC(C(=O)N1Cc2cc([101O:1][101CH2:1]CNCCC(C)c3ccc([100NH:0][100C:0](=O)N4CCCC(n5nc(-c6ccc(Oc7ccc(F)cc7F)cc6)c(C(N)=O)c5N)C4)c(C(O)C4CCCCN4)c3)ccc2CC1C(=O)NC1CCCc2ccccc21)C(C)(C)C

> <Shape>
0.304

> <Color>
0.152

> <Negative vol penalty>
0.000

$$$$

  -OEChem-04052320453D

 87 96  0     1  0  0  0  0  0999 V2000
  -24.3039   -5.4008   19.0986 C   0  0  0  0  0  0  0  0  0  0  0  0
  -24.8676   -6.4150   18.3311 C   0  0  0  0  0  0  0  0  0  0  0  0
  -21.7217  -30.0686   21.5302 C   0  0  0  0  0  0  0  0  0  0  0  0
  -22.5742  -27.8154   21.7124 C   0  0  0  0  0  0  0  0  0  0  0  0
  -23.7345   -5.6990   20.3359 C   0  0  0  0  0  0  0  0  0  0  0  0
  -24.8613   -7.7282   18.8000 C   0  0  0  0  0  0  0  0  0  0  0  0
  -28.7630  -13.7338   18.6353 C   0  0  0  0  0  0  0  0  0  0  0  0
  -20.4188  -29.5854   21.6503 C   0  0  0  0  0  0  0  0  0  0  0  0
  -21.2713  -27.3322   21.8326 C   0  0  0  0  0  0  0  0  0  0  0  0
  -28.6394  -15.0906   18.3397 C   0  0  0  0  0  0  0  0  0  0  0  0
  -18.3717  -28.5307   24.1261 C   0  0  0  0  0  0  0  0  0  0  0  0
  -17.5060  -29.2074   24.9853 C   0  0  0  0  0  0  0  0  0  0  0  0
  -27.6985  -15.4754   20.5274 C   0  0  0  0  0  0  0  0  0  0  0  0
  -16.0212  -29.6590   23.1336 C   0  0  0  0  0  0  0  0  0  0  0  0
  -22.7995  -29.1836   21.5611 C   0  0  0  0  0  0  0  0  0  0  0  0
  -24.7951  -30.5979   22.2858 C   0  0  0  0  0  0  0  0  0  0  0  0
  -23.7298   -7.0150   20.8245 C   0  0  0  0  0  0  0  0  0  0  0  0
  -28.3444  -13.2349   19.8772 C   0  0  0  0  0  0  0  0  0  0  0  0
  -24.2901   -8.0445   20.0444 C   0  0  0  0  0  0  0  0  0  0  0  0
  -27.8201  -14.1122   20.8372 C   0  0  0  0  0  0  0  0  0  0  0  0
  -20.1936  -28.2172   21.8016 C   0  0  0  0  0  0  0  0  0  0  0  0
  -28.1045  -15.9612   19.2847 C   0  0  0  0  0  0  0  0  0  0  0  0
  -18.0622  -28.4182   22.7707 C   0  0  0  0  0  0  0  0  0  0  0  0
  -16.3307  -29.7716   24.4891 C   0  0  0  0  0  0  0  0  0  0  0  0
  -16.8870  -28.9823   22.2744 C   0  0  0  0  0  0  0  0  0  0  0  0
  -24.1456  -29.6821   21.4365 C   0  0  0  0  0  0  0  0  0  0  0  0
  -26.0474  -30.7430   21.7408 C   0  0  0  0  0  0  0  0  0  0  0  0
  -24.3097  -31.2582   23.4623 C   0  0  0  0  0  0  0  0  0  0  0  0
  -26.1547  -11.1365   20.8291 C   0  0  0  0  0  0  0  0  0  0  0  0
  -27.5009  -11.6390   23.7372 C   0  0  0  0  0  0  0  0  0  0  0  0
  -29.2979  -13.6981   25.7812 C   0  0  0  0  0  0  0  0  0  0  0  0
  -29.4208  -27.2116   18.2767 C   0  0  0  0  0  0  0  0  0  0  0  0
  -23.0606   -7.2962   22.1465 C   0  0  0  0  0  0  0  0  0  0  0  0
  -28.5091  -11.7730   20.1906 C   0  0  0  0  0  0  0  0  0  0  0  0
  -27.3748  -13.6301   22.1928 C   0  0  0  0  0  0  0  0  0  0  0  0
  -23.4288   -8.6540   22.7391 C   0  0  0  0  0  0  0  0  0  0  0  0
  -28.3575  -30.5323   17.5563 C   0  0  0  0  0  0  0  0  0  0  0  0
  -23.3396   -9.7429   21.6746 C   0  0  0  0  0  0  0  0  0  0  0  0
  -27.2161  -30.7736   18.5457 C   0  0  0  0  0  0  0  0  0  0  0  0
  -30.4061  -20.0445   19.8030 C   0  0  0  0  0  0  0  0  0  0  0  0
  -28.3916  -20.2193   21.3303 C   0  0  0  0  0  0  0  0  0  0  0  0
  -29.6930  -18.9658   18.9913 C   0  0  0  0  0  0  0  0  0  0  0  0
  -27.6836  -19.1398   20.5152 C   0  0  0  0  0  0  0  0  0  0  0  0
  -29.7254  -24.1272   20.3009 C   0  0  0  0  0  0  0  0  0  0  0  0
  -32.5717  -24.8277   20.7140 C   0  0  0  0  0  0  0  0  0  0  0  0
  -28.3713  -29.0912   17.0512 C   0  0  0  0  0  0  0  0  0  0  0  0
  -27.2474  -28.3054   19.0988 C   0  0  0  0  0  0  0  0  0  0  0  0
  -24.3248   -9.4774   20.5299 C   0  0  1  0  0  0  0  0  0  0  0  0
  -27.5747  -11.2898   21.2955 C   0  0  1  0  0  0  0  0  0  0  0  0
  -27.2262  -29.7300   19.6789 C   0  0  2  0  0  0  0  0  0  0  0  0
  -30.3585  -25.3474   19.6201 C   0  0  2  0  0  0  0  0  0  0  0  0
  -29.3972  -20.9791   20.4676 C   0  0  0  0  0  0  0  0  0  0  0  0
  -30.7811  -23.0557   20.5744 C   0  0  1  0  0  0  0  0  0  0  0  0
  -28.6805  -18.1977   19.8397 C   0  0  0  0  0  0  0  0  0  1  0  0
  -31.5280  -25.9121   20.4382 C   0  0  1  0  0  0  0  0  0  0  0  0
  -31.9618  -23.5915   21.3862 C   0  0  1  0  0  0  0  0  0  0  0  0
  -30.2078  -13.8525   28.1148 C   0  0  0  0  0  0  0  0  0  0  0  0
  -24.7055  -12.2739   24.7825 C   0  0  0  0  0  0  0  0  0  0  0  0
  -25.7704  -13.3176   26.7938 C   0  0  0  0  0  0  0  0  0  0  0  0
  -26.1067  -10.8908   26.3246 C   0  0  0  0  0  0  0  0  0  0  0  0
  -32.0882  -13.8556   24.8071 C   0  0  0  0  0  0  0  0  0  0  0  0
  -31.9798  -27.3522   22.2395 C   0  0  0  0  0  0  0  0  0  0  0  0
  -27.2644  -12.6060   24.8721 C   0  0  1  0  0  0  0  0  0  0  0  0
  -30.4915  -13.4329   26.6808 C   0  0  2  0  0  0  0  0  0  0  0  0
  -25.9683  -12.2812   25.6671 C   0  0  0  0  0  0  0  0  0  0  0  0
  -24.9212  -29.2743   20.4284 N   0  0  0  0  0  0  0  0  0  0  0  0
  -26.0709  -29.9370   20.6408 N   0  0  0  0  0  0  0  0  0  0  0  0
  -27.5503  -12.1910   22.4493 N   0  0  0  0  0  0  0  0  0  0  0  0
  -28.3822  -28.1518   18.1751 N   0  0  0  0  0  0  0  0  0  0  0  0
  -27.1198  -31.4801   22.1000 N   0  0  0  0  0  0  0  0  0  0  0  0
  -24.4931  -30.6330   24.7031 N   0  0  0  0  0  0  0  0  0  0  0  0
  -25.6677   -9.8468   20.9230 N   0  0  0  0  0  0  0  0  0  0  0  0
  -28.4795  -12.5931   25.6794 N   0  0  0  0  0  0  0  0  0  0  0  0
  -29.3589  -26.3631   19.3753 N   0  0  0  0  0  0  0  0  0  0  0  0
  -30.1307  -21.9484   21.3241 N   0  3  0  0  0  0  0  0  0  0  0  0
  -31.6824  -14.1871   26.1973 N   0  3  0  0  0  0  0  0  0  0  0  0
  -23.7160  -32.3621   23.4128 O   0  0  0  0  0  0  0  0  0  0  0  0
  -25.5454  -12.1163   20.4160 O   0  0  0  0  0  0  0  0  0  0  0  0
  -27.6439  -10.4391   23.9850 O   0  0  0  0  0  0  0  0  0  0  0  0
  -29.1084  -14.7788   25.2273 O   0  0  0  0  0  0  0  0  0  0  0  0
  -30.3385  -27.1375   17.4524 O   0  0  0  0  0  0  0  0  0  0  0  0
  -32.9909  -22.6085   21.4745 O   0  0  0  0  0  0  0  0  0  0  0  0
  -18.9223  -27.7454   21.9191 O   0  0  0  0  0  0  0  0  0  0  0  0
  -27.9822  -17.2860   18.9986 O   0  0  0  0  0  0  0  0  0  1  0  0
  -31.0666  -26.4144   21.6912 O   0  0  0  0  0  0  0  0  0  0  0  0
  -15.4988  -30.4201   25.3146 F   0  0  0  0  0  0  0  0  0  0  0  0
  -16.5837  -28.8764   20.9734 F   0  0  0  0  0  0  0  0  0  0  0  0
  1  2  1  0  0  0  0
  1  5  2  0  0  0  0
  2  6  2  0  0  0  0
  3  8  2  0  0  0  0
  3 15  1  0  0  0  0
  4  9  1  0  0  0  0
  4 15  2  0  0  0  0
  5 17  1  0  0  0  0
  6 19  1  0  0  0  0
  7 10  2  0  0  0  0
  7 18  1  0  0  0  0
  8 21  1  0  0  0  0
  9 21  2  0  0  0  0
 10 22  1  0  0  0  0
 11 12  2  0  0  0  0
 11 23  1  0  0  0  0
 12 24  1  0  0  0  0
 13 20  1  0  0  0  0
 13 22  2  0  0  0  0
 14 24  2  0  0  0  0
 14 25  1  0  0  0  0
 15 26  1  0  0  0  0
 16 26  1  0  0  0  0
 16 27  2  0  0  0  0
 16 28  1  0  0  0  0
 17 19  2  0  0  0  0
 17 33  1  0  0  0  0
 18 20  2  0  0  0  0
 18 34  1  0  0  0  0
 19 48  1  0  0  0  0
 20 35  1  0  0  0  0
 21 83  1  0  0  0  0
 22 84  1  0  0  0  0
 23 25  2  0  0  0  0
 23 83  1  0  0  0  0
 24 86  1  0  0  0  0
 25 87  1  0  0  0  0
 26 66  2  0  0  0  0
 27 67  1  0  0  0  0
 27 70  1  0  0  0  0
 28 71  1  0  0  0  0
 28 77  2  0  0  0  0
 29 49  1  0  0  0  0
 29 72  1  0  0  0  0
 29 78  2  0  0  0  0
 30 63  1  0  0  0  0
 30 68  1  0  0  0  0
 30 79  2  0  0  0  0
 31 64  1  0  0  0  0
 31 73  1  0  0  0  0
 31 80  2  0  0  0  0
 32 69  1  0  0  0  0
 32 74  1  0  0  0  0
 32 81  2  0  0  0  0
 33 36  1  0  0  0  0
 34 49  1  0  0  0  0
 35 68  1  0  0  0  0
 36 38  1  0  0  0  0
 37 39  1  0  0  0  0
 37 46  1  0  0  0  0
 38 48  1  0  0  0  0
 39 50  1  0  0  0  0
 40 42  1  0  0  0  0
 40 52  1  0  0  0  0
 41 43  1  0  0  0  0
 41 52  1  0  0  0  0
 42 54  1  0  0  0  0
 43 54  1  0  0  0  0
 44 51  1  0  0  0  0
 44 53  1  0  0  0  0
 45 55  1  0  0  0  0
 45 56  1  0  0  0  0
 46 69  1  0  0  0  0
 47 50  1  0  0  0  0
 47 69  1  0  0  0  0
 48 72  1  0  0  0  0
 49 68  1  0  0  0  0
 50 67  1  0  0  0  0
 51 55  1  0  0  0  0
 51 74  1  0  0  0  0
 52 75  1  0  0  0  0
 53 56  1  0  0  0  0
 53 75  1  0  0  0  0
 54 84  1  0  0  0  0
 55 85  1  0  0  0  0
 56 82  1  0  0  0  0
 57 64  1  0  0  0  0
 58 65  1  0  0  0  0
 59 65  1  0  0  0  0
 60 65  1  0  0  0  0
 61 76  1  0  0  0  0
 62 85  1  0  0  0  0
 63 65  1  0  0  0  0
 63 73  1  0  0  0  0
 64 76  1  0  0  0  0
 66 67  1  0  0  0  0
M  CHG  2  75   1  76   1
M  ISO  4  32 100  54 101  74 100  84 101
M  END
> <Batch ID>
0129

> <Smiles>
CNC(C)C(=O)NC(C(=O)N1Cc2cc([101O:1][101CH:1]3CCC(NC4CC([100NH:0][100C:0](=O)N5CCCC(n6nc(-c7ccc(Oc8ccc(F)cc8F)cc7)c(C(N)=O)c6N)C5)C(OC)CC4O)CC3)ccc2CC1C(=O)NC1CCCc2ccccc21)C(C)(C)C

> <Shape>
0.266

> <Color>
0.057

> <Negative vol penalty>
0.000

$$$$

  -OEChem-04052320453D

 84 92  0     1  0  0  0  0  0999 V2000
  -28.6214  -31.5194   26.9555 C   0  0  0  0  0  0  0  0  0  0  0  0
  -28.5614  -30.4552   26.0614 C   0  0  0  0  0  0  0  0  0  0  0  0
  -23.4356  -14.1453   22.0158 C   0  0  0  0  0  0  0  0  0  0  0  0
  -25.4418  -14.5355   23.3041 C   0  0  0  0  0  0  0  0  0  0  0  0
  -27.4477  -32.1492   27.3674 C   0  0  0  0  0  0  0  0  0  0  0  0
  -27.3275  -30.0196   25.5795 C   0  0  0  0  0  0  0  0  0  0  0  0
  -27.3787  -29.1797   20.5858 C   0  0  0  0  0  0  0  0  0  0  0  0
  -24.1506  -13.3129   21.1545 C   0  0  0  0  0  0  0  0  0  0  0  0
  -26.1568  -13.7031   22.4429 C   0  0  0  0  0  0  0  0  0  0  0  0
  -27.9617  -27.9922   20.1458 C   0  0  0  0  0  0  0  0  0  0  0  0
  -27.5522  -13.9062   19.3701 C   0  0  0  0  0  0  0  0  0  0  0  0
  -28.7997  -14.3478   18.9293 C   0  0  0  0  0  0  0  0  0  0  0  0
  -25.7708  -27.0093   19.9150 C   0  0  0  0  0  0  0  0  0  0  0  0
  -27.8694  -24.8821   21.7412 C   0  0  0  0  0  0  0  0  0  0  0  0
  -29.8395  -12.4111   19.9318 C   0  0  0  0  0  0  0  0  0  0  0  0
  -24.0813  -14.7566   23.0905 C   0  0  0  0  0  0  0  0  0  0  0  0
  -22.6625  -15.2427   25.1542 C   0  0  0  0  0  0  0  0  0  0  0  0
  -26.1995  -31.7273   26.8829 C   0  0  0  0  0  0  0  0  0  0  0  0
  -25.9856  -29.2876   20.7043 C   0  0  0  0  0  0  0  0  0  0  0  0
  -26.1359  -30.6435   25.9864 C   0  0  0  0  0  0  0  0  0  0  0  0
  -25.1725  -28.2001   20.3543 C   0  0  0  0  0  0  0  0  0  0  0  0
  -25.5111  -13.0919   21.3681 C   0  0  0  0  0  0  0  0  0  0  0  0
  -27.1579  -26.9058   19.8131 C   0  0  0  0  0  0  0  0  0  0  0  0
  -27.4484  -12.7170   20.0918 C   0  0  0  0  0  0  0  0  0  0  0  0
  -28.0523  -24.7971   20.3388 C   0  0  0  0  0  0  0  0  0  1  0  0
  -29.9433  -13.6003   19.2101 C   0  0  0  0  0  0  0  0  0  0  0  0
  -28.5920  -11.9695   20.3726 C   0  0  0  0  0  0  0  0  0  0  0  0
  -23.3434  -15.6169   23.9802 C   0  0  0  0  0  0  0  0  0  0  0  0
  -28.3403  -23.7092   22.2891 C   0  0  0  0  0  0  0  0  0  0  0  0
  -28.6296  -23.5751   20.0725 C   0  0  0  0  0  0  0  0  0  0  0  0
  -22.1295  -16.4155   25.6305 C   0  0  0  0  0  0  0  0  0  0  0  0
  -22.5243  -13.9506   25.7599 C   0  0  0  0  0  0  0  0  0  0  0  0
  -23.9730  -29.8160   23.1072 C   0  0  0  0  0  0  0  0  0  0  0  0
  -21.7695  -29.9054   20.7284 C   0  0  0  0  0  0  0  0  0  0  0  0
  -20.8844  -28.9866   17.5630 C   0  0  0  0  0  0  0  0  0  0  0  0
  -23.6696  -22.1628   24.9610 C   0  0  0  0  0  0  0  0  0  0  0  0
  -24.9546  -32.4086   27.3935 C   0  0  0  0  0  0  0  0  0  0  0  0
  -25.3709  -30.5843   21.1549 C   0  0  0  0  0  0  0  0  0  0  0  0
  -23.6708  -28.2714   20.4446 C   0  0  0  0  0  0  0  0  0  0  0  0
  -23.7160  -32.1284   26.5465 C   0  0  0  0  0  0  0  0  0  0  0  0
  -20.5366  -20.6776   24.1514 C   0  0  0  0  0  0  0  0  0  0  0  0
  -23.6091  -30.6394   26.2332 C   0  0  0  0  0  0  0  0  0  0  0  0
  -20.8393  -19.1785   24.1216 C   0  0  0  0  0  0  0  0  0  0  0  0
  -21.7032  -21.4998   23.6081 C   0  0  0  0  0  0  0  0  0  0  0  0
  -23.3059  -19.7305   24.2204 C   0  0  0  0  0  0  0  0  0  0  0  0
  -24.8183  -30.1581   25.4222 C   0  0  1  0  0  0  0  0  0  0  0  0
  -23.9676  -30.4130   21.7283 C   0  0  1  0  0  0  0  0  0  0  0  0
  -22.1806  -18.8635   24.8106 C   0  0  2  0  0  0  0  0  0  0  0  0
  -29.0337  -22.9732   18.7840 C   0  0  0  0  0  0  0  0  0  0  0  0
  -19.0068  -29.1768   15.9090 C   0  0  0  0  0  0  0  0  0  0  0  0
  -28.3729  -20.6040   21.9985 C   0  0  0  0  0  0  0  0  0  0  0  0
  -30.6711  -21.6375   22.2361 C   0  0  0  0  0  0  0  0  0  0  0  0
  -20.1941  -27.8018   22.2785 C   0  0  0  0  0  0  0  0  0  0  0  0
  -18.8826  -27.3490   20.1945 C   0  0  0  0  0  0  0  0  0  0  0  0
  -18.7976  -29.6058   21.2539 C   0  0  0  0  0  0  0  0  0  0  0  0
  -22.5922  -30.4152   15.6132 C   0  0  0  0  0  0  0  0  0  0  0  0
  -28.3883  -23.2769   23.7012 C   0  0  0  0  0  0  0  0  0  0  0  0
  -25.6802  -22.6689   26.3250 C   0  0  0  0  0  0  0  0  0  0  0  0
  -27.0871  -22.7189   25.7590 C   0  0  0  0  0  0  0  0  0  0  0  0
  -20.8955  -28.8838   20.0417 C   0  0  1  0  0  0  0  0  0  0  0  0
  -20.3093  -29.7841   16.4064 C   0  0  2  0  0  0  0  0  0  0  0  0
  -29.3769  -21.6035   21.4209 C   0  0  0  0  0  0  0  0  0  0  0  0
  -19.7208  -28.4078   20.9422 C   0  0  0  0  0  0  0  0  0  0  0  0
  -23.2527  -16.9251   23.7262 N   0  0  0  0  0  0  0  0  0  0  0  0
  -28.7999  -22.9223   21.2654 N   0  0  0  0  0  0  0  0  0  0  0  0
  -22.5084  -17.3831   24.7472 N   0  0  0  0  0  0  0  0  0  0  0  0
  -23.1176  -29.5588   20.8965 N   0  0  0  0  0  0  0  0  0  0  0  0
  -22.9448  -21.1544   24.3046 N   0  0  0  0  0  0  0  0  0  0  0  0
  -21.3782  -16.7031   26.7146 N   0  0  0  0  0  0  0  0  0  0  0  0
  -23.1357  -12.8528   25.1391 N   0  0  0  0  0  0  0  0  0  0  0  0
  -24.6856  -30.5507   24.0356 N   0  0  0  0  0  0  0  0  0  0  0  0
  -20.4758  -29.4869   18.7813 N   0  0  0  0  0  0  0  0  0  0  0  0
  -24.8312  -21.7488   25.6015 N   0  0  0  0  0  0  0  0  0  0  0  0
  -21.2746  -29.8201   15.2715 N   0  3  0  0  0  0  0  0  0  0  0  0
  -27.0477  -23.2071   24.3583 N   0  3  0  0  0  0  0  0  0  0  0  0
  -21.8641  -13.7720   26.8114 O   0  0  0  0  0  0  0  0  0  0  0  0
  -23.3737  -28.7673   23.3139 O   0  0  0  0  0  0  0  0  0  0  0  0
  -21.2759  -30.9746   21.0954 O   0  0  0  0  0  0  0  0  0  0  0  0
  -21.6193  -28.0148   17.4019 O   0  0  0  0  0  0  0  0  0  0  0  0
  -23.3055  -23.3435   24.9797 O   0  0  0  0  0  0  0  0  0  0  0  0
  -26.2090  -12.2795   20.5281 O   0  0  0  0  0  0  0  0  0  0  0  0
  -27.7243  -25.7452   19.3840 O   0  0  0  0  0  0  0  0  0  1  0  0
  -31.1411  -14.0237   18.7854 F   0  0  0  0  0  0  0  0  0  0  0  0
  -28.4984  -10.8257   21.0646 F   0  0  0  0  0  0  0  0  0  0  0  0
  1  2  1  0  0  0  0
  1  5  2  0  0  0  0
  2  6  2  0  0  0  0
  3  8  2  0  0  0  0
  3 16  1  0  0  0  0
  4  9  1  0  0  0  0
  4 16  2  0  0  0  0
  5 18  1  0  0  0  0
  6 20  1  0  0  0  0
  7 10  2  0  0  0  0
  7 19  1  0  0  0  0
  8 22  1  0  0  0  0
  9 22  2  0  0  0  0
 10 23  1  0  0  0  0
 11 12  2  0  0  0  0
 11 24  1  0  0  0  0
 12 26  1  0  0  0  0
 13 21  1  0  0  0  0
 13 23  2  0  0  0  0
 14 25  1  0  0  0  0
 14 29  2  0  0  0  0
 15 26  2  0  0  0  0
 15 27  1  0  0  0  0
 16 28  1  0  0  0  0
 17 28  1  0  0  0  0
 17 31  2  0  0  0  0
 17 32  1  0  0  0  0
 18 20  2  0  0  0  0
 18 37  1  0  0  0  0
 19 21  2  0  0  0  0
 19 38  1  0  0  0  0
 20 46  1  0  0  0  0
 21 39  1  0  0  0  0
 22 81  1  0  0  0  0
 23 82  1  0  0  0  0
 24 27  2  0  0  0  0
 24 81  1  0  0  0  0
 25 30  2  0  0  0  0
 25 82  1  0  0  0  0
 26 83  1  0  0  0  0
 27 84  1  0  0  0  0
 28 64  2  0  0  0  0
 29 57  1  0  0  0  0
 29 65  1  0  0  0  0
 30 49  1  0  0  0  0
 30 65  1  0  0  0  0
 31 66  1  0  0  0  0
 31 69  1  0  0  0  0
 32 70  1  0  0  0  0
 32 76  2  0  0  0  0
 33 47  1  0  0  0  0
 33 71  1  0  0  0  0
 33 77  2  0  0  0  0
 34 60  1  0  0  0  0
 34 67  1  0  0  0  0
 34 78  2  0  0  0  0
 35 61  1  0  0  0  0
 35 72  1  0  0  0  0
 35 79  2  0  0  0  0
 36 68  1  0  0  0  0
 36 73  1  0  0  0  0
 36 80  2  0  0  0  0
 37 40  1  0  0  0  0
 38 47  1  0  0  0  0
 39 67  1  0  0  0  0
 40 42  1  0  0  0  0
 41 43  1  0  0  0  0
 41 44  1  0  0  0  0
 42 46  1  0  0  0  0
 43 48  1  0  0  0  0
 44 68  1  0  0  0  0
 45 48  1  0  0  0  0
 45 68  1  0  0  0  0
 46 71  1  0  0  0  0
 47 67  1  0  0  0  0
 48 66  1  0  0  0  0
 50 61  1  0  0  0  0
 51 62  1  0  0  0  0
 52 62  1  0  0  0  0
 53 63  1  0  0  0  0
 54 63  1  0  0  0  0
 55 63  1  0  0  0  0
 56 74  1  0  0  0  0
 57 75  1  0  0  0  0
 58 59  1  0  0  0  0
 58 73  1  0  0  0  0
 59 75  1  0  0  0  0
 60 63  1  0  0  0  0
 60 72  1  0  0  0  0
 61 74  1  0  0  0  0
 62 65  1  0  0  0  0
 64 66  1  0  0  0  0
M  CHG  2  74   1  75   1
M  ISO  4  25 101  36 100  73 100  82 101
M  END
> <Batch ID>
0129

> <Smiles>
CNC(C)C(=O)NC(C(=O)N1Cc2cc([101O:1][101c:1]3cc(CNCC[100NH:0][100C:0](=O)N4CCCC(n5nc(-c6ccc(Oc7ccc(F)cc7F)cc6)c(C(N)=O)c5N)C4)n(C(C)C)c3C)ccc2CC1C(=O)NC1CCCc2ccccc21)C(C)(C)C

> <Shape>
0.220

> <Color>
0.073

> <Negative vol penalty>
0.000

$$$$

  -OEChem-04052320453D

 87 95  0     1  0  0  0  0  0999 V2000
  -19.8324  -26.6002   26.4234 C   0  0  0  0  0  0  0  0  0  0  0  0
  -21.1357  -26.4322   25.9668 C   0  0  0  0  0  0  0  0  0  0  0  0
  -26.3955  -12.9073   20.4728 C   0  0  0  0  0  0  0  0  0  0  0  0
  -24.9291  -14.7333   21.0662 C   0  0  0  0  0  0  0  0  0  0  0  0
  -18.8257  -26.9724   25.5334 C   0  0  0  0  0  0  0  0  0  0  0  0
  -21.4330  -26.6352   24.6197 C   0  0  0  0  0  0  0  0  0  0  0  0
  -26.6095  -28.9428   22.2992 C   0  0  0  0  0  0  0  0  0  0  0  0
  -30.7889  -24.6184   20.4928 C   0  0  0  0  0  0  0  0  0  0  0  0
  -30.6926  -23.6879   21.5275 C   0  0  0  0  0  0  0  0  0  0  0  0
  -25.5416  -12.0121   21.1170 C   0  0  0  0  0  0  0  0  0  0  0  0
  -24.0751  -13.8382   21.7104 C   0  0  0  0  0  0  0  0  0  0  0  0
  -27.7396  -28.3416   21.7468 C   0  0  0  0  0  0  0  0  0  0  0  0
  -22.6084  -10.4609   20.4665 C   0  0  0  0  0  0  0  0  0  0  0  0
  -22.2974   -9.2723   19.8062 C   0  0  0  0  0  0  0  0  0  0  0  0
  -26.8222  -28.6598   19.5386 C   0  0  0  0  0  0  0  0  0  0  0  0
  -28.5649  -24.0287   19.7557 C   0  0  0  0  0  0  0  0  0  0  0  0
  -23.2499   -8.0087   21.6319 C   0  0  0  0  0  0  0  0  0  0  0  0
  -26.0894  -14.2679   20.4474 C   0  0  0  0  0  0  0  0  0  0  0  0
  -26.9236  -15.5934   18.4338 C   0  0  0  0  0  0  0  0  0  0  0  0
  -19.1127  -27.1896   24.1765 C   0  0  0  0  0  0  0  0  0  0  0  0
  -25.5706  -29.3980   21.4746 C   0  0  0  0  0  0  0  0  0  0  0  0
  -20.4290  -27.0094   23.7104 C   0  0  0  0  0  0  0  0  0  0  0  0
  -25.6811  -29.2687   20.0828 C   0  0  0  0  0  0  0  0  0  0  0  0
  -29.7249  -24.7888   19.6069 C   0  0  0  0  0  0  0  0  0  0  0  0
  -29.5326  -22.9278   21.6763 C   0  0  0  0  0  0  0  0  0  0  0  0
  -28.4687  -23.0982   20.7904 C   0  0  0  0  0  0  0  0  0  0  0  0
  -24.3813  -12.4775   21.7358 C   0  0  0  0  0  0  0  0  0  0  0  0
  -27.8448  -28.1974   20.3665 C   0  0  0  0  0  0  0  0  0  0  0  0
  -23.2402  -10.4234   21.7096 C   0  0  0  0  0  0  0  0  0  0  0  0
  -22.6181   -8.0462   20.3888 C   0  0  0  0  0  0  0  0  0  0  0  0
  -23.5610   -9.1973   22.2922 C   0  0  0  0  0  0  0  0  0  0  0  0
  -26.9714  -15.1932   19.7826 C   0  0  0  0  0  0  0  0  0  0  0  0
  -27.9674  -16.4761   18.3004 C   0  0  0  0  0  0  0  0  0  0  0  0
  -26.0167  -15.2023   17.3944 C   0  0  0  0  0  0  0  0  0  0  0  0
  -22.4933  -28.6760   21.1386 C   0  0  0  0  0  0  0  0  0  0  0  0
  -22.5274  -31.1926   19.0921 C   0  0  0  0  0  0  0  0  0  0  0  0
  -24.3301  -33.2148   17.0166 C   0  0  0  0  0  0  0  0  0  0  0  0
  -30.8636  -19.9844   22.1934 C   0  0  0  0  0  0  0  0  0  0  0  0
  -17.9824  -27.5449   23.2433 C   0  0  0  0  0  0  0  0  0  0  0  0
  -24.3701  -30.0685   22.0844 C   0  0  0  0  0  0  0  0  0  0  0  0
  -24.6027  -29.7591   19.1527 C   0  0  0  0  0  0  0  0  0  0  0  0
  -18.4521  -28.1054   21.9034 C   0  0  0  0  0  0  0  0  0  0  0  0
  -32.2837  -17.4717   20.1086 C   0  0  0  0  0  0  0  0  0  0  0  0
  -19.5766  -27.2484   21.3309 C   0  0  0  0  0  0  0  0  0  0  0  0
  -31.0789  -16.6390   19.6669 C   0  0  0  0  0  0  0  0  0  0  0  0
  -32.1357  -17.9590   21.5482 C   0  0  0  0  0  0  0  0  0  0  0  0
  -29.6786  -17.8524   21.3889 C   0  0  0  0  0  0  0  0  0  0  0  0
  -20.7957  -27.2446   22.2612 C   0  0  1  0  0  0  0  0  0  0  0  0
  -23.1415  -30.0309   21.1809 C   0  0  1  0  0  0  0  0  0  0  0  0
  -29.7563  -17.3853   19.9253 C   0  0  2  0  0  0  0  0  0  0  0  0
  -26.0716  -23.9778   22.4936 C   0  0  0  0  0  0  0  0  0  0  0  0
  -29.7481  -25.1168   17.1122 C   0  0  0  0  0  0  0  0  0  0  0  0
  -24.0756  -35.1598   15.4516 C   0  0  0  0  0  0  0  0  0  0  0  0
  -21.3113  -29.3416   16.9933 C   0  0  0  0  0  0  0  0  0  0  0  0
  -21.9571  -31.0136   15.2454 C   0  0  0  0  0  0  0  0  0  0  0  0
  -20.3425  -31.6467   17.0383 C   0  0  0  0  0  0  0  0  0  0  0  0
  -26.1530  -34.8994   18.6284 C   0  0  0  0  0  0  0  0  0  0  0  0
  -29.4531  -21.9370   22.7910 C   0  0  0  0  0  0  0  0  0  0  0  0
  -25.9603  -23.1710   21.2051 C   0  0  0  0  0  0  0  0  0  0  0  0
  -26.9355  -21.3922   19.6960 C   0  0  0  0  0  0  0  0  0  0  0  0
  -25.9237  -20.2869   19.9851 C   0  0  0  0  0  0  0  0  0  0  0  0
  -28.7694  -26.9057   18.5966 C   0  0  0  0  0  0  0  0  0  1  0  0
  -29.8303  -25.8029   18.4787 C   0  0  1  0  0  0  0  0  0  0  0  0
  -27.2170  -22.2954   20.9299 C   0  0  1  0  0  0  0  0  0  0  0  0
  -22.7879  -31.3661   17.6153 C   0  0  1  0  0  0  0  0  0  0  0  0
  -24.3811  -34.7255   16.8766 C   0  0  2  0  0  0  0  0  0  0  0  0
  -21.6193  -30.8309   16.7404 C   0  0  0  0  0  0  0  0  0  0  0  0
  -27.9669  -15.7738   20.4578 N   0  0  0  0  0  0  0  0  0  0  0  0
  -28.5544  -16.5478   19.5294 N   0  0  0  0  0  0  0  0  0  0  0  0
  -23.4458  -30.4020   19.7974 N   0  0  0  0  0  0  0  0  0  0  0  0
  -30.8616  -18.6597   21.7261 N   0  0  0  0  0  0  0  0  0  0  0  0
  -28.4314  -17.1900   17.2528 N   0  0  0  0  0  0  0  0  0  0  0  0
  -25.0019  -14.2862   17.7029 N   0  0  0  0  0  0  0  0  0  0  0  0
  -21.5422  -28.4765   22.1210 N   0  0  0  0  0  0  0  0  0  0  0  0
  -23.0839  -32.7807   17.4165 N   0  0  0  0  0  0  0  0  0  0  0  0
  -29.6138  -20.5768   22.3275 N   0  0  0  0  0  0  0  0  0  0  0  0
  -25.7330  -35.2343   17.2434 N   0  3  0  0  0  0  0  0  0  0  0  0
  -26.1137  -15.6395   16.2227 O   0  0  0  0  0  0  0  0  0  0  0  0
  -22.8300  -27.8717   20.2776 O   0  0  0  0  0  0  0  0  0  0  0  0
  -21.5492  -31.7442   19.6025 O   0  0  0  0  0  0  0  0  0  0  0  0
  -25.2978  -32.4918   16.7901 O   0  0  0  0  0  0  0  0  0  0  0  0
  -31.9024  -20.5957   22.4655 O   0  0  0  0  0  0  0  0  0  0  0  0
  -25.7506  -19.5079   18.8080 O   0  0  0  0  0  0  0  0  0  0  0  0
  -23.5477  -11.6043   22.3643 O   0  0  0  0  0  0  0  0  0  0  0  0
  -28.9465  -27.6103   19.8248 O   0  0  0  0  0  0  0  0  0  1  0  0
  -22.3179   -6.9048   19.7553 F   0  0  0  0  0  0  0  0  0  0  0  0
  -24.1669   -9.1550   23.4867 F   0  0  0  0  0  0  0  0  0  0  0  0
  1  2  1  0  0  0  0
  1  5  2  0  0  0  0
  2  6  2  0  0  0  0
  3 10  2  0  0  0  0
  3 18  1  0  0  0  0
  4 11  1  0  0  0  0
  4 18  2  0  0  0  0
  5 20  1  0  0  0  0
  6 22  1  0  0  0  0
  7 12  2  0  0  0  0
  7 21  1  0  0  0  0
  8  9  2  0  0  0  0
  8 24  1  0  0  0  0
  9 25  1  0  0  0  0
 10 27  1  0  0  0  0
 11 27  2  0  0  0  0
 12 28  1  0  0  0  0
 13 14  2  0  0  0  0
 13 29  1  0  0  0  0
 14 30  1  0  0  0  0
 15 23  1  0  0  0  0
 15 28  2  0  0  0  0
 16 24  2  0  0  0  0
 16 26  1  0  0  0  0
 17 30  2  0  0  0  0
 17 31  1  0  0  0  0
 18 32  1  0  0  0  0
 19 32  1  0  0  0  0
 19 33  2  0  0  0  0
 19 34  1  0  0  0  0
 20 22  2  0  0  0  0
 20 39  1  0  0  0  0
 21 23  2  0  0  0  0
 21 40  1  0  0  0  0
 22 48  1  0  0  0  0
 23 41  1  0  0  0  0
 24 63  1  0  0  0  0
 25 26  2  0  0  0  0
 25 58  1  0  0  0  0
 26 64  1  0  0  0  0
 27 84  1  0  0  0  0
 28 85  1  0  0  0  0
 29 31  2  0  0  0  0
 29 84  1  0  0  0  0
 30 86  1  0  0  0  0
 31 87  1  0  0  0  0
 32 68  2  0  0  0  0
 33 69  1  0  0  0  0
 33 72  1  0  0  0  0
 34 73  1  0  0  0  0
 34 78  2  0  0  0  0
 35 49  1  0  0  0  0
 35 74  1  0  0  0  0
 35 79  2  0  0  0  0
 36 65  1  0  0  0  0
 36 70  1  0  0  0  0
 36 80  2  0  0  0  0
 37 66  1  0  0  0  0
 37 75  1  0  0  0  0
 37 81  2  0  0  0  0
 38 71  1  0  0  0  0
 38 76  1  0  0  0  0
 38 82  2  0  0  0  0
 39 42  1  0  0  0  0
 40 49  1  0  0  0  0
 41 70  1  0  0  0  0
 42 44  1  0  0  0  0
 43 45  1  0  0  0  0
 43 46  1  0  0  0  0
 44 48  1  0  0  0  0
 45 50  1  0  0  0  0
 46 71  1  0  0  0  0
 47 50  1  0  0  0  0
 47 71  1  0  0  0  0
 48 74  1  0  0  0  0
 49 70  1  0  0  0  0
 50 69  1  0  0  0  0
 51 59  1  0  0  0  0
 52 63  1  0  0  0  0
 53 66  1  0  0  0  0
 54 67  1  0  0  0  0
 55 67  1  0  0  0  0
 56 67  1  0  0  0  0
 57 77  1  0  0  0  0
 58 76  1  0  0  0  0
 59 64  1  0  0  0  0
 60 61  1  0  0  0  0
 60 64  1  0  0  0  0
 61 83  1  0  0  0  0
 62 63  1  0  0  0  0
 62 85  1  0  0  0  0
 65 67  1  0  0  0  0
 65 75  1  0  0  0  0
 66 77  1  0  0  0  0
 68 69  1  0  0  0  0
M  CHG  1  77   1
M  ISO  4  38 100  62 101  76 100  85 101
M  END
> <Batch ID>
0129

> <Smiles>
CCC(CCO)c1cc(C(C)[101CH2:1][101O:1]c2ccc3c(c2)CN(C(=O)C(NC(=O)C(C)NC)C(C)(C)C)C(C(=O)NC2CCCc4ccccc42)C3)ccc1C[100NH:0][100C:0](=O)N1CCCC(n2nc(-c3ccc(Oc4ccc(F)cc4F)cc3)c(C(N)=O)c2N)C1

> <Shape>
0.259

> <Color>
0.076

> <Negative vol penalty>
0.000

$$$$

  -OEChem-04052320453D

 86 94  0     1  0  0  0  0  0999 V2000
  -28.4739  -19.4552    7.3255 C   0  0  0  0  0  0  0  0  0  0  0  0
  -28.8860  -19.3544    8.6504 C   0  0  0  0  0  0  0  0  0  0  0  0
  -22.8141  -10.1354   20.1487 C   0  0  0  0  0  0  0  0  0  0  0  0
  -24.2096   -9.6055   22.0484 C   0  0  0  0  0  0  0  0  0  0  0  0
  -27.1289  -19.6726    7.0297 C   0  0  0  0  0  0  0  0  0  0  0  0
  -27.9534  -19.4720    9.6804 C   0  0  0  0  0  0  0  0  0  0  0  0
  -27.9959  -16.5112   15.0411 C   0  0  0  0  0  0  0  0  0  0  0  0
  -22.0868   -8.9633   20.3560 C   0  0  0  0  0  0  0  0  0  0  0  0
  -23.4823   -8.4335   22.2557 C   0  0  0  0  0  0  0  0  0  0  0  0
  -28.4226  -16.8837   16.3151 C   0  0  0  0  0  0  0  0  0  0  0  0
  -19.6386   -7.8837   22.4232 C   0  0  0  0  0  0  0  0  0  0  0  0
  -18.2475   -7.9640   22.3588 C   0  0  0  0  0  0  0  0  0  0  0  0
  -26.1624  -17.5059   16.8836 C   0  0  0  0  0  0  0  0  0  0  0  0
  -18.2400   -6.3726   20.5409 C   0  0  0  0  0  0  0  0  0  0  0  0
  -23.8755  -10.4564   20.9948 C   0  0  0  0  0  0  0  0  0  0  0  0
  -24.1371  -12.9862   20.7959 C   0  0  0  0  0  0  0  0  0  0  0  0
  -26.1778  -19.7833    8.0563 C   0  0  0  0  0  0  0  0  0  0  0  0
  -26.6489  -16.6437   14.6746 C   0  0  0  0  0  0  0  0  0  0  0  0
  -26.5946  -19.6924    9.3981 C   0  0  0  0  0  0  0  0  0  0  0  0
  -25.7207  -17.1320   15.6053 C   0  0  0  0  0  0  0  0  0  0  0  0
  -22.4209   -8.1124   21.4095 C   0  0  0  0  0  0  0  0  0  0  0  0
  -27.5063  -17.3839   17.2356 C   0  0  0  0  0  0  0  0  0  0  0  0
  -20.3303   -7.0479   21.5465 C   0  0  0  0  0  0  0  0  0  0  0  0
  -17.5482   -7.2084   21.4176 C   0  0  0  0  0  0  0  0  0  0  0  0
  -19.6310   -6.2924   20.6054 C   0  0  0  0  0  0  0  0  0  0  0  0
  -24.6275  -11.6667   20.7808 C   0  0  0  0  0  0  0  0  0  0  0  0
  -25.2393  -13.7651   20.5411 C   0  0  0  0  0  0  0  0  0  0  0  0
  -22.8043  -13.4649   21.0202 C   0  0  0  0  0  0  0  0  0  0  0  0
  -25.0774  -18.3097   12.4704 C   0  0  0  0  0  0  0  0  0  0  0  0
  -22.5390  -16.6026   13.5497 C   0  0  0  0  0  0  0  0  0  0  0  0
  -21.1097  -14.8298   16.0915 C   0  0  0  0  0  0  0  0  0  0  0  0
  -31.1093  -12.9174   21.3626 C   0  0  0  0  0  0  0  0  0  0  0  0
  -24.7425  -20.0653    7.6888 C   0  0  0  0  0  0  0  0  0  0  0  0
  -26.1998  -16.2123   13.3054 C   0  0  0  0  0  0  0  0  0  0  0  0
  -24.2597  -17.2748   15.2680 C   0  0  0  0  0  0  0  0  0  0  0  0
  -23.7597  -19.8044    8.8274 C   0  0  0  0  0  0  0  0  0  0  0  0
  -29.4619  -13.6577   18.2943 C   0  0  0  0  0  0  0  0  0  0  0  0
  -24.2730  -20.4172   10.1266 C   0  0  0  0  0  0  0  0  0  0  0  0
  -27.9919  -13.3504   18.5850 C   0  0  0  0  0  0  0  0  0  0  0  0
  -30.7802  -16.5639   26.4824 C   0  0  0  0  0  0  0  0  0  0  0  0
  -30.3942  -12.6776   19.0031 C   0  0  0  0  0  0  0  0  0  0  0  0
  -28.7067  -12.2499   20.7475 C   0  0  0  0  0  0  0  0  0  0  0  0
  -30.6206  -17.9875   26.9926 C   0  0  0  0  0  0  0  0  0  0  0  0
  -28.6314  -18.3181   25.5045 C   0  0  0  0  0  0  0  0  0  0  0  0
  -25.6091  -19.7898   10.5423 C   0  0  1  0  0  0  0  0  0  0  0  0
  -24.8955  -16.8724   12.8688 C   0  0  1  0  0  0  0  0  0  0  0  0
  -28.7610  -16.8878   24.9699 C   0  0  2  0  0  0  0  0  0  0  0  0
  -27.7297  -13.2458   20.0994 C   0  0  2  0  0  0  0  0  0  0  0  0
  -30.2248  -16.4188   25.0641 C   0  0  2  0  0  0  0  0  0  0  0  0
  -19.0128  -13.5887   16.6916 C   0  0  0  0  0  0  0  0  0  0  0  0
  -26.7211  -17.1564   23.5276 C   0  0  0  0  0  0  0  0  0  0  0  0
  -21.0902  -19.2557   13.9639 C   0  0  0  0  0  0  0  0  0  0  0  0
  -19.4410  -18.0494   15.4107 C   0  0  0  0  0  0  0  0  0  0  0  0
  -19.6730  -17.4318   13.0050 C   0  0  0  0  0  0  0  0  0  0  0  0
  -22.5816  -12.2895   16.4645 C   0  0  0  0  0  0  0  0  0  0  0  0
  -31.6706  -13.1311   23.7706 C   0  0  0  0  0  0  0  0  0  0  0  0
  -31.6757  -14.5974   24.1609 C   0  0  0  0  0  0  0  0  0  0  0  0
  -29.5901  -18.1038   20.1731 C   0  0  0  0  0  0  0  0  0  0  0  0
  -29.0159  -17.7059   22.5711 C   0  0  0  0  0  0  0  0  0  0  0  0
  -29.3078  -17.5926   18.7741 C   0  0  0  0  0  0  0  0  0  1  0  0
  -21.5024  -16.7955   14.6300 C   0  0  1  0  0  0  0  0  0  0  0  0
  -20.4146  -13.4804   16.1119 C   0  0  2  0  0  0  0  0  0  0  0  0
  -28.2153  -16.8294   23.5410 C   0  0  1  0  0  0  0  0  0  0  0  0
  -20.4545  -17.8824   14.2585 C   0  0  0  0  0  0  0  0  0  0  0  0
  -25.9392  -11.6069   20.5357 N   0  0  0  0  0  0  0  0  0  0  0  0
  -26.2822  -12.8986   20.3943 N   0  0  0  0  0  0  0  0  0  0  0  0
  -23.8708  -16.8455   13.9145 N   0  0  0  0  0  0  0  0  0  0  0  0
  -30.0944  -12.6267   20.4361 N   0  0  0  0  0  0  0  0  0  0  0  0
  -25.4083  -15.0999   20.4305 N   0  0  0  0  0  0  0  0  0  0  0  0
  -21.7909  -12.5289   21.2675 N   0  0  0  0  0  0  0  0  0  0  0  0
  -25.3929  -18.4882   11.1369 N   0  0  0  0  0  0  0  0  0  0  0  0
  -20.9312  -15.4781   14.8877 N   0  0  0  0  0  0  0  0  0  0  0  0
  -30.7392  -12.8524   22.7004 N   0  0  0  0  0  0  0  0  0  0  0  0
  -29.1861  -18.3858   26.8899 N   0  3  0  0  0  0  0  0  0  0  0  0
  -30.3343  -14.9875   24.6675 N   0  3  0  0  0  0  0  0  0  0  0  0
  -21.1902  -12.5106   16.9358 N   0  3  0  0  0  0  0  0  0  0  0  0
  -28.8002  -17.3148   21.1518 N   0  3  0  0  0  0  0  0  0  0  0  0
  -22.5175  -14.6856   20.9856 O   0  0  0  0  0  0  0  0  0  0  0  0
  -24.9401  -19.1915   13.3101 O   0  0  0  0  0  0  0  0  0  0  0  0
  -22.1811  -16.2424   12.4255 O   0  0  0  0  0  0  0  0  0  0  0  0
  -21.7441  -15.2668   17.0491 O   0  0  0  0  0  0  0  0  0  0  0  0
  -32.2587  -13.2182   21.0228 O   0  0  0  0  0  0  0  0  0  0  0  0
  -21.7113   -6.9687   21.6123 O   0  0  0  0  0  0  0  0  0  0  0  0
  -27.9203  -17.7488   18.4795 O   0  0  0  0  0  0  0  0  0  1  0  0
  -16.2123   -7.2845   21.3568 F   0  0  0  0  0  0  0  0  0  0  0  0
  -20.2900   -5.4867   19.7613 F   0  0  0  0  0  0  0  0  0  0  0  0
  1  2  1  0  0  0  0
  1  5  2  0  0  0  0
  2  6  2  0  0  0  0
  3  8  2  0  0  0  0
  3 15  1  0  0  0  0
  4  9  1  0  0  0  0
  4 15  2  0  0  0  0
  5 17  1  0  0  0  0
  6 19  1  0  0  0  0
  7 10  2  0  0  0  0
  7 18  1  0  0  0  0
  8 21  1  0  0  0  0
  9 21  2  0  0  0  0
 10 22  1  0  0  0  0
 11 12  2  0  0  0  0
 11 23  1  0  0  0  0
 12 24  1  0  0  0  0
 13 20  1  0  0  0  0
 13 22  2  0  0  0  0
 14 24  2  0  0  0  0
 14 25  1  0  0  0  0
 15 26  1  0  0  0  0
 16 26  1  0  0  0  0
 16 27  2  0  0  0  0
 16 28  1  0  0  0  0
 17 19  2  0  0  0  0
 17 33  1  0  0  0  0
 18 20  2  0  0  0  0
 18 34  1  0  0  0  0
 19 45  1  0  0  0  0
 20 35  1  0  0  0  0
 21 83  1  0  0  0  0
 22 84  1  0  0  0  0
 23 25  2  0  0  0  0
 23 83  1  0  0  0  0
 24 85  1  0  0  0  0
 25 86  1  0  0  0  0
 26 65  2  0  0  0  0
 27 66  1  0  0  0  0
 27 69  1  0  0  0  0
 28 70  1  0  0  0  0
 28 78  2  0  0  0  0
 29 46  1  0  0  0  0
 29 71  1  0  0  0  0
 29 79  2  0  0  0  0
 30 61  1  0  0  0  0
 30 67  1  0  0  0  0
 30 80  2  0  0  0  0
 31 62  1  0  0  0  0
 31 72  1  0  0  0  0
 31 81  2  0  0  0  0
 32 68  1  0  0  0  0
 32 73  1  0  0  0  0
 32 82  2  0  0  0  0
 33 36  1  0  0  0  0
 34 46  1  0  0  0  0
 35 67  1  0  0  0  0
 36 38  1  0  0  0  0
 37 39  1  0  0  0  0
 37 41  1  0  0  0  0
 38 45  1  0  0  0  0
 39 48  1  0  0  0  0
 40 43  1  0  0  0  0
 40 49  1  0  0  0  0
 41 68  1  0  0  0  0
 42 48  1  0  0  0  0
 42 68  1  0  0  0  0
 43 74  1  0  0  0  0
 44 47  1  0  0  0  0
 44 74  1  0  0  0  0
 45 71  1  0  0  0  0
 46 67  1  0  0  0  0
 47 49  1  0  0  0  0
 47 63  1  0  0  0  0
 48 66  1  0  0  0  0
 49 75  1  0  0  0  0
 50 62  1  0  0  0  0
 51 63  1  0  0  0  0
 52 64  1  0  0  0  0
 53 64  1  0  0  0  0
 54 64  1  0  0  0  0
 55 76  1  0  0  0  0
 56 57  1  0  0  0  0
 56 73  1  0  0  0  0
 57 75  1  0  0  0  0
 58 60  1  0  0  0  0
 58 77  1  0  0  0  0
 59 63  1  0  0  0  0
 59 77  1  0  0  0  0
 60 84  1  0  0  0  0
 61 64  1  0  0  0  0
 61 72  1  0  0  0  0
 62 76  1  0  0  0  0
 65 66  1  0  0  0  0
M  CHG  4  74   1  75   1  76   1  77   1
M  ISO  4  32 100  60 101  73 100  84 101
M  END
> <Batch ID>
0129

> <Smiles>
CNC(C)C(=O)NC(C(=O)N1Cc2cc([101O:1][101CH2:1]CNCC(C)C3CNCCC3NCC[100NH:0][100C:0](=O)N3CCCC(n4nc(-c5ccc(Oc6ccc(F)cc6F)cc5)c(C(N)=O)c4N)C3)ccc2CC1C(=O)NC1CCCc2ccccc21)C(C)(C)C

> <Shape>
0.148

> <Color>
0.157

> <Negative vol penalty>
0.000

$$$$

  -OEChem-04052320453D

 85 93  0     1  0  0  0  0  0999 V2000
  -31.0359  -25.4184   17.6429 C   0  0  0  0  0  0  0  0  0  0  0  0
  -29.7736  -24.9718   18.0171 C   0  0  0  0  0  0  0  0  0  0  0  0
  -28.5533  -16.9975   19.9696 C   0  0  0  0  0  0  0  0  0  0  0  0
  -28.5483  -15.7386   22.0317 C   0  0  0  0  0  0  0  0  0  0  0  0
  -31.5284  -26.6157   18.1578 C   0  0  0  0  0  0  0  0  0  0  0  0
  -28.9985  -25.7281   18.8969 C   0  0  0  0  0  0  0  0  0  0  0  0
  -24.3777  -24.2237   19.6640 C   0  0  0  0  0  0  0  0  0  0  0  0
  -24.0018  -18.7784   23.1385 C   0  0  0  0  0  0  0  0  0  0  0  0
  -21.7680  -19.6950   23.2220 C   0  0  0  0  0  0  0  0  0  0  0  0
  -23.6187  -17.7645   24.0165 C   0  0  0  0  0  0  0  0  0  0  0  0
  -21.3848  -18.6811   24.0999 C   0  0  0  0  0  0  0  0  0  0  0  0
  -29.3152  -17.9939   20.5796 C   0  0  0  0  0  0  0  0  0  0  0  0
  -29.3103  -16.7350   22.6418 C   0  0  0  0  0  0  0  0  0  0  0  0
  -24.0695  -23.0835   20.4049 C   0  0  0  0  0  0  0  0  0  0  0  0
  -30.9581  -21.0390   21.6984 C   0  0  0  0  0  0  0  0  0  0  0  0
  -30.5847  -22.3657   21.4841 C   0  0  0  0  0  0  0  0  0  0  0  0
  -23.4299  -24.4749   22.2688 C   0  0  0  0  0  0  0  0  0  0  0  0
  -28.4251  -21.9172   22.4701 C   0  0  0  0  0  0  0  0  0  0  0  0
  -28.1698  -15.8698   20.6956 C   0  0  0  0  0  0  0  0  0  0  0  0
  -27.8572  -13.7088   19.3766 C   0  0  0  0  0  0  0  0  0  0  0  0
  -30.7634  -27.3802   19.0541 C   0  0  0  0  0  0  0  0  0  0  0  0
  -24.2245  -25.4998   20.2247 C   0  0  0  0  0  0  0  0  0  0  0  0
  -29.4682  -26.9512   19.4088 C   0  0  0  0  0  0  0  0  0  0  0  0
  -23.7344  -25.6298   21.5321 C   0  0  0  0  0  0  0  0  0  0  0  0
  -23.0766  -19.7437   22.7413 C   0  0  0  0  0  0  0  0  0  0  0  0
  -22.3101  -17.7158   24.4972 C   0  0  0  0  0  0  0  0  0  0  0  0
  -29.6938  -17.8627   21.9157 C   0  0  0  0  0  0  0  0  0  0  0  0
  -23.5982  -23.2089   21.7084 C   0  0  0  0  0  0  0  0  0  0  0  0
  -30.0650  -20.1513   22.2985 C   0  0  0  0  0  0  0  0  0  0  0  0
  -29.3182  -22.8049   21.8700 C   0  0  0  0  0  0  0  0  0  0  0  0
  -28.7985  -20.5904   22.6844 C   0  0  0  0  0  0  0  0  0  0  0  0
  -27.3822  -14.8405   20.0661 C   0  0  0  0  0  0  0  0  0  0  0  0
  -26.7212  -13.0507   18.9732 C   0  0  0  0  0  0  0  0  0  0  0  0
  -29.2048  -13.2898   19.1236 C   0  0  0  0  0  0  0  0  0  0  0  0
  -26.1893  -27.9081   20.8907 C   0  0  0  0  0  0  0  0  0  0  0  0
  -23.4296  -29.4409   21.6369 C   0  0  0  0  0  0  0  0  0  0  0  0
  -20.1617  -29.2216   22.5960 C   0  0  0  0  0  0  0  0  0  0  0  0
  -21.1110  -12.9445   21.0625 C   0  0  0  0  0  0  0  0  0  0  0  0
  -31.3420  -28.6722   19.5748 C   0  0  0  0  0  0  0  0  0  0  0  0
  -24.5360  -26.7206   19.4032 C   0  0  0  0  0  0  0  0  0  0  0  0
  -23.5329  -26.9777   22.1731 C   0  0  0  0  0  0  0  0  0  0  0  0
  -30.6398  -29.1740   20.8323 C   0  0  0  0  0  0  0  0  0  0  0  0
  -22.1565  -13.8466   17.7808 C   0  0  0  0  0  0  0  0  0  0  0  0
  -29.1328  -29.1681   20.6235 C   0  0  0  0  0  0  0  0  0  0  0  0
  -23.6572  -14.1015   17.9321 C   0  0  0  0  0  0  0  0  0  0  0  0
  -21.3788  -14.3076   19.0115 C   0  0  0  0  0  0  0  0  0  0  0  0
  -23.3631  -14.0124   20.4430 C   0  0  0  0  0  0  0  0  0  0  0  0
  -28.6197  -27.7418   20.3882 C   0  0  1  0  0  0  0  0  0  0  0  0
  -24.8298  -27.9534   20.2525 C   0  0  1  0  0  0  0  0  0  0  0  0
  -24.1959  -13.5128   19.2500 C   0  0  2  0  0  0  0  0  0  0  0  0
  -18.1751  -30.6464   23.1621 C   0  0  0  0  0  0  0  0  0  0  0  0
  -24.6665  -30.0827   24.3513 C   0  0  0  0  0  0  0  0  0  0  0  0
  -22.3731  -30.6402   25.1865 C   0  0  0  0  0  0  0  0  0  0  0  0
  -23.3752  -31.9613   23.3229 C   0  0  0  0  0  0  0  0  0  0  0  0
  -18.5644  -28.0776   20.3826 C   0  0  0  0  0  0  0  0  0  0  0  0
  -23.4880  -20.8349   21.7973 C   0  0  0  0  0  0  0  0  0  1  0  0
  -22.1118  -14.6952   26.7701 C   0  0  0  0  0  0  0  0  0  0  0  0
  -22.8179  -15.6682   25.8295 C   0  0  0  0  0  0  0  0  0  0  0  0
  -21.0033  -11.5945   23.1421 C   0  0  0  0  0  0  0  0  0  0  0  0
  -20.9323  -13.9991   26.1027 C   0  0  0  0  0  0  0  0  0  0  0  0
  -20.3751  -12.4200   24.2495 C   0  0  0  0  0  0  0  0  0  0  0  0
  -22.5969  -29.5958   22.8865 C   0  0  1  0  0  0  0  0  0  0  0  0
  -18.9085  -29.8928   22.0636 C   0  0  2  0  0  0  0  0  0  0  0  0
  -23.2584  -30.5444   23.9257 C   0  0  0  0  0  0  0  0  0  0  0  0
  -26.0484  -14.9011   20.1005 N   0  0  0  0  0  0  0  0  0  0  0  0
  -25.6755  -13.7993   19.4275 N   0  0  0  0  0  0  0  0  0  0  0  0
  -23.8577  -28.1411   21.3314 N   0  0  0  0  0  0  0  0  0  0  0  0
  -21.9390  -13.7124   20.2272 N   0  0  0  0  0  0  0  0  0  0  0  0
  -26.5246  -11.9106   18.2775 N   0  0  0  0  0  0  0  0  0  0  0  0
  -30.2534  -14.0828   19.6093 N   0  0  0  0  0  0  0  0  0  0  0  0
  -21.9218  -16.6898   25.3833 N   0  0  0  0  0  0  0  0  0  0  0  0
  -27.2307  -27.7997   19.9890 N   0  0  0  0  0  0  0  0  0  0  0  0
  -21.2736  -30.0229   22.4450 N   0  0  0  0  0  0  0  0  0  0  0  0
  -21.7227  -12.4116   22.1905 N   0  0  0  0  0  0  0  0  0  0  0  0
  -17.9807  -28.8771   21.4903 N   0  3  0  0  0  0  0  0  0  0  0  0
  -21.4282  -13.1991   24.9561 N   0  3  0  0  0  0  0  0  0  0  0  0
  -29.4713  -12.2519   18.4715 O   0  0  0  0  0  0  0  0  0  0  0  0
  -26.2863  -27.9684   22.1108 O   0  0  0  0  0  0  0  0  0  0  0  0
  -23.6846  -30.4353   20.9530 O   0  0  0  0  0  0  0  0  0  0  0  0
  -20.1543  -28.1003   23.0991 O   0  0  0  0  0  0  0  0  0  0  0  0
  -19.9164  -12.7440   20.8181 O   0  0  0  0  0  0  0  0  0  0  0  0
  -30.4375  -18.8346   22.5113 O   0  0  0  0  0  0  0  0  0  0  0  0
  -23.2972  -22.0977   22.4340 O   0  0  0  0  0  0  0  0  0  1  0  0
  -28.9604  -24.0793   21.6655 F   0  0  0  0  0  0  0  0  0  0  0  0
  -27.9367  -19.7426   23.2624 F   0  0  0  0  0  0  0  0  0  0  0  0
  1  2  1  0  0  0  0
  1  5  2  0  0  0  0
  2  6  2  0  0  0  0
  3 12  2  0  0  0  0
  3 19  1  0  0  0  0
  4 13  1  0  0  0  0
  4 19  2  0  0  0  0
  5 21  1  0  0  0  0
  6 23  1  0  0  0  0
  7 14  2  0  0  0  0
  7 22  1  0  0  0  0
  8 10  2  0  0  0  0
  8 25  1  0  0  0  0
  9 11  1  0  0  0  0
  9 25  2  0  0  0  0
 10 26  1  0  0  0  0
 11 26  2  0  0  0  0
 12 27  1  0  0  0  0
 13 27  2  0  0  0  0
 14 28  1  0  0  0  0
 15 16  2  0  0  0  0
 15 29  1  0  0  0  0
 16 30  1  0  0  0  0
 17 24  1  0  0  0  0
 17 28  2  0  0  0  0
 18 30  2  0  0  0  0
 18 31  1  0  0  0  0
 19 32  1  0  0  0  0
 20 32  1  0  0  0  0
 20 33  2  0  0  0  0
 20 34  1  0  0  0  0
 21 23  2  0  0  0  0
 21 39  1  0  0  0  0
 22 24  2  0  0  0  0
 22 40  1  0  0  0  0
 23 48  1  0  0  0  0
 24 41  1  0  0  0  0
 25 56  1  0  0  0  0
 26 71  1  0  0  0  0
 27 82  1  0  0  0  0
 28 83  1  0  0  0  0
 29 31  2  0  0  0  0
 29 82  1  0  0  0  0
 30 84  1  0  0  0  0
 31 85  1  0  0  0  0
 32 65  2  0  0  0  0
 33 66  1  0  0  0  0
 33 69  1  0  0  0  0
 34 70  1  0  0  0  0
 34 77  2  0  0  0  0
 35 49  1  0  0  0  0
 35 72  1  0  0  0  0
 35 78  2  0  0  0  0
 36 62  1  0  0  0  0
 36 67  1  0  0  0  0
 36 79  2  0  0  0  0
 37 63  1  0  0  0  0
 37 73  1  0  0  0  0
 37 80  2  0  0  0  0
 38 68  1  0  0  0  0
 38 74  1  0  0  0  0
 38 81  2  0  0  0  0
 39 42  1  0  0  0  0
 40 49  1  0  0  0  0
 41 67  1  0  0  0  0
 42 44  1  0  0  0  0
 43 45  1  0  0  0  0
 43 46  1  0  0  0  0
 44 48  1  0  0  0  0
 45 50  1  0  0  0  0
 46 68  1  0  0  0  0
 47 50  1  0  0  0  0
 47 68  1  0  0  0  0
 48 72  1  0  0  0  0
 49 67  1  0  0  0  0
 50 66  1  0  0  0  0
 51 63  1  0  0  0  0
 52 64  1  0  0  0  0
 53 64  1  0  0  0  0
 54 64  1  0  0  0  0
 55 75  1  0  0  0  0
 56 83  1  0  0  0  0
 57 58  1  0  0  0  0
 57 60  1  0  0  0  0
 58 71  1  0  0  0  0
 59 61  1  0  0  0  0
 59 74  1  0  0  0  0
 60 76  1  0  0  0  0
 61 76  1  0  0  0  0
 62 64  1  0  0  0  0
 62 73  1  0  0  0  0
 63 75  1  0  0  0  0
 65 66  1  0  0  0  0
M  CHG  2  75   1  76   1
M  ISO  4  38 100  56 101  74 100  83 101
M  END
> <Batch ID>
0129

> <Smiles>
CNC(C)C(=O)NC(C(=O)N1Cc2cc([101O:1][101CH2:1]c3ccc(NCCCNCC[100NH:0][100C:0](=O)N4CCCC(n5nc(-c6ccc(Oc7ccc(F)cc7F)cc6)c(C(N)=O)c5N)C4)cc3)ccc2CC1C(=O)NC1CCCc2ccccc21)C(C)(C)C

> <Shape>
0.239

> <Color>
0.035

> <Negative vol penalty>
0.000

$$$$

  -OEChem-04052320453D

 83 91  0     1  0  0  0  0  0999 V2000
  -16.4917  -31.0281   20.4770 C   0  0  0  0  0  0  0  0  0  0  0  0
  -17.8434  -31.0047   20.1488 C   0  0  0  0  0  0  0  0  0  0  0  0
  -26.7572  -13.3342   21.1449 C   0  0  0  0  0  0  0  0  0  0  0  0
  -25.3349  -15.1289   21.9151 C   0  0  0  0  0  0  0  0  0  0  0  0
  -16.0556  -30.4572   21.6719 C   0  0  0  0  0  0  0  0  0  0  0  0
  -18.7601  -30.4112   21.0159 C   0  0  0  0  0  0  0  0  0  0  0  0
  -23.8204  -27.3254   19.4743 C   0  0  0  0  0  0  0  0  0  0  0  0
  -31.1422  -25.2837   21.3265 C   0  0  0  0  0  0  0  0  0  0  0  0
  -31.3010  -23.9128   21.5286 C   0  0  0  0  0  0  0  0  0  0  0  0
  -25.8533  -12.4004   21.6515 C   0  0  0  0  0  0  0  0  0  0  0  0
  -24.4309  -14.1951   22.4217 C   0  0  0  0  0  0  0  0  0  0  0  0
  -25.1631  -27.6961   19.4134 C   0  0  0  0  0  0  0  0  0  0  0  0
  -23.7444   -9.5416   22.4227 C   0  0  0  0  0  0  0  0  0  0  0  0
  -23.4175   -8.4517   21.6160 C   0  0  0  0  0  0  0  0  0  0  0  0
  -25.5061  -26.7944   21.6244 C   0  0  0  0  0  0  0  0  0  0  0  0
  -22.5658   -9.9563   19.9284 C   0  0  0  0  0  0  0  0  0  0  0  0
  -26.4980  -14.6985   21.2768 C   0  0  0  0  0  0  0  0  0  0  0  0
  -27.4407  -16.2250   19.4633 C   0  0  0  0  0  0  0  0  0  0  0  0
  -16.9662  -29.8478   22.5495 C   0  0  0  0  0  0  0  0  0  0  0  0
  -23.3072  -26.6952   20.6170 C   0  0  0  0  0  0  0  0  0  0  0  0
  -18.3360  -29.8327   22.2243 C   0  0  0  0  0  0  0  0  0  0  0  0
  -24.1571  -26.4145   21.6963 C   0  0  0  0  0  0  0  0  0  0  0  0
  -30.3460  -25.7467   20.2788 C   0  0  0  0  0  0  0  0  0  0  0  0
  -29.7086  -24.8386   19.4333 C   0  0  0  0  0  0  0  0  0  0  0  0
  -30.6636  -23.0047   20.6831 C   0  0  0  0  0  0  0  0  0  0  0  0
  -29.8675  -23.4677   19.6354 C   0  0  0  0  0  0  0  0  0  0  0  0
  -24.6901  -12.8308   22.2898 C   0  0  0  0  0  0  0  0  0  0  0  0
  -26.0055  -27.4332   20.4896 C   0  0  0  0  0  0  0  0  0  0  0  0
  -23.4819  -10.8389   21.9823 C   0  0  0  0  0  0  0  0  0  0  0  0
  -22.8282   -8.6590   20.3688 C   0  0  0  0  0  0  0  0  0  0  0  0
  -22.8927  -11.0462   20.7351 C   0  0  0  0  0  0  0  0  0  0  0  0
  -27.4316  -15.6635   20.7542 C   0  0  0  0  0  0  0  0  0  0  0  0
  -28.5174  -17.0777   19.4673 C   0  0  0  0  0  0  0  0  0  0  0  0
  -26.5549  -15.9962   18.3593 C   0  0  0  0  0  0  0  0  0  0  0  0
  -21.0773  -27.4148   22.7649 C   0  0  0  0  0  0  0  0  0  0  0  0
  -21.6972  -24.4172   23.8382 C   0  0  0  0  0  0  0  0  0  0  0  0
  -23.8917  -21.8122   24.0514 C   0  0  0  0  0  0  0  0  0  0  0  0
  -31.6028  -21.0159   21.9114 C   0  0  0  0  0  0  0  0  0  0  0  0
  -16.4539  -29.2857   23.8519 C   0  0  0  0  0  0  0  0  0  0  0  0
  -21.8627  -26.2777   20.6563 C   0  0  0  0  0  0  0  0  0  0  0  0
  -23.6600  -25.7219   22.9379 C   0  0  0  0  0  0  0  0  0  0  0  0
  -17.4403  -28.3451   24.5394 C   0  0  0  0  0  0  0  0  0  0  0  0
  -32.2626  -17.6387   22.8259 C   0  0  0  0  0  0  0  0  0  0  0  0
  -18.8384  -28.9550   24.5530 C   0  0  0  0  0  0  0  0  0  0  0  0
  -31.0653  -16.8700   22.2623 C   0  0  0  0  0  0  0  0  0  0  0  0
  -31.8554  -19.0115   23.3583 C   0  0  0  0  0  0  0  0  0  0  0  0
  -29.9111  -19.0796   21.8470 C   0  0  0  0  0  0  0  0  0  0  0  0
  -19.3577  -29.1763   23.1272 C   0  0  1  0  0  0  0  0  0  0  0  0
  -21.3293  -26.1040   22.0750 C   0  0  1  0  0  0  0  0  0  0  0  0
  -30.2825  -17.7169   21.2397 C   0  0  2  0  0  0  0  0  0  0  0  0
  -28.8557  -25.3422   18.3111 C   0  0  0  0  0  0  0  0  0  0  0  0
  -31.5421  -27.8851   19.7437 C   0  0  0  0  0  0  0  0  0  0  0  0
  -24.1296  -19.5116   25.0249 C   0  0  0  0  0  0  0  0  0  0  0  0
  -22.1549  -25.6350   26.5982 C   0  0  0  0  0  0  0  0  0  0  0  0
  -23.2872  -23.5064   27.2729 C   0  0  0  0  0  0  0  0  0  0  0  0
  -20.8836  -23.4814   26.6060 C   0  0  0  0  0  0  0  0  0  0  0  0
  -24.2250  -20.5891   21.3771 C   0  0  0  0  0  0  0  0  0  0  0  0
  -29.5516  -27.9506   21.2934 C   0  0  0  0  0  0  0  0  0  0  0  0
  -28.1223  -27.4946   21.5717 C   0  0  0  0  0  0  0  0  0  1  0  0
  -30.1904  -27.2447   20.0817 C   0  0  2  0  0  0  0  0  0  0  0  0
  -22.6576  -23.8162   24.8360 C   0  0  1  0  0  0  0  0  0  0  0  0
  -23.7155  -20.3242   23.8080 C   0  0  2  0  0  0  0  0  0  0  0  0
  -22.2550  -24.1245   26.3058 C   0  0  0  0  0  0  0  0  0  0  0  0
  -28.4239  -16.1210   21.5224 N   0  0  0  0  0  0  0  0  0  0  0  0
  -29.0666  -16.9788   20.7118 N   0  0  0  0  0  0  0  0  0  0  0  0
  -22.2384  -25.3390   22.9309 N   0  0  0  0  0  0  0  0  0  0  0  0
  -31.1222  -19.7584   22.3340 N   0  0  0  0  0  0  0  0  0  0  0  0
  -29.2200  -22.5481   18.7764 N   0  0  0  0  0  0  0  0  0  0  0  0
  -29.0385  -17.8949   18.5276 N   0  0  0  0  0  0  0  0  0  0  0  0
  -25.5005  -15.0881   18.5257 N   0  0  0  0  0  0  0  0  0  0  0  0
  -30.8413  -21.6174   20.9100 N   0  0  0  0  0  0  0  0  0  0  0  0
  -19.8110  -27.9267   22.5549 N   0  0  0  0  0  0  0  0  0  0  0  0
  -22.7336  -22.3932   24.5233 N   0  0  0  0  0  0  0  0  0  0  0  0
  -24.5425  -19.8877   22.6477 N   0  3  0  0  0  0  0  0  0  0  0  0
  -26.7042  -16.5675   17.2525 O   0  0  0  0  0  0  0  0  0  0  0  0
  -21.9653  -27.9234   23.4390 O   0  0  0  0  0  0  0  0  0  0  0  0
  -20.5120  -24.0758   23.8584 O   0  0  0  0  0  0  0  0  0  0  0  0
  -24.9518  -22.3997   23.8472 O   0  0  0  0  0  0  0  0  0  0  0  0
  -32.6307  -21.5095   22.3824 O   0  0  0  0  0  0  0  0  0  0  0  0
  -23.8078  -11.9199   22.7841 O   0  0  0  0  0  0  0  0  0  0  0  0
  -27.3162  -27.7945   20.4331 O   0  0  0  0  0  0  0  0  0  1  0  0
  -22.5157   -7.6124   19.5935 F   0  0  0  0  0  0  0  0  0  0  0  0
  -22.6392  -12.2902   20.3062 F   0  0  0  0  0  0  0  0  0  0  0  0
  1  2  1  0  0  0  0
  1  5  2  0  0  0  0
  2  6  2  0  0  0  0
  3 10  2  0  0  0  0
  3 17  1  0  0  0  0
  4 11  1  0  0  0  0
  4 17  2  0  0  0  0
  5 19  1  0  0  0  0
  6 21  1  0  0  0  0
  7 12  2  0  0  0  0
  7 20  1  0  0  0  0
  8  9  2  0  0  0  0
  8 23  1  0  0  0  0
  9 25  1  0  0  0  0
 10 27  1  0  0  0  0
 11 27  2  0  0  0  0
 12 28  1  0  0  0  0
 13 14  2  0  0  0  0
 13 29  1  0  0  0  0
 14 30  1  0  0  0  0
 15 22  1  0  0  0  0
 15 28  2  0  0  0  0
 16 30  2  0  0  0  0
 16 31  1  0  0  0  0
 17 32  1  0  0  0  0
 18 32  1  0  0  0  0
 18 33  2  0  0  0  0
 18 34  1  0  0  0  0
 19 21  2  0  0  0  0
 19 39  1  0  0  0  0
 20 22  2  0  0  0  0
 20 40  1  0  0  0  0
 21 48  1  0  0  0  0
 22 41  1  0  0  0  0
 23 24  2  0  0  0  0
 23 60  1  0  0  0  0
 24 26  1  0  0  0  0
 24 51  1  0  0  0  0
 25 26  2  0  0  0  0
 25 71  1  0  0  0  0
 26 68  1  0  0  0  0
 27 80  1  0  0  0  0
 28 81  1  0  0  0  0
 29 31  2  0  0  0  0
 29 80  1  0  0  0  0
 30 82  1  0  0  0  0
 31 83  1  0  0  0  0
 32 64  2  0  0  0  0
 33 65  1  0  0  0  0
 33 69  1  0  0  0  0
 34 70  1  0  0  0  0
 34 75  2  0  0  0  0
 35 49  1  0  0  0  0
 35 72  1  0  0  0  0
 35 76  2  0  0  0  0
 36 61  1  0  0  0  0
 36 66  1  0  0  0  0
 36 77  2  0  0  0  0
 37 62  1  0  0  0  0
 37 73  1  0  0  0  0
 37 78  2  0  0  0  0
 38 67  1  0  0  0  0
 38 71  1  0  0  0  0
 38 79  2  0  0  0  0
 39 42  1  0  0  0  0
 40 49  1  0  0  0  0
 41 66  1  0  0  0  0
 42 44  1  0  0  0  0
 43 45  1  0  0  0  0
 43 46  1  0  0  0  0
 44 48  1  0  0  0  0
 45 50  1  0  0  0  0
 46 67  1  0  0  0  0
 47 50  1  0  0  0  0
 47 67  1  0  0  0  0
 48 72  1  0  0  0  0
 49 66  1  0  0  0  0
 50 65  1  0  0  0  0
 52 60  1  0  0  0  0
 53 62  1  0  0  0  0
 54 63  1  0  0  0  0
 55 63  1  0  0  0  0
 56 63  1  0  0  0  0
 57 74  1  0  0  0  0
 58 59  1  0  0  0  0
 58 60  1  0  0  0  0
 59 81  1  0  0  0  0
 61 63  1  0  0  0  0
 61 73  1  0  0  0  0
 62 74  1  0  0  0  0
 64 65  1  0  0  0  0
M  CHG  1  74   1
M  ISO  4  38 100  59 101  71 100  81 101
M  END
> <Batch ID>
0129

> <Smiles>
CNC(C)C(=O)NC(C(=O)N1Cc2cc([101O:1][101CH2:1]CC(C)c3ccc([100NH:0][100C:0](=O)N4CCCC(n5nc(-c6ccc(Oc7ccc(F)cc7F)cc6)c(C(N)=O)c5N)C4)c(N)c3C)ccc2CC1C(=O)NC1CCCc2ccccc21)C(C)(C)C

> <Shape>
0.232

> <Color>
0.052

> <Negative vol penalty>
0.000

$$$$

  -OEChem-04052320453D

 86 95  0     1  0  0  0  0  0999 V2000
  -16.9160  -28.5278   23.8911 C   0  0  0  0  0  0  0  0  0  0  0  0
  -17.8467  -27.5008   23.7708 C   0  0  0  0  0  0  0  0  0  0  0  0
  -29.7688  -23.6520   19.7827 C   0  0  0  0  0  0  0  0  0  0  0  0
  -27.9091  -23.6444   21.3249 C   0  0  0  0  0  0  0  0  0  0  0  0
  -17.2295  -29.8078   23.4360 C   0  0  0  0  0  0  0  0  0  0  0  0
  -19.0911  -27.7530   23.1944 C   0  0  0  0  0  0  0  0  0  0  0  0
  -22.9670  -25.6765   25.8696 C   0  0  0  0  0  0  0  0  0  0  0  0
  -29.5283  -24.9964   19.4992 C   0  0  0  0  0  0  0  0  0  0  0  0
  -27.6686  -24.9888   21.0415 C   0  0  0  0  0  0  0  0  0  0  0  0
  -23.2061  -24.3093   25.7367 C   0  0  0  0  0  0  0  0  0  0  0  0
  -29.6280  -28.5273   18.6401 C   0  0  0  0  0  0  0  0  0  0  0  0
  -30.7252  -29.3875   18.5977 C   0  0  0  0  0  0  0  0  0  0  0  0
  -21.4787  -17.0491   21.0575 C   0  0  0  0  0  0  0  0  0  0  0  0
  -24.9575  -24.7766   24.1453 C   0  0  0  0  0  0  0  0  0  0  0  0
  -23.0299  -17.8331   22.7350 C   0  0  0  0  0  0  0  0  0  0  0  0
  -31.2316  -28.8551   20.8992 C   0  0  0  0  0  0  0  0  0  0  0  0
  -28.9592  -22.9760   20.6955 C   0  0  0  0  0  0  0  0  0  0  0  0
  -20.8207  -18.8173   22.5850 C   0  0  0  0  0  0  0  0  0  0  0  0
  -30.0428  -21.0663   21.9941 C   0  0  0  0  0  0  0  0  0  0  0  0
  -18.4820  -30.0781   22.8625 C   0  0  0  0  0  0  0  0  0  0  0  0
  -23.7155  -26.6055   25.1325 C   0  0  0  0  0  0  0  0  0  0  0  0
  -19.4211  -29.0375   22.7300 C   0  0  0  0  0  0  0  0  0  0  0  0
  -20.5199  -17.9671   21.5040 C   0  0  0  0  0  0  0  0  0  0  0  0
  -24.7291  -26.1550   24.2744 C   0  0  0  0  0  0  0  0  0  0  0  0
  -22.7314  -16.9885   21.6674 C   0  0  0  0  0  0  0  0  0  0  0  0
  -28.4782  -25.6648   20.1286 C   0  0  0  0  0  0  0  0  0  0  0  0
  -24.1999  -23.8592   24.8727 C   0  0  0  0  0  0  0  0  0  0  0  0
  -29.3325  -27.8310   19.8121 C   0  0  0  0  0  0  0  0  0  0  0  0
  -22.0775  -18.7424   23.1969 C   0  0  0  0  0  0  0  0  0  0  0  0
  -31.5270  -29.5514   19.7272 C   0  0  0  0  0  0  0  0  0  0  0  0
  -30.1344  -27.9949   20.9417 C   0  0  0  0  0  0  0  0  0  0  0  0
  -29.2068  -21.5871   20.9883 C   0  0  0  0  0  0  0  0  0  0  0  0
  -29.9350  -19.7037   21.8587 C   0  0  0  0  0  0  0  0  0  0  0  0
  -19.8160  -19.7694   23.0686 C   0  0  0  0  0  0  0  0  0  0  0  0
  -18.7158  -20.0184   22.3454 C   0  0  0  0  0  0  0  0  0  0  0  0
  -30.8450  -21.7528   22.9641 C   0  0  0  0  0  0  0  0  0  0  0  0
  -23.1056  -28.8609   22.9446 C   0  0  0  0  0  0  0  0  0  0  0  0
  -26.3493  -29.4369   23.3923 C   0  0  0  0  0  0  0  0  0  0  0  0
  -26.0059  -32.3865   21.7127 C   0  0  0  0  0  0  0  0  0  0  0  0
  -25.6736  -16.1550   19.6010 C   0  0  0  0  0  0  0  0  0  0  0  0
  -18.7576  -31.4666   22.3420 C   0  0  0  0  0  0  0  0  0  0  0  0
  -23.4621  -28.0777   25.3134 C   0  0  0  0  0  0  0  0  0  0  0  0
  -19.1414  -17.9862   20.8915 C   0  0  0  0  0  0  0  0  0  0  0  0
  -25.5621  -27.1115   23.4646 C   0  0  0  0  0  0  0  0  0  0  0  0
  -18.4370  -19.3407   21.0363 C   0  0  0  0  0  0  0  0  0  0  0  0
  -20.2376  -31.7378   22.0844 C   0  0  0  0  0  0  0  0  0  0  0  0
  -29.0814  -16.3222   18.5835 C   0  0  0  0  0  0  0  0  0  0  0  0
  -20.8684  -30.5768   21.3221 C   0  0  0  0  0  0  0  0  0  0  0  0
  -29.5754  -17.6435   19.1752 C   0  0  0  0  0  0  0  0  0  0  0  0
  -27.6333  -16.4225   18.1095 C   0  0  0  0  0  0  0  0  0  0  0  0
  -27.1761  -18.2348   19.7158 C   0  0  0  0  0  0  0  0  0  0  0  0
  -20.7908  -29.2775   22.1329 C   0  0  1  0  0  0  0  0  0  0  0  0
  -23.9847  -28.9330   24.1609 C   0  0  1  0  0  0  0  0  0  0  0  0
  -28.6137  -18.1669   20.2589 C   0  0  2  0  0  0  0  0  0  0  0  0
  -24.1903  -15.0124   22.2399 C   0  0  0  0  0  0  0  0  0  0  0  0
  -26.6788  -34.5836   20.7040 C   0  0  0  0  0  0  0  0  0  0  0  0
  -25.9005  -30.4630   26.2298 C   0  0  0  0  0  0  0  0  0  0  0  0
  -26.2644  -32.7866   25.3715 C   0  0  0  0  0  0  0  0  0  0  0  0
  -28.0991  -31.1029   25.2243 C   0  0  0  0  0  0  0  0  0  0  0  0
  -26.8216  -31.1031   19.1737 C   0  0  0  0  0  0  0  0  0  0  0  0
  -23.3271  -21.6477   24.9341 C   0  0  0  0  0  0  0  0  0  1  0  0
  -23.5256  -20.4058   24.0868 C   0  0  0  0  0  0  0  0  0  0  0  0
  -23.7555  -16.0249   21.1705 C   0  0  2  0  0  0  0  0  0  0  0  0
  -26.0991  -30.8938   23.6919 C   0  0  1  0  0  0  0  0  0  0  0  0
  -26.8997  -33.0790   20.6997 C   0  0  2  0  0  0  0  0  0  0  0  0
  -26.5706  -31.2950   25.1182 C   0  0  0  0  0  0  0  0  0  0  0  0
  -28.6120  -20.6332   20.2671 N   0  0  0  0  0  0  0  0  0  0  0  0
  -29.0748  -19.4992   20.8203 N   0  0  0  0  0  0  0  0  0  0  0  0
  -25.3342  -28.5362   23.7393 N   0  0  0  0  0  0  0  0  0  0  0  0
  -26.7732  -16.9233   19.1844 N   0  0  0  0  0  0  0  0  0  0  0  0
  -30.4932  -18.6726   22.5278 N   0  0  0  0  0  0  0  0  0  0  0  0
  -30.8401  -23.1543   22.9639 N   0  0  0  0  0  0  0  0  0  0  0  0
  -21.8033  -29.2658   23.1669 N   0  0  0  0  0  0  0  0  0  0  0  0
  -26.7374  -31.6468   22.6177 N   0  0  0  0  0  0  0  0  0  0  0  0
  -24.9143  -16.6996   20.6294 N   0  0  0  0  0  0  0  0  0  0  0  0
  -26.6214  -32.5671   19.3280 N   0  3  0  0  0  0  0  0  0  0  0  0
  -31.5582  -21.1415   23.7955 O   0  0  0  0  0  0  0  0  0  0  0  0
  -23.5746  -28.4685   21.8826 O   0  0  0  0  0  0  0  0  0  0  0  0
  -27.4175  -29.1031   22.8721 O   0  0  0  0  0  0  0  0  0  0  0  0
  -24.7817  -32.4943   21.7044 O   0  0  0  0  0  0  0  0  0  0  0  0
  -25.3926  -15.0620   19.0976 O   0  0  0  0  0  0  0  0  0  0  0  0
  -28.2434  -26.9767   19.8524 O   0  0  0  0  0  0  0  0  0  0  0  0
  -24.4357  -22.5253   24.7415 O   0  0  0  0  0  0  0  0  0  1  0  0
  -22.4081  -19.5426   24.2587 O   0  0  0  0  0  0  0  0  0  0  0  0
  -32.5815  -30.3763   19.6858 F   0  0  0  0  0  0  0  0  0  0  0  0
  -29.8562  -27.3277   22.0701 F   0  0  0  0  0  0  0  0  0  0  0  0
  1  2  1  0  0  0  0
  1  5  2  0  0  0  0
  2  6  2  0  0  0  0
  3  8  2  0  0  0  0
  3 17  1  0  0  0  0
  4  9  1  0  0  0  0
  4 17  2  0  0  0  0
  5 20  1  0  0  0  0
  6 22  1  0  0  0  0
  7 10  2  0  0  0  0
  7 21  1  0  0  0  0
  8 26  1  0  0  0  0
  9 26  2  0  0  0  0
 10 27  1  0  0  0  0
 11 12  2  0  0  0  0
 11 28  1  0  0  0  0
 12 30  1  0  0  0  0
 13 23  2  0  0  0  0
 13 25  1  0  0  0  0
 14 24  1  0  0  0  0
 14 27  2  0  0  0  0
 15 25  2  0  0  0  0
 15 29  1  0  0  0  0
 16 30  2  0  0  0  0
 16 31  1  0  0  0  0
 17 32  1  0  0  0  0
 18 23  1  0  0  0  0
 18 29  2  0  0  0  0
 18 34  1  0  0  0  0
 19 32  1  0  0  0  0
 19 33  2  0  0  0  0
 19 36  1  0  0  0  0
 20 22  2  0  0  0  0
 20 41  1  0  0  0  0
 21 24  2  0  0  0  0
 21 42  1  0  0  0  0
 22 52  1  0  0  0  0
 23 43  1  0  0  0  0
 24 44  1  0  0  0  0
 25 63  1  0  0  0  0
 26 82  1  0  0  0  0
 27 83  1  0  0  0  0
 28 31  2  0  0  0  0
 28 82  1  0  0  0  0
 29 84  1  0  0  0  0
 30 85  1  0  0  0  0
 31 86  1  0  0  0  0
 32 67  2  0  0  0  0
 33 68  1  0  0  0  0
 33 71  1  0  0  0  0
 34 35  2  0  0  0  0
 35 45  1  0  0  0  0
 36 72  1  0  0  0  0
 36 77  2  0  0  0  0
 37 53  1  0  0  0  0
 37 73  1  0  0  0  0
 37 78  2  0  0  0  0
 38 64  1  0  0  0  0
 38 69  1  0  0  0  0
 38 79  2  0  0  0  0
 39 65  1  0  0  0  0
 39 74  1  0  0  0  0
 39 80  2  0  0  0  0
 40 70  1  0  0  0  0
 40 75  1  0  0  0  0
 40 81  2  0  0  0  0
 41 46  1  0  0  0  0
 42 53  1  0  0  0  0
 43 45  1  0  0  0  0
 44 69  1  0  0  0  0
 46 48  1  0  0  0  0
 47 49  1  0  0  0  0
 47 50  1  0  0  0  0
 48 52  1  0  0  0  0
 49 54  1  0  0  0  0
 50 70  1  0  0  0  0
 51 54  1  0  0  0  0
 51 70  1  0  0  0  0
 52 73  1  0  0  0  0
 53 69  1  0  0  0  0
 54 68  1  0  0  0  0
 55 63  1  0  0  0  0
 56 65  1  0  0  0  0
 57 66  1  0  0  0  0
 58 66  1  0  0  0  0
 59 66  1  0  0  0  0
 60 76  1  0  0  0  0
 61 62  1  0  0  0  0
 61 83  1  0  0  0  0
 62 84  1  0  0  0  0
 63 75  1  0  0  0  0
 64 66  1  0  0  0  0
 64 74  1  0  0  0  0
 65 76  1  0  0  0  0
 67 68  1  0  0  0  0
M  CHG  1  76   1
M  ISO  4  40 100  61 101  75 100  83 101
M  END
> <Batch ID>
0129

> <Smiles>
CNC(C)C(=O)NC(C(=O)N1Cc2cc([101O:1][101CH2:1]COc3cc(C(C)[100NH:0][100C:0](=O)N4CCCC(n5nc(-c6ccc(Oc7ccc(F)cc7F)cc6)c(C(N)=O)c5N)C4)cc4c3C=CCC4)ccc2CC1C(=O)NC1CCCc2ccccc21)C(C)(C)C

> <Shape>
0.214

> <Color>
0.074

> <Negative vol penalty>
0.000

$$$$

  -OEChem-04052320453D

 84 93  0     1  0  0  0  0  0999 V2000
  -27.3134  -34.6355   25.2623 C   0  0  0  0  0  0  0  0  0  0  0  0
  -27.6151  -33.3690   24.7722 C   0  0  0  0  0  0  0  0  0  0  0  0
  -23.0349  -13.5169   24.6306 C   0  0  0  0  0  0  0  0  0  0  0  0
  -23.2278  -15.6818   23.5755 C   0  0  0  0  0  0  0  0  0  0  0  0
  -25.9945  -34.9668   25.5698 C   0  0  0  0  0  0  0  0  0  0  0  0
  -26.5981  -32.4325   24.5903 C   0  0  0  0  0  0  0  0  0  0  0  0
  -26.9620  -30.0049   20.1609 C   0  0  0  0  0  0  0  0  0  0  0  0
  -30.2948  -20.2808   18.1026 C   0  0  0  0  0  0  0  0  0  0  0  0
  -27.9947  -20.0652   17.3956 C   0  0  0  0  0  0  0  0  0  0  0  0
  -30.2251  -19.0278   18.7115 C   0  0  0  0  0  0  0  0  0  0  0  0
  -27.9250  -18.8122   18.0044 C   0  0  0  0  0  0  0  0  0  0  0  0
  -22.1310  -14.0463   25.5516 C   0  0  0  0  0  0  0  0  0  0  0  0
  -22.3239  -16.2112   24.4965 C   0  0  0  0  0  0  0  0  0  0  0  0
  -27.9078  -28.9846   20.0699 C   0  0  0  0  0  0  0  0  0  0  0  0
  -18.9772  -16.2404   24.9649 C   0  0  0  0  0  0  0  0  0  0  0  0
  -17.9655  -17.0669   24.4761 C   0  0  0  0  0  0  0  0  0  0  0  0
  -26.1663  -27.3488   20.4021 C   0  0  0  0  0  0  0  0  0  0  0  0
  -18.7773  -18.8765   25.8557 C   0  0  0  0  0  0  0  0  0  0  0  0
  -23.5834  -14.3347   23.6426 C   0  0  0  0  0  0  0  0  0  0  0  0
  -24.2884  -12.7395   21.7809 C   0  0  0  0  0  0  0  0  0  0  0  0
  -24.9594  -34.0372   25.3825 C   0  0  0  0  0  0  0  0  0  0  0  0
  -25.6105  -29.7047   20.3846 C   0  0  0  0  0  0  0  0  0  0  0  0
  -25.2642  -32.7512   24.8968 C   0  0  0  0  0  0  0  0  0  0  0  0
  -25.2049  -28.3669   20.4931 C   0  0  0  0  0  0  0  0  0  0  0  0
  -29.1796  -20.7995   17.4447 C   0  0  0  0  0  0  0  0  0  0  0  0
  -29.0402  -18.2935   18.6624 C   0  0  0  0  0  0  0  0  0  0  0  0
  -21.7754  -15.3934   25.4846 C   0  0  0  0  0  0  0  0  0  0  0  0
  -27.5105  -27.6565   20.1934 C   0  0  0  0  0  0  0  0  0  0  0  0
  -19.8889  -16.7319   25.8992 C   0  0  0  0  0  0  0  0  0  0  0  0
  -17.8656  -18.3850   24.9215 C   0  0  0  0  0  0  0  0  0  0  0  0
  -19.7890  -18.0500   26.3446 C   0  0  0  0  0  0  0  0  0  0  0  0
  -24.5176  -13.7886   22.6912 C   0  0  0  0  0  0  0  0  0  0  0  0
  -25.4783  -12.6021   21.1087 C   0  0  0  0  0  0  0  0  0  0  0  0
  -23.1057  -11.9590   21.5624 C   0  0  0  0  0  0  0  0  0  0  0  0
  -23.5180  -30.3608   22.6856 C   0  0  0  0  0  0  0  0  0  0  0  0
  -21.4269  -28.9410   20.6524 C   0  0  0  0  0  0  0  0  0  0  0  0
  -21.4065  -26.0546   18.4877 C   0  0  0  0  0  0  0  0  0  0  0  0
  -29.9831  -16.3602   19.9738 C   0  0  0  0  0  0  0  0  0  0  0  0
  -23.5555  -34.4253   25.7736 C   0  0  0  0  0  0  0  0  0  0  0  0
  -24.5987  -30.8155   20.4537 C   0  0  0  0  0  0  0  0  0  0  0  0
  -23.7633  -27.9907   20.7135 C   0  0  0  0  0  0  0  0  0  0  0  0
  -22.4854  -33.5009   25.1986 C   0  0  0  0  0  0  0  0  0  0  0  0
  -30.1916  -13.2369   21.6704 C   0  0  0  0  0  0  0  0  0  0  0  0
  -22.8787  -32.0405   25.3970 C   0  0  0  0  0  0  0  0  0  0  0  0
  -28.7387  -12.9255   22.0365 C   0  0  0  0  0  0  0  0  0  0  0  0
  -29.4602  -25.7198   18.1349 C   0  0  0  0  0  0  0  0  0  0  0  0
  -28.0664  -24.3248   19.6983 C   0  0  0  0  0  0  0  0  0  0  0  0
  -30.4960  -14.7300   21.7778 C   0  0  0  0  0  0  0  0  0  0  0  0
  -28.1277  -15.2939   21.4007 C   0  0  0  0  0  0  0  0  0  0  0  0
  -29.3823  -24.6196   17.0882 C   0  0  0  0  0  0  0  0  0  0  0  0
  -27.9908  -23.2276   18.6482 C   0  0  0  0  0  0  0  0  0  0  0  0
  -24.1852  -31.7163   24.6625 C   0  0  1  0  0  0  0  0  0  0  0  0
  -23.3264  -30.4194   21.1964 C   0  0  1  0  0  0  0  0  0  0  0  0
  -27.7559  -13.8103   21.2447 C   0  0  2  0  0  0  0  0  0  0  0  0
  -28.2526  -25.7013   19.0681 C   0  0  0  0  0  0  0  0  0  1  0  0
  -20.1015  -25.5945   16.3942 C   0  0  0  0  0  0  0  0  0  0  0  0
  -19.4471  -27.5782   22.5321 C   0  0  0  0  0  0  0  0  0  0  0  0
  -19.1036  -25.8201   20.7830 C   0  0  0  0  0  0  0  0  0  0  0  0
  -18.5092  -28.1935   20.2968 C   0  0  0  0  0  0  0  0  0  0  0  0
  -23.8661  -25.5019   16.9373 C   0  0  0  0  0  0  0  0  0  0  0  0
  -29.2546  -22.1473   16.7898 C   0  0  0  0  0  0  0  0  0  0  0  0
  -20.9447  -27.5280   20.4295 C   0  0  1  0  0  0  0  0  0  0  0  0
  -21.4310  -26.0568   16.9699 C   0  0  2  0  0  0  0  0  0  0  0  0
  -19.5272  -27.2854   21.0205 C   0  0  0  0  0  0  0  0  0  0  0  0
  -25.7557  -14.2825   22.6076 N   0  0  0  0  0  0  0  0  0  0  0  0
  -26.3153  -13.5405   21.6369 N   0  0  0  0  0  0  0  0  0  0  0  0
  -22.8125  -29.1128   20.7803 N   0  0  0  0  0  0  0  0  0  0  0  0
  -29.5274  -15.5050   20.9993 N   0  0  0  0  0  0  0  0  0  0  0  0
  -25.8797  -11.7714   20.1233 N   0  0  0  0  0  0  0  0  0  0  0  0
  -21.9720  -12.2318   22.3400 N   0  0  0  0  0  0  0  0  0  0  0  0
  -28.9692  -17.0204   19.2805 N   0  0  0  0  0  0  0  0  0  0  0  0
  -23.9409  -31.5512   23.2456 N   0  0  0  0  0  0  0  0  0  0  0  0
  -21.0434  -27.2845   18.9944 N   0  0  0  0  0  0  0  0  0  0  0  0
  -29.2220  -23.2836   17.7746 N   0  3  0  0  0  0  0  0  0  0  0  0
  -22.5014  -25.1496   16.4678 N   0  3  0  0  0  0  0  0  0  0  0  0
  -23.0609  -11.0357   20.7144 O   0  0  0  0  0  0  0  0  0  0  0  0
  -23.2971  -29.3136   23.2824 O   0  0  0  0  0  0  0  0  0  0  0  0
  -20.6051  -29.8595   20.7037 O   0  0  0  0  0  0  0  0  0  0  0  0
  -21.6783  -25.0602   19.1569 O   0  0  0  0  0  0  0  0  0  0  0  0
  -31.1829  -16.4761   19.7107 O   0  0  0  0  0  0  0  0  0  0  0  0
  -20.8932  -15.9103   26.3830 O   0  0  0  0  0  0  0  0  0  0  0  0
  -28.4317  -26.6587   20.1055 O   0  0  0  0  0  0  0  0  0  1  0  0
  -16.8949  -19.1790   24.4508 F   0  0  0  0  0  0  0  0  0  0  0  0
  -20.6627  -18.5282   27.2411 F   0  0  0  0  0  0  0  0  0  0  0  0
  1  2  1  0  0  0  0
  1  5  2  0  0  0  0
  2  6  2  0  0  0  0
  3 12  2  0  0  0  0
  3 19  1  0  0  0  0
  4 13  1  0  0  0  0
  4 19  2  0  0  0  0
  5 21  1  0  0  0  0
  6 23  1  0  0  0  0
  7 14  2  0  0  0  0
  7 22  1  0  0  0  0
  8 10  2  0  0  0  0
  8 25  1  0  0  0  0
  9 11  1  0  0  0  0
  9 25  2  0  0  0  0
 10 26  1  0  0  0  0
 11 26  2  0  0  0  0
 12 27  1  0  0  0  0
 13 27  2  0  0  0  0
 14 28  1  0  0  0  0
 15 16  2  0  0  0  0
 15 29  1  0  0  0  0
 16 30  1  0  0  0  0
 17 24  1  0  0  0  0
 17 28  2  0  0  0  0
 18 30  2  0  0  0  0
 18 31  1  0  0  0  0
 19 32  1  0  0  0  0
 20 32  1  0  0  0  0
 20 33  2  0  0  0  0
 20 34  1  0  0  0  0
 21 23  2  0  0  0  0
 21 39  1  0  0  0  0
 22 24  2  0  0  0  0
 22 40  1  0  0  0  0
 23 52  1  0  0  0  0
 24 41  1  0  0  0  0
 25 61  1  0  0  0  0
 26 71  1  0  0  0  0
 27 81  1  0  0  0  0
 28 82  1  0  0  0  0
 29 31  2  0  0  0  0
 29 81  1  0  0  0  0
 30 83  1  0  0  0  0
 31 84  1  0  0  0  0
 32 65  2  0  0  0  0
 33 66  1  0  0  0  0
 33 69  1  0  0  0  0
 34 70  1  0  0  0  0
 34 76  2  0  0  0  0
 35 53  1  0  0  0  0
 35 72  1  0  0  0  0
 35 77  2  0  0  0  0
 36 62  1  0  0  0  0
 36 67  1  0  0  0  0
 36 78  2  0  0  0  0
 37 63  1  0  0  0  0
 37 73  1  0  0  0  0
 37 79  2  0  0  0  0
 38 68  1  0  0  0  0
 38 71  1  0  0  0  0
 38 80  2  0  0  0  0
 39 42  1  0  0  0  0
 40 53  1  0  0  0  0
 41 67  1  0  0  0  0
 42 44  1  0  0  0  0
 43 45  1  0  0  0  0
 43 48  1  0  0  0  0
 44 52  1  0  0  0  0
 45 54  1  0  0  0  0
 46 50  1  0  0  0  0
 46 55  1  0  0  0  0
 47 51  1  0  0  0  0
 47 55  1  0  0  0  0
 48 68  1  0  0  0  0
 49 54  1  0  0  0  0
 49 68  1  0  0  0  0
 50 74  1  0  0  0  0
 51 74  1  0  0  0  0
 52 72  1  0  0  0  0
 53 67  1  0  0  0  0
 54 66  1  0  0  0  0
 55 82  1  0  0  0  0
 56 63  1  0  0  0  0
 57 64  1  0  0  0  0
 58 64  1  0  0  0  0
 59 64  1  0  0  0  0
 60 75  1  0  0  0  0
 61 74  1  0  0  0  0
 62 64  1  0  0  0  0
 62 73  1  0  0  0  0
 63 75  1  0  0  0  0
 65 66  1  0  0  0  0
M  CHG  2  74   1  75   1
M  ISO  4  38 100  55 101  71 100  82 101
M  END
> <Batch ID>
0129

> <Smiles>
CNC(C)C(=O)NC(C(=O)N1Cc2cc([101O:1][101CH:1]3CCN(Cc4ccc([100NH:0][100C:0](=O)N5CCCC(n6nc(-c7ccc(Oc8ccc(F)cc8F)cc7)c(C(N)=O)c6N)C5)cc4)CC3)ccc2CC1C(=O)NC1CCCc2ccccc21)C(C)(C)C

> <Shape>
0.254

> <Color>
0.085

> <Negative vol penalty>
0.000

$$$$

  -OEChem-04052320453D

 83 92  0     1  0  0  0  0  0999 V2000
  -21.7543  -29.6310   22.9436 C   0  0  0  0  0  0  0  0  0  0  0  0
  -21.9126  -28.4201   23.6099 C   0  0  0  0  0  0  0  0  0  0  0  0
  -29.2062  -23.3962   21.2132 C   0  0  0  0  0  0  0  0  0  0  0  0
  -27.0254  -23.2713   20.1808 C   0  0  0  0  0  0  0  0  0  0  0  0
  -21.1221  -29.6643   21.7013 C   0  0  0  0  0  0  0  0  0  0  0  0
  -21.4378  -27.2418   23.0349 C   0  0  0  0  0  0  0  0  0  0  0  0
  -22.9234  -20.2474   22.6021 C   0  0  0  0  0  0  0  0  0  0  0  0
  -29.2945  -24.7436   20.8638 C   0  0  0  0  0  0  0  0  0  0  0  0
  -27.1137  -24.6188   19.8315 C   0  0  0  0  0  0  0  0  0  0  0  0
  -22.3197  -19.0045   22.7881 C   0  0  0  0  0  0  0  0  0  0  0  0
  -26.7190  -27.6140   21.3460 C   0  0  0  0  0  0  0  0  0  0  0  0
  -25.5993  -28.4148   21.5707 C   0  0  0  0  0  0  0  0  0  0  0  0
  -21.3144  -19.1723   20.6017 C   0  0  0  0  0  0  0  0  0  0  0  0
  -25.4867  -28.9196   19.2107 C   0  0  0  0  0  0  0  0  0  0  0  0
  -28.0717  -22.6600   20.8717 C   0  0  0  0  0  0  0  0  0  0  0  0
  -27.4486  -20.7301   22.4193 C   0  0  0  0  0  0  0  0  0  0  0  0
  -20.6479  -28.4845   21.1063 C   0  0  0  0  0  0  0  0  0  0  0  0
  -22.7180  -20.9682   21.4169 C   0  0  0  0  0  0  0  0  0  0  0  0
  -20.7975  -27.2595   21.7841 C   0  0  0  0  0  0  0  0  0  0  0  0
  -21.9187  -20.4229   20.4020 C   0  0  0  0  0  0  0  0  0  0  0  0
  -28.2482  -25.3550   20.1730 C   0  0  0  0  0  0  0  0  0  0  0  0
  -21.5127  -18.4681   21.7890 C   0  0  0  0  0  0  0  0  0  0  0  0
  -27.2226  -27.4660   20.0537 C   0  0  0  0  0  0  0  0  0  0  0  0
  -24.9831  -29.0676   20.5031 C   0  0  0  0  0  0  0  0  0  0  0  0
  -26.6065  -28.1188   18.9860 C   0  0  0  0  0  0  0  0  0  0  0  0
  -27.9802  -21.2678   21.2318 C   0  0  0  0  0  0  0  0  0  0  0  0
  -27.5933  -19.3718   22.2760 C   0  0  0  0  0  0  0  0  0  0  0  0
  -26.8753  -21.3986   23.5506 C   0  0  0  0  0  0  0  0  0  0  0  0
  -21.4321  -23.7850   20.6988 C   0  0  0  0  0  0  0  0  0  0  0  0
  -22.5230  -23.0868   17.7248 C   0  0  0  0  0  0  0  0  0  0  0  0
  -23.4717  -20.7054   15.4719 C   0  0  0  0  0  0  0  0  0  0  0  0
  -27.2048  -14.7342   19.1958 C   0  0  0  0  0  0  0  0  0  0  0  0
  -19.9290  -28.5767   19.7837 C   0  0  0  0  0  0  0  0  0  0  0  0
  -23.3980  -22.2954   21.2208 C   0  0  0  0  0  0  0  0  0  0  0  0
  -21.6829  -21.1475   19.1029 C   0  0  0  0  0  0  0  0  0  0  0  0
  -19.7884  -27.2337   19.0719 C   0  0  0  0  0  0  0  0  0  0  0  0
  -30.1685  -16.6778   18.8558 C   0  0  0  0  0  0  0  0  0  0  0  0
  -19.3090  -26.1614   20.0451 C   0  0  0  0  0  0  0  0  0  0  0  0
  -29.8173  -18.0023   19.5358 C   0  0  0  0  0  0  0  0  0  0  0  0
  -20.2558  -12.7499   23.8428 C   0  0  0  0  0  0  0  0  0  0  0  0
  -20.9920  -11.4457   23.7223 C   0  0  0  0  0  0  0  0  0  0  0  0
  -23.2222  -14.7572   20.7987 C   0  0  0  0  0  0  0  0  0  0  0  0
  -28.9713  -16.0907   18.1115 C   0  0  0  0  0  0  0  0  0  0  0  0
  -27.3994  -17.2623   19.6049 C   0  0  0  0  0  0  0  0  0  0  0  0
  -23.4144  -12.5286   21.6145 C   0  0  0  0  0  0  0  0  0  0  0  0
  -20.3180  -25.9568   21.1815 C   0  0  1  0  0  0  0  0  0  0  0  0
  -22.7049  -23.1744   20.1843 C   0  0  1  0  0  0  0  0  0  0  0  0
  -24.2499  -13.7695   21.3329 C   0  0  1  0  0  0  0  0  0  0  0  0
  -28.5598  -17.8651   20.4150 C   0  0  2  0  0  0  0  0  0  0  0  0
  -21.7088  -12.7399   23.4626 C   0  0  0  0  0  0  0  0  0  0  0  0
  -22.0503  -14.5653   21.7531 C   0  0  1  0  0  0  0  0  0  0  0  0
  -24.3911  -19.7508   13.3410 C   0  0  0  0  0  0  0  0  0  0  0  0
  -20.3727  -14.1314   19.9376 C   0  0  0  0  0  0  0  0  0  0  0  0
  -19.6913  -23.5872   16.7046 C   0  0  0  0  0  0  0  0  0  0  0  0
  -20.3209  -22.4092   14.5870 C   0  0  0  0  0  0  0  0  0  0  0  0
  -21.5033  -24.5047   15.2454 C   0  0  0  0  0  0  0  0  0  0  0  0
  -26.2408  -20.7385   16.5157 C   0  0  0  0  0  0  0  0  0  0  0  0
  -25.3908  -13.5089   20.3652 C   0  0  0  0  0  0  0  0  0  0  0  0
  -20.6857  -16.4691   20.8011 C   0  0  0  0  0  0  0  0  0  1  0  0
  -21.9609  -22.3703   16.5208 C   0  0  1  0  0  0  0  0  0  0  0  0
  -24.6855  -20.6024   14.5660 C   0  0  2  0  0  0  0  0  0  0  0  0
  -20.7012  -14.9815   21.1630 C   0  0  2  0  0  0  0  0  0  0  0  0
  -20.8718  -23.2048   15.7896 C   0  0  0  0  0  0  0  0  0  0  0  0
  -28.4292  -20.3278   20.3958 N   0  0  0  0  0  0  0  0  0  0  0  0
  -28.1802  -19.1858   21.0589 N   0  0  0  0  0  0  0  0  0  0  0  0
  -22.3645  -22.4448   18.9612 N   0  0  0  0  0  0  0  0  0  0  0  0
  -27.8127  -15.9855   19.0017 N   0  0  0  0  0  0  0  0  0  0  0  0
  -27.2746  -18.3303   23.0736 N   0  0  0  0  0  0  0  0  0  0  0  0
  -26.8038  -22.7983   23.5341 N   0  0  0  0  0  0  0  0  0  0  0  0
  -21.4409  -25.1666   20.7243 N   0  0  0  0  0  0  0  0  0  0  0  0
  -23.1038  -22.0170   15.6857 N   0  0  0  0  0  0  0  0  0  0  0  0
  -26.1167  -14.7216   20.0600 N   0  0  0  0  0  0  0  0  0  0  0  0
  -22.0613  -13.0705   22.0377 N   0  3  1  0  0  0  0  0  0  0  0  0
  -25.8291  -19.9905   15.3000 N   0  3  0  0  0  0  0  0  0  0  0  0
  -26.4542  -20.7743   24.5538 O   0  0  0  0  0  0  0  0  0  0  0  0
  -20.5097  -23.0566   21.0457 O   0  0  0  0  0  0  0  0  0  0  0  0
  -23.0884  -24.1726   17.5730 O   0  0  0  0  0  0  0  0  0  0  0  0
  -22.9041  -19.7207   15.9397 O   0  0  0  0  0  0  0  0  0  0  0  0
  -27.6055  -13.7036   18.6444 O   0  0  0  0  0  0  0  0  0  0  0  0
  -28.3339  -26.6699   19.8321 O   0  0  0  0  0  0  0  0  0  0  0  0
  -20.9217  -17.2555   21.9683 O   0  0  0  0  0  0  0  0  0  1  0  0
  -23.9070  -29.8354   20.7188 F   0  0  0  0  0  0  0  0  0  0  0  0
  -27.0851  -27.9795   17.7421 F   0  0  0  0  0  0  0  0  0  0  0  0
  1  2  1  0  0  0  0
  1  5  2  0  0  0  0
  2  6  2  0  0  0  0
  3  8  2  0  0  0  0
  3 15  1  0  0  0  0
  4  9  1  0  0  0  0
  4 15  2  0  0  0  0
  5 17  1  0  0  0  0
  6 19  1  0  0  0  0
  7 10  2  0  0  0  0
  7 18  1  0  0  0  0
  8 21  1  0  0  0  0
  9 21  2  0  0  0  0
 10 22  1  0  0  0  0
 11 12  2  0  0  0  0
 11 23  1  0  0  0  0
 12 24  1  0  0  0  0
 13 20  1  0  0  0  0
 13 22  2  0  0  0  0
 14 24  2  0  0  0  0
 14 25  1  0  0  0  0
 15 26  1  0  0  0  0
 16 26  1  0  0  0  0
 16 27  2  0  0  0  0
 16 28  1  0  0  0  0
 17 19  2  0  0  0  0
 17 33  1  0  0  0  0
 18 20  2  0  0  0  0
 18 34  1  0  0  0  0
 19 46  1  0  0  0  0
 20 35  1  0  0  0  0
 21 80  1  0  0  0  0
 22 81  1  0  0  0  0
 23 25  2  0  0  0  0
 23 80  1  0  0  0  0
 24 82  1  0  0  0  0
 25 83  1  0  0  0  0
 26 64  2  0  0  0  0
 27 65  1  0  0  0  0
 27 68  1  0  0  0  0
 28 69  1  0  0  0  0
 28 75  2  0  0  0  0
 29 47  1  0  0  0  0
 29 70  1  0  0  0  0
 29 76  2  0  0  0  0
 30 60  1  0  0  0  0
 30 66  1  0  0  0  0
 30 77  2  0  0  0  0
 31 61  1  0  0  0  0
 31 71  1  0  0  0  0
 31 78  2  0  0  0  0
 32 67  1  0  0  0  0
 32 72  1  0  0  0  0
 32 79  2  0  0  0  0
 33 36  1  0  0  0  0
 34 47  1  0  0  0  0
 35 66  1  0  0  0  0
 36 38  1  0  0  0  0
 37 39  1  0  0  0  0
 37 43  1  0  0  0  0
 38 46  1  0  0  0  0
 39 49  1  0  0  0  0
 40 41  1  0  0  0  0
 40 50  1  0  0  0  0
 41 50  1  0  0  0  0
 42 48  1  0  0  0  0
 42 51  1  0  0  0  0
 43 67  1  0  0  0  0
 44 49  1  0  0  0  0
 44 67  1  0  0  0  0
 45 48  1  0  0  0  0
 45 73  1  0  0  0  0
 46 70  1  0  0  0  0
 47 66  1  0  0  0  0
 48 58  1  0  0  0  0
 49 65  1  0  0  0  0
 50 73  1  0  0  0  0
 51 62  1  0  0  0  0
 51 73  1  0  0  0  0
 52 61  1  0  0  0  0
 53 62  1  0  0  0  0
 54 63  1  0  0  0  0
 55 63  1  0  0  0  0
 56 63  1  0  0  0  0
 57 74  1  0  0  0  0
 58 72  1  0  0  0  0
 59 62  1  0  0  0  0
 59 81  1  0  0  0  0
 60 63  1  0  0  0  0
 60 71  1  0  0  0  0
 61 74  1  0  0  0  0
 64 65  1  0  0  0  0
M  CHG  2  73   1  74   1
M  ISO  4  32 100  59 101  72 100  81 101
M  END
> <Batch ID>
0129

> <Smiles>
CNC(C)C(=O)NC(C(=O)N1Cc2cc([101O:1][101CH2:1]C(C)C3CC(C[100NH:0][100C:0](=O)N4CCCC(n5nc(-c6ccc(Oc7ccc(F)cc7F)cc6)c(C(N)=O)c5N)C4)CN3C3CC3)ccc2CC1C(=O)NC1CCCc2ccccc21)C(C)(C)C

> <Shape>
0.178

> <Color>
0.069

> <Negative vol penalty>
0.000

$$$$

  -OEChem-04052320453D

 84 93  0     1  0  0  0  0  0999 V2000
  -27.9363  -28.7617   30.8097 C   0  0  0  0  0  0  0  0  0  0  0  0
  -27.3321  -27.7377   30.0874 C   0  0  0  0  0  0  0  0  0  0  0  0
  -22.9901  -10.0262   19.8876 C   0  0  0  0  0  0  0  0  0  0  0  0
  -23.8027   -9.8373   22.1549 C   0  0  0  0  0  0  0  0  0  0  0  0
  -28.4606  -29.8683   30.1430 C   0  0  0  0  0  0  0  0  0  0  0  0
  -27.2509  -27.8203   28.6978 C   0  0  0  0  0  0  0  0  0  0  0  0
  -27.5956  -23.1866   24.7082 C   0  0  0  0  0  0  0  0  0  0  0  0
  -22.2159   -8.8803   20.0696 C   0  0  0  0  0  0  0  0  0  0  0  0
  -23.0285   -8.6914   22.3370 C   0  0  0  0  0  0  0  0  0  0  0  0
  -26.6191  -22.4560   24.0325 C   0  0  0  0  0  0  0  0  0  0  0  0
  -23.2006   -5.4137   21.5258 C   0  0  0  0  0  0  0  0  0  0  0  0
  -23.7996   -4.3192   22.1493 C   0  0  0  0  0  0  0  0  0  0  0  0
  -26.8839  -23.8905   22.1112 C   0  0  0  0  0  0  0  0  0  0  0  0
  -26.5702  -18.8833   19.8398 C   0  0  0  0  0  0  0  0  0  0  0  0
  -24.7733  -20.2709   20.6337 C   0  0  0  0  0  0  0  0  0  0  0  0
  -22.1446   -4.4145   23.9068 C   0  0  0  0  0  0  0  0  0  0  0  0
  -23.7836  -10.5047   20.9302 C   0  0  0  0  0  0  0  0  0  0  0  0
  -24.2027  -13.0203   20.9905 C   0  0  0  0  0  0  0  0  0  0  0  0
  -28.3944  -29.9599   28.7437 C   0  0  0  0  0  0  0  0  0  0  0  0
  -28.2168  -24.2832   24.0934 C   0  0  0  0  0  0  0  0  0  0  0  0
  -27.7736  -28.9297   28.0117 C   0  0  0  0  0  0  0  0  0  0  0  0
  -27.8698  -24.6318   22.7803 C   0  0  0  0  0  0  0  0  0  0  0  0
  -25.2139  -19.1866   19.8829 C   0  0  0  0  0  0  0  0  0  0  0  0
  -22.2351   -8.2129   21.2943 C   0  0  0  0  0  0  0  0  0  0  0  0
  -26.2611  -22.8097   22.7349 C   0  0  0  0  0  0  0  0  0  0  0  0
  -22.0736   -6.0088   22.0929 C   0  0  0  0  0  0  0  0  0  0  0  0
  -23.2716   -3.8196   23.3398 C   0  0  0  0  0  0  0  0  0  0  0  0
  -21.5456   -5.5091   23.2834 C   0  0  0  0  0  0  0  0  0  0  0  0
  -24.5840  -11.6880   20.7427 C   0  0  0  0  0  0  0  0  0  0  0  0
  -27.4381  -19.6887   20.5595 C   0  0  0  0  0  0  0  0  0  0  0  0
  -25.7217  -21.0143   21.3178 C   0  0  0  0  0  0  0  0  0  1  0  0
  -25.3094  -13.7620   20.6565 C   0  0  0  0  0  0  0  0  0  0  0  0
  -22.9593  -13.5409   21.4790 C   0  0  0  0  0  0  0  0  0  0  0  0
  -28.3896  -27.3974   24.7064 C   0  0  0  0  0  0  0  0  0  0  0  0
  -30.4774  -27.3739   22.2239 C   0  0  0  0  0  0  0  0  0  0  0  0
  -31.5751  -25.8473   19.3758 C   0  0  0  0  0  0  0  0  0  0  0  0
  -30.8257  -14.5991   20.7806 C   0  0  0  0  0  0  0  0  0  0  0  0
  -28.9329  -31.1976   28.0710 C   0  0  0  0  0  0  0  0  0  0  0  0
  -29.2873  -25.0446   24.8260 C   0  0  0  0  0  0  0  0  0  0  0  0
  -28.5212  -25.7881   22.0683 C   0  0  0  0  0  0  0  0  0  0  0  0
  -29.1402  -31.0325   26.5676 C   0  0  0  0  0  0  0  0  0  0  0  0
  -29.5578  -12.4366   18.2522 C   0  0  0  0  0  0  0  0  0  0  0  0
  -24.4310  -18.1564   17.6469 C   0  0  0  0  0  0  0  0  0  0  0  0
  -23.3123  -19.0194   18.1409 C   0  0  0  0  0  0  0  0  0  0  0  0
  -27.9207  -30.3750   25.9296 C   0  0  0  0  0  0  0  0  0  0  0  0
  -28.1222  -12.1543   18.6985 C   0  0  0  0  0  0  0  0  0  0  0  0
  -30.5091  -12.5386   19.4425 C   0  0  0  0  0  0  0  0  0  0  0  0
  -28.6642  -13.2197   20.9278 C   0  0  0  0  0  0  0  0  0  0  0  0
  -24.2364  -18.3539   19.1283 C   0  0  0  0  0  0  0  0  0  0  0  0
  -27.6883  -28.9712   26.5014 C   0  0  1  0  0  0  0  0  0  0  0  0
  -29.4871  -26.4591   24.2908 C   0  0  1  0  0  0  0  0  0  0  0  0
  -27.6580  -13.1637   19.7656 C   0  0  2  0  0  0  0  0  0  0  0  0
  -33.2735  -26.0832   17.5435 C   0  0  0  0  0  0  0  0  0  0  0  0
  -28.7928  -29.5755   20.9491 C   0  0  0  0  0  0  0  0  0  0  0  0
  -29.9436  -29.1020   18.7766 C   0  0  0  0  0  0  0  0  0  0  0  0
  -31.2638  -29.8981   20.7378 C   0  0  0  0  0  0  0  0  0  0  0  0
  -32.8571  -23.2729   20.0743 C   0  0  0  0  0  0  0  0  0  0  0  0
  -28.9006  -19.3923   20.5368 C   0  0  0  0  0  0  0  0  0  0  0  0
  -30.9885  -16.6472   22.1726 C   0  0  0  0  0  0  0  0  0  0  0  0
  -30.7209  -17.8672   21.3111 C   0  0  0  0  0  0  0  0  0  0  0  0
  -30.3611  -27.5365   20.7275 C   0  0  1  0  0  0  0  0  0  0  0  0
  -32.9699  -25.4771   18.9048 C   0  0  2  0  0  0  0  0  0  0  0  0
  -30.0765  -29.0074   20.3116 C   0  0  0  0  0  0  0  0  0  0  0  0
  -25.8351  -11.5861   20.2863 N   0  0  0  0  0  0  0  0  0  0  0  0
  -27.0474  -20.7502   21.2999 N   0  0  0  0  0  0  0  0  0  0  0  0
  -26.2496  -12.8639   20.2446 N   0  0  0  0  0  0  0  0  0  0  0  0
  -29.5578  -26.5055   22.8289 N   0  0  0  0  0  0  0  0  0  0  0  0
  -30.0122  -13.5134   20.4165 N   0  0  0  0  0  0  0  0  0  0  0  0
  -25.5603  -15.0883   20.6778 N   0  0  0  0  0  0  0  0  0  0  0  0
  -21.9270  -12.6396   21.7731 N   0  0  0  0  0  0  0  0  0  0  0  0
  -28.6155  -28.0270   25.9155 N   0  0  0  0  0  0  0  0  0  0  0  0
  -31.5851  -26.9813   20.1602 N   0  0  0  0  0  0  0  0  0  0  0  0
  -30.2760  -15.4792   21.7047 N   0  0  0  0  0  0  0  0  0  0  0  0
  -33.1056  -23.9966   18.8010 N   0  3  0  0  0  0  0  0  0  0  0  0
  -29.2766  -18.2140   21.3652 N   0  3  0  0  0  0  0  0  0  0  0  0
  -22.7637  -14.7702   21.6341 O   0  0  0  0  0  0  0  0  0  0  0  0
  -27.4110  -27.5407   23.9828 O   0  0  0  0  0  0  0  0  0  0  0  0
  -31.3565  -27.9890   22.8325 O   0  0  0  0  0  0  0  0  0  0  0  0
  -30.5761  -25.1979   19.0747 O   0  0  0  0  0  0  0  0  0  0  0  0
  -31.9558  -14.7741   20.3126 O   0  0  0  0  0  0  0  0  0  0  0  0
  -21.4796   -7.0949   21.4723 O   0  0  0  0  0  0  0  0  0  0  0  0
  -25.3078  -22.0987   22.0734 O   0  0  0  0  0  0  0  0  0  1  0  0
  -23.8461   -2.7675   23.9375 F   0  0  0  0  0  0  0  0  0  0  0  0
  -20.4624   -6.0758   23.8323 F   0  0  0  0  0  0  0  0  0  0  0  0
  1  2  1  0  0  0  0
  1  5  2  0  0  0  0
  2  6  2  0  0  0  0
  3  8  2  0  0  0  0
  3 17  1  0  0  0  0
  4  9  1  0  0  0  0
  4 17  2  0  0  0  0
  5 19  1  0  0  0  0
  6 21  1  0  0  0  0
  7 10  2  0  0  0  0
  7 20  1  0  0  0  0
  8 24  1  0  0  0  0
  9 24  2  0  0  0  0
 10 25  1  0  0  0  0
 11 12  2  0  0  0  0
 11 26  1  0  0  0  0
 12 27  1  0  0  0  0
 13 22  1  0  0  0  0
 13 25  2  0  0  0  0
 14 23  1  0  0  0  0
 14 30  2  0  0  0  0
 15 23  2  0  0  0  0
 15 31  1  0  0  0  0
 16 27  2  0  0  0  0
 16 28  1  0  0  0  0
 17 29  1  0  0  0  0
 18 29  1  0  0  0  0
 18 32  2  0  0  0  0
 18 33  1  0  0  0  0
 19 21  2  0  0  0  0
 19 38  1  0  0  0  0
 20 22  2  0  0  0  0
 20 39  1  0  0  0  0
 21 50  1  0  0  0  0
 22 40  1  0  0  0  0
 23 49  1  0  0  0  0
 24 81  1  0  0  0  0
 25 82  1  0  0  0  0
 26 28  2  0  0  0  0
 26 81  1  0  0  0  0
 27 83  1  0  0  0  0
 28 84  1  0  0  0  0
 29 64  2  0  0  0  0
 30 58  1  0  0  0  0
 30 65  1  0  0  0  0
 31 65  2  0  0  0  0
 31 82  1  0  0  0  0
 32 66  1  0  0  0  0
 32 69  1  0  0  0  0
 33 70  1  0  0  0  0
 33 76  2  0  0  0  0
 34 51  1  0  0  0  0
 34 71  1  0  0  0  0
 34 77  2  0  0  0  0
 35 61  1  0  0  0  0
 35 67  1  0  0  0  0
 35 78  2  0  0  0  0
 36 62  1  0  0  0  0
 36 72  1  0  0  0  0
 36 79  2  0  0  0  0
 37 68  1  0  0  0  0
 37 73  1  0  0  0  0
 37 80  2  0  0  0  0
 38 41  1  0  0  0  0
 39 51  1  0  0  0  0
 40 67  1  0  0  0  0
 41 45  1  0  0  0  0
 42 46  1  0  0  0  0
 42 47  1  0  0  0  0
 43 44  1  0  0  0  0
 43 49  1  0  0  0  0
 44 49  1  0  0  0  0
 45 50  1  0  0  0  0
 46 52  1  0  0  0  0
 47 68  1  0  0  0  0
 48 52  1  0  0  0  0
 48 68  1  0  0  0  0
 50 71  1  0  0  0  0
 51 67  1  0  0  0  0
 52 66  1  0  0  0  0
 53 62  1  0  0  0  0
 54 63  1  0  0  0  0
 55 63  1  0  0  0  0
 56 63  1  0  0  0  0
 57 74  1  0  0  0  0
 58 75  1  0  0  0  0
 59 60  1  0  0  0  0
 59 73  1  0  0  0  0
 60 75  1  0  0  0  0
 61 63  1  0  0  0  0
 61 72  1  0  0  0  0
 62 74  1  0  0  0  0
 64 66  1  0  0  0  0
M  CHG  2  74   1  75   1
M  ISO  4  31 101  37 100  73 100  82 101
M  END
> <Batch ID>
0129

> <Smiles>
CNC(C)C(=O)NC(C(=O)N1Cc2cc([101O:1][101c:1]3cc(C4CC4)cc(CNCC[100NH:0][100C:0](=O)N4CCCC(n5nc(-c6ccc(Oc7ccc(F)cc7F)cc6)c(C(N)=O)c5N)C4)n3)ccc2CC1C(=O)NC1CCCc2ccccc21)C(C)(C)C

> <Shape>
0.248

> <Color>
0.204

> <Negative vol penalty>
0.000

$$$$

  -OEChem-04052320453D

 81 89  0     1  0  0  0  0  0999 V2000
  -29.3354  -27.7471   13.4321 C   0  0  0  0  0  0  0  0  0  0  0  0
  -29.2024  -26.6416   14.2661 C   0  0  0  0  0  0  0  0  0  0  0  0
  -23.5103  -11.3578   23.6338 C   0  0  0  0  0  0  0  0  0  0  0  0
  -23.8528   -9.6695   21.9398 C   0  0  0  0  0  0  0  0  0  0  0  0
  -29.3708  -29.0298   13.9772 C   0  0  0  0  0  0  0  0  0  0  0  0
  -29.1058  -26.8181   15.6459 C   0  0  0  0  0  0  0  0  0  0  0  0
  -25.8080  -23.4611   19.5652 C   0  0  0  0  0  0  0  0  0  0  0  0
  -22.8254  -10.4307   24.4192 C   0  0  0  0  0  0  0  0  0  0  0  0
  -23.1679   -8.7424   22.7253 C   0  0  0  0  0  0  0  0  0  0  0  0
  -26.1477  -22.4114   20.4176 C   0  0  0  0  0  0  0  0  0  0  0  0
  -19.7394   -9.0562   24.5283 C   0  0  0  0  0  0  0  0  0  0  0  0
  -18.5463   -9.4672   25.1225 C   0  0  0  0  0  0  0  0  0  0  0  0
  -26.3843  -23.9751   22.2391 C   0  0  0  0  0  0  0  0  0  0  0  0
  -19.4780   -9.0161   27.3055 C   0  0  0  0  0  0  0  0  0  0  0  0
  -24.0240  -10.9772   22.3940 C   0  0  0  0  0  0  0  0  0  0  0  0
  -24.2335  -13.1483   21.0710 C   0  0  0  0  0  0  0  0  0  0  0  0
  -29.2649  -29.2228   15.3637 C   0  0  0  0  0  0  0  0  0  0  0  0
  -25.7645  -24.7793   20.0416 C   0  0  0  0  0  0  0  0  0  0  0  0
  -29.1412  -28.1046   16.2102 C   0  0  0  0  0  0  0  0  0  0  0  0
  -26.0414  -25.0395   21.3914 C   0  0  0  0  0  0  0  0  0  0  0  0
  -22.6542   -9.1230   23.9650 C   0  0  0  0  0  0  0  0  0  0  0  0
  -26.4387  -22.6687   21.7541 C   0  0  0  0  0  0  0  0  0  0  0  0
  -20.8019   -8.6251   25.3227 C   0  0  0  0  0  0  0  0  0  0  0  0
  -18.4156   -9.4472   26.5111 C   0  0  0  0  0  0  0  0  0  0  0  0
  -20.6712   -8.6051   26.7113 C   0  0  0  0  0  0  0  0  0  0  0  0
  -24.7312  -11.9346   21.5819 C   0  0  0  0  0  0  0  0  0  0  0  0
  -25.2871  -13.6843   20.3718 C   0  0  0  0  0  0  0  0  0  0  0  0
  -22.9348  -13.7385   21.2157 C   0  0  0  0  0  0  0  0  0  0  0  0
  -27.3316  -27.4612   19.3669 C   0  0  0  0  0  0  0  0  0  0  0  0
  -25.1930  -28.7687   21.4257 C   0  0  0  0  0  0  0  0  0  0  0  0
  -23.0498  -28.3272   24.0446 C   0  0  0  0  0  0  0  0  0  0  0  0
  -31.2220  -13.0101   20.7890 C   0  0  0  0  0  0  0  0  0  0  0  0
  -29.3558  -30.6255   15.9104 C   0  0  0  0  0  0  0  0  0  0  0  0
  -25.3703  -25.8972   19.1157 C   0  0  0  0  0  0  0  0  0  0  0  0
  -25.9890  -26.4343   21.9571 C   0  0  0  0  0  0  0  0  0  0  0  0
  -28.8707  -30.7498   17.3524 C   0  0  0  0  0  0  0  0  0  0  0  0
  -29.1948  -12.4058   17.9251 C   0  0  0  0  0  0  0  0  0  0  0  0
  -29.4584  -29.6346   18.2113 C   0  0  0  0  0  0  0  0  0  0  0  0
  -27.7760  -12.3260   18.4914 C   0  0  0  0  0  0  0  0  0  0  0  0
  -30.1721  -20.1418   23.1383 C   0  0  0  0  0  0  0  0  0  0  0  0
  -28.7486  -18.5381   21.7882 C   0  0  0  0  0  0  0  0  0  0  0  0
  -28.9481  -21.0229   23.3761 C   0  0  0  0  0  0  0  0  0  0  0  0
  -27.5281  -19.4233   22.0288 C   0  0  0  0  0  0  0  0  0  0  0  0
  -30.2184  -11.7935   18.8787 C   0  0  0  0  0  0  0  0  0  0  0  0
  -28.7678  -12.2533   20.8173 C   0  0  0  0  0  0  0  0  0  0  0  0
  -29.0087  -28.2569   17.7100 C   0  0  1  0  0  0  0  0  0  0  0  0
  -25.8585  -27.2636   19.5869 C   0  0  1  0  0  0  0  0  0  0  0  0
  -27.7074  -12.9085   19.9160 C   0  0  2  0  0  0  0  0  0  0  0  0
  -29.7597  -18.6870   22.9231 C   0  0  0  0  0  0  0  0  0  0  0  0
  -27.9246  -20.8833   22.2502 C   0  0  0  0  0  0  0  0  0  1  0  0
  -21.4708  -29.5886   25.5321 C   0  0  0  0  0  0  0  0  0  0  0  0
  -27.5644  -29.9252   22.9582 C   0  0  0  0  0  0  0  0  0  0  0  0
  -26.0257  -30.3381   24.8895 C   0  0  0  0  0  0  0  0  0  0  0  0
  -25.6234  -31.4824   22.7098 C   0  0  0  0  0  0  0  0  0  0  0  0
  -20.7367  -26.7084   23.1569 C   0  0  0  0  0  0  0  0  0  0  0  0
  -32.1218  -15.7262   22.4728 C   0  0  0  0  0  0  0  0  0  0  0  0
  -32.0793  -14.2316   22.7719 C   0  0  0  0  0  0  0  0  0  0  0  0
  -30.8330  -16.4322   22.8744 C   0  0  0  0  0  0  0  0  0  0  0  0
  -25.1517  -29.0071   22.9158 C   0  0  1  0  0  0  0  0  0  0  0  0
  -21.6140  -28.7719   24.2572 C   0  0  2  0  0  0  0  0  0  0  0  0
  -26.0942  -30.1621   23.3575 C   0  0  0  0  0  0  0  0  0  0  0  0
  -26.0021  -11.7123   21.2365 N   0  0  0  0  0  0  0  0  0  0  0  0
  -26.3119  -12.7936   20.5010 N   0  0  0  0  0  0  0  0  0  0  0  0
  -25.6047  -27.4944   21.0105 N   0  0  0  0  0  0  0  0  0  0  0  0
  -30.1016  -12.3902   20.2115 N   0  0  0  0  0  0  0  0  0  0  0  0
  -25.4277  -14.8259   19.6651 N   0  0  0  0  0  0  0  0  0  0  0  0
  -21.9698  -13.0540   21.9672 N   0  0  0  0  0  0  0  0  0  0  0  0
  -27.6502  -27.9855   18.1287 N   0  0  0  0  0  0  0  0  0  0  0  0
  -23.7488  -29.2172   23.2569 N   0  0  0  0  0  0  0  0  0  0  0  0
  -31.0235  -13.5556   22.0515 N   0  0  0  0  0  0  0  0  0  0  0  0
  -30.9699  -17.8867   22.5977 N   0  3  0  0  0  0  0  0  0  0  0  0
  -20.7139  -27.5881   24.3538 N   0  3  0  0  0  0  0  0  0  0  0  0
  -22.6338  -14.8322   20.6804 O   0  0  0  0  0  0  0  0  0  0  0  0
  -28.1208  -27.1616   20.2553 O   0  0  0  0  0  0  0  0  0  0  0  0
  -24.8650  -29.6773   20.6586 O   0  0  0  0  0  0  0  0  0  0  0  0
  -23.5066  -27.2954   24.5318 O   0  0  0  0  0  0  0  0  0  0  0  0
  -32.3165  -13.0774   20.2193 O   0  0  0  0  0  0  0  0  0  0  0  0
  -21.9861   -8.2181   24.7313 O   0  0  0  0  0  0  0  0  0  0  0  0
  -26.7712  -21.6460   22.5880 O   0  0  0  0  0  0  0  0  0  1  0  0
  -17.2703   -9.8434   27.0816 F   0  0  0  0  0  0  0  0  0  0  0  0
  -21.6888   -8.1931   27.4797 F   0  0  0  0  0  0  0  0  0  0  0  0
  1  2  1  0  0  0  0
  1  5  2  0  0  0  0
  2  6  2  0  0  0  0
  3  8  2  0  0  0  0
  3 15  1  0  0  0  0
  4  9  1  0  0  0  0
  4 15  2  0  0  0  0
  5 17  1  0  0  0  0
  6 19  1  0  0  0  0
  7 10  2  0  0  0  0
  7 18  1  0  0  0  0
  8 21  1  0  0  0  0
  9 21  2  0  0  0  0
 10 22  1  0  0  0  0
 11 12  2  0  0  0  0
 11 23  1  0  0  0  0
 12 24  1  0  0  0  0
 13 20  1  0  0  0  0
 13 22  2  0  0  0  0
 14 24  2  0  0  0  0
 14 25  1  0  0  0  0
 15 26  1  0  0  0  0
 16 26  1  0  0  0  0
 16 27  2  0  0  0  0
 16 28  1  0  0  0  0
 17 19  2  0  0  0  0
 17 33  1  0  0  0  0
 18 20  2  0  0  0  0
 18 34  1  0  0  0  0
 19 46  1  0  0  0  0
 20 35  1  0  0  0  0
 21 78  1  0  0  0  0
 22 79  1  0  0  0  0
 23 25  2  0  0  0  0
 23 78  1  0  0  0  0
 24 80  1  0  0  0  0
 25 81  1  0  0  0  0
 26 62  2  0  0  0  0
 27 63  1  0  0  0  0
 27 66  1  0  0  0  0
 28 67  1  0  0  0  0
 28 73  2  0  0  0  0
 29 47  1  0  0  0  0
 29 68  1  0  0  0  0
 29 74  2  0  0  0  0
 30 59  1  0  0  0  0
 30 64  1  0  0  0  0
 30 75  2  0  0  0  0
 31 60  1  0  0  0  0
 31 69  1  0  0  0  0
 31 76  2  0  0  0  0
 32 65  1  0  0  0  0
 32 70  1  0  0  0  0
 32 77  2  0  0  0  0
 33 36  1  0  0  0  0
 34 47  1  0  0  0  0
 35 64  1  0  0  0  0
 36 38  1  0  0  0  0
 37 39  1  0  0  0  0
 37 44  1  0  0  0  0
 38 46  1  0  0  0  0
 39 48  1  0  0  0  0
 40 42  1  0  0  0  0
 40 49  1  0  0  0  0
 41 43  1  0  0  0  0
 41 49  1  0  0  0  0
 42 50  1  0  0  0  0
 43 50  1  0  0  0  0
 44 65  1  0  0  0  0
 45 48  1  0  0  0  0
 45 65  1  0  0  0  0
 46 68  1  0  0  0  0
 47 64  1  0  0  0  0
 48 63  1  0  0  0  0
 49 71  1  0  0  0  0
 50 79  1  0  0  0  0
 51 60  1  0  0  0  0
 52 61  1  0  0  0  0
 53 61  1  0  0  0  0
 54 61  1  0  0  0  0
 55 72  1  0  0  0  0
 56 57  1  0  0  0  0
 56 58  1  0  0  0  0
 57 70  1  0  0  0  0
 58 71  1  0  0  0  0
 59 61  1  0  0  0  0
 59 69  1  0  0  0  0
 60 72  1  0  0  0  0
 62 63  1  0  0  0  0
M  CHG  2  71   1  72   1
M  ISO  4  32 100  50 101  70 100  79 101
M  END
> <Batch ID>
0129

> <Smiles>
CNC(C)C(=O)NC(C(=O)N1Cc2cc([101O:1][101CH:1]3CCC(NCCC[100NH:0][100C:0](=O)N4CCCC(n5nc(-c6ccc(Oc7ccc(F)cc7F)cc6)c(C(N)=O)c5N)C4)CC3)ccc2CC1C(=O)NC1CCCc2ccccc21)C(C)(C)C

> <Shape>
0.220

> <Color>
0.120

> <Negative vol penalty>
0.000

$$$$

  -OEChem-04052320453D

 84 92  0     1  0  0  0  0  0999 V2000
  -23.7589  -30.1800   21.8446 C   0  0  0  0  0  0  0  0  0  0  0  0
  -23.0954  -28.9750   22.0521 C   0  0  0  0  0  0  0  0  0  0  0  0
  -28.8569  -12.6510   20.9430 C   0  0  0  0  0  0  0  0  0  0  0  0
  -28.2039  -12.7215   18.6180 C   0  0  0  0  0  0  0  0  0  0  0  0
  -24.9352  -30.2069   21.0965 C   0  0  0  0  0  0  0  0  0  0  0  0
  -23.6073  -27.7962   21.5108 C   0  0  0  0  0  0  0  0  0  0  0  0
  -23.3651  -22.1994   23.9852 C   0  0  0  0  0  0  0  0  0  0  0  0
  -30.1980  -12.5889   20.5645 C   0  0  0  0  0  0  0  0  0  0  0  0
  -29.5450  -12.6594   18.2395 C   0  0  0  0  0  0  0  0  0  0  0  0
  -22.5147  -21.1155   23.7717 C   0  0  0  0  0  0  0  0  0  0  0  0
  -32.5856  -14.7300   19.4932 C   0  0  0  0  0  0  0  0  0  0  0  0
  -33.4889  -15.5494   20.1703 C   0  0  0  0  0  0  0  0  0  0  0  0
  -24.1164  -20.1691   22.2361 C   0  0  0  0  0  0  0  0  0  0  0  0
  -18.7362  -16.4707   21.5246 C   0  0  0  0  0  0  0  0  0  0  0  0
  -20.0172  -16.7482   23.9873 C   0  0  0  0  0  0  0  0  0  0  0  0
  -34.7165  -13.5982   20.8936 C   0  0  0  0  0  0  0  0  0  0  0  0
  -27.8599  -12.7172   19.9697 C   0  0  0  0  0  0  0  0  0  0  0  0
  -25.7135  -13.9389   20.6087 C   0  0  0  0  0  0  0  0  0  0  0  0
  -25.4669  -29.0265   20.5539 C   0  0  0  0  0  0  0  0  0  0  0  0
  -24.5948  -22.2819   23.3163 C   0  0  0  0  0  0  0  0  0  0  0  0
  -24.7911  -27.8076   20.7536 C   0  0  0  0  0  0  0  0  0  0  0  0
  -24.9817  -21.2538   22.4448 C   0  0  0  0  0  0  0  0  0  0  0  0
  -19.4298  -17.6438   21.8217 C   0  0  0  0  0  0  0  0  0  0  0  0
  -19.3235  -15.5750   23.6902 C   0  0  0  0  0  0  0  0  0  0  0  0
  -18.6830  -15.4363   22.4589 C   0  0  0  0  0  0  0  0  0  0  0  0
  -20.0704  -17.7826   23.0530 C   0  0  0  0  0  0  0  0  0  0  0  0
  -30.5421  -12.5931   19.2128 C   0  0  0  0  0  0  0  0  0  0  0  0
  -22.8890  -20.1015   22.8949 C   0  0  0  0  0  0  0  0  0  0  0  0
  -32.7477  -13.3448   19.5164 C   0  0  0  0  0  0  0  0  0  0  0  0
  -34.5544  -14.9835   20.8704 C   0  0  0  0  0  0  0  0  0  0  0  0
  -33.8132  -12.7789   20.2165 C   0  0  0  0  0  0  0  0  0  0  0  0
  -26.4743  -12.7809   20.3601 C   0  0  0  0  0  0  0  0  0  0  0  0
  -24.4681  -13.4662   20.9432 C   0  0  0  0  0  0  0  0  0  0  0  0
  -26.0981  -15.3186   20.5429 C   0  0  0  0  0  0  0  0  0  0  0  0
  -25.8877  -24.3130   21.2410 C   0  0  0  0  0  0  0  0  0  0  0  0
  -28.5245  -22.4753   21.6799 C   0  0  0  0  0  0  0  0  0  0  0  0
  -29.8340  -19.4552   22.5806 C   0  0  0  0  0  0  0  0  0  0  0  0
  -20.1765  -10.0090   20.0627 C   0  0  0  0  0  0  0  0  0  0  0  0
  -26.7157  -29.1125   19.7125 C   0  0  0  0  0  0  0  0  0  0  0  0
  -25.5126  -23.4445   23.5779 C   0  0  0  0  0  0  0  0  0  0  0  0
  -26.3003  -21.2849   21.7177 C   0  0  0  0  0  0  0  0  0  0  0  0
  -27.3935  -27.7632   19.4888 C   0  0  0  0  0  0  0  0  0  0  0  0
  -22.9007   -8.7729   21.9934 C   0  0  0  0  0  0  0  0  0  0  0  0
  -26.3653  -26.7084   19.0926 C   0  0  0  0  0  0  0  0  0  0  0  0
  -24.0117   -9.7972   21.7561 C   0  0  0  0  0  0  0  0  0  0  0  0
  -22.0611   -8.5498   20.7375 C   0  0  0  0  0  0  0  0  0  0  0  0
  -22.6143  -10.8014   19.9020 C   0  0  0  0  0  0  0  0  0  0  0  0
  -25.3282  -26.5042   20.2036 C   0  0  1  0  0  0  0  0  0  0  0  0
  -26.5141  -23.6804   22.4515 C   0  0  1  0  0  0  0  0  0  0  0  0
  -23.4531  -11.1015   21.1560 C   0  0  2  0  0  0  0  0  0  0  0  0
  -19.4736  -18.7375   20.8055 C   0  0  0  0  0  0  0  0  0  0  0  0
  -19.2797  -14.4815   24.7064 C   0  0  0  0  0  0  0  0  0  0  0  0
  -32.0201  -18.2431   22.8022 C   0  0  0  0  0  0  0  0  0  0  0  0
  -28.6474  -22.1477   18.6489 C   0  0  0  0  0  0  0  0  0  0  0  0
  -30.2077  -20.2197   18.9904 C   0  0  0  0  0  0  0  0  0  0  0  0
  -30.8643  -22.5030   19.7504 C   0  0  0  0  0  0  0  0  0  0  0  0
  -29.4442  -19.0440   25.4854 C   0  0  0  0  0  0  0  0  0  0  0  0
  -17.9337  -14.1899   22.1189 C   0  0  0  0  0  0  0  0  0  0  0  0
  -20.8229  -19.0349   23.3946 C   0  0  0  0  0  0  0  0  0  1  0  0
  -18.3969  -11.5907   19.3624 C   0  0  0  0  0  0  0  0  0  0  0  0
  -17.7680  -12.2211   20.5909 C   0  0  0  0  0  0  0  0  0  0  0  0
  -29.0854  -21.2364   21.0245 C   0  0  1  0  0  0  0  0  0  0  0  0
  -30.9752  -19.0897   23.5124 C   0  0  2  0  0  0  0  0  0  0  0  0
  -29.6754  -21.5268   19.6156 C   0  0  0  0  0  0  0  0  0  0  0  0
  -25.7711  -11.6570   20.5230 N   0  0  0  0  0  0  0  0  0  0  0  0
  -24.5553  -12.1067   20.8777 N   0  0  0  0  0  0  0  0  0  0  0  0
  -27.1602  -22.4457   22.0019 N   0  0  0  0  0  0  0  0  0  0  0  0
  -21.5602   -9.8253   20.2197 N   0  0  0  0  0  0  0  0  0  0  0  0
  -23.3178  -14.0850   21.2843 N   0  0  0  0  0  0  0  0  0  0  0  0
  -27.4167  -15.6281   20.1827 N   0  0  0  0  0  0  0  0  0  0  0  0
  -25.8809  -25.6945   21.2682 N   0  0  0  0  0  0  0  0  0  0  0  0
  -30.0439  -20.6732   21.9692 N   0  0  0  0  0  0  0  0  0  0  0  0
  -19.7862  -11.2491   19.5723 N   0  0  0  0  0  0  0  0  0  0  0  0
  -30.4631  -18.3208   24.6818 N   0  3  0  0  0  0  0  0  0  0  0  0
  -18.4632  -13.4945   20.9144 N   0  3  0  0  0  0  0  0  0  0  0  0
  -25.3007  -16.2488   20.8120 O   0  0  0  0  0  0  0  0  0  0  0  0
  -25.4449  -23.6004   20.3479 O   0  0  0  0  0  0  0  0  0  0  0  0
  -29.2710  -23.4313   21.9047 O   0  0  0  0  0  0  0  0  0  0  0  0
  -28.8560  -18.7308   22.4091 O   0  0  0  0  0  0  0  0  0  0  0  0
  -19.3499   -9.1346   20.3440 O   0  0  0  0  0  0  0  0  0  0  0  0
  -31.8506  -12.5328   18.8431 O   0  0  0  0  0  0  0  0  0  0  0  0
  -22.0605  -19.0427   22.6842 O   0  0  0  0  0  0  0  0  0  1  0  0
  -35.4226  -15.7705   21.5193 F   0  0  0  0  0  0  0  0  0  0  0  0
  -33.9748  -11.4488   20.2414 F   0  0  0  0  0  0  0  0  0  0  0  0
  1  2  1  0  0  0  0
  1  5  2  0  0  0  0
  2  6  2  0  0  0  0
  3  8  2  0  0  0  0
  3 17  1  0  0  0  0
  4  9  1  0  0  0  0
  4 17  2  0  0  0  0
  5 19  1  0  0  0  0
  6 21  1  0  0  0  0
  7 10  2  0  0  0  0
  7 20  1  0  0  0  0
  8 27  1  0  0  0  0
  9 27  2  0  0  0  0
 10 28  1  0  0  0  0
 11 12  2  0  0  0  0
 11 29  1  0  0  0  0
 12 30  1  0  0  0  0
 13 22  1  0  0  0  0
 13 28  2  0  0  0  0
 14 23  1  0  0  0  0
 14 25  2  0  0  0  0
 15 24  2  0  0  0  0
 15 26  1  0  0  0  0
 16 30  2  0  0  0  0
 16 31  1  0  0  0  0
 17 32  1  0  0  0  0
 18 32  1  0  0  0  0
 18 33  2  0  0  0  0
 18 34  1  0  0  0  0
 19 21  2  0  0  0  0
 19 39  1  0  0  0  0
 20 22  2  0  0  0  0
 20 40  1  0  0  0  0
 21 48  1  0  0  0  0
 22 41  1  0  0  0  0
 23 26  2  0  0  0  0
 23 51  1  0  0  0  0
 24 25  1  0  0  0  0
 24 52  1  0  0  0  0
 25 58  1  0  0  0  0
 26 59  1  0  0  0  0
 27 81  1  0  0  0  0
 28 82  1  0  0  0  0
 29 31  2  0  0  0  0
 29 81  1  0  0  0  0
 30 83  1  0  0  0  0
 31 84  1  0  0  0  0
 32 65  2  0  0  0  0
 33 66  1  0  0  0  0
 33 69  1  0  0  0  0
 34 70  1  0  0  0  0
 34 76  2  0  0  0  0
 35 49  1  0  0  0  0
 35 71  1  0  0  0  0
 35 77  2  0  0  0  0
 36 62  1  0  0  0  0
 36 67  1  0  0  0  0
 36 78  2  0  0  0  0
 37 63  1  0  0  0  0
 37 72  1  0  0  0  0
 37 79  2  0  0  0  0
 38 68  1  0  0  0  0
 38 73  1  0  0  0  0
 38 80  2  0  0  0  0
 39 42  1  0  0  0  0
 40 49  1  0  0  0  0
 41 67  1  0  0  0  0
 42 44  1  0  0  0  0
 43 45  1  0  0  0  0
 43 46  1  0  0  0  0
 44 48  1  0  0  0  0
 45 50  1  0  0  0  0
 46 68  1  0  0  0  0
 47 50  1  0  0  0  0
 47 68  1  0  0  0  0
 48 71  1  0  0  0  0
 49 67  1  0  0  0  0
 50 66  1  0  0  0  0
 53 63  1  0  0  0  0
 54 64  1  0  0  0  0
 55 64  1  0  0  0  0
 56 64  1  0  0  0  0
 57 74  1  0  0  0  0
 58 75  1  0  0  0  0
 59 82  1  0  0  0  0
 60 61  1  0  0  0  0
 60 73  1  0  0  0  0
 61 75  1  0  0  0  0
 62 64  1  0  0  0  0
 62 72  1  0  0  0  0
 63 74  1  0  0  0  0
 65 66  1  0  0  0  0
M  CHG  2  74   1  75   1
M  ISO  4  38 100  59 101  73 100  82 101
M  END
> <Batch ID>
0129

> <Smiles>
CNC(C)C(=O)NC(C(=O)N1Cc2cc([101O:1][101CH2:1]c3cc(C)c(CNCC[100NH:0][100C:0](=O)N4CCCC(n5nc(-c6ccc(Oc7ccc(F)cc7F)cc6)c(C(N)=O)c5N)C4)cc3C)ccc2CC1C(=O)NC1CCCc2ccccc21)C(C)(C)C

> <Shape>
0.210

> <Color>
0.099

> <Negative vol penalty>
0.000

$$$$

  -OEChem-04052320453D

 82 90  0     1  0  0  0  0  0999 V2000
  -30.5271  -26.0115   21.7163 C   0  0  0  0  0  0  0  0  0  0  0  0
  -29.5160  -25.3594   22.4147 C   0  0  0  0  0  0  0  0  0  0  0  0
  -26.1076  -31.9218   20.1238 C   0  0  0  0  0  0  0  0  0  0  0  0
  -25.9245  -31.0047   22.3515 C   0  0  0  0  0  0  0  0  0  0  0  0
  -30.9580  -25.5124   20.4878 C   0  0  0  0  0  0  0  0  0  0  0  0
  -28.9344  -24.2083   21.8845 C   0  0  0  0  0  0  0  0  0  0  0  0
  -26.8814  -19.3512   24.9990 C   0  0  0  0  0  0  0  0  0  0  0  0
  -21.5214  -22.2567   24.4217 C   0  0  0  0  0  0  0  0  0  0  0  0
  -19.2160  -22.4177   23.7171 C   0  0  0  0  0  0  0  0  0  0  0  0
  -21.8985  -23.1067   23.3821 C   0  0  0  0  0  0  0  0  0  0  0  0
  -19.5932  -23.2677   22.6775 C   0  0  0  0  0  0  0  0  0  0  0  0
  -26.4206  -33.1695   20.6632 C   0  0  0  0  0  0  0  0  0  0  0  0
  -26.2376  -32.2524   22.8908 C   0  0  0  0  0  0  0  0  0  0  0  0
  -25.6047  -18.9735   25.4127 C   0  0  0  0  0  0  0  0  0  0  0  0
  -24.7682  -35.7570   22.0770 C   0  0  0  0  0  0  0  0  0  0  0  0
  -24.1301  -36.8739   21.5376 C   0  0  0  0  0  0  0  0  0  0  0  0
  -25.3889  -17.5809   23.4548 C   0  0  0  0  0  0  0  0  0  0  0  0
  -26.2743  -37.8008   20.9205 C   0  0  0  0  0  0  0  0  0  0  0  0
  -25.8595  -30.8394   20.9679 C   0  0  0  0  0  0  0  0  0  0  0  0
  -26.4345  -28.5246   20.0631 C   0  0  0  0  0  0  0  0  0  0  0  0
  -30.3881  -24.3492   19.9468 C   0  0  0  0  0  0  0  0  0  0  0  0
  -27.4180  -18.8543   23.8025 C   0  0  0  0  0  0  0  0  0  0  0  0
  -29.3571  -23.6939   20.6470 C   0  0  0  0  0  0  0  0  0  0  0  0
  -26.6736  -17.9519   23.0294 C   0  0  0  0  0  0  0  0  0  0  0  0
  -20.1801  -21.9122   24.5892 C   0  0  0  0  0  0  0  0  0  0  0  0
  -20.9344  -23.6122   22.5100 C   0  0  0  0  0  0  0  0  0  0  0  0
  -26.4856  -33.3348   22.0467 C   0  0  0  0  0  0  0  0  0  0  0  0
  -24.8571  -18.0904   24.6391 C   0  0  0  0  0  0  0  0  0  0  0  0
  -26.1593  -35.6620   22.0381 C   0  0  0  0  0  0  0  0  0  0  0  0
  -24.8831  -37.8958   20.9594 C   0  0  0  0  0  0  0  0  0  0  0  0
  -26.9123  -36.6839   21.4599 C   0  0  0  0  0  0  0  0  0  0  0  0
  -25.5355  -29.5505   20.4114 C   0  0  0  0  0  0  0  0  0  0  0  0
  -25.6353  -27.5160   19.5831 C   0  0  0  0  0  0  0  0  0  0  0  0
  -27.8642  -28.4868   20.1646 C   0  0  0  0  0  0  0  0  0  0  0  0
  -28.3859  -20.1538   21.0679 C   0  0  0  0  0  0  0  0  0  0  0  0
  -29.3414  -17.1229   20.4171 C   0  0  0  0  0  0  0  0  0  0  0  0
  -28.9805  -13.7813   21.0089 C   0  0  0  0  0  0  0  0  0  0  0  0
  -20.4866  -25.0646   20.5008 C   0  0  0  0  0  0  0  0  0  0  0  0
  -30.8541  -23.8743   18.5933 C   0  0  0  0  0  0  0  0  0  0  0  0
  -28.8072  -19.2507   23.3837 C   0  0  0  0  0  0  0  0  0  0  0  0
  -27.2121  -17.3740   21.7471 C   0  0  0  0  0  0  0  0  0  0  0  0
  -30.4454  -22.4377   18.2779 C   0  0  0  0  0  0  0  0  0  0  0  0
  -21.0389  -27.2772   17.7665 C   0  0  0  0  0  0  0  0  0  0  0  0
  -28.9759  -22.2134   18.6200 C   0  0  0  0  0  0  0  0  0  0  0  0
  -22.3426  -27.9895   18.1342 C   0  0  0  0  0  0  0  0  0  0  0  0
  -20.1695  -27.0158   18.9951 C   0  0  0  0  0  0  0  0  0  0  0  0
  -22.1478  -27.0279   20.4632 C   0  0  0  0  0  0  0  0  0  0  0  0
  -28.7187  -22.4286   20.1164 C   0  0  1  0  0  0  0  0  0  0  0  0
  -29.0505  -19.0837   21.8869 C   0  0  1  0  0  0  0  0  0  0  0  0
  -23.0862  -27.2548   19.2668 C   0  0  2  0  0  0  0  0  0  0  0  0
  -29.8757  -11.5471   20.2989 C   0  0  0  0  0  0  0  0  0  0  0  0
  -27.7429  -17.3091   17.8247 C   0  0  0  0  0  0  0  0  0  0  0  0
  -27.8810  -14.8159   17.6423 C   0  0  0  0  0  0  0  0  0  0  0  0
  -29.9658  -16.1851   17.6013 C   0  0  0  0  0  0  0  0  0  0  0  0
  -29.9272  -13.1616   23.7437 C   0  0  0  0  0  0  0  0  0  0  0  0
  -19.7743  -20.9972   25.7083 C   0  0  0  0  0  0  0  0  0  0  0  0
  -19.7863  -19.5192   25.3315 C   0  0  0  0  0  0  0  0  0  0  0  0
  -21.2634  -17.6763   24.5187 C   0  0  0  0  0  0  0  0  0  0  0  0
  -22.6675  -17.4004   24.0182 C   0  0  0  0  0  0  0  0  0  1  0  0
  -28.7026  -15.9153   19.7747 C   0  0  1  0  0  0  0  0  0  0  0  0
  -30.0000  -12.6926   21.2915 C   0  0  2  0  0  0  0  0  0  0  0  0
  -28.5619  -16.0686   18.2339 C   0  0  0  0  0  0  0  0  0  0  0  0
  -24.2627  -29.2236   20.1728 N   0  0  0  0  0  0  0  0  0  0  0  0
  -24.3560  -27.9811   19.6693 N   0  0  0  0  0  0  0  0  0  0  0  0
  -28.5728  -17.7969   21.3767 N   0  0  0  0  0  0  0  0  0  0  0  0
  -20.9391  -26.3130   20.0240 N   0  0  0  0  0  0  0  0  0  0  0  0
  -25.9090  -26.2856   19.0998 N   0  0  0  0  0  0  0  0  0  0  0  0
  -28.5274  -29.6087   20.6802 N   0  0  0  0  0  0  0  0  0  0  0  0
  -21.3172  -24.4759   21.4539 N   0  0  0  0  0  0  0  0  0  0  0  0
  -29.1635  -21.2798   20.8759 N   0  0  0  0  0  0  0  0  0  0  0  0
  -29.4963  -14.7640   20.1907 N   0  0  0  0  0  0  0  0  0  0  0  0
  -29.8081  -12.1471   22.6650 N   0  3  0  0  0  0  0  0  0  0  0  0
  -21.1368  -19.1171   24.8536 N   0  3  0  0  0  0  0  0  0  0  0  0
  -28.5350  -27.4940   19.7933 O   0  0  0  0  0  0  0  0  0  0  0  0
  -27.2521  -19.9707   20.6404 O   0  0  0  0  0  0  0  0  0  0  0  0
  -30.4829  -17.4518   20.0850 O   0  0  0  0  0  0  0  0  0  0  0  0
  -27.8395  -13.7601   21.4652 O   0  0  0  0  0  0  0  0  0  0  0  0
  -19.4537  -24.5424   20.0738 O   0  0  0  0  0  0  0  0  0  0  0  0
  -26.7913  -34.5521   22.5733 O   0  0  0  0  0  0  0  0  0  0  0  0
  -23.6104  -17.7206   25.0403 O   0  0  0  0  0  0  0  0  0  1  0  0
  -24.2702  -38.9676   20.4401 F   0  0  0  0  0  0  0  0  0  0  0  0
  -28.2490  -36.5976   21.4186 F   0  0  0  0  0  0  0  0  0  0  0  0
  1  2  1  0  0  0  0
  1  5  2  0  0  0  0
  2  6  2  0  0  0  0
  3 12  2  0  0  0  0
  3 19  1  0  0  0  0
  4 13  1  0  0  0  0
  4 19  2  0  0  0  0
  5 21  1  0  0  0  0
  6 23  1  0  0  0  0
  7 14  2  0  0  0  0
  7 22  1  0  0  0  0
  8 10  2  0  0  0  0
  8 25  1  0  0  0  0
  9 11  1  0  0  0  0
  9 25  2  0  0  0  0
 10 26  1  0  0  0  0
 11 26  2  0  0  0  0
 12 27  1  0  0  0  0
 13 27  2  0  0  0  0
 14 28  1  0  0  0  0
 15 16  2  0  0  0  0
 15 29  1  0  0  0  0
 16 30  1  0  0  0  0
 17 24  1  0  0  0  0
 17 28  2  0  0  0  0
 18 30  2  0  0  0  0
 18 31  1  0  0  0  0
 19 32  1  0  0  0  0
 20 32  1  0  0  0  0
 20 33  2  0  0  0  0
 20 34  1  0  0  0  0
 21 23  2  0  0  0  0
 21 39  1  0  0  0  0
 22 24  2  0  0  0  0
 22 40  1  0  0  0  0
 23 48  1  0  0  0  0
 24 41  1  0  0  0  0
 25 56  1  0  0  0  0
 26 69  1  0  0  0  0
 27 79  1  0  0  0  0
 28 80  1  0  0  0  0
 29 31  2  0  0  0  0
 29 79  1  0  0  0  0
 30 81  1  0  0  0  0
 31 82  1  0  0  0  0
 32 63  2  0  0  0  0
 33 64  1  0  0  0  0
 33 67  1  0  0  0  0
 34 68  1  0  0  0  0
 34 74  2  0  0  0  0
 35 49  1  0  0  0  0
 35 70  1  0  0  0  0
 35 75  2  0  0  0  0
 36 60  1  0  0  0  0
 36 65  1  0  0  0  0
 36 76  2  0  0  0  0
 37 61  1  0  0  0  0
 37 71  1  0  0  0  0
 37 77  2  0  0  0  0
 38 66  1  0  0  0  0
 38 69  1  0  0  0  0
 38 78  2  0  0  0  0
 39 42  1  0  0  0  0
 40 49  1  0  0  0  0
 41 65  1  0  0  0  0
 42 44  1  0  0  0  0
 43 45  1  0  0  0  0
 43 46  1  0  0  0  0
 44 48  1  0  0  0  0
 45 50  1  0  0  0  0
 46 66  1  0  0  0  0
 47 50  1  0  0  0  0
 47 66  1  0  0  0  0
 48 70  1  0  0  0  0
 49 65  1  0  0  0  0
 50 64  1  0  0  0  0
 51 61  1  0  0  0  0
 52 62  1  0  0  0  0
 53 62  1  0  0  0  0
 54 62  1  0  0  0  0
 55 72  1  0  0  0  0
 56 57  1  0  0  0  0
 57 73  1  0  0  0  0
 58 59  1  0  0  0  0
 58 73  1  0  0  0  0
 59 80  1  0  0  0  0
 60 62  1  0  0  0  0
 60 71  1  0  0  0  0
 61 72  1  0  0  0  0
 63 64  1  0  0  0  0
M  CHG  2  72   1  73   1
M  ISO  4  38 100  59 101  69 100  80 101
M  END
> <Batch ID>
0129

> <Smiles>
CNC(C)C(=O)NC(C(=O)N1Cc2cc([101O:1][101CH2:1]CNCCc3ccc([100NH:0][100C:0](=O)N4CCCC(n5nc(-c6ccc(Oc7ccc(F)cc7F)cc6)c(C(N)=O)c5N)C4)cc3)ccc2CC1C(=O)NC1CCCc2ccccc21)C(C)(C)C

> <Shape>
0.208

> <Color>
0.052

> <Negative vol penalty>
0.000

$$$$

  -OEChem-04052320453D

 86 94  0     1  0  0  0  0  0999 V2000
  -15.3135  -14.9408   16.3079 C   0  0  0  0  0  0  0  0  0  0  0  0
  -16.4225  -14.9065   17.1471 C   0  0  0  0  0  0  0  0  0  0  0  0
  -27.7762  -23.6820   20.8931 C   0  0  0  0  0  0  0  0  0  0  0  0
  -28.3515  -23.3498   18.5702 C   0  0  0  0  0  0  0  0  0  0  0  0
  -14.6790  -16.1536   16.0424 C   0  0  0  0  0  0  0  0  0  0  0  0
  -16.8984  -16.0851   17.7204 C   0  0  0  0  0  0  0  0  0  0  0  0
  -17.9911  -15.5512   22.6363 C   0  0  0  0  0  0  0  0  0  0  0  0
  -27.8547  -25.0632   20.7150 C   0  0  0  0  0  0  0  0  0  0  0  0
  -28.4300  -24.7310   18.3921 C   0  0  0  0  0  0  0  0  0  0  0  0
  -19.1917  -14.9191   22.9567 C   0  0  0  0  0  0  0  0  0  0  0  0
  -25.9277  -27.5214   19.4202 C   0  0  0  0  0  0  0  0  0  0  0  0
  -24.9083  -28.3039   19.9626 C   0  0  0  0  0  0  0  0  0  0  0  0
  -20.2139  -17.0698   23.3426 C   0  0  0  0  0  0  0  0  0  0  0  0
  -26.5278  -29.4690   21.3253 C   0  0  0  0  0  0  0  0  0  0  0  0
  -28.0246  -22.8253   19.8207 C   0  0  0  0  0  0  0  0  0  0  0  0
  -26.8087  -20.5828   19.8393 C   0  0  0  0  0  0  0  0  0  0  0  0
  -15.1414  -17.3463   16.6204 C   0  0  0  0  0  0  0  0  0  0  0  0
  -17.8957  -16.9501   22.6561 C   0  0  0  0  0  0  0  0  0  0  0  0
  -16.2703  -17.3152   17.4613 C   0  0  0  0  0  0  0  0  0  0  0  0
  -19.0102  -17.7171   23.0246 C   0  0  0  0  0  0  0  0  0  0  0  0
  -28.1816  -25.5877   19.4646 C   0  0  0  0  0  0  0  0  0  0  0  0
  -20.3042  -15.6785   23.3071 C   0  0  0  0  0  0  0  0  0  0  0  0
  -27.2471  -27.7126   19.8304 C   0  0  0  0  0  0  0  0  0  0  0  0
  -25.2084  -29.2777   20.9151 C   0  0  0  0  0  0  0  0  0  0  0  0
  -27.5472  -28.6864   20.7829 C   0  0  0  0  0  0  0  0  0  0  0  0
  -27.9442  -21.3984   20.0041 C   0  0  0  0  0  0  0  0  0  0  0  0
  -27.2513  -19.3153   20.1293 C   0  0  0  0  0  0  0  0  0  0  0  0
  -25.4732  -20.9390   19.4581 C   0  0  0  0  0  0  0  0  0  0  0  0
  -17.2720  -19.1869   20.4856 C   0  0  0  0  0  0  0  0  0  0  0  0
  -17.3331  -21.1542   23.0640 C   0  0  0  0  0  0  0  0  0  0  0  0
  -18.4237  -21.7259   26.2468 C   0  0  0  0  0  0  0  0  0  0  0  0
  -31.0674  -15.2690   19.6701 C   0  0  0  0  0  0  0  0  0  0  0  0
  -14.4515  -18.6399   16.2662 C   0  0  0  0  0  0  0  0  0  0  0  0
  -16.5859  -17.6156   22.3339 C   0  0  0  0  0  0  0  0  0  0  0  0
  -18.9543  -19.2211   23.0808 C   0  0  0  0  0  0  0  0  0  0  0  0
  -14.7908  -19.7898   17.2111 C   0  0  0  0  0  0  0  0  0  0  0  0
  -31.5949  -17.7346   22.1840 C   0  0  0  0  0  0  0  0  0  0  0  0
  -16.2952  -19.8539   17.4552 C   0  0  0  0  0  0  0  0  0  0  0  0
  -24.9792  -10.7775   20.3489 C   0  0  0  0  0  0  0  0  0  0  0  0
  -30.6033  -18.8423   21.8237 C   0  0  0  0  0  0  0  0  0  0  0  0
  -26.0346  -11.4821   19.4968 C   0  0  0  0  0  0  0  0  0  0  0  0
  -25.5646  -13.6548   20.7012 C   0  0  0  0  0  0  0  0  0  0  0  0
  -32.1863  -17.0794   20.9378 C   0  0  0  0  0  0  0  0  0  0  0  0
  -30.2006  -17.6860   19.6102 C   0  0  0  0  0  0  0  0  0  0  0  0
  -16.8012  -18.5690   18.1218 C   0  0  1  0  0  0  0  0  0  0  0  0
  -16.7463  -19.0657   21.8879 C   0  0  1  0  0  0  0  0  0  0  0  0
  -23.8815  -11.7468   20.8241 C   0  0  2  0  0  0  0  0  0  0  0  0
  -29.5355  -18.3388   20.8340 C   0  0  2  0  0  0  0  0  0  0  0  0
  -26.6362  -12.6675   20.2450 C   0  0  2  0  0  0  0  0  0  0  0  0
  -24.5140  -12.9440   21.5591 C   0  0  2  0  0  0  0  0  0  0  0  0
  -18.3429  -23.4388   28.0790 C   0  0  0  0  0  0  0  0  0  0  0  0
  -22.1970   -9.8858   20.8807 C   0  0  0  0  0  0  0  0  0  0  0  0
  -23.5513  -10.4162   22.9273 C   0  0  0  0  0  0  0  0  0  0  0  0
  -19.3756  -22.8527   21.5628 C   0  0  0  0  0  0  0  0  0  0  0  0
  -19.9513  -23.9559   23.7353 C   0  0  0  0  0  0  0  0  0  0  0  0
  -17.6448  -24.1601   22.8076 C   0  0  0  0  0  0  0  0  0  0  0  0
  -17.0741  -19.8519   28.0976 C   0  0  0  0  0  0  0  0  0  0  0  0
  -29.8308  -13.5632   18.3586 C   0  0  0  0  0  0  0  0  0  0  0  0
  -28.9413  -12.7578   19.2872 C   0  0  0  0  0  0  0  0  0  0  0  0
  -23.8065  -14.7920   23.0861 C   0  0  0  0  0  0  0  0  0  0  0  0
  -22.6803  -15.7765   23.3325 C   0  0  0  0  0  0  0  0  0  1  0  0
  -18.3998  -21.9503   23.7763 C   0  0  1  0  0  0  0  0  0  0  0  0
  -17.6940  -22.1947   27.4927 C   0  0  2  0  0  0  0  0  0  0  0  0
  -22.8695  -10.9910   21.6895 C   0  0  0  0  0  0  0  0  0  0  0  0
  -18.8448  -23.2015   22.9676 C   0  0  0  0  0  0  0  0  0  0  0  0
  -29.0268  -20.7072   20.3706 N   0  0  0  0  0  0  0  0  0  0  0  0
  -28.5735  -19.4438   20.4385 N   0  0  0  0  0  0  0  0  0  0  0  0
  -17.6529  -19.8255   22.7510 N   0  0  0  0  0  0  0  0  0  0  0  0
  -31.1214  -16.6226   20.0417 N   0  0  0  0  0  0  0  0  0  0  0  0
  -26.6347  -18.1145   20.1475 N   0  0  0  0  0  0  0  0  0  0  0  0
  -25.1901  -22.2864   19.1960 N   0  0  0  0  0  0  0  0  0  0  0  0
  -16.4816  -18.5722   19.5333 N   0  0  0  0  0  0  0  0  0  0  0  0
  -17.8675  -22.2529   25.1005 N   0  0  0  0  0  0  0  0  0  0  0  0
  -30.0228  -14.9189   18.8233 N   0  0  0  0  0  0  0  0  0  0  0  0
  -27.5881  -13.3715   19.3451 N   0  3  0  0  0  0  0  0  0  0  0  0
  -23.4649  -13.9384   21.9203 N   0  3  0  0  0  0  0  0  0  0  0  0
  -17.7032  -21.1260   28.5313 N   0  3  0  0  0  0  0  0  0  0  0  0
  -24.5542  -20.0899   19.3688 O   0  0  0  0  0  0  0  0  0  0  0  0
  -18.3167  -19.7945   20.2823 O   0  0  0  0  0  0  0  0  0  0  0  0
  -16.2532  -21.6895   22.8015 O   0  0  0  0  0  0  0  0  0  0  0  0
  -19.3927  -20.9710   26.2868 O   0  0  0  0  0  0  0  0  0  0  0  0
  -31.8861  -14.4334   20.0681 O   0  0  0  0  0  0  0  0  0  0  0  0
  -28.2581  -26.9354   19.2904 O   0  0  0  0  0  0  0  0  0  0  0  0
  -21.4776  -15.0641   23.6196 O   0  0  0  0  0  0  0  0  0  1  0  0
  -24.2296  -30.0301   21.4348 F   0  0  0  0  0  0  0  0  0  0  0  0
  -28.8130  -28.8755   21.1801 F   0  0  0  0  0  0  0  0  0  0  0  0
  1  2  1  0  0  0  0
  1  5  2  0  0  0  0
  2  6  2  0  0  0  0
  3  8  2  0  0  0  0
  3 15  1  0  0  0  0
  4  9  1  0  0  0  0
  4 15  2  0  0  0  0
  5 17  1  0  0  0  0
  6 19  1  0  0  0  0
  7 10  2  0  0  0  0
  7 18  1  0  0  0  0
  8 21  1  0  0  0  0
  9 21  2  0  0  0  0
 10 22  1  0  0  0  0
 11 12  2  0  0  0  0
 11 23  1  0  0  0  0
 12 24  1  0  0  0  0
 13 20  1  0  0  0  0
 13 22  2  0  0  0  0
 14 24  2  0  0  0  0
 14 25  1  0  0  0  0
 15 26  1  0  0  0  0
 16 26  1  0  0  0  0
 16 27  2  0  0  0  0
 16 28  1  0  0  0  0
 17 19  2  0  0  0  0
 17 33  1  0  0  0  0
 18 20  2  0  0  0  0
 18 34  1  0  0  0  0
 19 45  1  0  0  0  0
 20 35  1  0  0  0  0
 21 83  1  0  0  0  0
 22 84  1  0  0  0  0
 23 25  2  0  0  0  0
 23 83  1  0  0  0  0
 24 85  1  0  0  0  0
 25 86  1  0  0  0  0
 26 66  2  0  0  0  0
 27 67  1  0  0  0  0
 27 70  1  0  0  0  0
 28 71  1  0  0  0  0
 28 78  2  0  0  0  0
 29 46  1  0  0  0  0
 29 72  1  0  0  0  0
 29 79  2  0  0  0  0
 30 62  1  0  0  0  0
 30 68  1  0  0  0  0
 30 80  2  0  0  0  0
 31 63  1  0  0  0  0
 31 73  1  0  0  0  0
 31 81  2  0  0  0  0
 32 69  1  0  0  0  0
 32 74  1  0  0  0  0
 32 82  2  0  0  0  0
 33 36  1  0  0  0  0
 34 46  1  0  0  0  0
 35 68  1  0  0  0  0
 36 38  1  0  0  0  0
 37 40  1  0  0  0  0
 37 43  1  0  0  0  0
 38 45  1  0  0  0  0
 39 41  1  0  0  0  0
 39 47  1  0  0  0  0
 40 48  1  0  0  0  0
 41 49  1  0  0  0  0
 42 49  1  0  0  0  0
 42 50  1  0  0  0  0
 43 69  1  0  0  0  0
 44 48  1  0  0  0  0
 44 69  1  0  0  0  0
 45 72  1  0  0  0  0
 46 68  1  0  0  0  0
 47 50  1  0  0  0  0
 47 64  1  0  0  0  0
 48 67  1  0  0  0  0
 49 75  1  0  0  0  0
 50 76  1  0  0  0  0
 51 63  1  0  0  0  0
 52 64  1  0  0  0  0
 53 64  1  0  0  0  0
 54 65  1  0  0  0  0
 55 65  1  0  0  0  0
 56 65  1  0  0  0  0
 57 77  1  0  0  0  0
 58 59  1  0  0  0  0
 58 74  1  0  0  0  0
 59 75  1  0  0  0  0
 60 61  1  0  0  0  0
 60 76  1  0  0  0  0
 61 84  1  0  0  0  0
 62 65  1  0  0  0  0
 62 73  1  0  0  0  0
 63 77  1  0  0  0  0
 66 67  1  0  0  0  0
M  CHG  3  75   1  76   1  77   1
M  ISO  4  32 100  61 101  74 100  84 101
M  END
> <Batch ID>
0129

> <Smiles>
CNC(C)C(=O)NC(C(=O)N1Cc2cc([101O:1][101CH2:1]CNC3CC(NCC[100NH:0][100C:0](=O)N4CCCC(n5nc(-c6ccc(Oc7ccc(F)cc7F)cc6)c(C(N)=O)c5N)C4)CCC3C(C)C)ccc2CC1C(=O)NC1CCCc2ccccc21)C(C)(C)C

> <Shape>
0.186

> <Color>
0.071

> <Negative vol penalty>
0.000

$$$$

  -OEChem-04052320453D

 85 93  0     1  0  0  0  0  0999 V2000
  -30.3805  -35.1037   19.7350 C   0  0  0  0  0  0  0  0  0  0  0  0
  -30.4393  -33.7160   19.6548 C   0  0  0  0  0  0  0  0  0  0  0  0
  -22.4777  -10.0214   21.4112 C   0  0  0  0  0  0  0  0  0  0  0  0
  -24.8759  -10.0498   21.7022 C   0  0  0  0  0  0  0  0  0  0  0  0
  -29.4933  -35.7126   20.6216 C   0  0  0  0  0  0  0  0  0  0  0  0
  -29.6116  -32.9364   20.4620 C   0  0  0  0  0  0  0  0  0  0  0  0
  -27.0520  -27.5657   19.0097 C   0  0  0  0  0  0  0  0  0  0  0  0
  -27.3118  -21.3769   20.2805 C   0  0  0  0  0  0  0  0  0  0  0  0
  -27.5241  -20.0636   20.6996 C   0  0  0  0  0  0  0  0  0  0  0  0
  -22.4825   -8.6298   21.5071 C   0  0  0  0  0  0  0  0  0  0  0  0
  -24.8808   -8.6582   21.7982 C   0  0  0  0  0  0  0  0  0  0  0  0
  -27.4110  -26.2485   19.2925 C   0  0  0  0  0  0  0  0  0  0  0  0
  -22.6646   -6.3021   23.9528 C   0  0  0  0  0  0  0  0  0  0  0  0
  -21.6957   -5.7045   24.7587 C   0  0  0  0  0  0  0  0  0  0  0  0
  -25.9060  -26.2495   21.1778 C   0  0  0  0  0  0  0  0  0  0  0  0
  -29.6514  -21.8671   20.6313 C   0  0  0  0  0  0  0  0  0  0  0  0
  -20.8495   -4.4963   22.8453 C   0  0  0  0  0  0  0  0  0  0  0  0
  -23.6744  -10.7314   21.5087 C   0  0  0  0  0  0  0  0  0  0  0  0
  -23.5317  -13.0934   22.4617 C   0  0  0  0  0  0  0  0  0  0  0  0
  -28.6474  -34.9401   21.4330 C   0  0  0  0  0  0  0  0  0  0  0  0
  -26.1239  -28.2394   19.8166 C   0  0  0  0  0  0  0  0  0  0  0  0
  -28.7132  -33.5355   21.3612 C   0  0  0  0  0  0  0  0  0  0  0  0
  -25.5350  -27.5743   20.9015 C   0  0  0  0  0  0  0  0  0  0  0  0
  -28.3755  -22.2787   20.2463 C   0  0  0  0  0  0  0  0  0  0  0  0
  -28.8000  -19.6520   21.0846 C   0  0  0  0  0  0  0  0  0  0  0  0
  -29.8637  -20.5538   21.0505 C   0  0  0  0  0  0  0  0  0  0  0  0
  -23.6840   -7.9483   21.7006 C   0  0  0  0  0  0  0  0  0  0  0  0
  -26.8402  -25.5912   20.3784 C   0  0  0  0  0  0  0  0  0  0  0  0
  -22.7260   -5.9969   22.5931 C   0  0  0  0  0  0  0  0  0  0  0  0
  -20.7881   -4.8016   24.2050 C   0  0  0  0  0  0  0  0  0  0  0  0
  -21.8184   -5.0939   22.0394 C   0  0  0  0  0  0  0  0  0  0  0  0
  -23.6702  -12.1688   21.4092 C   0  0  0  0  0  0  0  0  0  0  0  0
  -23.5922  -14.3216   21.8499 C   0  0  0  0  0  0  0  0  0  0  0  0
  -23.3634  -12.8627   23.8667 C   0  0  0  0  0  0  0  0  0  0  0  0
  -26.2149  -30.8292   21.6573 C   0  0  0  0  0  0  0  0  0  0  0  0
  -23.0290  -30.2784   21.9195 C   0  0  0  0  0  0  0  0  0  0  0  0
  -20.4516  -28.0472   21.7582 C   0  0  0  0  0  0  0  0  0  0  0  0
  -26.0551  -16.2092   16.7291 C   0  0  0  0  0  0  0  0  0  0  0  0
  -27.7383  -35.6428   22.4101 C   0  0  0  0  0  0  0  0  0  0  0  0
  -25.7272  -29.6512   19.4823 C   0  0  0  0  0  0  0  0  0  0  0  0
  -24.5184  -28.2463   21.7867 C   0  0  0  0  0  0  0  0  0  0  0  0
  -26.6296  -34.7498   22.9609 C   0  0  0  0  0  0  0  0  0  0  0  0
  -22.6378  -16.4839   17.6900 C   0  0  0  0  0  0  0  0  0  0  0  0
  -27.1955  -33.4005   23.3920 C   0  0  0  0  0  0  0  0  0  0  0  0
  -22.5024  -15.4926   18.8471 C   0  0  0  0  0  0  0  0  0  0  0  0
  -23.5922  -15.9693   16.6147 C   0  0  0  0  0  0  0  0  0  0  0  0
  -24.7902  -14.5844   18.2642 C   0  0  0  0  0  0  0  0  0  0  0  0
  -27.8138  -32.6560   22.2025 C   0  0  1  0  0  0  0  0  0  0  0  0
  -25.1566  -30.4102   20.6764 C   0  0  1  0  0  0  0  0  0  0  0  0
  -23.8811  -15.0843   19.3999 C   0  0  2  0  0  0  0  0  0  0  0  0
  -17.9656  -27.8841   22.0590 C   0  0  0  0  0  0  0  0  0  0  0  0
  -29.1139  -15.5629   15.8063 C   0  0  0  0  0  0  0  0  0  0  0  0
  -23.3934  -30.3464   24.9481 C   0  0  0  0  0  0  0  0  0  0  0  0
  -21.1495  -29.2590   25.1726 C   0  0  0  0  0  0  0  0  0  0  0  0
  -21.3421  -31.5113   24.1178 C   0  0  0  0  0  0  0  0  0  0  0  0
  -20.0494  -27.2147   18.9468 C   0  0  0  0  0  0  0  0  0  0  0  0
  -28.9984  -18.2399   21.5310 C   0  0  0  0  0  0  0  0  0  0  0  0
  -28.1466  -23.6913   19.7953 C   0  0  0  0  0  0  0  0  0  1  0  0
  -29.6816  -17.3482   20.4948 C   0  0  0  0  0  0  0  0  0  0  0  0
  -29.4538  -16.4402   18.1791 C   0  0  0  0  0  0  0  0  0  0  0  0
  -22.1559  -29.4777   22.8553 C   0  0  1  0  0  0  0  0  0  0  0  0
  -19.0991  -28.1184   21.0726 C   0  0  2  0  0  0  0  0  0  0  0  0
  -28.5210  -16.3484   16.9721 C   0  0  2  0  0  0  0  0  0  0  0  0
  -22.0308  -30.1363   24.2581 C   0  0  0  0  0  0  0  0  0  0  0  0
  -23.8081  -12.7591   20.2190 N   0  0  0  0  0  0  0  0  0  0  0  0
  -23.7565  -14.0679   20.5199 N   0  0  0  0  0  0  0  0  0  0  0  0
  -24.1680  -29.6291   21.4226 N   0  0  0  0  0  0  0  0  0  0  0  0
  -24.8816  -15.6009   17.2044 N   0  0  0  0  0  0  0  0  0  0  0  0
  -31.1616  -20.1550   21.4384 N   0  0  0  0  0  0  0  0  0  0  0  0
  -23.5203  -15.5831   22.3252 N   0  0  0  0  0  0  0  0  0  0  0  0
  -23.3226  -11.5392   24.3263 N   0  0  0  0  0  0  0  0  0  0  0  0
  -26.7783  -32.0613   21.3849 N   0  0  0  0  0  0  0  0  0  0  0  0
  -20.8832  -29.2914   22.1669 N   0  0  0  0  0  0  0  0  0  0  0  0
  -27.2333  -15.8079   17.3468 N   0  0  0  0  0  0  0  0  0  0  0  0
  -19.0079  -27.0892   19.9987 N   0  3  0  0  0  0  0  0  0  0  0  0
  -28.8455  -17.2448   19.2734 N   0  3  0  0  0  0  0  0  0  0  0  0
  -23.2361  -13.8020   24.6882 O   0  0  0  0  0  0  0  0  0  0  0  0
  -26.4983  -30.0902   22.5928 O   0  0  0  0  0  0  0  0  0  0  0  0
  -22.7082  -31.4348   21.6341 O   0  0  0  0  0  0  0  0  0  0  0  0
  -21.0624  -26.9928   21.9187 O   0  0  0  0  0  0  0  0  0  0  0  0
  -26.0525  -17.0518   15.8252 O   0  0  0  0  0  0  0  0  0  0  0  0
  -23.6891   -6.5904   21.7945 O   0  0  0  0  0  0  0  0  0  0  0  0
  -27.1893  -24.3057   20.6570 O   0  0  0  0  0  0  0  0  0  1  0  0
  -19.8586   -4.2266   24.9794 F   0  0  0  0  0  0  0  0  0  0  0  0
  -21.8732   -4.7958   20.7340 F   0  0  0  0  0  0  0  0  0  0  0  0
  1  2  1  0  0  0  0
  1  5  2  0  0  0  0
  2  6  2  0  0  0  0
  3 10  2  0  0  0  0
  3 18  1  0  0  0  0
  4 11  1  0  0  0  0
  4 18  2  0  0  0  0
  5 20  1  0  0  0  0
  6 22  1  0  0  0  0
  7 12  2  0  0  0  0
  7 21  1  0  0  0  0
  8  9  2  0  0  0  0
  8 24  1  0  0  0  0
  9 25  1  0  0  0  0
 10 27  1  0  0  0  0
 11 27  2  0  0  0  0
 12 28  1  0  0  0  0
 13 14  2  0  0  0  0
 13 29  1  0  0  0  0
 14 30  1  0  0  0  0
 15 23  1  0  0  0  0
 15 28  2  0  0  0  0
 16 24  2  0  0  0  0
 16 26  1  0  0  0  0
 17 30  2  0  0  0  0
 17 31  1  0  0  0  0
 18 32  1  0  0  0  0
 19 32  1  0  0  0  0
 19 33  2  0  0  0  0
 19 34  1  0  0  0  0
 20 22  2  0  0  0  0
 20 39  1  0  0  0  0
 21 23  2  0  0  0  0
 21 40  1  0  0  0  0
 22 48  1  0  0  0  0
 23 41  1  0  0  0  0
 24 58  1  0  0  0  0
 25 26  2  0  0  0  0
 25 57  1  0  0  0  0
 26 69  1  0  0  0  0
 27 82  1  0  0  0  0
 28 83  1  0  0  0  0
 29 31  2  0  0  0  0
 29 82  1  0  0  0  0
 30 84  1  0  0  0  0
 31 85  1  0  0  0  0
 32 65  2  0  0  0  0
 33 66  1  0  0  0  0
 33 70  1  0  0  0  0
 34 71  1  0  0  0  0
 34 77  2  0  0  0  0
 35 49  1  0  0  0  0
 35 72  1  0  0  0  0
 35 78  2  0  0  0  0
 36 61  1  0  0  0  0
 36 67  1  0  0  0  0
 36 79  2  0  0  0  0
 37 62  1  0  0  0  0
 37 73  1  0  0  0  0
 37 80  2  0  0  0  0
 38 68  1  0  0  0  0
 38 74  1  0  0  0  0
 38 81  2  0  0  0  0
 39 42  1  0  0  0  0
 40 49  1  0  0  0  0
 41 67  1  0  0  0  0
 42 44  1  0  0  0  0
 43 45  1  0  0  0  0
 43 46  1  0  0  0  0
 44 48  1  0  0  0  0
 45 50  1  0  0  0  0
 46 68  1  0  0  0  0
 47 50  1  0  0  0  0
 47 68  1  0  0  0  0
 48 72  1  0  0  0  0
 49 67  1  0  0  0  0
 50 66  1  0  0  0  0
 51 62  1  0  0  0  0
 52 63  1  0  0  0  0
 53 64  1  0  0  0  0
 54 64  1  0  0  0  0
 55 64  1  0  0  0  0
 56 75  1  0  0  0  0
 57 59  1  0  0  0  0
 58 83  1  0  0  0  0
 59 76  1  0  0  0  0
 60 63  1  0  0  0  0
 60 76  1  0  0  0  0
 61 64  1  0  0  0  0
 61 73  1  0  0  0  0
 62 75  1  0  0  0  0
 63 74  1  0  0  0  0
 65 66  1  0  0  0  0
M  CHG  2  75   1  76   1
M  ISO  4  38 100  58 101  74 100  83 101
M  END
> <Batch ID>
0129

> <Smiles>
CNC(C)C(=O)NC(C(=O)N1Cc2cc([101O:1][101CH2:1]c3ccc(CCNCC(C)[100NH:0][100C:0](=O)N4CCCC(n5nc(-c6ccc(Oc7ccc(F)cc7F)cc6)c(C(N)=O)c5N)C4)c(N)c3)ccc2CC1C(=O)NC1CCCc2ccccc21)C(C)(C)C

> <Shape>
0.274

> <Color>
0.052

> <Negative vol penalty>
0.000

$$$$

  -OEChem-04052320453D

 90 99  0     1  0  0  0  0  0999 V2000
  -30.3468  -24.2512    9.9034 C   0  0  0  0  0  0  0  0  0  0  0  0
  -30.7014  -25.2738   10.7775 C   0  0  0  0  0  0  0  0  0  0  0  0
  -22.6459  -10.2233   20.2470 C   0  0  0  0  0  0  0  0  0  0  0  0
  -24.2527   -9.5337   21.9142 C   0  0  0  0  0  0  0  0  0  0  0  0
  -29.2369  -23.4537   10.1790 C   0  0  0  0  0  0  0  0  0  0  0  0
  -29.9456  -25.5001   11.9273 C   0  0  0  0  0  0  0  0  0  0  0  0
  -32.9527  -25.1770   18.4651 C   0  0  0  0  0  0  0  0  0  0  0  0
  -30.2604  -18.9136   23.1828 C   0  0  0  0  0  0  0  0  0  0  0  0
  -21.8980   -9.0716   20.4914 C   0  0  0  0  0  0  0  0  0  0  0  0
  -23.5048   -8.3820   22.1587 C   0  0  0  0  0  0  0  0  0  0  0  0
  -33.4991  -25.3409   19.7382 C   0  0  0  0  0  0  0  0  0  0  0  0
  -19.3762   -6.4907   20.9324 C   0  0  0  0  0  0  0  0  0  0  0  0
  -17.9937   -6.6291   21.0551 C   0  0  0  0  0  0  0  0  0  0  0  0
  -29.7803  -17.6837   22.7468 C   0  0  0  0  0  0  0  0  0  0  0  0
  -31.2934  -25.7418   20.6449 C   0  0  0  0  0  0  0  0  0  0  0  0
  -18.3093   -8.1164   22.9327 C   0  0  0  0  0  0  0  0  0  0  0  0
  -23.8233  -10.4543   20.9583 C   0  0  0  0  0  0  0  0  0  0  0  0
  -24.1750  -12.9787   20.8518 C   0  0  0  0  0  0  0  0  0  0  0  0
  -28.4727  -23.6641   11.3377 C   0  0  0  0  0  0  0  0  0  0  0  0
  -31.5713  -25.2798   18.2796 C   0  0  0  0  0  0  0  0  0  0  0  0
  -28.8236  -24.7055   12.2180 C   0  0  0  0  0  0  0  0  0  0  0  0
  -30.7391  -25.5663   19.3742 C   0  0  0  0  0  0  0  0  0  0  0  0
  -31.5242  -19.3394   22.7894 C   0  0  0  0  0  0  0  0  0  0  0  0
  -22.3274   -8.1510   21.4473 C   0  0  0  0  0  0  0  0  0  0  0  0
  -32.6714  -25.6229   20.8253 C   0  0  0  0  0  0  0  0  0  0  0  0
  -20.2253   -7.1650   21.8099 C   0  0  0  0  0  0  0  0  0  0  0  0
  -17.4602   -7.4420   22.0552 C   0  0  0  0  0  0  0  0  0  0  0  0
  -19.6918   -7.9779   22.8100 C   0  0  0  0  0  0  0  0  0  0  0  0
  -24.5967  -11.6436   20.7058 C   0  0  0  0  0  0  0  0  0  0  0  0
  -32.2625  -18.5049   21.9657 C   0  0  0  0  0  0  0  0  0  0  0  0
  -30.5965  -16.9234   21.9249 C   0  0  0  0  0  0  0  0  0  0  0  0
  -25.2695  -13.7259   20.4907 C   0  0  0  0  0  0  0  0  0  0  0  0
  -22.9073  -13.4972   21.2759 C   0  0  0  0  0  0  0  0  0  0  0  0
  -28.6859  -25.1227   15.8867 C   0  0  0  0  0  0  0  0  0  0  0  0
  -27.7753  -23.7457   18.4723 C   0  0  0  0  0  0  0  0  0  0  0  0
  -26.2842  -21.7674   20.8175 C   0  0  0  0  0  0  0  0  0  0  0  0
  -30.7401  -14.7488   20.6613 C   0  0  0  0  0  0  0  0  0  0  0  0
  -27.2537  -22.8067   11.5690 C   0  0  0  0  0  0  0  0  0  0  0  0
  -30.9455  -25.1717   16.9156 C   0  0  0  0  0  0  0  0  0  0  0  0
  -29.2624  -25.7022   19.1213 C   0  0  0  0  0  0  0  0  0  0  0  0
  -26.7264  -22.8712   13.0001 C   0  0  0  0  0  0  0  0  0  0  0  0
  -29.6118  -12.3527   18.2816 C   0  0  0  0  0  0  0  0  0  0  0  0
  -37.0571  -22.2001   23.2875 C   0  0  0  0  0  0  0  0  0  0  0  0
  -26.6535  -24.3181   13.4775 C   0  0  0  0  0  0  0  0  0  0  0  0
  -28.1718  -12.0645   18.7121 C   0  0  0  0  0  0  0  0  0  0  0  0
  -35.8485  -21.3268   23.6066 C   0  0  0  0  0  0  0  0  0  0  0  0
  -30.5300  -12.5711   19.4828 C   0  0  0  0  0  0  0  0  0  0  0  0
  -36.5135  -23.6166   23.2076 C   0  0  0  0  0  0  0  0  0  0  0  0
  -28.6284  -13.2954   20.8716 C   0  0  0  0  0  0  0  0  0  0  0  0
  -28.0433  -24.9662   13.4881 C   0  0  1  0  0  0  0  0  0  0  0  0
  -29.5586  -24.5044   16.9391 C   0  0  1  0  0  0  0  0  0  0  0  0
  -27.6528  -13.1326   19.6946 C   0  0  2  0  0  0  0  0  0  0  0  0
  -34.6682  -22.2945   23.7192 C   0  0  1  0  0  0  0  0  0  0  0  0
  -33.6269  -18.9109   21.5131 C   0  0  0  0  0  0  0  0  0  0  0  0
  -24.0249  -21.0639   21.6528 C   0  0  0  0  0  0  0  0  0  0  0  0
  -34.2976  -21.6403   26.1294 C   0  0  0  0  0  0  0  0  0  0  0  0
  -34.9868  -25.9174   24.6553 C   0  0  0  0  0  0  0  0  0  0  0  0
  -27.4552  -26.4405   19.8651 C   0  0  0  0  0  0  0  0  0  0  0  0
  -25.7686  -25.3774   21.3795 C   0  0  0  0  0  0  0  0  0  0  0  0
  -25.3399  -25.4939   18.9249 C   0  0  0  0  0  0  0  0  0  0  0  0
  -26.8049  -18.9249   20.1790 C   0  0  0  0  0  0  0  0  0  0  0  0
  -32.0491  -20.6647   23.2574 C   0  0  0  0  0  0  0  0  0  0  0  0
  -34.4010  -25.0434   22.3519 C   0  0  0  0  0  0  0  0  0  1  0  0
  -27.0821  -23.8864   19.8039 C   0  0  1  0  0  0  0  0  0  0  0  0
  -25.1724  -20.7395   20.7091 C   0  0  2  0  0  0  0  0  0  0  0  0
  -33.6595  -21.8364   24.7648 C   0  0  2  0  0  0  0  0  0  0  0  0
  -34.4663  -24.7285   23.8470 C   0  0  1  0  0  0  0  0  0  0  0  0
  -26.4378  -25.2890   19.9913 C   0  0  0  0  0  0  0  0  0  0  0  0
  -25.8604  -11.5451   20.2847 N   0  0  0  0  0  0  0  0  0  0  0  0
  -31.8296  -17.3036   21.5217 N   0  0  0  0  0  0  0  0  0  0  0  0
  -26.2422  -12.8278   20.1629 N   0  0  0  0  0  0  0  0  0  0  0  0
  -28.8113  -24.6474   18.2001 N   0  0  0  0  0  0  0  0  0  0  0  0
  -29.9767  -13.5992   20.3670 N   0  0  0  0  0  0  0  0  0  0  0  0
  -35.3215  -23.5666   24.0577 N   0  0  2  0  0  0  0  0  0  0  0  0
  -25.4851  -15.0569   20.4248 N   0  0  0  0  0  0  0  0  0  0  0  0
  -21.8924  -12.5902   21.6100 N   0  0  0  0  0  0  0  0  0  0  0  0
  -30.0979  -15.6718   21.4860 N   0  0  0  0  0  0  0  0  0  0  0  0
  -28.7962  -24.5286   14.6440 N   0  0  0  0  0  0  0  0  0  0  0  0
  -26.1373  -22.7783   19.8913 N   0  0  0  0  0  0  0  0  0  0  0  0
  -25.6876  -19.3820   21.0449 N   0  3  0  0  0  0  0  0  0  0  0  0
  -33.0803  -20.5401   24.3210 N   0  3  0  0  0  0  0  0  0  0  0  0
  -22.6761  -14.7285   21.3406 O   0  0  0  0  0  0  0  0  0  0  0  0
  -27.9638  -26.0685   16.1797 O   0  0  0  0  0  0  0  0  0  0  0  0
  -27.4064  -22.8649   17.6904 O   0  0  0  0  0  0  0  0  0  0  0  0
  -27.1902  -21.6841   21.6439 O   0  0  0  0  0  0  0  0  0  0  0  0
  -31.8690  -14.9156   20.1926 O   0  0  0  0  0  0  0  0  0  0  0  0
  -21.5976   -7.0271   21.6862 O   0  0  0  0  0  0  0  0  0  0  0  0
  -33.2109  -25.7772   22.0663 O   0  0  0  0  0  0  0  0  0  1  0  0
  -16.1326   -7.5761   22.1720 F   0  0  0  0  0  0  0  0  0  0  0  0
  -20.5026   -8.6292   23.6552 F   0  0  0  0  0  0  0  0  0  0  0  0
  1  2  1  0  0  0  0
  1  5  2  0  0  0  0
  2  6  2  0  0  0  0
  3  9  2  0  0  0  0
  3 17  1  0  0  0  0
  4 10  1  0  0  0  0
  4 17  2  0  0  0  0
  5 19  1  0  0  0  0
  6 21  1  0  0  0  0
  7 11  2  0  0  0  0
  7 20  1  0  0  0  0
  8 14  2  0  0  0  0
  8 23  1  0  0  0  0
  9 24  1  0  0  0  0
 10 24  2  0  0  0  0
 11 25  1  0  0  0  0
 12 13  2  0  0  0  0
 12 26  1  0  0  0  0
 13 27  1  0  0  0  0
 14 31  1  0  0  0  0
 15 22  1  0  0  0  0
 15 25  2  0  0  0  0
 16 27  2  0  0  0  0
 16 28  1  0  0  0  0
 17 29  1  0  0  0  0
 18 29  1  0  0  0  0
 18 32  2  0  0  0  0
 18 33  1  0  0  0  0
 19 21  2  0  0  0  0
 19 38  1  0  0  0  0
 20 22  2  0  0  0  0
 20 39  1  0  0  0  0
 21 50  1  0  0  0  0
 22 40  1  0  0  0  0
 23 30  2  0  0  0  0
 23 62  1  0  0  0  0
 24 87  1  0  0  0  0
 25 88  1  0  0  0  0
 26 28  2  0  0  0  0
 26 87  1  0  0  0  0
 27 89  1  0  0  0  0
 28 90  1  0  0  0  0
 29 69  2  0  0  0  0
 30 54  1  0  0  0  0
 30 70  1  0  0  0  0
 31 70  2  0  0  0  0
 31 77  1  0  0  0  0
 32 71  1  0  0  0  0
 32 75  1  0  0  0  0
 33 76  1  0  0  0  0
 33 82  2  0  0  0  0
 34 51  1  0  0  0  0
 34 78  1  0  0  0  0
 34 83  2  0  0  0  0
 35 64  1  0  0  0  0
 35 72  1  0  0  0  0
 35 84  2  0  0  0  0
 36 65  1  0  0  0  0
 36 79  1  0  0  0  0
 36 85  2  0  0  0  0
 37 73  1  0  0  0  0
 37 77  1  0  0  0  0
 37 86  2  0  0  0  0
 38 41  1  0  0  0  0
 39 51  1  0  0  0  0
 40 72  1  0  0  0  0
 41 44  1  0  0  0  0
 42 45  1  0  0  0  0
 42 47  1  0  0  0  0
 43 46  1  0  0  0  0
 43 48  1  0  0  0  0
 44 50  1  0  0  0  0
 45 52  1  0  0  0  0
 46 53  1  0  0  0  0
 47 73  1  0  0  0  0
 48 74  1  0  0  0  0
 49 52  1  0  0  0  0
 49 73  1  0  0  0  0
 50 78  1  0  0  0  0
 51 72  1  0  0  0  0
 52 71  1  0  0  0  0
 53 66  1  0  0  0  0
 53 74  1  0  0  0  0
 55 65  1  0  0  0  0
 56 66  1  0  0  0  0
 57 67  1  0  0  0  0
 58 68  1  0  0  0  0
 59 68  1  0  0  0  0
 60 68  1  0  0  0  0
 61 80  1  0  0  0  0
 62 81  1  0  0  0  0
 63 67  1  0  0  0  0
 63 88  1  0  0  0  0
 64 68  1  0  0  0  0
 64 79  1  0  0  0  0
 65 80  1  0  0  0  0
 66 81  1  0  0  0  0
 67 74  1  0  0  0  0
 69 71  1  0  0  0  0
M  CHG  2  80   1  81   1
M  ISO  4  37 100  63 101  77 100  88 101
M  END
> <Batch ID>
0129

> <Smiles>
CNC(C)C(=O)NC(C(=O)N1Cc2cc([101O:1][101CH2:1]C(C)N3CCCC3C(C)NCc3ccc([100NH:0][100C:0](=O)N4CCCC(n5nc(-c6ccc(Oc7ccc(F)cc7F)cc6)c(C(N)=O)c5N)C4)nc3C)ccc2CC1C(=O)NC1CCCc2ccccc21)C(C)(C)C

> <Shape>
0.211

> <Color>
0.181

> <Negative vol penalty>
0.000

$$$$

  -OEChem-04052320453D

 87 97  0     1  0  0  0  0  0999 V2000
  -16.4823  -28.9160   23.4943 C   0  0  0  0  0  0  0  0  0  0  0  0
  -17.4065  -28.0406   22.9331 C   0  0  0  0  0  0  0  0  0  0  0  0
  -26.0604  -11.8877   19.5228 C   0  0  0  0  0  0  0  0  0  0  0  0
  -26.1595  -13.0902   21.6159 C   0  0  0  0  0  0  0  0  0  0  0  0
  -16.9026  -30.1519   23.9840 C   0  0  0  0  0  0  0  0  0  0  0  0
  -18.7516  -28.4012   22.8603 C   0  0  0  0  0  0  0  0  0  0  0  0
  -23.5926  -24.6896   23.4032 C   0  0  0  0  0  0  0  0  0  0  0  0
  -24.8350  -11.3368   19.8973 C   0  0  0  0  0  0  0  0  0  0  0  0
  -24.9340  -12.5393   21.9904 C   0  0  0  0  0  0  0  0  0  0  0  0
  -24.4172  -24.0794   22.4591 C   0  0  0  0  0  0  0  0  0  0  0  0
  -23.7317   -8.8448   21.8967 C   0  0  0  0  0  0  0  0  0  0  0  0
  -23.5432   -7.4795   21.6824 C   0  0  0  0  0  0  0  0  0  0  0  0
  -26.0032  -25.8826   22.6878 C   0  0  0  0  0  0  0  0  0  0  0  0
  -21.6652   -7.9648   20.2421 C   0  0  0  0  0  0  0  0  0  0  0  0
  -26.7228  -12.7644   20.3821 C   0  0  0  0  0  0  0  0  0  0  0  0
  -29.1754  -12.6394   19.6917 C   0  0  0  0  0  0  0  0  0  0  0  0
  -18.2550  -30.5238   23.9258 C   0  0  0  0  0  0  0  0  0  0  0  0
  -23.9626  -25.9085   23.9896 C   0  0  0  0  0  0  0  0  0  0  0  0
  -19.1902  -29.6438   23.3484 C   0  0  0  0  0  0  0  0  0  0  0  0
  -25.1827  -26.5050   23.6410 C   0  0  0  0  0  0  0  0  0  0  0  0
  -24.2717  -11.6626   21.1311 C   0  0  0  0  0  0  0  0  0  0  0  0
  -25.6214  -24.6774   22.0991 C   0  0  0  0  0  0  0  0  0  0  0  0
  -22.8869   -9.7702   21.2837 C   0  0  0  0  0  0  0  0  0  0  0  0
  -22.5100   -7.0395   20.8551 C   0  0  0  0  0  0  0  0  0  0  0  0
  -21.8537   -9.3302   20.4564 C   0  0  0  0  0  0  0  0  0  0  0  0
  -27.9890  -13.3334   19.9961 C   0  0  0  0  0  0  0  0  0  0  0  0
  -30.0818  -13.6256   19.3881 C   0  0  0  0  0  0  0  0  0  0  0  0
  -33.1298  -20.8826   16.7389 C   0  0  0  0  0  0  0  0  0  0  0  0
  -32.6539  -20.8983   17.9860 C   0  0  0  0  0  0  0  0  0  0  0  0
  -34.5587  -21.1918   16.8360 C   0  0  0  0  0  0  0  0  0  0  0  0
  -29.4348  -11.2293   19.6839 C   0  0  0  0  0  0  0  0  0  0  0  0
  -22.7279  -28.8370   24.0457 C   0  0  0  0  0  0  0  0  0  0  0  0
  -25.1315  -29.3886   26.1530 C   0  0  0  0  0  0  0  0  0  0  0  0
  -28.2130  -28.5106   27.3278 C   0  0  0  0  0  0  0  0  0  0  0  0
  -29.6503  -18.9670   17.2683 C   0  0  0  0  0  0  0  0  0  0  0  0
  -18.6544  -31.8898   24.4251 C   0  0  0  0  0  0  0  0  0  0  0  0
  -23.0745  -26.5404   25.0262 C   0  0  0  0  0  0  0  0  0  0  0  0
  -25.6353  -27.8030   24.2563 C   0  0  0  0  0  0  0  0  0  0  0  0
  -32.3464  -20.6144   15.5162 C   0  0  0  0  0  0  0  0  0  0  0  0
  -33.6739  -21.1993   19.0392 C   0  0  0  0  0  0  0  0  0  0  0  0
  -34.9751  -21.4020   18.2647 C   0  0  0  0  0  0  0  0  0  0  0  0
  -20.1566  -32.0408   24.6504 C   0  0  0  0  0  0  0  0  0  0  0  0
  -31.1181  -18.1931   20.3426 C   0  0  0  0  0  0  0  0  0  0  0  0
  -20.9333  -31.4863   23.4604 C   0  0  0  0  0  0  0  0  0  0  0  0
  -28.9692  -21.6597   18.6882 C   0  0  0  0  0  0  0  0  0  0  0  0
  -30.8416  -22.0488   20.3374 C   0  0  0  0  0  0  0  0  0  0  0  0
  -28.2071  -22.8473   19.2733 C   0  0  0  0  0  0  0  0  0  0  0  0
  -30.0793  -23.2363   20.9225 C   0  0  0  0  0  0  0  0  0  0  0  0
  -30.5988  -16.7753   20.5793 C   0  0  0  0  0  0  0  0  0  0  0  0
  -30.8430  -20.6827   15.8136 C   0  0  0  0  0  0  0  0  0  0  0  0
  -30.0387  -19.1097   19.7635 C   0  0  0  0  0  0  0  0  0  0  0  0
  -28.8772  -17.1622   18.7760 C   0  0  0  0  0  0  0  0  0  0  0  0
  -20.6618  -29.9886   23.2739 C   0  0  1  0  0  0  0  0  0  0  0  0
  -31.2210  -20.5955   18.3161 C   0  0  1  0  0  0  0  0  0  0  0  0
  -23.3085  -28.0401   25.1795 C   0  0  1  0  0  0  0  0  0  0  0  0
  -30.4850  -21.8169   18.8636 C   0  0  0  0  0  0  0  0  0  0  0  0
  -28.5636  -23.0790   20.7471 C   0  0  0  0  0  0  0  0  0  0  0  0
  -29.9552  -16.2030   19.3039 C   0  0  2  0  0  0  0  0  0  0  0  0
  -29.9333  -29.1707   29.0314 C   0  0  0  0  0  0  0  0  0  0  0  0
  -25.9585  -31.7458   24.4010 C   0  0  0  0  0  0  0  0  0  0  0  0
  -28.1641  -31.7626   25.5856 C   0  0  0  0  0  0  0  0  0  0  0  0
  -26.0623  -32.1871   26.8604 C   0  0  0  0  0  0  0  0  0  0  0  0
  -28.0319  -25.8923   28.6956 C   0  0  0  0  0  0  0  0  0  0  0  0
  -27.8275  -24.3004   21.2947 C   0  0  0  0  0  0  0  0  0  1  0  0
  -26.5653  -29.8480   26.0431 C   0  0  1  0  0  0  0  0  0  0  0  0
  -28.7280  -28.2907   28.7388 C   0  0  2  0  0  0  0  0  0  0  0  0
  -26.6784  -31.3624   25.7093 C   0  0  0  0  0  0  0  0  0  0  0  0
  -28.1262  -14.6581   19.8953 N   0  0  0  0  0  0  0  0  0  0  0  0
  -29.4096  -14.8045   19.5242 N   0  0  0  0  0  0  0  0  0  0  0  0
  -24.7293  -28.3851   25.2603 N   0  0  0  0  0  0  0  0  0  0  0  0
  -29.4256  -18.5045   18.5732 N   0  0  0  0  0  0  0  0  0  0  0  0
  -30.5080  -20.0723   17.1201 N   0  0  0  0  0  0  0  0  0  0  0  0
  -31.3804  -13.5907   19.0208 N   0  0  0  0  0  0  0  0  0  0  0  0
  -29.8919  -10.6275   20.8643 N   0  0  0  0  0  0  0  0  0  0  0  0
  -21.4129  -29.2148   24.2390 N   0  0  0  0  0  0  0  0  0  0  0  0
  -27.2148  -29.4610   27.2908 N   0  0  0  0  0  0  0  0  0  0  0  0
  -29.1280  -26.8677   28.9283 N   0  3  0  0  0  0  0  0  0  0  0  0
  -35.3055  -21.2642   15.8721 O   0  0  0  0  0  0  0  0  0  0  0  0
  -29.2820  -10.5267   18.6560 O   0  0  0  0  0  0  0  0  0  0  0  0
  -23.4221  -29.0916   23.0685 O   0  0  0  0  0  0  0  0  0  0  0  0
  -24.3974  -29.8962   27.0046 O   0  0  0  0  0  0  0  0  0  0  0  0
  -28.6548  -27.9028   26.3552 O   0  0  0  0  0  0  0  0  0  0  0  0
  -29.1120  -18.4258   16.2944 O   0  0  0  0  0  0  0  0  0  0  0  0
  -23.0758  -11.1254   21.4968 O   0  0  0  0  0  0  0  0  0  0  0  0
  -26.4353  -24.0787   21.1688 O   0  0  0  0  0  0  0  0  0  1  0  0
  -22.3301   -5.7284   20.6482 F   0  0  0  0  0  0  0  0  0  0  0  0
  -21.0396  -10.2144   19.8638 F   0  0  0  0  0  0  0  0  0  0  0  0
  1  2  1  0  0  0  0
  1  5  2  0  0  0  0
  2  6  2  0  0  0  0
  3  8  2  0  0  0  0
  3 15  1  0  0  0  0
  4  9  1  0  0  0  0
  4 15  2  0  0  0  0
  5 17  1  0  0  0  0
  6 19  1  0  0  0  0
  7 10  2  0  0  0  0
  7 18  1  0  0  0  0
  8 21  1  0  0  0  0
  9 21  2  0  0  0  0
 10 22  1  0  0  0  0
 11 12  2  0  0  0  0
 11 23  1  0  0  0  0
 12 24  1  0  0  0  0
 13 20  1  0  0  0  0
 13 22  2  0  0  0  0
 14 24  2  0  0  0  0
 14 25  1  0  0  0  0
 15 26  1  0  0  0  0
 16 26  1  0  0  0  0
 16 27  2  0  0  0  0
 16 31  1  0  0  0  0
 17 19  2  0  0  0  0
 17 36  1  0  0  0  0
 18 20  2  0  0  0  0
 18 37  1  0  0  0  0
 19 53  1  0  0  0  0
 20 38  1  0  0  0  0
 21 84  1  0  0  0  0
 22 85  1  0  0  0  0
 23 25  2  0  0  0  0
 23 84  1  0  0  0  0
 24 86  1  0  0  0  0
 25 87  1  0  0  0  0
 26 68  2  0  0  0  0
 27 69  1  0  0  0  0
 27 73  1  0  0  0  0
 28 29  2  0  0  0  0
 28 30  1  0  0  0  0
 28 39  1  0  0  0  0
 29 40  1  0  0  0  0
 29 54  1  0  0  0  0
 30 41  1  0  0  0  0
 30 78  2  0  0  0  0
 31 74  1  0  0  0  0
 31 79  2  0  0  0  0
 32 55  1  0  0  0  0
 32 75  1  0  0  0  0
 32 80  2  0  0  0  0
 33 65  1  0  0  0  0
 33 70  1  0  0  0  0
 33 81  2  0  0  0  0
 34 66  1  0  0  0  0
 34 76  1  0  0  0  0
 34 82  2  0  0  0  0
 35 71  1  0  0  0  0
 35 72  1  0  0  0  0
 35 83  2  0  0  0  0
 36 42  1  0  0  0  0
 37 55  1  0  0  0  0
 38 70  1  0  0  0  0
 39 50  1  0  0  0  0
 40 41  1  0  0  0  0
 42 44  1  0  0  0  0
 43 49  1  0  0  0  0
 43 51  1  0  0  0  0
 44 53  1  0  0  0  0
 45 47  1  0  0  0  0
 45 56  1  0  0  0  0
 46 48  1  0  0  0  0
 46 56  1  0  0  0  0
 47 57  1  0  0  0  0
 48 57  1  0  0  0  0
 49 58  1  0  0  0  0
 50 72  1  0  0  0  0
 51 71  1  0  0  0  0
 52 58  1  0  0  0  0
 52 71  1  0  0  0  0
 53 75  1  0  0  0  0
 54 56  1  0  0  0  0
 54 72  1  0  0  0  0
 55 70  1  0  0  0  0
 57 64  1  0  0  0  0
 58 69  1  0  0  0  0
 59 66  1  0  0  0  0
 60 67  1  0  0  0  0
 61 67  1  0  0  0  0
 62 67  1  0  0  0  0
 63 77  1  0  0  0  0
 64 85  1  0  0  0  0
 65 67  1  0  0  0  0
 65 76  1  0  0  0  0
 66 77  1  0  0  0  0
 68 69  1  0  0  0  0
M  CHG  1  77   1
M  ISO  4  35 100  64 101  72 100  85 101
M  END
> <Batch ID>
0129

> <Smiles>
CNC(C)C(=O)NC(C(=O)N1Cc2cc([101O:1][101CH2:1]C3CCC(C4C5=C(CC[100N:0]4[100C:0](=O)N4CCCC(n6nc(-c7ccc(Oc8ccc(F)cc8F)cc7)c(C(N)=O)c6N)C4)C(=O)CC5)CC3)ccc2CC1C(=O)NC1CCCc2ccccc21)C(C)(C)C

> <Shape>
0.258

> <Color>
0.084

> <Negative vol penalty>
0.000

$$$$

  -OEChem-04052320453D

 85 93  0     1  0  0  0  0  0999 V2000
  -31.9554  -21.7798   24.4875 C   0  0  0  0  0  0  0  0  0  0  0  0
  -30.6744  -22.2973   24.6505 C   0  0  0  0  0  0  0  0  0  0  0  0
  -29.6842  -27.8018   18.8197 C   0  0  0  0  0  0  0  0  0  0  0  0
  -29.5959  -27.3337   21.1883 C   0  0  0  0  0  0  0  0  0  0  0  0
  -32.2399  -20.9558   23.3994 C   0  0  0  0  0  0  0  0  0  0  0  0
  -29.6773  -21.9920   23.7247 C   0  0  0  0  0  0  0  0  0  0  0  0
  -22.6109  -20.9015   23.2863 C   0  0  0  0  0  0  0  0  0  0  0  0
  -31.0768  -27.7336   18.8581 C   0  0  0  0  0  0  0  0  0  0  0  0
  -30.9885  -27.2654   21.2267 C   0  0  0  0  0  0  0  0  0  0  0  0
  -21.4969  -21.3334   22.5677 C   0  0  0  0  0  0  0  0  0  0  0  0
  -34.5051  -26.6109   21.8777 C   0  0  0  0  0  0  0  0  0  0  0  0
  -35.0842  -25.5554   22.5819 C   0  0  0  0  0  0  0  0  0  0  0  0
  -22.0832  -19.8353   20.7701 C   0  0  0  0  0  0  0  0  0  0  0  0
  -33.9764  -23.9767   21.1267 C   0  0  0  0  0  0  0  0  0  0  0  0
  -28.9437  -27.6019   19.9848 C   0  0  0  0  0  0  0  0  0  0  0  0
  -26.6081  -26.6152   19.7037 C   0  0  0  0  0  0  0  0  0  0  0  0
  -31.2433  -20.6324   22.4651 C   0  0  0  0  0  0  0  0  0  0  0  0
  -23.4769  -19.9396   22.7467 C   0  0  0  0  0  0  0  0  0  0  0  0
  -29.9491  -21.1640   22.6223 C   0  0  0  0  0  0  0  0  0  0  0  0
  -23.2060  -19.3910   21.4850 C   0  0  0  0  0  0  0  0  0  0  0  0
  -31.7290  -27.4654   20.0616 C   0  0  0  0  0  0  0  0  0  0  0  0
  -21.2346  -20.8024   21.3082 C   0  0  0  0  0  0  0  0  0  0  0  0
  -33.6615  -26.3494   20.7980 C   0  0  0  0  0  0  0  0  0  0  0  0
  -34.8199  -24.2383   22.2064 C   0  0  0  0  0  0  0  0  0  0  0  0
  -33.3972  -25.0323   20.4225 C   0  0  0  0  0  0  0  0  0  0  0  0
  -27.5051  -27.6728   19.9459 C   0  0  0  0  0  0  0  0  0  0  0  0
  -25.3654  -27.1962   19.7730 C   0  0  0  0  0  0  0  0  0  0  0  0
  -26.8743  -25.2313   19.4396 C   0  0  0  0  0  0  0  0  0  0  0  0
  -26.5492  -19.8920   21.9329 C   0  0  0  0  0  0  0  0  0  0  0  0
  -25.9642  -16.7420   21.4252 C   0  0  0  0  0  0  0  0  0  0  0  0
  -23.6905  -14.2914   20.7385 C   0  0  0  0  0  0  0  0  0  0  0  0
  -21.7255  -30.6193   22.2586 C   0  0  0  0  0  0  0  0  0  0  0  0
  -31.6105  -19.7760   21.2791 C   0  0  0  0  0  0  0  0  0  0  0  0
  -24.6593  -19.4647   23.5459 C   0  0  0  0  0  0  0  0  0  0  0  0
  -24.0934  -18.3410   20.8697 C   0  0  0  0  0  0  0  0  0  0  0  0
  -30.4017  -19.1973   20.5483 C   0  0  0  0  0  0  0  0  0  0  0  0
  -24.0138  -32.0675   19.9471 C   0  0  0  0  0  0  0  0  0  0  0  0
  -29.3483  -20.2768   20.3207 C   0  0  0  0  0  0  0  0  0  0  0  0
  -25.0548  -30.9687   19.7259 C   0  0  0  0  0  0  0  0  0  0  0  0
  -18.9914  -24.7922   17.0659 C   0  0  0  0  0  0  0  0  0  0  0  0
  -19.4576  -22.3079   17.0758 C   0  0  0  0  0  0  0  0  0  0  0  0
  -19.7526  -23.6575   19.1926 C   0  0  0  0  0  0  0  0  0  0  0  0
  -23.5181  -32.0927   21.3913 C   0  0  0  0  0  0  0  0  0  0  0  0
  -24.0526  -29.7035   21.6736 C   0  0  0  0  0  0  0  0  0  0  0  0
  -28.8343  -20.8357   21.6530 C   0  0  1  0  0  0  0  0  0  0  0  0
  -25.7592  -18.8560   22.6815 C   0  0  1  0  0  0  0  0  0  0  0  0
  -18.6046  -23.4314   16.4714 C   0  0  2  0  0  0  0  0  0  0  0  0
  -18.9012  -24.7874   18.5979 C   0  0  1  0  0  0  0  0  0  0  0  0
  -19.3694  -22.2914   18.6079 C   0  0  2  0  0  0  0  0  0  0  0  0
  -24.5413  -29.6024   20.2185 C   0  0  2  0  0  0  0  0  0  0  0  0
  -18.7399  -23.4507   14.9496 C   0  0  0  0  0  0  0  0  0  0  0  0
  -23.5172  -11.8189   20.3458 C   0  0  0  0  0  0  0  0  0  0  0  0
  -19.9499  -29.2290   24.6124 C   0  0  0  0  0  0  0  0  0  0  0  0
  -27.1097  -17.1095   18.6212 C   0  0  0  0  0  0  0  0  0  0  0  0
  -26.0577  -14.9295   17.9812 C   0  0  0  0  0  0  0  0  0  0  0  0
  -27.8030  -14.9949   19.7624 C   0  0  0  0  0  0  0  0  0  0  0  0
  -21.9046  -13.9289   23.0704 C   0  0  0  0  0  0  0  0  0  0  0  0
  -19.3282  -26.1397   19.1666 C   0  0  0  0  0  0  0  0  0  0  0  0
  -20.2483  -21.2003   19.1810 C   0  0  0  0  0  0  0  0  0  1  0  0
  -19.2803  -26.1296   20.6834 C   0  0  0  0  0  0  0  0  0  0  0  0
  -19.5943  -27.6191   22.6636 C   0  0  0  0  0  0  0  0  0  0  0  0
  -25.4997  -15.9168   20.2495 C   0  0  1  0  0  0  0  0  0  0  0  0
  -23.4475  -12.9353   21.3761 C   0  0  2  0  0  0  0  0  0  0  0  0
  -20.0298  -29.0164   23.1037 C   0  0  2  0  0  0  0  0  0  0  0  0
  -26.6017  -15.7589   19.1641 C   0  0  0  0  0  0  0  0  0  0  0  0
  -26.8851  -28.8375   20.1535 N   0  0  0  0  0  0  0  0  0  0  0  0
  -25.5852  -28.5152   20.0418 N   0  0  0  0  0  0  0  0  0  0  0  0
  -25.2407  -17.9139   21.6876 N   0  0  0  0  0  0  0  0  0  0  0  0
  -23.0434  -30.7672   21.7958 N   0  0  0  0  0  0  0  0  0  0  0  0
  -24.1172  -26.7024   19.6296 N   0  0  0  0  0  0  0  0  0  0  0  0
  -28.2081  -24.8025   19.4038 N   0  0  0  0  0  0  0  0  0  0  0  0
  -27.8923  -19.9175   22.2565 N   0  0  0  0  0  0  0  0  0  0  0  0
  -25.0192  -14.6546   20.8011 N   0  0  0  0  0  0  0  0  0  0  0  0
  -21.3545  -29.3287   22.6155 N   0  0  0  0  0  0  0  0  0  0  0  0
  -22.1035  -12.8985   22.0189 N   0  3  0  0  0  0  0  0  0  0  0  0
  -19.6559  -27.4739   21.1833 N   0  3  0  0  0  0  0  0  0  0  0  0
  -25.9571  -24.4029   19.2250 O   0  0  0  0  0  0  0  0  0  0  0  0
  -25.9824  -20.6136   21.1206 O   0  0  0  0  0  0  0  0  0  0  0  0
  -26.9289  -16.3571   22.0908 O   0  0  0  0  0  0  0  0  0  0  0  0
  -22.7921  -14.9598   20.2320 O   0  0  0  0  0  0  0  0  0  0  0  0
  -20.9361  -31.5664   22.3421 O   0  0  0  0  0  0  0  0  0  0  0  0
  -33.0879  -27.3985   20.0994 O   0  0  0  0  0  0  0  0  0  0  0  0
  -20.1484  -21.2227   20.6044 O   0  0  0  0  0  0  0  0  0  1  0  0
  -35.3774  -23.2247   22.8818 F   0  0  0  0  0  0  0  0  0  0  0  0
  -32.5886  -24.7748   19.3854 F   0  0  0  0  0  0  0  0  0  0  0  0
  1  2  1  0  0  0  0
  1  5  2  0  0  0  0
  2  6  2  0  0  0  0
  3  8  2  0  0  0  0
  3 15  1  0  0  0  0
  4  9  1  0  0  0  0
  4 15  2  0  0  0  0
  5 17  1  0  0  0  0
  6 19  1  0  0  0  0
  7 10  2  0  0  0  0
  7 18  1  0  0  0  0
  8 21  1  0  0  0  0
  9 21  2  0  0  0  0
 10 22  1  0  0  0  0
 11 12  2  0  0  0  0
 11 23  1  0  0  0  0
 12 24  1  0  0  0  0
 13 20  1  0  0  0  0
 13 22  2  0  0  0  0
 14 24  2  0  0  0  0
 14 25  1  0  0  0  0
 15 26  1  0  0  0  0
 16 26  1  0  0  0  0
 16 27  2  0  0  0  0
 16 28  1  0  0  0  0
 17 19  2  0  0  0  0
 17 33  1  0  0  0  0
 18 20  2  0  0  0  0
 18 34  1  0  0  0  0
 19 45  1  0  0  0  0
 20 35  1  0  0  0  0
 21 82  1  0  0  0  0
 22 83  1  0  0  0  0
 23 25  2  0  0  0  0
 23 82  1  0  0  0  0
 24 84  1  0  0  0  0
 25 85  1  0  0  0  0
 26 66  2  0  0  0  0
 27 67  1  0  0  0  0
 27 70  1  0  0  0  0
 28 71  1  0  0  0  0
 28 77  2  0  0  0  0
 29 46  1  0  0  0  0
 29 72  1  0  0  0  0
 29 78  2  0  0  0  0
 30 62  1  0  0  0  0
 30 68  1  0  0  0  0
 30 79  2  0  0  0  0
 31 63  1  0  0  0  0
 31 73  1  0  0  0  0
 31 80  2  0  0  0  0
 32 69  1  0  0  0  0
 32 74  1  0  0  0  0
 32 81  2  0  0  0  0
 33 36  1  0  0  0  0
 34 46  1  0  0  0  0
 35 68  1  0  0  0  0
 36 38  1  0  0  0  0
 37 39  1  0  0  0  0
 37 43  1  0  0  0  0
 38 45  1  0  0  0  0
 39 50  1  0  0  0  0
 40 47  1  0  0  0  0
 40 48  1  0  0  0  0
 41 47  1  0  0  0  0
 41 49  1  0  0  0  0
 42 48  1  0  0  0  0
 42 49  1  0  0  0  0
 43 69  1  0  0  0  0
 44 50  1  0  0  0  0
 44 69  1  0  0  0  0
 45 72  1  0  0  0  0
 46 68  1  0  0  0  0
 47 51  1  0  0  0  0
 48 58  1  0  0  0  0
 49 59  1  0  0  0  0
 50 67  1  0  0  0  0
 52 63  1  0  0  0  0
 53 64  1  0  0  0  0
 54 65  1  0  0  0  0
 55 65  1  0  0  0  0
 56 65  1  0  0  0  0
 57 75  1  0  0  0  0
 58 60  1  0  0  0  0
 59 83  1  0  0  0  0
 60 76  1  0  0  0  0
 61 64  1  0  0  0  0
 61 76  1  0  0  0  0
 62 65  1  0  0  0  0
 62 73  1  0  0  0  0
 63 75  1  0  0  0  0
 64 74  1  0  0  0  0
 66 67  1  0  0  0  0
M  CHG  2  75   1  76   1
M  ISO  4  32 100  59 101  74 100  83 101
M  END
> <Batch ID>
0129

> <Smiles>
CNC(C)C(=O)NC(C(=O)N1Cc2cc([101O:1][101CH2:1]C3CC(C)CC(CCNCC(C)[100NH:0][100C:0](=O)N4CCCC(n5nc(-c6ccc(Oc7ccc(F)cc7F)cc6)c(C(N)=O)c5N)C4)C3)ccc2CC1C(=O)NC1CCCc2ccccc21)C(C)(C)C

> <Shape>
0.194

> <Color>
0.079

> <Negative vol penalty>
0.000

$$$$

  -OEChem-04052320453D

 85 94  0     1  0  0  0  0  0999 V2000
  -22.9120  -33.4890   14.6487 C   0  0  0  0  0  0  0  0  0  0  0  0
  -23.8862  -32.5342   14.9220 C   0  0  0  0  0  0  0  0  0  0  0  0
  -22.9428  -10.1135   19.9261 C   0  0  0  0  0  0  0  0  0  0  0  0
  -23.8337   -9.8486   22.1561 C   0  0  0  0  0  0  0  0  0  0  0  0
  -22.4583  -34.3307   15.6634 C   0  0  0  0  0  0  0  0  0  0  0  0
  -24.4081  -32.4212   16.2101 C   0  0  0  0  0  0  0  0  0  0  0  0
  -26.9511  -20.6406   20.1350 C   0  0  0  0  0  0  0  0  0  0  0  0
  -24.7574  -27.6094   17.7495 C   0  0  0  0  0  0  0  0  0  0  0  0
  -27.5163  -19.5488   20.7975 C   0  0  0  0  0  0  0  0  0  0  0  0
  -22.1605   -8.9723   20.1030 C   0  0  0  0  0  0  0  0  0  0  0  0
  -23.0514   -8.7074   22.3331 C   0  0  0  0  0  0  0  0  0  0  0  0
  -25.8257  -26.8599   17.2588 C   0  0  0  0  0  0  0  0  0  0  0  0
  -23.1508   -5.4529   21.4222 C   0  0  0  0  0  0  0  0  0  0  0  0
  -23.7573   -4.3334   21.9918 C   0  0  0  0  0  0  0  0  0  0  0  0
  -29.7151  -20.0854   19.9033 C   0  0  0  0  0  0  0  0  0  0  0  0
  -27.0190  -27.2195   19.3242 C   0  0  0  0  0  0  0  0  0  0  0  0
  -22.1678   -4.3975   23.8102 C   0  0  0  0  0  0  0  0  0  0  0  0
  -23.7794  -10.5516   20.9526 C   0  0  0  0  0  0  0  0  0  0  0  0
  -24.2337  -13.0591   21.0700 C   0  0  0  0  0  0  0  0  0  0  0  0
  -22.9680  -34.2215   16.9669 C   0  0  0  0  0  0  0  0  0  0  0  0
  -24.8166  -28.1798   19.0292 C   0  0  0  0  0  0  0  0  0  0  0  0
  -27.7800  -21.4431   19.3706 C   0  0  0  0  0  0  0  0  0  0  0  0
  -23.9618  -33.2631   17.2430 C   0  0  0  0  0  0  0  0  0  0  0  0
  -29.1467  -21.1686   19.2561 C   0  0  0  0  0  0  0  0  0  0  0  0
  -25.9492  -27.9737   19.8298 C   0  0  0  0  0  0  0  0  0  0  0  0
  -28.8884  -19.2732   20.6824 C   0  0  0  0  0  0  0  0  0  0  0  0
  -22.2148   -8.2693   21.3065 C   0  0  0  0  0  0  0  0  0  0  0  0
  -26.9579  -26.6673   18.0450 C   0  0  0  0  0  0  0  0  0  0  0  0
  -22.0529   -6.0448   22.0467 C   0  0  0  0  0  0  0  0  0  0  0  0
  -23.2658   -3.8057   23.1858 C   0  0  0  0  0  0  0  0  0  0  0  0
  -21.5614   -5.5171   23.2406 C   0  0  0  0  0  0  0  0  0  0  0  0
  -24.5882  -11.7301   20.7702 C   0  0  0  0  0  0  0  0  0  0  0  0
  -25.3375  -13.7967   20.7175 C   0  0  0  0  0  0  0  0  0  0  0  0
  -23.0157  -13.5804   21.6180 C   0  0  0  0  0  0  0  0  0  0  0  0
  -24.7460  -31.1465   20.1683 C   0  0  0  0  0  0  0  0  0  0  0  0
  -24.6753  -29.6284   23.0341 C   0  0  0  0  0  0  0  0  0  0  0  0
  -25.3809  -26.8230   24.8448 C   0  0  0  0  0  0  0  0  0  0  0  0
  -30.8653  -14.5624   20.6656 C   0  0  0  0  0  0  0  0  0  0  0  0
  -22.4808  -35.1851   18.0199 C   0  0  0  0  0  0  0  0  0  0  0  0
  -23.6449  -28.9632   19.5543 C   0  0  0  0  0  0  0  0  0  0  0  0
  -26.0539  -28.5477   21.2183 C   0  0  0  0  0  0  0  0  0  0  0  0
  -27.4153  -22.6411   18.5599 C   0  0  0  0  0  0  0  0  0  0  0  0
  -29.8081  -22.1607   18.3596 C   0  0  0  0  0  0  0  0  0  0  0  0
  -22.8146  -34.7503   19.4446 C   0  0  0  0  0  0  0  0  0  0  0  0
  -29.4789  -12.4904   18.1236 C   0  0  0  0  0  0  0  0  0  0  0  0
  -24.2697  -34.3022   19.5389 C   0  0  0  0  0  0  0  0  0  0  0  0
  -28.0566  -12.2127   18.6133 C   0  0  0  0  0  0  0  0  0  0  0  0
  -30.4736  -12.5459   19.2810 C   0  0  0  0  0  0  0  0  0  0  0  0
  -28.6923  -13.2058   20.8513 C   0  0  0  0  0  0  0  0  0  0  0  0
  -24.5344  -33.0933   18.6334 C   0  0  1  0  0  0  0  0  0  0  0  0
  -24.0247  -29.9287   20.6728 C   0  0  1  0  0  0  0  0  0  0  0  0
  -27.6444  -13.1961   19.7252 C   0  0  2  0  0  0  0  0  0  0  0  0
  -25.2434  -25.8941   27.1720 C   0  0  0  0  0  0  0  0  0  0  0  0
  -27.0788  -31.3221   23.8495 C   0  0  0  0  0  0  0  0  0  0  0  0
  -27.4737  -29.7273   25.7386 C   0  0  0  0  0  0  0  0  0  0  0  0
  -25.3515  -31.0343   25.6350 C   0  0  0  0  0  0  0  0  0  0  0  0
  -23.5925  -24.6264   23.9871 C   0  0  0  0  0  0  0  0  0  0  0  0
  -30.8211  -17.8169   21.2903 C   0  0  0  0  0  0  0  0  0  0  0  0
  -31.1051  -16.5669   22.1091 C   0  0  0  0  0  0  0  0  0  0  0  0
  -28.7499  -23.8083   16.7353 C   0  0  0  0  0  0  0  0  0  0  0  0
  -27.6968  -24.8948   16.6421 C   0  0  0  0  0  0  0  0  0  1  0  0
  -25.7175  -29.1340   24.0081 C   0  0  1  0  0  0  0  0  0  0  0  0
  -24.5456  -26.0214   25.8268 C   0  0  2  0  0  0  0  0  0  0  0  0
  -26.4045  -30.2951   24.7809 C   0  0  0  0  0  0  0  0  0  0  0  0
  -25.8207  -11.6263   20.2661 N   0  0  0  0  0  0  0  0  0  0  0  0
  -26.2503  -12.8996   20.2462 N   0  0  0  0  0  0  0  0  0  0  0  0
  -24.8848  -29.3115   21.6845 N   0  0  0  0  0  0  0  0  0  0  0  0
  -30.0249  -13.4978   20.3001 N   0  0  0  0  0  0  0  0  0  0  0  0
  -25.6065  -15.1186   20.7679 N   0  0  0  0  0  0  0  0  0  0  0  0
  -21.9828  -12.6835   21.9233 N   0  0  0  0  0  0  0  0  0  0  0  0
  -29.4356  -18.1609   21.3591 N   0  0  0  0  0  0  0  0  0  0  0  0
  -24.0286  -31.8832   19.2453 N   0  0  0  0  0  0  0  0  0  0  0  0
  -25.0474  -28.1608   24.8637 N   0  0  0  0  0  0  0  0  0  0  0  0
  -30.3608  -15.4219   21.6339 N   0  0  0  0  0  0  0  0  0  0  0  0
  -28.7516  -23.2439   18.1085 N   0  3  1  0  0  0  0  0  0  0  0  0
  -24.2948  -24.6516   25.2960 N   0  3  0  0  0  0  0  0  0  0  0  0
  -22.8421  -14.8069   21.8154 O   0  0  0  0  0  0  0  0  0  0  0  0
  -25.8696  -31.3997   20.5867 O   0  0  0  0  0  0  0  0  0  0  0  0
  -23.7073  -30.2659   23.4562 O   0  0  0  0  0  0  0  0  0  0  0  0
  -26.2454  -26.3140   24.1349 O   0  0  0  0  0  0  0  0  0  0  0  0
  -31.9801  -14.7373   20.1621 O   0  0  0  0  0  0  0  0  0  0  0  0
  -21.4514   -7.1558   21.4795 O   0  0  0  0  0  0  0  0  0  0  0  0
  -28.0022  -25.9366   17.5681 O   0  0  0  0  0  0  0  0  0  1  0  0
  -23.8473   -2.7296   23.7318 F   0  0  0  0  0  0  0  0  0  0  0  0
  -20.5061   -6.0807   23.8445 F   0  0  0  0  0  0  0  0  0  0  0  0
  1  2  1  0  0  0  0
  1  5  2  0  0  0  0
  2  6  2  0  0  0  0
  3 10  2  0  0  0  0
  3 18  1  0  0  0  0
  4 11  1  0  0  0  0
  4 18  2  0  0  0  0
  5 20  1  0  0  0  0
  6 23  1  0  0  0  0
  7  9  2  0  0  0  0
  7 22  1  0  0  0  0
  8 12  2  0  0  0  0
  8 21  1  0  0  0  0
  9 26  1  0  0  0  0
 10 27  1  0  0  0  0
 11 27  2  0  0  0  0
 12 28  1  0  0  0  0
 13 14  2  0  0  0  0
 13 29  1  0  0  0  0
 14 30  1  0  0  0  0
 15 24  1  0  0  0  0
 15 26  2  0  0  0  0
 16 25  1  0  0  0  0
 16 28  2  0  0  0  0
 17 30  2  0  0  0  0
 17 31  1  0  0  0  0
 18 32  1  0  0  0  0
 19 32  1  0  0  0  0
 19 33  2  0  0  0  0
 19 34  1  0  0  0  0
 20 23  2  0  0  0  0
 20 39  1  0  0  0  0
 21 25  2  0  0  0  0
 21 40  1  0  0  0  0
 22 24  2  0  0  0  0
 22 42  1  0  0  0  0
 23 50  1  0  0  0  0
 24 43  1  0  0  0  0
 25 41  1  0  0  0  0
 26 71  1  0  0  0  0
 27 82  1  0  0  0  0
 28 83  1  0  0  0  0
 29 31  2  0  0  0  0
 29 82  1  0  0  0  0
 30 84  1  0  0  0  0
 31 85  1  0  0  0  0
 32 65  2  0  0  0  0
 33 66  1  0  0  0  0
 33 69  1  0  0  0  0
 34 70  1  0  0  0  0
 34 77  2  0  0  0  0
 35 51  1  0  0  0  0
 35 72  1  0  0  0  0
 35 78  2  0  0  0  0
 36 62  1  0  0  0  0
 36 67  1  0  0  0  0
 36 79  2  0  0  0  0
 37 63  1  0  0  0  0
 37 73  1  0  0  0  0
 37 80  2  0  0  0  0
 38 68  1  0  0  0  0
 38 74  1  0  0  0  0
 38 81  2  0  0  0  0
 39 44  1  0  0  0  0
 40 51  1  0  0  0  0
 41 67  1  0  0  0  0
 42 75  1  0  0  0  0
 43 75  1  0  0  0  0
 44 46  1  0  0  0  0
 45 47  1  0  0  0  0
 45 48  1  0  0  0  0
 46 50  1  0  0  0  0
 47 52  1  0  0  0  0
 48 68  1  0  0  0  0
 49 52  1  0  0  0  0
 49 68  1  0  0  0  0
 50 72  1  0  0  0  0
 51 67  1  0  0  0  0
 52 66  1  0  0  0  0
 53 63  1  0  0  0  0
 54 64  1  0  0  0  0
 55 64  1  0  0  0  0
 56 64  1  0  0  0  0
 57 76  1  0  0  0  0
 58 59  1  0  0  0  0
 58 71  1  0  0  0  0
 59 74  1  0  0  0  0
 60 61  1  0  0  0  0
 60 75  1  0  0  0  0
 61 83  1  0  0  0  0
 62 64  1  0  0  0  0
 62 73  1  0  0  0  0
 63 76  1  0  0  0  0
 65 66  1  0  0  0  0
M  CHG  2  75   1  76   1
M  ISO  4  38 100  61 101  74 100  83 101
M  END
> <Batch ID>
0129

> <Smiles>
CNC(C)C(=O)NC(C(=O)N1Cc2cc([101O:1][101CH2:1]CN3Cc4ccc(NCC[100NH:0][100C:0](=O)N5CCCC(n6nc(-c7ccc(Oc8ccc(F)cc8F)cc7)c(C(N)=O)c6N)C5)cc4C3)ccc2CC1C(=O)NC1CCCc2ccccc21)C(C)(C)C

> <Shape>
0.337

> <Color>
0.197

> <Negative vol penalty>
0.000

$$$$

  -OEChem-04052320453D

 84 92  0     1  0  0  0  0  0999 V2000
  -29.3350  -21.5958   14.8242 C   0  0  0  0  0  0  0  0  0  0  0  0
  -28.2628  -21.7147   15.7013 C   0  0  0  0  0  0  0  0  0  0  0  0
  -28.6158  -16.1169   18.7298 C   0  0  0  0  0  0  0  0  0  0  0  0
  -28.5136  -16.6588   21.0820 C   0  0  0  0  0  0  0  0  0  0  0  0
  -30.4011  -22.4889   14.9076 C   0  0  0  0  0  0  0  0  0  0  0  0
  -28.2509  -22.7339   16.6542 C   0  0  0  0  0  0  0  0  0  0  0  0
  -24.1331  -23.2809   19.2902 C   0  0  0  0  0  0  0  0  0  0  0  0
  -23.3340  -19.9060   24.5476 C   0  0  0  0  0  0  0  0  0  0  0  0
  -22.9878  -19.1502   25.6676 C   0  0  0  0  0  0  0  0  0  0  0  0
  -29.5687  -17.1178   18.5406 C   0  0  0  0  0  0  0  0  0  0  0  0
  -29.4666  -17.6597   20.8928 C   0  0  0  0  0  0  0  0  0  0  0  0
  -23.7465  -22.3786   20.2802 C   0  0  0  0  0  0  0  0  0  0  0  0
  -31.6065  -20.5966   20.9642 C   0  0  0  0  0  0  0  0  0  0  0  0
  -31.3768  -21.8329   21.5678 C   0  0  0  0  0  0  0  0  0  0  0  0
  -24.4804  -23.9318   21.9738 C   0  0  0  0  0  0  0  0  0  0  0  0
  -21.5313  -18.8872   23.3028 C   0  0  0  0  0  0  0  0  0  0  0  0
  -29.3242  -22.0634   20.3145 C   0  0  0  0  0  0  0  0  0  0  0  0
  -28.0882  -15.8874   20.0005 C   0  0  0  0  0  0  0  0  0  0  0  0
  -27.3401  -13.5041   20.5179 C   0  0  0  0  0  0  0  0  0  0  0  0
  -30.4072  -23.5116   15.8704 C   0  0  0  0  0  0  0  0  0  0  0  0
  -24.7073  -24.5130   19.6349 C   0  0  0  0  0  0  0  0  0  0  0  0
  -29.3064  -23.6598   16.7385 C   0  0  0  0  0  0  0  0  0  0  0  0
  -24.8711  -24.8491   20.9863 C   0  0  0  0  0  0  0  0  0  0  0  0
  -22.6057  -19.7746   23.3652 C   0  0  0  0  0  0  0  0  0  0  0  0
  -21.9134  -18.2628   25.6052 C   0  0  0  0  0  0  0  0  0  0  0  0
  -21.1851  -18.1313   24.4228 C   0  0  0  0  0  0  0  0  0  0  0  0
  -29.9941  -17.8891   19.6221 C   0  0  0  0  0  0  0  0  0  0  0  0
  -23.9228  -22.7028   21.6222 C   0  0  0  0  0  0  0  0  0  0  0  0
  -30.6951  -20.0937   20.0357 C   0  0  0  0  0  0  0  0  0  0  0  0
  -30.2356  -22.5663   21.2430 C   0  0  0  0  0  0  0  0  0  0  0  0
  -29.5539  -20.8270   19.7109 C   0  0  0  0  0  0  0  0  0  0  0  0
  -27.1034  -14.8541   20.1964 C   0  0  0  0  0  0  0  0  0  0  0  0
  -26.0881  -12.9444   20.5933 C   0  0  0  0  0  0  0  0  0  0  0  0
  -28.5809  -12.8174   20.7295 C   0  0  0  0  0  0  0  0  0  0  0  0
  -27.5178  -25.9027   19.1120 C   0  0  0  0  0  0  0  0  0  0  0  0
  -26.0832  -28.4469   20.5231 C   0  0  0  0  0  0  0  0  0  0  0  0
  -23.6542  -29.6079   22.6204 C   0  0  0  0  0  0  0  0  0  0  0  0
  -20.6677  -15.2177   21.7344 C   0  0  0  0  0  0  0  0  0  0  0  0
  -31.5832  -24.4553   15.9113 C   0  0  0  0  0  0  0  0  0  0  0  0
  -25.0944  -25.4864   18.5556 C   0  0  0  0  0  0  0  0  0  0  0  0
  -25.4639  -26.1674   21.4094 C   0  0  0  0  0  0  0  0  0  0  0  0
  -31.6886  -25.2171   17.2285 C   0  0  0  0  0  0  0  0  0  0  0  0
  -21.6647  -13.4134   18.8314 C   0  0  0  0  0  0  0  0  0  0  0  0
  -30.3426  -25.8316   17.5827 C   0  0  0  0  0  0  0  0  0  0  0  0
  -23.1930  -13.4562   18.8811 C   0  0  0  0  0  0  0  0  0  0  0  0
  -21.0469  -14.7146   19.3387 C   0  0  0  0  0  0  0  0  0  0  0  0
  -23.0298  -15.1783   20.7268 C   0  0  0  0  0  0  0  0  0  0  0  0
  -29.2858  -24.7418   17.8031 C   0  0  1  0  0  0  0  0  0  0  0  0
  -26.1419  -26.4978   19.0108 C   0  0  1  0  0  0  0  0  0  0  0  0
  -23.6973  -13.8673   20.2775 C   0  0  2  0  0  0  0  0  0  0  0  0
  -19.9364  -19.1857   27.7919 C   0  0  0  0  0  0  0  0  0  0  0  0
  -22.7064  -16.5064   27.2105 C   0  0  0  0  0  0  0  0  0  0  0  0
  -22.7533  -31.7325   23.6063 C   0  0  0  0  0  0  0  0  0  0  0  0
  -28.4472  -28.5526   22.4493 C   0  0  0  0  0  0  0  0  0  0  0  0
  -27.0736  -30.0172   23.9448 C   0  0  0  0  0  0  0  0  0  0  0  0
  -27.6571  -30.7846   21.6440 C   0  0  0  0  0  0  0  0  0  0  0  0
  -21.0024  -29.1996   21.3713 C   0  0  0  0  0  0  0  0  0  0  0  0
  -20.0312  -17.1874   24.3324 C   0  0  0  0  0  0  0  0  0  0  0  0
  -22.9787  -20.5874   22.1604 C   0  0  0  0  0  0  0  0  0  1  0  0
  -21.1659  -18.3225   28.0478 C   0  0  0  0  0  0  0  0  0  0  0  0
  -20.4500  -15.7240   24.1542 C   0  0  0  0  0  0  0  0  0  0  0  0
  -21.5622  -17.4634   26.8169 C   0  0  1  0  0  0  0  0  0  0  0  0
  -25.9467  -28.9465   21.9411 C   0  0  1  0  0  0  0  0  0  0  0  0
  -22.6436  -30.7304   22.4676 C   0  0  2  0  0  0  0  0  0  0  0  0
  -27.2717  -29.5495   22.4871 C   0  0  0  0  0  0  0  0  0  0  0  0
  -25.8032  -15.1350   20.0757 N   0  0  0  0  0  0  0  0  0  0  0  0
  -25.2117  -13.9538   20.3226 N   0  0  0  0  0  0  0  0  0  0  0  0
  -25.8325  -27.0829   20.3170 N   0  0  0  0  0  0  0  0  0  0  0  0
  -21.5655  -15.0469   20.6678 N   0  0  0  0  0  0  0  0  0  0  0  0
  -25.6624  -11.6923   20.8640 N   0  0  0  0  0  0  0  0  0  0  0  0
  -29.7743  -13.5430   20.6135 N   0  0  0  0  0  0  0  0  0  0  0  0
  -27.9860  -25.3633   17.9291 N   0  0  0  0  0  0  0  0  0  0  0  0
  -24.8228  -29.8767   21.9397 N   0  0  0  0  0  0  0  0  0  0  0  0
  -21.2428  -15.5249   22.9615 N   0  0  0  0  0  0  0  0  0  0  0  0
  -21.2580  -30.1818   22.4562 N   0  3  0  0  0  0  0  0  0  0  0  0
  -28.6304  -11.5929   20.9970 O   0  0  0  0  0  0  0  0  0  0  0  0
  -28.1114  -25.9319   20.1837 O   0  0  0  0  0  0  0  0  0  0  0  0
  -26.3937  -29.2392   19.6300 O   0  0  0  0  0  0  0  0  0  0  0  0
  -23.4308  -28.5958   23.2808 O   0  0  0  0  0  0  0  0  0  0  0  0
  -19.4446  -15.0996   21.6041 O   0  0  0  0  0  0  0  0  0  0  0  0
  -30.9241  -18.8657   19.4379 O   0  0  0  0  0  0  0  0  0  0  0  0
  -23.5469  -21.8236   22.5906 O   0  0  0  0  0  0  0  0  0  1  0  0
  -30.0144  -23.7528   21.8239 F   0  0  0  0  0  0  0  0  0  0  0  0
  -28.6741  -20.3485   18.8205 F   0  0  0  0  0  0  0  0  0  0  0  0
  1  2  1  0  0  0  0
  1  5  2  0  0  0  0
  2  6  2  0  0  0  0
  3 10  2  0  0  0  0
  3 18  1  0  0  0  0
  4 11  1  0  0  0  0
  4 18  2  0  0  0  0
  5 20  1  0  0  0  0
  6 22  1  0  0  0  0
  7 12  2  0  0  0  0
  7 21  1  0  0  0  0
  8  9  2  0  0  0  0
  8 24  1  0  0  0  0
  9 25  1  0  0  0  0
 10 27  1  0  0  0  0
 11 27  2  0  0  0  0
 12 28  1  0  0  0  0
 13 14  2  0  0  0  0
 13 29  1  0  0  0  0
 14 30  1  0  0  0  0
 15 23  1  0  0  0  0
 15 28  2  0  0  0  0
 16 24  2  0  0  0  0
 16 26  1  0  0  0  0
 17 30  2  0  0  0  0
 17 31  1  0  0  0  0
 18 32  1  0  0  0  0
 19 32  1  0  0  0  0
 19 33  2  0  0  0  0
 19 34  1  0  0  0  0
 20 22  2  0  0  0  0
 20 39  1  0  0  0  0
 21 23  2  0  0  0  0
 21 40  1  0  0  0  0
 22 48  1  0  0  0  0
 23 41  1  0  0  0  0
 24 59  1  0  0  0  0
 25 26  2  0  0  0  0
 25 62  1  0  0  0  0
 26 58  1  0  0  0  0
 27 81  1  0  0  0  0
 28 82  1  0  0  0  0
 29 31  2  0  0  0  0
 29 81  1  0  0  0  0
 30 83  1  0  0  0  0
 31 84  1  0  0  0  0
 32 66  2  0  0  0  0
 33 67  1  0  0  0  0
 33 70  1  0  0  0  0
 34 71  1  0  0  0  0
 34 76  2  0  0  0  0
 35 49  1  0  0  0  0
 35 72  1  0  0  0  0
 35 77  2  0  0  0  0
 36 63  1  0  0  0  0
 36 68  1  0  0  0  0
 36 78  2  0  0  0  0
 37 64  1  0  0  0  0
 37 73  1  0  0  0  0
 37 79  2  0  0  0  0
 38 69  1  0  0  0  0
 38 74  1  0  0  0  0
 38 80  2  0  0  0  0
 39 42  1  0  0  0  0
 40 49  1  0  0  0  0
 41 68  1  0  0  0  0
 42 44  1  0  0  0  0
 43 45  1  0  0  0  0
 43 46  1  0  0  0  0
 44 48  1  0  0  0  0
 45 50  1  0  0  0  0
 46 69  1  0  0  0  0
 47 50  1  0  0  0  0
 47 69  1  0  0  0  0
 48 72  1  0  0  0  0
 49 68  1  0  0  0  0
 50 67  1  0  0  0  0
 51 60  1  0  0  0  0
 52 62  1  0  0  0  0
 53 64  1  0  0  0  0
 54 65  1  0  0  0  0
 55 65  1  0  0  0  0
 56 65  1  0  0  0  0
 57 75  1  0  0  0  0
 58 61  1  0  0  0  0
 59 82  1  0  0  0  0
 60 62  1  0  0  0  0
 61 74  1  0  0  0  0
 63 65  1  0  0  0  0
 63 73  1  0  0  0  0
 64 75  1  0  0  0  0
 66 67  1  0  0  0  0
M  CHG  1  75   1
M  ISO  4  38 100  59 101  74 100  82 101
M  END
> <Batch ID>
0129

> <Smiles>
CCC(C)c1ccc([101CH2:1][101O:1]c2ccc3c(c2)CN(C(=O)C(NC(=O)C(C)NC)C(C)(C)C)C(C(=O)NC2CCCc4ccccc42)C3)cc1CC[100NH:0][100C:0](=O)N1CCCC(n2nc(-c3ccc(Oc4ccc(F)cc4F)cc3)c(C(N)=O)c2N)C1

> <Shape>
0.215

> <Color>
0.071

> <Negative vol penalty>
0.000

$$$$

  -OEChem-04052320453D

 83 91  0     1  0  0  0  0  0999 V2000
  -29.2606  -11.3943   19.7552 C   0  0  0  0  0  0  0  0  0  0  0  0
  -29.4567  -12.4346   20.6579 C   0  0  0  0  0  0  0  0  0  0  0  0
  -29.8669  -24.4726   19.6462 C   0  0  0  0  0  0  0  0  0  0  0  0
  -27.9482  -24.7205   18.1990 C   0  0  0  0  0  0  0  0  0  0  0  0
  -28.3619  -11.5482   18.7004 C   0  0  0  0  0  0  0  0  0  0  0  0
  -28.7549  -13.6299   20.5055 C   0  0  0  0  0  0  0  0  0  0  0  0
  -25.8512  -18.9284   24.3541 C   0  0  0  0  0  0  0  0  0  0  0  0
  -29.8750  -23.0996   19.4003 C   0  0  0  0  0  0  0  0  0  0  0  0
  -27.9563  -23.3475   17.9531 C   0  0  0  0  0  0  0  0  0  0  0  0
  -25.8572  -20.3193   24.4484 C   0  0  0  0  0  0  0  0  0  0  0  0
  -30.1792  -19.4761   19.4366 C   0  0  0  0  0  0  0  0  0  0  0  0
  -30.3468  -18.6216   20.5263 C   0  0  0  0  0  0  0  0  0  0  0  0
  -24.2717  -20.4431   22.6346 C   0  0  0  0  0  0  0  0  0  0  0  0
  -28.3416  -19.5150   21.5353 C   0  0  0  0  0  0  0  0  0  0  0  0
  -28.9035  -25.2831   19.0456 C   0  0  0  0  0  0  0  0  0  0  0  0
  -29.5708  -27.6995   18.5732 C   0  0  0  0  0  0  0  0  0  0  0  0
  -27.6416  -12.7425   18.5407 C   0  0  0  0  0  0  0  0  0  0  0  0
  -25.0624  -18.2837   23.3905 C   0  0  0  0  0  0  0  0  0  0  0  0
  -27.8467  -13.8004   19.4468 C   0  0  0  0  0  0  0  0  0  0  0  0
  -24.2555  -19.0437   22.5318 C   0  0  0  0  0  0  0  0  0  0  0  0
  -28.9197  -22.5371   18.5538 C   0  0  0  0  0  0  0  0  0  0  0  0
  -25.0696  -21.0771   23.5867 C   0  0  0  0  0  0  0  0  0  0  0  0
  -29.0929  -20.3502   19.3963 C   0  0  0  0  0  0  0  0  0  0  0  0
  -29.4280  -18.6410   21.5756 C   0  0  0  0  0  0  0  0  0  0  0  0
  -28.1740  -20.3696   20.4456 C   0  0  0  0  0  0  0  0  0  0  0  0
  -28.8942  -26.7013   19.2996 C   0  0  0  0  0  0  0  0  0  0  0  0
  -29.2408  -28.8708   19.2099 C   0  0  0  0  0  0  0  0  0  0  0  0
  -30.4215  -27.5786   17.4254 C   0  0  0  0  0  0  0  0  0  0  0  0
  -25.6562  -16.3950   20.9037 C   0  0  0  0  0  0  0  0  0  0  0  0
  -22.4219  -16.1687   20.7997 C   0  0  0  0  0  0  0  0  0  0  0  0
  -19.3951  -17.5442   21.5697 C   0  0  0  0  0  0  0  0  0  0  0  0
  -24.5737  -30.5005   22.5881 C   0  0  0  0  0  0  0  0  0  0  0  0
  -26.7162  -12.8794   17.3577 C   0  0  0  0  0  0  0  0  0  0  0  0
  -25.0467  -16.7813   23.3193 C   0  0  0  0  0  0  0  0  0  0  0  0
  -23.3754  -18.3992   21.4934 C   0  0  0  0  0  0  0  0  0  0  0  0
  -25.7338  -14.0410   17.4840 C   0  0  0  0  0  0  0  0  0  0  0  0
  -28.0126  -30.5796   23.5067 C   0  0  0  0  0  0  0  0  0  0  0  0
  -26.4558  -15.3029   17.9457 C   0  0  0  0  0  0  0  0  0  0  0  0
  -28.6896  -29.6847   22.4671 C   0  0  0  0  0  0  0  0  0  0  0  0
  -24.4321  -25.5670   22.7561 C   0  0  0  0  0  0  0  0  0  0  0  0
  -25.5399  -24.5231   22.5767 C   0  0  0  0  0  0  0  0  0  0  0  0
  -23.3461  -23.4808   22.3511 C   0  0  0  0  0  0  0  0  0  0  0  0
  -26.6320  -30.0527   23.8917 C   0  0  0  0  0  0  0  0  0  0  0  0
  -26.3989  -28.9178   21.7165 C   0  0  0  0  0  0  0  0  0  0  0  0
  -27.0857  -15.1032   19.3294 C   0  0  1  0  0  0  0  0  0  0  0  0
  -24.5978  -16.2522   21.9607 C   0  0  1  0  0  0  0  0  0  0  0  0
  -27.7708  -29.4390   21.2552 C   0  0  2  0  0  0  0  0  0  0  0  0
  -23.2169  -24.7553   23.1692 C   0  0  2  0  0  0  0  0  0  0  0  0
  -24.8349  -23.1646   22.4762 C   0  0  2  0  0  0  0  0  0  1  0  0
  -16.9299  -17.1456   21.3221 C   0  0  0  0  0  0  0  0  0  0  0  0
  -22.5821  -17.0119   17.8717 C   0  0  0  0  0  0  0  0  0  0  0  0
  -20.1305  -17.5130   17.9542 C   0  0  0  0  0  0  0  0  0  0  0  0
  -20.9398  -15.1857   18.3430 C   0  0  0  0  0  0  0  0  0  0  0  0
  -18.9966  -17.4601   24.5011 C   0  0  0  0  0  0  0  0  0  0  0  0
  -20.2576  -27.1668   23.4540 C   0  0  0  0  0  0  0  0  0  0  0  0
  -22.5752  -30.8597   21.1612 C   0  0  0  0  0  0  0  0  0  0  0  0
  -21.5557  -26.4836   23.8708 C   0  0  0  0  0  0  0  0  0  0  0  0
  -20.3097  -27.9550   22.1495 C   0  0  0  0  0  0  0  0  0  0  0  0
  -21.4771  -29.8283   20.9804 C   0  0  0  0  0  0  0  0  0  0  0  0
  -21.3173  -16.9425   20.1214 C   0  0  1  0  0  0  0  0  0  0  0  0
  -18.1516  -16.9505   22.2065 C   0  0  2  0  0  0  0  0  0  0  0  0
  -21.2604  -16.6758   18.5907 C   0  0  0  0  0  0  0  0  0  0  0  0
  -28.1879  -27.1954   20.3199 N   0  0  0  0  0  0  0  0  0  0  0  0
  -28.4189  -28.5169   20.2392 N   0  0  0  0  0  0  0  0  0  0  0  0
  -23.3994  -16.9275   21.4589 N   0  0  0  0  0  0  0  0  0  0  0  0
  -25.8098  -29.8426   22.6976 N   0  0  0  0  0  0  0  0  0  0  0  0
  -29.5765  -30.1588   18.9843 N   0  0  0  0  0  0  0  0  0  0  0  0
  -30.6550  -26.3011   16.8983 N   0  0  0  0  0  0  0  0  0  0  0  0
  -26.0762  -15.1950   20.3623 N   0  0  0  0  0  0  0  0  0  0  0  0
  -20.0883  -16.6076   20.8325 N   0  0  0  0  0  0  0  0  0  0  0  0
  -23.8607  -30.2512   21.4219 N   0  0  0  0  0  0  0  0  0  0  0  0
  -21.9656  -25.4675   22.8570 N   0  3  0  0  0  0  0  0  0  0  0  0
  -17.8860  -17.5951   23.5237 N   0  3  0  0  0  0  0  0  0  0  0  0
  -21.3161  -29.0389   22.2329 N   0  3  0  0  0  0  0  0  0  0  0  0
  -30.9719  -28.5723   16.8931 O   0  0  0  0  0  0  0  0  0  0  0  0
  -26.0606  -17.5114   20.6007 O   0  0  0  0  0  0  0  0  0  0  0  0
  -22.4138  -14.9360   20.7525 O   0  0  0  0  0  0  0  0  0  0  0  0
  -19.7172  -18.7221   21.7090 O   0  0  0  0  0  0  0  0  0  0  0  0
  -24.1401  -31.2585   23.4625 O   0  0  0  0  0  0  0  0  0  0  0  0
  -28.9274  -21.1974   18.3135 O   0  0  0  0  0  0  0  0  0  0  0  0
  -25.0741  -22.4350   23.6761 O   0  0  0  0  0  0  0  0  0  1  0  0
  -29.5882  -17.8193   22.6212 F   0  0  0  0  0  0  0  0  0  0  0  0
  -27.1278  -21.2062   20.4120 F   0  0  0  0  0  0  0  0  0  0  0  0
  1  2  1  0  0  0  0
  1  5  2  0  0  0  0
  2  6  2  0  0  0  0
  3  8  2  0  0  0  0
  3 15  1  0  0  0  0
  4  9  1  0  0  0  0
  4 15  2  0  0  0  0
  5 17  1  0  0  0  0
  6 19  1  0  0  0  0
  7 10  2  0  0  0  0
  7 18  1  0  0  0  0
  8 21  1  0  0  0  0
  9 21  2  0  0  0  0
 10 22  1  0  0  0  0
 11 12  2  0  0  0  0
 11 23  1  0  0  0  0
 12 24  1  0  0  0  0
 13 20  1  0  0  0  0
 13 22  2  0  0  0  0
 14 24  2  0  0  0  0
 14 25  1  0  0  0  0
 15 26  1  0  0  0  0
 16 26  1  0  0  0  0
 16 27  2  0  0  0  0
 16 28  1  0  0  0  0
 17 19  2  0  0  0  0
 17 33  1  0  0  0  0
 18 20  2  0  0  0  0
 18 34  1  0  0  0  0
 19 45  1  0  0  0  0
 20 35  1  0  0  0  0
 21 80  1  0  0  0  0
 22 81  1  0  0  0  0
 23 25  2  0  0  0  0
 23 80  1  0  0  0  0
 24 82  1  0  0  0  0
 25 83  1  0  0  0  0
 26 63  2  0  0  0  0
 27 64  1  0  0  0  0
 27 67  1  0  0  0  0
 28 68  1  0  0  0  0
 28 75  2  0  0  0  0
 29 46  1  0  0  0  0
 29 69  1  0  0  0  0
 29 76  2  0  0  0  0
 30 60  1  0  0  0  0
 30 65  1  0  0  0  0
 30 77  2  0  0  0  0
 31 61  1  0  0  0  0
 31 70  1  0  0  0  0
 31 78  2  0  0  0  0
 32 66  1  0  0  0  0
 32 71  1  0  0  0  0
 32 79  2  0  0  0  0
 33 36  1  0  0  0  0
 34 46  1  0  0  0  0
 35 65  1  0  0  0  0
 36 38  1  0  0  0  0
 37 39  1  0  0  0  0
 37 43  1  0  0  0  0
 38 45  1  0  0  0  0
 39 47  1  0  0  0  0
 40 41  1  0  0  0  0
 40 48  1  0  0  0  0
 41 49  1  0  0  0  0
 42 48  1  0  0  0  0
 42 49  1  0  0  0  0
 43 66  1  0  0  0  0
 44 47  1  0  0  0  0
 44 66  1  0  0  0  0
 45 69  1  0  0  0  0
 46 65  1  0  0  0  0
 47 64  1  0  0  0  0
 48 72  1  0  0  0  0
 49 81  1  0  0  0  0
 50 61  1  0  0  0  0
 51 62  1  0  0  0  0
 52 62  1  0  0  0  0
 53 62  1  0  0  0  0
 54 73  1  0  0  0  0
 55 57  1  0  0  0  0
 55 58  1  0  0  0  0
 56 59  1  0  0  0  0
 56 71  1  0  0  0  0
 57 72  1  0  0  0  0
 58 74  1  0  0  0  0
 59 74  1  0  0  0  0
 60 62  1  0  0  0  0
 60 70  1  0  0  0  0
 61 73  1  0  0  0  0
 63 64  1  0  0  0  0
M  CHG  3  72   1  73   1  74   1
M  ISO  4  32 100  49 101  71 100  81 101
M  END
> <Batch ID>
0129

> <Smiles>
CNC(C)C(=O)NC(C(=O)N1Cc2cc([101O:1][101CH:1]3CCC(NCCCNCC[100NH:0][100C:0](=O)N4CCCC(n5nc(-c6ccc(Oc7ccc(F)cc7F)cc6)c(C(N)=O)c5N)C4)C3)ccc2CC1C(=O)NC1CCCc2ccccc21)C(C)(C)C

> <Shape>
0.220

> <Color>
0.078

> <Negative vol penalty>
0.000

$$$$

  -OEChem-04052320453D

 85 94  0     1  0  0  0  0  0999 V2000
  -25.2778  -36.8252   17.7490 C   0  0  0  0  0  0  0  0  0  0  0  0
  -25.8280  -35.5650   17.5380 C   0  0  0  0  0  0  0  0  0  0  0  0
  -23.7621  -10.1398   22.2159 C   0  0  0  0  0  0  0  0  0  0  0  0
  -22.5839  -10.3746   20.1198 C   0  0  0  0  0  0  0  0  0  0  0  0
  -24.9961  -37.2533   19.0457 C   0  0  0  0  0  0  0  0  0  0  0  0
  -26.0979  -34.7325   18.6236 C   0  0  0  0  0  0  0  0  0  0  0  0
  -25.6553  -28.6264   18.7804 C   0  0  0  0  0  0  0  0  0  0  0  0
  -23.4451   -8.7817   22.2420 C   0  0  0  0  0  0  0  0  0  0  0  0
  -22.2669   -9.0165   20.1458 C   0  0  0  0  0  0  0  0  0  0  0  0
  -26.6044  -27.6135   18.6502 C   0  0  0  0  0  0  0  0  0  0  0  0
  -20.7721   -6.8627   23.0147 C   0  0  0  0  0  0  0  0  0  0  0  0
  -20.3137   -6.3280   24.2187 C   0  0  0  0  0  0  0  0  0  0  0  0
  -26.6092  -20.2936   21.3165 C   0  0  0  0  0  0  0  0  0  0  0  0
  -26.7832  -27.4805   21.0522 C   0  0  0  0  0  0  0  0  0  0  0  0
  -22.1788   -4.7926   24.2470 C   0  0  0  0  0  0  0  0  0  0  0  0
  -27.8124  -21.7484   22.7956 C   0  0  0  0  0  0  0  0  0  0  0  0
  -23.3315  -10.9363   21.1548 C   0  0  0  0  0  0  0  0  0  0  0  0
  -24.7969  -12.9361   20.5542 C   0  0  0  0  0  0  0  0  0  0  0  0
  -25.2538  -36.4220   20.1471 C   0  0  0  0  0  0  0  0  0  0  0  0
  -25.2704  -29.0822   20.0494 C   0  0  0  0  0  0  0  0  0  0  0  0
  -25.8207  -35.1505   19.9363 C   0  0  0  0  0  0  0  0  0  0  0  0
  -25.9637  -19.8048   22.4331 C   0  0  0  0  0  0  0  0  0  0  0  0
  -25.8271  -28.4975   21.1958 C   0  0  0  0  0  0  0  0  0  0  0  0
  -27.5602  -21.2945   21.5005 C   0  0  0  0  0  0  0  0  0  0  0  0
  -22.6975   -8.2200   21.2070 C   0  0  0  0  0  0  0  0  0  0  0  0
  -27.1707  -27.0424   19.7861 C   0  0  0  0  0  0  0  0  0  0  0  0
  -21.9339   -6.3623   22.4268 C   0  0  0  0  0  0  0  0  0  0  0  0
  -21.0170   -5.2929   24.8348 C   0  0  0  0  0  0  0  0  0  0  0  0
  -22.6373   -5.3273   23.0430 C   0  0  0  0  0  0  0  0  0  0  0  0
  -23.6581  -12.3393   21.1276 C   0  0  0  0  0  0  0  0  0  0  0  0
  -26.2899  -20.3159   23.6835 C   0  0  0  0  0  0  0  0  0  0  0  0
  -24.6379  -14.2792   20.7931 C   0  0  0  0  0  0  0  0  0  0  0  0
  -25.8999  -12.3304   19.8669 C   0  0  0  0  0  0  0  0  0  0  0  0
  -25.4370  -31.8634   21.5796 C   0  0  0  0  0  0  0  0  0  0  0  0
  -23.7022  -30.2890   23.8233 C   0  0  0  0  0  0  0  0  0  0  0  0
  -22.7869  -27.3099   25.2139 C   0  0  0  0  0  0  0  0  0  0  0  0
  -23.3664  -18.2973   24.5304 C   0  0  0  0  0  0  0  0  0  0  0  0
  -24.9764  -36.9470   21.5335 C   0  0  0  0  0  0  0  0  0  0  0  0
  -24.2256  -30.1572   20.1734 C   0  0  0  0  0  0  0  0  0  0  0  0
  -24.9258  -18.7424   22.5454 C   0  0  0  0  0  0  0  0  0  0  0  0
  -25.4329  -28.9371   22.5814 C   0  0  0  0  0  0  0  0  0  0  0  0
  -24.9443  -35.8575   22.6022 C   0  0  0  0  0  0  0  0  0  0  0  0
  -20.6526  -16.8853   22.5025 C   0  0  0  0  0  0  0  0  0  0  0  0
  -26.1373  -34.9200   22.4448 C   0  0  0  0  0  0  0  0  0  0  0  0
  -21.2792  -15.6012   21.9549 C   0  0  0  0  0  0  0  0  0  0  0  0
  -21.2227  -17.2644   23.8677 C   0  0  0  0  0  0  0  0  0  0  0  0
  -23.3109  -16.0518   23.3767 C   0  0  0  0  0  0  0  0  0  0  0  0
  -26.1047  -34.2090   21.0865 C   0  0  1  0  0  0  0  0  0  0  0  0
  -25.4550  -19.6561   24.7495 C   0  0  2  0  0  0  0  0  0  0  0  0
  -24.2869  -30.8993   21.5048 C   0  0  1  0  0  0  0  0  0  0  0  0
  -22.8178  -15.6796   21.9722 C   0  0  1  0  0  0  0  0  0  0  0  0
  -27.1533  -17.8514   25.0780 C   0  0  0  0  0  0  0  0  0  0  0  0
  -21.3856  -26.3447   27.0584 C   0  0  0  0  0  0  0  0  0  0  0  0
  -25.8155  -31.1210   25.8608 C   0  0  0  0  0  0  0  0  0  0  0  0
  -24.9014  -29.3835   27.4144 C   0  0  0  0  0  0  0  0  0  0  0  0
  -23.4576  -31.2802   26.6792 C   0  0  0  0  0  0  0  0  0  0  0  0
  -21.0938  -25.8140   23.3022 C   0  0  0  0  0  0  0  0  0  0  0  0
  -28.2922  -21.8703   20.3393 C   0  0  0  0  0  0  0  0  0  0  0  0
  -26.3051  -18.8833   25.7495 C   0  0  0  0  0  0  0  0  0  0  0  0
  -28.5815  -23.8439   18.8361 C   0  0  0  0  0  0  0  0  0  0  0  0
  -27.9958  -25.2060   18.5201 C   0  0  0  0  0  0  0  0  0  1  0  0
  -24.0310  -29.4486   25.0334 C   0  0  1  0  0  0  0  0  0  0  0  0
  -21.4276  -26.7507   25.5934 C   0  0  2  0  0  0  0  0  0  0  0  0
  -24.5605  -30.3012   26.2210 C   0  0  0  0  0  0  0  0  0  0  0  0
  -27.1944  -21.2833   23.9079 N   0  0  0  0  0  0  0  0  0  0  0  0
  -22.8364  -13.2303   21.6887 N   0  0  0  0  0  0  0  0  0  0  0  0
  -23.4595  -14.4006   21.4691 N   0  0  0  0  0  0  0  0  0  0  0  0
  -24.4120  -29.9957   22.6503 N   0  0  0  0  0  0  0  0  0  0  0  0
  -24.5696  -18.7525   23.9810 N   0  0  0  0  0  0  0  0  0  0  0  0
  -22.6839  -17.2970   23.8302 N   0  0  0  0  0  0  0  0  0  0  0  0
  -25.3924  -15.3565   20.4888 N   0  0  0  0  0  0  0  0  0  0  0  0
  -25.9052  -10.9378   19.7088 N   0  0  0  0  0  0  0  0  0  0  0  0
  -25.1431  -33.1275   21.1051 N   0  0  0  0  0  0  0  0  0  0  0  0
  -22.8273  -28.6826   25.3378 N   0  0  0  0  0  0  0  0  0  0  0  0
  -21.1102  -25.5535   24.7647 N   0  3  0  0  0  0  0  0  0  0  0  0
  -27.8228  -23.2320   19.9573 N   0  3  0  0  0  0  0  0  0  0  0  0
  -26.8606  -13.0025   19.4210 O   0  0  0  0  0  0  0  0  0  0  0  0
  -26.5109  -31.4885   22.0353 O   0  0  0  0  0  0  0  0  0  0  0  0
  -22.8419  -31.1685   23.9134 O   0  0  0  0  0  0  0  0  0  0  0  0
  -23.7208  -26.5996   24.8479 O   0  0  0  0  0  0  0  0  0  0  0  0
  -22.9009  -18.7925   25.5646 O   0  0  0  0  0  0  0  0  0  0  0  0
  -22.3882   -6.8948   21.2320 O   0  0  0  0  0  0  0  0  0  0  0  0
  -28.1045  -26.0469   19.6609 O   0  0  0  0  0  0  0  0  0  1  0  0
  -20.5775   -4.7806   25.9917 F   0  0  0  0  0  0  0  0  0  0  0  0
  -23.7547   -4.8432   22.4836 F   0  0  0  0  0  0  0  0  0  0  0  0
  1  2  1  0  0  0  0
  1  5  2  0  0  0  0
  2  6  2  0  0  0  0
  3  8  2  0  0  0  0
  3 17  1  0  0  0  0
  4  9  1  0  0  0  0
  4 17  2  0  0  0  0
  5 19  1  0  0  0  0
  6 21  1  0  0  0  0
  7 10  2  0  0  0  0
  7 20  1  0  0  0  0
  8 25  1  0  0  0  0
  9 25  2  0  0  0  0
 10 26  1  0  0  0  0
 11 12  2  0  0  0  0
 11 27  1  0  0  0  0
 12 28  1  0  0  0  0
 13 22  1  0  0  0  0
 13 24  2  0  0  0  0
 14 23  1  0  0  0  0
 14 26  2  0  0  0  0
 15 28  2  0  0  0  0
 15 29  1  0  0  0  0
 16 24  1  0  0  0  0
 16 65  2  0  0  0  0
 17 30  1  0  0  0  0
 18 30  1  0  0  0  0
 18 32  2  0  0  0  0
 18 33  1  0  0  0  0
 19 21  2  0  0  0  0
 19 38  1  0  0  0  0
 20 23  2  0  0  0  0
 20 39  1  0  0  0  0
 21 48  1  0  0  0  0
 22 31  2  0  0  0  0
 22 40  1  0  0  0  0
 23 41  1  0  0  0  0
 24 58  1  0  0  0  0
 25 82  1  0  0  0  0
 26 83  1  0  0  0  0
 27 29  2  0  0  0  0
 27 82  1  0  0  0  0
 28 84  1  0  0  0  0
 29 85  1  0  0  0  0
 30 66  2  0  0  0  0
 31 49  1  0  0  0  0
 31 65  1  0  0  0  0
 32 67  1  0  0  0  0
 32 71  1  0  0  0  0
 33 72  1  0  0  0  0
 33 77  2  0  0  0  0
 34 50  1  0  0  0  0
 34 73  1  0  0  0  0
 34 78  2  0  0  0  0
 35 62  1  0  0  0  0
 35 68  1  0  0  0  0
 35 79  2  0  0  0  0
 36 63  1  0  0  0  0
 36 74  1  0  0  0  0
 36 80  2  0  0  0  0
 37 69  1  0  0  0  0
 37 70  1  0  0  0  0
 37 81  2  0  0  0  0
 38 42  1  0  0  0  0
 39 50  1  0  0  0  0
 40 69  1  0  0  0  0
 41 68  1  0  0  0  0
 42 44  1  0  0  0  0
 43 45  1  0  0  0  0
 43 46  1  0  0  0  0
 44 48  1  0  0  0  0
 45 51  1  0  0  0  0
 46 70  1  0  0  0  0
 47 51  1  0  0  0  0
 47 70  1  0  0  0  0
 48 73  1  0  0  0  0
 49 59  1  0  0  0  0
 49 69  1  0  0  0  0
 50 68  1  0  0  0  0
 51 67  1  0  0  0  0
 52 59  1  0  0  0  0
 53 63  1  0  0  0  0
 54 64  1  0  0  0  0
 55 64  1  0  0  0  0
 56 64  1  0  0  0  0
 57 75  1  0  0  0  0
 58 76  1  0  0  0  0
 60 61  1  0  0  0  0
 60 76  1  0  0  0  0
 61 83  1  0  0  0  0
 62 64  1  0  0  0  0
 62 74  1  0  0  0  0
 63 75  1  0  0  0  0
 66 67  1  0  0  0  0
M  CHG  2  75   1  76   1
M  ISO  4  37 100  61 101  69 100  83 101
M  END
> <Batch ID>
0129

> <Smiles>
CCC1c2ncc(CNC[101CH2:1][101O:1]c3ccc4c(c3)CN(C(=O)C(NC(=O)C(C)NC)C(C)(C)C)C(C(=O)NC3CCCc5ccccc53)C4)cc2C[100N:0]1[100C:0](=O)N1CCCC(n2nc(-c3ccc(Oc4ccc(F)cc4F)cc3)c(C(N)=O)c2N)C1

> <Shape>
0.243

> <Color>
0.125

> <Negative vol penalty>
0.000

$$$$

  -OEChem-04052320453D

 81 89  0     1  0  0  0  0  0999 V2000
  -16.6586  -29.0580   24.1193 C   0  0  0  0  0  0  0  0  0  0  0  0
  -17.0583  -28.3625   22.9827 C   0  0  0  0  0  0  0  0  0  0  0  0
  -25.2258  -15.2760   21.6851 C   0  0  0  0  0  0  0  0  0  0  0  0
  -24.8642  -15.4612   19.3035 C   0  0  0  0  0  0  0  0  0  0  0  0
  -17.4349  -30.1121   24.5991 C   0  0  0  0  0  0  0  0  0  0  0  0
  -18.2341  -28.7214   22.3246 C   0  0  0  0  0  0  0  0  0  0  0  0
  -22.1442  -24.9735   19.4662 C   0  0  0  0  0  0  0  0  0  0  0  0
  -23.9423  -14.7520   21.8392 C   0  0  0  0  0  0  0  0  0  0  0  0
  -23.5807  -14.9372   19.4576 C   0  0  0  0  0  0  0  0  0  0  0  0
  -22.3098  -24.6378   18.1232 C   0  0  0  0  0  0  0  0  0  0  0  0
  -22.1683  -11.8973   19.8877 C   0  0  0  0  0  0  0  0  0  0  0  0
  -21.7592  -10.9136   18.9874 C   0  0  0  0  0  0  0  0  0  0  0  0
  -24.0452  -26.3018   17.9273 C   0  0  0  0  0  0  0  0  0  0  0  0
  -26.2080  -22.6170   15.6366 C   0  0  0  0  0  0  0  0  0  0  0  0
  -19.9326  -12.3254   18.2750 C   0  0  0  0  0  0  0  0  0  0  0  0
  -26.3478  -24.2048   14.0462 C   0  0  0  0  0  0  0  0  0  0  0  0
  -25.6867  -15.6307   20.4172 C   0  0  0  0  0  0  0  0  0  0  0  0
  -28.2007  -15.4561   20.0211 C   0  0  0  0  0  0  0  0  0  0  0  0
  -18.6258  -30.4779   23.9522 C   0  0  0  0  0  0  0  0  0  0  0  0
  -22.9217  -25.9852   20.0480 C   0  0  0  0  0  0  0  0  0  0  0  0
  -19.0264  -29.7822   22.7954 C   0  0  0  0  0  0  0  0  0  0  0  0
  -23.8894  -26.6467   19.2786 C   0  0  0  0  0  0  0  0  0  0  0  0
  -25.4659  -23.3644   14.6891 C   0  0  0  0  0  0  0  0  0  0  0  0
  -23.1198  -14.5825   20.7255 C   0  0  0  0  0  0  0  0  0  0  0  0
  -23.2584  -25.3039   17.3528 C   0  0  0  0  0  0  0  0  0  0  0  0
  -21.4595  -13.0950   19.9817 C   0  0  0  0  0  0  0  0  0  0  0  0
  -20.6414  -11.1276   18.1810 C   0  0  0  0  0  0  0  0  0  0  0  0
  -20.3417  -13.3091   19.1753 C   0  0  0  0  0  0  0  0  0  0  0  0
  -27.0122  -16.1725   20.2575 C   0  0  0  0  0  0  0  0  0  0  0  0
  -27.5209  -23.0235   15.5440 C   0  0  0  0  0  0  0  0  0  0  0  0
  -29.1748  -16.4216   19.9474 C   0  0  0  0  0  0  0  0  0  0  0  0
  -28.4058  -14.0440   19.8806 C   0  0  0  0  0  0  0  0  0  0  0  0
  -22.3011  -28.7957   21.3970 C   0  0  0  0  0  0  0  0  0  0  0  0
  -25.4763  -28.7402   22.0584 C   0  0  0  0  0  0  0  0  0  0  0  0
  -28.5795  -27.5582   21.2711 C   0  0  0  0  0  0  0  0  0  0  0  0
  -28.9795  -22.2734   18.5591 C   0  0  0  0  0  0  0  0  0  0  0  0
  -19.4072  -31.6546   24.4806 C   0  0  0  0  0  0  0  0  0  0  0  0
  -22.7495  -26.3171   21.5049 C   0  0  0  0  0  0  0  0  0  0  0  0
  -24.7635  -27.7263   19.8608 C   0  0  0  0  0  0  0  0  0  0  0  0
  -20.8336  -31.7300   23.9422 C   0  0  0  0  0  0  0  0  0  0  0  0
  -30.2597  -20.7871   21.5483 C   0  0  0  0  0  0  0  0  0  0  0  0
  -20.8462  -31.5148   22.4321 C   0  0  0  0  0  0  0  0  0  0  0  0
  -29.6622  -19.3813   21.5507 C   0  0  0  0  0  0  0  0  0  0  0  0
  -29.2797  -21.8046   20.9736 C   0  0  0  0  0  0  0  0  0  0  0  0
  -28.1928  -20.0620   19.5961 C   0  0  0  0  0  0  0  0  0  0  0  0
  -20.3083  -30.1257   22.0682 C   0  0  1  0  0  0  0  0  0  0  0  0
  -23.2393  -27.7175   21.8606 C   0  0  1  0  0  0  0  0  0  0  0  0
  -29.1570  -18.9959   20.1497 C   0  0  2  0  0  0  0  0  0  0  0  0
  -23.5970  -21.8622   13.9261 C   0  0  0  0  0  0  0  0  0  0  0  0
  -31.0466  -27.1602   21.4997 C   0  0  0  0  0  0  0  0  0  0  0  0
  -25.6737  -31.4797   20.7293 C   0  0  0  0  0  0  0  0  0  0  0  0
  -28.1536  -31.1613   20.6007 C   0  0  0  0  0  0  0  0  0  0  0  0
  -27.0210  -31.2360   22.8220 C   0  0  0  0  0  0  0  0  0  0  0  0
  -28.7890  -24.6886   14.1531 C   0  0  0  0  0  0  0  0  0  0  0  0
  -28.1544  -25.1581   22.9497 C   0  0  0  0  0  0  0  0  0  0  0  0
  -23.1449  -23.6295   15.6678 C   0  0  0  0  0  0  0  0  0  1  0  0
  -23.9714  -23.2593   14.4287 C   0  0  1  0  0  0  0  0  0  0  0  0
  -26.7247  -29.2039   21.3474 C   0  0  1  0  0  0  0  0  0  0  0  0
  -29.6779  -26.9604   22.1317 C   0  0  2  0  0  0  0  0  0  0  0  0
  -26.8756  -30.7513   21.3631 C   0  0  0  0  0  0  0  0  0  0  0  0
  -27.2108  -17.4914   20.3294 N   0  0  0  0  0  0  0  0  0  0  0  0
  -27.5940  -23.9891   14.5743 N   0  0  0  0  0  0  0  0  0  0  0  0
  -28.5355  -17.6113   20.1372 N   0  0  0  0  0  0  0  0  0  0  0  0
  -24.5529  -28.0192   21.2882 N   0  0  0  0  0  0  0  0  0  0  0  0
  -28.8106  -21.3975   19.6463 N   0  0  0  0  0  0  0  0  0  0  0  0
  -30.5073  -16.3604   19.7397 N   0  0  0  0  0  0  0  0  0  0  0  0
  -27.2962  -13.1941   19.9837 N   0  0  0  0  0  0  0  0  0  0  0  0
  -28.6612  -22.6128   16.2450 N   0  0  0  0  0  0  0  0  0  0  0  0
  -21.3148  -29.1145   22.3108 N   0  0  0  0  0  0  0  0  0  0  0  0
  -27.8360  -28.4888   21.9656 N   0  0  0  0  0  0  0  0  0  0  0  0
  -28.5155  -21.8057   17.3399 N   0  0  0  0  0  0  0  0  0  0  0  0
  -29.4541  -25.4986   22.3158 N   0  3  0  0  0  0  0  0  0  0  0  0
  -29.5421  -13.5493   19.6861 O   0  0  0  0  0  0  0  0  0  0  0  0
  -22.4612  -29.3020   20.2926 O   0  0  0  0  0  0  0  0  0  0  0  0
  -25.3293  -29.0018   23.2549 O   0  0  0  0  0  0  0  0  0  0  0  0
  -28.4014  -27.2348   20.0988 O   0  0  0  0  0  0  0  0  0  0  0  0
  -29.5117  -23.3831   18.6736 O   0  0  0  0  0  0  0  0  0  0  0  0
  -21.8674  -14.0710   20.8755 O   0  0  0  0  0  0  0  0  0  0  0  0
  -23.4215  -24.9786   16.0415 O   0  0  0  0  0  0  0  0  0  1  0  0
  -20.2495  -10.1835   17.3154 F   0  0  0  0  0  0  0  0  0  0  0  0
  -19.6575  -14.4581   19.2603 F   0  0  0  0  0  0  0  0  0  0  0  0
  1  2  1  0  0  0  0
  1  5  2  0  0  0  0
  2  6  2  0  0  0  0
  3  8  2  0  0  0  0
  3 17  1  0  0  0  0
  4  9  1  0  0  0  0
  4 17  2  0  0  0  0
  5 19  1  0  0  0  0
  6 21  1  0  0  0  0
  7 10  2  0  0  0  0
  7 20  1  0  0  0  0
  8 24  1  0  0  0  0
  9 24  2  0  0  0  0
 10 25  1  0  0  0  0
 11 12  2  0  0  0  0
 11 26  1  0  0  0  0
 12 27  1  0  0  0  0
 13 22  1  0  0  0  0
 13 25  2  0  0  0  0
 14 23  1  0  0  0  0
 14 30  2  0  0  0  0
 15 27  2  0  0  0  0
 15 28  1  0  0  0  0
 16 23  2  0  0  0  0
 16 62  1  0  0  0  0
 17 29  1  0  0  0  0
 18 29  1  0  0  0  0
 18 31  2  0  0  0  0
 18 32  1  0  0  0  0
 19 21  2  0  0  0  0
 19 37  1  0  0  0  0
 20 22  2  0  0  0  0
 20 38  1  0  0  0  0
 21 46  1  0  0  0  0
 22 39  1  0  0  0  0
 23 57  1  0  0  0  0
 24 78  1  0  0  0  0
 25 79  1  0  0  0  0
 26 28  2  0  0  0  0
 26 78  1  0  0  0  0
 27 80  1  0  0  0  0
 28 81  1  0  0  0  0
 29 61  2  0  0  0  0
 30 62  1  0  0  0  0
 30 68  1  0  0  0  0
 31 63  1  0  0  0  0
 31 66  1  0  0  0  0
 32 67  1  0  0  0  0
 32 73  2  0  0  0  0
 33 47  1  0  0  0  0
 33 69  1  0  0  0  0
 33 74  2  0  0  0  0
 34 58  1  0  0  0  0
 34 64  1  0  0  0  0
 34 75  2  0  0  0  0
 35 59  1  0  0  0  0
 35 70  1  0  0  0  0
 35 76  2  0  0  0  0
 36 65  1  0  0  0  0
 36 71  1  0  0  0  0
 36 77  2  0  0  0  0
 37 40  1  0  0  0  0
 38 47  1  0  0  0  0
 39 64  1  0  0  0  0
 40 42  1  0  0  0  0
 41 43  1  0  0  0  0
 41 44  1  0  0  0  0
 42 46  1  0  0  0  0
 43 48  1  0  0  0  0
 44 65  1  0  0  0  0
 45 48  1  0  0  0  0
 45 65  1  0  0  0  0
 46 69  1  0  0  0  0
 47 64  1  0  0  0  0
 48 63  1  0  0  0  0
 49 57  1  0  0  0  0
 50 59  1  0  0  0  0
 51 60  1  0  0  0  0
 52 60  1  0  0  0  0
 53 60  1  0  0  0  0
 54 62  1  0  0  0  0
 55 72  1  0  0  0  0
 56 57  1  0  0  0  0
 56 79  1  0  0  0  0
 58 60  1  0  0  0  0
 58 70  1  0  0  0  0
 59 72  1  0  0  0  0
 61 63  1  0  0  0  0
 68 71  1  0  0  0  0
M  CHG  1  72   1
M  ISO  4  36 100  56 101  71 100  79 101
M  END
> <Batch ID>
0129

> <Smiles>
CNC(C)C(=O)NC(C(=O)N1Cc2cc([101O:1][101CH2:1]C(C)c3cc(N[100NH:0][100C:0](=O)N4CCCC(n5nc(-c6ccc(Oc7ccc(F)cc7F)cc6)c(C(N)=O)c5N)C4)n(C)c3)ccc2CC1C(=O)NC1CCCc2ccccc21)C(C)(C)C

> <Shape>
0.240

> <Color>
0.079

> <Negative vol penalty>
0.000

$$$$

  -OEChem-04052320453D

 81 89  0     1  0  0  0  0  0999 V2000
  -27.9433  -24.0666   17.5085 C   0  0  0  0  0  0  0  0  0  0  0  0
  -26.7556  -24.3687   18.1669 C   0  0  0  0  0  0  0  0  0  0  0  0
  -25.7925  -18.2278   22.0868 C   0  0  0  0  0  0  0  0  0  0  0  0
  -23.4679  -17.9392   21.4952 C   0  0  0  0  0  0  0  0  0  0  0  0
  -29.1513  -24.5754   17.9835 C   0  0  0  0  0  0  0  0  0  0  0  0
  -26.7754  -25.1791   19.3015 C   0  0  0  0  0  0  0  0  0  0  0  0
  -23.1279  -28.6916   19.2441 C   0  0  0  0  0  0  0  0  0  0  0  0
  -26.0993  -17.0129   21.4742 C   0  0  0  0  0  0  0  0  0  0  0  0
  -23.7747  -16.7242   20.8825 C   0  0  0  0  0  0  0  0  0  0  0  0
  -21.8383  -28.2758   19.5725 C   0  0  0  0  0  0  0  0  0  0  0  0
  -26.5767  -15.8579   18.3324 C   0  0  0  0  0  0  0  0  0  0  0  0
  -27.6988  -15.8142   17.5050 C   0  0  0  0  0  0  0  0  0  0  0  0
  -22.1314  -29.1477   21.8025 C   0  0  0  0  0  0  0  0  0  0  0  0
  -28.6765  -14.1178   18.9205 C   0  0  0  0  0  0  0  0  0  0  0  0
  -24.4768  -18.6910   22.0973 C   0  0  0  0  0  0  0  0  0  0  0  0
  -24.6679  -21.2166   22.4019 C   0  0  0  0  0  0  0  0  0  0  0  0
  -29.1848  -25.4003   19.1189 C   0  0  0  0  0  0  0  0  0  0  0  0
  -23.9343  -29.3299   20.1974 C   0  0  0  0  0  0  0  0  0  0  0  0
  -27.9852  -25.6983   19.7930 C   0  0  0  0  0  0  0  0  0  0  0  0
  -23.4300  -29.5730   21.4830 C   0  0  0  0  0  0  0  0  0  0  0  0
  -25.0904  -16.2611   20.8720 C   0  0  0  0  0  0  0  0  0  0  0  0
  -21.3409  -28.5012   20.8526 C   0  0  0  0  0  0  0  0  0  0  0  0
  -26.5045  -15.0316   19.4539 C   0  0  0  0  0  0  0  0  0  0  0  0
  -28.7487  -14.9442   17.7990 C   0  0  0  0  0  0  0  0  0  0  0  0
  -27.5544  -14.1616   19.7479 C   0  0  0  0  0  0  0  0  0  0  0  0
  -24.1592  -19.9457   22.7305 C   0  0  0  0  0  0  0  0  0  0  0  0
  -24.0600  -22.0699   23.2900 C   0  0  0  0  0  0  0  0  0  0  0  0
  -25.6060  -21.5921   21.3848 C   0  0  0  0  0  0  0  0  0  0  0  0
  -26.7167  -28.6700   21.5854 C   0  0  0  0  0  0  0  0  0  0  0  0
  -26.3479  -31.6362   22.8456 C   0  0  0  0  0  0  0  0  0  0  0  0
  -24.2344  -34.1629   23.7375 C   0  0  0  0  0  0  0  0  0  0  0  0
  -18.9262  -21.7824   26.3580 C   0  0  0  0  0  0  0  0  0  0  0  0
  -30.5201  -25.8881   19.6226 C   0  0  0  0  0  0  0  0  0  0  0  0
  -25.3135  -29.7962   19.8195 C   0  0  0  0  0  0  0  0  0  0  0  0
  -24.2480  -30.2723   22.5366 C   0  0  0  0  0  0  0  0  0  0  0  0
  -30.4119  -27.0452   20.6124 C   0  0  0  0  0  0  0  0  0  0  0  0
  -22.2006  -22.1858   27.6968 C   0  0  0  0  0  0  0  0  0  0  0  0
  -29.3434  -26.7526   21.6610 C   0  0  0  0  0  0  0  0  0  0  0  0
  -23.1197  -21.7721   26.5462 C   0  0  0  0  0  0  0  0  0  0  0  0
  -19.1439  -25.4343   21.7928 C   0  0  0  0  0  0  0  0  0  0  0  0
  -18.4076  -26.3132   24.0368 C   0  0  0  0  0  0  0  0  0  0  0  0
  -20.9328  -21.3355   27.7401 C   0  0  0  0  0  0  0  0  0  0  0  0
  -21.0949  -20.8740   25.3246 C   0  0  0  0  0  0  0  0  0  0  0  0
  -18.0871  -24.3420   21.8809 C   0  0  0  0  0  0  0  0  0  0  0  0
  -17.3542  -25.2168   24.1135 C   0  0  0  0  0  0  0  0  0  0  0  0
  -27.9629  -26.5941   21.0125 C   0  0  1  0  0  0  0  0  0  0  0  0
  -26.2338  -29.9769   21.0227 C   0  0  1  0  0  0  0  0  0  0  0  0
  -18.7417  -26.6821   22.5871 C   0  0  0  0  0  0  0  0  0  0  0  0
  -22.3607  -21.7400   25.2060 C   0  0  2  0  0  0  0  0  0  0  0  0
  -24.2226  -36.4464   24.7782 C   0  0  0  0  0  0  0  0  0  0  0  0
  -16.0360  -21.0332   25.0498 C   0  0  0  0  0  0  0  0  0  0  0  0
  -26.7567  -30.3818   25.5969 C   0  0  0  0  0  0  0  0  0  0  0  0
  -25.8079  -32.4651   26.6107 C   0  0  0  0  0  0  0  0  0  0  0  0
  -27.9085  -32.5774   25.2699 C   0  0  0  0  0  0  0  0  0  0  0  0
  -23.0948  -35.3950   21.2999 C   0  0  0  0  0  0  0  0  0  0  0  0
  -19.8458  -27.7360   22.5364 C   0  0  0  0  0  0  0  0  0  1  0  0
  -16.8718  -22.8570   23.4715 C   0  0  0  0  0  0  0  0  0  0  0  0
  -25.7045  -32.1962   24.0912 C   0  0  1  0  0  0  0  0  0  0  0  0
  -24.2862  -35.6579   23.4793 C   0  0  2  0  0  0  0  0  0  0  0  0
  -17.0051  -22.1931   24.8415 C   0  0  2  0  0  0  0  0  0  0  0  0
  -26.5294  -31.8902   25.3731 C   0  0  0  0  0  0  0  0  0  0  0  0
  -23.2948  -19.9837   23.7480 N   0  0  0  0  0  0  0  0  0  0  0  0
  -23.2557  -21.2887   24.0665 N   0  0  0  0  0  0  0  0  0  0  0  0
  -25.5928  -30.7036   22.1205 N   0  0  0  0  0  0  0  0  0  0  0  0
  -20.2597  -21.3484   26.4391 N   0  0  0  0  0  0  0  0  0  0  0  0
  -24.1404  -23.4048   23.4746 N   0  0  0  0  0  0  0  0  0  0  0  0
  -26.9705  -21.6012   21.7048 N   0  0  0  0  0  0  0  0  0  0  0  0
  -27.4091  -27.8891   20.6798 N   0  0  0  0  0  0  0  0  0  0  0  0
  -25.4970  -33.6181   23.8394 N   0  0  0  0  0  0  0  0  0  0  0  0
  -18.3656  -21.7693   25.0867 N   0  0  0  0  0  0  0  0  0  0  0  0
  -17.8214  -24.0146   23.3299 N   0  3  0  0  0  0  0  0  0  0  0  0
  -23.1425  -36.0751   22.6198 N   0  3  0  0  0  0  0  0  0  0  0  0
  -25.2438  -21.9260   20.2312 O   0  0  0  0  0  0  0  0  0  0  0  0
  -26.4800  -28.3915   22.7551 O   0  0  0  0  0  0  0  0  0  0  0  0
  -27.4760  -32.0177   22.5239 O   0  0  0  0  0  0  0  0  0  0  0  0
  -23.1794  -33.5412   23.8423 O   0  0  0  0  0  0  0  0  0  0  0  0
  -18.2846  -22.1591   27.3446 O   0  0  0  0  0  0  0  0  0  0  0  0
  -25.3895  -15.0756   20.2739 O   0  0  0  0  0  0  0  0  0  0  0  0
  -20.0828  -28.0958   21.1759 O   0  0  0  0  0  0  0  0  0  1  0  0
  -29.8255  -14.9012   17.0035 F   0  0  0  0  0  0  0  0  0  0  0  0
  -27.4902  -13.3645   20.8233 F   0  0  0  0  0  0  0  0  0  0  0  0
  1  2  1  0  0  0  0
  1  5  2  0  0  0  0
  2  6  2  0  0  0  0
  3  8  2  0  0  0  0
  3 15  1  0  0  0  0
  4  9  1  0  0  0  0
  4 15  2  0  0  0  0
  5 17  1  0  0  0  0
  6 19  1  0  0  0  0
  7 10  2  0  0  0  0
  7 18  1  0  0  0  0
  8 21  1  0  0  0  0
  9 21  2  0  0  0  0
 10 22  1  0  0  0  0
 11 12  2  0  0  0  0
 11 23  1  0  0  0  0
 12 24  1  0  0  0  0
 13 20  1  0  0  0  0
 13 22  2  0  0  0  0
 14 24  2  0  0  0  0
 14 25  1  0  0  0  0
 15 26  1  0  0  0  0
 16 26  1  0  0  0  0
 16 27  2  0  0  0  0
 16 28  1  0  0  0  0
 17 19  2  0  0  0  0
 17 33  1  0  0  0  0
 18 20  2  0  0  0  0
 18 34  1  0  0  0  0
 19 46  1  0  0  0  0
 20 35  1  0  0  0  0
 21 78  1  0  0  0  0
 22 79  1  0  0  0  0
 23 25  2  0  0  0  0
 23 78  1  0  0  0  0
 24 80  1  0  0  0  0
 25 81  1  0  0  0  0
 26 62  2  0  0  0  0
 27 63  1  0  0  0  0
 27 66  1  0  0  0  0
 28 67  1  0  0  0  0
 28 73  2  0  0  0  0
 29 47  1  0  0  0  0
 29 68  1  0  0  0  0
 29 74  2  0  0  0  0
 30 58  1  0  0  0  0
 30 64  1  0  0  0  0
 30 75  2  0  0  0  0
 31 59  1  0  0  0  0
 31 69  1  0  0  0  0
 31 76  2  0  0  0  0
 32 65  1  0  0  0  0
 32 70  1  0  0  0  0
 32 77  2  0  0  0  0
 33 36  1  0  0  0  0
 34 47  1  0  0  0  0
 35 64  1  0  0  0  0
 36 38  1  0  0  0  0
 37 39  1  0  0  0  0
 37 42  1  0  0  0  0
 38 46  1  0  0  0  0
 39 49  1  0  0  0  0
 40 44  1  0  0  0  0
 40 48  1  0  0  0  0
 41 45  1  0  0  0  0
 41 48  1  0  0  0  0
 42 65  1  0  0  0  0
 43 49  1  0  0  0  0
 43 65  1  0  0  0  0
 44 71  1  0  0  0  0
 45 71  1  0  0  0  0
 46 68  1  0  0  0  0
 47 64  1  0  0  0  0
 48 56  1  0  0  0  0
 49 63  1  0  0  0  0
 50 59  1  0  0  0  0
 51 60  1  0  0  0  0
 52 61  1  0  0  0  0
 53 61  1  0  0  0  0
 54 61  1  0  0  0  0
 55 72  1  0  0  0  0
 56 79  1  0  0  0  0
 57 60  1  0  0  0  0
 57 71  1  0  0  0  0
 58 61  1  0  0  0  0
 58 69  1  0  0  0  0
 59 72  1  0  0  0  0
 60 70  1  0  0  0  0
 62 63  1  0  0  0  0
M  CHG  2  71   1  72   1
M  ISO  4  32 100  56 101  70 100  79 101
M  END
> <Batch ID>
0129

> <Smiles>
CNC(C)C(=O)NC(C(=O)N1Cc2cc([101O:1][101CH2:1]C3CCN(CC(C)[100NH:0][100C:0](=O)N4CCCC(n5nc(-c6ccc(Oc7ccc(F)cc7F)cc6)c(C(N)=O)c5N)C4)CC3)ccc2CC1C(=O)NC1CCCc2ccccc21)C(C)(C)C

> <Shape>
0.236

> <Color>
0.068

> <Negative vol penalty>
0.000

$$$$

  -OEChem-04052320453D

 87 96  0     1  0  0  0  0  0999 V2000
  -22.3777  -11.0984   19.2405 C   0  0  0  0  0  0  0  0  0  0  0  0
  -21.8079  -12.3321   19.5384 C   0  0  0  0  0  0  0  0  0  0  0  0
  -29.4628  -26.6453   21.8648 C   0  0  0  0  0  0  0  0  0  0  0  0
  -27.7276  -24.9642   21.8571 C   0  0  0  0  0  0  0  0  0  0  0  0
  -23.7010  -10.8393   19.5949 C   0  0  0  0  0  0  0  0  0  0  0  0
  -22.5608  -13.3071   20.1919 C   0  0  0  0  0  0  0  0  0  0  0  0
  -23.3735  -20.4146   20.5647 C   0  0  0  0  0  0  0  0  0  0  0  0
  -30.2824  -25.7959   22.6081 C   0  0  0  0  0  0  0  0  0  0  0  0
  -28.5471  -24.1148   22.6004 C   0  0  0  0  0  0  0  0  0  0  0  0
  -23.4076  -21.4472   21.5009 C   0  0  0  0  0  0  0  0  0  0  0  0
  -29.4966  -23.7626   25.8262 C   0  0  0  0  0  0  0  0  0  0  0  0
  -28.9250  -23.0943   26.9088 C   0  0  0  0  0  0  0  0  0  0  0  0
  -25.7084  -20.9161   21.9940 C   0  0  0  0  0  0  0  0  0  0  0  0
  -19.7255  -25.8228   24.1706 C   0  0  0  0  0  0  0  0  0  0  0  0
  -29.4729  -20.9737   25.8889 C   0  0  0  0  0  0  0  0  0  0  0  0
  -28.1854  -26.2294   21.4894 C   0  0  0  0  0  0  0  0  0  0  0  0
  -27.2563  -27.1971   19.3195 C   0  0  0  0  0  0  0  0  0  0  0  0
  -24.4735  -11.8150   20.2445 C   0  0  0  0  0  0  0  0  0  0  0  0
  -24.5053  -19.6167   20.3436 C   0  0  0  0  0  0  0  0  0  0  0  0
  -23.8953  -13.0602   20.5565 C   0  0  0  0  0  0  0  0  0  0  0  0
  -25.6869  -19.8756   21.0527 C   0  0  0  0  0  0  0  0  0  0  0  0
  -20.4585  -24.7755   24.7176 C   0  0  0  0  0  0  0  0  0  0  0  0
  -21.6457  -25.0422   25.3904 C   0  0  0  0  0  0  0  0  0  0  0  0
  -29.8246  -24.5307   22.9759 C   0  0  0  0  0  0  0  0  0  0  0  0
  -24.5742  -21.6962   22.2178 C   0  0  0  0  0  0  0  0  0  0  0  0
  -30.0563  -23.0365   24.7748 C   0  0  0  0  0  0  0  0  0  0  0  0
  -28.9132  -21.6998   26.9402 C   0  0  0  0  0  0  0  0  0  0  0  0
  -30.0445  -21.6421   24.8062 C   0  0  0  0  0  0  0  0  0  0  0  0
  -27.3381  -27.1066   20.7220 C   0  0  0  0  0  0  0  0  0  0  0  0
  -20.2189  -27.1086   24.3227 C   0  0  0  0  0  0  0  0  0  0  0  0
  -22.0533  -26.3629   25.4877 C   0  0  0  0  0  0  0  0  0  0  0  0
  -26.3137  -28.1699   19.0926 C   0  0  0  0  0  0  0  0  0  0  0  0
  -27.9687  -26.4670   18.3120 C   0  0  0  0  0  0  0  0  0  0  0  0
  -25.1705  -16.5262   20.6752 C   0  0  0  0  0  0  0  0  0  0  0  0
  -27.9669  -17.3764   19.2683 C   0  0  0  0  0  0  0  0  0  0  0  0
  -30.2342  -19.8322   18.5792 C   0  0  0  0  0  0  0  0  0  0  0  0
  -21.7230  -30.2347   22.3352 C   0  0  0  0  0  0  0  0  0  0  0  0
  -25.8850  -11.4718   20.6500 C   0  0  0  0  0  0  0  0  0  0  0  0
  -24.4605  -18.5239   19.3111 C   0  0  0  0  0  0  0  0  0  0  0  0
  -26.9354  -19.0609   20.8379 C   0  0  0  0  0  0  0  0  0  0  0  0
  -26.7304  -12.6922   21.0056 C   0  0  0  0  0  0  0  0  0  0  0  0
  -24.4605  -32.1191   21.0576 C   0  0  0  0  0  0  0  0  0  0  0  0
  -18.4767  -23.1528   24.3810 C   0  0  0  0  0  0  0  0  0  0  0  0
  -19.1256  -22.7804   25.6774 C   0  0  0  0  0  0  0  0  0  0  0  0
  -25.9553  -13.6282   21.9275 C   0  0  0  0  0  0  0  0  0  0  0  0
  -25.5010  -31.0563   20.7002 C   0  0  0  0  0  0  0  0  0  0  0  0
  -23.6846  -31.7474   22.3193 C   0  0  0  0  0  0  0  0  0  0  0  0
  -24.1002  -29.3490   21.9337 C   0  0  0  0  0  0  0  0  0  0  0  0
  -19.9530  -23.3786   24.5709 C   0  0  0  0  0  0  0  0  0  0  0  0
  -24.6874  -14.1522   21.2424 C   0  0  1  0  0  0  0  0  0  0  0  0
  -25.5148  -17.4447   19.5371 C   0  0  1  0  0  0  0  0  0  0  0  0
  -24.8697  -29.6524   20.6368 C   0  0  2  0  0  0  0  0  0  0  0  0
  -23.4352  -28.2072   26.4754 C   0  0  0  0  0  0  0  0  0  0  0  0
  -32.4387  -20.2156   17.4432 C   0  0  0  0  0  0  0  0  0  0  0  0
  -29.4037  -16.0665   21.6198 C   0  0  0  0  0  0  0  0  0  0  0  0
  -31.4822  -17.2844   20.9382 C   0  0  0  0  0  0  0  0  0  0  0  0
  -30.4432  -15.6294   19.3876 C   0  0  0  0  0  0  0  0  0  0  0  0
  -29.0469  -21.7556   16.6687 C   0  0  0  0  0  0  0  0  0  0  0  0
  -22.4633  -23.9284   25.9942 C   0  0  0  0  0  0  0  0  0  0  0  0
  -19.4586  -28.2570   23.7480 C   0  0  0  0  0  0  0  0  0  0  0  0
  -23.3199  -26.7113   26.1990 C   0  0  0  0  0  0  0  0  0  0  0  0
  -23.7083  -23.5676   25.1810 C   0  0  0  0  0  0  0  0  0  0  0  0
  -19.8580  -28.5976   22.3076 C   0  0  0  0  0  0  0  0  0  0  0  0
  -23.3867  -23.0233   23.7940 C   0  0  0  0  0  0  0  0  0  1  0  0
  -29.3095  -17.8579   19.7629 C   0  0  1  0  0  0  0  0  0  0  0  0
  -30.9260  -20.2311   17.2881 C   0  0  2  0  0  0  0  0  0  0  0  0
  -30.1357  -16.7238   20.4328 C   0  0  0  0  0  0  0  0  0  0  0  0
  -26.5133  -27.9544   21.3424 N   0  0  0  0  0  0  0  0  0  0  0  0
  -21.3680  -27.4067   24.9694 N   0  0  0  0  0  0  0  0  0  0  0  0
  -25.9043  -28.5870   20.3250 N   0  0  0  0  0  0  0  0  0  0  0  0
  -26.8396  -17.9996   19.8221 N   0  0  0  0  0  0  0  0  0  0  0  0
  -23.1100  -30.4058   22.1939 N   0  0  0  0  0  0  0  0  0  0  0  0
  -25.8034  -28.7008   17.9612 N   0  0  0  0  0  0  0  0  0  0  0  0
  -28.9015  -25.5034   18.7190 N   0  0  0  0  0  0  0  0  0  0  0  0
  -25.0175  -15.2038   20.3045 N   0  0  0  0  0  0  0  0  0  0  0  0
  -29.9668  -18.4801   18.6187 N   0  0  0  0  0  0  0  0  0  0  0  0
  -21.2603  -28.9320   22.1954 N   0  0  0  0  0  0  0  0  0  0  0  0
  -30.5094  -21.6024   16.8795 N   0  3  0  0  0  0  0  0  0  0  0  0
  -27.7954  -26.6749   17.0871 O   0  0  0  0  0  0  0  0  0  0  0  0
  -25.0538  -16.9831   21.8063 O   0  0  0  0  0  0  0  0  0  0  0  0
  -27.9202  -16.4853   18.4166 O   0  0  0  0  0  0  0  0  0  0  0  0
  -29.9620  -20.6388   19.4657 O   0  0  0  0  0  0  0  0  0  0  0  0
  -20.9534  -31.1741   22.5633 O   0  0  0  0  0  0  0  0  0  0  0  0
  -30.6241  -23.7016   23.7010 O   0  0  0  0  0  0  0  0  0  0  0  0
  -24.6099  -22.7030   23.1326 O   0  0  0  0  0  0  0  0  0  1  0  0
  -28.3656  -21.0581   27.9807 F   0  0  0  0  0  0  0  0  0  0  0  0
  -30.5817  -20.9391   23.7997 F   0  0  0  0  0  0  0  0  0  0  0  0
  1  2  1  0  0  0  0
  1  5  2  0  0  0  0
  2  6  2  0  0  0  0
  3  8  2  0  0  0  0
  3 16  1  0  0  0  0
  4  9  1  0  0  0  0
  4 16  2  0  0  0  0
  5 18  1  0  0  0  0
  6 20  1  0  0  0  0
  7 10  2  0  0  0  0
  7 19  1  0  0  0  0
  8 24  1  0  0  0  0
  9 24  2  0  0  0  0
 10 25  1  0  0  0  0
 11 12  2  0  0  0  0
 11 26  1  0  0  0  0
 12 27  1  0  0  0  0
 13 21  1  0  0  0  0
 13 25  2  0  0  0  0
 14 22  2  0  0  0  0
 14 30  1  0  0  0  0
 15 27  2  0  0  0  0
 15 28  1  0  0  0  0
 16 29  1  0  0  0  0
 17 29  1  0  0  0  0
 17 32  2  0  0  0  0
 17 33  1  0  0  0  0
 18 20  2  0  0  0  0
 18 38  1  0  0  0  0
 19 21  2  0  0  0  0
 19 39  1  0  0  0  0
 20 50  1  0  0  0  0
 21 40  1  0  0  0  0
 22 23  1  0  0  0  0
 22 49  1  0  0  0  0
 23 31  2  0  0  0  0
 23 59  1  0  0  0  0
 24 84  1  0  0  0  0
 25 85  1  0  0  0  0
 26 28  2  0  0  0  0
 26 84  1  0  0  0  0
 27 86  1  0  0  0  0
 28 87  1  0  0  0  0
 29 68  2  0  0  0  0
 30 60  1  0  0  0  0
 30 69  2  0  0  0  0
 31 61  1  0  0  0  0
 31 69  1  0  0  0  0
 32 70  1  0  0  0  0
 32 73  1  0  0  0  0
 33 74  1  0  0  0  0
 33 79  2  0  0  0  0
 34 51  1  0  0  0  0
 34 75  1  0  0  0  0
 34 80  2  0  0  0  0
 35 65  1  0  0  0  0
 35 71  1  0  0  0  0
 35 81  2  0  0  0  0
 36 66  1  0  0  0  0
 36 76  1  0  0  0  0
 36 82  2  0  0  0  0
 37 72  1  0  0  0  0
 37 77  1  0  0  0  0
 37 83  2  0  0  0  0
 38 41  1  0  0  0  0
 39 51  1  0  0  0  0
 40 71  1  0  0  0  0
 41 45  1  0  0  0  0
 42 46  1  0  0  0  0
 42 47  1  0  0  0  0
 43 44  1  0  0  0  0
 43 49  1  0  0  0  0
 44 49  1  0  0  0  0
 45 50  1  0  0  0  0
 46 52  1  0  0  0  0
 47 72  1  0  0  0  0
 48 52  1  0  0  0  0
 48 72  1  0  0  0  0
 50 75  1  0  0  0  0
 51 71  1  0  0  0  0
 52 70  1  0  0  0  0
 53 61  1  0  0  0  0
 54 66  1  0  0  0  0
 55 67  1  0  0  0  0
 56 67  1  0  0  0  0
 57 67  1  0  0  0  0
 58 78  1  0  0  0  0
 59 62  1  0  0  0  0
 60 63  1  0  0  0  0
 62 64  1  0  0  0  0
 63 77  1  0  0  0  0
 64 85  1  0  0  0  0
 65 67  1  0  0  0  0
 65 76  1  0  0  0  0
 66 78  1  0  0  0  0
 68 70  1  0  0  0  0
M  CHG  1  78   1
M  ISO  4  37 100  64 101  77 100  85 101
M  END
> <Batch ID>
0129

> <Smiles>
CCc1nc(CC[100NH:0][100C:0](=O)N2CCCC(n3nc(-c4ccc(Oc5ccc(F)cc5F)cc4)c(C(N)=O)c3N)C2)cc(C2CC2)c1CC[101CH2:1][101O:1]c1ccc2c(c1)CN(C(=O)C(NC(=O)C(C)NC)C(C)(C)C)C(C(=O)NC1CCCc3ccccc31)C2

> <Shape>
0.195

> <Color>
0.079

> <Negative vol penalty>
0.000

$$$$

  -OEChem-04052320453D

 84 92  0     1  0  0  0  0  0999 V2000
  -30.8197  -29.5750   20.0164 C   0  0  0  0  0  0  0  0  0  0  0  0
  -29.7576  -28.8303   20.5191 C   0  0  0  0  0  0  0  0  0  0  0  0
  -18.6263  -28.8460   23.2894 C   0  0  0  0  0  0  0  0  0  0  0  0
  -23.1638  -17.1053   19.7218 C   0  0  0  0  0  0  0  0  0  0  0  0
  -24.4402  -18.1897   21.4630 C   0  0  0  0  0  0  0  0  0  0  0  0
  -31.6161  -29.0520   18.9984 C   0  0  0  0  0  0  0  0  0  0  0  0
  -29.4905  -27.5626   20.0034 C   0  0  0  0  0  0  0  0  0  0  0  0
  -28.5560  -24.1491   23.6255 C   0  0  0  0  0  0  0  0  0  0  0  0
  -18.5768  -28.8352   21.8955 C   0  0  0  0  0  0  0  0  0  0  0  0
  -19.3699  -27.8807   23.9685 C   0  0  0  0  0  0  0  0  0  0  0  0
  -24.0709  -16.0458   19.7166 C   0  0  0  0  0  0  0  0  0  0  0  0
  -25.3474  -17.1301   21.4579 C   0  0  0  0  0  0  0  0  0  0  0  0
  -27.2900  -24.1704   24.2092 C   0  0  0  0  0  0  0  0  0  0  0  0
  -25.8515  -12.8841   19.4975 C   0  0  0  0  0  0  0  0  0  0  0  0
  -25.3354  -11.5886   19.4695 C   0  0  0  0  0  0  0  0  0  0  0  0
  -26.6205  -22.3227   22.8103 C   0  0  0  0  0  0  0  0  0  0  0  0
  -24.1867  -12.0012   21.5546 C   0  0  0  0  0  0  0  0  0  0  0  0
  -23.3484  -18.1773   20.5950 C   0  0  0  0  0  0  0  0  0  0  0  0
  -21.2467  -19.3905   21.3814 C   0  0  0  0  0  0  0  0  0  0  0  0
  -31.3645  -27.7733   18.4766 C   0  0  0  0  0  0  0  0  0  0  0  0
  -28.8608  -23.2199   22.6205 C   0  0  0  0  0  0  0  0  0  0  0  0
  -30.2834  -27.0226   18.9766 C   0  0  0  0  0  0  0  0  0  0  0  0
  -27.8919  -22.2900   22.2173 C   0  0  0  0  0  0  0  0  0  0  0  0
  -19.2708  -27.8590   21.1806 C   0  0  0  0  0  0  0  0  0  0  0  0
  -20.0638  -26.9045   23.2535 C   0  0  0  0  0  0  0  0  0  0  0  0
  -20.0143  -26.8937   21.8596 C   0  0  0  0  0  0  0  0  0  0  0  0
  -25.1627  -16.0582   20.5846 C   0  0  0  0  0  0  0  0  0  0  0  0
  -26.3212  -23.2591   23.7996 C   0  0  0  0  0  0  0  0  0  0  0  0
  -25.5354  -13.7382   20.5540 C   0  0  0  0  0  0  0  0  0  0  0  0
  -24.5030  -11.1471   20.4980 C   0  0  0  0  0  0  0  0  0  0  0  0
  -24.7029  -13.2967   21.5825 C   0  0  0  0  0  0  0  0  0  0  0  0
  -22.4120  -19.2724   20.6004 C   0  0  0  0  0  0  0  0  0  0  0  0
  -20.7122  -20.6029   21.0194 C   0  0  0  0  0  0  0  0  0  0  0  0
  -20.6966  -18.4854   22.3477 C   0  0  0  0  0  0  0  0  0  0  0  0
  -29.7129  -23.4196   19.5647 C   0  0  0  0  0  0  0  0  0  0  0  0
  -30.0653  -20.2083   19.8570 C   0  0  0  0  0  0  0  0  0  0  0  0
  -29.6214  -17.7234   21.7382 C   0  0  0  0  0  0  0  0  0  0  0  0
  -21.2691  -26.0198   19.8575 C   0  0  0  0  0  0  0  0  0  0  0  0
  -32.2237  -27.2695   17.3440 C   0  0  0  0  0  0  0  0  0  0  0  0
  -30.2395  -23.1925   22.0197 C   0  0  0  0  0  0  0  0  0  0  0  0
  -28.1752  -21.2590   21.1565 C   0  0  0  0  0  0  0  0  0  0  0  0
  -32.1041  -25.7656   17.1111 C   0  0  0  0  0  0  0  0  0  0  0  0
  -21.8985  -23.7209   17.2125 C   0  0  0  0  0  0  0  0  0  0  0  0
  -30.6391  -25.3407   17.1083 C   0  0  0  0  0  0  0  0  0  0  0  0
  -21.9923  -22.3684   17.9224 C   0  0  0  0  0  0  0  0  0  0  0  0
  -22.5056  -24.8446   18.0506 C   0  0  0  0  0  0  0  0  0  0  0  0
  -22.0808  -23.5945   20.1305 C   0  0  0  0  0  0  0  0  0  0  0  0
  -29.9772  -25.6334   18.4602 C   0  0  1  0  0  0  0  0  0  0  0  0
  -30.2781  -22.5380   20.6422 C   0  0  1  0  0  0  0  0  0  0  0  0
  -21.4239  -22.4422   19.3531 C   0  0  2  0  0  0  0  0  0  0  0  0
  -19.1983  -27.8734   19.6878 C   0  0  0  0  0  0  0  0  0  0  0  0
  -29.4934  -15.2675   22.2376 C   0  0  0  0  0  0  0  0  0  0  0  0
  -28.2341  -19.9126   17.4343 C   0  0  0  0  0  0  0  0  0  0  0  0
  -27.9302  -17.5038   18.0454 C   0  0  0  0  0  0  0  0  0  0  0  0
  -30.1964  -18.3624   17.4541 C   0  0  0  0  0  0  0  0  0  0  0  0
  -31.7579  -17.9087   23.7778 C   0  0  0  0  0  0  0  0  0  0  0  0
  -20.8588  -25.8752   24.0165 C   0  0  0  0  0  0  0  0  0  0  0  0
  -20.1478  -24.5231   24.1607 C   0  0  0  0  0  0  0  0  0  0  0  0
  -20.8969  -23.4730   24.9753 C   0  0  0  0  0  0  0  0  0  0  0  0
  -23.0626  -22.2415   25.1543 C   0  0  0  0  0  0  0  0  0  0  0  0
  -24.3852  -22.0365   24.4424 C   0  0  0  0  0  0  0  0  0  1  0  0
  -29.1637  -19.0122   19.6684 C   0  0  1  0  0  0  0  0  0  0  0  0
  -30.3760  -16.5060   22.2411 C   0  0  2  0  0  0  0  0  0  0  0  0
  -28.8748  -18.7183   18.1692 C   0  0  0  0  0  0  0  0  0  0  0  0
  -22.6069  -20.3256   19.8024 N   0  0  0  0  0  0  0  0  0  0  0  0
  -21.5568  -21.1170   20.0799 N   0  0  0  0  0  0  0  0  0  0  0  0
  -29.5360  -21.2766   20.5948 N   0  0  0  0  0  0  0  0  0  0  0  0
  -21.9163  -24.8560   19.3913 N   0  0  0  0  0  0  0  0  0  0  0  0
  -19.6068  -21.2686   21.4161 N   0  0  0  0  0  0  0  0  0  0  0  0
  -21.3732  -17.2840   22.5988 N   0  0  0  0  0  0  0  0  0  0  0  0
  -20.7189  -25.9017   21.1335 N   0  0  0  0  0  0  0  0  0  0  0  0
  -30.3578  -24.6349   19.4361 N   0  0  0  0  0  0  0  0  0  0  0  0
  -29.7954  -17.9082   20.3829 N   0  0  0  0  0  0  0  0  0  0  0  0
  -30.8596  -16.7345   23.6321 N   0  3  0  0  0  0  0  0  0  0  0  0
  -22.2386  -23.2102   24.3883 N   0  3  0  0  0  0  0  0  0  0  0  0
  -19.6277  -18.7272   22.9580 O   0  0  0  0  0  0  0  0  0  0  0  0
  -28.7630  -23.0257   18.8982 O   0  0  0  0  0  0  0  0  0  0  0  0
  -31.2002  -20.1922   19.3738 O   0  0  0  0  0  0  0  0  0  0  0  0
  -28.9424  -18.4369   22.4734 O   0  0  0  0  0  0  0  0  0  0  0  0
  -21.1837  -27.0367   19.1643 O   0  0  0  0  0  0  0  0  0  0  0  0
  -26.0480  -15.0243   20.5800 O   0  0  0  0  0  0  0  0  0  0  0  0
  -25.0845  -23.2782   24.3672 O   0  0  0  0  0  0  0  0  0  1  0  0
  -24.0061   -9.9035   20.4702 F   0  0  0  0  0  0  0  0  0  0  0  0
  -24.3947  -14.1130   22.5996 F   0  0  0  0  0  0  0  0  0  0  0  0
  1  2  1  0  0  0  0
  1  6  2  0  0  0  0
  2  7  2  0  0  0  0
  3  9  1  0  0  0  0
  3 10  2  0  0  0  0
  4 11  2  0  0  0  0
  4 18  1  0  0  0  0
  5 12  1  0  0  0  0
  5 18  2  0  0  0  0
  6 20  1  0  0  0  0
  7 22  1  0  0  0  0
  8 13  2  0  0  0  0
  8 21  1  0  0  0  0
  9 24  2  0  0  0  0
 10 25  1  0  0  0  0
 11 27  1  0  0  0  0
 12 27  2  0  0  0  0
 13 28  1  0  0  0  0
 14 15  2  0  0  0  0
 14 29  1  0  0  0  0
 15 30  1  0  0  0  0
 16 23  1  0  0  0  0
 16 28  2  0  0  0  0
 17 30  2  0  0  0  0
 17 31  1  0  0  0  0
 18 32  1  0  0  0  0
 19 32  1  0  0  0  0
 19 33  2  0  0  0  0
 19 34  1  0  0  0  0
 20 22  2  0  0  0  0
 20 39  1  0  0  0  0
 21 23  2  0  0  0  0
 21 40  1  0  0  0  0
 22 48  1  0  0  0  0
 23 41  1  0  0  0  0
 24 26  1  0  0  0  0
 24 51  1  0  0  0  0
 25 26  2  0  0  0  0
 25 57  1  0  0  0  0
 26 71  1  0  0  0  0
 27 81  1  0  0  0  0
 28 82  1  0  0  0  0
 29 31  2  0  0  0  0
 29 81  1  0  0  0  0
 30 83  1  0  0  0  0
 31 84  1  0  0  0  0
 32 65  2  0  0  0  0
 33 66  1  0  0  0  0
 33 69  1  0  0  0  0
 34 70  1  0  0  0  0
 34 76  2  0  0  0  0
 35 49  1  0  0  0  0
 35 72  1  0  0  0  0
 35 77  2  0  0  0  0
 36 62  1  0  0  0  0
 36 67  1  0  0  0  0
 36 78  2  0  0  0  0
 37 63  1  0  0  0  0
 37 73  1  0  0  0  0
 37 79  2  0  0  0  0
 38 68  1  0  0  0  0
 38 71  1  0  0  0  0
 38 80  2  0  0  0  0
 39 42  1  0  0  0  0
 40 49  1  0  0  0  0
 41 67  1  0  0  0  0
 42 44  1  0  0  0  0
 43 45  1  0  0  0  0
 43 46  1  0  0  0  0
 44 48  1  0  0  0  0
 45 50  1  0  0  0  0
 46 68  1  0  0  0  0
 47 50  1  0  0  0  0
 47 68  1  0  0  0  0
 48 72  1  0  0  0  0
 49 67  1  0  0  0  0
 50 66  1  0  0  0  0
 52 63  1  0  0  0  0
 53 64  1  0  0  0  0
 54 64  1  0  0  0  0
 55 64  1  0  0  0  0
 56 74  1  0  0  0  0
 57 58  1  0  0  0  0
 58 59  1  0  0  0  0
 59 75  1  0  0  0  0
 60 61  1  0  0  0  0
 60 75  1  0  0  0  0
 61 82  1  0  0  0  0
 62 64  1  0  0  0  0
 62 73  1  0  0  0  0
 63 74  1  0  0  0  0
 65 66  1  0  0  0  0
M  CHG  2  74   1  75   1
M  ISO  4  38 100  61 101  71 100  82 101
M  END
> <Batch ID>
0129

> <Smiles>
CNC(C)C(=O)NC(C(=O)N1Cc2cc([101O:1][101CH2:1]CNCCCc3cccc(C)c3[100NH:0][100C:0](=O)N3CCCC(n4nc(-c5ccc(Oc6ccc(F)cc6F)cc5)c(C(N)=O)c4N)C3)ccc2CC1C(=O)NC1CCCc2ccccc21)C(C)(C)C

> <Shape>
0.209

> <Color>
0.066

> <Negative vol penalty>
0.000

$$$$

  -OEChem-04052320453D

 86 95  0     1  0  0  0  0  0999 V2000
  -27.9825  -23.1557   18.5568 C   0  0  0  0  0  0  0  0  0  0  0  0
  -26.7760  -23.5645   19.1159 C   0  0  0  0  0  0  0  0  0  0  0  0
  -28.0514  -15.0087   21.1767 C   0  0  0  0  0  0  0  0  0  0  0  0
  -25.7535  -15.6574   20.8086 C   0  0  0  0  0  0  0  0  0  0  0  0
  -29.1829  -23.6866   19.0272 C   0  0  0  0  0  0  0  0  0  0  0  0
  -26.7693  -24.5037   20.1466 C   0  0  0  0  0  0  0  0  0  0  0  0
  -20.0071  -23.3458   23.7943 C   0  0  0  0  0  0  0  0  0  0  0  0
  -20.2663  -22.6979   21.4813 C   0  0  0  0  0  0  0  0  0  0  0  0
  -23.2395  -28.0762   19.4965 C   0  0  0  0  0  0  0  0  0  0  0  0
  -21.3342  -22.9948   24.0414 C   0  0  0  0  0  0  0  0  0  0  0  0
  -21.5935  -22.3469   21.7284 C   0  0  0  0  0  0  0  0  0  0  0  0
  -27.7124  -13.6758   20.9441 C   0  0  0  0  0  0  0  0  0  0  0  0
  -25.4144  -14.3246   20.5759 C   0  0  0  0  0  0  0  0  0  0  0  0
  -21.9239  -27.7355   19.8079 C   0  0  0  0  0  0  0  0  0  0  0  0
  -24.8074  -11.5513   22.4120 C   0  0  0  0  0  0  0  0  0  0  0  0
  -23.6539  -11.0598   23.0230 C   0  0  0  0  0  0  0  0  0  0  0  0
  -22.1419  -28.8596   21.9312 C   0  0  0  0  0  0  0  0  0  0  0  0
  -22.7186  -10.5571   20.8528 C   0  0  0  0  0  0  0  0  0  0  0  0
  -27.0719  -15.9995   21.1090 C   0  0  0  0  0  0  0  0  0  0  0  0
  -28.3466  -18.1569   20.6310 C   0  0  0  0  0  0  0  0  0  0  0  0
  -19.4731  -23.1973   22.5143 C   0  0  0  0  0  0  0  0  0  0  0  0
  -29.1902  -24.6399   20.0576 C   0  0  0  0  0  0  0  0  0  0  0  0
  -24.0210  -28.8029   20.4061 C   0  0  0  0  0  0  0  0  0  0  0  0
  -27.9709  -25.0468   20.6321 C   0  0  0  0  0  0  0  0  0  0  0  0
  -23.4663  -29.2104   21.6278 C   0  0  0  0  0  0  0  0  0  0  0  0
  -22.1275  -22.4953   23.0085 C   0  0  0  0  0  0  0  0  0  0  0  0
  -26.3939  -13.3337   20.6436 C   0  0  0  0  0  0  0  0  0  0  0  0
  -21.3758  -28.1248   21.0266 C   0  0  0  0  0  0  0  0  0  0  0  0
  -24.9166  -11.5457   21.0214 C   0  0  0  0  0  0  0  0  0  0  0  0
  -22.6094  -10.5627   22.2434 C   0  0  0  0  0  0  0  0  0  0  0  0
  -23.8722  -11.0486   20.2418 C   0  0  0  0  0  0  0  0  0  0  0  0
  -27.4214  -17.3764   21.3498 C   0  0  0  0  0  0  0  0  0  0  0  0
  -28.3147  -19.3832   21.2488 C   0  0  0  0  0  0  0  0  0  0  0  0
  -29.1618  -17.8049   19.5053 C   0  0  0  0  0  0  0  0  0  0  0  0
  -18.5279  -25.9797   21.6771 C   0  0  0  0  0  0  0  0  0  0  0  0
  -26.7152  -28.2426   21.9971 C   0  0  0  0  0  0  0  0  0  0  0  0
  -26.3819  -31.3464   22.8789 C   0  0  0  0  0  0  0  0  0  0  0  0
  -24.3096  -34.0146   23.3618 C   0  0  0  0  0  0  0  0  0  0  0  0
  -24.1608  -22.2240   24.4707 C   0  0  0  0  0  0  0  0  0  0  0  0
  -30.5157  -25.1502   20.5650 C   0  0  0  0  0  0  0  0  0  0  0  0
  -25.4298  -29.1855   20.0439 C   0  0  0  0  0  0  0  0  0  0  0  0
  -24.2568  -30.0094   22.6304 C   0  0  0  0  0  0  0  0  0  0  0  0
  -30.3986  -26.4194   21.4050 C   0  0  0  0  0  0  0  0  0  0  0  0
  -27.4698  -21.4115   25.5040 C   0  0  0  0  0  0  0  0  0  0  0  0
  -15.7602  -22.6909   21.5187 C   0  0  0  0  0  0  0  0  0  0  0  0
  -17.2121  -22.3385   21.8311 C   0  0  0  0  0  0  0  0  0  0  0  0
  -29.2747  -26.2814   22.4270 C   0  0  0  0  0  0  0  0  0  0  0  0
  -27.9193  -20.3600   24.4869 C   0  0  0  0  0  0  0  0  0  0  0  0
  -25.9898  -21.2661   25.8536 C   0  0  0  0  0  0  0  0  0  0  0  0
  -25.5286  -20.1925   23.6847 C   0  0  0  0  0  0  0  0  0  0  0  0
  -15.6672  -23.7927   20.4780 C   0  0  0  0  0  0  0  0  0  0  0  0
  -18.0248  -23.5804   22.2448 C   0  0  2  0  0  0  0  0  0  0  0  0
  -27.9209  -26.0820   21.7349 C   0  0  1  0  0  0  0  0  0  0  0  0
  -17.8970  -24.7070   21.2018 C   0  0  1  0  0  0  0  0  0  0  0  0
  -26.2994  -29.4848   21.2611 C   0  0  1  0  0  0  0  0  0  0  0  0
  -26.9967  -20.3394   23.2525 C   0  0  2  0  0  0  0  0  0  0  0  0
  -24.3215  -36.4055   24.1239 C   0  0  0  0  0  0  0  0  0  0  0  0
  -26.6253  -30.4192   25.7757 C   0  0  0  0  0  0  0  0  0  0  0  0
  -25.6966  -32.6322   26.4889 C   0  0  0  0  0  0  0  0  0  0  0  0
  -27.8587  -32.5300   25.2488 C   0  0  0  0  0  0  0  0  0  0  0  0
  -23.3214  -34.9757   20.7429 C   0  0  0  0  0  0  0  0  0  0  0  0
  -19.5827  -26.5831   20.7743 C   0  0  0  0  0  0  0  0  0  1  0  0
  -25.7001  -32.0672   24.0167 C   0  0  1  0  0  0  0  0  0  0  0  0
  -24.4197  -35.4663   22.9319 C   0  0  2  0  0  0  0  0  0  0  0  0
  -26.4556  -31.8955   25.3646 C   0  0  0  0  0  0  0  0  0  0  0  0
  -26.8440  -18.0503   22.3481 N   0  0  0  0  0  0  0  0  0  0  0  0
  -27.4079  -19.2671   22.2610 N   0  0  0  0  0  0  0  0  0  0  0  0
  -25.6319  -30.3535   22.2327 N   0  0  0  0  0  0  0  0  0  0  0  0
  -25.1767  -21.2588   24.6355 N   0  0  0  0  0  0  0  0  0  0  0  0
  -28.9741  -20.5386   21.0197 N   0  0  0  0  0  0  0  0  0  0  0  0
  -28.6443  -18.0021   18.2178 N   0  0  0  0  0  0  0  0  0  0  0  0
  -23.4758  -22.1389   23.2591 N   0  0  0  0  0  0  0  0  0  0  0  0
  -27.4235  -27.3417   21.2250 N   0  0  0  0  0  0  0  0  0  0  0  0
  -25.5486  -33.4538   23.5890 N   0  0  0  0  0  0  0  0  0  0  0  0
  -16.4408  -24.9774   20.9512 N   0  3  0  0  0  0  0  0  0  0  0  0
  -23.3300  -35.8070   21.9741 N   0  3  0  0  0  0  0  0  0  0  0  0
  -30.3087  -17.3144   19.6374 O   0  0  0  0  0  0  0  0  0  0  0  0
  -18.1992  -26.4963   22.7440 O   0  0  0  0  0  0  0  0  0  0  0  0
  -26.4167  -28.1118   23.1784 O   0  0  0  0  0  0  0  0  0  0  0  0
  -27.5348  -31.6579   22.5701 O   0  0  0  0  0  0  0  0  0  0  0  0
  -23.2320  -33.4370   23.4873 O   0  0  0  0  0  0  0  0  0  0  0  0
  -23.9347  -23.0812   25.3287 O   0  0  0  0  0  0  0  0  0  0  0  0
  -26.0628  -12.0333   20.4163 O   0  0  0  0  0  0  0  0  0  0  0  0
  -20.0922  -27.7931   21.3334 O   0  0  0  0  0  0  0  0  0  1  0  0
  -21.5024  -10.0894   22.8303 F   0  0  0  0  0  0  0  0  0  0  0  0
  -23.9717  -11.0396   18.9054 F   0  0  0  0  0  0  0  0  0  0  0  0
  1  2  1  0  0  0  0
  1  5  2  0  0  0  0
  2  6  2  0  0  0  0
  3 12  2  0  0  0  0
  3 19  1  0  0  0  0
  4 13  1  0  0  0  0
  4 19  2  0  0  0  0
  5 22  1  0  0  0  0
  6 24  1  0  0  0  0
  7 10  2  0  0  0  0
  7 21  1  0  0  0  0
  8 11  1  0  0  0  0
  8 21  2  0  0  0  0
  9 14  2  0  0  0  0
  9 23  1  0  0  0  0
 10 26  1  0  0  0  0
 11 26  2  0  0  0  0
 12 27  1  0  0  0  0
 13 27  2  0  0  0  0
 14 28  1  0  0  0  0
 15 16  2  0  0  0  0
 15 29  1  0  0  0  0
 16 30  1  0  0  0  0
 17 25  1  0  0  0  0
 17 28  2  0  0  0  0
 18 30  2  0  0  0  0
 18 31  1  0  0  0  0
 19 32  1  0  0  0  0
 20 32  1  0  0  0  0
 20 33  2  0  0  0  0
 20 34  1  0  0  0  0
 21 52  1  0  0  0  0
 22 24  2  0  0  0  0
 22 40  1  0  0  0  0
 23 25  2  0  0  0  0
 23 41  1  0  0  0  0
 24 53  1  0  0  0  0
 25 42  1  0  0  0  0
 26 72  1  0  0  0  0
 27 83  1  0  0  0  0
 28 84  1  0  0  0  0
 29 31  2  0  0  0  0
 29 83  1  0  0  0  0
 30 85  1  0  0  0  0
 31 86  1  0  0  0  0
 32 66  2  0  0  0  0
 33 67  1  0  0  0  0
 33 70  1  0  0  0  0
 34 71  1  0  0  0  0
 34 77  2  0  0  0  0
 35 54  1  0  0  0  0
 35 62  1  0  0  0  0
 35 78  2  0  0  0  0
 36 55  1  0  0  0  0
 36 73  1  0  0  0  0
 36 79  2  0  0  0  0
 37 63  1  0  0  0  0
 37 68  1  0  0  0  0
 37 80  2  0  0  0  0
 38 64  1  0  0  0  0
 38 74  1  0  0  0  0
 38 81  2  0  0  0  0
 39 69  1  0  0  0  0
 39 72  1  0  0  0  0
 39 82  2  0  0  0  0
 40 43  1  0  0  0  0
 41 55  1  0  0  0  0
 42 68  1  0  0  0  0
 43 47  1  0  0  0  0
 44 48  1  0  0  0  0
 44 49  1  0  0  0  0
 45 46  1  0  0  0  0
 45 51  1  0  0  0  0
 46 52  1  0  0  0  0
 47 53  1  0  0  0  0
 48 56  1  0  0  0  0
 49 69  1  0  0  0  0
 50 56  1  0  0  0  0
 50 69  1  0  0  0  0
 51 75  1  0  0  0  0
 52 54  1  0  0  0  0
 53 73  1  0  0  0  0
 54 75  1  0  0  0  0
 55 68  1  0  0  0  0
 56 67  1  0  0  0  0
 57 64  1  0  0  0  0
 58 65  1  0  0  0  0
 59 65  1  0  0  0  0
 60 65  1  0  0  0  0
 61 76  1  0  0  0  0
 62 84  1  0  0  0  0
 63 65  1  0  0  0  0
 63 74  1  0  0  0  0
 64 76  1  0  0  0  0
 66 67  1  0  0  0  0
M  CHG  2  75   1  76   1
M  ISO  4  39 100  62 101  72 100  84 101
M  END
> <Batch ID>
0129

> <Smiles>
CNC(C)C(=O)NC(C(=O)N1Cc2cc([101O:1][101CH2:1]C(=O)C3NCCCC3c3ccc([100NH:0][100C:0](=O)N4CCCC(n5nc(-c6ccc(Oc7ccc(F)cc7F)cc6)c(C(N)=O)c5N)C4)cc3)ccc2CC1C(=O)NC1CCCc2ccccc21)C(C)(C)C

> <Shape>
0.274

> <Color>
0.073

> <Negative vol penalty>
0.000

$$$$

  -OEChem-04052320453D

 84 92  0     1  0  0  0  0  0999 V2000
  -33.9629  -23.6275   35.6704 C   0  0  0  0  0  0  0  0  0  0  0  0
  -33.4366  -23.0266   34.5314 C   0  0  0  0  0  0  0  0  0  0  0  0
  -23.1909   -9.8191   19.9317 C   0  0  0  0  0  0  0  0  0  0  0  0
  -23.5689   -9.9994   22.3112 C   0  0  0  0  0  0  0  0  0  0  0  0
  -34.8074  -24.7301   35.5486 C   0  0  0  0  0  0  0  0  0  0  0  0
  -33.7536  -23.5289   33.2698 C   0  0  0  0  0  0  0  0  0  0  0  0
  -34.9122  -19.8759   29.9594 C   0  0  0  0  0  0  0  0  0  0  0  0
  -28.4546  -18.0322   25.4673 C   0  0  0  0  0  0  0  0  0  0  0  0
  -22.4248   -8.6723   20.1403 C   0  0  0  0  0  0  0  0  0  0  0  0
  -22.8028   -8.8526   22.5198 C   0  0  0  0  0  0  0  0  0  0  0  0
  -33.8522  -19.1629   29.4012 C   0  0  0  0  0  0  0  0  0  0  0  0
  -23.2044   -5.5060   22.2554 C   0  0  0  0  0  0  0  0  0  0  0  0
  -23.7028   -4.5446   23.1346 C   0  0  0  0  0  0  0  0  0  0  0  0
  -29.5087  -18.8519   25.8551 C   0  0  0  0  0  0  0  0  0  0  0  0
  -34.0053  -20.5093   27.4054 C   0  0  0  0  0  0  0  0  0  0  0  0
  -21.7461   -4.8042   24.5278 C   0  0  0  0  0  0  0  0  0  0  0  0
  -23.7630  -10.4826   21.0172 C   0  0  0  0  0  0  0  0  0  0  0  0
  -24.1014  -12.9993   20.7737 C   0  0  0  0  0  0  0  0  0  0  0  0
  -35.1427  -25.2402   34.2844 C   0  0  0  0  0  0  0  0  0  0  0  0
  -35.5207  -20.9200   29.2479 C   0  0  0  0  0  0  0  0  0  0  0  0
  -34.6023  -24.6403   33.1309 C   0  0  0  0  0  0  0  0  0  0  0  0
  -35.0746  -21.2324   27.9558 C   0  0  0  0  0  0  0  0  0  0  0  0
  -28.7051  -16.7158   25.0961 C   0  0  0  0  0  0  0  0  0  0  0  0
  -22.2307   -8.1891   21.4343 C   0  0  0  0  0  0  0  0  0  0  0  0
  -33.3967  -19.4814   28.1252 C   0  0  0  0  0  0  0  0  0  0  0  0
  -21.9768   -6.1165   22.5124 C   0  0  0  0  0  0  0  0  0  0  0  0
  -22.9737   -4.1937   24.2708 C   0  0  0  0  0  0  0  0  0  0  0  0
  -21.2477   -5.7656   23.6486 C   0  0  0  0  0  0  0  0  0  0  0  0
  -24.5550  -11.6670   20.8023 C   0  0  0  0  0  0  0  0  0  0  0  0
  -30.7846  -18.3115   25.8547 C   0  0  0  0  0  0  0  0  0  0  0  0
  -30.0169  -16.2711   25.1295 C   0  0  0  0  0  0  0  0  0  0  0  0
  -25.2325  -13.7422   20.5385 C   0  0  0  0  0  0  0  0  0  0  0  0
  -22.7761  -13.5190   20.9444 C   0  0  0  0  0  0  0  0  0  0  0  0
  -35.8705  -24.0451   29.7118 C   0  0  0  0  0  0  0  0  0  0  0  0
  -37.7311  -23.8351   27.0630 C   0  0  0  0  0  0  0  0  0  0  0  0
  -38.5143  -22.1535   24.1985 C   0  0  0  0  0  0  0  0  0  0  0  0
  -31.0473  -12.7530   21.5681 C   0  0  0  0  0  0  0  0  0  0  0  0
  -36.0217  -26.4632   34.2049 C   0  0  0  0  0  0  0  0  0  0  0  0
  -36.6806  -21.6619   29.8535 C   0  0  0  0  0  0  0  0  0  0  0  0
  -35.7071  -22.3309   27.1425 C   0  0  0  0  0  0  0  0  0  0  0  0
  -36.6077  -26.7028   32.8158 C   0  0  0  0  0  0  0  0  0  0  0  0
  -29.5201  -13.4704   18.4329 C   0  0  0  0  0  0  0  0  0  0  0  0
  -35.5275  -26.5583   31.7485 C   0  0  0  0  0  0  0  0  0  0  0  0
  -28.0335  -13.2098   18.6821 C   0  0  0  0  0  0  0  0  0  0  0  0
  -30.4015  -12.4811   19.1921 C   0  0  0  0  0  0  0  0  0  0  0  0
  -28.6479  -12.1379   20.8894 C   0  0  0  0  0  0  0  0  0  0  0  0
  -34.9427  -25.1407   31.7439 C   0  0  1  0  0  0  0  0  0  0  0  0
  -36.8893  -23.0447   29.2438 C   0  0  1  0  0  0  0  0  0  0  0  0
  -27.7203  -13.1456   20.1891 C   0  0  2  0  0  0  0  0  0  0  0  0
  -26.9186  -15.0949   25.8537 C   0  0  0  0  0  0  0  0  0  0  0  0
  -40.0544  -22.2444   22.2192 C   0  0  0  0  0  0  0  0  0  0  0  0
  -36.0310  -26.0569   25.8452 C   0  0  0  0  0  0  0  0  0  0  0  0
  -36.9681  -25.4503   23.6042 C   0  0  0  0  0  0  0  0  0  0  0  0
  -38.4850  -26.2635   25.4099 C   0  0  0  0  0  0  0  0  0  0  0  0
  -39.7486  -19.5547   24.8928 C   0  0  0  0  0  0  0  0  0  0  0  0
  -31.9463  -19.1670   26.2668 C   0  0  0  0  0  0  0  0  0  1  0  0
  -31.5699  -14.4818   24.3471 C   0  0  0  0  0  0  0  0  0  0  0  0
  -31.5373  -13.0040   23.9881 C   0  0  0  0  0  0  0  0  0  0  0  0
  -27.5716  -15.8401   24.6819 C   0  0  1  0  0  0  0  0  0  0  0  0
  -37.4913  -23.9447   25.5766 C   0  0  1  0  0  0  0  0  0  0  0  0
  -39.8469  -21.7051   23.6259 C   0  0  2  0  0  0  0  0  0  0  0  0
  -37.2304  -25.4094   25.1248 C   0  0  0  0  0  0  0  0  0  0  0  0
  -25.8716  -11.5661   20.6013 N   0  0  0  0  0  0  0  0  0  0  0  0
  -31.0668  -17.0377   25.5006 N   0  0  0  0  0  0  0  0  0  0  0  0
  -26.2550  -12.8445   20.4440 N   0  0  0  0  0  0  0  0  0  0  0  0
  -36.8339  -23.0315   27.7806 N   0  0  0  0  0  0  0  0  0  0  0  0
  -30.0548  -12.4698   20.6154 N   0  0  0  0  0  0  0  0  0  0  0  0
  -25.4422  -15.0691   20.4054 N   0  0  0  0  0  0  0  0  0  0  0  0
  -21.7295  -12.6166   21.1783 N   0  0  0  0  0  0  0  0  0  0  0  0
  -30.2774  -14.9304   24.7505 N   0  0  0  0  0  0  0  0  0  0  0  0
  -35.8455  -24.2237   31.0818 N   0  0  0  0  0  0  0  0  0  0  0  0
  -38.6380  -23.3153   24.9305 N   0  0  0  0  0  0  0  0  0  0  0  0
  -30.6330  -12.7274   22.8942 N   0  0  0  0  0  0  0  0  0  0  0  0
  -26.4801  -16.5782   23.9582 N   0  3  0  0  0  0  0  0  0  0  0  0
  -39.9138  -20.2172   23.5734 N   0  3  0  0  0  0  0  0  0  0  0  0
  -22.5247  -14.7460   20.8748 O   0  0  0  0  0  0  0  0  0  0  0  0
  -35.1608  -24.6139   28.8906 O   0  0  0  0  0  0  0  0  0  0  0  0
  -38.6839  -24.4344   27.5676 O   0  0  0  0  0  0  0  0  0  0  0  0
  -37.4677  -21.5368   24.0116 O   0  0  0  0  0  0  0  0  0  0  0  0
  -32.2149  -13.0148   21.2596 O   0  0  0  0  0  0  0  0  0  0  0  0
  -21.4829   -7.0702   21.6382 O   0  0  0  0  0  0  0  0  0  0  0  0
  -32.3617  -18.7875   27.5782 O   0  0  0  0  0  0  0  0  0  1  0  0
  -23.4517   -3.2694   25.1141 F   0  0  0  0  0  0  0  0  0  0  0  0
  -20.0672   -6.3478   23.9002 F   0  0  0  0  0  0  0  0  0  0  0  0
  1  2  1  0  0  0  0
  1  5  2  0  0  0  0
  2  6  2  0  0  0  0
  3  9  2  0  0  0  0
  3 17  1  0  0  0  0
  4 10  1  0  0  0  0
  4 17  2  0  0  0  0
  5 19  1  0  0  0  0
  6 21  1  0  0  0  0
  7 11  2  0  0  0  0
  7 20  1  0  0  0  0
  8 14  2  0  0  0  0
  8 23  1  0  0  0  0
  9 24  1  0  0  0  0
 10 24  2  0  0  0  0
 11 25  1  0  0  0  0
 12 13  2  0  0  0  0
 12 26  1  0  0  0  0
 13 27  1  0  0  0  0
 14 30  1  0  0  0  0
 15 22  1  0  0  0  0
 15 25  2  0  0  0  0
 16 27  2  0  0  0  0
 16 28  1  0  0  0  0
 17 29  1  0  0  0  0
 18 29  1  0  0  0  0
 18 32  2  0  0  0  0
 18 33  1  0  0  0  0
 19 21  2  0  0  0  0
 19 38  1  0  0  0  0
 20 22  2  0  0  0  0
 20 39  1  0  0  0  0
 21 47  1  0  0  0  0
 22 40  1  0  0  0  0
 23 31  2  0  0  0  0
 23 59  1  0  0  0  0
 24 81  1  0  0  0  0
 25 82  1  0  0  0  0
 26 28  2  0  0  0  0
 26 81  1  0  0  0  0
 27 83  1  0  0  0  0
 28 84  1  0  0  0  0
 29 63  2  0  0  0  0
 30 56  1  0  0  0  0
 30 64  2  0  0  0  0
 31 64  1  0  0  0  0
 31 70  1  0  0  0  0
 32 65  1  0  0  0  0
 32 68  1  0  0  0  0
 33 69  1  0  0  0  0
 33 76  2  0  0  0  0
 34 48  1  0  0  0  0
 34 71  1  0  0  0  0
 34 77  2  0  0  0  0
 35 60  1  0  0  0  0
 35 66  1  0  0  0  0
 35 78  2  0  0  0  0
 36 61  1  0  0  0  0
 36 72  1  0  0  0  0
 36 79  2  0  0  0  0
 37 67  1  0  0  0  0
 37 73  1  0  0  0  0
 37 80  2  0  0  0  0
 38 41  1  0  0  0  0
 39 48  1  0  0  0  0
 40 66  1  0  0  0  0
 41 43  1  0  0  0  0
 42 44  1  0  0  0  0
 42 45  1  0  0  0  0
 43 47  1  0  0  0  0
 44 49  1  0  0  0  0
 45 67  1  0  0  0  0
 46 49  1  0  0  0  0
 46 67  1  0  0  0  0
 47 71  1  0  0  0  0
 48 66  1  0  0  0  0
 49 65  1  0  0  0  0
 50 59  1  0  0  0  0
 51 61  1  0  0  0  0
 52 62  1  0  0  0  0
 53 62  1  0  0  0  0
 54 62  1  0  0  0  0
 55 75  1  0  0  0  0
 56 82  1  0  0  0  0
 57 58  1  0  0  0  0
 57 70  1  0  0  0  0
 58 73  1  0  0  0  0
 59 74  1  0  0  0  0
 60 62  1  0  0  0  0
 60 72  1  0  0  0  0
 61 75  1  0  0  0  0
 63 65  1  0  0  0  0
M  CHG  2  74   1  75   1
M  ISO  4  37 100  56 101  73 100  82 101
M  END
> <Batch ID>
0129

> <Smiles>
CNC(C)C(=O)NC(C(=O)N1Cc2cc([101O:1][101CH2:1]c3ccc(C(C)N)c(NCC[100NH:0][100C:0](=O)N4CCCC(n5nc(-c6ccc(Oc7ccc(F)cc7F)cc6)c(C(N)=O)c5N)C4)n3)ccc2CC1C(=O)NC1CCCc2ccccc21)C(C)(C)C

> <Shape>
0.141

> <Color>
0.175

> <Negative vol penalty>
0.000

$$$$

  -OEChem-04052320453D

 83 91  0     1  0  0  0  0  0999 V2000
  -17.4074  -26.9452   25.8178 C   0  0  0  0  0  0  0  0  0  0  0  0
  -17.8548  -25.7062   25.3705 C   0  0  0  0  0  0  0  0  0  0  0  0
  -28.6638  -22.9479   13.2627 C   0  0  0  0  0  0  0  0  0  0  0  0
  -25.7526  -15.8673   21.6898 C   0  0  0  0  0  0  0  0  0  0  0  0
  -25.6292  -16.1668   19.2957 C   0  0  0  0  0  0  0  0  0  0  0  0
  -17.7370  -28.1009   25.1108 C   0  0  0  0  0  0  0  0  0  0  0  0
  -18.6312  -25.6220   24.2153 C   0  0  0  0  0  0  0  0  0  0  0  0
  -23.9549  -21.7919   21.3336 C   0  0  0  0  0  0  0  0  0  0  0  0
  -24.4967  -15.2605   21.6787 C   0  0  0  0  0  0  0  0  0  0  0  0
  -24.3733  -15.5600   19.2845 C   0  0  0  0  0  0  0  0  0  0  0  0
  -24.2684  -21.0867   20.1725 C   0  0  0  0  0  0  0  0  0  0  0  0
  -21.4809  -13.3075   22.2318 C   0  0  0  0  0  0  0  0  0  0  0  0
  -21.3185  -12.1392   22.9763 C   0  0  0  0  0  0  0  0  0  0  0  0
  -28.5158  -21.5658   13.2946 C   0  0  0  0  0  0  0  0  0  0  0  0
  -28.9481  -23.6383   14.4357 C   0  0  0  0  0  0  0  0  0  0  0  0
  -24.8421  -23.1578   19.0768 C   0  0  0  0  0  0  0  0  0  0  0  0
  -23.0367  -11.0630   21.6622 C   0  0  0  0  0  0  0  0  0  0  0  0
  -26.3188  -16.3206   20.4983 C   0  0  0  0  0  0  0  0  0  0  0  0
  -28.8663  -16.3177   20.3658 C   0  0  0  0  0  0  0  0  0  0  0  0
  -18.5259  -28.0318   23.9518 C   0  0  0  0  0  0  0  0  0  0  0  0
  -24.0725  -23.1887   21.3717 C   0  0  0  0  0  0  0  0  0  0  0  0
  -18.9705  -26.7777   23.4914 C   0  0  0  0  0  0  0  0  0  0  0  0
  -24.5319  -23.8781   20.2404 C   0  0  0  0  0  0  0  0  0  0  0  0
  -23.8071  -15.1068   20.4760 C   0  0  0  0  0  0  0  0  0  0  0  0
  -24.7092  -21.7699   19.0429 C   0  0  0  0  0  0  0  0  0  0  0  0
  -22.4211  -13.3536   21.2024 C   0  0  0  0  0  0  0  0  0  0  0  0
  -22.0964  -11.0170   22.6915 C   0  0  0  0  0  0  0  0  0  0  0  0
  -23.1990  -12.2313   20.9177 C   0  0  0  0  0  0  0  0  0  0  0  0
  -27.6158  -16.9480   20.5093 C   0  0  0  0  0  0  0  0  0  0  0  0
  -28.6606  -20.9260   14.5150 C   0  0  0  0  0  0  0  0  0  0  0  0
  -29.0734  -22.9058   15.6051 C   0  0  0  0  0  0  0  0  0  0  0  0
  -29.7782  -17.3416   20.4460 C   0  0  0  0  0  0  0  0  0  0  0  0
  -29.1760  -14.9306   20.1767 C   0  0  0  0  0  0  0  0  0  0  0  0
  -22.0496  -25.5985   21.8235 C   0  0  0  0  0  0  0  0  0  0  0  0
  -24.7638  -27.3741   21.7741 C   0  0  0  0  0  0  0  0  0  0  0  0
  -28.0139  -27.6710   20.7764 C   0  0  0  0  0  0  0  0  0  0  0  0
  -29.4236  -23.2140   19.3320 C   0  0  0  0  0  0  0  0  0  0  0  0
  -18.8168  -29.3035   23.1948 C   0  0  0  0  0  0  0  0  0  0  0  0
  -23.7560  -23.9322   22.6403 C   0  0  0  0  0  0  0  0  0  0  0  0
  -24.6947  -25.3754   20.2360 C   0  0  0  0  0  0  0  0  0  0  0  0
  -19.9571  -29.1664   22.1892 C   0  0  0  0  0  0  0  0  0  0  0  0
  -30.3867  -21.6698   22.3922 C   0  0  0  0  0  0  0  0  0  0  0  0
  -19.7911  -27.8942   21.3640 C   0  0  0  0  0  0  0  0  0  0  0  0
  -29.8986  -20.2277   22.2437 C   0  0  0  0  0  0  0  0  0  0  0  0
  -29.4214  -22.6616   21.7468 C   0  0  0  0  0  0  0  0  0  0  0  0
  -28.6042  -20.9357   20.1889 C   0  0  0  0  0  0  0  0  0  0  0  0
  -19.8355  -26.6480   22.2565 C   0  0  1  0  0  0  0  0  0  0  0  0
  -23.4214  -25.4017   22.4041 C   0  0  1  0  0  0  0  0  0  0  0  0
  -29.5728  -19.8944   20.7753 C   0  0  2  0  0  0  0  0  0  0  0  0
  -30.3116  -28.6629   20.5918 C   0  0  0  0  0  0  0  0  0  0  0  0
  -23.4574  -29.0833   19.6103 C   0  0  0  0  0  0  0  0  0  0  0  0
  -25.7217  -30.0037   19.0681 C   0  0  0  0  0  0  0  0  0  0  0  0
  -24.7354  -30.3741   21.3293 C   0  0  0  0  0  0  0  0  0  0  0  0
  -28.9478  -26.2508   23.1991 C   0  0  0  0  0  0  0  0  0  0  0  0
  -28.5081  -19.4342   14.5871 C   0  0  0  0  0  0  0  0  0  0  0  0
  -29.3784  -23.6138   16.8831 C   0  0  0  0  0  0  0  0  0  0  0  0
  -27.0798  -18.9727   14.8585 C   0  0  0  0  0  0  0  0  0  0  0  0
  -25.2140  -19.1159   16.5130 C   0  0  0  0  0  0  0  0  0  0  0  0
  -24.8764  -19.6440   17.8933 C   0  0  0  0  0  0  0  0  0  1  0  0
  -25.5666  -28.0703   20.7018 C   0  0  1  0  0  0  0  0  0  0  0  0
  -29.2656  -28.0821   21.5306 C   0  0  2  0  0  0  0  0  0  0  0  0
  -24.8655  -29.3548   20.1765 C   0  0  0  0  0  0  0  0  0  0  0  0
  -27.7200  -18.2700   20.6688 N   0  0  0  0  0  0  0  0  0  0  0  0
  -28.9366  -21.5627   15.6753 N   0  0  0  0  0  0  0  0  0  0  0  0
  -29.0470  -18.4787   20.6261 N   0  0  0  0  0  0  0  0  0  0  0  0
  -24.3665  -26.0581   21.4985 N   0  0  0  0  0  0  0  0  0  0  0  0
  -29.1553  -22.2897   20.3551 N   0  0  0  0  0  0  0  0  0  0  0  0
  -31.1262  -17.3713   20.3795 N   0  0  0  0  0  0  0  0  0  0  0  0
  -28.1190  -14.0121   20.1171 N   0  0  0  0  0  0  0  0  0  0  0  0
  -21.2005  -26.3383   22.6243 N   0  0  0  0  0  0  0  0  0  0  0  0
  -26.8908  -28.3016   21.2686 N   0  0  0  0  0  0  0  0  0  0  0  0
  -29.1489  -22.7790   18.0412 N   0  0  0  0  0  0  0  0  0  0  0  0
  -29.8602  -26.9064   22.2271 N   0  3  0  0  0  0  0  0  0  0  0  0
  -26.6191  -19.4655   16.1847 N   0  3  0  0  0  0  0  0  0  0  0  0
  -30.3559  -14.5158   20.0805 O   0  0  0  0  0  0  0  0  0  0  0  0
  -21.7817  -25.1163   20.7292 O   0  0  0  0  0  0  0  0  0  0  0  0
  -24.5051  -27.9734   22.8208 O   0  0  0  0  0  0  0  0  0  0  0  0
  -28.0313  -26.8734   19.8415 O   0  0  0  0  0  0  0  0  0  0  0  0
  -29.8796  -24.3412   19.5521 O   0  0  0  0  0  0  0  0  0  0  0  0
  -22.5817  -14.5144   20.4647 O   0  0  0  0  0  0  0  0  0  0  0  0
  -25.0152  -21.0841   17.9081 O   0  0  0  0  0  0  0  0  0  1  0  0
  -21.9415   -9.8956   23.4076 F   0  0  0  0  0  0  0  0  0  0  0  0
  -24.1047  -12.2699   19.9307 F   0  0  0  0  0  0  0  0  0  0  0  0
  1  2  1  0  0  0  0
  1  6  2  0  0  0  0
  2  7  2  0  0  0  0
  3 14  2  0  0  0  0
  3 15  1  0  0  0  0
  4  9  2  0  0  0  0
  4 18  1  0  0  0  0
  5 10  1  0  0  0  0
  5 18  2  0  0  0  0
  6 20  1  0  0  0  0
  7 22  1  0  0  0  0
  8 11  2  0  0  0  0
  8 21  1  0  0  0  0
  9 24  1  0  0  0  0
 10 24  2  0  0  0  0
 11 25  1  0  0  0  0
 12 13  2  0  0  0  0
 12 26  1  0  0  0  0
 13 27  1  0  0  0  0
 14 30  1  0  0  0  0
 15 31  2  0  0  0  0
 16 23  1  0  0  0  0
 16 25  2  0  0  0  0
 17 27  2  0  0  0  0
 17 28  1  0  0  0  0
 18 29  1  0  0  0  0
 19 29  1  0  0  0  0
 19 32  2  0  0  0  0
 19 33  1  0  0  0  0
 20 22  2  0  0  0  0
 20 38  1  0  0  0  0
 21 23  2  0  0  0  0
 21 39  1  0  0  0  0
 22 47  1  0  0  0  0
 23 40  1  0  0  0  0
 24 80  1  0  0  0  0
 25 81  1  0  0  0  0
 26 28  2  0  0  0  0
 26 80  1  0  0  0  0
 27 82  1  0  0  0  0
 28 83  1  0  0  0  0
 29 63  2  0  0  0  0
 30 55  1  0  0  0  0
 30 64  2  0  0  0  0
 31 56  1  0  0  0  0
 31 64  1  0  0  0  0
 32 65  1  0  0  0  0
 32 68  1  0  0  0  0
 33 69  1  0  0  0  0
 33 75  2  0  0  0  0
 34 48  1  0  0  0  0
 34 70  1  0  0  0  0
 34 76  2  0  0  0  0
 35 60  1  0  0  0  0
 35 66  1  0  0  0  0
 35 77  2  0  0  0  0
 36 61  1  0  0  0  0
 36 71  1  0  0  0  0
 36 78  2  0  0  0  0
 37 67  1  0  0  0  0
 37 72  1  0  0  0  0
 37 79  2  0  0  0  0
 38 41  1  0  0  0  0
 39 48  1  0  0  0  0
 40 66  1  0  0  0  0
 41 43  1  0  0  0  0
 42 44  1  0  0  0  0
 42 45  1  0  0  0  0
 43 47  1  0  0  0  0
 44 49  1  0  0  0  0
 45 67  1  0  0  0  0
 46 49  1  0  0  0  0
 46 67  1  0  0  0  0
 47 70  1  0  0  0  0
 48 66  1  0  0  0  0
 49 65  1  0  0  0  0
 50 61  1  0  0  0  0
 51 62  1  0  0  0  0
 52 62  1  0  0  0  0
 53 62  1  0  0  0  0
 54 73  1  0  0  0  0
 55 57  1  0  0  0  0
 56 72  1  0  0  0  0
 57 74  1  0  0  0  0
 58 59  1  0  0  0  0
 58 74  1  0  0  0  0
 59 81  1  0  0  0  0
 60 62  1  0  0  0  0
 60 71  1  0  0  0  0
 61 73  1  0  0  0  0
 63 65  1  0  0  0  0
M  CHG  2  73   1  74   1
M  ISO  4  37 100  59 101  72 100  81 101
M  END
> <Batch ID>
0129

> <Smiles>
CNC(C)C(=O)NC(C(=O)N1Cc2cc([101O:1][101CH2:1]CNCCc3cccc(C[100NH:0][100C:0](=O)N4CCCC(n5nc(-c6ccc(Oc7ccc(F)cc7F)cc6)c(C(N)=O)c5N)C4)n3)ccc2CC1C(=O)NC1CCCc2ccccc21)C(C)(C)C

> <Shape>
0.239

> <Color>
0.066

> <Negative vol penalty>
0.000

$$$$

  -OEChem-04052320453D

 87 96  0     1  0  0  0  0  0999 V2000
  -25.7940  -35.2484   23.3679 C   0  0  0  0  0  0  0  0  0  0  0  0
  -26.3958  -34.0320   23.0621 C   0  0  0  0  0  0  0  0  0  0  0  0
  -20.2965  -14.0773   21.3841 C   0  0  0  0  0  0  0  0  0  0  0  0
  -22.7020  -13.9271   21.5510 C   0  0  0  0  0  0  0  0  0  0  0  0
  -24.5271  -35.2714   23.9495 C   0  0  0  0  0  0  0  0  0  0  0  0
  -25.7314  -32.8377   23.3388 C   0  0  0  0  0  0  0  0  0  0  0  0
  -26.0036  -29.5315   19.5126 C   0  0  0  0  0  0  0  0  0  0  0  0
  -20.1876  -12.7342   21.7443 C   0  0  0  0  0  0  0  0  0  0  0  0
  -22.5932  -12.5840   21.9112 C   0  0  0  0  0  0  0  0  0  0  0  0
  -27.1965  -28.8252   19.3650 C   0  0  0  0  0  0  0  0  0  0  0  0
  -22.9687   -9.0213   22.5243 C   0  0  0  0  0  0  0  0  0  0  0  0
  -23.8330   -8.1137   21.9120 C   0  0  0  0  0  0  0  0  0  0  0  0
  -26.1958  -26.9191   20.4533 C   0  0  0  0  0  0  0  0  0  0  0  0
  -22.9341   -8.7152   19.7516 C   0  0  0  0  0  0  0  0  0  0  0  0
  -21.5537  -14.6738   21.2874 C   0  0  0  0  0  0  0  0  0  0  0  0
  -21.1257  -17.1701   21.5924 C   0  0  0  0  0  0  0  0  0  0  0  0
  -23.8428  -34.0770   24.2247 C   0  0  0  0  0  0  0  0  0  0  0  0
  -24.8993  -28.9396   20.1425 C   0  0  0  0  0  0  0  0  0  0  0  0
  -24.4547  -32.8446   23.9260 C   0  0  0  0  0  0  0  0  0  0  0  0
  -24.9891  -27.6191   20.6053 C   0  0  0  0  0  0  0  0  0  0  0  0
  -21.3359  -11.9875   22.0079 C   0  0  0  0  0  0  0  0  0  0  0  0
  -27.2937  -27.5199   19.8379 C   0  0  0  0  0  0  0  0  0  0  0  0
  -22.0870   -9.7758   21.7503 C   0  0  0  0  0  0  0  0  0  0  0  0
  -23.8157   -7.9607   20.5257 C   0  0  0  0  0  0  0  0  0  0  0  0
  -22.0697   -9.6228   20.3640 C   0  0  0  0  0  0  0  0  0  0  0  0
  -21.6668  -16.0610   20.9148 C   0  0  0  0  0  0  0  0  0  0  0  0
  -21.5121  -18.2532   20.8414 C   0  0  0  0  0  0  0  0  0  0  0  0
  -31.6362  -19.0053   18.4761 C   0  0  0  0  0  0  0  0  0  0  0  0
  -30.8085  -19.2454   19.6833 C   0  0  0  0  0  0  0  0  0  0  0  0
  -20.3439  -17.2170   22.7933 C   0  0  0  0  0  0  0  0  0  0  0  0
  -23.2012  -29.5723   22.7540 C   0  0  0  0  0  0  0  0  0  0  0  0
  -21.3429  -27.1489   21.6602 C   0  0  0  0  0  0  0  0  0  0  0  0
  -20.8405  -23.9174   20.1362 C   0  0  0  0  0  0  0  0  0  0  0  0
  -26.0725  -19.1856   17.0752 C   0  0  0  0  0  0  0  0  0  0  0  0
  -22.4950  -34.1509   24.8975 C   0  0  0  0  0  0  0  0  0  0  0  0
  -23.6111  -29.7055   20.2700 C   0  0  0  0  0  0  0  0  0  0  0  0
  -23.8261  -26.9311   21.2706 C   0  0  0  0  0  0  0  0  0  0  0  0
  -31.7123  -17.5423   18.2602 C   0  0  0  0  0  0  0  0  0  0  0  0
  -21.7006  -32.8500   24.8147 C   0  0  0  0  0  0  0  0  0  0  0  0
  -22.6005  -19.5008   16.3525 C   0  0  0  0  0  0  0  0  0  0  0  0
  -22.5861  -31.6602   25.1714 C   0  0  0  0  0  0  0  0  0  0  0  0
  -21.9187  -18.7550   17.5009 C   0  0  0  0  0  0  0  0  0  0  0  0
  -28.9610  -23.4937   18.0353 C   0  0  0  0  0  0  0  0  0  0  0  0
  -29.1411  -23.2209   20.5481 C   0  0  0  0  0  0  0  0  0  0  0  0
  -28.9295  -25.0106   18.2055 C   0  0  0  0  0  0  0  0  0  0  0  0
  -29.1086  -24.7385   20.7123 C   0  0  0  0  0  0  0  0  0  0  0  0
  -31.0931  -17.0294   19.5603 C   0  0  0  0  0  0  0  0  0  0  0  0
  -23.9037  -18.8232   15.9345 C   0  0  0  0  0  0  0  0  0  0  0  0
  -24.1797  -17.8469   18.1805 C   0  0  0  0  0  0  0  0  0  0  0  0
  -23.7555  -31.5284   24.1883 C   0  0  1  0  0  0  0  0  0  0  0  0
  -22.7133  -29.1829   21.3872 C   0  0  1  0  0  0  0  0  0  0  0  0
  -22.8898  -18.5240   18.6743 C   0  0  2  0  0  0  0  0  0  0  0  0
  -29.7166  -22.8342   19.1872 C   0  0  0  0  0  0  0  0  0  0  0  0
  -28.3587  -25.4145   19.5642 C   0  0  0  0  0  0  0  0  0  1  0  0
  -18.7254  -22.7077   19.5361 C   0  0  0  0  0  0  0  0  0  0  0  0
  -21.6583  -25.8384   24.3975 C   0  0  0  0  0  0  0  0  0  0  0  0
  -20.8441  -23.6966   23.3885 C   0  0  0  0  0  0  0  0  0  0  0  0
  -19.3553  -25.6977   23.4327 C   0  0  0  0  0  0  0  0  0  0  0  0
  -21.6854  -23.5986   17.3178 C   0  0  0  0  0  0  0  0  0  0  0  0
  -30.4262  -20.6232   20.0863 C   0  0  0  0  0  0  0  0  0  0  0  0
  -28.1824  -19.4750   18.3495 C   0  0  0  0  0  0  0  0  0  0  0  0
  -28.2141  -20.8602   18.9678 C   0  0  0  0  0  0  0  0  0  0  0  0
  -21.3219  -25.6507   21.8445 C   0  0  1  0  0  0  0  0  0  0  0  0
  -19.8628  -23.5786   19.0255 C   0  0  2  0  0  0  0  0  0  0  0  0
  -20.8176  -25.2342   23.2551 C   0  0  0  0  0  0  0  0  0  0  0  0
  -22.3451  -16.4077   19.8176 N   0  0  0  0  0  0  0  0  0  0  0  0
  -30.4641  -18.1584   20.2896 N   0  0  0  0  0  0  0  0  0  0  0  0
  -22.2327  -17.7468   19.8000 N   0  0  0  0  0  0  0  0  0  0  0  0
  -22.5901  -27.7238   21.3775 N   0  0  0  0  0  0  0  0  0  0  0  0
  -24.7805  -18.6348   17.0928 N   0  0  0  0  0  0  0  0  0  0  0  0
  -21.3023  -19.5799   20.9767 N   0  0  0  0  0  0  0  0  0  0  0  0
  -21.0106  -17.3340   24.0205 N   0  0  0  0  0  0  0  0  0  0  0  0
  -23.3071  -30.9366   22.9460 N   0  0  0  0  0  0  0  0  0  0  0  0
  -20.5282  -25.1151   20.7439 N   0  0  0  0  0  0  0  0  0  0  0  0
  -26.8357  -18.9658   18.2154 N   0  0  0  0  0  0  0  0  0  0  0  0
  -20.5580  -22.8480   17.9284 N   0  3  0  0  0  0  0  0  0  0  0  0
  -29.6361  -21.3574   19.0327 N   0  3  1  0  0  0  0  0  0  0  0  0
  -32.1072  -19.8998   17.8086 O   0  0  0  0  0  0  0  0  0  0  0  0
  -19.0919  -17.1404   22.7797 O   0  0  0  0  0  0  0  0  0  0  0  0
  -23.4610  -28.6996   23.5741 O   0  0  0  0  0  0  0  0  0  0  0  0
  -20.2903  -27.7848   21.7562 O   0  0  0  0  0  0  0  0  0  0  0  0
  -21.7846  -23.1904   20.4373 O   0  0  0  0  0  0  0  0  0  0  0  0
  -26.5114  -19.8302   16.1166 O   0  0  0  0  0  0  0  0  0  0  0  0
  -21.2301  -10.6769   22.3596 O   0  0  0  0  0  0  0  0  0  0  0  0
  -28.4572  -26.8285   19.6957 O   0  0  0  0  0  0  0  0  0  1  0  0
  -24.6469   -7.0903   19.9377 F   0  0  0  0  0  0  0  0  0  0  0  0
  -21.2258  -10.3457   19.6150 F   0  0  0  0  0  0  0  0  0  0  0  0
  1  2  1  0  0  0  0
  1  5  2  0  0  0  0
  2  6  2  0  0  0  0
  3  8  2  0  0  0  0
  3 15  1  0  0  0  0
  4  9  1  0  0  0  0
  4 15  2  0  0  0  0
  5 17  1  0  0  0  0
  6 19  1  0  0  0  0
  7 10  2  0  0  0  0
  7 18  1  0  0  0  0
  8 21  1  0  0  0  0
  9 21  2  0  0  0  0
 10 22  1  0  0  0  0
 11 12  2  0  0  0  0
 11 23  1  0  0  0  0
 12 24  1  0  0  0  0
 13 20  1  0  0  0  0
 13 22  2  0  0  0  0
 14 24  2  0  0  0  0
 14 25  1  0  0  0  0
 15 26  1  0  0  0  0
 16 26  1  0  0  0  0
 16 27  2  0  0  0  0
 16 30  1  0  0  0  0
 17 19  2  0  0  0  0
 17 35  1  0  0  0  0
 18 20  2  0  0  0  0
 18 36  1  0  0  0  0
 19 50  1  0  0  0  0
 20 37  1  0  0  0  0
 21 84  1  0  0  0  0
 22 85  1  0  0  0  0
 23 25  2  0  0  0  0
 23 84  1  0  0  0  0
 24 86  1  0  0  0  0
 25 87  1  0  0  0  0
 26 66  2  0  0  0  0
 27 68  1  0  0  0  0
 27 71  1  0  0  0  0
 28 29  1  0  0  0  0
 28 38  1  0  0  0  0
 28 78  2  0  0  0  0
 29 60  1  0  0  0  0
 29 67  2  0  0  0  0
 30 72  1  0  0  0  0
 30 79  2  0  0  0  0
 31 51  1  0  0  0  0
 31 73  1  0  0  0  0
 31 80  2  0  0  0  0
 32 63  1  0  0  0  0
 32 69  1  0  0  0  0
 32 81  2  0  0  0  0
 33 64  1  0  0  0  0
 33 74  1  0  0  0  0
 33 82  2  0  0  0  0
 34 70  1  0  0  0  0
 34 75  1  0  0  0  0
 34 83  2  0  0  0  0
 35 39  1  0  0  0  0
 36 51  1  0  0  0  0
 37 69  1  0  0  0  0
 38 47  1  0  0  0  0
 39 41  1  0  0  0  0
 40 42  1  0  0  0  0
 40 48  1  0  0  0  0
 41 50  1  0  0  0  0
 42 52  1  0  0  0  0
 43 45  1  0  0  0  0
 43 53  1  0  0  0  0
 44 46  1  0  0  0  0
 44 53  1  0  0  0  0
 45 54  1  0  0  0  0
 46 54  1  0  0  0  0
 47 67  1  0  0  0  0
 48 70  1  0  0  0  0
 49 52  1  0  0  0  0
 49 70  1  0  0  0  0
 50 73  1  0  0  0  0
 51 69  1  0  0  0  0
 52 68  1  0  0  0  0
 53 77  1  0  0  0  0
 54 85  1  0  0  0  0
 55 64  1  0  0  0  0
 56 65  1  0  0  0  0
 57 65  1  0  0  0  0
 58 65  1  0  0  0  0
 59 76  1  0  0  0  0
 60 77  1  0  0  0  0
 61 62  1  0  0  0  0
 61 75  1  0  0  0  0
 62 77  1  0  0  0  0
 63 65  1  0  0  0  0
 63 74  1  0  0  0  0
 64 76  1  0  0  0  0
 66 68  1  0  0  0  0
M  CHG  2  76   1  77   1
M  ISO  4  34 100  54 101  75 100  85 101
M  END
> <Batch ID>
0129

> <Smiles>
CNC(C)C(=O)NC(C(=O)N1Cc2cc([101O:1][101CH:1]3CCC(N(CC[100NH:0][100C:0](=O)N4CCCC(n5nc(-c6ccc(Oc7ccc(F)cc7F)cc6)c(C(N)=O)c5N)C4)CC4=NCCC4=O)CC3)ccc2CC1C(=O)NC1CCCc2ccccc21)C(C)(C)C

> <Shape>
0.227

> <Color>
0.080

> <Negative vol penalty>
0.000

$$$$

  -OEChem-04052320453D

 86 95  0     1  0  0  0  0  0999 V2000
  -23.6370  -11.0635   17.9993 C   0  0  0  0  0  0  0  0  0  0  0  0
  -22.9748  -12.2864   17.9613 C   0  0  0  0  0  0  0  0  0  0  0  0
  -29.3828  -26.6029   20.8887 C   0  0  0  0  0  0  0  0  0  0  0  0
  -27.5829  -24.9917   20.8488 C   0  0  0  0  0  0  0  0  0  0  0  0
  -18.6384  -25.7532   20.8021 C   0  0  0  0  0  0  0  0  0  0  0  0
  -24.6104  -10.8290   18.9696 C   0  0  0  0  0  0  0  0  0  0  0  0
  -23.2850  -13.2752   18.8942 C   0  0  0  0  0  0  0  0  0  0  0  0
  -23.6887  -20.3967   19.5560 C   0  0  0  0  0  0  0  0  0  0  0  0
  -18.9510  -27.0719   21.1322 C   0  0  0  0  0  0  0  0  0  0  0  0
  -30.2381  -25.6345   21.4141 C   0  0  0  0  0  0  0  0  0  0  0  0
  -28.4383  -24.0232   21.3743 C   0  0  0  0  0  0  0  0  0  0  0  0
  -23.2340  -21.4299   20.3743 C   0  0  0  0  0  0  0  0  0  0  0  0
  -32.8001  -23.6831   23.1029 C   0  0  0  0  0  0  0  0  0  0  0  0
  -33.6204  -24.0501   24.1697 C   0  0  0  0  0  0  0  0  0  0  0  0
  -24.9893  -20.9418   21.9555 C   0  0  0  0  0  0  0  0  0  0  0  0
  -20.0203  -26.3108   23.1605 C   0  0  0  0  0  0  0  0  0  0  0  0
  -31.6671  -24.5804   25.4891 C   0  0  0  0  0  0  0  0  0  0  0  0
  -28.0552  -26.2816   20.6061 C   0  0  0  0  0  0  0  0  0  0  0  0
  -19.0168  -24.7133   21.6513 C   0  0  0  0  0  0  0  0  0  0  0  0
  -26.9439  -27.5686   18.7044 C   0  0  0  0  0  0  0  0  0  0  0  0
  -24.9395  -11.8190   19.9088 C   0  0  0  0  0  0  0  0  0  0  0  0
  -24.7923  -19.6200   19.9371 C   0  0  0  0  0  0  0  0  0  0  0  0
  -24.2628  -13.0533   19.8787 C   0  0  0  0  0  0  0  0  0  0  0  0
  -25.4576  -19.9010   21.1390 C   0  0  0  0  0  0  0  0  0  0  0  0
  -19.6419  -27.3507   22.3114 C   0  0  0  0  0  0  0  0  0  0  0  0
  -19.7077  -24.9920   22.8305 C   0  0  0  0  0  0  0  0  0  0  0  0
  -29.7659  -24.3446   21.6569 C   0  0  0  0  0  0  0  0  0  0  0  0
  -23.8826  -21.7007   21.5756 C   0  0  0  0  0  0  0  0  0  0  0  0
  -31.4133  -23.7648   23.2292 C   0  0  0  0  0  0  0  0  0  0  0  0
  -33.0539  -24.4987   25.3628 C   0  0  0  0  0  0  0  0  0  0  0  0
  -30.8469  -24.2134   24.4223 C   0  0  0  0  0  0  0  0  0  0  0  0
  -27.1710  -27.2817   20.0638 C   0  0  0  0  0  0  0  0  0  0  0  0
  -26.0271  -28.5912   18.7178 C   0  0  0  0  0  0  0  0  0  0  0  0
  -18.6753  -23.3468   21.2787 C   0  0  0  0  0  0  0  0  0  0  0  0
  -17.4255  -22.8639   21.1059 C   0  0  0  0  0  0  0  0  0  0  0  0
  -27.5110  -26.9647   17.5342 C   0  0  0  0  0  0  0  0  0  0  0  0
  -25.2525  -16.5424   20.5856 C   0  0  0  0  0  0  0  0  0  0  0  0
  -28.3638  -17.4444   20.7550 C   0  0  0  0  0  0  0  0  0  0  0  0
  -30.6325  -19.9419   21.2670 C   0  0  0  0  0  0  0  0  0  0  0  0
  -21.9067  -30.3213   22.7028 C   0  0  0  0  0  0  0  0  0  0  0  0
  -25.9652  -11.5023   20.9682 C   0  0  0  0  0  0  0  0  0  0  0  0
  -25.2867  -18.5264   19.0304 C   0  0  0  0  0  0  0  0  0  0  0  0
  -26.6593  -19.1096   21.5839 C   0  0  0  0  0  0  0  0  0  0  0  0
  -26.5003  -12.7382   21.6869 C   0  0  0  0  0  0  0  0  0  0  0  0
  -24.5738  -32.2825   21.3924 C   0  0  0  0  0  0  0  0  0  0  0  0
  -25.3534  -13.6598   22.0897 C   0  0  0  0  0  0  0  0  0  0  0  0
  -17.0371  -20.4485   21.8265 C   0  0  0  0  0  0  0  0  0  0  0  0
  -15.7951  -20.9035   21.1190 C   0  0  0  0  0  0  0  0  0  0  0  0
  -25.5214  -31.2491   20.7807 C   0  0  0  0  0  0  0  0  0  0  0  0
  -23.9213  -31.7624   22.6714 C   0  0  0  0  0  0  0  0  0  0  0  0
  -24.1852  -29.4295   21.9219 C   0  0  0  0  0  0  0  0  0  0  0  0
  -24.5889  -14.1599   20.8581 C   0  0  1  0  0  0  0  0  0  0  0  0
  -17.1217  -21.4495   20.7316 C   0  0  0  0  0  0  0  0  0  0  0  0
  -26.1044  -17.4670   19.7629 C   0  0  1  0  0  0  0  0  0  0  0  0
  -24.8245  -29.8872   20.5997 C   0  0  2  0  0  0  0  0  0  0  0  0
  -33.1032  -20.3661   21.3799 C   0  0  0  0  0  0  0  0  0  0  0  0
  -28.4550  -16.1618   23.5221 C   0  0  0  0  0  0  0  0  0  0  0  0
  -30.5764  -17.4181   23.9579 C   0  0  0  0  0  0  0  0  0  0  0  0
  -30.4773  -15.7438   22.1113 C   0  0  0  0  0  0  0  0  0  0  0  0
  -30.5272  -21.8425   19.0008 C   0  0  0  0  0  0  0  0  0  0  0  0
  -20.1322  -23.8937   23.7724 C   0  0  0  0  0  0  0  0  0  0  0  0
  -19.9778  -28.7603   22.6639 C   0  0  0  0  0  0  0  0  0  0  0  0
  -21.6226  -23.5560   23.6929 C   0  0  0  0  0  0  0  0  0  0  0  0
  -22.0454  -23.0057   22.3358 C   0  0  0  0  0  0  0  0  0  1  0  0
  -29.2720  -17.9508   21.8493 C   0  0  1  0  0  0  0  0  0  0  0  0
  -31.8700  -20.3534   20.4901 C   0  0  2  0  0  0  0  0  0  0  0  0
  -29.6714  -16.8325   22.8530 C   0  0  0  0  0  0  0  0  0  0  0  0
  -26.4561  -28.0593   20.8813 N   0  0  0  0  0  0  0  0  0  0  0  0
  -25.7710  -28.8450   20.0332 N   0  0  0  0  0  0  0  0  0  0  0  0
  -27.1007  -18.0466   20.6660 N   0  0  0  0  0  0  0  0  0  0  0  0
  -23.2770  -30.4689   22.4314 N   0  0  0  0  0  0  0  0  0  0  0  0
  -25.4232  -29.2892   17.7326 N   0  0  0  0  0  0  0  0  0  0  0  0
  -28.4377  -25.9265   17.7004 N   0  0  0  0  0  0  0  0  0  0  0  0
  -25.3263  -15.2174   20.2005 N   0  0  0  0  0  0  0  0  0  0  0  0
  -30.4028  -18.5851   21.1804 N   0  0  0  0  0  0  0  0  0  0  0  0
  -21.3736  -29.0650   22.4414 N   0  0  0  0  0  0  0  0  0  0  0  0
  -31.6913  -21.7167   19.9152 N   0  3  0  0  0  0  0  0  0  0  0  0
  -27.2174  -27.3459   16.3757 O   0  0  0  0  0  0  0  0  0  0  0  0
  -24.5792  -16.9973   21.5030 O   0  0  0  0  0  0  0  0  0  0  0  0
  -28.7630  -16.5525   20.0022 O   0  0  0  0  0  0  0  0  0  0  0  0
  -29.9410  -20.7434   21.8915 O   0  0  0  0  0  0  0  0  0  0  0  0
  -21.2089  -31.2425   23.1403 O   0  0  0  0  0  0  0  0  0  0  0  0
  -30.6003  -23.3993   22.1694 O   0  0  0  0  0  0  0  0  0  0  0  0
  -23.4405  -22.7081   22.3766 O   0  0  0  0  0  0  0  0  0  1  0  0
  -33.8417  -24.8497   26.3877 F   0  0  0  0  0  0  0  0  0  0  0  0
  -29.5152  -24.2929   24.5499 F   0  0  0  0  0  0  0  0  0  0  0  0
  1  2  1  0  0  0  0
  1  6  2  0  0  0  0
  2  7  2  0  0  0  0
  3 10  2  0  0  0  0
  3 18  1  0  0  0  0
  4 11  1  0  0  0  0
  4 18  2  0  0  0  0
  5  9  2  0  0  0  0
  5 19  1  0  0  0  0
  6 21  1  0  0  0  0
  7 23  1  0  0  0  0
  8 12  2  0  0  0  0
  8 22  1  0  0  0  0
  9 25  1  0  0  0  0
 10 27  1  0  0  0  0
 11 27  2  0  0  0  0
 12 28  1  0  0  0  0
 13 14  2  0  0  0  0
 13 29  1  0  0  0  0
 14 30  1  0  0  0  0
 15 24  1  0  0  0  0
 15 28  2  0  0  0  0
 16 25  2  0  0  0  0
 16 26  1  0  0  0  0
 17 30  2  0  0  0  0
 17 31  1  0  0  0  0
 18 32  1  0  0  0  0
 19 26  2  0  0  0  0
 19 34  1  0  0  0  0
 20 32  1  0  0  0  0
 20 33  2  0  0  0  0
 20 36  1  0  0  0  0
 21 23  2  0  0  0  0
 21 41  1  0  0  0  0
 22 24  2  0  0  0  0
 22 42  1  0  0  0  0
 23 52  1  0  0  0  0
 24 43  1  0  0  0  0
 25 62  1  0  0  0  0
 26 61  1  0  0  0  0
 27 83  1  0  0  0  0
 28 84  1  0  0  0  0
 29 31  2  0  0  0  0
 29 83  1  0  0  0  0
 30 85  1  0  0  0  0
 31 86  1  0  0  0  0
 32 68  2  0  0  0  0
 33 69  1  0  0  0  0
 33 72  1  0  0  0  0
 34 35  2  0  0  0  0
 35 53  1  0  0  0  0
 36 73  1  0  0  0  0
 36 78  2  0  0  0  0
 37 54  1  0  0  0  0
 37 74  1  0  0  0  0
 37 79  2  0  0  0  0
 38 65  1  0  0  0  0
 38 70  1  0  0  0  0
 38 80  2  0  0  0  0
 39 66  1  0  0  0  0
 39 75  1  0  0  0  0
 39 81  2  0  0  0  0
 40 71  1  0  0  0  0
 40 76  1  0  0  0  0
 40 82  2  0  0  0  0
 41 44  1  0  0  0  0
 42 54  1  0  0  0  0
 43 70  1  0  0  0  0
 44 46  1  0  0  0  0
 45 49  1  0  0  0  0
 45 50  1  0  0  0  0
 46 52  1  0  0  0  0
 47 48  1  0  0  0  0
 47 53  1  0  0  0  0
 48 53  1  0  0  0  0
 49 55  1  0  0  0  0
 50 71  1  0  0  0  0
 51 55  1  0  0  0  0
 51 71  1  0  0  0  0
 52 74  1  0  0  0  0
 54 70  1  0  0  0  0
 55 69  1  0  0  0  0
 56 66  1  0  0  0  0
 57 67  1  0  0  0  0
 58 67  1  0  0  0  0
 59 67  1  0  0  0  0
 60 77  1  0  0  0  0
 61 63  1  0  0  0  0
 62 76  1  0  0  0  0
 63 64  1  0  0  0  0
 64 84  1  0  0  0  0
 65 67  1  0  0  0  0
 65 75  1  0  0  0  0
 66 77  1  0  0  0  0
 68 69  1  0  0  0  0
M  CHG  1  77   1
M  ISO  4  40 100  64 101  76 100  84 101
M  END
> <Batch ID>
0129

> <Smiles>
CNC(C)C(=O)NC(C(=O)N1Cc2cc([101O:1][101CH2:1]CCc3cc(C[100NH:0][100C:0](=O)N4CCCC(n5nc(-c6ccc(Oc7ccc(F)cc7F)cc6)c(C(N)=O)c5N)C4)ccc3C=CC3CC3)ccc2CC1C(=O)NC1CCCc2ccccc21)C(C)(C)C

> <Shape>
0.199

> <Color>
0.078

> <Negative vol penalty>
0.000

$$$$

  -OEChem-04052320453D

 82 90  0     1  0  0  0  0  0999 V2000
  -36.1439  -26.0359   21.8140 C   0  0  0  0  0  0  0  0  0  0  0  0
  -35.0840  -25.1397   21.7192 C   0  0  0  0  0  0  0  0  0  0  0  0
  -25.0068  -19.0097   19.2540 C   0  0  0  0  0  0  0  0  0  0  0  0
  -24.4540  -20.1187   19.8942 C   0  0  0  0  0  0  0  0  0  0  0  0
  -23.0726   -9.8702   19.9440 C   0  0  0  0  0  0  0  0  0  0  0  0
  -23.8348   -9.8793   22.2366 C   0  0  0  0  0  0  0  0  0  0  0  0
  -36.9308  -26.0639   22.9645 C   0  0  0  0  0  0  0  0  0  0  0  0
  -34.8111  -24.2702   22.7746 C   0  0  0  0  0  0  0  0  0  0  0  0
  -29.8709  -24.0220   23.8596 C   0  0  0  0  0  0  0  0  0  0  0  0
  -26.3846  -18.7957   19.2949 C   0  0  0  0  0  0  0  0  0  0  0  0
  -25.2789  -21.0140   20.5752 C   0  0  0  0  0  0  0  0  0  0  0  0
  -22.3288   -8.7174   20.1958 C   0  0  0  0  0  0  0  0  0  0  0  0
  -23.0910   -8.7264   22.4884 C   0  0  0  0  0  0  0  0  0  0  0  0
  -29.0733  -23.2438   23.0217 C   0  0  0  0  0  0  0  0  0  0  0  0
  -19.3820   -7.9224   21.6507 C   0  0  0  0  0  0  0  0  0  0  0  0
  -18.0746   -7.8759   21.1668 C   0  0  0  0  0  0  0  0  0  0  0  0
  -29.1398  -21.4506   24.6340 C   0  0  0  0  0  0  0  0  0  0  0  0
  -18.6328   -5.9315   19.8459 C   0  0  0  0  0  0  0  0  0  0  0  0
  -23.8256  -10.4511   20.9644 C   0  0  0  0  0  0  0  0  0  0  0  0
  -24.1676  -12.9761   20.8416 C   0  0  0  0  0  0  0  0  0  0  0  0
  -36.6615  -25.2009   24.0385 C   0  0  0  0  0  0  0  0  0  0  0  0
  -30.3187  -23.5155   25.0881 C   0  0  0  0  0  0  0  0  0  0  0  0
  -35.5961  -24.2857   23.9401 C   0  0  0  0  0  0  0  0  0  0  0  0
  -29.9408  -22.2254   25.4867 C   0  0  0  0  0  0  0  0  0  0  0  0
  -27.2095  -19.6909   19.9758 C   0  0  0  0  0  0  0  0  0  0  0  0
  -26.6567  -20.8000   20.6160 C   0  0  0  0  0  0  0  0  0  0  0  0
  -22.3380   -8.1455   21.4680 C   0  0  0  0  0  0  0  0  0  0  0  0
  -28.7100  -21.9569   23.4076 C   0  0  0  0  0  0  0  0  0  0  0  0
  -20.3148   -6.9736   21.2322 C   0  0  0  0  0  0  0  0  0  0  0  0
  -17.7000   -6.8804   20.2644 C   0  0  0  0  0  0  0  0  0  0  0  0
  -19.9402   -5.9781   20.3298 C   0  0  0  0  0  0  0  0  0  0  0  0
  -24.5945  -11.6417   20.7047 C   0  0  0  0  0  0  0  0  0  0  0  0
  -25.2594  -13.7252   20.4766 C   0  0  0  0  0  0  0  0  0  0  0  0
  -22.8976  -13.4925   21.2613 C   0  0  0  0  0  0  0  0  0  0  0  0
  -33.1678  -22.9019   26.3570 C   0  0  0  0  0  0  0  0  0  0  0  0
  -31.4164  -22.2774   29.0150 C   0  0  0  0  0  0  0  0  0  0  0  0
  -28.4100  -21.3824   30.3595 C   0  0  0  0  0  0  0  0  0  0  0  0
  -30.7435  -14.7438   20.6585 C   0  0  0  0  0  0  0  0  0  0  0  0
  -37.5691  -25.2352   25.2426 C   0  0  0  0  0  0  0  0  0  0  0  0
  -31.1564  -24.3775   25.9925 C   0  0  0  0  0  0  0  0  0  0  0  0
  -30.3786  -21.6425   26.8047 C   0  0  0  0  0  0  0  0  0  0  0  0
  -36.9821  -24.5391   26.4678 C   0  0  0  0  0  0  0  0  0  0  0  0
  -29.6032  -12.3572   18.2751 C   0  0  0  0  0  0  0  0  0  0  0  0
  -36.3969  -23.1841   26.0827 C   0  0  0  0  0  0  0  0  0  0  0  0
  -28.1662  -12.0640   18.7097 C   0  0  0  0  0  0  0  0  0  0  0  0
  -30.5216  -12.5790   19.4749 C   0  0  0  0  0  0  0  0  0  0  0  0
  -28.6213  -13.3116   20.8627 C   0  0  0  0  0  0  0  0  0  0  0  0
  -35.2532  -23.3438   25.0738 C   0  0  1  0  0  0  0  0  0  0  0  0
  -31.9812  -23.5711   26.9909 C   0  0  1  0  0  0  0  0  0  0  0  0
  -27.6459  -13.1360   19.6862 C   0  0  2  0  0  0  0  0  0  0  0  0
  -27.2965  -20.9166   32.5596 C   0  0  0  0  0  0  0  0  0  0  0  0
  -32.8059  -19.5639   29.1410 C   0  0  0  0  0  0  0  0  0  0  0  0
  -31.0219  -18.8018   30.7235 C   0  0  0  0  0  0  0  0  0  0  0  0
  -32.5207  -20.6936   31.3538 C   0  0  0  0  0  0  0  0  0  0  0  0
  -26.4693  -23.5835   29.9752 C   0  0  0  0  0  0  0  0  0  0  0  0
  -28.6817  -19.4410   20.0072 C   0  0  0  0  0  0  0  0  0  0  0  0
  -27.5239  -21.7770   21.3541 C   0  0  0  0  0  0  0  0  0  1  0  0
  -30.8108  -16.8955   21.8933 C   0  0  0  0  0  0  0  0  0  0  0  0
  -30.5278  -18.0377   20.9354 C   0  0  0  0  0  0  0  0  0  0  0  0
  -30.7454  -21.0534   29.5900 C   0  0  1  0  0  0  0  0  0  0  0  0
  -27.6046  -21.9682   31.5052 C   0  0  2  0  0  0  0  0  0  0  0  0
  -31.7667  -20.0382   30.1763 C   0  0  0  0  0  0  0  0  0  0  0  0
  -25.8590  -11.5453   20.2853 N   0  0  0  0  0  0  0  0  0  0  0  0
  -26.2359  -12.8287   20.1554 N   0  0  0  0  0  0  0  0  0  0  0  0
  -31.2016  -22.5220   27.6512 N   0  0  0  0  0  0  0  0  0  0  0  0
  -29.9720  -13.6084   20.3604 N   0  0  0  0  0  0  0  0  0  0  0  0
  -25.4699  -15.0565   20.4021 N   0  0  0  0  0  0  0  0  0  0  0  0
  -21.8859  -12.5837   21.6005 N   0  0  0  0  0  0  0  0  0  0  0  0
  -34.0451  -23.7756   25.7434 N   0  0  0  0  0  0  0  0  0  0  0  0
  -29.7658  -21.5404   30.5552 N   0  0  0  0  0  0  0  0  0  0  0  0
  -30.1452  -15.6735   21.5002 N   0  0  0  0  0  0  0  0  0  0  0  0
  -26.3153  -22.5213   31.0023 N   0  3  0  0  0  0  0  0  0  0  0  0
  -29.0728  -18.3416   20.9309 N   0  3  0  0  0  0  0  0  0  0  0  0
  -22.6615  -14.7232   21.3177 O   0  0  0  0  0  0  0  0  0  0  0  0
  -33.2799  -21.6833   26.4212 O   0  0  0  0  0  0  0  0  0  0  0  0
  -32.0998  -22.9942   29.7504 O   0  0  0  0  0  0  0  0  0  0  0  0
  -27.8888  -20.8358   29.3899 O   0  0  0  0  0  0  0  0  0  0  0  0
  -31.8790  -14.9187   20.2036 O   0  0  0  0  0  0  0  0  0  0  0  0
  -21.6122   -7.0207   21.7141 O   0  0  0  0  0  0  0  0  0  0  0  0
  -27.9321  -21.1949   22.5914 O   0  0  0  0  0  0  0  0  0  1  0  0
  -16.4440   -6.8349   19.8010 F   0  0  0  0  0  0  0  0  0  0  0  0
  -20.8316   -5.0631   19.9249 F   0  0  0  0  0  0  0  0  0  0  0  0
  1  2  1  0  0  0  0
  1  7  2  0  0  0  0
  2  8  2  0  0  0  0
  3  4  1  0  0  0  0
  3 10  2  0  0  0  0
  4 11  2  0  0  0  0
  5 12  2  0  0  0  0
  5 19  1  0  0  0  0
  6 13  1  0  0  0  0
  6 19  2  0  0  0  0
  7 21  1  0  0  0  0
  8 23  1  0  0  0  0
  9 14  2  0  0  0  0
  9 22  1  0  0  0  0
 10 25  1  0  0  0  0
 11 26  1  0  0  0  0
 12 27  1  0  0  0  0
 13 27  2  0  0  0  0
 14 28  1  0  0  0  0
 15 16  2  0  0  0  0
 15 29  1  0  0  0  0
 16 30  1  0  0  0  0
 17 24  1  0  0  0  0
 17 28  2  0  0  0  0
 18 30  2  0  0  0  0
 18 31  1  0  0  0  0
 19 32  1  0  0  0  0
 20 32  1  0  0  0  0
 20 33  2  0  0  0  0
 20 34  1  0  0  0  0
 21 23  2  0  0  0  0
 21 39  1  0  0  0  0
 22 24  2  0  0  0  0
 22 40  1  0  0  0  0
 23 48  1  0  0  0  0
 24 41  1  0  0  0  0
 25 26  2  0  0  0  0
 25 56  1  0  0  0  0
 26 57  1  0  0  0  0
 27 79  1  0  0  0  0
 28 80  1  0  0  0  0
 29 31  2  0  0  0  0
 29 79  1  0  0  0  0
 30 81  1  0  0  0  0
 31 82  1  0  0  0  0
 32 63  2  0  0  0  0
 33 64  1  0  0  0  0
 33 67  1  0  0  0  0
 34 68  1  0  0  0  0
 34 74  2  0  0  0  0
 35 49  1  0  0  0  0
 35 69  1  0  0  0  0
 35 75  2  0  0  0  0
 36 60  1  0  0  0  0
 36 65  1  0  0  0  0
 36 76  2  0  0  0  0
 37 61  1  0  0  0  0
 37 70  1  0  0  0  0
 37 77  2  0  0  0  0
 38 66  1  0  0  0  0
 38 71  1  0  0  0  0
 38 78  2  0  0  0  0
 39 42  1  0  0  0  0
 40 49  1  0  0  0  0
 41 65  1  0  0  0  0
 42 44  1  0  0  0  0
 43 45  1  0  0  0  0
 43 46  1  0  0  0  0
 44 48  1  0  0  0  0
 45 50  1  0  0  0  0
 46 66  1  0  0  0  0
 47 50  1  0  0  0  0
 47 66  1  0  0  0  0
 48 69  1  0  0  0  0
 49 65  1  0  0  0  0
 50 64  1  0  0  0  0
 51 61  1  0  0  0  0
 52 62  1  0  0  0  0
 53 62  1  0  0  0  0
 54 62  1  0  0  0  0
 55 72  1  0  0  0  0
 56 73  1  0  0  0  0
 57 80  1  0  0  0  0
 58 59  1  0  0  0  0
 58 71  1  0  0  0  0
 59 73  1  0  0  0  0
 60 62  1  0  0  0  0
 60 70  1  0  0  0  0
 61 72  1  0  0  0  0
 63 64  1  0  0  0  0
M  CHG  2  72   1  73   1
M  ISO  4  38 100  57 101  71 100  80 101
M  END
> <Batch ID>
0129

> <Smiles>
CNC(C)C(=O)NC(C(=O)N1Cc2cc([101O:1][101CH2:1]c3ccccc3CNCC[100NH:0][100C:0](=O)N3CCCC(n4nc(-c5ccc(Oc6ccc(F)cc6F)cc5)c(C(N)=O)c4N)C3)ccc2CC1C(=O)NC1CCCc2ccccc21)C(C)(C)C

> <Shape>
0.175

> <Color>
0.191

> <Negative vol penalty>
0.000

$$$$

  -OEChem-04052320453D

 87 96  0     1  0  0  0  0  0999 V2000
  -20.0939   -6.2246   21.1737 C   0  0  0  0  0  0  0  0  0  0  0  0
  -19.5390   -7.4398   20.7854 C   0  0  0  0  0  0  0  0  0  0  0  0
  -22.9864  -30.9916   21.1492 C   0  0  0  0  0  0  0  0  0  0  0  0
  -22.7910  -28.9746   22.4646 C   0  0  0  0  0  0  0  0  0  0  0  0
  -21.1764   -6.2030   22.0522 C   0  0  0  0  0  0  0  0  0  0  0  0
  -20.0656   -8.6341   21.2761 C   0  0  0  0  0  0  0  0  0  0  0  0
  -21.1621  -15.4520   19.3710 C   0  0  0  0  0  0  0  0  0  0  0  0
  -25.4348  -23.0752   19.6258 C   0  0  0  0  0  0  0  0  0  0  0  0
  -26.8260  -23.1490   19.5578 C   0  0  0  0  0  0  0  0  0  0  0  0
  -21.6093  -30.9805   20.9276 C   0  0  0  0  0  0  0  0  0  0  0  0
  -21.4139  -28.9635   22.2431 C   0  0  0  0  0  0  0  0  0  0  0  0
  -20.9218  -16.7487   19.8234 C   0  0  0  0  0  0  0  0  0  0  0  0
  -18.6855  -30.5497   23.4515 C   0  0  0  0  0  0  0  0  0  0  0  0
  -17.8568  -30.2968   24.5446 C   0  0  0  0  0  0  0  0  0  0  0  0
  -22.8434  -16.5924   21.2734 C   0  0  0  0  0  0  0  0  0  0  0  0
  -25.5987  -21.9489   21.7569 C   0  0  0  0  0  0  0  0  0  0  0  0
  -16.9678  -28.3516   23.4207 C   0  0  0  0  0  0  0  0  0  0  0  0
  -23.5773  -29.9886   21.9176 C   0  0  0  0  0  0  0  0  0  0  0  0
  -25.6859  -30.6233   23.2055 C   0  0  0  0  0  0  0  0  0  0  0  0
  -21.7226   -7.3979   22.5464 C   0  0  0  0  0  0  0  0  0  0  0  0
  -22.2402  -14.7106   19.8753 C   0  0  0  0  0  0  0  0  0  0  0  0
  -21.1555   -8.6283   22.1631 C   0  0  0  0  0  0  0  0  0  0  0  0
  -23.0967  -15.2875   20.8239 C   0  0  0  0  0  0  0  0  0  0  0  0
  -24.8211  -22.4752   20.7254 C   0  0  0  0  0  0  0  0  0  0  0  0
  -27.6036  -22.6226   20.5893 C   0  0  0  0  0  0  0  0  0  0  0  0
  -26.9899  -22.0226   21.6889 C   0  0  0  0  0  0  0  0  0  0  0  0
  -20.8231  -29.9665   21.4746 C   0  0  0  0  0  0  0  0  0  0  0  0
  -21.7608  -17.3181   20.7768 C   0  0  0  0  0  0  0  0  0  0  0  0
  -18.6553  -29.7035   22.3429 C   0  0  0  0  0  0  0  0  0  0  0  0
  -16.9980  -29.1978   24.5292 C   0  0  0  0  0  0  0  0  0  0  0  0
  -17.7965  -28.6045   22.3276 C   0  0  0  0  0  0  0  0  0  0  0  0
  -24.9998  -29.9992   22.1464 C   0  0  0  0  0  0  0  0  0  0  0  0
  -27.0094  -30.3411   22.9708 C   0  0  0  0  0  0  0  0  0  0  0  0
  -25.1727  -31.3895   24.3033 C   0  0  0  0  0  0  0  0  0  0  0  0
  -22.5295  -11.9935   21.4994 C   0  0  0  0  0  0  0  0  0  0  0  0
  -25.6967  -12.4882   21.0029 C   0  0  0  0  0  0  0  0  0  0  0  0
  -28.2187  -14.6964   20.3626 C   0  0  0  0  0  0  0  0  0  0  0  0
  -29.7759  -25.9295   20.0153 C   0  0  0  0  0  0  0  0  0  0  0  0
  -22.8628   -7.3223   23.5308 C   0  0  0  0  0  0  0  0  0  0  0  0
  -22.5015  -13.3228   19.3574 C   0  0  0  0  0  0  0  0  0  0  0  0
  -24.2797  -14.5409   21.3820 C   0  0  0  0  0  0  0  0  0  0  0  0
  -23.6003   -8.6466   23.7115 C   0  0  0  0  0  0  0  0  0  0  0  0
  -30.0681  -29.4255   19.4075 C   0  0  0  0  0  0  0  0  0  0  0  0
  -22.6073   -9.7904   23.8916 C   0  0  0  0  0  0  0  0  0  0  0  0
  -28.8642  -30.0252   20.1361 C   0  0  0  0  0  0  0  0  0  0  0  0
  -26.7715  -19.4119   23.8774 C   0  0  0  0  0  0  0  0  0  0  0  0
  -27.9426  -19.8538   24.7043 C   0  0  0  0  0  0  0  0  0  0  0  0
  -29.7318  -28.0753   18.7783 C   0  0  0  0  0  0  0  0  0  0  0  0
  -27.9498  -27.6858   20.4356 C   0  0  0  0  0  0  0  0  0  0  0  0
  -21.7146   -9.9459   22.6545 C   0  0  1  0  0  0  0  0  0  0  0  0
  -23.3259  -12.4718   20.3184 C   0  0  1  0  0  0  0  0  0  0  0  0
  -28.2558  -29.0218   21.1342 C   0  0  2  0  0  0  0  0  0  0  0  0
  -27.1792  -20.8587   23.8878 C   0  0  0  0  0  0  0  0  0  0  0  0
  -30.7061  -14.8093   20.0499 C   0  0  0  0  0  0  0  0  0  0  0  0
  -26.0860  -12.2017   24.0156 C   0  0  0  0  0  0  0  0  0  0  0  0
  -28.3468  -13.2446   23.7523 C   0  0  0  0  0  0  0  0  0  0  0  0
  -27.8358  -11.0782   22.6261 C   0  0  0  0  0  0  0  0  0  0  0  0
  -27.9415  -15.7288   17.6029 C   0  0  0  0  0  0  0  0  0  0  0  0
  -29.0916  -22.7137   20.4895 C   0  0  0  0  0  0  0  0  0  0  0  0
  -23.3246  -22.3962   20.7981 C   0  0  0  0  0  0  0  0  0  0  0  0
  -29.6943  -23.8344   21.3431 C   0  0  0  0  0  0  0  0  0  0  0  0
  -21.3242  -20.9086   20.6426 C   0  0  0  0  0  0  0  0  0  0  0  0
  -20.9117  -19.4891   20.3064 C   0  0  0  0  0  0  0  0  0  1  0  0
  -26.7957  -13.2081   21.7463 C   0  0  1  0  0  0  0  0  0  0  0  0
  -29.3586  -14.6608   19.3607 C   0  0  2  0  0  0  0  0  0  0  0  0
  -27.2428  -12.4468   23.0262 C   0  0  0  0  0  0  0  0  0  0  0  0
  -25.8198  -29.3683   21.3016 N   0  0  0  0  0  0  0  0  0  0  0  0
  -27.0347  -29.5945   21.8297 N   0  0  0  0  0  0  0  0  0  0  0  0
  -24.4897  -13.1848   20.8488 N   0  0  0  0  0  0  0  0  0  0  0  0
  -29.1604  -27.1696   19.7779 N   0  0  0  0  0  0  0  0  0  0  0  0
  -28.1424  -30.6612   23.6312 N   0  0  0  0  0  0  0  0  0  0  0  0
  -23.7875  -31.5832   24.3932 N   0  0  0  0  0  0  0  0  0  0  0  0
  -27.7613  -21.4829   22.7414 N   0  0  0  0  0  0  0  0  0  0  0  0
  -22.4337  -10.6182   21.5936 N   0  0  0  0  0  0  0  0  0  0  0  0
  -27.8651  -13.4304   20.7791 N   0  0  0  0  0  0  0  0  0  0  0  0
  -29.1740  -25.1346   20.9830 N   0  0  0  0  0  0  0  0  0  0  0  0
  -29.2128  -15.7651   18.3707 N   0  3  0  0  0  0  0  0  0  0  0  0
  -22.7986  -21.0326   20.5195 N   0  3  0  0  0  0  0  0  0  0  0  0
  -25.9216  -31.9015   25.1696 O   0  0  0  0  0  0  0  0  0  0  0  0
  -22.0395  -12.8116   22.2690 O   0  0  0  0  0  0  0  0  0  0  0  0
  -25.9039  -11.3524   20.5685 O   0  0  0  0  0  0  0  0  0  0  0  0
  -27.6969  -15.7428   20.7410 O   0  0  0  0  0  0  0  0  0  0  0  0
  -30.7901  -25.5604   19.4134 O   0  0  0  0  0  0  0  0  0  0  0  0
  -19.4792  -29.9554   21.2588 O   0  0  0  0  0  0  0  0  0  0  0  0
  -21.5282  -18.5833   21.2205 O   0  0  0  0  0  0  0  0  0  1  0  0
  -16.2034  -28.9542   25.5797 F   0  0  0  0  0  0  0  0  0  0  0  0
  -17.7640  -27.7874   21.2659 F   0  0  0  0  0  0  0  0  0  0  0  0
  1  2  1  0  0  0  0
  1  5  2  0  0  0  0
  2  6  2  0  0  0  0
  3 10  2  0  0  0  0
  3 18  1  0  0  0  0
  4 11  1  0  0  0  0
  4 18  2  0  0  0  0
  5 20  1  0  0  0  0
  6 22  1  0  0  0  0
  7 12  2  0  0  0  0
  7 21  1  0  0  0  0
  8  9  2  0  0  0  0
  8 24  1  0  0  0  0
  9 25  1  0  0  0  0
 10 27  1  0  0  0  0
 11 27  2  0  0  0  0
 12 28  1  0  0  0  0
 13 14  2  0  0  0  0
 13 29  1  0  0  0  0
 14 30  1  0  0  0  0
 15 23  1  0  0  0  0
 15 28  2  0  0  0  0
 16 24  2  0  0  0  0
 16 26  1  0  0  0  0
 17 30  2  0  0  0  0
 17 31  1  0  0  0  0
 18 32  1  0  0  0  0
 19 32  1  0  0  0  0
 19 33  2  0  0  0  0
 19 34  1  0  0  0  0
 20 22  2  0  0  0  0
 20 39  1  0  0  0  0
 21 23  2  0  0  0  0
 21 40  1  0  0  0  0
 22 50  1  0  0  0  0
 23 41  1  0  0  0  0
 24 60  1  0  0  0  0
 25 26  2  0  0  0  0
 25 59  1  0  0  0  0
 26 73  1  0  0  0  0
 27 84  1  0  0  0  0
 28 85  1  0  0  0  0
 29 31  2  0  0  0  0
 29 84  1  0  0  0  0
 30 86  1  0  0  0  0
 31 87  1  0  0  0  0
 32 67  2  0  0  0  0
 33 68  1  0  0  0  0
 33 71  1  0  0  0  0
 34 72  1  0  0  0  0
 34 79  2  0  0  0  0
 35 51  1  0  0  0  0
 35 74  1  0  0  0  0
 35 80  2  0  0  0  0
 36 64  1  0  0  0  0
 36 69  1  0  0  0  0
 36 81  2  0  0  0  0
 37 65  1  0  0  0  0
 37 75  1  0  0  0  0
 37 82  2  0  0  0  0
 38 70  1  0  0  0  0
 38 76  1  0  0  0  0
 38 83  2  0  0  0  0
 39 42  1  0  0  0  0
 40 51  1  0  0  0  0
 41 69  1  0  0  0  0
 42 44  1  0  0  0  0
 43 45  1  0  0  0  0
 43 48  1  0  0  0  0
 44 50  1  0  0  0  0
 45 52  1  0  0  0  0
 46 47  1  0  0  0  0
 46 53  1  0  0  0  0
 47 53  1  0  0  0  0
 48 70  1  0  0  0  0
 49 52  1  0  0  0  0
 49 70  1  0  0  0  0
 50 74  1  0  0  0  0
 51 69  1  0  0  0  0
 52 68  1  0  0  0  0
 53 73  1  0  0  0  0
 54 65  1  0  0  0  0
 55 66  1  0  0  0  0
 56 66  1  0  0  0  0
 57 66  1  0  0  0  0
 58 77  1  0  0  0  0
 59 61  1  0  0  0  0
 60 78  1  0  0  0  0
 61 76  1  0  0  0  0
 62 63  1  0  0  0  0
 62 78  1  0  0  0  0
 63 85  1  0  0  0  0
 64 66  1  0  0  0  0
 64 75  1  0  0  0  0
 65 77  1  0  0  0  0
 67 68  1  0  0  0  0
M  CHG  2  77   1  78   1
M  ISO  4  38 100  63 101  76 100  85 101
M  END
> <Batch ID>
0129

> <Smiles>
CNC(C)C(=O)NC(C(=O)N1Cc2cc([101O:1][101CH2:1]CNCc3ccc(CC[100NH:0][100C:0](=O)N4CCCC(n5nc(-c6ccc(Oc7ccc(F)cc7F)cc6)c(C(N)=O)c5N)C4)c(NC4CC4)c3)ccc2CC1C(=O)NC1CCCc2ccccc21)C(C)(C)C

> <Shape>
0.268

> <Color>
0.054

> <Negative vol penalty>
0.000

$$$$

  -OEChem-04052320453D

 84 92  0     1  0  0  0  0  0999 V2000
  -15.9720  -31.0928   22.6742 C   0  0  0  0  0  0  0  0  0  0  0  0
  -15.9857  -29.7026   22.7223 C   0  0  0  0  0  0  0  0  0  0  0  0
  -23.6974   -9.9236   21.9993 C   0  0  0  0  0  0  0  0  0  0  0  0
  -24.3188  -11.2448   23.9243 C   0  0  0  0  0  0  0  0  0  0  0  0
  -17.0150  -31.7780   22.0524 C   0  0  0  0  0  0  0  0  0  0  0  0
  -17.0419  -28.9965   22.1475 C   0  0  0  0  0  0  0  0  0  0  0  0
  -20.8808  -23.0104   23.0112 C   0  0  0  0  0  0  0  0  0  0  0  0
  -23.1376   -8.9617   22.8401 C   0  0  0  0  0  0  0  0  0  0  0  0
  -23.7589  -10.2829   24.7651 C   0  0  0  0  0  0  0  0  0  0  0  0
  -21.2990  -21.8870   22.2993 C   0  0  0  0  0  0  0  0  0  0  0  0
  -21.2246   -6.3316   24.4642 C   0  0  0  0  0  0  0  0  0  0  0  0
  -19.9729   -5.8203   24.1218 C   0  0  0  0  0  0  0  0  0  0  0  0
  -23.0859  -23.1793   21.3215 C   0  0  0  0  0  0  0  0  0  0  0  0
  -19.0286   -8.0398   24.2601 C   0  0  0  0  0  0  0  0  0  0  0  0
  -24.2881  -11.0651   22.5414 C   0  0  0  0  0  0  0  0  0  0  0  0
  -24.2223  -13.1781   21.1136 C   0  0  0  0  0  0  0  0  0  0  0  0
  -18.0894  -31.0804   21.4782 C   0  0  0  0  0  0  0  0  0  0  0  0
  -21.5565  -24.2316   22.8750 C   0  0  0  0  0  0  0  0  0  0  0  0
  -18.0996  -29.6729   21.5163 C   0  0  0  0  0  0  0  0  0  0  0  0
  -22.6758  -24.3161   22.0348 C   0  0  0  0  0  0  0  0  0  0  0  0
  -23.1684   -9.1414   24.2230 C   0  0  0  0  0  0  0  0  0  0  0  0
  -22.4000  -21.9721   21.4521 C   0  0  0  0  0  0  0  0  0  0  0  0
  -21.3784   -7.6969   24.7047 C   0  0  0  0  0  0  0  0  0  0  0  0
  -18.8748   -6.6744   24.0197 C   0  0  0  0  0  0  0  0  0  0  0  0
  -20.2804   -8.5511   24.6026 C   0  0  0  0  0  0  0  0  0  0  0  0
  -24.8670  -12.0588   21.6734 C   0  0  0  0  0  0  0  0  0  0  0  0
  -25.1969  -13.8008   20.3727 C   0  0  0  0  0  0  0  0  0  0  0  0
  -22.8639  -13.6158   21.2510 C   0  0  0  0  0  0  0  0  0  0  0  0
  -20.7621  -27.1322   21.8458 C   0  0  0  0  0  0  0  0  0  0  0  0
  -23.7408  -27.8904   22.8827 C   0  0  0  0  0  0  0  0  0  0  0  0
  -26.9032  -26.8448   23.6263 C   0  0  0  0  0  0  0  0  0  0  0  0
  -31.1738  -13.8595   20.7253 C   0  0  0  0  0  0  0  0  0  0  0  0
  -19.1705  -31.8628   20.7756 C   0  0  0  0  0  0  0  0  0  0  0  0
  -21.1090  -25.4273   23.6704 C   0  0  0  0  0  0  0  0  0  0  0  0
  -23.4480  -25.5986   21.8691 C   0  0  0  0  0  0  0  0  0  0  0  0
  -20.4395  -31.0538   20.5198 C   0  0  0  0  0  0  0  0  0  0  0  0
  -29.2039  -12.8781   17.9265 C   0  0  0  0  0  0  0  0  0  0  0  0
  -20.0926  -29.6847   19.9436 C   0  0  0  0  0  0  0  0  0  0  0  0
  -27.6591  -18.6109   22.7686 C   0  0  0  0  0  0  0  0  0  0  0  0
  -28.5552  -18.2213   20.4338 C   0  0  0  0  0  0  0  0  0  0  0  0
  -27.8108  -12.6579   18.5189 C   0  0  0  0  0  0  0  0  0  0  0  0
  -29.0108  -19.1854   23.1946 C   0  0  0  0  0  0  0  0  0  0  0  0
  -29.9093  -18.7944   20.8548 C   0  0  0  0  0  0  0  0  0  0  0  0
  -30.3033  -12.4397   18.8915 C   0  0  0  0  0  0  0  0  0  0  0  0
  -28.8283  -12.8181   20.8293 C   0  0  0  0  0  0  0  0  0  0  0  0
  -19.2402  -28.8725   20.9260 C   0  0  1  0  0  0  0  0  0  0  0  0
  -21.5587  -26.7520   23.0618 C   0  0  1  0  0  0  0  0  0  0  0  0
  -27.4069  -18.8049   21.2675 C   0  0  0  0  0  0  0  0  0  0  0  0
  -27.6877  -13.2973   19.9151 C   0  0  2  0  0  0  0  0  0  0  0  0
  -30.1765  -18.6660   22.3540 C   0  0  0  0  0  0  0  0  0  0  0  0
  -29.1266  -27.7007   24.4145 C   0  0  0  0  0  0  0  0  0  0  0  0
  -24.2756  -29.0471   20.1104 C   0  0  0  0  0  0  0  0  0  0  0  0
  -26.7218  -29.0068   20.6418 C   0  0  0  0  0  0  0  0  0  0  0  0
  -25.1748  -30.4135   22.0021 C   0  0  0  0  0  0  0  0  0  0  0  0
  -26.8302  -25.1438   26.0471 C   0  0  0  0  0  0  0  0  0  0  0  0
  -26.0740  -18.1793   20.8603 C   0  0  0  0  0  0  0  0  0  0  0  0
  -31.8993  -15.2703   22.6338 C   0  0  0  0  0  0  0  0  0  0  0  0
  -31.7575  -16.7348   22.2632 C   0  0  0  0  0  0  0  0  0  0  0  0
  -23.6143  -18.6136   20.8632 C   0  0  0  0  0  0  0  0  0  0  0  0
  -22.5741  -19.6024   21.3517 C   0  0  0  0  0  0  0  0  0  1  0  0
  -25.1179  -27.8996   22.2643 C   0  0  1  0  0  0  0  0  0  0  0  0
  -27.7920  -27.1014   24.8298 C   0  0  2  0  0  0  0  0  0  0  0  0
  -25.3070  -29.0679   21.2561 C   0  0  0  0  0  0  0  0  0  0  0  0
  -26.1518  -11.9728   21.3184 N   0  0  0  0  0  0  0  0  0  0  0  0
  -26.3222  -13.0459   20.5274 N   0  0  0  0  0  0  0  0  0  0  0  0
  -22.9676  -26.7415   22.6631 N   0  0  0  0  0  0  0  0  0  0  0  0
  -30.1298  -13.0829   20.1961 N   0  0  0  0  0  0  0  0  0  0  0  0
  -25.1924  -14.9149   19.6104 N   0  0  0  0  0  0  0  0  0  0  0  0
  -21.9957  -12.8591   22.0497 N   0  0  0  0  0  0  0  0  0  0  0  0
  -20.0682  -28.3200   21.9765 N   0  0  0  0  0  0  0  0  0  0  0  0
  -26.0639  -27.9096   23.3749 N   0  0  0  0  0  0  0  0  0  0  0  0
  -30.9246  -14.4388   21.9635 N   0  0  0  0  0  0  0  0  0  0  0  0
  -30.4252  -17.2340   22.6887 N   0  3  0  0  0  0  0  0  0  0  0  0
  -28.0550  -25.8292   25.5601 N   0  3  0  0  0  0  0  0  0  0  0  0
  -24.9645  -19.0864   21.2604 N   0  3  0  0  0  0  0  0  0  0  0  0
  -22.4286  -14.6383   20.6693 O   0  0  0  0  0  0  0  0  0  0  0  0
  -20.7771  -26.4026   20.8613 O   0  0  0  0  0  0  0  0  0  0  0  0
  -23.3675  -28.8636   23.5424 O   0  0  0  0  0  0  0  0  0  0  0  0
  -26.9513  -25.8055   22.9721 O   0  0  0  0  0  0  0  0  0  0  0  0
  -32.2463  -14.0286   20.1355 O   0  0  0  0  0  0  0  0  0  0  0  0
  -22.6220   -8.2031   25.0438 O   0  0  0  0  0  0  0  0  0  0  0  0
  -22.8099  -20.8773   20.7556 O   0  0  0  0  0  0  0  0  0  1  0  0
  -17.6731   -6.1836   23.6893 F   0  0  0  0  0  0  0  0  0  0  0  0
  -20.4221   -9.8639   24.8312 F   0  0  0  0  0  0  0  0  0  0  0  0
  1  2  1  0  0  0  0
  1  5  2  0  0  0  0
  2  6  2  0  0  0  0
  3  8  2  0  0  0  0
  3 15  1  0  0  0  0
  4  9  1  0  0  0  0
  4 15  2  0  0  0  0
  5 17  1  0  0  0  0
  6 19  1  0  0  0  0
  7 10  2  0  0  0  0
  7 18  1  0  0  0  0
  8 21  1  0  0  0  0
  9 21  2  0  0  0  0
 10 22  1  0  0  0  0
 11 12  2  0  0  0  0
 11 23  1  0  0  0  0
 12 24  1  0  0  0  0
 13 20  1  0  0  0  0
 13 22  2  0  0  0  0
 14 24  2  0  0  0  0
 14 25  1  0  0  0  0
 15 26  1  0  0  0  0
 16 26  1  0  0  0  0
 16 27  2  0  0  0  0
 16 28  1  0  0  0  0
 17 19  2  0  0  0  0
 17 33  1  0  0  0  0
 18 20  2  0  0  0  0
 18 34  1  0  0  0  0
 19 46  1  0  0  0  0
 20 35  1  0  0  0  0
 21 81  1  0  0  0  0
 22 82  1  0  0  0  0
 23 25  2  0  0  0  0
 23 81  1  0  0  0  0
 24 83  1  0  0  0  0
 25 84  1  0  0  0  0
 26 64  2  0  0  0  0
 27 65  1  0  0  0  0
 27 68  1  0  0  0  0
 28 69  1  0  0  0  0
 28 76  2  0  0  0  0
 29 47  1  0  0  0  0
 29 70  1  0  0  0  0
 29 77  2  0  0  0  0
 30 61  1  0  0  0  0
 30 66  1  0  0  0  0
 30 78  2  0  0  0  0
 31 62  1  0  0  0  0
 31 71  1  0  0  0  0
 31 79  2  0  0  0  0
 32 67  1  0  0  0  0
 32 72  1  0  0  0  0
 32 80  2  0  0  0  0
 33 36  1  0  0  0  0
 34 47  1  0  0  0  0
 35 66  1  0  0  0  0
 36 38  1  0  0  0  0
 37 41  1  0  0  0  0
 37 44  1  0  0  0  0
 38 46  1  0  0  0  0
 39 42  1  0  0  0  0
 39 48  1  0  0  0  0
 40 43  1  0  0  0  0
 40 48  1  0  0  0  0
 41 49  1  0  0  0  0
 42 50  1  0  0  0  0
 43 50  1  0  0  0  0
 44 67  1  0  0  0  0
 45 49  1  0  0  0  0
 45 67  1  0  0  0  0
 46 70  1  0  0  0  0
 47 66  1  0  0  0  0
 48 56  1  0  0  0  0
 49 65  1  0  0  0  0
 50 73  1  0  0  0  0
 51 62  1  0  0  0  0
 52 63  1  0  0  0  0
 53 63  1  0  0  0  0
 54 63  1  0  0  0  0
 55 74  1  0  0  0  0
 56 75  1  0  0  0  0
 57 58  1  0  0  0  0
 57 72  1  0  0  0  0
 58 73  1  0  0  0  0
 59 60  1  0  0  0  0
 59 75  1  0  0  0  0
 60 82  1  0  0  0  0
 61 63  1  0  0  0  0
 61 71  1  0  0  0  0
 62 74  1  0  0  0  0
 64 65  1  0  0  0  0
M  CHG  3  73   1  74   1  75   1
M  ISO  4  32 100  60 101  72 100  82 101
M  END
> <Batch ID>
0129

> <Smiles>
CNC(C)C(=O)NC(C(=O)N1Cc2cc([101O:1][101CH2:1]CNCC3CCC(NCC[100NH:0][100C:0](=O)N4CCCC(n5nc(-c6ccc(Oc7ccc(F)cc7F)cc6)c(C(N)=O)c5N)C4)CC3)ccc2CC1C(=O)NC1CCCc2ccccc21)C(C)(C)C

> <Shape>
0.230

> <Color>
0.132

> <Negative vol penalty>
0.000

$$$$

  -OEChem-04052320453D

 88 97  0     1  0  0  0  0  0999 V2000
  -16.8567  -24.7511   22.2172 C   0  0  0  0  0  0  0  0  0  0  0  0
  -17.9319  -24.3379   21.4371 C   0  0  0  0  0  0  0  0  0  0  0  0
  -23.6906   -8.6334   19.8544 C   0  0  0  0  0  0  0  0  0  0  0  0
  -23.3133  -10.4116   21.4459 C   0  0  0  0  0  0  0  0  0  0  0  0
  -16.9093  -25.9754   22.8822 C   0  0  0  0  0  0  0  0  0  0  0  0
  -19.0600  -25.1493   21.3207 C   0  0  0  0  0  0  0  0  0  0  0  0
  -23.3801  -22.5486   21.7876 C   0  0  0  0  0  0  0  0  0  0  0  0
  -22.8556   -7.7951   20.5931 C   0  0  0  0  0  0  0  0  0  0  0  0
  -22.4782   -9.5733   22.1846 C   0  0  0  0  0  0  0  0  0  0  0  0
  -23.8036  -21.8136   20.6812 C   0  0  0  0  0  0  0  0  0  0  0  0
  -22.8175   -7.0483   24.4073 C   0  0  0  0  0  0  0  0  0  0  0  0
  -22.9805   -7.0282   25.7924 C   0  0  0  0  0  0  0  0  0  0  0  0
  -25.3551  -23.5717   20.1146 C   0  0  0  0  0  0  0  0  0  0  0  0
  -20.6976   -7.7684   26.0717 C   0  0  0  0  0  0  0  0  0  0  0  0
  -23.9195   -9.9416   20.2809 C   0  0  0  0  0  0  0  0  0  0  0  0
  -24.6162  -11.2091   18.1796 C   0  0  0  0  0  0  0  0  0  0  0  0
  -18.0425  -26.7978   22.7817 C   0  0  0  0  0  0  0  0  0  0  0  0
  -23.9341  -23.8077   22.0601 C   0  0  0  0  0  0  0  0  0  0  0  0
  -19.1272  -26.3863   21.9840 C   0  0  0  0  0  0  0  0  0  0  0  0
  -24.9387  -24.3196   21.2265 C   0  0  0  0  0  0  0  0  0  0  0  0
  -22.2494   -8.2650   21.7581 C   0  0  0  0  0  0  0  0  0  0  0  0
  -24.7891  -22.3264   19.8428 C   0  0  0  0  0  0  0  0  0  0  0  0
  -21.5947   -7.4286   23.8543 C   0  0  0  0  0  0  0  0  0  0  0  0
  -21.9205   -7.3882   26.6246 C   0  0  0  0  0  0  0  0  0  0  0  0
  -20.5347   -7.7886   24.6865 C   0  0  0  0  0  0  0  0  0  0  0  0
  -24.7824  -10.8079   19.5187 C   0  0  0  0  0  0  0  0  0  0  0  0
  -25.6938  -12.0230   17.9287 C   0  0  0  0  0  0  0  0  0  0  0  0
  -23.5804  -10.8760   17.2459 C   0  0  0  0  0  0  0  0  0  0  0  0
  -28.3841  -20.9945   17.8763 C   0  0  0  0  0  0  0  0  0  0  0  0
  -22.7934  -26.7692   22.2392 C   0  0  0  0  0  0  0  0  0  0  0  0
  -25.8001  -27.4495   23.2490 C   0  0  0  0  0  0  0  0  0  0  0  0
  -30.3109  -18.1436   20.9181 C   0  0  0  0  0  0  0  0  0  0  0  0
  -29.1397  -27.5560   23.9434 C   0  0  0  0  0  0  0  0  0  0  0  0
  -29.0388  -15.3313   21.4954 C   0  0  0  0  0  0  0  0  0  0  0  0
  -18.0339  -28.1341   23.4809 C   0  0  0  0  0  0  0  0  0  0  0  0
  -23.4855  -24.5763   23.2727 C   0  0  0  0  0  0  0  0  0  0  0  0
  -25.5799  -25.6574   21.4868 C   0  0  0  0  0  0  0  0  0  0  0  0
  -19.4185  -28.7643   23.6072 C   0  0  0  0  0  0  0  0  0  0  0  0
  -26.6700  -22.9929   15.7552 C   0  0  0  0  0  0  0  0  0  0  0  0
  -30.2330  -12.7444   19.2640 C   0  0  0  0  0  0  0  0  0  0  0  0
  -28.4404  -21.1834   21.9491 C   0  0  0  0  0  0  0  0  0  0  0  0
  -20.1645  -28.6847   22.2791 C   0  0  0  0  0  0  0  0  0  0  0  0
  -27.1521  -21.5475   15.7824 C   0  0  0  0  0  0  0  0  0  0  0  0
  -28.9387  -11.9914   18.9510 C   0  0  0  0  0  0  0  0  0  0  0  0
  -25.5976  -23.0209   16.8282 C   0  0  0  0  0  0  0  0  0  0  0  0
  -29.2481  -21.6590   20.7472 C   0  0  0  0  0  0  0  0  0  0  0  0
  -29.1349  -19.8868   22.3365 C   0  0  0  0  0  0  0  0  0  0  0  0
  -30.2626  -13.2131   20.7157 C   0  0  0  0  0  0  0  0  0  0  0  0
  -27.8013  -13.2978   20.8056 C   0  0  0  0  0  0  0  0  0  0  0  0
  -20.3785  -27.2273   21.8530 C   0  0  1  0  0  0  0  0  0  0  0  0
  -27.0297  -21.1054   17.2452 C   0  0  2  0  0  0  0  0  0  0  0  0
  -23.7529  -26.0742   23.1634 C   0  0  1  0  0  0  0  0  0  0  0  0
  -27.7003  -12.8173   19.3465 C   0  0  2  0  0  0  0  0  0  0  0  0
  -26.2108  -22.1933   17.9507 C   0  0  2  0  0  0  0  0  0  1  0  0
  -29.5896  -20.3599   20.0131 C   0  0  2  0  0  0  0  0  0  0  0  0
  -31.7304  -17.5307   22.8561 C   0  0  0  0  0  0  0  0  0  0  0  0
  -30.9741  -29.1547   24.5571 C   0  0  0  0  0  0  0  0  0  0  0  0
  -25.8949  -28.4436   20.3658 C   0  0  0  0  0  0  0  0  0  0  0  0
  -28.2280  -29.2453   20.7924 C   0  0  0  0  0  0  0  0  0  0  0  0
  -26.3251  -30.2028   22.0905 C   0  0  0  0  0  0  0  0  0  0  0  0
  -29.6540  -26.1644   26.5042 C   0  0  0  0  0  0  0  0  0  0  0  0
  -28.5198  -19.9757   18.9928 C   0  0  0  0  0  0  0  0  0  0  0  0
  -27.0916  -27.8424   22.5732 C   0  0  1  0  0  0  0  0  0  0  0  0
  -30.4120  -17.2894   22.1566 C   0  0  2  0  0  0  0  0  0  0  0  0
  -29.9121  -28.2003   25.0804 C   0  0  2  0  0  0  0  0  0  0  0  0
  -26.8780  -28.9062   21.4596 C   0  0  0  0  0  0  0  0  0  0  0  0
  -25.8793  -11.3242   20.0793 N   0  0  0  0  0  0  0  0  0  0  0  0
  -26.4121  -12.0582   19.0876 N   0  0  0  0  0  0  0  0  0  0  0  0
  -25.1028  -26.3737   22.6813 N   0  0  0  0  0  0  0  0  0  0  0  0
  -29.6857  -19.3685   21.0867 N   0  0  0  0  0  0  0  0  0  0  0  0
  -29.0657  -14.0090   21.0222 N   0  0  0  0  0  0  0  0  0  0  0  0
  -26.0875  -12.7048   16.8321 N   0  0  0  0  0  0  0  0  0  0  0  0
  -22.4467  -11.6978   17.1844 N   0  0  0  0  0  0  0  0  0  0  0  0
  -21.4667  -26.6363   22.6020 N   0  0  0  0  0  0  0  0  0  0  0  0
  -27.9969  -28.2640   23.6367 N   0  0  0  0  0  0  0  0  0  0  0  0
  -30.2787  -15.9306   21.6804 N   0  0  0  0  0  0  0  0  0  0  0  0
  -30.5834  -27.1575   25.9068 N   0  3  0  0  0  0  0  0  0  0  0  0
  -23.6504   -9.8697   16.5002 O   0  0  0  0  0  0  0  0  0  0  0  0
  -29.3196  -21.6975   17.4973 O   0  0  0  0  0  0  0  0  0  0  0  0
  -23.2249  -27.3819   21.2697 O   0  0  0  0  0  0  0  0  0  0  0  0
  -25.4274  -28.0696   24.2481 O   0  0  0  0  0  0  0  0  0  0  0  0
  -30.7639  -17.7400   19.8458 O   0  0  0  0  0  0  0  0  0  0  0  0
  -29.5147  -26.5296   23.3810 O   0  0  0  0  0  0  0  0  0  0  0  0
  -27.9869  -15.9357   21.7307 O   0  0  0  0  0  0  0  0  0  0  0  0
  -21.4343   -7.4474   22.4790 O   0  0  0  0  0  0  0  0  0  0  0  0
  -25.2038  -21.6113   18.7619 O   0  0  0  0  0  0  0  0  0  1  0  0
  -22.0766   -7.3673   27.9548 F   0  0  0  0  0  0  0  0  0  0  0  0
  -19.3572   -8.1536   24.1611 F   0  0  0  0  0  0  0  0  0  0  0  0
  1  2  1  0  0  0  0
  1  5  2  0  0  0  0
  2  6  2  0  0  0  0
  3  8  2  0  0  0  0
  3 15  1  0  0  0  0
  4  9  1  0  0  0  0
  4 15  2  0  0  0  0
  5 17  1  0  0  0  0
  6 19  1  0  0  0  0
  7 10  2  0  0  0  0
  7 18  1  0  0  0  0
  8 21  1  0  0  0  0
  9 21  2  0  0  0  0
 10 22  1  0  0  0  0
 11 12  2  0  0  0  0
 11 23  1  0  0  0  0
 12 24  1  0  0  0  0
 13 20  1  0  0  0  0
 13 22  2  0  0  0  0
 14 24  2  0  0  0  0
 14 25  1  0  0  0  0
 15 26  1  0  0  0  0
 16 26  1  0  0  0  0
 16 27  2  0  0  0  0
 16 28  1  0  0  0  0
 17 19  2  0  0  0  0
 17 35  1  0  0  0  0
 18 20  2  0  0  0  0
 18 36  1  0  0  0  0
 19 50  1  0  0  0  0
 20 37  1  0  0  0  0
 21 85  1  0  0  0  0
 22 86  1  0  0  0  0
 23 25  2  0  0  0  0
 23 85  1  0  0  0  0
 24 87  1  0  0  0  0
 25 88  1  0  0  0  0
 26 67  2  0  0  0  0
 27 68  1  0  0  0  0
 27 72  1  0  0  0  0
 28 73  1  0  0  0  0
 28 78  2  0  0  0  0
 29 51  1  0  0  0  0
 29 62  1  0  0  0  0
 29 79  2  0  0  0  0
 30 52  1  0  0  0  0
 30 74  1  0  0  0  0
 30 80  2  0  0  0  0
 31 63  1  0  0  0  0
 31 69  1  0  0  0  0
 31 81  2  0  0  0  0
 32 64  1  0  0  0  0
 32 70  1  0  0  0  0
 32 82  2  0  0  0  0
 33 65  1  0  0  0  0
 33 75  1  0  0  0  0
 33 83  2  0  0  0  0
 34 71  1  0  0  0  0
 34 76  1  0  0  0  0
 34 84  2  0  0  0  0
 35 38  1  0  0  0  0
 36 52  1  0  0  0  0
 37 69  1  0  0  0  0
 38 42  1  0  0  0  0
 39 43  1  0  0  0  0
 39 45  1  0  0  0  0
 40 44  1  0  0  0  0
 40 48  1  0  0  0  0
 41 46  1  0  0  0  0
 41 47  1  0  0  0  0
 42 50  1  0  0  0  0
 43 51  1  0  0  0  0
 44 53  1  0  0  0  0
 45 54  1  0  0  0  0
 46 55  1  0  0  0  0
 47 70  1  0  0  0  0
 48 71  1  0  0  0  0
 49 53  1  0  0  0  0
 49 71  1  0  0  0  0
 50 74  1  0  0  0  0
 51 54  1  0  0  0  0
 52 69  1  0  0  0  0
 53 68  1  0  0  0  0
 54 86  1  0  0  0  0
 55 62  1  0  0  0  0
 55 70  1  0  0  0  0
 56 64  1  0  0  0  0
 57 65  1  0  0  0  0
 58 66  1  0  0  0  0
 59 66  1  0  0  0  0
 60 66  1  0  0  0  0
 61 77  1  0  0  0  0
 63 66  1  0  0  0  0
 63 75  1  0  0  0  0
 64 76  1  0  0  0  0
 65 77  1  0  0  0  0
 67 68  1  0  0  0  0
M  CHG  1  77   1
M  ISO  4  34 100  54 101  76 100  86 101
M  END
> <Batch ID>
0129

> <Smiles>
CNC(C)C(=O)NC(C(=O)N1Cc2cc([101O:1][101CH:1]3CCCC3C(=O)CC3CCCN3C(=O)C(C)[100NH:0][100C:0](=O)N3CCCC(n4nc(-c5ccc(Oc6ccc(F)cc6F)cc5)c(C(N)=O)c4N)C3)ccc2CC1C(=O)NC1CCCc2ccccc21)C(C)(C)C

> <Shape>
0.234

> <Color>
0.086

> <Negative vol penalty>
0.000

$$$$

  -OEChem-04052320453D

 87 96  0     1  0  0  0  0  0999 V2000
  -26.5600  -37.7598   18.6483 C   0  0  0  0  0  0  0  0  0  0  0  0
  -26.6190  -36.5248   18.0107 C   0  0  0  0  0  0  0  0  0  0  0  0
  -23.5212  -15.4974   19.9490 C   0  0  0  0  0  0  0  0  0  0  0  0
  -23.0940  -13.5392   18.5999 C   0  0  0  0  0  0  0  0  0  0  0  0
  -26.7598  -37.8423   20.0256 C   0  0  0  0  0  0  0  0  0  0  0  0
  -26.8791  -35.3715   18.7500 C   0  0  0  0  0  0  0  0  0  0  0  0
  -25.3042  -28.3856   18.9358 C   0  0  0  0  0  0  0  0  0  0  0  0
  -22.5567  -16.2033   19.2300 C   0  0  0  0  0  0  0  0  0  0  0  0
  -22.1294  -14.2451   17.8808 C   0  0  0  0  0  0  0  0  0  0  0  0
  -25.9305  -27.1416   18.9987 C   0  0  0  0  0  0  0  0  0  0  0  0
  -22.3252  -17.7626   16.2401 C   0  0  0  0  0  0  0  0  0  0  0  0
  -22.6443  -19.0557   15.8256 C   0  0  0  0  0  0  0  0  0  0  0  0
  -26.1809  -27.3950   21.3846 C   0  0  0  0  0  0  0  0  0  0  0  0
  -29.0102  -23.0935   18.7255 C   0  0  0  0  0  0  0  0  0  0  0  0
  -27.1765  -22.4817   20.1746 C   0  0  0  0  0  0  0  0  0  0  0  0
  -20.7817  -19.9229   17.0968 C   0  0  0  0  0  0  0  0  0  0  0  0
  -23.7900  -14.1654   19.6339 C   0  0  0  0  0  0  0  0  0  0  0  0
  -24.5892  -12.6744   21.5433 C   0  0  0  0  0  0  0  0  0  0  0  0
  -27.0128  -36.6882   20.7837 C   0  0  0  0  0  0  0  0  0  0  0  0
  -25.1210  -29.1498   20.0973 C   0  0  0  0  0  0  0  0  0  0  0  0
  -27.0838  -35.4387   20.1387 C   0  0  0  0  0  0  0  0  0  0  0  0
  -25.5497  -28.6472   21.3341 C   0  0  0  0  0  0  0  0  0  0  0  0
  -27.7902  -23.4034   19.3264 C   0  0  0  0  0  0  0  0  0  0  0  0
  -29.6164  -21.8617   18.9725 C   0  0  0  0  0  0  0  0  0  0  0  0
  -27.7827  -21.2499   20.4217 C   0  0  0  0  0  0  0  0  0  0  0  0
  -29.0026  -20.9400   19.8206 C   0  0  0  0  0  0  0  0  0  0  0  0
  -21.8607  -15.5771   18.1959 C   0  0  0  0  0  0  0  0  0  0  0  0
  -26.3716  -26.6474   20.2227 C   0  0  0  0  0  0  0  0  0  0  0  0
  -21.2343  -17.5497   17.0830 C   0  0  0  0  0  0  0  0  0  0  0  0
  -21.8726  -20.1358   16.2539 C   0  0  0  0  0  0  0  0  0  0  0  0
  -20.4626  -18.6298   17.5113 C   0  0  0  0  0  0  0  0  0  0  0  0
  -24.7867  -13.4359   20.3759 C   0  0  0  0  0  0  0  0  0  0  0  0
  -25.8364  -12.1889   21.8517 C   0  0  0  0  0  0  0  0  0  0  0  0
  -23.3858  -12.4280   22.2829 C   0  0  0  0  0  0  0  0  0  0  0  0
  -26.1198  -32.0002   21.0877 C   0  0  0  0  0  0  0  0  0  0  0  0
  -24.1286  -31.4000   23.5771 C   0  0  0  0  0  0  0  0  0  0  0  0
  -22.4966  -29.0932   25.4908 C   0  0  0  0  0  0  0  0  0  0  0  0
  -28.5501  -14.7058   17.9194 C   0  0  0  0  0  0  0  0  0  0  0  0
  -27.2691  -36.8330   22.2629 C   0  0  0  0  0  0  0  0  0  0  0  0
  -24.4196  -30.4779   20.0164 C   0  0  0  0  0  0  0  0  0  0  0  0
  -25.3587  -29.4194   22.6131 C   0  0  0  0  0  0  0  0  0  0  0  0
  -27.1681  -35.5172   23.0303 C   0  0  0  0  0  0  0  0  0  0  0  0
  -28.5123  -11.2425   18.5176 C   0  0  0  0  0  0  0  0  0  0  0  0
  -27.9303  -34.4147   22.3021 C   0  0  0  0  0  0  0  0  0  0  0  0
  -28.4887  -11.1092   20.0379 C   0  0  0  0  0  0  0  0  0  0  0  0
  -29.4108  -12.3927   18.0868 C   0  0  0  0  0  0  0  0  0  0  0  0
  -28.2325  -16.0628   20.0315 C   0  0  0  0  0  0  0  0  0  0  0  0
  -28.9609  -13.6268   20.1899 C   0  0  0  0  0  0  0  0  0  0  0  0
  -29.1803  -17.1913   20.4159 C   0  0  0  0  0  0  0  0  0  0  0  0
  -28.8376  -18.2359   18.1774 C   0  0  0  0  0  0  0  0  0  0  0  0
  -27.3389  -34.1620   20.9100 C   0  0  1  0  0  0  0  0  0  0  0  0
  -24.7466  -31.3986   21.1881 C   0  0  1  0  0  0  0  0  0  0  0  0
  -28.1714  -12.4286   20.7633 C   0  0  1  0  0  0  0  0  0  0  0  0
  -27.8950  -17.0985   17.7813 C   0  0  2  0  0  0  0  0  0  0  0  0
  -30.9234  -21.5548   18.3174 C   0  0  0  0  0  0  0  0  0  0  0  0
  -27.1049  -20.2802   21.3339 C   0  0  0  0  0  0  0  0  0  0  0  0
  -26.4180  -17.4923   17.8788 C   0  0  0  0  0  0  0  0  0  0  0  0
  -20.9741  -28.9034   27.4765 C   0  0  0  0  0  0  0  0  0  0  0  0
  -26.4846  -31.9584   25.4339 C   0  0  0  0  0  0  0  0  0  0  0  0
  -25.2033  -30.8517   27.2783 C   0  0  0  0  0  0  0  0  0  0  0  0
  -24.3037  -32.9133   26.1997 C   0  0  0  0  0  0  0  0  0  0  0  0
  -20.3674  -27.8137   23.8820 C   0  0  0  0  0  0  0  0  0  0  0  0
  -29.6551  -19.6154   20.0865 C   0  0  0  0  0  0  0  0  0  0  0  0
  -27.1418  -24.7200   19.0618 C   0  0  0  0  0  0  0  0  0  1  0  0
  -24.2711  -30.7313   24.9230 C   0  0  1  0  0  0  0  0  0  0  0  0
  -21.0558  -29.0132   25.9619 C   0  0  2  0  0  0  0  0  0  0  0  0
  -25.0712  -31.5997   25.9345 C   0  0  0  0  0  0  0  0  0  0  0  0
  -26.0593  -13.4372   19.9702 N   0  0  0  0  0  0  0  0  0  0  0  0
  -26.6727  -12.6706   20.8879 N   0  0  0  0  0  0  0  0  0  0  0  0
  -24.6731  -30.7156   22.4813 N   0  0  0  0  0  0  0  0  0  0  0  0
  -29.0122  -13.6485   18.7203 N   0  0  0  0  0  0  0  0  0  0  0  0
  -28.1602  -15.8851   18.5739 N   0  0  0  0  0  0  0  0  0  0  0  0
  -26.2885  -11.4012   22.8505 N   0  0  0  0  0  0  0  0  0  0  0  0
  -22.1919  -13.0033   21.8272 N   0  0  0  0  0  0  0  0  0  0  0  0
  -26.1254  -33.3799   21.0108 N   0  0  0  0  0  0  0  0  0  0  0  0
  -22.9191  -30.3991   25.3590 N   0  0  0  0  0  0  0  0  0  0  0  0
  -28.8058  -18.4461   19.6706 N   0  3  2  0  0  0  0  0  0  0  0  0
  -20.3817  -27.8244   25.3675 N   0  3  0  0  0  0  0  0  0  0  0  0
  -23.3728  -11.7320   23.3264 O   0  0  0  0  0  0  0  0  0  0  0  0
  -27.1017  -31.2670   21.0821 O   0  0  0  0  0  0  0  0  0  0  0  0
  -23.5489  -32.4862   23.4999 O   0  0  0  0  0  0  0  0  0  0  0  0
  -23.1803  -28.0969   25.2660 O   0  0  0  0  0  0  0  0  0  0  0  0
  -28.4737  -14.5958   16.6890 O   0  0  0  0  0  0  0  0  0  0  0  0
  -20.9193  -16.2655   17.4943 O   0  0  0  0  0  0  0  0  0  0  0  0
  -26.9880  -25.4254   20.2873 O   0  0  0  0  0  0  0  0  0  1  0  0
  -22.1800  -21.3776   15.8570 F   0  0  0  0  0  0  0  0  0  0  0  0
  -19.4141  -18.4316   18.3220 F   0  0  0  0  0  0  0  0  0  0  0  0
  1  2  1  0  0  0  0
  1  5  2  0  0  0  0
  2  6  2  0  0  0  0
  3  8  2  0  0  0  0
  3 17  1  0  0  0  0
  4  9  1  0  0  0  0
  4 17  2  0  0  0  0
  5 19  1  0  0  0  0
  6 21  1  0  0  0  0
  7 10  2  0  0  0  0
  7 20  1  0  0  0  0
  8 27  1  0  0  0  0
  9 27  2  0  0  0  0
 10 28  1  0  0  0  0
 11 12  2  0  0  0  0
 11 29  1  0  0  0  0
 12 30  1  0  0  0  0
 13 22  1  0  0  0  0
 13 28  2  0  0  0  0
 14 23  1  0  0  0  0
 14 24  2  0  0  0  0
 15 23  2  0  0  0  0
 15 25  1  0  0  0  0
 16 30  2  0  0  0  0
 16 31  1  0  0  0  0
 17 32  1  0  0  0  0
 18 32  1  0  0  0  0
 18 33  2  0  0  0  0
 18 34  1  0  0  0  0
 19 21  2  0  0  0  0
 19 39  1  0  0  0  0
 20 22  2  0  0  0  0
 20 40  1  0  0  0  0
 21 51  1  0  0  0  0
 22 41  1  0  0  0  0
 23 64  1  0  0  0  0
 24 26  1  0  0  0  0
 24 55  1  0  0  0  0
 25 26  2  0  0  0  0
 25 56  1  0  0  0  0
 26 63  1  0  0  0  0
 27 84  1  0  0  0  0
 28 85  1  0  0  0  0
 29 31  2  0  0  0  0
 29 84  1  0  0  0  0
 30 86  1  0  0  0  0
 31 87  1  0  0  0  0
 32 68  2  0  0  0  0
 33 69  1  0  0  0  0
 33 73  1  0  0  0  0
 34 74  1  0  0  0  0
 34 79  2  0  0  0  0
 35 52  1  0  0  0  0
 35 75  1  0  0  0  0
 35 80  2  0  0  0  0
 36 65  1  0  0  0  0
 36 70  1  0  0  0  0
 36 81  2  0  0  0  0
 37 66  1  0  0  0  0
 37 76  1  0  0  0  0
 37 82  2  0  0  0  0
 38 71  1  0  0  0  0
 38 72  1  0  0  0  0
 38 83  2  0  0  0  0
 39 42  1  0  0  0  0
 40 52  1  0  0  0  0
 41 70  1  0  0  0  0
 42 44  1  0  0  0  0
 43 45  1  0  0  0  0
 43 46  1  0  0  0  0
 44 51  1  0  0  0  0
 45 53  1  0  0  0  0
 46 71  1  0  0  0  0
 47 49  1  0  0  0  0
 47 72  1  0  0  0  0
 48 53  1  0  0  0  0
 48 71  1  0  0  0  0
 49 77  1  0  0  0  0
 50 54  1  0  0  0  0
 50 77  1  0  0  0  0
 51 75  1  0  0  0  0
 52 70  1  0  0  0  0
 53 69  1  0  0  0  0
 54 57  1  0  0  0  0
 54 72  1  0  0  0  0
 58 66  1  0  0  0  0
 59 67  1  0  0  0  0
 60 67  1  0  0  0  0
 61 67  1  0  0  0  0
 62 78  1  0  0  0  0
 63 77  1  0  0  0  0
 64 85  1  0  0  0  0
 65 67  1  0  0  0  0
 65 76  1  0  0  0  0
 66 78  1  0  0  0  0
 68 69  1  0  0  0  0
M  CHG  2  77   1  78   1
M  ISO  4  38 100  64 101  72 100  85 101
M  END
> <Batch ID>
0129

> <Smiles>
CNC(C)C(=O)NC(C(=O)N1Cc2cc([101O:1][101CH2:1]c3cc(C)c(CN4CC[100N:0]([100C:0](=O)N5CCCC(n6nc(-c7ccc(Oc8ccc(F)cc8F)cc7)c(C(N)=O)c6N)C5)C(C)C4)c(C)c3)ccc2CC1C(=O)NC1CCCc2ccccc21)C(C)(C)C

> <Shape>
0.254

> <Color>
0.101

> <Negative vol penalty>
0.000

$$$$

  -OEChem-04052320453D

 88 97  0     1  0  0  0  0  0999 V2000
  -31.7204  -30.9199   15.7655 C   0  0  0  0  0  0  0  0  0  0  0  0
  -31.5936  -30.3214   17.0150 C   0  0  0  0  0  0  0  0  0  0  0  0
  -24.1453   -9.4390   19.9885 C   0  0  0  0  0  0  0  0  0  0  0  0
  -24.7452   -9.8167   22.2982 C   0  0  0  0  0  0  0  0  0  0  0  0
  -30.8069  -31.8939   15.3644 C   0  0  0  0  0  0  0  0  0  0  0  0
  -30.5538  -30.6975   17.8646 C   0  0  0  0  0  0  0  0  0  0  0  0
  -28.2684  -26.7230   20.0153 C   0  0  0  0  0  0  0  0  0  0  0  0
  -30.0741  -20.1956   23.3391 C   0  0  0  0  0  0  0  0  0  0  0  0
  -29.8770  -19.1222   22.4705 C   0  0  0  0  0  0  0  0  0  0  0  0
  -23.8712   -8.1024   20.2782 C   0  0  0  0  0  0  0  0  0  0  0  0
  -24.4710   -8.4800   22.5879 C   0  0  0  0  0  0  0  0  0  0  0  0
  -28.9190  -26.1195   21.0905 C   0  0  0  0  0  0  0  0  0  0  0  0
  -23.5836   -5.2546   24.0117 C   0  0  0  0  0  0  0  0  0  0  0  0
  -22.8457   -4.9778   25.1625 C   0  0  0  0  0  0  0  0  0  0  0  0
  -27.4791  -27.3056   22.6199 C   0  0  0  0  0  0  0  0  0  0  0  0
  -27.7119  -20.2198   23.8455 C   0  0  0  0  0  0  0  0  0  0  0  0
  -21.0061   -6.2830   24.2969 C   0  0  0  0  0  0  0  0  0  0  0  0
  -24.5824  -10.2961   20.9985 C   0  0  0  0  0  0  0  0  0  0  0  0
  -23.9694  -12.7605   20.7556 C   0  0  0  0  0  0  0  0  0  0  0  0
  -29.7498  -32.2752   16.2057 C   0  0  0  0  0  0  0  0  0  0  0  0
  -27.2236  -27.6323   20.2350 C   0  0  0  0  0  0  0  0  0  0  0  0
  -29.6261  -31.6785   17.4750 C   0  0  0  0  0  0  0  0  0  0  0  0
  -26.8151  -27.9174   21.5457 C   0  0  0  0  0  0  0  0  0  0  0  0
  -28.9916  -20.7444   24.0266 C   0  0  0  0  0  0  0  0  0  0  0  0
  -27.5148  -19.1463   22.9769 C   0  0  0  0  0  0  0  0  0  0  0  0
  -28.5973  -18.5976   22.2894 C   0  0  0  0  0  0  0  0  0  0  0  0
  -24.0340   -7.6229   21.5779 C   0  0  0  0  0  0  0  0  0  0  0  0
  -28.5264  -26.4129   22.3932 C   0  0  0  0  0  0  0  0  0  0  0  0
  -23.0328   -6.0456   23.0034 C   0  0  0  0  0  0  0  0  0  0  0  0
  -21.5570   -5.4920   25.3052 C   0  0  0  0  0  0  0  0  0  0  0  0
  -21.7440   -6.5598   23.1460 C   0  0  0  0  0  0  0  0  0  0  0  0
  -24.8663  -11.6768   20.6997 C   0  0  0  0  0  0  0  0  0  0  0  0
  -24.7213  -13.8480   20.3834 C   0  0  0  0  0  0  0  0  0  0  0  0
  -22.5809  -12.7822   21.1123 C   0  0  0  0  0  0  0  0  0  0  0  0
  -26.7542  -30.7088   19.5880 C   0  0  0  0  0  0  0  0  0  0  0  0
  -23.7785  -30.0922   20.7226 C   0  0  0  0  0  0  0  0  0  0  0  0
  -21.7685  -28.1454   22.6762 C   0  0  0  0  0  0  0  0  0  0  0  0
  -29.3976  -16.8586   20.6517 C   0  0  0  0  0  0  0  0  0  0  0  0
  -28.8149  -33.3665   15.7477 C   0  0  0  0  0  0  0  0  0  0  0  0
  -26.5142  -28.2545   19.0637 C   0  0  0  0  0  0  0  0  0  0  0  0
  -25.6857  -28.8711   21.8346 C   0  0  0  0  0  0  0  0  0  0  0  0
  -27.5219  -33.4397   16.5557 C   0  0  0  0  0  0  0  0  0  0  0  0
  -29.3638  -14.1141   18.3838 C   0  0  0  0  0  0  0  0  0  0  0  0
  -27.8214  -33.3691   18.0498 C   0  0  0  0  0  0  0  0  0  0  0  0
  -25.6298  -23.3783   19.9812 C   0  0  0  0  0  0  0  0  0  0  0  0
  -24.4695  -23.3102   19.0279 C   0  0  0  0  0  0  0  0  0  0  0  0
  -28.1169  -13.3245   18.7887 C   0  0  0  0  0  0  0  0  0  0  0  0
  -30.0743  -14.7131   19.5962 C   0  0  0  0  0  0  0  0  0  0  0  0
  -27.9749  -14.7285   20.8852 C   0  0  0  0  0  0  0  0  0  0  0  0
  -28.4971  -32.0419   18.4149 C   0  0  1  0  0  0  0  0  0  0  0  0
  -25.8040  -29.5572   19.4185 C   0  0  1  0  0  0  0  0  0  0  0  0
  -24.4633  -22.4777   20.2799 C   0  0  0  0  0  0  0  0  0  0  0  0
  -27.1892  -14.1604   19.6921 C   0  0  2  0  0  0  0  0  0  0  0  0
  -19.3878  -27.9106   23.4339 C   0  0  0  0  0  0  0  0  0  0  0  0
  -24.1607  -32.4340   22.6409 C   0  0  0  0  0  0  0  0  0  0  0  0
  -22.2230  -31.5705   23.9706 C   0  0  0  0  0  0  0  0  0  0  0  0
  -21.8881  -32.2929   21.6065 C   0  0  0  0  0  0  0  0  0  0  0  0
  -21.5250  -25.4579   21.4609 C   0  0  0  0  0  0  0  0  0  0  0  0
  -26.1325  -18.6065   22.7999 C   0  0  0  0  0  0  0  0  0  0  0  0
  -29.2035  -21.9006   24.9590 C   0  0  0  0  0  0  0  0  0  0  0  0
  -24.6191  -20.9750   20.1960 C   0  0  0  0  0  0  0  0  0  0  0  0
  -25.4688  -19.0110   21.4842 C   0  0  0  0  0  0  0  0  0  0  0  0
  -28.8741  -24.3498   25.3214 C   0  0  0  0  0  0  0  0  0  0  0  0
  -28.3916  -25.6081   24.6270 C   0  0  0  0  0  0  0  0  0  1  0  0
  -23.1217  -30.1377   22.0810 C   0  0  1  0  0  0  0  0  0  0  0  0
  -20.4253  -27.4928   22.4035 C   0  0  2  0  0  0  0  0  0  0  0  0
  -22.8709  -31.5922   22.5697 C   0  0  0  0  0  0  0  0  0  0  0  0
  -26.0940  -12.0425   20.3216 N   0  0  0  0  0  0  0  0  0  0  0  0
  -25.9739  -13.3682   20.1365 N   0  0  0  0  0  0  0  0  0  0  0  0
  -25.0276  -29.4587   20.6561 N   0  0  0  0  0  0  0  0  0  0  0  0
  -29.1346  -15.4949   20.4028 N   0  0  0  0  0  0  0  0  0  0  0  0
  -24.4266  -15.1582   20.2465 N   0  0  0  0  0  0  0  0  0  0  0  0
  -21.9638  -11.5754   21.4691 N   0  0  0  0  0  0  0  0  0  0  0  0
  -28.4177  -17.5071   21.4026 N   0  0  0  0  0  0  0  0  0  0  0  0
  -27.5202  -30.9755   18.4692 N   0  0  0  0  0  0  0  0  0  0  0  0
  -21.9142  -29.3255   21.9780 N   0  0  0  0  0  0  0  0  0  0  0  0
  -20.5535  -26.0085   22.4407 N   0  3  0  0  0  0  0  0  0  0  0  0
  -28.7326  -23.1957   24.3981 N   0  3  0  0  0  0  0  0  0  0  0  0
  -25.3102  -20.4849   21.4196 N   0  3  0  0  0  0  0  0  0  0  0  0
  -21.9033  -13.8377   21.0986 O   0  0  0  0  0  0  0  0  0  0  0  0
  -26.7888  -31.3117   20.6543 O   0  0  0  0  0  0  0  0  0  0  0  0
  -23.2013  -30.5939   19.7547 O   0  0  0  0  0  0  0  0  0  0  0  0
  -22.6035  -27.6589   23.4356 O   0  0  0  0  0  0  0  0  0  0  0  0
  -30.4035  -17.4172   20.2068 O   0  0  0  0  0  0  0  0  0  0  0  0
  -23.7663   -6.3188   21.8611 O   0  0  0  0  0  0  0  0  0  0  0  0
  -29.1602  -25.8256   23.4445 O   0  0  0  0  0  0  0  0  0  1  0  0
  -20.8479   -5.2249   26.4097 F   0  0  0  0  0  0  0  0  0  0  0  0
  -21.2091   -7.3194   22.1803 F   0  0  0  0  0  0  0  0  0  0  0  0
  1  2  1  0  0  0  0
  1  5  2  0  0  0  0
  2  6  2  0  0  0  0
  3 10  2  0  0  0  0
  3 18  1  0  0  0  0
  4 11  1  0  0  0  0
  4 18  2  0  0  0  0
  5 20  1  0  0  0  0
  6 22  1  0  0  0  0
  7 12  2  0  0  0  0
  7 21  1  0  0  0  0
  8  9  2  0  0  0  0
  8 24  1  0  0  0  0
  9 26  1  0  0  0  0
 10 27  1  0  0  0  0
 11 27  2  0  0  0  0
 12 28  1  0  0  0  0
 13 14  2  0  0  0  0
 13 29  1  0  0  0  0
 14 30  1  0  0  0  0
 15 23  1  0  0  0  0
 15 28  2  0  0  0  0
 16 24  2  0  0  0  0
 16 25  1  0  0  0  0
 17 30  2  0  0  0  0
 17 31  1  0  0  0  0
 18 32  1  0  0  0  0
 19 32  1  0  0  0  0
 19 33  2  0  0  0  0
 19 34  1  0  0  0  0
 20 22  2  0  0  0  0
 20 39  1  0  0  0  0
 21 23  2  0  0  0  0
 21 40  1  0  0  0  0
 22 50  1  0  0  0  0
 23 41  1  0  0  0  0
 24 60  1  0  0  0  0
 25 26  2  0  0  0  0
 25 59  1  0  0  0  0
 26 74  1  0  0  0  0
 27 85  1  0  0  0  0
 28 86  1  0  0  0  0
 29 31  2  0  0  0  0
 29 85  1  0  0  0  0
 30 87  1  0  0  0  0
 31 88  1  0  0  0  0
 32 68  2  0  0  0  0
 33 69  1  0  0  0  0
 33 72  1  0  0  0  0
 34 73  1  0  0  0  0
 34 80  2  0  0  0  0
 35 51  1  0  0  0  0
 35 75  1  0  0  0  0
 35 81  2  0  0  0  0
 36 65  1  0  0  0  0
 36 70  1  0  0  0  0
 36 82  2  0  0  0  0
 37 66  1  0  0  0  0
 37 76  1  0  0  0  0
 37 83  2  0  0  0  0
 38 71  1  0  0  0  0
 38 74  1  0  0  0  0
 38 84  2  0  0  0  0
 39 42  1  0  0  0  0
 40 51  1  0  0  0  0
 41 70  1  0  0  0  0
 42 44  1  0  0  0  0
 43 47  1  0  0  0  0
 43 48  1  0  0  0  0
 44 50  1  0  0  0  0
 45 46  1  0  0  0  0
 45 52  1  0  0  0  0
 46 52  1  0  0  0  0
 47 53  1  0  0  0  0
 48 71  1  0  0  0  0
 49 53  1  0  0  0  0
 49 71  1  0  0  0  0
 50 75  1  0  0  0  0
 51 70  1  0  0  0  0
 52 61  1  0  0  0  0
 53 69  1  0  0  0  0
 54 66  1  0  0  0  0
 55 67  1  0  0  0  0
 56 67  1  0  0  0  0
 57 67  1  0  0  0  0
 58 77  1  0  0  0  0
 59 62  1  0  0  0  0
 60 78  1  0  0  0  0
 61 79  1  0  0  0  0
 62 79  1  0  0  0  0
 63 64  1  0  0  0  0
 63 78  1  0  0  0  0
 64 86  1  0  0  0  0
 65 67  1  0  0  0  0
 65 76  1  0  0  0  0
 66 77  1  0  0  0  0
 68 69  1  0  0  0  0
M  CHG  3  77   1  78   1  79   1
M  ISO  4  38 100  64 101  74 100  86 101
M  END
> <Batch ID>
0129

> <Smiles>
CNC(C)C(=O)NC(C(=O)N1Cc2cc([101O:1][101CH2:1]CNCc3ccc([100NH:0][100C:0](=O)N4CCCC(n5nc(-c6ccc(Oc7ccc(F)cc7F)cc6)c(C(N)=O)c5N)C4)c(CCNCC4CC4)c3)ccc2CC1C(=O)NC1CCCc2ccccc21)C(C)(C)C

> <Shape>
0.264

> <Color>
0.118

> <Negative vol penalty>
0.000

$$$$

  -OEChem-04052320453D

 82 90  0     1  0  0  0  0  0999 V2000
  -21.2215   -8.1350   17.9631 C   0  0  0  0  0  0  0  0  0  0  0  0
  -20.6181   -9.3812   17.8281 C   0  0  0  0  0  0  0  0  0  0  0  0
  -28.7445  -26.3434   19.1219 C   0  0  0  0  0  0  0  0  0  0  0  0
  -26.5743  -25.3220   19.4115 C   0  0  0  0  0  0  0  0  0  0  0  0
  -22.1916   -7.9340   18.9441 C   0  0  0  0  0  0  0  0  0  0  0  0
  -20.9837  -10.4270   18.6749 C   0  0  0  0  0  0  0  0  0  0  0  0
  -21.7327  -17.5509   18.7467 C   0  0  0  0  0  0  0  0  0  0  0  0
  -29.3217  -25.0802   18.9918 C   0  0  0  0  0  0  0  0  0  0  0  0
  -27.1514  -24.0588   19.2813 C   0  0  0  0  0  0  0  0  0  0  0  0
  -21.3354  -18.6683   19.4798 C   0  0  0  0  0  0  0  0  0  0  0  0
  -29.6182  -22.7117   16.5970 C   0  0  0  0  0  0  0  0  0  0  0  0
  -30.5400  -22.5232   15.5674 C   0  0  0  0  0  0  0  0  0  0  0  0
  -23.0801  -18.2271   21.0863 C   0  0  0  0  0  0  0  0  0  0  0  0
  -32.2349  -21.9478   17.1902 C   0  0  0  0  0  0  0  0  0  0  0  0
  -27.3708  -26.4642   19.3318 C   0  0  0  0  0  0  0  0  0  0  0  0
  -26.7822  -28.8095   18.5189 C   0  0  0  0  0  0  0  0  0  0  0  0
  -22.5762   -8.9805   19.7970 C   0  0  0  0  0  0  0  0  0  0  0  0
  -22.8014  -16.7556   19.1845 C   0  0  0  0  0  0  0  0  0  0  0  0
  -21.9589  -10.2395   19.6691 C   0  0  0  0  0  0  0  0  0  0  0  0
  -23.4905  -17.1016   20.3557 C   0  0  0  0  0  0  0  0  0  0  0  0
  -28.5252  -23.9379   19.0715 C   0  0  0  0  0  0  0  0  0  0  0  0
  -22.0073  -19.0049   20.6513 C   0  0  0  0  0  0  0  0  0  0  0  0
  -30.0046  -22.5184   17.9233 C   0  0  0  0  0  0  0  0  0  0  0  0
  -31.8484  -22.1412   15.8640 C   0  0  0  0  0  0  0  0  0  0  0  0
  -31.3130  -22.1364   18.2199 C   0  0  0  0  0  0  0  0  0  0  0  0
  -26.7741  -27.7688   19.4669 C   0  0  0  0  0  0  0  0  0  0  0  0
  -26.0873  -29.8290   19.1225 C   0  0  0  0  0  0  0  0  0  0  0  0
  -27.3655  -28.8510   17.2099 C   0  0  0  0  0  0  0  0  0  0  0  0
  -23.1204  -13.7228   20.0815 C   0  0  0  0  0  0  0  0  0  0  0  0
  -26.2726  -14.4843   20.1594 C   0  0  0  0  0  0  0  0  0  0  0  0
  -28.2816  -17.2730   21.2571 C   0  0  0  0  0  0  0  0  0  0  0  0
  -21.9080  -29.9362   23.4088 C   0  0  0  0  0  0  0  0  0  0  0  0
  -23.5955   -8.7024   20.8734 C   0  0  0  0  0  0  0  0  0  0  0  0
  -23.2347  -15.5688   18.3682 C   0  0  0  0  0  0  0  0  0  0  0  0
  -24.6572  -16.2922   20.8578 C   0  0  0  0  0  0  0  0  0  0  0  0
  -24.1955   -9.9657   21.4851 C   0  0  0  0  0  0  0  0  0  0  0  0
  -25.0500  -31.6107   23.4399 C   0  0  0  0  0  0  0  0  0  0  0  0
  -23.0977  -10.9715   21.8169 C   0  0  0  0  0  0  0  0  0  0  0  0
  -25.8488  -30.9098   22.3397 C   0  0  0  0  0  0  0  0  0  0  0  0
  -19.9226  -20.6993   24.2117 C   0  0  0  0  0  0  0  0  0  0  0  0
  -20.2580  -19.5273   23.2859 C   0  0  0  0  0  0  0  0  0  0  0  0
  -19.8167  -21.5515   21.9933 C   0  0  0  0  0  0  0  0  0  0  0  0
  -24.1514  -30.6334   24.1946 C   0  0  0  0  0  0  0  0  0  0  0  0
  -24.0504  -29.1337   22.2416 C   0  0  0  0  0  0  0  0  0  0  0  0
  -22.3465  -11.4055   20.5525 C   0  0  1  0  0  0  0  0  0  0  0  0
  -24.0077  -14.5348   19.1809 C   0  0  1  0  0  0  0  0  0  0  0  0
  -24.9296  -30.0884   21.4158 C   0  0  2  0  0  0  0  0  0  0  0  0
  -20.2744  -21.9388   23.3972 C   0  0  1  0  0  0  0  0  0  0  0  0
  -20.2864  -20.1044   21.8653 C   0  0  1  0  0  0  0  0  0  1  0  0
  -30.5320  -18.0678   20.4816 C   0  0  0  0  0  0  0  0  0  0  0  0
  -27.3431  -12.7772   22.4506 C   0  0  0  0  0  0  0  0  0  0  0  0
  -29.0505  -14.5558   22.8857 C   0  0  0  0  0  0  0  0  0  0  0  0
  -29.0341  -13.3530   20.7003 C   0  0  0  0  0  0  0  0  0  0  0  0
  -27.2561  -19.9913   20.6931 C   0  0  0  0  0  0  0  0  0  0  0  0
  -19.7336  -29.1629   22.4960 C   0  0  0  0  0  0  0  0  0  0  0  0
  -19.9721  -24.2979   23.0811 C   0  0  0  0  0  0  0  0  0  0  0  0
  -19.2028  -28.0254   23.3484 C   0  0  0  0  0  0  0  0  0  0  0  0
  -19.3264  -25.5487   23.6469 C   0  0  0  0  0  0  0  0  0  0  0  0
  -27.2141  -15.0342   21.2036 C   0  0  1  0  0  0  0  0  0  0  0  0
  -29.0270  -18.2587   20.3755 C   0  0  2  0  0  0  0  0  0  0  0  0
  -28.1327  -13.9363   21.8103 C   0  0  0  0  0  0  0  0  0  0  0  0
  -26.1257  -28.0970   20.5875 N   0  0  0  0  0  0  0  0  0  0  0  0
  -25.7199  -29.3555   20.3476 N   0  0  0  0  0  0  0  0  0  0  0  0
  -25.0389  -15.1375   20.0280 N   0  0  0  0  0  0  0  0  0  0  0  0
  -23.3040  -29.8873   23.2613 N   0  0  0  0  0  0  0  0  0  0  0  0
  -25.7609  -31.0754   18.7194 N   0  0  0  0  0  0  0  0  0  0  0  0
  -26.5880  -28.4401   16.1186 N   0  0  0  0  0  0  0  0  0  0  0  0
  -23.1274  -12.3687   19.8062 N   0  0  0  0  0  0  0  0  0  0  0  0
  -27.9346  -16.1311   20.5664 N   0  0  0  0  0  0  0  0  0  0  0  0
  -21.1788  -29.2059   22.4784 N   0  0  0  0  0  0  0  0  0  0  0  0
  -19.6202  -23.1378   23.8906 N   0  0  0  0  0  0  0  0  0  0  0  0
  -28.7016  -19.6577   20.7728 N   0  3  0  0  0  0  0  0  0  0  0  0
  -19.7346  -26.7293   22.8463 N   0  3  0  0  0  0  0  0  0  0  0  0
  -28.5469  -29.2253   17.0156 O   0  0  0  0  0  0  0  0  0  0  0  0
  -22.4781  -14.2832   20.9619 O   0  0  0  0  0  0  0  0  0  0  0  0
  -26.6218  -13.5155   19.4804 O   0  0  0  0  0  0  0  0  0  0  0  0
  -28.0353  -17.4922   22.4411 O   0  0  0  0  0  0  0  0  0  0  0  0
  -21.3524  -30.5872   24.3002 O   0  0  0  0  0  0  0  0  0  0  0  0
  -29.0880  -22.7052   18.9443 O   0  0  0  0  0  0  0  0  0  0  0  0
  -21.6212  -20.0947   21.3690 O   0  0  0  0  0  0  0  0  0  1  0  0
  -32.7332  -21.9587   14.8750 F   0  0  0  0  0  0  0  0  0  0  0  0
  -31.6898  -21.9480   19.4920 F   0  0  0  0  0  0  0  0  0  0  0  0
  1  2  1  0  0  0  0
  1  5  2  0  0  0  0
  2  6  2  0  0  0  0
  3  8  2  0  0  0  0
  3 15  1  0  0  0  0
  4  9  1  0  0  0  0
  4 15  2  0  0  0  0
  5 17  1  0  0  0  0
  6 19  1  0  0  0  0
  7 10  2  0  0  0  0
  7 18  1  0  0  0  0
  8 21  1  0  0  0  0
  9 21  2  0  0  0  0
 10 22  1  0  0  0  0
 11 12  2  0  0  0  0
 11 23  1  0  0  0  0
 12 24  1  0  0  0  0
 13 20  1  0  0  0  0
 13 22  2  0  0  0  0
 14 24  2  0  0  0  0
 14 25  1  0  0  0  0
 15 26  1  0  0  0  0
 16 26  1  0  0  0  0
 16 27  2  0  0  0  0
 16 28  1  0  0  0  0
 17 19  2  0  0  0  0
 17 33  1  0  0  0  0
 18 20  2  0  0  0  0
 18 34  1  0  0  0  0
 19 45  1  0  0  0  0
 20 35  1  0  0  0  0
 21 79  1  0  0  0  0
 22 80  1  0  0  0  0
 23 25  2  0  0  0  0
 23 79  1  0  0  0  0
 24 81  1  0  0  0  0
 25 82  1  0  0  0  0
 26 62  2  0  0  0  0
 27 63  1  0  0  0  0
 27 66  1  0  0  0  0
 28 67  1  0  0  0  0
 28 74  2  0  0  0  0
 29 46  1  0  0  0  0
 29 68  1  0  0  0  0
 29 75  2  0  0  0  0
 30 59  1  0  0  0  0
 30 64  1  0  0  0  0
 30 76  2  0  0  0  0
 31 60  1  0  0  0  0
 31 69  1  0  0  0  0
 31 77  2  0  0  0  0
 32 65  1  0  0  0  0
 32 70  1  0  0  0  0
 32 78  2  0  0  0  0
 33 36  1  0  0  0  0
 34 46  1  0  0  0  0
 35 64  1  0  0  0  0
 36 38  1  0  0  0  0
 37 39  1  0  0  0  0
 37 43  1  0  0  0  0
 38 45  1  0  0  0  0
 39 47  1  0  0  0  0
 40 41  1  0  0  0  0
 40 48  1  0  0  0  0
 41 49  1  0  0  0  0
 42 48  1  0  0  0  0
 42 49  1  0  0  0  0
 43 65  1  0  0  0  0
 44 47  1  0  0  0  0
 44 65  1  0  0  0  0
 45 68  1  0  0  0  0
 46 64  1  0  0  0  0
 47 63  1  0  0  0  0
 48 71  1  0  0  0  0
 49 80  1  0  0  0  0
 50 60  1  0  0  0  0
 51 61  1  0  0  0  0
 52 61  1  0  0  0  0
 53 61  1  0  0  0  0
 54 72  1  0  0  0  0
 55 57  1  0  0  0  0
 55 70  1  0  0  0  0
 56 58  1  0  0  0  0
 56 71  1  0  0  0  0
 57 73  1  0  0  0  0
 58 73  1  0  0  0  0
 59 61  1  0  0  0  0
 59 69  1  0  0  0  0
 60 72  1  0  0  0  0
 62 63  1  0  0  0  0
M  CHG  2  72   1  73   1
M  ISO  4  32 100  49 101  70 100  80 101
M  END
> <Batch ID>
0129

> <Smiles>
CNC(C)C(=O)NC(C(=O)N1Cc2cc([101O:1][101CH:1]3CCC(NCCNCC[100NH:0][100C:0](=O)N4CCCC(n5nc(-c6ccc(Oc7ccc(F)cc7F)cc6)c(C(N)=O)c5N)C4)C3)ccc2CC1C(=O)NC1CCCc2ccccc21)C(C)(C)C

> <Shape>
0.240

> <Color>
0.067

> <Negative vol penalty>
0.000

$$$$

  -OEChem-04052320452D

  0  0  0     0  0  0  0  0  0999 V2000
M  END
$$$$

  -OEChem-04052320453D

 90 99  0     1  0  0  0  0  0999 V2000
  -30.5289  -33.6911   26.5752 C   0  0  0  0  0  0  0  0  0  0  0  0
  -30.7066  -32.8317   25.4957 C   0  0  0  0  0  0  0  0  0  0  0  0
  -24.2502   -9.9142   21.8519 C   0  0  0  0  0  0  0  0  0  0  0  0
  -22.9163  -11.8288   21.2255 C   0  0  0  0  0  0  0  0  0  0  0  0
  -29.3916  -33.5793   27.3740 C   0  0  0  0  0  0  0  0  0  0  0  0
  -29.7474  -31.8593   25.2149 C   0  0  0  0  0  0  0  0  0  0  0  0
  -26.7795  -28.3718   19.7063 C   0  0  0  0  0  0  0  0  0  0  0  0
  -25.9485  -20.2801   19.4421 C   0  0  0  0  0  0  0  0  0  0  0  0
  -26.3307  -18.9492   19.2736 C   0  0  0  0  0  0  0  0  0  0  0  0
  -23.2863   -9.5502   22.7920 C   0  0  0  0  0  0  0  0  0  0  0  0
  -21.9523  -11.4647   22.1656 C   0  0  0  0  0  0  0  0  0  0  0  0
  -26.5071  -27.0747   19.2736 C   0  0  0  0  0  0  0  0  0  0  0  0
  -20.2716   -8.0190   22.8037 C   0  0  0  0  0  0  0  0  0  0  0  0
  -19.8969   -6.6767   22.8614 C   0  0  0  0  0  0  0  0  0  0  0  0
  -28.4771  -19.4398   20.2683 C   0  0  0  0  0  0  0  0  0  0  0  0
  -24.5439  -27.0261   20.6745 C   0  0  0  0  0  0  0  0  0  0  0  0
  -20.6300   -6.5710   25.1611 C   0  0  0  0  0  0  0  0  0  0  0  0
  -24.0653  -11.0536   21.0687 C   0  0  0  0  0  0  0  0  0  0  0  0
  -25.1255  -11.0342   18.7485 C   0  0  0  0  0  0  0  0  0  0  0  0
  -28.4134  -32.6112   27.0971 C   0  0  0  0  0  0  0  0  0  0  0  0
  -25.9408  -29.0027   20.6362 C   0  0  0  0  0  0  0  0  0  0  0  0
  -28.5966  -31.7335   26.0115 C   0  0  0  0  0  0  0  0  0  0  0  0
  -28.0949  -20.7707   20.4367 C   0  0  0  0  0  0  0  0  0  0  0  0
  -24.8064  -28.3321   21.1155 C   0  0  0  0  0  0  0  0  0  0  0  0
  -26.8306  -21.1908   20.0236 C   0  0  0  0  0  0  0  0  0  0  0  0
  -27.5950  -18.5291   19.6868 C   0  0  0  0  0  0  0  0  0  0  0  0
  -22.1373  -10.3253   22.9489 C   0  0  0  0  0  0  0  0  0  0  0  0
  -25.3908  -26.4006   19.7599 C   0  0  0  0  0  0  0  0  0  0  0  0
  -20.8256   -8.6373   23.9246 C   0  0  0  0  0  0  0  0  0  0  0  0
  -20.0760   -5.9526   24.0401 C   0  0  0  0  0  0  0  0  0  0  0  0
  -21.0047   -7.9133   25.1033 C   0  0  0  0  0  0  0  0  0  0  0  0
  -25.0610  -11.4305   20.0978 C   0  0  0  0  0  0  0  0  0  0  0  0
  -26.2479  -11.6577   18.2608 C   0  0  0  0  0  0  0  0  0  0  0  0
  -24.2491  -10.1790   18.0026 C   0  0  0  0  0  0  0  0  0  0  0  0
  -26.3131  -30.1465   23.5785 C   0  0  0  0  0  0  0  0  0  0  0  0
  -23.2765  -31.1975   23.1348 C   0  0  0  0  0  0  0  0  0  0  0  0
  -20.3000  -30.8502   21.5018 C   0  0  0  0  0  0  0  0  0  0  0  0
  -29.2001  -16.5964   19.8729 C   0  0  0  0  0  0  0  0  0  0  0  0
  -27.2237  -32.4976   28.0170 C   0  0  0  0  0  0  0  0  0  0  0  0
  -26.2336  -30.4121   21.0727 C   0  0  0  0  0  0  0  0  0  0  0  0
  -23.8633  -28.9727   22.0996 C   0  0  0  0  0  0  0  0  0  0  0  0
  -26.0733  -31.6855   27.4276 C   0  0  0  0  0  0  0  0  0  0  0  0
  -30.5251  -13.2987   19.6563 C   0  0  0  0  0  0  0  0  0  0  0  0
  -26.5946  -30.3918   26.8100 C   0  0  0  0  0  0  0  0  0  0  0  0
  -29.2800  -12.4097   19.6160 C   0  0  0  0  0  0  0  0  0  0  0  0
  -30.3339  -14.5010   20.5792 C   0  0  0  0  0  0  0  0  0  0  0  0
  -27.8913  -14.4179   20.2686 C   0  0  0  0  0  0  0  0  0  0  0  0
  -30.7548  -22.1173   22.6874 C   0  0  0  0  0  0  0  0  0  0  0  0
  -29.0551  -21.7275   21.0636 C   0  0  1  0  0  0  0  0  0  0  0  0
  -27.5666  -30.6820   25.6600 C   0  0  1  0  0  0  0  0  0  0  0  0
  -25.5966  -30.7671   22.4127 C   0  0  1  0  0  0  0  0  0  0  0  0
  -29.5086  -21.2722   22.4595 C   0  0  2  0  0  0  0  0  0  0  0  0
  -28.0127  -13.2287   19.3017 C   0  0  2  0  0  0  0  0  0  0  0  0
  -30.3800  -21.7855   20.2890 C   0  0  1  0  0  0  0  0  0  0  0  0
  -17.9939  -31.8322   21.3795 C   0  0  0  0  0  0  0  0  0  0  0  0
  -30.0803  -24.1875   19.6224 C   0  0  0  0  0  0  0  0  0  0  0  0
  -31.7244  -22.7398   18.3956 C   0  0  0  0  0  0  0  0  0  0  0  0
  -22.5418  -29.7902   25.7405 C   0  0  0  0  0  0  0  0  0  0  0  0
  -20.1334  -29.9829   25.0842 C   0  0  0  0  0  0  0  0  0  0  0  0
  -21.4959  -32.0420   25.4401 C   0  0  0  0  0  0  0  0  0  0  0  0
  -20.6459  -31.6043   18.6609 C   0  0  0  0  0  0  0  0  0  0  0  0
  -26.3951  -22.6243   20.1944 C   0  0  0  0  0  0  0  0  0  0  0  0
  -28.4645  -21.4841   23.5465 C   0  0  0  0  0  0  0  0  0  0  0  0
  -24.8927  -22.8390   19.9990 C   0  0  0  0  0  0  0  0  0  0  0  0
  -24.4492  -24.2742   20.2576 C   0  0  0  0  0  0  0  0  0  1  0  0
  -21.9009  -30.6278   23.3838 C   0  0  1  0  0  0  0  0  0  0  0  0
  -19.4047  -31.8642   20.8128 C   0  0  2  0  0  0  0  0  0  0  0  0
  -30.3840  -22.7700   19.1328 C   0  0  0  0  0  0  0  0  0  0  0  0
  -21.5366  -30.5977   24.8951 C   0  0  0  0  0  0  0  0  0  0  0  0
  -26.0628  -12.2427   20.4451 N   0  0  0  0  0  0  0  0  0  0  0  0
  -26.7674  -12.3619   19.3069 N   0  0  0  0  0  0  0  0  0  0  0  0
  -24.1958  -30.3496   22.5009 N   0  0  0  0  0  0  0  0  0  0  0  0
  -29.1164  -15.2312   20.2193 N   0  0  0  0  0  0  0  0  0  0  0  0
  -26.8313  -11.6668   17.0434 N   0  0  0  0  0  0  0  0  0  0  0  0
  -23.1426   -9.6215   18.6577 N   0  0  0  0  0  0  0  0  0  0  0  0
  -27.9829  -17.1768   19.5176 N   0  0  0  0  0  0  0  0  0  0  0  0
  -26.8398  -31.0634   24.4680 N   0  0  0  0  0  0  0  0  0  0  0  0
  -20.9812  -31.4080   22.5630 N   0  0  0  0  0  0  0  0  0  0  0  0
  -31.3859  -22.2204   21.3286 N   0  3  0  0  0  0  0  0  0  0  0  0
  -29.0359  -21.0715   24.8464 N   0  3  0  0  0  0  0  0  0  0  0  0
  -19.3307  -31.5815   19.3515 N   0  3  0  0  0  0  0  0  0  0  0  0
  -24.4506   -9.9040   16.7955 O   0  0  0  0  0  0  0  0  0  0  0  0
  -26.3816  -28.9260   23.6654 O   0  0  0  0  0  0  0  0  0  0  0  0
  -23.5240  -32.3547   23.4831 O   0  0  0  0  0  0  0  0  0  0  0  0
  -20.3836  -29.6794   21.1375 O   0  0  0  0  0  0  0  0  0  0  0  0
  -30.2767  -17.1988   19.8637 O   0  0  0  0  0  0  0  0  0  0  0  0
  -21.1963   -9.9702   23.8659 O   0  0  0  0  0  0  0  0  0  0  0  0
  -25.1230  -25.1343   19.3396 O   0  0  0  0  0  0  0  0  0  1  0  0
  -19.7147   -4.6640   24.0959 F   0  0  0  0  0  0  0  0  0  0  0  0
  -21.5353   -8.5022   26.1838 F   0  0  0  0  0  0  0  0  0  0  0  0
  1  2  1  0  0  0  0
  1  5  2  0  0  0  0
  2  6  2  0  0  0  0
  3 10  2  0  0  0  0
  3 18  1  0  0  0  0
  4 11  1  0  0  0  0
  4 18  2  0  0  0  0
  5 20  1  0  0  0  0
  6 22  1  0  0  0  0
  7 12  2  0  0  0  0
  7 21  1  0  0  0  0
  8  9  2  0  0  0  0
  8 25  1  0  0  0  0
  9 26  1  0  0  0  0
 10 27  1  0  0  0  0
 11 27  2  0  0  0  0
 12 28  1  0  0  0  0
 13 14  2  0  0  0  0
 13 29  1  0  0  0  0
 14 30  1  0  0  0  0
 15 23  1  0  0  0  0
 15 26  2  0  0  0  0
 16 24  1  0  0  0  0
 16 28  2  0  0  0  0
 17 30  2  0  0  0  0
 17 31  1  0  0  0  0
 18 32  1  0  0  0  0
 19 32  1  0  0  0  0
 19 33  2  0  0  0  0
 19 34  1  0  0  0  0
 20 22  2  0  0  0  0
 20 39  1  0  0  0  0
 21 24  2  0  0  0  0
 21 40  1  0  0  0  0
 22 50  1  0  0  0  0
 23 25  2  0  0  0  0
 23 49  1  0  0  0  0
 24 41  1  0  0  0  0
 25 62  1  0  0  0  0
 26 76  1  0  0  0  0
 27 87  1  0  0  0  0
 28 88  1  0  0  0  0
 29 31  2  0  0  0  0
 29 87  1  0  0  0  0
 30 89  1  0  0  0  0
 31 90  1  0  0  0  0
 32 70  2  0  0  0  0
 33 71  1  0  0  0  0
 33 74  1  0  0  0  0
 34 75  1  0  0  0  0
 34 82  2  0  0  0  0
 35 51  1  0  0  0  0
 35 77  1  0  0  0  0
 35 83  2  0  0  0  0
 36 66  1  0  0  0  0
 36 72  1  0  0  0  0
 36 84  2  0  0  0  0
 37 67  1  0  0  0  0
 37 78  1  0  0  0  0
 37 85  2  0  0  0  0
 38 73  1  0  0  0  0
 38 76  1  0  0  0  0
 38 86  2  0  0  0  0
 39 42  1  0  0  0  0
 40 51  1  0  0  0  0
 41 72  1  0  0  0  0
 42 44  1  0  0  0  0
 43 45  1  0  0  0  0
 43 46  1  0  0  0  0
 44 50  1  0  0  0  0
 45 53  1  0  0  0  0
 46 73  1  0  0  0  0
 47 53  1  0  0  0  0
 47 73  1  0  0  0  0
 48 52  1  0  0  0  0
 48 79  1  0  0  0  0
 49 52  1  0  0  0  0
 49 54  1  0  0  0  0
 50 77  1  0  0  0  0
 51 72  1  0  0  0  0
 52 63  1  0  0  0  0
 53 71  1  0  0  0  0
 54 68  1  0  0  0  0
 54 79  1  0  0  0  0
 55 67  1  0  0  0  0
 56 68  1  0  0  0  0
 57 68  1  0  0  0  0
 58 69  1  0  0  0  0
 59 69  1  0  0  0  0
 60 69  1  0  0  0  0
 61 81  1  0  0  0  0
 62 64  1  0  0  0  0
 63 80  1  0  0  0  0
 64 65  1  0  0  0  0
 65 88  1  0  0  0  0
 66 69  1  0  0  0  0
 66 78  1  0  0  0  0
 67 81  1  0  0  0  0
 70 71  1  0  0  0  0
M  CHG  3  79   1  80   1  81   1
M  ISO  4  38 100  65 101  76 100  88 101
M  END
> <Batch ID>
0129

> <Smiles>
CNC(C)C(=O)NC(C(=O)N1Cc2cc([101O:1][101CH2:1]CCc3ccc([100NH:0][100C:0](=O)N4CCCC(n5nc(-c6ccc(Oc7ccc(F)cc7F)cc6)c(C(N)=O)c5N)C4)cc3C3C(CN)CNC3C(C)C)ccc2CC1C(=O)NC1CCCc2ccccc21)C(C)(C)C

> <Shape>
0.277

> <Color>
0.069

> <Negative vol penalty>
0.000

$$$$

  -OEChem-04052320453D

 87 96  0     1  0  0  0  0  0999 V2000
  -29.6386  -31.2286   26.3810 C   0  0  0  0  0  0  0  0  0  0  0  0
  -29.3861  -30.3062   25.3706 C   0  0  0  0  0  0  0  0  0  0  0  0
  -25.8454  -12.5014   18.9744 C   0  0  0  0  0  0  0  0  0  0  0  0
  -26.2887  -11.5716   21.1598 C   0  0  0  0  0  0  0  0  0  0  0  0
  -28.5804  -31.7681   27.1111 C   0  0  0  0  0  0  0  0  0  0  0  0
  -28.0752  -29.9219   25.0906 C   0  0  0  0  0  0  0  0  0  0  0  0
  -29.7789  -22.1386   21.9578 C   0  0  0  0  0  0  0  0  0  0  0  0
  -27.0984  -29.8248   20.1226 C   0  0  0  0  0  0  0  0  0  0  0  0
  -30.2318  -20.8314   22.1194 C   0  0  0  0  0  0  0  0  0  0  0  0
  -24.5186  -12.0807   19.0645 C   0  0  0  0  0  0  0  0  0  0  0  0
  -24.9618  -11.1509   21.2500 C   0  0  0  0  0  0  0  0  0  0  0  0
  -27.5665  -28.7262   19.4030 C   0  0  0  0  0  0  0  0  0  0  0  0
  -23.0655   -8.6164   20.0619 C   0  0  0  0  0  0  0  0  0  0  0  0
  -22.8259   -7.3224   20.5242 C   0  0  0  0  0  0  0  0  0  0  0  0
  -25.3641  -27.7451   19.4796 C   0  0  0  0  0  0  0  0  0  0  0  0
  -29.2690  -20.2575   19.9889 C   0  0  0  0  0  0  0  0  0  0  0  0
  -21.5427   -8.2177   22.3651 C   0  0  0  0  0  0  0  0  0  0  0  0
  -26.7305  -12.2467   20.0220 C   0  0  0  0  0  0  0  0  0  0  0  0
  -29.0481  -12.3044   18.9576 C   0  0  0  0  0  0  0  0  0  0  0  0
  -27.2552  -31.3975   26.8335 C   0  0  0  0  0  0  0  0  0  0  0  0
  -25.7600  -29.8868   20.5362 C   0  0  0  0  0  0  0  0  0  0  0  0
  -26.9985  -30.4559   25.8186 C   0  0  0  0  0  0  0  0  0  0  0  0
  -29.0740  -22.5273   20.8024 C   0  0  0  0  0  0  0  0  0  0  0  0
  -24.8809  -28.8467   20.2022 C   0  0  0  0  0  0  0  0  0  0  0  0
  -28.7860  -21.5687   19.8083 C   0  0  0  0  0  0  0  0  0  0  0  0
  -29.9843  -19.8912   21.1292 C   0  0  0  0  0  0  0  0  0  0  0  0
  -24.0767  -11.4055   20.2023 C   0  0  0  0  0  0  0  0  0  0  0  0
  -26.7001  -27.6849   19.0839 C   0  0  0  0  0  0  0  0  0  0  0  0
  -22.5438   -9.7111   20.7513 C   0  0  0  0  0  0  0  0  0  0  0  0
  -22.0644   -7.1230   21.6757 C   0  0  0  0  0  0  0  0  0  0  0  0
  -21.7824   -9.5117   21.9029 C   0  0  0  0  0  0  0  0  0  0  0  0
  -28.1014  -12.6805   19.9293 C   0  0  0  0  0  0  0  0  0  0  0  0
  -30.1888  -12.9842   19.3085 C   0  0  0  0  0  0  0  0  0  0  0  0
  -28.9088  -11.4198   17.8379 C   0  0  0  0  0  0  0  0  0  0  0  0
  -24.2852  -30.0175   23.3490 C   0  0  0  0  0  0  0  0  0  0  0  0
  -21.6442  -30.4117   21.5073 C   0  0  0  0  0  0  0  0  0  0  0  0
  -20.1226  -29.9501   18.4876 C   0  0  0  0  0  0  0  0  0  0  0  0
  -31.1586  -18.0311   22.3570 C   0  0  0  0  0  0  0  0  0  0  0  0
  -26.1480  -31.9720   27.6812 C   0  0  0  0  0  0  0  0  0  0  0  0
  -25.2642  -31.0911   21.2887 C   0  0  0  0  0  0  0  0  0  0  0  0
  -23.4299  -28.8745   20.6052 C   0  0  0  0  0  0  0  0  0  0  0  0
  -28.6789  -23.9784   20.6832 C   0  0  0  0  0  0  0  0  0  0  0  0
  -24.7597  -31.7949   27.0716 C   0  0  0  0  0  0  0  0  0  0  0  0
  -32.4419  -14.7998   23.1244 C   0  0  0  0  0  0  0  0  0  0  0  0
  -24.5751  -30.3661   26.5703 C   0  0  0  0  0  0  0  0  0  0  0  0
  -31.5646  -13.8559   22.2990 C   0  0  0  0  0  0  0  0  0  0  0  0
  -31.6436  -15.9806   23.6742 C   0  0  0  0  0  0  0  0  0  0  0  0
  -30.0031  -15.7907   21.8461 C   0  0  0  0  0  0  0  0  0  0  0  0
  -25.5883  -30.0328   25.4686 C   0  0  1  0  0  0  0  0  0  0  0  0
  -24.0054  -30.8101   22.1035 C   0  0  1  0  0  0  0  0  0  0  0  0
  -30.7767  -14.6204   21.2172 C   0  0  2  0  0  0  0  0  0  0  0  0
  -26.9742  -22.8402   18.6457 C   0  0  1  0  0  0  0  0  0  0  0  0
  -27.5504  -24.2445   18.3966 C   0  0  1  0  0  0  0  0  0  0  0  0
  -25.6743  -21.9959   15.0868 C   0  0  0  0  0  0  0  0  0  0  0  0
  -17.9495  -30.3440   17.2961 C   0  0  0  0  0  0  0  0  0  0  0  0
  -20.3952  -28.0730   23.0173 C   0  0  0  0  0  0  0  0  0  0  0  0
  -18.6815  -27.9052   21.1997 C   0  0  0  0  0  0  0  0  0  0  0  0
  -18.8387  -29.9801   22.5756 C   0  0  0  0  0  0  0  0  0  0  0  0
  -21.4126  -31.6823   16.4641 C   0  0  0  0  0  0  0  0  0  0  0  0
  -26.5273  -25.3588   18.6196 C   0  0  0  0  0  0  0  0  0  1  0  0
  -26.6458  -22.4042   16.1864 C   0  0  0  0  0  0  0  0  0  0  0  0
  -20.6376  -29.4850   20.8694 C   0  0  1  0  0  0  0  0  0  0  0  0
  -19.3326  -30.8971   17.6025 C   0  0  2  0  0  0  0  0  0  0  0  0
  -25.9697  -22.4506   17.5537 C   0  0  1  0  0  0  0  0  0  0  0  0
  -19.6660  -28.8591   21.9094 C   0  0  0  0  0  0  0  0  0  0  0  0
  -28.5976  -13.5329   20.8299 N   0  0  0  0  0  0  0  0  0  0  0  0
  -29.8686  -13.6981   20.4257 N   0  0  0  0  0  0  0  0  0  0  0  0
  -28.0223  -21.8279   18.6755 N   0  0  0  0  0  0  0  0  0  0  0  0
  -22.9945  -30.0706   21.3450 N   0  0  0  0  0  0  0  0  0  0  0  0
  -30.9270  -16.6593   22.5922 N   0  0  0  0  0  0  0  0  0  0  0  0
  -31.4245  -13.0350   18.7674 N   0  0  0  0  0  0  0  0  0  0  0  0
  -29.1917  -10.0595   18.0220 N   0  0  0  0  0  0  0  0  0  0  0  0
  -30.4455  -18.5601   21.2817 N   0  0  0  0  0  0  0  0  0  0  0  0
  -25.1800  -30.6219   24.2113 N   0  0  0  0  0  0  0  0  0  0  0  0
  -19.9764  -30.2581   19.8236 N   0  0  0  0  0  0  0  0  0  0  0  0
  -28.7360  -24.5161   19.2841 N   0  3  0  0  0  0  0  0  0  0  0  0
  -20.0466  -31.1181   16.3132 N   0  3  0  0  0  0  0  0  0  0  0  0
  -28.5602  -11.8263   16.7036 O   0  0  0  0  0  0  0  0  0  0  0  0
  -23.7293  -28.9383   23.5160 O   0  0  0  0  0  0  0  0  0  0  0  0
  -21.2474  -31.4057   22.1206 O   0  0  0  0  0  0  0  0  0  0  0  0
  -20.7987  -29.0269   18.0389 O   0  0  0  0  0  0  0  0  0  0  0  0
  -31.9530  -18.6818   23.0408 O   0  0  0  0  0  0  0  0  0  0  0  0
  -25.4408  -21.1692   17.8668 O   0  0  0  0  0  0  0  0  0  0  0  0
  -22.7820  -10.9951   20.2907 O   0  0  0  0  0  0  0  0  0  0  0  0
  -27.1588  -26.6010   18.3756 O   0  0  0  0  0  0  0  0  0  1  0  0
  -21.8331   -5.8802   22.1186 F   0  0  0  0  0  0  0  0  0  0  0  0
  -21.2775  -10.5594   22.5687 F   0  0  0  0  0  0  0  0  0  0  0  0
  1  2  1  0  0  0  0
  1  5  2  0  0  0  0
  2  6  2  0  0  0  0
  3 10  2  0  0  0  0
  3 18  1  0  0  0  0
  4 11  1  0  0  0  0
  4 18  2  0  0  0  0
  5 20  1  0  0  0  0
  6 22  1  0  0  0  0
  7  9  2  0  0  0  0
  7 23  1  0  0  0  0
  8 12  2  0  0  0  0
  8 21  1  0  0  0  0
  9 26  1  0  0  0  0
 10 27  1  0  0  0  0
 11 27  2  0  0  0  0
 12 28  1  0  0  0  0
 13 14  2  0  0  0  0
 13 29  1  0  0  0  0
 14 30  1  0  0  0  0
 15 24  1  0  0  0  0
 15 28  2  0  0  0  0
 16 25  1  0  0  0  0
 16 26  2  0  0  0  0
 17 30  2  0  0  0  0
 17 31  1  0  0  0  0
 18 32  1  0  0  0  0
 19 32  1  0  0  0  0
 19 33  2  0  0  0  0
 19 34  1  0  0  0  0
 20 22  2  0  0  0  0
 20 39  1  0  0  0  0
 21 24  2  0  0  0  0
 21 40  1  0  0  0  0
 22 49  1  0  0  0  0
 23 25  2  0  0  0  0
 23 42  1  0  0  0  0
 24 41  1  0  0  0  0
 25 68  1  0  0  0  0
 26 73  1  0  0  0  0
 27 84  1  0  0  0  0
 28 85  1  0  0  0  0
 29 31  2  0  0  0  0
 29 84  1  0  0  0  0
 30 86  1  0  0  0  0
 31 87  1  0  0  0  0
 32 66  2  0  0  0  0
 33 67  1  0  0  0  0
 33 71  1  0  0  0  0
 34 72  1  0  0  0  0
 34 78  2  0  0  0  0
 35 50  1  0  0  0  0
 35 74  1  0  0  0  0
 35 79  2  0  0  0  0
 36 62  1  0  0  0  0
 36 69  1  0  0  0  0
 36 80  2  0  0  0  0
 37 63  1  0  0  0  0
 37 75  1  0  0  0  0
 37 81  2  0  0  0  0
 38 70  1  0  0  0  0
 38 73  1  0  0  0  0
 38 82  2  0  0  0  0
 39 43  1  0  0  0  0
 40 50  1  0  0  0  0
 41 69  1  0  0  0  0
 42 76  1  0  0  0  0
 43 45  1  0  0  0  0
 44 46  1  0  0  0  0
 44 47  1  0  0  0  0
 45 49  1  0  0  0  0
 46 51  1  0  0  0  0
 47 70  1  0  0  0  0
 48 51  1  0  0  0  0
 48 70  1  0  0  0  0
 49 74  1  0  0  0  0
 50 69  1  0  0  0  0
 51 67  1  0  0  0  0
 52 53  1  0  0  0  0
 52 64  1  0  0  0  0
 52 68  1  0  0  0  0
 53 60  1  0  0  0  0
 53 76  1  0  0  0  0
 54 61  1  0  0  0  0
 55 63  1  0  0  0  0
 56 65  1  0  0  0  0
 57 65  1  0  0  0  0
 58 65  1  0  0  0  0
 59 77  1  0  0  0  0
 60 85  1  0  0  0  0
 61 64  1  0  0  0  0
 62 65  1  0  0  0  0
 62 75  1  0  0  0  0
 63 77  1  0  0  0  0
 64 83  1  0  0  0  0
 66 67  1  0  0  0  0
M  CHG  2  76   1  77   1
M  ISO  4  38 100  60 101  73 100  85 101
M  END
> <Batch ID>
0129

> <Smiles>
CCC(O)C1Nc2cc([100NH:0][100C:0](=O)N3CCCC(n4nc(-c5ccc(Oc6ccc(F)cc6F)cc5)c(C(N)=O)c4N)C3)ccc2CNC1[101CH2:1][101O:1]c1ccc2c(c1)CN(C(=O)C(NC(=O)C(C)NC)C(C)(C)C)C(C(=O)NC1CCCc3ccccc31)C2

> <Shape>
0.334

> <Color>
0.067

> <Negative vol penalty>
0.000

$$$$

  -OEChem-04052320453D

 88 97  0     1  0  0  0  0  0999 V2000
  -24.1178  -30.4370   30.6223 C   0  0  0  0  0  0  0  0  0  0  0  0
  -24.5339  -29.6903   29.5248 C   0  0  0  0  0  0  0  0  0  0  0  0
  -22.8963  -10.6908   21.9041 C   0  0  0  0  0  0  0  0  0  0  0  0
  -24.0375   -9.3703   20.2334 C   0  0  0  0  0  0  0  0  0  0  0  0
  -23.5061  -31.6751   30.4301 C   0  0  0  0  0  0  0  0  0  0  0  0
  -24.3376  -30.1807   28.2343 C   0  0  0  0  0  0  0  0  0  0  0  0
  -28.4208  -29.6046   25.2949 C   0  0  0  0  0  0  0  0  0  0  0  0
  -29.4596  -16.5470   24.8317 C   0  0  0  0  0  0  0  0  0  0  0  0
  -31.7868  -16.6373   24.1888 C   0  0  0  0  0  0  0  0  0  0  0  0
  -29.3912  -17.9392   24.7796 C   0  0  0  0  0  0  0  0  0  0  0  0
  -31.7183  -18.0295   24.1366 C   0  0  0  0  0  0  0  0  0  0  0  0
  -22.1266   -9.5817   22.2549 C   0  0  0  0  0  0  0  0  0  0  0  0
  -23.2678   -8.2612   20.5843 C   0  0  0  0  0  0  0  0  0  0  0  0
  -28.6528  -28.3343   24.7691 C   0  0  0  0  0  0  0  0  0  0  0  0
  -22.5045   -6.7670   24.0899 C   0  0  0  0  0  0  0  0  0  0  0  0
  -22.3363   -6.4981   25.4482 C   0  0  0  0  0  0  0  0  0  0  0  0
  -27.6965  -29.0359   22.6684 C   0  0  0  0  0  0  0  0  0  0  0  0
  -19.9446   -6.7321   25.1982 C   0  0  0  0  0  0  0  0  0  0  0  0
  -23.8518  -10.5851   20.8933 C   0  0  0  0  0  0  0  0  0  0  0  0
  -24.1830  -12.9682   20.0456 C   0  0  0  0  0  0  0  0  0  0  0  0
  -23.3109  -32.1853   29.1370 C   0  0  0  0  0  0  0  0  0  0  0  0
  -27.8141  -30.5984   24.5136 C   0  0  0  0  0  0  0  0  0  0  0  0
  -23.7215  -31.4262   28.0246 C   0  0  0  0  0  0  0  0  0  0  0  0
  -27.4603  -30.3187   23.1859 C   0  0  0  0  0  0  0  0  0  0  0  0
  -30.6575  -15.8961   24.5364 C   0  0  0  0  0  0  0  0  0  0  0  0
  -30.5205  -18.6805   24.4320 C   0  0  0  0  0  0  0  0  0  0  0  0
  -22.3123   -8.3670   21.5950 C   0  0  0  0  0  0  0  0  0  0  0  0
  -28.2880  -28.0490   23.4566 C   0  0  0  0  0  0  0  0  0  0  0  0
  -21.3929   -7.0185   23.2858 C   0  0  0  0  0  0  0  0  0  0  0  0
  -21.0563   -6.4807   26.0024 C   0  0  0  0  0  0  0  0  0  0  0  0
  -20.1129   -7.0010   23.8399 C   0  0  0  0  0  0  0  0  0  0  0  0
  -24.6469  -11.7305   20.5301 C   0  0  0  0  0  0  0  0  0  0  0  0
  -25.3225  -13.7107   19.8537 C   0  0  0  0  0  0  0  0  0  0  0  0
  -22.8420  -13.4075   19.7917 C   0  0  0  0  0  0  0  0  0  0  0  0
  -25.1206  -32.2747   24.7117 C   0  0  0  0  0  0  0  0  0  0  0  0
  -26.3597  -33.8321   22.1501 C   0  0  0  0  0  0  0  0  0  0  0  0
  -28.1225  -32.9461   19.1294 C   0  0  0  0  0  0  0  0  0  0  0  0
  -30.7894  -13.4919   22.2860 C   0  0  0  0  0  0  0  0  0  0  0  0
  -22.6023  -33.5072   28.9775 C   0  0  0  0  0  0  0  0  0  0  0  0
  -27.5951  -31.9716   25.0870 C   0  0  0  0  0  0  0  0  0  0  0  0
  -26.8245  -31.3568   22.2991 C   0  0  0  0  0  0  0  0  0  0  0  0
  -22.7697  -34.1246   27.5914 C   0  0  0  0  0  0  0  0  0  0  0  0
  -29.9721  -13.2373   18.8301 C   0  0  0  0  0  0  0  0  0  0  0  0
  -22.5303  -33.0777   26.5082 C   0  0  0  0  0  0  0  0  0  0  0  0
  -28.4728  -12.9339   18.8301 C   0  0  0  0  0  0  0  0  0  0  0  0
  -28.3082  -24.4397   20.3009 C   0  0  0  0  0  0  0  0  0  0  0  0
  -27.6081  -24.5833   22.7017 C   0  0  0  0  0  0  0  0  0  0  0  0
  -30.6859  -12.5553   19.9951 C   0  0  0  0  0  0  0  0  0  0  0  0
  -28.6104  -12.5315   21.3237 C   0  0  0  0  0  0  0  0  0  0  0  0
  -28.0647  -25.9399   20.2079 C   0  0  0  0  0  0  0  0  0  0  0  0
  -23.5484  -31.9355   26.6101 C   0  0  1  0  0  0  0  0  0  0  0  0
  -26.5020  -32.7534   24.3650 C   0  0  1  0  0  0  0  0  0  0  0  0
  -28.6683  -24.0397   21.7348 C   0  0  1  0  0  0  0  0  0  0  0  0
  -27.8382  -13.2430   20.1995 C   0  0  2  0  0  0  0  0  0  0  0  0
  -27.3758  -26.0796   22.4894 C   0  0  2  0  0  0  0  0  0  1  0  0
  -29.7307  -34.2708   17.7307 C   0  0  0  0  0  0  0  0  0  0  0  0
  -23.8865  -34.5689   20.5221 C   0  0  0  0  0  0  0  0  0  0  0  0
  -25.2843  -34.3992   18.4520 C   0  0  0  0  0  0  0  0  0  0  0  0
  -25.8421  -36.0932   20.1961 C   0  0  0  0  0  0  0  0  0  0  0  0
  -30.2059  -30.8543   19.3363 C   0  0  0  0  0  0  0  0  0  0  0  0
  -30.7315  -14.4077   24.5920 C   0  0  0  0  0  0  0  0  0  0  0  0
  -30.4456  -20.1778   24.3744 C   0  0  0  0  0  0  0  0  0  0  0  0
  -28.8051  -22.5250   21.8646 C   0  0  0  0  0  0  0  0  0  0  0  0
  -29.5801  -22.1544   23.1163 C   0  0  0  0  0  0  0  0  0  0  0  0
  -26.2950  -33.6482   20.6532 C   0  0  1  0  0  0  0  0  0  0  0  0
  -29.5832  -33.2168   18.8171 C   0  0  2  0  0  0  0  0  0  0  0  0
  -25.3247  -34.6553   19.9737 C   0  0  0  0  0  0  0  0  0  0  0  0
  -25.9773  -11.6854   20.6392 N   0  0  0  0  0  0  0  0  0  0  0  0
  -26.3592  -12.9039   20.2204 N   0  0  0  0  0  0  0  0  0  0  0  0
  -26.6252  -32.6825   22.9076 N   0  0  0  0  0  0  0  0  0  0  0  0
  -30.0360  -12.8906   21.2644 N   0  0  0  0  0  0  0  0  0  0  0  0
  -25.5287  -14.9684   19.4087 N   0  0  0  0  0  0  0  0  0  0  0  0
  -22.2975  -13.1902   18.5186 N   0  0  0  0  0  0  0  0  0  0  0  0
  -24.8229  -32.3439   26.0593 N   0  0  0  0  0  0  0  0  0  0  0  0
  -27.6702  -33.7263   20.1725 N   0  0  0  0  0  0  0  0  0  0  0  0
  -30.0950  -13.7826   23.4540 N   0  0  0  0  0  0  0  0  0  0  0  0
  -30.2540  -31.9687   18.3552 N   0  3  0  0  0  0  0  0  0  0  0  0
  -29.7260  -20.6801   23.1717 N   0  3  0  0  0  0  0  0  0  0  0  0
  -22.1530  -13.9905   20.6627 O   0  0  0  0  0  0  0  0  0  0  0  0
  -24.3792  -31.8737   23.8222 O   0  0  0  0  0  0  0  0  0  0  0  0
  -26.1882  -34.9558   22.6293 O   0  0  0  0  0  0  0  0  0  0  0  0
  -27.4490  -32.1273   18.5077 O   0  0  0  0  0  0  0  0  0  0  0  0
  -31.9905  -13.7555   22.1643 O   0  0  0  0  0  0  0  0  0  0  0  0
  -27.0538  -26.3559   21.1247 O   0  0  0  0  0  0  0  0  0  0  0  0
  -21.5615   -7.2845   21.9373 O   0  0  0  0  0  0  0  0  0  0  0  0
  -28.5126  -26.8097   22.9411 O   0  0  0  0  0  0  0  0  0  1  0  0
  -20.8948   -6.2209   27.3065 F   0  0  0  0  0  0  0  0  0  0  0  0
  -19.0411   -7.2407   23.0722 F   0  0  0  0  0  0  0  0  0  0  0  0
  1  2  1  0  0  0  0
  1  5  2  0  0  0  0
  2  6  2  0  0  0  0
  3 12  2  0  0  0  0
  3 19  1  0  0  0  0
  4 13  1  0  0  0  0
  4 19  2  0  0  0  0
  5 21  1  0  0  0  0
  6 23  1  0  0  0  0
  7 14  2  0  0  0  0
  7 22  1  0  0  0  0
  8 10  2  0  0  0  0
  8 25  1  0  0  0  0
  9 11  1  0  0  0  0
  9 25  2  0  0  0  0
 10 26  1  0  0  0  0
 11 26  2  0  0  0  0
 12 27  1  0  0  0  0
 13 27  2  0  0  0  0
 14 28  1  0  0  0  0
 15 16  2  0  0  0  0
 15 29  1  0  0  0  0
 16 30  1  0  0  0  0
 17 24  1  0  0  0  0
 17 28  2  0  0  0  0
 18 30  2  0  0  0  0
 18 31  1  0  0  0  0
 19 32  1  0  0  0  0
 20 32  1  0  0  0  0
 20 33  2  0  0  0  0
 20 34  1  0  0  0  0
 21 23  2  0  0  0  0
 21 39  1  0  0  0  0
 22 24  2  0  0  0  0
 22 40  1  0  0  0  0
 23 51  1  0  0  0  0
 24 41  1  0  0  0  0
 25 61  1  0  0  0  0
 26 62  1  0  0  0  0
 27 85  1  0  0  0  0
 28 86  1  0  0  0  0
 29 31  2  0  0  0  0
 29 85  1  0  0  0  0
 30 87  1  0  0  0  0
 31 88  1  0  0  0  0
 32 68  2  0  0  0  0
 33 69  1  0  0  0  0
 33 72  1  0  0  0  0
 34 73  1  0  0  0  0
 34 79  2  0  0  0  0
 35 52  1  0  0  0  0
 35 74  1  0  0  0  0
 35 80  2  0  0  0  0
 36 65  1  0  0  0  0
 36 70  1  0  0  0  0
 36 81  2  0  0  0  0
 37 66  1  0  0  0  0
 37 75  1  0  0  0  0
 37 82  2  0  0  0  0
 38 71  1  0  0  0  0
 38 76  1  0  0  0  0
 38 83  2  0  0  0  0
 39 42  1  0  0  0  0
 40 52  1  0  0  0  0
 41 70  1  0  0  0  0
 42 44  1  0  0  0  0
 43 45  1  0  0  0  0
 43 48  1  0  0  0  0
 44 51  1  0  0  0  0
 45 54  1  0  0  0  0
 46 50  1  0  0  0  0
 46 53  1  0  0  0  0
 47 53  1  0  0  0  0
 47 55  1  0  0  0  0
 48 71  1  0  0  0  0
 49 54  1  0  0  0  0
 49 71  1  0  0  0  0
 50 84  1  0  0  0  0
 51 74  1  0  0  0  0
 52 70  1  0  0  0  0
 53 63  1  0  0  0  0
 54 69  1  0  0  0  0
 55 84  1  0  0  0  0
 55 86  1  0  0  0  0
 56 66  1  0  0  0  0
 57 67  1  0  0  0  0
 58 67  1  0  0  0  0
 59 67  1  0  0  0  0
 60 77  1  0  0  0  0
 61 76  1  0  0  0  0
 62 78  1  0  0  0  0
 63 64  1  0  0  0  0
 64 78  1  0  0  0  0
 65 67  1  0  0  0  0
 65 75  1  0  0  0  0
 66 77  1  0  0  0  0
 68 69  1  0  0  0  0
M  CHG  2  77   1  78   1
M  ISO  4  38 100  55 101  76 100  86 101
M  END
> <Batch ID>
0129

> <Smiles>
CNC(C)C(=O)NC(C(=O)N1Cc2cc([101O:1][101CH:1]3CC(CCNCc4ccc(C[100NH:0][100C:0](=O)N5CCCC(n6nc(-c7ccc(Oc8ccc(F)cc8F)cc7)c(C(N)=O)c6N)C5)cc4)CCO3)ccc2CC1C(=O)NC1CCCc2ccccc21)C(C)(C)C

> <Shape>
0.218

> <Color>
0.135

> <Negative vol penalty>
0.000

$$$$

  -OEChem-04052320453D

 88 97  0     1  0  0  0  0  0999 V2000
  -36.8746  -28.5668   29.7599 C   0  0  0  0  0  0  0  0  0  0  0  0
  -36.3878  -27.4580   29.0750 C   0  0  0  0  0  0  0  0  0  0  0  0
  -33.7149  -19.5335   25.6946 C   0  0  0  0  0  0  0  0  0  0  0  0
  -23.0120   -9.8929   19.9725 C   0  0  0  0  0  0  0  0  0  0  0  0
  -23.6609   -9.9622   22.2987 C   0  0  0  0  0  0  0  0  0  0  0  0
  -36.3545  -29.8327   29.4939 C   0  0  0  0  0  0  0  0  0  0  0  0
  -35.3797  -27.6145   28.1244 C   0  0  0  0  0  0  0  0  0  0  0  0
  -34.6841  -24.4327   22.9380 C   0  0  0  0  0  0  0  0  0  0  0  0
  -32.3473  -19.8069   25.6698 C   0  0  0  0  0  0  0  0  0  0  0  0
  -34.1990  -18.3471   25.1436 C   0  0  0  0  0  0  0  0  0  0  0  0
  -22.2211   -8.7724   20.2265 C   0  0  0  0  0  0  0  0  0  0  0  0
  -22.8700   -8.8417   22.5527 C   0  0  0  0  0  0  0  0  0  0  0  0
  -33.8780  -23.3447   22.6060 C   0  0  0  0  0  0  0  0  0  0  0  0
  -23.0827   -5.4942   22.1287 C   0  0  0  0  0  0  0  0  0  0  0  0
  -23.6305   -4.4784   22.9119 C   0  0  0  0  0  0  0  0  0  0  0  0
  -32.2326  -24.8513   21.6885 C   0  0  0  0  0  0  0  0  0  0  0  0
  -21.8556   -4.7654   24.5257 C   0  0  0  0  0  0  0  0  0  0  0  0
  -23.7319  -10.4878   21.0086 C   0  0  0  0  0  0  0  0  0  0  0  0
  -24.1584  -12.9956   20.8158 C   0  0  0  0  0  0  0  0  0  0  0  0
  -35.3463  -30.0061   28.5326 C   0  0  0  0  0  0  0  0  0  0  0  0
  -34.2649  -25.7410   22.6571 C   0  0  0  0  0  0  0  0  0  0  0  0
  -34.8446  -28.8838   27.8462 C   0  0  0  0  0  0  0  0  0  0  0  0
  -33.0364  -25.9541   22.0156 C   0  0  0  0  0  0  0  0  0  0  0  0
  -31.9480  -17.7073   24.5431 C   0  0  0  0  0  0  0  0  0  0  0  0
  -31.4639  -18.8938   25.0941 C   0  0  0  0  0  0  0  0  0  0  0  0
  -22.1501   -8.2468   21.5166 C   0  0  0  0  0  0  0  0  0  0  0  0
  -32.6508  -23.5540   21.9838 C   0  0  0  0  0  0  0  0  0  0  0  0
  -33.3156  -17.4340   24.5679 C   0  0  0  0  0  0  0  0  0  0  0  0
  -21.9213   -6.1458   22.5440 C   0  0  0  0  0  0  0  0  0  0  0  0
  -23.0170   -4.1139   24.1104 C   0  0  0  0  0  0  0  0  0  0  0  0
  -21.3078   -5.7814   23.7425 C   0  0  0  0  0  0  0  0  0  0  0  0
  -24.5496  -11.6450   20.7467 C   0  0  0  0  0  0  0  0  0  0  0  0
  -25.2897  -13.6983   20.4801 C   0  0  0  0  0  0  0  0  0  0  0  0
  -22.8861  -13.5640   21.1534 C   0  0  0  0  0  0  0  0  0  0  0  0
  -33.6170  -28.3136   24.4081 C   0  0  0  0  0  0  0  0  0  0  0  0
  -33.3213  -29.7341   21.5069 C   0  0  0  0  0  0  0  0  0  0  0  0
  -32.7068  -29.4000   18.1666 C   0  0  0  0  0  0  0  0  0  0  0  0
  -30.7878  -14.5170   20.9251 C   0  0  0  0  0  0  0  0  0  0  0  0
  -34.7822  -31.3875   28.3133 C   0  0  0  0  0  0  0  0  0  0  0  0
  -35.1580  -26.9025   22.9975 C   0  0  0  0  0  0  0  0  0  0  0  0
  -32.5496  -27.3379   21.6741 C   0  0  0  0  0  0  0  0  0  0  0  0
  -33.9775  -31.5191   27.0228 C   0  0  0  0  0  0  0  0  0  0  0  0
  -29.6783  -12.1680   18.5305 C   0  0  0  0  0  0  0  0  0  0  0  0
  -33.0122  -30.3474   26.8739 C   0  0  0  0  0  0  0  0  0  0  0  0
  -28.2245  -11.9011   18.9107 C   0  0  0  0  0  0  0  0  0  0  0  0
  -30.9945  -15.2910   24.5045 C   0  0  0  0  0  0  0  0  0  0  0  0
  -30.5388  -12.3459   19.7742 C   0  0  0  0  0  0  0  0  0  0  0  0
  -30.2752  -14.4798   23.4351 C   0  0  0  0  0  0  0  0  0  0  0  0
  -31.2558  -16.4237   22.4341 C   0  0  0  0  0  0  0  0  0  0  0  0
  -28.6050  -13.2204   21.0572 C   0  0  0  0  0  0  0  0  0  0  0  0
  -30.9945  -16.7124   23.9191 C   0  0  2  0  0  0  0  0  0  0  0  0
  -33.7689  -29.0163   26.7901 C   0  0  1  0  0  0  0  0  0  0  0  0
  -34.4005  -28.2201   23.1295 C   0  0  1  0  0  0  0  0  0  0  0  0
  -27.6928  -13.0108   19.8308 C   0  0  2  0  0  0  0  0  0  0  0  0
  -32.4952  -30.7447   16.0584 C   0  0  0  0  0  0  0  0  0  0  0  0
  -30.5604  -30.6841   22.3927 C   0  0  0  0  0  0  0  0  0  0  0  0
  -30.0350  -31.1711   19.9938 C   0  0  0  0  0  0  0  0  0  0  0  0
  -31.8938  -32.3837   21.1327 C   0  0  0  0  0  0  0  0  0  0  0  0
  -34.9641  -27.9723   16.8919 C   0  0  0  0  0  0  0  0  0  0  0  0
  -35.2178  -16.0836   24.1054 C   0  0  0  0  0  0  0  0  0  0  0  0
  -30.0043  -19.2104   25.0803 C   0  0  0  0  0  0  0  0  0  0  0  0
  -29.4756  -19.6597   23.7183 C   0  0  0  0  0  0  0  0  0  0  0  0
  -29.7320  -21.4086   21.9536 C   0  0  0  0  0  0  0  0  0  0  0  0
  -30.4522  -22.7088   21.6555 C   0  0  0  0  0  0  0  0  0  1  0  0
  -32.1895  -29.9460   20.5307 C   0  0  1  0  0  0  0  0  0  0  0  0
  -33.4325  -29.9445   16.9495 C   0  0  2  0  0  0  0  0  0  0  0  0
  -31.1777  -31.0201   21.0205 C   0  0  0  0  0  0  0  0  0  0  0  0
  -25.8294  -11.4962   20.3946 N   0  0  0  0  0  0  0  0  0  0  0  0
  -26.2522  -12.7624   20.2394 N   0  0  0  0  0  0  0  0  0  0  0  0
  -33.4559  -28.4413   22.0327 N   0  0  0  0  0  0  0  0  0  0  0  0
  -30.0088  -13.3857   20.6582 N   0  0  0  0  0  0  0  0  0  0  0  0
  -30.6590  -15.1169   22.1771 N   0  0  0  0  0  0  0  0  0  0  0  0
  -25.5451  -15.0193   20.3703 N   0  0  0  0  0  0  0  0  0  0  0  0
  -21.8311  -12.6984   21.4727 N   0  0  0  0  0  0  0  0  0  0  0  0
  -34.3314  -28.8370   25.4688 N   0  0  0  0  0  0  0  0  0  0  0  0
  -32.8102  -30.2515   19.2462 N   0  0  0  0  0  0  0  0  0  0  0  0
  -34.0059  -28.8281   16.1459 N   0  3  0  0  0  0  0  0  0  0  0  0
  -30.1396  -20.9185   23.2985 N   0  3  0  0  0  0  0  0  0  0  0  0
  -22.6862  -14.8024   21.1553 O   0  0  0  0  0  0  0  0  0  0  0  0
  -32.4501  -27.9399   24.4304 O   0  0  0  0  0  0  0  0  0  0  0  0
  -34.0632  -30.6789   21.7870 O   0  0  0  0  0  0  0  0  0  0  0  0
  -32.1050  -28.3284   18.1592 O   0  0  0  0  0  0  0  0  0  0  0  0
  -31.5973  -14.9506   20.0941 O   0  0  0  0  0  0  0  0  0  0  0  0
  -21.3782   -7.1536   21.7649 O   0  0  0  0  0  0  0  0  0  0  0  0
  -33.8070  -16.2799   24.0359 O   0  0  0  0  0  0  0  0  0  0  0  0
  -31.8561  -22.4862   21.6569 O   0  0  0  0  0  0  0  0  0  1  0  0
  -23.5423   -3.1373   24.8617 F   0  0  0  0  0  0  0  0  0  0  0  0
  -20.1912   -6.4029   24.1461 F   0  0  0  0  0  0  0  0  0  0  0  0
  1  2  1  0  0  0  0
  1  6  2  0  0  0  0
  2  7  2  0  0  0  0
  3  9  2  0  0  0  0
  3 10  1  0  0  0  0
  4 11  2  0  0  0  0
  4 18  1  0  0  0  0
  5 12  1  0  0  0  0
  5 18  2  0  0  0  0
  6 20  1  0  0  0  0
  7 22  1  0  0  0  0
  8 13  2  0  0  0  0
  8 21  1  0  0  0  0
  9 25  1  0  0  0  0
 10 28  2  0  0  0  0
 11 26  1  0  0  0  0
 12 26  2  0  0  0  0
 13 27  1  0  0  0  0
 14 15  2  0  0  0  0
 14 29  1  0  0  0  0
 15 30  1  0  0  0  0
 16 23  1  0  0  0  0
 16 27  2  0  0  0  0
 17 30  2  0  0  0  0
 17 31  1  0  0  0  0
 18 32  1  0  0  0  0
 19 32  1  0  0  0  0
 19 33  2  0  0  0  0
 19 34  1  0  0  0  0
 20 22  2  0  0  0  0
 20 39  1  0  0  0  0
 21 23  2  0  0  0  0
 21 40  1  0  0  0  0
 22 52  1  0  0  0  0
 23 41  1  0  0  0  0
 24 25  2  0  0  0  0
 24 28  1  0  0  0  0
 24 51  1  0  0  0  0
 25 61  1  0  0  0  0
 26 84  1  0  0  0  0
 27 86  1  0  0  0  0
 28 85  1  0  0  0  0
 29 31  2  0  0  0  0
 29 84  1  0  0  0  0
 30 87  1  0  0  0  0
 31 88  1  0  0  0  0
 32 68  2  0  0  0  0
 33 69  1  0  0  0  0
 33 73  1  0  0  0  0
 34 74  1  0  0  0  0
 34 79  2  0  0  0  0
 35 53  1  0  0  0  0
 35 75  1  0  0  0  0
 35 80  2  0  0  0  0
 36 65  1  0  0  0  0
 36 70  1  0  0  0  0
 36 81  2  0  0  0  0
 37 66  1  0  0  0  0
 37 76  1  0  0  0  0
 37 82  2  0  0  0  0
 38 71  1  0  0  0  0
 38 72  1  0  0  0  0
 38 83  2  0  0  0  0
 39 42  1  0  0  0  0
 40 53  1  0  0  0  0
 41 70  1  0  0  0  0
 42 44  1  0  0  0  0
 43 45  1  0  0  0  0
 43 47  1  0  0  0  0
 44 52  1  0  0  0  0
 45 54  1  0  0  0  0
 46 48  1  0  0  0  0
 46 51  1  0  0  0  0
 47 71  1  0  0  0  0
 48 72  1  0  0  0  0
 49 51  1  0  0  0  0
 49 72  1  0  0  0  0
 50 54  1  0  0  0  0
 50 71  1  0  0  0  0
 52 75  1  0  0  0  0
 53 70  1  0  0  0  0
 54 69  1  0  0  0  0
 55 66  1  0  0  0  0
 56 67  1  0  0  0  0
 57 67  1  0  0  0  0
 58 67  1  0  0  0  0
 59 77  1  0  0  0  0
 60 85  1  0  0  0  0
 61 62  1  0  0  0  0
 62 78  1  0  0  0  0
 63 64  1  0  0  0  0
 63 78  1  0  0  0  0
 64 86  1  0  0  0  0
 65 67  1  0  0  0  0
 65 76  1  0  0  0  0
 66 77  1  0  0  0  0
 68 69  1  0  0  0  0
M  CHG  2  77   1  78   1
M  ISO  4  38 100  64 101  72 100  86 101
M  END
> <Batch ID>
0129

> <Smiles>
CNC(C)C(=O)NC(C(=O)N1Cc2cc([101O:1][101CH2:1]CNCCc3cccc(OC)c3C3CC[100N:0]([100C:0](=O)N4CCCC(n5nc(-c6ccc(Oc7ccc(F)cc7F)cc6)c(C(N)=O)c5N)C4)C3)ccc2CC1C(=O)NC1CCCc2ccccc21)C(C)(C)C

> <Shape>
0.174

> <Color>
0.192

> <Negative vol penalty>
0.000

$$$$

  -OEChem-04052320453D

 85 93  0     1  0  0  0  0  0999 V2000
  -16.8904  -20.6114   28.7967 C   0  0  0  0  0  0  0  0  0  0  0  0
  -17.8470  -20.4997   27.7928 C   0  0  0  0  0  0  0  0  0  0  0  0
  -23.0418   -9.9368   19.9143 C   0  0  0  0  0  0  0  0  0  0  0  0
  -23.8779   -9.8224   22.1781 C   0  0  0  0  0  0  0  0  0  0  0  0
  -15.9637  -21.6525   28.7623 C   0  0  0  0  0  0  0  0  0  0  0  0
  -17.8766  -21.4285   26.7531 C   0  0  0  0  0  0  0  0  0  0  0  0
  -22.5670  -23.0274   25.7096 C   0  0  0  0  0  0  0  0  0  0  0  0
  -22.3021   -8.7738   20.1287 C   0  0  0  0  0  0  0  0  0  0  0  0
  -23.1382   -8.6594   22.3926 C   0  0  0  0  0  0  0  0  0  0  0  0
  -23.3786  -22.1754   24.9619 C   0  0  0  0  0  0  0  0  0  0  0  0
  -19.9289   -7.8383   23.0607 C   0  0  0  0  0  0  0  0  0  0  0  0
  -19.2113   -7.7389   24.2527 C   0  0  0  0  0  0  0  0  0  0  0  0
  -26.2105  -19.0686   19.7043 C   0  0  0  0  0  0  0  0  0  0  0  0
  -25.0058  -19.7362   20.0363 C   0  0  0  0  0  0  0  0  0  0  0  0
  -22.8962  -23.4643   22.9807 C   0  0  0  0  0  0  0  0  0  0  0  0
  -20.4690   -5.7630   24.8451 C   0  0  0  0  0  0  0  0  0  0  0  0
  -23.8297  -10.4611   20.9390 C   0  0  0  0  0  0  0  0  0  0  0  0
  -24.1773  -12.9883   20.9393 C   0  0  0  0  0  0  0  0  0  0  0  0
  -15.9880  -22.6001   27.7268 C   0  0  0  0  0  0  0  0  0  0  0  0
  -21.9041  -24.0997   25.0954 C   0  0  0  0  0  0  0  0  0  0  0  0
  -16.9485  -22.4825   26.7040 C   0  0  0  0  0  0  0  0  0  0  0  0
  -22.0788  -24.3300   23.7233 C   0  0  0  0  0  0  0  0  0  0  0  0
  -22.3503   -8.1351   21.3678 C   0  0  0  0  0  0  0  0  0  0  0  0
  -23.5410  -22.3920   23.5967 C   0  0  0  0  0  0  0  0  0  0  0  0
  -20.9165   -6.8999   22.7609 C   0  0  0  0  0  0  0  0  0  0  0  0
  -19.4814   -6.7013   25.1449 C   0  0  0  0  0  0  0  0  0  0  0  0
  -21.1865   -5.8623   23.6531 C   0  0  0  0  0  0  0  0  0  0  0  0
  -24.5944  -11.6621   20.7180 C   0  0  0  0  0  0  0  0  0  0  0  0
  -27.2403  -19.7510   20.3134 C   0  0  0  0  0  0  0  0  0  0  0  0
  -25.3362  -20.8065   20.8380 C   0  0  0  0  0  0  0  0  0  0  0  0
  -25.2596  -13.7533   20.5791 C   0  0  0  0  0  0  0  0  0  0  0  0
  -22.9235  -13.4843   21.4270 C   0  0  0  0  0  0  0  0  0  0  0  0
  -18.8596  -24.9153   24.6837 C   0  0  0  0  0  0  0  0  0  0  0  0
  -20.1563  -27.6261   23.4622 C   0  0  0  0  0  0  0  0  0  0  0  0
  -22.8356  -29.1522   21.9994 C   0  0  0  0  0  0  0  0  0  0  0  0
  -30.7506  -14.7491   20.6361 C   0  0  0  0  0  0  0  0  0  0  0  0
  -14.9360  -23.6806   27.7067 C   0  0  0  0  0  0  0  0  0  0  0  0
  -21.0535  -25.0256   25.9209 C   0  0  0  0  0  0  0  0  0  0  0  0
  -21.4053  -25.4791   23.0200 C   0  0  0  0  0  0  0  0  0  0  0  0
  -15.2713  -24.8399   26.7719 C   0  0  0  0  0  0  0  0  0  0  0  0
  -29.5245  -12.4950   18.1679 C   0  0  0  0  0  0  0  0  0  0  0  0
  -15.7486  -24.3156   25.4212 C   0  0  0  0  0  0  0  0  0  0  0  0
  -28.1011  -12.1822   18.6329 C   0  0  0  0  0  0  0  0  0  0  0  0
  -30.4821  -12.6508   19.3472 C   0  0  0  0  0  0  0  0  0  0  0  0
  -28.6306  -13.3127   20.8331 C   0  0  0  0  0  0  0  0  0  0  0  0
  -17.0284  -23.4846   25.5729 C   0  0  1  0  0  0  0  0  0  0  0  0
  -20.0170  -25.7808   25.0946 C   0  0  1  0  0  0  0  0  0  0  0  0
  -27.6170  -13.2019   19.6813 C   0  0  2  0  0  0  0  0  0  0  0  0
  -23.5836  -31.3650   21.0822 C   0  0  0  0  0  0  0  0  0  0  0  0
  -28.9127  -23.8518   21.7876 C   0  0  0  0  0  0  0  0  0  0  0  0
  -27.0883  -23.5975   20.0926 C   0  0  0  0  0  0  0  0  0  0  0  0
  -18.4691  -27.1581   20.9633 C   0  0  0  0  0  0  0  0  0  0  0  0
  -19.9276  -28.7965   19.7564 C   0  0  0  0  0  0  0  0  0  0  0  0
  -18.5775  -29.5400   21.7178 C   0  0  0  0  0  0  0  0  0  0  0  0
  -25.0432  -29.3498   23.9605 C   0  0  0  0  0  0  0  0  0  0  0  0
  -28.6933  -19.4838   20.2969 C   0  0  0  0  0  0  0  0  0  0  0  0
  -24.4537  -21.8420   21.4706 C   0  0  0  0  0  0  0  0  0  1  0  0
  -27.4461  -21.7711   21.7762 C   0  0  0  0  0  0  0  0  0  0  0  0
  -30.8662  -16.8321   21.9805 C   0  0  0  0  0  0  0  0  0  0  0  0
  -30.5567  -18.0242   21.0943 C   0  0  0  0  0  0  0  0  0  0  0  0
  -20.6032  -28.0740   22.0915 C   0  0  1  0  0  0  0  0  0  0  0  0
  -23.5395  -30.4620   22.3050 C   0  0  2  0  0  0  0  0  0  0  0  0
  -28.1339  -22.8547   20.9268 C   0  0  0  0  0  0  0  0  0  0  0  0
  -19.4056  -28.3693   21.1448 C   0  0  0  0  0  0  0  0  0  0  0  0
  -25.8442  -11.5855   20.2531 N   0  0  0  0  0  0  0  0  0  0  0  0
  -26.6971  -20.8057   20.9996 N   0  0  0  0  0  0  0  0  0  0  0  0
  -26.2217  -12.8731   20.1792 N   0  0  0  0  0  0  0  0  0  0  0  0
  -20.5788  -26.3527   23.8692 N   0  0  0  0  0  0  0  0  0  0  0  0
  -29.9655  -13.6329   20.3035 N   0  0  0  0  0  0  0  0  0  0  0  0
  -25.4727  -15.0863   20.5686 N   0  0  0  0  0  0  0  0  0  0  0  0
  -21.9199  -12.5610   21.7502 N   0  0  0  0  0  0  0  0  0  0  0  0
  -18.1757  -24.3501   25.7431 N   0  0  0  0  0  0  0  0  0  0  0  0
  -21.4919  -29.2114   22.3033 N   0  0  0  0  0  0  0  0  0  0  0  0
  -30.1835  -15.6341   21.5451 N   0  0  0  0  0  0  0  0  0  0  0  0
  -24.9382  -30.2064   22.7513 N   0  3  0  0  0  0  0  0  0  0  0  0
  -29.1060  -18.3304   21.1532 N   0  3  0  0  0  0  0  0  0  0  0  0
  -22.6942  -14.7108   21.5562 O   0  0  0  0  0  0  0  0  0  0  0  0
  -18.6049  -24.7721   23.4936 O   0  0  0  0  0  0  0  0  0  0  0  0
  -19.4641  -28.3813   24.1493 O   0  0  0  0  0  0  0  0  0  0  0  0
  -23.4185  -28.1755   21.5338 O   0  0  0  0  0  0  0  0  0  0  0  0
  -31.8714  -14.9456   20.1544 O   0  0  0  0  0  0  0  0  0  0  0  0
  -21.6285   -7.0004   21.5774 O   0  0  0  0  0  0  0  0  0  0  0  0
  -24.3321  -21.5614   22.8644 O   0  0  0  0  0  0  0  0  0  1  0  0
  -18.7933   -6.6069   26.2902 F   0  0  0  0  0  0  0  0  0  0  0  0
  -22.1349   -4.9585   23.3711 F   0  0  0  0  0  0  0  0  0  0  0  0
  1  2  1  0  0  0  0
  1  5  2  0  0  0  0
  2  6  2  0  0  0  0
  3  8  2  0  0  0  0
  3 17  1  0  0  0  0
  4  9  1  0  0  0  0
  4 17  2  0  0  0  0
  5 19  1  0  0  0  0
  6 21  1  0  0  0  0
  7 10  2  0  0  0  0
  7 20  1  0  0  0  0
  8 23  1  0  0  0  0
  9 23  2  0  0  0  0
 10 24  1  0  0  0  0
 11 12  2  0  0  0  0
 11 25  1  0  0  0  0
 12 26  1  0  0  0  0
 13 14  1  0  0  0  0
 13 29  2  0  0  0  0
 14 30  2  0  0  0  0
 15 22  1  0  0  0  0
 15 24  2  0  0  0  0
 16 26  2  0  0  0  0
 16 27  1  0  0  0  0
 17 28  1  0  0  0  0
 18 28  1  0  0  0  0
 18 31  2  0  0  0  0
 18 32  1  0  0  0  0
 19 21  2  0  0  0  0
 19 37  1  0  0  0  0
 20 22  2  0  0  0  0
 20 38  1  0  0  0  0
 21 46  1  0  0  0  0
 22 39  1  0  0  0  0
 23 82  1  0  0  0  0
 24 83  1  0  0  0  0
 25 27  2  0  0  0  0
 25 82  1  0  0  0  0
 26 84  1  0  0  0  0
 27 85  1  0  0  0  0
 28 65  2  0  0  0  0
 29 56  1  0  0  0  0
 29 66  1  0  0  0  0
 30 57  1  0  0  0  0
 30 66  1  0  0  0  0
 31 67  1  0  0  0  0
 31 70  1  0  0  0  0
 32 71  1  0  0  0  0
 32 77  2  0  0  0  0
 33 47  1  0  0  0  0
 33 72  1  0  0  0  0
 33 78  2  0  0  0  0
 34 61  1  0  0  0  0
 34 68  1  0  0  0  0
 34 79  2  0  0  0  0
 35 62  1  0  0  0  0
 35 73  1  0  0  0  0
 35 80  2  0  0  0  0
 36 69  1  0  0  0  0
 36 74  1  0  0  0  0
 36 81  2  0  0  0  0
 37 40  1  0  0  0  0
 38 47  1  0  0  0  0
 39 68  1  0  0  0  0
 40 42  1  0  0  0  0
 41 43  1  0  0  0  0
 41 44  1  0  0  0  0
 42 46  1  0  0  0  0
 43 48  1  0  0  0  0
 44 69  1  0  0  0  0
 45 48  1  0  0  0  0
 45 69  1  0  0  0  0
 46 72  1  0  0  0  0
 47 68  1  0  0  0  0
 48 67  1  0  0  0  0
 49 62  1  0  0  0  0
 50 63  1  0  0  0  0
 51 63  1  0  0  0  0
 52 64  1  0  0  0  0
 53 64  1  0  0  0  0
 54 64  1  0  0  0  0
 55 75  1  0  0  0  0
 56 76  1  0  0  0  0
 57 83  1  0  0  0  0
 58 63  1  0  0  0  0
 58 66  1  0  0  0  0
 59 60  1  0  0  0  0
 59 74  1  0  0  0  0
 60 76  1  0  0  0  0
 61 64  1  0  0  0  0
 61 73  1  0  0  0  0
 62 75  1  0  0  0  0
 65 67  1  0  0  0  0
M  CHG  2  75   1  76   1
M  ISO  4  36 100  57 101  74 100  83 101
M  END
> <Batch ID>
0129

> <Smiles>
CNC(C)C(=O)NC(C(=O)N1Cc2cc([101O:1][101CH2:1]c3ccc(CNCC[100NH:0][100C:0](=O)N4CCCC(n5nc(-c6ccc(Oc7ccc(F)cc7F)cc6)c(C(N)=O)c5N)C4)n3CC(C)C)ccc2CC1C(=O)NC1CCCc2ccccc21)C(C)(C)C

> <Shape>
0.287

> <Color>
0.210

> <Negative vol penalty>
0.000

$$$$

  -OEChem-04052320453D

 87 96  0     1  0  0  0  0  0999 V2000
  -31.2886  -23.4324   40.0853 C   0  0  0  0  0  0  0  0  0  0  0  0
  -31.2255  -23.3156   38.7004 C   0  0  0  0  0  0  0  0  0  0  0  0
  -23.0740   -9.8685   19.9416 C   0  0  0  0  0  0  0  0  0  0  0  0
  -23.8382   -9.8743   22.2335 C   0  0  0  0  0  0  0  0  0  0  0  0
  -31.3177  -22.2869   40.8797 C   0  0  0  0  0  0  0  0  0  0  0  0
  -31.1926  -22.0533   38.1091 C   0  0  0  0  0  0  0  0  0  0  0  0
  -31.5504  -19.0509   26.1870 C   0  0  0  0  0  0  0  0  0  0  0  0
  -29.2768  -19.2994   25.4086 C   0  0  0  0  0  0  0  0  0  0  0  0
  -28.1800  -20.4471   33.0248 C   0  0  0  0  0  0  0  0  0  0  0  0
  -31.1470  -19.3984   27.4762 C   0  0  0  0  0  0  0  0  0  0  0  0
  -28.8734  -19.6468   26.6978 C   0  0  0  0  0  0  0  0  0  0  0  0
  -22.3314   -8.7147   20.1921 C   0  0  0  0  0  0  0  0  0  0  0  0
  -23.0955   -8.7205   22.4840 C   0  0  0  0  0  0  0  0  0  0  0  0
  -28.5883  -20.2981   31.7001 C   0  0  0  0  0  0  0  0  0  0  0  0
  -19.8691   -7.9199   23.0920 C   0  0  0  0  0  0  0  0  0  0  0  0
  -19.1143   -7.8786   24.2643 C   0  0  0  0  0  0  0  0  0  0  0  0
  -28.8740  -17.9301   32.0607 C   0  0  0  0  0  0  0  0  0  0  0  0
  -20.3585   -5.9415   24.9970 C   0  0  0  0  0  0  0  0  0  0  0  0
  -23.8274  -10.4483   20.9623 C   0  0  0  0  0  0  0  0  0  0  0  0
  -24.1673  -12.9738   20.8435 C   0  0  0  0  0  0  0  0  0  0  0  0
  -30.6153  -19.0015   25.1531 C   0  0  0  0  0  0  0  0  0  0  0  0
  -31.2754  -21.0099   40.2982 C   0  0  0  0  0  0  0  0  0  0  0  0
  -28.1260  -19.3385   33.8819 C   0  0  0  0  0  0  0  0  0  0  0  0
  -31.2225  -20.8896   38.8963 C   0  0  0  0  0  0  0  0  0  0  0  0
  -28.4622  -18.0672   33.3951 C   0  0  0  0  0  0  0  0  0  0  0  0
  -29.8085  -19.6963   27.7317 C   0  0  0  0  0  0  0  0  0  0  0  0
  -22.3421   -8.1406   21.4633 C   0  0  0  0  0  0  0  0  0  0  0  0
  -28.9381  -19.0400   31.2186 C   0  0  0  0  0  0  0  0  0  0  0  0
  -20.8685   -6.9720   22.8721 C   0  0  0  0  0  0  0  0  0  0  0  0
  -19.3591   -6.8894   25.2168 C   0  0  0  0  0  0  0  0  0  0  0  0
  -21.1132   -5.9828   23.8246 C   0  0  0  0  0  0  0  0  0  0  0  0
  -24.5952  -11.6399   20.7040 C   0  0  0  0  0  0  0  0  0  0  0  0
  -25.2582  -13.7243   20.4788 C   0  0  0  0  0  0  0  0  0  0  0  0
  -22.8972  -13.4884   21.2652 C   0  0  0  0  0  0  0  0  0  0  0  0
  -31.5979  -20.9730   23.0660 C   0  0  0  0  0  0  0  0  0  0  0  0
  -29.5881  -18.5176   36.5823 C   0  0  0  0  0  0  0  0  0  0  0  0
  -27.5204  -16.0200   36.4855 C   0  0  0  0  0  0  0  0  0  0  0  0
  -25.5212  -13.9849   34.6126 C   0  0  0  0  0  0  0  0  0  0  0  0
  -30.7416  -14.7471   20.6576 C   0  0  0  0  0  0  0  0  0  0  0  0
  -31.3568  -19.8005   41.1956 C   0  0  0  0  0  0  0  0  0  0  0  0
  -27.6578  -19.5116   35.3008 C   0  0  0  0  0  0  0  0  0  0  0  0
  -28.4018  -16.8420   34.2689 C   0  0  0  0  0  0  0  0  0  0  0  0
  -30.9404  -18.5028   40.5082 C   0  0  0  0  0  0  0  0  0  0  0  0
  -29.6012  -12.3636   18.2712 C   0  0  0  0  0  0  0  0  0  0  0  0
  -31.5984  -18.3903   39.1366 C   0  0  0  0  0  0  0  0  0  0  0  0
  -31.2096  -19.3134   21.3023 C   0  0  0  0  0  0  0  0  0  0  0  0
  -28.1648  -12.0685   18.7066 C   0  0  0  0  0  0  0  0  0  0  0  0
  -30.5295  -18.0118   20.8879 C   0  0  0  0  0  0  0  0  0  0  0  0
  -30.3801  -17.3068   23.3071 C   0  0  0  0  0  0  0  0  0  0  0  0
  -30.5204  -12.5841   19.4706 C   0  0  0  0  0  0  0  0  0  0  0  0
  -28.6208  -13.3128   20.8613 C   0  0  0  0  0  0  0  0  0  0  0  0
  -31.0547  -18.6224   23.7459 C   0  0  1  0  0  0  0  0  0  0  0  0
  -31.1602  -19.5379   38.2187 C   0  0  1  0  0  0  0  0  0  0  0  0
  -30.8052  -19.7465   22.7158 C   0  0  1  0  0  0  0  0  0  0  0  0
  -28.1331  -18.3964   36.2270 C   0  0  1  0  0  0  0  0  0  0  0  0
  -27.6445  -13.1384   19.6853 C   0  0  2  0  0  0  0  0  0  0  0  0
  -30.8083  -16.8968   21.8960 C   0  0  1  0  0  0  0  0  0  0  0  0
  -31.0116  -22.2972   22.6572 C   0  0  0  0  0  0  0  0  0  0  0  0
  -23.9853  -12.0100   34.8086 C   0  0  0  0  0  0  0  0  0  0  0  0
  -29.9339  -14.1733   36.7592 C   0  0  0  0  0  0  0  0  0  0  0  0
  -28.4821  -12.2787   36.0038 C   0  0  0  0  0  0  0  0  0  0  0  0
  -27.9433  -13.4962   38.1133 C   0  0  0  0  0  0  0  0  0  0  0  0
  -23.2097  -15.5358   33.6073 C   0  0  0  0  0  0  0  0  0  0  0  0
  -29.3751  -20.0682   29.1191 C   0  0  0  0  0  0  0  0  0  1  0  0
  -27.5465  -14.6330   35.8902 C   0  0  1  0  0  0  0  0  0  0  0  0
  -24.0866  -13.5274   34.8056 C   0  0  2  0  0  0  0  0  0  0  0  0
  -28.4796  -13.6685   36.6754 C   0  0  0  0  0  0  0  0  0  0  0  0
  -25.8593  -11.5453   20.2833 N   0  0  0  0  0  0  0  0  0  0  0  0
  -26.2351  -12.8292   20.1552 N   0  0  0  0  0  0  0  0  0  0  0  0
  -27.9439  -17.0637   35.6505 N   0  0  0  0  0  0  0  0  0  0  0  0
  -29.9708  -13.6116   20.3583 N   0  0  0  0  0  0  0  0  0  0  0  0
  -25.4676  -15.0560   20.4064 N   0  0  0  0  0  0  0  0  0  0  0  0
  -21.8866  -12.5783   21.6037 N   0  0  0  0  0  0  0  0  0  0  0  0
  -29.8315  -19.2917   37.7007 N   0  0  0  0  0  0  0  0  0  0  0  0
  -26.1572  -14.1935   35.8180 N   0  0  0  0  0  0  0  0  0  0  0  0
  -30.1434  -15.6749   21.5015 N   0  0  0  0  0  0  0  0  0  0  0  0
  -23.2233  -14.0539   33.7109 N   0  3  0  0  0  0  0  0  0  0  0  0
  -22.6602  -14.7188   21.3239 O   0  0  0  0  0  0  0  0  0  0  0  0
  -32.6727  -20.8989   23.6595 O   0  0  0  0  0  0  0  0  0  0  0  0
  -30.4275  -17.9496   35.8935 O   0  0  0  0  0  0  0  0  0  0  0  0
  -27.1316  -16.1727   37.6462 O   0  0  0  0  0  0  0  0  0  0  0  0
  -26.0280  -14.1379   33.5034 O   0  0  0  0  0  0  0  0  0  0  0  0
  -31.8766  -14.9237   20.2020 O   0  0  0  0  0  0  0  0  0  0  0  0
  -21.6174   -7.0149   21.7081 O   0  0  0  0  0  0  0  0  0  0  0  0
  -29.3376  -18.8920   29.9262 O   0  0  0  0  0  0  0  0  0  1  0  0
  -18.6352   -6.8508   26.3432 F   0  0  0  0  0  0  0  0  0  0  0  0
  -22.0728   -5.0701   23.6195 F   0  0  0  0  0  0  0  0  0  0  0  0
  1  2  1  0  0  0  0
  1  5  2  0  0  0  0
  2  6  2  0  0  0  0
  3 12  2  0  0  0  0
  3 19  1  0  0  0  0
  4 13  1  0  0  0  0
  4 19  2  0  0  0  0
  5 22  1  0  0  0  0
  6 24  1  0  0  0  0
  7 10  2  0  0  0  0
  7 21  1  0  0  0  0
  8 11  1  0  0  0  0
  8 21  2  0  0  0  0
  9 14  2  0  0  0  0
  9 23  1  0  0  0  0
 10 26  1  0  0  0  0
 11 26  2  0  0  0  0
 12 27  1  0  0  0  0
 13 27  2  0  0  0  0
 14 28  1  0  0  0  0
 15 16  2  0  0  0  0
 15 29  1  0  0  0  0
 16 30  1  0  0  0  0
 17 25  1  0  0  0  0
 17 28  2  0  0  0  0
 18 30  2  0  0  0  0
 18 31  1  0  0  0  0
 19 32  1  0  0  0  0
 20 32  1  0  0  0  0
 20 33  2  0  0  0  0
 20 34  1  0  0  0  0
 21 52  1  0  0  0  0
 22 24  2  0  0  0  0
 22 40  1  0  0  0  0
 23 25  2  0  0  0  0
 23 41  1  0  0  0  0
 24 53  1  0  0  0  0
 25 42  1  0  0  0  0
 26 64  1  0  0  0  0
 27 84  1  0  0  0  0
 28 85  1  0  0  0  0
 29 31  2  0  0  0  0
 29 84  1  0  0  0  0
 30 86  1  0  0  0  0
 31 87  1  0  0  0  0
 32 68  2  0  0  0  0
 33 69  1  0  0  0  0
 33 72  1  0  0  0  0
 34 73  1  0  0  0  0
 34 78  2  0  0  0  0
 35 54  1  0  0  0  0
 35 58  1  0  0  0  0
 35 79  2  0  0  0  0
 36 55  1  0  0  0  0
 36 74  1  0  0  0  0
 36 80  2  0  0  0  0
 37 65  1  0  0  0  0
 37 70  1  0  0  0  0
 37 81  2  0  0  0  0
 38 66  1  0  0  0  0
 38 75  1  0  0  0  0
 38 82  2  0  0  0  0
 39 71  1  0  0  0  0
 39 76  1  0  0  0  0
 39 83  2  0  0  0  0
 40 43  1  0  0  0  0
 41 55  1  0  0  0  0
 42 70  1  0  0  0  0
 43 45  1  0  0  0  0
 44 47  1  0  0  0  0
 44 50  1  0  0  0  0
 45 53  1  0  0  0  0
 46 48  1  0  0  0  0
 46 54  1  0  0  0  0
 47 56  1  0  0  0  0
 48 57  1  0  0  0  0
 49 52  1  0  0  0  0
 49 57  1  0  0  0  0
 50 71  1  0  0  0  0
 51 56  1  0  0  0  0
 51 71  1  0  0  0  0
 52 54  1  0  0  0  0
 53 74  1  0  0  0  0
 55 70  1  0  0  0  0
 56 69  1  0  0  0  0
 57 76  1  0  0  0  0
 59 66  1  0  0  0  0
 60 67  1  0  0  0  0
 61 67  1  0  0  0  0
 62 67  1  0  0  0  0
 63 77  1  0  0  0  0
 64 85  1  0  0  0  0
 65 67  1  0  0  0  0
 65 75  1  0  0  0  0
 66 77  1  0  0  0  0
 68 69  1  0  0  0  0
M  CHG  1  77   1
M  ISO  4  39 100  64 101  76 100  85 101
M  END
> <Batch ID>
0129

> <Smiles>
CNC(C)C(=O)NC(C(=O)N1Cc2cc([101O:1][101CH2:1]c3ccc(C4CC([100NH:0][100C:0](=O)N5CCCC(n6nc(-c7ccc(Oc8ccc(F)cc8F)cc7)c(C(N)=O)c6N)C5)CCC4C(C)=O)cc3)ccc2CC1C(=O)NC1CCCc2ccccc21)C(C)(C)C

> <Shape>
0.169

> <Color>
0.191

> <Negative vol penalty>
0.000

$$$$

  -OEChem-04052320453D

 86 95  0     1  0  0  0  0  0999 V2000
  -17.2366  -26.3411   28.7767 C   0  0  0  0  0  0  0  0  0  0  0  0
  -17.8664  -25.2869   28.1228 C   0  0  0  0  0  0  0  0  0  0  0  0
  -23.9604  -10.0985   22.7911 C   0  0  0  0  0  0  0  0  0  0  0  0
  -24.3100  -11.9935   24.2485 C   0  0  0  0  0  0  0  0  0  0  0  0
  -17.1481  -27.5888   28.1608 C   0  0  0  0  0  0  0  0  0  0  0  0
  -18.4071  -25.4796   26.8520 C   0  0  0  0  0  0  0  0  0  0  0  0
  -23.4579  -22.8771   24.5668 C   0  0  0  0  0  0  0  0  0  0  0  0
  -23.4762   -9.3584   23.8696 C   0  0  0  0  0  0  0  0  0  0  0  0
  -23.8257  -11.2533   25.3271 C   0  0  0  0  0  0  0  0  0  0  0  0
  -23.6506  -21.7798   23.7286 C   0  0  0  0  0  0  0  0  0  0  0  0
  -20.8198  -10.3032   26.5446 C   0  0  0  0  0  0  0  0  0  0  0  0
  -19.9113  -10.9261   27.4003 C   0  0  0  0  0  0  0  0  0  0  0  0
  -23.7735  -23.2607   21.8283 C   0  0  0  0  0  0  0  0  0  0  0  0
  -25.5176  -19.4070   20.4697 C   0  0  0  0  0  0  0  0  0  0  0  0
  -21.4330  -10.6053   29.2493 C   0  0  0  0  0  0  0  0  0  0  0  0
  -27.5436  -20.7868   21.6682 C   0  0  0  0  0  0  0  0  0  0  0  0
  -24.3774  -11.4161   22.9805 C   0  0  0  0  0  0  0  0  0  0  0  0
  -24.1341  -12.9930   20.9900 C   0  0  0  0  0  0  0  0  0  0  0  0
  -17.6965  -27.7994   26.8858 C   0  0  0  0  0  0  0  0  0  0  0  0
  -23.4106  -24.1758   24.0398 C   0  0  0  0  0  0  0  0  0  0  0  0
  -18.3247  -26.7309   26.2179 C   0  0  0  0  0  0  0  0  0  0  0  0
  -23.5827  -24.3730   22.6623 C   0  0  0  0  0  0  0  0  0  0  0  0
  -26.8335  -19.0169   20.2470 C   0  0  0  0  0  0  0  0  0  0  0  0
  -27.8718  -19.7152   20.8535 C   0  0  0  0  0  0  0  0  0  0  0  0
  -23.4088   -9.9357   25.1376 C   0  0  0  0  0  0  0  0  0  0  0  0
  -23.8055  -21.9713   22.3588 C   0  0  0  0  0  0  0  0  0  0  0  0
  -22.0349   -9.8313   27.0412 C   0  0  0  0  0  0  0  0  0  0  0  0
  -20.2179  -11.0772   28.7526 C   0  0  0  0  0  0  0  0  0  0  0  0
  -22.3415   -9.9824   28.3935 C   0  0  0  0  0  0  0  0  0  0  0  0
  -24.8782  -12.1811   21.8669 C   0  0  0  0  0  0  0  0  0  0  0  0
  -25.2948  -20.4930   21.3008 C   0  0  0  0  0  0  0  0  0  1  0  0
  -25.0651  -13.4958   20.1143 C   0  0  0  0  0  0  0  0  0  0  0  0
  -22.7271  -13.2681   20.9690 C   0  0  0  0  0  0  0  0  0  0  0  0
  -21.2189  -26.4756   23.9351 C   0  0  0  0  0  0  0  0  0  0  0  0
  -23.6498  -28.1971   22.6508 C   0  0  0  0  0  0  0  0  0  0  0  0
  -26.6208  -28.2082   20.9715 C   0  0  0  0  0  0  0  0  0  0  0  0
  -30.9622  -14.4445   20.5334 C   0  0  0  0  0  0  0  0  0  0  0  0
  -17.5346  -29.1530   26.2406 C   0  0  0  0  0  0  0  0  0  0  0  0
  -23.2287  -25.3510   24.9607 C   0  0  0  0  0  0  0  0  0  0  0  0
  -23.5601  -25.7485   22.0492 C   0  0  0  0  0  0  0  0  0  0  0  0
  -18.4631  -29.3748   25.0493 C   0  0  0  0  0  0  0  0  0  0  0  0
  -29.2828  -12.4385   18.1184 C   0  0  0  0  0  0  0  0  0  0  0  0
  -18.4437  -28.1621   24.1242 C   0  0  0  0  0  0  0  0  0  0  0  0
  -27.8964  -12.2183   18.7261 C   0  0  0  0  0  0  0  0  0  0  0  0
  -27.0357  -17.2672   16.7966 C   0  0  0  0  0  0  0  0  0  0  0  0
  -30.3726  -12.4498   19.1881 C   0  0  0  0  0  0  0  0  0  0  0  0
  -28.7584  -13.1781   20.9020 C   0  0  0  0  0  0  0  0  0  0  0  0
  -18.9453  -26.9073   24.8490 C   0  0  1  0  0  0  0  0  0  0  0  0
  -22.6835  -26.5869   24.2517 C   0  0  1  0  0  0  0  0  0  0  0  0
  -27.2833  -18.2627   17.8985 C   0  0  1  0  0  0  0  0  0  0  0  0
  -27.6200  -13.2147   19.8680 C   0  0  2  0  0  0  0  0  0  0  0  0
  -26.0803  -18.4108   17.0056 C   0  0  1  0  0  0  0  0  0  0  0  0
  -28.3468  -29.7689   20.0322 C   0  0  0  0  0  0  0  0  0  0  0  0
  -21.7951  -28.8381   20.3143 C   0  0  0  0  0  0  0  0  0  0  0  0
  -23.8050  -29.5602   19.0076 C   0  0  0  0  0  0  0  0  0  0  0  0
  -23.1833  -30.7631   21.1027 C   0  0  0  0  0  0  0  0  0  0  0  0
  -28.7389  -27.1028   22.7181 C   0  0  0  0  0  0  0  0  0  0  0  0
  -27.1082  -17.8503   19.3573 C   0  0  0  0  0  0  0  0  0  0  0  0
  -29.2987  -19.3399   20.6502 C   0  0  0  0  0  0  0  0  0  0  0  0
  -31.4050  -16.4334   21.9502 C   0  0  0  0  0  0  0  0  0  0  0  0
  -31.1070  -17.6941   21.1601 C   0  0  0  0  0  0  0  0  0  0  0  0
  -24.1668  -28.4388   21.2532 C   0  0  1  0  0  0  0  0  0  0  0  0
  -27.9242  -28.9403   21.2353 C   0  0  2  0  0  0  0  0  0  0  0  0
  -23.2361  -29.3738   20.4304 C   0  0  0  0  0  0  0  0  0  0  0  0
  -26.2774  -21.1953   21.9082 N   0  0  0  0  0  0  0  0  0  0  0  0
  -26.1815  -12.1659   21.5748 N   0  0  0  0  0  0  0  0  0  0  0  0
  -26.2635  -12.9745   20.5045 N   0  0  0  0  0  0  0  0  0  0  0  0
  -23.3731  -26.8652   22.9903 N   0  0  0  0  0  0  0  0  0  0  0  0
  -30.0509  -13.4165   20.2406 N   0  0  0  0  0  0  0  0  0  0  0  0
  -24.9673  -14.3285   19.0563 N   0  0  0  0  0  0  0  0  0  0  0  0
  -21.9146  -12.6692   21.9414 N   0  0  0  0  0  0  0  0  0  0  0  0
  -20.3892  -26.9227   24.9456 N   0  0  0  0  0  0  0  0  0  0  0  0
  -25.5308  -28.9344   21.4026 N   0  0  0  0  0  0  0  0  0  0  0  0
  -30.5768  -15.3214   21.5401 N   0  0  0  0  0  0  0  0  0  0  0  0
  -26.0957  -19.4987   16.0205 N   0  3  0  0  0  0  0  0  0  0  0  0
  -29.0114  -27.9682   21.5418 N   0  3  0  0  0  0  0  0  0  0  0  0
  -29.7019  -18.1151   21.3966 N   0  3  0  0  0  0  0  0  0  0  0  0
  -22.2035  -14.0097   20.1033 O   0  0  0  0  0  0  0  0  0  0  0  0
  -20.8676  -26.0192   22.8534 O   0  0  0  0  0  0  0  0  0  0  0  0
  -23.5038  -29.1539   23.4155 O   0  0  0  0  0  0  0  0  0  0  0  0
  -26.5740  -27.1043   20.4333 O   0  0  0  0  0  0  0  0  0  0  0  0
  -32.0371  -14.5747   19.9379 O   0  0  0  0  0  0  0  0  0  0  0  0
  -22.9361   -9.2138   26.1902 O   0  0  0  0  0  0  0  0  0  0  0  0
  -23.9931  -20.9019   21.5383 O   0  0  0  0  0  0  0  0  0  1  0  0
  -19.3461  -11.6767   29.5739 F   0  0  0  0  0  0  0  0  0  0  0  0
  -23.5077   -9.5321   28.8762 F   0  0  0  0  0  0  0  0  0  0  0  0
  1  2  1  0  0  0  0
  1  5  2  0  0  0  0
  2  6  2  0  0  0  0
  3  8  2  0  0  0  0
  3 17  1  0  0  0  0
  4  9  1  0  0  0  0
  4 17  2  0  0  0  0
  5 19  1  0  0  0  0
  6 21  1  0  0  0  0
  7 10  2  0  0  0  0
  7 20  1  0  0  0  0
  8 25  1  0  0  0  0
  9 25  2  0  0  0  0
 10 26  1  0  0  0  0
 11 12  2  0  0  0  0
 11 27  1  0  0  0  0
 12 28  1  0  0  0  0
 13 22  1  0  0  0  0
 13 26  2  0  0  0  0
 14 23  2  0  0  0  0
 14 31  1  0  0  0  0
 15 28  2  0  0  0  0
 15 29  1  0  0  0  0
 16 24  2  0  0  0  0
 16 65  1  0  0  0  0
 17 30  1  0  0  0  0
 18 30  1  0  0  0  0
 18 32  2  0  0  0  0
 18 33  1  0  0  0  0
 19 21  2  0  0  0  0
 19 38  1  0  0  0  0
 20 22  2  0  0  0  0
 20 39  1  0  0  0  0
 21 48  1  0  0  0  0
 22 40  1  0  0  0  0
 23 24  1  0  0  0  0
 23 58  1  0  0  0  0
 24 59  1  0  0  0  0
 25 83  1  0  0  0  0
 26 84  1  0  0  0  0
 27 29  2  0  0  0  0
 27 83  1  0  0  0  0
 28 85  1  0  0  0  0
 29 86  1  0  0  0  0
 30 66  2  0  0  0  0
 31 65  2  0  0  0  0
 31 84  1  0  0  0  0
 32 67  1  0  0  0  0
 32 70  1  0  0  0  0
 33 71  1  0  0  0  0
 33 78  2  0  0  0  0
 34 49  1  0  0  0  0
 34 72  1  0  0  0  0
 34 79  2  0  0  0  0
 35 62  1  0  0  0  0
 35 68  1  0  0  0  0
 35 80  2  0  0  0  0
 36 63  1  0  0  0  0
 36 73  1  0  0  0  0
 36 81  2  0  0  0  0
 37 69  1  0  0  0  0
 37 74  1  0  0  0  0
 37 82  2  0  0  0  0
 38 41  1  0  0  0  0
 39 49  1  0  0  0  0
 40 68  1  0  0  0  0
 41 43  1  0  0  0  0
 42 44  1  0  0  0  0
 42 46  1  0  0  0  0
 43 48  1  0  0  0  0
 44 51  1  0  0  0  0
 45 50  1  0  0  0  0
 45 52  1  0  0  0  0
 46 69  1  0  0  0  0
 47 51  1  0  0  0  0
 47 69  1  0  0  0  0
 48 72  1  0  0  0  0
 49 68  1  0  0  0  0
 50 52  1  0  0  0  0
 50 58  1  0  0  0  0
 51 67  1  0  0  0  0
 52 75  1  0  0  0  0
 53 63  1  0  0  0  0
 54 64  1  0  0  0  0
 55 64  1  0  0  0  0
 56 64  1  0  0  0  0
 57 76  1  0  0  0  0
 59 77  1  0  0  0  0
 60 61  1  0  0  0  0
 60 74  1  0  0  0  0
 61 77  1  0  0  0  0
 62 64  1  0  0  0  0
 62 73  1  0  0  0  0
 63 76  1  0  0  0  0
 66 67  1  0  0  0  0
M  CHG  3  75   1  76   1  77   1
M  ISO  4  31 101  37 100  74 100  84 101
M  END
> <Batch ID>
0129

> <Smiles>
CNC(C)C(=O)NC(C(=O)N1Cc2cc([101O:1][101c:1]3cc(CC4CC4N)c(CNCC[100NH:0][100C:0](=O)N4CCCC(n5nc(-c6ccc(Oc7ccc(F)cc7F)cc6)c(C(N)=O)c5N)C4)cn3)ccc2CC1C(=O)NC1CCCc2ccccc21)C(C)(C)C

> <Shape>
0.214

> <Color>
0.104

> <Negative vol penalty>
0.000

$$$$

  -OEChem-04052320453D

 87 95  0     1  0  0  0  0  0999 V2000
  -32.2534  -15.0678   21.1641 C   0  0  0  0  0  0  0  0  0  0  0  0
  -31.3134  -16.0554   21.4407 C   0  0  0  0  0  0  0  0  0  0  0  0
  -27.2156  -23.8879   19.5174 C   0  0  0  0  0  0  0  0  0  0  0  0
  -26.0324  -23.2474   21.5241 C   0  0  0  0  0  0  0  0  0  0  0  0
  -31.8740  -13.9217   20.4666 C   0  0  0  0  0  0  0  0  0  0  0  0
  -29.9936  -15.8979   21.0189 C   0  0  0  0  0  0  0  0  0  0  0  0
  -24.9484  -17.7932   23.9274 C   0  0  0  0  0  0  0  0  0  0  0  0
  -18.8066  -23.7964   22.9595 C   0  0  0  0  0  0  0  0  0  0  0  0
  -20.8225  -24.3149   21.7331 C   0  0  0  0  0  0  0  0  0  0  0  0
  -28.1553  -22.8838   19.7509 C   0  0  0  0  0  0  0  0  0  0  0  0
  -26.9721  -22.2432   21.7576 C   0  0  0  0  0  0  0  0  0  0  0  0
  -24.1396  -18.9175   23.7670 C   0  0  0  0  0  0  0  0  0  0  0  0
  -18.5984  -25.1559   23.1921 C   0  0  0  0  0  0  0  0  0  0  0  0
  -20.6143  -25.6744   21.9656 C   0  0  0  0  0  0  0  0  0  0  0  0
  -30.6636  -20.2556   19.6250 C   0  0  0  0  0  0  0  0  0  0  0  0
  -31.0459  -19.4611   18.5442 C   0  0  0  0  0  0  0  0  0  0  0  0
  -22.6390  -17.6330   22.3823 C   0  0  0  0  0  0  0  0  0  0  0  0
  -28.7574  -18.7386   18.2658 C   0  0  0  0  0  0  0  0  0  0  0  0
  -26.1542  -24.0697   20.4040 C   0  0  0  0  0  0  0  0  0  0  0  0
  -23.9896  -24.9996   19.4256 C   0  0  0  0  0  0  0  0  0  0  0  0
  -30.5468  -13.7457   20.0446 C   0  0  0  0  0  0  0  0  0  0  0  0
  -24.6137  -16.5812   23.3065 C   0  0  0  0  0  0  0  0  0  0  0  0
  -29.5964  -14.7490   20.3140 C   0  0  0  0  0  0  0  0  0  0  0  0
  -23.4438  -16.4941   22.5385 C   0  0  0  0  0  0  0  0  0  0  0  0
  -19.9187  -23.3759   22.2300 C   0  0  0  0  0  0  0  0  0  0  0  0
  -28.0335  -22.0615   20.8710 C   0  0  0  0  0  0  0  0  0  0  0  0
  -19.5022  -26.0949   22.6952 C   0  0  0  0  0  0  0  0  0  0  0  0
  -22.9863  -18.8382   22.9920 C   0  0  0  0  0  0  0  0  0  0  0  0
  -29.3282  -20.2916   20.0263 C   0  0  0  0  0  0  0  0  0  0  0  0
  -30.0928  -18.7027   17.8646 C   0  0  0  0  0  0  0  0  0  0  0  0
  -28.3750  -19.5331   19.3467 C   0  0  0  0  0  0  0  0  0  0  0  0
  -25.1836  -25.1071   20.1637 C   0  0  0  0  0  0  0  0  0  0  0  0
  -23.4289  -26.2515   19.4956 C   0  0  0  0  0  0  0  0  0  0  0  0
  -23.4368  -23.8693   18.7383 C   0  0  0  0  0  0  0  0  0  0  0  0
  -25.9927  -14.7204   21.1295 C   0  0  0  0  0  0  0  0  0  0  0  0
  -23.5225  -12.7370   21.8271 C   0  0  0  0  0  0  0  0  0  0  0  0
  -20.3474  -12.3742   23.0245 C   0  0  0  0  0  0  0  0  0  0  0  0
  -23.9239  -30.7261   23.4432 C   0  0  0  0  0  0  0  0  0  0  0  0
  -30.1945  -12.5115   19.2525 C   0  0  0  0  0  0  0  0  0  0  0  0
  -25.4824  -15.3705   23.5113 C   0  0  0  0  0  0  0  0  0  0  0  0
  -23.0294  -15.2109   21.8675 C   0  0  0  0  0  0  0  0  0  0  0  0
  -28.6929  -12.2500   19.1679 C   0  0  0  0  0  0  0  0  0  0  0  0
  -24.6129  -30.8645   19.9528 C   0  0  0  0  0  0  0  0  0  0  0  0
  -27.9467  -13.5329   18.8156 C   0  0  0  0  0  0  0  0  0  0  0  0
  -24.7296  -29.3950   19.5445 C   0  0  0  0  0  0  0  0  0  0  0  0
  -25.1863  -31.1102   21.3467 C   0  0  0  0  0  0  0  0  0  0  0  0
  -24.7526  -28.7727   21.9962 C   0  0  0  0  0  0  0  0  0  0  0  0
  -28.1497  -14.6033   19.8948 C   0  0  1  0  0  0  0  0  0  0  0  0
  -25.3184  -14.3247   22.4127 C   0  0  1  0  0  0  0  0  0  0  0  0
  -24.1369  -28.4653   20.6204 C   0  0  2  0  0  0  0  0  0  0  0  0
  -18.5837  -10.6371   23.4358 C   0  0  0  0  0  0  0  0  0  0  0  0
  -20.9747  -21.6777   19.7634 C   0  0  0  0  0  0  0  0  0  0  0  0
  -22.9021  -12.6631   18.8405 C   0  0  0  0  0  0  0  0  0  0  0  0
  -20.6461  -11.7344   19.4030 C   0  0  0  0  0  0  0  0  0  0  0  0
  -22.7035  -10.4573   20.0021 C   0  0  0  0  0  0  0  0  0  0  0  0
  -20.3285  -12.9154   25.9340 C   0  0  0  0  0  0  0  0  0  0  0  0
  -22.6603  -30.1818   25.5086 C   0  0  0  0  0  0  0  0  0  0  0  0
  -21.1756  -30.3682   25.2575 C   0  0  0  0  0  0  0  0  0  0  0  0
  -19.1063  -29.1339   24.5992 C   0  0  0  0  0  0  0  0  0  0  0  0
  -18.6211  -27.7779   24.1259 C   0  0  0  0  0  0  0  0  0  0  0  0
  -21.4685  -20.0390   21.6097 C   0  0  0  0  0  0  0  0  0  1  0  0
  -22.1210  -12.5481   21.2987 C   0  0  1  0  0  0  0  0  0  0  0  0
  -19.7549  -11.4037   24.0302 C   0  0  2  0  0  0  0  0  0  0  0  0
  -21.2517  -21.5076   21.2513 C   0  0  2  0  0  0  0  0  0  0  0  0
  -22.1017  -11.8756   19.8970 C   0  0  0  0  0  0  0  0  0  0  0  0
  -25.3713  -26.3306   20.6655 N   0  0  0  0  0  0  0  0  0  0  0  0
  -24.2878  -27.0035   20.2419 N   0  0  0  0  0  0  0  0  0  0  0  0
  -23.9150  -14.0565   22.0925 N   0  0  0  0  0  0  0  0  0  0  0  0
  -24.5817  -30.1977   22.3202 N   0  0  0  0  0  0  0  0  0  0  0  0
  -22.2899  -26.7714   18.9908 N   0  0  0  0  0  0  0  0  0  0  0  0
  -24.1427  -22.6589   18.7674 N   0  0  0  0  0  0  0  0  0  0  0  0
  -20.1251  -22.0283   21.9995 N   0  0  0  0  0  0  0  0  0  0  0  0
  -27.3146  -14.3270   21.0440 N   0  0  0  0  0  0  0  0  0  0  0  0
  -21.3936  -11.8100   22.3256 N   0  0  0  0  0  0  0  0  0  0  0  0
  -23.3735  -29.7924   24.3126 N   0  0  0  0  0  0  0  0  0  0  0  0
  -19.2739  -12.1363   25.2356 N   0  3  0  0  0  0  0  0  0  0  0  0
  -20.5740  -29.0807   24.8168 N   0  3  0  0  0  0  0  0  0  0  0  0
  -22.3571  -23.9352   18.1031 O   0  0  0  0  0  0  0  0  0  0  0  0
  -25.3600  -15.3355   20.2792 O   0  0  0  0  0  0  0  0  0  0  0  0
  -24.2400  -11.7494   22.0047 O   0  0  0  0  0  0  0  0  0  0  0  0
  -19.9220  -13.5170   22.8713 O   0  0  0  0  0  0  0  0  0  0  0  0
  -23.8293  -31.9403   23.6526 O   0  0  0  0  0  0  0  0  0  0  0  0
  -28.9500  -21.0814   21.0991 O   0  0  0  0  0  0  0  0  0  0  0  0
  -19.2991  -27.4214   22.9221 O   0  0  0  0  0  0  0  0  0  0  0  0
  -22.1955  -19.9343   22.8332 O   0  0  0  0  0  0  0  0  0  1  0  0
  -30.4599  -17.9409   16.8257 F   0  0  0  0  0  0  0  0  0  0  0  0
  -27.0904  -19.5645   19.7268 F   0  0  0  0  0  0  0  0  0  0  0  0
  1  2  1  0  0  0  0
  1  5  2  0  0  0  0
  2  6  2  0  0  0  0
  3 10  2  0  0  0  0
  3 19  1  0  0  0  0
  4 11  1  0  0  0  0
  4 19  2  0  0  0  0
  5 21  1  0  0  0  0
  6 23  1  0  0  0  0
  7 12  2  0  0  0  0
  7 22  1  0  0  0  0
  8 13  2  0  0  0  0
  8 25  1  0  0  0  0
  9 14  1  0  0  0  0
  9 25  2  0  0  0  0
 10 26  1  0  0  0  0
 11 26  2  0  0  0  0
 12 28  1  0  0  0  0
 13 27  1  0  0  0  0
 14 27  2  0  0  0  0
 15 16  2  0  0  0  0
 15 29  1  0  0  0  0
 16 30  1  0  0  0  0
 17 24  1  0  0  0  0
 17 28  2  0  0  0  0
 18 30  2  0  0  0  0
 18 31  1  0  0  0  0
 19 32  1  0  0  0  0
 20 32  1  0  0  0  0
 20 33  2  0  0  0  0
 20 34  1  0  0  0  0
 21 23  2  0  0  0  0
 21 39  1  0  0  0  0
 22 24  2  0  0  0  0
 22 40  1  0  0  0  0
 23 48  1  0  0  0  0
 24 41  1  0  0  0  0
 25 72  1  0  0  0  0
 26 83  1  0  0  0  0
 27 84  1  0  0  0  0
 28 85  1  0  0  0  0
 29 31  2  0  0  0  0
 29 83  1  0  0  0  0
 30 86  1  0  0  0  0
 31 87  1  0  0  0  0
 32 66  2  0  0  0  0
 33 67  1  0  0  0  0
 33 70  1  0  0  0  0
 34 71  1  0  0  0  0
 34 78  2  0  0  0  0
 35 49  1  0  0  0  0
 35 73  1  0  0  0  0
 35 79  2  0  0  0  0
 36 62  1  0  0  0  0
 36 68  1  0  0  0  0
 36 80  2  0  0  0  0
 37 63  1  0  0  0  0
 37 74  1  0  0  0  0
 37 81  2  0  0  0  0
 38 69  1  0  0  0  0
 38 75  1  0  0  0  0
 38 82  2  0  0  0  0
 39 42  1  0  0  0  0
 40 49  1  0  0  0  0
 41 68  1  0  0  0  0
 42 44  1  0  0  0  0
 43 45  1  0  0  0  0
 43 46  1  0  0  0  0
 44 48  1  0  0  0  0
 45 50  1  0  0  0  0
 46 69  1  0  0  0  0
 47 50  1  0  0  0  0
 47 69  1  0  0  0  0
 48 73  1  0  0  0  0
 49 68  1  0  0  0  0
 50 67  1  0  0  0  0
 51 63  1  0  0  0  0
 52 64  1  0  0  0  0
 53 65  1  0  0  0  0
 54 65  1  0  0  0  0
 55 65  1  0  0  0  0
 56 76  1  0  0  0  0
 57 58  1  0  0  0  0
 57 75  1  0  0  0  0
 58 77  1  0  0  0  0
 59 60  1  0  0  0  0
 59 77  1  0  0  0  0
 60 84  1  0  0  0  0
 61 64  1  0  0  0  0
 61 85  1  0  0  0  0
 62 65  1  0  0  0  0
 62 74  1  0  0  0  0
 63 76  1  0  0  0  0
 64 72  1  0  0  0  0
 66 67  1  0  0  0  0
M  CHG  2  76   1  77   1
M  ISO  4  38 100  61 101  75 100  85 101
M  END
> <Batch ID>
0129

> <Smiles>
CNC(C)C(=O)NC(C(=O)N1Cc2cc([101O:1][101CH2:1]C(C)Nc3ccc(OCCNCC[100NH:0][100C:0](=O)N4CCCC(n5nc(-c6ccc(Oc7ccc(F)cc7F)cc6)c(C(N)=O)c5N)C4)cc3)ccc2CC1C(=O)NC1CCCc2ccccc21)C(C)(C)C

> <Shape>
0.231

> <Color>
0.067

> <Negative vol penalty>
0.000

$$$$

  -OEChem-04052320453D

 83 91  0     1  0  0  0  0  0999 V2000
  -26.2154  -35.1857   23.8195 C   0  0  0  0  0  0  0  0  0  0  0  0
  -26.7349  -33.9410   23.4784 C   0  0  0  0  0  0  0  0  0  0  0  0
  -28.3234  -25.5569   14.1443 C   0  0  0  0  0  0  0  0  0  0  0  0
  -25.0709  -13.1495   22.1346 C   0  0  0  0  0  0  0  0  0  0  0  0
  -26.3653  -13.4017   20.1103 C   0  0  0  0  0  0  0  0  0  0  0  0
  -24.9177  -35.2849   24.3196 C   0  0  0  0  0  0  0  0  0  0  0  0
  -25.9573  -32.7946   23.6383 C   0  0  0  0  0  0  0  0  0  0  0  0
  -26.2192  -29.6966   19.6410 C   0  0  0  0  0  0  0  0  0  0  0  0
  -24.9142  -11.7900   21.8651 C   0  0  0  0  0  0  0  0  0  0  0  0
  -26.2086  -12.0421   19.8407 C   0  0  0  0  0  0  0  0  0  0  0  0
  -27.3576  -28.8998   19.5264 C   0  0  0  0  0  0  0  0  0  0  0  0
  -22.9981   -9.8522   19.8656 C   0  0  0  0  0  0  0  0  0  0  0  0
  -21.7259   -9.3030   20.0255 C   0  0  0  0  0  0  0  0  0  0  0  0
  -27.3660  -24.5503   14.2027 C   0  0  0  0  0  0  0  0  0  0  0  0
  -29.0644  -25.8707   15.2782 C   0  0  0  0  0  0  0  0  0  0  0  0
  -26.1314  -27.0288   20.4294 C   0  0  0  0  0  0  0  0  0  0  0  0
  -22.5942   -7.7749   21.6833 C   0  0  0  0  0  0  0  0  0  0  0  0
  -25.7964  -13.9554   21.2572 C   0  0  0  0  0  0  0  0  0  0  0  0
  -26.9926  -15.9673   22.2716 C   0  0  0  0  0  0  0  0  0  0  0  0
  -24.1204  -34.1402   24.4766 C   0  0  0  0  0  0  0  0  0  0  0  0
  -25.0295  -29.1675   20.1616 C   0  0  0  0  0  0  0  0  0  0  0  0
  -24.6483  -32.8784   24.1422 C   0  0  0  0  0  0  0  0  0  0  0  0
  -24.9787  -27.8203   20.5471 C   0  0  0  0  0  0  0  0  0  0  0  0
  -25.4830  -11.2362   20.7182 C   0  0  0  0  0  0  0  0  0  0  0  0
  -27.3146  -27.5665   19.9234 C   0  0  0  0  0  0  0  0  0  0  0  0
  -24.0683   -9.3627   20.6144 C   0  0  0  0  0  0  0  0  0  0  0  0
  -21.5240   -8.2644   20.9344 C   0  0  0  0  0  0  0  0  0  0  0  0
  -23.8663   -8.3241   21.5232 C   0  0  0  0  0  0  0  0  0  0  0  0
  -25.9582  -15.3600   21.5348 C   0  0  0  0  0  0  0  0  0  0  0  0
  -27.1894  -23.8925   15.4093 C   0  0  0  0  0  0  0  0  0  0  0  0
  -28.8116  -25.1539   16.4368 C   0  0  0  0  0  0  0  0  0  0  0  0
  -26.6919  -17.3072   22.2453 C   0  0  0  0  0  0  0  0  0  0  0  0
  -28.1241  -15.3733   22.9217 C   0  0  0  0  0  0  0  0  0  0  0  0
  -23.2139  -29.7967   22.6937 C   0  0  0  0  0  0  0  0  0  0  0  0
  -21.2424  -27.6071   21.3367 C   0  0  0  0  0  0  0  0  0  0  0  0
  -20.8855  -24.9266   19.2547 C   0  0  0  0  0  0  0  0  0  0  0  0
  -23.5471  -20.7066   18.4499 C   0  0  0  0  0  0  0  0  0  0  0  0
  -22.7403  -34.2920   25.0655 C   0  0  0  0  0  0  0  0  0  0  0  0
  -23.8028  -30.0330   20.2537 C   0  0  0  0  0  0  0  0  0  0  0  0
  -23.7202  -27.1987   21.0934 C   0  0  0  0  0  0  0  0  0  0  0  0
  -21.8494  -33.0708   24.8523 C   0  0  0  0  0  0  0  0  0  0  0  0
  -22.9761  -20.3057   21.9413 C   0  0  0  0  0  0  0  0  0  0  0  0
  -22.6077  -31.7913   25.1909 C   0  0  0  0  0  0  0  0  0  0  0  0
  -23.7690  -19.0475   22.2995 C   0  0  0  0  0  0  0  0  0  0  0  0
  -22.3443  -20.1991   20.5552 C   0  0  0  0  0  0  0  0  0  0  0  0
  -24.0778  -18.6054   19.8281 C   0  0  0  0  0  0  0  0  0  0  0  0
  -23.8270  -31.6146   24.2780 C   0  0  1  0  0  0  0  0  0  0  0  0
  -22.7906  -29.5278   21.2773 C   0  0  1  0  0  0  0  0  0  0  0  0
  -24.7802  -18.6883   21.1942 C   0  0  2  0  0  0  0  0  0  0  0  0
  -19.1595  -23.3309   18.3760 C   0  0  0  0  0  0  0  0  0  0  0  0
  -21.2606  -26.1231   24.0027 C   0  0  0  0  0  0  0  0  0  0  0  0
  -20.3445  -24.1191   22.8141 C   0  0  0  0  0  0  0  0  0  0  0  0
  -19.0255  -26.2352   22.8864 C   0  0  0  0  0  0  0  0  0  0  0  0
  -21.3445  -25.7870   16.4604 C   0  0  0  0  0  0  0  0  0  0  0  0
  -25.9329  -22.1181   16.6334 C   0  0  0  0  0  0  0  0  0  0  0  0
  -24.8474  -21.0856   16.3703 C   0  0  0  0  0  0  0  0  0  0  0  0
  -29.4089  -24.8203   18.8363 C   0  0  0  0  0  0  0  0  0  0  0  0
  -28.2190  -25.3926   19.5884 C   0  0  0  0  0  0  0  0  0  1  0  0
  -21.0860  -26.1083   21.4268 C   0  0  1  0  0  0  0  0  0  0  0  0
  -19.8944  -24.6414   18.1408 C   0  0  2  0  0  0  0  0  0  0  0  0
  -20.4536  -25.6584   22.7740 C   0  0  0  0  0  0  0  0  0  0  0  0
  -25.0669  -16.2417   21.0742 N   0  0  0  0  0  0  0  0  0  0  0  0
  -27.8900  -24.1694   16.5319 N   0  0  0  0  0  0  0  0  0  0  0  0
  -25.5404  -17.4167   21.5228 N   0  0  0  0  0  0  0  0  0  0  0  0
  -22.5490  -28.0875   21.1699 N   0  0  0  0  0  0  0  0  0  0  0  0
  -23.3566  -19.8579   19.5528 N   0  0  0  0  0  0  0  0  0  0  0  0
  -27.3029  -18.3906   22.7701 N   0  0  0  0  0  0  0  0  0  0  0  0
  -28.2818  -13.9825   22.8501 N   0  0  0  0  0  0  0  0  0  0  0  0
  -26.2102  -22.8691   15.4526 N   0  0  0  0  0  0  0  0  0  0  0  0
  -29.5576  -25.4775   17.5580 N   0  0  0  0  0  0  0  0  0  0  0  0
  -23.4179  -31.1340   22.9756 N   0  0  0  0  0  0  0  0  0  0  0  0
  -20.3284  -25.7053   20.2470 N   0  0  0  0  0  0  0  0  0  0  0  0
  -24.5307  -20.3130   17.5508 N   0  0  0  0  0  0  0  0  0  0  0  0
  -20.5986  -24.5565   16.8301 N   0  3  0  0  0  0  0  0  0  0  0  0
  -28.9614  -16.0540   23.5613 O   0  0  0  0  0  0  0  0  0  0  0  0
  -23.3442  -28.8604   23.4734 O   0  0  0  0  0  0  0  0  0  0  0  0
  -20.2414  -28.3247   21.4044 O   0  0  0  0  0  0  0  0  0  0  0  0
  -22.0374  -24.4982   19.2473 O   0  0  0  0  0  0  0  0  0  0  0  0
  -22.8930  -21.7414   18.2819 O   0  0  0  0  0  0  0  0  0  0  0  0
  -25.3305   -9.9096   20.4550 O   0  0  0  0  0  0  0  0  0  0  0  0
  -28.4244  -26.7867   19.8133 O   0  0  0  0  0  0  0  0  0  1  0  0
  -20.3020   -7.7381   21.0891 F   0  0  0  0  0  0  0  0  0  0  0  0
  -24.8904   -7.8504   22.2463 F   0  0  0  0  0  0  0  0  0  0  0  0
  1  2  1  0  0  0  0
  1  6  2  0  0  0  0
  2  7  2  0  0  0  0
  3 14  1  0  0  0  0
  3 15  2  0  0  0  0
  4  9  2  0  0  0  0
  4 18  1  0  0  0  0
  5 10  1  0  0  0  0
  5 18  2  0  0  0  0
  6 20  1  0  0  0  0
  7 22  1  0  0  0  0
  8 11  2  0  0  0  0
  8 21  1  0  0  0  0
  9 24  1  0  0  0  0
 10 24  2  0  0  0  0
 11 25  1  0  0  0  0
 12 13  2  0  0  0  0
 12 26  1  0  0  0  0
 13 27  1  0  0  0  0
 14 30  2  0  0  0  0
 15 31  1  0  0  0  0
 16 23  1  0  0  0  0
 16 25  2  0  0  0  0
 17 27  2  0  0  0  0
 17 28  1  0  0  0  0
 18 29  1  0  0  0  0
 19 29  1  0  0  0  0
 19 32  2  0  0  0  0
 19 33  1  0  0  0  0
 20 22  2  0  0  0  0
 20 38  1  0  0  0  0
 21 23  2  0  0  0  0
 21 39  1  0  0  0  0
 22 47  1  0  0  0  0
 23 40  1  0  0  0  0
 24 80  1  0  0  0  0
 25 81  1  0  0  0  0
 26 28  2  0  0  0  0
 26 80  1  0  0  0  0
 27 82  1  0  0  0  0
 28 83  1  0  0  0  0
 29 62  2  0  0  0  0
 30 63  1  0  0  0  0
 30 69  1  0  0  0  0
 31 63  2  0  0  0  0
 31 70  1  0  0  0  0
 32 64  1  0  0  0  0
 32 67  1  0  0  0  0
 33 68  1  0  0  0  0
 33 75  2  0  0  0  0
 34 48  1  0  0  0  0
 34 71  1  0  0  0  0
 34 76  2  0  0  0  0
 35 59  1  0  0  0  0
 35 65  1  0  0  0  0
 35 77  2  0  0  0  0
 36 60  1  0  0  0  0
 36 72  1  0  0  0  0
 36 78  2  0  0  0  0
 37 66  1  0  0  0  0
 37 73  1  0  0  0  0
 37 79  2  0  0  0  0
 38 41  1  0  0  0  0
 39 48  1  0  0  0  0
 40 65  1  0  0  0  0
 41 43  1  0  0  0  0
 42 44  1  0  0  0  0
 42 45  1  0  0  0  0
 43 47  1  0  0  0  0
 44 49  1  0  0  0  0
 45 66  1  0  0  0  0
 46 49  1  0  0  0  0
 46 66  1  0  0  0  0
 47 71  1  0  0  0  0
 48 65  1  0  0  0  0
 49 64  1  0  0  0  0
 50 60  1  0  0  0  0
 51 61  1  0  0  0  0
 52 61  1  0  0  0  0
 53 61  1  0  0  0  0
 54 74  1  0  0  0  0
 55 56  1  0  0  0  0
 55 69  1  0  0  0  0
 56 73  1  0  0  0  0
 57 58  1  0  0  0  0
 57 70  1  0  0  0  0
 58 81  1  0  0  0  0
 59 61  1  0  0  0  0
 59 72  1  0  0  0  0
 60 74  1  0  0  0  0
 62 64  1  0  0  0  0
M  CHG  1  74   1
M  ISO  4  37 100  58 101  73 100  81 101
M  END
> <Batch ID>
0129

> <Smiles>
CNC(C)C(=O)NC(C(=O)N1Cc2cc([101O:1][101CH2:1]CNc3cccc(NCC[100NH:0][100C:0](=O)N4CCCC(n5nc(-c6ccc(Oc7ccc(F)cc7F)cc6)c(C(N)=O)c5N)C4)n3)ccc2CC1C(=O)NC1CCCc2ccccc21)C(C)(C)C

> <Shape>
0.226

> <Color>
0.087

> <Negative vol penalty>
0.000

$$$$

  -OEChem-04052320453D

 87 95  0     1  0  0  0  0  0999 V2000
  -16.1175  -29.3766   23.6027 C   0  0  0  0  0  0  0  0  0  0  0  0
  -17.2279  -28.9010   22.9125 C   0  0  0  0  0  0  0  0  0  0  0  0
  -23.4428   -9.9229   22.2051 C   0  0  0  0  0  0  0  0  0  0  0  0
  -23.4938   -9.6207   19.8086 C   0  0  0  0  0  0  0  0  0  0  0  0
  -16.2596  -30.4232   24.5128 C   0  0  0  0  0  0  0  0  0  0  0  0
  -18.4808  -29.4726   23.1313 C   0  0  0  0  0  0  0  0  0  0  0  0
  -22.1358  -26.0047   23.6412 C   0  0  0  0  0  0  0  0  0  0  0  0
  -22.6786   -8.7633   22.3350 C   0  0  0  0  0  0  0  0  0  0  0  0
  -22.7297   -8.4610   19.9385 C   0  0  0  0  0  0  0  0  0  0  0  0
  -22.6179  -25.4116   22.4752 C   0  0  0  0  0  0  0  0  0  0  0  0
  -19.4493   -7.8505   21.9311 C   0  0  0  0  0  0  0  0  0  0  0  0
  -18.3450   -7.8949   22.7820 C   0  0  0  0  0  0  0  0  0  0  0  0
  -24.5242  -26.8892   22.5191 C   0  0  0  0  0  0  0  0  0  0  0  0
  -19.3030   -6.1244   24.1178 C   0  0  0  0  0  0  0  0  0  0  0  0
  -23.8503  -10.3516   20.9419 C   0  0  0  0  0  0  0  0  0  0  0  0
  -24.2800  -12.8529   21.2000 C   0  0  0  0  0  0  0  0  0  0  0  0
  -17.5166  -31.0014   24.7500 C   0  0  0  0  0  0  0  0  0  0  0  0
  -22.8399  -27.0536   24.2499 C   0  0  0  0  0  0  0  0  0  0  0  0
  -18.6396  -30.5288   24.0445 C   0  0  0  0  0  0  0  0  0  0  0  0
  -24.0502  -27.4921   23.6942 C   0  0  0  0  0  0  0  0  0  0  0  0
  -22.3221   -8.0323   21.2018 C   0  0  0  0  0  0  0  0  0  0  0  0
  -23.8108  -25.8558   21.9124 C   0  0  0  0  0  0  0  0  0  0  0  0
  -20.4805   -6.9429   22.1735 C   0  0  0  0  0  0  0  0  0  0  0  0
  -18.2718   -7.0319   23.8754 C   0  0  0  0  0  0  0  0  0  0  0  0
  -20.4074   -6.0799   23.2669 C   0  0  0  0  0  0  0  0  0  0  0  0
  -24.6393  -11.5498   20.8069 C   0  0  0  0  0  0  0  0  0  0  0  0
  -25.3630  -13.6255   20.8584 C   0  0  0  0  0  0  0  0  0  0  0  0
  -23.0750  -13.3231   21.8186 C   0  0  0  0  0  0  0  0  0  0  0  0
  -22.2112  -30.1029   24.8901 C   0  0  0  0  0  0  0  0  0  0  0  0
  -25.0598  -29.9611   26.4352 C   0  0  0  0  0  0  0  0  0  0  0  0
  -28.1890  -29.2564   27.6008 C   0  0  0  0  0  0  0  0  0  0  0  0
  -30.8771  -14.4664   20.6748 C   0  0  0  0  0  0  0  0  0  0  0  0
  -17.6125  -32.1621   25.7083 C   0  0  0  0  0  0  0  0  0  0  0  0
  -22.3200  -27.6648   25.5221 C   0  0  0  0  0  0  0  0  0  0  0  0
  -24.8544  -28.6012   24.3201 C   0  0  0  0  0  0  0  0  0  0  0  0
  -19.0394  -32.4630   26.1596 C   0  0  0  0  0  0  0  0  0  0  0  0
  -29.4305  -12.5370   18.0553 C   0  0  0  0  0  0  0  0  0  0  0  0
  -19.9862  -32.4749   24.9637 C   0  0  0  0  0  0  0  0  0  0  0  0
  -25.5403  -22.4643   18.9640 C   0  0  0  0  0  0  0  0  0  0  0  0
  -25.1190  -23.7756   18.3027 C   0  0  0  0  0  0  0  0  0  0  0  0
  -28.0285  -12.2107   18.5727 C   0  0  0  0  0  0  0  0  0  0  0  0
  -23.9376  -22.9109   20.8684 C   0  0  0  0  0  0  0  0  0  0  0  0
  -30.4624  -12.5343   19.1811 C   0  0  0  0  0  0  0  0  0  0  0  0
  -28.7270  -13.0721   20.8462 C   0  0  0  0  0  0  0  0  0  0  0  0
  -20.0196  -31.1063   24.2728 C   0  0  1  0  0  0  0  0  0  0  0  0
  -22.8559  -29.0712   25.7718 C   0  0  1  0  0  0  0  0  0  0  0  0
  -25.3731  -22.5133   20.4878 C   0  0  1  0  0  0  0  0  0  0  0  0
  -23.6813  -24.1621   18.6812 C   0  0  1  0  0  0  0  0  0  0  0  0
  -27.6423  -13.1180   19.7564 C   0  0  2  0  0  0  0  0  0  0  0  0
  -23.5064  -24.2245   20.2097 C   0  0  2  0  0  0  0  0  0  1  0  0
  -30.1307  -30.3090   28.7922 C   0  0  0  0  0  0  0  0  0  0  0  0
  -23.4099  -25.3463   16.4840 C   0  0  0  0  0  0  0  0  0  0  0  0
  -21.8776  -25.8855   18.3984 C   0  0  0  0  0  0  0  0  0  0  0  0
  -25.8387  -31.4205   23.8714 C   0  0  0  0  0  0  0  0  0  0  0  0
  -28.1601  -31.6386   24.7833 C   0  0  0  0  0  0  0  0  0  0  0  0
  -26.2487  -32.7127   25.9729 C   0  0  0  0  0  0  0  0  0  0  0  0
  -27.9897  -27.3487   29.8546 C   0  0  0  0  0  0  0  0  0  0  0  0
  -25.7423  -21.1688   21.1130 C   0  0  0  0  0  0  0  0  0  0  0  0
  -31.1421  -16.3810   22.2315 C   0  0  0  0  0  0  0  0  0  0  0  0
  -27.5045  -19.5584   21.3715 C   0  0  0  0  0  0  0  0  0  0  0  0
  -30.8188  -17.6729   21.5044 C   0  0  0  0  0  0  0  0  0  0  0  0
  -28.9668  -19.2912   21.0688 C   0  0  0  0  0  0  0  0  0  0  0  0
  -26.4994  -30.1980   26.0474 C   0  0  1  0  0  0  0  0  0  0  0  0
  -28.8442  -29.5127   28.9460 C   0  0  2  0  0  0  0  0  0  0  0  0
  -23.2926  -25.4754   18.0002 C   0  0  0  0  0  0  0  0  0  0  0  0
  -26.6746  -31.4668   25.1660 C   0  0  0  0  0  0  0  0  0  0  0  0
  -25.8554  -11.4937   20.2575 N   0  0  0  0  0  0  0  0  0  0  0  0
  -26.2697  -12.7714   20.3028 N   0  0  0  0  0  0  0  0  0  0  0  0
  -24.3013  -29.1712   25.5597 N   0  0  0  0  0  0  0  0  0  0  0  0
  -30.0371  -13.4154   20.2713 N   0  0  0  0  0  0  0  0  0  0  0  0
  -25.6187  -14.9452   20.9820 N   0  0  0  0  0  0  0  0  0  0  0  0
  -22.0207  -13.7415   20.9954 N   0  0  0  0  0  0  0  0  0  0  0  0
  -20.8382  -30.1800   25.0254 N   0  0  0  0  0  0  0  0  0  0  0  0
  -27.2584  -30.2262   27.2930 N   0  0  0  0  0  0  0  0  0  0  0  0
  -30.3954  -15.2577   21.7105 N   0  0  0  0  0  0  0  0  0  0  0  0
  -27.0959  -20.8508   20.8062 N   0  0  0  0  0  0  0  0  0  0  0  0
  -29.1675  -28.2228   29.6187 N   0  3  0  0  0  0  0  0  0  0  0  0
  -29.3809  -18.0090   21.6900 N   0  3  0  0  0  0  0  0  0  0  0  0
  -22.9434  -13.3861   23.0645 O   0  0  0  0  0  0  0  0  0  0  0  0
  -22.9081  -30.7800   24.1433 O   0  0  0  0  0  0  0  0  0  0  0  0
  -24.6264  -30.4526   27.4803 O   0  0  0  0  0  0  0  0  0  0  0  0
  -28.4768  -28.2944   26.8922 O   0  0  0  0  0  0  0  0  0  0  0  0
  -31.9725  -14.6869   20.1472 O   0  0  0  0  0  0  0  0  0  0  0  0
  -21.5766   -6.9005   21.3283 O   0  0  0  0  0  0  0  0  0  0  0  0
  -24.2834  -25.2791   20.7739 O   0  0  0  0  0  0  0  0  0  1  0  0
  -17.2120   -7.0758   24.6933 F   0  0  0  0  0  0  0  0  0  0  0  0
  -21.3955   -5.2067   23.5056 F   0  0  0  0  0  0  0  0  0  0  0  0
  1  2  1  0  0  0  0
  1  5  2  0  0  0  0
  2  6  2  0  0  0  0
  3  8  2  0  0  0  0
  3 15  1  0  0  0  0
  4  9  1  0  0  0  0
  4 15  2  0  0  0  0
  5 17  1  0  0  0  0
  6 19  1  0  0  0  0
  7 10  2  0  0  0  0
  7 18  1  0  0  0  0
  8 21  1  0  0  0  0
  9 21  2  0  0  0  0
 10 22  1  0  0  0  0
 11 12  2  0  0  0  0
 11 23  1  0  0  0  0
 12 24  1  0  0  0  0
 13 20  1  0  0  0  0
 13 22  2  0  0  0  0
 14 24  2  0  0  0  0
 14 25  1  0  0  0  0
 15 26  1  0  0  0  0
 16 26  1  0  0  0  0
 16 27  2  0  0  0  0
 16 28  1  0  0  0  0
 17 19  2  0  0  0  0
 17 33  1  0  0  0  0
 18 20  2  0  0  0  0
 18 34  1  0  0  0  0
 19 45  1  0  0  0  0
 20 35  1  0  0  0  0
 21 84  1  0  0  0  0
 22 85  1  0  0  0  0
 23 25  2  0  0  0  0
 23 84  1  0  0  0  0
 24 86  1  0  0  0  0
 25 87  1  0  0  0  0
 26 67  2  0  0  0  0
 27 68  1  0  0  0  0
 27 71  1  0  0  0  0
 28 72  1  0  0  0  0
 28 79  2  0  0  0  0
 29 46  1  0  0  0  0
 29 73  1  0  0  0  0
 29 80  2  0  0  0  0
 30 63  1  0  0  0  0
 30 69  1  0  0  0  0
 30 81  2  0  0  0  0
 31 64  1  0  0  0  0
 31 74  1  0  0  0  0
 31 82  2  0  0  0  0
 32 70  1  0  0  0  0
 32 75  1  0  0  0  0
 32 83  2  0  0  0  0
 33 36  1  0  0  0  0
 34 46  1  0  0  0  0
 35 69  1  0  0  0  0
 36 38  1  0  0  0  0
 37 41  1  0  0  0  0
 37 43  1  0  0  0  0
 38 45  1  0  0  0  0
 39 40  1  0  0  0  0
 39 47  1  0  0  0  0
 40 48  1  0  0  0  0
 41 49  1  0  0  0  0
 42 47  1  0  0  0  0
 42 50  1  0  0  0  0
 43 70  1  0  0  0  0
 44 49  1  0  0  0  0
 44 70  1  0  0  0  0
 45 73  1  0  0  0  0
 46 69  1  0  0  0  0
 47 58  1  0  0  0  0
 48 50  1  0  0  0  0
 48 65  1  0  0  0  0
 49 68  1  0  0  0  0
 50 85  1  0  0  0  0
 51 64  1  0  0  0  0
 52 65  1  0  0  0  0
 53 65  1  0  0  0  0
 54 66  1  0  0  0  0
 55 66  1  0  0  0  0
 56 66  1  0  0  0  0
 57 77  1  0  0  0  0
 58 76  1  0  0  0  0
 59 61  1  0  0  0  0
 59 75  1  0  0  0  0
 60 62  1  0  0  0  0
 60 76  1  0  0  0  0
 61 78  1  0  0  0  0
 62 78  1  0  0  0  0
 63 66  1  0  0  0  0
 63 74  1  0  0  0  0
 64 77  1  0  0  0  0
 67 68  1  0  0  0  0
M  CHG  2  77   1  78   1
M  ISO  4  32 100  50 101  75 100  85 101
M  END
> <Batch ID>
0129

> <Smiles>
CNC(C)C(=O)NC(C(=O)N1Cc2cc([101O:1][101CH:1]3CC(CNCCNCC[100NH:0][100C:0](=O)N4CCCC(n5nc(-c6ccc(Oc7ccc(F)cc7F)cc6)c(C(N)=O)c5N)C4)CCC3C(C)C)ccc2CC1C(=O)NC1CCCc2ccccc21)C(C)(C)C

> <Shape>
0.272

> <Color>
0.169

> <Negative vol penalty>
0.000

$$$$

  -OEChem-04052320453D

 89 98  0     1  0  0  0  0  0999 V2000
  -17.5949  -27.4321   22.3795 C   0  0  0  0  0  0  0  0  0  0  0  0
  -18.3619  -26.8663   23.3929 C   0  0  0  0  0  0  0  0  0  0  0  0
  -23.8580   -9.6172   19.8229 C   0  0  0  0  0  0  0  0  0  0  0  0
  -24.3713   -9.7634   22.1792 C   0  0  0  0  0  0  0  0  0  0  0  0
  -18.2142  -28.1435   21.3527 C   0  0  0  0  0  0  0  0  0  0  0  0
  -19.7488  -27.0107   23.3795 C   0  0  0  0  0  0  0  0  0  0  0  0
  -25.3379  -27.6543   27.8139 C   0  0  0  0  0  0  0  0  0  0  0  0
  -28.3917  -18.5160   23.6113 C   0  0  0  0  0  0  0  0  0  0  0  0
  -28.6691  -19.4981   24.5622 C   0  0  0  0  0  0  0  0  0  0  0  0
  -23.3788   -8.3204   20.0077 C   0  0  0  0  0  0  0  0  0  0  0  0
  -23.8920   -8.4665   22.3641 C   0  0  0  0  0  0  0  0  0  0  0  0
  -26.5852  -27.0840   28.0646 C   0  0  0  0  0  0  0  0  0  0  0  0
  -20.8912   -6.9397   22.6554 C   0  0  0  0  0  0  0  0  0  0  0  0
  -20.0545   -6.7092   23.7474 C   0  0  0  0  0  0  0  0  0  0  0  0
  -27.5389  -28.4016   26.2831 C   0  0  0  0  0  0  0  0  0  0  0  0
  -30.7590  -18.2025   23.2444 C   0  0  0  0  0  0  0  0  0  0  0  0
  -21.6314   -5.0975   24.6153 C   0  0  0  0  0  0  0  0  0  0  0  0
  -24.3543  -10.3387   20.9087 C   0  0  0  0  0  0  0  0  0  0  0  0
  -24.1161  -12.8764   20.8040 C   0  0  0  0  0  0  0  0  0  0  0  0
  -19.6085  -28.3049   21.3319 C   0  0  0  0  0  0  0  0  0  0  0  0
  -25.1793  -28.5961   26.7871 C   0  0  0  0  0  0  0  0  0  0  0  0
  -20.3874  -27.7238   22.3507 C   0  0  0  0  0  0  0  0  0  0  0  0
  -26.2891  -28.9842   26.0231 C   0  0  0  0  0  0  0  0  0  0  0  0
  -31.0364  -19.1846   24.1953 C   0  0  0  0  0  0  0  0  0  0  0  0
  -29.4366  -17.8682   22.9524 C   0  0  0  0  0  0  0  0  0  0  0  0
  -29.9914  -19.8324   24.8541 C   0  0  0  0  0  0  0  0  0  0  0  0
  -23.3957   -7.7451   21.2783 C   0  0  0  0  0  0  0  0  0  0  0  0
  -27.6853  -27.4554   27.2973 C   0  0  0  0  0  0  0  0  0  0  0  0
  -22.0980   -6.2491   22.5433 C   0  0  0  0  0  0  0  0  0  0  0  0
  -20.4246   -5.7881   24.7273 C   0  0  0  0  0  0  0  0  0  0  0  0
  -22.4680   -5.3280   23.5233 C   0  0  0  0  0  0  0  0  0  0  0  0
  -24.8500  -11.6781   20.7183 C   0  0  0  0  0  0  0  0  0  0  0  0
  -25.0364  -13.8621   20.5433 C   0  0  0  0  0  0  0  0  0  0  0  0
  -22.7268  -13.0803   21.0935 C   0  0  0  0  0  0  0  0  0  0  0  0
  -23.4851  -28.7215   24.1005 C   0  0  0  0  0  0  0  0  0  0  0  0
  -24.6207  -31.7578   23.9855 C   0  0  0  0  0  0  0  0  0  0  0  0
  -27.0302  -33.9871   24.9188 C   0  0  0  0  0  0  0  0  0  0  0  0
  -30.0726  -16.1320   21.2414 C   0  0  0  0  0  0  0  0  0  0  0  0
  -20.2368  -29.0421   20.1758 C   0  0  0  0  0  0  0  0  0  0  0  0
  -23.8327  -29.2218   26.5469 C   0  0  0  0  0  0  0  0  0  0  0  0
  -26.1760  -30.0060   24.9224 C   0  0  0  0  0  0  0  0  0  0  0  0
  -21.6793  -29.4680   20.4367 C   0  0  0  0  0  0  0  0  0  0  0  0
  -29.7768  -13.5633   18.7936 C   0  0  0  0  0  0  0  0  0  0  0  0
  -22.4769  -28.3134   21.0347 C   0  0  0  0  0  0  0  0  0  0  0  0
  -28.4083  -12.9425   19.0832 C   0  0  0  0  0  0  0  0  0  0  0  0
  -28.5782  -22.6044   25.6471 C   0  0  0  0  0  0  0  0  0  0  0  0
  -29.7481  -22.0922   27.8265 C   0  0  0  0  0  0  0  0  0  0  0  0
  -30.4946  -13.9777   20.0769 C   0  0  0  0  0  0  0  0  0  0  0  0
  -28.3481  -14.2238   21.2607 C   0  0  0  0  0  0  0  0  0  0  0  0
  -29.4889  -23.8111   25.4514 C   0  0  0  0  0  0  0  0  0  0  0  0
  -30.6573  -23.2956   27.6087 C   0  0  0  0  0  0  0  0  0  0  0  0
  -21.8923  -27.8797   22.3844 C   0  0  1  0  0  0  0  0  0  0  0  0
  -23.6803  -29.7896   25.1391 C   0  0  1  0  0  0  0  0  0  0  0  0
  -27.5594  -13.8498   19.9951 C   0  0  2  0  0  0  0  0  0  0  0  0
  -29.2111  -21.5143   26.5156 C   0  0  0  0  0  0  0  0  0  0  0  0
  -34.3277  -21.2023   24.1512 C   0  0  0  0  0  0  0  0  0  0  0  0
  -27.7087  -36.3868   24.6383 C   0  0  0  0  0  0  0  0  0  0  0  0
  -25.6249  -31.1424   21.1707 C   0  0  0  0  0  0  0  0  0  0  0  0
  -27.0779  -33.1758   21.3197 C   0  0  0  0  0  0  0  0  0  0  0  0
  -24.5970  -33.4064   21.4399 C   0  0  0  0  0  0  0  0  0  0  0  0
  -26.8112  -34.5095   27.8236 C   0  0  0  0  0  0  0  0  0  0  0  0
  -32.4619  -19.5239   24.4878 C   0  0  0  0  0  0  0  0  0  0  0  0
  -32.8871  -20.8417   23.8249 C   0  0  0  0  0  0  0  0  0  0  0  0
  -30.7288  -25.6015   26.6640 C   0  0  0  0  0  0  0  0  0  0  0  0
  -29.7899  -26.7683   26.4286 C   0  0  0  0  0  0  0  0  0  1  0  0
  -25.8466  -32.4194   23.4036 C   0  0  1  0  0  0  0  0  0  0  0  0
  -26.9372  -35.3906   25.4898 C   0  0  2  0  0  0  0  0  0  0  0  0
  -25.7887  -32.5153   21.8529 C   0  0  0  0  0  0  0  0  0  0  0  0
  -26.1373  -11.8817   20.4258 N   0  0  0  0  0  0  0  0  0  0  0  0
  -26.2194  -13.2193   20.3254 N   0  0  0  0  0  0  0  0  0  0  0  0
  -24.8371  -30.5845   24.7219 N   0  0  0  0  0  0  0  0  0  0  0  0
  -29.6316  -14.8391   20.8882 N   0  0  0  0  0  0  0  0  0  0  0  0
  -24.9410  -15.2073   20.4813 N   0  0  0  0  0  0  0  0  0  0  0  0
  -21.9234  -11.9580   21.3374 N   0  0  0  0  0  0  0  0  0  0  0  0
  -29.1541  -16.8711   21.9861 N   0  0  0  0  0  0  0  0  0  0  0  0
  -30.2478  -20.8072   25.7990 N   0  0  0  0  0  0  0  0  0  0  0  0
  -22.2824  -28.8063   23.4254 N   0  0  0  0  0  0  0  0  0  0  0  0
  -25.9742  -33.7070   24.0776 N   0  0  0  0  0  0  0  0  0  0  0  0
  -29.9255  -24.3369   26.7970 N   0  3  0  0  0  0  0  0  0  0  0  0
  -27.4923  -35.4251   26.8725 N   0  3  0  0  0  0  0  0  0  0  0  0
  -22.2094  -14.2227   21.1186 O   0  0  0  0  0  0  0  0  0  0  0  0
  -24.3614  -27.8834   23.9237 O   0  0  0  0  0  0  0  0  0  0  0  0
  -23.5128  -32.2673   23.7995 O   0  0  0  0  0  0  0  0  0  0  0  0
  -27.9498  -33.2178   25.1887 O   0  0  0  0  0  0  0  0  0  0  0  0
  -31.1723  -16.5626   20.8846 O   0  0  0  0  0  0  0  0  0  0  0  0
  -22.9279   -6.4797   21.4591 O   0  0  0  0  0  0  0  0  0  0  0  0
  -28.9038  -26.8998   27.5394 O   0  0  0  0  0  0  0  0  0  1  0  0
  -19.6217   -5.5679   25.7767 F   0  0  0  0  0  0  0  0  0  0  0  0
  -23.6267   -4.6624   23.4216 F   0  0  0  0  0  0  0  0  0  0  0  0
  1  2  1  0  0  0  0
  1  5  2  0  0  0  0
  2  6  2  0  0  0  0
  3 10  2  0  0  0  0
  3 18  1  0  0  0  0
  4 11  1  0  0  0  0
  4 18  2  0  0  0  0
  5 20  1  0  0  0  0
  6 22  1  0  0  0  0
  7 12  2  0  0  0  0
  7 21  1  0  0  0  0
  8  9  2  0  0  0  0
  8 25  1  0  0  0  0
  9 26  1  0  0  0  0
 10 27  1  0  0  0  0
 11 27  2  0  0  0  0
 12 28  1  0  0  0  0
 13 14  2  0  0  0  0
 13 29  1  0  0  0  0
 14 30  1  0  0  0  0
 15 23  1  0  0  0  0
 15 28  2  0  0  0  0
 16 24  1  0  0  0  0
 16 25  2  0  0  0  0
 17 30  2  0  0  0  0
 17 31  1  0  0  0  0
 18 32  1  0  0  0  0
 19 32  1  0  0  0  0
 19 33  2  0  0  0  0
 19 34  1  0  0  0  0
 20 22  2  0  0  0  0
 20 39  1  0  0  0  0
 21 23  2  0  0  0  0
 21 40  1  0  0  0  0
 22 52  1  0  0  0  0
 23 41  1  0  0  0  0
 24 26  2  0  0  0  0
 24 62  1  0  0  0  0
 25 75  1  0  0  0  0
 26 76  1  0  0  0  0
 27 86  1  0  0  0  0
 28 87  1  0  0  0  0
 29 31  2  0  0  0  0
 29 86  1  0  0  0  0
 30 88  1  0  0  0  0
 31 89  1  0  0  0  0
 32 69  2  0  0  0  0
 33 70  1  0  0  0  0
 33 73  1  0  0  0  0
 34 74  1  0  0  0  0
 34 81  2  0  0  0  0
 35 53  1  0  0  0  0
 35 77  1  0  0  0  0
 35 82  2  0  0  0  0
 36 66  1  0  0  0  0
 36 71  1  0  0  0  0
 36 83  2  0  0  0  0
 37 67  1  0  0  0  0
 37 78  1  0  0  0  0
 37 84  2  0  0  0  0
 38 72  1  0  0  0  0
 38 75  1  0  0  0  0
 38 85  2  0  0  0  0
 39 42  1  0  0  0  0
 40 53  1  0  0  0  0
 41 71  1  0  0  0  0
 42 44  1  0  0  0  0
 43 45  1  0  0  0  0
 43 48  1  0  0  0  0
 44 52  1  0  0  0  0
 45 54  1  0  0  0  0
 46 50  1  0  0  0  0
 46 55  1  0  0  0  0
 47 51  1  0  0  0  0
 47 55  1  0  0  0  0
 48 72  1  0  0  0  0
 49 54  1  0  0  0  0
 49 72  1  0  0  0  0
 50 79  1  0  0  0  0
 51 79  1  0  0  0  0
 52 77  1  0  0  0  0
 53 71  1  0  0  0  0
 54 70  1  0  0  0  0
 55 76  1  0  0  0  0
 56 63  1  0  0  0  0
 57 67  1  0  0  0  0
 58 68  1  0  0  0  0
 59 68  1  0  0  0  0
 60 68  1  0  0  0  0
 61 80  1  0  0  0  0
 62 63  1  0  0  0  0
 64 65  1  0  0  0  0
 64 79  1  0  0  0  0
 65 87  1  0  0  0  0
 66 68  1  0  0  0  0
 66 78  1  0  0  0  0
 67 80  1  0  0  0  0
 69 70  1  0  0  0  0
M  CHG  2  79   1  80   1
M  ISO  4  38 100  65 101  75 100  87 101
M  END
> <Batch ID>
0129

> <Smiles>
CCCc1cc([100NH:0][100C:0](=O)N2CCCC(n3nc(-c4ccc(Oc5ccc(F)cc5F)cc4)c(C(N)=O)c3N)C2)ccc1NC1CCN(C[101CH2:1][101O:1]c2ccc3c(c2)CN(C(=O)C(NC(=O)C(C)NC)C(C)(C)C)C(C(=O)NC2CCCc4ccccc42)C3)CC1

> <Shape>
0.296

> <Color>
0.176

> <Negative vol penalty>
0.000

$$$$

  -OEChem-04052320453D

 84 93  0     1  0  0  0  0  0999 V2000
  -24.9939  -32.4885   27.8680 C   0  0  0  0  0  0  0  0  0  0  0  0
  -24.9488  -31.3977   27.0056 C   0  0  0  0  0  0  0  0  0  0  0  0
  -23.0809   -9.8576   19.9491 C   0  0  0  0  0  0  0  0  0  0  0  0
  -23.8285   -9.8866   22.2464 C   0  0  0  0  0  0  0  0  0  0  0  0
  -26.0716  -33.3715   27.8174 C   0  0  0  0  0  0  0  0  0  0  0  0
  -25.9810  -31.1900   26.0914 C   0  0  0  0  0  0  0  0  0  0  0  0
  -28.1846  -25.8022   24.1884 C   0  0  0  0  0  0  0  0  0  0  0  0
  -31.3252  -19.0700   20.5506 C   0  0  0  0  0  0  0  0  0  0  0  0
  -31.1453  -17.6870   20.5700 C   0  0  0  0  0  0  0  0  0  0  0  0
  -22.3374   -8.7057   20.2056 C   0  0  0  0  0  0  0  0  0  0  0  0
  -23.0850   -8.7347   22.5029 C   0  0  0  0  0  0  0  0  0  0  0  0
  -27.9461  -25.0428   23.0437 C   0  0  0  0  0  0  0  0  0  0  0  0
  -19.3827   -7.9178   21.6484 C   0  0  0  0  0  0  0  0  0  0  0  0
  -18.0785   -7.8652   21.1566 C   0  0  0  0  0  0  0  0  0  0  0  0
  -29.9011  -26.0028   22.0067 C   0  0  0  0  0  0  0  0  0  0  0  0
  -29.6888  -19.3076   22.3121 C   0  0  0  0  0  0  0  0  0  0  0  0
  -18.6481   -5.9110   19.8551 C   0  0  0  0  0  0  0  0  0  0  0  0
  -23.8265  -10.4481   20.9695 C   0  0  0  0  0  0  0  0  0  0  0  0
  -24.1653  -12.9726   20.8283 C   0  0  0  0  0  0  0  0  0  0  0  0
  -27.1223  -33.1691   26.9087 C   0  0  0  0  0  0  0  0  0  0  0  0
  -29.2788  -26.6772   24.2467 C   0  0  0  0  0  0  0  0  0  0  0  0
  -27.0732  -32.0719   26.0278 C   0  0  0  0  0  0  0  0  0  0  0  0
  -30.1528  -26.7703   23.1542 C   0  0  0  0  0  0  0  0  0  0  0  0
  -30.5970  -19.8804   21.4216 C   0  0  0  0  0  0  0  0  0  0  0  0
  -29.5089  -17.9246   22.3315 C   0  0  0  0  0  0  0  0  0  0  0  0
  -30.2372  -17.1142   21.4605 C   0  0  0  0  0  0  0  0  0  0  0  0
  -22.3394   -8.1442   21.4825 C   0  0  0  0  0  0  0  0  0  0  0  0
  -28.8027  -25.1451   21.9516 C   0  0  0  0  0  0  0  0  0  0  0  0
  -20.3197   -6.9671   21.2435 C   0  0  0  0  0  0  0  0  0  0  0  0
  -17.7112   -6.8617   20.2600 C   0  0  0  0  0  0  0  0  0  0  0  0
  -19.9523   -5.9637   20.3469 C   0  0  0  0  0  0  0  0  0  0  0  0
  -24.5952  -11.6377   20.7050 C   0  0  0  0  0  0  0  0  0  0  0  0
  -25.2582  -13.7204   20.4640 C   0  0  0  0  0  0  0  0  0  0  0  0
  -22.8918  -13.4902   21.2357 C   0  0  0  0  0  0  0  0  0  0  0  0
  -29.6231  -29.8187   24.5876 C   0  0  0  0  0  0  0  0  0  0  0  0
  -32.7748  -29.0649   24.7316 C   0  0  0  0  0  0  0  0  0  0  0  0
  -35.2668  -26.8679   23.9508 C   0  0  0  0  0  0  0  0  0  0  0  0
  -30.7219  -14.7759   20.6583 C   0  0  0  0  0  0  0  0  0  0  0  0
  -28.2431  -34.1771   26.8587 C   0  0  0  0  0  0  0  0  0  0  0  0
  -29.5375  -27.4696   25.4988 C   0  0  0  0  0  0  0  0  0  0  0  0
  -31.3532  -27.6797   23.1741 C   0  0  0  0  0  0  0  0  0  0  0  0
  -29.4800  -33.6764   26.1172 C   0  0  0  0  0  0  0  0  0  0  0  0
  -29.6237  -12.3389   18.3062 C   0  0  0  0  0  0  0  0  0  0  0  0
  -29.0827  -33.0196   24.7990 C   0  0  0  0  0  0  0  0  0  0  0  0
  -28.1822  -12.0490   18.7308 C   0  0  0  0  0  0  0  0  0  0  0  0
  -29.1436  -22.3151   19.6153 C   0  0  0  0  0  0  0  0  0  0  0  0
  -30.5320  -12.5800   19.5106 C   0  0  0  0  0  0  0  0  0  0  0  0
  -28.6167  -13.3141   20.8750 C   0  0  0  0  0  0  0  0  0  0  0  0
  -28.1859  -31.7990   25.0391 C   0  0  1  0  0  0  0  0  0  0  0  0
  -30.3892  -28.7115   25.2546 C   0  0  1  0  0  0  0  0  0  0  0  0
  -29.5358  -22.1230   21.0542 C   0  0  2  0  0  0  0  0  0  0  0  0
  -27.6504  -13.1286   19.6936 C   0  0  2  0  0  0  0  0  0  0  0  0
  -29.5947  -23.4937   20.4346 C   0  0  2  0  0  0  0  0  0  1  0  0
  -28.5271  -17.3386   23.2938 C   0  0  0  0  0  0  0  0  0  0  0  0
  -32.7219  -21.2508   23.1263 C   0  0  0  0  0  0  0  0  0  0  0  0
  -37.7456  -26.5424   24.1679 C   0  0  0  0  0  0  0  0  0  0  0  0
  -33.2345  -31.0974   22.5028 C   0  0  0  0  0  0  0  0  0  0  0  0
  -35.4817  -30.0629   22.1180 C   0  0  0  0  0  0  0  0  0  0  0  0
  -34.9596  -31.1264   24.3133 C   0  0  0  0  0  0  0  0  0  0  0  0
  -34.9200  -24.3893   25.5304 C   0  0  0  0  0  0  0  0  0  0  0  0
  -31.4083  -21.9167   22.7345 C   0  0  0  0  0  0  0  0  0  0  0  0
  -30.7932  -21.4027   21.3984 C   0  0  1  0  0  0  0  0  0  0  0  0
  -33.8857  -28.9157   23.7203 C   0  0  1  0  0  0  0  0  0  0  0  0
  -36.3838  -26.2723   24.7887 C   0  0  2  0  0  0  0  0  0  0  0  0
  -34.3667  -30.2848   23.1622 C   0  0  0  0  0  0  0  0  0  0  0  0
  -25.8624  -11.5400   20.2944 N   0  0  0  0  0  0  0  0  0  0  0  0
  -26.2381  -12.8230   20.1563 N   0  0  0  0  0  0  0  0  0  0  0  0
  -31.5600  -28.4386   24.4186 N   0  0  0  0  0  0  0  0  0  0  0  0
  -29.9669  -13.6179   20.3755 N   0  0  0  0  0  0  0  0  0  0  0  0
  -25.4671  -15.0514   20.3800 N   0  0  0  0  0  0  0  0  0  0  0  0
  -21.8794  -12.5826   21.5759 N   0  0  0  0  0  0  0  0  0  0  0  0
  -30.0688  -15.7073   21.4648 N   0  0  0  0  0  0  0  0  0  0  0  0
  -28.9781  -30.6663   25.4679 N   0  0  0  0  0  0  0  0  0  0  0  0
  -34.9312  -28.1364   24.3744 N   0  0  0  0  0  0  0  0  0  0  0  0
  -36.2082  -24.7977   24.9132 N   0  3  0  0  0  0  0  0  0  0  0  0
  -22.6534  -14.7209   21.2806 O   0  0  0  0  0  0  0  0  0  0  0  0
  -29.6187  -29.8990   23.3648 O   0  0  0  0  0  0  0  0  0  0  0  0
  -32.9796  -29.7072   25.7646 O   0  0  0  0  0  0  0  0  0  0  0  0
  -34.7468  -26.2692   23.0118 O   0  0  0  0  0  0  0  0  0  0  0  0
  -31.8532  -14.9420   20.1952 O   0  0  0  0  0  0  0  0  0  0  0  0
  -21.6139   -7.0202   21.7332 O   0  0  0  0  0  0  0  0  0  0  0  0
  -28.5718  -24.4055   20.8329 O   0  0  0  0  0  0  0  0  0  1  0  0
  -16.4583   -6.8104   19.7890 F   0  0  0  0  0  0  0  0  0  0  0  0
  -20.8478   -5.0468   19.9552 F   0  0  0  0  0  0  0  0  0  0  0  0
  1  2  1  0  0  0  0
  1  5  2  0  0  0  0
  2  6  2  0  0  0  0
  3 10  2  0  0  0  0
  3 18  1  0  0  0  0
  4 11  1  0  0  0  0
  4 18  2  0  0  0  0
  5 20  1  0  0  0  0
  6 22  1  0  0  0  0
  7 12  2  0  0  0  0
  7 21  1  0  0  0  0
  8  9  2  0  0  0  0
  8 24  1  0  0  0  0
  9 26  1  0  0  0  0
 10 27  1  0  0  0  0
 11 27  2  0  0  0  0
 12 28  1  0  0  0  0
 13 14  2  0  0  0  0
 13 29  1  0  0  0  0
 14 30  1  0  0  0  0
 15 23  1  0  0  0  0
 15 28  2  0  0  0  0
 16 24  2  0  0  0  0
 16 25  1  0  0  0  0
 17 30  2  0  0  0  0
 17 31  1  0  0  0  0
 18 32  1  0  0  0  0
 19 32  1  0  0  0  0
 19 33  2  0  0  0  0
 19 34  1  0  0  0  0
 20 22  2  0  0  0  0
 20 39  1  0  0  0  0
 21 23  2  0  0  0  0
 21 40  1  0  0  0  0
 22 49  1  0  0  0  0
 23 41  1  0  0  0  0
 24 62  1  0  0  0  0
 25 26  2  0  0  0  0
 25 54  1  0  0  0  0
 26 72  1  0  0  0  0
 27 81  1  0  0  0  0
 28 82  1  0  0  0  0
 29 31  2  0  0  0  0
 29 81  1  0  0  0  0
 30 83  1  0  0  0  0
 31 84  1  0  0  0  0
 32 66  2  0  0  0  0
 33 67  1  0  0  0  0
 33 70  1  0  0  0  0
 34 71  1  0  0  0  0
 34 76  2  0  0  0  0
 35 50  1  0  0  0  0
 35 73  1  0  0  0  0
 35 77  2  0  0  0  0
 36 63  1  0  0  0  0
 36 68  1  0  0  0  0
 36 78  2  0  0  0  0
 37 64  1  0  0  0  0
 37 74  1  0  0  0  0
 37 79  2  0  0  0  0
 38 69  1  0  0  0  0
 38 72  1  0  0  0  0
 38 80  2  0  0  0  0
 39 42  1  0  0  0  0
 40 50  1  0  0  0  0
 41 68  1  0  0  0  0
 42 44  1  0  0  0  0
 43 45  1  0  0  0  0
 43 47  1  0  0  0  0
 44 49  1  0  0  0  0
 45 52  1  0  0  0  0
 46 51  1  0  0  0  0
 46 53  1  0  0  0  0
 47 69  1  0  0  0  0
 48 52  1  0  0  0  0
 48 69  1  0  0  0  0
 49 73  1  0  0  0  0
 50 68  1  0  0  0  0
 51 53  1  0  0  0  0
 51 62  1  0  0  0  0
 52 67  1  0  0  0  0
 53 82  1  0  0  0  0
 55 61  1  0  0  0  0
 56 64  1  0  0  0  0
 57 65  1  0  0  0  0
 58 65  1  0  0  0  0
 59 65  1  0  0  0  0
 60 75  1  0  0  0  0
 61 62  1  0  0  0  0
 63 65  1  0  0  0  0
 63 74  1  0  0  0  0
 64 75  1  0  0  0  0
 66 67  1  0  0  0  0
M  CHG  1  75   1
M  ISO  4  38 100  53 101  72 100  82 101
M  END
> <Batch ID>
0129

> <Smiles>
CCC(c1ccc([100NH:0][100C:0](=O)N2CCCC(n3nc(-c4ccc(Oc5ccc(F)cc5F)cc4)c(C(N)=O)c3N)C2)c(C)c1)C1C[101CH:1]1[101O:1]c1ccc2c(c1)CN(C(=O)C(NC(=O)C(C)NC)C(C)(C)C)C(C(=O)NC1CCCc3ccccc31)C2

> <Shape>
0.234

> <Color>
0.196

> <Negative vol penalty>
0.000

$$$$

  -OEChem-04052320453D

 87 95  0     1  0  0  0  0  0999 V2000
  -28.0099  -17.8102   16.2482 C   0  0  0  0  0  0  0  0  0  0  0  0
  -27.2677  -18.9805   16.1370 C   0  0  0  0  0  0  0  0  0  0  0  0
  -24.4248  -17.9759   19.6250 C   0  0  0  0  0  0  0  0  0  0  0  0
  -24.0883  -17.1583   21.8734 C   0  0  0  0  0  0  0  0  0  0  0  0
  -28.8131  -17.6025   17.3675 C   0  0  0  0  0  0  0  0  0  0  0  0
  -27.3377  -19.9488   17.1392 C   0  0  0  0  0  0  0  0  0  0  0  0
  -24.3031  -25.1910   17.8013 C   0  0  0  0  0  0  0  0  0  0  0  0
  -25.1567  -16.8291   19.3175 C   0  0  0  0  0  0  0  0  0  0  0  0
  -24.8202  -16.0114   21.5659 C   0  0  0  0  0  0  0  0  0  0  0  0
  -23.1321  -25.6316   18.4165 C   0  0  0  0  0  0  0  0  0  0  0  0
  -24.3058  -13.0897   19.9475 C   0  0  0  0  0  0  0  0  0  0  0  0
  -23.7889  -11.8623   20.3622 C   0  0  0  0  0  0  0  0  0  0  0  0
  -24.4132  -26.3401   20.3339 C   0  0  0  0  0  0  0  0  0  0  0  0
  -19.8442  -26.6054   22.2329 C   0  0  0  0  0  0  0  0  0  0  0  0
  -25.7745  -11.4722   21.6822 C   0  0  0  0  0  0  0  0  0  0  0  0
  -23.8906  -18.1406   20.9030 C   0  0  0  0  0  0  0  0  0  0  0  0
  -21.9509  -19.7701   20.6033 C   0  0  0  0  0  0  0  0  0  0  0  0
  -28.8828  -18.5637   18.3894 C   0  0  0  0  0  0  0  0  0  0  0  0
  -25.5386  -25.3119   18.4534 C   0  0  0  0  0  0  0  0  0  0  0  0
  -28.1611  -19.7684   18.2652 C   0  0  0  0  0  0  0  0  0  0  0  0
  -25.5987  -25.9026   19.7237 C   0  0  0  0  0  0  0  0  0  0  0  0
  -20.8135  -27.5920   22.0899 C   0  0  0  0  0  0  0  0  0  0  0  0
  -20.5086  -28.9100   22.4111 C   0  0  0  0  0  0  0  0  0  0  0  0
  -25.3545  -15.8468   20.2879 C   0  0  0  0  0  0  0  0  0  0  0  0
  -23.1866  -26.2036   19.6842 C   0  0  0  0  0  0  0  0  0  0  0  0
  -25.5570  -13.5083   20.4001 C   0  0  0  0  0  0  0  0  0  0  0  0
  -24.5233  -11.0536   21.2296 C   0  0  0  0  0  0  0  0  0  0  0  0
  -26.2914  -12.6996   21.2675 C   0  0  0  0  0  0  0  0  0  0  0  0
  -23.1349  -19.3253   21.2214 C   0  0  0  0  0  0  0  0  0  0  0  0
  -18.5954  -26.9855   22.6973 C   0  0  0  0  0  0  0  0  0  0  0  0
  -19.2299  -29.1870   22.8674 C   0  0  0  0  0  0  0  0  0  0  0  0
  -21.6343  -20.9320   21.2638 C   0  0  0  0  0  0  0  0  0  0  0  0
  -21.2039  -19.1852   19.5283 C   0  0  0  0  0  0  0  0  0  0  0  0
  -27.7458  -23.2652   19.4746 C   0  0  0  0  0  0  0  0  0  0  0  0
  -29.4016  -25.9779   20.1242 C   0  0  0  0  0  0  0  0  0  0  0  0
  -29.3332  -29.3229   20.7972 C   0  0  0  0  0  0  0  0  0  0  0  0
  -21.0688  -23.8438   25.9910 C   0  0  0  0  0  0  0  0  0  0  0  0
  -29.7743  -18.2911   19.5752 C   0  0  0  0  0  0  0  0  0  0  0  0
  -26.7959  -24.8561   17.7651 C   0  0  0  0  0  0  0  0  0  0  0  0
  -26.9026  -26.0739   20.4578 C   0  0  0  0  0  0  0  0  0  0  0  0
  -29.4421  -19.1630   20.7817 C   0  0  0  0  0  0  0  0  0  0  0  0
  -24.3192  -23.6894   24.5462 C   0  0  0  0  0  0  0  0  0  0  0  0
  -29.3430  -20.6208   20.3579 C   0  0  0  0  0  0  0  0  0  0  0  0
  -24.2047  -22.5733   23.5064 C   0  0  0  0  0  0  0  0  0  0  0  0
  -23.4950  -23.3841   25.7950 C   0  0  0  0  0  0  0  0  0  0  0  0
  -21.9624  -21.9534   24.4997 C   0  0  0  0  0  0  0  0  0  0  0  0
  -28.1978  -20.8221   19.3573 C   0  0  1  0  0  0  0  0  0  0  0  0
  -27.9348  -24.5599   18.7359 C   0  0  1  0  0  0  0  0  0  0  0  0
  -22.7319  -22.2420   23.1994 C   0  0  2  0  0  0  0  0  0  0  0  0
  -18.8435  -30.5838   23.2297 C   0  0  0  0  0  0  0  0  0  0  0  0
  -30.2210  -31.6326   21.2149 C   0  0  0  0  0  0  0  0  0  0  0  0
  -23.1690  -28.9722   23.9363 C   0  0  0  0  0  0  0  0  0  0  0  0
  -23.3612  -31.3873   23.3086 C   0  0  0  0  0  0  0  0  0  0  0  0
  -29.7409  -24.9394   22.9732 C   0  0  0  0  0  0  0  0  0  0  0  0
  -30.3877  -27.2566   23.6664 C   0  0  0  0  0  0  0  0  0  0  0  0
  -31.7792  -26.0191   22.0066 C   0  0  0  0  0  0  0  0  0  0  0  0
  -29.3532  -29.9633   17.9079 C   0  0  0  0  0  0  0  0  0  0  0  0
  -21.5289  -29.9891   22.2700 C   0  0  0  0  0  0  0  0  0  0  0  0
  -22.1743  -27.2101   21.5863 C   0  0  0  0  0  0  0  0  0  1  0  0
  -17.5309  -25.9531   22.8645 C   0  0  0  0  0  0  0  0  0  0  0  0
  -18.6127  -24.1906   26.0729 C   0  0  0  0  0  0  0  0  0  0  0  0
  -18.2374  -25.3635   25.1866 C   0  0  0  0  0  0  0  0  0  0  0  0
  -29.5146  -26.9029   21.3119 C   0  0  1  0  0  0  0  0  0  0  0  0
  -30.1289  -30.4820   20.2248 C   0  0  2  0  0  0  0  0  0  0  0  0
  -22.3890  -30.2269   23.5355 C   0  0  0  0  0  0  0  0  0  0  0  0
  -30.3307  -26.2747   22.4768 C   0  0  0  0  0  0  0  0  0  0  0  0
  -23.5429  -20.1385   22.1993 N   0  0  0  0  0  0  0  0  0  0  0  0
  -18.2621  -28.2555   23.0194 N   0  0  0  0  0  0  0  0  0  0  0  0
  -22.6102  -21.1060   22.2006 N   0  0  0  0  0  0  0  0  0  0  0  0
  -28.1036  -25.6069   19.7456 N   0  0  0  0  0  0  0  0  0  0  0  0
  -22.1081  -23.0800   25.4348 N   0  0  0  0  0  0  0  0  0  0  0  0
  -20.6193  -21.8117   21.1287 N   0  0  0  0  0  0  0  0  0  0  0  0
  -20.1899  -18.2693   19.8402 N   0  0  0  0  0  0  0  0  0  0  0  0
  -28.2681  -22.1642   18.8230 N   0  0  0  0  0  0  0  0  0  0  0  0
  -30.0654  -28.1545   20.8035 N   0  0  0  0  0  0  0  0  0  0  0  0
  -19.7848  -23.4936   25.5919 N   0  0  0  0  0  0  0  0  0  0  0  0
  -29.4867  -30.9854   18.9777 N   0  3  0  0  0  0  0  0  0  0  0  0
  -17.8990  -24.8760   23.8239 N   0  3  0  0  0  0  0  0  0  0  0  0
  -21.4399  -19.4539   18.3260 O   0  0  0  0  0  0  0  0  0  0  0  0
  -27.1701  -23.2653   20.5564 O   0  0  0  0  0  0  0  0  0  0  0  0
  -30.4268  -25.6042   19.5491 O   0  0  0  0  0  0  0  0  0  0  0  0
  -28.1790  -29.4428   21.2020 O   0  0  0  0  0  0  0  0  0  0  0  0
  -21.2706  -24.7729   26.7804 O   0  0  0  0  0  0  0  0  0  0  0  0
  -26.0684  -14.7275   19.9881 O   0  0  0  0  0  0  0  0  0  0  0  0
  -22.0451  -26.6338   20.2872 O   0  0  0  0  0  0  0  0  0  1  0  0
  -24.0261   -9.8756   21.6290 F   0  0  0  0  0  0  0  0  0  0  0  0
  -27.4935  -13.0970   21.7066 F   0  0  0  0  0  0  0  0  0  0  0  0
  1  2  1  0  0  0  0
  1  5  2  0  0  0  0
  2  6  2  0  0  0  0
  3  8  2  0  0  0  0
  3 16  1  0  0  0  0
  4  9  1  0  0  0  0
  4 16  2  0  0  0  0
  5 18  1  0  0  0  0
  6 20  1  0  0  0  0
  7 10  2  0  0  0  0
  7 19  1  0  0  0  0
  8 24  1  0  0  0  0
  9 24  2  0  0  0  0
 10 25  1  0  0  0  0
 11 12  2  0  0  0  0
 11 26  1  0  0  0  0
 12 27  1  0  0  0  0
 13 21  1  0  0  0  0
 13 25  2  0  0  0  0
 14 22  1  0  0  0  0
 14 30  2  0  0  0  0
 15 27  2  0  0  0  0
 15 28  1  0  0  0  0
 16 29  1  0  0  0  0
 17 29  1  0  0  0  0
 17 32  2  0  0  0  0
 17 33  1  0  0  0  0
 18 20  2  0  0  0  0
 18 38  1  0  0  0  0
 19 21  2  0  0  0  0
 19 39  1  0  0  0  0
 20 47  1  0  0  0  0
 21 40  1  0  0  0  0
 22 23  2  0  0  0  0
 22 59  1  0  0  0  0
 23 31  1  0  0  0  0
 23 58  1  0  0  0  0
 24 84  1  0  0  0  0
 25 85  1  0  0  0  0
 26 28  2  0  0  0  0
 26 84  1  0  0  0  0
 27 86  1  0  0  0  0
 28 87  1  0  0  0  0
 29 67  2  0  0  0  0
 30 60  1  0  0  0  0
 30 68  1  0  0  0  0
 31 50  1  0  0  0  0
 31 68  2  0  0  0  0
 32 69  1  0  0  0  0
 32 72  1  0  0  0  0
 33 73  1  0  0  0  0
 33 79  2  0  0  0  0
 34 48  1  0  0  0  0
 34 74  1  0  0  0  0
 34 80  2  0  0  0  0
 35 63  1  0  0  0  0
 35 70  1  0  0  0  0
 35 81  2  0  0  0  0
 36 64  1  0  0  0  0
 36 75  1  0  0  0  0
 36 82  2  0  0  0  0
 37 71  1  0  0  0  0
 37 76  1  0  0  0  0
 37 83  2  0  0  0  0
 38 41  1  0  0  0  0
 39 48  1  0  0  0  0
 40 70  1  0  0  0  0
 41 43  1  0  0  0  0
 42 44  1  0  0  0  0
 42 45  1  0  0  0  0
 43 47  1  0  0  0  0
 44 49  1  0  0  0  0
 45 71  1  0  0  0  0
 46 49  1  0  0  0  0
 46 71  1  0  0  0  0
 47 74  1  0  0  0  0
 48 70  1  0  0  0  0
 49 69  1  0  0  0  0
 51 64  1  0  0  0  0
 52 65  1  0  0  0  0
 53 65  1  0  0  0  0
 54 66  1  0  0  0  0
 55 66  1  0  0  0  0
 56 66  1  0  0  0  0
 57 77  1  0  0  0  0
 58 65  1  0  0  0  0
 59 85  1  0  0  0  0
 60 78  1  0  0  0  0
 61 62  1  0  0  0  0
 61 76  1  0  0  0  0
 62 78  1  0  0  0  0
 63 66  1  0  0  0  0
 63 75  1  0  0  0  0
 64 77  1  0  0  0  0
 67 69  1  0  0  0  0
M  CHG  2  77   1  78   1
M  ISO  4  37 100  59 101  76 100  85 101
M  END
> <Batch ID>
0129

> <Smiles>
CNC(C)C(=O)NC(C(=O)N1Cc2cc([101O:1][101CH2:1]c3cc(CNCC[100NH:0][100C:0](=O)N4CCCC(n5nc(-c6ccc(Oc7ccc(F)cc7F)cc6)c(C(N)=O)c5N)C4)nc(C)c3CC(C)C)ccc2CC1C(=O)NC1CCCc2ccccc21)C(C)(C)C

> <Shape>
0.209

> <Color>
0.054

> <Negative vol penalty>
0.000

$$$$

  -OEChem-04052320453D

 85 94  0     1  0  0  0  0  0999 V2000
  -35.1426  -31.3564   19.7055 C   0  0  0  0  0  0  0  0  0  0  0  0
  -34.7837  -30.3135   20.5535 C   0  0  0  0  0  0  0  0  0  0  0  0
  -23.0368   -9.9454   19.8796 C   0  0  0  0  0  0  0  0  0  0  0  0
  -23.8487   -9.7757   22.1487 C   0  0  0  0  0  0  0  0  0  0  0  0
  -34.3086  -31.7099   18.6456 C   0  0  0  0  0  0  0  0  0  0  0  0
  -33.5901  -29.6242   20.3426 C   0  0  0  0  0  0  0  0  0  0  0  0
  -34.1513  -24.6057   20.7239 C   0  0  0  0  0  0  0  0  0  0  0  0
  -30.6414  -18.0025   24.4086 C   0  0  0  0  0  0  0  0  0  0  0  0
  -32.7989  -17.1710   23.7080 C   0  0  0  0  0  0  0  0  0  0  0  0
  -30.0206  -17.1944   23.4562 C   0  0  0  0  0  0  0  0  0  0  0  0
  -32.1781  -16.3628   22.7556 C   0  0  0  0  0  0  0  0  0  0  0  0
  -22.2821   -8.7868   20.0629 C   0  0  0  0  0  0  0  0  0  0  0  0
  -23.0939   -8.6171   22.3321 C   0  0  0  0  0  0  0  0  0  0  0  0
  -34.2258  -24.0692   22.0086 C   0  0  0  0  0  0  0  0  0  0  0  0
  -19.8691   -7.8191   22.9517 C   0  0  0  0  0  0  0  0  0  0  0  0
  -19.1384   -7.7039   24.1343 C   0  0  0  0  0  0  0  0  0  0  0  0
  -31.9047  -23.4272   21.8685 C   0  0  0  0  0  0  0  0  0  0  0  0
  -20.3679   -5.7022   24.6988 C   0  0  0  0  0  0  0  0  0  0  0  0
  -23.8201  -10.4398   20.9224 C   0  0  0  0  0  0  0  0  0  0  0  0
  -24.1958  -12.9624   20.9776 C   0  0  0  0  0  0  0  0  0  0  0  0
  -33.1089  -31.0182   18.4158 C   0  0  0  0  0  0  0  0  0  0  0  0
  -32.9480  -24.5667   20.0049 C   0  0  0  0  0  0  0  0  0  0  0  0
  -32.7387  -29.9696   19.2794 C   0  0  0  0  0  0  0  0  0  0  0  0
  -31.8183  -23.9616   20.5739 C   0  0  0  0  0  0  0  0  0  0  0  0
  -32.0306  -17.9909   24.5345 C   0  0  0  0  0  0  0  0  0  0  0  0
  -30.7889  -16.3745   22.6297 C   0  0  0  0  0  0  0  0  0  0  0  0
  -22.3106   -8.1226   21.2892 C   0  0  0  0  0  0  0  0  0  0  0  0
  -33.1016  -23.4823   22.5822 C   0  0  0  0  0  0  0  0  0  0  0  0
  -20.8491   -6.8759   22.6426 C   0  0  0  0  0  0  0  0  0  0  0  0
  -19.3879   -6.6454   25.0079 C   0  0  0  0  0  0  0  0  0  0  0  0
  -21.0985   -5.8174   23.5162 C   0  0  0  0  0  0  0  0  0  0  0  0
  -24.6004  -11.6363   20.7335 C   0  0  0  0  0  0  0  0  0  0  0  0
  -25.2902  -13.7222   20.6437 C   0  0  0  0  0  0  0  0  0  0  0  0
  -22.9429  -13.4627   21.4628 C   0  0  0  0  0  0  0  0  0  0  0  0
  -30.9778  -26.7555   18.8086 C   0  0  0  0  0  0  0  0  0  0  0  0
  -29.4925  -24.1636   17.5443 C   0  0  0  0  0  0  0  0  0  0  0  0
  -28.8700  -20.8123   17.7125 C   0  0  0  0  0  0  0  0  0  0  0  0
  -30.7736  -14.6820   20.7639 C   0  0  0  0  0  0  0  0  0  0  0  0
  -32.2170  -31.4674   17.2855 C   0  0  0  0  0  0  0  0  0  0  0  0
  -32.8912  -25.1260   18.6098 C   0  0  0  0  0  0  0  0  0  0  0  0
  -30.5081  -23.8762   19.8359 C   0  0  0  0  0  0  0  0  0  0  0  0
  -31.1514  -30.4423   16.9062 C   0  0  0  0  0  0  0  0  0  0  0  0
  -29.5706  -12.4614   18.2541 C   0  0  0  0  0  0  0  0  0  0  0  0
  -30.4634  -29.9004   18.1551 C   0  0  0  0  0  0  0  0  0  0  0  0
  -28.1370  -12.1578   18.6955 C   0  0  0  0  0  0  0  0  0  0  0  0
  -30.5161  -12.5904   19.4471 C   0  0  0  0  0  0  0  0  0  0  0  0
  -28.6518  -13.2369   20.9221 C   0  0  0  0  0  0  0  0  0  0  0  0
  -33.3550  -21.2160   26.2130 C   0  0  0  0  0  0  0  0  0  0  0  0
  -33.4282  -20.5631   23.8449 C   0  0  0  0  0  0  0  0  0  0  0  0
  -31.4639  -29.1818   19.0683 C   0  0  1  0  0  0  0  0  0  0  0  0
  -31.4769  -25.4906   18.1693 C   0  0  1  0  0  0  0  0  0  0  0  0
  -34.5506  -21.8420   25.5047 C   0  0  1  0  0  0  0  0  0  0  0  0
  -27.6500  -13.1623   19.7582 C   0  0  2  0  0  0  0  0  0  0  0  0
  -34.1050  -21.9074   24.0472 C   0  0  2  0  0  0  0  0  0  1  0  0
  -27.5882  -18.9867   16.5630 C   0  0  0  0  0  0  0  0  0  0  0  0
  -26.9114  -25.1782   18.8166 C   0  0  0  0  0  0  0  0  0  0  0  0
  -25.9247  -22.9047   18.4614 C   0  0  0  0  0  0  0  0  0  0  0  0
  -26.6463  -24.2693   16.5019 C   0  0  0  0  0  0  0  0  0  0  0  0
  -31.3443  -19.3216   17.0685 C   0  0  0  0  0  0  0  0  0  0  0  0
  -32.6982  -18.8602   25.5589 C   0  0  0  0  0  0  0  0  0  0  0  0
  -34.9481  -23.1797   26.1083 C   0  0  0  0  0  0  0  0  0  0  0  0
  -28.3972  -23.2305   18.0011 C   0  0  1  0  0  0  0  0  0  0  0  0
  -28.9145  -19.7252   16.6539 C   0  0  2  0  0  0  0  0  0  0  0  0
  -26.9939  -23.8988   17.9602 C   0  0  0  0  0  0  0  0  0  0  0  0
  -25.8539  -11.5549   20.2794 N   0  0  0  0  0  0  0  0  0  0  0  0
  -26.2464  -12.8395   20.2355 N   0  0  0  0  0  0  0  0  0  0  0  0
  -30.5013  -24.4429   18.4771 N   0  0  0  0  0  0  0  0  0  0  0  0
  -29.9923  -13.5617   20.4099 N   0  0  0  0  0  0  0  0  0  0  0  0
  -25.5183  -15.0527   20.6624 N   0  0  0  0  0  0  0  0  0  0  0  0
  -21.9258  -12.5445   21.7573 N   0  0  0  0  0  0  0  0  0  0  0  0
  -30.1586  -15.5533   21.6623 N   0  0  0  0  0  0  0  0  0  0  0  0
  -31.7629  -27.8633   18.5520 N   0  0  0  0  0  0  0  0  0  0  0  0
  -28.5123  -22.0318   17.1775 N   0  0  0  0  0  0  0  0  0  0  0  0
  -32.7298  -20.3047   25.1711 N   0  3  1  0  0  0  0  0  0  0  0  0
  -29.9825  -18.7357   16.9721 N   0  3  0  0  0  0  0  0  0  0  0  0
  -22.7259  -14.6888   21.6147 O   0  0  0  0  0  0  0  0  0  0  0  0
  -29.9552  -26.7287   19.4834 O   0  0  0  0  0  0  0  0  0  0  0  0
  -29.4581  -24.6220   16.3996 O   0  0  0  0  0  0  0  0  0  0  0  0
  -29.1234  -20.6001   18.8962 O   0  0  0  0  0  0  0  0  0  0  0  0
  -31.8941  -14.8697   20.2830 O   0  0  0  0  0  0  0  0  0  0  0  0
  -36.0684  -23.6841   25.4011 O   0  0  0  0  0  0  0  0  0  0  0  0
  -21.5741   -6.9921   21.4685 O   0  0  0  0  0  0  0  0  0  0  0  0
  -33.1714  -22.9584   23.8362 O   0  0  0  0  0  0  0  0  0  1  0  0
  -18.6873   -6.5357   26.1442 F   0  0  0  0  0  0  0  0  0  0  0  0
  -22.0396   -4.9088   23.2252 F   0  0  0  0  0  0  0  0  0  0  0  0
  1  2  1  0  0  0  0
  1  5  2  0  0  0  0
  2  6  2  0  0  0  0
  3 12  2  0  0  0  0
  3 19  1  0  0  0  0
  4 13  1  0  0  0  0
  4 19  2  0  0  0  0
  5 21  1  0  0  0  0
  6 23  1  0  0  0  0
  7 14  2  0  0  0  0
  7 22  1  0  0  0  0
  8 10  2  0  0  0  0
  8 25  1  0  0  0  0
  9 11  1  0  0  0  0
  9 25  2  0  0  0  0
 10 26  1  0  0  0  0
 11 26  2  0  0  0  0
 12 27  1  0  0  0  0
 13 27  2  0  0  0  0
 14 28  1  0  0  0  0
 15 16  2  0  0  0  0
 15 29  1  0  0  0  0
 16 30  1  0  0  0  0
 17 24  1  0  0  0  0
 17 28  2  0  0  0  0
 18 30  2  0  0  0  0
 18 31  1  0  0  0  0
 19 32  1  0  0  0  0
 20 32  1  0  0  0  0
 20 33  2  0  0  0  0
 20 34  1  0  0  0  0
 21 23  2  0  0  0  0
 21 39  1  0  0  0  0
 22 24  2  0  0  0  0
 22 40  1  0  0  0  0
 23 50  1  0  0  0  0
 24 41  1  0  0  0  0
 25 60  1  0  0  0  0
 26 71  1  0  0  0  0
 27 82  1  0  0  0  0
 28 83  1  0  0  0  0
 29 31  2  0  0  0  0
 29 82  1  0  0  0  0
 30 84  1  0  0  0  0
 31 85  1  0  0  0  0
 32 65  2  0  0  0  0
 33 66  1  0  0  0  0
 33 69  1  0  0  0  0
 34 70  1  0  0  0  0
 34 76  2  0  0  0  0
 35 51  1  0  0  0  0
 35 72  1  0  0  0  0
 35 77  2  0  0  0  0
 36 62  1  0  0  0  0
 36 67  1  0  0  0  0
 36 78  2  0  0  0  0
 37 63  1  0  0  0  0
 37 73  1  0  0  0  0
 37 79  2  0  0  0  0
 38 68  1  0  0  0  0
 38 71  1  0  0  0  0
 38 80  2  0  0  0  0
 39 42  1  0  0  0  0
 40 51  1  0  0  0  0
 41 67  1  0  0  0  0
 42 44  1  0  0  0  0
 43 45  1  0  0  0  0
 43 46  1  0  0  0  0
 44 50  1  0  0  0  0
 45 53  1  0  0  0  0
 46 68  1  0  0  0  0
 47 53  1  0  0  0  0
 47 68  1  0  0  0  0
 48 52  1  0  0  0  0
 48 74  1  0  0  0  0
 49 54  1  0  0  0  0
 49 74  1  0  0  0  0
 50 72  1  0  0  0  0
 51 67  1  0  0  0  0
 52 54  1  0  0  0  0
 52 61  1  0  0  0  0
 53 66  1  0  0  0  0
 54 83  1  0  0  0  0
 55 63  1  0  0  0  0
 56 64  1  0  0  0  0
 57 64  1  0  0  0  0
 58 64  1  0  0  0  0
 59 75  1  0  0  0  0
 60 74  1  0  0  0  0
 61 81  1  0  0  0  0
 62 64  1  0  0  0  0
 62 73  1  0  0  0  0
 63 75  1  0  0  0  0
 65 66  1  0  0  0  0
M  CHG  2  74   1  75   1
M  ISO  4  38 100  54 101  71 100  83 101
M  END
> <Batch ID>
0129

> <Smiles>
CNC(C)C(=O)NC(C(=O)N1Cc2cc([101O:1][101CH:1]3CN(Cc4ccc([100NH:0][100C:0](=O)N5CCCC(n6nc(-c7ccc(Oc8ccc(F)cc8F)cc7)c(C(N)=O)c6N)C5)cc4)CC3CO)ccc2CC1C(=O)NC1CCCc2ccccc21)C(C)(C)C

> <Shape>
0.230

> <Color>
0.185

> <Negative vol penalty>
0.000

$$$$

  -OEChem-04052320453D

 84 92  0     1  0  0  0  0  0999 V2000
  -29.8757  -22.0846   14.9864 C   0  0  0  0  0  0  0  0  0  0  0  0
  -29.5497  -21.9694   16.3339 C   0  0  0  0  0  0  0  0  0  0  0  0
  -27.6075  -14.8903   19.3892 C   0  0  0  0  0  0  0  0  0  0  0  0
  -27.4179  -14.8767   21.7977 C   0  0  0  0  0  0  0  0  0  0  0  0
  -30.1218  -23.3412   14.4349 C   0  0  0  0  0  0  0  0  0  0  0  0
  -29.4707  -23.1108   17.1310 C   0  0  0  0  0  0  0  0  0  0  0  0
  -25.3801  -23.1164   20.1163 C   0  0  0  0  0  0  0  0  0  0  0  0
  -27.0592  -13.6087   19.3388 C   0  0  0  0  0  0  0  0  0  0  0  0
  -26.8696  -13.5952   21.7474 C   0  0  0  0  0  0  0  0  0  0  0  0
  -25.4285  -22.3268   21.2643 C   0  0  0  0  0  0  0  0  0  0  0  0
  -25.0861  -10.4636   22.2279 C   0  0  0  0  0  0  0  0  0  0  0  0
  -23.9633  -10.2064   23.0146 C   0  0  0  0  0  0  0  0  0  0  0  0
  -31.0761  -23.8513   27.0862 C   0  0  0  0  0  0  0  0  0  0  0  0
  -31.8753  -22.6889   27.2176 C   0  0  0  0  0  0  0  0  0  0  0  0
  -25.9361  -24.2832   22.5811 C   0  0  0  0  0  0  0  0  0  0  0  0
  -22.7477  -11.9359   21.8449 C   0  0  0  0  0  0  0  0  0  0  0  0
  -27.7869  -15.5243   20.6187 C   0  0  0  0  0  0  0  0  0  0  0  0
  -27.8423  -18.0161   20.0752 C   0  0  0  0  0  0  0  0  0  0  0  0
  -30.0363  -24.4995   15.2234 C   0  0  0  0  0  0  0  0  0  0  0  0
  -25.6204  -24.4959   20.1905 C   0  0  0  0  0  0  0  0  0  0  0  0
  -29.7172  -24.3840   16.5898 C   0  0  0  0  0  0  0  0  0  0  0  0
  -25.8875  -25.0885   21.4329 C   0  0  0  0  0  0  0  0  0  0  0  0
  -26.6902  -12.9611   20.5179 C   0  0  0  0  0  0  0  0  0  0  0  0
  -25.7094  -22.9097   22.4965 C   0  0  0  0  0  0  0  0  0  0  0  0
  -25.0397  -11.4571   21.2498 C   0  0  0  0  0  0  0  0  0  0  0  0
  -22.7941  -10.9425   22.8231 C   0  0  0  0  0  0  0  0  0  0  0  0
  -23.8705  -12.1932   21.0583 C   0  0  0  0  0  0  0  0  0  0  0  0
  -28.3538  -16.8479   20.6714 C   0  0  0  0  0  0  0  0  0  0  0  0
  -29.7911  -23.4380   26.8119 C   0  0  0  0  0  0  0  0  0  0  0  0
  -31.0544  -21.6007   27.0194 C   0  0  0  0  0  0  0  0  0  0  0  0
  -28.7399  -18.9977   20.4177 C   0  0  0  0  0  0  0  0  0  0  0  0
  -26.6614  -18.1977   19.2826 C   0  0  0  0  0  0  0  0  0  0  0  0
  -27.7939  -26.4635   18.9624 C   0  0  0  0  0  0  0  0  0  0  0  0
  -25.9227  -28.7447   20.3107 C   0  0  0  0  0  0  0  0  0  0  0  0
  -23.6175  -29.5683   22.6886 C   0  0  0  0  0  0  0  0  0  0  0  0
  -32.5951  -19.5927   24.9602 C   0  0  0  0  0  0  0  0  0  0  0  0
  -30.3572  -25.8318   14.5935 C   0  0  0  0  0  0  0  0  0  0  0  0
  -25.5380  -25.3380   18.9469 C   0  0  0  0  0  0  0  0  0  0  0  0
  -26.1328  -26.5683   21.5694 C   0  0  0  0  0  0  0  0  0  0  0  0
  -29.8859  -27.0256   15.4200 C   0  0  0  0  0  0  0  0  0  0  0  0
  -33.3596  -19.6409   21.4831 C   0  0  0  0  0  0  0  0  0  0  0  0
  -30.2683  -26.8446   16.8855 C   0  0  0  0  0  0  0  0  0  0  0  0
  -32.1172  -19.0359   20.8270 C   0  0  0  0  0  0  0  0  0  0  0  0
  -33.6749  -18.9715   22.8190 C   0  0  0  0  0  0  0  0  0  0  0  0
  -31.3122  -18.3395   23.1217 C   0  0  0  0  0  0  0  0  0  0  0  0
  -29.5975  -25.6010   17.4813 C   0  0  1  0  0  0  0  0  0  0  0  0
  -26.3064  -26.6509   19.0623 C   0  0  1  0  0  0  0  0  0  0  0  0
  -30.9217  -19.0198   21.7985 C   0  0  2  0  0  0  0  0  0  0  0  0
  -28.5685  -24.2357   26.5842 C   0  0  0  0  0  0  0  0  0  0  0  0
  -26.2668  -17.8384   24.3099 C   0  0  0  0  0  0  0  0  0  0  0  0
  -21.9639  -30.9841   23.9369 C   0  0  0  0  0  0  0  0  0  0  0  0
  -28.4242  -29.7933   21.7082 C   0  0  0  0  0  0  0  0  0  0  0  0
  -26.9354  -31.0793   23.2567 C   0  0  0  0  0  0  0  0  0  0  0  0
  -26.9088  -31.5688   20.8108 C   0  0  0  0  0  0  0  0  0  0  0  0
  -21.4008  -28.7589   20.9025 C   0  0  0  0  0  0  0  0  0  0  0  0
  -31.3726  -20.1581   27.0446 C   0  0  0  0  0  0  0  0  0  0  0  0
  -27.3967  -18.8275   24.5606 C   0  0  0  0  0  0  0  0  0  0  0  0
  -28.1592  -21.1723   25.0263 C   0  0  0  0  0  0  0  0  0  0  0  0
  -28.5820  -21.2068   26.5019 C   0  0  0  0  0  0  0  0  0  0  0  0
  -26.1678  -20.7837   23.4588 C   0  0  0  0  0  0  0  0  0  1  0  0
  -25.8692  -29.4252   21.6571 C   0  0  1  0  0  0  0  0  0  0  0  0
  -22.3151  -30.3434   22.6031 C   0  0  2  0  0  0  0  0  0  0  0  0
  -26.9245  -20.2935   24.7034 C   0  0  1  0  0  0  0  0  0  0  0  0
  -27.0317  -30.4384   21.8557 C   0  0  0  0  0  0  0  0  0  0  0  0
  -29.4884  -17.0655   21.3418 N   0  0  0  0  0  0  0  0  0  0  0  0
  -29.7898  -22.0681   26.7733 N   0  0  0  0  0  0  0  0  0  0  0  0
  -29.6973  -18.3817   21.1687 N   0  0  0  0  0  0  0  0  0  0  0  0
  -26.0476  -27.3482   20.3237 N   0  0  0  0  0  0  0  0  0  0  0  0
  -32.5005  -18.9910   23.6945 N   0  0  0  0  0  0  0  0  0  0  0  0
  -28.7958  -20.3190   20.1466 N   0  0  0  0  0  0  0  0  0  0  0  0
  -25.4627  -18.5194   19.9338 N   0  0  0  0  0  0  0  0  0  0  0  0
  -28.2086  -25.8723   17.7844 N   0  0  0  0  0  0  0  0  0  0  0  0
  -24.5387  -30.0139   21.7643 N   0  0  0  0  0  0  0  0  0  0  0  0
  -31.4343  -19.5734   25.7236 N   0  0  0  0  0  0  0  0  0  0  0  0
  -21.1988  -29.4387   22.2080 N   0  3  0  0  0  0  0  0  0  0  0  0
  -26.6654  -18.0622   18.0356 O   0  0  0  0  0  0  0  0  0  0  0  0
  -28.5122  -26.8297   19.8852 O   0  0  0  0  0  0  0  0  0  0  0  0
  -25.8491  -29.4263   19.2852 O   0  0  0  0  0  0  0  0  0  0  0  0
  -23.8008  -28.6609   23.4970 O   0  0  0  0  0  0  0  0  0  0  0  0
  -33.6353  -20.1136   25.3767 O   0  0  0  0  0  0  0  0  0  0  0  0
  -26.1550  -11.7107   20.4691 O   0  0  0  0  0  0  0  0  0  0  0  0
  -25.7580  -22.1412   23.6186 O   0  0  0  0  0  0  0  0  0  1  0  0
  -21.7155  -10.6944   23.5775 F   0  0  0  0  0  0  0  0  0  0  0  0
  -23.8195  -13.1480   20.1194 F   0  0  0  0  0  0  0  0  0  0  0  0
  1  2  1  0  0  0  0
  1  5  2  0  0  0  0
  2  6  2  0  0  0  0
  3  8  2  0  0  0  0
  3 17  1  0  0  0  0
  4  9  1  0  0  0  0
  4 17  2  0  0  0  0
  5 19  1  0  0  0  0
  6 21  1  0  0  0  0
  7 10  2  0  0  0  0
  7 20  1  0  0  0  0
  8 23  1  0  0  0  0
  9 23  2  0  0  0  0
 10 24  1  0  0  0  0
 11 12  2  0  0  0  0
 11 25  1  0  0  0  0
 12 26  1  0  0  0  0
 13 14  1  0  0  0  0
 13 29  2  0  0  0  0
 14 30  2  0  0  0  0
 15 22  1  0  0  0  0
 15 24  2  0  0  0  0
 16 26  2  0  0  0  0
 16 27  1  0  0  0  0
 17 28  1  0  0  0  0
 18 28  1  0  0  0  0
 18 31  2  0  0  0  0
 18 32  1  0  0  0  0
 19 21  2  0  0  0  0
 19 37  1  0  0  0  0
 20 22  2  0  0  0  0
 20 38  1  0  0  0  0
 21 46  1  0  0  0  0
 22 39  1  0  0  0  0
 23 81  1  0  0  0  0
 24 82  1  0  0  0  0
 25 27  2  0  0  0  0
 25 81  1  0  0  0  0
 26 83  1  0  0  0  0
 27 84  1  0  0  0  0
 28 65  2  0  0  0  0
 29 49  1  0  0  0  0
 29 66  1  0  0  0  0
 30 56  1  0  0  0  0
 30 66  1  0  0  0  0
 31 67  1  0  0  0  0
 31 70  1  0  0  0  0
 32 71  1  0  0  0  0
 32 76  2  0  0  0  0
 33 47  1  0  0  0  0
 33 72  1  0  0  0  0
 33 77  2  0  0  0  0
 34 61  1  0  0  0  0
 34 68  1  0  0  0  0
 34 78  2  0  0  0  0
 35 62  1  0  0  0  0
 35 73  1  0  0  0  0
 35 79  2  0  0  0  0
 36 69  1  0  0  0  0
 36 74  1  0  0  0  0
 36 80  2  0  0  0  0
 37 40  1  0  0  0  0
 38 47  1  0  0  0  0
 39 68  1  0  0  0  0
 40 42  1  0  0  0  0
 41 43  1  0  0  0  0
 41 44  1  0  0  0  0
 42 46  1  0  0  0  0
 43 48  1  0  0  0  0
 44 69  1  0  0  0  0
 45 48  1  0  0  0  0
 45 69  1  0  0  0  0
 46 72  1  0  0  0  0
 47 68  1  0  0  0  0
 48 67  1  0  0  0  0
 50 57  1  0  0  0  0
 51 62  1  0  0  0  0
 52 64  1  0  0  0  0
 53 64  1  0  0  0  0
 54 64  1  0  0  0  0
 55 75  1  0  0  0  0
 56 74  1  0  0  0  0
 57 63  1  0  0  0  0
 58 59  1  0  0  0  0
 58 63  1  0  0  0  0
 59 66  1  0  0  0  0
 60 63  1  0  0  0  0
 60 82  1  0  0  0  0
 61 64  1  0  0  0  0
 61 73  1  0  0  0  0
 62 75  1  0  0  0  0
 65 67  1  0  0  0  0
M  CHG  1  75   1
M  ISO  4  36 100  60 101  74 100  82 101
M  END
> <Batch ID>
0129

> <Smiles>
CCC(CCn1c(C)ccc1C[100NH:0][100C:0](=O)N1CCCC(n2nc(-c3ccc(Oc4ccc(F)cc4F)cc3)c(C(N)=O)c2N)C1)[101CH2:1][101O:1]c1ccc2c(c1)CN(C(=O)C(NC(=O)C(C)NC)C(C)(C)C)C(C(=O)NC1CCCc3ccccc31)C2

> <Shape>
0.197

> <Color>
0.087

> <Negative vol penalty>
0.000

$$$$

  -OEChem-04052320453D

 84 92  0     1  0  0  0  0  0999 V2000
  -28.6832  -33.6850   23.5435 C   0  0  0  0  0  0  0  0  0  0  0  0
  -28.7074  -32.3840   23.0513 C   0  0  0  0  0  0  0  0  0  0  0  0
  -22.9719  -10.1245   19.9595 C   0  0  0  0  0  0  0  0  0  0  0  0
  -24.1006   -9.4971   22.0014 C   0  0  0  0  0  0  0  0  0  0  0  0
  -27.5698  -34.1423   24.2473 C   0  0  0  0  0  0  0  0  0  0  0  0
  -27.6186  -31.5391   23.2635 C   0  0  0  0  0  0  0  0  0  0  0  0
  -26.3092  -28.9741   19.0981 C   0  0  0  0  0  0  0  0  0  0  0  0
  -29.7588  -21.1289   22.6763 C   0  0  0  0  0  0  0  0  0  0  0  0
  -29.2743  -22.3204   22.1367 C   0  0  0  0  0  0  0  0  0  0  0  0
  -22.2535   -8.9292   19.9892 C   0  0  0  0  0  0  0  0  0  0  0  0
  -23.3822   -8.3018   22.0311 C   0  0  0  0  0  0  0  0  0  0  0  0
  -27.0902  -27.8704   18.7581 C   0  0  0  0  0  0  0  0  0  0  0  0
  -20.2809   -7.2826   22.9049 C   0  0  0  0  0  0  0  0  0  0  0  0
  -19.7273   -6.8911   24.1239 C   0  0  0  0  0  0  0  0  0  0  0  0
  -25.4363  -26.4082   19.7305 C   0  0  0  0  0  0  0  0  0  0  0  0
  -30.5398  -21.9206   20.1179 C   0  0  0  0  0  0  0  0  0  0  0  0
  -21.0290   -4.8567   24.0617 C   0  0  0  0  0  0  0  0  0  0  0  0
  -23.8954  -10.4084   20.9655 C   0  0  0  0  0  0  0  0  0  0  0  0
  -24.2700  -12.8710   21.5162 C   0  0  0  0  0  0  0  0  0  0  0  0
  -26.4628  -33.3056   24.4598 C   0  0  0  0  0  0  0  0  0  0  0  0
  -25.0890  -28.8035   19.7676 C   0  0  0  0  0  0  0  0  0  0  0  0
  -26.4899  -31.9852   23.9719 C   0  0  0  0  0  0  0  0  0  0  0  0
  -24.6405  -27.5112   20.0756 C   0  0  0  0  0  0  0  0  0  0  0  0
  -30.6339  -20.3333   21.9368 C   0  0  0  0  0  0  0  0  0  0  0  0
  -31.0244  -20.7292   20.6576 C   0  0  0  0  0  0  0  0  0  0  0  0
  -29.6648  -22.7162   20.8575 C   0  0  0  0  0  0  0  0  0  0  0  0
  -22.4587   -8.0179   21.0250 C   0  0  0  0  0  0  0  0  0  0  0  0
  -26.6552  -26.5874   19.0769 C   0  0  0  0  0  0  0  0  0  0  0  0
  -21.2085   -6.4611   22.2643 C   0  0  0  0  0  0  0  0  0  0  0  0
  -20.1014   -5.6782   24.7023 C   0  0  0  0  0  0  0  0  0  0  0  0
  -21.5826   -5.2482   22.8427 C   0  0  0  0  0  0  0  0  0  0  0  0
  -24.6382  -11.6427   20.9350 C   0  0  0  0  0  0  0  0  0  0  0  0
  -25.3038  -13.7207   21.2068 C   0  0  0  0  0  0  0  0  0  0  0  0
  -23.0984  -13.2131   22.2684 C   0  0  0  0  0  0  0  0  0  0  0  0
  -23.9323  -29.7060   22.5874 C   0  0  0  0  0  0  0  0  0  0  0  0
  -21.1838  -28.4290   21.4310 C   0  0  0  0  0  0  0  0  0  0  0  0
  -19.6842  -26.2487   19.2760 C   0  0  0  0  0  0  0  0  0  0  0  0
  -30.7422  -14.8144   20.7524 C   0  0  0  0  0  0  0  0  0  0  0  0
  -25.3015  -33.8293   25.2672 C   0  0  0  0  0  0  0  0  0  0  0  0
  -24.2455  -30.0028   20.1035 C   0  0  0  0  0  0  0  0  0  0  0  0
  -23.3284  -27.2730   20.7758 C   0  0  0  0  0  0  0  0  0  0  0  0
  -24.0337  -32.9910   25.1252 C   0  0  0  0  0  0  0  0  0  0  0  0
  -29.1992  -13.1485   18.0278 C   0  0  0  0  0  0  0  0  0  0  0  0
  -24.3570  -31.5066   25.2631 C   0  0  0  0  0  0  0  0  0  0  0  0
  -27.8446  -12.7088   18.5871 C   0  0  0  0  0  0  0  0  0  0  0  0
  -30.3041  -13.0432   19.0769 C   0  0  0  0  0  0  0  0  0  0  0  0
  -28.6718  -13.3004   20.9031 C   0  0  0  0  0  0  0  0  0  0  0  0
  -25.3179  -31.0465   24.1603 C   0  0  1  0  0  0  0  0  0  0  0  0
  -23.2640  -29.7429   21.2422 C   0  0  1  0  0  0  0  0  0  0  0  0
  -27.5138  -13.4433   19.9008 C   0  0  2  0  0  0  0  0  0  0  0  0
  -31.9614  -19.8944   19.8478 C   0  0  0  0  0  0  0  0  0  0  0  0
  -17.4254  -25.3993   18.5875 C   0  0  0  0  0  0  0  0  0  0  0  0
  -21.0489  -26.7388   23.9678 C   0  0  0  0  0  0  0  0  0  0  0  0
  -19.3693  -25.2780   22.8217 C   0  0  0  0  0  0  0  0  0  0  0  0
  -18.8557  -27.6853   23.2270 C   0  0  0  0  0  0  0  0  0  0  0  0
  -20.0392  -27.2126   16.5004 C   0  0  0  0  0  0  0  0  0  0  0  0
  -31.1425  -19.0567   22.5389 C   0  0  0  0  0  0  0  0  0  0  0  0
  -29.5327  -24.3858   19.0079 C   0  0  0  0  0  0  0  0  0  0  0  0
  -28.8289  -25.6977   18.7036 C   0  0  0  0  0  0  0  0  0  1  0  0
  -31.0240  -16.5594   22.5044 C   0  0  0  0  0  0  0  0  0  0  0  0
  -20.5478  -27.0601   21.4555 C   0  0  1  0  0  0  0  0  0  0  0  0
  -18.5196  -26.4204   18.3175 C   0  0  2  0  0  0  0  0  0  0  0  0
  -19.9811  -26.6948   22.8565 C   0  0  0  0  0  0  0  0  0  0  0  0
  -25.8139  -11.7027   20.3041 N   0  0  0  0  0  0  0  0  0  0  0  0
  -26.1935  -12.9788   20.4870 N   0  0  0  0  0  0  0  0  0  0  0  0
  -22.5426  -28.4779   21.0889 N   0  0  0  0  0  0  0  0  0  0  0  0
  -29.9259  -13.7678   20.2925 N   0  0  0  0  0  0  0  0  0  0  0  0
  -25.5295  -15.0227   21.4830 N   0  0  0  0  0  0  0  0  0  0  0  0
  -22.1358  -12.2199   22.4944 N   0  0  0  0  0  0  0  0  0  0  0  0
  -29.1738  -23.9206   20.3119 N   0  0  0  0  0  0  0  0  0  0  0  0
  -24.6068  -30.8674   22.9126 N   0  0  0  0  0  0  0  0  0  0  0  0
  -19.5531  -27.0530   20.3882 N   0  0  0  0  0  0  0  0  0  0  0  0
  -30.3054  -15.4558   21.9058 N   0  0  0  0  0  0  0  0  0  0  0  0
  -18.9790  -26.2557   16.9094 N   0  3  0  0  0  0  0  0  0  0  0  0
  -30.5002  -17.8455   21.9647 N   0  3  0  0  0  0  0  0  0  0  0  0
  -22.9029  -14.3699   22.7126 O   0  0  0  0  0  0  0  0  0  0  0  0
  -23.8414  -28.6990   23.2798 O   0  0  0  0  0  0  0  0  0  0  0  0
  -20.4984  -29.4191   21.6985 O   0  0  0  0  0  0  0  0  0  0  0  0
  -20.6151  -25.4754   19.0613 O   0  0  0  0  0  0  0  0  0  0  0  0
  -31.7780  -15.1572   20.1722 O   0  0  0  0  0  0  0  0  0  0  0  0
  -21.7577   -6.8515   21.0545 O   0  0  0  0  0  0  0  0  0  0  0  0
  -27.4212  -25.5008   18.7445 O   0  0  0  0  0  0  0  0  0  1  0  0
  -19.5709   -5.3032   25.8737 F   0  0  0  0  0  0  0  0  0  0  0  0
  -22.4741   -4.4553   22.2325 F   0  0  0  0  0  0  0  0  0  0  0  0
  1  2  1  0  0  0  0
  1  5  2  0  0  0  0
  2  6  2  0  0  0  0
  3 10  2  0  0  0  0
  3 18  1  0  0  0  0
  4 11  1  0  0  0  0
  4 18  2  0  0  0  0
  5 20  1  0  0  0  0
  6 22  1  0  0  0  0
  7 12  2  0  0  0  0
  7 21  1  0  0  0  0
  8  9  2  0  0  0  0
  8 24  1  0  0  0  0
  9 26  1  0  0  0  0
 10 27  1  0  0  0  0
 11 27  2  0  0  0  0
 12 28  1  0  0  0  0
 13 14  2  0  0  0  0
 13 29  1  0  0  0  0
 14 30  1  0  0  0  0
 15 23  1  0  0  0  0
 15 28  2  0  0  0  0
 16 25  1  0  0  0  0
 16 26  2  0  0  0  0
 17 30  2  0  0  0  0
 17 31  1  0  0  0  0
 18 32  1  0  0  0  0
 19 32  1  0  0  0  0
 19 33  2  0  0  0  0
 19 34  1  0  0  0  0
 20 22  2  0  0  0  0
 20 39  1  0  0  0  0
 21 23  2  0  0  0  0
 21 40  1  0  0  0  0
 22 48  1  0  0  0  0
 23 41  1  0  0  0  0
 24 25  2  0  0  0  0
 24 57  1  0  0  0  0
 25 51  1  0  0  0  0
 26 70  1  0  0  0  0
 27 81  1  0  0  0  0
 28 82  1  0  0  0  0
 29 31  2  0  0  0  0
 29 81  1  0  0  0  0
 30 83  1  0  0  0  0
 31 84  1  0  0  0  0
 32 64  2  0  0  0  0
 33 65  1  0  0  0  0
 33 68  1  0  0  0  0
 34 69  1  0  0  0  0
 34 76  2  0  0  0  0
 35 49  1  0  0  0  0
 35 71  1  0  0  0  0
 35 77  2  0  0  0  0
 36 61  1  0  0  0  0
 36 66  1  0  0  0  0
 36 78  2  0  0  0  0
 37 62  1  0  0  0  0
 37 72  1  0  0  0  0
 37 79  2  0  0  0  0
 38 67  1  0  0  0  0
 38 73  1  0  0  0  0
 38 80  2  0  0  0  0
 39 42  1  0  0  0  0
 40 49  1  0  0  0  0
 41 66  1  0  0  0  0
 42 44  1  0  0  0  0
 43 45  1  0  0  0  0
 43 46  1  0  0  0  0
 44 48  1  0  0  0  0
 45 50  1  0  0  0  0
 46 67  1  0  0  0  0
 47 50  1  0  0  0  0
 47 67  1  0  0  0  0
 48 71  1  0  0  0  0
 49 66  1  0  0  0  0
 50 65  1  0  0  0  0
 52 62  1  0  0  0  0
 53 63  1  0  0  0  0
 54 63  1  0  0  0  0
 55 63  1  0  0  0  0
 56 74  1  0  0  0  0
 57 75  1  0  0  0  0
 58 59  1  0  0  0  0
 58 70  1  0  0  0  0
 59 82  1  0  0  0  0
 60 73  1  0  0  0  0
 60 75  1  0  0  0  0
 61 63  1  0  0  0  0
 61 72  1  0  0  0  0
 62 74  1  0  0  0  0
 64 65  1  0  0  0  0
M  CHG  2  74   1  75   1
M  ISO  4  38 100  59 101  73 100  82 101
M  END
> <Batch ID>
0129

> <Smiles>
CNC(C)C(=O)NC(C(=O)N1Cc2cc([101O:1][101CH2:1]CNc3ccc(CNC[100NH:0][100C:0](=O)N4CCCC(n5nc(-c6ccc(Oc7ccc(F)cc7F)cc6)c(C(N)=O)c5N)C4)c(C)c3)ccc2CC1C(=O)NC1CCCc2ccccc21)C(C)(C)C

> <Shape>
0.391

> <Color>
0.161

> <Negative vol penalty>
0.000

$$$$

  -OEChem-04052320453D

 82 90  0     1  0  0  0  0  0999 V2000
  -22.8852  -10.9704   18.5473 C   0  0  0  0  0  0  0  0  0  0  0  0
  -22.2188  -12.1880   18.6413 C   0  0  0  0  0  0  0  0  0  0  0  0
  -18.5712  -25.6375   22.0132 C   0  0  0  0  0  0  0  0  0  0  0  0
  -29.7034  -27.6679   18.5785 C   0  0  0  0  0  0  0  0  0  0  0  0
  -29.7775  -27.6248   20.9930 C   0  0  0  0  0  0  0  0  0  0  0  0
  -24.0854  -10.7794   19.2306 C   0  0  0  0  0  0  0  0  0  0  0  0
  -22.7517  -13.2150   19.4195 C   0  0  0  0  0  0  0  0  0  0  0  0
  -23.2114  -20.3590   19.6803 C   0  0  0  0  0  0  0  0  0  0  0  0
  -19.2107  -24.6776   22.7974 C   0  0  0  0  0  0  0  0  0  0  0  0
  -18.9005  -26.9856   22.1542 C   0  0  0  0  0  0  0  0  0  0  0  0
  -31.0965  -27.7233   18.5367 C   0  0  0  0  0  0  0  0  0  0  0  0
  -31.1706  -27.6802   20.9512 C   0  0  0  0  0  0  0  0  0  0  0  0
  -22.9760  -21.4224   20.5507 C   0  0  0  0  0  0  0  0  0  0  0  0
  -33.6859  -25.5743   18.8672 C   0  0  0  0  0  0  0  0  0  0  0  0
  -34.3409  -24.7416   17.9599 C   0  0  0  0  0  0  0  0  0  0  0  0
  -25.0963  -21.0059   21.6231 C   0  0  0  0  0  0  0  0  0  0  0  0
  -35.3038  -26.6762   16.8795 C   0  0  0  0  0  0  0  0  0  0  0  0
  -29.0438  -27.6187   19.8067 C   0  0  0  0  0  0  0  0  0  0  0  0
  -26.7992  -26.4075   19.8549 C   0  0  0  0  0  0  0  0  0  0  0  0
  -24.6383  -11.8079   20.0099 C   0  0  0  0  0  0  0  0  0  0  0  0
  -24.3880  -19.6030   19.7820 C   0  0  0  0  0  0  0  0  0  0  0  0
  -23.9598  -13.0371   20.1150 C   0  0  0  0  0  0  0  0  0  0  0  0
  -25.3454  -19.9351   20.7512 C   0  0  0  0  0  0  0  0  0  0  0  0
  -20.1796  -25.0657   23.7228 C   0  0  0  0  0  0  0  0  0  0  0  0
  -19.8694  -27.3738   23.0796 C   0  0  0  0  0  0  0  0  0  0  0  0
  -20.5089  -26.4138   23.8639 C   0  0  0  0  0  0  0  0  0  0  0  0
  -31.8301  -27.7295   19.7231 C   0  0  0  0  0  0  0  0  0  0  0  0
  -23.9172  -21.7442   21.5242 C   0  0  0  0  0  0  0  0  0  0  0  0
  -33.8398  -26.9580   18.7807 C   0  0  0  0  0  0  0  0  0  0  0  0
  -35.1498  -25.2925   16.9661 C   0  0  0  0  0  0  0  0  0  0  0  0
  -34.6488  -27.5089   17.7868 C   0  0  0  0  0  0  0  0  0  0  0  0
  -27.6048  -27.5620   19.8505 C   0  0  0  0  0  0  0  0  0  0  0  0
  -25.5129  -26.8865   19.9037 C   0  0  0  0  0  0  0  0  0  0  0  0
  -27.1797  -25.0256   19.8181 C   0  0  0  0  0  0  0  0  0  0  0  0
  -25.0501  -16.5561   20.3998 C   0  0  0  0  0  0  0  0  0  0  0  0
  -28.0802  -17.4773   19.6983 C   0  0  0  0  0  0  0  0  0  0  0  0
  -30.3660  -20.0031   19.4915 C   0  0  0  0  0  0  0  0  0  0  0  0
  -21.6985  -30.3850   21.9909 C   0  0  0  0  0  0  0  0  0  0  0  0
  -25.9138  -11.5385   20.7682 C   0  0  0  0  0  0  0  0  0  0  0  0
  -24.6391  -18.4758   18.8182 C   0  0  0  0  0  0  0  0  0  0  0  0
  -26.6339  -19.1674   20.8887 C   0  0  0  0  0  0  0  0  0  0  0  0
  -26.6027  -12.8047   21.2708 C   0  0  0  0  0  0  0  0  0  0  0  0
  -23.7236  -31.5814   19.3181 C   0  0  0  0  0  0  0  0  0  0  0  0
  -25.5912  -13.7369   21.9301 C   0  0  0  0  0  0  0  0  0  0  0  0
  -24.8502  -30.5509   19.2231 C   0  0  0  0  0  0  0  0  0  0  0  0
  -23.3004  -31.8231   20.7654 C   0  0  0  0  0  0  0  0  0  0  0  0
  -24.0687  -29.5755   21.4223 C   0  0  0  0  0  0  0  0  0  0  0  0
  -24.5187  -14.1837   20.9293 C   0  0  1  0  0  0  0  0  0  0  0  0
  -25.6381  -17.4503   19.3452 C   0  0  1  0  0  0  0  0  0  0  0  0
  -24.4914  -29.2568   19.9780 C   0  0  2  0  0  0  0  0  0  0  0  0
  -21.5477  -26.8300   24.8562 C   0  0  0  0  0  0  0  0  0  0  0  0
  -32.7709  -20.4420   18.9246 C   0  0  0  0  0  0  0  0  0  0  0  0
  -28.9248  -16.3078   22.3870 C   0  0  0  0  0  0  0  0  0  0  0  0
  -31.0667  -17.5896   22.1929 C   0  0  0  0  0  0  0  0  0  0  0  0
  -30.5038  -15.8418   20.5044 C   0  0  0  0  0  0  0  0  0  0  0  0
  -29.6322  -21.8103   17.2656 C   0  0  0  0  0  0  0  0  0  0  0  0
  -20.8560  -24.0081   24.5579 C   0  0  0  0  0  0  0  0  0  0  0  0
  -20.2038  -28.8238   23.2108 C   0  0  0  0  0  0  0  0  0  0  0  0
  -22.2761  -23.6738   24.0963 C   0  0  0  0  0  0  0  0  0  0  0  0
  -22.3300  -23.0710   22.6973 C   0  0  0  0  0  0  0  0  0  1  0  0
  -29.2397  -18.0313   20.4906 C   0  0  1  0  0  0  0  0  0  0  0  0
  -31.3454  -20.3881   18.3974 C   0  0  2  0  0  0  0  0  0  0  0  0
  -29.9087  -16.9561   21.3926 C   0  0  0  0  0  0  0  0  0  0  0  0
  -26.8901  -28.6896   19.8931 N   0  0  0  0  0  0  0  0  0  0  0  0
  -25.6219  -28.2459   19.9245 N   0  0  0  0  0  0  0  0  0  0  0  0
  -26.8304  -18.0701   19.9271 N   0  0  0  0  0  0  0  0  0  0  0  0
  -22.9722  -30.5565   21.4241 N   0  0  0  0  0  0  0  0  0  0  0  0
  -24.3105  -26.2733   19.9304 N   0  0  0  0  0  0  0  0  0  0  0  0
  -28.5442  -24.7094   19.7698 N   0  0  0  0  0  0  0  0  0  0  0  0
  -25.0383  -15.2169   20.0593 N   0  0  0  0  0  0  0  0  0  0  0  0
  -30.1417  -18.6429   19.5206 N   0  0  0  0  0  0  0  0  0  0  0  0
  -21.4677  -29.1527   22.5900 N   0  0  0  0  0  0  0  0  0  0  0  0
  -30.9996  -21.7263   17.8401 N   0  3  0  0  0  0  0  0  0  0  0  0
  -26.3342  -24.0991   19.8112 O   0  0  0  0  0  0  0  0  0  0  0  0
  -24.6391  -17.0447   21.4458 O   0  0  0  0  0  0  0  0  0  0  0  0
  -28.2776  -16.5574   18.9005 O   0  0  0  0  0  0  0  0  0  0  0  0
  -29.8541  -20.8261   20.2472 O   0  0  0  0  0  0  0  0  0  0  0  0
  -20.8294  -31.2629   21.9604 O   0  0  0  0  0  0  0  0  0  0  0  0
  -33.1895  -27.7833   19.6827 O   0  0  0  0  0  0  0  0  0  0  0  0
  -23.6897  -22.7812   22.3755 O   0  0  0  0  0  0  0  0  0  1  0  0
  -35.7799  -24.4926   16.0958 F   0  0  0  0  0  0  0  0  0  0  0  0
  -34.8014  -28.8374   17.6994 F   0  0  0  0  0  0  0  0  0  0  0  0
  1  2  1  0  0  0  0
  1  6  2  0  0  0  0
  2  7  2  0  0  0  0
  3  9  2  0  0  0  0
  3 10  1  0  0  0  0
  4 11  2  0  0  0  0
  4 18  1  0  0  0  0
  5 12  1  0  0  0  0
  5 18  2  0  0  0  0
  6 20  1  0  0  0  0
  7 22  1  0  0  0  0
  8 13  2  0  0  0  0
  8 21  1  0  0  0  0
  9 24  1  0  0  0  0
 10 25  2  0  0  0  0
 11 27  1  0  0  0  0
 12 27  2  0  0  0  0
 13 28  1  0  0  0  0
 14 15  2  0  0  0  0
 14 29  1  0  0  0  0
 15 30  1  0  0  0  0
 16 23  1  0  0  0  0
 16 28  2  0  0  0  0
 17 30  2  0  0  0  0
 17 31  1  0  0  0  0
 18 32  1  0  0  0  0
 19 32  1  0  0  0  0
 19 33  2  0  0  0  0
 19 34  1  0  0  0  0
 20 22  2  0  0  0  0
 20 39  1  0  0  0  0
 21 23  2  0  0  0  0
 21 40  1  0  0  0  0
 22 48  1  0  0  0  0
 23 41  1  0  0  0  0
 24 26  2  0  0  0  0
 24 57  1  0  0  0  0
 25 26  1  0  0  0  0
 25 58  1  0  0  0  0
 26 51  1  0  0  0  0
 27 79  1  0  0  0  0
 28 80  1  0  0  0  0
 29 31  2  0  0  0  0
 29 79  1  0  0  0  0
 30 81  1  0  0  0  0
 31 82  1  0  0  0  0
 32 64  2  0  0  0  0
 33 65  1  0  0  0  0
 33 68  1  0  0  0  0
 34 69  1  0  0  0  0
 34 74  2  0  0  0  0
 35 49  1  0  0  0  0
 35 70  1  0  0  0  0
 35 75  2  0  0  0  0
 36 61  1  0  0  0  0
 36 66  1  0  0  0  0
 36 76  2  0  0  0  0
 37 62  1  0  0  0  0
 37 71  1  0  0  0  0
 37 77  2  0  0  0  0
 38 67  1  0  0  0  0
 38 72  1  0  0  0  0
 38 78  2  0  0  0  0
 39 42  1  0  0  0  0
 40 49  1  0  0  0  0
 41 66  1  0  0  0  0
 42 44  1  0  0  0  0
 43 45  1  0  0  0  0
 43 46  1  0  0  0  0
 44 48  1  0  0  0  0
 45 50  1  0  0  0  0
 46 67  1  0  0  0  0
 47 50  1  0  0  0  0
 47 67  1  0  0  0  0
 48 70  1  0  0  0  0
 49 66  1  0  0  0  0
 50 65  1  0  0  0  0
 52 62  1  0  0  0  0
 53 63  1  0  0  0  0
 54 63  1  0  0  0  0
 55 63  1  0  0  0  0
 56 73  1  0  0  0  0
 57 59  1  0  0  0  0
 58 72  1  0  0  0  0
 59 60  1  0  0  0  0
 60 80  1  0  0  0  0
 61 63  1  0  0  0  0
 61 71  1  0  0  0  0
 62 73  1  0  0  0  0
 64 65  1  0  0  0  0
M  CHG  1  73   1
M  ISO  4  38 100  60 101  72 100  80 101
M  END
> <Batch ID>
0129

> <Smiles>
CNC(C)C(=O)NC(C(=O)N1Cc2cc([101O:1][101CH2:1]CCc3cccc(C[100NH:0][100C:0](=O)N4CCCC(n5nc(-c6ccc(Oc7ccc(F)cc7F)cc6)c(C(N)=O)c5N)C4)c3C)ccc2CC1C(=O)NC1CCCc2ccccc21)C(C)(C)C

> <Shape>
0.232

> <Color>
0.081

> <Negative vol penalty>
0.000

$$$$

  -OEChem-04052320453D

 87 96  0     1  0  0  0  0  0999 V2000
  -19.1872  -33.7330   21.2347 C   0  0  0  0  0  0  0  0  0  0  0  0
  -20.4890  -33.4093   20.8660 C   0  0  0  0  0  0  0  0  0  0  0  0
  -26.5496  -17.4750   19.5915 C   0  0  0  0  0  0  0  0  0  0  0  0
  -28.4573  -16.8810   18.2332 C   0  0  0  0  0  0  0  0  0  0  0  0
  -18.5670  -33.0436   22.2759 C   0  0  0  0  0  0  0  0  0  0  0  0
  -21.1717  -32.3966   21.5389 C   0  0  0  0  0  0  0  0  0  0  0  0
  -32.9147  -27.9608   21.6495 C   0  0  0  0  0  0  0  0  0  0  0  0
  -25.2169  -28.4673   19.1508 C   0  0  0  0  0  0  0  0  0  0  0  0
  -31.5336  -27.8547   21.7975 C   0  0  0  0  0  0  0  0  0  0  0  0
  -26.0207  -16.1976   19.4074 C   0  0  0  0  0  0  0  0  0  0  0  0
  -27.9284  -15.6035   18.0491 C   0  0  0  0  0  0  0  0  0  0  0  0
  -26.6109  -28.4504   19.1345 C   0  0  0  0  0  0  0  0  0  0  0  0
  -24.3441  -12.9774   19.5926 C   0  0  0  0  0  0  0  0  0  0  0  0
  -23.8286  -12.3216   20.7105 C   0  0  0  0  0  0  0  0  0  0  0  0
  -31.4530  -26.3760   19.8927 C   0  0  0  0  0  0  0  0  0  0  0  0
  -26.6096  -26.9968   21.0597 C   0  0  0  0  0  0  0  0  0  0  0  0
  -25.9934  -12.4380   21.7770 C   0  0  0  0  0  0  0  0  0  0  0  0
  -27.7679  -17.8168   19.0044 C   0  0  0  0  0  0  0  0  0  0  0  0
  -29.1784  -19.5593   20.2217 C   0  0  0  0  0  0  0  0  0  0  0  0
  -19.2390  -32.0155   22.9556 C   0  0  0  0  0  0  0  0  0  0  0  0
  -33.5815  -27.2703   20.6242 C   0  0  0  0  0  0  0  0  0  0  0  0
  -24.5078  -27.7567   20.1299 C   0  0  0  0  0  0  0  0  0  0  0  0
  -20.5604  -31.6938   22.5911 C   0  0  0  0  0  0  0  0  0  0  0  0
  -32.8424  -26.4899   19.7120 C   0  0  0  0  0  0  0  0  0  0  0  0
  -25.2066  -27.0043   21.0847 C   0  0  0  0  0  0  0  0  0  0  0  0
  -30.8038  -27.0574   20.9231 C   0  0  0  0  0  0  0  0  0  0  0  0
  -26.7101  -15.2618   18.6362 C   0  0  0  0  0  0  0  0  0  0  0  0
  -27.3075  -27.7174   20.0908 C   0  0  0  0  0  0  0  0  0  0  0  0
  -25.6843  -13.3634   19.5668 C   0  0  0  0  0  0  0  0  0  0  0  0
  -24.6532  -12.0519   21.8028 C   0  0  0  0  0  0  0  0  0  0  0  0
  -26.5089  -13.0937   20.6591 C   0  0  0  0  0  0  0  0  0  0  0  0
  -28.3145  -19.1364   19.1937 C   0  0  0  0  0  0  0  0  0  0  0  0
  -29.4039  -20.8878   19.9559 C   0  0  0  0  0  0  0  0  0  0  0  0
  -29.7279  -18.8175   21.3187 C   0  0  0  0  0  0  0  0  0  0  0  0
  -22.4944  -28.5481   22.4588 C   0  0  0  0  0  0  0  0  0  0  0  0
  -22.2121  -25.3324   22.7776 C   0  0  0  0  0  0  0  0  0  0  0  0
  -23.5807  -22.2426   22.3013 C   0  0  0  0  0  0  0  0  0  0  0  0
  -30.0885  -24.4971   15.4817 C   0  0  0  0  0  0  0  0  0  0  0  0
  -18.5443  -31.3306   24.1058 C   0  0  0  0  0  0  0  0  0  0  0  0
  -35.0771  -27.4265   20.5053 C   0  0  0  0  0  0  0  0  0  0  0  0
  -23.0037  -27.7636   20.1176 C   0  0  0  0  0  0  0  0  0  0  0  0
  -24.4921  -26.2079   22.1447 C   0  0  0  0  0  0  0  0  0  0  0  0
  -19.2032  -30.0175   24.5205 C   0  0  0  0  0  0  0  0  0  0  0  0
  -35.7247  -26.3297   19.6661 C   0  0  0  0  0  0  0  0  0  0  0  0
  -27.0556  -24.3656   17.3420 C   0  0  0  0  0  0  0  0  0  0  0  0
  -20.7147  -30.1902   24.6310 C   0  0  0  0  0  0  0  0  0  0  0  0
  -34.9756  -26.1712   18.3507 C   0  0  0  0  0  0  0  0  0  0  0  0
  -27.1513  -23.0431   18.1047 C   0  0  0  0  0  0  0  0  0  0  0  0
  -27.6672  -24.2581   15.9468 C   0  0  0  0  0  0  0  0  0  0  0  0
  -29.1474  -22.4282   16.6777 C   0  0  0  0  0  0  0  0  0  0  0  0
  -21.3251  -30.5848   23.2807 C   0  0  1  0  0  0  0  0  0  0  0  0
  -33.5314  -25.7191   18.6033 C   0  0  2  0  0  0  0  0  0  0  0  0
  -22.3935  -27.4189   21.4727 C   0  0  1  0  0  0  0  0  0  0  0  0
  -28.5939  -22.5026   18.1110 C   0  0  2  0  0  0  0  0  0  0  0  0
  -23.1306  -19.8061   22.6992 C   0  0  0  0  0  0  0  0  0  0  0  0
  -33.1842  -23.7730   13.9908 C   0  0  0  0  0  0  0  0  0  0  0  0
  -22.8951  -25.6909   25.7298 C   0  0  0  0  0  0  0  0  0  0  0  0
  -23.3616  -23.2340   25.8485 C   0  0  0  0  0  0  0  0  0  0  0  0
  -21.0722  -24.0406   25.2736 C   0  0  0  0  0  0  0  0  0  0  0  0
  -23.6521  -21.6373   19.4052 C   0  0  0  0  0  0  0  0  0  0  0  0
  -32.6339  -27.2077   16.8194 C   0  0  0  0  0  0  0  0  0  0  0  0
  -29.3175  -26.9277   21.0869 C   0  0  0  0  0  0  0  0  0  1  0  0
  -33.5001  -24.9473   16.2351 C   0  0  0  0  0  0  0  0  0  0  0  0
  -22.9301  -24.2700   23.5744 C   0  0  1  0  0  0  0  0  0  0  0  0
  -23.0036  -20.9638   21.7213 C   0  0  2  0  0  0  0  0  0  0  0  0
  -32.5386  -24.5985   15.0996 C   0  0  2  0  0  0  0  0  0  0  0  0
  -22.5785  -24.3253   25.0879 C   0  0  0  0  0  0  0  0  0  0  0  0
  -28.0117  -20.1169   18.3388 N   0  0  0  0  0  0  0  0  0  0  0  0
  -28.6890  -21.1691   18.8290 N   0  0  0  0  0  0  0  0  0  0  0  0
  -23.0214  -26.2514   22.0947 N   0  0  0  0  0  0  0  0  0  0  0  0
  -29.0357  -23.7412   16.0231 N   0  0  0  0  0  0  0  0  0  0  0  0
  -30.1419  -21.8312   20.5786 N   0  0  0  0  0  0  0  0  0  0  0  0
  -29.3934  -17.4621   21.4430 N   0  0  0  0  0  0  0  0  0  0  0  0
  -21.4303  -29.4287   22.4165 N   0  0  0  0  0  0  0  0  0  0  0  0
  -22.6157  -22.9973   22.9341 N   0  0  0  0  0  0  0  0  0  0  0  0
  -31.3547  -23.9376   15.6020 N   0  0  0  0  0  0  0  0  0  0  0  0
  -23.7157  -20.5976   20.4644 N   0  3  0  0  0  0  0  0  0  0  0  0
  -32.8266  -25.7901   17.2824 N   0  3  1  0  0  0  0  0  0  0  0  0
  -30.4798  -19.3451   22.1730 O   0  0  0  0  0  0  0  0  0  0  0  0
  -23.4649  -28.6147   23.2039 O   0  0  0  0  0  0  0  0  0  0  0  0
  -20.9788  -25.3420   22.7560 O   0  0  0  0  0  0  0  0  0  0  0  0
  -24.7693  -22.5402   22.2059 O   0  0  0  0  0  0  0  0  0  0  0  0
  -29.9137  -25.5923   14.9366 O   0  0  0  0  0  0  0  0  0  0  0  0
  -26.1944  -14.0151   18.4565 O   0  0  0  0  0  0  0  0  0  0  0  0
  -28.6682  -27.6997   20.0776 O   0  0  0  0  0  0  0  0  0  1  0  0
  -24.1576  -11.4235   22.8769 F   0  0  0  0  0  0  0  0  0  0  0  0
  -27.7969  -13.4632   20.6406 F   0  0  0  0  0  0  0  0  0  0  0  0
  1  2  1  0  0  0  0
  1  5  2  0  0  0  0
  2  6  2  0  0  0  0
  3 10  2  0  0  0  0
  3 18  1  0  0  0  0
  4 11  1  0  0  0  0
  4 18  2  0  0  0  0
  5 20  1  0  0  0  0
  6 23  1  0  0  0  0
  7  9  2  0  0  0  0
  7 21  1  0  0  0  0
  8 12  2  0  0  0  0
  8 22  1  0  0  0  0
  9 26  1  0  0  0  0
 10 27  1  0  0  0  0
 11 27  2  0  0  0  0
 12 28  1  0  0  0  0
 13 14  2  0  0  0  0
 13 29  1  0  0  0  0
 14 30  1  0  0  0  0
 15 24  1  0  0  0  0
 15 26  2  0  0  0  0
 16 25  1  0  0  0  0
 16 28  2  0  0  0  0
 17 30  2  0  0  0  0
 17 31  1  0  0  0  0
 18 32  1  0  0  0  0
 19 32  1  0  0  0  0
 19 33  2  0  0  0  0
 19 34  1  0  0  0  0
 20 23  2  0  0  0  0
 20 39  1  0  0  0  0
 21 24  2  0  0  0  0
 21 40  1  0  0  0  0
 22 25  2  0  0  0  0
 22 41  1  0  0  0  0
 23 51  1  0  0  0  0
 24 52  1  0  0  0  0
 25 42  1  0  0  0  0
 26 62  1  0  0  0  0
 27 84  1  0  0  0  0
 28 85  1  0  0  0  0
 29 31  2  0  0  0  0
 29 84  1  0  0  0  0
 30 86  1  0  0  0  0
 31 87  1  0  0  0  0
 32 68  2  0  0  0  0
 33 69  1  0  0  0  0
 33 72  1  0  0  0  0
 34 73  1  0  0  0  0
 34 79  2  0  0  0  0
 35 53  1  0  0  0  0
 35 74  1  0  0  0  0
 35 80  2  0  0  0  0
 36 64  1  0  0  0  0
 36 70  1  0  0  0  0
 36 81  2  0  0  0  0
 37 65  1  0  0  0  0
 37 75  1  0  0  0  0
 37 82  2  0  0  0  0
 38 71  1  0  0  0  0
 38 76  1  0  0  0  0
 38 83  2  0  0  0  0
 39 43  1  0  0  0  0
 40 44  1  0  0  0  0
 41 53  1  0  0  0  0
 42 70  1  0  0  0  0
 43 46  1  0  0  0  0
 44 47  1  0  0  0  0
 45 48  1  0  0  0  0
 45 49  1  0  0  0  0
 46 51  1  0  0  0  0
 47 52  1  0  0  0  0
 48 54  1  0  0  0  0
 49 71  1  0  0  0  0
 50 54  1  0  0  0  0
 50 71  1  0  0  0  0
 51 74  1  0  0  0  0
 52 78  1  0  0  0  0
 53 70  1  0  0  0  0
 54 69  1  0  0  0  0
 55 65  1  0  0  0  0
 56 66  1  0  0  0  0
 57 67  1  0  0  0  0
 58 67  1  0  0  0  0
 59 67  1  0  0  0  0
 60 77  1  0  0  0  0
 61 78  1  0  0  0  0
 62 85  1  0  0  0  0
 63 66  1  0  0  0  0
 63 78  1  0  0  0  0
 64 67  1  0  0  0  0
 64 75  1  0  0  0  0
 65 77  1  0  0  0  0
 66 76  1  0  0  0  0
 68 69  1  0  0  0  0
M  CHG  2  77   1  78   1
M  ISO  4  38 100  62 101  76 100  85 101
M  END
> <Batch ID>
0129

> <Smiles>
CNC(C)C(=O)NC(C(=O)N1Cc2cc([101O:1][101CH2:1]c3ccc4c(c3)C(N(C)CC(C)[100NH:0][100C:0](=O)N3CCCC(n5nc(-c6ccc(Oc7ccc(F)cc7F)cc6)c(C(N)=O)c5N)C3)CCC4)ccc2CC1C(=O)NC1CCCc2ccccc21)C(C)(C)C

> <Shape>
0.191

> <Color>
0.078

> <Negative vol penalty>
0.000

$$$$

  -OEChem-04052320453D

 84 93  0     1  0  0  0  0  0999 V2000
  -27.3472  -34.7772   22.6417 C   0  0  0  0  0  0  0  0  0  0  0  0
  -28.1778  -33.6613   22.6294 C   0  0  0  0  0  0  0  0  0  0  0  0
  -23.0918   -9.8554   19.9477 C   0  0  0  0  0  0  0  0  0  0  0  0
  -23.8401   -9.8895   22.2446 C   0  0  0  0  0  0  0  0  0  0  0  0
  -26.0031  -34.6406   22.9864 C   0  0  0  0  0  0  0  0  0  0  0  0
  -27.6650  -32.4081   22.9628 C   0  0  0  0  0  0  0  0  0  0  0  0
  -28.8665  -20.1198   21.1825 C   0  0  0  0  0  0  0  0  0  0  0  0
  -28.4414  -25.4613   21.3960 C   0  0  0  0  0  0  0  0  0  0  0  0
  -29.7497  -19.0455   21.0568 C   0  0  0  0  0  0  0  0  0  0  0  0
  -22.3514   -8.7018   20.2060 C   0  0  0  0  0  0  0  0  0  0  0  0
  -23.0997   -8.7359   22.5029 C   0  0  0  0  0  0  0  0  0  0  0  0
  -28.6455  -24.2323   22.0218 C   0  0  0  0  0  0  0  0  0  0  0  0
  -19.8719   -7.9310   23.0977 C   0  0  0  0  0  0  0  0  0  0  0  0
  -19.1093   -7.9001   24.2652 C   0  0  0  0  0  0  0  0  0  0  0  0
  -26.2895  -24.1035   22.5239 C   0  0  0  0  0  0  0  0  0  0  0  0
  -20.3550   -5.9757   25.0281 C   0  0  0  0  0  0  0  0  0  0  0  0
  -23.8362  -10.4492   20.9669 C   0  0  0  0  0  0  0  0  0  0  0  0
  -24.1682  -12.9744   20.8222 C   0  0  0  0  0  0  0  0  0  0  0  0
  -25.4714  -33.3836   23.3148 C   0  0  0  0  0  0  0  0  0  0  0  0
  -27.1594  -26.0268   21.3389 C   0  0  0  0  0  0  0  0  0  0  0  0
  -26.3129  -32.2548   23.3135 C   0  0  0  0  0  0  0  0  0  0  0  0
  -28.0609  -20.1806   22.3078 C   0  0  0  0  0  0  0  0  0  0  0  0
  -26.0714  -25.3386   21.8945 C   0  0  0  0  0  0  0  0  0  0  0  0
  -28.1317  -19.1949   23.2984 C   0  0  0  0  0  0  0  0  0  0  0  0
  -29.8228  -18.0591   22.0528 C   0  0  0  0  0  0  0  0  0  0  0  0
  -29.0129  -18.1325   23.1881 C   0  0  0  0  0  0  0  0  0  0  0  0
  -22.3554   -8.1421   21.4836 C   0  0  0  0  0  0  0  0  0  0  0  0
  -27.5700  -23.5546   22.5884 C   0  0  0  0  0  0  0  0  0  0  0  0
  -20.8760   -6.9841   22.8953 C   0  0  0  0  0  0  0  0  0  0  0  0
  -19.3508   -6.9225   25.2304 C   0  0  0  0  0  0  0  0  0  0  0  0
  -21.1176   -6.0065   23.8605 C   0  0  0  0  0  0  0  0  0  0  0  0
  -24.6016  -11.6405   20.7006 C   0  0  0  0  0  0  0  0  0  0  0  0
  -25.2591  -13.7245   20.4565 C   0  0  0  0  0  0  0  0  0  0  0  0
  -22.8935  -13.4892   21.2294 C   0  0  0  0  0  0  0  0  0  0  0  0
  -25.8335  -28.6954   22.4452 C   0  0  0  0  0  0  0  0  0  0  0  0
  -23.2782  -27.6759   20.7267 C   0  0  0  0  0  0  0  0  0  0  0  0
  -21.6001  -25.0693   19.2996 C   0  0  0  0  0  0  0  0  0  0  0  0
  -30.7376  -14.7684   20.6614 C   0  0  0  0  0  0  0  0  0  0  0  0
  -24.0233  -33.2931   23.7266 C   0  0  0  0  0  0  0  0  0  0  0  0
  -26.9515  -27.3406   20.6367 C   0  0  0  0  0  0  0  0  0  0  0  0
  -27.1973  -19.5011   24.4274 C   0  0  0  0  0  0  0  0  0  0  0  0
  -24.6720  -25.8930   21.8422 C   0  0  0  0  0  0  0  0  0  0  0  0
  -23.4713  -31.8701   23.7034 C   0  0  0  0  0  0  0  0  0  0  0  0
  -29.6218  -12.3543   18.2941 C   0  0  0  0  0  0  0  0  0  0  0  0
  -24.4432  -30.9094   24.3811 C   0  0  0  0  0  0  0  0  0  0  0  0
  -28.1834  -12.0592   18.7230 C   0  0  0  0  0  0  0  0  0  0  0  0
  -30.5319  -12.5915   19.4972 C   0  0  0  0  0  0  0  0  0  0  0  0
  -28.6203  -13.3291   20.8666 C   0  0  0  0  0  0  0  0  0  0  0  0
  -25.7880  -30.8747   23.6450 C   0  0  1  0  0  0  0  0  0  0  0  0
  -27.0660  -21.2383   22.6735 C   0  0  1  0  0  0  0  0  0  1  0  0
  -25.6878  -28.0662   21.0886 C   0  0  1  0  0  0  0  0  0  0  0  0
  -26.2451  -20.5393   23.7844 C   0  0  1  0  0  0  0  0  0  0  0  0
  -27.6528  -13.1381   19.6860 C   0  0  2  0  0  0  0  0  0  0  0  0
  -25.0004  -19.8559   23.2065 C   0  0  0  0  0  0  0  0  0  0  0  0
  -29.8686  -17.5859   25.4806 C   0  0  0  0  0  0  0  0  0  0  0  0
  -19.5222  -24.5421   17.9951 C   0  0  0  0  0  0  0  0  0  0  0  0
  -21.6133  -27.9626   23.2675 C   0  0  0  0  0  0  0  0  0  0  0  0
  -19.8468  -26.5567   22.1853 C   0  0  0  0  0  0  0  0  0  0  0  0
  -20.4794  -28.7515   21.1827 C   0  0  0  0  0  0  0  0  0  0  0  0
  -23.1615  -24.0342   17.0085 C   0  0  0  0  0  0  0  0  0  0  0  0
  -29.0932  -17.0982   24.2594 C   0  0  0  0  0  0  0  0  0  0  0  0
  -30.7884  -16.9320   21.8760 C   0  0  0  0  0  0  0  0  0  0  0  0
  -22.0799  -26.8021   21.0089 C   0  0  1  0  0  0  0  0  0  0  0  0
  -20.9995  -24.8944   17.9165 C   0  0  2  0  0  0  0  0  0  0  0  0
  -21.0314  -27.5084   21.9140 C   0  0  0  0  0  0  0  0  0  0  0  0
  -25.8690  -11.5456   20.2896 N   0  0  0  0  0  0  0  0  0  0  0  0
  -26.2412  -12.8293   20.1497 N   0  0  0  0  0  0  0  0  0  0  0  0
  -24.5209  -27.1838   21.1503 N   0  0  0  0  0  0  0  0  0  0  0  0
  -29.9727  -13.6269   20.3696 N   0  0  0  0  0  0  0  0  0  0  0  0
  -25.4644  -15.0560   20.3706 N   0  0  0  0  0  0  0  0  0  0  0  0
  -21.8837  -12.5794   21.5711 N   0  0  0  0  0  0  0  0  0  0  0  0
  -25.6876  -30.0695   22.4466 N   0  0  0  0  0  0  0  0  0  0  0  0
  -21.5637  -26.3853   19.7096 N   0  0  0  0  0  0  0  0  0  0  0  0
  -30.1304  -15.7034   21.4907 N   0  0  0  0  0  0  0  0  0  0  0  0
  -21.7035  -23.8069   17.1798 N   0  3  0  0  0  0  0  0  0  0  0  0
  -22.6519  -14.7194   21.2727 O   0  0  0  0  0  0  0  0  0  0  0  0
  -26.0600  -27.9866   23.4189 O   0  0  0  0  0  0  0  0  0  0  0  0
  -23.1185  -28.7520   20.1453 O   0  0  0  0  0  0  0  0  0  0  0  0
  -22.0527  -24.1317   19.9527 O   0  0  0  0  0  0  0  0  0  0  0  0
  -31.8750  -14.9438   20.2116 O   0  0  0  0  0  0  0  0  0  0  0  0
  -21.6328   -7.0166   21.7361 O   0  0  0  0  0  0  0  0  0  0  0  0
  -27.7666  -22.3551   23.2004 O   0  0  0  0  0  0  0  0  0  1  0  0
  -18.6194   -6.8939   26.3522 F   0  0  0  0  0  0  0  0  0  0  0  0
  -22.0816   -5.0950   23.6722 F   0  0  0  0  0  0  0  0  0  0  0  0
  1  2  1  0  0  0  0
  1  5  2  0  0  0  0
  2  6  2  0  0  0  0
  3 10  2  0  0  0  0
  3 17  1  0  0  0  0
  4 11  1  0  0  0  0
  4 17  2  0  0  0  0
  5 19  1  0  0  0  0
  6 21  1  0  0  0  0
  7  9  1  0  0  0  0
  7 22  2  0  0  0  0
  8 12  2  0  0  0  0
  8 20  1  0  0  0  0
  9 25  2  0  0  0  0
 10 27  1  0  0  0  0
 11 27  2  0  0  0  0
 12 28  1  0  0  0  0
 13 14  2  0  0  0  0
 13 29  1  0  0  0  0
 14 30  1  0  0  0  0
 15 23  1  0  0  0  0
 15 28  2  0  0  0  0
 16 30  2  0  0  0  0
 16 31  1  0  0  0  0
 17 32  1  0  0  0  0
 18 32  1  0  0  0  0
 18 33  2  0  0  0  0
 18 34  1  0  0  0  0
 19 21  2  0  0  0  0
 19 39  1  0  0  0  0
 20 23  2  0  0  0  0
 20 40  1  0  0  0  0
 21 49  1  0  0  0  0
 22 24  1  0  0  0  0
 22 50  1  0  0  0  0
 23 42  1  0  0  0  0
 24 26  2  0  0  0  0
 24 41  1  0  0  0  0
 25 26  1  0  0  0  0
 25 62  1  0  0  0  0
 26 61  1  0  0  0  0
 27 81  1  0  0  0  0
 28 82  1  0  0  0  0
 29 31  2  0  0  0  0
 29 81  1  0  0  0  0
 30 83  1  0  0  0  0
 31 84  1  0  0  0  0
 32 66  2  0  0  0  0
 33 67  1  0  0  0  0
 33 70  1  0  0  0  0
 34 71  1  0  0  0  0
 34 76  2  0  0  0  0
 35 51  1  0  0  0  0
 35 72  1  0  0  0  0
 35 77  2  0  0  0  0
 36 63  1  0  0  0  0
 36 68  1  0  0  0  0
 36 78  2  0  0  0  0
 37 64  1  0  0  0  0
 37 73  1  0  0  0  0
 37 79  2  0  0  0  0
 38 69  1  0  0  0  0
 38 74  1  0  0  0  0
 38 80  2  0  0  0  0
 39 43  1  0  0  0  0
 40 51  1  0  0  0  0
 41 52  1  0  0  0  0
 42 68  1  0  0  0  0
 43 45  1  0  0  0  0
 44 46  1  0  0  0  0
 44 47  1  0  0  0  0
 45 49  1  0  0  0  0
 46 53  1  0  0  0  0
 47 69  1  0  0  0  0
 48 53  1  0  0  0  0
 48 69  1  0  0  0  0
 49 72  1  0  0  0  0
 50 52  1  0  0  0  0
 50 82  1  0  0  0  0
 51 68  1  0  0  0  0
 52 54  1  0  0  0  0
 53 67  1  0  0  0  0
 55 61  1  0  0  0  0
 56 64  1  0  0  0  0
 57 65  1  0  0  0  0
 58 65  1  0  0  0  0
 59 65  1  0  0  0  0
 60 75  1  0  0  0  0
 62 74  1  0  0  0  0
 63 65  1  0  0  0  0
 63 73  1  0  0  0  0
 64 75  1  0  0  0  0
 66 67  1  0  0  0  0
M  CHG  1  75   1
M  ISO  4  38 100  50 101  74 100  82 101
M  END
> <Batch ID>
0129

> <Smiles>
CCc1c(C[100NH:0][100C:0](=O)N2CCCC(n3nc(-c4ccc(Oc5ccc(F)cc5F)cc4)c(C(N)=O)c3N)C2)ccc2c1CC(C)[101CH:1]2[101O:1]c1ccc2c(c1)CN(C(=O)C(NC(=O)C(C)NC)C(C)(C)C)C(C(=O)NC1CCCc3ccccc31)C2

> <Shape>
0.304

> <Color>
0.192

> <Negative vol penalty>
0.000

$$$$

  -OEChem-04052320453D

 88 97  0     1  0  0  0  0  0999 V2000
  -33.0260  -31.8185   13.5296 C   0  0  0  0  0  0  0  0  0  0  0  0
  -33.6007  -30.9506   14.4525 C   0  0  0  0  0  0  0  0  0  0  0  0
  -23.2063  -10.2540   22.2007 C   0  0  0  0  0  0  0  0  0  0  0  0
  -23.8184   -9.4866   19.9931 C   0  0  0  0  0  0  0  0  0  0  0  0
  -31.9535  -32.6254   13.9072 C   0  0  0  0  0  0  0  0  0  0  0  0
  -33.1040  -30.8900   15.7541 C   0  0  0  0  0  0  0  0  0  0  0  0
  -30.4314  -24.7699   19.8074 C   0  0  0  0  0  0  0  0  0  0  0  0
  -22.4784   -9.0820   22.4062 C   0  0  0  0  0  0  0  0  0  0  0  0
  -23.0906   -8.3146   20.1987 C   0  0  0  0  0  0  0  0  0  0  0  0
  -29.7894  -23.7933   20.5691 C   0  0  0  0  0  0  0  0  0  0  0  0
  -19.4665   -7.8326   21.5166 C   0  0  0  0  0  0  0  0  0  0  0  0
  -18.1953   -7.9502   22.0785 C   0  0  0  0  0  0  0  0  0  0  0  0
  -28.5256  -25.5052   21.7183 C   0  0  0  0  0  0  0  0  0  0  0  0
  -18.8888   -6.5700   23.9363 C   0  0  0  0  0  0  0  0  0  0  0  0
  -23.8763  -10.4563   20.9941 C   0  0  0  0  0  0  0  0  0  0  0  0
  -24.1374  -12.9865   20.7996 C   0  0  0  0  0  0  0  0  0  0  0  0
  -31.4371  -32.5676   15.2113 C   0  0  0  0  0  0  0  0  0  0  0  0
  -30.1114  -26.1185   19.9877 C   0  0  0  0  0  0  0  0  0  0  0  0
  -32.0244  -31.6978   16.1498 C   0  0  0  0  0  0  0  0  0  0  0  0
  -29.1564  -26.4870   20.9495 C   0  0  0  0  0  0  0  0  0  0  0  0
  -22.4206   -8.1123   21.4053 C   0  0  0  0  0  0  0  0  0  0  0  0
  -28.8390  -24.1601   21.5223 C   0  0  0  0  0  0  0  0  0  0  0  0
  -20.4488   -7.0836   22.1644 C   0  0  0  0  0  0  0  0  0  0  0  0
  -17.9064   -7.3189   23.2884 C   0  0  0  0  0  0  0  0  0  0  0  0
  -20.1600   -6.4523   23.3743 C   0  0  0  0  0  0  0  0  0  0  0  0
  -24.6278  -11.6670   20.7809 C   0  0  0  0  0  0  0  0  0  0  0  0
  -25.2391  -13.7659   20.5441 C   0  0  0  0  0  0  0  0  0  0  0  0
  -22.8052  -13.4648   21.0277 C   0  0  0  0  0  0  0  0  0  0  0  0
  -30.7109  -29.6730   18.9476 C   0  0  0  0  0  0  0  0  0  0  0  0
  -27.6897  -29.3698   19.3843 C   0  0  0  0  0  0  0  0  0  0  0  0
  -24.3930  -28.5111   19.5619 C   0  0  0  0  0  0  0  0  0  0  0  0
  -31.1108  -12.9165   21.3515 C   0  0  0  0  0  0  0  0  0  0  0  0
  -30.3071  -33.4935   15.5863 C   0  0  0  0  0  0  0  0  0  0  0  0
  -30.8223  -27.2087   19.2328 C   0  0  0  0  0  0  0  0  0  0  0  0
  -28.8692  -27.9521   21.1333 C   0  0  0  0  0  0  0  0  0  0  0  0
  -29.5986  -33.0972   16.8790 C   0  0  0  0  0  0  0  0  0  0  0  0
  -25.7853  -22.0097   23.5257 C   0  0  0  0  0  0  0  0  0  0  0  0
  -29.4570  -13.6629   18.2881 C   0  0  0  0  0  0  0  0  0  0  0  0
  -30.6164  -32.7736   17.9681 C   0  0  0  0  0  0  0  0  0  0  0  0
  -27.9875  -13.3551   18.5813 C   0  0  0  0  0  0  0  0  0  0  0  0
  -26.4597  -21.0968   24.5476 C   0  0  0  0  0  0  0  0  0  0  0  0
  -29.8792  -18.7329   24.1590 C   0  0  0  0  0  0  0  0  0  0  0  0
  -28.8268  -18.0410   26.3595 C   0  0  0  0  0  0  0  0  0  0  0  0
  -30.0981  -17.2629   23.8015 C   0  0  0  0  0  0  0  0  0  0  0  0
  -29.0454  -16.5710   26.0018 C   0  0  0  0  0  0  0  0  0  0  0  0
  -26.2704  -23.4555   23.6389 C   0  0  0  0  0  0  0  0  0  0  0  0
  -30.3907  -12.6814   18.9930 C   0  0  0  0  0  0  0  0  0  0  0  0
  -28.7069  -12.2503   20.7402 C   0  0  0  0  0  0  0  0  0  0  0  0
  -31.4977  -31.5855   17.5641 C   0  0  1  0  0  0  0  0  0  0  0  0
  -29.9119  -28.4039   18.8988 C   0  0  1  0  0  0  0  0  0  0  0  0
  -28.4988  -22.6529   24.6080 C   0  0  1  0  0  0  0  0  0  0  0  0
  -27.7286  -13.2475   20.0961 C   0  0  2  0  0  0  0  0  0  0  0  0
  -28.6873  -18.8956   25.1008 C   0  0  0  0  0  0  0  0  0  0  0  0
  -30.2376  -16.4085   25.0603 C   0  0  0  0  0  0  0  0  0  0  0  0
  -27.9821  -21.2053   24.4614 C   0  0  1  0  0  0  0  0  0  0  0  0
  -27.7966  -23.5638   23.5777 C   0  0  1  0  0  0  0  0  0  1  0  0
  -28.3508  -23.2288   26.0224 C   0  0  0  0  0  0  0  0  0  0  0  0
  -22.0898  -29.4797   19.3281 C   0  0  0  0  0  0  0  0  0  0  0  0
  -27.9734  -30.6945   22.1171 C   0  0  0  0  0  0  0  0  0  0  0  0
  -25.4753  -30.7982   22.2474 C   0  0  0  0  0  0  0  0  0  0  0  0
  -26.6804  -32.0262   20.4411 C   0  0  0  0  0  0  0  0  0  0  0  0
  -23.7298  -26.6932   17.3227 C   0  0  0  0  0  0  0  0  0  0  0  0
  -31.6772  -13.1253   23.7588 C   0  0  0  0  0  0  0  0  0  0  0  0
  -31.6832  -14.5908   24.1519 C   0  0  0  0  0  0  0  0  0  0  0  0
  -26.5296  -29.5046   20.3379 C   0  0  1  0  0  0  0  0  0  0  0  0
  -23.2322  -28.7698   18.6184 C   0  0  2  0  0  0  0  0  0  0  0  0
  -26.6779  -30.7310   21.2820 C   0  0  0  0  0  0  0  0  0  0  0  0
  -25.9389  -11.6077   20.5329 N   0  0  0  0  0  0  0  0  0  0  0  0
  -26.2817  -12.8997   20.3933 N   0  0  0  0  0  0  0  0  0  0  0  0
  -28.7849  -28.6158   19.8230 N   0  0  0  0  0  0  0  0  0  0  0  0
  -30.0940  -12.6276   20.4265 N   0  0  0  0  0  0  0  0  0  0  0  0
  -25.4079  -15.1009   20.4358 N   0  0  0  0  0  0  0  0  0  0  0  0
  -21.7923  -12.5282   21.2753 N   0  0  0  0  0  0  0  0  0  0  0  0
  -30.7801  -30.3411   17.7400 N   0  0  0  0  0  0  0  0  0  0  0  0
  -25.3251  -29.5261   19.5151 N   0  0  0  0  0  0  0  0  0  0  0  0
  -30.7435  -12.8488   22.6899 N   0  0  0  0  0  0  0  0  0  0  0  0
  -28.5817  -20.3245   25.4995 N   0  3  0  0  0  0  0  0  0  0  0  0
  -30.3438  -14.9796   24.6618 N   0  3  0  0  0  0  0  0  0  0  0  0
  -22.7167  -27.4848   18.0670 N   0  3  0  0  0  0  0  0  0  0  0  0
  -22.5182  -14.6855   20.9962 O   0  0  0  0  0  0  0  0  0  0  0  0
  -31.2261  -30.0224   20.0032 O   0  0  0  0  0  0  0  0  0  0  0  0
  -27.6315  -29.9218   18.2819 O   0  0  0  0  0  0  0  0  0  0  0  0
  -24.4637  -27.5107   20.2724 O   0  0  0  0  0  0  0  0  0  0  0  0
  -32.2594  -13.2179   21.0099 O   0  0  0  0  0  0  0  0  0  0  0  0
  -21.7106   -6.9684   21.6056 O   0  0  0  0  0  0  0  0  0  0  0  0
  -28.2127  -23.2013   22.2593 O   0  0  0  0  0  0  0  0  0  1  0  0
  -16.6861   -7.4332   23.8287 F   0  0  0  0  0  0  0  0  0  0  0  0
  -21.1000   -5.7324   24.0019 F   0  0  0  0  0  0  0  0  0  0  0  0
  1  2  1  0  0  0  0
  1  5  2  0  0  0  0
  2  6  2  0  0  0  0
  3  8  2  0  0  0  0
  3 15  1  0  0  0  0
  4  9  1  0  0  0  0
  4 15  2  0  0  0  0
  5 17  1  0  0  0  0
  6 19  1  0  0  0  0
  7 10  2  0  0  0  0
  7 18  1  0  0  0  0
  8 21  1  0  0  0  0
  9 21  2  0  0  0  0
 10 22  1  0  0  0  0
 11 12  2  0  0  0  0
 11 23  1  0  0  0  0
 12 24  1  0  0  0  0
 13 20  1  0  0  0  0
 13 22  2  0  0  0  0
 14 24  2  0  0  0  0
 14 25  1  0  0  0  0
 15 26  1  0  0  0  0
 16 26  1  0  0  0  0
 16 27  2  0  0  0  0
 16 28  1  0  0  0  0
 17 19  2  0  0  0  0
 17 33  1  0  0  0  0
 18 20  2  0  0  0  0
 18 34  1  0  0  0  0
 19 49  1  0  0  0  0
 20 35  1  0  0  0  0
 21 85  1  0  0  0  0
 22 86  1  0  0  0  0
 23 25  2  0  0  0  0
 23 85  1  0  0  0  0
 24 87  1  0  0  0  0
 25 88  1  0  0  0  0
 26 68  2  0  0  0  0
 27 69  1  0  0  0  0
 27 72  1  0  0  0  0
 28 73  1  0  0  0  0
 28 80  2  0  0  0  0
 29 50  1  0  0  0  0
 29 74  1  0  0  0  0
 29 81  2  0  0  0  0
 30 65  1  0  0  0  0
 30 70  1  0  0  0  0
 30 82  2  0  0  0  0
 31 66  1  0  0  0  0
 31 75  1  0  0  0  0
 31 83  2  0  0  0  0
 32 71  1  0  0  0  0
 32 76  1  0  0  0  0
 32 84  2  0  0  0  0
 33 36  1  0  0  0  0
 34 50  1  0  0  0  0
 35 70  1  0  0  0  0
 36 39  1  0  0  0  0
 37 41  1  0  0  0  0
 37 46  1  0  0  0  0
 38 40  1  0  0  0  0
 38 47  1  0  0  0  0
 39 49  1  0  0  0  0
 40 52  1  0  0  0  0
 41 55  1  0  0  0  0
 42 44  1  0  0  0  0
 42 53  1  0  0  0  0
 43 45  1  0  0  0  0
 43 53  1  0  0  0  0
 44 54  1  0  0  0  0
 45 54  1  0  0  0  0
 46 56  1  0  0  0  0
 47 71  1  0  0  0  0
 48 52  1  0  0  0  0
 48 71  1  0  0  0  0
 49 74  1  0  0  0  0
 50 70  1  0  0  0  0
 51 55  1  0  0  0  0
 51 56  1  0  0  0  0
 51 57  1  0  0  0  0
 52 69  1  0  0  0  0
 53 77  1  0  0  0  0
 54 78  1  0  0  0  0
 55 77  1  0  0  0  0
 56 86  1  0  0  0  0
 58 66  1  0  0  0  0
 59 67  1  0  0  0  0
 60 67  1  0  0  0  0
 61 67  1  0  0  0  0
 62 79  1  0  0  0  0
 63 64  1  0  0  0  0
 63 76  1  0  0  0  0
 64 78  1  0  0  0  0
 65 67  1  0  0  0  0
 65 75  1  0  0  0  0
 66 79  1  0  0  0  0
 68 69  1  0  0  0  0
M  CHG  3  77   1  78   1  79   1
M  ISO  4  32 100  56 101  76 100  86 101
M  END
> <Batch ID>
0129

> <Smiles>
CNC(C)C(=O)NC(C(=O)N1Cc2cc([101O:1][101CH:1]3CCCC(NC4CCC(NCC[100NH:0][100C:0](=O)N5CCCC(n6nc(-c7ccc(Oc8ccc(F)cc8F)cc7)c(C(N)=O)c6N)C5)CC4)C3C)ccc2CC1C(=O)NC1CCCc2ccccc21)C(C)(C)C

> <Shape>
0.225

> <Color>
0.164

> <Negative vol penalty>
0.000

$$$$

  -OEChem-04052320453D

 82 90  0     1  0  0  0  0  0999 V2000
  -16.5728  -29.3992   23.8370 C   0  0  0  0  0  0  0  0  0  0  0  0
  -17.3231  -28.2532   24.0799 C   0  0  0  0  0  0  0  0  0  0  0  0
  -23.3911  -10.4893   22.5462 C   0  0  0  0  0  0  0  0  0  0  0  0
  -24.9158  -11.4194   24.1733 C   0  0  0  0  0  0  0  0  0  0  0  0
  -17.0437  -30.3638   22.9472 C   0  0  0  0  0  0  0  0  0  0  0  0
  -18.5444  -28.0706   23.4322 C   0  0  0  0  0  0  0  0  0  0  0  0
  -25.0212  -25.1809   24.4409 C   0  0  0  0  0  0  0  0  0  0  0  0
  -22.9109   -9.5980   23.5057 C   0  0  0  0  0  0  0  0  0  0  0  0
  -24.4356  -10.5281   25.1328 C   0  0  0  0  0  0  0  0  0  0  0  0
  -25.9133  -24.2983   23.8335 C   0  0  0  0  0  0  0  0  0  0  0  0
  -20.7775   -9.6720   26.1279 C   0  0  0  0  0  0  0  0  0  0  0  0
  -19.3960   -9.5048   26.2235 C   0  0  0  0  0  0  0  0  0  0  0  0
  -26.6643  -26.0689   22.3774 C   0  0  0  0  0  0  0  0  0  0  0  0
  -19.6458   -7.1546   25.7222 C   0  0  0  0  0  0  0  0  0  0  0  0
  -24.3936  -11.4000   22.8800 C   0  0  0  0  0  0  0  0  0  0  0  0
  -24.1542  -13.2951   21.1892 C   0  0  0  0  0  0  0  0  0  0  0  0
  -18.2760  -30.1975   22.2957 C   0  0  0  0  0  0  0  0  0  0  0  0
  -24.9361  -26.5137   24.0130 C   0  0  0  0  0  0  0  0  0  0  0  0
  -19.0317  -29.0332   22.5319 C   0  0  0  0  0  0  0  0  0  0  0  0
  -25.7722  -26.9671   22.9827 C   0  0  0  0  0  0  0  0  0  0  0  0
  -23.4331   -9.6174   24.7990 C   0  0  0  0  0  0  0  0  0  0  0  0
  -26.7330  -24.7415   22.7996 C   0  0  0  0  0  0  0  0  0  0  0  0
  -21.5932   -8.5805   25.8294 C   0  0  0  0  0  0  0  0  0  0  0  0
  -18.8302   -8.2461   26.0207 C   0  0  0  0  0  0  0  0  0  0  0  0
  -21.0273   -7.3218   25.6266 C   0  0  0  0  0  0  0  0  0  0  0  0
  -24.8905  -12.3205   21.8892 C   0  0  0  0  0  0  0  0  0  0  0  0
  -25.0770  -13.9014   20.3722 C   0  0  0  0  0  0  0  0  0  0  0  0
  -22.7609  -13.6231   21.2704 C   0  0  0  0  0  0  0  0  0  0  0  0
  -22.6511  -28.3190   22.7391 C   0  0  0  0  0  0  0  0  0  0  0  0
  -24.8485  -30.6765   23.1071 C   0  0  0  0  0  0  0  0  0  0  0  0
  -28.1321  -31.5543   23.4144 C   0  0  0  0  0  0  0  0  0  0  0  0
  -31.0208  -14.5423   20.7060 C   0  0  0  0  0  0  0  0  0  0  0  0
  -18.7214  -31.2452   21.3065 C   0  0  0  0  0  0  0  0  0  0  0  0
  -23.9876  -27.4600   24.6965 C   0  0  0  0  0  0  0  0  0  0  0  0
  -25.7339  -28.3933   22.5001 C   0  0  0  0  0  0  0  0  0  0  0  0
  -20.2018  -31.1523   20.9459 C   0  0  0  0  0  0  0  0  0  0  0  0
  -29.1754  -13.0328   18.0616 C   0  0  0  0  0  0  0  0  0  0  0  0
  -20.5877  -29.7080   20.6426 C   0  0  0  0  0  0  0  0  0  0  0  0
  -27.8016  -12.7670   18.6795 C   0  0  0  0  0  0  0  0  0  0  0  0
  -29.4529  -20.9496   19.6294 C   0  0  0  0  0  0  0  0  0  0  0  0
  -30.2995  -12.8240   19.0739 C   0  0  0  0  0  0  0  0  0  0  0  0
  -28.7767  -13.3167   20.9480 C   0  0  0  0  0  0  0  0  0  0  0  0
  -29.5029  -19.5167   20.1415 C   0  0  0  0  0  0  0  0  0  0  0  0
  -28.7032  -20.2926   22.3947 C   0  0  0  0  0  0  0  0  0  0  0  0
  -20.3730  -28.8107   21.8675 C   0  0  1  0  0  0  0  0  0  0  0  0
  -23.6200  -28.6638   23.8345 C   0  0  1  0  0  0  0  0  0  0  0  0
  -28.4131  -21.8134   20.3609 C   0  0  2  0  0  0  0  0  0  0  0  0
  -28.6508  -21.7368   21.8870 C   0  0  1  0  0  0  0  0  0  0  0  0
  -27.6074  -13.5686   19.9807 C   0  0  2  0  0  0  0  0  0  0  0  0
  -26.9905  -21.4326   19.9324 C   0  0  0  0  0  0  0  0  0  0  0  0
  -29.6203  -33.5597   23.6616 C   0  0  0  0  0  0  0  0  0  0  0  0
  -24.4733  -31.3168   20.1475 C   0  0  0  0  0  0  0  0  0  0  0  0
  -26.6036  -32.6293   20.2329 C   0  0  0  0  0  0  0  0  0  0  0  0
  -24.6581  -33.3202   21.6330 C   0  0  0  0  0  0  0  0  0  0  0  0
  -29.1581  -30.6155   26.0268 C   0  0  0  0  0  0  0  0  0  0  0  0
  -27.6259  -22.5400   22.6896 C   0  0  0  0  0  0  0  0  0  1  0  0
  -31.3307  -17.6418   21.8546 C   0  0  0  0  0  0  0  0  0  0  0  0
  -31.5976  -16.2484   22.4135 C   0  0  0  0  0  0  0  0  0  0  0  0
  -29.9218  -18.1292   22.1679 C   0  0  0  0  0  0  0  0  0  0  0  0
  -25.9595  -31.2446   22.2574 C   0  0  1  0  0  0  0  0  0  0  0  0
  -28.8414  -32.4756   24.3903 C   0  0  2  0  0  0  0  0  0  0  0  0
  -25.4232  -32.1003   21.0753 C   0  0  0  0  0  0  0  0  0  0  0  0
  -26.1814  -12.3049   21.5466 N   0  0  0  0  0  0  0  0  0  0  0  0
  -26.2635  -13.2772   20.6225 N   0  0  0  0  0  0  0  0  0  0  0  0
  -24.7854  -29.2787   23.1958 N   0  0  0  0  0  0  0  0  0  0  0  0
  -30.0558  -13.6129   20.2839 N   0  0  0  0  0  0  0  0  0  0  0  0
  -24.9810  -14.9022   19.4713 N   0  0  0  0  0  0  0  0  0  0  0  0
  -21.9554  -12.9016   22.1620 N   0  0  0  0  0  0  0  0  0  0  0  0
  -21.4467  -28.9916   22.8209 N   0  0  0  0  0  0  0  0  0  0  0  0
  -26.8403  -31.9685   23.1678 N   0  0  0  0  0  0  0  0  0  0  0  0
  -30.7081  -15.2527   21.8585 N   0  0  0  0  0  0  0  0  0  0  0  0
  -29.7535  -19.5236   21.6287 N   0  3  1  0  0  0  0  0  0  0  0  0
  -29.7931  -31.7009   25.2358 N   0  3  0  0  0  0  0  0  0  0  0  0
  -22.2420  -14.5182   20.5610 O   0  0  0  0  0  0  0  0  0  0  0  0
  -22.9728  -27.5042   21.8822 O   0  0  0  0  0  0  0  0  0  0  0  0
  -24.0698  -31.4449   23.6771 O   0  0  0  0  0  0  0  0  0  0  0  0
  -28.6714  -30.5680   22.9174 O   0  0  0  0  0  0  0  0  0  0  0  0
  -32.0800  -14.7291   20.0977 O   0  0  0  0  0  0  0  0  0  0  0  0
  -22.9646   -8.7480   25.7355 O   0  0  0  0  0  0  0  0  0  0  0  0
  -27.6041  -23.8819   22.2046 O   0  0  0  0  0  0  0  0  0  1  0  0
  -17.5037   -8.0853   26.1141 F   0  0  0  0  0  0  0  0  0  0  0  0
  -21.8059   -6.2693   25.3407 F   0  0  0  0  0  0  0  0  0  0  0  0
  1  2  1  0  0  0  0
  1  5  2  0  0  0  0
  2  6  2  0  0  0  0
  3  8  2  0  0  0  0
  3 15  1  0  0  0  0
  4  9  1  0  0  0  0
  4 15  2  0  0  0  0
  5 17  1  0  0  0  0
  6 19  1  0  0  0  0
  7 10  2  0  0  0  0
  7 18  1  0  0  0  0
  8 21  1  0  0  0  0
  9 21  2  0  0  0  0
 10 22  1  0  0  0  0
 11 12  2  0  0  0  0
 11 23  1  0  0  0  0
 12 24  1  0  0  0  0
 13 20  1  0  0  0  0
 13 22  2  0  0  0  0
 14 24  2  0  0  0  0
 14 25  1  0  0  0  0
 15 26  1  0  0  0  0
 16 26  1  0  0  0  0
 16 27  2  0  0  0  0
 16 28  1  0  0  0  0
 17 19  2  0  0  0  0
 17 33  1  0  0  0  0
 18 20  2  0  0  0  0
 18 34  1  0  0  0  0
 19 45  1  0  0  0  0
 20 35  1  0  0  0  0
 21 79  1  0  0  0  0
 22 80  1  0  0  0  0
 23 25  2  0  0  0  0
 23 79  1  0  0  0  0
 24 81  1  0  0  0  0
 25 82  1  0  0  0  0
 26 63  2  0  0  0  0
 27 64  1  0  0  0  0
 27 67  1  0  0  0  0
 28 68  1  0  0  0  0
 28 74  2  0  0  0  0
 29 46  1  0  0  0  0
 29 69  1  0  0  0  0
 29 75  2  0  0  0  0
 30 60  1  0  0  0  0
 30 65  1  0  0  0  0
 30 76  2  0  0  0  0
 31 61  1  0  0  0  0
 31 70  1  0  0  0  0
 31 77  2  0  0  0  0
 32 66  1  0  0  0  0
 32 71  1  0  0  0  0
 32 78  2  0  0  0  0
 33 36  1  0  0  0  0
 34 46  1  0  0  0  0
 35 65  1  0  0  0  0
 36 38  1  0  0  0  0
 37 39  1  0  0  0  0
 37 41  1  0  0  0  0
 38 45  1  0  0  0  0
 39 49  1  0  0  0  0
 40 43  1  0  0  0  0
 40 47  1  0  0  0  0
 41 66  1  0  0  0  0
 42 49  1  0  0  0  0
 42 66  1  0  0  0  0
 43 72  1  0  0  0  0
 44 48  1  0  0  0  0
 44 72  1  0  0  0  0
 45 69  1  0  0  0  0
 46 65  1  0  0  0  0
 47 48  1  0  0  0  0
 47 50  1  0  0  0  0
 48 56  1  0  0  0  0
 49 64  1  0  0  0  0
 51 61  1  0  0  0  0
 52 62  1  0  0  0  0
 53 62  1  0  0  0  0
 54 62  1  0  0  0  0
 55 73  1  0  0  0  0
 56 80  1  0  0  0  0
 57 58  1  0  0  0  0
 57 59  1  0  0  0  0
 58 71  1  0  0  0  0
 59 72  1  0  0  0  0
 60 62  1  0  0  0  0
 60 70  1  0  0  0  0
 61 73  1  0  0  0  0
 63 64  1  0  0  0  0
M  CHG  2  72   1  73   1
M  ISO  4  32 100  56 101  71 100  80 101
M  END
> <Batch ID>
0129

> <Smiles>
CNC(C)C(=O)NC(C(=O)N1Cc2cc([101O:1][101CH2:1]C3CN(CCC[100NH:0][100C:0](=O)N4CCCC(n5nc(-c6ccc(Oc7ccc(F)cc7F)cc6)c(C(N)=O)c5N)C4)CCC3C)ccc2CC1C(=O)NC1CCCc2ccccc21)C(C)(C)C

> <Shape>
0.269

> <Color>
0.151

> <Negative vol penalty>
0.000

$$$$

  -OEChem-04052320453D

 90 99  0     1  0  0  0  0  0999 V2000
  -20.5470  -26.8069   18.9619 C   0  0  0  0  0  0  0  0  0  0  0  0
  -21.4020  -25.9692   19.6709 C   0  0  0  0  0  0  0  0  0  0  0  0
  -23.4326   -9.7175   19.8903 C   0  0  0  0  0  0  0  0  0  0  0  0
  -23.9247   -9.8641   22.2511 C   0  0  0  0  0  0  0  0  0  0  0  0
  -19.7146  -27.6919   19.6458 C   0  0  0  0  0  0  0  0  0  0  0  0
  -21.4258  -26.0169   21.0643 C   0  0  0  0  0  0  0  0  0  0  0  0
  -21.4022  -21.3356   23.2038 C   0  0  0  0  0  0  0  0  0  0  0  0
  -27.7617  -19.7934   25.2743 C   0  0  0  0  0  0  0  0  0  0  0  0
  -28.9383  -19.0627   25.1090 C   0  0  0  0  0  0  0  0  0  0  0  0
  -22.8110   -8.4859   20.0963 C   0  0  0  0  0  0  0  0  0  0  0  0
  -23.3031   -8.6325   22.4572 C   0  0  0  0  0  0  0  0  0  0  0  0
  -22.5941  -20.6128   23.2292 C   0  0  0  0  0  0  0  0  0  0  0  0
  -23.7460   -5.2708   20.5581 C   0  0  0  0  0  0  0  0  0  0  0  0
  -24.0420   -4.2392   19.6671 C   0  0  0  0  0  0  0  0  0  0  0  0
  -27.6838  -17.0048   25.2776 C   0  0  0  0  0  0  0  0  0  0  0  0
  -22.9662  -21.3180   25.5057 C   0  0  0  0  0  0  0  0  0  0  0  0
  -21.7094   -4.1001   19.0533 C   0  0  0  0  0  0  0  0  0  0  0  0
  -23.9895  -10.4065   20.9677 C   0  0  0  0  0  0  0  0  0  0  0  0
  -24.0333  -12.9517   20.8014 C   0  0  0  0  0  0  0  0  0  0  0  0
  -19.7213  -27.7437   21.0486 C   0  0  0  0  0  0  0  0  0  0  0  0
  -20.9873  -22.0649   24.3275 C   0  0  0  0  0  0  0  0  0  0  0  0
  -20.5937  -26.9044   21.7676 C   0  0  0  0  0  0  0  0  0  0  0  0
  -26.5073  -17.7355   25.4430 C   0  0  0  0  0  0  0  0  0  0  0  0
  -21.7663  -22.0452   25.4935 C   0  0  0  0  0  0  0  0  0  0  0  0
  -26.5462  -19.1299   25.4414 C   0  0  0  0  0  0  0  0  0  0  0  0
  -28.8993  -17.6684   25.1106 C   0  0  0  0  0  0  0  0  0  0  0  0
  -22.7462   -7.9434   21.3797 C   0  0  0  0  0  0  0  0  0  0  0  0
  -23.3774  -20.6058   24.3794 C   0  0  0  0  0  0  0  0  0  0  0  0
  -22.4317   -5.7170   20.6968 C   0  0  0  0  0  0  0  0  0  0  0  0
  -23.0237   -3.6539   18.9147 C   0  0  0  0  0  0  0  0  0  0  0  0
  -21.4134   -5.1317   19.9444 C   0  0  0  0  0  0  0  0  0  0  0  0
  -24.6322  -11.6785   20.7554 C   0  0  0  0  0  0  0  0  0  0  0  0
  -25.0601  -13.8240   20.5340 C   0  0  0  0  0  0  0  0  0  0  0  0
  -22.6708  -13.3137   21.0625 C   0  0  0  0  0  0  0  0  0  0  0  0
  -20.3677  -25.1320   25.0018 C   0  0  0  0  0  0  0  0  0  0  0  0
  -19.4184  -23.7665   27.8806 C   0  0  0  0  0  0  0  0  0  0  0  0
  -17.9229  -26.7137   28.7275 C   0  0  0  0  0  0  0  0  0  0  0  0
  -30.9981  -13.4623   21.2120 C   0  0  0  0  0  0  0  0  0  0  0  0
  -18.8378  -28.7502   21.7421 C   0  0  0  0  0  0  0  0  0  0  0  0
  -19.6826  -22.8137   24.2895 C   0  0  0  0  0  0  0  0  0  0  0  0
  -21.3630  -22.8081   26.7264 C   0  0  0  0  0  0  0  0  0  0  0  0
  -18.6532  -28.4742   23.2321 C   0  0  0  0  0  0  0  0  0  0  0  0
  -29.2232  -14.1020   18.1926 C   0  0  0  0  0  0  0  0  0  0  0  0
  -24.5541  -15.1028   24.2248 C   0  0  0  0  0  0  0  0  0  0  0  0
  -19.9953  -28.1657   23.8881 C   0  0  0  0  0  0  0  0  0  0  0  0
  -24.4867  -16.6185   24.3145 C   0  0  0  0  0  0  0  0  0  0  0  0
  -27.7913  -13.6683   18.5112 C   0  0  0  0  0  0  0  0  0  0  0  0
  -30.2506  -13.1945   18.8656 C   0  0  0  0  0  0  0  0  0  0  0  0
  -28.6462  -12.6033   20.6404 C   0  0  0  0  0  0  0  0  0  0  0  0
  -24.4715  -14.6646   25.6690 C   0  0  0  0  0  0  0  0  0  0  0  0
  -20.6305  -26.9093   23.2804 C   0  0  1  0  0  0  0  0  0  0  0  0
  -25.2028  -16.9948   25.6238 C   0  0  1  0  0  0  0  0  0  0  0  0
  -19.5743  -23.9052   25.3523 C   0  0  1  0  0  0  0  0  0  0  0  0
  -27.5743  -13.5220   20.0293 C   0  0  2  0  0  0  0  0  0  0  0  0
  -16.4051  -27.7292   30.4486 C   0  0  0  0  0  0  0  0  0  0  0  0
  -26.0697  -16.7996   28.4148 C   0  0  0  0  0  0  0  0  0  0  0  0
  -25.3820  -14.3705   28.4450 C   0  0  0  0  0  0  0  0  0  0  0  0
  -17.0275  -22.3892   26.5798 C   0  0  0  0  0  0  0  0  0  0  0  0
  -15.5485  -24.1044   27.6471 C   0  0  0  0  0  0  0  0  0  0  0  0
  -16.9012  -22.5666   29.0712 C   0  0  0  0  0  0  0  0  0  0  0  0
  -19.9898  -28.6559   29.5729 C   0  0  0  0  0  0  0  0  0  0  0  0
  -25.2941  -19.9375   25.6186 C   0  0  0  0  0  0  0  0  0  1  0  0
  -31.4896  -15.1556   24.0279 C   0  0  0  0  0  0  0  0  0  0  0  0
  -30.1021  -15.5630   24.5221 C   0  0  0  0  0  0  0  0  0  0  0  0
  -31.5958  -13.6906   23.6099 C   0  0  0  0  0  0  0  0  0  0  0  0
  -18.0605  -24.4178   27.7979 C   0  0  1  0  0  0  0  0  0  0  0  0
  -17.8471  -27.4627   30.0457 C   0  0  2  0  0  0  0  0  0  0  0  0
  -25.1362  -15.7447   27.8431 C   0  0  0  0  0  0  0  0  0  0  0  0
  -16.9058  -23.3774   27.7570 C   0  0  0  0  0  0  0  0  0  0  0  0
  -25.9381  -11.7326   20.4803 N   0  0  0  0  0  0  0  0  0  0  0  0
  -26.1683  -13.0503   20.3510 N   0  0  0  0  0  0  0  0  0  0  0  0
  -20.0440  -23.4516   26.6676 N   0  0  0  0  0  0  0  0  0  0  0  0
  -29.9898  -13.0996   20.3039 N   0  0  0  0  0  0  0  0  0  0  0  0
  -25.1140  -15.1696   20.4399 N   0  0  0  0  0  0  0  0  0  0  0  0
  -21.7455  -12.2925   21.3180 N   0  0  0  0  0  0  0  0  0  0  0  0
  -30.0891  -16.9300   24.9424 N   0  0  0  0  0  0  0  0  0  0  0  0
  -19.9983  -25.7184   23.8063 N   0  0  0  0  0  0  0  0  0  0  0  0
  -17.9858  -25.3495   28.9180 N   0  0  0  0  0  0  0  0  0  0  0  0
  -30.6662  -13.3487   22.5565 N   0  0  0  0  0  0  0  0  0  0  0  0
  -25.3607  -15.6629   26.3666 N   0  3  1  0  0  0  0  0  0  0  0  0
  -18.5549  -28.7699   29.9403 N   0  3  0  0  0  0  0  0  0  0  0  0
  -22.2819  -14.5062   21.0528 O   0  0  0  0  0  0  0  0  0  0  0  0
  -21.2488  -25.5190   25.7606 O   0  0  0  0  0  0  0  0  0  0  0  0
  -19.9097  -23.5353   28.9889 O   0  0  0  0  0  0  0  0  0  0  0  0
  -17.9224  -27.2818   27.6376 O   0  0  0  0  0  0  0  0  0  0  0  0
  -32.1100  -13.8632   20.8514 O   0  0  0  0  0  0  0  0  0  0  0  0
  -22.1396   -6.7417   21.5812 O   0  0  0  0  0  0  0  0  0  0  0  0
  -24.5410  -19.9006   24.4071 O   0  0  0  0  0  0  0  0  0  1  0  0
  -23.3083   -2.6643   18.0580 F   0  0  0  0  0  0  0  0  0  0  0  0
  -20.1490   -5.5569   20.0724 F   0  0  0  0  0  0  0  0  0  0  0  0
  1  2  1  0  0  0  0
  1  5  2  0  0  0  0
  2  6  2  0  0  0  0
  3 10  2  0  0  0  0
  3 18  1  0  0  0  0
  4 11  1  0  0  0  0
  4 18  2  0  0  0  0
  5 20  1  0  0  0  0
  6 22  1  0  0  0  0
  7 12  2  0  0  0  0
  7 21  1  0  0  0  0
  8  9  2  0  0  0  0
  8 25  1  0  0  0  0
  9 26  1  0  0  0  0
 10 27  1  0  0  0  0
 11 27  2  0  0  0  0
 12 28  1  0  0  0  0
 13 14  2  0  0  0  0
 13 29  1  0  0  0  0
 14 30  1  0  0  0  0
 15 23  1  0  0  0  0
 15 26  2  0  0  0  0
 16 24  1  0  0  0  0
 16 28  2  0  0  0  0
 17 30  2  0  0  0  0
 17 31  1  0  0  0  0
 18 32  1  0  0  0  0
 19 32  1  0  0  0  0
 19 33  2  0  0  0  0
 19 34  1  0  0  0  0
 20 22  2  0  0  0  0
 20 39  1  0  0  0  0
 21 24  2  0  0  0  0
 21 40  1  0  0  0  0
 22 51  1  0  0  0  0
 23 25  2  0  0  0  0
 23 52  1  0  0  0  0
 24 41  1  0  0  0  0
 25 62  1  0  0  0  0
 26 76  1  0  0  0  0
 27 87  1  0  0  0  0
 28 88  1  0  0  0  0
 29 31  2  0  0  0  0
 29 87  1  0  0  0  0
 30 89  1  0  0  0  0
 31 90  1  0  0  0  0
 32 70  2  0  0  0  0
 33 71  1  0  0  0  0
 33 74  1  0  0  0  0
 34 75  1  0  0  0  0
 34 82  2  0  0  0  0
 35 53  1  0  0  0  0
 35 77  1  0  0  0  0
 35 83  2  0  0  0  0
 36 66  1  0  0  0  0
 36 72  1  0  0  0  0
 36 84  2  0  0  0  0
 37 67  1  0  0  0  0
 37 78  1  0  0  0  0
 37 85  2  0  0  0  0
 38 73  1  0  0  0  0
 38 79  1  0  0  0  0
 38 86  2  0  0  0  0
 39 42  1  0  0  0  0
 40 53  1  0  0  0  0
 41 72  1  0  0  0  0
 42 45  1  0  0  0  0
 43 47  1  0  0  0  0
 43 48  1  0  0  0  0
 44 46  1  0  0  0  0
 44 50  1  0  0  0  0
 45 51  1  0  0  0  0
 46 52  1  0  0  0  0
 47 54  1  0  0  0  0
 48 73  1  0  0  0  0
 49 54  1  0  0  0  0
 49 73  1  0  0  0  0
 50 80  1  0  0  0  0
 51 77  1  0  0  0  0
 52 80  1  0  0  0  0
 53 72  1  0  0  0  0
 54 71  1  0  0  0  0
 55 67  1  0  0  0  0
 56 68  1  0  0  0  0
 57 68  1  0  0  0  0
 58 69  1  0  0  0  0
 59 69  1  0  0  0  0
 60 69  1  0  0  0  0
 61 81  1  0  0  0  0
 62 88  1  0  0  0  0
 63 64  1  0  0  0  0
 63 65  1  0  0  0  0
 64 76  1  0  0  0  0
 65 79  1  0  0  0  0
 66 69  1  0  0  0  0
 66 78  1  0  0  0  0
 67 81  1  0  0  0  0
 68 80  1  0  0  0  0
 70 71  1  0  0  0  0
M  CHG  2  80   1  81   1
M  ISO  4  38 100  62 101  79 100  88 101
M  END
> <Batch ID>
0129

> <Smiles>
CNC(C)C(=O)NC(C(=O)N1Cc2cc([101O:1][101CH2:1]c3ccc(NCCC[100NH:0][100C:0](=O)N4CCCC(n5nc(-c6ccc(Oc7ccc(F)cc7F)cc6)c(C(N)=O)c5N)C4)cc3C3CCCN3C(C)C)ccc2CC1C(=O)NC1CCCc2ccccc21)C(C)(C)C

> <Shape>
0.161

> <Color>
0.169

> <Negative vol penalty>
0.000

$$$$

  -OEChem-04052320453D

 82 90  0     1  0  0  0  0  0999 V2000
  -28.2562  -31.9894   27.4020 C   0  0  0  0  0  0  0  0  0  0  0  0
  -28.2397  -30.9160   26.5170 C   0  0  0  0  0  0  0  0  0  0  0  0
  -24.4438  -13.4984   19.1992 C   0  0  0  0  0  0  0  0  0  0  0  0
  -26.0437  -14.1668   20.8816 C   0  0  0  0  0  0  0  0  0  0  0  0
  -27.0753  -32.6727   27.6892 C   0  0  0  0  0  0  0  0  0  0  0  0
  -27.0421  -30.5248   25.9195 C   0  0  0  0  0  0  0  0  0  0  0  0
  -27.5502  -29.6130   20.9642 C   0  0  0  0  0  0  0  0  0  0  0  0
  -30.2689  -24.5193   18.1701 C   0  0  0  0  0  0  0  0  0  0  0  0
  -30.6573  -23.2491   17.7443 C   0  0  0  0  0  0  0  0  0  0  0  0
  -24.5898  -12.1672   19.5892 C   0  0  0  0  0  0  0  0  0  0  0  0
  -26.1897  -12.8356   21.2717 C   0  0  0  0  0  0  0  0  0  0  0  0
  -28.1229  -28.3963   20.5961 C   0  0  0  0  0  0  0  0  0  0  0  0
  -24.2707   -8.6340   20.3827 C   0  0  0  0  0  0  0  0  0  0  0  0
  -23.1125   -7.8711   20.5316 C   0  0  0  0  0  0  0  0  0  0  0  0
  -25.9259  -27.5013   20.1590 C   0  0  0  0  0  0  0  0  0  0  0  0
  -29.5352  -23.5893   20.2757 C   0  0  0  0  0  0  0  0  0  0  0  0
  -22.3231   -9.4005   22.2271 C   0  0  0  0  0  0  0  0  0  0  0  0
  -25.1708  -14.4982   19.8453 C   0  0  0  0  0  0  0  0  0  0  0  0
  -24.0996  -16.8113   19.9463 C   0  0  0  0  0  0  0  0  0  0  0  0
  -25.8643  -32.2958   27.0875 C   0  0  0  0  0  0  0  0  0  0  0  0
  -26.1580  -29.7797   20.9428 C   0  0  0  0  0  0  0  0  0  0  0  0
  -25.8437  -31.2029   26.2000 C   0  0  0  0  0  0  0  0  0  0  0  0
  -25.3381  -28.7218   20.5248 C   0  0  0  0  0  0  0  0  0  0  0  0
  -29.7079  -24.6894   19.4358 C   0  0  0  0  0  0  0  0  0  0  0  0
  -30.4846  -22.1489   18.5842 C   0  0  0  0  0  0  0  0  0  0  0  0
  -29.9235  -22.3190   19.8500 C   0  0  0  0  0  0  0  0  0  0  0  0
  -25.4627  -11.8358   20.6254 C   0  0  0  0  0  0  0  0  0  0  0  0
  -27.3106  -27.3393   20.1962 C   0  0  0  0  0  0  0  0  0  0  0  0
  -24.4552   -9.7801   21.1560 C   0  0  0  0  0  0  0  0  0  0  0  0
  -22.1387   -8.2544   21.4538 C   0  0  0  0  0  0  0  0  0  0  0  0
  -23.4814  -10.1634   22.0782 C   0  0  0  0  0  0  0  0  0  0  0  0
  -25.0208  -15.8735   19.4425 C   0  0  0  0  0  0  0  0  0  0  0  0
  -24.3607  -17.9613   19.2423 C   0  0  0  0  0  0  0  0  0  0  0  0
  -23.0975  -16.6566   20.9600 C   0  0  0  0  0  0  0  0  0  0  0  0
  -23.9423  -30.4245   23.1289 C   0  0  0  0  0  0  0  0  0  0  0  0
  -21.9901  -30.5708   20.5424 C   0  0  0  0  0  0  0  0  0  0  0  0
  -21.3835  -29.6446   17.3143 C   0  0  0  0  0  0  0  0  0  0  0  0
  -29.2416  -20.0098   16.4437 C   0  0  0  0  0  0  0  0  0  0  0  0
  -24.6051  -33.0348   27.4652 C   0  0  0  0  0  0  0  0  0  0  0  0
  -25.5573  -31.1069   21.3173 C   0  0  0  0  0  0  0  0  0  0  0  0
  -23.8392  -28.8561   20.4650 C   0  0  0  0  0  0  0  0  0  0  0  0
  -23.4453  -32.7939   26.5023 C   0  0  0  0  0  0  0  0  0  0  0  0
  -26.0243  -19.4694   15.0175 C   0  0  0  0  0  0  0  0  0  0  0  0
  -23.3069  -31.3062   26.1949 C   0  0  0  0  0  0  0  0  0  0  0  0
  -25.3192  -18.5711   16.0353 C   0  0  0  0  0  0  0  0  0  0  0  0
  -27.5100  -19.1349   14.9034 C   0  0  0  0  0  0  0  0  0  0  0  0
  -27.5404  -18.2402   17.1995 C   0  0  0  0  0  0  0  0  0  0  0  0
  -24.5688  -30.7642   25.5127 C   0  0  1  0  0  0  0  0  0  0  0  0
  -24.0983  -31.0016   21.7504 C   0  0  1  0  0  0  0  0  0  0  0  0
  -26.0517  -18.5769   17.3906 C   0  0  2  0  0  0  0  0  0  0  0  0
  -28.2451  -20.9129   21.0987 C   0  0  0  0  0  0  0  0  0  0  0  0
  -30.5420  -21.2903   22.0666 C   0  0  0  0  0  0  0  0  0  0  0  0
  -19.6881  -29.8884   15.4803 C   0  0  0  0  0  0  0  0  0  0  0  0
  -20.1818  -28.5559   21.9496 C   0  0  0  0  0  0  0  0  0  0  0  0
  -19.0643  -28.1280   19.7504 C   0  0  0  0  0  0  0  0  0  0  0  0
  -18.9708  -30.4012   20.7736 C   0  0  0  0  0  0  0  0  0  0  0  0
  -23.3343  -30.9739   15.5293 C   0  0  0  0  0  0  0  0  0  0  0  0
  -30.9069  -20.7985   18.1061 C   0  0  0  0  0  0  0  0  0  0  0  0
  -29.2897  -26.0559   19.8934 C   0  0  0  0  0  0  0  0  0  1  0  0
  -29.7286  -21.1558   20.7663 C   0  0  0  0  0  0  0  0  0  0  0  0
  -21.1457  -29.5764   19.7827 C   0  0  1  0  0  0  0  0  0  0  0  0
  -20.9597  -30.4485   16.0983 C   0  0  2  0  0  0  0  0  0  0  0  0
  -19.8687  -29.1619   20.5669 C   0  0  0  0  0  0  0  0  0  0  0  0
  -25.8082  -16.3836   18.4918 N   0  0  0  0  0  0  0  0  0  0  0  0
  -25.3823  -17.6544   18.3925 N   0  0  0  0  0  0  0  0  0  0  0  0
  -23.2991  -30.1714   20.8469 N   0  0  0  0  0  0  0  0  0  0  0  0
  -28.1459  -19.1590   16.2228 N   0  0  0  0  0  0  0  0  0  0  0  0
  -23.8136  -19.1951   19.2734 N   0  0  0  0  0  0  0  0  0  0  0  0
  -22.9638  -15.4079   21.5822 N   0  0  0  0  0  0  0  0  0  0  0  0
  -24.5903  -31.1423   24.1160 N   0  0  0  0  0  0  0  0  0  0  0  0
  -20.8783  -30.1783   18.4809 N   0  0  0  0  0  0  0  0  0  0  0  0
  -29.7811  -19.9757   17.7238 N   0  0  0  0  0  0  0  0  0  0  0  0
  -22.0329  -30.4287   15.0645 N   0  3  0  0  0  0  0  0  0  0  0  0
  -22.3321  -17.5932   21.2923 O   0  0  0  0  0  0  0  0  0  0  0  0
  -23.2816  -29.4043   23.2855 O   0  0  0  0  0  0  0  0  0  0  0  0
  -21.5084  -31.6645   20.8480 O   0  0  0  0  0  0  0  0  0  0  0  0
  -22.0889  -28.6411   17.2365 O   0  0  0  0  0  0  0  0  0  0  0  0
  -29.7013  -20.7491   15.5668 O   0  0  0  0  0  0  0  0  0  0  0  0
  -25.6052  -10.5369   21.0065 O   0  0  0  0  0  0  0  0  0  0  0  0
  -27.8670  -26.1505   19.8370 O   0  0  0  0  0  0  0  0  0  1  0  0
  -21.0259   -7.5225   21.5956 F   0  0  0  0  0  0  0  0  0  0  0  0
  -23.6524  -11.2642   22.8231 F   0  0  0  0  0  0  0  0  0  0  0  0
  1  2  1  0  0  0  0
  1  5  2  0  0  0  0
  2  6  2  0  0  0  0
  3 10  2  0  0  0  0
  3 18  1  0  0  0  0
  4 11  1  0  0  0  0
  4 18  2  0  0  0  0
  5 20  1  0  0  0  0
  6 22  1  0  0  0  0
  7 12  2  0  0  0  0
  7 21  1  0  0  0  0
  8  9  2  0  0  0  0
  8 24  1  0  0  0  0
  9 25  1  0  0  0  0
 10 27  1  0  0  0  0
 11 27  2  0  0  0  0
 12 28  1  0  0  0  0
 13 14  2  0  0  0  0
 13 29  1  0  0  0  0
 14 30  1  0  0  0  0
 15 23  1  0  0  0  0
 15 28  2  0  0  0  0
 16 24  2  0  0  0  0
 16 26  1  0  0  0  0
 17 30  2  0  0  0  0
 17 31  1  0  0  0  0
 18 32  1  0  0  0  0
 19 32  1  0  0  0  0
 19 33  2  0  0  0  0
 19 34  1  0  0  0  0
 20 22  2  0  0  0  0
 20 39  1  0  0  0  0
 21 23  2  0  0  0  0
 21 40  1  0  0  0  0
 22 48  1  0  0  0  0
 23 41  1  0  0  0  0
 24 59  1  0  0  0  0
 25 26  2  0  0  0  0
 25 58  1  0  0  0  0
 26 60  1  0  0  0  0
 27 79  1  0  0  0  0
 28 80  1  0  0  0  0
 29 31  2  0  0  0  0
 29 79  1  0  0  0  0
 30 81  1  0  0  0  0
 31 82  1  0  0  0  0
 32 64  2  0  0  0  0
 33 65  1  0  0  0  0
 33 68  1  0  0  0  0
 34 69  1  0  0  0  0
 34 74  2  0  0  0  0
 35 49  1  0  0  0  0
 35 70  1  0  0  0  0
 35 75  2  0  0  0  0
 36 61  1  0  0  0  0
 36 66  1  0  0  0  0
 36 76  2  0  0  0  0
 37 62  1  0  0  0  0
 37 71  1  0  0  0  0
 37 77  2  0  0  0  0
 38 67  1  0  0  0  0
 38 72  1  0  0  0  0
 38 78  2  0  0  0  0
 39 42  1  0  0  0  0
 40 49  1  0  0  0  0
 41 66  1  0  0  0  0
 42 44  1  0  0  0  0
 43 45  1  0  0  0  0
 43 46  1  0  0  0  0
 44 48  1  0  0  0  0
 45 50  1  0  0  0  0
 46 67  1  0  0  0  0
 47 50  1  0  0  0  0
 47 67  1  0  0  0  0
 48 70  1  0  0  0  0
 49 66  1  0  0  0  0
 50 65  1  0  0  0  0
 51 60  1  0  0  0  0
 52 60  1  0  0  0  0
 53 62  1  0  0  0  0
 54 63  1  0  0  0  0
 55 63  1  0  0  0  0
 56 63  1  0  0  0  0
 57 73  1  0  0  0  0
 58 72  1  0  0  0  0
 59 80  1  0  0  0  0
 61 63  1  0  0  0  0
 61 71  1  0  0  0  0
 62 73  1  0  0  0  0
 64 65  1  0  0  0  0
M  CHG  1  73   1
M  ISO  4  38 100  59 101  72 100  80 101
M  END
> <Batch ID>
0129

> <Smiles>
CNC(C)C(=O)NC(C(=O)N1Cc2cc([101O:1][101CH2:1]c3ccc(C[100NH:0][100C:0](=O)N4CCCC(n5nc(-c6ccc(Oc7ccc(F)cc7F)cc6)c(C(N)=O)c5N)C4)c(C(C)C)c3)ccc2CC1C(=O)NC1CCCc2ccccc21)C(C)(C)C

> <Shape>
0.258

> <Color>
0.088

> <Negative vol penalty>
0.000

$$$$

  -OEChem-04052320453D

 85 93  0     1  0  0  0  0  0999 V2000
  -31.6844  -25.9536   19.3187 C   0  0  0  0  0  0  0  0  0  0  0  0
  -30.7224  -25.2908   20.0741 C   0  0  0  0  0  0  0  0  0  0  0  0
  -28.2805  -16.7706   21.2278 C   0  0  0  0  0  0  0  0  0  0  0  0
  -27.2355  -17.1767   19.0877 C   0  0  0  0  0  0  0  0  0  0  0  0
  -31.7426  -27.3466   19.3334 C   0  0  0  0  0  0  0  0  0  0  0  0
  -29.8187  -26.0206   20.8456 C   0  0  0  0  0  0  0  0  0  0  0  0
  -25.0684  -24.3241   20.3971 C   0  0  0  0  0  0  0  0  0  0  0  0
  -28.9676  -17.9798   21.1218 C   0  0  0  0  0  0  0  0  0  0  0  0
  -27.9226  -18.3860   18.9817 C   0  0  0  0  0  0  0  0  0  0  0  0
  -24.7338  -23.1723   21.1079 C   0  0  0  0  0  0  0  0  0  0  0  0
  -28.3078  -21.2667   21.5620 C   0  0  0  0  0  0  0  0  0  0  0  0
  -28.3436  -22.0926   22.6855 C   0  0  0  0  0  0  0  0  0  0  0  0
  -23.6952  -24.5310   22.8091 C   0  0  0  0  0  0  0  0  0  0  0  0
  -30.7558  -21.9590   22.7068 C   0  0  0  0  0  0  0  0  0  0  0  0
  -27.4144  -16.3690   20.2107 C   0  0  0  0  0  0  0  0  0  0  0  0
  -27.2626  -13.8325   20.4354 C   0  0  0  0  0  0  0  0  0  0  0  0
  -30.8330  -28.0941   20.0978 C   0  0  0  0  0  0  0  0  0  0  0  0
  -24.7278  -25.5907   20.8933 C   0  0  0  0  0  0  0  0  0  0  0  0
  -29.8657  -27.4248   20.8715 C   0  0  0  0  0  0  0  0  0  0  0  0
  -24.0243  -25.6972   22.1015 C   0  0  0  0  0  0  0  0  0  0  0  0
  -28.7887  -18.7875   19.9988 C   0  0  0  0  0  0  0  0  0  0  0  0
  -24.0497  -23.2757   22.3155 C   0  0  0  0  0  0  0  0  0  0  0  0
  -29.4960  -20.7869   21.0110 C   0  0  0  0  0  0  0  0  0  0  0  0
  -29.5676  -22.4388   23.2579 C   0  0  0  0  0  0  0  0  0  0  0  0
  -30.7200  -21.1331   21.5833 C   0  0  0  0  0  0  0  0  0  0  0  0
  -26.7048  -15.1198   20.3194 C   0  0  0  0  0  0  0  0  0  0  0  0
  -26.1777  -12.9932   20.5066 C   0  0  0  0  0  0  0  0  0  0  0  0
  -28.6385  -13.4312   20.4753 C   0  0  0  0  0  0  0  0  0  0  0  0
  -26.3661  -28.1580   21.8036 C   0  0  0  0  0  0  0  0  0  0  0  0
  -23.4115  -29.4723   22.0588 C   0  0  0  0  0  0  0  0  0  0  0  0
  -20.0586  -29.0021   22.4874 C   0  0  0  0  0  0  0  0  0  0  0  0
  -20.5129  -13.7933   22.2733 C   0  0  0  0  0  0  0  0  0  0  0  0
  -30.9651  -29.5964   20.1190 C   0  0  0  0  0  0  0  0  0  0  0  0
  -25.0724  -26.8222   20.1013 C   0  0  0  0  0  0  0  0  0  0  0  0
  -23.6177  -27.0325   22.6673 C   0  0  0  0  0  0  0  0  0  0  0  0
  -29.7322  -30.3086   20.6694 C   0  0  0  0  0  0  0  0  0  0  0  0
  -21.6207  -12.6363   19.0935 C   0  0  0  0  0  0  0  0  0  0  0  0
  -29.2585  -29.6389   21.9555 C   0  0  0  0  0  0  0  0  0  0  0  0
  -23.0996  -13.0254   19.0576 C   0  0  0  0  0  0  0  0  0  0  0  0
  -20.8136  -21.0036   28.6807 C   0  0  0  0  0  0  0  0  0  0  0  0
  -20.7779  -13.6873   19.8126 C   0  0  0  0  0  0  0  0  0  0  0  0
  -20.3907  -19.9308   27.6740 C   0  0  0  0  0  0  0  0  0  0  0  0
  -22.7249  -14.4250   21.1312 C   0  0  0  0  0  0  0  0  0  0  0  0
  -21.0558  -22.3415   28.0036 C   0  0  0  0  0  0  0  0  0  0  0  0
  -28.8521  -28.1822   21.7016 C   0  0  1  0  0  0  0  0  0  0  0  0
  -25.1283  -28.0853   20.9550 C   0  0  1  0  0  0  0  0  0  0  0  0
  -23.6234  -13.3689   20.4651 C   0  0  2  0  0  0  0  0  0  0  0  0
  -21.6429  -21.0519   25.9323 C   0  0  1  0  0  0  0  0  0  0  0  0
  -17.9020  -30.2689   22.6915 C   0  0  0  0  0  0  0  0  0  0  0  0
  -24.0567  -20.4653   25.5643 C   0  0  0  0  0  0  0  0  0  0  0  0
  -24.1397  -30.2463   24.9190 C   0  0  0  0  0  0  0  0  0  0  0  0
  -21.7051  -30.6273   25.3616 C   0  0  0  0  0  0  0  0  0  0  0  0
  -22.8897  -32.0013   23.6494 C   0  0  0  0  0  0  0  0  0  0  0  0
  -18.9339  -27.7048   20.0767 C   0  0  0  0  0  0  0  0  0  0  0  0
  -20.9410  -18.7247   25.6752 C   0  0  0  0  0  0  0  0  0  0  0  0
  -20.4062  -13.9369   24.7486 C   0  0  0  0  0  0  0  0  0  0  0  0
  -21.1794  -17.3492   26.2690 C   0  0  0  0  0  0  0  0  0  0  0  0
  -20.9054  -14.9114   25.7990 C   0  0  0  0  0  0  0  0  0  0  0  0
  -23.0216  -22.3327   24.2415 C   0  0  0  0  0  0  0  0  0  1  0  0
  -22.3782  -29.5753   23.1546 C   0  0  1  0  0  0  0  0  0  0  0  0
  -18.8597  -29.5630   21.7442 C   0  0  2  0  0  0  0  0  0  0  0  0
  -22.7768  -20.9748   24.9051 C   0  0  2  0  0  0  0  0  0  0  0  0
  -22.7874  -30.5873   24.2617 C   0  0  0  0  0  0  0  0  0  0  0  0
  -25.3692  -15.1046   20.3165 N   0  0  0  0  0  0  0  0  0  0  0  0
  -25.0788  -13.7975   20.4315 N   0  0  0  0  0  0  0  0  0  0  0  0
  -23.9830  -28.2076   21.8591 N   0  0  0  0  0  0  0  0  0  0  0  0
  -21.3270  -13.9663   21.1417 N   0  0  0  0  0  0  0  0  0  0  0  0
  -21.3904  -19.7632   26.6047 N   0  0  2  0  0  0  0  0  0  0  0  0
  -26.0661  -11.6531   20.6255 N   0  0  0  0  0  0  0  0  0  0  0  0
  -29.2835  -13.1353   19.2667 N   0  0  0  0  0  0  0  0  0  0  0  0
  -27.5449  -28.1227   21.0834 N   0  0  0  0  0  0  0  0  0  0  0  0
  -21.1147  -29.8885   22.4960 N   0  0  0  0  0  0  0  0  0  0  0  0
  -21.1132  -14.0735   23.4947 N   0  0  0  0  0  0  0  0  0  0  0  0
  -22.0423  -22.1429   26.9033 N   0  3  0  0  0  0  0  0  0  0  0  0
  -18.1185  -28.4686   21.0558 N   0  3  0  0  0  0  0  0  0  0  0  0
  -20.6718  -16.3082   25.3415 N   0  3  0  0  0  0  0  0  0  0  0  0
  -29.2724  -13.3220   21.5522 O   0  0  0  0  0  0  0  0  0  0  0  0
  -26.2596  -28.2415   23.0215 O   0  0  0  0  0  0  0  0  0  0  0  0
  -23.6957  -30.4753   21.3994 O   0  0  0  0  0  0  0  0  0  0  0  0
  -20.0570  -27.8903   23.0113 O   0  0  0  0  0  0  0  0  0  0  0  0
  -19.3398  -13.4120   22.2008 O   0  0  0  0  0  0  0  0  0  0  0  0
  -29.4589  -19.9676   19.8951 O   0  0  0  0  0  0  0  0  0  0  0  0
  -23.7226  -22.1531   23.0116 O   0  0  0  0  0  0  0  0  0  1  0  0
  -29.6019  -23.2332   24.3358 F   0  0  0  0  0  0  0  0  0  0  0  0
  -31.8649  -20.6762   21.0577 F   0  0  0  0  0  0  0  0  0  0  0  0
  1  2  1  0  0  0  0
  1  5  2  0  0  0  0
  2  6  2  0  0  0  0
  3  8  2  0  0  0  0
  3 15  1  0  0  0  0
  4  9  1  0  0  0  0
  4 15  2  0  0  0  0
  5 17  1  0  0  0  0
  6 19  1  0  0  0  0
  7 10  2  0  0  0  0
  7 18  1  0  0  0  0
  8 21  1  0  0  0  0
  9 21  2  0  0  0  0
 10 22  1  0  0  0  0
 11 12  2  0  0  0  0
 11 23  1  0  0  0  0
 12 24  1  0  0  0  0
 13 20  1  0  0  0  0
 13 22  2  0  0  0  0
 14 24  2  0  0  0  0
 14 25  1  0  0  0  0
 15 26  1  0  0  0  0
 16 26  1  0  0  0  0
 16 27  2  0  0  0  0
 16 28  1  0  0  0  0
 17 19  2  0  0  0  0
 17 33  1  0  0  0  0
 18 20  2  0  0  0  0
 18 34  1  0  0  0  0
 19 45  1  0  0  0  0
 20 35  1  0  0  0  0
 21 82  1  0  0  0  0
 22 83  1  0  0  0  0
 23 25  2  0  0  0  0
 23 82  1  0  0  0  0
 24 84  1  0  0  0  0
 25 85  1  0  0  0  0
 26 64  2  0  0  0  0
 27 65  1  0  0  0  0
 27 69  1  0  0  0  0
 28 70  1  0  0  0  0
 28 77  2  0  0  0  0
 29 46  1  0  0  0  0
 29 71  1  0  0  0  0
 29 78  2  0  0  0  0
 30 60  1  0  0  0  0
 30 66  1  0  0  0  0
 30 79  2  0  0  0  0
 31 61  1  0  0  0  0
 31 72  1  0  0  0  0
 31 80  2  0  0  0  0
 32 67  1  0  0  0  0
 32 73  1  0  0  0  0
 32 81  2  0  0  0  0
 33 36  1  0  0  0  0
 34 46  1  0  0  0  0
 35 66  1  0  0  0  0
 36 38  1  0  0  0  0
 37 39  1  0  0  0  0
 37 41  1  0  0  0  0
 38 45  1  0  0  0  0
 39 47  1  0  0  0  0
 40 42  1  0  0  0  0
 40 44  1  0  0  0  0
 41 67  1  0  0  0  0
 42 68  1  0  0  0  0
 43 47  1  0  0  0  0
 43 67  1  0  0  0  0
 44 74  1  0  0  0  0
 45 71  1  0  0  0  0
 46 66  1  0  0  0  0
 47 65  1  0  0  0  0
 48 62  1  0  0  0  0
 48 68  1  0  0  0  0
 48 74  1  0  0  0  0
 49 61  1  0  0  0  0
 50 62  1  0  0  0  0
 51 63  1  0  0  0  0
 52 63  1  0  0  0  0
 53 63  1  0  0  0  0
 54 75  1  0  0  0  0
 55 57  1  0  0  0  0
 55 68  1  0  0  0  0
 56 58  1  0  0  0  0
 56 73  1  0  0  0  0
 57 76  1  0  0  0  0
 58 76  1  0  0  0  0
 59 62  1  0  0  0  0
 59 83  1  0  0  0  0
 60 63  1  0  0  0  0
 60 72  1  0  0  0  0
 61 75  1  0  0  0  0
 64 65  1  0  0  0  0
M  CHG  3  74   1  75   1  76   1
M  ISO  4  32 100  59 101  73 100  83 101
M  END
> <Batch ID>
0129

> <Smiles>
CNC(C)C(=O)NC(C(=O)N1Cc2cc([101O:1][101CH2:1]C(C)C3NCCCN3CCNCC[100NH:0][100C:0](=O)N3CCCC(n4nc(-c5ccc(Oc6ccc(F)cc6F)cc5)c(C(N)=O)c4N)C3)ccc2CC1C(=O)NC1CCCc2ccccc21)C(C)(C)C

> <Shape>
0.227

> <Color>
0.062

> <Negative vol penalty>
0.000

$$$$

  -OEChem-04052320453D

 86 94  0     1  0  0  0  0  0999 V2000
  -29.6699  -24.8320   17.4037 C   0  0  0  0  0  0  0  0  0  0  0  0
  -28.2930  -25.0236   17.4582 C   0  0  0  0  0  0  0  0  0  0  0  0
  -29.2839  -17.6047   21.5091 C   0  0  0  0  0  0  0  0  0  0  0  0
  -29.4399  -17.8915   19.1153 C   0  0  0  0  0  0  0  0  0  0  0  0
  -30.4662  -25.1924   18.4899 C   0  0  0  0  0  0  0  0  0  0  0  0
  -27.7116  -25.5748   18.5994 C   0  0  0  0  0  0  0  0  0  0  0  0
  -22.8498  -29.2921   18.8250 C   0  0  0  0  0  0  0  0  0  0  0  0
  -30.2155  -16.5685   21.4457 C   0  0  0  0  0  0  0  0  0  0  0  0
  -30.3716  -16.8554   19.0519 C   0  0  0  0  0  0  0  0  0  0  0  0
  -21.5013  -29.0577   19.0905 C   0  0  0  0  0  0  0  0  0  0  0  0
  -32.5209  -14.0474   18.2119 C   0  0  0  0  0  0  0  0  0  0  0  0
  -32.3640  -13.0952   17.2049 C   0  0  0  0  0  0  0  0  0  0  0  0
  -21.8537  -29.6771   21.3952 C   0  0  0  0  0  0  0  0  0  0  0  0
  -30.1887  -12.5217   18.0860 C   0  0  0  0  0  0  0  0  0  0  0  0
  -28.8960  -18.2662   20.3439 C   0  0  0  0  0  0  0  0  0  0  0  0
  -28.1969  -20.7071   20.5899 C   0  0  0  0  0  0  0  0  0  0  0  0
  -29.8953  -25.7573   19.6413 C   0  0  0  0  0  0  0  0  0  0  0  0
  -23.7141  -29.7110   19.8467 C   0  0  0  0  0  0  0  0  0  0  0  0
  -28.5008  -25.9419   19.7026 C   0  0  0  0  0  0  0  0  0  0  0  0
  -23.2122  -29.9186   21.1394 C   0  0  0  0  0  0  0  0  0  0  0  0
  -30.7594  -16.1939   20.2171 C   0  0  0  0  0  0  0  0  0  0  0  0
  -21.0037  -29.2474   20.3764 C   0  0  0  0  0  0  0  0  0  0  0  0
  -31.5118  -14.2367   19.1561 C   0  0  0  0  0  0  0  0  0  0  0  0
  -31.1979  -12.3323   17.1419 C   0  0  0  0  0  0  0  0  0  0  0  0
  -30.3457  -13.4739   19.0932 C   0  0  0  0  0  0  0  0  0  0  0  0
  -27.9333  -19.3362   20.4087 C   0  0  0  0  0  0  0  0  0  0  0  0
  -26.9577  -21.2994   20.5793 C   0  0  0  0  0  0  0  0  0  0  0  0
  -29.4499  -21.3846   20.7532 C   0  0  0  0  0  0  0  0  0  0  0  0
  -26.3140  -28.5043   21.2208 C   0  0  0  0  0  0  0  0  0  0  0  0
  -26.3692  -31.3717   22.7364 C   0  0  0  0  0  0  0  0  0  0  0  0
  -24.6454  -34.1132   23.8133 C   0  0  0  0  0  0  0  0  0  0  0  0
  -21.9474  -20.8407   17.9150 C   0  0  0  0  0  0  0  0  0  0  0  0
  -30.7913  -26.0874   20.8087 C   0  0  0  0  0  0  0  0  0  0  0  0
  -25.1604  -29.9853   19.5379 C   0  0  0  0  0  0  0  0  0  0  0  0
  -24.0942  -30.3871   22.2668 C   0  0  0  0  0  0  0  0  0  0  0  0
  -30.1399  -27.0117   21.8341 C   0  0  0  0  0  0  0  0  0  0  0  0
  -22.3330  -19.7198   21.3344 C   0  0  0  0  0  0  0  0  0  0  0  0
  -28.7277  -26.5363   22.1604 C   0  0  0  0  0  0  0  0  0  0  0  0
  -23.8557  -19.6413   21.4588 C   0  0  0  0  0  0  0  0  0  0  0  0
  -21.8680  -19.2772   19.9501 C   0  0  0  0  0  0  0  0  0  0  0  0
  -24.0165  -19.9454   18.9446 C   0  0  0  0  0  0  0  0  0  0  0  0
  -16.5345  -25.3506   22.5034 C   0  0  0  0  0  0  0  0  0  0  0  0
  -27.8357  -26.5599   20.9133 C   0  0  1  0  0  0  0  0  0  0  0  0
  -26.0581  -29.9144   20.7694 C   0  0  1  0  0  0  0  0  0  0  0  0
  -24.5514  -20.4015   20.3142 C   0  0  2  0  0  0  0  0  0  0  0  0
  -17.2712  -25.5490   21.1803 C   0  0  2  0  0  0  0  0  0  0  0  0
  -18.0972  -27.7161   21.8912 C   0  0  1  0  0  0  0  0  0  0  0  0
  -17.3952  -27.6042   23.2572 C   0  0  2  0  0  0  0  0  0  0  0  0
  -24.9542  -36.2717   25.0553 C   0  0  0  0  0  0  0  0  0  0  0  0
  -17.4139  -26.6062   25.5703 C   0  0  0  0  0  0  0  0  0  0  0  0
  -26.4890  -29.8362   25.3703 C   0  0  0  0  0  0  0  0  0  0  0  0
  -25.8426  -31.9476   26.5503 C   0  0  0  0  0  0  0  0  0  0  0  0
  -27.9775  -31.8431   25.2641 C   0  0  0  0  0  0  0  0  0  0  0  0
  -23.7903  -35.7147   21.4761 C   0  0  0  0  0  0  0  0  0  0  0  0
  -17.7037  -24.1993   20.6104 C   0  0  0  0  0  0  0  0  0  0  0  0
  -19.3542  -28.5848   21.9563 C   0  0  0  0  0  0  0  0  0  1  0  0
  -19.7934  -21.6564   16.9919 C   0  0  0  0  0  0  0  0  0  0  0  0
  -18.4734  -24.3789   19.3147 C   0  0  0  0  0  0  0  0  0  0  0  0
  -19.5412  -23.0733   17.4724 C   0  0  0  0  0  0  0  0  0  0  0  0
  -25.7804  -31.9165   24.0153 C   0  0  1  0  0  0  0  0  0  0  0  0
  -24.9368  -35.5980   23.6920 C   0  0  2  0  0  0  0  0  0  0  0  0
  -18.2618  -27.1075   24.4131 C   0  0  2  0  0  0  0  0  0  0  0  0
  -26.5059  -31.3752   25.2794 C   0  0  0  0  0  0  0  0  0  0  0  0
  -26.6290  -19.0730   20.2916 N   0  0  0  0  0  0  0  0  0  0  0  0
  -26.0620  -20.2866   20.3997 N   0  0  0  0  0  0  0  0  0  0  0  0
  -18.4572  -26.3959   21.3567 N   0  0  0  0  0  0  0  0  0  0  0  0
  -25.5024  -30.6356   21.9162 N   0  0  0  0  0  0  0  0  0  0  0  0
  -22.5541  -20.0522   18.9067 N   0  0  0  0  0  0  0  0  0  0  0  0
  -26.5578  -22.5825   20.7062 N   0  0  0  0  0  0  0  0  0  0  0  0
  -30.6273  -20.6244   20.7396 N   0  0  0  0  0  0  0  0  0  0  0  0
  -19.1165  -28.2215   24.8854 N   0  0  0  0  0  0  0  0  0  0  0  0
  -27.4096  -27.9120   20.6222 N   0  0  0  0  0  0  0  0  0  0  0  0
  -25.8042  -33.3697   23.8890 N   0  0  0  0  0  0  0  0  0  0  0  0
  -20.5589  -20.8831   17.9444 N   0  0  0  0  0  0  0  0  0  0  0  0
  -16.2130  -26.6847   23.0964 N   0  3  0  0  0  0  0  0  0  0  0  0
  -23.9001  -36.2625   22.8526 N   0  3  0  0  0  0  0  0  0  0  0  0
  -18.8281  -23.0427   18.7789 N   0  3  0  0  0  0  0  0  0  0  0  0
  -29.5222  -22.6254   20.9230 O   0  0  0  0  0  0  0  0  0  0  0  0
  -25.5731  -27.9920   22.0517 O   0  0  0  0  0  0  0  0  0  0  0  0
  -27.5526  -31.5972   22.4713 O   0  0  0  0  0  0  0  0  0  0  0  0
  -23.5039  -33.6586   23.8421 O   0  0  0  0  0  0  0  0  0  0  0  0
  -22.5957  -21.4655   17.0685 O   0  0  0  0  0  0  0  0  0  0  0  0
  -31.6687  -15.1830   20.1549 O   0  0  0  0  0  0  0  0  0  0  0  0
  -19.6881  -29.0187   20.6385 O   0  0  0  0  0  0  0  0  0  1  0  0
  -31.0467  -11.4190   16.1738 F   0  0  0  0  0  0  0  0  0  0  0  0
  -29.3722  -13.6521   19.9967 F   0  0  0  0  0  0  0  0  0  0  0  0
  1  2  1  0  0  0  0
  1  5  2  0  0  0  0
  2  6  2  0  0  0  0
  3  8  2  0  0  0  0
  3 15  1  0  0  0  0
  4  9  1  0  0  0  0
  4 15  2  0  0  0  0
  5 17  1  0  0  0  0
  6 19  1  0  0  0  0
  7 10  2  0  0  0  0
  7 18  1  0  0  0  0
  8 21  1  0  0  0  0
  9 21  2  0  0  0  0
 10 22  1  0  0  0  0
 11 12  2  0  0  0  0
 11 23  1  0  0  0  0
 12 24  1  0  0  0  0
 13 20  1  0  0  0  0
 13 22  2  0  0  0  0
 14 24  2  0  0  0  0
 14 25  1  0  0  0  0
 15 26  1  0  0  0  0
 16 26  1  0  0  0  0
 16 27  2  0  0  0  0
 16 28  1  0  0  0  0
 17 19  2  0  0  0  0
 17 33  1  0  0  0  0
 18 20  2  0  0  0  0
 18 34  1  0  0  0  0
 19 43  1  0  0  0  0
 20 35  1  0  0  0  0
 21 83  1  0  0  0  0
 22 84  1  0  0  0  0
 23 25  2  0  0  0  0
 23 83  1  0  0  0  0
 24 85  1  0  0  0  0
 25 86  1  0  0  0  0
 26 64  2  0  0  0  0
 27 65  1  0  0  0  0
 27 69  1  0  0  0  0
 28 70  1  0  0  0  0
 28 78  2  0  0  0  0
 29 44  1  0  0  0  0
 29 72  1  0  0  0  0
 29 79  2  0  0  0  0
 30 60  1  0  0  0  0
 30 67  1  0  0  0  0
 30 80  2  0  0  0  0
 31 61  1  0  0  0  0
 31 73  1  0  0  0  0
 31 81  2  0  0  0  0
 32 68  1  0  0  0  0
 32 74  1  0  0  0  0
 32 82  2  0  0  0  0
 33 36  1  0  0  0  0
 34 44  1  0  0  0  0
 35 67  1  0  0  0  0
 36 38  1  0  0  0  0
 37 39  1  0  0  0  0
 37 40  1  0  0  0  0
 38 43  1  0  0  0  0
 39 45  1  0  0  0  0
 40 68  1  0  0  0  0
 41 45  1  0  0  0  0
 41 68  1  0  0  0  0
 42 46  1  0  0  0  0
 42 75  1  0  0  0  0
 43 72  1  0  0  0  0
 44 67  1  0  0  0  0
 45 65  1  0  0  0  0
 46 55  1  0  0  0  0
 46 66  1  0  0  0  0
 47 48  1  0  0  0  0
 47 56  1  0  0  0  0
 47 66  1  0  0  0  0
 48 62  1  0  0  0  0
 48 75  1  0  0  0  0
 49 61  1  0  0  0  0
 50 62  1  0  0  0  0
 51 63  1  0  0  0  0
 52 63  1  0  0  0  0
 53 63  1  0  0  0  0
 54 76  1  0  0  0  0
 55 58  1  0  0  0  0
 56 84  1  0  0  0  0
 57 59  1  0  0  0  0
 57 74  1  0  0  0  0
 58 77  1  0  0  0  0
 59 77  1  0  0  0  0
 60 63  1  0  0  0  0
 60 73  1  0  0  0  0
 61 76  1  0  0  0  0
 62 71  1  0  0  0  0
 64 65  1  0  0  0  0
M  CHG  3  75   1  76   1  77   1
M  ISO  4  32 100  56 101  74 100  84 101
M  END
> <Batch ID>
0129

> <Smiles>
CNC(C)C(=O)NC(C(=O)N1Cc2cc([101O:1][101CH2:1]C3NC(CCNCC[100NH:0][100C:0](=O)N4CCCC(n5nc(-c6ccc(Oc7ccc(F)cc7F)cc6)c(C(N)=O)c5N)C4)CNC3C(C)N)ccc2CC1C(=O)NC1CCCc2ccccc21)C(C)(C)C

> <Shape>
0.323

> <Color>
0.058

> <Negative vol penalty>
0.000

$$$$

  -OEChem-04052320453D

 84 92  0     1  0  0  0  0  0999 V2000
  -16.5526  -29.5320   23.2906 C   0  0  0  0  0  0  0  0  0  0  0  0
  -17.5457  -30.1669   22.5517 C   0  0  0  0  0  0  0  0  0  0  0  0
  -26.0619  -14.9242   21.7295 C   0  0  0  0  0  0  0  0  0  0  0  0
  -25.9264  -15.3358   19.3527 C   0  0  0  0  0  0  0  0  0  0  0  0
  -16.9001  -28.5960   24.2637 C   0  0  0  0  0  0  0  0  0  0  0  0
  -18.8871  -29.8669   22.7862 C   0  0  0  0  0  0  0  0  0  0  0  0
  -25.1674  -29.3365   19.3813 C   0  0  0  0  0  0  0  0  0  0  0  0
  -30.8059  -27.7312   18.2400 C   0  0  0  0  0  0  0  0  0  0  0  0
  -31.1781  -26.3872   18.2641 C   0  0  0  0  0  0  0  0  0  0  0  0
  -24.6762  -14.7743   21.7826 C   0  0  0  0  0  0  0  0  0  0  0  0
  -24.5406  -15.1859   19.4057 C   0  0  0  0  0  0  0  0  0  0  0  0
  -26.4809  -29.7960   19.4664 C   0  0  0  0  0  0  0  0  0  0  0  0
  -22.3988  -12.3868   21.0435 C   0  0  0  0  0  0  0  0  0  0  0  0
  -21.8905  -11.3117   21.7725 C   0  0  0  0  0  0  0  0  0  0  0  0
  -26.9594  -28.1041   21.1179 C   0  0  0  0  0  0  0  0  0  0  0  0
  -31.8760  -28.0661   20.3800 C   0  0  0  0  0  0  0  0  0  0  0  0
  -20.7014  -12.8478   23.2089 C   0  0  0  0  0  0  0  0  0  0  0  0
  -26.6871  -15.2050   20.5145 C   0  0  0  0  0  0  0  0  0  0  0  0
  -29.0747  -14.3531   20.2299 C   0  0  0  0  0  0  0  0  0  0  0  0
  -18.2460  -28.2772   24.5036 C   0  0  0  0  0  0  0  0  0  0  0  0
  -24.7363  -28.2625   20.1731 C   0  0  0  0  0  0  0  0  0  0  0  0
  -19.2530  -28.9267   23.7644 C   0  0  0  0  0  0  0  0  0  0  0  0
  -25.6406  -27.6312   21.0391 C   0  0  0  0  0  0  0  0  0  0  0  0
  -31.1549  -28.5707   19.2979 C   0  0  0  0  0  0  0  0  0  0  0  0
  -32.2482  -26.7221   20.4042 C   0  0  0  0  0  0  0  0  0  0  0  0
  -31.8993  -25.8826   19.3462 C   0  0  0  0  0  0  0  0  0  0  0  0
  -23.9155  -14.9051   20.6207 C   0  0  0  0  0  0  0  0  0  0  0  0
  -27.3763  -29.1817   20.3370 C   0  0  0  0  0  0  0  0  0  0  0  0
  -22.0585  -13.6924   21.3973 C   0  0  0  0  0  0  0  0  0  0  0  0
  -21.0418  -11.5422   22.8551 C   0  0  0  0  0  0  0  0  0  0  0  0
  -21.2098  -13.9229   22.4800 C   0  0  0  0  0  0  0  0  0  0  0  0
  -28.1184  -15.3605   20.4591 C   0  0  0  0  0  0  0  0  0  0  0  0
  -30.2810  -15.0085   20.2738 C   0  0  0  0  0  0  0  0  0  0  0  0
  -28.8892  -12.9505   19.9980 C   0  0  0  0  0  0  0  0  0  0  0  0
  -22.5442  -27.8881   22.4443 C   0  0  0  0  0  0  0  0  0  0  0  0
  -23.3902  -24.7659   22.2028 C   0  0  0  0  0  0  0  0  0  0  0  0
  -25.7508  -22.4635   21.3234 C   0  0  0  0  0  0  0  0  0  0  0  0
  -31.7485  -20.6235   19.1908 C   0  0  0  0  0  0  0  0  0  0  0  0
  -18.5750  -27.2936   25.5986 C   0  0  0  0  0  0  0  0  0  0  0  0
  -23.3234  -27.7616   20.0500 C   0  0  0  0  0  0  0  0  0  0  0  0
  -25.2331  -26.4614   21.8959 C   0  0  0  0  0  0  0  0  0  0  0  0
  -20.0021  -26.7567   25.5265 C   0  0  0  0  0  0  0  0  0  0  0  0
  -32.4064  -18.8122   22.2541 C   0  0  0  0  0  0  0  0  0  0  0  0
  -20.9907  -27.8966   25.3024 C   0  0  0  0  0  0  0  0  0  0  0  0
  -31.4613  -17.6180   22.1103 C   0  0  0  0  0  0  0  0  0  0  0  0
  -31.7750  -20.0866   21.7015 C   0  0  0  0  0  0  0  0  0  0  0  0
  -30.3748  -18.7922   20.1403 C   0  0  0  0  0  0  0  0  0  0  0  0
  -20.7181  -28.6098   23.9725 C   0  0  1  0  0  0  0  0  0  0  0  0
  -22.8535  -26.9905   21.2796 C   0  0  1  0  0  0  0  0  0  0  0  0
  -30.9641  -17.4683   20.6602 C   0  0  2  0  0  0  0  0  0  0  0  0
  -33.0203  -26.2080   21.5756 C   0  0  0  0  0  0  0  0  0  0  0  0
  -31.3944  -30.7647   18.0892 C   0  0  0  0  0  0  0  0  0  0  0  0
  -26.1682  -19.9894   21.2765 C   0  0  0  0  0  0  0  0  0  0  0  0
  -23.8692  -24.7921   25.2160 C   0  0  0  0  0  0  0  0  0  0  0  0
  -25.1569  -22.6604   24.9596 C   0  0  0  0  0  0  0  0  0  0  0  0
  -22.7373  -22.7339   24.3575 C   0  0  0  0  0  0  0  0  0  0  0  0
  -26.0642  -22.4548   18.3805 C   0  0  0  0  0  0  0  0  0  0  0  0
  -32.3173  -23.7236   18.1675 C   0  0  0  0  0  0  0  0  0  0  0  0
  -33.1757  -22.4871   18.3862 C   0  0  0  0  0  0  0  0  0  0  0  0
  -29.2240  -30.2092   19.2479 C   0  0  0  0  0  0  0  0  0  1  0  0
  -30.7488  -30.0359   19.2711 C   0  0  1  0  0  0  0  0  0  0  0  0
  -24.4218  -23.8836   22.8633 C   0  0  1  0  0  0  0  0  0  0  0  0
  -25.6602  -21.1928   20.4978 C   0  0  2  0  0  0  0  0  0  0  0  0
  -24.0538  -23.5407   24.3346 C   0  0  0  0  0  0  0  0  0  0  0  0
  -28.6697  -16.5642   20.6357 N   0  0  0  0  0  0  0  0  0  0  0  0
  -29.9854  -16.3174   20.5175 N   0  0  0  0  0  0  0  0  0  0  0  0
  -23.8392  -26.0125   21.7443 N   0  0  0  0  0  0  0  0  0  0  0  0
  -31.3403  -19.8828   20.3124 N   0  0  0  0  0  0  0  0  0  0  0  0
  -31.5551  -14.5869   20.1274 N   0  0  0  0  0  0  0  0  0  0  0  0
  -27.5831  -12.4424   19.9853 N   0  0  0  0  0  0  0  0  0  0  0  0
  -32.2675  -24.5193   19.3536 N   0  0  0  0  0  0  0  0  0  0  0  0
  -21.2297  -27.8293   22.8663 N   0  0  0  0  0  0  0  0  0  0  0  0
  -24.5762  -22.7185   21.9990 N   0  0  0  0  0  0  0  0  0  0  0  0
  -32.6590  -21.6429   19.4405 N   0  0  0  0  0  0  0  0  0  0  0  0
  -26.4708  -21.3242   19.2542 N   0  3  0  0  0  0  0  0  0  0  0  0
  -29.8541  -12.1680   19.8241 O   0  0  0  0  0  0  0  0  0  0  0  0
  -23.4327  -28.5814   22.9254 O   0  0  0  0  0  0  0  0  0  0  0  0
  -22.2304  -24.3609   22.0911 O   0  0  0  0  0  0  0  0  0  0  0  0
  -26.7637  -23.1582   21.3677 O   0  0  0  0  0  0  0  0  0  0  0  0
  -31.3360  -20.3901   18.0495 O   0  0  0  0  0  0  0  0  0  0  0  0
  -22.5633  -14.7587   20.6721 O   0  0  0  0  0  0  0  0  0  0  0  0
  -28.6588  -29.6287   20.4225 O   0  0  0  0  0  0  0  0  0  1  0  0
  -20.5526  -10.5096   23.5541 F   0  0  0  0  0  0  0  0  0  0  0  0
  -20.8783  -15.1750   22.8238 F   0  0  0  0  0  0  0  0  0  0  0  0
  1  2  1  0  0  0  0
  1  5  2  0  0  0  0
  2  6  2  0  0  0  0
  3 10  2  0  0  0  0
  3 18  1  0  0  0  0
  4 11  1  0  0  0  0
  4 18  2  0  0  0  0
  5 20  1  0  0  0  0
  6 22  1  0  0  0  0
  7 12  2  0  0  0  0
  7 21  1  0  0  0  0
  8  9  2  0  0  0  0
  8 24  1  0  0  0  0
  9 26  1  0  0  0  0
 10 27  1  0  0  0  0
 11 27  2  0  0  0  0
 12 28  1  0  0  0  0
 13 14  2  0  0  0  0
 13 29  1  0  0  0  0
 14 30  1  0  0  0  0
 15 23  1  0  0  0  0
 15 28  2  0  0  0  0
 16 24  2  0  0  0  0
 16 25  1  0  0  0  0
 17 30  2  0  0  0  0
 17 31  1  0  0  0  0
 18 32  1  0  0  0  0
 19 32  1  0  0  0  0
 19 33  2  0  0  0  0
 19 34  1  0  0  0  0
 20 22  2  0  0  0  0
 20 39  1  0  0  0  0
 21 23  2  0  0  0  0
 21 40  1  0  0  0  0
 22 48  1  0  0  0  0
 23 41  1  0  0  0  0
 24 61  1  0  0  0  0
 25 26  2  0  0  0  0
 25 51  1  0  0  0  0
 26 71  1  0  0  0  0
 27 81  1  0  0  0  0
 28 82  1  0  0  0  0
 29 31  2  0  0  0  0
 29 81  1  0  0  0  0
 30 83  1  0  0  0  0
 31 84  1  0  0  0  0
 32 65  2  0  0  0  0
 33 66  1  0  0  0  0
 33 69  1  0  0  0  0
 34 70  1  0  0  0  0
 34 76  2  0  0  0  0
 35 49  1  0  0  0  0
 35 72  1  0  0  0  0
 35 77  2  0  0  0  0
 36 62  1  0  0  0  0
 36 67  1  0  0  0  0
 36 78  2  0  0  0  0
 37 63  1  0  0  0  0
 37 73  1  0  0  0  0
 37 79  2  0  0  0  0
 38 68  1  0  0  0  0
 38 74  1  0  0  0  0
 38 80  2  0  0  0  0
 39 42  1  0  0  0  0
 40 49  1  0  0  0  0
 41 67  1  0  0  0  0
 42 44  1  0  0  0  0
 43 45  1  0  0  0  0
 43 46  1  0  0  0  0
 44 48  1  0  0  0  0
 45 50  1  0  0  0  0
 46 68  1  0  0  0  0
 47 50  1  0  0  0  0
 47 68  1  0  0  0  0
 48 72  1  0  0  0  0
 49 67  1  0  0  0  0
 50 66  1  0  0  0  0
 52 61  1  0  0  0  0
 53 63  1  0  0  0  0
 54 64  1  0  0  0  0
 55 64  1  0  0  0  0
 56 64  1  0  0  0  0
 57 75  1  0  0  0  0
 58 59  1  0  0  0  0
 58 71  1  0  0  0  0
 59 74  1  0  0  0  0
 60 61  1  0  0  0  0
 60 82  1  0  0  0  0
 62 64  1  0  0  0  0
 62 73  1  0  0  0  0
 63 75  1  0  0  0  0
 65 66  1  0  0  0  0
M  CHG  1  75   1
M  ISO  4  38 100  60 101  74 100  82 101
M  END
> <Batch ID>
0129

> <Smiles>
CNC(C)C(=O)NC(C(=O)N1Cc2cc([101O:1][101CH2:1]C(C)c3ccc(NCC[100NH:0][100C:0](=O)N4CCCC(n5nc(-c6ccc(Oc7ccc(F)cc7F)cc6)c(C(N)=O)c5N)C4)c(C)c3)ccc2CC1C(=O)NC1CCCc2ccccc21)C(C)(C)C

> <Shape>
0.214

> <Color>
0.089

> <Negative vol penalty>
0.000

$$$$

  -OEChem-04052320453D

 87 96  0     1  0  0  0  0  0999 V2000
  -25.2606  -33.9376   12.8909 C   0  0  0  0  0  0  0  0  0  0  0  0
  -25.4925  -32.6807   13.4403 C   0  0  0  0  0  0  0  0  0  0  0  0
  -24.4661   -9.5394   22.3059 C   0  0  0  0  0  0  0  0  0  0  0  0
  -24.0272   -9.5204   19.9302 C   0  0  0  0  0  0  0  0  0  0  0  0
  -25.6615  -35.0824   13.5783 C   0  0  0  0  0  0  0  0  0  0  0  0
  -26.1264  -32.5678   14.6772 C   0  0  0  0  0  0  0  0  0  0  0  0
  -29.8045  -22.4493   20.6240 C   0  0  0  0  0  0  0  0  0  0  0  0
  -27.8276  -21.6242   21.7412 C   0  0  0  0  0  0  0  0  0  0  0  0
  -25.0579  -28.3541   18.9910 C   0  0  0  0  0  0  0  0  0  0  0  0
  -29.0761  -23.5341   20.1360 C   0  0  0  0  0  0  0  0  0  0  0  0
  -27.0991  -22.7090   21.2532 C   0  0  0  0  0  0  0  0  0  0  0  0
  -24.0507   -8.2108   22.3933 C   0  0  0  0  0  0  0  0  0  0  0  0
  -23.6119   -8.1917   20.0175 C   0  0  0  0  0  0  0  0  0  0  0  0
  -25.7083  -27.1667   19.3238 C   0  0  0  0  0  0  0  0  0  0  0  0
  -21.1275   -6.5168   22.4927 C   0  0  0  0  0  0  0  0  0  0  0  0
  -20.2739   -6.1730   23.5408 C   0  0  0  0  0  0  0  0  0  0  0  0
  -26.9531  -28.3336   21.0291 C   0  0  0  0  0  0  0  0  0  0  0  0
  -21.9087   -4.5904   24.3532 C   0  0  0  0  0  0  0  0  0  0  0  0
  -24.4543  -10.1943   21.0743 C   0  0  0  0  0  0  0  0  0  0  0  0
  -24.3265  -12.6768   21.6474 C   0  0  0  0  0  0  0  0  0  0  0  0
  -29.1803  -21.4943   21.4265 C   0  0  0  0  0  0  0  0  0  0  0  0
  -26.2920  -34.9839   14.8287 C   0  0  0  0  0  0  0  0  0  0  0  0
  -25.3586  -29.5445   19.6685 C   0  0  0  0  0  0  0  0  0  0  0  0
  -26.5374  -33.7124   15.3814 C   0  0  0  0  0  0  0  0  0  0  0  0
  -26.3033  -29.5343   20.7047 C   0  0  0  0  0  0  0  0  0  0  0  0
  -27.7234  -23.6640   20.4507 C   0  0  0  0  0  0  0  0  0  0  0  0
  -23.6236   -7.5369   21.2491 C   0  0  0  0  0  0  0  0  0  0  0  0
  -26.6581  -27.1569   20.3411 C   0  0  0  0  0  0  0  0  0  0  0  0
  -22.3718   -5.8973   22.3747 C   0  0  0  0  0  0  0  0  0  0  0  0
  -20.6644   -5.2099   24.4711 C   0  0  0  0  0  0  0  0  0  0  0  0
  -22.7623   -4.9342   23.3050 C   0  0  0  0  0  0  0  0  0  0  0  0
  -24.8827  -11.5670   20.9835 C   0  0  0  0  0  0  0  0  0  0  0  0
  -25.0850  -13.7427   21.2291 C   0  0  0  0  0  0  0  0  0  0  0  0
  -23.2228  -12.7387   22.5605 C   0  0  0  0  0  0  0  0  0  0  0  0
  -26.5506  -32.3672   18.8228 C   0  0  0  0  0  0  0  0  0  0  0  0
  -25.8623  -33.1416   21.8967 C   0  0  0  0  0  0  0  0  0  0  0  0
  -25.3298  -32.0906   25.0996 C   0  0  0  0  0  0  0  0  0  0  0  0
  -30.0430  -16.0416   20.0980 C   0  0  0  0  0  0  0  0  0  0  0  0
  -26.7498  -36.2478   15.5124 C   0  0  0  0  0  0  0  0  0  0  0  0
  -24.6289  -30.8115   19.3155 C   0  0  0  0  0  0  0  0  0  0  0  0
  -26.6475  -30.7811   21.4763 C   0  0  0  0  0  0  0  0  0  0  0  0
  -27.0788  -36.0558   16.9907 C   0  0  0  0  0  0  0  0  0  0  0  0
  -28.5257  -14.0879   17.5373 C   0  0  0  0  0  0  0  0  0  0  0  0
  -27.9404  -34.8127   17.1888 C   0  0  0  0  0  0  0  0  0  0  0  0
  -30.8078  -19.0080   23.9774 C   0  0  0  0  0  0  0  0  0  0  0  0
  -27.4014  -13.3452   18.2615 C   0  0  0  0  0  0  0  0  0  0  0  0
  -30.2354  -17.7216   23.3888 C   0  0  0  0  0  0  0  0  0  0  0  0
  -29.4138  -18.9967   21.3752 C   0  0  0  0  0  0  0  0  0  0  0  0
  -29.7619  -14.2404   18.4208 C   0  0  0  0  0  0  0  0  0  0  0  0
  -28.3859  -14.1133   20.4614 C   0  0  0  0  0  0  0  0  0  0  0  0
  -29.9741  -20.3108   21.9592 C   0  0  2  0  0  0  0  0  0  0  0  0
  -27.1999  -33.5499   16.7322 C   0  0  1  0  0  0  0  0  0  0  0  0
  -25.3861  -32.0710   19.7249 C   0  0  1  0  0  0  0  0  0  0  0  0
  -30.0370  -20.2550   23.5094 C   0  0  2  0  0  0  0  0  0  0  0  0
  -27.0981  -13.9841   19.6301 C   0  0  2  0  0  0  0  0  0  0  0  0
  -30.2018  -17.7791   21.8629 C   0  0  2  0  0  0  0  0  0  0  0  0
  -24.8263  -32.9586   27.3997 C   0  0  0  0  0  0  0  0  0  0  0  0
  -30.7173  -21.4523   25.6206 C   0  0  0  0  0  0  0  0  0  0  0  0
  -28.7599  -34.0532   22.1844 C   0  0  0  0  0  0  0  0  0  0  0  0
  -28.4562  -34.0022   24.6690 C   0  0  0  0  0  0  0  0  0  0  0  0
  -27.0817  -35.5507   23.2778 C   0  0  0  0  0  0  0  0  0  0  0  0
  -22.7779  -30.5974   25.2306 C   0  0  0  0  0  0  0  0  0  0  0  0
  -26.9409  -24.8322   19.9268 C   0  0  0  0  0  0  0  0  0  1  0  0
  -26.6043  -33.0689   23.2094 C   0  0  1  0  0  0  0  0  0  0  0  0
  -24.2398  -32.4257   26.1017 C   0  0  2  0  0  0  0  0  0  0  0  0
  -30.6940  -21.5060   24.1050 C   0  0  1  0  0  0  0  0  0  0  0  0
  -27.7207  -34.1455   23.3195 C   0  0  0  0  0  0  0  0  0  0  0  0
  -25.9148  -11.8973   20.2028 N   0  0  0  0  0  0  0  0  0  0  0  0
  -26.0132  -13.2267   20.3733 N   0  0  0  0  0  0  0  0  0  0  0  0
  -25.9115  -31.9961   21.0897 N   0  0  0  0  0  0  0  0  0  0  0  0
  -29.4060  -14.8537   19.7026 N   0  0  0  0  0  0  0  0  0  0  0  0
  -25.0420  -15.0617   21.5136 N   0  0  0  0  0  0  0  0  0  0  0  0
  -21.9373  -12.9458   22.0418 N   0  0  0  0  0  0  0  0  0  0  0  0
  -26.2297  -33.1454   17.7270 N   0  0  0  0  0  0  0  0  0  0  0  0
  -25.5911  -33.1495   24.2560 N   0  0  0  0  0  0  0  0  0  0  0  0
  -29.6426  -16.5596   21.3236 N   0  0  0  0  0  0  0  0  0  0  0  0
  -23.4324  -31.2126   26.4138 N   0  3  0  0  0  0  0  0  0  0  0  0
  -23.3742  -12.6305   23.8010 O   0  0  0  0  0  0  0  0  0  0  0  0
  -27.6586  -31.9238   19.1012 O   0  0  0  0  0  0  0  0  0  0  0  0
  -25.2552  -34.1741   21.6015 O   0  0  0  0  0  0  0  0  0  0  0  0
  -25.8956  -30.9999   25.0707 O   0  0  0  0  0  0  0  0  0  0  0  0
  -30.9008  -16.6020   19.4074 O   0  0  0  0  0  0  0  0  0  0  0  0
  -32.0215  -21.6048   23.6093 O   0  0  0  0  0  0  0  0  0  0  0  0
  -23.2185   -6.2402   21.3340 O   0  0  0  0  0  0  0  0  0  0  0  0
  -27.2948  -25.9994   20.6675 O   0  0  0  0  0  0  0  0  0  1  0  0
  -19.8452   -4.8810   25.4785 F   0  0  0  0  0  0  0  0  0  0  0  0
  -23.9569   -4.3365   23.1976 F   0  0  0  0  0  0  0  0  0  0  0  0
  1  2  1  0  0  0  0
  1  5  2  0  0  0  0
  2  6  2  0  0  0  0
  3 12  2  0  0  0  0
  3 19  1  0  0  0  0
  4 13  1  0  0  0  0
  4 19  2  0  0  0  0
  5 22  1  0  0  0  0
  6 24  1  0  0  0  0
  7 10  2  0  0  0  0
  7 21  1  0  0  0  0
  8 11  1  0  0  0  0
  8 21  2  0  0  0  0
  9 14  2  0  0  0  0
  9 23  1  0  0  0  0
 10 26  1  0  0  0  0
 11 26  2  0  0  0  0
 12 27  1  0  0  0  0
 13 27  2  0  0  0  0
 14 28  1  0  0  0  0
 15 16  2  0  0  0  0
 15 29  1  0  0  0  0
 16 30  1  0  0  0  0
 17 25  1  0  0  0  0
 17 28  2  0  0  0  0
 18 30  2  0  0  0  0
 18 31  1  0  0  0  0
 19 32  1  0  0  0  0
 20 32  1  0  0  0  0
 20 33  2  0  0  0  0
 20 34  1  0  0  0  0
 21 51  1  0  0  0  0
 22 24  2  0  0  0  0
 22 39  1  0  0  0  0
 23 25  2  0  0  0  0
 23 40  1  0  0  0  0
 24 52  1  0  0  0  0
 25 41  1  0  0  0  0
 26 63  1  0  0  0  0
 27 84  1  0  0  0  0
 28 85  1  0  0  0  0
 29 31  2  0  0  0  0
 29 84  1  0  0  0  0
 30 86  1  0  0  0  0
 31 87  1  0  0  0  0
 32 68  2  0  0  0  0
 33 69  1  0  0  0  0
 33 72  1  0  0  0  0
 34 73  1  0  0  0  0
 34 78  2  0  0  0  0
 35 53  1  0  0  0  0
 35 74  1  0  0  0  0
 35 79  2  0  0  0  0
 36 64  1  0  0  0  0
 36 70  1  0  0  0  0
 36 80  2  0  0  0  0
 37 65  1  0  0  0  0
 37 75  1  0  0  0  0
 37 81  2  0  0  0  0
 38 71  1  0  0  0  0
 38 76  1  0  0  0  0
 38 82  2  0  0  0  0
 39 42  1  0  0  0  0
 40 53  1  0  0  0  0
 41 70  1  0  0  0  0
 42 44  1  0  0  0  0
 43 46  1  0  0  0  0
 43 49  1  0  0  0  0
 44 52  1  0  0  0  0
 45 47  1  0  0  0  0
 45 54  1  0  0  0  0
 46 55  1  0  0  0  0
 47 56  1  0  0  0  0
 48 51  1  0  0  0  0
 48 56  1  0  0  0  0
 49 71  1  0  0  0  0
 50 55  1  0  0  0  0
 50 71  1  0  0  0  0
 51 54  1  0  0  0  0
 52 74  1  0  0  0  0
 53 70  1  0  0  0  0
 54 66  1  0  0  0  0
 55 69  1  0  0  0  0
 56 76  1  0  0  0  0
 57 65  1  0  0  0  0
 58 66  1  0  0  0  0
 59 67  1  0  0  0  0
 60 67  1  0  0  0  0
 61 67  1  0  0  0  0
 62 77  1  0  0  0  0
 63 85  1  0  0  0  0
 64 67  1  0  0  0  0
 64 75  1  0  0  0  0
 65 77  1  0  0  0  0
 66 83  1  0  0  0  0
 68 69  1  0  0  0  0
M  CHG  1  77   1
M  ISO  4  38 100  63 101  76 100  85 101
M  END
> <Batch ID>
0129

> <Smiles>
CNC(C)C(=O)NC(C(=O)N1Cc2cc([101O:1][101CH2:1]c3ccc(C4CC([100NH:0][100C:0](=O)N5CCCC(n6nc(-c7ccc(Oc8ccc(F)cc8F)cc7)c(C(N)=O)c6N)C5)CCC4C(C)O)cc3)ccc2CC1C(=O)NC1CCCc2ccccc21)C(C)(C)C

> <Shape>
0.284

> <Color>
0.133

> <Negative vol penalty>
0.000

$$$$

  -OEChem-04052320453D

 84 92  0     1  0  0  0  0  0999 V2000
  -29.6527  -27.4340   19.9028 C   0  0  0  0  0  0  0  0  0  0  0  0
  -28.8637  -26.5289   20.6054 C   0  0  0  0  0  0  0  0  0  0  0  0
  -29.9631  -17.0872   19.1467 C   0  0  0  0  0  0  0  0  0  0  0  0
  -28.7172  -17.2850   21.2072 C   0  0  0  0  0  0  0  0  0  0  0  0
  -29.3230  -28.7887   19.8996 C   0  0  0  0  0  0  0  0  0  0  0  0
  -27.7450  -26.9782   21.3062 C   0  0  0  0  0  0  0  0  0  0  0  0
  -23.6877  -24.0357   20.5818 C   0  0  0  0  0  0  0  0  0  0  0  0
  -20.9601  -15.6504   23.3566 C   0  0  0  0  0  0  0  0  0  0  0  0
  -29.9606  -18.4755   19.0118 C   0  0  0  0  0  0  0  0  0  0  0  0
  -28.7147  -18.6734   21.0723 C   0  0  0  0  0  0  0  0  0  0  0  0
  -23.6383  -22.8343   21.2875 C   0  0  0  0  0  0  0  0  0  0  0  0
  -30.8608  -21.2296   21.6019 C   0  0  0  0  0  0  0  0  0  0  0  0
  -31.1586  -21.9896   22.7329 C   0  0  0  0  0  0  0  0  0  0  0  0
  -21.1185  -17.0168   23.5590 C   0  0  0  0  0  0  0  0  0  0  0  0
  -22.1556  -23.8482   22.8978 C   0  0  0  0  0  0  0  0  0  0  0  0
  -28.9916  -23.0487   22.5919 C   0  0  0  0  0  0  0  0  0  0  0  0
  -20.9430  -16.0522   21.0125 C   0  0  0  0  0  0  0  0  0  0  0  0
  -29.3414  -16.4919   20.2443 C   0  0  0  0  0  0  0  0  0  0  0  0
  -30.3057  -14.2690   21.0420 C   0  0  0  0  0  0  0  0  0  0  0  0
  -28.1942  -29.2535   20.5928 C   0  0  0  0  0  0  0  0  0  0  0  0
  -22.9789  -25.1574   21.0356 C   0  0  0  0  0  0  0  0  0  0  0  0
  -27.4007  -28.3406   21.3134 C   0  0  0  0  0  0  0  0  0  0  0  0
  -22.1956  -25.0619   22.1946 C   0  0  0  0  0  0  0  0  0  0  0  0
  -20.8699  -15.1508   22.0622 C   0  0  0  0  0  0  0  0  0  0  0  0
  -29.3364  -19.2686   19.9746 C   0  0  0  0  0  0  0  0  0  0  0  0
  -22.8745  -22.7413   22.4473 C   0  0  0  0  0  0  0  0  0  0  0  0
  -29.6284  -21.3792   20.9657 C   0  0  0  0  0  0  0  0  0  0  0  0
  -30.2240  -22.8991   23.2279 C   0  0  0  0  0  0  0  0  0  0  0  0
  -28.6938  -22.2887   21.4608 C   0  0  0  0  0  0  0  0  0  0  0  0
  -29.3431  -15.0578   20.3839 C   0  0  0  0  0  0  0  0  0  0  0  0
  -21.1806  -17.8348   22.4423 C   0  0  0  0  0  0  0  0  0  0  0  0
  -29.8536  -12.9806   20.8933 C   0  0  0  0  0  0  0  0  0  0  0  0
  -31.5015  -14.6654   21.7264 C   0  0  0  0  0  0  0  0  0  0  0  0
  -23.7814  -28.0751   22.0088 C   0  0  0  0  0  0  0  0  0  0  0  0
  -20.5687  -28.5205   22.0545 C   0  0  0  0  0  0  0  0  0  0  0  0
  -17.4552  -27.1404   22.2754 C   0  0  0  0  0  0  0  0  0  0  0  0
  -24.4130  -10.6464   19.9972 C   0  0  0  0  0  0  0  0  0  0  0  0
  -27.9048  -30.7336   20.5991 C   0  0  0  0  0  0  0  0  0  0  0  0
  -23.0213  -26.4383   20.2482 C   0  0  0  0  0  0  0  0  0  0  0  0
  -21.4000  -26.2312   22.7127 C   0  0  0  0  0  0  0  0  0  0  0  0
  -26.4898  -31.0756   21.0586 C   0  0  0  0  0  0  0  0  0  0  0  0
  -27.2869  -10.2307   17.9368 C   0  0  0  0  0  0  0  0  0  0  0  0
  -26.1361  -30.2975   22.3220 C   0  0  0  0  0  0  0  0  0  0  0  0
  -28.2266  -11.3495   18.3897 C   0  0  0  0  0  0  0  0  0  0  0  0
  -25.8262  -10.6754   17.9628 C   0  0  0  0  0  0  0  0  0  0  0  0
  -26.3111  -12.3516   19.7032 C   0  0  0  0  0  0  0  0  0  0  0  0
  -26.1652  -28.7860   22.0653 C   0  0  1  0  0  0  0  0  0  0  0  0
  -22.6702  -27.6653   21.0841 C   0  0  1  0  0  0  0  0  0  0  0  0
  -27.7906  -11.9328   19.7473 C   0  0  2  0  0  0  0  0  0  0  0  0
  -15.0242  -27.7609   22.3219 C   0  0  0  0  0  0  0  0  0  0  0  0
  -20.8655  -29.4577   24.9430 C   0  0  0  0  0  0  0  0  0  0  0  0
  -18.3968  -29.1495   25.2234 C   0  0  0  0  0  0  0  0  0  0  0  0
  -19.2657  -30.8022   23.5692 C   0  0  0  0  0  0  0  0  0  0  0  0
  -16.8931  -25.5895   19.8183 C   0  0  0  0  0  0  0  0  0  0  0  0
  -20.6995  -13.6943   21.8132 C   0  0  0  0  0  0  0  0  0  0  0  0
  -23.0936  -10.7339   22.0973 C   0  0  0  0  0  0  0  0  0  0  0  0
  -21.4410  -19.7875   23.9735 C   0  0  0  0  0  0  0  0  0  0  0  0
  -21.7762  -11.4406   21.8382 C   0  0  0  0  0  0  0  0  0  0  0  0
  -21.6255  -21.2915   23.8594 C   0  0  0  0  0  0  0  0  0  1  0  0
  -19.4775  -28.3307   23.0804 C   0  0  1  0  0  0  0  0  0  0  0  0
  -16.1995  -27.3500   21.4486 C   0  0  2  0  0  0  0  0  0  0  0  0
  -19.5178  -29.4134   24.1956 C   0  0  0  0  0  0  0  0  0  0  0  0
  -21.0966  -17.3861   21.1698 N   0  0  0  0  0  0  0  0  0  0  0  0
  -28.3543  -14.3313   19.8564 N   0  0  0  0  0  0  0  0  0  0  0  0
  -28.6931  -13.0724   20.1827 N   0  0  0  0  0  0  0  0  0  0  0  0
  -21.4789  -27.4637   21.9113 N   0  0  0  0  0  0  0  0  0  0  0  0
  -25.4763  -11.2170   19.2781 N   0  0  0  0  0  0  0  0  0  0  0  0
  -30.3395  -11.7894   21.3024 N   0  0  0  0  0  0  0  0  0  0  0  0
  -31.8167  -16.0298   21.7851 N   0  0  0  0  0  0  0  0  0  0  0  0
  -21.3392  -19.1933   22.6603 N   0  0  0  0  0  0  0  0  0  0  0  0
  -24.9687  -28.3690   21.3659 N   0  0  0  0  0  0  0  0  0  0  0  0
  -18.2226  -28.2843   22.3377 N   0  0  0  0  0  0  0  0  0  0  0  0
  -24.1518  -11.2155   21.2376 N   0  0  0  0  0  0  0  0  0  0  0  0
  -15.8361  -26.0953   20.7314 N   0  3  0  0  0  0  0  0  0  0  0  0
  -21.9451  -12.9042   22.0280 N   0  3  0  0  0  0  0  0  0  0  0  0
  -32.2764  -13.8330   22.2558 O   0  0  0  0  0  0  0  0  0  0  0  0
  -23.5763  -28.1225   23.2160 O   0  0  0  0  0  0  0  0  0  0  0  0
  -20.6076  -29.5648   21.3991 O   0  0  0  0  0  0  0  0  0  0  0  0
  -17.7263  -26.0701   22.8154 O   0  0  0  0  0  0  0  0  0  0  0  0
  -23.7494   -9.6966   19.5679 O   0  0  0  0  0  0  0  0  0  0  0  0
  -29.3339  -20.6233   19.8434 O   0  0  0  0  0  0  0  0  0  0  0  0
  -22.8250  -21.5700   23.1383 O   0  0  0  0  0  0  0  0  0  1  0  0
  -30.5096  -23.6278   24.3150 F   0  0  0  0  0  0  0  0  0  0  0  0
  -27.5078  -22.4359   20.8546 F   0  0  0  0  0  0  0  0  0  0  0  0
  1  2  1  0  0  0  0
  1  5  2  0  0  0  0
  2  6  2  0  0  0  0
  3  9  2  0  0  0  0
  3 18  1  0  0  0  0
  4 10  1  0  0  0  0
  4 18  2  0  0  0  0
  5 20  1  0  0  0  0
  6 22  1  0  0  0  0
  7 11  2  0  0  0  0
  7 21  1  0  0  0  0
  8 14  2  0  0  0  0
  8 24  1  0  0  0  0
  9 25  1  0  0  0  0
 10 25  2  0  0  0  0
 11 26  1  0  0  0  0
 12 13  2  0  0  0  0
 12 27  1  0  0  0  0
 13 28  1  0  0  0  0
 14 31  1  0  0  0  0
 15 23  1  0  0  0  0
 15 26  2  0  0  0  0
 16 28  2  0  0  0  0
 16 29  1  0  0  0  0
 17 24  2  0  0  0  0
 17 63  1  0  0  0  0
 18 30  1  0  0  0  0
 19 30  1  0  0  0  0
 19 32  2  0  0  0  0
 19 33  1  0  0  0  0
 20 22  2  0  0  0  0
 20 38  1  0  0  0  0
 21 23  2  0  0  0  0
 21 39  1  0  0  0  0
 22 47  1  0  0  0  0
 23 40  1  0  0  0  0
 24 55  1  0  0  0  0
 25 81  1  0  0  0  0
 26 82  1  0  0  0  0
 27 29  2  0  0  0  0
 27 81  1  0  0  0  0
 28 83  1  0  0  0  0
 29 84  1  0  0  0  0
 30 64  2  0  0  0  0
 31 63  2  0  0  0  0
 31 70  1  0  0  0  0
 32 65  1  0  0  0  0
 32 68  1  0  0  0  0
 33 69  1  0  0  0  0
 33 76  2  0  0  0  0
 34 48  1  0  0  0  0
 34 71  1  0  0  0  0
 34 77  2  0  0  0  0
 35 60  1  0  0  0  0
 35 66  1  0  0  0  0
 35 78  2  0  0  0  0
 36 61  1  0  0  0  0
 36 72  1  0  0  0  0
 36 79  2  0  0  0  0
 37 67  1  0  0  0  0
 37 73  1  0  0  0  0
 37 80  2  0  0  0  0
 38 41  1  0  0  0  0
 39 48  1  0  0  0  0
 40 66  1  0  0  0  0
 41 43  1  0  0  0  0
 42 44  1  0  0  0  0
 42 45  1  0  0  0  0
 43 47  1  0  0  0  0
 44 49  1  0  0  0  0
 45 67  1  0  0  0  0
 46 49  1  0  0  0  0
 46 67  1  0  0  0  0
 47 71  1  0  0  0  0
 48 66  1  0  0  0  0
 49 65  1  0  0  0  0
 50 61  1  0  0  0  0
 51 62  1  0  0  0  0
 52 62  1  0  0  0  0
 53 62  1  0  0  0  0
 54 74  1  0  0  0  0
 55 75  1  0  0  0  0
 56 58  1  0  0  0  0
 56 73  1  0  0  0  0
 57 59  1  0  0  0  0
 57 70  1  0  0  0  0
 58 75  1  0  0  0  0
 59 82  1  0  0  0  0
 60 62  1  0  0  0  0
 60 72  1  0  0  0  0
 61 74  1  0  0  0  0
 64 65  1  0  0  0  0
M  CHG  2  74   1  75   1
M  ISO  4  37 100  59 101  73 100  82 101
M  END
> <Batch ID>
0129

> <Smiles>
CNC(C)C(=O)NC(C(=O)N1Cc2cc([101O:1][101CH2:1]CNc3ccc(CNCC[100NH:0][100C:0](=O)N4CCCC(n5nc(-c6ccc(Oc7ccc(F)cc7F)cc6)c(C(N)=O)c5N)C4)cn3)ccc2CC1C(=O)NC1CCCc2ccccc21)C(C)(C)C

> <Shape>
0.266

> <Color>
0.048

> <Negative vol penalty>
0.000

$$$$

  -OEChem-04052320453D

 84 92  0     1  0  0  0  0  0999 V2000
  -27.8980  -17.5363   25.9442 C   0  0  0  0  0  0  0  0  0  0  0  0
  -27.9124  -18.4287   24.8771 C   0  0  0  0  0  0  0  0  0  0  0  0
  -22.8179  -10.2375   20.0626 C   0  0  0  0  0  0  0  0  0  0  0  0
  -23.6936  -10.0472   22.3062 C   0  0  0  0  0  0  0  0  0  0  0  0
  -26.7531  -17.4089   26.7296 C   0  0  0  0  0  0  0  0  0  0  0  0
  -26.7813  -19.1936   24.5941 C   0  0  0  0  0  0  0  0  0  0  0  0
  -27.9015  -24.0399   23.6435 C   0  0  0  0  0  0  0  0  0  0  0  0
  -30.0864  -19.8372   19.5285 C   0  0  0  0  0  0  0  0  0  0  0  0
  -27.8793  -19.4607   20.4364 C   0  0  0  0  0  0  0  0  0  0  0  0
  -21.9779   -9.1491   20.2981 C   0  0  0  0  0  0  0  0  0  0  0  0
  -22.8535   -8.9589   22.5418 C   0  0  0  0  0  0  0  0  0  0  0  0
  -28.4114  -24.3398   22.3810 C   0  0  0  0  0  0  0  0  0  0  0  0
  -29.6018  -20.9243   18.8012 C   0  0  0  0  0  0  0  0  0  0  0  0
  -27.3947  -20.5479   19.7091 C   0  0  0  0  0  0  0  0  0  0  0  0
  -22.7855   -5.6594   21.8070 C   0  0  0  0  0  0  0  0  0  0  0  0
  -23.3334   -4.5424   22.4376 C   0  0  0  0  0  0  0  0  0  0  0  0
  -26.2279  -25.0929   21.6848 C   0  0  0  0  0  0  0  0  0  0  0  0
  -21.7490   -4.7856   24.2452 C   0  0  0  0  0  0  0  0  0  0  0  0
  -23.6758  -10.6865   21.0666 C   0  0  0  0  0  0  0  0  0  0  0  0
  -24.2585  -13.1700   21.0507 C   0  0  0  0  0  0  0  0  0  0  0  0
  -25.6107  -18.1797   26.4620 C   0  0  0  0  0  0  0  0  0  0  0  0
  -26.5464  -24.2545   23.9332 C   0  0  0  0  0  0  0  0  0  0  0  0
  -25.6196  -19.0755   25.3758 C   0  0  0  0  0  0  0  0  0  0  0  0
  -25.7040  -24.7973   22.9525 C   0  0  0  0  0  0  0  0  0  0  0  0
  -29.2251  -19.1053   20.3461 C   0  0  0  0  0  0  0  0  0  0  0  0
  -21.9956   -8.5098   21.5377 C   0  0  0  0  0  0  0  0  0  0  0  0
  -28.2560  -21.2797   18.8915 C   0  0  0  0  0  0  0  0  0  0  0  0
  -27.5739  -24.8636   21.4005 C   0  0  0  0  0  0  0  0  0  0  0  0
  -21.7193   -6.3396   22.3956 C   0  0  0  0  0  0  0  0  0  0  0  0
  -22.8152   -4.1054   23.6566 C   0  0  0  0  0  0  0  0  0  0  0  0
  -21.2011   -5.9027   23.6147 C   0  0  0  0  0  0  0  0  0  0  0  0
  -24.5442  -11.8103   20.8237 C   0  0  0  0  0  0  0  0  0  0  0  0
  -25.3989  -13.8299   20.6625 C   0  0  0  0  0  0  0  0  0  0  0  0
  -23.0688  -13.7818   21.5665 C   0  0  0  0  0  0  0  0  0  0  0  0
  -24.1097  -22.3932   24.7710 C   0  0  0  0  0  0  0  0  0  0  0  0
  -22.5624  -25.2262   25.0916 C   0  0  0  0  0  0  0  0  0  0  0  0
  -22.3385  -28.5194   24.2246 C   0  0  0  0  0  0  0  0  0  0  0  0
  -30.9587  -14.3066   20.5859 C   0  0  0  0  0  0  0  0  0  0  0  0
  -24.3806  -17.9730   27.3098 C   0  0  0  0  0  0  0  0  0  0  0  0
  -26.0178  -23.9508   25.3083 C   0  0  0  0  0  0  0  0  0  0  0  0
  -24.2461  -25.0654   23.2194 C   0  0  0  0  0  0  0  0  0  0  0  0
  -23.3517  -19.0923   27.1733 C   0  0  0  0  0  0  0  0  0  0  0  0
  -29.4680  -12.1751   18.1545 C   0  0  0  0  0  0  0  0  0  0  0  0
  -23.1279  -19.4356   25.7040 C   0  0  0  0  0  0  0  0  0  0  0  0
  -28.0332  -11.9975   18.6543 C   0  0  0  0  0  0  0  0  0  0  0  0
  -30.4640  -12.2415   19.3102 C   0  0  0  0  0  0  0  0  0  0  0  0
  -28.7188  -13.0753   20.8376 C   0  0  0  0  0  0  0  0  0  0  0  0
  -24.4209  -19.9407   25.0524 C   0  0  1  0  0  0  0  0  0  0  0  0
  -24.5088  -23.7284   25.3327 C   0  0  1  0  0  0  0  0  0  0  0  0
  -27.6720  -13.0591   19.7106 C   0  0  2  0  0  0  0  0  0  0  0  0
  -20.9468  -30.5700   24.6191 C   0  0  0  0  0  0  0  0  0  0  0  0
  -20.4037  -24.1135   23.2444 C   0  0  0  0  0  0  0  0  0  0  0  0
  -19.5745  -26.4533   22.9187 C   0  0  0  0  0  0  0  0  0  0  0  0
  -19.5376  -25.4238   25.1906 C   0  0  0  0  0  0  0  0  0  0  0  0
  -24.6308  -29.9950   25.3764 C   0  0  0  0  0  0  0  0  0  0  0  0
  -27.9435  -24.7204   17.7974 C   0  0  0  0  0  0  0  0  0  0  0  0
  -31.0821  -17.5879   21.0351 C   0  0  0  0  0  0  0  0  0  0  0  0
  -31.3012  -16.3707   21.9206 C   0  0  0  0  0  0  0  0  0  0  0  0
  -28.6948  -23.4036   17.9157 C   0  0  0  0  0  0  0  0  0  0  0  0
  -27.1696  -25.0496   19.0643 C   0  0  0  0  0  0  0  0  0  1  0  0
  -21.7496  -26.1099   24.1765 C   0  0  1  0  0  0  0  0  0  0  0  0
  -22.1628  -29.7722   25.0637 C   0  0  2  0  0  0  0  0  0  0  0  0
  -20.3434  -25.5184   23.8766 C   0  0  0  0  0  0  0  0  0  0  0  0
  -25.7698  -11.6165   20.3295 N   0  0  0  0  0  0  0  0  0  0  0  0
  -26.2643  -12.8630   20.2426 N   0  0  0  0  0  0  0  0  0  0  0  0
  -23.7752  -24.7460   24.5773 N   0  0  0  0  0  0  0  0  0  0  0  0
  -30.0648  -13.2685   20.2755 N   0  0  0  0  0  0  0  0  0  0  0  0
  -25.7356  -15.1370   20.6427 N   0  0  0  0  0  0  0  0  0  0  0  0
  -21.9911  -12.9569   21.9164 N   0  0  0  0  0  0  0  0  0  0  0  0
  -29.7151  -18.0061   21.0813 N   0  0  0  0  0  0  0  0  0  0  0  0
  -24.6724  -21.3156   25.4278 N   0  0  0  0  0  0  0  0  0  0  0  0
  -21.7226  -27.4284   24.8005 N   0  0  0  0  0  0  0  0  0  0  0  0
  -30.4991  -15.2415   21.5052 N   0  0  0  0  0  0  0  0  0  0  0  0
  -23.3652  -30.6451   24.9492 N   0  3  0  0  0  0  0  0  0  0  0  0
  -22.9586  -15.0245   21.6973 O   0  0  0  0  0  0  0  0  0  0  0  0
  -23.3465  -22.3443   23.8134 O   0  0  0  0  0  0  0  0  0  0  0  0
  -22.1404  -24.9771   26.2236 O   0  0  0  0  0  0  0  0  0  0  0  0
  -22.9569  -28.5103   23.1625 O   0  0  0  0  0  0  0  0  0  0  0  0
  -32.0812  -14.3966   20.0770 O   0  0  0  0  0  0  0  0  0  0  0  0
  -21.1759   -7.4480   21.7680 O   0  0  0  0  0  0  0  0  0  0  0  0
  -27.7798  -22.3479   18.1769 O   0  0  0  0  0  0  0  0  0  0  0  0
  -28.0688  -25.1566   20.1671 O   0  0  0  0  0  0  0  0  0  1  0  0
  -23.3404   -3.0318   24.2613 F   0  0  0  0  0  0  0  0  0  0  0  0
  -20.1762   -6.5513   24.1844 F   0  0  0  0  0  0  0  0  0  0  0  0
  1  2  1  0  0  0  0
  1  5  2  0  0  0  0
  2  6  2  0  0  0  0
  3 10  2  0  0  0  0
  3 19  1  0  0  0  0
  4 11  1  0  0  0  0
  4 19  2  0  0  0  0
  5 21  1  0  0  0  0
  6 23  1  0  0  0  0
  7 12  2  0  0  0  0
  7 22  1  0  0  0  0
  8 13  2  0  0  0  0
  8 25  1  0  0  0  0
  9 14  1  0  0  0  0
  9 25  2  0  0  0  0
 10 26  1  0  0  0  0
 11 26  2  0  0  0  0
 12 28  1  0  0  0  0
 13 27  1  0  0  0  0
 14 27  2  0  0  0  0
 15 16  2  0  0  0  0
 15 29  1  0  0  0  0
 16 30  1  0  0  0  0
 17 24  1  0  0  0  0
 17 28  2  0  0  0  0
 18 30  2  0  0  0  0
 18 31  1  0  0  0  0
 19 32  1  0  0  0  0
 20 32  1  0  0  0  0
 20 33  2  0  0  0  0
 20 34  1  0  0  0  0
 21 23  2  0  0  0  0
 21 39  1  0  0  0  0
 22 24  2  0  0  0  0
 22 40  1  0  0  0  0
 23 48  1  0  0  0  0
 24 41  1  0  0  0  0
 25 70  1  0  0  0  0
 26 80  1  0  0  0  0
 27 81  1  0  0  0  0
 28 82  1  0  0  0  0
 29 31  2  0  0  0  0
 29 80  1  0  0  0  0
 30 83  1  0  0  0  0
 31 84  1  0  0  0  0
 32 64  2  0  0  0  0
 33 65  1  0  0  0  0
 33 68  1  0  0  0  0
 34 69  1  0  0  0  0
 34 75  2  0  0  0  0
 35 49  1  0  0  0  0
 35 71  1  0  0  0  0
 35 76  2  0  0  0  0
 36 61  1  0  0  0  0
 36 66  1  0  0  0  0
 36 77  2  0  0  0  0
 37 62  1  0  0  0  0
 37 72  1  0  0  0  0
 37 78  2  0  0  0  0
 38 67  1  0  0  0  0
 38 73  1  0  0  0  0
 38 79  2  0  0  0  0
 39 42  1  0  0  0  0
 40 49  1  0  0  0  0
 41 66  1  0  0  0  0
 42 44  1  0  0  0  0
 43 45  1  0  0  0  0
 43 46  1  0  0  0  0
 44 48  1  0  0  0  0
 45 50  1  0  0  0  0
 46 67  1  0  0  0  0
 47 50  1  0  0  0  0
 47 67  1  0  0  0  0
 48 71  1  0  0  0  0
 49 66  1  0  0  0  0
 50 65  1  0  0  0  0
 51 62  1  0  0  0  0
 52 63  1  0  0  0  0
 53 63  1  0  0  0  0
 54 63  1  0  0  0  0
 55 74  1  0  0  0  0
 56 59  1  0  0  0  0
 56 60  1  0  0  0  0
 57 58  1  0  0  0  0
 57 70  1  0  0  0  0
 58 73  1  0  0  0  0
 59 81  1  0  0  0  0
 60 82  1  0  0  0  0
 61 63  1  0  0  0  0
 61 72  1  0  0  0  0
 62 74  1  0  0  0  0
 64 65  1  0  0  0  0
M  CHG  1  74   1
M  ISO  4  38 100  60 101  73 100  82 101
M  END
> <Batch ID>
0129

> <Smiles>
CNC(C)C(=O)NC(C(=O)N1Cc2cc([101O:1][101CH2:1]CCOc3ccc(NCC[100NH:0][100C:0](=O)N4CCCC(n5nc(-c6ccc(Oc7ccc(F)cc7F)cc6)c(C(N)=O)c5N)C4)cc3)ccc2CC1C(=O)NC1CCCc2ccccc21)C(C)(C)C

> <Shape>
0.258

> <Color>
0.198

> <Negative vol penalty>
0.000

$$$$

  -OEChem-04052320453D

 82 90  0     1  0  0  0  0  0999 V2000
  -17.2334  -30.6249   23.6595 C   0  0  0  0  0  0  0  0  0  0  0  0
  -18.5578  -31.0146   23.4873 C   0  0  0  0  0  0  0  0  0  0  0  0
  -26.8486  -12.9964   20.8741 C   0  0  0  0  0  0  0  0  0  0  0  0
  -27.2749  -12.8404   18.5011 C   0  0  0  0  0  0  0  0  0  0  0  0
  -16.8890  -29.2762   23.5808 C   0  0  0  0  0  0  0  0  0  0  0  0
  -19.5387  -30.0555   23.2373 C   0  0  0  0  0  0  0  0  0  0  0  0
  -25.6952  -29.1609   19.6858 C   0  0  0  0  0  0  0  0  0  0  0  0
  -26.3216  -11.7050   20.8644 C   0  0  0  0  0  0  0  0  0  0  0  0
  -26.7479  -11.5489   18.4914 C   0  0  0  0  0  0  0  0  0  0  0  0
  -27.0058  -28.7330   19.8931 C   0  0  0  0  0  0  0  0  0  0  0  0
  -23.4225  -10.2048   19.9876 C   0  0  0  0  0  0  0  0  0  0  0  0
  -22.2292   -9.9873   20.6762 C   0  0  0  0  0  0  0  0  0  0  0  0
  -26.2816  -26.4402   19.6998 C   0  0  0  0  0  0  0  0  0  0  0  0
  -23.3374   -8.3672   22.0849 C   0  0  0  0  0  0  0  0  0  0  0  0
  -27.3252  -13.5642   19.6924 C   0  0  0  0  0  0  0  0  0  0  0  0
  -29.2101  -15.2682   19.9181 C   0  0  0  0  0  0  0  0  0  0  0  0
  -17.8646  -28.3011   23.3201 C   0  0  0  0  0  0  0  0  0  0  0  0
  -24.6643  -28.2296   19.4945 C   0  0  0  0  0  0  0  0  0  0  0  0
  -19.2071  -28.6924   23.1564 C   0  0  0  0  0  0  0  0  0  0  0  0
  -24.9591  -26.8588   19.4877 C   0  0  0  0  0  0  0  0  0  0  0  0
  -26.2713  -10.9812   19.6730 C   0  0  0  0  0  0  0  0  0  0  0  0
  -27.2987  -27.3724   19.9030 C   0  0  0  0  0  0  0  0  0  0  0  0
  -24.5733   -9.5033   20.3474 C   0  0  0  0  0  0  0  0  0  0  0  0
  -22.1866   -9.0686   21.7249 C   0  0  0  0  0  0  0  0  0  0  0  0
  -24.5307   -8.5846   21.3961 C   0  0  0  0  0  0  0  0  0  0  0  0
  -27.8691  -14.8984   19.7017 C   0  0  0  0  0  0  0  0  0  0  0  0
  -29.2073  -16.6387   19.8266 C   0  0  0  0  0  0  0  0  0  0  0  0
  -30.3558  -14.4465   20.1784 C   0  0  0  0  0  0  0  0  0  0  0  0
  -21.9949  -27.4868   21.0521 C   0  0  0  0  0  0  0  0  0  0  0  0
  -21.5046  -25.5506   18.4961 C   0  0  0  0  0  0  0  0  0  0  0  0
  -22.8421  -23.7891   15.8971 C   0  0  0  0  0  0  0  0  0  0  0  0
  -27.6053  -21.3436   17.2883 C   0  0  0  0  0  0  0  0  0  0  0  0
  -17.4518  -26.8508   23.2910 C   0  0  0  0  0  0  0  0  0  0  0  0
  -23.2602  -28.7081   19.2456 C   0  0  0  0  0  0  0  0  0  0  0  0
  -23.8919  -25.8192   19.2669 C   0  0  0  0  0  0  0  0  0  0  0  0
  -18.4912  -25.9343   22.6508 C   0  0  0  0  0  0  0  0  0  0  0  0
  -25.3607  -19.9192   19.6568 C   0  0  0  0  0  0  0  0  0  0  0  0
  -19.8829  -26.2454   23.1923 C   0  0  0  0  0  0  0  0  0  0  0  0
  -25.9202  -18.5151   19.8924 C   0  0  0  0  0  0  0  0  0  0  0  0
  -32.1735  -24.3532   19.1807 C   0  0  0  0  0  0  0  0  0  0  0  0
  -30.5129  -25.9774   18.1759 C   0  0  0  0  0  0  0  0  0  0  0  0
  -25.5257  -20.3558   18.2028 C   0  0  0  0  0  0  0  0  0  0  0  0
  -27.4611  -18.8572   17.9158 C   0  0  0  0  0  0  0  0  0  0  0  0
  -32.4731  -25.3562   20.2854 C   0  0  0  0  0  0  0  0  0  0  0  0
  -20.2958  -27.6841   22.8590 C   0  0  1  0  0  0  0  0  0  0  0  0
  -22.2040  -27.6574   19.5740 C   0  0  1  0  0  0  0  0  0  0  0  0
  -27.3680  -18.3951   19.3800 C   0  0  2  0  0  0  0  0  0  0  0  0
  -31.7079  -25.0628   17.9116 C   0  0  2  0  0  0  0  0  0  0  0  0
  -30.8281  -26.9794   19.2890 C   0  0  1  0  0  0  0  0  0  0  0  0
  -22.1948  -22.2741   14.0041 C   0  0  0  0  0  0  0  0  0  0  0  0
  -21.1277  -23.2525   20.4675 C   0  0  0  0  0  0  0  0  0  0  0  0
  -21.4355  -21.6589   18.5612 C   0  0  0  0  0  0  0  0  0  0  0  0
  -19.5205  -23.2575   18.5514 C   0  0  0  0  0  0  0  0  0  0  0  0
  -23.8972  -25.6743   13.8742 C   0  0  0  0  0  0  0  0  0  0  0  0
  -32.5066  -23.5167   16.1304 C   0  0  0  0  0  0  0  0  0  0  0  0
  -29.6228  -27.8158   19.6621 C   0  0  0  0  0  0  0  0  0  1  0  0
  -29.7617  -22.1892   16.3973 C   0  0  0  0  0  0  0  0  0  0  0  0
  -30.5123  -22.9181   17.4961 C   0  0  0  0  0  0  0  0  0  0  0  0
  -21.8613  -24.1250   18.1509 C   0  0  1  0  0  0  0  0  0  0  0  0
  -22.4582  -23.7100   14.4305 C   0  0  2  0  0  0  0  0  0  0  0  0
  -21.0063  -23.0927   18.9388 C   0  0  0  0  0  0  0  0  0  0  0  0
  -27.0723  -15.9490   19.4890 N   0  0  0  0  0  0  0  0  0  0  0  0
  -27.9151  -16.9926   19.5713 N   0  0  0  0  0  0  0  0  0  0  0  0
  -22.5334  -26.3368   19.0341 N   0  0  0  0  0  0  0  0  0  0  0  0
  -26.9215  -20.2192   17.7795 N   0  0  0  0  0  0  0  0  0  0  0  0
  -30.1841  -17.5635   19.9405 N   0  0  0  0  0  0  0  0  0  0  0  0
  -30.1816  -13.0571   20.2392 N   0  0  0  0  0  0  0  0  0  0  0  0
  -20.7137  -27.7827   21.4769 N   0  0  0  0  0  0  0  0  0  0  0  0
  -21.7447  -24.0147   16.7008 N   0  0  0  0  0  0  0  0  0  0  0  0
  -28.9263  -21.1286   16.9151 N   0  0  0  0  0  0  0  0  0  0  0  0
  -31.2738  -26.2207   20.5068 N   0  3  0  0  0  0  0  0  0  0  0  0
  -23.5503  -24.2603   13.5788 N   0  3  0  0  0  0  0  0  0  0  0  0
  -31.3221  -24.0426   16.9015 N   0  3  1  0  0  0  0  0  0  0  0  0
  -31.4972  -14.9310   20.3682 O   0  0  0  0  0  0  0  0  0  0  0  0
  -22.9266  -27.1130   21.7549 O   0  0  0  0  0  0  0  0  0  0  0  0
  -20.3574  -25.9541   18.2892 O   0  0  0  0  0  0  0  0  0  0  0  0
  -23.9992  -23.6598   16.2906 O   0  0  0  0  0  0  0  0  0  0  0  0
  -27.0791  -22.4578   17.1947 O   0  0  0  0  0  0  0  0  0  0  0  0
  -25.7574   -9.7209   19.6632 O   0  0  0  0  0  0  0  0  0  0  0  0
  -28.5771  -26.9521   20.1058 O   0  0  0  0  0  0  0  0  0  1  0  0
  -21.0410   -8.8610   22.3872 F   0  0  0  0  0  0  0  0  0  0  0  0
  -25.6333   -7.9086   21.7472 F   0  0  0  0  0  0  0  0  0  0  0  0
  1  2  1  0  0  0  0
  1  5  2  0  0  0  0
  2  6  2  0  0  0  0
  3  8  2  0  0  0  0
  3 15  1  0  0  0  0
  4  9  1  0  0  0  0
  4 15  2  0  0  0  0
  5 17  1  0  0  0  0
  6 19  1  0  0  0  0
  7 10  2  0  0  0  0
  7 18  1  0  0  0  0
  8 21  1  0  0  0  0
  9 21  2  0  0  0  0
 10 22  1  0  0  0  0
 11 12  2  0  0  0  0
 11 23  1  0  0  0  0
 12 24  1  0  0  0  0
 13 20  1  0  0  0  0
 13 22  2  0  0  0  0
 14 24  2  0  0  0  0
 14 25  1  0  0  0  0
 15 26  1  0  0  0  0
 16 26  1  0  0  0  0
 16 27  2  0  0  0  0
 16 28  1  0  0  0  0
 17 19  2  0  0  0  0
 17 33  1  0  0  0  0
 18 20  2  0  0  0  0
 18 34  1  0  0  0  0
 19 45  1  0  0  0  0
 20 35  1  0  0  0  0
 21 79  1  0  0  0  0
 22 80  1  0  0  0  0
 23 25  2  0  0  0  0
 23 79  1  0  0  0  0
 24 81  1  0  0  0  0
 25 82  1  0  0  0  0
 26 62  2  0  0  0  0
 27 63  1  0  0  0  0
 27 66  1  0  0  0  0
 28 67  1  0  0  0  0
 28 74  2  0  0  0  0
 29 46  1  0  0  0  0
 29 68  1  0  0  0  0
 29 75  2  0  0  0  0
 30 59  1  0  0  0  0
 30 64  1  0  0  0  0
 30 76  2  0  0  0  0
 31 60  1  0  0  0  0
 31 69  1  0  0  0  0
 31 77  2  0  0  0  0
 32 65  1  0  0  0  0
 32 70  1  0  0  0  0
 32 78  2  0  0  0  0
 33 36  1  0  0  0  0
 34 46  1  0  0  0  0
 35 64  1  0  0  0  0
 36 38  1  0  0  0  0
 37 39  1  0  0  0  0
 37 42  1  0  0  0  0
 38 45  1  0  0  0  0
 39 47  1  0  0  0  0
 40 44  1  0  0  0  0
 40 48  1  0  0  0  0
 41 48  1  0  0  0  0
 41 49  1  0  0  0  0
 42 65  1  0  0  0  0
 43 47  1  0  0  0  0
 43 65  1  0  0  0  0
 44 71  1  0  0  0  0
 45 68  1  0  0  0  0
 46 64  1  0  0  0  0
 47 63  1  0  0  0  0
 48 73  1  0  0  0  0
 49 56  1  0  0  0  0
 49 71  1  0  0  0  0
 50 60  1  0  0  0  0
 51 61  1  0  0  0  0
 52 61  1  0  0  0  0
 53 61  1  0  0  0  0
 54 72  1  0  0  0  0
 55 73  1  0  0  0  0
 56 80  1  0  0  0  0
 57 58  1  0  0  0  0
 57 70  1  0  0  0  0
 58 73  1  0  0  0  0
 59 61  1  0  0  0  0
 59 69  1  0  0  0  0
 60 72  1  0  0  0  0
 62 63  1  0  0  0  0
M  CHG  3  71   1  72   1  73   1
M  ISO  4  32 100  56 101  70 100  80 101
M  END
> <Batch ID>
0129

> <Smiles>
CNC(C)C(=O)NC(C(=O)N1Cc2cc([101O:1][101CH2:1]C3CC(N(C)CC[100NH:0][100C:0](=O)N4CCCC(n5nc(-c6ccc(Oc7ccc(F)cc7F)cc6)c(C(N)=O)c5N)C4)CCN3)ccc2CC1C(=O)NC1CCCc2ccccc21)C(C)(C)C

> <Shape>
0.261

> <Color>
0.109

> <Negative vol penalty>
0.000

$$$$

  -OEChem-04052320453D

 83 92  0     1  0  0  0  0  0999 V2000
  -25.3516  -33.0651   24.3779 C   0  0  0  0  0  0  0  0  0  0  0  0
  -26.0195  -32.1279   23.5963 C   0  0  0  0  0  0  0  0  0  0  0  0
  -22.8810  -15.6987   20.5945 C   0  0  0  0  0  0  0  0  0  0  0  0
  -22.4551  -14.0256   18.9044 C   0  0  0  0  0  0  0  0  0  0  0  0
  -24.2272  -32.6862   25.1101 C   0  0  0  0  0  0  0  0  0  0  0  0
  -25.5640  -30.8109   23.5472 C   0  0  0  0  0  0  0  0  0  0  0  0
  -25.7329  -27.0339   18.7293 C   0  0  0  0  0  0  0  0  0  0  0  0
  -21.7743  -16.4247   20.1546 C   0  0  0  0  0  0  0  0  0  0  0  0
  -21.3483  -14.7516   18.4646 C   0  0  0  0  0  0  0  0  0  0  0  0
  -26.6132  -26.0156   18.3662 C   0  0  0  0  0  0  0  0  0  0  0  0
  -18.8489  -18.5366   19.7106 C   0  0  0  0  0  0  0  0  0  0  0  0
  -17.9804  -19.0440   20.6770 C   0  0  0  0  0  0  0  0  0  0  0  0
  -25.1325  -24.3901   19.3584 C   0  0  0  0  0  0  0  0  0  0  0  0
  -31.0710  -21.0277   20.8979 C   0  0  0  0  0  0  0  0  0  0  0  0
  -17.5434  -16.8013   21.4619 C   0  0  0  0  0  0  0  0  0  0  0  0
  -23.2215  -14.4991   19.9693 C   0  0  0  0  0  0  0  0  0  0  0  0
  -24.3864  -12.7457   21.4103 C   0  0  0  0  0  0  0  0  0  0  0  0
  -23.7520  -31.3662   25.0624 C   0  0  0  0  0  0  0  0  0  0  0  0
  -24.5491  -26.7386   19.4205 C   0  0  0  0  0  0  0  0  0  0  0  0
  -24.4329  -30.4137   24.2805 C   0  0  0  0  0  0  0  0  0  0  0  0
  -24.2376  -25.4062   19.7268 C   0  0  0  0  0  0  0  0  0  0  0  0
  -31.1482  -18.6552   20.8473 C   0  0  0  0  0  0  0  0  0  0  0  0
  -31.7529  -19.8475   21.1859 C   0  0  0  0  0  0  0  0  0  0  0  0
  -21.0079  -15.9512   19.0897 C   0  0  0  0  0  0  0  0  0  0  0  0
  -26.3145  -24.6937   18.6833 C   0  0  0  0  0  0  0  0  0  0  0  0
  -19.0646  -17.1615   19.6198 C   0  0  0  0  0  0  0  0  0  0  0  0
  -17.3277  -18.1764   21.5527 C   0  0  0  0  0  0  0  0  0  0  0  0
  -18.4119  -16.2938   20.4955 C   0  0  0  0  0  0  0  0  0  0  0  0
  -24.3650  -13.7489   20.4229 C   0  0  0  0  0  0  0  0  0  0  0  0
  -29.8988  -18.6783   20.2403 C   0  0  0  0  0  0  0  0  0  0  0  0
  -29.8190  -20.9459   20.2864 C   0  0  0  0  0  0  0  0  0  0  0  0
  -25.7004  -12.3502   21.4695 C   0  0  0  0  0  0  0  0  0  0  0  0
  -23.3144  -12.2185   22.2030 C   0  0  0  0  0  0  0  0  0  0  0  0
  -23.3636  -27.5049   22.2685 C   0  0  0  0  0  0  0  0  0  0  0  0
  -20.7338  -25.9669   21.1543 C   0  0  0  0  0  0  0  0  0  0  0  0
  -19.4170  -23.6604   19.0111 C   0  0  0  0  0  0  0  0  0  0  0  0
  -30.8159  -15.1187   20.0408 C   0  0  0  0  0  0  0  0  0  0  0  0
  -22.5605  -30.9926   25.9083 C   0  0  0  0  0  0  0  0  0  0  0  0
  -23.5971  -27.8458   19.7815 C   0  0  0  0  0  0  0  0  0  0  0  0
  -22.9698  -25.0343   20.4498 C   0  0  0  0  0  0  0  0  0  0  0  0
  -31.6251  -17.2574   21.0222 C   0  0  0  0  0  0  0  0  0  0  0  0
  -29.4178  -17.2788   19.9922 C   0  0  0  0  0  0  0  0  0  0  0  0
  -21.9211  -29.6657   25.5076 C   0  0  0  0  0  0  0  0  0  0  0  0
  -29.6471  -12.0106   18.8195 C   0  0  0  0  0  0  0  0  0  0  0  0
  -22.9904  -28.5959   25.3103 C   0  0  0  0  0  0  0  0  0  0  0  0
  -28.1559  -12.0166   19.1438 C   0  0  0  0  0  0  0  0  0  0  0  0
  -30.1162  -13.4002   18.4109 C   0  0  0  0  0  0  0  0  0  0  0  0
  -28.3743  -14.4636   19.8246 C   0  0  0  0  0  0  0  0  0  0  0  0
  -23.9547  -28.9813   24.1820 C   0  0  1  0  0  0  0  0  0  0  0  0
  -22.6688  -27.4828   20.9364 C   0  0  1  0  0  0  0  0  0  0  0  0
  -27.8409  -13.0701   20.2166 C   0  0  1  0  0  0  0  0  0  0  0  0
  -33.0895  -19.8853   21.8384 C   0  0  0  0  0  0  0  0  0  0  0  0
  -17.2411  -22.5940   18.3589 C   0  0  0  0  0  0  0  0  0  0  0  0
  -20.8175  -24.2570   23.6800 C   0  0  0  0  0  0  0  0  0  0  0  0
  -19.2697  -22.6427   22.5546 C   0  0  0  0  0  0  0  0  0  0  0  0
  -18.5270  -24.9843   22.9880 C   0  0  0  0  0  0  0  0  0  0  0  0
  -19.6201  -24.6710   16.2369 C   0  0  0  0  0  0  0  0  0  0  0  0
  -29.0817  -22.2065   19.9752 C   0  0  0  0  0  0  0  0  0  0  0  0
  -29.3806  -22.7848   18.5838 C   0  0  0  0  0  0  0  0  0  0  0  0
  -28.5582  -24.0272   18.2621 C   0  0  0  0  0  0  0  0  0  1  0  0
  -20.2379  -24.5413   21.1802 C   0  0  1  0  0  0  0  0  0  0  0  0
  -18.2226  -23.7207   18.0761 C   0  0  2  0  0  0  0  0  0  0  0  0
  -19.7379  -24.1132   22.5888 C   0  0  0  0  0  0  0  0  0  0  0  0
  -25.5698  -13.9767   19.8930 N   0  0  0  0  0  0  0  0  0  0  0  0
  -29.2031  -19.7880   19.9459 N   0  0  0  0  0  0  0  0  0  0  0  0
  -26.3605  -13.1112   20.5500 N   0  0  0  0  0  0  0  0  0  0  0  0
  -22.0741  -26.1530   20.7870 N   0  0  0  0  0  0  0  0  0  0  0  0
  -30.5589  -16.4395   20.4162 N   0  0  0  0  0  0  0  0  0  0  0  0
  -29.7839  -14.4075   19.4194 N   0  0  0  0  0  0  0  0  0  0  0  0
  -26.3440  -11.4294   22.2179 N   0  0  0  0  0  0  0  0  0  0  0  0
  -22.0263  -12.7376   22.0147 N   0  0  0  0  0  0  0  0  0  0  0  0
  -23.3460  -28.7381   22.8917 N   0  0  0  0  0  0  0  0  0  0  0  0
  -19.2283  -24.4412   20.1318 N   0  0  0  0  0  0  0  0  0  0  0  0
  -18.6686  -23.6108   16.6584 N   0  3  0  0  0  0  0  0  0  0  0  0
  -23.4964  -11.3252   23.0647 O   0  0  0  0  0  0  0  0  0  0  0  0
  -23.8762  -26.4788   22.6996 O   0  0  0  0  0  0  0  0  0  0  0  0
  -19.9586  -26.8822   21.4422 O   0  0  0  0  0  0  0  0  0  0  0  0
  -20.4159  -22.9851   18.7730 O   0  0  0  0  0  0  0  0  0  0  0  0
  -31.9336  -14.6128   20.2076 O   0  0  0  0  0  0  0  0  0  0  0  0
  -19.9277  -16.6593   18.6604 O   0  0  0  0  0  0  0  0  0  0  0  0
  -27.1783  -23.6909   18.3281 O   0  0  0  0  0  0  0  0  0  1  0  0
  -16.4949  -18.6639   22.4816 F   0  0  0  0  0  0  0  0  0  0  0  0
  -18.6160  -14.9719   20.4139 F   0  0  0  0  0  0  0  0  0  0  0  0
  1  2  1  0  0  0  0
  1  5  2  0  0  0  0
  2  6  2  0  0  0  0
  3  8  2  0  0  0  0
  3 16  1  0  0  0  0
  4  9  1  0  0  0  0
  4 16  2  0  0  0  0
  5 18  1  0  0  0  0
  6 20  1  0  0  0  0
  7 10  2  0  0  0  0
  7 19  1  0  0  0  0
  8 24  1  0  0  0  0
  9 24  2  0  0  0  0
 10 25  1  0  0  0  0
 11 12  2  0  0  0  0
 11 26  1  0  0  0  0
 12 27  1  0  0  0  0
 13 21  1  0  0  0  0
 13 25  2  0  0  0  0
 14 23  2  0  0  0  0
 14 31  1  0  0  0  0
 15 27  2  0  0  0  0
 15 28  1  0  0  0  0
 16 29  1  0  0  0  0
 17 29  1  0  0  0  0
 17 32  2  0  0  0  0
 17 33  1  0  0  0  0
 18 20  2  0  0  0  0
 18 38  1  0  0  0  0
 19 21  2  0  0  0  0
 19 39  1  0  0  0  0
 20 49  1  0  0  0  0
 21 40  1  0  0  0  0
 22 23  1  0  0  0  0
 22 30  2  0  0  0  0
 22 41  1  0  0  0  0
 23 52  1  0  0  0  0
 24 80  1  0  0  0  0
 25 81  1  0  0  0  0
 26 28  2  0  0  0  0
 26 80  1  0  0  0  0
 27 82  1  0  0  0  0
 28 83  1  0  0  0  0
 29 64  2  0  0  0  0
 30 42  1  0  0  0  0
 30 65  1  0  0  0  0
 31 58  1  0  0  0  0
 31 65  2  0  0  0  0
 32 66  1  0  0  0  0
 32 70  1  0  0  0  0
 33 71  1  0  0  0  0
 33 75  2  0  0  0  0
 34 50  1  0  0  0  0
 34 72  1  0  0  0  0
 34 76  2  0  0  0  0
 35 61  1  0  0  0  0
 35 67  1  0  0  0  0
 35 77  2  0  0  0  0
 36 62  1  0  0  0  0
 36 73  1  0  0  0  0
 36 78  2  0  0  0  0
 37 68  1  0  0  0  0
 37 69  1  0  0  0  0
 37 79  2  0  0  0  0
 38 43  1  0  0  0  0
 39 50  1  0  0  0  0
 40 67  1  0  0  0  0
 41 68  1  0  0  0  0
 42 68  1  0  0  0  0
 43 45  1  0  0  0  0
 44 46  1  0  0  0  0
 44 47  1  0  0  0  0
 45 49  1  0  0  0  0
 46 51  1  0  0  0  0
 47 69  1  0  0  0  0
 48 51  1  0  0  0  0
 48 69  1  0  0  0  0
 49 72  1  0  0  0  0
 50 67  1  0  0  0  0
 51 66  1  0  0  0  0
 53 62  1  0  0  0  0
 54 63  1  0  0  0  0
 55 63  1  0  0  0  0
 56 63  1  0  0  0  0
 57 74  1  0  0  0  0
 58 59  1  0  0  0  0
 59 60  1  0  0  0  0
 60 81  1  0  0  0  0
 61 63  1  0  0  0  0
 61 73  1  0  0  0  0
 62 74  1  0  0  0  0
 64 66  1  0  0  0  0
M  CHG  1  74   1
M  ISO  4  37 100  60 101  68 100  81 101
M  END
> <Batch ID>
0129

> <Smiles>
CNC(C)C(=O)NC(C(=O)N1Cc2cc([101O:1][101CH2:1]CCc3cc(C)c4c(n3)C[100N:0]([100C:0](=O)N3CCCC(n5nc(-c6ccc(Oc7ccc(F)cc7F)cc6)c(C(N)=O)c5N)C3)C4)ccc2CC1C(=O)NC1CCCc2ccccc21)C(C)(C)C

> <Shape>
0.219

> <Color>
0.086

> <Negative vol penalty>
0.000

$$$$

  -OEChem-04052320453D

 80 88  0     1  0  0  0  0  0999 V2000
  -21.2480  -25.1176   13.2075 C   0  0  0  0  0  0  0  0  0  0  0  0
  -20.9343  -23.7718   13.3684 C   0  0  0  0  0  0  0  0  0  0  0  0
  -29.1322  -26.4700   18.4172 C   0  0  0  0  0  0  0  0  0  0  0  0
  -28.4393  -25.7893   20.6293 C   0  0  0  0  0  0  0  0  0  0  0  0
  -22.2258  -25.7050   14.0092 C   0  0  0  0  0  0  0  0  0  0  0  0
  -21.5991  -23.0123   14.3305 C   0  0  0  0  0  0  0  0  0  0  0  0
  -20.5423  -17.5432   18.8348 C   0  0  0  0  0  0  0  0  0  0  0  0
  -28.5233  -27.7103   18.6081 C   0  0  0  0  0  0  0  0  0  0  0  0
  -27.8304  -27.0296   20.8203 C   0  0  0  0  0  0  0  0  0  0  0  0
  -21.1011  -16.3159   19.1886 C   0  0  0  0  0  0  0  0  0  0  0  0
  -24.9597  -28.5630   19.9046 C   0  0  0  0  0  0  0  0  0  0  0  0
  -23.6808  -28.5783   20.4612 C   0  0  0  0  0  0  0  0  0  0  0  0
  -22.7164  -17.4565   20.5704 C   0  0  0  0  0  0  0  0  0  0  0  0
  -24.5014  -29.8995   22.3101 C   0  0  0  0  0  0  0  0  0  0  0  0
  -29.0901  -25.5094   19.4277 C   0  0  0  0  0  0  0  0  0  0  0  0
  -31.0463  -23.8758   19.5387 C   0  0  0  0  0  0  0  0  0  0  0  0
  -22.8961  -24.9546   14.9882 C   0  0  0  0  0  0  0  0  0  0  0  0
  -21.0741  -18.7391   19.3384 C   0  0  0  0  0  0  0  0  0  0  0  0
  -22.5878  -23.5899   15.1451 C   0  0  0  0  0  0  0  0  0  0  0  0
  -22.1609  -18.6975   20.2234 C   0  0  0  0  0  0  0  0  0  0  0  0
  -27.8724  -27.9901   19.8096 C   0  0  0  0  0  0  0  0  0  0  0  0
  -22.1901  -16.2725   20.0542 C   0  0  0  0  0  0  0  0  0  0  0  0
  -26.0095  -29.2159   20.5507 C   0  0  0  0  0  0  0  0  0  0  0  0
  -23.4517  -29.2465   21.6640 C   0  0  0  0  0  0  0  0  0  0  0  0
  -25.7803  -29.8841   21.7535 C   0  0  0  0  0  0  0  0  0  0  0  0
  -29.7185  -24.2278   19.2309 C   0  0  0  0  0  0  0  0  0  0  0  0
  -31.1473  -22.5578   19.1657 C   0  0  0  0  0  0  0  0  0  0  0  0
  -32.0946  -24.6692   20.1107 C   0  0  0  0  0  0  0  0  0  0  0  0
  -22.4253  -21.3113   18.0494 C   0  0  0  0  0  0  0  0  0  0  0  0
  -22.3113  -22.4182   21.0964 C   0  0  0  0  0  0  0  0  0  0  0  0
  -22.1686  -21.7116   24.4322 C   0  0  0  0  0  0  0  0  0  0  0  0
  -29.1646  -17.4573   19.1357 C   0  0  0  0  0  0  0  0  0  0  0  0
  -23.9790  -25.6216   15.7988 C   0  0  0  0  0  0  0  0  0  0  0  0
  -20.4431  -20.0532   18.9681 C   0  0  0  0  0  0  0  0  0  0  0  0
  -22.7561  -19.9516   20.8077 C   0  0  0  0  0  0  0  0  0  0  0  0
  -24.3724  -24.8400   17.0497 C   0  0  0  0  0  0  0  0  0  0  0  0
  -27.9947  -19.6385   16.4954 C   0  0  0  0  0  0  0  0  0  0  0  0
  -24.5685  -23.3642   16.7173 C   0  0  0  0  0  0  0  0  0  0  0  0
  -28.4539  -21.0059   17.0047 C   0  0  0  0  0  0  0  0  0  0  0  0
  -27.5236  -18.7507   17.6435 C   0  0  0  0  0  0  0  0  0  0  0  0
  -24.0533  -12.5549   21.1334 C   0  0  0  0  0  0  0  0  0  0  0  0
  -28.9879  -19.9272   19.2388 C   0  0  0  0  0  0  0  0  0  0  0  0
  -26.3323  -12.0378   20.7379 C   0  0  0  0  0  0  0  0  0  0  0  0
  -23.2694  -22.7390   16.1947 C   0  0  1  0  0  0  0  0  0  0  0  0
  -21.3891  -21.2384   19.1351 C   0  0  1  0  0  0  0  0  0  0  0  0
  -24.6988  -13.7022   20.3505 C   0  0  2  0  0  0  0  0  0  0  0  0
  -29.4977  -20.8638   18.1284 C   0  0  2  0  0  0  0  0  0  0  0  0
  -26.1731  -13.5415   20.6847 C   0  0  2  0  0  0  0  0  0  0  0  0
  -22.1265  -22.8237   26.6813 C   0  0  0  0  0  0  0  0  0  0  0  0
  -25.3013  -22.9829   20.8705 C   0  0  0  0  0  0  0  0  0  0  0  0
  -25.3824  -23.1768   23.3653 C   0  0  0  0  0  0  0  0  0  0  0  0
  -23.9887  -24.7633   22.0374 C   0  0  0  0  0  0  0  0  0  0  0  0
  -19.5186  -20.5636   25.0792 C   0  0  0  0  0  0  0  0  0  0  0  0
  -24.1333  -15.0625   20.6989 C   0  0  0  0  0  0  0  0  0  1  0  0
  -29.2288  -14.9860   18.9219 C   0  0  0  0  0  0  0  0  0  0  0  0
  -28.4500  -14.3590   20.0633 C   0  0  0  0  0  0  0  0  0  0  0  0
  -23.2351  -22.3631   22.2892 C   0  0  1  0  0  0  0  0  0  0  0  0
  -21.2908  -22.2618   25.5417 C   0  0  2  0  0  0  0  0  0  0  0  0
  -24.4671  -23.2978   22.1282 C   0  0  0  0  0  0  0  0  0  0  0  0
  -29.0257  -23.2152   18.7028 N   0  0  0  0  0  0  0  0  0  0  0  0
  -29.9217  -22.2140   18.6759 N   0  0  0  0  0  0  0  0  0  0  0  0
  -25.1367  -11.6222   21.4753 N   0  0  0  0  0  0  0  0  0  0  0  0
  -22.1080  -21.2124   20.4105 N   0  0  0  0  0  0  0  0  0  0  0  0
  -28.5699  -18.6416   18.6699 N   0  0  0  0  0  0  0  0  0  0  0  0
  -32.1641  -21.6710   19.2120 N   0  0  0  0  0  0  0  0  0  0  0  0
  -31.8205  -26.0048   20.4351 N   0  0  0  0  0  0  0  0  0  0  0  0
  -22.3644  -22.4643   17.2901 N   0  0  0  0  0  0  0  0  0  0  0  0
  -22.4115  -22.6559   23.4572 N   0  0  0  0  0  0  0  0  0  0  0  0
  -28.7077  -16.2827   18.5506 N   0  0  0  0  0  0  0  0  0  0  0  0
  -27.0352  -14.1344   19.6457 N   0  3  0  0  0  0  0  0  0  0  0  0
  -20.4125  -21.1888   26.0877 N   0  3  0  0  0  0  0  0  0  0  0  0
  -33.2452  -24.2120   20.3126 O   0  0  0  0  0  0  0  0  0  0  0  0
  -23.2221  -20.3905   17.9119 O   0  0  0  0  0  0  0  0  0  0  0  0
  -21.7838  -23.4901   20.7891 O   0  0  0  0  0  0  0  0  0  0  0  0
  -22.5991  -20.5604   24.4323 O   0  0  0  0  0  0  0  0  0  0  0  0
  -30.0424  -17.4475   20.0055 O   0  0  0  0  0  0  0  0  0  0  0  0
  -27.2784  -29.2004   19.9964 O   0  0  0  0  0  0  0  0  0  0  0  0
  -22.7379  -15.0760   20.4007 O   0  0  0  0  0  0  0  0  0  1  0  0
  -22.2232  -29.2625   22.1976 F   0  0  0  0  0  0  0  0  0  0  0  0
  -26.7846  -30.5141   22.3782 F   0  0  0  0  0  0  0  0  0  0  0  0
  1  2  1  0  0  0  0
  1  5  2  0  0  0  0
  2  6  2  0  0  0  0
  3  8  2  0  0  0  0
  3 15  1  0  0  0  0
  4  9  1  0  0  0  0
  4 15  2  0  0  0  0
  5 17  1  0  0  0  0
  6 19  1  0  0  0  0
  7 10  2  0  0  0  0
  7 18  1  0  0  0  0
  8 21  1  0  0  0  0
  9 21  2  0  0  0  0
 10 22  1  0  0  0  0
 11 12  2  0  0  0  0
 11 23  1  0  0  0  0
 12 24  1  0  0  0  0
 13 20  1  0  0  0  0
 13 22  2  0  0  0  0
 14 24  2  0  0  0  0
 14 25  1  0  0  0  0
 15 26  1  0  0  0  0
 16 26  1  0  0  0  0
 16 27  2  0  0  0  0
 16 28  1  0  0  0  0
 17 19  2  0  0  0  0
 17 33  1  0  0  0  0
 18 20  2  0  0  0  0
 18 34  1  0  0  0  0
 19 44  1  0  0  0  0
 20 35  1  0  0  0  0
 21 77  1  0  0  0  0
 22 78  1  0  0  0  0
 23 25  2  0  0  0  0
 23 77  1  0  0  0  0
 24 79  1  0  0  0  0
 25 80  1  0  0  0  0
 26 60  2  0  0  0  0
 27 61  1  0  0  0  0
 27 65  1  0  0  0  0
 28 66  1  0  0  0  0
 28 72  2  0  0  0  0
 29 45  1  0  0  0  0
 29 67  1  0  0  0  0
 29 73  2  0  0  0  0
 30 57  1  0  0  0  0
 30 63  1  0  0  0  0
 30 74  2  0  0  0  0
 31 58  1  0  0  0  0
 31 68  1  0  0  0  0
 31 75  2  0  0  0  0
 32 64  1  0  0  0  0
 32 69  1  0  0  0  0
 32 76  2  0  0  0  0
 33 36  1  0  0  0  0
 34 45  1  0  0  0  0
 35 63  1  0  0  0  0
 36 38  1  0  0  0  0
 37 39  1  0  0  0  0
 37 40  1  0  0  0  0
 38 44  1  0  0  0  0
 39 47  1  0  0  0  0
 40 64  1  0  0  0  0
 41 46  1  0  0  0  0
 41 62  1  0  0  0  0
 42 47  1  0  0  0  0
 42 64  1  0  0  0  0
 43 48  1  0  0  0  0
 43 62  1  0  0  0  0
 44 67  1  0  0  0  0
 45 63  1  0  0  0  0
 46 48  1  0  0  0  0
 46 54  1  0  0  0  0
 47 61  1  0  0  0  0
 48 70  1  0  0  0  0
 49 58  1  0  0  0  0
 50 59  1  0  0  0  0
 51 59  1  0  0  0  0
 52 59  1  0  0  0  0
 53 71  1  0  0  0  0
 54 78  1  0  0  0  0
 55 56  1  0  0  0  0
 55 69  1  0  0  0  0
 56 70  1  0  0  0  0
 57 59  1  0  0  0  0
 57 68  1  0  0  0  0
 58 71  1  0  0  0  0
 60 61  1  0  0  0  0
M  CHG  2  70   1  71   1
M  ISO  4  32 100  54 101  69 100  78 101
M  END
> <Batch ID>
0129

> <Smiles>
CNC(C)C(=O)NC(C(=O)N1Cc2cc([101O:1][101CH2:1]C3CNCC3NCC[100NH:0][100C:0](=O)N3CCCC(n4nc(-c5ccc(Oc6ccc(F)cc6F)cc5)c(C(N)=O)c4N)C3)ccc2CC1C(=O)NC1CCCc2ccccc21)C(C)(C)C

> <Shape>
0.172

> <Color>
0.071

> <Negative vol penalty>
0.000

$$$$

  -OEChem-04052320453D

 83 92  0     1  0  0  0  0  0999 V2000
  -23.8916  -32.8666   24.9395 C   0  0  0  0  0  0  0  0  0  0  0  0
  -23.2548  -31.6472   24.7327 C   0  0  0  0  0  0  0  0  0  0  0  0
  -23.9254   -8.9276   21.5153 C   0  0  0  0  0  0  0  0  0  0  0  0
  -25.2059   -9.8490   23.3453 C   0  0  0  0  0  0  0  0  0  0  0  0
  -24.8717  -33.3000   24.0475 C   0  0  0  0  0  0  0  0  0  0  0  0
  -23.5969  -30.8608   23.6331 C   0  0  0  0  0  0  0  0  0  0  0  0
  -26.0503  -24.1433   24.4977 C   0  0  0  0  0  0  0  0  0  0  0  0
  -23.6639   -7.7861   22.2730 C   0  0  0  0  0  0  0  0  0  0  0  0
  -24.9443   -8.7074   24.1030 C   0  0  0  0  0  0  0  0  0  0  0  0
  -26.3266  -22.7779   24.5708 C   0  0  0  0  0  0  0  0  0  0  0  0
  -25.2873   -4.9548   23.1523 C   0  0  0  0  0  0  0  0  0  0  0  0
  -25.4265   -3.7163   22.5260 C   0  0  0  0  0  0  0  0  0  0  0  0
  -26.6050  -22.6948   22.1700 C   0  0  0  0  0  0  0  0  0  0  0  0
  -23.1009   -3.2321   22.9667 C   0  0  0  0  0  0  0  0  0  0  0  0
  -24.6964   -9.9590   22.0514 C   0  0  0  0  0  0  0  0  0  0  0  0
  -24.0263  -12.0382   20.7339 C   0  0  0  0  0  0  0  0  0  0  0  0
  -25.2328  -32.5141   22.9418 C   0  0  0  0  0  0  0  0  0  0  0  0
  -26.0655  -24.7937   23.2607 C   0  0  0  0  0  0  0  0  0  0  0  0
  -24.5818  -31.2847   22.7248 C   0  0  0  0  0  0  0  0  0  0  0  0
  -26.3413  -24.0649   22.0920 C   0  0  0  0  0  0  0  0  0  0  0  0
  -24.1734   -7.6760   23.5669 C   0  0  0  0  0  0  0  0  0  0  0  0
  -26.6030  -22.0554   23.4097 C   0  0  0  0  0  0  0  0  0  0  0  0
  -24.0550   -5.3320   23.6858 C   0  0  0  0  0  0  0  0  0  0  0  0
  -24.3333   -2.8549   22.4332 C   0  0  0  0  0  0  0  0  0  0  0  0
  -22.9617   -4.4707   23.5930 C   0  0  0  0  0  0  0  0  0  0  0  0
  -24.9674  -11.1382   21.2690 C   0  0  0  0  0  0  0  0  0  0  0  0
  -24.7840  -12.9791   20.0805 C   0  0  0  0  0  0  0  0  0  0  0  0
  -22.5952  -12.0248   20.8199 C   0  0  0  0  0  0  0  0  0  0  0  0
  -25.6528  -28.0139   21.3803 C   0  0  0  0  0  0  0  0  0  0  0  0
  -28.0369  -26.5480   20.1244 C   0  0  0  0  0  0  0  0  0  0  0  0
  -30.9513  -25.7017   18.5664 C   0  0  0  0  0  0  0  0  0  0  0  0
  -30.4286  -14.8575   20.7601 C   0  0  0  0  0  0  0  0  0  0  0  0
  -26.2644  -33.0463   21.9788 C   0  0  0  0  0  0  0  0  0  0  0  0
  -25.7134  -26.2504   23.1277 C   0  0  0  0  0  0  0  0  0  0  0  0
  -26.3126  -24.7992   20.7794 C   0  0  0  0  0  0  0  0  0  0  0  0
  -26.8339  -31.9806   21.0460 C   0  0  0  0  0  0  0  0  0  0  0  0
  -28.9632  -13.5036   17.8112 C   0  0  0  0  0  0  0  0  0  0  0  0
  -25.7116  -31.1324   20.4563 C   0  0  0  0  0  0  0  0  0  0  0  0
  -27.6881  -12.8250   18.3147 C   0  0  0  0  0  0  0  0  0  0  0  0
  -25.3644  -17.6613   21.9231 C   0  0  0  0  0  0  0  0  0  0  0  0
  -24.7706  -18.2142   23.1871 C   0  0  0  0  0  0  0  0  0  0  0  0
  -30.1095  -13.3632   18.8104 C   0  0  0  0  0  0  0  0  0  0  0  0
  -30.2629  -17.9906   24.4814 C   0  0  0  0  0  0  0  0  0  0  0  0
  -28.5222  -13.1381   20.6822 C   0  0  0  0  0  0  0  0  0  0  0  0
  -31.3486  -17.3796   25.3555 C   0  0  0  0  0  0  0  0  0  0  0  0
  -31.7201  -15.6576   23.6133 C   0  0  0  0  0  0  0  0  0  0  0  0
  -24.9428  -30.3920   21.5574 C   0  0  1  0  0  0  0  0  0  0  0  0
  -26.5126  -26.9661   22.0239 C   0  0  1  0  0  0  0  0  0  0  0  0
  -27.3223  -13.3011   19.7335 C   0  0  2  0  0  0  0  0  0  0  0  0
  -30.6100  -16.2934   22.7759 C   0  0  2  0  0  0  0  0  0  0  0  0
  -26.2020  -18.5361   22.8263 C   0  0  0  0  0  0  0  0  0  0  0  0
  -32.2152  -26.0526   16.4270 C   0  0  0  0  0  0  0  0  0  0  0  0
  -26.1677  -24.6000   18.7049 C   0  0  0  0  0  0  0  0  0  0  0  0
  -27.9493  -24.2585   16.9793 C   0  0  0  0  0  0  0  0  0  0  0  0
  -26.9406  -26.5176   17.2979 C   0  0  0  0  0  0  0  0  0  0  0  0
  -33.2235  -26.9652   19.9804 C   0  0  0  0  0  0  0  0  0  0  0  0
  -27.2951  -17.8819   23.6257 C   0  0  0  0  0  0  0  0  0  0  0  0
  -26.5126  -19.9193   22.3675 C   0  0  0  0  0  0  0  0  0  1  0  0
  -28.5732  -17.6364   22.8194 C   0  0  0  0  0  0  0  0  0  0  0  0
  -28.5198  -25.6071   19.0497 C   0  0  1  0  0  0  0  0  0  0  0  0
  -31.9915  -26.5430   17.8491 C   0  0  2  0  0  0  0  0  0  0  0  0
  -27.3997  -25.2410   18.0355 C   0  0  0  0  0  0  0  0  0  0  0  0
  -26.2267  -11.4770   20.9804 N   0  0  0  0  0  0  0  0  0  0  0  0
  -26.0823  -12.6002   20.2568 N   0  0  0  0  0  0  0  0  0  0  0  0
  -26.9731  -26.1063   20.9204 N   0  0  0  0  0  0  0  0  0  0  0  0
  -29.6980  -13.8333   20.1353 N   0  0  0  0  0  0  0  0  0  0  0  0
  -29.6161  -16.9840   23.6204 N   0  0  2  0  0  0  0  0  0  0  0  0
  -24.4597  -14.0854   19.3781 N   0  0  0  0  0  0  0  0  0  0  0  0
  -21.9840  -12.6901   21.8915 N   0  0  0  0  0  0  0  0  0  0  0  0
  -25.6942  -29.2419   22.0126 N   0  0  0  0  0  0  0  0  0  0  0  0
  -29.6877  -26.2407   18.4472 N   0  0  0  0  0  0  0  0  0  0  0  0
  -29.9675  -15.2481   22.0114 N   0  0  0  0  0  0  0  0  0  0  0  0
  -32.3419  -16.6992   24.4792 N   0  3  0  0  0  0  0  0  0  0  0  0
  -33.2919  -26.4887   18.5750 N   0  3  0  0  0  0  0  0  0  0  0  0
  -21.8803  -11.4263   19.9808 O   0  0  0  0  0  0  0  0  0  0  0  0
  -25.0003  -27.7307   20.3824 O   0  0  0  0  0  0  0  0  0  0  0  0
  -28.5825  -27.6476   20.2531 O   0  0  0  0  0  0  0  0  0  0  0  0
  -31.2310  -24.6676   19.1688 O   0  0  0  0  0  0  0  0  0  0  0  0
  -31.4153  -15.3884   20.2391 O   0  0  0  0  0  0  0  0  0  0  0  0
  -23.9182   -6.5623   24.3066 O   0  0  0  0  0  0  0  0  0  0  0  0
  -26.8762  -20.7236   23.4888 O   0  0  0  0  0  0  0  0  0  1  0  0
  -24.4667   -1.6662   21.8304 F   0  0  0  0  0  0  0  0  0  0  0  0
  -21.7750   -4.8281   24.1027 F   0  0  0  0  0  0  0  0  0  0  0  0
  1  2  1  0  0  0  0
  1  5  2  0  0  0  0
  2  6  2  0  0  0  0
  3  8  2  0  0  0  0
  3 15  1  0  0  0  0
  4  9  1  0  0  0  0
  4 15  2  0  0  0  0
  5 17  1  0  0  0  0
  6 19  1  0  0  0  0
  7 10  2  0  0  0  0
  7 18  1  0  0  0  0
  8 21  1  0  0  0  0
  9 21  2  0  0  0  0
 10 22  1  0  0  0  0
 11 12  2  0  0  0  0
 11 23  1  0  0  0  0
 12 24  1  0  0  0  0
 13 20  1  0  0  0  0
 13 22  2  0  0  0  0
 14 24  2  0  0  0  0
 14 25  1  0  0  0  0
 15 26  1  0  0  0  0
 16 26  1  0  0  0  0
 16 27  2  0  0  0  0
 16 28  1  0  0  0  0
 17 19  2  0  0  0  0
 17 33  1  0  0  0  0
 18 20  2  0  0  0  0
 18 34  1  0  0  0  0
 19 47  1  0  0  0  0
 20 35  1  0  0  0  0
 21 80  1  0  0  0  0
 22 81  1  0  0  0  0
 23 25  2  0  0  0  0
 23 80  1  0  0  0  0
 24 82  1  0  0  0  0
 25 83  1  0  0  0  0
 26 63  2  0  0  0  0
 27 64  1  0  0  0  0
 27 68  1  0  0  0  0
 28 69  1  0  0  0  0
 28 75  2  0  0  0  0
 29 48  1  0  0  0  0
 29 70  1  0  0  0  0
 29 76  2  0  0  0  0
 30 60  1  0  0  0  0
 30 65  1  0  0  0  0
 30 77  2  0  0  0  0
 31 61  1  0  0  0  0
 31 71  1  0  0  0  0
 31 78  2  0  0  0  0
 32 66  1  0  0  0  0
 32 72  1  0  0  0  0
 32 79  2  0  0  0  0
 33 36  1  0  0  0  0
 34 48  1  0  0  0  0
 35 65  1  0  0  0  0
 36 38  1  0  0  0  0
 37 39  1  0  0  0  0
 37 42  1  0  0  0  0
 38 47  1  0  0  0  0
 39 49  1  0  0  0  0
 40 41  1  0  0  0  0
 40 51  1  0  0  0  0
 41 51  1  0  0  0  0
 42 66  1  0  0  0  0
 43 45  1  0  0  0  0
 43 67  1  0  0  0  0
 44 49  1  0  0  0  0
 44 66  1  0  0  0  0
 45 73  1  0  0  0  0
 46 50  1  0  0  0  0
 46 73  1  0  0  0  0
 47 70  1  0  0  0  0
 48 65  1  0  0  0  0
 49 64  1  0  0  0  0
 50 67  1  0  0  0  0
 50 72  1  0  0  0  0
 51 57  1  0  0  0  0
 51 58  1  0  0  0  0
 52 61  1  0  0  0  0
 53 62  1  0  0  0  0
 54 62  1  0  0  0  0
 55 62  1  0  0  0  0
 56 74  1  0  0  0  0
 57 59  1  0  0  0  0
 58 81  1  0  0  0  0
 59 67  1  0  0  0  0
 60 62  1  0  0  0  0
 60 71  1  0  0  0  0
 61 74  1  0  0  0  0
 63 64  1  0  0  0  0
M  CHG  2  73   1  74   1
M  ISO  4  32 100  58 101  72 100  81 101
M  END
> <Batch ID>
0129

> <Smiles>
CNC(C)C(=O)NC(C(=O)N1Cc2cc([101O:1][101CH2:1]C3(CCN4CCNCC4[100NH:0][100C:0](=O)N4CCCC(n5nc(-c6ccc(Oc7ccc(F)cc7F)cc6)c(C(N)=O)c5N)C4)CC3)ccc2CC1C(=O)NC1CCCc2ccccc21)C(C)(C)C

> <Shape>
0.244

> <Color>
0.086

> <Negative vol penalty>
0.000

$$$$

  -OEChem-04052320453D

 85 94  0     1  0  0  0  0  0999 V2000
  -30.6197  -32.4516   25.0626 C   0  0  0  0  0  0  0  0  0  0  0  0
  -30.2388  -31.1246   24.8911 C   0  0  0  0  0  0  0  0  0  0  0  0
  -24.5282   -9.2179   20.0746 C   0  0  0  0  0  0  0  0  0  0  0  0
  -24.4760   -9.7365   22.4337 C   0  0  0  0  0  0  0  0  0  0  0  0
  -29.7037  -33.4751   24.8234 C   0  0  0  0  0  0  0  0  0  0  0  0
  -28.9411  -30.8203   24.4814 C   0  0  0  0  0  0  0  0  0  0  0  0
  -28.8236  -27.2497   20.7761 C   0  0  0  0  0  0  0  0  0  0  0  0
  -24.1971   -7.8930   20.3584 C   0  0  0  0  0  0  0  0  0  0  0  0
  -24.1450   -8.4115   22.7176 C   0  0  0  0  0  0  0  0  0  0  0  0
  -29.0002  -25.9146   21.1368 C   0  0  0  0  0  0  0  0  0  0  0  0
  -22.9322   -5.2486   24.0379 C   0  0  0  0  0  0  0  0  0  0  0  0
  -21.9123   -5.0177   24.9610 C   0  0  0  0  0  0  0  0  0  0  0  0
  -26.6097  -25.5947   21.0997 C   0  0  0  0  0  0  0  0  0  0  0  0
  -20.3653   -6.2283   23.5544 C   0  0  0  0  0  0  0  0  0  0  0  0
  -24.6677  -10.1397   21.1122 C   0  0  0  0  0  0  0  0  0  0  0  0
  -24.1226  -12.5713   20.5665 C   0  0  0  0  0  0  0  0  0  0  0  0
  -28.3970  -33.1836   24.4012 C   0  0  0  0  0  0  0  0  0  0  0  0
  -27.5361  -27.7714   20.5841 C   0  0  0  0  0  0  0  0  0  0  0  0
  -28.0063  -31.8408   24.2376 C   0  0  0  0  0  0  0  0  0  0  0  0
  -26.4198  -26.9354   20.7319 C   0  0  0  0  0  0  0  0  0  0  0  0
  -24.0055   -7.4898   21.6799 C   0  0  0  0  0  0  0  0  0  0  0  0
  -27.8931  -25.0875   21.3009 C   0  0  0  0  0  0  0  0  0  0  0  0
  -22.6687   -5.9694   22.8731 C   0  0  0  0  0  0  0  0  0  0  0  0
  -20.6289   -5.5075   24.7192 C   0  0  0  0  0  0  0  0  0  0  0  0
  -21.3853   -6.4592   22.6313 C   0  0  0  0  0  0  0  0  0  0  0  0
  -25.0102  -11.5083   20.8196 C   0  0  0  0  0  0  0  0  0  0  0  0
  -24.9380  -13.6546   20.3473 C   0  0  0  0  0  0  0  0  0  0  0  0
  -22.6893  -12.5788   20.5328 C   0  0  0  0  0  0  0  0  0  0  0  0
  -25.7552  -30.0892   21.8888 C   0  0  0  0  0  0  0  0  0  0  0  0
  -23.7210  -29.2045   19.4123 C   0  0  0  0  0  0  0  0  0  0  0  0
  -21.8912  -32.0287   19.9737 C   0  0  0  0  0  0  0  0  0  0  0  0
  -29.1302  -16.7992   21.5312 C   0  0  0  0  0  0  0  0  0  0  0  0
  -27.4279  -34.3217   24.2007 C   0  0  0  0  0  0  0  0  0  0  0  0
  -27.3688  -29.2071   20.1655 C   0  0  0  0  0  0  0  0  0  0  0  0
  -25.0182  -27.4461   20.5336 C   0  0  0  0  0  0  0  0  0  0  0  0
  -26.1839  -33.9299   23.4075 C   0  0  0  0  0  0  0  0  0  0  0  0
  -29.9326  -13.9412   19.6498 C   0  0  0  0  0  0  0  0  0  0  0  0
  -35.2807  -21.8033   23.9046 C   0  0  0  0  0  0  0  0  0  0  0  0
  -25.6088  -32.6174   23.9304 C   0  0  0  0  0  0  0  0  0  0  0  0
  -28.6430  -13.1292   19.7657 C   0  0  0  0  0  0  0  0  0  0  0  0
  -34.3607  -20.8873   24.6908 C   0  0  0  0  0  0  0  0  0  0  0  0
  -31.7642  -17.6626   23.6976 C   0  0  0  0  0  0  0  0  0  0  0  0
  -30.3013  -14.6223   20.9689 C   0  0  0  0  0  0  0  0  0  0  0  0
  -31.5087  -16.8984   22.3962 C   0  0  0  0  0  0  0  0  0  0  0  0
  -30.4364  -18.8999   21.4100 C   0  0  0  0  0  0  0  0  0  0  0  0
  -27.9250  -14.6387   21.6564 C   0  0  0  0  0  0  0  0  0  0  0  0
  -36.3845  -20.8705   23.4569 C   0  0  0  0  0  0  0  0  0  0  0  0
  -26.6151  -31.4715   23.7704 C   0  0  1  0  0  0  0  0  0  0  0  0
  -25.9728  -29.7635   20.4383 C   0  0  1  0  0  0  0  0  0  0  0  0
  -31.8804  -19.1836   23.4909 C   0  0  2  0  0  0  0  0  0  0  0  0
  -30.6492  -19.6973   22.7040 C   0  0  1  0  0  0  0  0  0  0  0  0
  -27.4981  -13.9885   20.3311 C   0  0  2  0  0  0  0  0  0  0  0  0
  -34.3404  -19.5937   23.8833 C   0  0  1  0  0  0  0  0  0  0  0  0
  -20.0217  -33.3906   19.0002 C   0  0  0  0  0  0  0  0  0  0  0  0
  -25.6248  -30.2977   17.2942 C   0  0  0  0  0  0  0  0  0  0  0  0
  -24.0766  -32.2444   17.0087 C   0  0  0  0  0  0  0  0  0  0  0  0
  -23.2803  -29.9352   16.5027 C   0  0  0  0  0  0  0  0  0  0  0  0
  -20.2056  -31.6450   22.3759 C   0  0  0  0  0  0  0  0  0  0  0  0
  -33.2261  -19.5417   22.8487 C   0  0  0  0  0  0  0  0  0  0  0  0
  -30.7112  -21.1955   22.4063 C   0  0  0  0  0  0  0  0  0  0  0  0
  -29.3183  -21.7728   22.1927 C   0  0  0  0  0  0  0  0  0  0  0  0
  -29.3795  -23.2566   21.8551 C   0  0  0  0  0  0  0  0  0  1  0  0
  -23.6369  -30.6239   18.9091 C   0  0  1  0  0  0  0  0  0  0  0  0
  -20.3936  -32.2769   19.9667 C   0  0  2  0  0  0  0  0  0  0  0  0
  -24.1657  -30.7692   17.4542 C   0  0  0  0  0  0  0  0  0  0  0  0
  -26.2913  -11.8824   20.7662 N   0  0  0  0  0  0  0  0  0  0  0  0
  -26.2146  -13.1926   20.4770 N   0  0  0  0  0  0  0  0  0  0  0  0
  -24.9125  -28.8270   20.0448 N   0  0  0  0  0  0  0  0  0  0  0  0
  -29.1664  -15.3973   21.4896 N   0  0  0  0  0  0  0  0  0  0  0  0
  -30.3574  -17.4636   21.6803 N   0  0  0  0  0  0  0  0  0  0  0  0
  -24.6803  -14.9478   20.0581 N   0  0  0  0  0  0  0  0  0  0  0  0
  -22.0088  -11.3789   20.7807 N   0  0  0  0  0  0  0  0  0  0  0  0
  -26.6464  -31.0145   22.3976 N   0  0  0  0  0  0  0  0  0  0  0  0
  -22.2489  -31.0375   19.0845 N   0  0  0  0  0  0  0  0  0  0  0  0
  -35.6722  -19.5817   23.1710 N   0  3  0  0  0  0  0  0  0  0  0  0
  -19.9258  -32.6608   21.3286 N   0  3  0  0  0  0  0  0  0  0  0  0
  -22.0318  -13.6152   20.2737 O   0  0  0  0  0  0  0  0  0  0  0  0
  -24.8450  -29.5425   22.5007 O   0  0  0  0  0  0  0  0  0  0  0  0
  -22.7613  -28.4471   19.2436 O   0  0  0  0  0  0  0  0  0  0  0  0
  -22.6667  -32.6545   20.6932 O   0  0  0  0  0  0  0  0  0  0  0  0
  -28.0643  -17.4211   21.4405 O   0  0  0  0  0  0  0  0  0  0  0  0
  -23.6822   -6.1971   21.9573 O   0  0  0  0  0  0  0  0  0  0  0  0
  -28.0655  -23.7614   21.6584 O   0  0  0  0  0  0  0  0  0  1  0  0
  -19.6492   -5.2844   25.6050 F   0  0  0  0  0  0  0  0  0  0  0  0
  -21.1258   -7.1513   21.5135 F   0  0  0  0  0  0  0  0  0  0  0  0
  1  2  1  0  0  0  0
  1  5  2  0  0  0  0
  2  6  2  0  0  0  0
  3  8  2  0  0  0  0
  3 15  1  0  0  0  0
  4  9  1  0  0  0  0
  4 15  2  0  0  0  0
  5 17  1  0  0  0  0
  6 19  1  0  0  0  0
  7 10  2  0  0  0  0
  7 18  1  0  0  0  0
  8 21  1  0  0  0  0
  9 21  2  0  0  0  0
 10 22  1  0  0  0  0
 11 12  2  0  0  0  0
 11 23  1  0  0  0  0
 12 24  1  0  0  0  0
 13 20  1  0  0  0  0
 13 22  2  0  0  0  0
 14 24  2  0  0  0  0
 14 25  1  0  0  0  0
 15 26  1  0  0  0  0
 16 26  1  0  0  0  0
 16 27  2  0  0  0  0
 16 28  1  0  0  0  0
 17 19  2  0  0  0  0
 17 33  1  0  0  0  0
 18 20  2  0  0  0  0
 18 34  1  0  0  0  0
 19 48  1  0  0  0  0
 20 35  1  0  0  0  0
 21 82  1  0  0  0  0
 22 83  1  0  0  0  0
 23 25  2  0  0  0  0
 23 82  1  0  0  0  0
 24 84  1  0  0  0  0
 25 85  1  0  0  0  0
 26 66  2  0  0  0  0
 27 67  1  0  0  0  0
 27 71  1  0  0  0  0
 28 72  1  0  0  0  0
 28 77  2  0  0  0  0
 29 49  1  0  0  0  0
 29 73  1  0  0  0  0
 29 78  2  0  0  0  0
 30 63  1  0  0  0  0
 30 68  1  0  0  0  0
 30 79  2  0  0  0  0
 31 64  1  0  0  0  0
 31 74  1  0  0  0  0
 31 80  2  0  0  0  0
 32 69  1  0  0  0  0
 32 70  1  0  0  0  0
 32 81  2  0  0  0  0
 33 36  1  0  0  0  0
 34 49  1  0  0  0  0
 35 68  1  0  0  0  0
 36 39  1  0  0  0  0
 37 40  1  0  0  0  0
 37 43  1  0  0  0  0
 38 41  1  0  0  0  0
 38 47  1  0  0  0  0
 39 48  1  0  0  0  0
 40 52  1  0  0  0  0
 41 53  1  0  0  0  0
 42 44  1  0  0  0  0
 42 50  1  0  0  0  0
 43 69  1  0  0  0  0
 44 70  1  0  0  0  0
 45 51  1  0  0  0  0
 45 70  1  0  0  0  0
 46 52  1  0  0  0  0
 46 69  1  0  0  0  0
 47 75  1  0  0  0  0
 48 73  1  0  0  0  0
 49 68  1  0  0  0  0
 50 51  1  0  0  0  0
 50 59  1  0  0  0  0
 51 60  1  0  0  0  0
 52 67  1  0  0  0  0
 53 59  1  0  0  0  0
 53 75  1  0  0  0  0
 54 64  1  0  0  0  0
 55 65  1  0  0  0  0
 56 65  1  0  0  0  0
 57 65  1  0  0  0  0
 58 76  1  0  0  0  0
 60 61  1  0  0  0  0
 61 62  1  0  0  0  0
 62 83  1  0  0  0  0
 63 65  1  0  0  0  0
 63 74  1  0  0  0  0
 64 76  1  0  0  0  0
 66 67  1  0  0  0  0
M  CHG  2  75   1  76   1
M  ISO  4  32 100  62 101  70 100  83 101
M  END
> <Batch ID>
0129

> <Smiles>
CNC(C)C(=O)NC(C(=O)N1Cc2cc([101O:1][101CH2:1]CCC3C[100N:0]([100C:0](=O)N4CCCC(n5nc(-c6ccc(Oc7ccc(F)cc7F)cc6)c(C(N)=O)c5N)C4)CCC3CC3CCCN3)ccc2CC1C(=O)NC1CCCc2ccccc21)C(C)(C)C

> <Shape>
0.285

> <Color>
0.099

> <Negative vol penalty>
0.000

$$$$
