
  -OEChem-04052320473D

 90 99  0     1  0  0  0  0  0999 V2000
  -26.4608  -22.0905   26.8849 C   0  0  0  0  0  0  0  0  0  0  0  0
  -25.9244  -22.6482   25.7288 C   0  0  0  0  0  0  0  0  0  0  0  0
  -28.5117  -17.4002   21.1999 C   0  0  0  0  0  0  0  0  0  0  0  0
  -30.8685  -17.8880   21.4114 C   0  0  0  0  0  0  0  0  0  0  0  0
  -26.4165  -20.7103   27.0771 C   0  0  0  0  0  0  0  0  0  0  0  0
  -25.3442  -21.8258   24.7636 C   0  0  0  0  0  0  0  0  0  0  0  0
  -20.9390  -23.6465   23.0536 C   0  0  0  0  0  0  0  0  0  0  0  0
  -28.7917  -16.0341   21.2312 C   0  0  0  0  0  0  0  0  0  0  0  0
  -31.1485  -16.5219   21.4428 C   0  0  0  0  0  0  0  0  0  0  0  0
  -20.9966  -24.6842   22.1243 C   0  0  0  0  0  0  0  0  0  0  0  0
  -29.9296  -13.6754   19.0943 C   0  0  0  0  0  0  0  0  0  0  0  0
  -29.2869  -12.8614   18.1616 C   0  0  0  0  0  0  0  0  0  0  0  0
  -20.6108  -23.1031   20.3438 C   0  0  0  0  0  0  0  0  0  0  0  0
  -26.2978  -28.1698   18.7770 C   0  0  0  0  0  0  0  0  0  0  0  0
  -28.2759  -11.6013   19.9581 C   0  0  0  0  0  0  0  0  0  0  0  0
  -26.9754  -29.2838   20.7660 C   0  0  0  0  0  0  0  0  0  0  0  0
  -29.5502  -18.3272   21.2899 C   0  0  0  0  0  0  0  0  0  0  0  0
  -28.9898  -20.5764   22.3550 C   0  0  0  0  0  0  0  0  0  0  0  0
  -25.8268  -19.8715   26.1183 C   0  0  0  0  0  0  0  0  0  0  0  0
  -20.7273  -22.3256   22.6333 C   0  0  0  0  0  0  0  0  0  0  0  0
  -25.2931  -20.4330   24.9426 C   0  0  0  0  0  0  0  0  0  0  0  0
  -20.5483  -22.0508   21.2700 C   0  0  0  0  0  0  0  0  0  0  0  0
  -24.9750  -28.4259   19.1204 C   0  0  0  0  0  0  0  0  0  0  0  0
  -27.3230  -28.6035   19.6101 C   0  0  0  0  0  0  0  0  0  0  0  0
  -30.1100  -15.5949   21.3527 C   0  0  0  0  0  0  0  0  0  0  0  0
  -20.8354  -24.4122   20.7689 C   0  0  0  0  0  0  0  0  0  0  0  0
  -29.7455  -13.4524   20.4589 C   0  0  0  0  0  0  0  0  0  0  0  0
  -28.4601  -11.8243   18.5935 C   0  0  0  0  0  0  0  0  0  0  0  0
  -28.9186  -12.4154   20.8908 C   0  0  0  0  0  0  0  0  0  0  0  0
  -29.2617  -19.7385   21.2570 C   0  0  0  0  0  0  0  0  0  0  0  0
  -24.7325  -29.1140   20.2983 C   0  0  0  0  0  0  0  0  0  0  0  0
  -28.7842  -21.8153   21.7989 C   0  0  0  0  0  0  0  0  0  0  0  0
  -28.9288  -20.2630   23.7528 C   0  0  0  0  0  0  0  0  0  0  0  0
  -22.3957  -19.6249   22.7966 C   0  0  0  0  0  0  0  0  0  0  0  0
  -19.6892  -18.3349   21.5584 C   0  0  0  0  0  0  0  0  0  0  0  0
  -16.8182  -18.7896   19.7703 C   0  0  0  0  0  0  0  0  0  0  0  0
  -30.2273  -25.8405   18.2127 C   0  0  0  0  0  0  0  0  0  0  0  0
  -25.8447  -18.3810   26.3484 C   0  0  0  0  0  0  0  0  0  0  0  0
  -20.6410  -21.2211   23.6507 C   0  0  0  0  0  0  0  0  0  0  0  0
  -20.2983  -20.6525   20.7690 C   0  0  0  0  0  0  0  0  0  0  0  0
  -24.8772  -17.6144   25.4502 C   0  0  0  0  0  0  0  0  0  0  0  0
  -28.1892  -23.1988   16.9700 C   0  0  0  0  0  0  0  0  0  0  0  0
  -21.6129  -31.2341   21.2370 C   0  0  0  0  0  0  0  0  0  0  0  0
  -24.9972  -18.0917   24.0064 C   0  0  0  0  0  0  0  0  0  0  0  0
  -23.0442  -30.9381   20.7895 C   0  0  0  0  0  0  0  0  0  0  0  0
  -28.2693  -22.1304   18.0618 C   0  0  0  0  0  0  0  0  0  0  0  0
  -29.5174  -23.9331   16.8004 C   0  0  0  0  0  0  0  0  0  0  0  0
  -30.1477  -23.4437   19.1322 C   0  0  0  0  0  0  0  0  0  0  0  0
  -21.2798  -30.5406   22.5485 C   0  0  0  0  0  0  0  0  0  0  0  0
  -22.9522  -28.7423   22.0514 C   0  0  0  0  0  0  0  0  0  0  0  0
  -24.6331  -19.5762   23.8840 C   0  0  1  0  0  0  0  0  0  0  0  0
  -23.3057  -29.4228   20.7251 C   0  0  2  0  0  0  0  0  0  0  0  0
  -20.9333  -19.8437   23.0635 C   0  0  1  0  0  0  0  0  0  0  0  0
  -28.8160  -22.7141   19.3785 C   0  0  2  0  0  0  0  0  0  0  0  0
  -14.8269  -17.5413   18.8906 C   0  0  0  0  0  0  0  0  0  0  0  0
  -21.4213  -17.1300   19.3543 C   0  0  0  0  0  0  0  0  0  0  0  0
  -19.3345  -16.7262   18.0312 C   0  0  0  0  0  0  0  0  0  0  0  0
  -19.6469  -15.6051   20.2376 C   0  0  0  0  0  0  0  0  0  0  0  0
  -14.9378  -20.4508   21.3398 C   0  0  0  0  0  0  0  0  0  0  0  0
  -23.8642  -27.9606   18.2256 C   0  0  0  0  0  0  0  0  0  0  0  0
  -29.7229  -28.3967   20.2610 C   0  0  0  0  0  0  0  0  0  0  0  0
  -30.9460  -27.6480   19.7539 C   0  0  0  0  0  0  0  0  0  0  0  0
  -22.0003  -26.3253   17.9257 C   0  0  0  0  0  0  0  0  0  0  0  0
  -21.3720  -25.0979   18.5558 C   0  0  0  0  0  0  0  0  0  1  0  0
  -19.1641  -18.0858   20.1652 C   0  0  1  0  0  0  0  0  0  0  0  0
  -15.3858  -18.3655   20.0400 C   0  0  2  0  0  0  0  0  0  0  0  0
  -19.8983  -16.9130   19.4560 C   0  0  0  0  0  0  0  0  0  0  0  0
  -25.7020  -29.5512   21.1329 N   0  0  0  0  0  0  0  0  0  0  0  0
  -29.2319  -20.3900   20.0914 N   0  0  0  0  0  0  0  0  0  0  0  0
  -28.9389  -21.6505   20.4539 N   0  0  0  0  0  0  0  0  0  0  0  0
  -20.2288  -19.6059   21.8021 N   0  0  0  0  0  0  0  0  0  0  0  0
  -29.9799  -24.4637   18.0852 N   0  0  0  0  0  0  0  0  0  0  0  0
  -28.4877  -23.0187   22.3341 N   0  0  0  0  0  0  0  0  0  0  0  0
  -29.1659  -18.9405   24.1519 N   0  0  0  0  0  0  0  0  0  0  0  0
  -28.6686  -28.3594   19.2905 N   0  0  0  0  0  0  0  0  0  0  0  0
  -23.1966  -19.7487   23.9159 N   0  0  0  0  0  0  0  0  0  0  0  0
  -17.7240  -17.8949   20.2998 N   0  0  0  0  0  0  0  0  0  0  0  0
  -30.6567  -26.2610   19.4655 N   0  0  0  0  0  0  0  0  0  0  0  0
  -21.5398  -29.0766   22.4117 N   0  3  0  0  0  0  0  0  0  0  0  0
  -14.5175  -19.5624   20.2258 N   0  3  0  0  0  0  0  0  0  0  0  0
  -23.1438  -26.7734   18.7598 N   0  3  0  0  0  0  0  0  0  0  0  0
  -28.6554  -21.1265   24.6206 O   0  0  0  0  0  0  0  0  0  0  0  0
  -22.7696  -19.3619   21.6597 O   0  0  0  0  0  0  0  0  0  0  0  0
  -19.6167  -17.4375   22.4015 O   0  0  0  0  0  0  0  0  0  0  0  0
  -17.1049  -19.8103   19.1487 O   0  0  0  0  0  0  0  0  0  0  0  0
  -30.0715  -26.6368   17.2808 O   0  0  0  0  0  0  0  0  0  0  0  0
  -30.3836  -14.2620   21.3836 O   0  0  0  0  0  0  0  0  0  0  0  0
  -20.8919  -25.4232   19.8597 O   0  0  0  0  0  0  0  0  0  1  0  0
  -27.8418  -11.0436   17.6977 F   0  0  0  0  0  0  0  0  0  0  0  0
  -28.7369  -12.1970   22.2004 F   0  0  0  0  0  0  0  0  0  0  0  0
  1  2  1  0  0  0  0
  1  5  2  0  0  0  0
  2  6  2  0  0  0  0
  3  8  2  0  0  0  0
  3 17  1  0  0  0  0
  4  9  1  0  0  0  0
  4 17  2  0  0  0  0
  5 19  1  0  0  0  0
  6 21  1  0  0  0  0
  7 10  2  0  0  0  0
  7 20  1  0  0  0  0
  8 25  1  0  0  0  0
  9 25  2  0  0  0  0
 10 26  1  0  0  0  0
 11 12  2  0  0  0  0
 11 27  1  0  0  0  0
 12 28  1  0  0  0  0
 13 22  1  0  0  0  0
 13 26  2  0  0  0  0
 14 23  1  0  0  0  0
 14 24  2  0  0  0  0
 15 28  2  0  0  0  0
 15 29  1  0  0  0  0
 16 24  1  0  0  0  0
 16 68  2  0  0  0  0
 17 30  1  0  0  0  0
 18 30  1  0  0  0  0
 18 32  2  0  0  0  0
 18 33  1  0  0  0  0
 19 21  2  0  0  0  0
 19 38  1  0  0  0  0
 20 22  2  0  0  0  0
 20 39  1  0  0  0  0
 21 51  1  0  0  0  0
 22 40  1  0  0  0  0
 23 31  2  0  0  0  0
 23 60  1  0  0  0  0
 24 75  1  0  0  0  0
 25 87  1  0  0  0  0
 26 88  1  0  0  0  0
 27 29  2  0  0  0  0
 27 87  1  0  0  0  0
 28 89  1  0  0  0  0
 29 90  1  0  0  0  0
 30 69  2  0  0  0  0
 31 52  1  0  0  0  0
 31 68  1  0  0  0  0
 32 70  1  0  0  0  0
 32 73  1  0  0  0  0
 33 74  1  0  0  0  0
 33 82  2  0  0  0  0
 34 53  1  0  0  0  0
 34 76  1  0  0  0  0
 34 83  2  0  0  0  0
 35 65  1  0  0  0  0
 35 71  1  0  0  0  0
 35 84  2  0  0  0  0
 36 66  1  0  0  0  0
 36 77  1  0  0  0  0
 36 85  2  0  0  0  0
 37 72  1  0  0  0  0
 37 78  1  0  0  0  0
 37 86  2  0  0  0  0
 38 41  1  0  0  0  0
 39 53  1  0  0  0  0
 40 71  1  0  0  0  0
 41 44  1  0  0  0  0
 42 46  1  0  0  0  0
 42 47  1  0  0  0  0
 43 45  1  0  0  0  0
 43 49  1  0  0  0  0
 44 51  1  0  0  0  0
 45 52  1  0  0  0  0
 46 54  1  0  0  0  0
 47 72  1  0  0  0  0
 48 54  1  0  0  0  0
 48 72  1  0  0  0  0
 49 79  1  0  0  0  0
 50 52  1  0  0  0  0
 50 79  1  0  0  0  0
 51 76  1  0  0  0  0
 53 71  1  0  0  0  0
 54 70  1  0  0  0  0
 55 66  1  0  0  0  0
 56 67  1  0  0  0  0
 57 67  1  0  0  0  0
 58 67  1  0  0  0  0
 59 80  1  0  0  0  0
 60 81  1  0  0  0  0
 61 62  1  0  0  0  0
 61 75  1  0  0  0  0
 62 78  1  0  0  0  0
 63 64  1  0  0  0  0
 63 81  1  0  0  0  0
 64 88  1  0  0  0  0
 65 67  1  0  0  0  0
 65 77  1  0  0  0  0
 66 80  1  0  0  0  0
 69 70  1  0  0  0  0
M  CHG  3  79   1  80   1  81   1
M  ISO  4  37 100  64 101  78 100  88 101
M  END
> <Batch ID>
0130

> <Smiles>
CNC(C)C(=O)NC(C(=O)N1Cc2cc([101O:1][101CH2:1]CNCc3cc(NCC[100NH:0][100C:0](=O)N4CCCC(n5nc(-c6ccc(Oc7ccc(F)cc7F)cc6)c(C(N)=O)c5N)C4)cnc3C3CCCNC3)ccc2CC1C(=O)NC1CCCc2ccccc21)C(C)(C)C

> <Shape>
0.220

> <Color>
0.062

> <Negative vol penalty>
0.000

$$$$

  -OEChem-04052320473D

 81 89  0     1  0  0  0  0  0999 V2000
  -19.0301  -24.1162   23.6287 C   0  0  0  0  0  0  0  0  0  0  0  0
  -20.3921  -24.2045   23.3594 C   0  0  0  0  0  0  0  0  0  0  0  0
  -27.3809  -12.4032   19.2987 C   0  0  0  0  0  0  0  0  0  0  0  0
  -29.0037  -13.6562   20.5769 C   0  0  0  0  0  0  0  0  0  0  0  0
  -18.2078  -25.2242   23.4286 C   0  0  0  0  0  0  0  0  0  0  0  0
  -20.9325  -25.4007   22.8887 C   0  0  0  0  0  0  0  0  0  0  0  0
  -25.2477  -26.6381   25.2323 C   0  0  0  0  0  0  0  0  0  0  0  0
  -28.8951  -22.6535   22.2642 C   0  0  0  0  0  0  0  0  0  0  0  0
  -27.6017  -23.9252   20.6683 C   0  0  0  0  0  0  0  0  0  0  0  0
  -28.0149  -21.5808   22.1229 C   0  0  0  0  0  0  0  0  0  0  0  0
  -26.7215  -22.8524   20.5269 C   0  0  0  0  0  0  0  0  0  0  0  0
  -28.4112  -11.6734   18.7060 C   0  0  0  0  0  0  0  0  0  0  0  0
  -30.0340  -12.9263   19.9842 C   0  0  0  0  0  0  0  0  0  0  0  0
  -26.4035  -25.9677   24.8341 C   0  0  0  0  0  0  0  0  0  0  0  0
  -30.6364   -9.7259   16.5895 C   0  0  0  0  0  0  0  0  0  0  0  0
  -30.5791   -9.5224   15.2108 C   0  0  0  0  0  0  0  0  0  0  0  0
  -27.0285  -27.8628   23.4787 C   0  0  0  0  0  0  0  0  0  0  0  0
  -30.6208  -11.9120   14.8564 C   0  0  0  0  0  0  0  0  0  0  0  0
  -27.6771  -13.3947   20.2342 C   0  0  0  0  0  0  0  0  0  0  0  0
  -25.9218  -13.8359   22.0319 C   0  0  0  0  0  0  0  0  0  0  0  0
  -18.7400  -26.4374   22.9644 C   0  0  0  0  0  0  0  0  0  0  0  0
  -24.9678  -27.9238   24.7474 C   0  0  0  0  0  0  0  0  0  0  0  0
  -20.1164  -26.5256   22.6809 C   0  0  0  0  0  0  0  0  0  0  0  0
  -25.8698  -28.5484   23.8743 C   0  0  0  0  0  0  0  0  0  0  0  0
  -28.6885  -23.8258   21.5370 C   0  0  0  0  0  0  0  0  0  0  0  0
  -26.9281  -21.6802   21.2541 C   0  0  0  0  0  0  0  0  0  0  0  0
  -29.7378  -11.9349   19.0487 C   0  0  0  0  0  0  0  0  0  0  0  0
  -27.2926  -26.5788   23.9549 C   0  0  0  0  0  0  0  0  0  0  0  0
  -30.6858  -11.0224   17.1017 C   0  0  0  0  0  0  0  0  0  0  0  0
  -30.5713  -10.6154   14.3442 C   0  0  0  0  0  0  0  0  0  0  0  0
  -30.6780  -12.1154   16.2351 C   0  0  0  0  0  0  0  0  0  0  0  0
  -26.6132  -14.1493   20.8464 C   0  0  0  0  0  0  0  0  0  0  0  0
  -25.0162  -14.8576   22.1816 C   0  0  0  0  0  0  0  0  0  0  0  0
  -26.0836  -12.7208   22.9186 C   0  0  0  0  0  0  0  0  0  0  0  0
  -22.6386  -29.2062   23.0055 C   0  0  0  0  0  0  0  0  0  0  0  0
  -24.1829  -31.9759   23.6883 C   0  0  0  0  0  0  0  0  0  0  0  0
  -27.0906  -33.5311   24.5677 C   0  0  0  0  0  0  0  0  0  0  0  0
  -24.9070  -20.5251   20.2914 C   0  0  0  0  0  0  0  0  0  0  0  0
  -17.8038  -27.5939   22.7183 C   0  0  0  0  0  0  0  0  0  0  0  0
  -23.7302  -28.6442   25.2075 C   0  0  0  0  0  0  0  0  0  0  0  0
  -25.6256  -29.9355   23.3408 C   0  0  0  0  0  0  0  0  0  0  0  0
  -18.5177  -28.9355   22.5736 C   0  0  0  0  0  0  0  0  0  0  0  0
  -22.4735  -18.0120   19.6284 C   0  0  0  0  0  0  0  0  0  0  0  0
  -19.7148  -28.8049   21.6372 C   0  0  0  0  0  0  0  0  0  0  0  0
  -23.1940  -16.7081   19.9792 C   0  0  0  0  0  0  0  0  0  0  0  0
  -23.4173  -19.0259   18.9843 C   0  0  0  0  0  0  0  0  0  0  0  0
  -25.3622  -18.0012   20.0962 C   0  0  0  0  0  0  0  0  0  0  0  0
  -20.7440  -27.8131   22.1926 C   0  0  1  0  0  0  0  0  0  0  0  0
  -23.2884  -29.7453   24.2484 C   0  0  1  0  0  0  0  0  0  0  0  0
  -24.4671  -16.9728   20.8067 C   0  0  2  0  0  0  0  0  0  0  0  0
  -31.1635  -24.2096   19.7827 C   0  0  0  0  0  0  0  0  0  0  0  0
  -28.0511  -35.8062   25.0130 C   0  0  0  0  0  0  0  0  0  0  0  0
  -24.2491  -32.5324   20.6890 C   0  0  0  0  0  0  0  0  0  0  0  0
  -26.0015  -34.2678   21.1203 C   0  0  0  0  0  0  0  0  0  0  0  0
  -23.7252  -34.5239   22.1082 C   0  0  0  0  0  0  0  0  0  0  0  0
  -27.7769  -32.8226   27.3580 C   0  0  0  0  0  0  0  0  0  0  0  0
  -30.3562  -25.3616   20.3693 C   0  0  0  0  0  0  0  0  0  0  0  0
  -28.9292  -26.2286   22.2653 C   0  0  0  0  0  0  0  0  0  1  0  0
  -29.6493  -24.9966   21.6915 C   0  0  1  0  0  0  0  0  0  0  0  0
  -25.2905  -32.7704   23.0395 C   0  0  1  0  0  0  0  0  0  0  0  0
  -27.3932  -34.5787   25.6238 C   0  0  2  0  0  0  0  0  0  0  0  0
  -24.8205  -33.4967   21.7476 C   0  0  0  0  0  0  0  0  0  0  0  0
  -26.1836  -15.2815   20.2829 N   0  0  0  0  0  0  0  0  0  0  0  0
  -25.2124  -15.6884   21.1179 N   0  0  0  0  0  0  0  0  0  0  0  0
  -24.3985  -30.5963   23.8151 N   0  0  0  0  0  0  0  0  0  0  0  0
  -24.5983  -19.2293   19.8261 N   0  0  0  0  0  0  0  0  0  0  0  0
  -24.0791  -15.1174   23.1180 N   0  0  0  0  0  0  0  0  0  0  0  0
  -27.0607  -11.7627   22.6158 N   0  0  0  0  0  0  0  0  0  0  0  0
  -26.0339  -20.5905   21.1101 N   0  0  0  0  0  0  0  0  0  0  0  0
  -21.5218  -28.4289   23.2464 N   0  0  0  0  0  0  0  0  0  0  0  0
  -25.8113  -33.6618   24.0703 N   0  0  0  0  0  0  0  0  0  0  0  0
  -28.3084  -34.0211   26.6593 N   0  3  0  0  0  0  0  0  0  0  0  0
  -25.3714  -12.5697   23.9401 O   0  0  0  0  0  0  0  0  0  0  0  0
  -23.1144  -29.4767   21.9091 O   0  0  0  0  0  0  0  0  0  0  0  0
  -23.1669  -32.5590   24.0750 O   0  0  0  0  0  0  0  0  0  0  0  0
  -27.9088  -32.6839   24.2162 O   0  0  0  0  0  0  0  0  0  0  0  0
  -24.2064  -21.5003   20.0082 O   0  0  0  0  0  0  0  0  0  0  0  0
  -30.7434  -11.2228   18.4707 O   0  0  0  0  0  0  0  0  0  0  0  0
  -28.4211  -25.9264   23.5641 O   0  0  0  0  0  0  0  0  0  1  0  0
  -30.5178  -10.4198   13.0202 F   0  0  0  0  0  0  0  0  0  0  0  0
  -30.7265  -13.3633   16.7213 F   0  0  0  0  0  0  0  0  0  0  0  0
  1  2  1  0  0  0  0
  1  5  2  0  0  0  0
  2  6  2  0  0  0  0
  3 12  2  0  0  0  0
  3 19  1  0  0  0  0
  4 13  1  0  0  0  0
  4 19  2  0  0  0  0
  5 21  1  0  0  0  0
  6 23  1  0  0  0  0
  7 14  2  0  0  0  0
  7 22  1  0  0  0  0
  8 10  2  0  0  0  0
  8 25  1  0  0  0  0
  9 11  1  0  0  0  0
  9 25  2  0  0  0  0
 10 26  1  0  0  0  0
 11 26  2  0  0  0  0
 12 27  1  0  0  0  0
 13 27  2  0  0  0  0
 14 28  1  0  0  0  0
 15 16  2  0  0  0  0
 15 29  1  0  0  0  0
 16 30  1  0  0  0  0
 17 24  1  0  0  0  0
 17 28  2  0  0  0  0
 18 30  2  0  0  0  0
 18 31  1  0  0  0  0
 19 32  1  0  0  0  0
 20 32  1  0  0  0  0
 20 33  2  0  0  0  0
 20 34  1  0  0  0  0
 21 23  2  0  0  0  0
 21 39  1  0  0  0  0
 22 24  2  0  0  0  0
 22 40  1  0  0  0  0
 23 48  1  0  0  0  0
 24 41  1  0  0  0  0
 25 59  1  0  0  0  0
 26 69  1  0  0  0  0
 27 78  1  0  0  0  0
 28 79  1  0  0  0  0
 29 31  2  0  0  0  0
 29 78  1  0  0  0  0
 30 80  1  0  0  0  0
 31 81  1  0  0  0  0
 32 63  2  0  0  0  0
 33 64  1  0  0  0  0
 33 67  1  0  0  0  0
 34 68  1  0  0  0  0
 34 73  2  0  0  0  0
 35 49  1  0  0  0  0
 35 70  1  0  0  0  0
 35 74  2  0  0  0  0
 36 60  1  0  0  0  0
 36 65  1  0  0  0  0
 36 75  2  0  0  0  0
 37 61  1  0  0  0  0
 37 71  1  0  0  0  0
 37 76  2  0  0  0  0
 38 66  1  0  0  0  0
 38 69  1  0  0  0  0
 38 77  2  0  0  0  0
 39 42  1  0  0  0  0
 40 49  1  0  0  0  0
 41 65  1  0  0  0  0
 42 44  1  0  0  0  0
 43 45  1  0  0  0  0
 43 46  1  0  0  0  0
 44 48  1  0  0  0  0
 45 50  1  0  0  0  0
 46 66  1  0  0  0  0
 47 50  1  0  0  0  0
 47 66  1  0  0  0  0
 48 70  1  0  0  0  0
 49 65  1  0  0  0  0
 50 64  1  0  0  0  0
 51 57  1  0  0  0  0
 52 61  1  0  0  0  0
 53 62  1  0  0  0  0
 54 62  1  0  0  0  0
 55 62  1  0  0  0  0
 56 72  1  0  0  0  0
 57 59  1  0  0  0  0
 58 59  1  0  0  0  0
 58 79  1  0  0  0  0
 60 62  1  0  0  0  0
 60 71  1  0  0  0  0
 61 72  1  0  0  0  0
 63 64  1  0  0  0  0
M  CHG  1  72   1
M  ISO  4  38 100  58 101  69 100  79 101
M  END
> <Batch ID>
0130

> <Smiles>
CCC(c1ccc([100NH:0][100C:0](=O)N2CCCC(n3nc(-c4ccc(Oc5ccc(F)cc5F)cc4)c(C(N)=O)c3N)C2)cc1)[101CH2:1][101O:1]c1ccc2c(c1)CN(C(=O)C(NC(=O)C(C)NC)C(C)(C)C)C(C(=O)NC1CCCc3ccccc31)C2

> <Shape>
0.216

> <Color>
0.083

> <Negative vol penalty>
0.000

$$$$

  -OEChem-04052320473D

 84 93  0     1  0  0  0  0  0999 V2000
  -17.9880  -28.6809   21.7405 C   0  0  0  0  0  0  0  0  0  0  0  0
  -18.9866  -27.7747   22.0826 C   0  0  0  0  0  0  0  0  0  0  0  0
  -23.2447  -10.2096   22.1730 C   0  0  0  0  0  0  0  0  0  0  0  0
  -23.4760   -9.6178   19.8421 C   0  0  0  0  0  0  0  0  0  0  0  0
  -17.1177  -29.1598   22.7190 C   0  0  0  0  0  0  0  0  0  0  0  0
  -19.1162  -27.3477   23.4037 C   0  0  0  0  0  0  0  0  0  0  0  0
  -27.3422  -20.6679   23.0005 C   0  0  0  0  0  0  0  0  0  0  0  0
  -26.4427  -18.5063   22.4043 C   0  0  0  0  0  0  0  0  0  0  0  0
  -19.8149  -22.3453   23.7686 C   0  0  0  0  0  0  0  0  0  0  0  0
  -26.0490  -21.1850   23.0768 C   0  0  0  0  0  0  0  0  0  0  0  0
  -25.1494  -19.0235   22.4806 C   0  0  0  0  0  0  0  0  0  0  0  0
  -22.4672   -9.0712   22.3849 C   0  0  0  0  0  0  0  0  0  0  0  0
  -22.6984   -8.4793   20.0539 C   0  0  0  0  0  0  0  0  0  0  0  0
  -21.0923  -21.8591   23.4937 C   0  0  0  0  0  0  0  0  0  0  0  0
  -22.9704   -5.7550   22.8123 C   0  0  0  0  0  0  0  0  0  0  0  0
  -23.2471   -4.9817   23.9397 C   0  0  0  0  0  0  0  0  0  0  0  0
  -21.5426  -21.7216   25.8596 C   0  0  0  0  0  0  0  0  0  0  0  0
  -21.0004   -5.3542   24.7465 C   0  0  0  0  0  0  0  0  0  0  0  0
  -23.7491  -10.4830   20.9016 C   0  0  0  0  0  0  0  0  0  0  0  0
  -24.1704  -12.9989   20.8848 C   0  0  0  0  0  0  0  0  0  0  0  0
  -27.5390  -19.3285   22.6642 C   0  0  0  0  0  0  0  0  0  0  0  0
  -17.2307  -28.7310   24.0509 C   0  0  0  0  0  0  0  0  0  0  0  0
  -19.3949  -22.5339   25.0932 C   0  0  0  0  0  0  0  0  0  0  0  0
  -18.2475  -27.8223   24.4011 C   0  0  0  0  0  0  0  0  0  0  0  0
  -20.2585  -22.2079   26.1487 C   0  0  0  0  0  0  0  0  0  0  0  0
  -24.9527  -20.3628   22.8168 C   0  0  0  0  0  0  0  0  0  0  0  0
  -22.1940   -8.2060   21.3254 C   0  0  0  0  0  0  0  0  0  0  0  0
  -21.9574  -21.5499   24.5392 C   0  0  0  0  0  0  0  0  0  0  0  0
  -21.7088   -6.3280   22.6521 C   0  0  0  0  0  0  0  0  0  0  0  0
  -22.2621   -4.7812   24.9068 C   0  0  0  0  0  0  0  0  0  0  0  0
  -20.7238   -6.1276   23.6191 C   0  0  0  0  0  0  0  0  0  0  0  0
  -24.5520  -11.6591   20.6819 C   0  0  0  0  0  0  0  0  0  0  0  0
  -25.2801  -13.7287   20.5349 C   0  0  0  0  0  0  0  0  0  0  0  0
  -22.9243  -13.5357   21.3483 C   0  0  0  0  0  0  0  0  0  0  0  0
  -18.4839  -25.0409   26.8221 C   0  0  0  0  0  0  0  0  0  0  0  0
  -17.8316  -22.7751   29.0499 C   0  0  0  0  0  0  0  0  0  0  0  0
  -18.4411  -19.6436   30.2620 C   0  0  0  0  0  0  0  0  0  0  0  0
  -30.7963  -14.5648   20.6693 C   0  0  0  0  0  0  0  0  0  0  0  0
  -16.2968  -29.3126   25.0825 C   0  0  0  0  0  0  0  0  0  0  0  0
  -18.0043  -23.0340   25.3735 C   0  0  0  0  0  0  0  0  0  0  0  0
  -19.8486  -22.3732   27.5886 C   0  0  0  0  0  0  0  0  0  0  0  0
  -16.2645  -28.5235   26.3888 C   0  0  0  0  0  0  0  0  0  0  0  0
  -29.5430  -12.3243   18.2022 C   0  0  0  0  0  0  0  0  0  0  0  0
  -17.6811  -28.1932   26.8481 C   0  0  0  0  0  0  0  0  0  0  0  0
  -29.1569  -17.5882   23.5418 C   0  0  0  0  0  0  0  0  0  0  0  0
  -28.1042  -12.0575   18.6476 C   0  0  0  0  0  0  0  0  0  0  0  0
  -30.5730  -17.0201   23.4348 C   0  0  0  0  0  0  0  0  0  0  0  0
  -30.4865  -12.4632   19.3950 C   0  0  0  0  0  0  0  0  0  0  0  0
  -28.6324  -13.1925   20.8456 C   0  0  0  0  0  0  0  0  0  0  0  0
  -30.7125  -17.8271   21.0490 C   0  0  0  0  0  0  0  0  0  0  0  0
  -18.4045  -27.3164   25.8187 C   0  0  1  0  0  0  0  0  0  0  0  0
  -28.9418  -18.7666   22.5813 C   0  0  1  0  0  0  0  0  0  0  0  0
  -17.8657  -23.6732   26.7517 C   0  0  1  0  0  0  0  0  0  0  0  0
  -27.6339  -13.1006   19.6791 C   0  0  2  0  0  0  0  0  0  0  0  0
  -30.9520  -16.6559   21.9967 C   0  0  2  0  0  0  0  0  0  0  0  0
  -17.7841  -18.0872   32.1177 C   0  0  0  0  0  0  0  0  0  0  0  0
  -19.5598  -24.3688   30.9951 C   0  0  0  0  0  0  0  0  0  0  0  0
  -19.6466  -22.3453   32.4669 C   0  0  0  0  0  0  0  0  0  0  0  0
  -17.4585  -23.4419   31.9850 C   0  0  0  0  0  0  0  0  0  0  0  0
  -17.3898  -17.6341   28.3606 C   0  0  0  0  0  0  0  0  0  0  0  0
  -23.5618  -20.9195   22.9007 C   0  0  0  0  0  0  0  0  0  1  0  0
  -18.6084  -22.1169   30.1645 C   0  0  1  0  0  0  0  0  0  0  0  0
  -17.5035  -18.5290   30.6898 C   0  0  2  0  0  0  0  0  0  0  0  0
  -18.8270  -23.0668   31.3758 C   0  0  0  0  0  0  0  0  0  0  0  0
  -25.8060  -11.5418   20.2374 N   0  0  0  0  0  0  0  0  0  0  0  0
  -26.2220  -12.8172   20.1580 N   0  0  0  0  0  0  0  0  0  0  0  0
  -18.4812  -22.8714   27.8111 N   0  0  0  0  0  0  0  0  0  0  0  0
  -29.9841  -13.4688   20.3343 N   0  0  0  0  0  0  0  0  0  0  0  0
  -25.5322  -15.0548   20.5159 N   0  0  0  0  0  0  0  0  0  0  0  0
  -21.8892  -12.6451   21.6639 N   0  0  0  0  0  0  0  0  0  0  0  0
  -17.9558  -25.9441   25.9195 N   0  0  0  0  0  0  0  0  0  0  0  0
  -17.8928  -20.8880   30.4904 N   0  0  0  0  0  0  0  0  0  0  0  0
  -30.2414  -15.4743   21.5613 N   0  0  0  0  0  0  0  0  0  0  0  0
  -29.3088  -18.3223   21.1868 N   0  3  0  0  0  0  0  0  0  0  0  0
  -17.6592  -17.3486   29.7934 N   0  3  0  0  0  0  0  0  0  0  0  0
  -22.7290  -14.7695   21.4631 O   0  0  0  0  0  0  0  0  0  0  0  0
  -19.3731  -25.2608   27.6361 O   0  0  0  0  0  0  0  0  0  0  0  0
  -16.6879  -23.1823   29.2684 O   0  0  0  0  0  0  0  0  0  0  0  0
  -19.5505  -19.4317   29.7775 O   0  0  0  0  0  0  0  0  0  0  0  0
  -31.9297  -14.7240   20.2034 O   0  0  0  0  0  0  0  0  0  0  0  0
  -21.4355   -7.0949   21.5319 O   0  0  0  0  0  0  0  0  0  0  0  0
  -23.2050  -21.0757   24.2736 O   0  0  0  0  0  0  0  0  0  1  0  0
  -22.5274   -4.0373   25.9886 F   0  0  0  0  0  0  0  0  0  0  0  0
  -19.5095   -6.6746   23.4701 F   0  0  0  0  0  0  0  0  0  0  0  0
  1  2  1  0  0  0  0
  1  5  2  0  0  0  0
  2  6  2  0  0  0  0
  3 12  2  0  0  0  0
  3 19  1  0  0  0  0
  4 13  1  0  0  0  0
  4 19  2  0  0  0  0
  5 22  1  0  0  0  0
  6 24  1  0  0  0  0
  7 10  2  0  0  0  0
  7 21  1  0  0  0  0
  8 11  1  0  0  0  0
  8 21  2  0  0  0  0
  9 14  2  0  0  0  0
  9 23  1  0  0  0  0
 10 26  1  0  0  0  0
 11 26  2  0  0  0  0
 12 27  1  0  0  0  0
 13 27  2  0  0  0  0
 14 28  1  0  0  0  0
 15 16  2  0  0  0  0
 15 29  1  0  0  0  0
 16 30  1  0  0  0  0
 17 25  1  0  0  0  0
 17 28  2  0  0  0  0
 18 30  2  0  0  0  0
 18 31  1  0  0  0  0
 19 32  1  0  0  0  0
 20 32  1  0  0  0  0
 20 33  2  0  0  0  0
 20 34  1  0  0  0  0
 21 52  1  0  0  0  0
 22 24  2  0  0  0  0
 22 39  1  0  0  0  0
 23 25  2  0  0  0  0
 23 40  1  0  0  0  0
 24 51  1  0  0  0  0
 25 41  1  0  0  0  0
 26 61  1  0  0  0  0
 27 81  1  0  0  0  0
 28 82  1  0  0  0  0
 29 31  2  0  0  0  0
 29 81  1  0  0  0  0
 30 83  1  0  0  0  0
 31 84  1  0  0  0  0
 32 65  2  0  0  0  0
 33 66  1  0  0  0  0
 33 69  1  0  0  0  0
 34 70  1  0  0  0  0
 34 76  2  0  0  0  0
 35 53  1  0  0  0  0
 35 71  1  0  0  0  0
 35 77  2  0  0  0  0
 36 62  1  0  0  0  0
 36 67  1  0  0  0  0
 36 78  2  0  0  0  0
 37 63  1  0  0  0  0
 37 72  1  0  0  0  0
 37 79  2  0  0  0  0
 38 68  1  0  0  0  0
 38 73  1  0  0  0  0
 38 80  2  0  0  0  0
 39 42  1  0  0  0  0
 40 53  1  0  0  0  0
 41 67  1  0  0  0  0
 42 44  1  0  0  0  0
 43 46  1  0  0  0  0
 43 48  1  0  0  0  0
 44 51  1  0  0  0  0
 45 47  1  0  0  0  0
 45 52  1  0  0  0  0
 46 54  1  0  0  0  0
 47 55  1  0  0  0  0
 48 68  1  0  0  0  0
 49 54  1  0  0  0  0
 49 68  1  0  0  0  0
 50 55  1  0  0  0  0
 50 74  1  0  0  0  0
 51 71  1  0  0  0  0
 52 74  1  0  0  0  0
 53 67  1  0  0  0  0
 54 66  1  0  0  0  0
 55 73  1  0  0  0  0
 56 63  1  0  0  0  0
 57 64  1  0  0  0  0
 58 64  1  0  0  0  0
 59 64  1  0  0  0  0
 60 75  1  0  0  0  0
 61 82  1  0  0  0  0
 62 64  1  0  0  0  0
 62 72  1  0  0  0  0
 63 75  1  0  0  0  0
 65 66  1  0  0  0  0
M  CHG  2  74   1  75   1
M  ISO  4  38 100  61 101  73 100  82 101
M  END
> <Batch ID>
0130

> <Smiles>
CNC(C)C(=O)NC(C(=O)N1Cc2cc([101O:1][101CH2:1]c3ccc(C4CCC([100NH:0][100C:0](=O)N5CCCC(n6nc(-c7ccc(Oc8ccc(F)cc8F)cc7)c(C(N)=O)c6N)C5)CN4)cc3)ccc2CC1C(=O)NC1CCCc2ccccc21)C(C)(C)C

> <Shape>
0.216

> <Color>
0.211

> <Negative vol penalty>
0.000

$$$$

  -OEChem-04052320473D

 86 96  0     1  0  0  0  0  0999 V2000
  -28.5440  -30.7189   27.4551 C   0  0  0  0  0  0  0  0  0  0  0  0
  -28.2645  -29.7235   26.5243 C   0  0  0  0  0  0  0  0  0  0  0  0
  -24.5531   -8.9957   21.2397 C   0  0  0  0  0  0  0  0  0  0  0  0
  -22.6599  -10.2644   20.4376 C   0  0  0  0  0  0  0  0  0  0  0  0
  -27.5721  -31.6665   27.7737 C   0  0  0  0  0  0  0  0  0  0  0  0
  -27.0125  -29.6744   25.9122 C   0  0  0  0  0  0  0  0  0  0  0  0
  -27.3200  -28.8753   20.9211 C   0  0  0  0  0  0  0  0  0  0  0  0
  -23.7194   -7.9036   21.4801 C   0  0  0  0  0  0  0  0  0  0  0  0
  -21.8262   -9.1722   20.6778 C   0  0  0  0  0  0  0  0  0  0  0  0
  -27.5692  -27.5700   20.4994 C   0  0  0  0  0  0  0  0  0  0  0  0
  -21.5011   -6.9355   23.8394 C   0  0  0  0  0  0  0  0  0  0  0  0
  -21.6500   -6.2618   25.0516 C   0  0  0  0  0  0  0  0  0  0  0  0
  -25.2213  -27.2806   20.0273 C   0  0  0  0  0  0  0  0  0  0  0  0
  -22.1763   -4.2287   23.8572 C   0  0  0  0  0  0  0  0  0  0  0  0
  -28.6810  -23.3831   17.9147 C   0  0  0  0  0  0  0  0  0  0  0  0
  -24.0233  -10.1762   20.7185 C   0  0  0  0  0  0  0  0  0  0  0  0
  -25.5823  -11.5969   19.2837 C   0  0  0  0  0  0  0  0  0  0  0  0
  -26.3109  -31.6348   27.1581 C   0  0  0  0  0  0  0  0  0  0  0  0
  -26.0157  -29.3903   20.9093 C   0  0  0  0  0  0  0  0  0  0  0  0
  -26.0224  -30.6217   26.2239 C   0  0  0  0  0  0  0  0  0  0  0  0
  -24.9586  -28.5936   20.4469 C   0  0  0  0  0  0  0  0  0  0  0  0
  -27.9450  -18.7277   18.3725 C   0  0  0  0  0  0  0  0  0  0  0  0
  -28.1742  -23.6352   19.1762 C   0  0  0  0  0  0  0  0  0  0  0  0
  -27.7352  -22.5521   19.9231 C   0  0  0  0  0  0  0  0  0  0  0  0
  -28.3520  -21.0978   18.0930 C   0  0  0  0  0  0  0  0  0  0  0  0
  -27.8186  -21.2664   19.3868 C   0  0  0  0  0  0  0  0  0  0  0  0
  -28.4180  -19.7991   17.6205 C   0  0  0  0  0  0  0  0  0  0  0  0
  -22.3560   -7.9918   21.1991 C   0  0  0  0  0  0  0  0  0  0  0  0
  -26.5194  -26.7715   20.0551 C   0  0  0  0  0  0  0  0  0  0  0  0
  -21.6897   -6.2558   22.6360 C   0  0  0  0  0  0  0  0  0  0  0  0
  -21.9876   -4.9085   25.0605 C   0  0  0  0  0  0  0  0  0  0  0  0
  -22.0273   -4.9024   22.6449 C   0  0  0  0  0  0  0  0  0  0  0  0
  -24.8839  -11.3049   20.4706 C   0  0  0  0  0  0  0  0  0  0  0  0
  -26.2492  -12.7662   19.5565 C   0  0  0  0  0  0  0  0  0  0  0  0
  -27.4275  -18.9447   19.6268 C   0  0  0  0  0  0  0  0  0  0  0  0
  -25.6243  -10.8757   18.0452 C   0  0  0  0  0  0  0  0  0  0  0  0
  -24.0151  -30.4821   23.1249 C   0  0  0  0  0  0  0  0  0  0  0  0
  -22.1882  -31.2286   20.5504 C   0  0  0  0  0  0  0  0  0  0  0  0
  -21.3974  -30.6246   17.2860 C   0  0  0  0  0  0  0  0  0  0  0  0
  -26.3897  -17.9127   21.6772 C   0  0  0  0  0  0  0  0  0  0  0  0
  -25.2765  -32.6522   27.5698 C   0  0  0  0  0  0  0  0  0  0  0  0
  -25.7674  -30.8093   21.3421 C   0  0  0  0  0  0  0  0  0  0  0  0
  -28.0670  -17.4616   17.5960 C   0  0  0  0  0  0  0  0  0  0  0  0
  -23.5432  -29.1060   20.3954 C   0  0  0  0  0  0  0  0  0  0  0  0
  -24.1027  -32.7544   26.5992 C   0  0  0  0  0  0  0  0  0  0  0  0
  -26.9515  -15.2141   23.9310 C   0  0  0  0  0  0  0  0  0  0  0  0
  -23.5948  -31.3649   26.2275 C   0  0  0  0  0  0  0  0  0  0  0  0
  -26.5212  -13.9805   23.1340 C   0  0  0  0  0  0  0  0  0  0  0  0
  -28.8918  -17.9284   16.3777 C   0  0  0  0  0  0  0  0  0  0  0  0
  -26.0604  -16.4193   23.6359 C   0  0  0  0  0  0  0  0  0  0  0  0
  -25.4869  -15.5185   21.4158 C   0  0  0  0  0  0  0  0  0  0  0  0
  -24.6846  -30.5501   25.5203 C   0  0  1  0  0  0  0  0  0  0  0  0
  -24.3253  -31.0590   21.7726 C   0  0  1  0  0  0  0  0  0  0  0  0
  -26.3950  -14.2966   21.6307 C   0  0  2  0  0  0  0  0  0  0  0  0
  -27.1769  -22.7782   21.2922 C   0  0  0  0  0  0  0  0  0  0  0  0
  -19.8365  -31.3681   15.4672 C   0  0  0  0  0  0  0  0  0  0  0  0
  -19.9152  -29.6800   21.8715 C   0  0  0  0  0  0  0  0  0  0  0  0
  -18.7466  -29.6434   19.6576 C   0  0  0  0  0  0  0  0  0  0  0  0
  -19.2224  -31.8203   20.7789 C   0  0  0  0  0  0  0  0  0  0  0  0
  -23.6382  -31.4906   15.5575 C   0  0  0  0  0  0  0  0  0  0  0  0
  -28.1116  -25.0423   19.6935 C   0  0  0  0  0  0  0  0  0  1  0  0
  -21.1266  -30.5140   19.7495 C   0  0  1  0  0  0  0  0  0  0  0  0
  -21.2026  -31.5607   16.1069 C   0  0  2  0  0  0  0  0  0  0  0  0
  -19.7790  -30.4038   20.5170 C   0  0  0  0  0  0  0  0  0  0  0  0
  -28.7773  -22.1500   17.3641 N   0  0  0  0  0  0  0  0  0  0  0  0
  -25.0883  -12.2152   21.4264 N   0  0  0  0  0  0  0  0  0  0  0  0
  -25.9227  -13.0907   20.8403 N   0  0  0  0  0  0  0  0  0  0  0  0
  -27.3874  -20.2005   20.0953 N   0  3  0  0  0  0  0  0  0  0  0  0
  -28.8492  -19.3846   16.3590 N   0  0  0  0  0  0  0  0  0  0  0  0
  -23.3504  -30.4977   20.8351 N   0  0  0  0  0  0  0  0  0  0  0  0
  -25.9915  -16.6612   22.1931 N   0  0  0  0  0  0  0  0  0  0  0  0
  -27.0772  -13.5382   18.8210 N   0  0  0  0  0  0  0  0  0  0  0  0
  -24.8798   -9.6934   17.9349 N   0  0  0  0  0  0  0  0  0  0  0  0
  -26.9411  -17.8597   20.3974 N   0  0  0  0  0  0  0  0  0  0  0  0
  -24.8144  -30.9695   24.1413 N   0  0  0  0  0  0  0  0  0  0  0  0
  -21.0329  -31.2189   18.4756 N   0  0  0  0  0  0  0  0  0  0  0  0
  -22.2455  -31.3135   15.0715 N   0  3  0  0  0  0  0  0  0  0  0  0
  -26.3151  -11.2593   17.0709 O   0  0  0  0  0  0  0  0  0  0  0  0
  -23.1160  -29.6571   23.2381 O   0  0  0  0  0  0  0  0  0  0  0  0
  -21.9965  -32.3947   20.9041 O   0  0  0  0  0  0  0  0  0  0  0  0
  -21.8262  -29.4793   17.1635 O   0  0  0  0  0  0  0  0  0  0  0  0
  -26.2769  -18.9509   22.3339 O   0  0  0  0  0  0  0  0  0  0  0  0
  -21.5422   -6.9262   21.4333 O   0  0  0  0  0  0  0  0  0  0  0  0
  -26.7598  -25.4968   19.6436 O   0  0  0  0  0  0  0  0  0  1  0  0
  -22.1321   -4.2621   26.2248 F   0  0  0  0  0  0  0  0  0  0  0  0
  -22.2109   -4.2444   21.4920 F   0  0  0  0  0  0  0  0  0  0  0  0
  1  2  1  0  0  0  0
  1  5  2  0  0  0  0
  2  6  2  0  0  0  0
  3  8  2  0  0  0  0
  3 16  1  0  0  0  0
  4  9  1  0  0  0  0
  4 16  2  0  0  0  0
  5 18  1  0  0  0  0
  6 20  1  0  0  0  0
  7 10  2  0  0  0  0
  7 19  1  0  0  0  0
  8 28  1  0  0  0  0
  9 28  2  0  0  0  0
 10 29  1  0  0  0  0
 11 12  2  0  0  0  0
 11 30  1  0  0  0  0
 12 31  1  0  0  0  0
 13 21  1  0  0  0  0
 13 29  2  0  0  0  0
 14 31  2  0  0  0  0
 14 32  1  0  0  0  0
 15 23  1  0  0  0  0
 15 65  2  0  0  0  0
 16 33  1  0  0  0  0
 17 33  1  0  0  0  0
 17 34  2  0  0  0  0
 17 36  1  0  0  0  0
 18 20  2  0  0  0  0
 18 41  1  0  0  0  0
 19 21  2  0  0  0  0
 19 42  1  0  0  0  0
 20 52  1  0  0  0  0
 21 44  1  0  0  0  0
 22 27  2  0  0  0  0
 22 35  1  0  0  0  0
 22 43  1  0  0  0  0
 23 24  2  0  0  0  0
 23 61  1  0  0  0  0
 24 26  1  0  0  0  0
 24 55  1  0  0  0  0
 25 26  2  0  0  0  0
 25 27  1  0  0  0  0
 25 65  1  0  0  0  0
 26 68  1  0  0  0  0
 27 69  1  0  0  0  0
 28 83  1  0  0  0  0
 29 84  1  0  0  0  0
 30 32  2  0  0  0  0
 30 83  1  0  0  0  0
 31 85  1  0  0  0  0
 32 86  1  0  0  0  0
 33 66  2  0  0  0  0
 34 67  1  0  0  0  0
 34 72  1  0  0  0  0
 35 68  2  0  0  0  0
 35 74  1  0  0  0  0
 36 73  1  0  0  0  0
 36 78  2  0  0  0  0
 37 53  1  0  0  0  0
 37 75  1  0  0  0  0
 37 79  2  0  0  0  0
 38 62  1  0  0  0  0
 38 70  1  0  0  0  0
 38 80  2  0  0  0  0
 39 63  1  0  0  0  0
 39 76  1  0  0  0  0
 39 81  2  0  0  0  0
 40 71  1  0  0  0  0
 40 74  1  0  0  0  0
 40 82  2  0  0  0  0
 41 45  1  0  0  0  0
 42 53  1  0  0  0  0
 43 49  1  0  0  0  0
 44 70  1  0  0  0  0
 45 47  1  0  0  0  0
 46 48  1  0  0  0  0
 46 50  1  0  0  0  0
 47 52  1  0  0  0  0
 48 54  1  0  0  0  0
 49 69  1  0  0  0  0
 50 71  1  0  0  0  0
 51 54  1  0  0  0  0
 51 71  1  0  0  0  0
 52 75  1  0  0  0  0
 53 70  1  0  0  0  0
 54 67  1  0  0  0  0
 56 63  1  0  0  0  0
 57 64  1  0  0  0  0
 58 64  1  0  0  0  0
 59 64  1  0  0  0  0
 60 77  1  0  0  0  0
 61 84  1  0  0  0  0
 62 64  1  0  0  0  0
 62 76  1  0  0  0  0
 63 77  1  0  0  0  0
 66 67  1  0  0  0  0
M  CHG  2  68   1  77   1
M  ISO  4  40 100  61 101  74 100  84 101
M  END
> <Batch ID>
0130

> <Smiles>
CNC(C)C(=O)NC(C(=O)N1Cc2cc([101O:1][101CH2:1]c3cnc4c5c(c([100NH:0][100C:0](=O)N6CCCC(n7nc(-c8ccc(Oc9ccc(F)cc9F)cc8)c(C(N)=O)c7N)C6)nc4c3C)CCN5)ccc2CC1C(=O)NC1CCCc2ccccc21)C(C)(C)C

> <Shape>
0.282

> <Color>
0.110

> <Negative vol penalty>
0.000

$$$$

  -OEChem-04052320473D

 88 98  0     1  0  0  0  0  0999 V2000
  -28.1810  -31.6851   27.2975 C   0  0  0  0  0  0  0  0  0  0  0  0
  -28.8009  -30.7409   26.4853 C   0  0  0  0  0  0  0  0  0  0  0  0
  -23.1174  -10.3107   22.0291 C   0  0  0  0  0  0  0  0  0  0  0  0
  -23.8152   -9.3033   19.9470 C   0  0  0  0  0  0  0  0  0  0  0  0
  -26.7914  -31.7017   27.4097 C   0  0  0  0  0  0  0  0  0  0  0  0
  -28.0314  -29.8119   25.7857 C   0  0  0  0  0  0  0  0  0  0  0  0
  -29.2012  -27.4938   20.2392 C   0  0  0  0  0  0  0  0  0  0  0  0
  -22.4140   -9.1510   22.3545 C   0  0  0  0  0  0  0  0  0  0  0  0
  -23.1118   -8.1435   20.2724 C   0  0  0  0  0  0  0  0  0  0  0  0
  -29.7795  -26.2941   19.8269 C   0  0  0  0  0  0  0  0  0  0  0  0
  -23.1120   -6.0697   23.5593 C   0  0  0  0  0  0  0  0  0  0  0  0
  -23.2452   -5.5730   24.8559 C   0  0  0  0  0  0  0  0  0  0  0  0
  -28.7594  -18.4348   21.7801 C   0  0  0  0  0  0  0  0  0  0  0  0
  -27.5829  -25.3320   19.5657 C   0  0  0  0  0  0  0  0  0  0  0  0
  -20.8664   -5.8232   25.1962 C   0  0  0  0  0  0  0  0  0  0  0  0
  -30.6323  -18.1160   20.3493 C   0  0  0  0  0  0  0  0  0  0  0  0
  -23.8179  -10.3869   20.8253 C   0  0  0  0  0  0  0  0  0  0  0  0
  -24.0198  -12.8822   20.3353 C   0  0  0  0  0  0  0  0  0  0  0  0
  -26.0040  -30.7786   26.7036 C   0  0  0  0  0  0  0  0  0  0  0  0
  -27.8073  -27.6184   20.3285 C   0  0  0  0  0  0  0  0  0  0  0  0
  -26.6301  -29.8153   25.8897 C   0  0  0  0  0  0  0  0  0  0  0  0
  -28.8638  -19.8040   21.5612 C   0  0  0  0  0  0  0  0  0  0  0  0
  -26.9893  -26.5352   19.9770 C   0  0  0  0  0  0  0  0  0  0  0  0
  -29.6567  -17.5680   21.1663 C   0  0  0  0  0  0  0  0  0  0  0  0
  -22.4112   -8.0674   21.4762 C   0  0  0  0  0  0  0  0  0  0  0  0
  -28.9705  -25.2120   19.4928 C   0  0  0  0  0  0  0  0  0  0  0  0
  -21.8559   -6.4432   23.0812 C   0  0  0  0  0  0  0  0  0  0  0  0
  -22.1225   -5.4497   25.6743 C   0  0  0  0  0  0  0  0  0  0  0  0
  -20.7332   -6.3199   23.8996 C   0  0  0  0  0  0  0  0  0  0  0  0
  -24.5442  -11.5848   20.4884 C   0  0  0  0  0  0  0  0  0  0  0  0
  -29.8750  -20.2520   20.7267 C   0  0  0  0  0  0  0  0  0  0  0  0
  -25.1082  -13.6573   20.0175 C   0  0  0  0  0  0  0  0  0  0  0  0
  -22.6694  -13.3454   20.4685 C   0  0  0  0  0  0  0  0  0  0  0  0
  -25.7536  -28.2013   22.6835 C   0  0  0  0  0  0  0  0  0  0  0  0
  -23.5987  -28.2822   20.2602 C   0  0  0  0  0  0  0  0  0  0  0  0
  -22.7663  -27.3300   17.0905 C   0  0  0  0  0  0  0  0  0  0  0  0
  -30.4013  -15.1859   20.8234 C   0  0  0  0  0  0  0  0  0  0  0  0
  -24.5081  -30.8054   26.8936 C   0  0  0  0  0  0  0  0  0  0  0  0
  -27.1984  -28.9278   20.7493 C   0  0  0  0  0  0  0  0  0  0  0  0
  -25.4870  -26.6239   20.0364 C   0  0  0  0  0  0  0  0  0  0  0  0
  -23.7445  -30.0257   25.8262 C   0  0  0  0  0  0  0  0  0  0  0  0
  -25.8108  -22.0552   22.0129 C   0  0  0  0  0  0  0  0  0  0  0  0
  -25.6173  -21.0501   23.1423 C   0  0  0  0  0  0  0  0  0  0  0  0
  -29.8310  -12.3444   18.7550 C   0  0  0  0  0  0  0  0  0  0  0  0
  -24.3874  -28.6611   25.5997 C   0  0  0  0  0  0  0  0  0  0  0  0
  -28.7939  -21.3218   24.6489 C   0  0  0  0  0  0  0  0  0  0  0  0
  -29.9927  -21.2176   23.7479 C   0  0  0  0  0  0  0  0  0  0  0  0
  -28.3616  -12.0002   19.0090 C   0  0  0  0  0  0  0  0  0  0  0  0
  -27.0447  -21.5935   21.2423 C   0  0  0  0  0  0  0  0  0  0  0  0
  -26.7422  -20.0289   22.9969 C   0  0  0  0  0  0  0  0  0  0  0  0
  -30.5257  -12.8365   20.0235 C   0  0  0  0  0  0  0  0  0  0  0  0
  -28.3811  -13.6003   20.9651 C   0  0  0  0  0  0  0  0  0  0  0  0
  -25.8283  -28.8070   25.0956 C   0  0  1  0  0  0  0  0  0  0  0  0
  -25.7822  -28.7795   21.2969 C   0  0  1  0  0  0  0  0  0  0  0  0
  -28.6711  -21.6696   23.1912 C   0  0  0  0  0  0  0  0  0  0  0  0
  -27.6224  -13.1617   19.7020 C   0  0  2  0  0  0  0  0  0  0  0  0
  -27.8762  -20.7539   22.2379 C   0  0  0  0  0  0  0  0  0  0  0  0
  -20.9240  -27.5180   15.3969 C   0  0  0  0  0  0  0  0  0  0  0  0
  -21.9697  -26.2171   21.8067 C   0  0  0  0  0  0  0  0  0  0  0  0
  -20.6947  -25.7502   19.7032 C   0  0  0  0  0  0  0  0  0  0  0  0
  -20.6139  -28.0220   20.7304 C   0  0  0  0  0  0  0  0  0  0  0  0
  -24.5281  -28.7132   15.1561 C   0  0  0  0  0  0  0  0  0  0  0  0
  -30.9907  -22.2120   19.6594 C   0  0  0  0  0  0  0  0  0  0  0  0
  -30.8192  -23.7213   19.6190 C   0  0  0  0  0  0  0  0  0  1  0  0
  -22.7272  -27.2609   19.5700 C   0  0  1  0  0  0  0  0  0  0  0  0
  -22.2231  -28.1178   15.9120 C   0  0  2  0  0  0  0  0  0  0  0  0
  -21.5297  -26.8100   20.4532 C   0  0  0  0  0  0  0  0  0  0  0  0
  -30.7651  -19.4404   20.1128 N   0  0  0  0  0  0  0  0  0  0  0  0
  -25.8633  -11.5345   20.2845 N   0  0  0  0  0  0  0  0  0  0  0  0
  -26.1768  -12.8100   19.9999 N   0  0  0  0  0  0  0  0  0  0  0  0
  -24.9393  -27.9233   20.4598 N   0  0  0  0  0  0  0  0  0  0  0  0
  -29.7712  -13.9395   20.6227 N   0  0  0  0  0  0  0  0  0  0  0  0
  -25.2459  -14.9741   19.7541 N   0  0  0  0  0  0  0  0  0  0  0  0
  -21.8469  -13.3418   19.3337 N   0  0  0  0  0  0  0  0  0  0  0  0
  -29.5757  -16.1680   21.3697 N   0  0  0  0  0  0  0  0  0  0  0  0
  -29.9832  -21.6150   20.5058 N   0  0  0  0  0  0  0  0  0  0  0  0
  -25.8397  -29.1456   23.6886 N   0  0  0  0  0  0  0  0  0  0  0  0
  -22.3393  -27.8512   18.2935 N   0  0  0  0  0  0  0  0  0  0  0  0
  -23.2110  -28.1279   14.7962 N   0  3  0  0  0  0  0  0  0  0  0  0
  -22.2109  -13.7658   21.5577 O   0  0  0  0  0  0  0  0  0  0  0  0
  -25.6589  -26.9885   22.8305 O   0  0  0  0  0  0  0  0  0  0  0  0
  -23.1099  -29.3617   20.6029 O   0  0  0  0  0  0  0  0  0  0  0  0
  -23.4933  -26.3482   16.9571 O   0  0  0  0  0  0  0  0  0  0  0  0
  -31.5784  -15.3764   20.5069 O   0  0  0  0  0  0  0  0  0  0  0  0
  -21.7252   -6.9355   21.7934 O   0  0  0  0  0  0  0  0  0  0  0  0
  -29.5324  -24.0397   19.0907 O   0  0  0  0  0  0  0  0  0  1  0  0
  -22.2504   -4.9712   26.9188 F   0  0  0  0  0  0  0  0  0  0  0  0
  -19.5238   -6.6760   23.4455 F   0  0  0  0  0  0  0  0  0  0  0  0
  1  2  1  0  0  0  0
  1  5  2  0  0  0  0
  2  6  2  0  0  0  0
  3  8  2  0  0  0  0
  3 17  1  0  0  0  0
  4  9  1  0  0  0  0
  4 17  2  0  0  0  0
  5 19  1  0  0  0  0
  6 21  1  0  0  0  0
  7 10  2  0  0  0  0
  7 20  1  0  0  0  0
  8 25  1  0  0  0  0
  9 25  2  0  0  0  0
 10 26  1  0  0  0  0
 11 12  2  0  0  0  0
 11 27  1  0  0  0  0
 12 28  1  0  0  0  0
 13 22  1  0  0  0  0
 13 24  2  0  0  0  0
 14 23  1  0  0  0  0
 14 26  2  0  0  0  0
 15 28  2  0  0  0  0
 15 29  1  0  0  0  0
 16 24  1  0  0  0  0
 16 68  2  0  0  0  0
 17 30  1  0  0  0  0
 18 30  1  0  0  0  0
 18 32  2  0  0  0  0
 18 33  1  0  0  0  0
 19 21  2  0  0  0  0
 19 38  1  0  0  0  0
 20 23  2  0  0  0  0
 20 39  1  0  0  0  0
 21 53  1  0  0  0  0
 22 31  2  0  0  0  0
 22 57  1  0  0  0  0
 23 40  1  0  0  0  0
 24 75  1  0  0  0  0
 25 85  1  0  0  0  0
 26 86  1  0  0  0  0
 27 29  2  0  0  0  0
 27 85  1  0  0  0  0
 28 87  1  0  0  0  0
 29 88  1  0  0  0  0
 30 69  2  0  0  0  0
 31 68  1  0  0  0  0
 31 76  1  0  0  0  0
 32 70  1  0  0  0  0
 32 73  1  0  0  0  0
 33 74  1  0  0  0  0
 33 80  2  0  0  0  0
 34 54  1  0  0  0  0
 34 77  1  0  0  0  0
 34 81  2  0  0  0  0
 35 65  1  0  0  0  0
 35 71  1  0  0  0  0
 35 82  2  0  0  0  0
 36 66  1  0  0  0  0
 36 78  1  0  0  0  0
 36 83  2  0  0  0  0
 37 72  1  0  0  0  0
 37 75  1  0  0  0  0
 37 84  2  0  0  0  0
 38 41  1  0  0  0  0
 39 54  1  0  0  0  0
 40 71  1  0  0  0  0
 41 45  1  0  0  0  0
 42 43  1  0  0  0  0
 42 49  1  0  0  0  0
 43 50  1  0  0  0  0
 44 48  1  0  0  0  0
 44 51  1  0  0  0  0
 45 53  1  0  0  0  0
 46 47  1  0  0  0  0
 46 55  1  0  0  0  0
 47 55  1  0  0  0  0
 48 56  1  0  0  0  0
 49 57  1  0  0  0  0
 50 57  1  0  0  0  0
 51 72  1  0  0  0  0
 52 56  1  0  0  0  0
 52 72  1  0  0  0  0
 53 77  1  0  0  0  0
 54 71  1  0  0  0  0
 55 57  1  0  0  0  0
 56 70  1  0  0  0  0
 58 66  1  0  0  0  0
 59 67  1  0  0  0  0
 60 67  1  0  0  0  0
 61 67  1  0  0  0  0
 62 79  1  0  0  0  0
 63 64  1  0  0  0  0
 63 76  1  0  0  0  0
 64 86  1  0  0  0  0
 65 67  1  0  0  0  0
 65 78  1  0  0  0  0
 66 79  1  0  0  0  0
 69 70  1  0  0  0  0
M  CHG  1  79   1
M  ISO  4  37 100  64 101  75 100  86 101
M  END
> <Batch ID>
0130

> <Smiles>
CNC(C)C(=O)NC(C(=O)N1Cc2cc([101O:1][101CH2:1]CNc3ncc([100NH:0][100C:0](=O)N4CCCC(n5nc(-c6ccc(Oc7ccc(F)cc7F)cc6)c(C(N)=O)c5N)C4)cc3C3(C4CC4)CCCC3)ccc2CC1C(=O)NC1CCCc2ccccc21)C(C)(C)C

> <Shape>
0.328

> <Color>
0.155

> <Negative vol penalty>
0.000

$$$$

  -OEChem-04052320473D

 83 91  0     1  0  0  0  0  0999 V2000
  -26.2365  -24.1380   20.9531 C   0  0  0  0  0  0  0  0  0  0  0  0
  -26.6212  -23.2728   21.9723 C   0  0  0  0  0  0  0  0  0  0  0  0
  -33.5928  -11.9596   24.7958 C   0  0  0  0  0  0  0  0  0  0  0  0
  -23.2878   -9.8006   19.9133 C   0  0  0  0  0  0  0  0  0  0  0  0
  -23.7418   -9.9401   22.2822 C   0  0  0  0  0  0  0  0  0  0  0  0
  -26.8790  -24.0864   19.7168 C   0  0  0  0  0  0  0  0  0  0  0  0
  -27.6480  -22.3545   21.7553 C   0  0  0  0  0  0  0  0  0  0  0  0
  -31.7880  -20.4287   25.8366 C   0  0  0  0  0  0  0  0  0  0  0  0
  -33.0177  -11.9643   26.0666 C   0  0  0  0  0  0  0  0  0  0  0  0
  -32.8186  -12.2736   23.6787 C   0  0  0  0  0  0  0  0  0  0  0  0
  -22.5621   -8.6278   20.1215 C   0  0  0  0  0  0  0  0  0  0  0  0
  -23.0160   -8.7673   22.4903 C   0  0  0  0  0  0  0  0  0  0  0  0
  -31.8632  -19.2828   26.6271 C   0  0  0  0  0  0  0  0  0  0  0  0
  -19.7695   -7.8552   22.7117 C   0  0  0  0  0  0  0  0  0  0  0  0
  -18.8686   -7.8328   23.7764 C   0  0  0  0  0  0  0  0  0  0  0  0
  -33.2776  -18.2420   24.9731 C   0  0  0  0  0  0  0  0  0  0  0  0
  -30.8943  -12.5969   25.1033 C   0  0  0  0  0  0  0  0  0  0  0  0
  -20.0763   -5.9854   24.7592 C   0  0  0  0  0  0  0  0  0  0  0  0
  -23.8778  -10.4568   20.9937 C   0  0  0  0  0  0  0  0  0  0  0  0
  -24.1362  -12.9869   20.7960 C   0  0  0  0  0  0  0  0  0  0  0  0
  -27.9206  -23.1737   19.4876 C   0  0  0  0  0  0  0  0  0  0  0  0
  -32.4492  -20.4860   24.6013 C   0  0  0  0  0  0  0  0  0  0  0  0
  -28.3041  -22.2897   20.5143 C   0  0  0  0  0  0  0  0  0  0  0  0
  -33.2113  -19.3908   24.1700 C   0  0  0  0  0  0  0  0  0  0  0  0
  -31.6685  -12.2829   26.2203 C   0  0  0  0  0  0  0  0  0  0  0  0
  -31.4694  -12.5922   23.8325 C   0  0  0  0  0  0  0  0  0  0  0  0
  -22.4261   -8.1111   21.4100 C   0  0  0  0  0  0  0  0  0  0  0  0
  -32.6057  -18.1881   26.1941 C   0  0  0  0  0  0  0  0  0  0  0  0
  -20.8238   -6.9427   22.6708 C   0  0  0  0  0  0  0  0  0  0  0  0
  -19.0220   -6.8979   24.8001 C   0  0  0  0  0  0  0  0  0  0  0  0
  -20.9771   -6.0079   23.6945 C   0  0  0  0  0  0  0  0  0  0  0  0
  -24.6281  -11.6680   20.7792 C   0  0  0  0  0  0  0  0  0  0  0  0
  -25.2371  -13.7672   20.5399 C   0  0  0  0  0  0  0  0  0  0  0  0
  -22.8033  -13.4641   21.0228 C   0  0  0  0  0  0  0  0  0  0  0  0
  -31.5294  -20.8347   21.5787 C   0  0  0  0  0  0  0  0  0  0  0  0
  -34.7238  -20.9660   21.0300 C   0  0  0  0  0  0  0  0  0  0  0  0
  -37.8765  -20.1706   22.0664 C   0  0  0  0  0  0  0  0  0  0  0  0
  -31.0988  -12.9541   21.3671 C   0  0  0  0  0  0  0  0  0  0  0  0
  -28.5534  -23.1228   18.1196 C   0  0  0  0  0  0  0  0  0  0  0  0
  -32.3801  -21.7394   23.7727 C   0  0  0  0  0  0  0  0  0  0  0  0
  -33.9563  -19.4093   22.8612 C   0  0  0  0  0  0  0  0  0  0  0  0
  -29.8844  -22.3758   18.0915 C   0  0  0  0  0  0  0  0  0  0  0  0
  -29.4609  -13.6596   18.2854 C   0  0  0  0  0  0  0  0  0  0  0  0
  -29.7725  -21.0570   18.8500 C   0  0  0  0  0  0  0  0  0  0  0  0
  -27.9901  -13.3548   18.5785 C   0  0  0  0  0  0  0  0  0  0  0  0
  -30.3953  -12.6843   18.9991 C   0  0  0  0  0  0  0  0  0  0  0  0
  -28.7047  -12.2549   20.7388 C   0  0  0  0  0  0  0  0  0  0  0  0
  -29.4302  -21.2966   20.3254 C   0  0  1  0  0  0  0  0  0  0  0  0
  -32.6725  -21.4960   22.2954 C   0  0  1  0  0  0  0  0  0  0  0  0
  -27.7271  -13.2509   20.0937 C   0  0  2  0  0  0  0  0  0  0  0  0
  -31.0722  -10.8846   28.2261 C   0  0  0  0  0  0  0  0  0  0  0  0
  -40.2839  -20.3786   21.3893 C   0  0  0  0  0  0  0  0  0  0  0  0
  -34.3362  -18.7416   18.9778 C   0  0  0  0  0  0  0  0  0  0  0  0
  -36.8076  -18.3463   19.0427 C   0  0  0  0  0  0  0  0  0  0  0  0
  -35.9179  -20.5463   18.2739 C   0  0  0  0  0  0  0  0  0  0  0  0
  -38.5409  -21.7443   24.4833 C   0  0  0  0  0  0  0  0  0  0  0  0
  -32.1211  -15.7389   28.8878 C   0  0  0  0  0  0  0  0  0  0  0  0
  -31.6986  -13.2996   28.5563 C   0  0  0  0  0  0  0  0  0  0  0  0
  -31.9730  -17.0831   28.2027 C   0  0  0  0  0  0  0  0  0  1  0  0
  -31.0406  -12.2879   27.6090 C   0  0  1  0  0  0  0  0  0  0  0  0
  -35.7993  -19.9506   20.7281 C   0  0  1  0  0  0  0  0  0  0  0  0
  -39.1413  -21.0032   22.1748 C   0  0  2  0  0  0  0  0  0  0  0  0
  -35.6997  -19.3948   19.2795 C   0  0  0  0  0  0  0  0  0  0  0  0
  -25.9394  -11.6098   20.5318 N   0  0  0  0  0  0  0  0  0  0  0  0
  -26.2808  -12.9020   20.3907 N   0  0  0  0  0  0  0  0  0  0  0  0
  -33.8527  -20.6553   22.0838 N   0  0  0  0  0  0  0  0  0  0  0  0
  -30.0905  -12.6416   20.4309 N   0  0  0  0  0  0  0  0  0  0  0  0
  -25.4045  -15.1023   20.4298 N   0  0  0  0  0  0  0  0  0  0  0  0
  -21.7914  -12.5268   21.2713 N   0  0  0  0  0  0  0  0  0  0  0  0
  -30.6834  -12.9118   22.6976 N   0  0  0  0  0  0  0  0  0  0  0  0
  -30.6063  -21.7196   21.0549 N   0  0  0  0  0  0  0  0  0  0  0  0
  -37.0701  -20.5990   21.0333 N   0  0  0  0  0  0  0  0  0  0  0  0
  -39.5613  -21.1241   23.5996 N   0  3  0  0  0  0  0  0  0  0  0  0
  -31.5822  -14.6758   28.0026 N   0  3  0  0  0  0  0  0  0  0  0  0
  -22.5151  -14.6844   20.9896 O   0  0  0  0  0  0  0  0  0  0  0  0
  -31.4887  -19.6121   21.5051 O   0  0  0  0  0  0  0  0  0  0  0  0
  -34.6633  -22.0002   20.3603 O   0  0  0  0  0  0  0  0  0  0  0  0
  -37.6305  -19.2317   22.8203 O   0  0  0  0  0  0  0  0  0  0  0  0
  -32.2391  -13.2649   21.0133 O   0  0  0  0  0  0  0  0  0  0  0  0
  -21.7178   -6.9668   21.6135 O   0  0  0  0  0  0  0  0  0  0  0  0
  -32.6802  -17.0681   26.9634 O   0  0  0  0  0  0  0  0  0  1  0  0
  -18.1577   -6.8774   25.8232 F   0  0  0  0  0  0  0  0  0  0  0  0
  -21.9887   -5.1295   23.6613 F   0  0  0  0  0  0  0  0  0  0  0  0
  1  2  1  0  0  0  0
  1  6  2  0  0  0  0
  2  7  2  0  0  0  0
  3  9  2  0  0  0  0
  3 10  1  0  0  0  0
  4 11  2  0  0  0  0
  4 19  1  0  0  0  0
  5 12  1  0  0  0  0
  5 19  2  0  0  0  0
  6 21  1  0  0  0  0
  7 23  1  0  0  0  0
  8 13  2  0  0  0  0
  8 22  1  0  0  0  0
  9 25  1  0  0  0  0
 10 26  2  0  0  0  0
 11 27  1  0  0  0  0
 12 27  2  0  0  0  0
 13 28  1  0  0  0  0
 14 15  2  0  0  0  0
 14 29  1  0  0  0  0
 15 30  1  0  0  0  0
 16 24  1  0  0  0  0
 16 28  2  0  0  0  0
 17 25  2  0  0  0  0
 17 26  1  0  0  0  0
 18 30  2  0  0  0  0
 18 31  1  0  0  0  0
 19 32  1  0  0  0  0
 20 32  1  0  0  0  0
 20 33  2  0  0  0  0
 20 34  1  0  0  0  0
 21 23  2  0  0  0  0
 21 39  1  0  0  0  0
 22 24  2  0  0  0  0
 22 40  1  0  0  0  0
 23 48  1  0  0  0  0
 24 41  1  0  0  0  0
 25 60  1  0  0  0  0
 26 70  1  0  0  0  0
 27 80  1  0  0  0  0
 28 81  1  0  0  0  0
 29 31  2  0  0  0  0
 29 80  1  0  0  0  0
 30 82  1  0  0  0  0
 31 83  1  0  0  0  0
 32 64  2  0  0  0  0
 33 65  1  0  0  0  0
 33 68  1  0  0  0  0
 34 69  1  0  0  0  0
 34 75  2  0  0  0  0
 35 49  1  0  0  0  0
 35 71  1  0  0  0  0
 35 76  2  0  0  0  0
 36 61  1  0  0  0  0
 36 66  1  0  0  0  0
 36 77  2  0  0  0  0
 37 62  1  0  0  0  0
 37 72  1  0  0  0  0
 37 78  2  0  0  0  0
 38 67  1  0  0  0  0
 38 70  1  0  0  0  0
 38 79  2  0  0  0  0
 39 42  1  0  0  0  0
 40 49  1  0  0  0  0
 41 66  1  0  0  0  0
 42 44  1  0  0  0  0
 43 45  1  0  0  0  0
 43 46  1  0  0  0  0
 44 48  1  0  0  0  0
 45 50  1  0  0  0  0
 46 67  1  0  0  0  0
 47 50  1  0  0  0  0
 47 67  1  0  0  0  0
 48 71  1  0  0  0  0
 49 66  1  0  0  0  0
 50 65  1  0  0  0  0
 51 60  1  0  0  0  0
 52 62  1  0  0  0  0
 53 63  1  0  0  0  0
 54 63  1  0  0  0  0
 55 63  1  0  0  0  0
 56 73  1  0  0  0  0
 57 59  1  0  0  0  0
 57 74  1  0  0  0  0
 58 60  1  0  0  0  0
 58 74  1  0  0  0  0
 59 81  1  0  0  0  0
 61 63  1  0  0  0  0
 61 72  1  0  0  0  0
 62 73  1  0  0  0  0
 64 65  1  0  0  0  0
M  CHG  2  73   1  74   1
M  ISO  4  38 100  59 101  70 100  81 101
M  END
> <Batch ID>
0130

> <Smiles>
CNC(C)C(=O)NC(C(=O)N1Cc2cc([101O:1][101CH2:1]CNCC(C)c3cccc([100NH:0][100C:0](=O)N4CCCC(n5nc(-c6ccc(Oc7ccc(F)cc7F)cc6)c(C(N)=O)c5N)C4)c3)ccc2CC1C(=O)NC1CCCc2ccccc21)C(C)(C)C

> <Shape>
0.172

> <Color>
0.171

> <Negative vol penalty>
0.000

$$$$

  -OEChem-04052320473D

 86 94  0     1  0  0  0  0  0999 V2000
  -30.9412  -34.8568   16.5043 C   0  0  0  0  0  0  0  0  0  0  0  0
  -30.7662  -33.5214   16.1559 C   0  0  0  0  0  0  0  0  0  0  0  0
  -23.0178  -10.2610   21.8254 C   0  0  0  0  0  0  0  0  0  0  0  0
  -24.6546  -10.4714   23.5900 C   0  0  0  0  0  0  0  0  0  0  0  0
  -30.8359  -35.2475   17.8386 C   0  0  0  0  0  0  0  0  0  0  0  0
  -30.4868  -32.5756   17.1417 C   0  0  0  0  0  0  0  0  0  0  0  0
  -26.8637  -26.4811   18.1648 C   0  0  0  0  0  0  0  0  0  0  0  0
  -22.3869   -9.2376   22.5326 C   0  0  0  0  0  0  0  0  0  0  0  0
  -24.0237   -9.4480   24.2972 C   0  0  0  0  0  0  0  0  0  0  0  0
  -27.0502  -25.1842   18.6411 C   0  0  0  0  0  0  0  0  0  0  0  0
  -22.8630   -5.9390   23.0956 C   0  0  0  0  0  0  0  0  0  0  0  0
  -22.4860   -4.7989   22.3860 C   0  0  0  0  0  0  0  0  0  0  0  0
  -26.8130  -25.9873   20.9033 C   0  0  0  0  0  0  0  0  0  0  0  0
  -20.1799   -5.1817   22.9962 C   0  0  0  0  0  0  0  0  0  0  0  0
  -24.1517  -10.8779   22.3541 C   0  0  0  0  0  0  0  0  0  0  0  0
  -24.2456  -13.1647   21.2274 C   0  0  0  0  0  0  0  0  0  0  0  0
  -30.5456  -34.3076   18.8401 C   0  0  0  0  0  0  0  0  0  0  0  0
  -26.6609  -27.5444   19.0562 C   0  0  0  0  0  0  0  0  0  0  0  0
  -30.3789  -32.9538   18.4908 C   0  0  0  0  0  0  0  0  0  0  0  0
  -26.6216  -27.2964   20.4357 C   0  0  0  0  0  0  0  0  0  0  0  0
  -22.8898   -8.8311   23.7685 C   0  0  0  0  0  0  0  0  0  0  0  0
  -27.0278  -24.9375   20.0107 C   0  0  0  0  0  0  0  0  0  0  0  0
  -21.8985   -6.7005   23.7556 C   0  0  0  0  0  0  0  0  0  0  0  0
  -21.1445   -4.4202   22.3363 C   0  0  0  0  0  0  0  0  0  0  0  0
  -20.5569   -6.3218   23.7058 C   0  0  0  0  0  0  0  0  0  0  0  0
  -24.8042  -11.9348   21.6237 C   0  0  0  0  0  0  0  0  0  0  0  0
  -25.2647  -13.8083   20.5688 C   0  0  0  0  0  0  0  0  0  0  0  0
  -22.9238  -13.6794   21.4359 C   0  0  0  0  0  0  0  0  0  0  0  0
  -28.2248  -30.2252   19.7428 C   0  0  0  0  0  0  0  0  0  0  0  0
  -25.6313  -30.8010   21.6042 C   0  0  0  0  0  0  0  0  0  0  0  0
  -22.9829  -29.5446   23.3518 C   0  0  0  0  0  0  0  0  0  0  0  0
  -31.2289  -13.3737   20.8698 C   0  0  0  0  0  0  0  0  0  0  0  0
  -30.4883  -34.7696   20.2746 C   0  0  0  0  0  0  0  0  0  0  0  0
  -26.4346  -28.9334   18.5252 C   0  0  0  0  0  0  0  0  0  0  0  0
  -26.3872  -28.4000   21.4335 C   0  0  0  0  0  0  0  0  0  0  0  0
  -29.8192  -33.7669   21.2112 C   0  0  0  0  0  0  0  0  0  0  0  0
  -29.1932  -12.9321   17.9823 C   0  0  0  0  0  0  0  0  0  0  0  0
  -30.3554  -32.3612   20.9594 C   0  0  0  0  0  0  0  0  0  0  0  0
  -27.7871  -12.7374   18.5524 C   0  0  0  0  0  0  0  0  0  0  0  0
  -30.2559  -12.2857   18.8683 C   0  0  0  0  0  0  0  0  0  0  0  0
  -28.8119  -12.5052   20.8534 C   0  0  0  0  0  0  0  0  0  0  0  0
  -27.5819  -20.2960   23.9373 C   0  0  0  0  0  0  0  0  0  0  0  0
  -28.7469  -21.5891   21.6415 C   0  0  0  0  0  0  0  0  0  0  0  0
  -30.0501  -31.9024   19.5284 C   0  0  1  0  0  0  0  0  0  0  0  0
  -26.7490  -30.0221   19.5466 C   0  0  1  0  0  0  0  0  0  0  0  0
  -27.7112  -13.1879   20.0236 C   0  0  2  0  0  0  0  0  0  0  0  0
  -27.3841  -22.0051   22.2129 C   0  0  2  0  0  0  0  0  0  0  0  0
  -28.9476  -19.8548   23.4088 C   0  0  1  0  0  0  0  0  0  0  0  0
  -21.0629  -30.2578   24.8017 C   0  0  0  0  0  0  0  0  0  0  0  0
  -26.1043  -21.8888   25.7650 C   0  0  0  0  0  0  0  0  0  0  0  0
  -24.9362  -21.2721   23.6199 C   0  0  0  0  0  0  0  0  0  0  0  0
  -27.5551  -31.2402   23.9314 C   0  0  0  0  0  0  0  0  0  0  0  0
  -25.6118  -31.0016   25.4918 C   0  0  0  0  0  0  0  0  0  0  0  0
  -25.6534  -32.8613   23.8297 C   0  0  0  0  0  0  0  0  0  0  0  0
  -20.9929  -28.4421   21.4589 C   0  0  0  0  0  0  0  0  0  0  0  0
  -27.1752  -23.4920   21.8934 C   0  0  0  0  0  0  0  0  0  1  0  0
  -29.1865  -18.3648   23.6063 C   0  0  0  0  0  0  0  0  0  0  0  0
  -32.0567  -14.4534   22.9454 C   0  0  0  0  0  0  0  0  0  0  0  0
  -30.5648  -17.9601   23.1102 C   0  0  0  0  0  0  0  0  0  0  0  0
  -32.0253  -15.9612   22.7786 C   0  0  0  0  0  0  0  0  0  0  0  0
  -25.2519  -30.4957   23.0331 C   0  0  1  0  0  0  0  0  0  0  0  0
  -21.5183  -29.9425   23.3854 C   0  0  2  0  0  0  0  0  0  0  0  0
  -26.0395  -22.1022   24.2596 C   0  0  0  0  0  0  0  0  0  0  0  0
  -26.0244  -31.3790   24.0531 C   0  0  0  0  0  0  0  0  0  0  0  0
  -26.0792  -11.8026   21.2482 N   0  0  0  0  0  0  0  0  0  0  0  0
  -26.3302  -12.9577   20.6089 N   0  0  0  0  0  0  0  0  0  0  0  0
  -26.1775  -29.7420   20.8654 N   0  0  0  0  0  0  0  0  0  0  0  0
  -30.1301  -12.7563   20.2498 N   0  0  0  0  0  0  0  0  0  0  0  0
  -27.3243  -21.7225   23.6653 N   0  0  1  0  0  0  0  0  0  0  0  0
  -25.3444  -15.0131   19.9651 N   0  0  0  0  0  0  0  0  0  0  0  0
  -22.0006  -12.8876   22.1324 N   0  0  0  0  0  0  0  0  0  0  0  0
  -28.6670  -31.4923   19.4133 N   0  0  0  0  0  0  0  0  0  0  0  0
  -23.8008  -30.6274   23.1072 N   0  0  0  0  0  0  0  0  0  0  0  0
  -31.0229  -13.7958   22.1775 N   0  0  0  0  0  0  0  0  0  0  0  0
  -28.9985  -20.1518   21.9440 N   0  3  0  0  0  0  0  0  0  0  0  0
  -20.6695  -28.8391   22.8535 N   0  3  0  0  0  0  0  0  0  0  0  0
  -30.7306  -16.4968   23.2819 N   0  3  0  0  0  0  0  0  0  0  0  0
  -22.5668  -14.8012   21.0026 O   0  0  0  0  0  0  0  0  0  0  0  0
  -28.9111  -29.3013   20.1634 O   0  0  0  0  0  0  0  0  0  0  0  0
  -25.4432  -31.9355   21.1577 O   0  0  0  0  0  0  0  0  0  0  0  0
  -23.3636  -28.3895   23.5288 O   0  0  0  0  0  0  0  0  0  0  0  0
  -32.3116  -13.5414   20.2983 O   0  0  0  0  0  0  0  0  0  0  0  0
  -22.2743   -7.8326   24.4590 O   0  0  0  0  0  0  0  0  0  0  0  0
  -27.2103  -23.6727   20.4783 O   0  0  0  0  0  0  0  0  0  1  0  0
  -20.7824   -3.3261   21.6536 F   0  0  0  0  0  0  0  0  0  0  0  0
  -19.6256   -7.0500   24.3369 F   0  0  0  0  0  0  0  0  0  0  0  0
  1  2  1  0  0  0  0
  1  5  2  0  0  0  0
  2  6  2  0  0  0  0
  3  8  2  0  0  0  0
  3 15  1  0  0  0  0
  4  9  1  0  0  0  0
  4 15  2  0  0  0  0
  5 17  1  0  0  0  0
  6 19  1  0  0  0  0
  7 10  2  0  0  0  0
  7 18  1  0  0  0  0
  8 21  1  0  0  0  0
  9 21  2  0  0  0  0
 10 22  1  0  0  0  0
 11 12  2  0  0  0  0
 11 23  1  0  0  0  0
 12 24  1  0  0  0  0
 13 20  1  0  0  0  0
 13 22  2  0  0  0  0
 14 24  2  0  0  0  0
 14 25  1  0  0  0  0
 15 26  1  0  0  0  0
 16 26  1  0  0  0  0
 16 27  2  0  0  0  0
 16 28  1  0  0  0  0
 17 19  2  0  0  0  0
 17 33  1  0  0  0  0
 18 20  2  0  0  0  0
 18 34  1  0  0  0  0
 19 44  1  0  0  0  0
 20 35  1  0  0  0  0
 21 83  1  0  0  0  0
 22 84  1  0  0  0  0
 23 25  2  0  0  0  0
 23 83  1  0  0  0  0
 24 85  1  0  0  0  0
 25 86  1  0  0  0  0
 26 65  2  0  0  0  0
 27 66  1  0  0  0  0
 27 70  1  0  0  0  0
 28 71  1  0  0  0  0
 28 78  2  0  0  0  0
 29 45  1  0  0  0  0
 29 72  1  0  0  0  0
 29 79  2  0  0  0  0
 30 61  1  0  0  0  0
 30 67  1  0  0  0  0
 30 80  2  0  0  0  0
 31 62  1  0  0  0  0
 31 73  1  0  0  0  0
 31 81  2  0  0  0  0
 32 68  1  0  0  0  0
 32 74  1  0  0  0  0
 32 82  2  0  0  0  0
 33 36  1  0  0  0  0
 34 45  1  0  0  0  0
 35 67  1  0  0  0  0
 36 38  1  0  0  0  0
 37 39  1  0  0  0  0
 37 40  1  0  0  0  0
 38 44  1  0  0  0  0
 39 46  1  0  0  0  0
 40 68  1  0  0  0  0
 41 46  1  0  0  0  0
 41 68  1  0  0  0  0
 42 48  1  0  0  0  0
 42 69  1  0  0  0  0
 43 47  1  0  0  0  0
 43 75  1  0  0  0  0
 44 72  1  0  0  0  0
 45 67  1  0  0  0  0
 46 66  1  0  0  0  0
 47 56  1  0  0  0  0
 47 69  1  0  0  0  0
 48 57  1  0  0  0  0
 48 75  1  0  0  0  0
 49 62  1  0  0  0  0
 50 63  1  0  0  0  0
 51 63  1  0  0  0  0
 52 64  1  0  0  0  0
 53 64  1  0  0  0  0
 54 64  1  0  0  0  0
 55 76  1  0  0  0  0
 56 84  1  0  0  0  0
 57 59  1  0  0  0  0
 58 60  1  0  0  0  0
 58 74  1  0  0  0  0
 59 77  1  0  0  0  0
 60 77  1  0  0  0  0
 61 64  1  0  0  0  0
 61 73  1  0  0  0  0
 62 76  1  0  0  0  0
 63 69  1  0  0  0  0
 65 66  1  0  0  0  0
M  CHG  3  75   1  76   1  77   1
M  ISO  4  32 100  56 101  74 100  84 101
M  END
> <Batch ID>
0130

> <Smiles>
CNC(C)C(=O)NC(C(=O)N1Cc2cc([101O:1][101CH2:1]C3CNC(CCNCC[100NH:0][100C:0](=O)N4CCCC(n5nc(-c6ccc(Oc7ccc(F)cc7F)cc6)c(C(N)=O)c5N)C4)CN3C(C)C)ccc2CC1C(=O)NC1CCCc2ccccc21)C(C)(C)C

> <Shape>
0.281

> <Color>
0.170

> <Negative vol penalty>
0.000

$$$$

  -OEChem-04052320473D

 86 95  0     1  0  0  0  0  0999 V2000
  -27.8843  -16.9882   15.5157 C   0  0  0  0  0  0  0  0  0  0  0  0
  -29.0625  -17.6737   15.7894 C   0  0  0  0  0  0  0  0  0  0  0  0
  -19.6418  -22.7265   17.9416 C   0  0  0  0  0  0  0  0  0  0  0  0
  -21.9302  -23.4992   17.9974 C   0  0  0  0  0  0  0  0  0  0  0  0
  -26.6648  -17.5062   15.9467 C   0  0  0  0  0  0  0  0  0  0  0  0
  -29.0228  -18.8712   16.5043 C   0  0  0  0  0  0  0  0  0  0  0  0
  -31.8587  -25.4276   20.1042 C   0  0  0  0  0  0  0  0  0  0  0  0
  -26.8631  -29.2489   23.2250 C   0  0  0  0  0  0  0  0  0  0  0  0
  -19.8014  -22.3499   16.6081 C   0  0  0  0  0  0  0  0  0  0  0  0
  -22.0898  -23.1226   16.6639 C   0  0  0  0  0  0  0  0  0  0  0  0
  -31.5037  -26.6820   20.5987 C   0  0  0  0  0  0  0  0  0  0  0  0
  -28.2211  -28.9341   23.1771 C   0  0  0  0  0  0  0  0  0  0  0  0
  -21.2800  -24.3425   13.6164 C   0  0  0  0  0  0  0  0  0  0  0  0
  -21.9183  -25.2408   12.7613 C   0  0  0  0  0  0  0  0  0  0  0  0
  -29.7639  -25.6614   21.9214 C   0  0  0  0  0  0  0  0  0  0  0  0
  -27.9384  -28.0542   20.9448 C   0  0  0  0  0  0  0  0  0  0  0  0
  -23.6303  -23.5964   12.3118 C   0  0  0  0  0  0  0  0  0  0  0  0
  -20.7061  -23.3012   18.6363 C   0  0  0  0  0  0  0  0  0  0  0  0
  -20.7805  -22.9019   21.1547 C   0  0  0  0  0  0  0  0  0  0  0  0
  -26.6099  -18.7171   16.6564 C   0  0  0  0  0  0  0  0  0  0  0  0
  -31.1611  -24.2797   20.5070 C   0  0  0  0  0  0  0  0  0  0  0  0
  -27.8040  -19.3982   16.9686 C   0  0  0  0  0  0  0  0  0  0  0  0
  -30.1151  -24.3933   21.4341 C   0  0  0  0  0  0  0  0  0  0  0  0
  -26.5804  -28.3691   20.9927 C   0  0  0  0  0  0  0  0  0  0  0  0
  -26.0428  -28.9664   22.1328 C   0  0  0  0  0  0  0  0  0  0  0  0
  -21.0254  -22.5479   15.9692 C   0  0  0  0  0  0  0  0  0  0  0  0
  -30.4548  -26.7992   21.5057 C   0  0  0  0  0  0  0  0  0  0  0  0
  -28.7587  -28.3366   22.0370 C   0  0  0  0  0  0  0  0  0  1  0  0
  -21.8169  -23.0712   13.8194 C   0  0  0  0  0  0  0  0  0  0  0  0
  -23.0934  -24.8678   12.1090 C   0  0  0  0  0  0  0  0  0  0  0  0
  -22.9921  -22.6981   13.1670 C   0  0  0  0  0  0  0  0  0  0  0  0
  -20.5417  -23.6910   20.0136 C   0  0  0  0  0  0  0  0  0  0  0  0
  -20.4776  -23.7256   22.2113 C   0  0  0  0  0  0  0  0  0  0  0  0
  -21.2357  -21.5457   21.2511 C   0  0  0  0  0  0  0  0  0  0  0  0
  -29.4172  -22.0061   19.0804 C   0  0  0  0  0  0  0  0  0  0  0  0
  -29.4823  -20.7536   22.1594 C   0  0  0  0  0  0  0  0  0  0  0  0
  -29.6562  -17.5053   21.1310 C   0  0  0  0  0  0  0  0  0  0  0  0
  -20.4050  -29.6785   22.8504 C   0  0  0  0  0  0  0  0  0  0  0  0
  -25.2638  -19.2282   17.1058 C   0  0  0  0  0  0  0  0  0  0  0  0
  -31.5797  -22.9319   19.9847 C   0  0  0  0  0  0  0  0  0  0  0  0
  -29.3383  -23.1917   21.9005 C   0  0  0  0  0  0  0  0  0  0  0  0
  -25.2797  -20.7110   17.4626 C   0  0  0  0  0  0  0  0  0  0  0  0
  -26.0810  -25.7555   19.1392 C   0  0  0  0  0  0  0  0  0  0  0  0
  -26.6254  -26.6168   18.0081 C   0  0  0  0  0  0  0  0  0  0  0  0
  -17.6940  -27.4343   23.3896 C   0  0  0  0  0  0  0  0  0  0  0  0
  -25.0880  -26.6538   19.8588 C   0  0  0  0  0  0  0  0  0  0  0  0
  -26.4334  -28.0746   18.4355 C   0  0  0  0  0  0  0  0  0  0  0  0
  -26.4398  -21.0074   18.4012 C   0  0  0  0  0  0  0  0  0  0  0  0
  -18.1380  -26.1493   22.6885 C   0  0  0  0  0  0  0  0  0  0  0  0
  -18.1496  -28.6781   22.6297 C   0  0  0  0  0  0  0  0  0  0  0  0
  -20.0382  -27.4454   21.6358 C   0  0  0  0  0  0  0  0  0  0  0  0
  -25.7134  -28.0511   19.7924 C   0  0  0  0  0  0  0  0  0  0  0  0
  -27.7825  -20.7181   17.7182 C   0  0  1  0  0  0  0  0  0  0  0  0
  -30.4964  -21.8633   20.1159 C   0  0  1  0  0  0  0  0  0  0  0  0
  -19.6501  -26.1647   22.3943 C   0  0  2  0  0  0  0  0  0  0  0  0
  -29.5260  -15.0039   21.2853 C   0  0  0  0  0  0  0  0  0  0  0  0
  -22.8425  -31.6517   21.9576 C   0  0  0  0  0  0  0  0  0  0  0  0
  -32.3066  -21.0392   23.2762 C   0  0  0  0  0  0  0  0  0  0  0  0
  -32.4941  -18.5428   23.2484 C   0  0  0  0  0  0  0  0  0  0  0  0
  -30.7684  -19.6464   24.6721 C   0  0  0  0  0  0  0  0  0  0  0  0
  -26.7712  -17.4987   20.4707 C   0  0  0  0  0  0  0  0  0  0  0  0
  -24.0738  -29.9059   23.3437 C   0  0  0  0  0  0  0  0  0  0  0  0
  -30.4668  -19.6110   22.1621 C   0  0  1  0  0  0  0  0  0  0  0  0
  -28.7595  -16.3118   21.4070 C   0  0  2  0  0  0  0  0  0  0  0  0
  -22.7253  -30.5459   23.0021 C   0  0  2  0  0  0  0  0  0  0  0  0
  -31.5029  -19.7242   23.3159 C   0  0  0  0  0  0  0  0  0  0  0  0
  -20.1193  -24.9214   20.3167 N   0  0  0  0  0  0  0  0  0  0  0  0
  -20.0904  -24.9116   21.6603 N   0  0  0  0  0  0  0  0  0  0  0  0
  -29.8387  -21.8941   21.4284 N   0  0  0  0  0  0  0  0  0  0  0  0
  -19.5930  -28.6314   22.3842 N   0  0  0  0  0  0  0  0  0  0  0  0
  -20.5071  -23.5437   23.5486 N   0  0  0  0  0  0  0  0  0  0  0  0
  -21.5007  -20.8442   20.0670 N   0  0  0  0  0  0  0  0  0  0  0  0
  -24.6705  -29.2928   22.1987 N   0  0  0  0  0  0  0  0  0  0  0  0
  -28.8408  -20.8093   18.6998 N   0  0  0  0  0  0  0  0  0  0  0  0
  -29.6723  -18.3877   22.1904 N   0  0  0  0  0  0  0  0  0  0  0  0
  -21.7624  -29.5528   22.5810 N   0  0  0  0  0  0  0  0  0  0  0  0
  -27.6242  -16.2827   20.4420 N   0  3  0  0  0  0  0  0  0  0  0  0
  -21.3868  -20.9677   22.3540 O   0  0  0  0  0  0  0  0  0  0  0  0
  -29.1277  -23.1198   18.6590 O   0  0  0  0  0  0  0  0  0  0  0  0
  -28.4291  -20.6436   22.7933 O   0  0  0  0  0  0  0  0  0  0  0  0
  -30.2827  -17.6393   20.0822 O   0  0  0  0  0  0  0  0  0  0  0  0
  -19.9545  -30.6505   23.4661 O   0  0  0  0  0  0  0  0  0  0  0  0
  -21.1817  -22.1803   14.6681 O   0  0  0  0  0  0  0  0  0  0  0  0
  -30.1066  -28.0223   21.9904 O   0  0  0  0  0  0  0  0  0  1  0  0
  -23.7054  -25.7299   11.2866 F   0  0  0  0  0  0  0  0  0  0  0  0
  -23.5120  -21.4777   13.3571 F   0  0  0  0  0  0  0  0  0  0  0  0
  1  2  1  0  0  0  0
  1  5  2  0  0  0  0
  2  6  2  0  0  0  0
  3  9  2  0  0  0  0
  3 18  1  0  0  0  0
  4 10  1  0  0  0  0
  4 18  2  0  0  0  0
  5 20  1  0  0  0  0
  6 22  1  0  0  0  0
  7 11  2  0  0  0  0
  7 21  1  0  0  0  0
  8 12  2  0  0  0  0
  8 25  1  0  0  0  0
  9 26  1  0  0  0  0
 10 26  2  0  0  0  0
 11 27  1  0  0  0  0
 12 28  1  0  0  0  0
 13 14  2  0  0  0  0
 13 29  1  0  0  0  0
 14 30  1  0  0  0  0
 15 23  1  0  0  0  0
 15 27  2  0  0  0  0
 16 24  1  0  0  0  0
 16 28  2  0  0  0  0
 17 30  2  0  0  0  0
 17 31  1  0  0  0  0
 18 32  1  0  0  0  0
 19 32  1  0  0  0  0
 19 33  2  0  0  0  0
 19 34  1  0  0  0  0
 20 22  2  0  0  0  0
 20 39  1  0  0  0  0
 21 23  2  0  0  0  0
 21 40  1  0  0  0  0
 22 53  1  0  0  0  0
 23 41  1  0  0  0  0
 24 25  2  0  0  0  0
 24 52  1  0  0  0  0
 25 73  1  0  0  0  0
 26 83  1  0  0  0  0
 27 84  1  0  0  0  0
 28 84  1  0  0  0  0
 29 31  2  0  0  0  0
 29 83  1  0  0  0  0
 30 85  1  0  0  0  0
 31 86  1  0  0  0  0
 32 67  2  0  0  0  0
 33 68  1  0  0  0  0
 33 71  1  0  0  0  0
 34 72  1  0  0  0  0
 34 78  2  0  0  0  0
 35 54  1  0  0  0  0
 35 74  1  0  0  0  0
 35 79  2  0  0  0  0
 36 63  1  0  0  0  0
 36 69  1  0  0  0  0
 36 80  2  0  0  0  0
 37 64  1  0  0  0  0
 37 75  1  0  0  0  0
 37 81  2  0  0  0  0
 38 70  1  0  0  0  0
 38 76  1  0  0  0  0
 38 82  2  0  0  0  0
 39 42  1  0  0  0  0
 40 54  1  0  0  0  0
 41 69  1  0  0  0  0
 42 48  1  0  0  0  0
 43 44  1  0  0  0  0
 43 46  1  0  0  0  0
 44 47  1  0  0  0  0
 45 49  1  0  0  0  0
 45 50  1  0  0  0  0
 46 52  1  0  0  0  0
 47 52  1  0  0  0  0
 48 53  1  0  0  0  0
 49 55  1  0  0  0  0
 50 70  1  0  0  0  0
 51 55  1  0  0  0  0
 51 70  1  0  0  0  0
 53 74  1  0  0  0  0
 54 69  1  0  0  0  0
 55 68  1  0  0  0  0
 56 64  1  0  0  0  0
 57 65  1  0  0  0  0
 58 66  1  0  0  0  0
 59 66  1  0  0  0  0
 60 66  1  0  0  0  0
 61 77  1  0  0  0  0
 62 65  1  0  0  0  0
 62 73  1  0  0  0  0
 63 66  1  0  0  0  0
 63 75  1  0  0  0  0
 64 77  1  0  0  0  0
 65 76  1  0  0  0  0
 67 68  1  0  0  0  0
M  CHG  1  77   1
M  ISO  4  28 101  38 100  76 100  84 101
M  END
> <Batch ID>
0130

> <Smiles>
CNC(C)C(=O)NC(C(=O)N1Cc2cc([101O:1][101c:1]3ccc(NCC(C)[100NH:0][100C:0](=O)N4CCCC(n5nc(-c6ccc(Oc7ccc(F)cc7F)cc6)c(C(N)=O)c5N)C4)c(C4CCCC4)c3)ccc2CC1C(=O)NC1CCCc2ccccc21)C(C)(C)C

> <Shape>
0.190

> <Color>
0.068

> <Negative vol penalty>
0.000

$$$$

  -OEChem-04052320473D

 84 92  0     1  0  0  0  0  0999 V2000
  -29.3112  -11.8841   20.2820 C   0  0  0  0  0  0  0  0  0  0  0  0
  -29.2619  -13.0690   19.5547 C   0  0  0  0  0  0  0  0  0  0  0  0
  -26.3281  -25.3229   11.2774 C   0  0  0  0  0  0  0  0  0  0  0  0
  -23.5422  -27.0957   18.8859 C   0  0  0  0  0  0  0  0  0  0  0  0
  -23.8491  -26.5613   21.2220 C   0  0  0  0  0  0  0  0  0  0  0  0
  -28.1397  -11.3410   20.8078 C   0  0  0  0  0  0  0  0  0  0  0  0
  -28.0407  -13.7109   19.3518 C   0  0  0  0  0  0  0  0  0  0  0  0
  -27.0602  -19.7488   19.0550 C   0  0  0  0  0  0  0  0  0  0  0  0
  -22.1596  -27.0061   19.0470 C   0  0  0  0  0  0  0  0  0  0  0  0
  -22.4665  -26.4718   21.3831 C   0  0  0  0  0  0  0  0  0  0  0  0
  -26.9143  -20.6236   17.9793 C   0  0  0  0  0  0  0  0  0  0  0  0
  -19.8608  -28.5923   21.7496 C   0  0  0  0  0  0  0  0  0  0  0  0
  -19.2989  -29.2088   22.8675 C   0  0  0  0  0  0  0  0  0  0  0  0
  -25.8621  -24.0172   11.3833 C   0  0  0  0  0  0  0  0  0  0  0  0
  -27.5020  -25.6909   11.9253 C   0  0  0  0  0  0  0  0  0  0  0  0
  -24.5163  -20.4264   18.1519 C   0  0  0  0  0  0  0  0  0  0  0  0
  -18.4427  -27.0762   23.6132 C   0  0  0  0  0  0  0  0  0  0  0  0
  -24.3870  -26.8732   19.9734 C   0  0  0  0  0  0  0  0  0  0  0  0
  -26.6175  -28.1111   19.9644 C   0  0  0  0  0  0  0  0  0  0  0  0
  -26.9049  -11.9816   20.6194 C   0  0  0  0  0  0  0  0  0  0  0  0
  -25.9335  -19.1968   19.6813 C   0  0  0  0  0  0  0  0  0  0  0  0
  -26.8514  -13.1751   19.8744 C   0  0  0  0  0  0  0  0  0  0  0  0
  -24.6505  -19.5468   19.2370 C   0  0  0  0  0  0  0  0  0  0  0  0
  -21.6217  -26.6943   20.2956 C   0  0  0  0  0  0  0  0  0  0  0  0
  -25.6423  -20.9603   17.5257 C   0  0  0  0  0  0  0  0  0  0  0  0
  -19.7135  -27.2178   21.5633 C   0  0  0  0  0  0  0  0  0  0  0  0
  -18.5899  -28.4507   23.7993 C   0  0  0  0  0  0  0  0  0  0  0  0
  -19.0046  -26.4597   22.4952 C   0  0  0  0  0  0  0  0  0  0  0  0
  -25.8153  -26.9649   19.8074 C   0  0  0  0  0  0  0  0  0  0  0  0
  -26.6009  -23.1246   12.1431 C   0  0  0  0  0  0  0  0  0  0  0  0
  -28.1672  -24.7235   12.6610 C   0  0  0  0  0  0  0  0  0  0  0  0
  -27.8930  -27.6766   19.6983 C   0  0  0  0  0  0  0  0  0  0  0  0
  -26.2432  -29.4489   20.3191 C   0  0  0  0  0  0  0  0  0  0  0  0
  -24.8146  -16.2503   20.0937 C   0  0  0  0  0  0  0  0  0  0  0  0
  -22.6178  -17.7618   21.9407 C   0  0  0  0  0  0  0  0  0  0  0  0
  -20.9443  -20.6425   22.6810 C   0  0  0  0  0  0  0  0  0  0  0  0
  -30.2244  -23.4110   16.4699 C   0  0  0  0  0  0  0  0  0  0  0  0
  -25.6588  -11.3315   21.1666 C   0  0  0  0  0  0  0  0  0  0  0  0
  -26.1073  -18.2755   20.8576 C   0  0  0  0  0  0  0  0  0  0  0  0
  -23.4084  -18.9974   19.8880 C   0  0  0  0  0  0  0  0  0  0  0  0
  -24.4572  -12.2712   21.2255 C   0  0  0  0  0  0  0  0  0  0  0  0
  -30.6480  -23.7558   19.8850 C   0  0  0  0  0  0  0  0  0  0  0  0
  -24.3165  -13.0405   19.9159 C   0  0  0  0  0  0  0  0  0  0  0  0
  -29.5478  -24.7437   20.2836 C   0  0  0  0  0  0  0  0  0  0  0  0
  -30.1465  -22.7454   18.8551 C   0  0  0  0  0  0  0  0  0  0  0  0
  -28.4244  -24.3108   18.0558 C   0  0  0  0  0  0  0  0  0  0  0  0
  -25.5493  -13.9141   19.6540 C   0  0  1  0  0  0  0  0  0  0  0  0
  -24.9014  -17.3707   21.0911 C   0  0  1  0  0  0  0  0  0  0  0  0
  -28.9004  -25.3919   19.0440 C   0  0  1  0  0  0  0  0  0  0  0  0
  -27.1485  -20.6834   11.7778 C   0  0  0  0  0  0  0  0  0  0  0  0
  -19.1828  -21.5585   24.2158 C   0  0  0  0  0  0  0  0  0  0  0  0
  -20.4591  -16.3862   20.2801 C   0  0  0  0  0  0  0  0  0  0  0  0
  -18.8058  -18.0273   21.1974 C   0  0  0  0  0  0  0  0  0  0  0  0
  -19.9944  -16.4645   22.7362 C   0  0  0  0  0  0  0  0  0  0  0  0
  -22.8273  -22.5938   23.8667 C   0  0  0  0  0  0  0  0  0  0  0  0
  -24.6478  -22.1307   14.2482 C   0  0  0  0  0  0  0  0  0  0  0  0
  -24.3468  -21.6370   15.6496 C   0  0  0  0  0  0  0  0  0  1  0  0
  -30.1638  -24.2353   14.1119 C   0  0  0  0  0  0  0  0  0  0  0  0
  -26.1237  -21.6972   12.2803 C   0  0  1  0  0  0  0  0  0  0  0  0
  -21.2656  -18.3875   21.6979 C   0  0  1  0  0  0  0  0  0  0  0  0
  -20.6724  -21.3382   24.0026 C   0  0  2  0  0  0  0  0  0  0  0  0
  -20.1545  -17.3254   21.4642 C   0  0  0  0  0  0  0  0  0  0  0  0
  -26.5220  -25.8836   19.4677 N   0  0  0  0  0  0  0  0  0  0  0  0
  -27.7455  -23.4452   12.7870 N   0  0  0  0  0  0  0  0  0  0  0  0
  -27.7816  -26.3484   19.4090 N   0  0  0  0  0  0  0  0  0  0  0  0
  -23.6306  -18.0957   21.0304 N   0  0  0  0  0  0  0  0  0  0  0  0
  -29.5577  -23.4389   17.7079 N   0  0  0  0  0  0  0  0  0  0  0  0
  -29.0877  -28.3049   19.6858 N   0  0  0  0  0  0  0  0  0  0  0  0
  -24.8897  -29.7227   20.5588 N   0  0  0  0  0  0  0  0  0  0  0  0
  -29.3364  -25.1058   13.3012 N   0  0  0  0  0  0  0  0  0  0  0  0
  -25.5023  -15.1110   20.4661 N   0  0  0  0  0  0  0  0  0  0  0  0
  -21.0166  -19.2736   22.8299 N   0  0  0  0  0  0  0  0  0  0  0  0
  -29.6083  -24.1231   15.4486 N   0  0  0  0  0  0  0  0  0  0  0  0
  -21.3535  -22.6632   24.0402 N   0  3  0  0  0  0  0  0  0  0  0  0
  -25.7707  -21.3419   13.6814 N   0  3  0  0  0  0  0  0  0  0  0  0
  -27.0819  -30.3778   20.4045 O   0  0  0  0  0  0  0  0  0  0  0  0
  -24.1702  -16.4072   19.0633 O   0  0  0  0  0  0  0  0  0  0  0  0
  -22.7718  -17.0103   22.9068 O   0  0  0  0  0  0  0  0  0  0  0  0
  -21.0755  -21.2521   21.6220 O   0  0  0  0  0  0  0  0  0  0  0  0
  -31.2969  -22.8225   16.2992 O   0  0  0  0  0  0  0  0  0  0  0  0
  -20.2726  -26.6071   20.4533 O   0  0  0  0  0  0  0  0  0  0  0  0
  -25.4971  -21.8134   16.4755 O   0  0  0  0  0  0  0  0  0  1  0  0
  -18.0517  -29.0426   24.8737 F   0  0  0  0  0  0  0  0  0  0  0  0
  -18.8608  -25.1386   22.3223 F   0  0  0  0  0  0  0  0  0  0  0  0
  1  2  1  0  0  0  0
  1  6  2  0  0  0  0
  2  7  2  0  0  0  0
  3 14  2  0  0  0  0
  3 15  1  0  0  0  0
  4  9  2  0  0  0  0
  4 18  1  0  0  0  0
  5 10  1  0  0  0  0
  5 18  2  0  0  0  0
  6 20  1  0  0  0  0
  7 22  1  0  0  0  0
  8 11  2  0  0  0  0
  8 21  1  0  0  0  0
  9 24  1  0  0  0  0
 10 24  2  0  0  0  0
 11 25  1  0  0  0  0
 12 13  2  0  0  0  0
 12 26  1  0  0  0  0
 13 27  1  0  0  0  0
 14 30  1  0  0  0  0
 15 31  2  0  0  0  0
 16 23  1  0  0  0  0
 16 25  2  0  0  0  0
 17 27  2  0  0  0  0
 17 28  1  0  0  0  0
 18 29  1  0  0  0  0
 19 29  1  0  0  0  0
 19 32  2  0  0  0  0
 19 33  1  0  0  0  0
 20 22  2  0  0  0  0
 20 38  1  0  0  0  0
 21 23  2  0  0  0  0
 21 39  1  0  0  0  0
 22 47  1  0  0  0  0
 23 40  1  0  0  0  0
 24 81  1  0  0  0  0
 25 82  1  0  0  0  0
 26 28  2  0  0  0  0
 26 81  1  0  0  0  0
 27 83  1  0  0  0  0
 28 84  1  0  0  0  0
 29 63  2  0  0  0  0
 30 59  1  0  0  0  0
 30 64  2  0  0  0  0
 31 64  1  0  0  0  0
 31 70  1  0  0  0  0
 32 65  1  0  0  0  0
 32 68  1  0  0  0  0
 33 69  1  0  0  0  0
 33 76  2  0  0  0  0
 34 48  1  0  0  0  0
 34 71  1  0  0  0  0
 34 77  2  0  0  0  0
 35 60  1  0  0  0  0
 35 66  1  0  0  0  0
 35 78  2  0  0  0  0
 36 61  1  0  0  0  0
 36 72  1  0  0  0  0
 36 79  2  0  0  0  0
 37 67  1  0  0  0  0
 37 73  1  0  0  0  0
 37 80  2  0  0  0  0
 38 41  1  0  0  0  0
 39 48  1  0  0  0  0
 40 66  1  0  0  0  0
 41 43  1  0  0  0  0
 42 44  1  0  0  0  0
 42 45  1  0  0  0  0
 43 47  1  0  0  0  0
 44 49  1  0  0  0  0
 45 67  1  0  0  0  0
 46 49  1  0  0  0  0
 46 67  1  0  0  0  0
 47 71  1  0  0  0  0
 48 66  1  0  0  0  0
 49 65  1  0  0  0  0
 50 59  1  0  0  0  0
 51 61  1  0  0  0  0
 52 62  1  0  0  0  0
 53 62  1  0  0  0  0
 54 62  1  0  0  0  0
 55 74  1  0  0  0  0
 56 57  1  0  0  0  0
 56 75  1  0  0  0  0
 57 82  1  0  0  0  0
 58 70  1  0  0  0  0
 58 73  1  0  0  0  0
 59 75  1  0  0  0  0
 60 62  1  0  0  0  0
 60 72  1  0  0  0  0
 61 74  1  0  0  0  0
 63 65  1  0  0  0  0
M  CHG  2  74   1  75   1
M  ISO  4  37 100  57 101  73 100  82 101
M  END
> <Batch ID>
0130

> <Smiles>
CNC(C)C(=O)NC(C(=O)N1Cc2cc([101O:1][101CH2:1]CNC(C)c3cccc(NC[100NH:0][100C:0](=O)N4CCCC(n5nc(-c6ccc(Oc7ccc(F)cc7F)cc6)c(C(N)=O)c5N)C4)n3)ccc2CC1C(=O)NC1CCCc2ccccc21)C(C)(C)C

> <Shape>
0.194

> <Color>
0.058

> <Negative vol penalty>
0.000

$$$$

  -OEChem-04052320473D

 84 92  0     1  0  0  0  0  0999 V2000
  -28.0201  -20.9107   26.9273 C   0  0  0  0  0  0  0  0  0  0  0  0
  -28.1494  -21.5423   25.6945 C   0  0  0  0  0  0  0  0  0  0  0  0
  -26.5222  -14.9180   21.3819 C   0  0  0  0  0  0  0  0  0  0  0  0
  -26.6919  -14.7740   18.9762 C   0  0  0  0  0  0  0  0  0  0  0  0
  -26.7682  -20.8179   27.5339 C   0  0  0  0  0  0  0  0  0  0  0  0
  -27.0265  -22.0806   25.0670 C   0  0  0  0  0  0  0  0  0  0  0  0
  -27.8835  -26.7011   23.1799 C   0  0  0  0  0  0  0  0  0  0  0  0
  -26.2507  -13.5513   21.4446 C   0  0  0  0  0  0  0  0  0  0  0  0
  -26.4203  -13.4073   19.0389 C   0  0  0  0  0  0  0  0  0  0  0  0
  -28.5836  -26.7777   21.9767 C   0  0  0  0  0  0  0  0  0  0  0  0
  -25.1573  -10.1682   22.2079 C   0  0  0  0  0  0  0  0  0  0  0  0
  -24.1164   -9.7496   23.0367 C   0  0  0  0  0  0  0  0  0  0  0  0
  -26.5041  -27.0838   20.7931 C   0  0  0  0  0  0  0  0  0  0  0  0
  -22.5624  -11.0908   21.7625 C   0  0  0  0  0  0  0  0  0  0  0  0
  -26.7428  -15.5294   20.1477 C   0  0  0  0  0  0  0  0  0  0  0  0
  -28.2859  -17.5607   20.1340 C   0  0  0  0  0  0  0  0  0  0  0  0
  -25.6309  -21.3639   26.9180 C   0  0  0  0  0  0  0  0  0  0  0  0
  -26.4851  -26.8046   23.1976 C   0  0  0  0  0  0  0  0  0  0  0  0
  -25.7579  -21.9939   25.6653 C   0  0  0  0  0  0  0  0  0  0  0  0
  -25.7888  -27.0108   21.9981 C   0  0  0  0  0  0  0  0  0  0  0  0
  -26.1998  -12.7959   20.2731 C   0  0  0  0  0  0  0  0  0  0  0  0
  -27.8937  -26.9662   20.7827 C   0  0  0  0  0  0  0  0  0  0  0  0
  -24.9007  -11.0482   21.1564 C   0  0  0  0  0  0  0  0  0  0  0  0
  -22.8190  -10.2108   22.8140 C   0  0  0  0  0  0  0  0  0  0  0  0
  -23.6033  -11.5094   20.9337 C   0  0  0  0  0  0  0  0  0  0  0  0
  -27.0228  -16.9413   20.0822 C   0  0  0  0  0  0  0  0  0  0  0  0
  -28.0142  -18.9034   20.0336 C   0  0  0  0  0  0  0  0  0  0  0  0
  -29.5883  -16.9749   20.2614 C   0  0  0  0  0  0  0  0  0  0  0  0
  -24.1047  -24.8854   24.0656 C   0  0  0  0  0  0  0  0  0  0  0  0
  -22.2904  -27.5059   23.4627 C   0  0  0  0  0  0  0  0  0  0  0  0
  -21.9467  -30.4754   21.8161 C   0  0  0  0  0  0  0  0  0  0  0  0
  -24.3742  -22.5407   17.3814 C   0  0  0  0  0  0  0  0  0  0  0  0
  -24.2910  -21.1974   27.5901 C   0  0  0  0  0  0  0  0  0  0  0  0
  -25.7468  -26.7467   24.5067 C   0  0  0  0  0  0  0  0  0  0  0  0
  -24.2893  -27.1483   21.9653 C   0  0  0  0  0  0  0  0  0  0  0  0
  -23.2119  -22.1235   27.0349 C   0  0  0  0  0  0  0  0  0  0  0  0
  -24.0305  -21.7211   20.8291 C   0  0  0  0  0  0  0  0  0  0  0  0
  -23.2263  -22.1060   25.5097 C   0  0  0  0  0  0  0  0  0  0  0  0
  -31.5044  -24.6562   16.4031 C   0  0  0  0  0  0  0  0  0  0  0  0
  -24.8845  -20.4626   20.9928 C   0  0  0  0  0  0  0  0  0  0  0  0
  -30.3343  -23.7695   15.9846 C   0  0  0  0  0  0  0  0  0  0  0  0
  -28.8391  -24.9673   17.6294 C   0  0  0  0  0  0  0  0  0  0  0  0
  -23.3192  -21.7487   19.4781 C   0  0  0  0  0  0  0  0  0  0  0  0
  -25.0565  -20.3183   18.4732 C   0  0  0  0  0  0  0  0  0  0  0  0
  -24.5674  -22.6120   24.9648 C   0  0  1  0  0  0  0  0  0  0  0  0
  -24.2821  -26.3501   24.3497 C   0  0  1  0  0  0  0  0  0  0  0  0
  -31.3653  -25.1505   17.8543 C   0  0  2  0  0  0  0  0  0  0  0  0
  -30.0089  -25.8699   18.0650 C   0  0  2  0  0  0  0  0  0  0  0  0
  -25.8376  -20.2724   19.7976 C   0  0  2  0  0  0  0  0  0  0  0  0
  -29.0103  -24.4949   16.1889 C   0  0  2  0  0  0  0  0  0  0  0  0
  -20.3381  -32.3742   21.4935 C   0  0  0  0  0  0  0  0  0  0  0  0
  -33.8622  -25.2507   18.0976 C   0  0  0  0  0  0  0  0  0  0  0  0
  -32.5976  -27.2640   17.2906 C   0  0  0  0  0  0  0  0  0  0  0  0
  -20.5992  -25.7571   21.6211 C   0  0  0  0  0  0  0  0  0  0  0  0
  -19.6462  -27.8476   20.6261 C   0  0  0  0  0  0  0  0  0  0  0  0
  -19.2910  -27.3446   23.0434 C   0  0  0  0  0  0  0  0  0  0  0  0
  -23.8625  -32.4396   22.9254 C   0  0  0  0  0  0  0  0  0  0  0  0
  -29.7967  -26.3094   19.5165 C   0  0  0  0  0  0  0  0  0  1  0  0
  -25.5322  -23.2061   15.2897 C   0  0  0  0  0  0  0  0  0  0  0  0
  -26.5945  -24.2420   15.6069 C   0  0  0  0  0  0  0  0  0  0  0  0
  -21.5824  -28.0601   22.2500 C   0  0  1  0  0  0  0  0  0  0  0  0
  -21.5181  -31.8500   22.2969 C   0  0  2  0  0  0  0  0  0  0  0  0
  -32.5616  -26.0412   18.2019 C   0  0  0  0  0  0  0  0  0  0  0  0
  -20.3078  -27.2479   21.8852 C   0  0  0  0  0  0  0  0  0  0  0  0
  -26.0230  -17.8183   19.9588 N   0  0  0  0  0  0  0  0  0  0  0  0
  -26.6577  -19.0026   19.9322 N   0  0  0  0  0  0  0  0  0  0  0  0
  -23.6119  -27.0786   23.2706 N   0  0  0  0  0  0  0  0  0  0  0  0
  -24.2792  -21.5646   18.3870 N   0  0  0  0  0  0  0  0  0  0  0  0
  -28.8057  -19.9969   20.0233 N   0  0  0  0  0  0  0  0  0  0  0  0
  -29.6874  -15.5799   20.3526 N   0  0  0  0  0  0  0  0  0  0  0  0
  -24.6301  -24.0560   25.0380 N   0  0  0  0  0  0  0  0  0  0  0  0
  -21.3325  -29.4695   22.5319 N   0  0  0  0  0  0  0  0  0  0  0  0
  -25.3135  -22.2917   16.3883 N   0  0  0  0  0  0  0  0  0  0  0  0
  -27.8973  -23.5682   15.8506 N   0  3  0  0  0  0  0  0  0  0  0  0
  -22.6431  -32.8186   22.1660 N   0  3  0  0  0  0  0  0  0  0  0  0
  -30.6320  -17.6690   20.3098 O   0  0  0  0  0  0  0  0  0  0  0  0
  -23.5320  -24.5337   23.0409 O   0  0  0  0  0  0  0  0  0  0  0  0
  -21.6954  -27.4607   24.5423 O   0  0  0  0  0  0  0  0  0  0  0  0
  -22.7436  -30.3104   20.8951 O   0  0  0  0  0  0  0  0  0  0  0  0
  -23.6775  -23.5613   17.3725 O   0  0  0  0  0  0  0  0  0  0  0  0
  -25.9351  -11.4622   20.3339 O   0  0  0  0  0  0  0  0  0  0  0  0
  -28.5746  -27.0406   19.6068 O   0  0  0  0  0  0  0  0  0  1  0  0
  -21.8193   -9.8076   23.6091 F   0  0  0  0  0  0  0  0  0  0  0  0
  -23.3505  -12.3540   19.9244 F   0  0  0  0  0  0  0  0  0  0  0  0
  1  2  1  0  0  0  0
  1  5  2  0  0  0  0
  2  6  2  0  0  0  0
  3  8  2  0  0  0  0
  3 15  1  0  0  0  0
  4  9  1  0  0  0  0
  4 15  2  0  0  0  0
  5 17  1  0  0  0  0
  6 19  1  0  0  0  0
  7 10  2  0  0  0  0
  7 18  1  0  0  0  0
  8 21  1  0  0  0  0
  9 21  2  0  0  0  0
 10 22  1  0  0  0  0
 11 12  2  0  0  0  0
 11 23  1  0  0  0  0
 12 24  1  0  0  0  0
 13 20  1  0  0  0  0
 13 22  2  0  0  0  0
 14 24  2  0  0  0  0
 14 25  1  0  0  0  0
 15 26  1  0  0  0  0
 16 26  1  0  0  0  0
 16 27  2  0  0  0  0
 16 28  1  0  0  0  0
 17 19  2  0  0  0  0
 17 33  1  0  0  0  0
 18 20  2  0  0  0  0
 18 34  1  0  0  0  0
 19 45  1  0  0  0  0
 20 35  1  0  0  0  0
 21 81  1  0  0  0  0
 22 82  1  0  0  0  0
 23 25  2  0  0  0  0
 23 81  1  0  0  0  0
 24 83  1  0  0  0  0
 25 84  1  0  0  0  0
 26 65  2  0  0  0  0
 27 66  1  0  0  0  0
 27 69  1  0  0  0  0
 28 70  1  0  0  0  0
 28 76  2  0  0  0  0
 29 46  1  0  0  0  0
 29 71  1  0  0  0  0
 29 77  2  0  0  0  0
 30 61  1  0  0  0  0
 30 67  1  0  0  0  0
 30 78  2  0  0  0  0
 31 62  1  0  0  0  0
 31 72  1  0  0  0  0
 31 79  2  0  0  0  0
 32 68  1  0  0  0  0
 32 73  1  0  0  0  0
 32 80  2  0  0  0  0
 33 36  1  0  0  0  0
 34 46  1  0  0  0  0
 35 67  1  0  0  0  0
 36 38  1  0  0  0  0
 37 40  1  0  0  0  0
 37 43  1  0  0  0  0
 38 45  1  0  0  0  0
 39 41  1  0  0  0  0
 39 47  1  0  0  0  0
 40 49  1  0  0  0  0
 41 50  1  0  0  0  0
 42 48  1  0  0  0  0
 42 50  1  0  0  0  0
 43 68  1  0  0  0  0
 44 49  1  0  0  0  0
 44 68  1  0  0  0  0
 45 71  1  0  0  0  0
 46 67  1  0  0  0  0
 47 48  1  0  0  0  0
 47 63  1  0  0  0  0
 48 58  1  0  0  0  0
 49 66  1  0  0  0  0
 50 74  1  0  0  0  0
 51 62  1  0  0  0  0
 52 63  1  0  0  0  0
 53 63  1  0  0  0  0
 54 64  1  0  0  0  0
 55 64  1  0  0  0  0
 56 64  1  0  0  0  0
 57 75  1  0  0  0  0
 58 82  1  0  0  0  0
 59 60  1  0  0  0  0
 59 73  1  0  0  0  0
 60 74  1  0  0  0  0
 61 64  1  0  0  0  0
 61 72  1  0  0  0  0
 62 75  1  0  0  0  0
 65 66  1  0  0  0  0
M  CHG  2  74   1  75   1
M  ISO  4  32 100  58 101  73 100  82 101
M  END
> <Batch ID>
0130

> <Smiles>
CNC(C)C(=O)NC(C(=O)N1Cc2cc([101O:1][101CH2:1]C3CC(NCC[100NH:0][100C:0](=O)N4CCCC(n5nc(-c6ccc(Oc7ccc(F)cc7F)cc6)c(C(N)=O)c5N)C4)CCC3C(C)C)ccc2CC1C(=O)NC1CCCc2ccccc21)C(C)(C)C

> <Shape>
0.194

> <Color>
0.077

> <Negative vol penalty>
0.000

$$$$

  -OEChem-04052320473D

 84 92  0     1  0  0  0  0  0999 V2000
  -27.6919  -33.6485   25.8907 C   0  0  0  0  0  0  0  0  0  0  0  0
  -27.8973  -32.4216   25.2678 C   0  0  0  0  0  0  0  0  0  0  0  0
  -25.2744  -14.4909   19.1566 C   0  0  0  0  0  0  0  0  0  0  0  0
  -26.0322  -13.7214   21.3178 C   0  0  0  0  0  0  0  0  0  0  0  0
  -26.4006  -34.0476   26.2332 C   0  0  0  0  0  0  0  0  0  0  0  0
  -26.8116  -31.5925   24.9881 C   0  0  0  0  0  0  0  0  0  0  0  0
  -27.0173  -29.6293   20.3246 C   0  0  0  0  0  0  0  0  0  0  0  0
  -24.8659  -13.1957   18.8387 C   0  0  0  0  0  0  0  0  0  0  0  0
  -25.6237  -12.4262   20.9999 C   0  0  0  0  0  0  0  0  0  0  0  0
  -27.8811  -28.5535   20.1241 C   0  0  0  0  0  0  0  0  0  0  0  0
  -22.7300  -10.6837   20.8959 C   0  0  0  0  0  0  0  0  0  0  0  0
  -22.0246   -9.9718   21.8660 C   0  0  0  0  0  0  0  0  0  0  0  0
  -26.8286  -22.9233   23.1350 C   0  0  0  0  0  0  0  0  0  0  0  0
  -26.7031  -23.0207   24.5428 C   0  0  0  0  0  0  0  0  0  0  0  0
  -26.0148  -27.0332   20.2817 C   0  0  0  0  0  0  0  0  0  0  0  0
  -23.7439   -8.2744   21.8706 C   0  0  0  0  0  0  0  0  0  0  0  0
  -25.8576  -14.7538   20.3962 C   0  0  0  0  0  0  0  0  0  0  0  0
  -25.5162  -17.0949   21.3504 C   0  0  0  0  0  0  0  0  0  0  0  0
  -25.2975  -33.2272   25.9487 C   0  0  0  0  0  0  0  0  0  0  0  0
  -25.6449  -29.4140   20.5163 C   0  0  0  0  0  0  0  0  0  0  0  0
  -25.5045  -31.9804   25.3283 C   0  0  0  0  0  0  0  0  0  0  0  0
  -25.1353  -28.1082   20.4818 C   0  0  0  0  0  0  0  0  0  0  0  0
  -25.0406  -12.1633   19.7603 C   0  0  0  0  0  0  0  0  0  0  0  0
  -27.3804  -27.2550   20.1056 C   0  0  0  0  0  0  0  0  0  0  0  0
  -23.9423  -10.1910   20.4130 C   0  0  0  0  0  0  0  0  0  0  0  0
  -22.5316   -8.7672   22.3534 C   0  0  0  0  0  0  0  0  0  0  0  0
  -24.4493   -8.9863   20.9004 C   0  0  0  0  0  0  0  0  0  0  0  0
  -26.2803  -16.0915   20.7250 C   0  0  0  0  0  0  0  0  0  0  0  0
  -28.1743  -22.9218   22.8411 C   0  0  0  0  0  0  0  0  0  0  0  0
  -27.9760  -23.0759   25.0663 C   0  0  0  0  0  0  0  0  0  0  0  0
  -26.3661  -18.1703   21.4362 C   0  0  0  0  0  0  0  0  0  0  0  0
  -24.1594  -17.0580   21.8125 C   0  0  0  0  0  0  0  0  0  0  0  0
  -23.5932  -29.9834   22.8763 C   0  0  0  0  0  0  0  0  0  0  0  0
  -21.4126  -28.9567   20.7054 C   0  0  0  0  0  0  0  0  0  0  0  0
  -20.7560  -27.1222   17.9035 C   0  0  0  0  0  0  0  0  0  0  0  0
  -31.3851  -20.3281   22.5758 C   0  0  0  0  0  0  0  0  0  0  0  0
  -23.9254  -33.6804   26.3805 C   0  0  0  0  0  0  0  0  0  0  0  0
  -24.7224  -30.5870   20.7046 C   0  0  0  0  0  0  0  0  0  0  0  0
  -23.6670  -27.8249   20.6623 C   0  0  0  0  0  0  0  0  0  0  0  0
  -22.7906  -32.9094   25.7112 C   0  0  0  0  0  0  0  0  0  0  0  0
  -30.8925  -18.9662   19.3232 C   0  0  0  0  0  0  0  0  0  0  0  0
  -23.0672  -31.4098   25.7522 C   0  0  0  0  0  0  0  0  0  0  0  0
  -29.5896  -18.1750   19.4514 C   0  0  0  0  0  0  0  0  0  0  0  0
  -31.7323  -18.8806   20.5957 C   0  0  0  0  0  0  0  0  0  0  0  0
  -29.7213  -18.4709   21.9602 C   0  0  0  0  0  0  0  0  0  0  0  0
  -24.3497  -31.0642   24.9859 C   0  0  1  0  0  0  0  0  0  0  0  0
  -23.4177  -30.2151   21.4021 C   0  0  1  0  0  0  0  0  0  0  0  0
  -28.8145  -18.5732   20.7218 C   0  0  2  0  0  0  0  0  0  0  0  0
  -27.9842  -21.9718   27.3323 C   0  0  0  0  0  0  0  0  0  0  0  0
  -27.9482  -24.4863   27.1554 C   0  0  0  0  0  0  0  0  0  0  0  0
  -18.8730  -26.4430   16.3901 C   0  0  0  0  0  0  0  0  0  0  0  0
  -20.4510  -26.9594   22.8021 C   0  0  0  0  0  0  0  0  0  0  0  0
  -19.2754  -25.7141   20.9758 C   0  0  0  0  0  0  0  0  0  0  0  0
  -18.6247  -28.0647   21.4994 C   0  0  0  0  0  0  0  0  0  0  0  0
  -22.0145  -28.4231   15.5620 C   0  0  0  0  0  0  0  0  0  0  0  0
  -28.8716  -22.8374   21.5069 C   0  0  0  0  0  0  0  0  0  0  0  0
  -29.1365  -24.2000   20.8630 C   0  0  0  0  0  0  0  0  0  0  0  0
  -30.3041  -23.0452   24.1492 C   0  0  0  0  0  0  0  0  0  0  0  0
  -30.8930  -21.7048   24.5812 C   0  0  0  0  0  0  0  0  0  0  0  0
  -27.8626  -24.9633   20.5193 C   0  0  0  0  0  0  0  0  0  1  0  0
  -28.4173  -23.1812   26.4724 C   0  0  0  0  0  0  0  0  0  0  0  0
  -20.8230  -27.6176   20.3334 C   0  0  1  0  0  0  0  0  0  0  0  0
  -19.9810  -27.4539   16.6410 C   0  0  2  0  0  0  0  0  0  0  0  0
  -19.8215  -27.0938   21.4012 C   0  0  0  0  0  0  0  0  0  0  0  0
  -27.5202  -16.4937   20.4339 N   0  0  0  0  0  0  0  0  0  0  0  0
  -28.8622  -23.0153   24.0227 N   0  0  0  0  0  0  0  0  0  0  0  0
  -27.5417  -17.7618   20.8784 N   0  0  0  0  0  0  0  0  0  0  0  0
  -22.8064  -29.0046   20.8495 N   0  0  0  0  0  0  0  0  0  0  0  0
  -30.9392  -19.2726   21.7633 N   0  0  0  0  0  0  0  0  0  0  0  0
  -26.2150  -19.4162   21.9335 N   0  0  0  0  0  0  0  0  0  0  0  0
  -23.4288  -15.8735   21.6461 N   0  0  0  0  0  0  0  0  0  0  0  0
  -24.1036  -31.0706   23.5598 N   0  0  0  0  0  0  0  0  0  0  0  0
  -20.2470  -27.7805   19.0030 N   0  0  0  0  0  0  0  0  0  0  0  0
  -30.5711  -20.6395   23.6580 N   0  0  0  0  0  0  0  0  0  0  0  0
  -20.8907  -27.4569   15.4606 N   0  3  0  0  0  0  0  0  0  0  0  0
  -23.6060  -18.0514   22.3420 O   0  0  0  0  0  0  0  0  0  0  0  0
  -23.2868  -28.8992   23.3582 O   0  0  0  0  0  0  0  0  0  0  0  0
  -20.6646  -29.9261   20.8553 O   0  0  0  0  0  0  0  0  0  0  0  0
  -21.7144  -26.3529   17.9140 O   0  0  0  0  0  0  0  0  0  0  0  0
  -32.4285  -20.9506   22.3502 O   0  0  0  0  0  0  0  0  0  0  0  0
  -24.6419  -10.8993   19.4505 O   0  0  0  0  0  0  0  0  0  0  0  0
  -28.2215  -26.2031   19.9108 O   0  0  0  0  0  0  0  0  0  1  0  0
  -21.8548   -8.0844   23.2861 F   0  0  0  0  0  0  0  0  0  0  0  0
  -25.6140   -8.5085   20.4412 F   0  0  0  0  0  0  0  0  0  0  0  0
  1  2  1  0  0  0  0
  1  5  2  0  0  0  0
  2  6  2  0  0  0  0
  3  8  2  0  0  0  0
  3 17  1  0  0  0  0
  4  9  1  0  0  0  0
  4 17  2  0  0  0  0
  5 19  1  0  0  0  0
  6 21  1  0  0  0  0
  7 10  2  0  0  0  0
  7 20  1  0  0  0  0
  8 23  1  0  0  0  0
  9 23  2  0  0  0  0
 10 24  1  0  0  0  0
 11 12  2  0  0  0  0
 11 25  1  0  0  0  0
 12 26  1  0  0  0  0
 13 14  1  0  0  0  0
 13 29  2  0  0  0  0
 14 30  2  0  0  0  0
 15 22  1  0  0  0  0
 15 24  2  0  0  0  0
 16 26  2  0  0  0  0
 16 27  1  0  0  0  0
 17 28  1  0  0  0  0
 18 28  1  0  0  0  0
 18 31  2  0  0  0  0
 18 32  1  0  0  0  0
 19 21  2  0  0  0  0
 19 37  1  0  0  0  0
 20 22  2  0  0  0  0
 20 38  1  0  0  0  0
 21 46  1  0  0  0  0
 22 39  1  0  0  0  0
 23 81  1  0  0  0  0
 24 82  1  0  0  0  0
 25 27  2  0  0  0  0
 25 81  1  0  0  0  0
 26 83  1  0  0  0  0
 27 84  1  0  0  0  0
 28 65  2  0  0  0  0
 29 56  1  0  0  0  0
 29 66  1  0  0  0  0
 30 61  1  0  0  0  0
 30 66  1  0  0  0  0
 31 67  1  0  0  0  0
 31 70  1  0  0  0  0
 32 71  1  0  0  0  0
 32 76  2  0  0  0  0
 33 47  1  0  0  0  0
 33 72  1  0  0  0  0
 33 77  2  0  0  0  0
 34 62  1  0  0  0  0
 34 68  1  0  0  0  0
 34 78  2  0  0  0  0
 35 63  1  0  0  0  0
 35 73  1  0  0  0  0
 35 79  2  0  0  0  0
 36 69  1  0  0  0  0
 36 74  1  0  0  0  0
 36 80  2  0  0  0  0
 37 40  1  0  0  0  0
 38 47  1  0  0  0  0
 39 68  1  0  0  0  0
 40 42  1  0  0  0  0
 41 43  1  0  0  0  0
 41 44  1  0  0  0  0
 42 46  1  0  0  0  0
 43 48  1  0  0  0  0
 44 69  1  0  0  0  0
 45 48  1  0  0  0  0
 45 69  1  0  0  0  0
 46 72  1  0  0  0  0
 47 68  1  0  0  0  0
 48 67  1  0  0  0  0
 49 61  1  0  0  0  0
 50 61  1  0  0  0  0
 51 63  1  0  0  0  0
 52 64  1  0  0  0  0
 53 64  1  0  0  0  0
 54 64  1  0  0  0  0
 55 75  1  0  0  0  0
 56 57  1  0  0  0  0
 57 60  1  0  0  0  0
 58 59  1  0  0  0  0
 58 66  1  0  0  0  0
 59 74  1  0  0  0  0
 60 82  1  0  0  0  0
 62 64  1  0  0  0  0
 62 73  1  0  0  0  0
 63 75  1  0  0  0  0
 65 67  1  0  0  0  0
M  CHG  1  75   1
M  ISO  4  36 100  60 101  74 100  82 101
M  END
> <Batch ID>
0130

> <Smiles>
CNC(C)C(=O)NC(C(=O)N1Cc2cc([101O:1][101CH2:1]CCc3ccc(C(C)C)n3CC[100NH:0][100C:0](=O)N3CCCC(n4nc(-c5ccc(Oc6ccc(F)cc6F)cc5)c(C(N)=O)c4N)C3)ccc2CC1C(=O)NC1CCCc2ccccc21)C(C)(C)C

> <Shape>
0.253

> <Color>
0.080

> <Negative vol penalty>
0.000

$$$$

  -OEChem-04052320473D

 87 95  0     1  0  0  0  0  0999 V2000
  -18.2654  -32.5643   24.6625 C   0  0  0  0  0  0  0  0  0  0  0  0
  -19.6300  -32.2978   24.6152 C   0  0  0  0  0  0  0  0  0  0  0  0
  -24.1634  -13.9231   19.9636 C   0  0  0  0  0  0  0  0  0  0  0  0
  -26.3905  -14.0224   20.8947 C   0  0  0  0  0  0  0  0  0  0  0  0
  -17.3518  -31.5907   24.2608 C   0  0  0  0  0  0  0  0  0  0  0  0
  -20.0818  -31.0571   24.1671 C   0  0  0  0  0  0  0  0  0  0  0  0
  -23.9720  -31.4524   20.9493 C   0  0  0  0  0  0  0  0  0  0  0  0
  -24.2244  -12.5296   19.9660 C   0  0  0  0  0  0  0  0  0  0  0  0
  -26.4516  -12.6288   20.8971 C   0  0  0  0  0  0  0  0  0  0  0  0
  -25.2289  -31.7040   21.4977 C   0  0  0  0  0  0  0  0  0  0  0  0
  -23.8832  -10.0252   22.2120 C   0  0  0  0  0  0  0  0  0  0  0  0
  -22.7710   -9.3284   22.6844 C   0  0  0  0  0  0  0  0  0  0  0  0
  -25.7789  -29.3640   21.2953 C   0  0  0  0  0  0  0  0  0  0  0  0
  -22.5398   -8.2426   20.5385 C   0  0  0  0  0  0  0  0  0  0  0  0
  -31.0568  -26.6692   17.3177 C   0  0  0  0  0  0  0  0  0  0  0  0
  -25.2464  -14.6695   20.4279 C   0  0  0  0  0  0  0  0  0  0  0  0
  -24.7151  -16.9416   21.4589 C   0  0  0  0  0  0  0  0  0  0  0  0
  -17.7930  -30.3408   23.7984 C   0  0  0  0  0  0  0  0  0  0  0  0
  -23.6045  -30.1507   20.5792 C   0  0  0  0  0  0  0  0  0  0  0  0
  -19.1732  -30.0653   23.7601 C   0  0  0  0  0  0  0  0  0  0  0  0
  -24.5177  -29.0990   20.7400 C   0  0  0  0  0  0  0  0  0  0  0  0
  -25.3685  -11.8825   20.4328 C   0  0  0  0  0  0  0  0  0  0  0  0
  -26.1315  -30.6592   21.6734 C   0  0  0  0  0  0  0  0  0  0  0  0
  -24.3236   -9.8307   20.9028 C   0  0  0  0  0  0  0  0  0  0  0  0
  -22.0993   -8.4371   21.8477 C   0  0  0  0  0  0  0  0  0  0  0  0
  -23.6520   -8.9394   20.0661 C   0  0  0  0  0  0  0  0  0  0  0  0
  -25.1842  -16.1090   20.4252 C   0  0  0  0  0  0  0  0  0  0  0  0
  -30.4863  -26.4177   19.4315 C   0  0  0  0  0  0  0  0  0  0  0  0
  -30.9976  -27.6719   19.1943 C   0  0  0  0  0  0  0  0  0  0  0  0
  -24.8644  -18.2157   20.9681 C   0  0  0  0  0  0  0  0  0  0  0  0
  -24.1914  -16.5944   22.7476 C   0  0  0  0  0  0  0  0  0  0  0  0
  -21.3404  -28.1144   21.4908 C   0  0  0  0  0  0  0  0  0  0  0  0
  -22.4941  -26.3380   19.0340 C   0  0  0  0  0  0  0  0  0  0  0  0
  -25.1086  -25.6045   16.9667 C   0  0  0  0  0  0  0  0  0  0  0  0
  -27.8906  -22.0216   18.4572 C   0  0  0  0  0  0  0  0  0  0  0  0
  -16.7661  -29.3032   23.4195 C   0  0  0  0  0  0  0  0  0  0  0  0
  -22.2548  -29.9004   19.9643 C   0  0  0  0  0  0  0  0  0  0  0  0
  -24.1794  -27.6868   20.3401 C   0  0  0  0  0  0  0  0  0  0  0  0
  -17.3401  -28.1478   22.6036 C   0  0  0  0  0  0  0  0  0  0  0  0
  -25.9620  -19.8425   16.3055 C   0  0  0  0  0  0  0  0  0  0  0  0
  -18.6341  -27.6411   23.2326 C   0  0  0  0  0  0  0  0  0  0  0  0
  -25.5481  -18.7398   17.2816 C   0  0  0  0  0  0  0  0  0  0  0  0
  -27.3783  -20.3321   16.5928 C   0  0  0  0  0  0  0  0  0  0  0  0
  -27.1832  -19.7017   18.9672 C   0  0  0  0  0  0  0  0  0  0  0  0
  -19.7031  -28.7402   23.2567 C   0  0  1  0  0  0  0  0  0  0  0  0
  -21.7962  -28.4517   20.0993 C   0  0  1  0  0  0  0  0  0  0  0  0
  -25.7522  -19.1799   18.7434 C   0  0  2  0  0  0  0  0  0  0  0  0
  -28.7308  -26.4867   21.2390 C   0  0  0  0  0  0  0  0  0  0  0  0
  -31.0471  -25.6411   21.7631 C   0  0  0  0  0  0  0  0  0  0  0  0
  -25.7636  -24.0802   15.0840 C   0  0  0  0  0  0  0  0  0  0  0  0
  -22.8069  -24.0349   21.0108 C   0  0  0  0  0  0  0  0  0  0  0  0
  -24.3053  -22.9068   19.3523 C   0  0  0  0  0  0  0  0  0  0  0  0
  -21.9254  -23.3710   18.7665 C   0  0  0  0  0  0  0  0  0  0  0  0
  -25.5779  -27.8801   15.1336 C   0  0  0  0  0  0  0  0  0  0  0  0
  -30.1042  -24.4390   17.9280 C   0  0  0  0  0  0  0  0  0  0  0  0
  -28.5894  -24.3080   17.7931 C   0  0  0  0  0  0  0  0  0  0  0  0
  -31.7126  -29.9911   19.7737 C   0  0  0  0  0  0  0  0  0  0  0  0
  -31.3696  -31.0034   20.8502 C   0  0  0  0  0  0  0  0  0  0  0  0
  -29.4397  -32.0895   22.0056 C   0  0  0  0  0  0  0  0  0  0  0  0
  -27.9274  -32.1892   21.9730 C   0  0  0  0  0  0  0  0  0  1  0  0
  -29.9748  -25.7754   20.6562 C   0  0  0  0  0  0  0  0  0  0  0  0
  -23.5690  -25.2883   18.8861 C   0  0  1  0  0  0  0  0  0  0  0  0
  -25.1846  -25.4352   15.4601 C   0  0  2  0  0  0  0  0  0  0  0  0
  -23.1576  -23.9264   19.5134 C   0  0  0  0  0  0  0  0  0  0  0  0
  -31.3505  -27.8222   17.8766 N   0  0  0  0  0  0  0  0  0  0  0  0
  -25.6002  -16.7963   19.3581 N   0  0  0  0  0  0  0  0  0  0  0  0
  -30.5302  -25.7872   18.2200 N   0  0  0  0  0  0  0  0  0  0  0  0
  -25.3929  -18.0743   19.7187 N   0  0  0  0  0  0  0  0  0  0  0  0
  -22.8451  -27.4918   19.7491 N   0  0  0  0  0  0  0  0  0  0  0  0
  -27.5005  -20.7535   17.9955 N   0  0  0  0  0  0  0  0  0  0  0  0
  -24.5938  -19.4319   21.4876 N   0  0  0  0  0  0  0  0  0  0  0  0
  -24.1073  -15.2382   23.0914 N   0  0  0  0  0  0  0  0  0  0  0  0
  -31.1511  -28.6659   20.1186 N   0  0  0  0  0  0  0  0  0  0  0  0
  -20.2965  -28.8970   21.9460 N   0  0  0  0  0  0  0  0  0  0  0  0
  -23.8805  -25.2208   17.4625 N   0  0  0  0  0  0  0  0  0  0  0  0
  -28.1803  -22.9585   17.4728 N   0  0  0  0  0  0  0  0  0  0  0  0
  -26.0441  -26.4958   14.8623 N   0  3  0  0  0  0  0  0  0  0  0  0
  -29.8928  -31.1622   20.9383 N   0  3  0  0  0  0  0  0  0  0  0  0
  -23.7940  -17.4603   23.5636 O   0  0  0  0  0  0  0  0  0  0  0  0
  -21.8939  -27.2101   22.1053 O   0  0  0  0  0  0  0  0  0  0  0  0
  -21.3862  -26.1446   18.5273 O   0  0  0  0  0  0  0  0  0  0  0  0
  -26.0462  -26.0308   17.6373 O   0  0  0  0  0  0  0  0  0  0  0  0
  -27.9697  -22.3002   19.6585 O   0  0  0  0  0  0  0  0  0  0  0  0
  -25.4284  -10.5227   20.4355 O   0  0  0  0  0  0  0  0  0  0  0  0
  -27.3587  -30.9019   22.2091 O   0  0  0  0  0  0  0  0  0  1  0  0
  -21.0323   -7.7668   22.3020 F   0  0  0  0  0  0  0  0  0  0  0  0
  -24.0711   -8.7476   18.8078 F   0  0  0  0  0  0  0  0  0  0  0  0
  1  2  1  0  0  0  0
  1  5  2  0  0  0  0
  2  6  2  0  0  0  0
  3  8  2  0  0  0  0
  3 16  1  0  0  0  0
  4  9  1  0  0  0  0
  4 16  2  0  0  0  0
  5 18  1  0  0  0  0
  6 20  1  0  0  0  0
  7 10  2  0  0  0  0
  7 19  1  0  0  0  0
  8 22  1  0  0  0  0
  9 22  2  0  0  0  0
 10 23  1  0  0  0  0
 11 12  2  0  0  0  0
 11 24  1  0  0  0  0
 12 25  1  0  0  0  0
 13 21  1  0  0  0  0
 13 23  2  0  0  0  0
 14 25  2  0  0  0  0
 14 26  1  0  0  0  0
 15 65  2  0  0  0  0
 15 67  1  0  0  0  0
 16 27  1  0  0  0  0
 17 27  1  0  0  0  0
 17 30  2  0  0  0  0
 17 31  1  0  0  0  0
 18 20  2  0  0  0  0
 18 36  1  0  0  0  0
 19 21  2  0  0  0  0
 19 37  1  0  0  0  0
 20 45  1  0  0  0  0
 21 38  1  0  0  0  0
 22 84  1  0  0  0  0
 23 85  1  0  0  0  0
 24 26  2  0  0  0  0
 24 84  1  0  0  0  0
 25 86  1  0  0  0  0
 26 87  1  0  0  0  0
 27 66  2  0  0  0  0
 28 29  2  0  0  0  0
 28 61  1  0  0  0  0
 28 67  1  0  0  0  0
 29 65  1  0  0  0  0
 29 73  1  0  0  0  0
 30 68  1  0  0  0  0
 30 71  1  0  0  0  0
 31 72  1  0  0  0  0
 31 79  2  0  0  0  0
 32 46  1  0  0  0  0
 32 74  1  0  0  0  0
 32 80  2  0  0  0  0
 33 62  1  0  0  0  0
 33 69  1  0  0  0  0
 33 81  2  0  0  0  0
 34 63  1  0  0  0  0
 34 75  1  0  0  0  0
 34 82  2  0  0  0  0
 35 70  1  0  0  0  0
 35 76  1  0  0  0  0
 35 83  2  0  0  0  0
 36 39  1  0  0  0  0
 37 46  1  0  0  0  0
 38 69  1  0  0  0  0
 39 41  1  0  0  0  0
 40 42  1  0  0  0  0
 40 43  1  0  0  0  0
 41 45  1  0  0  0  0
 42 47  1  0  0  0  0
 43 70  1  0  0  0  0
 44 47  1  0  0  0  0
 44 70  1  0  0  0  0
 45 74  1  0  0  0  0
 46 69  1  0  0  0  0
 47 68  1  0  0  0  0
 48 61  1  0  0  0  0
 49 61  1  0  0  0  0
 50 63  1  0  0  0  0
 51 64  1  0  0  0  0
 52 64  1  0  0  0  0
 53 64  1  0  0  0  0
 54 77  1  0  0  0  0
 55 56  1  0  0  0  0
 55 67  1  0  0  0  0
 56 76  1  0  0  0  0
 57 58  1  0  0  0  0
 57 73  1  0  0  0  0
 58 78  1  0  0  0  0
 59 60  1  0  0  0  0
 59 78  1  0  0  0  0
 60 85  1  0  0  0  0
 62 64  1  0  0  0  0
 62 75  1  0  0  0  0
 63 77  1  0  0  0  0
 66 68  1  0  0  0  0
M  CHG  2  77   1  78   1
M  ISO  4  35 100  60 101  76 100  85 101
M  END
> <Batch ID>
0130

> <Smiles>
CNC(C)C(=O)NC(C(=O)N1Cc2cc([101O:1][101CH2:1]CNCCNc3ncn(CC[100NH:0][100C:0](=O)N4CCCC(n5nc(-c6ccc(Oc7ccc(F)cc7F)cc6)c(C(N)=O)c5N)C4)c3C(C)C)ccc2CC1C(=O)NC1CCCc2ccccc21)C(C)(C)C

> <Shape>
0.249

> <Color>
0.068

> <Negative vol penalty>
0.000

$$$$

  -OEChem-04052320473D

 89 98  0     1  0  0  0  0  0999 V2000
  -36.3188  -29.0699   12.9046 C   0  0  0  0  0  0  0  0  0  0  0  0
  -35.6537  -27.8814   12.6207 C   0  0  0  0  0  0  0  0  0  0  0  0
  -23.2946   -9.7968   19.9071 C   0  0  0  0  0  0  0  0  0  0  0  0
  -23.7426   -9.9329   22.2773 C   0  0  0  0  0  0  0  0  0  0  0  0
  -37.4379  -29.0597   13.7362 C   0  0  0  0  0  0  0  0  0  0  0  0
  -36.1080  -26.6818   13.1674 C   0  0  0  0  0  0  0  0  0  0  0  0
  -31.8325  -22.6512   17.3346 C   0  0  0  0  0  0  0  0  0  0  0  0
  -29.7148  -16.0137   23.5541 C   0  0  0  0  0  0  0  0  0  0  0  0
  -22.5748   -8.6195   20.1106 C   0  0  0  0  0  0  0  0  0  0  0  0
  -23.0227   -8.7556   22.4809 C   0  0  0  0  0  0  0  0  0  0  0  0
  -31.0083  -21.7209   17.9680 C   0  0  0  0  0  0  0  0  0  0  0  0
  -29.5197  -17.2022   22.8506 C   0  0  0  0  0  0  0  0  0  0  0  0
  -19.7808   -7.8253   22.6927 C   0  0  0  0  0  0  0  0  0  0  0  0
  -18.8776   -7.7952   23.7553 C   0  0  0  0  0  0  0  0  0  0  0  0
  -32.8952  -20.2390   18.2704 C   0  0  0  0  0  0  0  0  0  0  0  0
  -31.9043  -17.5906   22.8452 C   0  0  0  0  0  0  0  0  0  0  0  0
  -20.0931   -5.9520   24.7362 C   0  0  0  0  0  0  0  0  0  0  0  0
  -23.8785  -10.4535   20.9904 C   0  0  0  0  0  0  0  0  0  0  0  0
  -24.1236  -12.9855   20.7996 C   0  0  0  0  0  0  0  0  0  0  0  0
  -37.9004  -27.8607   14.3011 C   0  0  0  0  0  0  0  0  0  0  0  0
  -33.1959  -22.3854   17.1803 C   0  0  0  0  0  0  0  0  0  0  0  0
  -37.2351  -26.6553   14.0062 C   0  0  0  0  0  0  0  0  0  0  0  0
  -33.7282  -21.1726   17.6479 C   0  0  0  0  0  0  0  0  0  0  0  0
  -31.0047  -15.6137   23.9033 C   0  0  0  0  0  0  0  0  0  0  0  0
  -32.0994  -16.4021   23.5488 C   0  0  0  0  0  0  0  0  0  0  0  0
  -22.4388   -8.0989   21.3975 C   0  0  0  0  0  0  0  0  0  0  0  0
  -31.5383  -20.5176   18.4345 C   0  0  0  0  0  0  0  0  0  0  0  0
  -30.6144  -17.9906   22.4961 C   0  0  0  0  0  0  0  0  0  0  0  0
  -20.8400   -6.9187   22.6518 C   0  0  0  0  0  0  0  0  0  0  0  0
  -19.0338   -6.8586   24.7770 C   0  0  0  0  0  0  0  0  0  0  0  0
  -20.9962   -5.9820   23.6736 C   0  0  0  0  0  0  0  0  0  0  0  0
  -24.6227  -11.6693   20.7806 C   0  0  0  0  0  0  0  0  0  0  0  0
  -25.2208  -13.7725   20.5479 C   0  0  0  0  0  0  0  0  0  0  0  0
  -22.7877  -13.4548   21.0247 C   0  0  0  0  0  0  0  0  0  0  0  0
  -36.5240  -23.5788   15.9250 C   0  0  0  0  0  0  0  0  0  0  0  0
  -37.0287  -22.2070   18.6220 C   0  0  0  0  0  0  0  0  0  0  0  0
  -37.1001  -20.9910   21.8085 C   0  0  0  0  0  0  0  0  0  0  0  0
  -31.0958  -12.9606   21.3700 C   0  0  0  0  0  0  0  0  0  0  0  0
  -39.1424  -27.8927   15.1560 C   0  0  0  0  0  0  0  0  0  0  0  0
  -34.1094  -23.3317   16.4496 C   0  0  0  0  0  0  0  0  0  0  0  0
  -35.1939  -20.9143   17.4291 C   0  0  0  0  0  0  0  0  0  0  0  0
  -39.3362  -26.6329   15.9961 C   0  0  0  0  0  0  0  0  0  0  0  0
  -36.7351  -16.2505   21.9912 C   0  0  0  0  0  0  0  0  0  0  0  0
  -35.7069  -16.2091   20.8593 C   0  0  0  0  0  0  0  0  0  0  0  0
  -29.4453  -13.6998   18.3031 C   0  0  0  0  0  0  0  0  0  0  0  0
  -39.1147  -25.3855   15.1466 C   0  0  0  0  0  0  0  0  0  0  0  0
  -35.9515  -16.0432   23.2837 C   0  0  0  0  0  0  0  0  0  0  0  0
  -34.3569  -15.9604   21.5240 C   0  0  0  0  0  0  0  0  0  0  0  0
  -27.9772  -13.3820   18.5920 C   0  0  0  0  0  0  0  0  0  0  0  0
  -30.3836  -12.7236   19.0093 C   0  0  0  0  0  0  0  0  0  0  0  0
  -28.6980  -12.2794   20.7515 C   0  0  0  0  0  0  0  0  0  0  0  0
  -37.6827  -25.3373   14.6001 C   0  0  1  0  0  0  0  0  0  0  0  0
  -35.5337  -23.3661   17.0320 C   0  0  1  0  0  0  0  0  0  0  0  0
  -34.5381  -16.5017   22.9385 C   0  0  0  0  0  0  0  0  0  0  0  0
  -27.7149  -13.2709   20.1060 C   0  0  2  0  0  0  0  0  0  0  0  0
  -38.6827  -20.4885   23.6900 C   0  0  0  0  0  0  0  0  0  0  0  0
  -37.9804  -19.7107   17.1500 C   0  0  0  0  0  0  0  0  0  0  0  0
  -38.7570  -18.7971   19.3478 C   0  0  0  0  0  0  0  0  0  0  0  0
  -39.7578  -20.8977   18.4486 C   0  0  0  0  0  0  0  0  0  0  0  0
  -35.7378  -22.8965   23.6174 C   0  0  0  0  0  0  0  0  0  0  0  0
  -31.1886  -14.3373   24.6565 C   0  0  0  0  0  0  0  0  0  0  0  0
  -31.6545  -13.1703   23.7790 C   0  0  0  0  0  0  0  0  0  0  0  0
  -29.6116  -20.1352   19.7758 C   0  0  0  0  0  0  0  0  0  1  0  0
  -29.2977  -19.2115   20.9368 C   0  0  0  0  0  0  0  0  0  0  0  0
  -33.4893  -15.9946   23.9127 C   0  0  1  0  0  0  0  0  0  0  0  0
  -37.3944  -20.9358   19.3458 C   0  0  1  0  0  0  0  0  0  0  0  0
  -37.7499  -21.5198   23.0744 C   0  0  2  0  0  0  0  0  0  0  0  0
  -38.4453  -20.0931   18.5694 C   0  0  0  0  0  0  0  0  0  0  0  0
  -25.9348  -11.6189   20.5360 N   0  0  0  0  0  0  0  0  0  0  0  0
  -26.2695  -12.9133   20.3989 N   0  0  0  0  0  0  0  0  0  0  0  0
  -35.9667  -22.1338   17.7125 N   0  0  0  0  0  0  0  0  0  0  0  0
  -30.0834  -12.6662   20.4420 N   0  0  0  0  0  0  0  0  0  0  0  0
  -25.3812  -15.1086   20.4416 N   0  0  0  0  0  0  0  0  0  0  0  0
  -21.7803  -12.5114   21.2685 N   0  0  0  0  0  0  0  0  0  0  0  0
  -36.7625  -24.9077   15.6311 N   0  0  0  0  0  0  0  0  0  0  0  0
  -37.8188  -21.3353   20.6832 N   0  0  0  0  0  0  0  0  0  0  0  0
  -30.7254  -12.8889   22.7073 N   0  0  0  0  0  0  0  0  0  0  0  0
  -33.8999  -16.4418   25.2870 N   0  3  0  0  0  0  0  0  0  0  0  0
  -36.7100  -21.8736   24.0816 N   0  3  0  0  0  0  0  0  0  0  0  0
  -22.4928  -14.6737   20.9938 O   0  0  0  0  0  0  0  0  0  0  0  0
  -37.0360  -22.6091   15.3779 O   0  0  0  0  0  0  0  0  0  0  0  0
  -37.6692  -23.2369   18.8507 O   0  0  0  0  0  0  0  0  0  0  0  0
  -36.0610  -20.3347   21.8173 O   0  0  0  0  0  0  0  0  0  0  0  0
  -32.2434  -13.2700   21.0318 O   0  0  0  0  0  0  0  0  0  0  0  0
  -21.7363   -6.9503   21.5966 O   0  0  0  0  0  0  0  0  0  0  0  0
  -30.7288  -19.6158   19.0559 O   0  0  0  0  0  0  0  0  0  1  0  0
  -30.4228  -19.1583   21.8055 O   0  0  0  0  0  0  0  0  0  0  0  0
  -18.1674   -6.8309   25.7981 F   0  0  0  0  0  0  0  0  0  0  0  0
  -22.0126   -5.1093   23.6404 F   0  0  0  0  0  0  0  0  0  0  0  0
  1  2  1  0  0  0  0
  1  5  2  0  0  0  0
  2  6  2  0  0  0  0
  3  9  2  0  0  0  0
  3 18  1  0  0  0  0
  4 10  1  0  0  0  0
  4 18  2  0  0  0  0
  5 20  1  0  0  0  0
  6 22  1  0  0  0  0
  7 11  2  0  0  0  0
  7 21  1  0  0  0  0
  8 12  2  0  0  0  0
  8 24  1  0  0  0  0
  9 26  1  0  0  0  0
 10 26  2  0  0  0  0
 11 27  1  0  0  0  0
 12 28  1  0  0  0  0
 13 14  2  0  0  0  0
 13 29  1  0  0  0  0
 14 30  1  0  0  0  0
 15 23  1  0  0  0  0
 15 27  2  0  0  0  0
 16 25  1  0  0  0  0
 16 28  2  0  0  0  0
 17 30  2  0  0  0  0
 17 31  1  0  0  0  0
 18 32  1  0  0  0  0
 19 32  1  0  0  0  0
 19 33  2  0  0  0  0
 19 34  1  0  0  0  0
 20 22  2  0  0  0  0
 20 39  1  0  0  0  0
 21 23  2  0  0  0  0
 21 40  1  0  0  0  0
 22 52  1  0  0  0  0
 23 41  1  0  0  0  0
 24 25  2  0  0  0  0
 24 61  1  0  0  0  0
 25 65  1  0  0  0  0
 26 85  1  0  0  0  0
 27 86  1  0  0  0  0
 28 87  1  0  0  0  0
 29 31  2  0  0  0  0
 29 85  1  0  0  0  0
 30 88  1  0  0  0  0
 31 89  1  0  0  0  0
 32 69  2  0  0  0  0
 33 70  1  0  0  0  0
 33 73  1  0  0  0  0
 34 74  1  0  0  0  0
 34 80  2  0  0  0  0
 35 53  1  0  0  0  0
 35 75  1  0  0  0  0
 35 81  2  0  0  0  0
 36 66  1  0  0  0  0
 36 71  1  0  0  0  0
 36 82  2  0  0  0  0
 37 67  1  0  0  0  0
 37 76  1  0  0  0  0
 37 83  2  0  0  0  0
 38 72  1  0  0  0  0
 38 77  1  0  0  0  0
 38 84  2  0  0  0  0
 39 42  1  0  0  0  0
 40 53  1  0  0  0  0
 41 71  1  0  0  0  0
 42 46  1  0  0  0  0
 43 44  1  0  0  0  0
 43 47  1  0  0  0  0
 44 48  1  0  0  0  0
 45 49  1  0  0  0  0
 45 50  1  0  0  0  0
 46 52  1  0  0  0  0
 47 54  1  0  0  0  0
 48 54  1  0  0  0  0
 49 55  1  0  0  0  0
 50 72  1  0  0  0  0
 51 55  1  0  0  0  0
 51 72  1  0  0  0  0
 52 75  1  0  0  0  0
 53 71  1  0  0  0  0
 54 65  1  0  0  0  0
 55 70  1  0  0  0  0
 56 67  1  0  0  0  0
 57 68  1  0  0  0  0
 58 68  1  0  0  0  0
 59 68  1  0  0  0  0
 60 79  1  0  0  0  0
 61 62  1  0  0  0  0
 62 77  1  0  0  0  0
 63 64  1  0  0  0  0
 63 86  1  0  0  0  0
 64 87  1  0  0  0  0
 65 78  1  0  0  0  0
 66 68  1  0  0  0  0
 66 76  1  0  0  0  0
 67 79  1  0  0  0  0
 69 70  1  0  0  0  0
M  CHG  2  78   1  79   1
M  ISO  4  38 100  63 101  77 100  86 101
M  END
> <Batch ID>
0130

> <Smiles>
CNC(C)C(=O)NC(C(=O)N1Cc2cc([101O:1][101CH2:1]COc3ccc(CC[100NH:0][100C:0](=O)N4CCCC(n5nc(-c6ccc(Oc7ccc(F)cc7F)cc6)c(C(N)=O)c5N)C4)c(C(N)C4CCCC4)c3)ccc2CC1C(=O)NC1CCCc2ccccc21)C(C)(C)C

> <Shape>
0.168

> <Color>
0.168

> <Negative vol penalty>
0.000

$$$$

  -OEChem-04052320473D

 90 99  0     1  0  0  0  0  0999 V2000
  -17.6901  -32.5415   19.4969 C   0  0  0  0  0  0  0  0  0  0  0  0
  -18.9935  -32.1875   19.1637 C   0  0  0  0  0  0  0  0  0  0  0  0
  -23.7354   -8.9425   19.7563 C   0  0  0  0  0  0  0  0  0  0  0  0
  -23.2705  -10.4502   21.5859 C   0  0  0  0  0  0  0  0  0  0  0  0
  -17.4571  -33.4357   20.5410 C   0  0  0  0  0  0  0  0  0  0  0  0
  -20.0649  -32.7284   19.8736 C   0  0  0  0  0  0  0  0  0  0  0  0
  -23.5410  -29.2530   21.0913 C   0  0  0  0  0  0  0  0  0  0  0  0
  -28.1729  -20.0566   19.9694 C   0  0  0  0  0  0  0  0  0  0  0  0
  -30.3629  -19.7514   20.9430 C   0  0  0  0  0  0  0  0  0  0  0  0
  -28.1041  -18.6906   19.6959 C   0  0  0  0  0  0  0  0  0  0  0  0
  -30.2941  -18.3854   20.6695 C   0  0  0  0  0  0  0  0  0  0  0  0
  -22.9625   -7.9577   20.3714 C   0  0  0  0  0  0  0  0  0  0  0  0
  -22.4975   -9.4654   22.2010 C   0  0  0  0  0  0  0  0  0  0  0  0
  -24.4194  -28.8515   20.0858 C   0  0  0  0  0  0  0  0  0  0  0  0
  -19.6801   -7.2292   20.7292 C   0  0  0  0  0  0  0  0  0  0  0  0
  -18.7802   -6.5203   19.9335 C   0  0  0  0  0  0  0  0  0  0  0  0
  -26.1094  -30.3198   20.9842 C   0  0  0  0  0  0  0  0  0  0  0  0
  -19.9137   -4.4598   20.4872 C   0  0  0  0  0  0  0  0  0  0  0  0
  -23.8895  -10.1888   20.3636 C   0  0  0  0  0  0  0  0  0  0  0  0
  -24.2509  -12.1824   18.8136 C   0  0  0  0  0  0  0  0  0  0  0  0
  -18.5257  -33.9804   21.2704 C   0  0  0  0  0  0  0  0  0  0  0  0
  -23.9373  -30.2006   22.0460 C   0  0  0  0  0  0  0  0  0  0  0  0
  -19.8460  -33.6318   20.9276 C   0  0  0  0  0  0  0  0  0  0  0  0
  -25.2351  -30.7297   22.0023 C   0  0  0  0  0  0  0  0  0  0  0  0
  -29.3023  -20.5871   20.5929 C   0  0  0  0  0  0  0  0  0  0  0  0
  -29.1647  -17.8550   20.0459 C   0  0  0  0  0  0  0  0  0  0  0  0
  -22.3436   -8.2191   21.5937 C   0  0  0  0  0  0  0  0  0  0  0  0
  -25.7029  -29.3870   20.0304 C   0  0  0  0  0  0  0  0  0  0  0  0
  -20.6969   -6.5534   21.4039 C   0  0  0  0  0  0  0  0  0  0  0  0
  -18.8969   -5.1356   19.8125 C   0  0  0  0  0  0  0  0  0  0  0  0
  -20.8136   -5.1687   21.2829 C   0  0  0  0  0  0  0  0  0  0  0  0
  -24.6882  -11.2063   19.7289 C   0  0  0  0  0  0  0  0  0  0  0  0
  -25.3821  -12.9002   18.5107 C   0  0  0  0  0  0  0  0  0  0  0  0
  -22.9395  -12.4192   18.2847 C   0  0  0  0  0  0  0  0  0  0  0  0
  -22.9493  -33.1090   22.8640 C   0  0  0  0  0  0  0  0  0  0  0  0
  -25.1218  -32.7526   25.2463 C   0  0  0  0  0  0  0  0  0  0  0  0
  -27.9589  -31.2291   26.3760 C   0  0  0  0  0  0  0  0  0  0  0  0
  -30.0591  -15.4999   20.0501 C   0  0  0  0  0  0  0  0  0  0  0  0
  -18.2264  -34.9794   22.3599 C   0  0  0  0  0  0  0  0  0  0  0  0
  -22.9869  -30.6033   23.1401 C   0  0  0  0  0  0  0  0  0  0  0  0
  -25.7161  -31.7350   23.0155 C   0  0  0  0  0  0  0  0  0  0  0  0
  -19.4001  -35.2184   23.3063 C   0  0  0  0  0  0  0  0  0  0  0  0
  -30.2475  -11.9784   19.5593 C   0  0  0  0  0  0  0  0  0  0  0  0
  -20.6893  -35.4229   22.5170 C   0  0  0  0  0  0  0  0  0  0  0  0
  -28.7820  -11.5439   19.4844 C   0  0  0  0  0  0  0  0  0  0  0  0
  -32.4988  -26.6854   19.5137 C   0  0  0  0  0  0  0  0  0  0  0  0
  -30.4546  -13.1029   20.5725 C   0  0  0  0  0  0  0  0  0  0  0  0
  -28.1164  -13.8355   20.3167 C   0  0  0  0  0  0  0  0  0  0  0  0
  -33.2993  -27.5448   20.4726 C   0  0  0  0  0  0  0  0  0  0  0  0
  -31.1425  -28.5770   19.9829 C   0  0  0  0  0  0  0  0  0  0  0  0
  -21.0334  -34.1781   21.6903 C   0  0  1  0  0  0  0  0  0  0  0  0
  -23.3233  -31.9584   23.7550 C   0  0  1  0  0  0  0  0  0  0  0  0
  -31.0594  -27.0660   19.8330 C   0  0  1  0  0  0  0  0  0  0  0  0
  -27.8475  -12.7493   19.2624 C   0  0  2  0  0  0  0  0  0  0  0  0
  -29.5123  -31.1700   28.3460 C   0  0  0  0  0  0  0  0  0  0  0  0
  -26.3422  -35.4051   24.3604 C   0  0  0  0  0  0  0  0  0  0  0  0
  -28.3849  -34.8290   25.6885 C   0  0  0  0  0  0  0  0  0  0  0  0
  -26.1882  -35.1036   26.8382 C   0  0  0  0  0  0  0  0  0  0  0  0
  -27.4019  -28.3658   26.8766 C   0  0  0  0  0  0  0  0  0  0  0  0
  -29.3762  -22.0564   20.8870 C   0  0  0  0  0  0  0  0  0  0  0  0
  -30.0151  -25.1002   18.6452 C   0  0  0  0  0  0  0  0  0  0  0  0
  -29.6539  -24.3425   19.9197 C   0  0  0  0  0  0  0  0  0  0  0  0
  -27.7481  -27.1725   18.0271 C   0  0  0  0  0  0  0  0  0  0  0  0
  -26.4135  -27.6707   18.5455 C   0  0  0  0  0  0  0  0  0  1  0  0
  -26.5913  -33.0583   25.4076 C   0  0  1  0  0  0  0  0  0  0  0  0
  -28.2824  -30.5546   27.6970 C   0  0  2  0  0  0  0  0  0  0  0  0
  -30.0711  -26.6285   18.7665 C   0  0  1  0  0  0  0  0  0  0  0  0
  -26.8672  -34.5815   25.5533 C   0  0  0  0  0  0  0  0  0  0  0  0
  -25.9952  -11.2931   19.9902 N   0  0  0  0  0  0  0  0  0  0  0  0
  -26.3890  -12.3322   19.2345 N   0  0  0  0  0  0  0  0  0  0  0  0
  -24.7478  -32.1017   24.0621 N   0  0  0  0  0  0  0  0  0  0  0  0
  -29.5386  -14.2120   20.2972 N   0  0  0  0  0  0  0  0  0  0  0  0
  -25.6038  -13.9554   17.6984 N   0  0  0  0  0  0  0  0  0  0  0  0
  -21.8908  -11.5884   18.7018 N   0  0  0  0  0  0  0  0  0  0  0  0
  -29.0950  -16.4672   19.7684 N   0  0  0  0  0  0  0  0  0  0  0  0
  -21.6078  -33.1531   22.5353 N   0  0  0  0  0  0  0  0  0  0  0  0
  -27.0536  -32.2568   26.5355 N   0  0  0  0  0  0  0  0  0  0  0  0
  -32.4926  -28.8052   20.6016 N   0  3  0  0  0  0  0  0  0  0  0  0
  -28.5388  -29.1016   27.4875 N   0  3  0  0  0  0  0  0  0  0  0  0
  -29.6383  -22.8817   19.6753 N   0  3  0  0  0  0  0  0  0  0  0  0
  -28.7307  -27.1554   19.1400 N   0  3  0  0  0  0  0  0  0  0  0  0
  -22.7079  -13.3300   17.4537 O   0  0  0  0  0  0  0  0  0  0  0  0
  -23.8134  -33.8991   22.5027 O   0  0  0  0  0  0  0  0  0  0  0  0
  -24.3356  -33.0730   26.1413 O   0  0  0  0  0  0  0  0  0  0  0  0
  -28.4621  -30.8816   25.3099 O   0  0  0  0  0  0  0  0  0  0  0  0
  -31.2726  -15.7221   20.0588 O   0  0  0  0  0  0  0  0  0  0  0  0
  -21.5891   -7.2585   22.1941 O   0  0  0  0  0  0  0  0  0  0  0  0
  -26.5620  -28.9974   19.0497 O   0  0  0  0  0  0  0  0  0  1  0  0
  -18.0317   -4.4548   19.0495 F   0  0  0  0  0  0  0  0  0  0  0  0
  -21.7876   -4.5138   21.9296 F   0  0  0  0  0  0  0  0  0  0  0  0
  1  2  1  0  0  0  0
  1  5  2  0  0  0  0
  2  6  2  0  0  0  0
  3 12  2  0  0  0  0
  3 19  1  0  0  0  0
  4 13  1  0  0  0  0
  4 19  2  0  0  0  0
  5 21  1  0  0  0  0
  6 23  1  0  0  0  0
  7 14  2  0  0  0  0
  7 22  1  0  0  0  0
  8 10  2  0  0  0  0
  8 25  1  0  0  0  0
  9 11  1  0  0  0  0
  9 25  2  0  0  0  0
 10 26  1  0  0  0  0
 11 26  2  0  0  0  0
 12 27  1  0  0  0  0
 13 27  2  0  0  0  0
 14 28  1  0  0  0  0
 15 16  2  0  0  0  0
 15 29  1  0  0  0  0
 16 30  1  0  0  0  0
 17 24  1  0  0  0  0
 17 28  2  0  0  0  0
 18 30  2  0  0  0  0
 18 31  1  0  0  0  0
 19 32  1  0  0  0  0
 20 32  1  0  0  0  0
 20 33  2  0  0  0  0
 20 34  1  0  0  0  0
 21 23  2  0  0  0  0
 21 39  1  0  0  0  0
 22 24  2  0  0  0  0
 22 40  1  0  0  0  0
 23 51  1  0  0  0  0
 24 41  1  0  0  0  0
 25 60  1  0  0  0  0
 26 75  1  0  0  0  0
 27 87  1  0  0  0  0
 28 88  1  0  0  0  0
 29 31  2  0  0  0  0
 29 87  1  0  0  0  0
 30 89  1  0  0  0  0
 31 90  1  0  0  0  0
 32 69  2  0  0  0  0
 33 70  1  0  0  0  0
 33 73  1  0  0  0  0
 34 74  1  0  0  0  0
 34 82  2  0  0  0  0
 35 52  1  0  0  0  0
 35 76  1  0  0  0  0
 35 83  2  0  0  0  0
 36 65  1  0  0  0  0
 36 71  1  0  0  0  0
 36 84  2  0  0  0  0
 37 66  1  0  0  0  0
 37 77  1  0  0  0  0
 37 85  2  0  0  0  0
 38 72  1  0  0  0  0
 38 75  1  0  0  0  0
 38 86  2  0  0  0  0
 39 42  1  0  0  0  0
 40 52  1  0  0  0  0
 41 71  1  0  0  0  0
 42 44  1  0  0  0  0
 43 45  1  0  0  0  0
 43 47  1  0  0  0  0
 44 51  1  0  0  0  0
 45 54  1  0  0  0  0
 46 49  1  0  0  0  0
 46 53  1  0  0  0  0
 47 72  1  0  0  0  0
 48 54  1  0  0  0  0
 48 72  1  0  0  0  0
 49 78  1  0  0  0  0
 50 53  1  0  0  0  0
 50 78  1  0  0  0  0
 51 76  1  0  0  0  0
 52 71  1  0  0  0  0
 53 67  1  0  0  0  0
 54 70  1  0  0  0  0
 55 66  1  0  0  0  0
 56 68  1  0  0  0  0
 57 68  1  0  0  0  0
 58 68  1  0  0  0  0
 59 79  1  0  0  0  0
 60 80  1  0  0  0  0
 61 62  1  0  0  0  0
 61 67  1  0  0  0  0
 62 80  1  0  0  0  0
 63 64  1  0  0  0  0
 63 81  1  0  0  0  0
 64 88  1  0  0  0  0
 65 68  1  0  0  0  0
 65 77  1  0  0  0  0
 66 79  1  0  0  0  0
 67 81  1  0  0  0  0
 69 70  1  0  0  0  0
M  CHG  4  78   1  79   1  80   1  81   1
M  ISO  4  38 100  64 101  75 100  88 101
M  END
> <Batch ID>
0130

> <Smiles>
CNC(C)C(=O)NC(C(=O)N1Cc2cc([101O:1][101CH2:1]CNC(CCNCc3ccc([100NH:0][100C:0](=O)N4CCCC(n5nc(-c6ccc(Oc7ccc(F)cc7F)cc6)c(C(N)=O)c5N)C4)cc3)C3CCNC3)ccc2CC1C(=O)NC1CCCc2ccccc21)C(C)(C)C

> <Shape>
0.305

> <Color>
0.074

> <Negative vol penalty>
0.000

$$$$

  -OEChem-04052320473D

 94104  0     1  0  0  0  0  0999 V2000
  -27.0357  -37.9752   24.3974 C   0  0  0  0  0  0  0  0  0  0  0  0
  -27.6870  -37.1506   23.4857 C   0  0  0  0  0  0  0  0  0  0  0  0
  -24.2423  -12.1181   21.9889 C   0  0  0  0  0  0  0  0  0  0  0  0
  -21.9646  -12.1756   22.7924 C   0  0  0  0  0  0  0  0  0  0  0  0
  -26.2314  -37.4167   25.3899 C   0  0  0  0  0  0  0  0  0  0  0  0
  -27.5352  -35.7668   23.5666 C   0  0  0  0  0  0  0  0  0  0  0  0
  -27.2672  -29.9281   19.4250 C   0  0  0  0  0  0  0  0  0  0  0  0
  -29.6132  -24.0599   20.7976 C   0  0  0  0  0  0  0  0  0  0  0  0
  -30.3274  -22.8824   20.5761 C   0  0  0  0  0  0  0  0  0  0  0  0
  -24.6309  -11.4317   23.1392 C   0  0  0  0  0  0  0  0  0  0  0  0
  -22.3531  -11.4890   23.9428 C   0  0  0  0  0  0  0  0  0  0  0  0
  -27.8517  -28.6685   19.2999 C   0  0  0  0  0  0  0  0  0  0  0  0
  -24.4914   -8.2653   24.3171 C   0  0  0  0  0  0  0  0  0  0  0  0
  -25.3335   -7.1643   24.1617 C   0  0  0  0  0  0  0  0  0  0  0  0
  -27.5723  -22.9453   20.1423 C   0  0  0  0  0  0  0  0  0  0  0  0
  -26.3740  -27.8199   21.0074 C   0  0  0  0  0  0  0  0  0  0  0  0
  -26.9980   -8.2426   25.5415 C   0  0  0  0  0  0  0  0  0  0  0  0
  -22.9092  -12.4901   21.8155 C   0  0  0  0  0  0  0  0  0  0  0  0
  -22.0645  -12.6422   19.4132 C   0  0  0  0  0  0  0  0  0  0  0  0
  -26.0620  -36.0259   25.4772 C   0  0  0  0  0  0  0  0  0  0  0  0
  -26.2374  -30.1460   20.3514 C   0  0  0  0  0  0  0  0  0  0  0  0
  -26.7289  -35.1891   24.5621 C   0  0  0  0  0  0  0  0  0  0  0  0
  -28.2865  -21.7678   19.9207 C   0  0  0  0  0  0  0  0  0  0  0  0
  -25.7763  -29.0825   21.1404 C   0  0  0  0  0  0  0  0  0  0  0  0
  -28.2356  -24.0913   20.5808 C   0  0  0  0  0  0  0  0  0  0  0  0
  -29.6640  -21.7364   20.1376 C   0  0  0  0  0  0  0  0  0  0  0  0
  -23.6863  -11.1171   24.1162 C   0  0  0  0  0  0  0  0  0  0  0  0
  -27.4071  -27.6149   20.0932 C   0  0  0  0  0  0  0  0  0  0  0  0
  -24.9026   -9.3550   25.0847 C   0  0  0  0  0  0  0  0  0  0  0  0
  -26.5868   -7.1529   24.7738 C   0  0  0  0  0  0  0  0  0  0  0  0
  -26.1559   -9.3436   25.6969 C   0  0  0  0  0  0  0  0  0  0  0  0
  -22.5073  -13.1998   20.6276 C   0  0  0  0  0  0  0  0  0  0  0  0
  -21.8079  -13.7270   18.6107 C   0  0  0  0  0  0  0  0  0  0  0  0
  -21.8999  -11.2668   19.0435 C   0  0  0  0  0  0  0  0  0  0  0  0
  -25.8782  -31.9941   22.9125 C   0  0  0  0  0  0  0  0  0  0  0  0
  -22.8383  -30.8660   22.8184 C   0  0  0  0  0  0  0  0  0  0  0  0
  -20.6906  -28.4052   21.8291 C   0  0  0  0  0  0  0  0  0  0  0  0
  -23.7977  -19.2436   18.3807 C   0  0  0  0  0  0  0  0  0  0  0  0
  -25.2203  -35.4660   26.5964 C   0  0  0  0  0  0  0  0  0  0  0  0
  -25.5991  -31.5040   20.4553 C   0  0  0  0  0  0  0  0  0  0  0  0
  -24.6599  -29.2594   22.1358 C   0  0  0  0  0  0  0  0  0  0  0  0
  -24.8127  -34.0105   26.3825 C   0  0  0  0  0  0  0  0  0  0  0  0
  -20.4956  -18.3159   18.8090 C   0  0  0  0  0  0  0  0  0  0  0  0
  -26.0126  -33.1798   25.9388 C   0  0  0  0  0  0  0  0  0  0  0  0
  -20.5806  -16.8420   19.2048 C   0  0  0  0  0  0  0  0  0  0  0  0
  -26.4988  -20.0573   20.4686 C   0  0  0  0  0  0  0  0  0  0  0  0
  -26.8923  -20.7495   18.0654 C   0  0  0  0  0  0  0  0  0  0  0  0
  -29.1822  -16.9220   21.9806 C   0  0  0  0  0  0  0  0  0  0  0  0
  -21.5887  -19.1286   19.4932 C   0  0  0  0  0  0  0  0  0  0  0  0
  -25.7304  -18.8315   19.9667 C   0  0  0  0  0  0  0  0  0  0  0  0
  -26.1402  -19.4982   17.6214 C   0  0  0  0  0  0  0  0  0  0  0  0
  -23.0713  -17.1527   19.6179 C   0  0  0  0  0  0  0  0  0  0  0  0
  -31.2656  -15.8393   21.6176 C   0  0  0  0  0  0  0  0  0  0  0  0
  -27.5435  -20.5342   19.4436 C   0  0  0  0  0  0  0  0  0  0  0  0
  -26.5693  -33.6848   24.6022 C   0  0  1  0  0  0  0  0  0  0  0  0
  -24.9073  -31.7382   21.7947 C   0  0  1  0  0  0  0  0  0  0  0  0
  -30.6706  -17.2198   21.8464 C   0  0  1  0  0  0  0  0  0  0  0  0
  -21.9903  -16.2808   18.9473 C   0  0  1  0  0  0  0  0  0  0  0  0
  -29.1655  -15.6784   22.8601 C   0  0  1  0  0  0  0  0  0  0  0  0
  -18.2721  -27.7434   21.9304 C   0  0  0  0  0  0  0  0  0  0  0  0
  -26.6556  -15.5329   23.0179 C   0  0  0  0  0  0  0  0  0  0  0  0
  -23.1921  -30.0282   25.7309 C   0  0  0  0  0  0  0  0  0  0  0  0
  -21.1734  -28.5681   25.4834 C   0  0  0  0  0  0  0  0  0  0  0  0
  -20.9668  -31.0377   25.1987 C   0  0  0  0  0  0  0  0  0  0  0  0
  -20.4338  -28.4541   18.8811 C   0  0  0  0  0  0  0  0  0  0  0  0
  -30.4501  -20.4877   19.9062 C   0  0  0  0  0  0  0  0  0  0  0  0
  -27.4723  -25.3505   20.8172 C   0  0  0  0  0  0  0  0  0  1  0  0
  -30.9883  -18.1927   20.7320 C   0  0  0  0  0  0  0  0  0  0  0  0
  -22.1209  -29.6759   23.4083 C   0  0  1  0  0  0  0  0  0  0  0  0
  -19.3449  -28.4642   21.1290 C   0  0  2  0  0  0  0  0  0  0  0  0
  -27.9456  -14.8001   22.6689 C   0  0  2  0  0  0  0  0  0  0  0  0
  -21.8857  -29.8243   24.9381 C   0  0  0  0  0  0  0  0  0  0  0  0
  -22.5318  -14.5350   20.6034 N   0  0  0  0  0  0  0  0  0  0  0  0
  -22.1014  -14.8255   19.3639 N   0  0  0  0  0  0  0  0  0  0  0  0
  -24.0722  -30.6075   22.2049 N   0  0  0  0  0  0  0  0  0  0  0  0
  -22.9109  -18.5621   19.2278 N   0  0  0  0  0  0  0  0  0  0  0  0
  -25.1685  -19.0817   18.6321 N   0  0  0  0  0  0  0  0  0  0  0  0
  -21.3621  -13.8388   17.3414 N   0  0  0  0  0  0  0  0  0  0  0  0
  -22.2093  -10.2792   19.9887 N   0  0  0  0  0  0  0  0  0  0  0  0
  -28.0610  -13.6013   23.5383 N   0  0  0  0  0  0  0  0  0  0  0  0
  -25.7386  -33.2342   23.5061 N   0  0  0  0  0  0  0  0  0  0  0  0
  -20.8988  -29.5087   22.6293 N   0  0  0  0  0  0  0  0  0  0  0  0
  -30.4118  -14.9310   22.4578 N   0  3  0  0  0  0  0  0  0  0  0  0
  -19.4327  -27.8293   19.7836 N   0  3  0  0  0  0  0  0  0  0  0  0
  -30.2594  -19.4660   20.9713 N   0  3  0  0  0  0  0  0  0  0  0  0
  -21.5063  -10.9232   17.9031 O   0  0  0  0  0  0  0  0  0  0  0  0
  -26.6926  -31.1299   23.2151 O   0  0  0  0  0  0  0  0  0  0  0  0
  -22.3196  -31.9827   22.8927 O   0  0  0  0  0  0  0  0  0  0  0  0
  -21.4767  -27.4717   21.6838 O   0  0  0  0  0  0  0  0  0  0  0  0
  -23.3896  -19.9544   17.4537 O   0  0  0  0  0  0  0  0  0  0  0  0
  -24.0651  -10.4470   25.2388 O   0  0  0  0  0  0  0  0  0  0  0  0
  -27.9802  -26.3762   19.9728 O   0  0  0  0  0  0  0  0  0  1  0  0
  -27.3948   -6.0949   24.6257 F   0  0  0  0  0  0  0  0  0  0  0  0
  -26.5559  -10.3871   26.4365 F   0  0  0  0  0  0  0  0  0  0  0  0
  1  2  1  0  0  0  0
  1  5  2  0  0  0  0
  2  6  2  0  0  0  0
  3 10  2  0  0  0  0
  3 18  1  0  0  0  0
  4 11  1  0  0  0  0
  4 18  2  0  0  0  0
  5 20  1  0  0  0  0
  6 22  1  0  0  0  0
  7 12  2  0  0  0  0
  7 21  1  0  0  0  0
  8  9  2  0  0  0  0
  8 25  1  0  0  0  0
  9 26  1  0  0  0  0
 10 27  1  0  0  0  0
 11 27  2  0  0  0  0
 12 28  1  0  0  0  0
 13 14  2  0  0  0  0
 13 29  1  0  0  0  0
 14 30  1  0  0  0  0
 15 23  1  0  0  0  0
 15 25  2  0  0  0  0
 16 24  1  0  0  0  0
 16 28  2  0  0  0  0
 17 30  2  0  0  0  0
 17 31  1  0  0  0  0
 18 32  1  0  0  0  0
 19 32  1  0  0  0  0
 19 33  2  0  0  0  0
 19 34  1  0  0  0  0
 20 22  2  0  0  0  0
 20 39  1  0  0  0  0
 21 24  2  0  0  0  0
 21 40  1  0  0  0  0
 22 55  1  0  0  0  0
 23 26  2  0  0  0  0
 23 54  1  0  0  0  0
 24 41  1  0  0  0  0
 25 67  1  0  0  0  0
 26 66  1  0  0  0  0
 27 91  1  0  0  0  0
 28 92  1  0  0  0  0
 29 31  2  0  0  0  0
 29 91  1  0  0  0  0
 30 93  1  0  0  0  0
 31 94  1  0  0  0  0
 32 73  2  0  0  0  0
 33 74  1  0  0  0  0
 33 78  1  0  0  0  0
 34 79  1  0  0  0  0
 34 86  2  0  0  0  0
 35 56  1  0  0  0  0
 35 81  1  0  0  0  0
 35 87  2  0  0  0  0
 36 69  1  0  0  0  0
 36 75  1  0  0  0  0
 36 88  2  0  0  0  0
 37 70  1  0  0  0  0
 37 82  1  0  0  0  0
 37 89  2  0  0  0  0
 38 76  1  0  0  0  0
 38 77  1  0  0  0  0
 38 90  2  0  0  0  0
 39 42  1  0  0  0  0
 40 56  1  0  0  0  0
 41 75  1  0  0  0  0
 42 44  1  0  0  0  0
 43 45  1  0  0  0  0
 43 49  1  0  0  0  0
 44 55  1  0  0  0  0
 45 58  1  0  0  0  0
 46 50  1  0  0  0  0
 46 54  1  0  0  0  0
 47 51  1  0  0  0  0
 47 54  1  0  0  0  0
 48 57  1  0  0  0  0
 48 59  1  0  0  0  0
 49 76  1  0  0  0  0
 50 77  1  0  0  0  0
 51 77  1  0  0  0  0
 52 58  1  0  0  0  0
 52 76  1  0  0  0  0
 53 57  1  0  0  0  0
 53 83  1  0  0  0  0
 55 81  1  0  0  0  0
 56 75  1  0  0  0  0
 57 68  1  0  0  0  0
 58 74  1  0  0  0  0
 59 71  1  0  0  0  0
 59 83  1  0  0  0  0
 60 70  1  0  0  0  0
 61 71  1  0  0  0  0
 62 72  1  0  0  0  0
 63 72  1  0  0  0  0
 64 72  1  0  0  0  0
 65 84  1  0  0  0  0
 66 85  1  0  0  0  0
 67 92  1  0  0  0  0
 68 85  1  0  0  0  0
 69 72  1  0  0  0  0
 69 82  1  0  0  0  0
 70 84  1  0  0  0  0
 71 80  1  0  0  0  0
 73 74  1  0  0  0  0
M  CHG  3  83   1  84   1  85   1
M  ISO  4  38 100  67 101  77 100  92 101
M  END
> <Batch ID>
0130

> <Smiles>
CNC(C)C(=O)NC(C(=O)N1Cc2cc([101O:1][101CH2:1]c3ccc(CNCC4CNC(C(C)N)C4)c(C4CC[100N:0]([100C:0](=O)N5CCCC(n6nc(-c7ccc(Oc8ccc(F)cc8F)cc7)c(C(N)=O)c6N)C5)CC4)c3)ccc2CC1C(=O)NC1CCCc2ccccc21)C(C)(C)C

> <Shape>
0.260

> <Color>
0.069

> <Negative vol penalty>
0.000

$$$$

  -OEChem-04052320473D

 85 94  0     1  0  0  0  0  0999 V2000
  -24.1798  -35.8417   15.7292 C   0  0  0  0  0  0  0  0  0  0  0  0
  -24.7409  -34.5693   15.7688 C   0  0  0  0  0  0  0  0  0  0  0  0
  -26.5993  -12.1259   21.3110 C   0  0  0  0  0  0  0  0  0  0  0  0
  -25.8286  -14.0064   20.0046 C   0  0  0  0  0  0  0  0  0  0  0  0
  -24.1747  -36.6360   16.8750 C   0  0  0  0  0  0  0  0  0  0  0  0
  -25.2983  -34.0909   16.9541 C   0  0  0  0  0  0  0  0  0  0  0  0
  -25.2624  -28.3074   18.9680 C   0  0  0  0  0  0  0  0  0  0  0  0
  -30.4555  -24.6052   18.8349 C   0  0  0  0  0  0  0  0  0  0  0  0
  -25.3300  -11.5527   21.2349 C   0  0  0  0  0  0  0  0  0  0  0  0
  -24.5592  -13.4332   19.9284 C   0  0  0  0  0  0  0  0  0  0  0  0
  -26.2152  -27.2908   18.9179 C   0  0  0  0  0  0  0  0  0  0  0  0
  -31.4418  -23.6295   18.9792 C   0  0  0  0  0  0  0  0  0  0  0  0
  -23.0296  -10.9994   18.1516 C   0  0  0  0  0  0  0  0  0  0  0  0
  -22.3941  -10.9983   16.9100 C   0  0  0  0  0  0  0  0  0  0  0  0
  -26.9412  -27.8698   21.1443 C   0  0  0  0  0  0  0  0  0  0  0  0
  -28.7476  -22.9249   19.1462 C   0  0  0  0  0  0  0  0  0  0  0  0
  -20.5769  -12.2915   17.8389 C   0  0  0  0  0  0  0  0  0  0  0  0
  -26.8487  -13.3527   20.6959 C   0  0  0  0  0  0  0  0  0  0  0  0
  -29.2304  -13.7627   19.8794 C   0  0  0  0  0  0  0  0  0  0  0  0
  -24.7236  -36.1635   18.0774 C   0  0  0  0  0  0  0  0  0  0  0  0
  -25.1490  -29.1213   20.1043 C   0  0  0  0  0  0  0  0  0  0  0  0
  -25.3017  -34.8803   18.1167 C   0  0  0  0  0  0  0  0  0  0  0  0
  -25.9844  -28.8944   21.2073 C   0  0  0  0  0  0  0  0  0  0  0  0
  -29.1084  -24.2529   18.9185 C   0  0  0  0  0  0  0  0  0  0  0  0
  -29.7339  -21.9492   19.2905 C   0  0  0  0  0  0  0  0  0  0  0  0
  -24.3099  -12.2064   20.5436 C   0  0  0  0  0  0  0  0  0  0  0  0
  -27.0567  -27.0738   20.0050 C   0  0  0  0  0  0  0  0  0  0  0  0
  -31.0810  -22.3015   19.2070 C   0  0  0  0  0  0  0  0  0  0  0  0
  -22.4387  -11.6465   19.2370 C   0  0  0  0  0  0  0  0  0  0  0  0
  -21.1678  -11.6444   16.7536 C   0  0  0  0  0  0  0  0  0  0  0  0
  -21.2124  -12.2925   19.0806 C   0  0  0  0  0  0  0  0  0  0  0  0
  -28.1596  -13.9456   20.7747 C   0  0  0  0  0  0  0  0  0  0  0  0
  -30.2431  -14.5356   20.3929 C   0  0  0  0  0  0  0  0  0  0  0  0
  -29.3033  -12.9656   18.6898 C   0  0  0  0  0  0  0  0  0  0  0  0
  -25.4943  -32.2278   20.6820 C   0  0  0  0  0  0  0  0  0  0  0  0
  -24.4087  -31.4038   23.6256 C   0  0  0  0  0  0  0  0  0  0  0  0
  -24.0091  -28.9771   25.9916 C   0  0  0  0  0  0  0  0  0  0  0  0
  -32.0572  -19.3023   22.6585 C   0  0  0  0  0  0  0  0  0  0  0  0
  -24.7373  -37.0768   19.2776 C   0  0  0  0  0  0  0  0  0  0  0  0
  -24.0981  -30.1963   20.1530 C   0  0  0  0  0  0  0  0  0  0  0  0
  -25.8894  -29.7271   22.4587 C   0  0  0  0  0  0  0  0  0  0  0  0
  -25.0124  -36.3511   20.5921 C   0  0  0  0  0  0  0  0  0  0  0  0
  -30.6575  -16.8770   24.8575 C   0  0  0  0  0  0  0  0  0  0  0  0
  -26.1916  -35.3959   20.4380 C   0  0  0  0  0  0  0  0  0  0  0  0
  -30.1872  -18.7552   17.8011 C   0  0  0  0  0  0  0  0  0  0  0  0
  -28.8438  -18.2783   18.2783 C   0  0  0  0  0  0  0  0  0  0  0  0
  -29.9663  -15.8872   23.9181 C   0  0  0  0  0  0  0  0  0  0  0  0
  -30.5415  -18.3124   24.3494 C   0  0  0  0  0  0  0  0  0  0  0  0
  -30.3116  -17.5282   22.0243 C   0  0  0  0  0  0  0  0  0  0  0  0
  -25.8938  -34.3165   19.3902 C   0  0  1  0  0  0  0  0  0  0  0  0
  -24.4159  -31.2972   21.1602 C   0  0  1  0  0  0  0  0  0  0  0  0
  -29.1480  -19.7503   18.2379 C   0  0  0  0  0  0  0  0  0  0  0  0
  -30.4500  -16.0612   22.4658 C   0  0  2  0  0  0  0  0  0  0  0  0
  -23.1215  -28.6139   28.3106 C   0  0  0  0  0  0  0  0  0  0  0  0
  -26.8762  -32.7763   24.7824 C   0  0  0  0  0  0  0  0  0  0  0  0
  -26.4417  -31.5839   26.9406 C   0  0  0  0  0  0  0  0  0  0  0  0
  -24.7600  -33.1954   26.0475 C   0  0  0  0  0  0  0  0  0  0  0  0
  -22.0177  -27.0028   25.0452 C   0  0  0  0  0  0  0  0  0  0  0  0
  -29.3300  -20.5326   19.5352 C   0  0  0  0  0  0  0  0  0  0  0  0
  -28.0479  -25.3032   18.7646 C   0  0  0  0  0  0  0  0  0  1  0  0
  -33.5135  -20.1895   20.8553 C   0  0  0  0  0  0  0  0  0  0  0  0
  -32.9861  -21.5421   20.4110 C   0  0  0  0  0  0  0  0  0  0  0  0
  -25.0521  -30.9539   24.9150 C   0  0  1  0  0  0  0  0  0  0  0  0
  -22.8065  -28.5696   26.8234 C   0  0  2  0  0  0  0  0  0  0  0  0
  -25.7858  -32.1127   25.6472 C   0  0  0  0  0  0  0  0  0  0  0  0
  -28.4636  -14.7698   21.7808 N   0  0  0  0  0  0  0  0  0  0  0  0
  -29.7371  -15.1116   21.5208 N   0  0  0  0  0  0  0  0  0  0  0  0
  -24.8503  -30.7701   22.4555 N   0  0  0  0  0  0  0  0  0  0  0  0
  -31.0178  -18.4095   22.9675 N   0  0  0  0  0  0  0  0  0  0  0  0
  -31.5082  -14.7717   19.9852 N   0  0  0  0  0  0  0  0  0  0  0  0
  -28.1714  -12.2339   18.3056 N   0  0  0  0  0  0  0  0  0  0  0  0
  -25.0268  -33.2991   19.9449 N   0  0  0  0  0  0  0  0  0  0  0  0
  -23.9958  -30.3248   25.7004 N   0  0  0  0  0  0  0  0  0  0  0  0
  -32.4526  -19.3274   21.3267 N   0  0  0  0  0  0  0  0  0  0  0  0
  -22.3804  -27.1848   26.4744 N   0  3  0  0  0  0  0  0  0  0  0  0
  -30.3466  -12.8912   17.9974 O   0  0  0  0  0  0  0  0  0  0  0  0
  -26.6637  -31.9922   20.9623 O   0  0  0  0  0  0  0  0  0  0  0  0
  -23.5411  -32.2802   23.6563 O   0  0  0  0  0  0  0  0  0  0  0  0
  -24.8759  -28.1803   25.6388 O   0  0  0  0  0  0  0  0  0  0  0  0
  -32.5967  -20.0198   23.5077 O   0  0  0  0  0  0  0  0  0  0  0  0
  -23.0712  -11.6473   20.4689 O   0  0  0  0  0  0  0  0  0  0  0  0
  -27.9880  -26.0826   19.9585 O   0  0  0  0  0  0  0  0  0  1  0  0
  -32.0575  -21.3611   19.3439 O   0  0  0  0  0  0  0  0  0  0  0  0
  -20.5584  -11.6446   15.5607 F   0  0  0  0  0  0  0  0  0  0  0  0
  -20.6404  -12.9168   20.1193 F   0  0  0  0  0  0  0  0  0  0  0  0
  1  2  1  0  0  0  0
  1  5  2  0  0  0  0
  2  6  2  0  0  0  0
  3  9  2  0  0  0  0
  3 18  1  0  0  0  0
  4 10  1  0  0  0  0
  4 18  2  0  0  0  0
  5 20  1  0  0  0  0
  6 22  1  0  0  0  0
  7 11  2  0  0  0  0
  7 21  1  0  0  0  0
  8 12  2  0  0  0  0
  8 24  1  0  0  0  0
  9 26  1  0  0  0  0
 10 26  2  0  0  0  0
 11 27  1  0  0  0  0
 12 28  1  0  0  0  0
 13 14  2  0  0  0  0
 13 29  1  0  0  0  0
 14 30  1  0  0  0  0
 15 23  1  0  0  0  0
 15 27  2  0  0  0  0
 16 24  2  0  0  0  0
 16 25  1  0  0  0  0
 17 30  2  0  0  0  0
 17 31  1  0  0  0  0
 18 32  1  0  0  0  0
 19 32  1  0  0  0  0
 19 33  2  0  0  0  0
 19 34  1  0  0  0  0
 20 22  2  0  0  0  0
 20 39  1  0  0  0  0
 21 23  2  0  0  0  0
 21 40  1  0  0  0  0
 22 50  1  0  0  0  0
 23 41  1  0  0  0  0
 24 60  1  0  0  0  0
 25 28  2  0  0  0  0
 25 59  1  0  0  0  0
 26 81  1  0  0  0  0
 27 82  1  0  0  0  0
 28 83  1  0  0  0  0
 29 31  2  0  0  0  0
 29 81  1  0  0  0  0
 30 84  1  0  0  0  0
 31 85  1  0  0  0  0
 32 66  2  0  0  0  0
 33 67  1  0  0  0  0
 33 70  1  0  0  0  0
 34 71  1  0  0  0  0
 34 76  2  0  0  0  0
 35 51  1  0  0  0  0
 35 72  1  0  0  0  0
 35 77  2  0  0  0  0
 36 63  1  0  0  0  0
 36 68  1  0  0  0  0
 36 78  2  0  0  0  0
 37 64  1  0  0  0  0
 37 73  1  0  0  0  0
 37 79  2  0  0  0  0
 38 69  1  0  0  0  0
 38 74  1  0  0  0  0
 38 80  2  0  0  0  0
 39 42  1  0  0  0  0
 40 51  1  0  0  0  0
 41 68  1  0  0  0  0
 42 44  1  0  0  0  0
 43 47  1  0  0  0  0
 43 48  1  0  0  0  0
 44 50  1  0  0  0  0
 45 46  1  0  0  0  0
 45 52  1  0  0  0  0
 46 52  1  0  0  0  0
 47 53  1  0  0  0  0
 48 69  1  0  0  0  0
 49 53  1  0  0  0  0
 49 69  1  0  0  0  0
 50 72  1  0  0  0  0
 51 68  1  0  0  0  0
 52 59  1  0  0  0  0
 53 67  1  0  0  0  0
 54 64  1  0  0  0  0
 55 65  1  0  0  0  0
 56 65  1  0  0  0  0
 57 65  1  0  0  0  0
 58 75  1  0  0  0  0
 60 82  1  0  0  0  0
 61 62  1  0  0  0  0
 61 74  1  0  0  0  0
 62 83  1  0  0  0  0
 63 65  1  0  0  0  0
 63 73  1  0  0  0  0
 64 75  1  0  0  0  0
 66 67  1  0  0  0  0
M  CHG  1  75   1
M  ISO  4  38 100  60 101  74 100  82 101
M  END
> <Batch ID>
0130

> <Smiles>
CNC(C)C(=O)NC(C(=O)N1Cc2cc([101O:1][101CH2:1]c3ccc(OCC[100NH:0][100C:0](=O)N4CCCC(n5nc(-c6ccc(Oc7ccc(F)cc7F)cc6)c(C(N)=O)c5N)C4)c(CC4CC4)c3)ccc2CC1C(=O)NC1CCCc2ccccc21)C(C)(C)C

> <Shape>
0.268

> <Color>
0.107

> <Negative vol penalty>
0.000

$$$$

  -OEChem-04052320473D

 83 91  0     1  0  0  0  0  0999 V2000
  -19.0267  -32.7787   19.7672 C   0  0  0  0  0  0  0  0  0  0  0  0
  -20.3263  -32.3763   19.4761 C   0  0  0  0  0  0  0  0  0  0  0  0
  -24.3951  -13.9554   20.9425 C   0  0  0  0  0  0  0  0  0  0  0  0
  -26.6704  -13.5700   20.2273 C   0  0  0  0  0  0  0  0  0  0  0  0
  -18.4644  -32.4727   21.0058 C   0  0  0  0  0  0  0  0  0  0  0  0
  -21.0646  -31.6686   20.4240 C   0  0  0  0  0  0  0  0  0  0  0  0
  -25.1629  -27.2472   19.3465 C   0  0  0  0  0  0  0  0  0  0  0  0
  -24.0563  -12.6561   20.5650 C   0  0  0  0  0  0  0  0  0  0  0  0
  -26.3316  -12.2706   19.8498 C   0  0  0  0  0  0  0  0  0  0  0  0
  -26.5554  -27.2553   19.2784 C   0  0  0  0  0  0  0  0  0  0  0  0
  -22.6772   -9.3217   20.1235 C   0  0  0  0  0  0  0  0  0  0  0  0
  -21.8991   -8.5721   21.0057 C   0  0  0  0  0  0  0  0  0  0  0  0
  -26.6661  -26.5457   21.5813 C   0  0  0  0  0  0  0  0  0  0  0  0
  -31.2099  -23.1712   19.6777 C   0  0  0  0  0  0  0  0  0  0  0  0
  -23.6135   -8.7810   22.6952 C   0  0  0  0  0  0  0  0  0  0  0  0
  -33.1970  -23.3400   20.9736 C   0  0  0  0  0  0  0  0  0  0  0  0
  -25.7021  -14.4124   20.7736 C   0  0  0  0  0  0  0  0  0  0  0  0
  -26.5202  -16.1804   22.4206 C   0  0  0  0  0  0  0  0  0  0  0  0
  -19.1928  -31.7526   21.9657 C   0  0  0  0  0  0  0  0  0  0  0  0
  -24.5105  -26.8983   20.5377 C   0  0  0  0  0  0  0  0  0  0  0  0
  -20.5120  -31.3540   21.6771 C   0  0  0  0  0  0  0  0  0  0  0  0
  -25.2652  -26.5315   21.6612 C   0  0  0  0  0  0  0  0  0  0  0  0
  -32.4699  -23.7300   19.8605 C   0  0  0  0  0  0  0  0  0  0  0  0
  -30.7224  -22.2525   20.6005 C   0  0  0  0  0  0  0  0  0  0  0  0
  -25.0245  -11.8137   20.0187 C   0  0  0  0  0  0  0  0  0  0  0  0
  -27.3072  -26.9073   20.3968 C   0  0  0  0  0  0  0  0  0  0  0  0
  -23.9234   -9.8009   20.5271 C   0  0  0  0  0  0  0  0  0  0  0  0
  -22.3672   -8.3017   22.2916 C   0  0  0  0  0  0  0  0  0  0  0  0
  -24.3916   -9.5306   21.8130 C   0  0  0  0  0  0  0  0  0  0  0  0
  -26.0526  -15.7547   21.1629 C   0  0  0  0  0  0  0  0  0  0  0  0
  -31.5278  -21.9285   21.6804 C   0  0  0  0  0  0  0  0  0  0  0  0
  -26.7055  -17.5339   22.2779 C   0  0  0  0  0  0  0  0  0  0  0  0
  -26.7653  -15.4204   23.6114 C   0  0  0  0  0  0  0  0  0  0  0  0
  -22.5473  -28.3936   22.5411 C   0  0  0  0  0  0  0  0  0  0  0  0
  -22.3858  -25.4741   23.9459 C   0  0  0  0  0  0  0  0  0  0  0  0
  -23.8433  -22.4369   24.4914 C   0  0  0  0  0  0  0  0  0  0  0  0
  -28.5429  -21.9200   19.3816 C   0  0  0  0  0  0  0  0  0  0  0  0
  -18.5595  -31.4864   23.3083 C   0  0  0  0  0  0  0  0  0  0  0  0
  -23.0075  -26.8686   20.5869 C   0  0  0  0  0  0  0  0  0  0  0  0
  -24.6129  -26.1295   22.9578 C   0  0  0  0  0  0  0  0  0  0  0  0
  -19.2759  -30.4078   24.1167 C   0  0  0  0  0  0  0  0  0  0  0  0
  -25.3085  -20.6763   18.5637 C   0  0  0  0  0  0  0  0  0  0  0  0
  -20.7835  -30.6399   24.0983 C   0  0  0  0  0  0  0  0  0  0  0  0
  -25.2522  -19.3201   19.2705 C   0  0  0  0  0  0  0  0  0  0  0  0
  -26.7016  -20.9698   18.0098 C   0  0  0  0  0  0  0  0  0  0  0  0
  -27.7380  -19.4968   19.6906 C   0  0  0  0  0  0  0  0  0  0  0  0
  -21.3360  -30.5631   22.6699 C   0  0  1  0  0  0  0  0  0  0  0  0
  -22.4534  -26.9939   22.0028 C   0  0  1  0  0  0  0  0  0  0  0  0
  -26.3711  -19.1856   20.3219 C   0  0  2  0  0  0  0  0  0  0  0  0
  -31.0595  -20.9475   22.7056 C   0  0  0  0  0  0  0  0  0  0  0  0
  -24.0656  -20.0733   25.3047 C   0  0  0  0  0  0  0  0  0  0  0  0
  -23.1509  -26.8324   26.5688 C   0  0  0  0  0  0  0  0  0  0  0  0
  -23.7049  -24.5738   27.4961 C   0  0  0  0  0  0  0  0  0  0  0  0
  -21.3719  -25.0872   26.7779 C   0  0  0  0  0  0  0  0  0  0  0  0
  -22.6379  -21.3493   22.0169 C   0  0  0  0  0  0  0  0  0  0  0  0
  -33.0251  -24.7247   18.8826 C   0  0  0  0  0  0  0  0  0  0  0  0
  -32.6849  -26.1737   19.2165 C   0  0  0  0  0  0  0  0  0  0  0  0
  -30.7787  -27.7535   19.5468 C   0  0  0  0  0  0  0  0  0  0  0  0
  -29.2696  -27.8477   19.4373 C   0  0  0  0  0  0  0  0  0  1  0  0
  -23.1651  -24.7626   25.0255 C   0  0  1  0  0  0  0  0  0  0  0  0
  -23.2920  -21.0251   24.4055 C   0  0  2  0  0  0  0  0  0  0  0  0
  -22.8608  -25.3234   26.4433 C   0  0  0  0  0  0  0  0  0  0  0  0
  -32.7569  -22.4505   21.8915 N   0  0  0  0  0  0  0  0  0  0  0  0
  -25.9471  -16.7566   20.2858 N   0  0  0  0  0  0  0  0  0  0  0  0
  -26.3510  -17.8253   20.9935 N   0  0  0  0  0  0  0  0  0  0  0  0
  -23.1407  -26.1222   22.9578 N   0  0  0  0  0  0  0  0  0  0  0  0
  -27.7093  -20.8272   19.0629 N   0  0  0  0  0  0  0  0  0  0  0  0
  -27.1353  -18.4912   23.1271 N   0  0  0  0  0  0  0  0  0  0  0  0
  -26.5224  -14.0403   23.5850 N   0  0  0  0  0  0  0  0  0  0  0  0
  -29.4400  -21.6770   20.4212 N   0  0  0  0  0  0  0  0  0  0  0  0
  -21.4529  -29.1841   22.2467 N   0  0  0  0  0  0  0  0  0  0  0  0
  -22.8740  -23.3416   24.8698 N   0  0  0  0  0  0  0  0  0  0  0  0
  -23.3749  -20.5209   23.0056 N   0  3  0  0  0  0  0  0  0  0  0  0
  -31.2124  -26.3830   19.1757 N   0  3  0  0  0  0  0  0  0  0  0  0
  -27.1715  -15.9521   24.6724 O   0  0  0  0  0  0  0  0  0  0  0  0
  -23.5386  -28.7308   23.1778 O   0  0  0  0  0  0  0  0  0  0  0  0
  -21.1529  -25.4497   23.9740 O   0  0  0  0  0  0  0  0  0  0  0  0
  -25.0174  -22.7093   24.2507 O   0  0  0  0  0  0  0  0  0  0  0  0
  -28.4480  -23.0013   18.7952 O   0  0  0  0  0  0  0  0  0  0  0  0
  -24.6944  -10.5456   19.6504 O   0  0  0  0  0  0  0  0  0  0  0  0
  -28.6666  -26.9150   20.3332 O   0  0  0  0  0  0  0  0  0  1  0  0
  -21.6193   -7.5832   23.1391 F   0  0  0  0  0  0  0  0  0  0  0  0
  -25.5875   -9.9893   22.2068 F   0  0  0  0  0  0  0  0  0  0  0  0
  1  2  1  0  0  0  0
  1  5  2  0  0  0  0
  2  6  2  0  0  0  0
  3  8  2  0  0  0  0
  3 17  1  0  0  0  0
  4  9  1  0  0  0  0
  4 17  2  0  0  0  0
  5 19  1  0  0  0  0
  6 21  1  0  0  0  0
  7 10  2  0  0  0  0
  7 20  1  0  0  0  0
  8 25  1  0  0  0  0
  9 25  2  0  0  0  0
 10 26  1  0  0  0  0
 11 12  2  0  0  0  0
 11 27  1  0  0  0  0
 12 28  1  0  0  0  0
 13 22  1  0  0  0  0
 13 26  2  0  0  0  0
 14 23  2  0  0  0  0
 14 24  1  0  0  0  0
 15 28  2  0  0  0  0
 15 29  1  0  0  0  0
 16 23  1  0  0  0  0
 16 63  2  0  0  0  0
 17 30  1  0  0  0  0
 18 30  1  0  0  0  0
 18 32  2  0  0  0  0
 18 33  1  0  0  0  0
 19 21  2  0  0  0  0
 19 38  1  0  0  0  0
 20 22  2  0  0  0  0
 20 39  1  0  0  0  0
 21 47  1  0  0  0  0
 22 40  1  0  0  0  0
 23 56  1  0  0  0  0
 24 31  2  0  0  0  0
 24 70  1  0  0  0  0
 25 80  1  0  0  0  0
 26 81  1  0  0  0  0
 27 29  2  0  0  0  0
 27 80  1  0  0  0  0
 28 82  1  0  0  0  0
 29 83  1  0  0  0  0
 30 64  2  0  0  0  0
 31 50  1  0  0  0  0
 31 63  1  0  0  0  0
 32 65  1  0  0  0  0
 32 68  1  0  0  0  0
 33 69  1  0  0  0  0
 33 75  2  0  0  0  0
 34 48  1  0  0  0  0
 34 71  1  0  0  0  0
 34 76  2  0  0  0  0
 35 60  1  0  0  0  0
 35 66  1  0  0  0  0
 35 77  2  0  0  0  0
 36 61  1  0  0  0  0
 36 72  1  0  0  0  0
 36 78  2  0  0  0  0
 37 67  1  0  0  0  0
 37 70  1  0  0  0  0
 37 79  2  0  0  0  0
 38 41  1  0  0  0  0
 39 48  1  0  0  0  0
 40 66  1  0  0  0  0
 41 43  1  0  0  0  0
 42 44  1  0  0  0  0
 42 45  1  0  0  0  0
 43 47  1  0  0  0  0
 44 49  1  0  0  0  0
 45 67  1  0  0  0  0
 46 49  1  0  0  0  0
 46 67  1  0  0  0  0
 47 71  1  0  0  0  0
 48 66  1  0  0  0  0
 49 65  1  0  0  0  0
 51 61  1  0  0  0  0
 52 62  1  0  0  0  0
 53 62  1  0  0  0  0
 54 62  1  0  0  0  0
 55 73  1  0  0  0  0
 56 57  1  0  0  0  0
 57 74  1  0  0  0  0
 58 59  1  0  0  0  0
 58 74  1  0  0  0  0
 59 81  1  0  0  0  0
 60 62  1  0  0  0  0
 60 72  1  0  0  0  0
 61 73  1  0  0  0  0
 64 65  1  0  0  0  0
M  CHG  2  73   1  74   1
M  ISO  4  37 100  59 101  70 100  81 101
M  END
> <Batch ID>
0130

> <Smiles>
CNC(C)C(=O)NC(C(=O)N1Cc2cc([101O:1][101CH2:1]CNCCc3cnc(C)c([100NH:0][100C:0](=O)N4CCCC(n5nc(-c6ccc(Oc7ccc(F)cc7F)cc6)c(C(N)=O)c5N)C4)c3)ccc2CC1C(=O)NC1CCCc2ccccc21)C(C)(C)C

> <Shape>
0.198

> <Color>
0.104

> <Negative vol penalty>
0.000

$$$$

  -OEChem-04052320473D

 86 95  0     1  0  0  0  0  0999 V2000
  -37.3814  -16.6313   23.4491 C   0  0  0  0  0  0  0  0  0  0  0  0
  -36.4208  -17.2835   22.6828 C   0  0  0  0  0  0  0  0  0  0  0  0
  -19.8109  -24.4095   19.6220 C   0  0  0  0  0  0  0  0  0  0  0  0
  -21.9699  -23.5278   20.2530 C   0  0  0  0  0  0  0  0  0  0  0  0
  -37.3704  -15.2402   23.5425 C   0  0  0  0  0  0  0  0  0  0  0  0
  -35.4492  -16.5448   22.0085 C   0  0  0  0  0  0  0  0  0  0  0  0
  -30.8123  -18.5175   22.5114 C   0  0  0  0  0  0  0  0  0  0  0  0
  -19.8478  -23.6591   18.4469 C   0  0  0  0  0  0  0  0  0  0  0  0
  -22.0069  -22.7772   19.0779 C   0  0  0  0  0  0  0  0  0  0  0  0
  -30.5037  -19.6271   21.7257 C   0  0  0  0  0  0  0  0  0  0  0  0
  -19.5374  -22.2503   15.1088 C   0  0  0  0  0  0  0  0  0  0  0  0
  -19.1647  -22.8818   13.9223 C   0  0  0  0  0  0  0  0  0  0  0  0
  -29.3256  -18.1976   20.1804 C   0  0  0  0  0  0  0  0  0  0  0  0
  -20.9428  -24.4902   14.2197 C   0  0  0  0  0  0  0  0  0  0  0  0
  -20.8720  -24.3439   20.5251 C   0  0  0  0  0  0  0  0  0  0  0  0
  -20.3098  -24.7246   22.9841 C   0  0  0  0  0  0  0  0  0  0  0  0
  -36.3924  -14.4847   22.8767 C   0  0  0  0  0  0  0  0  0  0  0  0
  -30.3884  -17.2360   22.1312 C   0  0  0  0  0  0  0  0  0  0  0  0
  -35.4259  -15.1422   22.0919 C   0  0  0  0  0  0  0  0  0  0  0  0
  -29.6279  -17.0737   20.9643 C   0  0  0  0  0  0  0  0  0  0  0  0
  -20.9458  -22.8429   18.1748 C   0  0  0  0  0  0  0  0  0  0  0  0
  -29.7628  -19.4669   20.5585 C   0  0  0  0  0  0  0  0  0  0  0  0
  -20.6128  -22.7388   15.8509 C   0  0  0  0  0  0  0  0  0  0  0  0
  -19.8674  -24.0017   13.4777 C   0  0  0  0  0  0  0  0  0  0  0  0
  -21.3155  -23.8587   15.4063 C   0  0  0  0  0  0  0  0  0  0  0  0
  -20.8347  -25.1194   21.7390 C   0  0  0  0  0  0  0  0  0  0  0  0
  -20.5144  -25.8087   23.8023 C   0  0  0  0  0  0  0  0  0  0  0  0
  -19.6925  -23.4884   23.3670 C   0  0  0  0  0  0  0  0  0  0  0  0
  -31.8569  -14.5239   21.3619 C   0  0  0  0  0  0  0  0  0  0  0  0
  -28.8329  -13.3505   21.3303 C   0  0  0  0  0  0  0  0  0  0  0  0
  -25.4915  -13.9614   21.0007 C   0  0  0  0  0  0  0  0  0  0  0  0
  -23.2769  -29.0197   20.2642 C   0  0  0  0  0  0  0  0  0  0  0  0
  -36.4495  -12.9804   22.9692 C   0  0  0  0  0  0  0  0  0  0  0  0
  -30.7066  -16.0528   23.0037 C   0  0  0  0  0  0  0  0  0  0  0  0
  -29.1317  -15.7220   20.5227 C   0  0  0  0  0  0  0  0  0  0  0  0
  -35.1600  -12.2936   22.5269 C   0  0  0  0  0  0  0  0  0  0  0  0
  -20.2099  -29.7016   21.9660 C   0  0  0  0  0  0  0  0  0  0  0  0
  -26.8720  -29.3081   20.6402 C   0  0  0  0  0  0  0  0  0  0  0  0
  -34.6635  -12.8861   21.2118 C   0  0  0  0  0  0  0  0  0  0  0  0
  -25.3871  -23.8144   14.7564 C   0  0  0  0  0  0  0  0  0  0  0  0
  -25.1439  -25.2802   14.5280 C   0  0  0  0  0  0  0  0  0  0  0  0
  -20.4136  -29.1524   23.3736 C   0  0  0  0  0  0  0  0  0  0  0  0
  -26.8299  -28.2011   19.5962 C   0  0  0  0  0  0  0  0  0  0  0  0
  -21.5057  -30.2871   21.4264 C   0  0  0  0  0  0  0  0  0  0  0  0
  -25.5604  -29.1126   21.3849 C   0  0  0  0  0  0  0  0  0  0  0  0
  -22.8482  -28.6656   22.7510 C   0  0  0  0  0  0  0  0  0  0  0  0
  -34.3407  -14.3773   21.3657 C   0  0  1  0  0  0  0  0  0  0  0  0
  -30.6628  -14.7265   22.2511 C   0  0  1  0  0  0  0  0  0  0  0  0
  -25.9675  -24.8290   15.7022 C   0  0  0  0  0  0  0  0  0  0  0  0
  -21.5718  -28.1448   23.4512 C   0  0  2  0  0  0  0  0  0  0  0  0
  -25.3559  -28.1632   19.1834 C   0  0  1  0  0  0  0  0  0  0  0  0
  -23.2684  -12.7974   20.9842 C   0  0  0  0  0  0  0  0  0  0  0  0
  -29.3953  -12.3214   18.5135 C   0  0  0  0  0  0  0  0  0  0  0  0
  -26.9279  -12.0355   18.2005 C   0  0  0  0  0  0  0  0  0  0  0  0
  -28.1179  -10.7373   19.9672 C   0  0  0  0  0  0  0  0  0  0  0  0
  -24.5393  -15.4976   23.3443 C   0  0  0  0  0  0  0  0  0  0  0  0
  -24.9166  -26.7644   18.7703 C   0  0  0  0  0  0  0  0  0  0  0  0
  -26.0604  -23.9363   18.0650 C   0  0  0  0  0  0  0  0  0  0  0  0
  -27.5818  -23.9872   18.1729 C   0  0  0  0  0  0  0  0  0  0  0  0
  -29.5595  -22.8898   19.2326 C   0  0  0  0  0  0  0  0  0  0  0  0
  -29.9338  -21.8169   20.2361 C   0  0  0  0  0  0  0  0  0  1  0  0
  -27.7485  -13.2177   20.2885 C   0  0  1  0  0  0  0  0  0  0  0  0
  -24.3004  -13.5230   21.8335 C   0  0  2  0  0  0  0  0  0  0  0  0
  -25.4203  -24.9598   17.1184 C   0  0  1  0  0  0  0  0  0  0  0  0
  -28.0582  -12.1033   19.2494 C   0  0  0  0  0  0  0  0  0  0  0  0
  -21.3350  -26.3576   21.7595 N   0  0  0  0  0  0  0  0  0  0  0  0
  -21.1253  -26.7503   23.0275 N   0  0  0  0  0  0  0  0  0  0  0  0
  -29.4740  -14.5951   21.4062 N   0  0  0  0  0  0  0  0  0  0  0  0
  -22.5994  -29.3158   21.4563 N   0  0  0  0  0  0  0  0  0  0  0  0
  -24.6240  -28.6619   20.3540 N   0  0  0  0  0  0  0  0  0  0  0  0
  -20.2294  -26.0388   25.1016 N   0  0  0  0  0  0  0  0  0  0  0  0
  -19.5617  -22.4800   22.4024 N   0  0  0  0  0  0  0  0  0  0  0  0
  -33.0666  -14.5527   22.0292 N   0  0  0  0  0  0  0  0  0  0  0  0
  -26.5014  -13.0228   21.0200 N   0  0  0  0  0  0  0  0  0  0  0  0
  -23.6449  -14.7045   22.4622 N   0  3  0  0  0  0  0  0  0  0  0  0
  -25.7095  -26.3418   17.5964 N   0  3  0  0  0  0  0  0  0  0  0  0
  -28.0766  -22.9509   19.1084 N   0  3  0  0  0  0  0  0  0  0  0  0
  -19.2547  -23.2902   24.5256 O   0  0  0  0  0  0  0  0  0  0  0  0
  -31.6928  -14.3525   20.1597 O   0  0  0  0  0  0  0  0  0  0  0  0
  -29.0963  -12.3878   22.0551 O   0  0  0  0  0  0  0  0  0  0  0  0
  -25.5215  -15.0281   20.3909 O   0  0  0  0  0  0  0  0  0  0  0  0
  -22.7066  -29.0819   19.1669 O   0  0  0  0  0  0  0  0  0  0  0  0
  -20.9820  -22.1103   17.0283 O   0  0  0  0  0  0  0  0  0  0  0  0
  -29.4586  -20.5559   19.7838 O   0  0  0  0  0  0  0  0  0  1  0  0
  -19.5103  -24.6071   12.3374 F   0  0  0  0  0  0  0  0  0  0  0  0
  -22.3503  -24.3318   16.1143 F   0  0  0  0  0  0  0  0  0  0  0  0
  1  2  1  0  0  0  0
  1  5  2  0  0  0  0
  2  6  2  0  0  0  0
  3  8  2  0  0  0  0
  3 15  1  0  0  0  0
  4  9  1  0  0  0  0
  4 15  2  0  0  0  0
  5 17  1  0  0  0  0
  6 19  1  0  0  0  0
  7 10  2  0  0  0  0
  7 18  1  0  0  0  0
  8 21  1  0  0  0  0
  9 21  2  0  0  0  0
 10 22  1  0  0  0  0
 11 12  2  0  0  0  0
 11 23  1  0  0  0  0
 12 24  1  0  0  0  0
 13 20  1  0  0  0  0
 13 22  2  0  0  0  0
 14 24  2  0  0  0  0
 14 25  1  0  0  0  0
 15 26  1  0  0  0  0
 16 26  1  0  0  0  0
 16 27  2  0  0  0  0
 16 28  1  0  0  0  0
 17 19  2  0  0  0  0
 17 33  1  0  0  0  0
 18 20  2  0  0  0  0
 18 34  1  0  0  0  0
 19 47  1  0  0  0  0
 20 35  1  0  0  0  0
 21 83  1  0  0  0  0
 22 84  1  0  0  0  0
 23 25  2  0  0  0  0
 23 83  1  0  0  0  0
 24 85  1  0  0  0  0
 25 86  1  0  0  0  0
 26 66  2  0  0  0  0
 27 67  1  0  0  0  0
 27 71  1  0  0  0  0
 28 72  1  0  0  0  0
 28 78  2  0  0  0  0
 29 48  1  0  0  0  0
 29 73  1  0  0  0  0
 29 79  2  0  0  0  0
 30 62  1  0  0  0  0
 30 68  1  0  0  0  0
 30 80  2  0  0  0  0
 31 63  1  0  0  0  0
 31 74  1  0  0  0  0
 31 81  2  0  0  0  0
 32 69  1  0  0  0  0
 32 70  1  0  0  0  0
 32 82  2  0  0  0  0
 33 36  1  0  0  0  0
 34 48  1  0  0  0  0
 35 68  1  0  0  0  0
 36 39  1  0  0  0  0
 37 42  1  0  0  0  0
 37 44  1  0  0  0  0
 38 43  1  0  0  0  0
 38 45  1  0  0  0  0
 39 47  1  0  0  0  0
 40 41  1  0  0  0  0
 40 49  1  0  0  0  0
 41 49  1  0  0  0  0
 42 50  1  0  0  0  0
 43 51  1  0  0  0  0
 44 69  1  0  0  0  0
 45 70  1  0  0  0  0
 46 50  1  0  0  0  0
 46 69  1  0  0  0  0
 47 73  1  0  0  0  0
 48 68  1  0  0  0  0
 49 64  1  0  0  0  0
 50 67  1  0  0  0  0
 51 57  1  0  0  0  0
 51 70  1  0  0  0  0
 52 63  1  0  0  0  0
 53 65  1  0  0  0  0
 54 65  1  0  0  0  0
 55 65  1  0  0  0  0
 56 75  1  0  0  0  0
 57 76  1  0  0  0  0
 58 59  1  0  0  0  0
 58 64  1  0  0  0  0
 59 77  1  0  0  0  0
 60 61  1  0  0  0  0
 60 77  1  0  0  0  0
 61 84  1  0  0  0  0
 62 65  1  0  0  0  0
 62 74  1  0  0  0  0
 63 75  1  0  0  0  0
 64 76  1  0  0  0  0
 66 67  1  0  0  0  0
M  CHG  3  75   1  76   1  77   1
M  ISO  4  32 100  61 101  70 100  84 101
M  END
> <Batch ID>
0130

> <Smiles>
CNC(C)C(=O)NC(C(=O)N1Cc2cc([101O:1][101CH2:1]CNCCC(NCC3CCC[100N:0]3[100C:0](=O)N3CCCC(n4nc(-c5ccc(Oc6ccc(F)cc6F)cc5)c(C(N)=O)c4N)C3)C3CC3)ccc2CC1C(=O)NC1CCCc2ccccc21)C(C)(C)C

> <Shape>
0.231

> <Color>
0.067

> <Negative vol penalty>
0.000

$$$$

  -OEChem-04052320473D

 83 91  0     1  0  0  0  0  0999 V2000
  -18.8341  -14.3783   24.5177 C   0  0  0  0  0  0  0  0  0  0  0  0
  -19.8951  -15.0295   23.8967 C   0  0  0  0  0  0  0  0  0  0  0  0
  -23.0728   -9.8698   19.9430 C   0  0  0  0  0  0  0  0  0  0  0  0
  -23.8341   -9.8788   22.2360 C   0  0  0  0  0  0  0  0  0  0  0  0
  -17.8128  -15.1201   25.1098 C   0  0  0  0  0  0  0  0  0  0  0  0
  -19.9349  -16.4230   23.8666 C   0  0  0  0  0  0  0  0  0  0  0  0
  -24.5164  -18.2605   24.9972 C   0  0  0  0  0  0  0  0  0  0  0  0
  -22.3292   -8.7168   20.1944 C   0  0  0  0  0  0  0  0  0  0  0  0
  -23.0904   -8.7258   22.4874 C   0  0  0  0  0  0  0  0  0  0  0  0
  -25.4845  -18.2184   23.9948 C   0  0  0  0  0  0  0  0  0  0  0  0
  -19.3819   -7.9212   21.6481 C   0  0  0  0  0  0  0  0  0  0  0  0
  -18.0747   -7.8745   21.1636 C   0  0  0  0  0  0  0  0  0  0  0  0
  -25.0771  -20.5465   23.5120 C   0  0  0  0  0  0  0  0  0  0  0  0
  -18.6338   -5.9303   19.8427 C   0  0  0  0  0  0  0  0  0  0  0  0
  -23.8253  -10.4508   20.9638 C   0  0  0  0  0  0  0  0  0  0  0  0
  -24.1669  -12.9759   20.8415 C   0  0  0  0  0  0  0  0  0  0  0  0
  -17.8450  -16.5235   25.0954 C   0  0  0  0  0  0  0  0  0  0  0  0
  -23.8125  -19.4451   25.2577 C   0  0  0  0  0  0  0  0  0  0  0  0
  -18.9124  -17.1843   24.4579 C   0  0  0  0  0  0  0  0  0  0  0  0
  -24.1024  -20.6017   24.5199 C   0  0  0  0  0  0  0  0  0  0  0  0
  -22.3380   -8.1448   21.4665 C   0  0  0  0  0  0  0  0  0  0  0  0
  -25.7629  -19.3607   23.2500 C   0  0  0  0  0  0  0  0  0  0  0  0
  -20.3151   -6.9726   21.2298 C   0  0  0  0  0  0  0  0  0  0  0  0
  -17.7007   -6.8790   20.2609 C   0  0  0  0  0  0  0  0  0  0  0  0
  -19.9410   -5.9771   20.3271 C   0  0  0  0  0  0  0  0  0  0  0  0
  -24.5942  -11.6415   20.7046 C   0  0  0  0  0  0  0  0  0  0  0  0
  -25.2588  -13.7251   20.4769 C   0  0  0  0  0  0  0  0  0  0  0  0
  -22.8966  -13.4919   21.2607 C   0  0  0  0  0  0  0  0  0  0  0  0
  -20.7583  -20.3154   25.1227 C   0  0  0  0  0  0  0  0  0  0  0  0
  -21.8856  -23.0573   26.4394 C   0  0  0  0  0  0  0  0  0  0  0  0
  -24.5281  -25.1581   26.9400 C   0  0  0  0  0  0  0  0  0  0  0  0
  -30.7425  -14.7448   20.6612 C   0  0  0  0  0  0  0  0  0  0  0  0
  -16.6943  -17.2823   25.7074 C   0  0  0  0  0  0  0  0  0  0  0  0
  -22.7902  -19.4812   26.3603 C   0  0  0  0  0  0  0  0  0  0  0  0
  -23.3892  -21.9038   24.7739 C   0  0  0  0  0  0  0  0  0  0  0  0
  -17.0018  -18.7562   25.9591 C   0  0  0  0  0  0  0  0  0  0  0  0
  -29.6038  -12.3582   18.2771 C   0  0  0  0  0  0  0  0  0  0  0  0
  -17.6671  -19.3792   24.7359 C   0  0  0  0  0  0  0  0  0  0  0  0
  -28.1189  -19.9377   17.7246 C   0  0  0  0  0  0  0  0  0  0  0  0
  -28.1666  -12.0647   18.7111 C   0  0  0  0  0  0  0  0  0  0  0  0
  -29.0826  -19.1220   18.5917 C   0  0  0  0  0  0  0  0  0  0  0  0
  -30.5216  -12.5801   19.4773 C   0  0  0  0  0  0  0  0  0  0  0  0
  -28.6206  -13.3121   20.8644 C   0  0  0  0  0  0  0  0  0  0  0  0
  -19.0038  -18.6945   24.4262 C   0  0  1  0  0  0  0  0  0  0  0  0
  -21.7714  -20.6045   26.1941 C   0  0  1  0  0  0  0  0  0  0  0  0
  -27.0022  -20.4321   18.6627 C   0  0  2  0  0  0  0  0  0  0  0  0
  -27.1497  -19.5720   19.9304 C   0  0  1  0  0  0  0  0  0  0  0  0
  -27.6457  -13.1365   19.6875 C   0  0  2  0  0  0  0  0  0  0  0  0
  -28.6670  -19.4317   20.0211 C   0  0  1  0  0  0  0  0  0  0  0  0
  -25.1329  -27.3392   28.0236 C   0  0  0  0  0  0  0  0  0  0  0  0
  -25.5480  -21.2237   16.7753 C   0  0  0  0  0  0  0  0  0  0  0  0
  -25.2766  -18.8969   17.6784 C   0  0  0  0  0  0  0  0  0  0  0  0
  -20.5216  -24.5636   24.1633 C   0  0  0  0  0  0  0  0  0  0  0  0
  -21.9186  -26.5596   24.7400 C   0  0  0  0  0  0  0  0  0  0  0  0
  -20.3044  -25.6452   26.4077 C   0  0  0  0  0  0  0  0  0  0  0  0
  -26.4902  -23.8563   28.7329 C   0  0  0  0  0  0  0  0  0  0  0  0
  -26.5255  -20.1985   21.1590 C   0  0  0  0  0  0  0  0  0  1  0  0
  -30.8089  -16.8964   21.8963 C   0  0  0  0  0  0  0  0  0  0  0  0
  -30.5262  -18.0386   20.9384 C   0  0  0  0  0  0  0  0  0  0  0  0
  -22.4220  -24.3609   25.8992 C   0  0  1  0  0  0  0  0  0  0  0  0
  -25.0573  -25.8299   28.1942 C   0  0  2  0  0  0  0  0  0  0  0  0
  -25.6232  -20.3451   18.0241 C   0  0  0  0  0  0  0  0  0  0  0  0
  -21.3039  -25.2574   25.2962 C   0  0  0  0  0  0  0  0  0  0  0  0
  -25.8588  -11.5454   20.2857 N   0  0  0  0  0  0  0  0  0  0  0  0
  -26.2355  -12.8289   20.1561 N   0  0  0  0  0  0  0  0  0  0  0  0
  -22.3937  -21.8868   25.8584 N   0  0  0  0  0  0  0  0  0  0  0  0
  -29.9714  -13.6093   20.3627 N   0  0  0  0  0  0  0  0  0  0  0  0
  -25.4690  -15.0565   20.4027 N   0  0  0  0  0  0  0  0  0  0  0  0
  -21.8850  -12.5830   21.5993 N   0  0  0  0  0  0  0  0  0  0  0  0
  -20.0316  -19.1591   25.3330 N   0  0  0  0  0  0  0  0  0  0  0  0
  -23.1615  -24.9824   26.9925 N   0  0  0  0  0  0  0  0  0  0  0  0
  -30.1438  -15.6742   21.5028 N   0  0  0  0  0  0  0  0  0  0  0  0
  -29.0658  -18.3434   20.9334 N   0  3  0  0  0  0  0  0  0  0  0  0
  -26.4217  -25.3244   28.5163 N   0  3  0  0  0  0  0  0  0  0  0  0
  -22.6603  -14.7226   21.3171 O   0  0  0  0  0  0  0  0  0  0  0  0
  -20.6434  -21.0852   24.1763 O   0  0  0  0  0  0  0  0  0  0  0  0
  -21.0519  -23.0767   27.3484 O   0  0  0  0  0  0  0  0  0  0  0  0
  -25.2540  -24.8260   26.0054 O   0  0  0  0  0  0  0  0  0  0  0  0
  -31.8782  -14.9199   20.2068 O   0  0  0  0  0  0  0  0  0  0  0  0
  -21.6122   -7.0199   21.7122 O   0  0  0  0  0  0  0  0  0  0  0  0
  -26.7069  -19.3222   22.2706 O   0  0  0  0  0  0  0  0  0  1  0  0
  -16.4449   -6.8333   19.7970 F   0  0  0  0  0  0  0  0  0  0  0  0
  -20.8328   -5.0623   19.9225 F   0  0  0  0  0  0  0  0  0  0  0  0
  1  2  1  0  0  0  0
  1  5  2  0  0  0  0
  2  6  2  0  0  0  0
  3  8  2  0  0  0  0
  3 15  1  0  0  0  0
  4  9  1  0  0  0  0
  4 15  2  0  0  0  0
  5 17  1  0  0  0  0
  6 19  1  0  0  0  0
  7 10  2  0  0  0  0
  7 18  1  0  0  0  0
  8 21  1  0  0  0  0
  9 21  2  0  0  0  0
 10 22  1  0  0  0  0
 11 12  2  0  0  0  0
 11 23  1  0  0  0  0
 12 24  1  0  0  0  0
 13 20  1  0  0  0  0
 13 22  2  0  0  0  0
 14 24  2  0  0  0  0
 14 25  1  0  0  0  0
 15 26  1  0  0  0  0
 16 26  1  0  0  0  0
 16 27  2  0  0  0  0
 16 28  1  0  0  0  0
 17 19  2  0  0  0  0
 17 33  1  0  0  0  0
 18 20  2  0  0  0  0
 18 34  1  0  0  0  0
 19 44  1  0  0  0  0
 20 35  1  0  0  0  0
 21 80  1  0  0  0  0
 22 81  1  0  0  0  0
 23 25  2  0  0  0  0
 23 80  1  0  0  0  0
 24 82  1  0  0  0  0
 25 83  1  0  0  0  0
 26 64  2  0  0  0  0
 27 65  1  0  0  0  0
 27 68  1  0  0  0  0
 28 69  1  0  0  0  0
 28 75  2  0  0  0  0
 29 45  1  0  0  0  0
 29 70  1  0  0  0  0
 29 76  2  0  0  0  0
 30 60  1  0  0  0  0
 30 66  1  0  0  0  0
 30 77  2  0  0  0  0
 31 61  1  0  0  0  0
 31 71  1  0  0  0  0
 31 78  2  0  0  0  0
 32 67  1  0  0  0  0
 32 72  1  0  0  0  0
 32 79  2  0  0  0  0
 33 36  1  0  0  0  0
 34 45  1  0  0  0  0
 35 66  1  0  0  0  0
 36 38  1  0  0  0  0
 37 40  1  0  0  0  0
 37 42  1  0  0  0  0
 38 44  1  0  0  0  0
 39 41  1  0  0  0  0
 39 46  1  0  0  0  0
 40 48  1  0  0  0  0
 41 49  1  0  0  0  0
 42 67  1  0  0  0  0
 43 48  1  0  0  0  0
 43 67  1  0  0  0  0
 44 70  1  0  0  0  0
 45 66  1  0  0  0  0
 46 47  1  0  0  0  0
 46 62  1  0  0  0  0
 47 49  1  0  0  0  0
 47 57  1  0  0  0  0
 48 65  1  0  0  0  0
 49 73  1  0  0  0  0
 50 61  1  0  0  0  0
 51 62  1  0  0  0  0
 52 62  1  0  0  0  0
 53 63  1  0  0  0  0
 54 63  1  0  0  0  0
 55 63  1  0  0  0  0
 56 74  1  0  0  0  0
 57 81  1  0  0  0  0
 58 59  1  0  0  0  0
 58 72  1  0  0  0  0
 59 73  1  0  0  0  0
 60 63  1  0  0  0  0
 60 71  1  0  0  0  0
 61 74  1  0  0  0  0
 64 65  1  0  0  0  0
M  CHG  2  73   1  74   1
M  ISO  4  32 100  57 101  72 100  81 101
M  END
> <Batch ID>
0130

> <Smiles>
CNC(C)C(=O)NC(C(=O)N1Cc2cc([101O:1][101CH2:1]C3C(NCC[100NH:0][100C:0](=O)N4CCCC(n5nc(-c6ccc(Oc7ccc(F)cc7F)cc6)c(C(N)=O)c5N)C4)CCC3C(C)C)ccc2CC1C(=O)NC1CCCc2ccccc21)C(C)(C)C

> <Shape>
0.178

> <Color>
0.187

> <Negative vol penalty>
0.000

$$$$

  -OEChem-04052320473D

 85 93  0     1  0  0  0  0  0999 V2000
  -21.4763   -7.5391   24.1215 C   0  0  0  0  0  0  0  0  0  0  0  0
  -22.4111   -8.4803   24.5405 C   0  0  0  0  0  0  0  0  0  0  0  0
  -22.0440  -28.1813   21.0683 C   0  0  0  0  0  0  0  0  0  0  0  0
  -23.5316  -28.2841   22.9692 C   0  0  0  0  0  0  0  0  0  0  0  0
  -21.4195   -7.1641   22.7798 C   0  0  0  0  0  0  0  0  0  0  0  0
  -23.2905   -9.0463   23.6181 C   0  0  0  0  0  0  0  0  0  0  0  0
  -23.7221  -14.0617   24.1702 C   0  0  0  0  0  0  0  0  0  0  0  0
  -28.0317  -21.3753   26.2332 C   0  0  0  0  0  0  0  0  0  0  0  0
  -28.3999  -22.3219   25.2772 C   0  0  0  0  0  0  0  0  0  0  0  0
  -20.9470  -28.1409   21.9289 C   0  0  0  0  0  0  0  0  0  0  0  0
  -22.4347  -28.2438   23.8298 C   0  0  0  0  0  0  0  0  0  0  0  0
  -24.5291  -14.5206   25.2103 C   0  0  0  0  0  0  0  0  0  0  0  0
  -19.1541  -30.3271   23.7833 C   0  0  0  0  0  0  0  0  0  0  0  0
  -18.0646  -31.1449   23.4837 C   0  0  0  0  0  0  0  0  0  0  0  0
  -26.3191  -14.9114   23.6411 C   0  0  0  0  0  0  0  0  0  0  0  0
  -29.9175  -20.7269   24.2822 C   0  0  0  0  0  0  0  0  0  0  0  0
  -16.6464  -29.1958   23.3204 C   0  0  0  0  0  0  0  0  0  0  0  0
  -23.3363  -28.2528   21.5884 C   0  0  0  0  0  0  0  0  0  0  0  0
  -25.0838  -29.4389   20.1577 C   0  0  0  0  0  0  0  0  0  0  0  0
  -22.2922   -7.7329   21.8388 C   0  0  0  0  0  0  0  0  0  0  0  0
  -24.2121  -14.0138   22.8572 C   0  0  0  0  0  0  0  0  0  0  0  0
  -23.2462   -8.6776   22.2628 C   0  0  0  0  0  0  0  0  0  0  0  0
  -25.5155  -14.4538   22.5857 C   0  0  0  0  0  0  0  0  0  0  0  0
  -28.6065  -20.1044   26.2137 C   0  0  0  0  0  0  0  0  0  0  0  0
  -29.5494  -19.7803   25.2382 C   0  0  0  0  0  0  0  0  0  0  0  0
  -29.3427  -21.9978   24.3017 C   0  0  0  0  0  0  0  0  0  0  0  0
  -21.1424  -28.1722   23.3097 C   0  0  0  0  0  0  0  0  0  0  0  0
  -25.8288  -14.9428   24.9463 C   0  0  0  0  0  0  0  0  0  0  0  0
  -18.9898  -28.9436   23.8514 C   0  0  0  0  0  0  0  0  0  0  0  0
  -16.8108  -30.5793   23.2523 C   0  0  0  0  0  0  0  0  0  0  0  0
  -17.7360  -28.3780   23.6200 C   0  0  0  0  0  0  0  0  0  0  0  0
  -24.4698  -28.2940   20.6999 C   0  0  0  0  0  0  0  0  0  0  0  0
  -26.1068  -28.9464   19.3847 C   0  0  0  0  0  0  0  0  0  0  0  0
  -24.7586  -30.8237   20.3367 C   0  0  0  0  0  0  0  0  0  0  0  0
  -24.7199  -11.7021   20.7354 C   0  0  0  0  0  0  0  0  0  0  0  0
  -25.4098  -14.1901   18.7715 C   0  0  0  0  0  0  0  0  0  0  0  0
  -26.4162  -17.4352   18.4508 C   0  0  0  0  0  0  0  0  0  0  0  0
  -29.2540  -23.8553   19.5486 C   0  0  0  0  0  0  0  0  0  0  0  0
  -22.2245   -7.2610   20.4080 C   0  0  0  0  0  0  0  0  0  0  0  0
  -23.3199  -13.5412   21.7422 C   0  0  0  0  0  0  0  0  0  0  0  0
  -26.0821  -14.4415   21.1903 C   0  0  0  0  0  0  0  0  0  0  0  0
  -22.9424   -8.1849   19.4274 C   0  0  0  0  0  0  0  0  0  0  0  0
  -27.3436  -25.1041   16.8160 C   0  0  0  0  0  0  0  0  0  0  0  0
  -24.3180   -8.5676   19.9639 C   0  0  0  0  0  0  0  0  0  0  0  0
  -26.4459  -26.1666   17.4526 C   0  0  0  0  0  0  0  0  0  0  0  0
  -27.5548  -23.9122   17.7469 C   0  0  0  0  0  0  0  0  0  0  0  0
  -27.1521  -25.3200   19.7293 C   0  0  0  0  0  0  0  0  0  0  0  0
  -24.2006   -9.3323   21.2879 C   0  0  1  0  0  0  0  0  0  0  0  0
  -24.0954  -13.0522   20.5229 C   0  0  1  0  0  0  0  0  0  0  0  0
  -26.9553  -26.5670   18.8502 C   0  0  2  0  0  0  0  0  0  0  0  0
  -30.1792  -18.4266   25.1985 C   0  0  0  0  0  0  0  0  0  0  0  0
  -26.9237  -19.1782   16.7182 C   0  0  0  0  0  0  0  0  0  0  0  0
  -28.0699  -12.8195   18.1756 C   0  0  0  0  0  0  0  0  0  0  0  0
  -28.8982  -14.9887   17.2393 C   0  0  0  0  0  0  0  0  0  0  0  0
  -26.9523  -13.8387   16.1840 C   0  0  0  0  0  0  0  0  0  0  0  0
  -24.2885  -19.2266   19.4621 C   0  0  0  0  0  0  0  0  0  0  0  0
  -28.1954  -19.1035   27.2531 C   0  0  0  0  0  0  0  0  0  0  0  0
  -30.6731  -22.6898   22.3076 C   0  0  0  0  0  0  0  0  0  0  0  0
  -30.8720  -23.9158   21.4294 C   0  0  0  0  0  0  0  0  0  0  0  0
  -26.9115  -17.0109   27.7125 C   0  0  0  0  0  0  0  0  0  0  0  0
  -25.9667  -16.0194   27.0624 C   0  0  0  0  0  0  0  0  0  1  0  0
  -26.6580  -14.9664   18.4276 C   0  0  1  0  0  0  0  0  0  0  0  0
  -25.8610  -18.5856   17.6305 C   0  0  2  0  0  0  0  0  0  0  0  0
  -27.6349  -14.1519   17.5333 C   0  0  0  0  0  0  0  0  0  0  0  0
  -25.0539  -27.1596   20.3048 N   0  0  0  0  0  0  0  0  0  0  0  0
  -26.0456  -27.5893   19.5060 N   0  0  0  0  0  0  0  0  0  0  0  0
  -25.1729  -13.9647   20.1350 N   0  0  0  0  0  0  0  0  0  0  0  0
  -28.0398  -24.3601   19.0547 N   0  0  0  0  0  0  0  0  0  0  0  0
  -27.0438  -29.5461   18.6199 N   0  0  0  0  0  0  0  0  0  0  0  0
  -23.6770  -31.1544   21.1644 N   0  0  0  0  0  0  0  0  0  0  0  0
  -29.7139  -22.9550   23.3347 N   0  0  0  0  0  0  0  0  0  0  0  0
  -23.8141  -10.7058   21.0456 N   0  0  0  0  0  0  0  0  0  0  0  0
  -26.2080  -16.2203   17.8329 N   0  0  0  0  0  0  0  0  0  0  0  0
  -29.6440  -24.3365   20.7924 N   0  0  0  0  0  0  0  0  0  0  0  0
  -25.3560  -19.6642   18.5263 N   0  3  0  0  0  0  0  0  0  0  0  0
  -27.2883  -18.0506   26.7218 N   0  3  0  0  0  0  0  0  0  0  0  0
  -25.3977  -31.7400   19.7662 O   0  0  0  0  0  0  0  0  0  0  0  0
  -25.9335  -11.5736   20.6245 O   0  0  0  0  0  0  0  0  0  0  0  0
  -24.6684  -13.8042   17.8643 O   0  0  0  0  0  0  0  0  0  0  0  0
  -26.9815  -17.5985   19.5298 O   0  0  0  0  0  0  0  0  0  0  0  0
  -29.9424  -23.0405   18.9247 O   0  0  0  0  0  0  0  0  0  0  0  0
  -20.0722  -28.1331   24.1498 O   0  0  0  0  0  0  0  0  0  0  0  0
  -26.6188  -15.3906   25.9598 O   0  0  0  0  0  0  0  0  0  1  0  0
  -15.7643  -31.3649   22.9660 F   0  0  0  0  0  0  0  0  0  0  0  0
  -17.5717  -27.0496   23.6852 F   0  0  0  0  0  0  0  0  0  0  0  0
  1  2  1  0  0  0  0
  1  5  2  0  0  0  0
  2  6  2  0  0  0  0
  3 10  2  0  0  0  0
  3 18  1  0  0  0  0
  4 11  1  0  0  0  0
  4 18  2  0  0  0  0
  5 20  1  0  0  0  0
  6 22  1  0  0  0  0
  7 12  2  0  0  0  0
  7 21  1  0  0  0  0
  8  9  2  0  0  0  0
  8 24  1  0  0  0  0
  9 26  1  0  0  0  0
 10 27  1  0  0  0  0
 11 27  2  0  0  0  0
 12 28  1  0  0  0  0
 13 14  2  0  0  0  0
 13 29  1  0  0  0  0
 14 30  1  0  0  0  0
 15 23  1  0  0  0  0
 15 28  2  0  0  0  0
 16 25  1  0  0  0  0
 16 26  2  0  0  0  0
 17 30  2  0  0  0  0
 17 31  1  0  0  0  0
 18 32  1  0  0  0  0
 19 32  1  0  0  0  0
 19 33  2  0  0  0  0
 19 34  1  0  0  0  0
 20 22  2  0  0  0  0
 20 39  1  0  0  0  0
 21 23  2  0  0  0  0
 21 40  1  0  0  0  0
 22 48  1  0  0  0  0
 23 41  1  0  0  0  0
 24 25  2  0  0  0  0
 24 57  1  0  0  0  0
 25 51  1  0  0  0  0
 26 71  1  0  0  0  0
 27 82  1  0  0  0  0
 28 83  1  0  0  0  0
 29 31  2  0  0  0  0
 29 82  1  0  0  0  0
 30 84  1  0  0  0  0
 31 85  1  0  0  0  0
 32 65  2  0  0  0  0
 33 66  1  0  0  0  0
 33 69  1  0  0  0  0
 34 70  1  0  0  0  0
 34 77  2  0  0  0  0
 35 49  1  0  0  0  0
 35 72  1  0  0  0  0
 35 78  2  0  0  0  0
 36 62  1  0  0  0  0
 36 67  1  0  0  0  0
 36 79  2  0  0  0  0
 37 63  1  0  0  0  0
 37 73  1  0  0  0  0
 37 80  2  0  0  0  0
 38 68  1  0  0  0  0
 38 74  1  0  0  0  0
 38 81  2  0  0  0  0
 39 42  1  0  0  0  0
 40 49  1  0  0  0  0
 41 67  1  0  0  0  0
 42 44  1  0  0  0  0
 43 45  1  0  0  0  0
 43 46  1  0  0  0  0
 44 48  1  0  0  0  0
 45 50  1  0  0  0  0
 46 68  1  0  0  0  0
 47 50  1  0  0  0  0
 47 68  1  0  0  0  0
 48 72  1  0  0  0  0
 49 67  1  0  0  0  0
 50 66  1  0  0  0  0
 52 63  1  0  0  0  0
 53 64  1  0  0  0  0
 54 64  1  0  0  0  0
 55 64  1  0  0  0  0
 56 75  1  0  0  0  0
 57 76  1  0  0  0  0
 58 59  1  0  0  0  0
 58 71  1  0  0  0  0
 59 74  1  0  0  0  0
 60 61  1  0  0  0  0
 60 76  1  0  0  0  0
 61 83  1  0  0  0  0
 62 64  1  0  0  0  0
 62 73  1  0  0  0  0
 63 75  1  0  0  0  0
 65 66  1  0  0  0  0
M  CHG  2  75   1  76   1
M  ISO  4  38 100  61 101  74 100  83 101
M  END
> <Batch ID>
0130

> <Smiles>
CNC(C)C(=O)NC(C(=O)N1Cc2cc([101O:1][101CH2:1]CNCc3ccc(NCC[100NH:0][100C:0](=O)N4CCCC(n5nc(-c6ccc(Oc7ccc(F)cc7F)cc6)c(C(N)=O)c5N)C4)cc3C)ccc2CC1C(=O)NC1CCCc2ccccc21)C(C)(C)C

> <Shape>
0.225

> <Color>
0.062

> <Negative vol penalty>
0.000

$$$$

  -OEChem-04052320473D

 84 92  0     1  0  0  0  0  0999 V2000
  -23.7490  -30.2182   21.8341 C   0  0  0  0  0  0  0  0  0  0  0  0
  -23.0910  -29.0112   22.0472 C   0  0  0  0  0  0  0  0  0  0  0  0
  -28.8594  -12.6291   20.9423 C   0  0  0  0  0  0  0  0  0  0  0  0
  -28.2066  -12.7049   18.6174 C   0  0  0  0  0  0  0  0  0  0  0  0
  -24.9259  -30.2469   21.0870 C   0  0  0  0  0  0  0  0  0  0  0  0
  -23.6089  -27.8321   21.5123 C   0  0  0  0  0  0  0  0  0  0  0  0
  -23.3908  -22.2469   24.0150 C   0  0  0  0  0  0  0  0  0  0  0  0
  -18.1505  -16.7429   22.1922 C   0  0  0  0  0  0  0  0  0  0  0  0
  -18.8573  -17.9021   22.5121 C   0  0  0  0  0  0  0  0  0  0  0  0
  -30.1999  -12.5566   20.5635 C   0  0  0  0  0  0  0  0  0  0  0  0
  -29.5471  -12.6325   18.2386 C   0  0  0  0  0  0  0  0  0  0  0  0
  -22.5457  -21.1579   23.8063 C   0  0  0  0  0  0  0  0  0  0  0  0
  -33.8149  -12.7154   20.2148 C   0  0  0  0  0  0  0  0  0  0  0  0
  -34.7254  -13.5248   20.8942 C   0  0  0  0  0  0  0  0  0  0  0  0
  -24.1533  -20.2112   22.2770 C   0  0  0  0  0  0  0  0  0  0  0  0
  -19.9647  -15.3993   23.0527 C   0  0  0  0  0  0  0  0  0  0  0  0
  -33.5166  -15.4889   20.1742 C   0  0  0  0  0  0  0  0  0  0  0  0
  -27.8627  -12.7032   19.9692 C   0  0  0  0  0  0  0  0  0  0  0  0
  -25.7260  -13.9414   20.6086 C   0  0  0  0  0  0  0  0  0  0  0  0
  -25.4637  -29.0663   20.5509 C   0  0  0  0  0  0  0  0  0  0  0  0
  -24.6207  -22.3318   23.3469 C   0  0  0  0  0  0  0  0  0  0  0  0
  -24.7934  -27.8452   20.7562 C   0  0  0  0  0  0  0  0  0  0  0  0
  -25.0133  -21.3011   22.4810 C   0  0  0  0  0  0  0  0  0  0  0  0
  -18.7042  -15.4915   22.4625 C   0  0  0  0  0  0  0  0  0  0  0  0
  -20.1177  -17.8099   23.1023 C   0  0  0  0  0  0  0  0  0  0  0  0
  -30.5438  -12.5583   19.2117 C   0  0  0  0  0  0  0  0  0  0  0  0
  -22.9256  -20.1412   22.9350 C   0  0  0  0  0  0  0  0  0  0  0  0
  -32.7553  -13.2928   19.5151 C   0  0  0  0  0  0  0  0  0  0  0  0
  -20.6715  -16.5585   23.3726 C   0  0  0  0  0  0  0  0  0  0  0  0
  -34.5763  -14.9115   20.8739 C   0  0  0  0  0  0  0  0  0  0  0  0
  -32.6061  -14.6795   19.4948 C   0  0  0  0  0  0  0  0  0  0  0  0
  -26.4778  -12.7775   20.3598 C   0  0  0  0  0  0  0  0  0  0  0  0
  -24.4770  -13.4784   20.9433 C   0  0  0  0  0  0  0  0  0  0  0  0
  -26.1213  -15.3181   20.5430 C   0  0  0  0  0  0  0  0  0  0  0  0
  -25.9060  -24.3583   21.2624 C   0  0  0  0  0  0  0  0  0  0  0  0
  -28.5510  -22.5353   21.7131 C   0  0  0  0  0  0  0  0  0  0  0  0
  -29.8738  -19.5261   22.6303 C   0  0  0  0  0  0  0  0  0  0  0  0
  -20.1585  -10.0548   20.0630 C   0  0  0  0  0  0  0  0  0  0  0  0
  -26.7128  -29.1539   19.7102 C   0  0  0  0  0  0  0  0  0  0  0  0
  -25.5328  -23.5000   23.6034 C   0  0  0  0  0  0  0  0  0  0  0  0
  -26.3324  -21.3347   21.7548 C   0  0  0  0  0  0  0  0  0  0  0  0
  -27.3972  -27.8066   19.4940 C   0  0  0  0  0  0  0  0  0  0  0  0
  -22.8734   -8.7973   21.9931 C   0  0  0  0  0  0  0  0  0  0  0  0
  -26.3743  -26.7450   19.1022 C   0  0  0  0  0  0  0  0  0  0  0  0
  -23.9923   -9.8130   21.7557 C   0  0  0  0  0  0  0  0  0  0  0  0
  -22.0319   -8.5808   20.7373 C   0  0  0  0  0  0  0  0  0  0  0  0
  -22.6024  -10.8282   19.9020 C   0  0  0  0  0  0  0  0  0  0  0  0
  -25.3372  -26.5416   20.2133 C   0  0  1  0  0  0  0  0  0  0  0  0
  -26.5342  -23.7349   22.4767 C   0  0  1  0  0  0  0  0  0  0  0  0
  -23.4437  -11.1216   21.1559 C   0  0  2  0  0  0  0  0  0  0  0  0
  -32.0654  -18.3255   22.8600 C   0  0  0  0  0  0  0  0  0  0  0  0
  -28.6782  -22.1929   18.6838 C   0  0  0  0  0  0  0  0  0  0  0  0
  -30.2472  -20.2740   19.0365 C   0  0  0  0  0  0  0  0  0  0  0  0
  -30.8924  -22.5643   19.7856 C   0  0  0  0  0  0  0  0  0  0  0  0
  -29.4833  -19.1278   25.5368 C   0  0  0  0  0  0  0  0  0  0  0  0
  -21.9466  -16.4092   25.3745 C   0  0  0  0  0  0  0  0  0  0  0  0
  -17.9478  -14.2523   22.1209 C   0  0  0  0  0  0  0  0  0  0  0  0
  -20.8641  -19.0675   23.4382 C   0  0  0  0  0  0  0  0  0  1  0  0
  -18.3912  -11.6504   19.3632 C   0  0  0  0  0  0  0  0  0  0  0  0
  -17.7674  -12.2855   20.5919 C   0  0  0  0  0  0  0  0  0  0  0  0
  -29.1183  -21.2958   21.0645 C   0  0  1  0  0  0  0  0  0  0  0  0
  -31.0159  -19.1707   23.5650 C   0  0  2  0  0  0  0  0  0  0  0  0
  -29.7083  -21.5818   19.6547 C   0  0  0  0  0  0  0  0  0  0  0  0
  -25.7659  -11.6592   20.5227 N   0  0  0  0  0  0  0  0  0  0  0  0
  -24.5537  -12.1183   20.8775 N   0  0  0  0  0  0  0  0  0  0  0  0
  -27.1866  -22.5009   22.0340 N   0  0  0  0  0  0  0  0  0  0  0  0
  -21.5408   -9.8603   20.2198 N   0  0  0  0  0  0  0  0  0  0  0  0
  -23.3316  -14.1061   21.2847 N   0  0  0  0  0  0  0  0  0  0  0  0
  -27.4423  -15.6174   20.1827 N   0  0  0  0  0  0  0  0  0  0  0  0
  -25.8926  -25.7399   21.2825 N   0  0  0  0  0  0  0  0  0  0  0  0
  -30.0786  -20.7419   22.0129 N   0  0  0  0  0  0  0  0  0  0  0  0
  -19.7778  -11.2980   19.5729 N   0  0  0  0  0  0  0  0  0  0  0  0
  -30.5064  -18.4053   24.7378 N   0  3  0  0  0  0  0  0  0  0  0  0
  -18.4724  -13.5531   20.9155 N   0  3  0  0  0  0  0  0  0  0  0  0
  -25.3312  -16.2544   20.8124 O   0  0  0  0  0  0  0  0  0  0  0  0
  -25.4673  -23.6391   20.3725 O   0  0  0  0  0  0  0  0  0  0  0  0
  -29.2928  -23.4960   21.9336 O   0  0  0  0  0  0  0  0  0  0  0  0
  -28.8994  -18.7963   22.4616 O   0  0  0  0  0  0  0  0  0  0  0  0
  -19.3252   -9.1868   20.3443 O   0  0  0  0  0  0  0  0  0  0  0  0
  -31.8517  -12.4879   18.8418 O   0  0  0  0  0  0  0  0  0  0  0  0
  -21.9010  -16.4506   23.9497 O   0  0  0  0  0  0  0  0  0  0  0  0
  -22.1023  -19.0775   22.7289 O   0  0  0  0  0  0  0  0  0  1  0  0
  -35.4498  -15.6885   21.5276 F   0  0  0  0  0  0  0  0  0  0  0  0
  -31.5895  -15.2399   18.8254 F   0  0  0  0  0  0  0  0  0  0  0  0
  1  2  1  0  0  0  0
  1  5  2  0  0  0  0
  2  6  2  0  0  0  0
  3 10  2  0  0  0  0
  3 18  1  0  0  0  0
  4 11  1  0  0  0  0
  4 18  2  0  0  0  0
  5 20  1  0  0  0  0
  6 22  1  0  0  0  0
  7 12  2  0  0  0  0
  7 21  1  0  0  0  0
  8  9  2  0  0  0  0
  8 24  1  0  0  0  0
  9 25  1  0  0  0  0
 10 26  1  0  0  0  0
 11 26  2  0  0  0  0
 12 27  1  0  0  0  0
 13 14  2  0  0  0  0
 13 28  1  0  0  0  0
 14 30  1  0  0  0  0
 15 23  1  0  0  0  0
 15 27  2  0  0  0  0
 16 24  2  0  0  0  0
 16 29  1  0  0  0  0
 17 30  2  0  0  0  0
 17 31  1  0  0  0  0
 18 32  1  0  0  0  0
 19 32  1  0  0  0  0
 19 33  2  0  0  0  0
 19 34  1  0  0  0  0
 20 22  2  0  0  0  0
 20 39  1  0  0  0  0
 21 23  2  0  0  0  0
 21 40  1  0  0  0  0
 22 48  1  0  0  0  0
 23 41  1  0  0  0  0
 24 57  1  0  0  0  0
 25 29  2  0  0  0  0
 25 58  1  0  0  0  0
 26 80  1  0  0  0  0
 27 82  1  0  0  0  0
 28 31  2  0  0  0  0
 28 80  1  0  0  0  0
 29 81  1  0  0  0  0
 30 83  1  0  0  0  0
 31 84  1  0  0  0  0
 32 64  2  0  0  0  0
 33 65  1  0  0  0  0
 33 68  1  0  0  0  0
 34 69  1  0  0  0  0
 34 75  2  0  0  0  0
 35 49  1  0  0  0  0
 35 70  1  0  0  0  0
 35 76  2  0  0  0  0
 36 61  1  0  0  0  0
 36 66  1  0  0  0  0
 36 77  2  0  0  0  0
 37 62  1  0  0  0  0
 37 71  1  0  0  0  0
 37 78  2  0  0  0  0
 38 67  1  0  0  0  0
 38 72  1  0  0  0  0
 38 79  2  0  0  0  0
 39 42  1  0  0  0  0
 40 49  1  0  0  0  0
 41 66  1  0  0  0  0
 42 44  1  0  0  0  0
 43 45  1  0  0  0  0
 43 46  1  0  0  0  0
 44 48  1  0  0  0  0
 45 50  1  0  0  0  0
 46 67  1  0  0  0  0
 47 50  1  0  0  0  0
 47 67  1  0  0  0  0
 48 70  1  0  0  0  0
 49 66  1  0  0  0  0
 50 65  1  0  0  0  0
 51 62  1  0  0  0  0
 52 63  1  0  0  0  0
 53 63  1  0  0  0  0
 54 63  1  0  0  0  0
 55 73  1  0  0  0  0
 56 81  1  0  0  0  0
 57 74  1  0  0  0  0
 58 82  1  0  0  0  0
 59 60  1  0  0  0  0
 59 72  1  0  0  0  0
 60 74  1  0  0  0  0
 61 63  1  0  0  0  0
 61 71  1  0  0  0  0
 62 73  1  0  0  0  0
 64 65  1  0  0  0  0
M  CHG  2  73   1  74   1
M  ISO  4  38 100  58 101  72 100  82 101
M  END
> <Batch ID>
0130

> <Smiles>
CNC(C)C(=O)NC(C(=O)N1Cc2cc([101O:1][101CH2:1]c3ccc(CNCC[100NH:0][100C:0](=O)N4CCCC(n5nc(-c6ccc(Oc7ccc(F)cc7F)cc6)c(C(N)=O)c5N)C4)cc3OC)ccc2CC1C(=O)NC1CCCc2ccccc21)C(C)(C)C

> <Shape>
0.211

> <Color>
0.097

> <Negative vol penalty>
0.000

$$$$

  -OEChem-04052320473D

 91100  0     1  0  0  0  0  0999 V2000
  -26.9164  -34.9396   24.5950 C   0  0  0  0  0  0  0  0  0  0  0  0
  -27.3202  -33.6913   24.1321 C   0  0  0  0  0  0  0  0  0  0  0  0
  -23.2159  -15.9707   23.3206 C   0  0  0  0  0  0  0  0  0  0  0  0
  -25.0961  -14.6216   24.0147 C   0  0  0  0  0  0  0  0  0  0  0  0
  -25.6196  -35.1177   25.0752 C   0  0  0  0  0  0  0  0  0  0  0  0
  -26.4276  -32.6201   24.1501 C   0  0  0  0  0  0  0  0  0  0  0  0
  -26.5083  -29.9516   19.8470 C   0  0  0  0  0  0  0  0  0  0  0  0
  -22.9783  -16.3231   24.6491 C   0  0  0  0  0  0  0  0  0  0  0  0
  -24.8586  -14.9740   25.3433 C   0  0  0  0  0  0  0  0  0  0  0  0
  -27.5648  -29.0590   19.6710 C   0  0  0  0  0  0  0  0  0  0  0  0
  -22.7314  -14.0820   27.8151 C   0  0  0  0  0  0  0  0  0  0  0  0
  -22.7710  -13.0676   28.7717 C   0  0  0  0  0  0  0  0  0  0  0  0
  -26.1301  -27.2385   20.3394 C   0  0  0  0  0  0  0  0  0  0  0  0
  -24.5667  -14.2132   29.9120 C   0  0  0  0  0  0  0  0  0  0  0  0
  -24.2748  -15.1199   23.0034 C   0  0  0  0  0  0  0  0  0  0  0  0
  -23.6413  -14.0851   20.7594 C   0  0  0  0  0  0  0  0  0  0  0  0
  -24.7077  -34.0505   25.0901 C   0  0  0  0  0  0  0  0  0  0  0  0
  -25.2557  -29.4950   20.2817 C   0  0  0  0  0  0  0  0  0  0  0  0
  -25.1178  -32.7838   24.6322 C   0  0  0  0  0  0  0  0  0  0  0  0
  -25.0586  -28.1270   20.5177 C   0  0  0  0  0  0  0  0  0  0  0  0
  -23.7996  -15.8248   25.6605 C   0  0  0  0  0  0  0  0  0  0  0  0
  -27.3766  -27.7026   19.9200 C   0  0  0  0  0  0  0  0  0  0  0  0
  -23.6094  -15.1619   27.9069 C   0  0  0  0  0  0  0  0  0  0  0  0
  -23.6887  -13.1332   29.8202 C   0  0  0  0  0  0  0  0  0  0  0  0
  -24.5270  -15.2276   28.9554 C   0  0  0  0  0  0  0  0  0  0  0  0
  -24.5204  -14.7551   21.6313 C   0  0  0  0  0  0  0  0  0  0  0  0
  -24.3404  -13.9789   19.5819 C   0  0  0  0  0  0  0  0  0  0  0  0
  -22.3117  -13.6022   20.9929 C   0  0  0  0  0  0  0  0  0  0  0  0
  -23.4312  -30.0356   22.8278 C   0  0  0  0  0  0  0  0  0  0  0  0
  -21.2963  -28.2152   21.1997 C   0  0  0  0  0  0  0  0  0  0  0  0
  -20.7415  -25.8207   18.8322 C   0  0  0  0  0  0  0  0  0  0  0  0
  -28.8525  -16.8056   21.0295 C   0  0  0  0  0  0  0  0  0  0  0  0
  -23.3313  -34.2798   25.6624 C   0  0  0  0  0  0  0  0  0  0  0  0
  -24.1189  -30.4670   20.4410 C   0  0  0  0  0  0  0  0  0  0  0  0
  -23.7277  -27.5833   20.9664 C   0  0  0  0  0  0  0  0  0  0  0  0
  -22.3306  -33.1857   25.2992 C   0  0  0  0  0  0  0  0  0  0  0  0
  -28.6063  -13.4219   19.9099 C   0  0  0  0  0  0  0  0  0  0  0  0
  -22.9465  -31.8066   25.5131 C   0  0  0  0  0  0  0  0  0  0  0  0
  -27.5757  -13.4559   18.7868 C   0  0  0  0  0  0  0  0  0  0  0  0
  -29.2425  -20.1904   19.7932 C   0  0  0  0  0  0  0  0  0  0  0  0
  -29.4465  -14.6895   19.9051 C   0  0  0  0  0  0  0  0  0  0  0  0
  -28.6753  -18.8142   19.4787 C   0  0  0  0  0  0  0  0  0  0  0  0
  -27.5436  -16.0067   18.9943 C   0  0  0  0  0  0  0  0  0  0  0  0
  -25.2138  -20.8366   26.6029 C   0  0  0  0  0  0  0  0  0  0  0  0
  -25.1430  -20.4987   24.1837 C   0  0  0  0  0  0  0  0  0  0  0  0
  -24.1709  -31.6035   24.6126 C   0  0  1  0  0  0  0  0  0  0  0  0
  -23.0290  -29.9628   21.3819 C   0  0  1  0  0  0  0  0  0  0  0  0
  -28.6029  -20.5089   21.1447 C   0  0  1  0  0  0  0  0  0  0  0  0
  -26.6218  -20.7902   26.0232 C   0  0  2  0  0  0  0  0  0  0  0  0
  -26.7024  -14.7202   18.8266 C   0  0  2  0  0  0  0  0  0  0  0  0
  -26.4260  -19.9326   24.7716 C   0  0  2  0  0  0  0  0  0  0  0  0
  -28.6321  -19.1486   21.8641 C   0  0  1  0  0  0  0  0  0  0  0  0
  -18.8944  -24.5120   17.7491 C   0  0  0  0  0  0  0  0  0  0  0  0
  -27.7270  -21.1193   28.2535 C   0  0  0  0  0  0  0  0  0  0  0  0
  -27.2972  -18.7992   27.3953 C   0  0  0  0  0  0  0  0  0  0  0  0
  -31.4658  -23.6623   21.9602 C   0  0  0  0  0  0  0  0  0  0  0  0
  -21.0809  -26.4638   23.6889 C   0  0  0  0  0  0  0  0  0  0  0  0
  -20.0086  -24.7011   22.2707 C   0  0  0  0  0  0  0  0  0  0  0  0
  -18.9051  -26.9215   22.5439 C   0  0  0  0  0  0  0  0  0  0  0  0
  -21.3736  -26.9200   16.1581 C   0  0  0  0  0  0  0  0  0  0  0  0
  -29.3374  -21.6079   21.8961 C   0  0  0  0  0  0  0  0  0  0  0  0
  -27.4713  -18.9926   22.8413 C   0  0  0  0  0  0  0  0  0  0  0  0
  -29.8631  -25.2348   20.8031 C   0  0  0  0  0  0  0  0  0  0  0  0
  -28.4187  -25.6692   20.5797 C   0  0  0  0  0  0  0  0  0  1  0  0
  -20.9886  -26.7393   21.1234 C   0  0  1  0  0  0  0  0  0  0  0  0
  -19.7633  -25.7578   17.6731 C   0  0  2  0  0  0  0  0  0  0  0  0
  -27.6416  -20.2375   27.0069 C   0  0  0  0  0  0  0  0  0  0  0  0
  -30.0046  -24.0074   21.7054 C   0  0  1  0  0  0  0  0  0  0  0  0
  -20.2715  -26.2166   22.4002 C   0  0  0  0  0  0  0  0  0  0  0  0
  -25.6888  -15.0532   21.0568 N   0  0  0  0  0  0  0  0  0  0  0  0
  -25.5487  -14.5683   19.8112 N   0  0  0  0  0  0  0  0  0  0  0  0
  -22.6489  -28.5743   21.1139 N   0  0  0  0  0  0  0  0  0  0  0  0
  -28.6202  -15.8938   19.9889 N   0  0  0  0  0  0  0  0  0  0  0  0
  -28.5848  -18.1544   20.7824 N   0  0  0  0  0  0  0  0  0  0  0  0
  -24.0332  -13.4396   18.3830 N   0  0  0  0  0  0  0  0  0  0  0  0
  -22.1502  -12.2948   21.4715 N   0  0  0  0  0  0  0  0  0  0  0  0
  -23.7581  -31.3077   23.2574 N   0  0  0  0  0  0  0  0  0  0  0  0
  -20.2330  -26.5430   19.8910 N   0  0  0  0  0  0  0  0  0  0  0  0
  -27.5352  -20.0113   23.8354 N   0  0  0  0  0  0  0  0  0  0  0  0
  -24.3209  -20.8534   25.3922 N   0  3  0  0  0  0  0  0  0  0  0  0
  -20.4974  -25.7403   16.3762 N   0  3  0  0  0  0  0  0  0  0  0  0
  -29.3599  -22.8285   21.0609 N   0  3  0  0  0  0  0  0  0  0  0  0
  -21.2963  -14.3034   20.7679 O   0  0  0  0  0  0  0  0  0  0  0  0
  -23.4425  -29.0137   23.5040 O   0  0  0  0  0  0  0  0  0  0  0  0
  -20.3700  -29.0204   21.3235 O   0  0  0  0  0  0  0  0  0  0  0  0
  -21.8447  -25.2797   18.8030 O   0  0  0  0  0  0  0  0  0  0  0  0
  -29.2877  -16.4332   22.1271 O   0  0  0  0  0  0  0  0  0  0  0  0
  -23.5682  -16.1686   26.9569 O   0  0  0  0  0  0  0  0  0  0  0  0
  -28.4133  -26.8233   19.7485 O   0  0  0  0  0  0  0  0  0  1  0  0
  -23.7256  -12.1598   30.7396 F   0  0  0  0  0  0  0  0  0  0  0  0
  -25.3723  -16.2632   29.0496 F   0  0  0  0  0  0  0  0  0  0  0  0
  1  2  1  0  0  0  0
  1  5  2  0  0  0  0
  2  6  2  0  0  0  0
  3  8  2  0  0  0  0
  3 15  1  0  0  0  0
  4  9  1  0  0  0  0
  4 15  2  0  0  0  0
  5 17  1  0  0  0  0
  6 19  1  0  0  0  0
  7 10  2  0  0  0  0
  7 18  1  0  0  0  0
  8 21  1  0  0  0  0
  9 21  2  0  0  0  0
 10 22  1  0  0  0  0
 11 12  2  0  0  0  0
 11 23  1  0  0  0  0
 12 24  1  0  0  0  0
 13 20  1  0  0  0  0
 13 22  2  0  0  0  0
 14 24  2  0  0  0  0
 14 25  1  0  0  0  0
 15 26  1  0  0  0  0
 16 26  1  0  0  0  0
 16 27  2  0  0  0  0
 16 28  1  0  0  0  0
 17 19  2  0  0  0  0
 17 33  1  0  0  0  0
 18 20  2  0  0  0  0
 18 34  1  0  0  0  0
 19 46  1  0  0  0  0
 20 35  1  0  0  0  0
 21 88  1  0  0  0  0
 22 89  1  0  0  0  0
 23 25  2  0  0  0  0
 23 88  1  0  0  0  0
 24 90  1  0  0  0  0
 25 91  1  0  0  0  0
 26 70  2  0  0  0  0
 27 71  1  0  0  0  0
 27 75  1  0  0  0  0
 28 76  1  0  0  0  0
 28 83  2  0  0  0  0
 29 47  1  0  0  0  0
 29 77  1  0  0  0  0
 29 84  2  0  0  0  0
 30 65  1  0  0  0  0
 30 72  1  0  0  0  0
 30 85  2  0  0  0  0
 31 66  1  0  0  0  0
 31 78  1  0  0  0  0
 31 86  2  0  0  0  0
 32 73  1  0  0  0  0
 32 74  1  0  0  0  0
 32 87  2  0  0  0  0
 33 36  1  0  0  0  0
 34 47  1  0  0  0  0
 35 72  1  0  0  0  0
 36 38  1  0  0  0  0
 37 39  1  0  0  0  0
 37 41  1  0  0  0  0
 38 46  1  0  0  0  0
 39 50  1  0  0  0  0
 40 42  1  0  0  0  0
 40 48  1  0  0  0  0
 41 73  1  0  0  0  0
 42 74  1  0  0  0  0
 43 50  1  0  0  0  0
 43 73  1  0  0  0  0
 44 49  1  0  0  0  0
 44 80  1  0  0  0  0
 45 51  1  0  0  0  0
 45 80  1  0  0  0  0
 46 77  1  0  0  0  0
 47 72  1  0  0  0  0
 48 52  1  0  0  0  0
 48 61  1  0  0  0  0
 49 51  1  0  0  0  0
 49 67  1  0  0  0  0
 50 71  1  0  0  0  0
 51 79  1  0  0  0  0
 52 62  1  0  0  0  0
 52 74  1  0  0  0  0
 53 66  1  0  0  0  0
 54 67  1  0  0  0  0
 55 67  1  0  0  0  0
 56 68  1  0  0  0  0
 57 69  1  0  0  0  0
 58 69  1  0  0  0  0
 59 69  1  0  0  0  0
 60 81  1  0  0  0  0
 61 82  1  0  0  0  0
 62 79  1  0  0  0  0
 63 64  1  0  0  0  0
 63 68  1  0  0  0  0
 64 89  1  0  0  0  0
 65 69  1  0  0  0  0
 65 78  1  0  0  0  0
 66 81  1  0  0  0  0
 68 82  1  0  0  0  0
 70 71  1  0  0  0  0
M  CHG  3  80   1  81   1  82   1
M  ISO  4  32 100  64 101  74 100  89 101
M  END
> <Batch ID>
0130

> <Smiles>
CNC(C)C(=O)NC(C(=O)N1Cc2cc([101O:1][101CH2:1]CC(C)NCC3CC[100N:0]([100C:0](=O)N4CCCC(n5nc(-c6ccc(Oc7ccc(F)cc7F)cc6)c(C(N)=O)c5N)C4)C3CNC3CNCC3C(C)C)ccc2CC1C(=O)NC1CCCc2ccccc21)C(C)(C)C

> <Shape>
0.249

> <Color>
0.077

> <Negative vol penalty>
0.000

$$$$

  -OEChem-04052320473D

 89 98  0     1  0  0  0  0  0999 V2000
  -31.0370  -22.1444   15.4169 C   0  0  0  0  0  0  0  0  0  0  0  0
  -30.6279  -22.0462   16.7429 C   0  0  0  0  0  0  0  0  0  0  0  0
  -20.1170  -17.6618   21.5757 C   0  0  0  0  0  0  0  0  0  0  0  0
  -21.2970  -18.0117   23.6547 C   0  0  0  0  0  0  0  0  0  0  0  0
  -31.1798  -23.3980   14.8236 C   0  0  0  0  0  0  0  0  0  0  0  0
  -30.3624  -23.2018   17.4769 C   0  0  0  0  0  0  0  0  0  0  0  0
  -26.0889  -22.8530   20.1714 C   0  0  0  0  0  0  0  0  0  0  0  0
  -27.4954  -18.6389   24.3599 C   0  0  0  0  0  0  0  0  0  0  0  0
  -19.0890  -18.4938   22.0191 C   0  0  0  0  0  0  0  0  0  0  0  0
  -20.2690  -18.8437   24.0982 C   0  0  0  0  0  0  0  0  0  0  0  0
  -26.1416  -22.1209   21.3567 C   0  0  0  0  0  0  0  0  0  0  0  0
  -26.6702  -19.7629   24.3262 C   0  0  0  0  0  0  0  0  0  0  0  0
  -18.1256  -21.3474   25.6330 C   0  0  0  0  0  0  0  0  0  0  0  0
  -18.4813  -22.5496   26.2443 C   0  0  0  0  0  0  0  0  0  0  0  0
  -26.3272  -24.1741   22.6094 C   0  0  0  0  0  0  0  0  0  0  0  0
  -28.4262  -21.0197   23.2431 C   0  0  0  0  0  0  0  0  0  0  0  0
  -19.6191  -23.2384   24.2273 C   0  0  0  0  0  0  0  0  0  0  0  0
  -21.2210  -17.4207   22.3935 C   0  0  0  0  0  0  0  0  0  0  0  0
  -23.4341  -16.9393   21.2196 C   0  0  0  0  0  0  0  0  0  0  0  0
  -30.9067  -24.5692   15.5477 C   0  0  0  0  0  0  0  0  0  0  0  0
  -26.1662  -24.2530   20.1954 C   0  0  0  0  0  0  0  0  0  0  0  0
  -30.5030  -24.4723   16.8931 C   0  0  0  0  0  0  0  0  0  0  0  0
  -26.2728  -24.9217   21.4232 C   0  0  0  0  0  0  0  0  0  0  0  0
  -28.7860  -18.7052   23.8351 C   0  0  0  0  0  0  0  0  0  0  0  0
  -29.2515  -19.8956   23.2768 C   0  0  0  0  0  0  0  0  0  0  0  0
  -19.1650  -19.0847   23.2803 C   0  0  0  0  0  0  0  0  0  0  0  0
  -26.2636  -22.7813   22.5758 C   0  0  0  0  0  0  0  0  0  0  0  0
  -27.1356  -20.9534   23.7678 C   0  0  0  0  0  0  0  0  0  1  0  0
  -18.5167  -21.0905   24.3189 C   0  0  0  0  0  0  0  0  0  0  0  0
  -19.2281  -23.4952   25.5414 C   0  0  0  0  0  0  0  0  0  0  0  0
  -19.2634  -22.0361   23.6161 C   0  0  0  0  0  0  0  0  0  0  0  0
  -22.2830  -16.5610   21.9363 C   0  0  0  0  0  0  0  0  0  0  0  0
  -24.1208  -15.7653   21.0283 C   0  0  0  0  0  0  0  0  0  0  0  0
  -23.8458  -18.2361   20.7672 C   0  0  0  0  0  0  0  0  0  0  0  0
  -28.1885  -26.4083   19.0256 C   0  0  0  0  0  0  0  0  0  0  0  0
  -25.9783  -28.5095   20.1312 C   0  0  0  0  0  0  0  0  0  0  0  0
  -23.4265  -29.1551   22.3033 C   0  0  0  0  0  0  0  0  0  0  0  0
  -26.0819  -10.9060   22.9485 C   0  0  0  0  0  0  0  0  0  0  0  0
  -31.1209  -25.9034   14.8779 C   0  0  0  0  0  0  0  0  0  0  0  0
  -26.0811  -25.0294   18.9100 C   0  0  0  0  0  0  0  0  0  0  0  0
  -26.3391  -26.4242   21.5047 C   0  0  0  0  0  0  0  0  0  0  0  0
  -30.4586  -27.0666   15.6117 C   0  0  0  0  0  0  0  0  0  0  0  0
  -22.7149  -10.9668   21.7925 C   0  0  0  0  0  0  0  0  0  0  0  0
  -30.7502  -26.9900   17.1070 C   0  0  0  0  0  0  0  0  0  0  0  0
  -22.3957  -12.4581   21.6739 C   0  0  0  0  0  0  0  0  0  0  0  0
  -28.7042  -15.4528   20.7850 C   0  0  0  0  0  0  0  0  0  0  0  0
  -31.2178  -15.4178   21.0728 C   0  0  0  0  0  0  0  0  0  0  0  0
  -23.6158  -10.6760   22.9908 C   0  0  0  0  0  0  0  0  0  0  0  0
  -24.5397  -12.9596   22.9191 C   0  0  0  0  0  0  0  0  0  0  0  0
  -28.5605  -16.0125   22.1956 C   0  0  0  0  0  0  0  0  0  0  0  0
  -31.0543  -15.9780   22.4810 C   0  0  0  0  0  0  0  0  0  0  0  0
  -30.1818  -25.7019   17.7146 C   0  0  1  0  0  0  0  0  0  0  0  0
  -26.6861  -26.4260   19.0143 C   0  0  1  0  0  0  0  0  0  0  0  0
  -23.6795  -13.3095   21.6928 C   0  0  2  0  0  0  0  0  0  0  0  0
  -29.9897  -14.6526   20.5831 C   0  0  0  0  0  0  0  0  0  0  0  0
  -30.6296  -19.9909   22.7093 C   0  0  0  0  0  0  0  0  0  0  0  0
  -21.8424  -30.9737   22.9968 C   0  0  0  0  0  0  0  0  0  0  0  0
  -28.2361  -29.8958   21.6445 C   0  0  0  0  0  0  0  0  0  0  0  0
  -26.5021  -31.0617   23.0237 C   0  0  0  0  0  0  0  0  0  0  0  0
  -26.6004  -31.4466   20.5610 C   0  0  0  0  0  0  0  0  0  0  0  0
  -21.0622  -27.5441   21.5458 C   0  0  0  0  0  0  0  0  0  0  0  0
  -29.6513  -17.4890   23.8825 C   0  0  0  0  0  0  0  0  0  0  0  0
  -29.0524  -11.0626   21.4740 C   0  0  0  0  0  0  0  0  0  0  0  0
  -28.5319  -11.2976   22.8878 C   0  0  0  0  0  0  0  0  0  0  0  0
  -29.0540  -12.3375   20.6401 C   0  0  0  0  0  0  0  0  0  0  0  0
  -25.7496  -29.2326   21.4365 C   0  0  1  0  0  0  0  0  0  0  0  0
  -22.0548  -29.7702   22.0917 C   0  0  2  0  0  0  0  0  0  0  0  0
  -26.7728  -30.3808   21.6651 C   0  0  0  0  0  0  0  0  0  0  0  0
  -22.2375  -15.2492   22.1834 N   0  0  0  0  0  0  0  0  0  0  0  0
  -23.3685  -14.7929   21.6188 N   0  0  0  0  0  0  0  0  0  0  0  0
  -26.2584  -27.1386   20.2199 N   0  0  0  0  0  0  0  0  0  0  0  0
  -24.8160  -11.5148   22.9480 N   0  0  0  0  0  0  0  0  0  0  0  0
  -25.2888  -15.4802   20.4143 N   0  0  0  0  0  0  0  0  0  0  0  0
  -23.0222  -19.3345   21.0489 N   0  0  0  0  0  0  0  0  0  0  0  0
  -28.7527  -25.8224   17.9085 N   0  0  0  0  0  0  0  0  0  0  0  0
  -24.3569  -29.6671   21.4239 N   0  0  0  0  0  0  0  0  0  0  0  0
  -27.1665  -11.7733   22.9000 N   0  0  0  0  0  0  0  0  0  0  0  0
  -29.7945  -16.8079   22.5490 N   0  3  0  0  0  0  0  0  0  0  0  0
  -29.8872  -13.3610   21.3213 N   0  3  0  0  0  0  0  0  0  0  0  0
  -20.9885  -28.7702   22.3814 N   0  3  0  0  0  0  0  0  0  0  0  0
  -24.9043  -18.4129   20.1177 O   0  0  0  0  0  0  0  0  0  0  0  0
  -28.7913  -26.8918   19.9767 O   0  0  0  0  0  0  0  0  0  0  0  0
  -25.9039  -29.1365   19.0714 O   0  0  0  0  0  0  0  0  0  0  0  0
  -23.6509  -28.3081   23.1652 O   0  0  0  0  0  0  0  0  0  0  0  0
  -26.2342   -9.6803   22.9837 O   0  0  0  0  0  0  0  0  0  0  0  0
  -18.1621  -19.8968   23.7133 O   0  0  0  0  0  0  0  0  0  0  0  0
  -26.3159  -22.0691   23.7342 O   0  0  0  0  0  0  0  0  0  1  0  0
  -19.5682  -24.6503   26.1279 F   0  0  0  0  0  0  0  0  0  0  0  0
  -19.6410  -21.7955   22.3530 F   0  0  0  0  0  0  0  0  0  0  0  0
  1  2  1  0  0  0  0
  1  5  2  0  0  0  0
  2  6  2  0  0  0  0
  3  9  2  0  0  0  0
  3 18  1  0  0  0  0
  4 10  1  0  0  0  0
  4 18  2  0  0  0  0
  5 20  1  0  0  0  0
  6 22  1  0  0  0  0
  7 11  2  0  0  0  0
  7 21  1  0  0  0  0
  8 12  2  0  0  0  0
  8 24  1  0  0  0  0
  9 26  1  0  0  0  0
 10 26  2  0  0  0  0
 11 27  1  0  0  0  0
 12 28  1  0  0  0  0
 13 14  2  0  0  0  0
 13 29  1  0  0  0  0
 14 30  1  0  0  0  0
 15 23  1  0  0  0  0
 15 27  2  0  0  0  0
 16 25  1  0  0  0  0
 16 28  2  0  0  0  0
 17 30  2  0  0  0  0
 17 31  1  0  0  0  0
 18 32  1  0  0  0  0
 19 32  1  0  0  0  0
 19 33  2  0  0  0  0
 19 34  1  0  0  0  0
 20 22  2  0  0  0  0
 20 39  1  0  0  0  0
 21 23  2  0  0  0  0
 21 40  1  0  0  0  0
 22 52  1  0  0  0  0
 23 41  1  0  0  0  0
 24 25  2  0  0  0  0
 24 62  1  0  0  0  0
 25 56  1  0  0  0  0
 26 86  1  0  0  0  0
 27 87  1  0  0  0  0
 28 87  1  0  0  0  0
 29 31  2  0  0  0  0
 29 86  1  0  0  0  0
 30 88  1  0  0  0  0
 31 89  1  0  0  0  0
 32 69  2  0  0  0  0
 33 70  1  0  0  0  0
 33 73  1  0  0  0  0
 34 74  1  0  0  0  0
 34 81  2  0  0  0  0
 35 53  1  0  0  0  0
 35 75  1  0  0  0  0
 35 82  2  0  0  0  0
 36 66  1  0  0  0  0
 36 71  1  0  0  0  0
 36 83  2  0  0  0  0
 37 67  1  0  0  0  0
 37 76  1  0  0  0  0
 37 84  2  0  0  0  0
 38 72  1  0  0  0  0
 38 77  1  0  0  0  0
 38 85  2  0  0  0  0
 39 42  1  0  0  0  0
 40 53  1  0  0  0  0
 41 71  1  0  0  0  0
 42 44  1  0  0  0  0
 43 45  1  0  0  0  0
 43 48  1  0  0  0  0
 44 52  1  0  0  0  0
 45 54  1  0  0  0  0
 46 50  1  0  0  0  0
 46 55  1  0  0  0  0
 47 51  1  0  0  0  0
 47 55  1  0  0  0  0
 48 72  1  0  0  0  0
 49 54  1  0  0  0  0
 49 72  1  0  0  0  0
 50 78  1  0  0  0  0
 51 78  1  0  0  0  0
 52 75  1  0  0  0  0
 53 71  1  0  0  0  0
 54 70  1  0  0  0  0
 55 79  1  0  0  0  0
 57 67  1  0  0  0  0
 58 68  1  0  0  0  0
 59 68  1  0  0  0  0
 60 68  1  0  0  0  0
 61 80  1  0  0  0  0
 62 78  1  0  0  0  0
 63 64  1  0  0  0  0
 63 65  1  0  0  0  0
 64 77  1  0  0  0  0
 65 79  1  0  0  0  0
 66 68  1  0  0  0  0
 66 76  1  0  0  0  0
 67 80  1  0  0  0  0
 69 70  1  0  0  0  0
M  CHG  3  78   1  79   1  80   1
M  ISO  4  28 101  38 100  77 100  87 101
M  END
> <Batch ID>
0130

> <Smiles>
CNC(C)C(=O)NC(C(=O)N1Cc2cc([101O:1][101c:1]3ccc(CN4CCC(NCCC[100NH:0][100C:0](=O)N5CCCC(n6nc(-c7ccc(Oc8ccc(F)cc8F)cc7)c(C(N)=O)c6N)C5)CC4)c(C)c3)ccc2CC1C(=O)NC1CCCc2ccccc21)C(C)(C)C

> <Shape>
0.188

> <Color>
0.073

> <Negative vol penalty>
0.000

$$$$

  -OEChem-04052320473D

 88 97  0     1  0  0  0  0  0999 V2000
  -26.1082  -26.5927   13.7837 C   0  0  0  0  0  0  0  0  0  0  0  0
  -27.0789  -25.9339   14.5314 C   0  0  0  0  0  0  0  0  0  0  0  0
  -22.6307  -10.2816   20.2328 C   0  0  0  0  0  0  0  0  0  0  0  0
  -24.2547   -9.5322   21.8570 C   0  0  0  0  0  0  0  0  0  0  0  0
  -24.9840  -27.1227   14.4154 C   0  0  0  0  0  0  0  0  0  0  0  0
  -26.9265  -25.8057   15.9115 C   0  0  0  0  0  0  0  0  0  0  0  0
  -26.8838  -19.3870   20.3640 C   0  0  0  0  0  0  0  0  0  0  0  0
  -21.8760   -9.1300   20.4560 C   0  0  0  0  0  0  0  0  0  0  0  0
  -23.5000   -8.3806   22.0803 C   0  0  0  0  0  0  0  0  0  0  0  0
  -26.7007  -18.3139   21.2365 C   0  0  0  0  0  0  0  0  0  0  0  0
  -19.6963   -7.9911   22.7765 C   0  0  0  0  0  0  0  0  0  0  0  0
  -18.3174   -8.1386   22.9264 C   0  0  0  0  0  0  0  0  0  0  0  0
  -25.3467  -19.7041   22.6794 C   0  0  0  0  0  0  0  0  0  0  0  0
  -17.9563   -6.7074   21.0138 C   0  0  0  0  0  0  0  0  0  0  0  0
  -23.8201  -10.4827   20.9333 C   0  0  0  0  0  0  0  0  0  0  0  0
  -24.1927  -13.0060   20.8916 C   0  0  0  0  0  0  0  0  0  0  0  0
  -24.8129  -26.9925   15.8026 C   0  0  0  0  0  0  0  0  0  0  0  0
  -26.2856  -20.6200   20.6385 C   0  0  0  0  0  0  0  0  0  0  0  0
  -25.7995  -26.3357   16.5626 C   0  0  0  0  0  0  0  0  0  0  0  0
  -25.5163  -20.7791   21.8028 C   0  0  0  0  0  0  0  0  0  0  0  0
  -22.3107   -8.1795   21.3798 C   0  0  0  0  0  0  0  0  0  0  0  0
  -25.9343  -18.4722   22.3913 C   0  0  0  0  0  0  0  0  0  0  0  0
  -20.2052   -7.2018   21.7451 C   0  0  0  0  0  0  0  0  0  0  0  0
  -17.4474   -7.4967   22.0451 C   0  0  0  0  0  0  0  0  0  0  0  0
  -19.3352   -6.5599   20.8638 C   0  0  0  0  0  0  0  0  0  0  0  0
  -24.6003  -11.6719   20.7027 C   0  0  0  0  0  0  0  0  0  0  0  0
  -25.2886  -13.7536   20.5357 C   0  0  0  0  0  0  0  0  0  0  0  0
  -22.9358  -13.5233   21.3481 C   0  0  0  0  0  0  0  0  0  0  0  0
  -25.7168  -24.1657   19.5521 C   0  0  0  0  0  0  0  0  0  0  0  0
  -28.3889  -15.9435   25.0159 C   0  0  0  0  0  0  0  0  0  0  0  0
  -23.0528  -23.1396   20.6750 C   0  0  0  0  0  0  0  0  0  0  0  0
  -20.2099  -21.4967   21.6002 C   0  0  0  0  0  0  0  0  0  0  0  0
  -30.7874  -14.6974   20.6684 C   0  0  0  0  0  0  0  0  0  0  0  0
  -23.6041  -27.6232   16.4473 C   0  0  0  0  0  0  0  0  0  0  0  0
  -26.5064  -21.8204   19.7586 C   0  0  0  0  0  0  0  0  0  0  0  0
  -24.9203  -22.1333   22.0751 C   0  0  0  0  0  0  0  0  0  0  0  0
  -23.3348  -27.1173   17.8622 C   0  0  0  0  0  0  0  0  0  0  0  0
  -23.8017  -17.0550   26.1574 C   0  0  0  0  0  0  0  0  0  0  0  0
  -29.5812  -12.4083   18.2226 C   0  0  0  0  0  0  0  0  0  0  0  0
  -24.6235  -27.1022   18.6781 C   0  0  0  0  0  0  0  0  0  0  0  0
  -28.1471  -12.1182   18.6689 C   0  0  0  0  0  0  0  0  0  0  0  0
  -25.1669  -16.7161   26.7385 C   0  0  0  0  0  0  0  0  0  0  0  0
  -24.0920  -17.9140   24.9263 C   0  0  0  0  0  0  0  0  0  0  0  0
  -30.5201  -12.5774   19.4150 C   0  0  0  0  0  0  0  0  0  0  0  0
  -32.1119  -16.0490   24.7781 C   0  0  0  0  0  0  0  0  0  0  0  0
  -28.6502  -13.2854   20.8560 C   0  0  0  0  0  0  0  0  0  0  0  0
  -32.4132  -14.9129   25.7454 C   0  0  0  0  0  0  0  0  0  0  0  0
  -30.0593  -14.9949   26.5085 C   0  0  0  0  0  0  0  0  0  0  0  0
  -25.6577  -26.1547   18.0583 C   0  0  1  0  0  0  0  0  0  0  0  0
  -25.2732  -22.7370   19.6677 C   0  0  1  0  0  0  0  0  0  0  0  0
  -29.7953  -16.1168   25.5045 C   0  0  1  0  0  0  0  0  0  0  0  0
  -27.6553  -13.1624   19.6892 C   0  0  2  0  0  0  0  0  0  0  0  0
  -26.0267  -16.5561   25.4937 C   0  0  1  0  0  0  0  0  0  0  0  0
  -25.5783  -17.7187   24.6100 C   0  0  1  0  0  0  0  0  0  1  0  0
  -17.7474  -21.8520   21.9271 C   0  0  0  0  0  0  0  0  0  0  0  0
  -30.6286  -17.9273   20.9772 C   0  0  0  0  0  0  0  0  0  0  0  0
  -23.6152  -24.6054   23.2902 C   0  0  0  0  0  0  0  0  0  0  0  0
  -21.2704  -24.0903   24.0007 C   0  0  0  0  0  0  0  0  0  0  0  0
  -21.6794  -25.5033   21.9860 C   0  0  0  0  0  0  0  0  0  0  0  0
  -19.5282  -19.4798   19.5444 C   0  0  0  0  0  0  0  0  0  0  0  0
  -30.4880  -17.1584   23.4095 C   0  0  0  0  0  0  0  0  0  0  0  0
  -22.1476  -23.0212   21.8750 C   0  0  1  0  0  0  0  0  0  0  0  0
  -18.8366  -21.4194   20.9580 C   0  0  2  0  0  0  0  0  0  0  0  0
  -30.9008  -16.8044   21.9747 C   0  0  1  0  0  0  0  0  0  0  0  0
  -22.1960  -24.2841   22.7807 C   0  0  0  0  0  0  0  0  0  0  0  0
  -25.8571  -11.5743   20.2609 N   0  0  0  0  0  0  0  0  0  0  0  0
  -26.2485  -12.8567   20.1692 N   0  0  0  0  0  0  0  0  0  0  0  0
  -24.3729  -22.7002   20.8327 N   0  0  0  0  0  0  0  0  0  0  0  0
  -29.9970  -13.5826   20.3435 N   0  0  0  0  0  0  0  0  0  0  0  0
  -30.7028  -16.0469   24.3441 N   0  0  1  0  0  0  0  0  0  0  0  0
  -25.5151  -15.0840   20.5035 N   0  0  0  0  0  0  0  0  0  0  0  0
  -22.7556  -13.7237   22.7235 N   0  0  0  0  0  0  0  0  0  0  0  0
  -25.3362  -24.7794   18.3739 N   0  0  0  0  0  0  0  0  0  0  0  0
  -27.4327  -16.5902   25.7848 N   0  0  0  0  0  0  0  0  0  0  0  0
  -20.8205  -22.7086   21.3559 N   0  0  0  0  0  0  0  0  0  0  0  0
  -30.2138  -15.6050   21.5504 N   0  0  0  0  0  0  0  0  0  0  0  0
  -31.4925  -15.0197   26.9113 N   0  3  0  0  0  0  0  0  0  0  0  0
  -18.5480  -20.0250   20.5186 N   0  3  0  0  0  0  0  0  0  0  0  0
  -21.9945  -13.7842   20.5611 O   0  0  0  0  0  0  0  0  0  0  0  0
  -26.3561  -24.6756   20.4647 O   0  0  0  0  0  0  0  0  0  0  0  0
  -28.1762  -15.2735   24.0122 O   0  0  0  0  0  0  0  0  0  0  0  0
  -22.6059  -23.6136   19.6267 O   0  0  0  0  0  0  0  0  0  0  0  0
  -20.6912  -20.5756   22.2563 O   0  0  0  0  0  0  0  0  0  0  0  0
  -31.9182  -14.8738   20.2024 O   0  0  0  0  0  0  0  0  0  0  0  0
  -21.5744   -7.0557   21.5980 O   0  0  0  0  0  0  0  0  0  0  0  0
  -25.7559  -17.4192   23.2364 O   0  0  0  0  0  0  0  0  0  1  0  0
  -16.1232   -7.6372   22.1902 F   0  0  0  0  0  0  0  0  0  0  0  0
  -19.8182   -5.7994   19.8717 F   0  0  0  0  0  0  0  0  0  0  0  0
  1  2  1  0  0  0  0
  1  5  2  0  0  0  0
  2  6  2  0  0  0  0
  3  8  2  0  0  0  0
  3 15  1  0  0  0  0
  4  9  1  0  0  0  0
  4 15  2  0  0  0  0
  5 17  1  0  0  0  0
  6 19  1  0  0  0  0
  7 10  2  0  0  0  0
  7 18  1  0  0  0  0
  8 21  1  0  0  0  0
  9 21  2  0  0  0  0
 10 22  1  0  0  0  0
 11 12  2  0  0  0  0
 11 23  1  0  0  0  0
 12 24  1  0  0  0  0
 13 20  1  0  0  0  0
 13 22  2  0  0  0  0
 14 24  2  0  0  0  0
 14 25  1  0  0  0  0
 15 26  1  0  0  0  0
 16 26  1  0  0  0  0
 16 27  2  0  0  0  0
 16 28  1  0  0  0  0
 17 19  2  0  0  0  0
 17 34  1  0  0  0  0
 18 20  2  0  0  0  0
 18 35  1  0  0  0  0
 19 49  1  0  0  0  0
 20 36  1  0  0  0  0
 21 85  1  0  0  0  0
 22 86  1  0  0  0  0
 23 25  2  0  0  0  0
 23 85  1  0  0  0  0
 24 87  1  0  0  0  0
 25 88  1  0  0  0  0
 26 66  2  0  0  0  0
 27 67  1  0  0  0  0
 27 71  1  0  0  0  0
 28 72  1  0  0  0  0
 28 79  2  0  0  0  0
 29 50  1  0  0  0  0
 29 73  1  0  0  0  0
 29 80  2  0  0  0  0
 30 51  1  0  0  0  0
 30 74  1  0  0  0  0
 30 81  2  0  0  0  0
 31 62  1  0  0  0  0
 31 68  1  0  0  0  0
 31 82  2  0  0  0  0
 32 63  1  0  0  0  0
 32 75  1  0  0  0  0
 32 83  2  0  0  0  0
 33 69  1  0  0  0  0
 33 76  1  0  0  0  0
 33 84  2  0  0  0  0
 34 37  1  0  0  0  0
 35 50  1  0  0  0  0
 36 68  1  0  0  0  0
 37 40  1  0  0  0  0
 38 42  1  0  0  0  0
 38 43  1  0  0  0  0
 39 41  1  0  0  0  0
 39 44  1  0  0  0  0
 40 49  1  0  0  0  0
 41 52  1  0  0  0  0
 42 53  1  0  0  0  0
 43 54  1  0  0  0  0
 44 69  1  0  0  0  0
 45 47  1  0  0  0  0
 45 70  1  0  0  0  0
 46 52  1  0  0  0  0
 46 69  1  0  0  0  0
 47 77  1  0  0  0  0
 48 51  1  0  0  0  0
 48 77  1  0  0  0  0
 49 73  1  0  0  0  0
 50 68  1  0  0  0  0
 51 70  1  0  0  0  0
 52 67  1  0  0  0  0
 53 54  1  0  0  0  0
 53 74  1  0  0  0  0
 54 86  1  0  0  0  0
 55 63  1  0  0  0  0
 56 64  1  0  0  0  0
 57 65  1  0  0  0  0
 58 65  1  0  0  0  0
 59 65  1  0  0  0  0
 60 78  1  0  0  0  0
 61 64  1  0  0  0  0
 61 70  1  0  0  0  0
 62 65  1  0  0  0  0
 62 75  1  0  0  0  0
 63 78  1  0  0  0  0
 64 76  1  0  0  0  0
 66 67  1  0  0  0  0
M  CHG  2  77   1  78   1
M  ISO  4  33 100  54 101  76 100  86 101
M  END
> <Batch ID>
0130

> <Smiles>
CNC(C)C(=O)NC(C(=O)N1Cc2cc([101O:1][101CH:1]3CCCC3NC(=O)C3CNCCN3CC(C)[100NH:0][100C:0](=O)N3CCCC(n4nc(-c5ccc(Oc6ccc(F)cc6F)cc5)c(C(N)=O)c4N)C3)ccc2CC1C(=O)NC1CCCc2ccccc21)C(C)(C)C

> <Shape>
0.170

> <Color>
0.159

> <Negative vol penalty>
0.000

$$$$

  -OEChem-04052320473D

 91 99  0     1  0  0  0  0  0999 V2000
  -31.2109  -33.2491   23.2462 C   0  0  0  0  0  0  0  0  0  0  0  0
  -30.6022  -32.0094   23.0790 C   0  0  0  0  0  0  0  0  0  0  0  0
  -26.1327  -12.3170   19.3918 C   0  0  0  0  0  0  0  0  0  0  0  0
  -25.9619  -12.8803   21.7350 C   0  0  0  0  0  0  0  0  0  0  0  0
  -30.4577  -34.3426   23.6713 C   0  0  0  0  0  0  0  0  0  0  0  0
  -29.2400  -31.8622   23.3379 C   0  0  0  0  0  0  0  0  0  0  0  0
  -26.8579  -29.1955   19.7520 C   0  0  0  0  0  0  0  0  0  0  0  0
  -24.8933  -11.6803   19.4545 C   0  0  0  0  0  0  0  0  0  0  0  0
  -24.7224  -12.2436   21.7977 C   0  0  0  0  0  0  0  0  0  0  0  0
  -27.0064  -27.8096   19.7848 C   0  0  0  0  0  0  0  0  0  0  0  0
  -21.6320  -12.5729   19.4642 C   0  0  0  0  0  0  0  0  0  0  0  0
  -20.7211  -12.8249   18.4383 C   0  0  0  0  0  0  0  0  0  0  0  0
  -24.8494  -27.6095   20.8461 C   0  0  0  0  0  0  0  0  0  0  0  0
  -20.6957  -10.4737   17.8833 C   0  0  0  0  0  0  0  0  0  0  0  0
  -26.6671  -12.9170   20.5321 C   0  0  0  0  0  0  0  0  0  0  0  0
  -29.1832  -12.9969   20.1190 C   0  0  0  0  0  0  0  0  0  0  0  0
  -29.0835  -34.2110   23.9263 C   0  0  0  0  0  0  0  0  0  0  0  0
  -25.7068  -29.8005   20.2768 C   0  0  0  0  0  0  0  0  0  0  0  0
  -28.4679  -32.9547   23.7682 C   0  0  0  0  0  0  0  0  0  0  0  0
  -24.6876  -29.0030   20.8165 C   0  0  0  0  0  0  0  0  0  0  0  0
  -24.1881  -11.6436   20.6574 C   0  0  0  0  0  0  0  0  0  0  0  0
  -26.0035  -27.0166   20.3345 C   0  0  0  0  0  0  0  0  0  0  0  0
  -22.0748  -11.2713   19.6996 C   0  0  0  0  0  0  0  0  0  0  0  0
  -20.2529  -11.7753   17.6479 C   0  0  0  0  0  0  0  0  0  0  0  0
  -21.6066  -10.2217   18.9091 C   0  0  0  0  0  0  0  0  0  0  0  0
  -27.9476  -13.5744   20.4681 C   0  0  0  0  0  0  0  0  0  0  0  0
  -30.0831  -14.0306   20.2094 C   0  0  0  0  0  0  0  0  0  0  0  0
  -29.4899  -11.6468   19.7463 C   0  0  0  0  0  0  0  0  0  0  0  0
  -25.1282  -31.8564   22.6310 C   0  0  0  0  0  0  0  0  0  0  0  0
  -22.1070  -31.7530   21.4545 C   0  0  0  0  0  0  0  0  0  0  0  0
  -19.7419  -30.0378   19.6907 C   0  0  0  0  0  0  0  0  0  0  0  0
  -29.5183  -19.9767   19.7905 C   0  0  0  0  0  0  0  0  0  0  0  0
  -28.3204  -35.4107   24.4294 C   0  0  0  0  0  0  0  0  0  0  0  0
  -25.5500  -31.2949   20.2097 C   0  0  0  0  0  0  0  0  0  0  0  0
  -23.4234  -29.6021   21.3746 C   0  0  0  0  0  0  0  0  0  0  0  0
  -26.8054  -35.2578   24.3221 C   0  0  0  0  0  0  0  0  0  0  0  0
  -30.8433  -18.1404   22.5380 C   0  0  0  0  0  0  0  0  0  0  0  0
  -26.3683  -33.8927   24.8441 C   0  0  0  0  0  0  0  0  0  0  0  0
  -30.3629  -16.7099   22.2876 C   0  0  0  0  0  0  0  0  0  0  0  0
  -29.7968  -19.1692   22.1157 C   0  0  0  0  0  0  0  0  0  0  0  0
  -28.8345  -17.5986   20.4784 C   0  0  0  0  0  0  0  0  0  0  0  0
  -29.0613  -15.7349   13.9997 C   0  0  0  0  0  0  0  0  0  0  0  0
  -27.7493  -17.6763   13.1144 C   0  0  0  0  0  0  0  0  0  0  0  0
  -26.9875  -32.7610   24.0151 C   0  0  1  0  0  0  0  0  0  0  0  0
  -24.5637  -31.8390   21.2386 C   0  0  1  0  0  0  0  0  0  0  0  0
  -28.5700  -15.9845   15.4280 C   0  0  2  0  0  0  0  0  0  0  0  0
  -27.2354  -16.7793   15.4579 C   0  0  1  0  0  0  0  0  0  0  0  0
  -29.8784  -16.5270   20.8367 C   0  0  2  0  0  0  0  0  0  0  0  0
  -27.1988  -18.0015   14.5046 C   0  0  1  0  0  0  0  0  0  0  0  0
  -29.6648  -16.6222   16.2914 C   0  0  0  0  0  0  0  0  0  0  0  0
  -17.3556  -30.1916   18.9294 C   0  0  0  0  0  0  0  0  0  0  0  0
  -25.2328  -15.7189   17.5298 C   0  0  0  0  0  0  0  0  0  0  0  0
  -24.5459  -13.9893   15.8565 C   0  0  0  0  0  0  0  0  0  0  0  0
  -24.9652  -23.6214   18.6496 C   0  0  0  0  0  0  0  0  0  0  0  0
  -21.1656  -31.0709   24.2756 C   0  0  0  0  0  0  0  0  0  0  0  0
  -18.9903  -30.3165   23.2922 C   0  0  0  0  0  0  0  0  0  0  0  0
  -19.7074  -32.6937   23.0531 C   0  0  0  0  0  0  0  0  0  0  0  0
  -20.5241  -29.9409   16.8380 C   0  0  0  0  0  0  0  0  0  0  0  0
  -26.0655  -15.8341   15.1246 C   0  0  0  0  0  0  0  0  0  0  0  0
  -27.3430  -22.9594   18.0271 C   0  0  0  0  0  0  0  0  0  0  0  0
  -29.1910  -20.6350   17.4201 C   0  0  0  0  0  0  0  0  0  0  0  0
  -27.1157  -19.7597   16.1499 C   0  0  0  0  0  0  0  0  0  0  0  0
  -26.9194  -25.0660   19.3285 C   0  0  0  0  0  0  0  0  0  1  0  0
  -20.8871  -30.9025   21.7143 C   0  0  1  0  0  0  0  0  0  0  0  0
  -18.8081  -30.4693   18.5743 C   0  0  2  0  0  0  0  0  0  0  0  0
  -25.6718  -14.9279   16.2968 C   0  0  0  0  0  0  0  0  0  0  0  0
  -26.4392  -23.6304   19.0754 C   0  0  1  0  0  0  0  0  0  0  0  0
  -27.8323  -20.9647   16.7851 C   0  0  1  0  0  0  0  0  0  0  0  0
  -20.2121  -31.2344   23.0751 C   0  0  0  0  0  0  0  0  0  0  0  0
  -28.0497  -14.8740   20.7587 N   0  0  0  0  0  0  0  0  0  0  0  0
  -29.3601  -15.1218   20.5926 N   0  0  0  0  0  0  0  0  0  0  0  0
  -23.3197  -31.0684   21.2918 N   0  0  0  0  0  0  0  0  0  0  0  0
  -29.3808  -18.9414   20.7297 N   0  0  0  0  0  0  0  0  0  0  0  0
  -31.4144  -14.1035   19.9979 N   0  0  0  0  0  0  0  0  0  0  0  0
  -29.8359  -10.7374   20.7550 N   0  0  0  0  0  0  0  0  0  0  0  0
  -26.2806  -32.6076   22.7616 N   0  0  0  0  0  0  0  0  0  0  0  0
  -20.0154  -31.0749   20.5572 N   0  0  0  0  0  0  0  0  0  0  0  0
  -29.1061  -19.6752   18.4982 N   0  0  0  0  0  0  0  0  0  0  0  0
  -27.9006  -19.1544   15.0782 N   0  0  0  0  0  0  0  0  0  0  0  0
  -26.9673  -21.5699   17.7874 N   0  0  0  0  0  0  0  0  0  0  0  0
  -29.0796  -17.0084   13.2236 N   0  3  0  0  0  0  0  0  0  0  0  0
  -19.1323  -29.7388   17.3164 N   0  3  0  0  0  0  0  0  0  0  0  0
  -29.4742  -11.2626   18.5523 O   0  0  0  0  0  0  0  0  0  0  0  0
  -24.5594  -31.2355   23.5213 O   0  0  0  0  0  0  0  0  0  0  0  0
  -21.9871  -32.9790   21.3910 O   0  0  0  0  0  0  0  0  0  0  0  0
  -20.1816  -28.8941   19.7866 O   0  0  0  0  0  0  0  0  0  0  0  0
  -29.9795  -21.0858   20.0808 O   0  0  0  0  0  0  0  0  0  0  0  0
  -22.9785  -11.0226   20.7189 O   0  0  0  0  0  0  0  0  0  0  0  0
  -26.1462  -25.6637   20.3683 O   0  0  0  0  0  0  0  0  0  1  0  0
  -19.3770  -12.0173   16.6638 F   0  0  0  0  0  0  0  0  0  0  0  0
  -22.0275   -8.9689   19.1312 F   0  0  0  0  0  0  0  0  0  0  0  0
  1  2  1  0  0  0  0
  1  5  2  0  0  0  0
  2  6  2  0  0  0  0
  3  8  2  0  0  0  0
  3 15  1  0  0  0  0
  4  9  1  0  0  0  0
  4 15  2  0  0  0  0
  5 17  1  0  0  0  0
  6 19  1  0  0  0  0
  7 10  2  0  0  0  0
  7 18  1  0  0  0  0
  8 21  1  0  0  0  0
  9 21  2  0  0  0  0
 10 22  1  0  0  0  0
 11 12  2  0  0  0  0
 11 23  1  0  0  0  0
 12 24  1  0  0  0  0
 13 20  1  0  0  0  0
 13 22  2  0  0  0  0
 14 24  2  0  0  0  0
 14 25  1  0  0  0  0
 15 26  1  0  0  0  0
 16 26  1  0  0  0  0
 16 27  2  0  0  0  0
 16 28  1  0  0  0  0
 17 19  2  0  0  0  0
 17 33  1  0  0  0  0
 18 20  2  0  0  0  0
 18 34  1  0  0  0  0
 19 44  1  0  0  0  0
 20 35  1  0  0  0  0
 21 88  1  0  0  0  0
 22 89  1  0  0  0  0
 23 25  2  0  0  0  0
 23 88  1  0  0  0  0
 24 90  1  0  0  0  0
 25 91  1  0  0  0  0
 26 70  2  0  0  0  0
 27 71  1  0  0  0  0
 27 74  1  0  0  0  0
 28 75  1  0  0  0  0
 28 83  2  0  0  0  0
 29 45  1  0  0  0  0
 29 76  1  0  0  0  0
 29 84  2  0  0  0  0
 30 64  1  0  0  0  0
 30 72  1  0  0  0  0
 30 85  2  0  0  0  0
 31 65  1  0  0  0  0
 31 77  1  0  0  0  0
 31 86  2  0  0  0  0
 32 73  1  0  0  0  0
 32 78  1  0  0  0  0
 32 87  2  0  0  0  0
 33 36  1  0  0  0  0
 34 45  1  0  0  0  0
 35 72  1  0  0  0  0
 36 38  1  0  0  0  0
 37 39  1  0  0  0  0
 37 40  1  0  0  0  0
 38 44  1  0  0  0  0
 39 48  1  0  0  0  0
 40 73  1  0  0  0  0
 41 48  1  0  0  0  0
 41 73  1  0  0  0  0
 42 46  1  0  0  0  0
 42 81  1  0  0  0  0
 43 49  1  0  0  0  0
 43 81  1  0  0  0  0
 44 76  1  0  0  0  0
 45 72  1  0  0  0  0
 46 47  1  0  0  0  0
 46 50  1  0  0  0  0
 47 49  1  0  0  0  0
 47 59  1  0  0  0  0
 48 71  1  0  0  0  0
 49 79  1  0  0  0  0
 51 65  1  0  0  0  0
 52 66  1  0  0  0  0
 53 66  1  0  0  0  0
 54 67  1  0  0  0  0
 55 69  1  0  0  0  0
 56 69  1  0  0  0  0
 57 69  1  0  0  0  0
 58 82  1  0  0  0  0
 59 66  1  0  0  0  0
 60 67  1  0  0  0  0
 60 80  1  0  0  0  0
 61 68  1  0  0  0  0
 61 78  1  0  0  0  0
 62 68  1  0  0  0  0
 62 79  1  0  0  0  0
 63 67  1  0  0  0  0
 63 89  1  0  0  0  0
 64 69  1  0  0  0  0
 64 77  1  0  0  0  0
 65 82  1  0  0  0  0
 68 80  1  0  0  0  0
 70 71  1  0  0  0  0
M  CHG  2  81   1  82   1
M  ISO  4  32 100  63 101  78 100  89 101
M  END
> <Batch ID>
0130

> <Smiles>
CNC(C)C(=O)NC(C(=O)N1Cc2cc([101O:1][101CH2:1]C(C)CNC(CNC3CNCC(C)C3CC(C)C)C[100NH:0][100C:0](=O)N3CCCC(n4nc(-c5ccc(Oc6ccc(F)cc6F)cc5)c(C(N)=O)c4N)C3)ccc2CC1C(=O)NC1CCCc2ccccc21)C(C)(C)C

> <Shape>
0.243

> <Color>
0.068

> <Negative vol penalty>
0.000

$$$$

  -OEChem-04052320473D

 85 94  0     1  0  0  0  0  0999 V2000
  -18.1637  -33.9861   22.3861 C   0  0  0  0  0  0  0  0  0  0  0  0
  -18.5106  -32.6943   22.7684 C   0  0  0  0  0  0  0  0  0  0  0  0
  -23.2754  -10.3343   22.2999 C   0  0  0  0  0  0  0  0  0  0  0  0
  -23.6345   -9.5129   20.0564 C   0  0  0  0  0  0  0  0  0  0  0  0
  -18.5598  -34.4737   21.1414 C   0  0  0  0  0  0  0  0  0  0  0  0
  -19.2530  -31.8887   21.9055 C   0  0  0  0  0  0  0  0  0  0  0  0
  -25.6290  -29.2003   23.9083 C   0  0  0  0  0  0  0  0  0  0  0  0
  -22.5327   -9.1922   22.5992 C   0  0  0  0  0  0  0  0  0  0  0  0
  -22.8918   -8.3708   20.3556 C   0  0  0  0  0  0  0  0  0  0  0  0
  -26.7574  -28.4765   24.2941 C   0  0  0  0  0  0  0  0  0  0  0  0
  -19.4054   -8.0379   22.0402 C   0  0  0  0  0  0  0  0  0  0  0  0
  -18.2024   -8.2091   22.7250 C   0  0  0  0  0  0  0  0  0  0  0  0
  -26.9297  -27.5397   22.0714 C   0  0  0  0  0  0  0  0  0  0  0  0
  -19.0331   -6.8327   24.5285 C   0  0  0  0  0  0  0  0  0  0  0  0
  -23.8263  -10.4947   21.0285 C   0  0  0  0  0  0  0  0  0  0  0  0
  -24.1522  -13.0108   20.7624 C   0  0  0  0  0  0  0  0  0  0  0  0
  -19.3157  -33.6771   20.2669 C   0  0  0  0  0  0  0  0  0  0  0  0
  -25.1552  -29.1084   22.5967 C   0  0  0  0  0  0  0  0  0  0  0  0
  -19.6585  -32.3656   20.6474 C   0  0  0  0  0  0  0  0  0  0  0  0
  -25.8072  -28.2721   21.6757 C   0  0  0  0  0  0  0  0  0  0  0  0
  -22.3409   -8.2104   21.6270 C   0  0  0  0  0  0  0  0  0  0  0  0
  -27.4059  -27.6480   23.3780 C   0  0  0  0  0  0  0  0  0  0  0  0
  -20.4223   -7.2640   22.5995 C   0  0  0  0  0  0  0  0  0  0  0  0
  -18.0162   -7.6065   23.9692 C   0  0  0  0  0  0  0  0  0  0  0  0
  -20.2362   -6.6615   23.8437 C   0  0  0  0  0  0  0  0  0  0  0  0
  -24.5931  -11.6745   20.7186 C   0  0  0  0  0  0  0  0  0  0  0  0
  -31.7103  -18.9090   22.0160 C   0  0  0  0  0  0  0  0  0  0  0  0
  -30.5862  -19.3120   22.7059 C   0  0  0  0  0  0  0  0  0  0  0  0
  -25.2482  -13.7466   20.3830 C   0  0  0  0  0  0  0  0  0  0  0  0
  -30.4946  -17.1031   21.7493 C   0  0  0  0  0  0  0  0  0  0  0  0
  -22.8669  -13.5396   21.1147 C   0  0  0  0  0  0  0  0  0  0  0  0
  -22.6066  -30.2131   20.0747 C   0  0  0  0  0  0  0  0  0  0  0  0
  -25.3062  -30.0989   18.6222 C   0  0  0  0  0  0  0  0  0  0  0  0
  -28.5251  -30.2505   17.5029 C   0  0  0  0  0  0  0  0  0  0  0  0
  -30.6996  -14.8510   20.6393 C   0  0  0  0  0  0  0  0  0  0  0  0
  -19.6804  -34.2310   18.9123 C   0  0  0  0  0  0  0  0  0  0  0  0
  -23.9070  -29.8224   22.1539 C   0  0  0  0  0  0  0  0  0  0  0  0
  -25.2416  -28.1776   20.2850 C   0  0  0  0  0  0  0  0  0  0  0  0
  -20.7851  -33.4455   18.2103 C   0  0  0  0  0  0  0  0  0  0  0  0
  -29.6683  -12.2865   18.3950 C   0  0  0  0  0  0  0  0  0  0  0  0
  -20.5096  -31.9474   18.2923 C   0  0  0  0  0  0  0  0  0  0  0  0
  -28.2197  -12.0086   18.8030 C   0  0  0  0  0  0  0  0  0  0  0  0
  -30.3022  -23.7134   23.0831 C   0  0  0  0  0  0  0  0  0  0  0  0
  -27.8096  -23.3772   22.7748 C   0  0  0  0  0  0  0  0  0  0  0  0
  -30.0407  -25.1056   23.6525 C   0  0  0  0  0  0  0  0  0  0  0  0
  -27.5541  -24.7704   23.3446 C   0  0  0  0  0  0  0  0  0  0  0  0
  -30.5486  -12.5969   19.6043 C   0  0  0  0  0  0  0  0  0  0  0  0
  -28.5993  -13.3871   20.8869 C   0  0  0  0  0  0  0  0  0  0  0  0
  -20.4841  -31.4701   19.7494 C   0  0  1  0  0  0  0  0  0  0  0  0
  -23.9714  -30.3001   20.6921 C   0  0  1  0  0  0  0  0  0  0  0  0
  -27.6603  -13.1331   19.6964 C   0  0  2  0  0  0  0  0  0  0  0  0
  -29.1078  -22.7937   23.3288 C   0  0  0  0  0  0  0  0  0  0  0  0
  -28.7430  -25.7028   23.1102 C   0  0  0  0  0  0  0  0  0  1  0  0
  -32.9406  -19.7023   21.8188 C   0  0  0  0  0  0  0  0  0  0  0  0
  -29.8753  -30.7726   15.4531 C   0  0  0  0  0  0  0  0  0  0  0  0
  -24.5238  -27.4046   17.4252 C   0  0  0  0  0  0  0  0  0  0  0  0
  -26.5425  -27.5531   15.9517 C   0  0  0  0  0  0  0  0  0  0  0  0
  -24.7354  -29.2625   15.7644 C   0  0  0  0  0  0  0  0  0  0  0  0
  -29.9307  -32.4770   18.8543 C   0  0  0  0  0  0  0  0  0  0  0  0
  -30.2998  -20.6006   23.4191 C   0  0  0  0  0  0  0  0  0  0  0  0
  -26.2576  -29.2840   17.7830 C   0  0  1  0  0  0  0  0  0  0  0  0
  -29.2759  -31.3248   16.7371 C   0  0  2  0  0  0  0  0  0  0  0  0
  -25.5174  -28.3775   16.7594 C   0  0  0  0  0  0  0  0  0  0  0  0
  -25.8696  -11.5649   20.3410 N   0  0  0  0  0  0  0  0  0  0  0  0
  -31.6598  -17.6425   21.4671 N   0  0  0  0  0  0  0  0  0  0  0  0
  -26.2402  -12.8416   20.1440 N   0  0  0  0  0  0  0  0  0  0  0  0
  -24.8504  -29.5139   19.8099 N   0  0  0  0  0  0  0  0  0  0  0  0
  -29.9582  -13.6744   20.4014 N   0  0  0  0  0  0  0  0  0  0  0  0
  -25.4505  -15.0729   20.2339 N   0  0  0  0  0  0  0  0  0  0  0  0
  -21.8531  -12.6436   21.4801 N   0  0  0  0  0  0  0  0  0  0  0  0
  -30.0232  -15.8185   21.3817 N   0  0  0  0  0  0  0  0  0  0  0  0
  -21.8311  -31.3413   20.2626 N   0  0  0  0  0  0  0  0  0  0  0  0
  -27.1851  -30.2341   17.1785 N   0  0  0  0  0  0  0  0  0  0  0  0
  -29.3655  -21.4844   22.6727 N   0  3  0  0  0  0  0  0  0  0  0  0
  -30.3799  -31.8794   17.5705 N   0  3  0  0  0  0  0  0  0  0  0  0
  -22.6200  -14.7692   21.0898 O   0  0  0  0  0  0  0  0  0  0  0  0
  -22.2804  -29.1981   19.4705 O   0  0  0  0  0  0  0  0  0  0  0  0
  -24.9701  -31.2215   18.2348 O   0  0  0  0  0  0  0  0  0  0  0  0
  -29.0733  -29.4985   18.3057 O   0  0  0  0  0  0  0  0  0  0  0  0
  -31.8397  -15.0011   20.1925 O   0  0  0  0  0  0  0  0  0  0  0  0
  -21.6164   -7.0957   21.9188 O   0  0  0  0  0  0  0  0  0  0  0  0
  -28.5097  -26.9477   23.7601 O   0  0  0  0  0  0  0  0  0  1  0  0
  -16.8615   -7.7722   24.6274 F   0  0  0  0  0  0  0  0  0  0  0  0
  -21.2099   -5.9179   24.3866 F   0  0  0  0  0  0  0  0  0  0  0  0
  -29.4111  -18.0632   22.6708 S   0  0  0  0  0  0  0  0  0  0  0  0
  1  2  1  0  0  0  0
  1  5  2  0  0  0  0
  2  6  2  0  0  0  0
  3  8  2  0  0  0  0
  3 15  1  0  0  0  0
  4  9  1  0  0  0  0
  4 15  2  0  0  0  0
  5 17  1  0  0  0  0
  6 19  1  0  0  0  0
  7 10  2  0  0  0  0
  7 18  1  0  0  0  0
  8 21  1  0  0  0  0
  9 21  2  0  0  0  0
 10 22  1  0  0  0  0
 11 12  2  0  0  0  0
 11 23  1  0  0  0  0
 12 24  1  0  0  0  0
 13 20  1  0  0  0  0
 13 22  2  0  0  0  0
 14 24  2  0  0  0  0
 14 25  1  0  0  0  0
 15 26  1  0  0  0  0
 16 26  1  0  0  0  0
 16 29  2  0  0  0  0
 16 31  1  0  0  0  0
 17 19  2  0  0  0  0
 17 36  1  0  0  0  0
 18 20  2  0  0  0  0
 18 37  1  0  0  0  0
 19 49  1  0  0  0  0
 20 38  1  0  0  0  0
 21 81  1  0  0  0  0
 22 82  1  0  0  0  0
 23 25  2  0  0  0  0
 23 81  1  0  0  0  0
 24 83  1  0  0  0  0
 25 84  1  0  0  0  0
 26 64  2  0  0  0  0
 27 28  2  0  0  0  0
 27 54  1  0  0  0  0
 27 65  1  0  0  0  0
 28 60  1  0  0  0  0
 28 85  1  0  0  0  0
 29 66  1  0  0  0  0
 29 69  1  0  0  0  0
 30 65  2  0  0  0  0
 30 71  1  0  0  0  0
 30 85  1  0  0  0  0
 31 70  1  0  0  0  0
 31 76  2  0  0  0  0
 32 50  1  0  0  0  0
 32 72  1  0  0  0  0
 32 77  2  0  0  0  0
 33 61  1  0  0  0  0
 33 67  1  0  0  0  0
 33 78  2  0  0  0  0
 34 62  1  0  0  0  0
 34 73  1  0  0  0  0
 34 79  2  0  0  0  0
 35 68  1  0  0  0  0
 35 71  1  0  0  0  0
 35 80  2  0  0  0  0
 36 39  1  0  0  0  0
 37 50  1  0  0  0  0
 38 67  1  0  0  0  0
 39 41  1  0  0  0  0
 40 42  1  0  0  0  0
 40 47  1  0  0  0  0
 41 49  1  0  0  0  0
 42 51  1  0  0  0  0
 43 45  1  0  0  0  0
 43 52  1  0  0  0  0
 44 46  1  0  0  0  0
 44 52  1  0  0  0  0
 45 53  1  0  0  0  0
 46 53  1  0  0  0  0
 47 68  1  0  0  0  0
 48 51  1  0  0  0  0
 48 68  1  0  0  0  0
 49 72  1  0  0  0  0
 50 67  1  0  0  0  0
 51 66  1  0  0  0  0
 52 74  1  0  0  0  0
 53 82  1  0  0  0  0
 55 62  1  0  0  0  0
 56 63  1  0  0  0  0
 57 63  1  0  0  0  0
 58 63  1  0  0  0  0
 59 75  1  0  0  0  0
 60 74  1  0  0  0  0
 61 63  1  0  0  0  0
 61 73  1  0  0  0  0
 62 75  1  0  0  0  0
 64 66  1  0  0  0  0
M  CHG  2  74   1  75   1
M  ISO  4  35 100  53 101  71 100  82 101
M  END
> <Batch ID>
0130

> <Smiles>
CNC(C)C(=O)NC(C(=O)N1Cc2cc([101O:1][101CH:1]3CCC(NCc4sc([100NH:0][100C:0](=O)N5CCCC(n6nc(-c7ccc(Oc8ccc(F)cc8F)cc7)c(C(N)=O)c6N)C5)nc4C)CC3)ccc2CC1C(=O)NC1CCCc2ccccc21)C(C)(C)C

> <Shape>
0.218

> <Color>
0.191

> <Negative vol penalty>
0.000

$$$$

  -OEChem-04052320473D

 82 90  0     1  0  0  0  0  0999 V2000
  -22.5191  -20.1667   23.2926 C   0  0  0  0  0  0  0  0  0  0  0  0
  -23.3704  -20.9709   22.5417 C   0  0  0  0  0  0  0  0  0  0  0  0
  -25.2099  -13.3115   21.7545 C   0  0  0  0  0  0  0  0  0  0  0  0
  -26.0253  -12.7723   19.5451 C   0  0  0  0  0  0  0  0  0  0  0  0
  -21.2458  -20.6245   23.6288 C   0  0  0  0  0  0  0  0  0  0  0  0
  -22.9484  -22.2332   22.1256 C   0  0  0  0  0  0  0  0  0  0  0  0
  -26.4872  -25.7895   22.8145 C   0  0  0  0  0  0  0  0  0  0  0  0
  -24.8375  -11.9804   21.9420 C   0  0  0  0  0  0  0  0  0  0  0  0
  -25.6530  -11.4411   19.7326 C   0  0  0  0  0  0  0  0  0  0  0  0
  -27.5279  -25.8400   21.8881 C   0  0  0  0  0  0  0  0  0  0  0  0
  -23.3444   -8.7951   22.8628 C   0  0  0  0  0  0  0  0  0  0  0  0
  -22.0891   -8.5431   23.4162 C   0  0  0  0  0  0  0  0  0  0  0  0
  -26.4320  -27.6725   20.7657 C   0  0  0  0  0  0  0  0  0  0  0  0
  -29.4378  -24.2803   19.1386 C   0  0  0  0  0  0  0  0  0  0  0  0
  -21.0431   -9.6955   21.5682 C   0  0  0  0  0  0  0  0  0  0  0  0
  -30.7993  -24.2161   21.0876 C   0  0  0  0  0  0  0  0  0  0  0  0
  -30.4463  -22.2716   19.9160 C   0  0  0  0  0  0  0  0  0  0  0  0
  -25.8037  -13.7075   20.5560 C   0  0  0  0  0  0  0  0  0  0  0  0
  -27.4278  -15.6711   20.6752 C   0  0  0  0  0  0  0  0  0  0  0  0
  -20.8115  -21.8969   23.2248 C   0  0  0  0  0  0  0  0  0  0  0  0
  -25.4039  -26.6745   22.7168 C   0  0  0  0  0  0  0  0  0  0  0  0
  -21.6676  -22.7079   22.4555 C   0  0  0  0  0  0  0  0  0  0  0  0
  -25.3800  -27.6329   21.6936 C   0  0  0  0  0  0  0  0  0  0  0  0
  -30.0198  -24.9507   20.2086 C   0  0  0  0  0  0  0  0  0  0  0  0
  -29.6501  -22.9150   18.9823 C   0  0  0  0  0  0  0  0  0  0  0  0
  -25.0591  -11.0452   20.9311 C   0  0  0  0  0  0  0  0  0  0  0  0
  -27.4991  -26.7797   20.8619 C   0  0  0  0  0  0  0  0  0  0  0  0
  -23.4491   -9.4975   21.6622 C   0  0  0  0  0  0  0  0  0  0  0  0
  -20.9384   -8.9932   22.7688 C   0  0  0  0  0  0  0  0  0  0  0  0
  -22.2985   -9.9476   21.0149 C   0  0  0  0  0  0  0  0  0  0  0  0
  -26.1881  -15.0824   20.3615 C   0  0  0  0  0  0  0  0  0  0  0  0
  -27.2880  -16.9855   20.3019 C   0  0  0  0  0  0  0  0  0  0  0  0
  -28.6009  -15.0824   21.2523 C   0  0  0  0  0  0  0  0  0  0  0  0
  -22.2741  -26.3479   22.2680 C   0  0  0  0  0  0  0  0  0  0  0  0
  -22.2587  -29.5484   22.7965 C   0  0  0  0  0  0  0  0  0  0  0  0
  -23.9724  -32.4994   22.7584 C   0  0  0  0  0  0  0  0  0  0  0  0
  -25.6024  -20.8548   16.6506 C   0  0  0  0  0  0  0  0  0  0  0  0
  -19.4090  -22.3294   23.5720 C   0  0  0  0  0  0  0  0  0  0  0  0
  -24.3022  -26.6247   23.7397 C   0  0  0  0  0  0  0  0  0  0  0  0
  -24.2497  -28.6189   21.5567 C   0  0  0  0  0  0  0  0  0  0  0  0
  -19.1768  -23.8295   23.4108 C   0  0  0  0  0  0  0  0  0  0  0  0
  -23.1791  -19.6016   18.9384 C   0  0  0  0  0  0  0  0  0  0  0  0
  -19.7400  -24.3169   22.0796 C   0  0  0  0  0  0  0  0  0  0  0  0
  -23.8456  -18.3599   19.5333 C   0  0  0  0  0  0  0  0  0  0  0  0
  -23.5255  -19.7750   17.4612 C   0  0  0  0  0  0  0  0  0  0  0  0
  -25.6357  -18.5362   17.7549 C   0  0  0  0  0  0  0  0  0  0  0  0
  -21.2553  -24.0930   22.0066 C   0  0  1  0  0  0  0  0  0  0  0  0
  -22.9962  -27.2359   23.2415 C   0  0  1  0  0  0  0  0  0  0  0  0
  -25.3611  -18.3501   19.2569 C   0  0  2  0  0  0  0  0  0  0  0  0
  -30.8518  -27.2671   19.6746 C   0  0  0  0  0  0  0  0  0  0  0  0
  -23.6827  -34.9515   23.2063 C   0  0  0  0  0  0  0  0  0  0  0  0
  -20.7576  -29.8507   20.1573 C   0  0  0  0  0  0  0  0  0  0  0  0
  -21.3317  -32.2874   20.1902 C   0  0  0  0  0  0  0  0  0  0  0  0
  -19.9238  -31.3150   22.0053 C   0  0  0  0  0  0  0  0  0  0  0  0
  -26.0235  -32.4703   24.8917 C   0  0  0  0  0  0  0  0  0  0  0  0
  -28.2466  -22.8344   16.9208 C   0  0  0  0  0  0  0  0  0  0  0  0
  -27.7666  -21.8116   15.9024 C   0  0  0  0  0  0  0  0  0  0  0  0
  -29.8077  -26.4340   20.4072 C   0  0  1  0  0  0  0  0  0  1  0  0
  -22.3928  -30.7760   21.9282 C   0  0  1  0  0  0  0  0  0  0  0  0
  -24.0926  -33.6078   23.7887 C   0  0  2  0  0  0  0  0  0  0  0  0
  -21.1220  -31.0375   21.0714 C   0  0  0  0  0  0  0  0  0  0  0  0
  -31.0284  -22.8891   20.9684 N   0  0  0  0  0  0  0  0  0  0  0  0
  -25.3243  -15.9516   19.8301 N   0  0  0  0  0  0  0  0  0  0  0  0
  -26.0223  -17.0998   19.8069 N   0  0  0  0  0  0  0  0  0  0  0  0
  -23.1930  -28.5262   22.5776 N   0  0  0  0  0  0  0  0  0  0  0  0
  -24.9775  -19.7585   17.2676 N   0  0  0  0  0  0  0  0  0  0  0  0
  -28.1256  -18.0430   20.3521 N   0  0  0  0  0  0  0  0  0  0  0  0
  -28.5740  -13.7190   21.5760 N   0  0  0  0  0  0  0  0  0  0  0  0
  -29.0756  -22.2119   17.9108 N   0  0  0  0  0  0  0  0  0  0  0  0
  -21.9529  -25.1027   22.7737 N   0  0  0  0  0  0  0  0  0  0  0  0
  -22.7460  -31.8725   22.8234 N   0  0  0  0  0  0  0  0  0  0  0  0
  -26.9817  -20.7611   16.5116 N   0  0  0  0  0  0  0  0  0  0  0  0
  -25.4979  -33.7145   24.2730 N   0  3  0  0  0  0  0  0  0  0  0  0
  -29.6364  -15.7495   21.4895 O   0  0  0  0  0  0  0  0  0  0  0  0
  -22.0253  -26.7624   21.1419 O   0  0  0  0  0  0  0  0  0  0  0  0
  -21.3625  -29.5012   23.6429 O   0  0  0  0  0  0  0  0  0  0  0  0
  -24.8746  -32.2203   21.9719 O   0  0  0  0  0  0  0  0  0  0  0  0
  -24.9780  -21.8462   16.2578 O   0  0  0  0  0  0  0  0  0  0  0  0
  -24.6961   -9.7462   21.1137 O   0  0  0  0  0  0  0  0  0  0  0  0
  -28.5133  -26.8307   19.9560 O   0  0  0  0  0  0  0  0  0  1  0  0
  -19.7329   -8.7497   23.2995 F   0  0  0  0  0  0  0  0  0  0  0  0
  -22.3927  -10.6218   19.8606 F   0  0  0  0  0  0  0  0  0  0  0  0
  1  2  1  0  0  0  0
  1  5  2  0  0  0  0
  2  6  2  0  0  0  0
  3  8  2  0  0  0  0
  3 18  1  0  0  0  0
  4  9  1  0  0  0  0
  4 18  2  0  0  0  0
  5 20  1  0  0  0  0
  6 22  1  0  0  0  0
  7 10  2  0  0  0  0
  7 21  1  0  0  0  0
  8 26  1  0  0  0  0
  9 26  2  0  0  0  0
 10 27  1  0  0  0  0
 11 12  2  0  0  0  0
 11 28  1  0  0  0  0
 12 29  1  0  0  0  0
 13 23  1  0  0  0  0
 13 27  2  0  0  0  0
 14 24  2  0  0  0  0
 14 25  1  0  0  0  0
 15 29  2  0  0  0  0
 15 30  1  0  0  0  0
 16 24  1  0  0  0  0
 16 62  2  0  0  0  0
 17 25  2  0  0  0  0
 17 62  1  0  0  0  0
 18 31  1  0  0  0  0
 19 31  1  0  0  0  0
 19 32  2  0  0  0  0
 19 33  1  0  0  0  0
 20 22  2  0  0  0  0
 20 38  1  0  0  0  0
 21 23  2  0  0  0  0
 21 39  1  0  0  0  0
 22 47  1  0  0  0  0
 23 40  1  0  0  0  0
 24 58  1  0  0  0  0
 25 69  1  0  0  0  0
 26 79  1  0  0  0  0
 27 80  1  0  0  0  0
 28 30  2  0  0  0  0
 28 79  1  0  0  0  0
 29 81  1  0  0  0  0
 30 82  1  0  0  0  0
 31 63  2  0  0  0  0
 32 64  1  0  0  0  0
 32 67  1  0  0  0  0
 33 68  1  0  0  0  0
 33 74  2  0  0  0  0
 34 48  1  0  0  0  0
 34 70  1  0  0  0  0
 34 75  2  0  0  0  0
 35 59  1  0  0  0  0
 35 65  1  0  0  0  0
 35 76  2  0  0  0  0
 36 60  1  0  0  0  0
 36 71  1  0  0  0  0
 36 77  2  0  0  0  0
 37 66  1  0  0  0  0
 37 72  1  0  0  0  0
 37 78  2  0  0  0  0
 38 41  1  0  0  0  0
 39 48  1  0  0  0  0
 40 65  1  0  0  0  0
 41 43  1  0  0  0  0
 42 44  1  0  0  0  0
 42 45  1  0  0  0  0
 43 47  1  0  0  0  0
 44 49  1  0  0  0  0
 45 66  1  0  0  0  0
 46 49  1  0  0  0  0
 46 66  1  0  0  0  0
 47 70  1  0  0  0  0
 48 65  1  0  0  0  0
 49 64  1  0  0  0  0
 50 58  1  0  0  0  0
 51 60  1  0  0  0  0
 52 61  1  0  0  0  0
 53 61  1  0  0  0  0
 54 61  1  0  0  0  0
 55 73  1  0  0  0  0
 56 57  1  0  0  0  0
 56 69  1  0  0  0  0
 57 72  1  0  0  0  0
 58 80  1  0  0  0  0
 59 61  1  0  0  0  0
 59 71  1  0  0  0  0
 60 73  1  0  0  0  0
 63 64  1  0  0  0  0
M  CHG  1  73   1
M  ISO  4  37 100  58 101  72 100  80 101
M  END
> <Batch ID>
0130

> <Smiles>
CNC(C)C(=O)NC(C(=O)N1Cc2cc([101O:1][101CH:1](C)c3cncc(NCC[100NH:0][100C:0](=O)N4CCCC(n5nc(-c6ccc(Oc7ccc(F)cc7F)cc6)c(C(N)=O)c5N)C4)c3)ccc2CC1C(=O)NC1CCCc2ccccc21)C(C)(C)C

> <Shape>
0.222

> <Color>
0.065

> <Negative vol penalty>
0.000

$$$$

  -OEChem-04052320473D

 83 91  0     1  0  0  0  0  0999 V2000
  -32.3010  -21.7374   22.0888 C   0  0  0  0  0  0  0  0  0  0  0  0
  -31.1419  -22.1758   22.7209 C   0  0  0  0  0  0  0  0  0  0  0  0
  -29.8521  -27.7263   20.2292 C   0  0  0  0  0  0  0  0  0  0  0  0
  -28.7726  -26.4027   21.9379 C   0  0  0  0  0  0  0  0  0  0  0  0
  -32.2149  -21.0238   20.8941 C   0  0  0  0  0  0  0  0  0  0  0  0
  -29.8958  -21.9018   22.1581 C   0  0  0  0  0  0  0  0  0  0  0  0
  -23.1179  -20.5077   24.0106 C   0  0  0  0  0  0  0  0  0  0  0  0
  -18.9677  -26.8195   20.7850 C   0  0  0  0  0  0  0  0  0  0  0  0
  -31.0998  -27.3252   20.7066 C   0  0  0  0  0  0  0  0  0  0  0  0
  -30.0204  -26.0015   22.4153 C   0  0  0  0  0  0  0  0  0  0  0  0
  -21.8192  -20.9440   23.7523 C   0  0  0  0  0  0  0  0  0  0  0  0
  -33.0920  -24.6018   20.4890 C   0  0  0  0  0  0  0  0  0  0  0  0
  -34.0474  -24.2058   19.5531 C   0  0  0  0  0  0  0  0  0  0  0  0
  -19.4799  -28.0186   21.2677 C   0  0  0  0  0  0  0  0  0  0  0  0
  -21.7887  -19.6346   21.7265 C   0  0  0  0  0  0  0  0  0  0  0  0
  -35.5199  -25.9645   20.3120 C   0  0  0  0  0  0  0  0  0  0  0  0
  -28.6885  -27.2652   20.8449 C   0  0  0  0  0  0  0  0  0  0  0  0
  -26.6206  -27.0430   19.3678 C   0  0  0  0  0  0  0  0  0  0  0  0
  -30.9667  -20.7325   20.3214 C   0  0  0  0  0  0  0  0  0  0  0  0
  -23.7668  -19.6387   23.1218 C   0  0  0  0  0  0  0  0  0  0  0  0
  -29.7930  -21.1848   20.9539 C   0  0  0  0  0  0  0  0  0  0  0  0
  -23.0947  -19.1867   21.9772 C   0  0  0  0  0  0  0  0  0  0  0  0
  -18.5591  -25.8349   21.6778 C   0  0  0  0  0  0  0  0  0  0  0  0
  -31.1839  -26.4627   21.7996 C   0  0  0  0  0  0  0  0  0  0  0  0
  -21.1554  -20.5098   22.6086 C   0  0  0  0  0  0  0  0  0  0  0  0
  -33.3505  -25.6793   21.3364 C   0  0  0  0  0  0  0  0  0  0  0  0
  -35.2614  -24.8871   19.4646 C   0  0  0  0  0  0  0  0  0  0  0  0
  -34.5644  -26.3606   21.2478 C   0  0  0  0  0  0  0  0  0  0  0  0
  -27.3993  -27.6797   20.3526 C   0  0  0  0  0  0  0  0  0  0  0  0
  -19.5621  -28.1826   22.6411 C   0  0  0  0  0  0  0  0  0  0  0  0
  -18.6827  -26.0966   23.0328 C   0  0  0  0  0  0  0  0  0  0  0  0
  -25.4952  -27.8233   19.2624 C   0  0  0  0  0  0  0  0  0  0  0  0
  -26.8903  -25.8527   18.6154 C   0  0  0  0  0  0  0  0  0  0  0  0
  -26.3830  -19.8109   21.3246 C   0  0  0  0  0  0  0  0  0  0  0  0
  -25.7157  -16.6906   20.7409 C   0  0  0  0  0  0  0  0  0  0  0  0
  -23.3868  -14.1989   20.6229 C   0  0  0  0  0  0  0  0  0  0  0  0
  -21.9367  -31.0008   22.5420 C   0  0  0  0  0  0  0  0  0  0  0  0
  -30.9259  -19.9990   19.0042 C   0  0  0  0  0  0  0  0  0  0  0  0
  -25.1580  -19.1561   23.4286 C   0  0  0  0  0  0  0  0  0  0  0  0
  -23.7398  -18.2376   21.0017 C   0  0  0  0  0  0  0  0  0  0  0  0
  -29.5514  -19.4260   18.6685 C   0  0  0  0  0  0  0  0  0  0  0  0
  -24.3748  -32.4969   20.4221 C   0  0  0  0  0  0  0  0  0  0  0  0
  -28.4644  -20.4680   18.9126 C   0  0  0  0  0  0  0  0  0  0  0  0
  -25.3309  -31.3480   20.0965 C   0  0  0  0  0  0  0  0  0  0  0  0
  -23.8551  -32.4096   21.8553 C   0  0  0  0  0  0  0  0  0  0  0  0
  -24.1960  -29.9690   21.8879 C   0  0  0  0  0  0  0  0  0  0  0  0
  -28.4219  -20.8858   20.3874 C   0  0  1  0  0  0  0  0  0  0  0  0
  -25.9110  -18.6777   22.1910 C   0  0  1  0  0  0  0  0  0  0  0  0
  -24.7029  -29.9828   20.4356 C   0  0  2  0  0  0  0  0  0  0  0  0
  -18.2569  -25.0772   24.0379 C   0  0  0  0  0  0  0  0  0  0  0  0
  -23.1339  -11.7632   20.0742 C   0  0  0  0  0  0  0  0  0  0  0  0
  -25.8384  -17.3508   17.7645 C   0  0  0  0  0  0  0  0  0  0  0  0
  -24.6701  -15.1842   17.3069 C   0  0  0  0  0  0  0  0  0  0  0  0
  -26.9136  -15.1834   18.3974 C   0  0  0  0  0  0  0  0  0  0  0  0
  -22.5017  -13.5524   23.3720 C   0  0  0  0  0  0  0  0  0  0  0  0
  -18.0069  -24.5384   21.1629 C   0  0  0  0  0  0  0  0  0  0  0  0
  -20.1053  -29.4580   23.1938 C   0  0  0  0  0  0  0  0  0  0  0  0
  -18.4260  -22.0975   20.8393 C   0  0  0  0  0  0  0  0  0  0  0  0
  -19.5009  -21.0382   20.9841 C   0  0  0  0  0  0  0  0  0  1  0  0
  -24.8953  -15.9466   19.7150 C   0  0  1  0  0  0  0  0  0  0  0  0
  -23.3975  -12.7833   21.1709 C   0  0  2  0  0  0  0  0  0  0  0  0
  -25.5676  -15.9357   18.3131 C   0  0  0  0  0  0  0  0  0  0  0  0
  -26.8180  -28.7798   20.8382 N   0  0  0  0  0  0  0  0  0  0  0  0
  -19.1753  -27.2492   23.5393 N   0  0  0  0  0  0  0  0  0  0  0  0
  -25.6619  -28.8405   20.1556 N   0  0  0  0  0  0  0  0  0  0  0  0
  -25.1033  -17.7992   21.3424 N   0  0  0  0  0  0  0  0  0  0  0  0
  -23.2708  -31.0910   22.1117 N   0  0  0  0  0  0  0  0  0  0  0  0
  -24.3891  -27.7317   18.4938 N   0  0  0  0  0  0  0  0  0  0  0  0
  -28.0939  -25.1734   18.8485 N   0  0  0  0  0  0  0  0  0  0  0  0
  -27.7558  -19.8747   21.1801 N   0  0  0  0  0  0  0  0  0  0  0  0
  -24.6518  -14.6200   20.2713 N   0  0  0  0  0  0  0  0  0  0  0  0
  -21.4594  -29.7134   22.7558 N   0  0  0  0  0  0  0  0  0  0  0  0
  -22.3511  -12.6261   22.2203 N   0  3  0  0  0  0  0  0  0  0  0  0
  -18.9651  -23.4068   21.2856 N   0  3  0  0  0  0  0  0  0  0  0  0
  -26.0952  -25.4138   17.7501 O   0  0  0  0  0  0  0  0  0  0  0  0
  -25.5624  -20.5703   20.8231 O   0  0  0  0  0  0  0  0  0  0  0  0
  -26.8552  -16.2983   21.0041 O   0  0  0  0  0  0  0  0  0  0  0  0
  -22.3585  -14.8631   20.5138 O   0  0  0  0  0  0  0  0  0  0  0  0
  -21.2222  -31.9936   22.7172 O   0  0  0  0  0  0  0  0  0  0  0  0
  -32.4013  -26.0708   22.2655 O   0  0  0  0  0  0  0  0  0  0  0  0
  -19.8880  -20.9347   22.3536 O   0  0  0  0  0  0  0  0  0  1  0  0
  -36.1794  -24.5057   18.5668 F   0  0  0  0  0  0  0  0  0  0  0  0
  -34.8189  -27.3957   22.0600 F   0  0  0  0  0  0  0  0  0  0  0  0
  1  2  1  0  0  0  0
  1  5  2  0  0  0  0
  2  6  2  0  0  0  0
  3  9  2  0  0  0  0
  3 17  1  0  0  0  0
  4 10  1  0  0  0  0
  4 17  2  0  0  0  0
  5 19  1  0  0  0  0
  6 21  1  0  0  0  0
  7 11  2  0  0  0  0
  7 20  1  0  0  0  0
  8 14  2  0  0  0  0
  8 23  1  0  0  0  0
  9 24  1  0  0  0  0
 10 24  2  0  0  0  0
 11 25  1  0  0  0  0
 12 13  2  0  0  0  0
 12 26  1  0  0  0  0
 13 27  1  0  0  0  0
 14 30  1  0  0  0  0
 15 22  1  0  0  0  0
 15 25  2  0  0  0  0
 16 27  2  0  0  0  0
 16 28  1  0  0  0  0
 17 29  1  0  0  0  0
 18 29  1  0  0  0  0
 18 32  2  0  0  0  0
 18 33  1  0  0  0  0
 19 21  2  0  0  0  0
 19 38  1  0  0  0  0
 20 22  2  0  0  0  0
 20 39  1  0  0  0  0
 21 47  1  0  0  0  0
 22 40  1  0  0  0  0
 23 31  2  0  0  0  0
 23 56  1  0  0  0  0
 24 80  1  0  0  0  0
 25 81  1  0  0  0  0
 26 28  2  0  0  0  0
 26 80  1  0  0  0  0
 27 82  1  0  0  0  0
 28 83  1  0  0  0  0
 29 63  2  0  0  0  0
 30 57  1  0  0  0  0
 30 64  2  0  0  0  0
 31 50  1  0  0  0  0
 31 64  1  0  0  0  0
 32 65  1  0  0  0  0
 32 68  1  0  0  0  0
 33 69  1  0  0  0  0
 33 75  2  0  0  0  0
 34 48  1  0  0  0  0
 34 70  1  0  0  0  0
 34 76  2  0  0  0  0
 35 60  1  0  0  0  0
 35 66  1  0  0  0  0
 35 77  2  0  0  0  0
 36 61  1  0  0  0  0
 36 71  1  0  0  0  0
 36 78  2  0  0  0  0
 37 67  1  0  0  0  0
 37 72  1  0  0  0  0
 37 79  2  0  0  0  0
 38 41  1  0  0  0  0
 39 48  1  0  0  0  0
 40 66  1  0  0  0  0
 41 43  1  0  0  0  0
 42 44  1  0  0  0  0
 42 45  1  0  0  0  0
 43 47  1  0  0  0  0
 44 49  1  0  0  0  0
 45 67  1  0  0  0  0
 46 49  1  0  0  0  0
 46 67  1  0  0  0  0
 47 70  1  0  0  0  0
 48 66  1  0  0  0  0
 49 65  1  0  0  0  0
 51 61  1  0  0  0  0
 52 62  1  0  0  0  0
 53 62  1  0  0  0  0
 54 62  1  0  0  0  0
 55 73  1  0  0  0  0
 56 74  1  0  0  0  0
 57 72  1  0  0  0  0
 58 59  1  0  0  0  0
 58 74  1  0  0  0  0
 59 81  1  0  0  0  0
 60 62  1  0  0  0  0
 60 71  1  0  0  0  0
 61 73  1  0  0  0  0
 63 65  1  0  0  0  0
M  CHG  2  73   1  74   1
M  ISO  4  37 100  59 101  72 100  81 101
M  END
> <Batch ID>
0130

> <Smiles>
CNC(C)C(=O)NC(C(=O)N1Cc2cc([101O:1][101CH2:1]CNCc3ccc(C[100NH:0][100C:0](=O)N4CCCC(n5nc(-c6ccc(Oc7ccc(F)cc7F)cc6)c(C(N)=O)c5N)C4)nc3C)ccc2CC1C(=O)NC1CCCc2ccccc21)C(C)(C)C

> <Shape>
0.209

> <Color>
0.087

> <Negative vol penalty>
0.000

$$$$

  -OEChem-04052320473D

 84 92  0     1  0  0  0  0  0999 V2000
  -16.9442  -25.0231   24.6946 C   0  0  0  0  0  0  0  0  0  0  0  0
  -17.6520  -24.1768   23.8472 C   0  0  0  0  0  0  0  0  0  0  0  0
  -28.0424  -19.8983   12.3898 C   0  0  0  0  0  0  0  0  0  0  0  0
  -27.3958  -18.7374   12.8136 C   0  0  0  0  0  0  0  0  0  0  0  0
  -27.9996  -12.6145   22.7401 C   0  0  0  0  0  0  0  0  0  0  0  0
  -27.0725  -12.9793   20.5390 C   0  0  0  0  0  0  0  0  0  0  0  0
  -17.1408  -26.4016   24.6245 C   0  0  0  0  0  0  0  0  0  0  0  0
  -18.5561  -24.7086   22.9284 C   0  0  0  0  0  0  0  0  0  0  0  0
  -23.8305  -22.2039   21.0811 C   0  0  0  0  0  0  0  0  0  0  0  0
  -28.2269  -20.9578   13.2782 C   0  0  0  0  0  0  0  0  0  0  0  0
  -26.9337  -18.6358   14.1258 C   0  0  0  0  0  0  0  0  0  0  0  0
  -27.3010  -11.4110   22.8349 C   0  0  0  0  0  0  0  0  0  0  0  0
  -26.3740  -11.7757   20.6338 C   0  0  0  0  0  0  0  0  0  0  0  0
  -24.1728  -21.4665   19.9484 C   0  0  0  0  0  0  0  0  0  0  0  0
  -24.0645   -8.9758   20.4425 C   0  0  0  0  0  0  0  0  0  0  0  0
  -22.7277   -8.9689   20.0442 C   0  0  0  0  0  0  0  0  0  0  0  0
  -24.9670  -23.4807   18.8847 C   0  0  0  0  0  0  0  0  0  0  0  0
  -22.2197  -10.6324   21.7212 C   0  0  0  0  0  0  0  0  0  0  0  0
  -27.8853  -13.3987   21.5922 C   0  0  0  0  0  0  0  0  0  0  0  0
  -29.9025  -14.8352   20.9797 C   0  0  0  0  0  0  0  0  0  0  0  0
  -18.0549  -26.9500   23.7111 C   0  0  0  0  0  0  0  0  0  0  0  0
  -24.0443  -23.5892   21.1200 C   0  0  0  0  0  0  0  0  0  0  0  0
  -18.7641  -26.0959   22.8451 C   0  0  0  0  0  0  0  0  0  0  0  0
  -24.6290  -24.2329   20.0200 C   0  0  0  0  0  0  0  0  0  0  0  0
  -27.7648  -20.8562   14.5904 C   0  0  0  0  0  0  0  0  0  0  0  0
  -26.4882  -10.9915   21.7817 C   0  0  0  0  0  0  0  0  0  0  0  0
  -24.7385  -22.1053   18.8489 C   0  0  0  0  0  0  0  0  0  0  0  0
  -27.1182  -19.6952   15.0142 C   0  0  0  0  0  0  0  0  0  0  0  0
  -24.4789   -9.8108   21.4801 C   0  0  0  0  0  0  0  0  0  0  0  0
  -21.8053   -9.7972   20.6836 C   0  0  0  0  0  0  0  0  0  0  0  0
  -23.5565  -10.6392   22.1194 C   0  0  0  0  0  0  0  0  0  0  0  0
  -28.6063  -14.6424   21.4939 C   0  0  0  0  0  0  0  0  0  0  0  0
  -30.1257  -16.1843   21.1084 C   0  0  0  0  0  0  0  0  0  0  0  0
  -30.8225  -13.8802   20.4345 C   0  0  0  0  0  0  0  0  0  0  0  0
  -22.1715  -26.1404   21.4166 C   0  0  0  0  0  0  0  0  0  0  0  0
  -25.0021  -27.7193   21.5479 C   0  0  0  0  0  0  0  0  0  0  0  0
  -28.3265  -27.7757   20.7783 C   0  0  0  0  0  0  0  0  0  0  0  0
  -28.4056  -21.4706   20.6163 C   0  0  0  0  0  0  0  0  0  0  0  0
  -18.1987  -28.4496   23.6396 C   0  0  0  0  0  0  0  0  0  0  0  0
  -23.6942  -24.3660   22.3595 C   0  0  0  0  0  0  0  0  0  0  0  0
  -24.8978  -25.7149   20.0192 C   0  0  0  0  0  0  0  0  0  0  0  0
  -19.4510  -28.9066   22.8959 C   0  0  0  0  0  0  0  0  0  0  0  0
  -27.5115  -19.7318   23.5918 C   0  0  0  0  0  0  0  0  0  0  0  0
  -19.6075  -28.1349   21.5895 C   0  0  0  0  0  0  0  0  0  0  0  0
  -27.8176  -18.2688   23.2666 C   0  0  0  0  0  0  0  0  0  0  0  0
  -26.9702  -20.4792   22.3751 C   0  0  0  0  0  0  0  0  0  0  0  0
  -28.1200  -18.9282   20.8433 C   0  0  0  0  0  0  0  0  0  0  0  0
  -19.7719  -26.6331   21.8521 C   0  0  1  0  0  0  0  0  0  0  0  0
  -23.4822  -25.8531   22.0927 C   0  0  1  0  0  0  0  0  0  0  0  0
  -28.7210  -18.1476   22.0247 C   0  0  2  0  0  0  0  0  0  0  0  0
  -30.3714  -29.2159   20.9819 C   0  0  0  0  0  0  0  0  0  0  0  0
  -23.9739  -29.4943   19.2891 C   0  0  0  0  0  0  0  0  0  0  0  0
  -26.3302  -30.2470   18.9018 C   0  0  0  0  0  0  0  0  0  0  0  0
  -25.2182  -30.7090   21.0865 C   0  0  0  0  0  0  0  0  0  0  0  0
  -29.7419  -25.7391   22.3932 C   0  0  0  0  0  0  0  0  0  0  0  0
  -27.9708  -22.0002   15.5272 C   0  0  0  0  0  0  0  0  0  0  0  0
  -29.8884  -22.3122   18.8129 C   0  0  0  0  0  0  0  0  0  0  0  0
  -29.0450  -22.7820   17.6423 C   0  0  0  0  0  0  0  0  0  0  0  0
  -24.8165  -19.9847   17.7752 C   0  0  0  0  0  0  0  0  0  1  0  0
  -25.2603  -19.3689   16.4624 C   0  0  0  0  0  0  0  0  0  0  0  0
  -25.9248  -28.3460   20.5307 C   0  0  1  0  0  0  0  0  0  0  0  0
  -29.5489  -28.1050   21.6161 C   0  0  2  0  0  0  0  0  0  0  0  0
  -25.3551  -29.6714   19.9510 C   0  0  0  0  0  0  0  0  0  0  0  0
  -28.0455  -15.7781   21.9178 N   0  0  0  0  0  0  0  0  0  0  0  0
  -28.9939  -16.6975   21.6702 N   0  0  0  0  0  0  0  0  0  0  0  0
  -24.5322  -26.4318   21.2520 N   0  0  0  0  0  0  0  0  0  0  0  0
  -27.8742  -20.3257   21.2326 N   0  0  0  0  0  0  0  0  0  0  0  0
  -31.1778  -16.9698   20.7946 N   0  0  0  0  0  0  0  0  0  0  0  0
  -30.4331  -12.5351   20.3764 N   0  0  0  0  0  0  0  0  0  0  0  0
  -21.1199  -26.3412   22.2903 N   0  0  0  0  0  0  0  0  0  0  0  0
  -27.2196  -28.4890   21.1875 N   0  0  0  0  0  0  0  0  0  0  0  0
  -29.2584  -21.2359   19.5447 N   0  0  0  0  0  0  0  0  0  0  0  0
  -30.4166  -26.9021   21.7614 N   0  3  0  0  0  0  0  0  0  0  0  0
  -28.7799  -21.6433   16.7245 N   0  3  0  0  0  0  0  0  0  0  0  0
  -31.9627  -14.2075   20.0264 O   0  0  0  0  0  0  0  0  0  0  0  0
  -22.1185  -26.1786   20.1929 O   0  0  0  0  0  0  0  0  0  0  0  0
  -24.7147  -28.3459   22.5708 O   0  0  0  0  0  0  0  0  0  0  0  0
  -28.3519  -26.9694   19.8512 O   0  0  0  0  0  0  0  0  0  0  0  0
  -28.1438  -22.6168   20.9964 O   0  0  0  0  0  0  0  0  0  0  0  0
  -25.8065   -9.8170   21.8738 O   0  0  0  0  0  0  0  0  0  0  0  0
  -25.0729  -21.3881   17.7418 O   0  0  0  0  0  0  0  0  0  1  0  0
  -26.6575  -19.5795   16.2993 O   0  0  0  0  0  0  0  0  0  0  0  0
  -20.5220   -9.7917   20.3000 F   0  0  0  0  0  0  0  0  0  0  0  0
  -23.9489  -11.4444   23.1161 F   0  0  0  0  0  0  0  0  0  0  0  0
  1  2  1  0  0  0  0
  1  7  2  0  0  0  0
  2  8  2  0  0  0  0
  3  4  1  0  0  0  0
  3 10  2  0  0  0  0
  4 11  2  0  0  0  0
  5 12  2  0  0  0  0
  5 19  1  0  0  0  0
  6 13  1  0  0  0  0
  6 19  2  0  0  0  0
  7 21  1  0  0  0  0
  8 23  1  0  0  0  0
  9 14  2  0  0  0  0
  9 22  1  0  0  0  0
 10 25  1  0  0  0  0
 11 28  1  0  0  0  0
 12 26  1  0  0  0  0
 13 26  2  0  0  0  0
 14 27  1  0  0  0  0
 15 16  2  0  0  0  0
 15 29  1  0  0  0  0
 16 30  1  0  0  0  0
 17 24  1  0  0  0  0
 17 27  2  0  0  0  0
 18 30  2  0  0  0  0
 18 31  1  0  0  0  0
 19 32  1  0  0  0  0
 20 32  1  0  0  0  0
 20 33  2  0  0  0  0
 20 34  1  0  0  0  0
 21 23  2  0  0  0  0
 21 39  1  0  0  0  0
 22 24  2  0  0  0  0
 22 40  1  0  0  0  0
 23 48  1  0  0  0  0
 24 41  1  0  0  0  0
 25 28  2  0  0  0  0
 25 56  1  0  0  0  0
 26 80  1  0  0  0  0
 27 81  1  0  0  0  0
 28 82  1  0  0  0  0
 29 31  2  0  0  0  0
 29 80  1  0  0  0  0
 30 83  1  0  0  0  0
 31 84  1  0  0  0  0
 32 64  2  0  0  0  0
 33 65  1  0  0  0  0
 33 68  1  0  0  0  0
 34 69  1  0  0  0  0
 34 75  2  0  0  0  0
 35 49  1  0  0  0  0
 35 70  1  0  0  0  0
 35 76  2  0  0  0  0
 36 61  1  0  0  0  0
 36 66  1  0  0  0  0
 36 77  2  0  0  0  0
 37 62  1  0  0  0  0
 37 71  1  0  0  0  0
 37 78  2  0  0  0  0
 38 67  1  0  0  0  0
 38 72  1  0  0  0  0
 38 79  2  0  0  0  0
 39 42  1  0  0  0  0
 40 49  1  0  0  0  0
 41 66  1  0  0  0  0
 42 44  1  0  0  0  0
 43 45  1  0  0  0  0
 43 46  1  0  0  0  0
 44 48  1  0  0  0  0
 45 50  1  0  0  0  0
 46 67  1  0  0  0  0
 47 50  1  0  0  0  0
 47 67  1  0  0  0  0
 48 70  1  0  0  0  0
 49 66  1  0  0  0  0
 50 65  1  0  0  0  0
 51 62  1  0  0  0  0
 52 63  1  0  0  0  0
 53 63  1  0  0  0  0
 54 63  1  0  0  0  0
 55 73  1  0  0  0  0
 56 74  1  0  0  0  0
 57 58  1  0  0  0  0
 57 72  1  0  0  0  0
 58 74  1  0  0  0  0
 59 60  1  0  0  0  0
 59 81  1  0  0  0  0
 60 82  1  0  0  0  0
 61 63  1  0  0  0  0
 61 71  1  0  0  0  0
 62 73  1  0  0  0  0
 64 65  1  0  0  0  0
M  CHG  2  73   1  74   1
M  ISO  4  38 100  59 101  72 100  81 101
M  END
> <Batch ID>
0130

> <Smiles>
CNC(C)C(=O)NC(C(=O)N1Cc2cc([101O:1][101CH2:1]COc3ccccc3CNCC[100NH:0][100C:0](=O)N3CCCC(n4nc(-c5ccc(Oc6ccc(F)cc6F)cc5)c(C(N)=O)c4N)C3)ccc2CC1C(=O)NC1CCCc2ccccc21)C(C)(C)C

> <Shape>
0.239

> <Color>
0.065

> <Negative vol penalty>
0.000

$$$$

  -OEChem-04052320473D

 92102  0     1  0  0  0  0  0999 V2000
  -26.4550  -34.2128   26.1193 C   0  0  0  0  0  0  0  0  0  0  0  0
  -26.9859  -33.0339   25.6057 C   0  0  0  0  0  0  0  0  0  0  0  0
  -21.7148  -10.5218   20.5902 C   0  0  0  0  0  0  0  0  0  0  0  0
  -23.4105  -10.1384   22.2680 C   0  0  0  0  0  0  0  0  0  0  0  0
  -25.0737  -34.3597   26.2395 C   0  0  0  0  0  0  0  0  0  0  0  0
  -26.1358  -32.0007   25.2129 C   0  0  0  0  0  0  0  0  0  0  0  0
  -26.9727  -28.1144   20.5544 C   0  0  0  0  0  0  0  0  0  0  0  0
  -21.4728   -9.1499   20.5212 C   0  0  0  0  0  0  0  0  0  0  0  0
  -23.1684   -8.7664   22.1990 C   0  0  0  0  0  0  0  0  0  0  0  0
  -27.4586  -26.8089   20.4977 C   0  0  0  0  0  0  0  0  0  0  0  0
  -22.7457   -5.1941   22.7264 C   0  0  0  0  0  0  0  0  0  0  0  0
  -22.6438   -4.4916   23.9271 C   0  0  0  0  0  0  0  0  0  0  0  0
  -25.1971  -25.9711   20.5522 C   0  0  0  0  0  0  0  0  0  0  0  0
  -28.6820  -22.0271   21.4173 C   0  0  0  0  0  0  0  0  0  0  0  0
  -29.2081  -22.3026   19.0755 C   0  0  0  0  0  0  0  0  0  0  0  0
  -20.7735   -5.8756   24.5781 C   0  0  0  0  0  0  0  0  0  0  0  0
  -22.6837  -11.0161   21.4636 C   0  0  0  0  0  0  0  0  0  0  0  0
  -22.3072  -13.3659   22.3824 C   0  0  0  0  0  0  0  0  0  0  0  0
  -24.2059  -33.3316   25.8390 C   0  0  0  0  0  0  0  0  0  0  0  0
  -25.5933  -28.3582   20.6215 C   0  0  0  0  0  0  0  0  0  0  0  0
  -24.7416  -32.1335   25.3291 C   0  0  0  0  0  0  0  0  0  0  0  0
  -24.6961  -27.2808   20.6070 C   0  0  0  0  0  0  0  0  0  0  0  0
  -29.4112  -20.1296   20.1117 C   0  0  0  0  0  0  0  0  0  0  0  0
  -28.7897  -22.8433   20.2913 C   0  0  0  0  0  0  0  0  0  0  0  0
  -28.9928  -20.6703   21.3275 C   0  0  0  0  0  0  0  0  0  0  0  0
  -29.5189  -20.9458   18.9856 C   0  0  0  0  0  0  0  0  0  0  0  0
  -22.1996   -8.2722   21.3256 C   0  0  0  0  0  0  0  0  0  0  0  0
  -26.5709  -25.7369   20.4995 C   0  0  0  0  0  0  0  0  0  0  0  0
  -21.8616   -6.2374   22.4515 C   0  0  0  0  0  0  0  0  0  0  0  0
  -21.6577   -4.8323   24.8529 C   0  0  0  0  0  0  0  0  0  0  0  0
  -20.8754   -6.5781   23.3773 C   0  0  0  0  0  0  0  0  0  0  0  0
  -22.9345  -12.4332   21.5349 C   0  0  0  0  0  0  0  0  0  0  0  0
  -22.8937  -14.5667   22.0653 C   0  0  0  0  0  0  0  0  0  0  0  0
  -21.2857  -13.1649   23.3682 C   0  0  0  0  0  0  0  0  0  0  0  0
  -23.6591  -29.7357   22.7345 C   0  0  0  0  0  0  0  0  0  0  0  0
  -21.4364  -29.2725   20.4178 C   0  0  0  0  0  0  0  0  0  0  0  0
  -20.4416  -27.5143   17.6672 C   0  0  0  0  0  0  0  0  0  0  0  0
  -28.3104  -15.4906   19.4681 C   0  0  0  0  0  0  0  0  0  0  0  0
  -22.7217  -33.5180   26.0320 C   0  0  0  0  0  0  0  0  0  0  0  0
  -25.0842  -29.7731   20.6552 C   0  0  0  0  0  0  0  0  0  0  0  0
  -23.2053  -27.4895   20.6572 C   0  0  0  0  0  0  0  0  0  0  0  0
  -21.8751  -32.5217   25.2440 C   0  0  0  0  0  0  0  0  0  0  0  0
  -24.9887  -16.8875   18.4582 C   0  0  0  0  0  0  0  0  0  0  0  0
  -35.9033  -19.4399   20.2988 C   0  0  0  0  0  0  0  0  0  0  0  0
  -22.4209  -31.1072   25.4118 C   0  0  0  0  0  0  0  0  0  0  0  0
  -24.0403  -15.9187   19.1627 C   0  0  0  0  0  0  0  0  0  0  0  0
  -34.6917  -19.2140   21.1836 C   0  0  0  0  0  0  0  0  0  0  0  0
  -31.4617  -16.8666   19.4371 C   0  0  0  0  0  0  0  0  0  0  0  0
  -26.3102  -16.2129   18.1097 C   0  0  0  0  0  0  0  0  0  0  0  0
  -30.4494  -16.2488   18.4810 C   0  0  0  0  0  0  0  0  0  0  0  0
  -28.7595  -17.9492   19.0572 C   0  0  0  0  0  0  0  0  0  0  0  0
  -26.0577  -14.6244   19.9905 C   0  0  0  0  0  0  0  0  0  0  0  0
  -35.3103  -20.0772   19.0580 C   0  0  0  0  0  0  0  0  0  0  0  0
  -29.7495  -18.6500   20.0139 C   0  0  1  0  0  0  0  0  0  0  0  0
  -23.8511  -30.9997   24.8691 C   0  0  1  0  0  0  0  0  0  0  0  0
  -23.6799  -29.8890   21.2400 C   0  0  1  0  0  0  0  0  0  0  0  0
  -31.2235  -18.3782   19.6072 C   0  0  1  0  0  0  0  0  0  0  0  0
  -24.7198  -15.2730   20.3820 C   0  0  2  0  0  0  0  0  0  0  0  0
  -33.6506  -18.6966   20.2019 C   0  0  1  0  0  0  0  0  0  0  0  0
  -28.8681  -19.8176   22.5478 C   0  0  0  0  0  0  0  0  0  0  0  0
  -31.2079  -21.0962   17.1387 C   0  0  0  0  0  0  0  0  0  0  0  0
  -18.5613  -27.3400   16.0145 C   0  0  0  0  0  0  0  0  0  0  0  0
  -19.7285  -27.8581   22.5137 C   0  0  0  0  0  0  0  0  0  0  0  0
  -18.3584  -26.9004   20.6499 C   0  0  0  0  0  0  0  0  0  0  0  0
  -18.4578  -29.3709   20.9805 C   0  0  0  0  0  0  0  0  0  0  0  0
  -22.2253  -28.1566   15.3945 C   0  0  0  0  0  0  0  0  0  0  0  0
  -29.9645  -20.3912   17.6720 C   0  0  0  0  0  0  0  0  0  0  0  0
  -28.4581  -24.2941   20.3875 C   0  0  0  0  0  0  0  0  0  1  0  0
  -32.2175  -18.9384   20.6301 C   0  0  0  0  0  0  0  0  0  0  0  0
  -20.4788  -28.1610   20.0619 C   0  0  1  0  0  0  0  0  0  0  0  0
  -19.9125  -27.9682   16.3187 C   0  0  2  0  0  0  0  0  0  0  0  0
  -19.2840  -28.0683   21.0525 C   0  0  0  0  0  0  0  0  0  0  0  0
  -23.8493  -12.9933   20.7391 N   0  0  0  0  0  0  0  0  0  0  0  0
  -23.8011  -14.2910   21.0850 N   0  0  0  0  0  0  0  0  0  0  0  0
  -22.7568  -28.8913   20.6955 N   0  0  0  0  0  0  0  0  0  0  0  0
  -26.9203  -15.5732   19.2835 N   0  0  0  0  0  0  0  0  0  0  0  0
  -29.0846  -16.5244   18.9203 N   0  0  0  0  0  0  0  0  0  0  0  0
  -22.7166  -15.8210   22.5320 N   0  0  0  0  0  0  0  0  0  0  0  0
  -20.7948  -11.8672   23.5667 N   0  0  0  0  0  0  0  0  0  0  0  0
  -23.8386  -30.9196   23.4241 N   0  0  0  0  0  0  0  0  0  0  0  0
  -20.0885  -28.3871   18.6745 N   0  0  0  0  0  0  0  0  0  0  0  0
  -33.9486  -19.4535   18.9331 N   0  3  0  0  0  0  0  0  0  0  0  0
  -20.8621  -27.5880   15.2349 N   0  3  0  0  0  0  0  0  0  0  0  0
  -20.8104  -14.1107   24.0413 O   0  0  0  0  0  0  0  0  0  0  0  0
  -23.4911  -28.6257   23.2257 O   0  0  0  0  0  0  0  0  0  0  0  0
  -21.0296  -30.4368   20.4414 O   0  0  0  0  0  0  0  0  0  0  0  0
  -21.0991  -26.4862   17.8130 O   0  0  0  0  0  0  0  0  0  0  0  0
  -28.8263  -14.5528   20.0887 O   0  0  0  0  0  0  0  0  0  0  0  0
  -21.9635   -6.9334   21.2587 O   0  0  0  0  0  0  0  0  0  0  0  0
  -27.0458  -24.4528   20.4446 O   0  0  0  0  0  0  0  0  0  1  0  0
  -21.5589   -4.1566   26.0052 F   0  0  0  0  0  0  0  0  0  0  0  0
  -20.0224   -7.5787   23.1184 F   0  0  0  0  0  0  0  0  0  0  0  0
  1  2  1  0  0  0  0
  1  5  2  0  0  0  0
  2  6  2  0  0  0  0
  3  8  2  0  0  0  0
  3 17  1  0  0  0  0
  4  9  1  0  0  0  0
  4 17  2  0  0  0  0
  5 19  1  0  0  0  0
  6 21  1  0  0  0  0
  7 10  2  0  0  0  0
  7 20  1  0  0  0  0
  8 27  1  0  0  0  0
  9 27  2  0  0  0  0
 10 28  1  0  0  0  0
 11 12  2  0  0  0  0
 11 29  1  0  0  0  0
 12 30  1  0  0  0  0
 13 22  1  0  0  0  0
 13 28  2  0  0  0  0
 14 24  1  0  0  0  0
 14 25  2  0  0  0  0
 15 24  2  0  0  0  0
 15 26  1  0  0  0  0
 16 30  2  0  0  0  0
 16 31  1  0  0  0  0
 17 32  1  0  0  0  0
 18 32  1  0  0  0  0
 18 33  2  0  0  0  0
 18 34  1  0  0  0  0
 19 21  2  0  0  0  0
 19 39  1  0  0  0  0
 20 22  2  0  0  0  0
 20 40  1  0  0  0  0
 21 55  1  0  0  0  0
 22 41  1  0  0  0  0
 23 25  1  0  0  0  0
 23 26  2  0  0  0  0
 23 54  1  0  0  0  0
 24 68  1  0  0  0  0
 25 60  1  0  0  0  0
 26 67  1  0  0  0  0
 27 89  1  0  0  0  0
 28 90  1  0  0  0  0
 29 31  2  0  0  0  0
 29 89  1  0  0  0  0
 30 91  1  0  0  0  0
 31 92  1  0  0  0  0
 32 73  2  0  0  0  0
 33 74  1  0  0  0  0
 33 78  1  0  0  0  0
 34 79  1  0  0  0  0
 34 84  2  0  0  0  0
 35 56  1  0  0  0  0
 35 80  1  0  0  0  0
 35 85  2  0  0  0  0
 36 70  1  0  0  0  0
 36 75  1  0  0  0  0
 36 86  2  0  0  0  0
 37 71  1  0  0  0  0
 37 81  1  0  0  0  0
 37 87  2  0  0  0  0
 38 76  1  0  0  0  0
 38 77  1  0  0  0  0
 38 88  2  0  0  0  0
 39 42  1  0  0  0  0
 40 56  1  0  0  0  0
 41 75  1  0  0  0  0
 42 45  1  0  0  0  0
 43 46  1  0  0  0  0
 43 49  1  0  0  0  0
 44 47  1  0  0  0  0
 44 53  1  0  0  0  0
 45 55  1  0  0  0  0
 46 58  1  0  0  0  0
 47 59  1  0  0  0  0
 48 50  1  0  0  0  0
 48 57  1  0  0  0  0
 49 76  1  0  0  0  0
 50 77  1  0  0  0  0
 51 54  1  0  0  0  0
 51 77  1  0  0  0  0
 52 58  1  0  0  0  0
 52 76  1  0  0  0  0
 53 82  1  0  0  0  0
 54 57  1  0  0  0  0
 55 80  1  0  0  0  0
 56 75  1  0  0  0  0
 57 69  1  0  0  0  0
 58 74  1  0  0  0  0
 59 69  1  0  0  0  0
 59 82  1  0  0  0  0
 61 67  1  0  0  0  0
 62 71  1  0  0  0  0
 63 72  1  0  0  0  0
 64 72  1  0  0  0  0
 65 72  1  0  0  0  0
 66 83  1  0  0  0  0
 68 90  1  0  0  0  0
 70 72  1  0  0  0  0
 70 81  1  0  0  0  0
 71 83  1  0  0  0  0
 73 74  1  0  0  0  0
M  CHG  2  82   1  83   1
M  ISO  4  38 100  68 101  77 100  90 101
M  END
> <Batch ID>
0130

> <Smiles>
CCc1cc([101CH2:1][101O:1]c2ccc3c(c2)CN(C(=O)C(NC(=O)C(C)NC)C(C)(C)C)C(C(=O)NC2CCCc4ccccc42)C3)cc(C)c1C1C[100N:0]([100C:0](=O)N2CCCC(n3nc(-c4ccc(Oc5ccc(F)cc5F)cc4)c(C(N)=O)c3N)C2)CCC1CC1CCCN1

> <Shape>
0.294

> <Color>
0.064

> <Negative vol penalty>
0.000

$$$$

  -OEChem-04052320473D

 88 97  0     1  0  0  0  0  0999 V2000
  -28.1085  -37.8100   21.6746 C   0  0  0  0  0  0  0  0  0  0  0  0
  -28.7199  -36.6005   21.3599 C   0  0  0  0  0  0  0  0  0  0  0  0
  -23.1611   -9.8588   20.2620 C   0  0  0  0  0  0  0  0  0  0  0  0
  -24.7451   -9.6778   22.0773 C   0  0  0  0  0  0  0  0  0  0  0  0
  -26.9457  -37.8226   22.4437 C   0  0  0  0  0  0  0  0  0  0  0  0
  -28.1693  -35.4031   21.8152 C   0  0  0  0  0  0  0  0  0  0  0  0
  -27.1201  -21.2068   22.2599 C   0  0  0  0  0  0  0  0  0  0  0  0
  -29.2105  -21.7476   23.3437 C   0  0  0  0  0  0  0  0  0  0  0  0
  -27.3834  -28.5410   19.9151 C   0  0  0  0  0  0  0  0  0  0  0  0
  -27.0857  -22.4798   21.6909 C   0  0  0  0  0  0  0  0  0  0  0  0
  -29.1761  -23.0207   22.7747 C   0  0  0  0  0  0  0  0  0  0  0  0
  -22.6796   -8.5829   20.5550 C   0  0  0  0  0  0  0  0  0  0  0  0
  -24.2635   -8.4019   22.3703 C   0  0  0  0  0  0  0  0  0  0  0  0
  -27.6015  -27.2552   20.4079 C   0  0  0  0  0  0  0  0  0  0  0  0
  -21.6065   -7.0488   23.9608 C   0  0  0  0  0  0  0  0  0  0  0  0
  -21.3685   -6.7394   25.2999 C   0  0  0  0  0  0  0  0  0  0  0  0
  -25.5458  -27.3940   21.6625 C   0  0  0  0  0  0  0  0  0  0  0  0
  -22.9679   -4.9335   25.1668 C   0  0  0  0  0  0  0  0  0  0  0  0
  -24.1940  -10.4062   21.0231 C   0  0  0  0  0  0  0  0  0  0  0  0
  -23.9660  -12.9298   20.7281 C   0  0  0  0  0  0  0  0  0  0  0  0
  -28.1825  -20.8407   23.0863 C   0  0  0  0  0  0  0  0  0  0  0  0
  -26.3752  -36.6241   22.9005 C   0  0  0  0  0  0  0  0  0  0  0  0
  -26.2485  -29.2684   20.3015 C   0  0  0  0  0  0  0  0  0  0  0  0
  -26.9985  -35.3998   22.5923 C   0  0  0  0  0  0  0  0  0  0  0  0
  -25.3144  -28.6878   21.1712 C   0  0  0  0  0  0  0  0  0  0  0  0
  -28.1137  -23.3868   21.9483 C   0  0  0  0  0  0  0  0  0  0  0  0
  -23.2307   -7.8545   21.6091 C   0  0  0  0  0  0  0  0  0  0  0  0
  -26.6841  -26.6826   21.2840 C   0  0  0  0  0  0  0  0  0  0  0  0
  -22.5252   -6.3006   23.2246 C   0  0  0  0  0  0  0  0  0  0  0  0
  -22.0492   -5.6818   25.9029 C   0  0  0  0  0  0  0  0  0  0  0  0
  -23.2059   -5.2430   23.8277 C   0  0  0  0  0  0  0  0  0  0  0  0
  -24.6923  -11.7239   20.7205 C   0  0  0  0  0  0  0  0  0  0  0  0
  -24.8856  -13.8867   20.3743 C   0  0  0  0  0  0  0  0  0  0  0  0
  -22.5837  -13.1641   21.0281 C   0  0  0  0  0  0  0  0  0  0  0  0
  -25.7550  -32.0006   21.8491 C   0  0  0  0  0  0  0  0  0  0  0  0
  -22.6602  -31.4393   21.0558 C   0  0  0  0  0  0  0  0  0  0  0  0
  -20.2516  -29.1753   20.2075 C   0  0  0  0  0  0  0  0  0  0  0  0
  -30.8499  -14.1712   20.8182 C   0  0  0  0  0  0  0  0  0  0  0  0
  -25.1437  -36.6909   23.7687 C   0  0  0  0  0  0  0  0  0  0  0  0
  -26.0142  -30.6440   19.7400 C   0  0  0  0  0  0  0  0  0  0  0  0
  -24.0697  -29.4190   21.6009 C   0  0  0  0  0  0  0  0  0  0  0  0
  -24.4157  -35.3554   23.8969 C   0  0  0  0  0  0  0  0  0  0  0  0
  -28.9079  -14.4618   17.8482 C   0  0  0  0  0  0  0  0  0  0  0  0
  -25.4065  -34.2331   24.1893 C   0  0  0  0  0  0  0  0  0  0  0  0
  -27.5418  -13.9019   18.2483 C   0  0  0  0  0  0  0  0  0  0  0  0
  -30.0485  -13.7019   18.5217 C   0  0  0  0  0  0  0  0  0  0  0  0
  -28.5810  -13.0466   20.3901 C   0  0  0  0  0  0  0  0  0  0  0  0
  -29.4457  -18.6431   23.2819 C   0  0  0  0  0  0  0  0  0  0  0  0
  -28.6825  -17.9971   25.5147 C   0  0  0  0  0  0  0  0  0  0  0  0
  -28.2206  -19.4617   23.7031 C   0  0  1  0  0  0  0  0  0  0  0  0
  -26.4177  -34.0783   23.0469 C   0  0  1  0  0  0  0  0  0  0  0  0
  -25.0856  -31.4918   20.6039 C   0  0  1  0  0  0  0  0  0  0  0  0
  -28.2733  -19.4360   25.2377 C   0  0  1  0  0  0  0  0  0  0  0  0
  -27.3973  -13.8165   19.7796 C   0  0  2  0  0  0  0  0  0  0  0  0
  -17.8088  -29.0109   19.6571 C   0  0  0  0  0  0  0  0  0  0  0  0
  -21.9753  -31.7579   24.0120 C   0  0  0  0  0  0  0  0  0  0  0  0
  -19.7695  -30.6688   23.5467 C   0  0  0  0  0  0  0  0  0  0  0  0
  -20.3491  -32.8295   22.4430 C   0  0  0  0  0  0  0  0  0  0  0  0
  -20.8136  -28.1120   17.5033 C   0  0  0  0  0  0  0  0  0  0  0  0
  -28.0768  -24.7554   21.3344 C   0  0  0  0  0  0  0  0  0  1  0  0
  -26.9523  -19.7969   25.9018 C   0  0  0  0  0  0  0  0  0  0  0  0
  -31.2651  -16.0535   23.5214 C   0  0  0  0  0  0  0  0  0  0  0  0
  -31.5084  -14.5887   23.1743 C   0  0  0  0  0  0  0  0  0  0  0  0
  -29.8765  -16.2858   24.1033 C   0  0  0  0  0  0  0  0  0  0  0  0
  -21.5071  -30.7084   21.7000 C   0  0  1  0  0  0  0  0  0  0  0  0
  -19.2139  -29.1760   19.0995 C   0  0  2  0  0  0  0  0  0  0  0  0
  -20.9246  -31.4779   22.9191 C   0  0  0  0  0  0  0  0  0  0  0  0
  -25.9744  -11.8962   20.3882 N   0  0  0  0  0  0  0  0  0  0  0  0
  -26.0610  -13.2216   20.1835 N   0  0  0  0  0  0  0  0  0  0  0  0
  -23.8885  -30.7638   21.0297 N   0  0  0  0  0  0  0  0  0  0  0  0
  -29.8522  -13.6587   19.9728 N   0  0  0  0  0  0  0  0  0  0  0  0
  -24.7954  -15.2237   20.2109 N   0  0  0  0  0  0  0  0  0  0  0  0
  -21.7799  -12.0690   21.3732 N   0  0  0  0  0  0  0  0  0  0  0  0
  -25.8170  -33.3786   21.9316 N   0  0  0  0  0  0  0  0  0  0  0  0
  -20.5407  -30.4531   20.6373 N   0  0  0  0  0  0  0  0  0  0  0  0
  -30.5814  -14.0971   22.1795 N   0  0  0  0  0  0  0  0  0  0  0  0
  -29.7332  -17.7299   24.4615 N   0  3  1  0  0  0  0  0  0  0  0  0
  -27.1928  -20.0552   27.3377 N   0  3  0  0  0  0  0  0  0  0  0  0
  -19.4746  -28.0616   18.1449 N   0  3  0  0  0  0  0  0  0  0  0  0
  -22.0724  -14.3084   20.9752 O   0  0  0  0  0  0  0  0  0  0  0  0
  -26.1823  -31.2022   22.6747 O   0  0  0  0  0  0  0  0  0  0  0  0
  -22.4761  -32.5651   20.5864 O   0  0  0  0  0  0  0  0  0  0  0  0
  -20.7526  -28.1440   20.6502 O   0  0  0  0  0  0  0  0  0  0  0  0
  -31.8998  -14.6636   20.3913 O   0  0  0  0  0  0  0  0  0  0  0  0
  -22.7609   -6.6096   21.8955 O   0  0  0  0  0  0  0  0  0  0  0  0
  -26.8949  -25.4279   21.7671 O   0  0  0  0  0  0  0  0  0  1  0  0
  -21.8217   -5.3857   27.1893 F   0  0  0  0  0  0  0  0  0  0  0  0
  -24.0905   -4.5213   23.1259 F   0  0  0  0  0  0  0  0  0  0  0  0
  1  2  1  0  0  0  0
  1  5  2  0  0  0  0
  2  6  2  0  0  0  0
  3 12  2  0  0  0  0
  3 19  1  0  0  0  0
  4 13  1  0  0  0  0
  4 19  2  0  0  0  0
  5 22  1  0  0  0  0
  6 24  1  0  0  0  0
  7 10  2  0  0  0  0
  7 21  1  0  0  0  0
  8 11  1  0  0  0  0
  8 21  2  0  0  0  0
  9 14  2  0  0  0  0
  9 23  1  0  0  0  0
 10 26  1  0  0  0  0
 11 26  2  0  0  0  0
 12 27  1  0  0  0  0
 13 27  2  0  0  0  0
 14 28  1  0  0  0  0
 15 16  2  0  0  0  0
 15 29  1  0  0  0  0
 16 30  1  0  0  0  0
 17 25  1  0  0  0  0
 17 28  2  0  0  0  0
 18 30  2  0  0  0  0
 18 31  1  0  0  0  0
 19 32  1  0  0  0  0
 20 32  1  0  0  0  0
 20 33  2  0  0  0  0
 20 34  1  0  0  0  0
 21 50  1  0  0  0  0
 22 24  2  0  0  0  0
 22 39  1  0  0  0  0
 23 25  2  0  0  0  0
 23 40  1  0  0  0  0
 24 51  1  0  0  0  0
 25 41  1  0  0  0  0
 26 60  1  0  0  0  0
 27 85  1  0  0  0  0
 28 86  1  0  0  0  0
 29 31  2  0  0  0  0
 29 85  1  0  0  0  0
 30 87  1  0  0  0  0
 31 88  1  0  0  0  0
 32 68  2  0  0  0  0
 33 69  1  0  0  0  0
 33 72  1  0  0  0  0
 34 73  1  0  0  0  0
 34 80  2  0  0  0  0
 35 52  1  0  0  0  0
 35 74  1  0  0  0  0
 35 81  2  0  0  0  0
 36 65  1  0  0  0  0
 36 70  1  0  0  0  0
 36 82  2  0  0  0  0
 37 66  1  0  0  0  0
 37 75  1  0  0  0  0
 37 83  2  0  0  0  0
 38 71  1  0  0  0  0
 38 76  1  0  0  0  0
 38 84  2  0  0  0  0
 39 42  1  0  0  0  0
 40 52  1  0  0  0  0
 41 70  1  0  0  0  0
 42 44  1  0  0  0  0
 43 45  1  0  0  0  0
 43 46  1  0  0  0  0
 44 51  1  0  0  0  0
 45 54  1  0  0  0  0
 46 71  1  0  0  0  0
 47 54  1  0  0  0  0
 47 71  1  0  0  0  0
 48 50  1  0  0  0  0
 48 77  1  0  0  0  0
 49 53  1  0  0  0  0
 49 77  1  0  0  0  0
 50 53  1  0  0  0  0
 51 74  1  0  0  0  0
 52 70  1  0  0  0  0
 53 61  1  0  0  0  0
 54 69  1  0  0  0  0
 55 66  1  0  0  0  0
 56 67  1  0  0  0  0
 57 67  1  0  0  0  0
 58 67  1  0  0  0  0
 59 79  1  0  0  0  0
 60 86  1  0  0  0  0
 61 78  1  0  0  0  0
 62 63  1  0  0  0  0
 62 64  1  0  0  0  0
 63 76  1  0  0  0  0
 64 77  1  0  0  0  0
 65 67  1  0  0  0  0
 65 75  1  0  0  0  0
 66 79  1  0  0  0  0
 68 69  1  0  0  0  0
M  CHG  3  77   1  78   1  79   1
M  ISO  4  38 100  60 101  76 100  86 101
M  END
> <Batch ID>
0130

> <Smiles>
CNC(C)C(=O)NC(C(=O)N1Cc2cc([101O:1][101CH2:1]c3ccc(C4CN(CCC[100NH:0][100C:0](=O)N5CCCC(n6nc(-c7ccc(Oc8ccc(F)cc8F)cc7)c(C(N)=O)c6N)C5)CC4CN)cc3)ccc2CC1C(=O)NC1CCCc2ccccc21)C(C)(C)C

> <Shape>
0.295

> <Color>
0.154

> <Negative vol penalty>
0.000

$$$$

  -OEChem-04052320473D

 79 87  0     1  0  0  0  0  0999 V2000
  -26.6699  -31.0853   18.2317 C   0  0  0  0  0  0  0  0  0  0  0  0
  -26.9176  -29.7168   18.1976 C   0  0  0  0  0  0  0  0  0  0  0  0
  -22.6340  -10.2619   20.3432 C   0  0  0  0  0  0  0  0  0  0  0  0
  -24.1652   -9.7331   22.1356 C   0  0  0  0  0  0  0  0  0  0  0  0
  -25.8602  -31.6214   19.2322 C   0  0  0  0  0  0  0  0  0  0  0  0
  -26.3566  -28.8836   19.1648 C   0  0  0  0  0  0  0  0  0  0  0  0
  -24.4093  -23.1297   18.3862 C   0  0  0  0  0  0  0  0  0  0  0  0
  -21.8674   -9.1427   20.6679 C   0  0  0  0  0  0  0  0  0  0  0  0
  -23.3986   -8.6140   22.4604 C   0  0  0  0  0  0  0  0  0  0  0  0
  -24.9990  -21.8953   18.6553 C   0  0  0  0  0  0  0  0  0  0  0  0
  -22.9661   -5.4683   21.2992 C   0  0  0  0  0  0  0  0  0  0  0  0
  -23.6387   -4.2718   21.5472 C   0  0  0  0  0  0  0  0  0  0  0  0
  -23.8395  -21.8089   20.7688 C   0  0  0  0  0  0  0  0  0  0  0  0
  -22.7182   -4.2171   23.7803 C   0  0  0  0  0  0  0  0  0  0  0  0
  -23.7829  -10.5571   21.0770 C   0  0  0  0  0  0  0  0  0  0  0  0
  -24.1589  -13.0574   20.7383 C   0  0  0  0  0  0  0  0  0  0  0  0
  -25.2812  -30.7930   20.2065 C   0  0  0  0  0  0  0  0  0  0  0  0
  -23.5373  -23.7190   19.3128 C   0  0  0  0  0  0  0  0  0  0  0  0
  -25.5396  -29.4092   20.1801 C   0  0  0  0  0  0  0  0  0  0  0  0
  -23.2380  -23.0496   20.5080 C   0  0  0  0  0  0  0  0  0  0  0  0
  -22.2497   -8.3188   21.7265 C   0  0  0  0  0  0  0  0  0  0  0  0
  -24.7164  -21.2361   19.8480 C   0  0  0  0  0  0  0  0  0  0  0  0
  -22.1696   -6.0393   22.2918 C   0  0  0  0  0  0  0  0  0  0  0  0
  -23.5148   -3.6462   22.7877 C   0  0  0  0  0  0  0  0  0  0  0  0
  -22.0456   -5.4136   23.5324 C   0  0  0  0  0  0  0  0  0  0  0  0
  -24.5755  -11.7127   20.7417 C   0  0  0  0  0  0  0  0  0  0  0  0
  -25.2733  -13.7611   20.3518 C   0  0  0  0  0  0  0  0  0  0  0  0
  -22.8791  -13.6200   21.0563 C   0  0  0  0  0  0  0  0  0  0  0  0
  -23.5478  -26.4087   21.0066 C   0  0  0  0  0  0  0  0  0  0  0  0
  -20.5635  -25.4417   21.8321 C   0  0  0  0  0  0  0  0  0  0  0  0
  -18.3500  -22.8708   22.2029 C   0  0  0  0  0  0  0  0  0  0  0  0
  -30.7570  -14.7489   20.6662 C   0  0  0  0  0  0  0  0  0  0  0  0
  -24.4513  -31.4244   21.2962 C   0  0  0  0  0  0  0  0  0  0  0  0
  -22.8885  -25.0385   18.9957 C   0  0  0  0  0  0  0  0  0  0  0  0
  -22.2927  -23.6301   21.5268 C   0  0  0  0  0  0  0  0  0  0  0  0
  -23.5909  -30.4240   22.0636 C   0  0  0  0  0  0  0  0  0  0  0  0
  -29.6863  -12.1627   18.4658 C   0  0  0  0  0  0  0  0  0  0  0  0
  -24.4115  -29.1959   22.4446 C   0  0  0  0  0  0  0  0  0  0  0  0
  -28.2296  -11.9220   18.8657 C   0  0  0  0  0  0  0  0  0  0  0  0
  -27.1649  -19.5342   21.5503 C   0  0  0  0  0  0  0  0  0  0  0  0
  -27.2147  -19.0389   19.0834 C   0  0  0  0  0  0  0  0  0  0  0  0
  -30.5580  -12.4865   19.6772 C   0  0  0  0  0  0  0  0  0  0  0  0
  -28.6118  -13.3582   20.9126 C   0  0  0  0  0  0  0  0  0  0  0  0
  -28.6716  -19.3397   21.6170 C   0  0  0  0  0  0  0  0  0  0  0  0
  -28.7213  -18.8459   19.1550 C   0  0  0  0  0  0  0  0  0  0  0  0
  -24.9290  -28.4695   21.1972 C   0  0  1  0  0  0  0  0  0  0  0  0
  -22.4162  -25.7861   20.2388 C   0  0  1  0  0  0  0  0  0  0  0  0
  -27.6828  -13.0831   19.7178 C   0  0  2  0  0  0  0  0  0  0  0  0
  -26.7126  -19.9895   20.1655 C   0  0  0  0  0  0  0  0  0  1  0  0
  -15.9980  -22.3860   22.9312 C   0  0  0  0  0  0  0  0  0  0  0  0
  -21.4051  -25.7522   24.7484 C   0  0  0  0  0  0  0  0  0  0  0  0
  -19.4122  -24.3824   25.3968 C   0  0  0  0  0  0  0  0  0  0  0  0
  -19.0971  -26.5679   24.2362 C   0  0  0  0  0  0  0  0  0  0  0  0
  -17.6192  -21.8133   19.5371 C   0  0  0  0  0  0  0  0  0  0  0  0
  -30.7993  -17.0043   21.7010 C   0  0  0  0  0  0  0  0  0  0  0  0
  -30.5687  -18.0559   20.6319 C   0  0  0  0  0  0  0  0  0  0  0  0
  -19.9825  -24.5896   22.9345 C   0  0  1  0  0  0  0  0  0  0  0  0
  -16.9078  -22.7110   21.7568 C   0  0  2  0  0  0  0  0  0  0  0  0
  -19.9936  -25.3127   24.3108 C   0  0  0  0  0  0  0  0  0  0  0  0
  -25.8547  -11.5683   20.3854 N   0  0  0  0  0  0  0  0  0  0  0  0
  -26.2514  -12.8313   20.1544 N   0  0  0  0  0  0  0  0  0  0  0  0
  -21.6885  -24.9254   21.1736 N   0  0  0  0  0  0  0  0  0  0  0  0
  -29.9851  -13.5971   20.4415 N   0  0  0  0  0  0  0  0  0  0  0  0
  -25.5021  -15.0783   20.1647 N   0  0  0  0  0  0  0  0  0  0  0  0
  -22.6233  -13.9907   22.3835 N   0  0  0  0  0  0  0  0  0  0  0  0
  -23.8721  -27.6868   20.5932 N   0  0  0  0  0  0  0  0  0  0  0  0
  -18.6555  -24.1861   22.4822 N   0  0  0  0  0  0  0  0  0  0  0  0
  -30.1361  -15.7566   21.3941 N   0  0  0  0  0  0  0  0  0  0  0  0
  -29.1015  -18.3733   20.5385 N   0  3  0  0  0  0  0  0  0  0  0  0
  -16.7939  -21.6127   20.7560 N   0  3  0  0  0  0  0  0  0  0  0  0
  -21.9828  -13.7739   20.1922 O   0  0  0  0  0  0  0  0  0  0  0  0
  -24.0858  -25.7770   21.9083 O   0  0  0  0  0  0  0  0  0  0  0  0
  -20.0342  -26.5223   21.5602 O   0  0  0  0  0  0  0  0  0  0  0  0
  -19.1267  -21.9231   22.2981 O   0  0  0  0  0  0  0  0  0  0  0  0
  -31.9119  -14.8724   20.2445 O   0  0  0  0  0  0  0  0  0  0  0  0
  -21.5018   -7.2268   22.0438 O   0  0  0  0  0  0  0  0  0  0  0  0
  -25.2911  -20.0315   20.1135 O   0  0  0  0  0  0  0  0  0  1  0  0
  -24.1596   -2.4963   23.0252 F   0  0  0  0  0  0  0  0  0  0  0  0
  -21.2809   -5.9568   24.4894 F   0  0  0  0  0  0  0  0  0  0  0  0
  1  2  1  0  0  0  0
  1  5  2  0  0  0  0
  2  6  2  0  0  0  0
  3  8  2  0  0  0  0
  3 15  1  0  0  0  0
  4  9  1  0  0  0  0
  4 15  2  0  0  0  0
  5 17  1  0  0  0  0
  6 19  1  0  0  0  0
  7 10  2  0  0  0  0
  7 18  1  0  0  0  0
  8 21  1  0  0  0  0
  9 21  2  0  0  0  0
 10 22  1  0  0  0  0
 11 12  2  0  0  0  0
 11 23  1  0  0  0  0
 12 24  1  0  0  0  0
 13 20  1  0  0  0  0
 13 22  2  0  0  0  0
 14 24  2  0  0  0  0
 14 25  1  0  0  0  0
 15 26  1  0  0  0  0
 16 26  1  0  0  0  0
 16 27  2  0  0  0  0
 16 28  1  0  0  0  0
 17 19  2  0  0  0  0
 17 33  1  0  0  0  0
 18 20  2  0  0  0  0
 18 34  1  0  0  0  0
 19 46  1  0  0  0  0
 20 35  1  0  0  0  0
 21 76  1  0  0  0  0
 22 77  1  0  0  0  0
 23 25  2  0  0  0  0
 23 76  1  0  0  0  0
 24 78  1  0  0  0  0
 25 79  1  0  0  0  0
 26 60  2  0  0  0  0
 27 61  1  0  0  0  0
 27 64  1  0  0  0  0
 28 65  1  0  0  0  0
 28 71  2  0  0  0  0
 29 47  1  0  0  0  0
 29 66  1  0  0  0  0
 29 72  2  0  0  0  0
 30 57  1  0  0  0  0
 30 62  1  0  0  0  0
 30 73  2  0  0  0  0
 31 58  1  0  0  0  0
 31 67  1  0  0  0  0
 31 74  2  0  0  0  0
 32 63  1  0  0  0  0
 32 68  1  0  0  0  0
 32 75  2  0  0  0  0
 33 36  1  0  0  0  0
 34 47  1  0  0  0  0
 35 62  1  0  0  0  0
 36 38  1  0  0  0  0
 37 39  1  0  0  0  0
 37 42  1  0  0  0  0
 38 46  1  0  0  0  0
 39 48  1  0  0  0  0
 40 44  1  0  0  0  0
 40 49  1  0  0  0  0
 41 45  1  0  0  0  0
 41 49  1  0  0  0  0
 42 63  1  0  0  0  0
 43 48  1  0  0  0  0
 43 63  1  0  0  0  0
 44 69  1  0  0  0  0
 45 69  1  0  0  0  0
 46 66  1  0  0  0  0
 47 62  1  0  0  0  0
 48 61  1  0  0  0  0
 49 77  1  0  0  0  0
 50 58  1  0  0  0  0
 51 59  1  0  0  0  0
 52 59  1  0  0  0  0
 53 59  1  0  0  0  0
 54 70  1  0  0  0  0
 55 56  1  0  0  0  0
 55 68  1  0  0  0  0
 56 69  1  0  0  0  0
 57 59  1  0  0  0  0
 57 67  1  0  0  0  0
 58 70  1  0  0  0  0
 60 61  1  0  0  0  0
M  CHG  2  69   1  70   1
M  ISO  4  32 100  49 101  68 100  77 101
M  END
> <Batch ID>
0130

> <Smiles>
CNC(C)C(=O)NC(C(=O)N1Cc2cc([101O:1][101CH:1]3CCN(CC[100NH:0][100C:0](=O)N4CCCC(n5nc(-c6ccc(Oc7ccc(F)cc7F)cc6)c(C(N)=O)c5N)C4)CC3)ccc2CC1C(=O)NC1CCCc2ccccc21)C(C)(C)C

> <Shape>
0.274

> <Color>
0.183

> <Negative vol penalty>
0.000

$$$$

  -OEChem-04052320473D

 85 94  0     1  0  0  0  0  0999 V2000
  -16.8884  -30.1216   22.4530 C   0  0  0  0  0  0  0  0  0  0  0  0
  -17.9426  -29.2180   22.5392 C   0  0  0  0  0  0  0  0  0  0  0  0
  -22.6306  -10.2939   20.2621 C   0  0  0  0  0  0  0  0  0  0  0  0
  -24.1920   -9.6175   21.9772 C   0  0  0  0  0  0  0  0  0  0  0  0
  -16.3570  -30.6837   23.6130 C   0  0  0  0  0  0  0  0  0  0  0  0
  -18.4669  -28.8769   23.7855 C   0  0  0  0  0  0  0  0  0  0  0  0
  -26.9899  -22.1252   22.6851 C   0  0  0  0  0  0  0  0  0  0  0  0
  -25.8785  -19.9826   22.5799 C   0  0  0  0  0  0  0  0  0  0  0  0
  -19.2375  -23.8954   24.2712 C   0  0  0  0  0  0  0  0  0  0  0  0
  -25.9487  -22.6270   23.4659 C   0  0  0  0  0  0  0  0  0  0  0  0
  -24.8373  -20.4843   23.3608 C   0  0  0  0  0  0  0  0  0  0  0  0
  -21.8478   -9.1714   20.5320 C   0  0  0  0  0  0  0  0  0  0  0  0
  -23.4092   -8.4949   22.2471 C   0  0  0  0  0  0  0  0  0  0  0  0
  -20.3705  -23.3635   23.6571 C   0  0  0  0  0  0  0  0  0  0  0  0
  -22.8813   -5.4420   20.8937 C   0  0  0  0  0  0  0  0  0  0  0  0
  -23.5335   -4.2185   21.0459 C   0  0  0  0  0  0  0  0  0  0  0  0
  -21.5179  -23.3734   25.7790 C   0  0  0  0  0  0  0  0  0  0  0  0
  -22.6650   -4.0351   23.2930 C   0  0  0  0  0  0  0  0  0  0  0  0
  -23.8027  -10.5169   20.9848 C   0  0  0  0  0  0  0  0  0  0  0  0
  -24.2247  -13.0261   20.8012 C   0  0  0  0  0  0  0  0  0  0  0  0
  -26.9548  -20.8030   22.2420 C   0  0  0  0  0  0  0  0  0  0  0  0
  -16.8686  -30.3419   24.8748 C   0  0  0  0  0  0  0  0  0  0  0  0
  -19.2399  -24.1809   25.6441 C   0  0  0  0  0  0  0  0  0  0  0  0
  -17.9427  -29.4359   24.9634 C   0  0  0  0  0  0  0  0  0  0  0  0
  -20.3828  -23.9064   26.4087 C   0  0  0  0  0  0  0  0  0  0  0  0
  -24.8724  -21.8066   23.8038 C   0  0  0  0  0  0  0  0  0  0  0  0
  -22.2371   -8.2719   21.5245 C   0  0  0  0  0  0  0  0  0  0  0  0
  -21.5119  -23.1051   24.4104 C   0  0  0  0  0  0  0  0  0  0  0  0
  -22.1210   -5.9621   21.9411 C   0  0  0  0  0  0  0  0  0  0  0  0
  -23.4254   -3.5150   22.2455 C   0  0  0  0  0  0  0  0  0  0  0  0
  -22.0128   -5.2587   23.1407 C   0  0  0  0  0  0  0  0  0  0  0  0
  -24.6120  -11.6760   20.7061 C   0  0  0  0  0  0  0  0  0  0  0  0
  -25.3446  -13.7313   20.4338 C   0  0  0  0  0  0  0  0  0  0  0  0
  -22.9652  -13.5921   21.1872 C   0  0  0  0  0  0  0  0  0  0  0  0
  -18.8999  -26.8169   27.3876 C   0  0  0  0  0  0  0  0  0  0  0  0
  -18.9524  -24.7192   29.8614 C   0  0  0  0  0  0  0  0  0  0  0  0
  -19.8975  -21.6623   31.0483 C   0  0  0  0  0  0  0  0  0  0  0  0
  -30.8543  -14.5859   20.6751 C   0  0  0  0  0  0  0  0  0  0  0  0
  -16.2927  -31.0115   26.0973 C   0  0  0  0  0  0  0  0  0  0  0  0
  -18.0007  -24.7295   26.2967 C   0  0  0  0  0  0  0  0  0  0  0  0
  -20.4298  -24.1761   27.8897 C   0  0  0  0  0  0  0  0  0  0  0  0
  -16.6578  -30.3118   27.4040 C   0  0  0  0  0  0  0  0  0  0  0  0
  -29.6762  -12.1726   18.3375 C   0  0  0  0  0  0  0  0  0  0  0  0
  -18.1466  -29.9811   27.4346 C   0  0  0  0  0  0  0  0  0  0  0  0
  -28.2244  -11.9353   18.7571 C   0  0  0  0  0  0  0  0  0  0  0  0
  -27.6523  -19.7595   20.0191 C   0  0  0  0  0  0  0  0  0  0  0  0
  -30.5830  -12.3981   19.5454 C   0  0  0  0  0  0  0  0  0  0  0  0
  -28.6859  -13.2254   20.8834 C   0  0  0  0  0  0  0  0  0  0  0  0
  -28.8605  -18.9650   19.5694 C   0  0  0  0  0  0  0  0  0  0  0  0
  -28.8075  -19.0618   22.0140 C   0  0  0  0  0  0  0  0  0  0  0  0
  -28.0807  -20.2593   21.3971 C   0  0  2  0  0  0  0  0  0  0  0  0
  -18.5221  -29.0219   26.2986 C   0  0  1  0  0  0  0  0  0  0  0  0
  -18.2879  -25.4617   27.6038 C   0  0  1  0  0  0  0  0  0  0  0  0
  -27.7232  -13.0484   19.6968 C   0  0  2  0  0  0  0  0  0  0  0  0
  -19.8333  -20.2476   33.1200 C   0  0  0  0  0  0  0  0  0  0  0  0
  -21.1915  -26.3994   31.0752 C   0  0  0  0  0  0  0  0  0  0  0  0
  -21.7188  -24.4767   32.5895 C   0  0  0  0  0  0  0  0  0  0  0  0
  -19.4889  -25.5876   32.7173 C   0  0  0  0  0  0  0  0  0  0  0  0
  -18.3161  -19.5549   29.7003 C   0  0  0  0  0  0  0  0  0  0  0  0
  -23.7537  -22.3466   24.6453 C   0  0  0  0  0  0  0  0  0  1  0  0
  -30.9700  -16.7668   21.8539 C   0  0  0  0  0  0  0  0  0  0  0  0
  -30.7370  -17.8912   20.8621 C   0  0  0  0  0  0  0  0  0  0  0  0
  -20.0302  -24.1192   30.7316 C   0  0  1  0  0  0  0  0  0  0  0  0
  -19.1328  -20.5998   31.8169 C   0  0  2  0  0  0  0  0  0  0  0  0
  -20.6074  -25.1423   31.7502 C   0  0  0  0  0  0  0  0  0  0  0  0
  -25.8790  -11.5298   20.3092 N   0  0  0  0  0  0  0  0  0  0  0  0
  -26.2974  -12.7971   20.1516 N   0  0  0  0  0  0  0  0  0  0  0  0
  -19.1951  -24.7184   28.4805 N   0  0  0  0  0  0  0  0  0  0  0  0
  -30.0525  -13.4672   20.3949 N   0  0  0  0  0  0  0  0  0  0  0  0
  -25.5974  -15.0531   20.3277 N   0  0  0  0  0  0  0  0  0  0  0  0
  -22.7489  -13.8795   22.5418 N   0  0  0  0  0  0  0  0  0  0  0  0
  -18.1237  -27.6698   26.6264 N   0  0  0  0  0  0  0  0  0  0  0  0
  -19.4459  -22.9310   31.3442 N   0  0  0  0  0  0  0  0  0  0  0  0
  -30.2728  -15.5557   21.4827 N   0  0  0  0  0  0  0  0  0  0  0  0
  -29.2844  -18.2412   20.8266 N   0  3  2  0  0  0  0  0  0  0  0  0
  -19.0075  -19.3593   31.0005 N   0  3  0  0  0  0  0  0  0  0  0  0
  -22.0523  -13.8206   20.3578 O   0  0  0  0  0  0  0  0  0  0  0  0
  -19.9945  -27.0704   27.8766 O   0  0  0  0  0  0  0  0  0  0  0  0
  -17.9295  -25.1655   30.3869 O   0  0  0  0  0  0  0  0  0  0  0  0
  -20.8071  -21.3938   30.2666 O   0  0  0  0  0  0  0  0  0  0  0  0
  -32.0014  -14.7138   20.2337 O   0  0  0  0  0  0  0  0  0  0  0  0
  -21.4734   -7.1766   21.7882 O   0  0  0  0  0  0  0  0  0  0  0  0
  -22.6194  -22.5866   23.8133 O   0  0  0  0  0  0  0  0  0  1  0  0
  -24.0505   -2.3393   22.3910 F   0  0  0  0  0  0  0  0  0  0  0  0
  -21.2829   -5.7527   24.1501 F   0  0  0  0  0  0  0  0  0  0  0  0
  1  2  1  0  0  0  0
  1  5  2  0  0  0  0
  2  6  2  0  0  0  0
  3 12  2  0  0  0  0
  3 19  1  0  0  0  0
  4 13  1  0  0  0  0
  4 19  2  0  0  0  0
  5 22  1  0  0  0  0
  6 24  1  0  0  0  0
  7 10  2  0  0  0  0
  7 21  1  0  0  0  0
  8 11  1  0  0  0  0
  8 21  2  0  0  0  0
  9 14  2  0  0  0  0
  9 23  1  0  0  0  0
 10 26  1  0  0  0  0
 11 26  2  0  0  0  0
 12 27  1  0  0  0  0
 13 27  2  0  0  0  0
 14 28  1  0  0  0  0
 15 16  2  0  0  0  0
 15 29  1  0  0  0  0
 16 30  1  0  0  0  0
 17 25  1  0  0  0  0
 17 28  2  0  0  0  0
 18 30  2  0  0  0  0
 18 31  1  0  0  0  0
 19 32  1  0  0  0  0
 20 32  1  0  0  0  0
 20 33  2  0  0  0  0
 20 34  1  0  0  0  0
 21 51  1  0  0  0  0
 22 24  2  0  0  0  0
 22 39  1  0  0  0  0
 23 25  2  0  0  0  0
 23 40  1  0  0  0  0
 24 52  1  0  0  0  0
 25 41  1  0  0  0  0
 26 60  1  0  0  0  0
 27 82  1  0  0  0  0
 28 83  1  0  0  0  0
 29 31  2  0  0  0  0
 29 82  1  0  0  0  0
 30 84  1  0  0  0  0
 31 85  1  0  0  0  0
 32 66  2  0  0  0  0
 33 67  1  0  0  0  0
 33 70  1  0  0  0  0
 34 71  1  0  0  0  0
 34 77  2  0  0  0  0
 35 53  1  0  0  0  0
 35 72  1  0  0  0  0
 35 78  2  0  0  0  0
 36 63  1  0  0  0  0
 36 68  1  0  0  0  0
 36 79  2  0  0  0  0
 37 64  1  0  0  0  0
 37 73  1  0  0  0  0
 37 80  2  0  0  0  0
 38 69  1  0  0  0  0
 38 74  1  0  0  0  0
 38 81  2  0  0  0  0
 39 42  1  0  0  0  0
 40 53  1  0  0  0  0
 41 68  1  0  0  0  0
 42 44  1  0  0  0  0
 43 45  1  0  0  0  0
 43 47  1  0  0  0  0
 44 52  1  0  0  0  0
 45 54  1  0  0  0  0
 46 49  1  0  0  0  0
 46 51  1  0  0  0  0
 47 69  1  0  0  0  0
 48 54  1  0  0  0  0
 48 69  1  0  0  0  0
 49 75  1  0  0  0  0
 50 51  1  0  0  0  0
 50 75  1  0  0  0  0
 52 72  1  0  0  0  0
 53 68  1  0  0  0  0
 54 67  1  0  0  0  0
 55 64  1  0  0  0  0
 56 65  1  0  0  0  0
 57 65  1  0  0  0  0
 58 65  1  0  0  0  0
 59 76  1  0  0  0  0
 60 83  1  0  0  0  0
 61 62  1  0  0  0  0
 61 74  1  0  0  0  0
 62 75  1  0  0  0  0
 63 65  1  0  0  0  0
 63 73  1  0  0  0  0
 64 76  1  0  0  0  0
 66 67  1  0  0  0  0
M  CHG  2  75   1  76   1
M  ISO  4  38 100  60 101  74 100  83 101
M  END
> <Batch ID>
0130

> <Smiles>
CNC(C)C(=O)NC(C(=O)N1Cc2cc([101O:1][101CH2:1]c3ccc(C4CCN(CC[100NH:0][100C:0](=O)N5CCCC(n6nc(-c7ccc(Oc8ccc(F)cc8F)cc7)c(C(N)=O)c6N)C5)C4)cc3)ccc2CC1C(=O)NC1CCCc2ccccc21)C(C)(C)C

> <Shape>
0.229

> <Color>
0.181

> <Negative vol penalty>
0.000

$$$$

  -OEChem-04052320473D

 83 91  0     1  0  0  0  0  0999 V2000
  -17.5081  -32.4562   23.2446 C   0  0  0  0  0  0  0  0  0  0  0  0
  -18.7342  -32.7728   22.6686 C   0  0  0  0  0  0  0  0  0  0  0  0
  -26.3519  -17.6013   20.6630 C   0  0  0  0  0  0  0  0  0  0  0  0
  -28.2683  -17.4813   22.1294 C   0  0  0  0  0  0  0  0  0  0  0  0
  -17.3783  -31.3006   24.0138 C   0  0  0  0  0  0  0  0  0  0  0  0
  -19.8315  -31.9345   22.8623 C   0  0  0  0  0  0  0  0  0  0  0  0
  -25.7350  -29.6074   19.5380 C   0  0  0  0  0  0  0  0  0  0  0  0
  -25.9204  -16.3580   21.1251 C   0  0  0  0  0  0  0  0  0  0  0  0
  -27.8367  -16.2380   22.5916 C   0  0  0  0  0  0  0  0  0  0  0  0
  -27.1098  -29.4922   19.7391 C   0  0  0  0  0  0  0  0  0  0  0  0
  -24.5053  -13.0508   21.6575 C   0  0  0  0  0  0  0  0  0  0  0  0
  -24.0687  -12.1219   20.7129 C   0  0  0  0  0  0  0  0  0  0  0  0
  -26.7477  -27.4814   21.0215 C   0  0  0  0  0  0  0  0  0  0  0  0
  -26.2412  -12.1746   19.6571 C   0  0  0  0  0  0  0  0  0  0  0  0
  -27.5259  -18.1630   21.1651 C   0  0  0  0  0  0  0  0  0  0  0  0
  -27.6473  -20.7106   21.2163 C   0  0  0  0  0  0  0  0  0  0  0  0
  -18.4721  -30.4427   24.2091 C   0  0  0  0  0  0  0  0  0  0  0  0
  -24.8539  -28.6648   20.0873 C   0  0  0  0  0  0  0  0  0  0  0  0
  -19.7165  -30.7670   23.6359 C   0  0  0  0  0  0  0  0  0  0  0  0
  -25.3623  -27.5854   20.8238 C   0  0  0  0  0  0  0  0  0  0  0  0
  -26.6628  -15.6764   22.0894 C   0  0  0  0  0  0  0  0  0  0  0  0
  -27.6161  -28.4307   20.4833 C   0  0  0  0  0  0  0  0  0  0  0  0
  -25.8097  -13.5417   21.6018 C   0  0  0  0  0  0  0  0  0  0  0  0
  -24.9367  -11.6838   19.7127 C   0  0  0  0  0  0  0  0  0  0  0  0
  -26.6777  -13.1036   20.6017 C   0  0  0  0  0  0  0  0  0  0  0  0
  -27.9725  -19.4470   20.6877 C   0  0  0  0  0  0  0  0  0  0  0  0
  -28.3180  -21.6013   20.4142 C   0  0  0  0  0  0  0  0  0  0  0  0
  -26.8137  -21.0489   22.3327 C   0  0  0  0  0  0  0  0  0  0  0  0
  -22.4763  -28.7777   22.1940 C   0  0  0  0  0  0  0  0  0  0  0  0
  -22.0909  -25.6723   21.3396 C   0  0  0  0  0  0  0  0  0  0  0  0
  -23.4718  -22.8279   20.0554 C   0  0  0  0  0  0  0  0  0  0  0  0
  -33.2161  -21.0520   17.1644 C   0  0  0  0  0  0  0  0  0  0  0  0
  -18.2954  -29.2295   25.0876 C   0  0  0  0  0  0  0  0  0  0  0  0
  -23.3756  -28.7884   19.8387 C   0  0  0  0  0  0  0  0  0  0  0  0
  -24.4603  -26.5355   21.4176 C   0  0  0  0  0  0  0  0  0  0  0  0
  -19.4110  -28.1989   24.9346 C   0  0  0  0  0  0  0  0  0  0  0  0
  -29.9745  -22.1110   15.9529 C   0  0  0  0  0  0  0  0  0  0  0  0
  -20.7753  -28.8806   24.9649 C   0  0  0  0  0  0  0  0  0  0  0  0
  -29.0612  -21.6610   17.0947 C   0  0  0  0  0  0  0  0  0  0  0  0
  -34.3853  -25.7698   17.8152 C   0  0  0  0  0  0  0  0  0  0  0  0
  -35.2948  -24.8039   19.9698 C   0  0  0  0  0  0  0  0  0  0  0  0
  -31.0977  -21.1060   15.7146 C   0  0  0  0  0  0  0  0  0  0  0  0
  -31.0125  -20.3578   18.0612 C   0  0  0  0  0  0  0  0  0  0  0  0
  -32.9671  -25.5828   18.3418 C   0  0  0  0  0  0  0  0  0  0  0  0
  -33.8695  -24.6247   20.4793 C   0  0  0  0  0  0  0  0  0  0  0  0
  -20.9237  -29.8698   23.8026 C   0  0  1  0  0  0  0  0  0  0  0  0
  -22.5318  -28.0558   20.8774 C   0  0  1  0  0  0  0  0  0  0  0  0
  -29.8695  -21.3430   18.3665 C   0  0  2  0  0  0  0  0  0  0  0  0
  -35.3927  -24.8098   18.4453 C   0  0  0  0  0  0  0  0  0  0  0  0
  -22.9198  -20.4403   19.5152 C   0  0  0  0  0  0  0  0  0  0  0  0
  -22.2513  -24.9671   24.3039 C   0  0  0  0  0  0  0  0  0  0  0  0
  -22.6503  -22.5851   23.6442 C   0  0  0  0  0  0  0  0  0  0  0  0
  -20.5103  -23.7074   23.0247 C   0  0  0  0  0  0  0  0  0  0  0  0
  -24.0402  -23.2259   17.1783 C   0  0  0  0  0  0  0  0  0  0  0  0
  -30.9172  -26.9803   20.3240 C   0  0  0  0  0  0  0  0  0  0  0  0
  -35.3516  -21.7754   16.1282 C   0  0  0  0  0  0  0  0  0  0  0  0
  -31.5825  -25.6152   20.4148 C   0  0  0  0  0  0  0  0  0  0  0  0
  -35.6675  -23.1955   16.5592 C   0  0  0  0  0  0  0  0  0  0  0  0
  -29.4814  -26.9977   20.8340 C   0  0  0  0  0  0  0  0  0  1  0  0
  -22.6409  -24.3534   21.8265 C   0  0  1  0  0  0  0  0  0  0  0  0
  -22.9849  -21.8651   18.9875 C   0  0  2  0  0  0  0  0  0  0  0  0
  -22.0303  -23.9239   23.1904 C   0  0  0  0  0  0  0  0  0  0  0  0
  -28.7863  -19.5239   19.6313 N   0  0  0  0  0  0  0  0  0  0  0  0
  -28.9780  -20.8465   19.4897 N   0  0  0  0  0  0  0  0  0  0  0  0
  -23.0220  -26.7037   21.1521 N   0  0  0  0  0  0  0  0  0  0  0  0
  -31.8395  -20.8615   16.9596 N   0  0  0  0  0  0  0  0  0  0  0  0
  -28.4014  -22.9486   20.4165 N   0  0  0  0  0  0  0  0  0  0  0  0
  -26.2007  -20.0109   23.0476 N   0  0  0  0  0  0  0  0  0  0  0  0
  -21.2042  -29.1638   22.5708 N   0  0  0  0  0  0  0  0  0  0  0  0
  -22.4232  -23.3968   20.7467 N   0  0  0  0  0  0  0  0  0  0  0  0
  -33.9287  -21.5247   16.0691 N   0  0  0  0  0  0  0  0  0  0  0  0
  -32.9754  -25.6661   19.8495 N   0  3  0  0  0  0  0  0  0  0  0  0
  -35.1485  -23.4317   17.9306 N   0  3  0  0  0  0  0  0  0  0  0  0
  -23.9003  -21.8895   17.8118 N   0  3  0  0  0  0  0  0  0  0  0  0
  -26.6050  -22.2373   22.6757 O   0  0  0  0  0  0  0  0  0  0  0  0
  -23.5109  -28.9689   22.8222 O   0  0  0  0  0  0  0  0  0  0  0  0
  -20.8808  -25.7812   21.1265 O   0  0  0  0  0  0  0  0  0  0  0  0
  -24.6634  -23.0501   20.2586 O   0  0  0  0  0  0  0  0  0  0  0  0
  -33.7690  -20.8228   18.2455 O   0  0  0  0  0  0  0  0  0  0  0  0
  -26.2419  -14.4632   22.5408 O   0  0  0  0  0  0  0  0  0  0  0  0
  -28.9575  -28.3163   20.6817 O   0  0  0  0  0  0  0  0  0  1  0  0
  -24.5178  -10.7906   18.8067 F   0  0  0  0  0  0  0  0  0  0  0  0
  -27.9324  -13.5706   20.5438 F   0  0  0  0  0  0  0  0  0  0  0  0
  1  2  1  0  0  0  0
  1  5  2  0  0  0  0
  2  6  2  0  0  0  0
  3  8  2  0  0  0  0
  3 15  1  0  0  0  0
  4  9  1  0  0  0  0
  4 15  2  0  0  0  0
  5 17  1  0  0  0  0
  6 19  1  0  0  0  0
  7 10  2  0  0  0  0
  7 18  1  0  0  0  0
  8 21  1  0  0  0  0
  9 21  2  0  0  0  0
 10 22  1  0  0  0  0
 11 12  2  0  0  0  0
 11 23  1  0  0  0  0
 12 24  1  0  0  0  0
 13 20  1  0  0  0  0
 13 22  2  0  0  0  0
 14 24  2  0  0  0  0
 14 25  1  0  0  0  0
 15 26  1  0  0  0  0
 16 26  1  0  0  0  0
 16 27  2  0  0  0  0
 16 28  1  0  0  0  0
 17 19  2  0  0  0  0
 17 33  1  0  0  0  0
 18 20  2  0  0  0  0
 18 34  1  0  0  0  0
 19 46  1  0  0  0  0
 20 35  1  0  0  0  0
 21 80  1  0  0  0  0
 22 81  1  0  0  0  0
 23 25  2  0  0  0  0
 23 80  1  0  0  0  0
 24 82  1  0  0  0  0
 25 83  1  0  0  0  0
 26 63  2  0  0  0  0
 27 64  1  0  0  0  0
 27 67  1  0  0  0  0
 28 68  1  0  0  0  0
 28 75  2  0  0  0  0
 29 47  1  0  0  0  0
 29 69  1  0  0  0  0
 29 76  2  0  0  0  0
 30 60  1  0  0  0  0
 30 65  1  0  0  0  0
 30 77  2  0  0  0  0
 31 61  1  0  0  0  0
 31 70  1  0  0  0  0
 31 78  2  0  0  0  0
 32 66  1  0  0  0  0
 32 71  1  0  0  0  0
 32 79  2  0  0  0  0
 33 36  1  0  0  0  0
 34 47  1  0  0  0  0
 35 65  1  0  0  0  0
 36 38  1  0  0  0  0
 37 39  1  0  0  0  0
 37 42  1  0  0  0  0
 38 46  1  0  0  0  0
 39 48  1  0  0  0  0
 40 44  1  0  0  0  0
 40 49  1  0  0  0  0
 41 45  1  0  0  0  0
 41 49  1  0  0  0  0
 42 66  1  0  0  0  0
 43 48  1  0  0  0  0
 43 66  1  0  0  0  0
 44 72  1  0  0  0  0
 45 72  1  0  0  0  0
 46 69  1  0  0  0  0
 47 65  1  0  0  0  0
 48 64  1  0  0  0  0
 49 73  1  0  0  0  0
 50 61  1  0  0  0  0
 51 62  1  0  0  0  0
 52 62  1  0  0  0  0
 53 62  1  0  0  0  0
 54 74  1  0  0  0  0
 55 57  1  0  0  0  0
 55 59  1  0  0  0  0
 56 58  1  0  0  0  0
 56 71  1  0  0  0  0
 57 72  1  0  0  0  0
 58 73  1  0  0  0  0
 59 81  1  0  0  0  0
 60 62  1  0  0  0  0
 60 70  1  0  0  0  0
 61 74  1  0  0  0  0
 63 64  1  0  0  0  0
M  CHG  3  72   1  73   1  74   1
M  ISO  4  32 100  59 101  71 100  81 101
M  END
> <Batch ID>
0130

> <Smiles>
CNC(C)C(=O)NC(C(=O)N1Cc2cc([101O:1][101CH2:1]CCN3CCC(NCC[100NH:0][100C:0](=O)N4CCCC(n5nc(-c6ccc(Oc7ccc(F)cc7F)cc6)c(C(N)=O)c5N)C4)CC3)ccc2CC1C(=O)NC1CCCc2ccccc21)C(C)(C)C

> <Shape>
0.195

> <Color>
0.073

> <Negative vol penalty>
0.000

$$$$

  -OEChem-04052320473D

 88 97  0     1  0  0  0  0  0999 V2000
  -25.7918  -36.6584   17.6620 C   0  0  0  0  0  0  0  0  0  0  0  0
  -26.0438  -35.3573   17.2388 C   0  0  0  0  0  0  0  0  0  0  0  0
  -22.9187  -10.2740   20.2481 C   0  0  0  0  0  0  0  0  0  0  0  0
  -24.2170   -9.4040   22.0906 C   0  0  0  0  0  0  0  0  0  0  0  0
  -25.8938  -36.9825   19.0142 C   0  0  0  0  0  0  0  0  0  0  0  0
  -26.3990  -34.3797   18.1676 C   0  0  0  0  0  0  0  0  0  0  0  0
  -25.4569  -22.7019   20.0339 C   0  0  0  0  0  0  0  0  0  0  0  0
  -27.8446  -22.3518   19.9212 C   0  0  0  0  0  0  0  0  0  0  0  0
  -24.9129  -28.4406   18.0121 C   0  0  0  0  0  0  0  0  0  0  0  0
  -22.1500   -9.1101   20.2402 C   0  0  0  0  0  0  0  0  0  0  0  0
  -23.4483   -8.2402   22.0827 C   0  0  0  0  0  0  0  0  0  0  0  0
  -25.5923  -23.8681   19.2808 C   0  0  0  0  0  0  0  0  0  0  0  0
  -27.9801  -23.5180   19.1681 C   0  0  0  0  0  0  0  0  0  0  0  0
  -25.6095  -27.3102   17.5873 C   0  0  0  0  0  0  0  0  0  0  0  0
  -20.4059   -7.2591   23.1790 C   0  0  0  0  0  0  0  0  0  0  0  0
  -19.9605   -6.7701   24.4070 C   0  0  0  0  0  0  0  0  0  0  0  0
  -26.3023  -26.8906   19.8596 C   0  0  0  0  0  0  0  0  0  0  0  0
  -21.1490   -4.7034   24.0150 C   0  0  0  0  0  0  0  0  0  0  0  0
  -23.9522  -10.4209   21.1733 C   0  0  0  0  0  0  0  0  0  0  0  0
  -24.4998  -12.8004   21.9121 C   0  0  0  0  0  0  0  0  0  0  0  0
  -26.5830  -21.9438   20.3541 C   0  0  0  0  0  0  0  0  0  0  0  0
  -26.2410  -36.0062   19.9613 C   0  0  0  0  0  0  0  0  0  0  0  0
  -24.9147  -28.8113   19.3646 C   0  0  0  0  0  0  0  0  0  0  0  0
  -26.5071  -34.6914   19.5336 C   0  0  0  0  0  0  0  0  0  0  0  0
  -25.6028  -28.0247   20.2994 C   0  0  0  0  0  0  0  0  0  0  0  0
  -22.4147   -8.0932   21.1575 C   0  0  0  0  0  0  0  0  0  0  0  0
  -26.8540  -24.2762   18.8479 C   0  0  0  0  0  0  0  0  0  1  0  0
  -26.3068  -26.5366   18.5106 C   0  0  0  0  0  0  0  0  0  0  0  0
  -21.2227   -6.4702   22.3689 C   0  0  0  0  0  0  0  0  0  0  0  0
  -20.3321   -5.4922   24.8251 C   0  0  0  0  0  0  0  0  0  0  0  0
  -21.5943   -5.1924   22.7869 C   0  0  0  0  0  0  0  0  0  0  0  0
  -24.7470  -11.6228   21.1815 C   0  0  0  0  0  0  0  0  0  0  0  0
  -25.5368  -13.6364   21.5771 C   0  0  0  0  0  0  0  0  0  0  0  0
  -23.4285  -13.1110   22.8130 C   0  0  0  0  0  0  0  0  0  0  0  0
  -25.9219  -31.3480   20.9938 C   0  0  0  0  0  0  0  0  0  0  0  0
  -24.4880  -29.8346   23.4790 C   0  0  0  0  0  0  0  0  0  0  0  0
  -23.3921  -26.9053   24.8445 C   0  0  0  0  0  0  0  0  0  0  0  0
  -30.9706  -14.5277   20.6689 C   0  0  0  0  0  0  0  0  0  0  0  0
  -26.3849  -36.4149   21.4059 C   0  0  0  0  0  0  0  0  0  0  0  0
  -24.1362  -30.0184   19.8108 C   0  0  0  0  0  0  0  0  0  0  0  0
  -25.6193  -28.3682   21.7657 C   0  0  0  0  0  0  0  0  0  0  0  0
  -26.4010  -35.2348   22.3740 C   0  0  0  0  0  0  0  0  0  0  0  0
  -29.0520  -13.2362   17.9619 C   0  0  0  0  0  0  0  0  0  0  0  0
  -27.3384  -34.1426   21.8688 C   0  0  0  0  0  0  0  0  0  0  0  0
  -27.7439  -12.7931   18.6194 C   0  0  0  0  0  0  0  0  0  0  0  0
  -25.7359  -20.7654   22.4940 C   0  0  0  0  0  0  0  0  0  0  0  0
  -30.2538  -12.9834   18.8695 C   0  0  0  0  0  0  0  0  0  0  0  0
  -28.8334  -13.1190   20.8789 C   0  0  0  0  0  0  0  0  0  0  0  0
  -26.4381  -20.6983   21.1589 C   0  0  2  0  0  0  0  0  0  0  0  0
  -26.8708  -33.5974   20.5140 C   0  0  1  0  0  0  0  0  0  0  0  0
  -24.6308  -30.5925   21.1349 C   0  0  1  0  0  0  0  0  0  0  0  0
  -27.2210  -20.5624   22.4442 C   0  0  2  0  0  0  0  0  0  0  0  0
  -27.5868  -13.4054   20.0243 C   0  0  2  0  0  0  0  0  0  0  0  0
  -22.2963  -25.9802   26.9038 C   0  0  0  0  0  0  0  0  0  0  0  0
  -27.1231  -30.0947   24.9950 C   0  0  0  0  0  0  0  0  0  0  0  0
  -26.2887  -28.3659   26.6023 C   0  0  0  0  0  0  0  0  0  0  0  0
  -25.0809  -30.5361   26.3694 C   0  0  0  0  0  0  0  0  0  0  0  0
  -21.0683  -25.9134   23.3033 C   0  0  0  0  0  0  0  0  0  0  0  0
  -27.8094  -19.2465   22.8216 C   0  0  0  0  0  0  0  0  0  0  0  0
  -31.5171  -15.8903   24.0791 C   0  0  0  0  0  0  0  0  0  0  0  0
  -29.2377  -19.0774   22.2953 C   0  0  0  0  0  0  0  0  0  0  0  0
  -32.3540  -14.7109   24.5625 C   0  0  0  0  0  0  0  0  0  0  0  0
  -31.1308  -17.4545   22.1498 C   0  0  0  0  0  0  0  0  0  0  0  0
  -24.9265  -28.8263   24.5134 C   0  0  1  0  0  0  0  0  0  0  0  0
  -22.0767  -26.5310   25.5034 C   0  0  2  0  0  0  0  0  0  0  0  0
  -31.5496  -16.0398   22.5497 C   0  0  2  0  0  0  0  0  0  0  0  0
  -25.8563  -29.4501   25.5922 C   0  0  0  0  0  0  0  0  0  0  0  0
  -25.8542  -11.6998   20.4384 N   0  0  0  0  0  0  0  0  0  0  0  0
  -26.3118  -12.9360   20.7002 N   0  0  0  0  0  0  0  0  0  0  0  0
  -24.8482  -29.5615   22.1518 N   0  0  0  0  0  0  0  0  0  0  0  0
  -30.0420  -13.5912   20.1854 N   0  0  0  0  0  0  0  0  0  0  0  0
  -25.8522  -14.8949   21.9500 N   0  0  0  0  0  0  0  0  0  0  0  0
  -22.4468  -12.1378   23.0444 N   0  0  0  0  0  0  0  0  0  0  0  0
  -25.7603  -32.6867   20.6917 N   0  0  0  0  0  0  0  0  0  0  0  0
  -23.7057  -28.2325   25.0477 N   0  0  0  0  0  0  0  0  0  0  0  0
  -30.6914  -15.0602   21.9216 N   0  0  0  0  0  0  0  0  0  0  0  0
  -32.3129  -14.6637   26.0447 N   0  3  0  0  0  0  0  0  0  0  0  0
  -21.3693  -25.4964   24.6970 N   0  3  0  0  0  0  0  0  0  0  0  0
  -29.7639  -17.7416   22.6652 N   0  3  0  0  0  0  0  0  0  0  0  0
  -23.3355  -14.2245   23.3830 O   0  0  0  0  0  0  0  0  0  0  0  0
  -26.9859  -30.7602   21.1491 O   0  0  0  0  0  0  0  0  0  0  0  0
  -23.8433  -30.8244   23.8345 O   0  0  0  0  0  0  0  0  0  0  0  0
  -24.0750  -26.0998   24.2157 O   0  0  0  0  0  0  0  0  0  0  0  0
  -31.9714  -14.8684   20.0290 O   0  0  0  0  0  0  0  0  0  0  0  0
  -26.9882  -25.4331   18.0985 O   0  0  0  0  0  0  0  0  0  1  0  0
  -21.6647   -6.9575   21.1503 O   0  0  0  0  0  0  0  0  0  0  0  0
  -19.9057   -5.0234   26.0051 F   0  0  0  0  0  0  0  0  0  0  0  0
  -22.3799   -4.4304   22.0136 F   0  0  0  0  0  0  0  0  0  0  0  0
  1  2  1  0  0  0  0
  1  5  2  0  0  0  0
  2  6  2  0  0  0  0
  3 10  2  0  0  0  0
  3 19  1  0  0  0  0
  4 11  1  0  0  0  0
  4 19  2  0  0  0  0
  5 22  1  0  0  0  0
  6 24  1  0  0  0  0
  7 12  2  0  0  0  0
  7 21  1  0  0  0  0
  8 13  1  0  0  0  0
  8 21  2  0  0  0  0
  9 14  2  0  0  0  0
  9 23  1  0  0  0  0
 10 26  1  0  0  0  0
 11 26  2  0  0  0  0
 12 27  1  0  0  0  0
 13 27  2  0  0  0  0
 14 28  1  0  0  0  0
 15 16  2  0  0  0  0
 15 29  1  0  0  0  0
 16 30  1  0  0  0  0
 17 25  1  0  0  0  0
 17 28  2  0  0  0  0
 18 30  2  0  0  0  0
 18 31  1  0  0  0  0
 19 32  1  0  0  0  0
 20 32  1  0  0  0  0
 20 33  2  0  0  0  0
 20 34  1  0  0  0  0
 21 49  1  0  0  0  0
 22 24  2  0  0  0  0
 22 39  1  0  0  0  0
 23 25  2  0  0  0  0
 23 40  1  0  0  0  0
 24 50  1  0  0  0  0
 25 41  1  0  0  0  0
 26 86  1  0  0  0  0
 27 85  1  0  0  0  0
 28 85  1  0  0  0  0
 29 31  2  0  0  0  0
 29 86  1  0  0  0  0
 30 87  1  0  0  0  0
 31 88  1  0  0  0  0
 32 68  2  0  0  0  0
 33 69  1  0  0  0  0
 33 72  1  0  0  0  0
 34 73  1  0  0  0  0
 34 80  2  0  0  0  0
 35 51  1  0  0  0  0
 35 74  1  0  0  0  0
 35 81  2  0  0  0  0
 36 64  1  0  0  0  0
 36 70  1  0  0  0  0
 36 82  2  0  0  0  0
 37 65  1  0  0  0  0
 37 75  1  0  0  0  0
 37 83  2  0  0  0  0
 38 71  1  0  0  0  0
 38 76  1  0  0  0  0
 38 84  2  0  0  0  0
 39 42  1  0  0  0  0
 40 51  1  0  0  0  0
 41 70  1  0  0  0  0
 42 44  1  0  0  0  0
 43 45  1  0  0  0  0
 43 47  1  0  0  0  0
 44 50  1  0  0  0  0
 45 53  1  0  0  0  0
 46 49  1  0  0  0  0
 46 52  1  0  0  0  0
 47 71  1  0  0  0  0
 48 53  1  0  0  0  0
 48 71  1  0  0  0  0
 49 52  1  0  0  0  0
 50 74  1  0  0  0  0
 51 70  1  0  0  0  0
 52 59  1  0  0  0  0
 53 69  1  0  0  0  0
 54 65  1  0  0  0  0
 55 67  1  0  0  0  0
 56 67  1  0  0  0  0
 57 67  1  0  0  0  0
 58 78  1  0  0  0  0
 59 61  1  0  0  0  0
 60 62  1  0  0  0  0
 60 66  1  0  0  0  0
 61 79  1  0  0  0  0
 62 77  1  0  0  0  0
 63 66  1  0  0  0  0
 63 79  1  0  0  0  0
 64 67  1  0  0  0  0
 64 75  1  0  0  0  0
 65 78  1  0  0  0  0
 66 76  1  0  0  0  0
 68 69  1  0  0  0  0
M  CHG  3  77   1  78   1  79   1
M  ISO  4  27 101  38 100  76 100  85 101
M  END
> <Batch ID>
0130

> <Smiles>
CNC(C)C(=O)NC(C(=O)N1Cc2cc([101O:1][101c:1]3ccc(C4CC4CCNCC(CCN)[100NH:0][100C:0](=O)N4CCCC(n5nc(-c6ccc(Oc7ccc(F)cc7F)cc6)c(C(N)=O)c5N)C4)cc3)ccc2CC1C(=O)NC1CCCc2ccccc21)C(C)(C)C

> <Shape>
0.292

> <Color>
0.133

> <Negative vol penalty>
0.000

$$$$

  -OEChem-04052320473D

 91100  0     1  0  0  0  0  0999 V2000
  -28.7730  -33.4903   22.1274 C   0  0  0  0  0  0  0  0  0  0  0  0
  -28.6475  -32.1227   22.3496 C   0  0  0  0  0  0  0  0  0  0  0  0
  -22.9388  -10.1645   21.3835 C   0  0  0  0  0  0  0  0  0  0  0  0
  -23.2157  -12.5644   21.3588 C   0  0  0  0  0  0  0  0  0  0  0  0
  -27.6698  -34.3265   22.2939 C   0  0  0  0  0  0  0  0  0  0  0  0
  -27.4190  -31.5907   22.7397 C   0  0  0  0  0  0  0  0  0  0  0  0
  -26.2359  -27.3708   20.2025 C   0  0  0  0  0  0  0  0  0  0  0  0
  -21.8379  -10.3002   22.2292 C   0  0  0  0  0  0  0  0  0  0  0  0
  -22.1147  -12.7001   22.2045 C   0  0  0  0  0  0  0  0  0  0  0  0
  -26.8646  -26.1915   20.5998 C   0  0  0  0  0  0  0  0  0  0  0  0
  -18.7466  -12.6373   21.9354 C   0  0  0  0  0  0  0  0  0  0  0  0
  -17.8088  -13.6214   21.6230 C   0  0  0  0  0  0  0  0  0  0  0  0
  -24.8897  -25.5614   21.8334 C   0  0  0  0  0  0  0  0  0  0  0  0
  -18.2180  -14.6872   23.7522 C   0  0  0  0  0  0  0  0  0  0  0  0
  -23.6278  -11.2966   20.9483 C   0  0  0  0  0  0  0  0  0  0  0  0
  -24.7867  -10.5768   18.7928 C   0  0  0  0  0  0  0  0  0  0  0  0
  -26.4248  -33.8032   22.6768 C   0  0  0  0  0  0  0  0  0  0  0  0
  -24.9311  -27.6598   20.6272 C   0  0  0  0  0  0  0  0  0  0  0  0
  -26.2985  -32.4209   22.9128 C   0  0  0  0  0  0  0  0  0  0  0  0
  -24.2457  -26.7438   21.4379 C   0  0  0  0  0  0  0  0  0  0  0  0
  -21.4259  -11.5680   22.6396 C   0  0  0  0  0  0  0  0  0  0  0  0
  -26.1926  -25.2880   21.4178 C   0  0  0  0  0  0  0  0  0  0  0  0
  -19.4201  -12.6781   23.1563 C   0  0  0  0  0  0  0  0  0  0  0  0
  -17.5445  -14.6464   22.5314 C   0  0  0  0  0  0  0  0  0  0  0  0
  -19.1558  -13.7031   24.0647 C   0  0  0  0  0  0  0  0  0  0  0  0
  -24.7654  -11.1571   20.0752 C   0  0  0  0  0  0  0  0  0  0  0  0
  -26.0939  -10.6891   18.3867 C   0  0  0  0  0  0  0  0  0  0  0  0
  -23.7200   -9.9890   18.0361 C   0  0  0  0  0  0  0  0  0  0  0  0
  -23.5970  -29.9593   22.3696 C   0  0  0  0  0  0  0  0  0  0  0  0
  -20.8420  -28.4874   21.4943 C   0  0  0  0  0  0  0  0  0  0  0  0
  -19.6639  -25.0948   21.1485 C   0  0  0  0  0  0  0  0  0  0  0  0
  -30.5154  -14.4451   19.8681 C   0  0  0  0  0  0  0  0  0  0  0  0
  -25.2727  -34.7529   22.8901 C   0  0  0  0  0  0  0  0  0  0  0  0
  -24.2572  -28.9236   20.1679 C   0  0  0  0  0  0  0  0  0  0  0  0
  -22.8364  -26.9975   21.9047 C   0  0  0  0  0  0  0  0  0  0  0  0
  -23.9136  -34.0598   22.9416 C   0  0  0  0  0  0  0  0  0  0  0  0
  -30.5488  -10.8937   20.1198 C   0  0  0  0  0  0  0  0  0  0  0  0
  -33.4492  -27.1537   18.6006 C   0  0  0  0  0  0  0  0  0  0  0  0
  -23.9738  -32.8332   23.8464 C   0  0  0  0  0  0  0  0  0  0  0  0
  -29.0723  -10.5061   20.0212 C   0  0  0  0  0  0  0  0  0  0  0  0
  -33.5613  -25.6554   18.8110 C   0  0  0  0  0  0  0  0  0  0  0  0
  -30.5131  -16.5441   17.3478 C   0  0  0  0  0  0  0  0  0  0  0  0
  -29.0829  -17.7563   19.0441 C   0  0  0  0  0  0  0  0  0  0  0  0
  -30.7394  -12.1991   20.8889 C   0  0  0  0  0  0  0  0  0  0  0  0
  -28.4703  -12.9487   20.2863 C   0  0  0  0  0  0  0  0  0  0  0  0
  -31.9841  -27.4315   18.8721 C   0  0  0  0  0  0  0  0  0  0  0  0
  -30.9588  -17.8834   16.7804 C   0  0  0  0  0  0  0  0  0  0  0  0
  -24.9764  -31.8028   23.3128 C   0  0  1  0  0  0  0  0  0  0  0  0
  -23.1141  -29.3568   21.0806 C   0  0  1  0  0  0  0  0  0  0  0  0
  -28.2231  -11.6678   19.4711 C   0  0  2  0  0  0  0  0  0  0  0  0
  -30.1309  -16.6610   18.8256 C   0  0  1  0  0  0  0  0  0  0  0  0
  -32.3071  -25.1260   18.1313 C   0  0  1  0  0  0  0  0  0  0  0  0
  -29.5441  -19.0958   18.4659 C   0  0  2  0  0  0  0  0  0  0  0  0
  -17.8731  -24.1315   19.6780 C   0  0  0  0  0  0  0  0  0  0  0  0
  -19.0356  -28.8955   23.9193 C   0  0  0  0  0  0  0  0  0  0  0  0
  -17.9134  -26.7283   23.3607 C   0  0  0  0  0  0  0  0  0  0  0  0
  -17.8231  -28.6295   21.7482 C   0  0  0  0  0  0  0  0  0  0  0  0
  -21.5298  -23.1221   19.9713 C   0  0  0  0  0  0  0  0  0  0  0  0
  -31.8293  -23.7894   18.6612 C   0  0  0  0  0  0  0  0  0  0  0  0
  -27.2426  -21.6120   20.2982 C   0  0  0  0  0  0  0  0  0  0  0  0
  -26.7284  -21.7195   21.7392 C   0  0  0  0  0  0  0  0  0  0  0  0
  -28.0150  -20.3166   20.0293 C   0  0  0  0  0  0  0  0  0  0  0  0
  -30.5994  -23.3072   17.9087 C   0  0  0  0  0  0  0  0  0  0  0  0
  -28.9078  -21.4696   17.8872 C   0  0  0  0  0  0  0  0  0  0  0  0
  -25.9677  -23.0049   22.0444 C   0  0  0  0  0  0  0  0  0  1  0  0
  -19.9955  -27.3757   22.0659 C   0  0  1  0  0  0  0  0  0  0  0  0
  -19.3659  -24.3640   19.8518 C   0  0  2  0  0  0  0  0  0  0  0  0
  -28.4639  -20.1635   18.5606 C   0  0  1  0  0  0  0  0  0  0  0  0
  -18.7200  -27.9083   22.7779 C   0  0  0  0  0  0  0  0  0  0  0  0
  -25.9641  -11.6046   20.4586 N   0  0  0  0  0  0  0  0  0  0  0  0
  -26.7508  -11.3054   19.4109 N   0  0  0  0  0  0  0  0  0  0  0  0
  -22.2226  -28.2503   21.4340 N   0  0  0  0  0  0  0  0  0  0  0  0
  -29.9079  -13.2604   20.3159 N   0  0  0  0  0  0  0  0  0  0  0  0
  -26.7342  -10.3197   17.2571 N   0  0  0  0  0  0  0  0  0  0  0  0
  -22.4385   -9.9558   18.6025 N   0  0  0  0  0  0  0  0  0  0  0  0
  -24.4047  -31.0682   22.2046 N   0  0  0  0  0  0  0  0  0  0  0  0
  -19.7258  -26.4597   20.9630 N   0  0  0  0  0  0  0  0  0  0  0  0
  -29.6559  -15.3967   19.3329 N   0  0  0  0  0  0  0  0  0  0  0  0
  -31.2764  -26.1914   18.4032 N   0  3  0  0  0  0  0  0  0  0  0  0
  -29.8919  -18.9010   17.0189 N   0  3  0  0  0  0  0  0  0  0  0  0
  -20.0528  -23.0416   19.8328 N   0  3  0  0  0  0  0  0  0  0  0  0
  -30.1437  -22.0167   18.4952 N   0  3  0  0  0  0  0  0  0  0  0  0
  -23.9015   -9.4927   16.8985 O   0  0  0  0  0  0  0  0  0  0  0  0
  -23.2604  -29.4561   23.4351 O   0  0  0  0  0  0  0  0  0  0  0  0
  -20.2976  -29.5249   21.1088 O   0  0  0  0  0  0  0  0  0  0  0  0
  -19.8219  -24.5133   22.2197 O   0  0  0  0  0  0  0  0  0  0  0  0
  -31.7341  -14.6381   19.9350 O   0  0  0  0  0  0  0  0  0  0  0  0
  -20.3515  -11.7008   23.4647 O   0  0  0  0  0  0  0  0  0  0  0  0
  -26.8041  -24.1365   21.8076 O   0  0  0  0  0  0  0  0  0  1  0  0
  -16.6450  -15.5922   22.2306 F   0  0  0  0  0  0  0  0  0  0  0  0
  -19.8005  -13.7483   25.2386 F   0  0  0  0  0  0  0  0  0  0  0  0
  1  2  1  0  0  0  0
  1  5  2  0  0  0  0
  2  6  2  0  0  0  0
  3  8  2  0  0  0  0
  3 15  1  0  0  0  0
  4  9  1  0  0  0  0
  4 15  2  0  0  0  0
  5 17  1  0  0  0  0
  6 19  1  0  0  0  0
  7 10  2  0  0  0  0
  7 18  1  0  0  0  0
  8 21  1  0  0  0  0
  9 21  2  0  0  0  0
 10 22  1  0  0  0  0
 11 12  2  0  0  0  0
 11 23  1  0  0  0  0
 12 24  1  0  0  0  0
 13 20  1  0  0  0  0
 13 22  2  0  0  0  0
 14 24  2  0  0  0  0
 14 25  1  0  0  0  0
 15 26  1  0  0  0  0
 16 26  1  0  0  0  0
 16 27  2  0  0  0  0
 16 28  1  0  0  0  0
 17 19  2  0  0  0  0
 17 33  1  0  0  0  0
 18 20  2  0  0  0  0
 18 34  1  0  0  0  0
 19 48  1  0  0  0  0
 20 35  1  0  0  0  0
 21 88  1  0  0  0  0
 22 89  1  0  0  0  0
 23 25  2  0  0  0  0
 23 88  1  0  0  0  0
 24 90  1  0  0  0  0
 25 91  1  0  0  0  0
 26 70  2  0  0  0  0
 27 71  1  0  0  0  0
 27 74  1  0  0  0  0
 28 75  1  0  0  0  0
 28 83  2  0  0  0  0
 29 49  1  0  0  0  0
 29 76  1  0  0  0  0
 29 84  2  0  0  0  0
 30 66  1  0  0  0  0
 30 72  1  0  0  0  0
 30 85  2  0  0  0  0
 31 67  1  0  0  0  0
 31 77  1  0  0  0  0
 31 86  2  0  0  0  0
 32 73  1  0  0  0  0
 32 78  1  0  0  0  0
 32 87  2  0  0  0  0
 33 36  1  0  0  0  0
 34 49  1  0  0  0  0
 35 72  1  0  0  0  0
 36 39  1  0  0  0  0
 37 40  1  0  0  0  0
 37 44  1  0  0  0  0
 38 41  1  0  0  0  0
 38 46  1  0  0  0  0
 39 48  1  0  0  0  0
 40 50  1  0  0  0  0
 41 52  1  0  0  0  0
 42 47  1  0  0  0  0
 42 51  1  0  0  0  0
 43 51  1  0  0  0  0
 43 53  1  0  0  0  0
 44 73  1  0  0  0  0
 45 50  1  0  0  0  0
 45 73  1  0  0  0  0
 46 79  1  0  0  0  0
 47 80  1  0  0  0  0
 48 76  1  0  0  0  0
 49 72  1  0  0  0  0
 50 71  1  0  0  0  0
 51 78  1  0  0  0  0
 52 59  1  0  0  0  0
 52 79  1  0  0  0  0
 53 68  1  0  0  0  0
 53 80  1  0  0  0  0
 54 67  1  0  0  0  0
 55 69  1  0  0  0  0
 56 69  1  0  0  0  0
 57 69  1  0  0  0  0
 58 81  1  0  0  0  0
 59 63  1  0  0  0  0
 60 61  1  0  0  0  0
 60 62  1  0  0  0  0
 61 65  1  0  0  0  0
 62 68  1  0  0  0  0
 63 82  1  0  0  0  0
 64 68  1  0  0  0  0
 64 82  1  0  0  0  0
 65 89  1  0  0  0  0
 66 69  1  0  0  0  0
 66 77  1  0  0  0  0
 67 81  1  0  0  0  0
 70 71  1  0  0  0  0
M  CHG  4  79   1  80   1  81   1  82   1
M  ISO  4  32 100  65 101  78 100  89 101
M  END
> <Batch ID>
0130

> <Smiles>
CNC(C)C(=O)NC(C(=O)N1Cc2cc([101O:1][101CH2:1]CCCC(CNCCC3CCCN3)C3CC([100NH:0][100C:0](=O)N4CCCC(n5nc(-c6ccc(Oc7ccc(F)cc7F)cc6)c(C(N)=O)c5N)C4)CCN3)ccc2CC1C(=O)NC1CCCc2ccccc21)C(C)(C)C

> <Shape>
0.272

> <Color>
0.049

> <Negative vol penalty>
0.000

$$$$

  -OEChem-04052320473D

 85 94  0     1  0  0  0  0  0999 V2000
  -17.3607  -26.1646   23.0914 C   0  0  0  0  0  0  0  0  0  0  0  0
  -18.6060  -25.7028   22.6775 C   0  0  0  0  0  0  0  0  0  0  0  0
  -24.1537  -10.1608   22.1614 C   0  0  0  0  0  0  0  0  0  0  0  0
  -22.9596  -11.0535   20.2603 C   0  0  0  0  0  0  0  0  0  0  0  0
  -17.0462  -27.5179   22.9744 C   0  0  0  0  0  0  0  0  0  0  0  0
  -19.5372  -26.5939   22.1453 C   0  0  0  0  0  0  0  0  0  0  0  0
  -25.6243  -26.3741   22.7818 C   0  0  0  0  0  0  0  0  0  0  0  0
  -23.1491   -9.2110   22.3465 C   0  0  0  0  0  0  0  0  0  0  0  0
  -21.9550  -10.1036   20.4453 C   0  0  0  0  0  0  0  0  0  0  0  0
  -26.6374  -25.8951   21.9524 C   0  0  0  0  0  0  0  0  0  0  0  0
  -22.2250   -6.2626   20.9731 C   0  0  0  0  0  0  0  0  0  0  0  0
  -22.6149   -4.9459   21.2178 C   0  0  0  0  0  0  0  0  0  0  0  0
  -26.9890  -28.1256   21.1037 C   0  0  0  0  0  0  0  0  0  0  0  0
  -29.7811  -20.5356   16.7035 C   0  0  0  0  0  0  0  0  0  0  0  0
  -28.6214  -18.4917   17.2155 C   0  0  0  0  0  0  0  0  0  0  0  0
  -21.4672   -5.0012   23.3431 C   0  0  0  0  0  0  0  0  0  0  0  0
  -24.0589  -11.0821   21.1184 C   0  0  0  0  0  0  0  0  0  0  0  0
  -26.2546  -11.9337   20.1380 C   0  0  0  0  0  0  0  0  0  0  0  0
  -17.9775  -28.4276   22.4494 C   0  0  0  0  0  0  0  0  0  0  0  0
  -25.2779  -27.7329   22.7704 C   0  0  0  0  0  0  0  0  0  0  0  0
  -19.2343  -27.9604   22.0199 C   0  0  0  0  0  0  0  0  0  0  0  0
  -25.9728  -28.6198   21.9358 C   0  0  0  0  0  0  0  0  0  0  0  0
  -29.4169  -19.2398   16.3548 C   0  0  0  0  0  0  0  0  0  0  0  0
  -22.0497   -9.1824   21.4884 C   0  0  0  0  0  0  0  0  0  0  0  0
  -27.3180  -26.7704   21.1111 C   0  0  0  0  0  0  0  0  0  0  0  0
  -21.4563   -6.9487   21.9134 C   0  0  0  0  0  0  0  0  0  0  0  0
  -22.2360   -4.3152   22.4028 C   0  0  0  0  0  0  0  0  0  0  0  0
  -21.0774   -6.3179   23.0984 C   0  0  0  0  0  0  0  0  0  0  0  0
  -25.0961  -12.0638   20.9271 C   0  0  0  0  0  0  0  0  0  0  0  0
  -29.3274  -21.0331   17.9145 C   0  0  0  0  0  0  0  0  0  0  0  0
  -28.2198  -19.0806   18.4036 C   0  0  0  0  0  0  0  0  0  0  0  0
  -26.9089  -13.1319   20.2886 C   0  0  0  0  0  0  0  0  0  0  0  0
  -26.6996  -10.8286   19.3402 C   0  0  0  0  0  0  0  0  0  0  0  0
  -22.6490  -29.3717   22.0586 C   0  0  0  0  0  0  0  0  0  0  0  0
  -24.3889  -31.8831   23.1484 C   0  0  0  0  0  0  0  0  0  0  0  0
  -27.4650  -33.2309   23.7550 C   0  0  0  0  0  0  0  0  0  0  0  0
  -26.8941  -18.6955   20.5109 C   0  0  0  0  0  0  0  0  0  0  0  0
  -17.5747  -29.8732   22.2987 C   0  0  0  0  0  0  0  0  0  0  0  0
  -24.2008  -28.2384   23.6906 C   0  0  0  0  0  0  0  0  0  0  0  0
  -25.6529  -30.0912   21.9008 C   0  0  0  0  0  0  0  0  0  0  0  0
  -18.7552  -30.8139   22.0714 C   0  0  0  0  0  0  0  0  0  0  0  0
  -26.0892  -16.9507   23.5084 C   0  0  0  0  0  0  0  0  0  0  0  0
  -19.6950  -30.2451   21.0130 C   0  0  0  0  0  0  0  0  0  0  0  0
  -25.8544  -15.5130   23.0391 C   0  0  0  0  0  0  0  0  0  0  0  0
  -28.1829  -25.7409   17.4318 C   0  0  0  0  0  0  0  0  0  0  0  0
  -25.5795  -17.9698   22.4909 C   0  0  0  0  0  0  0  0  0  0  0  0
  -25.8487  -16.3499   20.6544 C   0  0  0  0  0  0  0  0  0  0  0  0
  -28.7035  -25.1881   16.1188 C   0  0  0  0  0  0  0  0  0  0  0  0
  -20.2803  -28.9002   21.4605 C   0  0  1  0  0  0  0  0  0  0  0  0
  -23.5826  -29.5521   23.2220 C   0  0  1  0  0  0  0  0  0  0  0  0
  -28.8404  -24.8428   18.4733 C   0  0  2  0  0  0  0  0  0  0  0  0
  -26.4042  -15.2875   21.6170 C   0  0  2  0  0  0  0  0  0  0  0  0
  -28.6914  -23.4574   17.8463 C   0  0  2  0  0  0  0  0  0  0  0  0
  -29.8777  -18.6548   15.0631 C   0  0  0  0  0  0  0  0  0  0  0  0
  -28.5681  -35.3151   24.6132 C   0  0  0  0  0  0  0  0  0  0  0  0
  -23.7798  -33.2891   20.5098 C   0  0  0  0  0  0  0  0  0  0  0  0
  -25.6341  -34.8931   21.0166 C   0  0  0  0  0  0  0  0  0  0  0  0
  -23.6546  -34.7598   22.5287 C   0  0  0  0  0  0  0  0  0  0  0  0
  -28.7537  -31.7705   25.9833 C   0  0  0  0  0  0  0  0  0  0  0  0
  -29.7031  -22.4340   18.3261 C   0  0  0  0  0  0  0  0  0  0  0  0
  -28.1930  -24.9580   19.8441 C   0  0  0  0  0  0  0  0  0  1  0  0
  -25.3403  -32.8755   22.5247 C   0  0  1  0  0  0  0  0  0  0  0  0
  -28.0327  -33.9378   24.9725 C   0  0  2  0  0  0  0  0  0  0  0  0
  -24.6072  -33.9264   21.6439 C   0  0  0  0  0  0  0  0  0  0  0  0
  -25.0162  -13.2509   21.5340 N   0  0  0  0  0  0  0  0  0  0  0  0
  -28.5533  -20.3365   18.7766 N   0  0  0  0  0  0  0  0  0  0  0  0
  -26.1329  -13.8777   21.1264 N   0  0  0  0  0  0  0  0  0  0  0  0
  -24.5876  -30.5360   22.8144 N   0  0  0  0  0  0  0  0  0  0  0  0
  -26.1456  -17.6963   21.1681 N   0  0  0  0  0  0  0  0  0  0  0  0
  -28.0667  -13.6098   19.7849 N   0  0  0  0  0  0  0  0  0  0  0  0
  -25.9067   -9.6738   19.2969 N   0  0  0  0  0  0  0  0  0  0  0  0
  -27.4098  -18.3098   19.2740 N   0  0  0  0  0  0  0  0  0  0  0  0
  -21.3424  -29.1060   22.4217 N   0  0  0  0  0  0  0  0  0  0  0  0
  -26.1099  -33.4491   23.6233 N   0  0  0  0  0  0  0  0  0  0  0  0
  -28.8891  -23.7187   16.3739 N   0  3  0  0  0  0  0  0  0  0  0  0
  -29.1449  -33.1405   25.5627 N   0  3  0  0  0  0  0  0  0  0  0  0
  -27.7768  -10.8581   18.6982 O   0  0  0  0  0  0  0  0  0  0  0  0
  -23.0816  -29.4680   20.9161 O   0  0  0  0  0  0  0  0  0  0  0  0
  -23.5066  -32.2876   23.9097 O   0  0  0  0  0  0  0  0  0  0  0  0
  -28.1554  -32.5558   22.9945 O   0  0  0  0  0  0  0  0  0  0  0  0
  -27.0880  -19.8020   21.0209 O   0  0  0  0  0  0  0  0  0  0  0  0
  -21.0694   -8.2556   21.6685 O   0  0  0  0  0  0  0  0  0  0  0  0
  -28.3068  -26.3054   20.3001 O   0  0  0  0  0  0  0  0  0  1  0  0
  -22.6092   -3.0503   22.6370 F   0  0  0  0  0  0  0  0  0  0  0  0
  -20.3379   -6.9715   24.0049 F   0  0  0  0  0  0  0  0  0  0  0  0
  1  2  1  0  0  0  0
  1  5  2  0  0  0  0
  2  6  2  0  0  0  0
  3  8  2  0  0  0  0
  3 17  1  0  0  0  0
  4  9  1  0  0  0  0
  4 17  2  0  0  0  0
  5 19  1  0  0  0  0
  6 21  1  0  0  0  0
  7 10  2  0  0  0  0
  7 20  1  0  0  0  0
  8 24  1  0  0  0  0
  9 24  2  0  0  0  0
 10 25  1  0  0  0  0
 11 12  2  0  0  0  0
 11 26  1  0  0  0  0
 12 27  1  0  0  0  0
 13 22  1  0  0  0  0
 13 25  2  0  0  0  0
 14 23  2  0  0  0  0
 14 30  1  0  0  0  0
 15 23  1  0  0  0  0
 15 31  2  0  0  0  0
 16 27  2  0  0  0  0
 16 28  1  0  0  0  0
 17 29  1  0  0  0  0
 18 29  1  0  0  0  0
 18 32  2  0  0  0  0
 18 33  1  0  0  0  0
 19 21  2  0  0  0  0
 19 38  1  0  0  0  0
 20 22  2  0  0  0  0
 20 39  1  0  0  0  0
 21 49  1  0  0  0  0
 22 40  1  0  0  0  0
 23 54  1  0  0  0  0
 24 82  1  0  0  0  0
 25 83  1  0  0  0  0
 26 28  2  0  0  0  0
 26 82  1  0  0  0  0
 27 84  1  0  0  0  0
 28 85  1  0  0  0  0
 29 65  2  0  0  0  0
 30 60  1  0  0  0  0
 30 66  2  0  0  0  0
 31 66  1  0  0  0  0
 31 72  1  0  0  0  0
 32 67  1  0  0  0  0
 32 70  1  0  0  0  0
 33 71  1  0  0  0  0
 33 77  2  0  0  0  0
 34 50  1  0  0  0  0
 34 73  1  0  0  0  0
 34 78  2  0  0  0  0
 35 62  1  0  0  0  0
 35 68  1  0  0  0  0
 35 79  2  0  0  0  0
 36 63  1  0  0  0  0
 36 74  1  0  0  0  0
 36 80  2  0  0  0  0
 37 69  1  0  0  0  0
 37 72  1  0  0  0  0
 37 81  2  0  0  0  0
 38 41  1  0  0  0  0
 39 50  1  0  0  0  0
 40 68  1  0  0  0  0
 41 43  1  0  0  0  0
 42 44  1  0  0  0  0
 42 46  1  0  0  0  0
 43 49  1  0  0  0  0
 44 52  1  0  0  0  0
 45 48  1  0  0  0  0
 45 51  1  0  0  0  0
 46 69  1  0  0  0  0
 47 52  1  0  0  0  0
 47 69  1  0  0  0  0
 48 75  1  0  0  0  0
 49 73  1  0  0  0  0
 50 68  1  0  0  0  0
 51 53  1  0  0  0  0
 51 61  1  0  0  0  0
 52 67  1  0  0  0  0
 53 60  1  0  0  0  0
 53 75  1  0  0  0  0
 55 63  1  0  0  0  0
 56 64  1  0  0  0  0
 57 64  1  0  0  0  0
 58 64  1  0  0  0  0
 59 76  1  0  0  0  0
 61 83  1  0  0  0  0
 62 64  1  0  0  0  0
 62 74  1  0  0  0  0
 63 76  1  0  0  0  0
 65 67  1  0  0  0  0
M  CHG  2  75   1  76   1
M  ISO  4  37 100  61 101  72 100  83 101
M  END
> <Batch ID>
0130

> <Smiles>
CNC(C)C(=O)NC(C(=O)N1Cc2cc([101O:1][101CH2:1]C3CCNC3Cc3cc(C)cc([100NH:0][100C:0](=O)N4CCCC(n5nc(-c6ccc(Oc7ccc(F)cc7F)cc6)c(C(N)=O)c5N)C4)n3)ccc2CC1C(=O)NC1CCCc2ccccc21)C(C)(C)C

> <Shape>
0.310

> <Color>
0.091

> <Negative vol penalty>
0.000

$$$$

  -OEChem-04052320473D

 80 88  0     1  0  0  0  0  0999 V2000
  -27.5594  -34.2432   24.8213 C   0  0  0  0  0  0  0  0  0  0  0  0
  -27.8559  -32.8857   24.7520 C   0  0  0  0  0  0  0  0  0  0  0  0
  -24.1205   -9.9012   21.9502 C   0  0  0  0  0  0  0  0  0  0  0  0
  -24.4801  -11.2406   23.9285 C   0  0  0  0  0  0  0  0  0  0  0  0
  -28.4731  -21.0271   21.2496 C   0  0  0  0  0  0  0  0  0  0  0  0
  -30.8634  -20.6786   21.2064 C   0  0  0  0  0  0  0  0  0  0  0  0
  -26.2418  -34.6760   24.6772 C   0  0  0  0  0  0  0  0  0  0  0  0
  -26.8347  -31.9601   24.5398 C   0  0  0  0  0  0  0  0  0  0  0  0
  -28.0703  -28.4605   21.0943 C   0  0  0  0  0  0  0  0  0  0  0  0
  -28.2718  -19.6881   20.9151 C   0  0  0  0  0  0  0  0  0  0  0  0
  -30.6621  -19.3395   20.8719 C   0  0  0  0  0  0  0  0  0  0  0  0
  -23.6496   -8.8553   22.7439 C   0  0  0  0  0  0  0  0  0  0  0  0
  -24.0091  -10.1947   24.7222 C   0  0  0  0  0  0  0  0  0  0  0  0
  -28.9104  -27.4278   21.5087 C   0  0  0  0  0  0  0  0  0  0  0  0
  -20.7913   -8.0458   24.3587 C   0  0  0  0  0  0  0  0  0  0  0  0
  -19.6295   -7.3924   23.9475 C   0  0  0  0  0  0  0  0  0  0  0  0
  -26.9978  -25.9783   21.7536 C   0  0  0  0  0  0  0  0  0  0  0  0
  -20.8487   -5.3110   23.8104 C   0  0  0  0  0  0  0  0  0  0  0  0
  -24.5359  -11.0938   22.5425 C   0  0  0  0  0  0  0  0  0  0  0  0
  -29.7689  -21.5224   21.3952 C   0  0  0  0  0  0  0  0  0  0  0  0
  -24.2676  -13.2173   21.1546 C   0  0  0  0  0  0  0  0  0  0  0  0
  -25.2054  -33.7560   24.4535 C   0  0  0  0  0  0  0  0  0  0  0  0
  -26.6842  -28.2627   21.0169 C   0  0  0  0  0  0  0  0  0  0  0  0
  -25.5019  -32.3809   24.3939 C   0  0  0  0  0  0  0  0  0  0  0  0
  -26.1425  -27.0092   21.3356 C   0  0  0  0  0  0  0  0  0  0  0  0
  -29.3662  -18.8442   20.7263 C   0  0  0  0  0  0  0  0  0  0  0  0
  -23.5938   -9.0021   24.1299 C   0  0  0  0  0  0  0  0  0  0  0  0
  -28.3739  -26.1874   21.8412 C   0  0  0  0  0  0  0  0  0  0  0  0
  -21.9818   -7.3318   24.4956 C   0  0  0  0  0  0  0  0  0  0  0  0
  -19.6582   -6.0250   23.6734 C   0  0  0  0  0  0  0  0  0  0  0  0
  -22.0105   -5.9645   24.2215 C   0  0  0  0  0  0  0  0  0  0  0  0
  -25.0230  -12.1743   21.7232 C   0  0  0  0  0  0  0  0  0  0  0  0
  -25.1881  -13.9766   20.4743 C   0  0  0  0  0  0  0  0  0  0  0  0
  -29.9842  -22.9541   21.7527 C   0  0  0  0  0  0  0  0  0  0  0  0
  -22.8598  -13.4768   21.2343 C   0  0  0  0  0  0  0  0  0  0  0  0
  -24.1520  -29.5446   22.4482 C   0  0  0  0  0  0  0  0  0  0  0  0
  -22.5147  -27.7004   20.3410 C   0  0  0  0  0  0  0  0  0  0  0  0
  -22.4724  -24.9500   18.3210 C   0  0  0  0  0  0  0  0  0  0  0  0
  -30.1356  -16.5122   20.1641 C   0  0  0  0  0  0  0  0  0  0  0  0
  -23.7903  -34.2675   24.3511 C   0  0  0  0  0  0  0  0  0  0  0  0
  -25.7943  -29.3787   20.5426 C   0  0  0  0  0  0  0  0  0  0  0  0
  -24.6632  -26.7395   21.2497 C   0  0  0  0  0  0  0  0  0  0  0  0
  -22.8176  -33.2532   23.7550 C   0  0  0  0  0  0  0  0  0  0  0  0
  -30.0344  -13.0485   19.3455 C   0  0  0  0  0  0  0  0  0  0  0  0
  -23.0121  -31.8844   24.3996 C   0  0  0  0  0  0  0  0  0  0  0  0
  -28.6595  -12.5981   19.8444 C   0  0  0  0  0  0  0  0  0  0  0  0
  -30.6626  -14.0862   20.2741 C   0  0  0  0  0  0  0  0  0  0  0  0
  -28.4416  -14.7997   21.0660 C   0  0  0  0  0  0  0  0  0  0  0  0
  -24.4252  -31.3483   24.1402 C   0  0  1  0  0  0  0  0  0  0  0  0
  -24.3455  -29.2206   20.9938 C   0  0  1  0  0  0  0  0  0  0  0  0
  -27.7408  -13.8026   20.1288 C   0  0  2  0  0  0  0  0  0  0  0  0
  -20.9807  -23.6808   16.7521 C   0  0  0  0  0  0  0  0  0  0  0  0
  -20.9937  -26.5490   22.7224 C   0  0  0  0  0  0  0  0  0  0  0  0
  -20.2390  -24.6740   21.2449 C   0  0  0  0  0  0  0  0  0  0  0  0
  -19.5823  -27.0209   20.7125 C   0  0  0  0  0  0  0  0  0  0  0  0
  -24.3106  -25.3788   16.0415 C   0  0  0  0  0  0  0  0  0  0  0  0
  -28.7742  -23.8456   21.9512 C   0  0  0  0  0  0  0  0  0  1  0  0
  -21.9752  -26.2904   20.3484 C   0  0  1  0  0  0  0  0  0  0  0  0
  -22.0381  -24.7665   16.8780 C   0  0  2  0  0  0  0  0  0  0  0  0
  -20.7253  -26.1389   21.2606 C   0  0  0  0  0  0  0  0  0  0  0  0
  -26.3232  -12.2599   21.4295 N   0  0  0  0  0  0  0  0  0  0  0  0
  -26.3919  -13.3657   20.6689 N   0  0  0  0  0  0  0  0  0  0  0  0
  -23.8339  -27.8643   20.7867 N   0  0  0  0  0  0  0  0  0  0  0  0
  -29.7371  -15.1996   20.4945 N   0  0  0  0  0  0  0  0  0  0  0  0
  -25.0771  -15.1003   19.7345 N   0  0  0  0  0  0  0  0  0  0  0  0
  -22.0591  -12.5966   21.9749 N   0  0  0  0  0  0  0  0  0  0  0  0
  -29.1606  -17.4840   20.3867 N   0  0  0  0  0  0  0  0  0  0  0  0
  -24.5292  -30.8283   22.7936 N   0  0  0  0  0  0  0  0  0  0  0  0
  -21.7430  -25.9349   18.9527 N   0  0  0  0  0  0  0  0  0  0  0  0
  -23.2039  -24.3878   16.0304 N   0  3  0  0  0  0  0  0  0  0  0  0
  -31.1291  -23.3822   21.8799 O   0  0  0  0  0  0  0  0  0  0  0  0
  -22.3252  -14.4508   20.6521 O   0  0  0  0  0  0  0  0  0  0  0  0
  -23.6929  -28.6935   23.2009 O   0  0  0  0  0  0  0  0  0  0  0  0
  -21.7946  -28.6213   19.9473 O   0  0  0  0  0  0  0  0  0  0  0  0
  -23.3667  -24.2834   18.8374 O   0  0  0  0  0  0  0  0  0  0  0  0
  -31.2493  -16.7525   19.6911 O   0  0  0  0  0  0  0  0  0  0  0  0
  -23.1341   -7.9818   24.9046 O   0  0  0  0  0  0  0  0  0  0  0  0
  -29.1916  -25.1779   22.2465 O   0  0  0  0  0  0  0  0  0  1  0  0
  -18.5422   -5.3974   23.2801 F   0  0  0  0  0  0  0  0  0  0  0  0
  -23.1509   -5.2730   24.3524 F   0  0  0  0  0  0  0  0  0  0  0  0
  1  2  1  0  0  0  0
  1  7  2  0  0  0  0
  2  8  2  0  0  0  0
  3 12  2  0  0  0  0
  3 19  1  0  0  0  0
  4 13  1  0  0  0  0
  4 19  2  0  0  0  0
  5 10  2  0  0  0  0
  5 20  1  0  0  0  0
  6 11  1  0  0  0  0
  6 20  2  0  0  0  0
  7 22  1  0  0  0  0
  8 24  1  0  0  0  0
  9 14  2  0  0  0  0
  9 23  1  0  0  0  0
 10 26  1  0  0  0  0
 11 26  2  0  0  0  0
 12 27  1  0  0  0  0
 13 27  2  0  0  0  0
 14 28  1  0  0  0  0
 15 16  2  0  0  0  0
 15 29  1  0  0  0  0
 16 30  1  0  0  0  0
 17 25  1  0  0  0  0
 17 28  2  0  0  0  0
 18 30  2  0  0  0  0
 18 31  1  0  0  0  0
 19 32  1  0  0  0  0
 20 34  1  0  0  0  0
 21 32  1  0  0  0  0
 21 33  2  0  0  0  0
 21 35  1  0  0  0  0
 22 24  2  0  0  0  0
 22 40  1  0  0  0  0
 23 25  2  0  0  0  0
 23 41  1  0  0  0  0
 24 49  1  0  0  0  0
 25 42  1  0  0  0  0
 26 67  1  0  0  0  0
 27 77  1  0  0  0  0
 28 78  1  0  0  0  0
 29 31  2  0  0  0  0
 29 77  1  0  0  0  0
 30 79  1  0  0  0  0
 31 80  1  0  0  0  0
 32 61  2  0  0  0  0
 33 62  1  0  0  0  0
 33 65  1  0  0  0  0
 34 57  1  0  0  0  0
 34 71  2  0  0  0  0
 35 66  1  0  0  0  0
 35 72  2  0  0  0  0
 36 50  1  0  0  0  0
 36 68  1  0  0  0  0
 36 73  2  0  0  0  0
 37 58  1  0  0  0  0
 37 63  1  0  0  0  0
 37 74  2  0  0  0  0
 38 59  1  0  0  0  0
 38 69  1  0  0  0  0
 38 75  2  0  0  0  0
 39 64  1  0  0  0  0
 39 67  1  0  0  0  0
 39 76  2  0  0  0  0
 40 43  1  0  0  0  0
 41 50  1  0  0  0  0
 42 63  1  0  0  0  0
 43 45  1  0  0  0  0
 44 46  1  0  0  0  0
 44 47  1  0  0  0  0
 45 49  1  0  0  0  0
 46 51  1  0  0  0  0
 47 64  1  0  0  0  0
 48 51  1  0  0  0  0
 48 64  1  0  0  0  0
 49 68  1  0  0  0  0
 50 63  1  0  0  0  0
 51 62  1  0  0  0  0
 52 59  1  0  0  0  0
 53 60  1  0  0  0  0
 54 60  1  0  0  0  0
 55 60  1  0  0  0  0
 56 70  1  0  0  0  0
 57 78  1  0  0  0  0
 58 60  1  0  0  0  0
 58 69  1  0  0  0  0
 59 70  1  0  0  0  0
 61 62  1  0  0  0  0
M  CHG  1  70   1
M  ISO  4  39 100  57 101  67 100  78 101
M  END
> <Batch ID>
0130

> <Smiles>
CNC(C)C(=O)NC(C(=O)N1Cc2cc([101O:1][101CH2:1]C(=O)c3ccc([100NH:0][100C:0](=O)N4CCCC(n5nc(-c6ccc(Oc7ccc(F)cc7F)cc6)c(C(N)=O)c5N)C4)cc3)ccc2CC1C(=O)NC1CCCc2ccccc21)C(C)(C)C

> <Shape>
0.296

> <Color>
0.114

> <Negative vol penalty>
0.000

$$$$

  -OEChem-04052320473D

 90 99  0     1  0  0  0  0  0999 V2000
  -24.0905   -7.0277   23.0093 C   0  0  0  0  0  0  0  0  0  0  0  0
  -25.1712   -7.8492   23.3135 C   0  0  0  0  0  0  0  0  0  0  0  0
  -26.7447  -31.6183   22.3658 C   0  0  0  0  0  0  0  0  0  0  0  0
  -27.2212  -30.1541   24.2276 C   0  0  0  0  0  0  0  0  0  0  0  0
  -23.3340   -7.2686   21.8632 C   0  0  0  0  0  0  0  0  0  0  0  0
  -25.4968   -8.9116   22.4710 C   0  0  0  0  0  0  0  0  0  0  0  0
  -26.7779  -20.5599   16.1096 C   0  0  0  0  0  0  0  0  0  0  0  0
  -28.1943  -15.5457   22.6389 C   0  0  0  0  0  0  0  0  0  0  0  0
  -26.4287  -20.6184   17.4610 C   0  0  0  0  0  0  0  0  0  0  0  0
  -26.6243  -32.6955   23.2438 C   0  0  0  0  0  0  0  0  0  0  0  0
  -27.1009  -31.2313   25.1055 C   0  0  0  0  0  0  0  0  0  0  0  0
  -29.1929  -16.3177   22.0468 C   0  0  0  0  0  0  0  0  0  0  0  0
  -24.3089  -33.9208   25.3796 C   0  0  0  0  0  0  0  0  0  0  0  0
  -23.2270  -34.7831   25.2019 C   0  0  0  0  0  0  0  0  0  0  0  0
  -27.7667  -16.6865   20.1365 C   0  0  0  0  0  0  0  0  0  0  0  0
  -24.7518  -36.6245   24.8539 C   0  0  0  0  0  0  0  0  0  0  0  0
  -27.0431  -30.3476   22.8577 C   0  0  0  0  0  0  0  0  0  0  0  0
  -28.3358  -28.7912   21.3040 C   0  0  0  0  0  0  0  0  0  0  0  0
  -23.6445   -8.3404   21.0114 C   0  0  0  0  0  0  0  0  0  0  0  0
  -26.9764  -15.3290   21.9783 C   0  0  0  0  0  0  0  0  0  0  0  0
  -27.9762  -21.1312   15.7108 C   0  0  0  0  0  0  0  0  0  0  0  0
  -24.7445   -9.1663   21.3117 C   0  0  0  0  0  0  0  0  0  0  0  0
  -26.7532  -15.9136   20.7235 C   0  0  0  0  0  0  0  0  0  0  0  0
  -28.8102  -21.7653   16.6423 C   0  0  0  0  0  0  0  0  0  0  0  0
  -27.2665  -21.2532   18.3904 C   0  0  0  0  0  0  0  0  0  0  0  0
  -28.4658  -21.8391   17.9819 C   0  0  0  0  0  0  0  0  0  0  0  0
  -26.8025  -32.5020   24.6136 C   0  0  0  0  0  0  0  0  0  0  0  0
  -28.9803  -16.8858   20.7941 C   0  0  0  0  0  0  0  0  0  0  0  0
  -25.6123  -34.4104   25.2946 C   0  0  0  0  0  0  0  0  0  0  0  0
  -23.4485  -36.1349   24.9390 C   0  0  0  0  0  0  0  0  0  0  0  0
  -25.8338  -35.7623   25.0317 C   0  0  0  0  0  0  0  0  0  0  0  0
  -27.1669  -29.2344   21.9514 C   0  0  0  0  0  0  0  0  0  0  0  0
  -27.9278  -27.7112   20.5600 C   0  0  0  0  0  0  0  0  0  0  0  0
  -29.6710  -29.3096   21.3692 C   0  0  0  0  0  0  0  0  0  0  0  0
  -25.4435  -12.7691   20.8825 C   0  0  0  0  0  0  0  0  0  0  0  0
  -23.0864  -14.9170   20.2885 C   0  0  0  0  0  0  0  0  0  0  0  0
  -22.2027  -18.1612   19.7044 C   0  0  0  0  0  0  0  0  0  0  0  0
  -25.0281  -22.9704   20.0480 C   0  0  0  0  0  0  0  0  0  0  0  0
  -22.8267   -8.5327   19.7589 C   0  0  0  0  0  0  0  0  0  0  0  0
  -25.8992  -14.5159   22.6423 C   0  0  0  0  0  0  0  0  0  0  0  0
  -30.0182  -22.3443   15.9753 C   0  0  0  0  0  0  0  0  0  0  0  0
  -25.4557  -15.7280   19.9817 C   0  0  0  0  0  0  0  0  0  0  0  0
  -23.0088   -9.9059   19.1174 C   0  0  0  0  0  0  0  0  0  0  0  0
  -30.0297  -21.5584   14.6564 C   0  0  0  0  0  0  0  0  0  0  0  0
  -23.2836  -26.0220   19.4811 C   0  0  0  0  0  0  0  0  0  0  0  0
  -24.4890  -10.2657   19.0376 C   0  0  0  0  0  0  0  0  0  0  0  0
  -24.2318  -27.0919   20.0253 C   0  0  0  0  0  0  0  0  0  0  0  0
  -23.3260  -24.7490   20.3236 C   0  0  0  0  0  0  0  0  0  0  0  0
  -25.6213  -25.2524   21.0665 C   0  0  0  0  0  0  0  0  0  0  0  0
  -28.5561  -21.2388   14.3273 C   0  0  1  0  0  0  0  0  0  0  0  0
  -25.1140  -10.3437   20.4357 C   0  0  1  0  0  0  0  0  0  0  0  0
  -24.8931  -13.9357   21.6532 C   0  0  1  0  0  0  0  0  0  0  0  0
  -25.6551  -26.5346   20.2173 C   0  0  2  0  0  0  0  0  0  0  0  0
  -20.2067  -19.6021   19.2174 C   0  0  0  0  0  0  0  0  0  0  0  0
  -29.1873  -18.7125   11.4016 C   0  0  0  0  0  0  0  0  0  0  0  0
  -29.0939  -21.2133   11.3792 C   0  0  0  0  0  0  0  0  0  0  0  0
  -23.0610  -13.9049   17.4102 C   0  0  0  0  0  0  0  0  0  0  0  0
  -21.7838  -15.9615   16.7719 C   0  0  0  0  0  0  0  0  0  0  0  0
  -20.7983  -14.3339   18.3851 C   0  0  0  0  0  0  0  0  0  0  0  0
  -22.5988  -19.7454   22.1726 C   0  0  0  0  0  0  0  0  0  0  0  0
  -29.3612  -22.5369   18.9645 C   0  0  0  0  0  0  0  0  0  0  0  0
  -26.8455  -21.2953   19.8240 C   0  0  0  0  0  0  0  0  0  0  0  0
  -28.4164  -19.9918   13.4678 C   0  0  0  0  0  0  0  0  0  0  0  0
  -30.6010  -21.7347   19.3465 C   0  0  0  0  0  0  0  0  0  0  0  0
  -31.3521  -19.5883   20.3799 C   0  0  0  0  0  0  0  0  0  0  0  0
  -30.8296  -18.3525   21.0855 C   0  0  0  0  0  0  0  0  0  1  0  0
  -22.7172  -15.8046   19.1245 C   0  0  1  0  0  0  0  0  0  0  0  0
  -21.1094  -19.0302   20.2994 C   0  0  2  0  0  0  0  0  0  0  0  0
  -29.3510  -19.9777   12.2450 C   0  0  0  0  0  0  0  0  0  0  0  0
  -22.1154  -15.0033   17.9358 C   0  0  0  0  0  0  0  0  0  0  0  0
  -26.0966  -28.4962   21.6455 N   0  0  0  0  0  0  0  0  0  0  0  0
  -26.5914  -27.5784   20.7976 N   0  0  0  0  0  0  0  0  0  0  0  0
  -24.4356  -14.9194   20.6697 N   0  0  0  0  0  0  0  0  0  0  0  0
  -24.7035  -24.2716   20.4660 N   0  0  0  0  0  0  0  0  0  0  0  0
  -28.5855  -26.8716   19.7323 N   0  0  0  0  0  0  0  0  0  0  0  0
  -29.9159  -30.4245   22.1824 N   0  0  0  0  0  0  0  0  0  0  0  0
  -24.7543  -11.5880   21.0813 N   0  0  0  0  0  0  0  0  0  0  0  0
  -21.8327  -16.8336   19.6603 N   0  0  0  0  0  0  0  0  0  0  0  0
  -26.3571  -22.5997   20.2124 N   0  0  0  0  0  0  0  0  0  0  0  0
  -21.7058  -20.1636   21.0615 N   0  3  0  0  0  0  0  0  0  0  0  0
  -30.2107  -20.4679   20.0224 N   0  3  0  0  0  0  0  0  0  0  0  0
  -30.6156  -28.8092   20.7128 O   0  0  0  0  0  0  0  0  0  0  0  0
  -26.4201  -12.9291   20.1598 O   0  0  0  0  0  0  0  0  0  0  0  0
  -22.2085  -14.2516   20.8438 O   0  0  0  0  0  0  0  0  0  0  0  0
  -23.2760  -18.6152   19.3140 O   0  0  0  0  0  0  0  0  0  0  0  0
  -24.1963  -22.1983   19.5592 O   0  0  0  0  0  0  0  0  0  0  0  0
  -26.6854  -33.5530   25.4706 O   0  0  0  0  0  0  0  0  0  0  0  0
  -29.9536  -17.6392   20.2136 O   0  0  0  0  0  0  0  0  0  1  0  0
  -22.4094  -36.9625   24.7668 F   0  0  0  0  0  0  0  0  0  0  0  0
  -27.0836  -36.2382   24.9477 F   0  0  0  0  0  0  0  0  0  0  0  0
  1  2  1  0  0  0  0
  1  5  2  0  0  0  0
  2  6  2  0  0  0  0
  3 10  2  0  0  0  0
  3 17  1  0  0  0  0
  4 11  1  0  0  0  0
  4 17  2  0  0  0  0
  5 19  1  0  0  0  0
  6 22  1  0  0  0  0
  7  9  1  0  0  0  0
  7 21  2  0  0  0  0
  8 12  2  0  0  0  0
  8 20  1  0  0  0  0
  9 25  2  0  0  0  0
 10 27  1  0  0  0  0
 11 27  2  0  0  0  0
 12 28  1  0  0  0  0
 13 14  2  0  0  0  0
 13 29  1  0  0  0  0
 14 30  1  0  0  0  0
 15 23  1  0  0  0  0
 15 28  2  0  0  0  0
 16 30  2  0  0  0  0
 16 31  1  0  0  0  0
 17 32  1  0  0  0  0
 18 32  1  0  0  0  0
 18 33  2  0  0  0  0
 18 34  1  0  0  0  0
 19 22  2  0  0  0  0
 19 39  1  0  0  0  0
 20 23  2  0  0  0  0
 20 40  1  0  0  0  0
 21 24  1  0  0  0  0
 21 50  1  0  0  0  0
 22 51  1  0  0  0  0
 23 42  1  0  0  0  0
 24 26  2  0  0  0  0
 24 41  1  0  0  0  0
 25 26  1  0  0  0  0
 25 62  1  0  0  0  0
 26 61  1  0  0  0  0
 27 87  1  0  0  0  0
 28 88  1  0  0  0  0
 29 31  2  0  0  0  0
 29 87  1  0  0  0  0
 30 89  1  0  0  0  0
 31 90  1  0  0  0  0
 32 71  2  0  0  0  0
 33 72  1  0  0  0  0
 33 75  1  0  0  0  0
 34 76  1  0  0  0  0
 34 82  2  0  0  0  0
 35 52  1  0  0  0  0
 35 77  1  0  0  0  0
 35 83  2  0  0  0  0
 36 67  1  0  0  0  0
 36 73  1  0  0  0  0
 36 84  2  0  0  0  0
 37 68  1  0  0  0  0
 37 78  1  0  0  0  0
 37 85  2  0  0  0  0
 38 74  1  0  0  0  0
 38 79  1  0  0  0  0
 38 86  2  0  0  0  0
 39 43  1  0  0  0  0
 40 52  1  0  0  0  0
 41 44  1  0  0  0  0
 42 73  1  0  0  0  0
 43 46  1  0  0  0  0
 44 50  1  0  0  0  0
 45 47  1  0  0  0  0
 45 48  1  0  0  0  0
 46 51  1  0  0  0  0
 47 53  1  0  0  0  0
 48 74  1  0  0  0  0
 49 53  1  0  0  0  0
 49 74  1  0  0  0  0
 50 63  1  0  0  0  0
 51 77  1  0  0  0  0
 52 73  1  0  0  0  0
 53 72  1  0  0  0  0
 54 68  1  0  0  0  0
 55 69  1  0  0  0  0
 56 69  1  0  0  0  0
 57 70  1  0  0  0  0
 58 70  1  0  0  0  0
 59 70  1  0  0  0  0
 60 80  1  0  0  0  0
 61 64  1  0  0  0  0
 62 79  1  0  0  0  0
 63 69  1  0  0  0  0
 64 81  1  0  0  0  0
 65 66  1  0  0  0  0
 65 81  1  0  0  0  0
 66 88  1  0  0  0  0
 67 70  1  0  0  0  0
 67 78  1  0  0  0  0
 68 80  1  0  0  0  0
 71 72  1  0  0  0  0
M  CHG  2  80   1  81   1
M  ISO  4  38 100  66 101  79 100  88 101
M  END
> <Batch ID>
0130

> <Smiles>
CNC(C)C(=O)NC(C(=O)N1Cc2cc([101O:1][101CH2:1]CNCCc3c(C[100NH:0][100C:0](=O)N4CCCC(n5nc(-c6ccc(Oc7ccc(F)cc7F)cc6)c(C(N)=O)c5N)C4)ccc4c3CCC4CC(C)C)ccc2CC1C(=O)NC1CCCc2ccccc21)C(C)(C)C

> <Shape>
0.232

> <Color>
0.053

> <Negative vol penalty>
0.000

$$$$

  -OEChem-04052320473D

 87 96  0     1  0  0  0  0  0999 V2000
  -28.0604  -36.8466   23.8199 C   0  0  0  0  0  0  0  0  0  0  0  0
  -28.2006  -35.4713   23.9762 C   0  0  0  0  0  0  0  0  0  0  0  0
  -23.4624  -10.1388   22.3149 C   0  0  0  0  0  0  0  0  0  0  0  0
  -22.4760  -10.2253   20.1111 C   0  0  0  0  0  0  0  0  0  0  0  0
  -26.7892  -37.4087   23.7111 C   0  0  0  0  0  0  0  0  0  0  0  0
  -27.0694  -34.6574   24.0248 C   0  0  0  0  0  0  0  0  0  0  0  0
  -25.4074  -22.3866   19.8675 C   0  0  0  0  0  0  0  0  0  0  0  0
  -27.5510  -30.4900   21.1883 C   0  0  0  0  0  0  0  0  0  0  0  0
  -24.2774  -21.7545   19.3488 C   0  0  0  0  0  0  0  0  0  0  0  0
  -23.0411   -8.8162   22.4516 C   0  0  0  0  0  0  0  0  0  0  0  0
  -22.0547   -8.9026   20.2479 C   0  0  0  0  0  0  0  0  0  0  0  0
  -28.3145  -29.4479   21.7124 C   0  0  0  0  0  0  0  0  0  0  0  0
  -20.1759   -7.1779   23.1803 C   0  0  0  0  0  0  0  0  0  0  0  0
  -19.5836   -6.8087   24.3880 C   0  0  0  0  0  0  0  0  0  0  0  0
  -26.2941  -28.3118   22.3807 C   0  0  0  0  0  0  0  0  0  0  0  0
  -25.6734  -20.0041   18.4408 C   0  0  0  0  0  0  0  0  0  0  0  0
  -21.3173   -5.1623   24.7350 C   0  0  0  0  0  0  0  0  0  0  0  0
  -23.1798  -10.8434   21.1447 C   0  0  0  0  0  0  0  0  0  0  0  0
  -24.8374  -12.6625   20.4731 C   0  0  0  0  0  0  0  0  0  0  0  0
  -25.6422  -36.6002   23.7488 C   0  0  0  0  0  0  0  0  0  0  0  0
  -26.1513  -30.4560   21.2664 C   0  0  0  0  0  0  0  0  0  0  0  0
  -25.7815  -35.2094   23.9178 C   0  0  0  0  0  0  0  0  0  0  0  0
  -26.6704  -21.8276   19.6728 C   0  0  0  0  0  0  0  0  0  0  0  0
  -25.5150  -29.3536   21.8546 C   0  0  0  0  0  0  0  0  0  0  0  0
  -24.4104  -20.5632   18.6354 C   0  0  0  0  0  0  0  0  0  0  0  0
  -26.8034  -20.6363   18.9595 C   0  0  0  0  0  0  0  0  0  0  0  0
  -22.3373   -8.1980   21.4181 C   0  0  0  0  0  0  0  0  0  0  0  0
  -27.6862  -28.3599   22.3113 C   0  0  0  0  0  0  0  0  0  0  0  0
  -21.3389   -6.5392   22.7499 C   0  0  0  0  0  0  0  0  0  0  0  0
  -20.1543   -5.8010   25.1654 C   0  0  0  0  0  0  0  0  0  0  0  0
  -21.9096   -5.5314   23.5273 C   0  0  0  0  0  0  0  0  0  0  0  0
  -23.6143  -12.2099   21.0030 C   0  0  0  0  0  0  0  0  0  0  0  0
  -24.7634  -14.0312   20.5590 C   0  0  0  0  0  0  0  0  0  0  0  0
  -25.9418  -11.9126   19.9498 C   0  0  0  0  0  0  0  0  0  0  0  0
  -23.9369  -32.2706   22.6475 C   0  0  0  0  0  0  0  0  0  0  0  0
  -21.8975  -30.3091   21.0614 C   0  0  0  0  0  0  0  0  0  0  0  0
  -21.3471  -27.2786   19.5917 C   0  0  0  0  0  0  0  0  0  0  0  0
  -21.9388  -18.8019   19.9203 C   0  0  0  0  0  0  0  0  0  0  0  0
  -24.2873  -37.2585   23.6747 C   0  0  0  0  0  0  0  0  0  0  0  0
  -25.3411  -31.5755   20.6724 C   0  0  0  0  0  0  0  0  0  0  0  0
  -24.0146  -29.2594   21.9455 C   0  0  0  0  0  0  0  0  0  0  0  0
  -23.1538  -36.2857   23.3597 C   0  0  0  0  0  0  0  0  0  0  0  0
  -21.4457  -17.0050   22.9542 C   0  0  0  0  0  0  0  0  0  0  0  0
  -23.2674  -35.0352   24.2257 C   0  0  0  0  0  0  0  0  0  0  0  0
  -22.0610  -15.6334   22.6710 C   0  0  0  0  0  0  0  0  0  0  0  0
  -28.0067  -23.9250   19.6239 C   0  0  0  0  0  0  0  0  0  0  0  0
  -27.7559  -22.6122   21.7688 C   0  0  0  0  0  0  0  0  0  0  0  0
  -20.7542  -17.5790   21.7196 C   0  0  0  0  0  0  0  0  0  0  0  0
  -22.2108  -16.2665   20.2265 C   0  0  0  0  0  0  0  0  0  0  0  0
  -29.1696  -24.6918   20.2406 C   0  0  0  0  0  0  0  0  0  0  0  0
  -28.9210  -23.3888   22.3689 C   0  0  0  0  0  0  0  0  0  0  0  0
  -27.8668  -22.5228   20.2382 C   0  0  0  0  0  0  0  0  0  0  0  0
  -24.5794  -34.2907   23.9503 C   0  0  1  0  0  0  0  0  0  0  0  0
  -23.9397  -31.6792   21.2663 C   0  0  1  0  0  0  0  0  0  0  0  0
  -22.9679  -15.6718   21.4263 C   0  0  2  0  0  0  0  0  0  0  0  0
  -28.1455  -20.0193   18.7380 C   0  0  0  0  0  0  0  0  0  0  0  0
  -19.5703  -25.9537   18.4148 C   0  0  0  0  0  0  0  0  0  0  0  0
  -20.5223  -29.7839   23.7340 C   0  0  0  0  0  0  0  0  0  0  0  0
  -19.4188  -27.7910   22.6953 C   0  0  0  0  0  0  0  0  0  0  0  0
  -18.9651  -30.0742   21.7987 C   0  0  0  0  0  0  0  0  0  0  0  0
  -22.9692  -27.0757   17.1246 C   0  0  0  0  0  0  0  0  0  0  0  0
  -23.2023  -19.8876   18.0806 C   0  0  0  0  0  0  0  0  0  0  0  0
  -30.0438  -25.6145   22.3852 C   0  0  0  0  0  0  0  0  0  0  0  0
  -29.6849  -27.0758   22.2007 C   0  0  0  0  0  0  0  0  0  1  0  0
  -21.2138  -28.9998   21.3733 C   0  0  1  0  0  0  0  0  0  0  0  0
  -20.7455  -26.9047   18.2491 C   0  0  2  0  0  0  0  0  0  0  0  0
  -20.0583  -29.1646   22.4005 C   0  0  0  0  0  0  0  0  0  0  0  0
  -22.8213  -13.2100   21.3967 N   0  0  0  0  0  0  0  0  0  0  0  0
  -23.5478  -14.3047   21.1139 N   0  0  0  0  0  0  0  0  0  0  0  0
  -23.2664  -30.3819   21.3559 N   0  0  0  0  0  0  0  0  0  0  0  0
  -21.6686  -17.5891   20.5752 N   0  0  0  0  0  0  0  0  0  0  0  0
  -25.6201  -15.0156   20.2133 N   0  0  0  0  0  0  0  0  0  0  0  0
  -25.8528  -10.5139   19.9356 N   0  0  0  0  0  0  0  0  0  0  0  0
  -24.4841  -33.5375   22.7182 N   0  0  0  0  0  0  0  0  0  0  0  0
  -20.7984  -28.4407   20.0914 N   0  0  0  0  0  0  0  0  0  0  0  0
  -22.8211  -18.7239   18.8497 N   0  0  0  0  0  0  0  0  0  0  0  0
  -29.0030  -24.7699   21.7465 N   0  3  0  0  0  0  0  0  0  0  0  0
  -21.7676  -26.2433   17.3896 N   0  3  0  0  0  0  0  0  0  0  0  0
  -26.9836  -12.4658   19.5231 O   0  0  0  0  0  0  0  0  0  0  0  0
  -23.4714  -31.6258   23.5799 O   0  0  0  0  0  0  0  0  0  0  0  0
  -21.2429  -31.2307   20.5679 O   0  0  0  0  0  0  0  0  0  0  0  0
  -22.2142  -26.6050   20.1439 O   0  0  0  0  0  0  0  0  0  0  0  0
  -21.4355  -19.8758   20.2675 O   0  0  0  0  0  0  0  0  0  0  0  0
  -21.9262   -6.9073   21.5511 O   0  0  0  0  0  0  0  0  0  0  0  0
  -28.4291  -27.3416   22.8242 O   0  0  0  0  0  0  0  0  0  1  0  0
  -19.5862   -5.4477   26.3258 F   0  0  0  0  0  0  0  0  0  0  0  0
  -23.0275   -4.9150   23.1197 F   0  0  0  0  0  0  0  0  0  0  0  0
  1  2  1  0  0  0  0
  1  5  2  0  0  0  0
  2  6  2  0  0  0  0
  3 10  2  0  0  0  0
  3 18  1  0  0  0  0
  4 11  1  0  0  0  0
  4 18  2  0  0  0  0
  5 20  1  0  0  0  0
  6 22  1  0  0  0  0
  7  9  2  0  0  0  0
  7 23  1  0  0  0  0
  8 12  2  0  0  0  0
  8 21  1  0  0  0  0
  9 25  1  0  0  0  0
 10 27  1  0  0  0  0
 11 27  2  0  0  0  0
 12 28  1  0  0  0  0
 13 14  2  0  0  0  0
 13 29  1  0  0  0  0
 14 30  1  0  0  0  0
 15 24  1  0  0  0  0
 15 28  2  0  0  0  0
 16 25  2  0  0  0  0
 16 26  1  0  0  0  0
 17 30  2  0  0  0  0
 17 31  1  0  0  0  0
 18 32  1  0  0  0  0
 19 32  1  0  0  0  0
 19 33  2  0  0  0  0
 19 34  1  0  0  0  0
 20 22  2  0  0  0  0
 20 39  1  0  0  0  0
 21 24  2  0  0  0  0
 21 40  1  0  0  0  0
 22 53  1  0  0  0  0
 23 26  2  0  0  0  0
 23 52  1  0  0  0  0
 24 41  1  0  0  0  0
 25 62  1  0  0  0  0
 26 56  1  0  0  0  0
 27 84  1  0  0  0  0
 28 85  1  0  0  0  0
 29 31  2  0  0  0  0
 29 84  1  0  0  0  0
 30 86  1  0  0  0  0
 31 87  1  0  0  0  0
 32 68  2  0  0  0  0
 33 69  1  0  0  0  0
 33 72  1  0  0  0  0
 34 73  1  0  0  0  0
 34 79  2  0  0  0  0
 35 54  1  0  0  0  0
 35 74  1  0  0  0  0
 35 80  2  0  0  0  0
 36 65  1  0  0  0  0
 36 70  1  0  0  0  0
 36 81  2  0  0  0  0
 37 66  1  0  0  0  0
 37 75  1  0  0  0  0
 37 82  2  0  0  0  0
 38 71  1  0  0  0  0
 38 76  1  0  0  0  0
 38 83  2  0  0  0  0
 39 42  1  0  0  0  0
 40 54  1  0  0  0  0
 41 70  1  0  0  0  0
 42 44  1  0  0  0  0
 43 45  1  0  0  0  0
 43 48  1  0  0  0  0
 44 53  1  0  0  0  0
 45 55  1  0  0  0  0
 46 50  1  0  0  0  0
 46 52  1  0  0  0  0
 47 51  1  0  0  0  0
 47 52  1  0  0  0  0
 48 71  1  0  0  0  0
 49 55  1  0  0  0  0
 49 71  1  0  0  0  0
 50 77  1  0  0  0  0
 51 77  1  0  0  0  0
 53 74  1  0  0  0  0
 54 70  1  0  0  0  0
 55 69  1  0  0  0  0
 57 66  1  0  0  0  0
 58 67  1  0  0  0  0
 59 67  1  0  0  0  0
 60 67  1  0  0  0  0
 61 78  1  0  0  0  0
 62 76  1  0  0  0  0
 63 64  1  0  0  0  0
 63 77  1  0  0  0  0
 64 85  1  0  0  0  0
 65 67  1  0  0  0  0
 65 75  1  0  0  0  0
 66 78  1  0  0  0  0
 68 69  1  0  0  0  0
M  CHG  2  77   1  78   1
M  ISO  4  38 100  64 101  76 100  85 101
M  END
> <Batch ID>
0130

> <Smiles>
CNC(C)C(=O)NC(C(=O)N1Cc2cc([101O:1][101CH2:1]CN3CCC(c4ccc(C[100NH:0][100C:0](=O)N5CCCC(n6nc(-c7ccc(Oc8ccc(F)cc8F)cc7)c(C(N)=O)c6N)C5)cc4C)CC3)ccc2CC1C(=O)NC1CCCc2ccccc21)C(C)(C)C

> <Shape>
0.290

> <Color>
0.105

> <Negative vol penalty>
0.000

$$$$

  -OEChem-04052320473D

 83 91  0     1  0  0  0  0  0999 V2000
  -19.4624  -28.9230   23.5160 C   0  0  0  0  0  0  0  0  0  0  0  0
  -20.7443  -28.4266   23.3024 C   0  0  0  0  0  0  0  0  0  0  0  0
  -25.9292  -14.9479   21.7278 C   0  0  0  0  0  0  0  0  0  0  0  0
  -25.7140  -15.7215   19.4491 C   0  0  0  0  0  0  0  0  0  0  0  0
  -18.3814  -28.3799   22.8228 C   0  0  0  0  0  0  0  0  0  0  0  0
  -20.9459  -27.3860   22.3963 C   0  0  0  0  0  0  0  0  0  0  0  0
  -24.9299  -28.1858   19.3743 C   0  0  0  0  0  0  0  0  0  0  0  0
  -30.2580  -23.0507   15.6450 C   0  0  0  0  0  0  0  0  0  0  0  0
  -24.5892  -14.5605   21.7228 C   0  0  0  0  0  0  0  0  0  0  0  0
  -24.3741  -15.3340   19.4441 C   0  0  0  0  0  0  0  0  0  0  0  0
  -26.1945  -27.9523   19.9127 C   0  0  0  0  0  0  0  0  0  0  0  0
  -21.3214  -13.0375   22.1888 C   0  0  0  0  0  0  0  0  0  0  0  0
  -21.0058  -11.7875   22.7213 C   0  0  0  0  0  0  0  0  0  0  0  0
  -30.0143  -22.2202   16.7332 C   0  0  0  0  0  0  0  0  0  0  0  0
  -26.2597  -25.8061   18.8132 C   0  0  0  0  0  0  0  0  0  0  0  0
  -22.4300  -10.7294   21.0814 C   0  0  0  0  0  0  0  0  0  0  0  0
  -26.4916  -15.5285   20.5910 C   0  0  0  0  0  0  0  0  0  0  0  0
  -28.9877  -15.1499   20.2258 C   0  0  0  0  0  0  0  0  0  0  0  0
  -18.5711  -27.3386   21.9006 C   0  0  0  0  0  0  0  0  0  0  0  0
  -24.3150  -27.2249   18.5587 C   0  0  0  0  0  0  0  0  0  0  0  0
  -19.8662  -26.8276   21.6912 C   0  0  0  0  0  0  0  0  0  0  0  0
  -24.9883  -26.0309   18.2636 C   0  0  0  0  0  0  0  0  0  0  0  0
  -30.9932  -24.2179   15.8194 C   0  0  0  0  0  0  0  0  0  0  0  0
  -23.8117  -14.7535   20.5809 C   0  0  0  0  0  0  0  0  0  0  0  0
  -26.8584  -26.7611   19.6346 C   0  0  0  0  0  0  0  0  0  0  0  0
  -22.1913  -13.1335   21.1026 C   0  0  0  0  0  0  0  0  0  0  0  0
  -21.5601  -10.6335   22.1676 C   0  0  0  0  0  0  0  0  0  0  0  0
  -22.7455  -11.9794   20.5489 C   0  0  0  0  0  0  0  0  0  0  0  0
  -27.8755  -15.9296   20.5957 C   0  0  0  0  0  0  0  0  0  0  0  0
  -31.4587  -24.5072   17.0919 C   0  0  0  0  0  0  0  0  0  0  0  0
  -30.5238  -22.5987   17.9648 C   0  0  0  0  0  0  0  0  0  0  0  0
  -30.0655  -15.9821   20.4057 C   0  0  0  0  0  0  0  0  0  0  0  0
  -29.0419  -13.7946   19.7611 C   0  0  0  0  0  0  0  0  0  0  0  0
  -21.6556  -25.4940   18.7462 C   0  0  0  0  0  0  0  0  0  0  0  0
  -22.4947  -24.5926   15.7453 C   0  0  0  0  0  0  0  0  0  0  0  0
  -24.9648  -24.1918   13.4247 C   0  0  0  0  0  0  0  0  0  0  0  0
  -30.6815  -21.9256   20.3872 C   0  0  0  0  0  0  0  0  0  0  0  0
  -17.3655  -26.7518   21.2101 C   0  0  0  0  0  0  0  0  0  0  0  0
  -22.9618  -27.5034   17.9639 C   0  0  0  0  0  0  0  0  0  0  0  0
  -24.3803  -24.9759   17.3773 C   0  0  0  0  0  0  0  0  0  0  0  0
  -17.7152  -25.9036   19.9900 C   0  0  0  0  0  0  0  0  0  0  0  0
  -31.5226  -19.7059   23.0410 C   0  0  0  0  0  0  0  0  0  0  0  0
  -18.8585  -24.9474   20.3145 C   0  0  0  0  0  0  0  0  0  0  0  0
  -30.7889  -18.4127   22.6783 C   0  0  0  0  0  0  0  0  0  0  0  0
  -30.7077  -20.9435   22.6698 C   0  0  0  0  0  0  0  0  0  0  0  0
  -29.5134  -19.6953   20.9134 C   0  0  0  0  0  0  0  0  0  0  0  0
  -20.1286  -25.7162   20.6981 C   0  0  1  0  0  0  0  0  0  0  0  0
  -22.2125  -26.2361   17.5643 C   0  0  1  0  0  0  0  0  0  0  0  0
  -30.3230  -18.4222   21.2091 C   0  0  2  0  0  0  0  0  0  0  0  0
  -31.2568  -25.1129   14.6584 C   0  0  0  0  0  0  0  0  0  0  0  0
  -25.3503  -23.3998   11.0749 C   0  0  0  0  0  0  0  0  0  0  0  0
  -22.2697  -21.6989   16.6863 C   0  0  0  0  0  0  0  0  0  0  0  0
  -23.5548  -21.0103   14.6509 C   0  0  0  0  0  0  0  0  0  0  0  0
  -21.3390  -22.1295   14.4053 C   0  0  0  0  0  0  0  0  0  0  0  0
  -25.9450  -26.8491   12.5664 C   0  0  0  0  0  0  0  0  0  0  0  0
  -32.2569  -25.7546   17.3388 C   0  0  0  0  0  0  0  0  0  0  0  0
  -32.0784  -26.3340   18.7385 C   0  0  0  0  0  0  0  0  0  0  0  0
  -30.3778  -27.2626   20.3148 C   0  0  0  0  0  0  0  0  0  0  0  0
  -28.9196  -27.6683   20.3989 C   0  0  0  0  0  0  0  0  0  1  0  0
  -23.3359  -23.4855   15.1575 C   0  0  1  0  0  0  0  0  0  0  0  0
  -25.0499  -24.5964   11.9641 C   0  0  2  0  0  0  0  0  0  0  0  0
  -22.6358  -22.0999   15.2433 C   0  0  0  0  0  0  0  0  0  0  0  0
  -28.2153  -17.1623   20.9816 N   0  0  0  0  0  0  0  0  0  0  0  0
  -31.2422  -23.7249   18.1730 N   0  0  0  0  0  0  0  0  0  0  0  0
  -29.5533  -17.1635   20.8553 N   0  0  0  0  0  0  0  0  0  0  0  0
  -23.0528  -25.2921   16.8247 N   0  0  0  0  0  0  0  0  0  0  0  0
  -30.3048  -20.8854   21.2629 N   0  0  0  0  0  0  0  0  0  0  0  0
  -31.3919  -15.8112   20.2217 N   0  0  0  0  0  0  0  0  0  0  0  0
  -27.8408  -13.0835   19.6338 N   0  0  0  0  0  0  0  0  0  0  0  0
  -30.2698  -21.7455   19.0672 N   0  0  0  0  0  0  0  0  0  0  0  0
  -20.7807  -26.2370   19.5157 N   0  0  0  0  0  0  0  0  0  0  0  0
  -23.6698  -23.9032   13.8001 N   0  0  0  0  0  0  0  0  0  0  0  0
  -26.1259  -25.6089   11.7689 N   0  3  0  0  0  0  0  0  0  0  0  0
  -30.6634  -26.7401   18.9547 N   0  3  0  0  0  0  0  0  0  0  0  0
  -30.1246  -13.2256   19.4830 O   0  0  0  0  0  0  0  0  0  0  0  0
  -21.9934  -24.3329   18.9445 O   0  0  0  0  0  0  0  0  0  0  0  0
  -21.3865  -24.8329   15.2599 O   0  0  0  0  0  0  0  0  0  0  0  0
  -25.9492  -24.1337   14.1583 O   0  0  0  0  0  0  0  0  0  0  0  0
  -31.3456  -22.8908   20.7738 O   0  0  0  0  0  0  0  0  0  0  0  0
  -22.5042  -14.3753   20.5756 O   0  0  0  0  0  0  0  0  0  0  0  0
  -28.0926  -26.5303   20.1593 O   0  0  0  0  0  0  0  0  0  1  0  0
  -21.2582   -9.4333   22.6800 F   0  0  0  0  0  0  0  0  0  0  0  0
  -23.5827  -12.0654   19.5061 F   0  0  0  0  0  0  0  0  0  0  0  0
  1  2  1  0  0  0  0
  1  5  2  0  0  0  0
  2  6  2  0  0  0  0
  3  9  2  0  0  0  0
  3 17  1  0  0  0  0
  4 10  1  0  0  0  0
  4 17  2  0  0  0  0
  5 19  1  0  0  0  0
  6 21  1  0  0  0  0
  7 11  2  0  0  0  0
  7 20  1  0  0  0  0
  8 14  2  0  0  0  0
  8 23  1  0  0  0  0
  9 24  1  0  0  0  0
 10 24  2  0  0  0  0
 11 25  1  0  0  0  0
 12 13  2  0  0  0  0
 12 26  1  0  0  0  0
 13 27  1  0  0  0  0
 14 31  1  0  0  0  0
 15 22  1  0  0  0  0
 15 25  2  0  0  0  0
 16 27  2  0  0  0  0
 16 28  1  0  0  0  0
 17 29  1  0  0  0  0
 18 29  1  0  0  0  0
 18 32  2  0  0  0  0
 18 33  1  0  0  0  0
 19 21  2  0  0  0  0
 19 38  1  0  0  0  0
 20 22  2  0  0  0  0
 20 39  1  0  0  0  0
 21 47  1  0  0  0  0
 22 40  1  0  0  0  0
 23 30  2  0  0  0  0
 23 50  1  0  0  0  0
 24 80  1  0  0  0  0
 25 81  1  0  0  0  0
 26 28  2  0  0  0  0
 26 80  1  0  0  0  0
 27 82  1  0  0  0  0
 28 83  1  0  0  0  0
 29 63  2  0  0  0  0
 30 56  1  0  0  0  0
 30 64  1  0  0  0  0
 31 64  2  0  0  0  0
 31 70  1  0  0  0  0
 32 65  1  0  0  0  0
 32 68  1  0  0  0  0
 33 69  1  0  0  0  0
 33 75  2  0  0  0  0
 34 48  1  0  0  0  0
 34 71  1  0  0  0  0
 34 76  2  0  0  0  0
 35 60  1  0  0  0  0
 35 66  1  0  0  0  0
 35 77  2  0  0  0  0
 36 61  1  0  0  0  0
 36 72  1  0  0  0  0
 36 78  2  0  0  0  0
 37 67  1  0  0  0  0
 37 70  1  0  0  0  0
 37 79  2  0  0  0  0
 38 41  1  0  0  0  0
 39 48  1  0  0  0  0
 40 66  1  0  0  0  0
 41 43  1  0  0  0  0
 42 44  1  0  0  0  0
 42 45  1  0  0  0  0
 43 47  1  0  0  0  0
 44 49  1  0  0  0  0
 45 67  1  0  0  0  0
 46 49  1  0  0  0  0
 46 67  1  0  0  0  0
 47 71  1  0  0  0  0
 48 66  1  0  0  0  0
 49 65  1  0  0  0  0
 51 61  1  0  0  0  0
 52 62  1  0  0  0  0
 53 62  1  0  0  0  0
 54 62  1  0  0  0  0
 55 73  1  0  0  0  0
 56 57  1  0  0  0  0
 57 74  1  0  0  0  0
 58 59  1  0  0  0  0
 58 74  1  0  0  0  0
 59 81  1  0  0  0  0
 60 62  1  0  0  0  0
 60 72  1  0  0  0  0
 61 73  1  0  0  0  0
 63 65  1  0  0  0  0
M  CHG  2  73   1  74   1
M  ISO  4  37 100  59 101  70 100  81 101
M  END
> <Batch ID>
0130

> <Smiles>
CNC(C)C(=O)NC(C(=O)N1Cc2cc([101O:1][101CH2:1]CNCCc3nc([100NH:0][100C:0](=O)N4CCCC(n5nc(-c6ccc(Oc7ccc(F)cc7F)cc6)c(C(N)=O)c5N)C4)ccc3C)ccc2CC1C(=O)NC1CCCc2ccccc21)C(C)(C)C

> <Shape>
0.246

> <Color>
0.055

> <Negative vol penalty>
0.000

$$$$

  -OEChem-04052320473D

 86 95  0     1  0  0  0  0  0999 V2000
  -24.2009  -30.8011   20.5363 C   0  0  0  0  0  0  0  0  0  0  0  0
  -23.3997  -29.6716   20.4027 C   0  0  0  0  0  0  0  0  0  0  0  0
  -30.2930  -19.9579   20.3368 C   0  0  0  0  0  0  0  0  0  0  0  0
  -27.9504  -19.4524   20.0306 C   0  0  0  0  0  0  0  0  0  0  0  0
  -25.5739  -30.6610   20.7339 C   0  0  0  0  0  0  0  0  0  0  0  0
  -23.9714  -28.4013   20.4657 C   0  0  0  0  0  0  0  0  0  0  0  0
  -22.5180  -21.7258   22.6201 C   0  0  0  0  0  0  0  0  0  0  0  0
  -23.3430  -16.1915   19.5573 C   0  0  0  0  0  0  0  0  0  0  0  0
  -23.5469  -14.8740   19.1472 C   0  0  0  0  0  0  0  0  0  0  0  0
  -30.0873  -21.2320   19.8078 C   0  0  0  0  0  0  0  0  0  0  0  0
  -27.7446  -20.7266   19.5017 C   0  0  0  0  0  0  0  0  0  0  0  0
  -22.5318  -20.4143   22.1472 C   0  0  0  0  0  0  0  0  0  0  0  0
  -30.2484  -24.4919   18.2045 C   0  0  0  0  0  0  0  0  0  0  0  0
  -31.1695  -24.9642   17.2696 C   0  0  0  0  0  0  0  0  0  0  0  0
  -24.9034  -20.2927   22.5714 C   0  0  0  0  0  0  0  0  0  0  0  0
  -22.2977  -15.3983   21.5860 C   0  0  0  0  0  0  0  0  0  0  0  0
  -30.6468  -23.1063   15.8163 C   0  0  0  0  0  0  0  0  0  0  0  0
  -29.2246  -19.0680   20.4481 C   0  0  0  0  0  0  0  0  0  0  0  0
  -29.9165  -17.4307   22.2780 C   0  0  0  0  0  0  0  0  0  0  0  0
  -26.1613  -29.3882   20.8090 C   0  0  0  0  0  0  0  0  0  0  0  0
  -23.7008  -22.3352   23.0628 C   0  0  0  0  0  0  0  0  0  0  0  0
  -25.3537  -28.2440   20.6632 C   0  0  0  0  0  0  0  0  0  0  0  0
  -24.9015  -21.6111   23.0519 C   0  0  0  0  0  0  0  0  0  0  0  0
  -22.7184  -16.4537   20.7767 C   0  0  0  0  0  0  0  0  0  0  0  0
  -23.1261  -13.8186   19.9565 C   0  0  0  0  0  0  0  0  0  0  0  0
  -22.5015  -14.0808   21.1759 C   0  0  0  0  0  0  0  0  0  0  0  0
  -28.8131  -21.6164   19.3903 C   0  0  0  0  0  0  0  0  0  0  0  0
  -23.7252  -19.6985   22.1200 C   0  0  0  0  0  0  0  0  0  0  0  0
  -29.5265  -23.3268   17.9454 C   0  0  0  0  0  0  0  0  0  0  0  0
  -31.3687  -24.2714   16.0754 C   0  0  0  0  0  0  0  0  0  0  0  0
  -29.7257  -22.6340   16.7513 C   0  0  0  0  0  0  0  0  0  0  0  0
  -29.4367  -17.7515   20.9940 C   0  0  0  0  0  0  0  0  0  0  0  0
  -29.9355  -16.0576   22.3043 C   0  0  0  0  0  0  0  0  0  0  0  0
  -30.3097  -18.2965   23.3510 C   0  0  0  0  0  0  0  0  0  0  0  0
  -21.4358  -13.1252   23.2436 C   0  0  0  0  0  0  0  0  0  0  0  0
  -25.4000  -24.8617   22.1499 C   0  0  0  0  0  0  0  0  0  0  0  0
  -27.1183  -24.1808   24.8156 C   0  0  0  0  0  0  0  0  0  0  0  0
  -28.0936  -21.8597   27.1196 C   0  0  0  0  0  0  0  0  0  0  0  0
  -26.8749  -11.8791   19.3003 C   0  0  0  0  0  0  0  0  0  0  0  0
  -27.6567  -29.2875   20.9766 C   0  0  0  0  0  0  0  0  0  0  0  0
  -23.6642  -23.7416   23.5950 C   0  0  0  0  0  0  0  0  0  0  0  0
  -26.1949  -22.2129   23.5350 C   0  0  0  0  0  0  0  0  0  0  0  0
  -28.1296  -27.9011   21.4060 C   0  0  0  0  0  0  0  0  0  0  0  0
  -30.4122  -12.2637   19.4285 C   0  0  0  0  0  0  0  0  0  0  0  0
  -27.4550  -26.8225   20.5642 C   0  0  0  0  0  0  0  0  0  0  0  0
  -22.2650  -10.8093   23.9733 C   0  0  0  0  0  0  0  0  0  0  0  0
  -21.6425  -11.4518   25.1762 C   0  0  0  0  0  0  0  0  0  0  0  0
  -30.6066  -13.6848   19.9601 C   0  0  0  0  0  0  0  0  0  0  0  0
  -29.2020  -12.1683   18.5020 C   0  0  0  0  0  0  0  0  0  0  0  0
  -28.1356  -14.0956   19.6075 C   0  0  0  0  0  0  0  0  0  0  0  0
  -25.9331  -26.8488   20.7506 C   0  0  1  0  0  0  0  0  0  0  0  0
  -21.1369  -11.7619   23.8148 C   0  0  0  0  0  0  0  0  0  0  0  0
  -25.0212  -24.4366   23.5404 C   0  0  1  0  0  0  0  0  0  0  0  0
  -29.3110  -14.2297   20.5908 C   0  0  2  0  0  0  0  0  0  0  0  0
  -29.5319  -21.5915   29.1584 C   0  0  0  0  0  0  0  0  0  0  0  0
  -29.6087  -24.1581   23.0529 C   0  0  0  0  0  0  0  0  0  0  0  0
  -30.8200  -22.9787   24.8996 C   0  0  0  0  0  0  0  0  0  0  0  0
  -29.9112  -25.2718   25.2716 C   0  0  0  0  0  0  0  0  0  0  0  0
  -25.7749  -21.1099   28.7989 C   0  0  0  0  0  0  0  0  0  0  0  0
  -23.3568  -12.4174   19.4914 C   0  0  0  0  0  0  0  0  0  0  0  0
  -22.4997  -17.8713   21.2171 C   0  0  0  0  0  0  0  0  0  1  0  0
  -24.5533  -11.7385   20.1661 C   0  0  0  0  0  0  0  0  0  0  0  0
  -28.3165  -23.3155   25.1232 C   0  0  1  0  0  0  0  0  0  0  0  0
  -28.1379  -21.9028   28.6363 C   0  0  2  0  0  0  0  0  0  0  0  0
  -29.6403  -23.9201   24.5758 C   0  0  0  0  0  0  0  0  0  0  0  0
  -29.1703  -16.6693   20.2578 N   0  0  0  0  0  0  0  0  0  0  0  0
  -29.4839  -15.6551   21.0819 N   0  0  0  0  0  0  0  0  0  0  0  0
  -26.1088  -23.5931   24.0402 N   0  0  0  0  0  0  0  0  0  0  0  0
  -28.0063  -12.6998   19.1606 N   0  0  0  0  0  0  0  0  0  0  0  0
  -30.2944  -15.1673   23.2535 N   0  0  0  0  0  0  0  0  0  0  0  0
  -29.3382  -18.6921   24.2806 N   0  0  0  0  0  0  0  0  0  0  0  0
  -22.0738  -13.0371   22.0005 N   0  0  0  0  0  0  0  0  0  0  0  0
  -25.5666  -26.2257   22.0043 N   0  0  0  0  0  0  0  0  0  0  0  0
  -28.3079  -23.1046   26.5668 N   0  0  0  0  0  0  0  0  0  0  0  0
  -25.7870  -12.4585   19.9418 N   0  0  0  0  0  0  0  0  0  0  0  0
  -27.1879  -20.9084   29.2107 N   0  3  0  0  0  0  0  0  0  0  0  0
  -31.4841  -18.7204   23.4723 O   0  0  0  0  0  0  0  0  0  0  0  0
  -21.1239  -14.1435   23.8525 O   0  0  0  0  0  0  0  0  0  0  0  0
  -25.5329  -24.0147   21.2743 O   0  0  0  0  0  0  0  0  0  0  0  0
  -27.0762  -25.3332   25.2535 O   0  0  0  0  0  0  0  0  0  0  0  0
  -27.8931  -20.8245   26.4882 O   0  0  0  0  0  0  0  0  0  0  0  0
  -26.8389  -10.7145   18.8888 O   0  0  0  0  0  0  0  0  0  0  0  0
  -28.6119  -22.8597   18.8743 O   0  0  0  0  0  0  0  0  0  0  0  0
  -23.7416  -18.4185   21.6583 O   0  0  0  0  0  0  0  0  0  1  0  0
  -32.2521  -24.7258   15.1770 F   0  0  0  0  0  0  0  0  0  0  0  0
  -29.0343  -21.5148   16.4962 F   0  0  0  0  0  0  0  0  0  0  0  0
  1  2  1  0  0  0  0
  1  5  2  0  0  0  0
  2  6  2  0  0  0  0
  3 10  2  0  0  0  0
  3 18  1  0  0  0  0
  4 11  1  0  0  0  0
  4 18  2  0  0  0  0
  5 20  1  0  0  0  0
  6 22  1  0  0  0  0
  7 12  2  0  0  0  0
  7 21  1  0  0  0  0
  8  9  2  0  0  0  0
  8 24  1  0  0  0  0
  9 25  1  0  0  0  0
 10 27  1  0  0  0  0
 11 27  2  0  0  0  0
 12 28  1  0  0  0  0
 13 14  2  0  0  0  0
 13 29  1  0  0  0  0
 14 30  1  0  0  0  0
 15 23  1  0  0  0  0
 15 28  2  0  0  0  0
 16 24  2  0  0  0  0
 16 26  1  0  0  0  0
 17 30  2  0  0  0  0
 17 31  1  0  0  0  0
 18 32  1  0  0  0  0
 19 32  1  0  0  0  0
 19 33  2  0  0  0  0
 19 34  1  0  0  0  0
 20 22  2  0  0  0  0
 20 40  1  0  0  0  0
 21 23  2  0  0  0  0
 21 41  1  0  0  0  0
 22 51  1  0  0  0  0
 23 42  1  0  0  0  0
 24 61  1  0  0  0  0
 25 26  2  0  0  0  0
 25 60  1  0  0  0  0
 26 72  1  0  0  0  0
 27 83  1  0  0  0  0
 28 84  1  0  0  0  0
 29 31  2  0  0  0  0
 29 83  1  0  0  0  0
 30 85  1  0  0  0  0
 31 86  1  0  0  0  0
 32 66  2  0  0  0  0
 33 67  1  0  0  0  0
 33 70  1  0  0  0  0
 34 71  1  0  0  0  0
 34 77  2  0  0  0  0
 35 52  1  0  0  0  0
 35 72  1  0  0  0  0
 35 78  2  0  0  0  0
 36 53  1  0  0  0  0
 36 73  1  0  0  0  0
 36 79  2  0  0  0  0
 37 63  1  0  0  0  0
 37 68  1  0  0  0  0
 37 80  2  0  0  0  0
 38 64  1  0  0  0  0
 38 74  1  0  0  0  0
 38 81  2  0  0  0  0
 39 69  1  0  0  0  0
 39 75  1  0  0  0  0
 39 82  2  0  0  0  0
 40 43  1  0  0  0  0
 41 53  1  0  0  0  0
 42 68  1  0  0  0  0
 43 45  1  0  0  0  0
 44 48  1  0  0  0  0
 44 49  1  0  0  0  0
 45 51  1  0  0  0  0
 46 47  1  0  0  0  0
 46 52  1  0  0  0  0
 47 52  1  0  0  0  0
 48 54  1  0  0  0  0
 49 69  1  0  0  0  0
 50 54  1  0  0  0  0
 50 69  1  0  0  0  0
 51 73  1  0  0  0  0
 53 68  1  0  0  0  0
 54 67  1  0  0  0  0
 55 64  1  0  0  0  0
 56 65  1  0  0  0  0
 57 65  1  0  0  0  0
 58 65  1  0  0  0  0
 59 76  1  0  0  0  0
 60 62  1  0  0  0  0
 61 84  1  0  0  0  0
 62 75  1  0  0  0  0
 63 65  1  0  0  0  0
 63 74  1  0  0  0  0
 64 76  1  0  0  0  0
 66 67  1  0  0  0  0
M  CHG  1  76   1
M  ISO  4  39 100  61 101  75 100  84 101
M  END
> <Batch ID>
0130

> <Smiles>
CNC(C)C(=O)NC(C(=O)N1Cc2cc([101O:1][101CH2:1]c3ccc(CC[100NH:0][100C:0](=O)N4CCCC(n5nc(-c6ccc(Oc7ccc(F)cc7F)cc6)c(C(N)=O)c5N)C4)c(NC(=O)C4CC4)c3)ccc2CC1C(=O)NC1CCCc2ccccc21)C(C)(C)C

> <Shape>
0.219

> <Color>
0.069

> <Negative vol penalty>
0.000

$$$$

  -OEChem-04052320473D

 87 96  0     1  0  0  0  0  0999 V2000
  -23.8443  -32.9108   13.9477 C   0  0  0  0  0  0  0  0  0  0  0  0
  -24.1955  -31.8407   14.7644 C   0  0  0  0  0  0  0  0  0  0  0  0
  -23.5464   -9.6448   20.2416 C   0  0  0  0  0  0  0  0  0  0  0  0
  -23.9795  -10.1383   22.5667 C   0  0  0  0  0  0  0  0  0  0  0  0
  -24.4129  -34.1657   14.1620 C   0  0  0  0  0  0  0  0  0  0  0  0
  -25.1163  -32.0247   15.7952 C   0  0  0  0  0  0  0  0  0  0  0  0
  -30.2692  -20.0416   20.1598 C   0  0  0  0  0  0  0  0  0  0  0  0
  -28.4021  -20.2472   21.6793 C   0  0  0  0  0  0  0  0  0  0  0  0
  -23.6499  -29.8415   20.1228 C   0  0  0  0  0  0  0  0  0  0  0  0
  -30.2972  -18.6646   20.3805 C   0  0  0  0  0  0  0  0  0  0  0  0
  -28.4301  -18.8702   21.9000 C   0  0  0  0  0  0  0  0  0  0  0  0
  -22.9420   -8.4427   20.6093 C   0  0  0  0  0  0  0  0  0  0  0  0
  -23.3750   -8.9361   22.9344 C   0  0  0  0  0  0  0  0  0  0  0  0
  -23.8180  -28.4615   20.2287 C   0  0  0  0  0  0  0  0  0  0  0  0
  -20.2364   -7.7408   23.3095 C   0  0  0  0  0  0  0  0  0  0  0  0
  -19.3403   -7.7679   24.3781 C   0  0  0  0  0  0  0  0  0  0  0  0
  -25.8272  -28.8111   21.5170 C   0  0  0  0  0  0  0  0  0  0  0  0
  -20.7259   -6.1954   25.5800 C   0  0  0  0  0  0  0  0  0  0  0  0
  -24.0652  -10.4926   21.2203 C   0  0  0  0  0  0  0  0  0  0  0  0
  -24.0680  -12.9881   20.6911 C   0  0  0  0  0  0  0  0  0  0  0  0
  -29.3217  -20.8329   20.8093 C   0  0  0  0  0  0  0  0  0  0  0  0
  -25.3339  -34.3674   15.2020 C   0  0  0  0  0  0  0  0  0  0  0  0
  -24.5767  -30.7181   20.7050 C   0  0  0  0  0  0  0  0  0  0  0  0
  -25.6988  -33.2831   16.0227 C   0  0  0  0  0  0  0  0  0  0  0  0
  -25.6673  -30.2017   21.4193 C   0  0  0  0  0  0  0  0  0  0  0  0
  -29.3777  -18.0789   21.2506 C   0  0  0  0  0  0  0  0  0  0  0  0
  -22.8563   -8.0884   21.9556 C   0  0  0  0  0  0  0  0  0  0  0  0
  -24.9083  -27.9461   20.9234 C   0  0  0  0  0  0  0  0  0  0  0  0
  -21.3772   -6.9408   23.3762 C   0  0  0  0  0  0  0  0  0  0  0  0
  -19.5850   -6.9953   25.5133 C   0  0  0  0  0  0  0  0  0  0  0  0
  -21.6220   -6.1682   24.5114 C   0  0  0  0  0  0  0  0  0  0  0  0
  -24.6902  -11.7342   20.8411 C   0  0  0  0  0  0  0  0  0  0  0  0
  -25.0853  -13.8343   20.3230 C   0  0  0  0  0  0  0  0  0  0  0  0
  -22.6935  -13.3551   20.8688 C   0  0  0  0  0  0  0  0  0  0  0  0
  -26.5572  -32.9457   19.6008 C   0  0  0  0  0  0  0  0  0  0  0  0
  -27.0701  -33.4994   22.7555 C   0  0  0  0  0  0  0  0  0  0  0  0
  -27.0043  -32.3107   25.9539 C   0  0  0  0  0  0  0  0  0  0  0  0
  -30.2798  -15.7515   20.9105 C   0  0  0  0  0  0  0  0  0  0  0  0
  -25.9576  -35.7309   15.3651 C   0  0  0  0  0  0  0  0  0  0  0  0
  -24.3667  -32.2041   20.6046 C   0  0  0  0  0  0  0  0  0  0  0  0
  -26.6797  -31.1002   22.0798 C   0  0  0  0  0  0  0  0  0  0  0  0
  -26.6426  -35.9299   16.7147 C   0  0  0  0  0  0  0  0  0  0  0  0
  -29.8416  -12.8447   18.9016 C   0  0  0  0  0  0  0  0  0  0  0  0
  -27.5163  -34.7260   17.0527 C   0  0  0  0  0  0  0  0  0  0  0  0
  -28.4111  -12.3998   19.2148 C   0  0  0  0  0  0  0  0  0  0  0  0
  -29.5306  -23.1703   21.8340 C   0  0  0  0  0  0  0  0  0  0  0  0
  -30.5445  -13.4049   20.1368 C   0  0  0  0  0  0  0  0  0  0  0  0
  -28.2910  -24.0405   21.9681 C   0  0  0  0  0  0  0  0  0  0  0  0
  -28.3860  -14.0272   21.1481 C   0  0  0  0  0  0  0  0  0  0  0  0
  -29.2914  -22.3276   20.5697 C   0  0  2  0  0  0  0  0  0  0  0  0
  -26.6754  -33.4488   17.1669 C   0  0  1  0  0  0  0  0  0  0  0  0
  -25.6515  -33.0036   20.7982 C   0  0  1  0  0  0  0  0  0  0  0  0
  -27.6155  -13.5157   19.9200 C   0  0  2  0  0  0  0  0  0  0  0  0
  -27.9366  -22.8235   20.0145 C   0  0  2  0  0  0  0  0  0  0  0  0
  -27.5165  -32.9838   28.3165 C   0  0  0  0  0  0  0  0  0  0  0  0
  -28.5339  -24.0860   17.9107 C   0  0  0  0  0  0  0  0  0  0  0  0
  -30.0522  -33.1694   22.2004 C   0  0  0  0  0  0  0  0  0  0  0  0
  -30.4102  -32.9019   24.6639 C   0  0  0  0  0  0  0  0  0  0  0  0
  -29.4826  -35.0358   23.7646 C   0  0  0  0  0  0  0  0  0  0  0  0
  -24.1946  -31.9195   26.7973 C   0  0  0  0  0  0  0  0  0  0  0  0
  -26.4765  -24.7203   20.5280 C   0  0  0  0  0  0  0  0  0  0  0  0
  -26.4142  -26.1167   21.1275 C   0  0  0  0  0  0  0  0  0  1  0  0
  -28.0296  -32.9669   23.7923 C   0  0  1  0  0  0  0  0  0  0  0  0
  -26.4485  -32.9018   27.2369 C   0  0  2  0  0  0  0  0  0  0  0  0
  -27.9176  -22.8245   18.4877 C   0  0  2  0  0  0  0  0  0  0  0  0
  -29.4758  -33.5013   23.5913 C   0  0  0  0  0  0  0  0  0  0  0  0
  -26.0012  -11.7756   20.5887 N   0  0  0  0  0  0  0  0  0  0  0  0
  -26.2110  -13.0658   20.2763 N   0  0  0  0  0  0  0  0  0  0  0  0
  -26.4341  -32.5458   21.9481 N   0  0  0  0  0  0  0  0  0  0  0  0
  -29.7346  -14.4601   20.7495 N   0  0  0  0  0  0  0  0  0  0  0  0
  -27.8284  -24.1764   20.5847 N   0  0  1  0  0  0  0  0  0  0  0  0
  -25.1177  -15.1534   20.0377 N   0  0  0  0  0  0  0  0  0  0  0  0
  -21.7805  -12.3619   21.2488 N   0  0  0  0  0  0  0  0  0  0  0  0
  -29.4057  -16.6801   21.4747 N   0  0  0  0  0  0  0  0  0  0  0  0
  -25.9800  -33.4132   18.4356 N   0  0  0  0  0  0  0  0  0  0  0  0
  -27.4482  -33.2901   25.0907 N   0  0  0  0  0  0  0  0  0  0  0  0
  -26.5030  -22.7367   18.0394 N   0  3  0  0  0  0  0  0  0  0  0  0
  -25.3261  -32.0658   27.7488 N   0  3  0  0  0  0  0  0  0  0  0  0
  -22.2839  -14.5256   20.6797 O   0  0  0  0  0  0  0  0  0  0  0  0
  -27.6960  -32.5104   19.7250 O   0  0  0  0  0  0  0  0  0  0  0  0
  -26.8862  -34.7162   22.6702 O   0  0  0  0  0  0  0  0  0  0  0  0
  -27.0443  -31.1010   25.7404 O   0  0  0  0  0  0  0  0  0  0  0  0
  -31.4277  -16.0211   20.5478 O   0  0  0  0  0  0  0  0  0  0  0  0
  -22.2663   -6.9155   22.3148 O   0  0  0  0  0  0  0  0  0  0  0  0
  -25.0751  -26.5995   21.0276 O   0  0  0  0  0  0  0  0  0  1  0  0
  -18.7252   -7.0227   26.5400 F   0  0  0  0  0  0  0  0  0  0  0  0
  -22.7168   -5.3987   24.5817 F   0  0  0  0  0  0  0  0  0  0  0  0
  1  2  1  0  0  0  0
  1  5  2  0  0  0  0
  2  6  2  0  0  0  0
  3 12  2  0  0  0  0
  3 19  1  0  0  0  0
  4 13  1  0  0  0  0
  4 19  2  0  0  0  0
  5 22  1  0  0  0  0
  6 24  1  0  0  0  0
  7 10  2  0  0  0  0
  7 21  1  0  0  0  0
  8 11  1  0  0  0  0
  8 21  2  0  0  0  0
  9 14  2  0  0  0  0
  9 23  1  0  0  0  0
 10 26  1  0  0  0  0
 11 26  2  0  0  0  0
 12 27  1  0  0  0  0
 13 27  2  0  0  0  0
 14 28  1  0  0  0  0
 15 16  2  0  0  0  0
 15 29  1  0  0  0  0
 16 30  1  0  0  0  0
 17 25  1  0  0  0  0
 17 28  2  0  0  0  0
 18 30  2  0  0  0  0
 18 31  1  0  0  0  0
 19 32  1  0  0  0  0
 20 32  1  0  0  0  0
 20 33  2  0  0  0  0
 20 34  1  0  0  0  0
 21 50  1  0  0  0  0
 22 24  2  0  0  0  0
 22 39  1  0  0  0  0
 23 25  2  0  0  0  0
 23 40  1  0  0  0  0
 24 51  1  0  0  0  0
 25 41  1  0  0  0  0
 26 74  1  0  0  0  0
 27 84  1  0  0  0  0
 28 85  1  0  0  0  0
 29 31  2  0  0  0  0
 29 84  1  0  0  0  0
 30 86  1  0  0  0  0
 31 87  1  0  0  0  0
 32 67  2  0  0  0  0
 33 68  1  0  0  0  0
 33 72  1  0  0  0  0
 34 73  1  0  0  0  0
 34 79  2  0  0  0  0
 35 52  1  0  0  0  0
 35 75  1  0  0  0  0
 35 80  2  0  0  0  0
 36 63  1  0  0  0  0
 36 69  1  0  0  0  0
 36 81  2  0  0  0  0
 37 64  1  0  0  0  0
 37 76  1  0  0  0  0
 37 82  2  0  0  0  0
 38 70  1  0  0  0  0
 38 74  1  0  0  0  0
 38 83  2  0  0  0  0
 39 42  1  0  0  0  0
 40 52  1  0  0  0  0
 41 69  1  0  0  0  0
 42 44  1  0  0  0  0
 43 45  1  0  0  0  0
 43 47  1  0  0  0  0
 44 51  1  0  0  0  0
 45 53  1  0  0  0  0
 46 48  1  0  0  0  0
 46 50  1  0  0  0  0
 47 70  1  0  0  0  0
 48 71  1  0  0  0  0
 49 53  1  0  0  0  0
 49 70  1  0  0  0  0
 50 54  1  0  0  0  0
 51 75  1  0  0  0  0
 52 69  1  0  0  0  0
 53 68  1  0  0  0  0
 54 65  1  0  0  0  0
 54 71  1  0  0  0  0
 55 64  1  0  0  0  0
 56 65  1  0  0  0  0
 57 66  1  0  0  0  0
 58 66  1  0  0  0  0
 59 66  1  0  0  0  0
 60 78  1  0  0  0  0
 61 62  1  0  0  0  0
 61 71  1  0  0  0  0
 62 85  1  0  0  0  0
 63 66  1  0  0  0  0
 63 76  1  0  0  0  0
 64 78  1  0  0  0  0
 65 77  1  0  0  0  0
 67 68  1  0  0  0  0
M  CHG  2  77   1  78   1
M  ISO  4  38 100  62 101  74 100  85 101
M  END
> <Batch ID>
0130

> <Smiles>
CNC(C)C(=O)NC(C(=O)N1Cc2cc([101O:1][101CH2:1]CN3CCC(c4ccc([100NH:0][100C:0](=O)N5CCCC(n6nc(-c7ccc(Oc8ccc(F)cc8F)cc7)c(C(N)=O)c6N)C5)cc4)C3C(C)N)ccc2CC1C(=O)NC1CCCc2ccccc21)C(C)(C)C

> <Shape>
0.312

> <Color>
0.165

> <Negative vol penalty>
0.000

$$$$

  -OEChem-04052320473D

 84 92  0     1  0  0  0  0  0999 V2000
  -28.2135  -27.8367   17.7042 C   0  0  0  0  0  0  0  0  0  0  0  0
  -28.5833  -26.8950   18.6592 C   0  0  0  0  0  0  0  0  0  0  0  0
  -23.3742   -9.6845   19.9856 C   0  0  0  0  0  0  0  0  0  0  0  0
  -23.7492   -9.9709   22.3550 C   0  0  0  0  0  0  0  0  0  0  0  0
  -27.3796  -28.8965   18.0584 C   0  0  0  0  0  0  0  0  0  0  0  0
  -28.1203  -27.0133   19.9692 C   0  0  0  0  0  0  0  0  0  0  0  0
  -26.4950  -22.6058   21.8606 C   0  0  0  0  0  0  0  0  0  0  0  0
  -22.6826   -8.4998   20.2382 C   0  0  0  0  0  0  0  0  0  0  0  0
  -23.0576   -8.7862   22.6077 C   0  0  0  0  0  0  0  0  0  0  0  0
  -27.4647  -21.7020   22.2925 C   0  0  0  0  0  0  0  0  0  0  0  0
  -19.6013   -7.5905   21.2927 C   0  0  0  0  0  0  0  0  0  0  0  0
  -18.3971   -7.3866   20.6190 C   0  0  0  0  0  0  0  0  0  0  0  0
  -27.1910  -17.5176   24.8030 C   0  0  0  0  0  0  0  0  0  0  0  0
  -27.0471  -18.8587   24.3688 C   0  0  0  0  0  0  0  0  0  0  0  0
  -27.0874  -22.3959   24.5719 C   0  0  0  0  0  0  0  0  0  0  0  0
  -19.2994   -5.3843   19.6122 C   0  0  0  0  0  0  0  0  0  0  0  0
  -23.9075  -10.4200   21.0440 C   0  0  0  0  0  0  0  0  0  0  0  0
  -24.0858  -12.9430   20.7117 C   0  0  0  0  0  0  0  0  0  0  0  0
  -26.8984  -29.0225   19.3711 C   0  0  0  0  0  0  0  0  0  0  0  0
  -25.8208  -23.4206   22.7815 C   0  0  0  0  0  0  0  0  0  0  0  0
  -27.2803  -28.0765   20.3415 C   0  0  0  0  0  0  0  0  0  0  0  0
  -26.1078  -23.3074   24.1493 C   0  0  0  0  0  0  0  0  0  0  0  0
  -22.5243   -8.0506   21.5492 C   0  0  0  0  0  0  0  0  0  0  0  0
  -27.7631  -21.5990   23.6480 C   0  0  0  0  0  0  0  0  0  0  0  0
  -20.6547   -6.6914   21.1260 C   0  0  0  0  0  0  0  0  0  0  0  0
  -18.2461   -6.2835   19.7788 C   0  0  0  0  0  0  0  0  0  0  0  0
  -20.5037   -5.5882   20.2859 C   0  0  0  0  0  0  0  0  0  0  0  0
  -24.6225  -11.6436   20.7836 C   0  0  0  0  0  0  0  0  0  0  0  0
  -28.5247  -17.3167   25.0826 C   0  0  0  0  0  0  0  0  0  0  0  0
  -25.1669  -13.7468   20.4442 C   0  0  0  0  0  0  0  0  0  0  0  0
  -28.2973  -19.4364   24.3967 C   0  0  0  0  0  0  0  0  0  1  0  0
  -22.7310  -13.3840   20.8723 C   0  0  0  0  0  0  0  0  0  0  0  0
  -25.5859  -26.5555   23.2515 C   0  0  0  0  0  0  0  0  0  0  0  0
  -23.4064  -25.6639   25.4825 C   0  0  0  0  0  0  0  0  0  0  0  0
  -22.2433  -23.2475   27.5931 C   0  0  0  0  0  0  0  0  0  0  0  0
  -31.0364  -13.1613   21.4724 C   0  0  0  0  0  0  0  0  0  0  0  0
  -26.0377  -30.2114   19.7178 C   0  0  0  0  0  0  0  0  0  0  0  0
  -24.7585  -24.3714   22.3022 C   0  0  0  0  0  0  0  0  0  0  0  0
  -25.3981  -24.1450   25.1804 C   0  0  0  0  0  0  0  0  0  0  0  0
  -25.2875  -30.0560   21.0381 C   0  0  0  0  0  0  0  0  0  0  0  0
  -29.4550  -13.6717   18.3236 C   0  0  0  0  0  0  0  0  0  0  0  0
  -26.2236  -29.5404   22.1265 C   0  0  0  0  0  0  0  0  0  0  0  0
  -27.9888  -13.3271   18.5905 C   0  0  0  0  0  0  0  0  0  0  0  0
  -30.3999  -12.7668   19.1112 C   0  0  0  0  0  0  0  0  0  0  0  0
  -28.6779  -12.3734   20.8298 C   0  0  0  0  0  0  0  0  0  0  0  0
  -26.7786  -28.1568   21.7670 C   0  0  1  0  0  0  0  0  0  0  0  0
  -24.4995  -25.5177   23.2750 C   0  0  1  0  0  0  0  0  0  0  0  0
  -27.6860  -13.2959   20.1007 C   0  0  2  0  0  0  0  0  0  0  0  0
  -20.4704  -22.8256   29.3183 C   0  0  0  0  0  0  0  0  0  0  0  0
  -30.9112  -19.7546   26.0666 C   0  0  0  0  0  0  0  0  0  0  0  0
  -31.3023  -19.0230   23.6753 C   0  0  0  0  0  0  0  0  0  0  0  0
  -32.3304  -12.3213   24.3440 C   0  0  0  0  0  0  0  0  0  0  0  0
  -24.9799  -27.3240   27.5019 C   0  0  0  0  0  0  0  0  0  0  0  0
  -23.7605  -26.1266   29.3315 C   0  0  0  0  0  0  0  0  0  0  0  0
  -22.4948  -27.5237   27.6980 C   0  0  0  0  0  0  0  0  0  0  0  0
  -21.0602  -21.0465   26.0073 C   0  0  0  0  0  0  0  0  0  0  0  0
  -29.2184  -16.1052   25.5662 C   0  0  0  0  0  0  0  0  0  0  0  0
  -30.7577  -14.2185   25.0096 C   0  0  0  0  0  0  0  0  0  0  0  0
  -23.4610  -25.3107   26.9492 C   0  0  1  0  0  0  0  0  0  0  0  0
  -20.8422  -22.7214   27.8474 C   0  0  2  0  0  0  0  0  0  0  0  0
  -30.6103  -18.6991   25.0007 C   0  0  0  0  0  0  0  0  0  0  0  0
  -31.5188  -13.5268   23.8793 C   0  0  2  0  0  0  0  0  0  0  0  0
  -23.6890  -26.5567   27.8508 C   0  0  0  0  0  0  0  0  0  0  0  0
  -25.9421  -11.6187   20.5782 N   0  0  0  0  0  0  0  0  0  0  0  0
  -29.1877  -18.4898   24.8321 N   0  0  0  0  0  0  0  0  0  0  0  0
  -26.2435  -12.9124   20.3746 N   0  0  0  0  0  0  0  0  0  0  0  0
  -24.3720  -25.0644   24.6615 N   0  0  0  0  0  0  0  0  0  0  0  0
  -30.0601  -12.7833   20.5360 N   0  0  0  0  0  0  0  0  0  0  0  0
  -25.2921  -15.0788   20.2641 N   0  0  0  0  0  0  0  0  0  0  0  0
  -21.7443  -12.4264   21.1435 N   0  0  0  0  0  0  0  0  0  0  0  0
  -25.7845  -27.1341   22.0125 N   0  0  0  0  0  0  0  0  0  0  0  0
  -22.2320  -24.5801   27.2392 N   0  0  0  0  0  0  0  0  0  0  0  0
  -30.6296  -13.1560   22.8010 N   0  0  0  0  0  0  0  0  0  0  0  0
  -20.7434  -21.2919   27.4378 N   0  3  0  0  0  0  0  0  0  0  0  0
  -30.0143  -15.4031   24.5138 N   0  3  0  0  0  0  0  0  0  0  0  0
  -22.4026  -14.5896   20.7620 O   0  0  0  0  0  0  0  0  0  0  0  0
  -26.1976  -26.8132   24.2816 O   0  0  0  0  0  0  0  0  0  0  0  0
  -22.5345  -26.4376   25.0789 O   0  0  0  0  0  0  0  0  0  0  0  0
  -23.2476  -22.5473   27.7015 O   0  0  0  0  0  0  0  0  0  0  0  0
  -32.1840  -13.4851   21.1480 O   0  0  0  0  0  0  0  0  0  0  0  0
  -21.8493   -6.8948   21.7962 O   0  0  0  0  0  0  0  0  0  0  0  0
  -28.7096  -20.7181   24.0723 O   0  0  0  0  0  0  0  0  0  1  0  0
  -17.0891   -6.0869   19.1331 F   0  0  0  0  0  0  0  0  0  0  0  0
  -21.5116   -4.7203   20.1227 F   0  0  0  0  0  0  0  0  0  0  0  0
  1  2  1  0  0  0  0
  1  5  2  0  0  0  0
  2  6  2  0  0  0  0
  3  8  2  0  0  0  0
  3 17  1  0  0  0  0
  4  9  1  0  0  0  0
  4 17  2  0  0  0  0
  5 19  1  0  0  0  0
  6 21  1  0  0  0  0
  7 10  2  0  0  0  0
  7 20  1  0  0  0  0
  8 23  1  0  0  0  0
  9 23  2  0  0  0  0
 10 24  1  0  0  0  0
 11 12  2  0  0  0  0
 11 25  1  0  0  0  0
 12 26  1  0  0  0  0
 13 14  1  0  0  0  0
 13 29  2  0  0  0  0
 14 31  2  0  0  0  0
 15 22  1  0  0  0  0
 15 24  2  0  0  0  0
 16 26  2  0  0  0  0
 16 27  1  0  0  0  0
 17 28  1  0  0  0  0
 18 28  1  0  0  0  0
 18 30  2  0  0  0  0
 18 32  1  0  0  0  0
 19 21  2  0  0  0  0
 19 37  1  0  0  0  0
 20 22  2  0  0  0  0
 20 38  1  0  0  0  0
 21 46  1  0  0  0  0
 22 39  1  0  0  0  0
 23 81  1  0  0  0  0
 24 82  1  0  0  0  0
 25 27  2  0  0  0  0
 25 81  1  0  0  0  0
 26 83  1  0  0  0  0
 27 84  1  0  0  0  0
 28 64  2  0  0  0  0
 29 57  1  0  0  0  0
 29 65  1  0  0  0  0
 30 66  1  0  0  0  0
 30 69  1  0  0  0  0
 31 65  1  0  0  0  0
 31 82  1  0  0  0  0
 32 70  1  0  0  0  0
 32 76  2  0  0  0  0
 33 47  1  0  0  0  0
 33 71  1  0  0  0  0
 33 77  2  0  0  0  0
 34 59  1  0  0  0  0
 34 67  1  0  0  0  0
 34 78  2  0  0  0  0
 35 60  1  0  0  0  0
 35 72  1  0  0  0  0
 35 79  2  0  0  0  0
 36 68  1  0  0  0  0
 36 73  1  0  0  0  0
 36 80  2  0  0  0  0
 37 40  1  0  0  0  0
 38 47  1  0  0  0  0
 39 67  1  0  0  0  0
 40 42  1  0  0  0  0
 41 43  1  0  0  0  0
 41 44  1  0  0  0  0
 42 46  1  0  0  0  0
 43 48  1  0  0  0  0
 44 68  1  0  0  0  0
 45 48  1  0  0  0  0
 45 68  1  0  0  0  0
 46 71  1  0  0  0  0
 47 67  1  0  0  0  0
 48 66  1  0  0  0  0
 49 60  1  0  0  0  0
 50 61  1  0  0  0  0
 51 61  1  0  0  0  0
 52 62  1  0  0  0  0
 53 63  1  0  0  0  0
 54 63  1  0  0  0  0
 55 63  1  0  0  0  0
 56 74  1  0  0  0  0
 57 75  1  0  0  0  0
 58 62  1  0  0  0  0
 58 75  1  0  0  0  0
 59 63  1  0  0  0  0
 59 72  1  0  0  0  0
 60 74  1  0  0  0  0
 61 65  1  0  0  0  0
 62 73  1  0  0  0  0
 64 66  1  0  0  0  0
M  CHG  2  74   1  75   1
M  ISO  4  31 101  36 100  73 100  82 101
M  END
> <Batch ID>
0130

> <Smiles>
CNC(C)C(=O)NC(C(=O)N1Cc2cc([101O:1][101c:1]3ccc(CNCC(C)[100NH:0][100C:0](=O)N4CCCC(n5nc(-c6ccc(Oc7ccc(F)cc7F)cc6)c(C(N)=O)c5N)C4)n3C(C)C)ccc2CC1C(=O)NC1CCCc2ccccc21)C(C)(C)C

> <Shape>
0.163

> <Color>
0.172

> <Negative vol penalty>
0.000

$$$$

  -OEChem-04052320473D

 86 95  0     1  0  0  0  0  0999 V2000
  -37.5112  -24.2313   24.9448 C   0  0  0  0  0  0  0  0  0  0  0  0
  -36.3163  -23.8699   25.5568 C   0  0  0  0  0  0  0  0  0  0  0  0
  -23.0751   -9.8684   19.9401 C   0  0  0  0  0  0  0  0  0  0  0  0
  -23.8345   -9.8744   22.2337 C   0  0  0  0  0  0  0  0  0  0  0  0
  -38.5704  -23.3270   24.9043 C   0  0  0  0  0  0  0  0  0  0  0  0
  -36.1841  -22.6087   26.1388 C   0  0  0  0  0  0  0  0  0  0  0  0
  -32.0223  -21.7427   28.7693 C   0  0  0  0  0  0  0  0  0  0  0  0
  -22.3308   -8.7155   20.1895 C   0  0  0  0  0  0  0  0  0  0  0  0
  -23.0901   -8.7214   22.4831 C   0  0  0  0  0  0  0  0  0  0  0  0
  -30.7636  -21.5697   28.1954 C   0  0  0  0  0  0  0  0  0  0  0  0
  -19.8615   -7.9246   23.0846 C   0  0  0  0  0  0  0  0  0  0  0  0
  -19.1043   -7.8845   24.2553 C   0  0  0  0  0  0  0  0  0  0  0  0
  -30.9631  -19.1842   28.4913 C   0  0  0  0  0  0  0  0  0  0  0  0
  -29.7887  -17.7249   22.7467 C   0  0  0  0  0  0  0  0  0  0  0  0
  -20.3449   -5.9464   24.9914 C   0  0  0  0  0  0  0  0  0  0  0  0
  -32.3201  -18.5151   22.0055 C   0  0  0  0  0  0  0  0  0  0  0  0
  -23.8271  -10.4479   20.9622 C   0  0  0  0  0  0  0  0  0  0  0  0
  -24.1698  -12.9730   20.8431 C   0  0  0  0  0  0  0  0  0  0  0  0
  -38.4461  -22.0497   25.4754 C   0  0  0  0  0  0  0  0  0  0  0  0
  -32.7671  -20.6351   29.2001 C   0  0  0  0  0  0  0  0  0  0  0  0
  -37.2498  -21.6907   26.1292 C   0  0  0  0  0  0  0  0  0  0  0  0
  -32.2289  -19.3462   29.0748 C   0  0  0  0  0  0  0  0  0  0  0  0
  -31.5674  -19.3480   22.8210 C   0  0  0  0  0  0  0  0  0  0  0  0
  -30.2886  -18.9446   23.1930 C   0  0  0  0  0  0  0  0  0  0  0  0
  -22.3383   -8.1420   21.4610 C   0  0  0  0  0  0  0  0  0  0  0  0
  -30.2348  -20.2902   28.0543 C   0  0  0  0  0  0  0  0  0  0  0  0
  -20.8604   -6.9755   22.8673 C   0  0  0  0  0  0  0  0  0  0  0  0
  -19.3460   -6.8954   25.2087 C   0  0  0  0  0  0  0  0  0  0  0  0
  -21.1021   -5.9864   23.8207 C   0  0  0  0  0  0  0  0  0  0  0  0
  -24.5966  -11.6386   20.7050 C   0  0  0  0  0  0  0  0  0  0  0  0
  -25.2623  -13.7222   20.4803 C   0  0  0  0  0  0  0  0  0  0  0  0
  -30.5865  -16.9331   21.9329 C   0  0  0  0  0  0  0  0  0  0  0  0
  -22.8994  -13.4891   21.2619 C   0  0  0  0  0  0  0  0  0  0  0  0
  -35.6033  -19.3311   28.4923 C   0  0  0  0  0  0  0  0  0  0  0  0
  -34.7611  -17.3825   31.0510 C   0  0  0  0  0  0  0  0  0  0  0  0
  -37.9659  -16.2171   31.1533 C   0  0  0  0  0  0  0  0  0  0  0  0
  -30.7288  -14.7658   20.6567 C   0  0  0  0  0  0  0  0  0  0  0  0
  -39.6268  -21.1133   25.4098 C   0  0  0  0  0  0  0  0  0  0  0  0
  -34.1105  -20.8458   29.8445 C   0  0  0  0  0  0  0  0  0  0  0  0
  -32.9865  -18.1262   29.5247 C   0  0  0  0  0  0  0  0  0  0  0  0
  -39.2452  -19.6573   25.6562 C   0  0  0  0  0  0  0  0  0  0  0  0
  -33.0280  -21.8521   21.3679 C   0  0  0  0  0  0  0  0  0  0  0  0
  -34.2281  -21.4809   22.2278 C   0  0  0  0  0  0  0  0  0  0  0  0
  -29.6141  -12.3532   18.2874 C   0  0  0  0  0  0  0  0  0  0  0  0
  -31.8484  -21.8242   22.3264 C   0  0  0  0  0  0  0  0  0  0  0  0
  -33.6845  -20.6912   23.4218 C   0  0  0  0  0  0  0  0  0  0  0  0
  -38.3918  -19.5489   26.9110 C   0  0  0  0  0  0  0  0  0  0  0  0
  -28.1743  -12.0619   18.7165 C   0  0  0  0  0  0  0  0  0  0  0  0
  -30.5290  -12.5812   19.4893 C   0  0  0  0  0  0  0  0  0  0  0  0
  -28.6220  -13.3059   20.8703 C   0  0  0  0  0  0  0  0  0  0  0  0
  -32.1549  -20.6657   23.2814 C   0  0  0  0  0  0  0  0  0  0  0  0
  -37.0727  -20.3132   26.7421 C   0  0  1  0  0  0  0  0  0  0  0  0
  -34.9924  -19.5989   29.8386 C   0  0  1  0  0  0  0  0  0  0  0  0
  -27.6494  -13.1334   19.6922 C   0  0  2  0  0  0  0  0  0  0  0  0
  -39.5079  -14.8134   32.5494 C   0  0  0  0  0  0  0  0  0  0  0  0
  -35.0362  -19.6743   33.0454 C   0  0  0  0  0  0  0  0  0  0  0  0
  -37.1904  -18.6548   33.8122 C   0  0  0  0  0  0  0  0  0  0  0  0
  -35.0542  -17.3925   34.0689 C   0  0  0  0  0  0  0  0  0  0  0  0
  -38.3750  -14.2757   28.9573 C   0  0  0  0  0  0  0  0  0  0  0  0
  -27.6876  -20.3908   25.5083 C   0  0  0  0  0  0  0  0  0  0  0  0
  -28.3771  -19.2518   24.7671 C   0  0  0  0  0  0  0  0  0  0  0  0
  -28.5961  -21.0777   26.5212 C   0  0  0  0  0  0  0  0  0  1  0  0
  -36.0563  -17.6776   31.7653 C   0  0  1  0  0  0  0  0  0  0  0  0
  -38.5249  -14.8256   31.3891 C   0  0  2  0  0  0  0  0  0  0  0  0
  -35.8305  -18.3567   33.1456 C   0  0  0  0  0  0  0  0  0  0  0  0
  -25.8615  -11.5424   20.2870 N   0  0  0  0  0  0  0  0  0  0  0  0
  -26.2389  -12.8259   20.1592 N   0  0  0  0  0  0  0  0  0  0  0  0
  -31.8143  -17.3458   21.5899 N   0  3  0  0  0  0  0  0  0  0  0  0
  -34.2518  -18.3902   30.2220 N   0  0  0  0  0  0  0  0  0  0  0  0
  -29.9702  -13.6120   20.3669 N   0  0  0  0  0  0  0  0  0  0  0  0
  -25.4732  -15.0536   20.4078 N   0  0  0  0  0  0  0  0  0  0  0  0
  -21.8871  -12.5802   21.5986 N   0  0  0  0  0  0  0  0  0  0  0  0
  -29.5011  -19.7435   24.0073 N   0  0  0  0  0  0  0  0  0  0  0  0
  -30.0816  -15.6908   21.4753 N   0  0  0  0  0  0  0  0  0  0  0  0
  -36.3894  -20.3629   28.0158 N   0  0  0  0  0  0  0  0  0  0  0  0
  -36.7824  -16.4140   31.8327 N   0  0  0  0  0  0  0  0  0  0  0  0
  -39.2302  -14.3373   30.1705 N   0  3  0  0  0  0  0  0  0  0  0  0
  -22.6636  -14.7198   21.3196 O   0  0  0  0  0  0  0  0  0  0  0  0
  -35.3794  -18.2665   27.9282 O   0  0  0  0  0  0  0  0  0  0  0  0
  -34.2100  -16.2924   31.2275 O   0  0  0  0  0  0  0  0  0  0  0  0
  -38.5254  -17.0478   30.4408 O   0  0  0  0  0  0  0  0  0  0  0  0
  -31.8581  -14.9343   20.1894 O   0  0  0  0  0  0  0  0  0  0  0  0
  -21.6119   -7.0170   21.7048 O   0  0  0  0  0  0  0  0  0  0  0  0
  -29.0061  -20.1185   27.4949 O   0  0  0  0  0  0  0  0  0  1  0  0
  -18.6197   -6.8580   26.3336 F   0  0  0  0  0  0  0  0  0  0  0  0
  -22.0611   -5.0727   23.6180 F   0  0  0  0  0  0  0  0  0  0  0  0
  1  2  1  0  0  0  0
  1  5  2  0  0  0  0
  2  6  2  0  0  0  0
  3  8  2  0  0  0  0
  3 17  1  0  0  0  0
  4  9  1  0  0  0  0
  4 17  2  0  0  0  0
  5 19  1  0  0  0  0
  6 21  1  0  0  0  0
  7 10  2  0  0  0  0
  7 20  1  0  0  0  0
  8 25  1  0  0  0  0
  9 25  2  0  0  0  0
 10 26  1  0  0  0  0
 11 12  2  0  0  0  0
 11 27  1  0  0  0  0
 12 28  1  0  0  0  0
 13 22  1  0  0  0  0
 13 26  2  0  0  0  0
 14 24  1  0  0  0  0
 14 32  2  0  0  0  0
 15 28  2  0  0  0  0
 15 29  1  0  0  0  0
 16 23  1  0  0  0  0
 16 68  2  0  0  0  0
 17 30  1  0  0  0  0
 18 30  1  0  0  0  0
 18 31  2  0  0  0  0
 18 33  1  0  0  0  0
 19 21  2  0  0  0  0
 19 38  1  0  0  0  0
 20 22  2  0  0  0  0
 20 39  1  0  0  0  0
 21 52  1  0  0  0  0
 22 40  1  0  0  0  0
 23 24  2  0  0  0  0
 23 51  1  0  0  0  0
 24 73  1  0  0  0  0
 25 83  1  0  0  0  0
 26 84  1  0  0  0  0
 27 29  2  0  0  0  0
 27 83  1  0  0  0  0
 28 85  1  0  0  0  0
 29 86  1  0  0  0  0
 30 66  2  0  0  0  0
 31 67  1  0  0  0  0
 31 71  1  0  0  0  0
 32 68  1  0  0  0  0
 32 74  1  0  0  0  0
 33 72  1  0  0  0  0
 33 78  2  0  0  0  0
 34 53  1  0  0  0  0
 34 75  1  0  0  0  0
 34 79  2  0  0  0  0
 35 63  1  0  0  0  0
 35 69  1  0  0  0  0
 35 80  2  0  0  0  0
 36 64  1  0  0  0  0
 36 76  1  0  0  0  0
 36 81  2  0  0  0  0
 37 70  1  0  0  0  0
 37 74  1  0  0  0  0
 37 82  2  0  0  0  0
 38 41  1  0  0  0  0
 39 53  1  0  0  0  0
 40 69  1  0  0  0  0
 41 47  1  0  0  0  0
 42 43  1  0  0  0  0
 42 45  1  0  0  0  0
 43 46  1  0  0  0  0
 44 48  1  0  0  0  0
 44 49  1  0  0  0  0
 45 51  1  0  0  0  0
 46 51  1  0  0  0  0
 47 52  1  0  0  0  0
 48 54  1  0  0  0  0
 49 70  1  0  0  0  0
 50 54  1  0  0  0  0
 50 70  1  0  0  0  0
 52 75  1  0  0  0  0
 53 69  1  0  0  0  0
 54 67  1  0  0  0  0
 55 64  1  0  0  0  0
 56 65  1  0  0  0  0
 57 65  1  0  0  0  0
 58 65  1  0  0  0  0
 59 77  1  0  0  0  0
 60 61  1  0  0  0  0
 60 62  1  0  0  0  0
 61 73  1  0  0  0  0
 62 84  1  0  0  0  0
 63 65  1  0  0  0  0
 63 76  1  0  0  0  0
 64 77  1  0  0  0  0
 66 67  1  0  0  0  0
M  CHG  2  68   1  77   1
M  ISO  4  37 100  62 101  74 100  84 101
M  END
> <Batch ID>
0130

> <Smiles>
CNC(C)C(=O)NC(C(=O)N1Cc2cc([101O:1][101CH2:1]CCNc3cc([100NH:0][100C:0](=O)N4CCCC(n5nc(-c6ccc(Oc7ccc(F)cc7F)cc6)c(C(N)=O)c5N)C4)ncc3C3CCCC3)ccc2CC1C(=O)NC1CCCc2ccccc21)C(C)(C)C

> <Shape>
0.168

> <Color>
0.187

> <Negative vol penalty>
0.000

$$$$

  -OEChem-04052320473D

 84 92  0     1  0  0  0  0  0999 V2000
  -17.1319  -12.2849   23.2784 C   0  0  0  0  0  0  0  0  0  0  0  0
  -17.8686  -13.4650   23.2657 C   0  0  0  0  0  0  0  0  0  0  0  0
  -29.9696  -23.9317   20.2129 C   0  0  0  0  0  0  0  0  0  0  0  0
  -27.8930  -23.9624   18.9785 C   0  0  0  0  0  0  0  0  0  0  0  0
  -17.7845  -11.0584   23.3957 C   0  0  0  0  0  0  0  0  0  0  0  0
  -19.2582  -13.4193   23.3715 C   0  0  0  0  0  0  0  0  0  0  0  0
  -21.5603  -16.4851   20.0629 C   0  0  0  0  0  0  0  0  0  0  0  0
  -19.6178  -26.1485   21.4641 C   0  0  0  0  0  0  0  0  0  0  0  0
  -29.9017  -22.5408   20.2926 C   0  0  0  0  0  0  0  0  0  0  0  0
  -27.8252  -22.5714   19.0580 C   0  0  0  0  0  0  0  0  0  0  0  0
  -21.5890  -17.8450   20.3685 C   0  0  0  0  0  0  0  0  0  0  0  0
  -30.5362  -19.8968   18.2827 C   0  0  0  0  0  0  0  0  0  0  0  0
  -31.6991  -19.1746   18.0148 C   0  0  0  0  0  0  0  0  0  0  0  0
  -19.5523  -24.7947   21.1536 C   0  0  0  0  0  0  0  0  0  0  0  0
  -23.8541  -17.6122   21.1648 C   0  0  0  0  0  0  0  0  0  0  0  0
  -31.6256  -18.2315   20.2379 C   0  0  0  0  0  0  0  0  0  0  0  0
  -21.8627  -25.8226   22.1789 C   0  0  0  0  0  0  0  0  0  0  0  0
  -28.9652  -24.6425   19.5559 C   0  0  0  0  0  0  0  0  0  0  0  0
  -29.6464  -26.8446   18.4630 C   0  0  0  0  0  0  0  0  0  0  0  0
  -19.1835  -10.9971   23.4933 C   0  0  0  0  0  0  0  0  0  0  0  0
  -22.6764  -15.6749   20.3165 C   0  0  0  0  0  0  0  0  0  0  0  0
  -19.9300  -12.1909   23.4916 C   0  0  0  0  0  0  0  0  0  0  0  0
  -23.8379  -16.2427   20.8592 C   0  0  0  0  0  0  0  0  0  0  0  0
  -20.7914  -26.6801   21.9869 C   0  0  0  0  0  0  0  0  0  0  0  0
  -28.8296  -21.8606   19.7151 C   0  0  0  0  0  0  0  0  0  0  0  0
  -22.7350  -18.4082   20.9222 C   0  0  0  0  0  0  0  0  0  0  0  0
  -29.9180  -19.7864   19.5282 C   0  0  0  0  0  0  0  0  0  0  0  0
  -32.2438  -18.3420   18.9924 C   0  0  0  0  0  0  0  0  0  0  0  0
  -30.4627  -18.9537   20.5058 C   0  0  0  0  0  0  0  0  0  0  0  0
  -29.0345  -26.0794   19.4738 C   0  0  0  0  0  0  0  0  0  0  0  0
  -20.6791  -24.0217   21.3827 C   0  0  0  0  0  0  0  0  0  0  0  0
  -29.4378  -28.1474   18.8448 C   0  0  0  0  0  0  0  0  0  0  0  0
  -30.3413  -26.4161   17.2844 C   0  0  0  0  0  0  0  0  0  0  0  0
  -23.2411  -13.1473   22.1595 C   0  0  0  0  0  0  0  0  0  0  0  0
  -26.1105  -13.1737   20.6467 C   0  0  0  0  0  0  0  0  0  0  0  0
  -28.4703  -14.9541   18.9413 C   0  0  0  0  0  0  0  0  0  0  0  0
  -25.2892  -30.7787   22.2677 C   0  0  0  0  0  0  0  0  0  0  0  0
  -19.8409   -9.6507   23.6659 C   0  0  0  0  0  0  0  0  0  0  0  0
  -22.6388  -14.2150   19.9564 C   0  0  0  0  0  0  0  0  0  0  0  0
  -25.0699  -15.4203   21.1319 C   0  0  0  0  0  0  0  0  0  0  0  0
  -21.3433   -9.6673   23.3963 C   0  0  0  0  0  0  0  0  0  0  0  0
  -28.8173  -30.8540   22.7409 C   0  0  0  0  0  0  0  0  0  0  0  0
  -21.9989  -10.8511   24.1002 C   0  0  0  0  0  0  0  0  0  0  0  0
  -29.3282  -29.7079   21.8660 C   0  0  0  0  0  0  0  0  0  0  0  0
  -27.4796  -30.5126   23.3937 C   0  0  0  0  0  0  0  0  0  0  0  0
  -26.9374  -28.9320   21.5822 C   0  0  0  0  0  0  0  0  0  0  0  0
  -21.4408  -12.1810   23.5792 C   0  0  1  0  0  0  0  0  0  0  0  0
  -23.6531  -13.3815   20.7336 C   0  0  1  0  0  0  0  0  0  0  0  0
  -28.2565  -29.2511   20.8581 C   0  0  2  0  0  0  0  0  0  0  0  0
  -30.7252  -14.7122   17.8669 C   0  0  0  0  0  0  0  0  0  0  0  0
  -27.4219  -13.1872   23.4017 C   0  0  0  0  0  0  0  0  0  0  0  0
  -29.5578  -13.8961   22.3046 C   0  0  0  0  0  0  0  0  0  0  0  0
  -28.5303  -11.6979   21.7260 C   0  0  0  0  0  0  0  0  0  0  0  0
  -27.4092  -15.6903   16.2785 C   0  0  0  0  0  0  0  0  0  0  0  0
  -20.8930  -28.1240   22.3291 C   0  0  0  0  0  0  0  0  0  0  0  0
  -23.1397  -30.9270   21.0362 C   0  0  0  0  0  0  0  0  0  0  0  0
  -22.0369  -30.2953   21.8651 C   0  0  0  0  0  0  0  0  0  0  0  0
  -21.5877  -20.4913   20.9431 C   0  0  0  0  0  0  0  0  0  1  0  0
  -21.8218  -21.9365   21.3385 C   0  0  0  0  0  0  0  0  0  0  0  0
  -27.4470  -13.8280   20.9007 C   0  0  1  0  0  0  0  0  0  0  0  0
  -29.2203  -14.6587   17.6549 C   0  0  2  0  0  0  0  0  0  0  0  0
  -28.2155  -13.1677   22.0800 C   0  0  0  0  0  0  0  0  0  0  0  0
  -21.8367  -24.5024   21.8893 N   0  0  0  0  0  0  0  0  0  0  0  0
  -28.4788  -26.8332   20.4262 N   0  0  0  0  0  0  0  0  0  0  0  0
  -28.7410  -28.0857   20.0156 N   0  0  0  0  0  0  0  0  0  0  0  0
  -24.9816  -13.9963   20.7685 N   0  0  0  0  0  0  0  0  0  0  0  0
  -26.5072  -30.0886   22.3835 N   0  0  0  0  0  0  0  0  0  0  0  0
  -29.7843  -29.3282   18.2898 N   0  0  0  0  0  0  0  0  0  0  0  0
  -30.4646  -25.0408   17.0443 N   0  0  0  0  0  0  0  0  0  0  0  0
  -22.0248  -12.5059   22.2955 N   0  0  0  0  0  0  0  0  0  0  0  0
  -28.1635  -13.7997   19.6302 N   0  0  0  0  0  0  0  0  0  0  0  0
  -24.4272  -30.3161   21.2810 N   0  0  0  0  0  0  0  0  0  0  0  0
  -28.8580  -15.6519   16.6045 N   0  3  0  0  0  0  0  0  0  0  0  0
  -21.9612  -28.8403   21.5755 N   0  3  0  0  0  0  0  0  0  0  0  0
  -30.8524  -27.2285   16.4768 O   0  0  0  0  0  0  0  0  0  0  0  0
  -23.9734  -13.5195   23.0688 O   0  0  0  0  0  0  0  0  0  0  0  0
  -26.0701  -11.9785   20.3441 O   0  0  0  0  0  0  0  0  0  0  0  0
  -28.1885  -16.0950   19.3011 O   0  0  0  0  0  0  0  0  0  0  0  0
  -24.9943  -31.7395   22.9867 O   0  0  0  0  0  0  0  0  0  0  0  0
  -28.7631  -20.5034   19.7924 O   0  0  0  0  0  0  0  0  0  0  0  0
  -22.7654  -19.7353   21.2221 O   0  0  0  0  0  0  0  0  0  1  0  0
  -20.6392  -22.6850   21.0847 O   0  0  0  0  0  0  0  0  0  0  0  0
  -33.3597  -17.6474   18.7345 F   0  0  0  0  0  0  0  0  0  0  0  0
  -29.8726  -18.8427   21.7039 F   0  0  0  0  0  0  0  0  0  0  0  0
  1  2  1  0  0  0  0
  1  5  2  0  0  0  0
  2  6  2  0  0  0  0
  3  9  2  0  0  0  0
  3 18  1  0  0  0  0
  4 10  1  0  0  0  0
  4 18  2  0  0  0  0
  5 20  1  0  0  0  0
  6 22  1  0  0  0  0
  7 11  2  0  0  0  0
  7 21  1  0  0  0  0
  8 14  2  0  0  0  0
  8 24  1  0  0  0  0
  9 25  1  0  0  0  0
 10 25  2  0  0  0  0
 11 26  1  0  0  0  0
 12 13  2  0  0  0  0
 12 27  1  0  0  0  0
 13 28  1  0  0  0  0
 14 31  1  0  0  0  0
 15 23  1  0  0  0  0
 15 26  2  0  0  0  0
 16 28  2  0  0  0  0
 16 29  1  0  0  0  0
 17 24  2  0  0  0  0
 17 63  1  0  0  0  0
 18 30  1  0  0  0  0
 19 30  1  0  0  0  0
 19 32  2  0  0  0  0
 19 33  1  0  0  0  0
 20 22  2  0  0  0  0
 20 38  1  0  0  0  0
 21 23  2  0  0  0  0
 21 39  1  0  0  0  0
 22 47  1  0  0  0  0
 23 40  1  0  0  0  0
 24 55  1  0  0  0  0
 25 80  1  0  0  0  0
 26 81  1  0  0  0  0
 27 29  2  0  0  0  0
 27 80  1  0  0  0  0
 28 83  1  0  0  0  0
 29 84  1  0  0  0  0
 30 64  2  0  0  0  0
 31 63  2  0  0  0  0
 31 82  1  0  0  0  0
 32 65  1  0  0  0  0
 32 68  1  0  0  0  0
 33 69  1  0  0  0  0
 33 75  2  0  0  0  0
 34 48  1  0  0  0  0
 34 70  1  0  0  0  0
 34 76  2  0  0  0  0
 35 60  1  0  0  0  0
 35 66  1  0  0  0  0
 35 77  2  0  0  0  0
 36 61  1  0  0  0  0
 36 71  1  0  0  0  0
 36 78  2  0  0  0  0
 37 67  1  0  0  0  0
 37 72  1  0  0  0  0
 37 79  2  0  0  0  0
 38 41  1  0  0  0  0
 39 48  1  0  0  0  0
 40 66  1  0  0  0  0
 41 43  1  0  0  0  0
 42 44  1  0  0  0  0
 42 45  1  0  0  0  0
 43 47  1  0  0  0  0
 44 49  1  0  0  0  0
 45 67  1  0  0  0  0
 46 49  1  0  0  0  0
 46 67  1  0  0  0  0
 47 70  1  0  0  0  0
 48 66  1  0  0  0  0
 49 65  1  0  0  0  0
 50 61  1  0  0  0  0
 51 62  1  0  0  0  0
 52 62  1  0  0  0  0
 53 62  1  0  0  0  0
 54 73  1  0  0  0  0
 55 74  1  0  0  0  0
 56 57  1  0  0  0  0
 56 72  1  0  0  0  0
 57 74  1  0  0  0  0
 58 59  1  0  0  0  0
 58 81  1  0  0  0  0
 59 82  1  0  0  0  0
 60 62  1  0  0  0  0
 60 71  1  0  0  0  0
 61 73  1  0  0  0  0
 64 65  1  0  0  0  0
M  CHG  2  73   1  74   1
M  ISO  4  37 100  58 101  72 100  81 101
M  END
> <Batch ID>
0130

> <Smiles>
CNC(C)C(=O)NC(C(=O)N1Cc2cc([101O:1][101CH2:1]COc3ccc(CNCC[100NH:0][100C:0](=O)N4CCCC(n5nc(-c6ccc(Oc7ccc(F)cc7F)cc6)c(C(N)=O)c5N)C4)cn3)ccc2CC1C(=O)NC1CCCc2ccccc21)C(C)(C)C

> <Shape>
0.248

> <Color>
0.065

> <Negative vol penalty>
0.000

$$$$

  -OEChem-04052320473D

 84 93  0     1  0  0  0  0  0999 V2000
  -30.7074  -32.9045   29.0882 C   0  0  0  0  0  0  0  0  0  0  0  0
  -30.9041  -32.1201   27.9562 C   0  0  0  0  0  0  0  0  0  0  0  0
  -24.3309   -8.6991   21.4492 C   0  0  0  0  0  0  0  0  0  0  0  0
  -24.5749  -10.0702   23.4235 C   0  0  0  0  0  0  0  0  0  0  0  0
  -29.4352  -33.0108   29.6488 C   0  0  0  0  0  0  0  0  0  0  0  0
  -29.8288  -31.4406   27.3848 C   0  0  0  0  0  0  0  0  0  0  0  0
  -27.6294  -21.1501   21.2393 C   0  0  0  0  0  0  0  0  0  0  0  0
  -28.9351  -20.9811   19.2135 C   0  0  0  0  0  0  0  0  0  0  0  0
  -28.9106  -30.3472   21.4293 C   0  0  0  0  0  0  0  0  0  0  0  0
  -27.8577  -22.5258   21.2717 C   0  0  0  0  0  0  0  0  0  0  0  0
  -29.1634  -22.3568   19.2459 C   0  0  0  0  0  0  0  0  0  0  0  0
  -23.9421   -7.6219   22.2454 C   0  0  0  0  0  0  0  0  0  0  0  0
  -24.1860   -8.9929   24.2197 C   0  0  0  0  0  0  0  0  0  0  0  0
  -29.1501  -29.2279   20.6333 C   0  0  0  0  0  0  0  0  0  0  0  0
  -21.1515   -6.5923   23.8534 C   0  0  0  0  0  0  0  0  0  0  0  0
  -20.0473   -5.8467   23.4408 C   0  0  0  0  0  0  0  0  0  0  0  0
  -26.8580  -28.5358   20.9275 C   0  0  0  0  0  0  0  0  0  0  0  0
  -21.4294   -3.8690   23.3161 C   0  0  0  0  0  0  0  0  0  0  0  0
  -24.6474   -9.9233   22.0383 C   0  0  0  0  0  0  0  0  0  0  0  0
  -24.2155  -12.0135   20.6412 C   0  0  0  0  0  0  0  0  0  0  0  0
  -28.1682  -20.3778   20.2102 C   0  0  0  0  0  0  0  0  0  0  0  0
  -28.3420  -32.3399   29.0783 C   0  0  0  0  0  0  0  0  0  0  0  0
  -27.6438  -30.5638   21.9903 C   0  0  0  0  0  0  0  0  0  0  0  0
  -28.5411  -31.5369   27.9390 C   0  0  0  0  0  0  0  0  0  0  0  0
  -26.6044  -29.6599   21.7282 C   0  0  0  0  0  0  0  0  0  0  0  0
  -28.6247  -23.1291   20.2750 C   0  0  0  0  0  0  0  0  0  0  0  0
  -23.8695   -7.7687   23.6306 C   0  0  0  0  0  0  0  0  0  0  0  0
  -28.1245  -28.3205   20.3847 C   0  0  0  0  0  0  0  0  0  0  0  0
  -22.3947   -5.9763   23.9973 C   0  0  0  0  0  0  0  0  0  0  0  0
  -20.1862   -4.4850   23.1722 C   0  0  0  0  0  0  0  0  0  0  0  0
  -22.5336   -4.6147   23.7287 C   0  0  0  0  0  0  0  0  0  0  0  0
  -25.0497  -11.0363   21.2165 C   0  0  0  0  0  0  0  0  0  0  0  0
  -25.0749  -12.8414   19.9611 C   0  0  0  0  0  0  0  0  0  0  0  0
  -22.7911  -12.1599   20.7150 C   0  0  0  0  0  0  0  0  0  0  0  0
  -26.5071  -30.7680   24.9517 C   0  0  0  0  0  0  0  0  0  0  0  0
  -23.7605  -31.5734   23.4251 C   0  0  0  0  0  0  0  0  0  0  0  0
  -21.8787  -31.4349   20.5815 C   0  0  0  0  0  0  0  0  0  0  0  0
  -29.8385  -15.7312   19.7259 C   0  0  0  0  0  0  0  0  0  0  0  0
  -26.9947  -32.4473   29.7475 C   0  0  0  0  0  0  0  0  0  0  0  0
  -27.3945  -31.7901   22.8248 C   0  0  0  0  0  0  0  0  0  0  0  0
  -25.2211  -29.8576   22.2902 C   0  0  0  0  0  0  0  0  0  0  0  0
  -25.8367  -31.9953   28.8614 C   0  0  0  0  0  0  0  0  0  0  0  0
  -29.9545  -12.3204   18.8116 C   0  0  0  0  0  0  0  0  0  0  0  0
  -26.1681  -30.6686   28.1855 C   0  0  0  0  0  0  0  0  0  0  0  0
  -28.6405  -11.7460   19.3336 C   0  0  0  0  0  0  0  0  0  0  0  0
  -27.7804  -18.1736   21.5296 C   0  0  0  0  0  0  0  0  0  0  0  0
  -30.5139  -13.3561   19.7778 C   0  0  0  0  0  0  0  0  0  0  0  0
  -27.9560  -16.7055   21.1652 C   0  0  0  0  0  0  0  0  0  0  0  0
  -29.0464  -18.0686   19.5235 C   0  0  0  0  0  0  0  0  0  0  0  0
  -28.2344  -13.9432   20.5584 C   0  0  0  0  0  0  0  0  0  0  0  0
  -27.9215  -18.8857   20.1745 C   0  0  2  0  0  0  0  0  0  0  0  0
  -27.3951  -30.8044   27.2757 C   0  0  1  0  0  0  0  0  0  0  0  0
  -26.2036  -31.6402   23.7664 C   0  0  1  0  0  0  0  0  0  0  0  0
  -27.6353  -12.8711   19.6249 C   0  0  2  0  0  0  0  0  0  0  0  0
  -19.6624  -32.1533   19.6491 C   0  0  0  0  0  0  0  0  0  0  0  0
  -22.3810  -29.3550   25.0016 C   0  0  0  0  0  0  0  0  0  0  0  0
  -20.4767  -29.4832   23.3814 C   0  0  0  0  0  0  0  0  0  0  0  0
  -21.0524  -31.4627   24.7859 C   0  0  0  0  0  0  0  0  0  0  0  0
  -23.1636  -33.0682   18.4743 C   0  0  0  0  0  0  0  0  0  0  0  0
  -29.6303  -25.2020   19.3172 C   0  0  0  0  0  0  0  0  0  0  0  0
  -29.6775  -26.6909   19.6175 C   0  0  0  0  0  0  0  0  0  1  0  0
  -22.5781  -30.8106   22.8784 C   0  0  1  0  0  0  0  0  0  0  0  0
  -21.1311  -32.5110   19.8149 C   0  0  2  0  0  0  0  0  0  0  0  0
  -21.6485  -30.2729   24.0027 C   0  0  0  0  0  0  0  0  0  0  0  0
  -26.3400  -11.2245   20.9270 N   0  0  0  0  0  0  0  0  0  0  0  0
  -26.3230  -12.3295   20.1622 N   0  0  0  0  0  0  0  0  0  0  0  0
  -25.0288  -31.0685   23.1052 N   0  0  0  0  0  0  0  0  0  0  0  0
  -29.5393  -14.4086   20.0711 N   0  0  0  0  0  0  0  0  0  0  0  0
  -28.9114  -16.7179   20.0594 N   0  0  0  0  0  0  0  0  0  0  0  0
  -24.8772  -13.9500   19.2165 N   0  0  0  0  0  0  0  0  0  0  0  0
  -22.0606  -11.2212   21.4562 N   0  0  0  0  0  0  0  0  0  0  0  0
  -28.8542  -24.5202   20.3063 N   0  0  0  0  0  0  0  0  0  0  0  0
  -27.0332  -31.4502   26.0321 N   0  0  0  0  0  0  0  0  0  0  0  0
  -21.9174  -31.7043   21.9333 N   0  0  0  0  0  0  0  0  0  0  0  0
  -21.7268  -32.6909   18.4608 N   0  3  0  0  0  0  0  0  0  0  0  0
  -22.1826  -13.0860   20.1271 O   0  0  0  0  0  0  0  0  0  0  0  0
  -26.2793  -29.5655   24.8910 O   0  0  0  0  0  0  0  0  0  0  0  0
  -23.5662  -32.5842   24.1049 O   0  0  0  0  0  0  0  0  0  0  0  0
  -22.3750  -30.4517   20.0363 O   0  0  0  0  0  0  0  0  0  0  0  0
  -30.9096  -16.0262   19.1785 O   0  0  0  0  0  0  0  0  0  0  0  0
  -23.4899   -6.7178   24.4077 O   0  0  0  0  0  0  0  0  0  0  0  0
  -28.3574  -27.2192   19.6032 O   0  0  0  0  0  0  0  0  0  1  0  0
  -19.1253   -3.7688   22.7775 F   0  0  0  0  0  0  0  0  0  0  0  0
  -23.7252   -4.0171   23.8662 F   0  0  0  0  0  0  0  0  0  0  0  0
  1  2  1  0  0  0  0
  1  5  2  0  0  0  0
  2  6  2  0  0  0  0
  3 12  2  0  0  0  0
  3 19  1  0  0  0  0
  4 13  1  0  0  0  0
  4 19  2  0  0  0  0
  5 22  1  0  0  0  0
  6 24  1  0  0  0  0
  7 10  2  0  0  0  0
  7 21  1  0  0  0  0
  8 11  1  0  0  0  0
  8 21  2  0  0  0  0
  9 14  2  0  0  0  0
  9 23  1  0  0  0  0
 10 26  1  0  0  0  0
 11 26  2  0  0  0  0
 12 27  1  0  0  0  0
 13 27  2  0  0  0  0
 14 28  1  0  0  0  0
 15 16  2  0  0  0  0
 15 29  1  0  0  0  0
 16 30  1  0  0  0  0
 17 25  1  0  0  0  0
 17 28  2  0  0  0  0
 18 30  2  0  0  0  0
 18 31  1  0  0  0  0
 19 32  1  0  0  0  0
 20 32  1  0  0  0  0
 20 33  2  0  0  0  0
 20 34  1  0  0  0  0
 21 51  1  0  0  0  0
 22 24  2  0  0  0  0
 22 39  1  0  0  0  0
 23 25  2  0  0  0  0
 23 40  1  0  0  0  0
 24 52  1  0  0  0  0
 25 41  1  0  0  0  0
 26 72  1  0  0  0  0
 27 81  1  0  0  0  0
 28 82  1  0  0  0  0
 29 31  2  0  0  0  0
 29 81  1  0  0  0  0
 30 83  1  0  0  0  0
 31 84  1  0  0  0  0
 32 65  2  0  0  0  0
 33 66  1  0  0  0  0
 33 70  1  0  0  0  0
 34 71  1  0  0  0  0
 34 76  2  0  0  0  0
 35 53  1  0  0  0  0
 35 73  1  0  0  0  0
 35 77  2  0  0  0  0
 36 62  1  0  0  0  0
 36 67  1  0  0  0  0
 36 78  2  0  0  0  0
 37 63  1  0  0  0  0
 37 74  1  0  0  0  0
 37 79  2  0  0  0  0
 38 68  1  0  0  0  0
 38 69  1  0  0  0  0
 38 80  2  0  0  0  0
 39 42  1  0  0  0  0
 40 53  1  0  0  0  0
 41 67  1  0  0  0  0
 42 44  1  0  0  0  0
 43 45  1  0  0  0  0
 43 47  1  0  0  0  0
 44 52  1  0  0  0  0
 45 54  1  0  0  0  0
 46 48  1  0  0  0  0
 46 51  1  0  0  0  0
 47 68  1  0  0  0  0
 48 69  1  0  0  0  0
 49 51  1  0  0  0  0
 49 69  1  0  0  0  0
 50 54  1  0  0  0  0
 50 68  1  0  0  0  0
 52 73  1  0  0  0  0
 53 67  1  0  0  0  0
 54 66  1  0  0  0  0
 55 63  1  0  0  0  0
 56 64  1  0  0  0  0
 57 64  1  0  0  0  0
 58 64  1  0  0  0  0
 59 75  1  0  0  0  0
 60 61  1  0  0  0  0
 60 72  1  0  0  0  0
 61 82  1  0  0  0  0
 62 64  1  0  0  0  0
 62 74  1  0  0  0  0
 63 75  1  0  0  0  0
 65 66  1  0  0  0  0
M  CHG  1  75   1
M  ISO  4  38 100  61 101  69 100  82 101
M  END
> <Batch ID>
0130

> <Smiles>
CNC(C)C(=O)NC(C(=O)N1Cc2cc([101O:1][101CH2:1]CNc3ccc(C4CC[100N:0]([100C:0](=O)N5CCCC(n6nc(-c7ccc(Oc8ccc(F)cc8F)cc7)c(C(N)=O)c6N)C5)C4)cc3)ccc2CC1C(=O)NC1CCCc2ccccc21)C(C)(C)C

> <Shape>
0.325

> <Color>
0.092

> <Negative vol penalty>
0.000

$$$$

  -OEChem-04052320473D

 89 98  0     1  0  0  0  0  0999 V2000
  -27.3228  -38.1369   21.5537 C   0  0  0  0  0  0  0  0  0  0  0  0
  -27.8591  -37.0517   20.8681 C   0  0  0  0  0  0  0  0  0  0  0  0
  -24.7595   -8.5299   21.4695 C   0  0  0  0  0  0  0  0  0  0  0  0
  -23.0721  -10.1825   20.9608 C   0  0  0  0  0  0  0  0  0  0  0  0
  -24.6740  -19.1571   18.5678 C   0  0  0  0  0  0  0  0  0  0  0  0
  -26.5817  -37.9284   22.7161 C   0  0  0  0  0  0  0  0  0  0  0  0
  -27.6554  -35.7574   21.3451 C   0  0  0  0  0  0  0  0  0  0  0  0
  -26.7900  -29.0300   19.0407 C   0  0  0  0  0  0  0  0  0  0  0  0
  -23.9000   -7.9369   22.3943 C   0  0  0  0  0  0  0  0  0  0  0  0
  -22.2126   -9.5895   21.8857 C   0  0  0  0  0  0  0  0  0  0  0  0
  -27.3074  -27.7500   19.2349 C   0  0  0  0  0  0  0  0  0  0  0  0
  -21.2359   -5.8554   22.3409 C   0  0  0  0  0  0  0  0  0  0  0  0
  -21.1269   -4.4649   22.3258 C   0  0  0  0  0  0  0  0  0  0  0  0
  -25.1543  -17.8988   18.9021 C   0  0  0  0  0  0  0  0  0  0  0  0
  -25.9435  -27.5049   21.2095 C   0  0  0  0  0  0  0  0  0  0  0  0
  -21.9070   -4.3789   24.6108 C   0  0  0  0  0  0  0  0  0  0  0  0
  -24.3455   -9.6527   20.7528 C   0  0  0  0  0  0  0  0  0  0  0  0
  -25.5527  -20.2418   18.5300 C   0  0  0  0  0  0  0  0  0  0  0  0
  -25.3487   -9.9627   18.4279 C   0  0  0  0  0  0  0  0  0  0  0  0
  -26.3607  -36.6302   23.2023 C   0  0  0  0  0  0  0  0  0  0  0  0
  -25.8521  -29.5622   19.9371 C   0  0  0  0  0  0  0  0  0  0  0  0
  -26.9118  -35.5314   22.5158 C   0  0  0  0  0  0  0  0  0  0  0  0
  -25.4139  -28.7909   21.0230 C   0  0  0  0  0  0  0  0  0  0  0  0
  -22.6266   -8.4667   22.6024 C   0  0  0  0  0  0  0  0  0  0  0  0
  -26.8864  -26.9884   20.3211 C   0  0  0  0  0  0  0  0  0  0  0  0
  -21.6806   -6.5077   23.4909 C   0  0  0  0  0  0  0  0  0  0  0  0
  -21.4624   -3.7267   23.4607 C   0  0  0  0  0  0  0  0  0  0  0  0
  -22.0160   -5.7694   24.6258 C   0  0  0  0  0  0  0  0  0  0  0  0
  -25.2331  -10.2660   19.7977 C   0  0  0  0  0  0  0  0  0  0  0  0
  -26.9047  -20.0311   18.8002 C   0  0  0  0  0  0  0  0  0  0  0  0
  -26.5037  -17.7769   19.1769 C   0  0  0  0  0  0  0  0  0  0  0  0
  -26.3218  -10.8160   17.9682 C   0  0  0  0  0  0  0  0  0  0  0  0
  -25.0079  -21.5554   18.1494 C   0  0  0  0  0  0  0  0  0  0  0  0
  -24.6398   -8.9961   17.6413 C   0  0  0  0  0  0  0  0  0  0  0  0
  -25.7891  -32.0665   21.8936 C   0  0  0  0  0  0  0  0  0  0  0  0
  -22.7066  -31.1555   22.3298 C   0  0  0  0  0  0  0  0  0  0  0  0
  -20.3797  -28.6613   22.2224 C   0  0  0  0  0  0  0  0  0  0  0  0
  -28.2993  -16.1369   19.8345 C   0  0  0  0  0  0  0  0  0  0  0  0
  -25.5929  -36.4578   24.4890 C   0  0  0  0  0  0  0  0  0  0  0  0
  -25.2836  -30.9342   19.6986 C   0  0  0  0  0  0  0  0  0  0  0  0
  -24.3937  -29.3083   22.0028 C   0  0  0  0  0  0  0  0  0  0  0  0
  -27.9274  -21.1355   18.7627 C   0  0  0  0  0  0  0  0  0  0  0  0
  -25.1067  -35.0295   24.7214 C   0  0  0  0  0  0  0  0  0  0  0  0
  -30.2284  -13.1726   19.4240 C   0  0  0  0  0  0  0  0  0  0  0  0
  -26.2284  -34.0326   24.4478 C   0  0  0  0  0  0  0  0  0  0  0  0
  -29.1766  -12.0639   19.3424 C   0  0  0  0  0  0  0  0  0  0  0  0
  -29.8263  -14.2641   20.4142 C   0  0  0  0  0  0  0  0  0  0  0  0
  -27.4401  -13.7290   20.1164 C   0  0  0  0  0  0  0  0  0  0  0  0
  -28.1479  -21.7739   20.1310 C   0  0  0  0  0  0  0  0  0  0  0  0
  -25.7129  -22.4967   20.3948 C   0  0  0  0  0  0  0  0  0  0  0  0
  -26.6918  -34.1106   22.9881 C   0  0  1  0  0  0  0  0  0  0  0  0
  -24.7176  -31.5744   20.9624 C   0  0  1  0  0  0  0  0  0  0  0  0
  -27.7704  -12.6392   19.0835 C   0  0  2  0  0  0  0  0  0  0  0  0
  -17.9522  -28.2112   22.6717 C   0  0  0  0  0  0  0  0  0  0  0  0
  -23.1804  -23.8807   18.3959 C   0  0  0  0  0  0  0  0  0  0  0  0
  -25.4504  -24.3998   17.4350 C   0  0  0  0  0  0  0  0  0  0  0  0
  -23.2678  -31.1360   25.3289 C   0  0  0  0  0  0  0  0  0  0  0  0
  -21.1747  -29.7982   25.6413 C   0  0  0  0  0  0  0  0  0  0  0  0
  -21.0509  -32.1004   24.6887 C   0  0  0  0  0  0  0  0  0  0  0  0
  -19.8782  -27.9083   19.4045 C   0  0  0  0  0  0  0  0  0  0  0  0
  -27.5345  -23.6293   21.6674 C   0  0  0  0  0  0  0  0  0  0  0  0
  -26.9160  -25.0132   21.6454 C   0  0  0  0  0  0  0  0  0  1  0  0
  -21.9909  -30.2243   23.2784 C   0  0  1  0  0  0  0  0  0  0  0  0
  -18.9837  -28.6110   21.6282 C   0  0  2  0  0  0  0  0  0  0  0  0
  -24.6773  -23.9413   18.6628 C   0  0  0  0  0  0  0  0  0  0  0  0
  -21.8918  -30.8054   24.7171 C   0  0  0  0  0  0  0  0  0  0  0  0
  -26.0664  -11.2361   20.1831 N   0  0  0  0  0  0  0  0  0  0  0  0
  -27.3823  -18.8042   19.1343 N   0  0  0  0  0  0  0  0  0  0  0  0
  -26.7149  -11.5497   19.0486 N   0  0  0  0  0  0  0  0  0  0  0  0
  -25.1477  -22.6155   19.0493 N   0  0  0  0  0  0  0  0  0  0  0  0
  -23.8723  -30.6579   21.7303 N   0  0  0  0  0  0  0  0  0  0  0  0
  -28.4852  -14.7645   20.1044 N   0  0  0  0  0  0  0  0  0  0  0  0
  -26.8712  -11.0027   16.7492 N   0  0  0  0  0  0  0  0  0  0  0  0
  -23.6725   -8.2015   18.2716 N   0  0  0  0  0  0  0  0  0  0  0  0
  -26.9873  -16.4902   19.5209 N   0  0  0  0  0  0  0  0  0  0  0  0
  -25.7533  -33.4287   22.1228 N   0  0  0  0  0  0  0  0  0  0  0  0
  -20.7016  -29.9273   22.6638 N   0  0  0  0  0  0  0  0  0  0  0  0
  -27.1711  -22.9014   20.3971 N   0  3  1  0  0  0  0  0  0  0  0  0
  -18.9307  -27.6240   20.5128 N   0  3  0  0  0  0  0  0  0  0  0  0
  -24.4561  -21.6226   17.0514 O   0  0  0  0  0  0  0  0  0  0  0  0
  -24.8691   -8.8303   16.4192 O   0  0  0  0  0  0  0  0  0  0  0  0
  -26.5883  -31.2691   22.3703 O   0  0  0  0  0  0  0  0  0  0  0  0
  -22.2442  -32.2802   22.1226 O   0  0  0  0  0  0  0  0  0  0  0  0
  -21.1101  -27.6752   22.2917 O   0  0  0  0  0  0  0  0  0  0  0  0
  -29.2399  -16.9349   19.8518 O   0  0  0  0  0  0  0  0  0  0  0  0
  -21.7875   -7.8883   23.5046 O   0  0  0  0  0  0  0  0  0  0  0  0
  -27.3939  -25.7300   20.5147 O   0  0  0  0  0  0  0  0  0  1  0  0
  -21.3561   -2.3915   23.4465 F   0  0  0  0  0  0  0  0  0  0  0  0
  -22.4427   -6.3906   25.7340 F   0  0  0  0  0  0  0  0  0  0  0  0
  1  2  1  0  0  0  0
  1  6  2  0  0  0  0
  2  7  2  0  0  0  0
  3  9  2  0  0  0  0
  3 17  1  0  0  0  0
  4 10  1  0  0  0  0
  4 17  2  0  0  0  0
  5 14  2  0  0  0  0
  5 18  1  0  0  0  0
  6 20  1  0  0  0  0
  7 22  1  0  0  0  0
  8 11  2  0  0  0  0
  8 21  1  0  0  0  0
  9 24  1  0  0  0  0
 10 24  2  0  0  0  0
 11 25  1  0  0  0  0
 12 13  2  0  0  0  0
 12 26  1  0  0  0  0
 13 27  1  0  0  0  0
 14 31  1  0  0  0  0
 15 23  1  0  0  0  0
 15 25  2  0  0  0  0
 16 27  2  0  0  0  0
 16 28  1  0  0  0  0
 17 29  1  0  0  0  0
 18 30  2  0  0  0  0
 18 33  1  0  0  0  0
 19 29  1  0  0  0  0
 19 32  2  0  0  0  0
 19 34  1  0  0  0  0
 20 22  2  0  0  0  0
 20 39  1  0  0  0  0
 21 23  2  0  0  0  0
 21 40  1  0  0  0  0
 22 51  1  0  0  0  0
 23 41  1  0  0  0  0
 24 86  1  0  0  0  0
 25 87  1  0  0  0  0
 26 28  2  0  0  0  0
 26 86  1  0  0  0  0
 27 88  1  0  0  0  0
 28 89  1  0  0  0  0
 29 67  2  0  0  0  0
 30 42  1  0  0  0  0
 30 68  1  0  0  0  0
 31 68  2  0  0  0  0
 31 75  1  0  0  0  0
 32 69  1  0  0  0  0
 32 73  1  0  0  0  0
 33 70  1  0  0  0  0
 33 80  2  0  0  0  0
 34 74  1  0  0  0  0
 34 81  2  0  0  0  0
 35 52  1  0  0  0  0
 35 76  1  0  0  0  0
 35 82  2  0  0  0  0
 36 63  1  0  0  0  0
 36 71  1  0  0  0  0
 36 83  2  0  0  0  0
 37 64  1  0  0  0  0
 37 77  1  0  0  0  0
 37 84  2  0  0  0  0
 38 72  1  0  0  0  0
 38 75  1  0  0  0  0
 38 85  2  0  0  0  0
 39 43  1  0  0  0  0
 40 52  1  0  0  0  0
 41 71  1  0  0  0  0
 42 49  1  0  0  0  0
 43 45  1  0  0  0  0
 44 46  1  0  0  0  0
 44 47  1  0  0  0  0
 45 51  1  0  0  0  0
 46 53  1  0  0  0  0
 47 72  1  0  0  0  0
 48 53  1  0  0  0  0
 48 72  1  0  0  0  0
 49 78  1  0  0  0  0
 50 70  1  0  0  0  0
 50 78  1  0  0  0  0
 51 76  1  0  0  0  0
 52 71  1  0  0  0  0
 53 69  1  0  0  0  0
 54 64  1  0  0  0  0
 55 65  1  0  0  0  0
 56 65  1  0  0  0  0
 57 66  1  0  0  0  0
 58 66  1  0  0  0  0
 59 66  1  0  0  0  0
 60 79  1  0  0  0  0
 61 62  1  0  0  0  0
 61 78  1  0  0  0  0
 62 87  1  0  0  0  0
 63 66  1  0  0  0  0
 63 77  1  0  0  0  0
 64 79  1  0  0  0  0
 65 70  1  0  0  0  0
 67 69  1  0  0  0  0
M  CHG  2  78   1  79   1
M  ISO  4  38 100  62 101  75 100  87 101
M  END
> <Batch ID>
0130

> <Smiles>
CNC(C)C(=O)NC(C(=O)N1Cc2cc([101O:1][101CH2:1]CN3CCc4nc([100NH:0][100C:0](=O)N5CCCC(n6nc(-c7ccc(Oc8ccc(F)cc8F)cc7)c(C(N)=O)c6N)C5)ccc4C(=O)N(C(C)C)C3)ccc2CC1C(=O)NC1CCCc2ccccc21)C(C)(C)C

> <Shape>
0.297

> <Color>
0.103

> <Negative vol penalty>
0.000

$$$$

  -OEChem-04052320473D

 81 89  0     1  0  0  0  0  0999 V2000
  -33.4866  -29.1109   14.1098 C   0  0  0  0  0  0  0  0  0  0  0  0
  -34.1110  -28.0884   14.8169 C   0  0  0  0  0  0  0  0  0  0  0  0
  -31.7821  -15.6864   25.3133 C   0  0  0  0  0  0  0  0  0  0  0  0
  -23.7862   -9.5816   20.8198 C   0  0  0  0  0  0  0  0  0  0  0  0
  -24.3867  -10.3006   23.0468 C   0  0  0  0  0  0  0  0  0  0  0  0
  -32.2774  -29.6344   14.5654 C   0  0  0  0  0  0  0  0  0  0  0  0
  -33.5269  -27.5895   15.9807 C   0  0  0  0  0  0  0  0  0  0  0  0
  -33.6663  -21.8028   17.9810 C   0  0  0  0  0  0  0  0  0  0  0  0
  -23.2948   -8.3839   21.3390 C   0  0  0  0  0  0  0  0  0  0  0  0
  -23.8953   -9.1029   23.5660 C   0  0  0  0  0  0  0  0  0  0  0  0
  -34.4615  -21.1559   18.9260 C   0  0  0  0  0  0  0  0  0  0  0  0
  -22.2099   -4.9846   22.0400 C   0  0  0  0  0  0  0  0  0  0  0  0
  -22.5505   -3.8027   21.3822 C   0  0  0  0  0  0  0  0  0  0  0  0
  -33.0134  -16.2284   24.9622 C   0  0  0  0  0  0  0  0  0  0  0  0
  -31.0084  -15.0503   24.3488 C   0  0  0  0  0  0  0  0  0  0  0  0
  -32.7507  -21.4988   20.5917 C   0  0  0  0  0  0  0  0  0  0  0  0
  -24.8904   -4.2581   21.7756 C   0  0  0  0  0  0  0  0  0  0  0  0
  -24.3322  -10.5400   21.6737 C   0  0  0  0  0  0  0  0  0  0  0  0
  -24.1279  -12.9757   20.9433 C   0  0  0  0  0  0  0  0  0  0  0  0
  -31.6734  -29.1351   15.7300 C   0  0  0  0  0  0  0  0  0  0  0  0
  -32.4098  -22.3131   18.3377 C   0  0  0  0  0  0  0  0  0  0  0  0
  -32.3091  -28.1077   16.4530 C   0  0  0  0  0  0  0  0  0  0  0  0
  -31.9403  -22.1495   19.6488 C   0  0  0  0  0  0  0  0  0  0  0  0
  -23.3493   -8.1445   22.7120 C   0  0  0  0  0  0  0  0  0  0  0  0
  -34.0050  -21.0064   20.2322 C   0  0  0  0  0  0  0  0  0  0  0  0
  -23.2095   -5.8033   22.5656 C   0  0  0  0  0  0  0  0  0  0  0  0
  -23.8907   -3.4394   21.2500 C   0  0  0  0  0  0  0  0  0  0  0  0
  -24.5497   -5.4400   22.4334 C   0  0  0  0  0  0  0  0  0  0  0  0
  -24.8404  -11.7772   21.1379 C   0  0  0  0  0  0  0  0  0  0  0  0
  -33.4226  -16.1089   23.6439 C   0  0  0  0  0  0  0  0  0  0  0  0
  -31.5072  -14.9837   23.0578 C   0  0  0  0  0  0  0  0  0  0  0  0
  -25.0526  -13.8429   20.4148 C   0  0  0  0  0  0  0  0  0  0  0  0
  -22.7532  -13.2780   21.2159 C   0  0  0  0  0  0  0  0  0  0  0  0
  -31.0993  -25.2084   18.3981 C   0  0  0  0  0  0  0  0  0  0  0  0
  -28.4160  -23.5518   19.1580 C   0  0  0  0  0  0  0  0  0  0  0  0
  -27.0327  -20.7190   20.4654 C   0  0  0  0  0  0  0  0  0  0  0  0
  -31.0117  -14.1482   20.7334 C   0  0  0  0  0  0  0  0  0  0  0  0
  -30.3896  -29.7651   16.2093 C   0  0  0  0  0  0  0  0  0  0  0  0
  -31.5527  -22.9848   17.3000 C   0  0  0  0  0  0  0  0  0  0  0  0
  -30.5902  -22.6614   20.0774 C   0  0  0  0  0  0  0  0  0  0  0  0
  -29.6485  -28.9245   17.2460 C   0  0  0  0  0  0  0  0  0  0  0  0
  -29.0471  -13.9053   17.7739 C   0  0  0  0  0  0  0  0  0  0  0  0
  -30.6135  -28.4239   18.3160 C   0  0  0  0  0  0  0  0  0  0  0  0
  -27.6789  -13.4469   18.2837 C   0  0  0  0  0  0  0  0  0  0  0  0
  -30.1892  -13.2652   18.5612 C   0  0  0  0  0  0  0  0  0  0  0  0
  -28.7364  -12.9666   20.5282 C   0  0  0  0  0  0  0  0  0  0  0  0
  -31.6944  -27.5231   17.7062 C   0  0  1  0  0  0  0  0  0  0  0  0
  -30.5079  -23.9194   17.9018 C   0  0  1  0  0  0  0  0  0  0  0  0
  -27.5536  -13.6348   19.8083 C   0  0  2  0  0  0  0  0  0  0  0  0
  -24.8135  -19.6708   20.9883 C   0  0  0  0  0  0  0  0  0  0  0  0
  -28.1330  -25.3706   21.5915 C   0  0  0  0  0  0  0  0  0  0  0  0
  -26.5157  -23.7180   22.5516 C   0  0  0  0  0  0  0  0  0  0  0  0
  -25.9881  -24.8743   20.4051 C   0  0  0  0  0  0  0  0  0  0  0  0
  -27.5466  -18.4450   18.6423 C   0  0  0  0  0  0  0  0  0  0  0  0
  -34.7458  -16.6818   23.2293 C   0  0  0  0  0  0  0  0  0  0  0  0
  -35.9128  -18.3492   21.7814 C   0  0  0  0  0  0  0  0  0  0  0  0
  -35.6628  -19.3612   20.6808 C   0  0  0  0  0  0  0  0  0  1  0  0
  -27.7750  -23.0861   20.4431 C   0  0  1  0  0  0  0  0  0  0  0  0
  -25.9245  -19.8133   19.9596 C   0  0  2  0  0  0  0  0  0  0  0  0
  -27.1293  -24.2542   21.2405 C   0  0  0  0  0  0  0  0  0  0  0  0
  -26.1191  -11.8709   20.7634 N   0  0  0  0  0  0  0  0  0  0  0  0
  -32.6986  -15.4983   22.6792 N   0  0  0  0  0  0  0  0  0  0  0  0
  -26.2173  -13.1386   20.3281 N   0  0  0  0  0  0  0  0  0  0  0  0
  -29.7920  -23.3165   19.0280 N   0  0  0  0  0  0  0  0  0  0  0  0
  -30.0058  -13.4875   19.9971 N   0  0  0  0  0  0  0  0  0  0  0  0
  -24.9749  -15.1317   20.0205 N   0  0  0  0  0  0  0  0  0  0  0  0
  -21.9427  -12.2715   21.7586 N   0  0  0  0  0  0  0  0  0  0  0  0
  -30.7120  -14.3317   22.0829 N   0  0  0  0  0  0  0  0  0  0  0  0
  -31.1624  -26.2036   17.4414 N   0  0  0  0  0  0  0  0  0  0  0  0
  -26.8420  -22.0272   20.0735 N   0  0  0  0  0  0  0  0  0  0  0  0
  -26.4618  -18.4565   19.6572 N   0  3  0  0  0  0  0  0  0  0  0  0
  -34.6255  -17.7204   22.1707 N   0  3  0  0  0  0  0  0  0  0  0  0
  -22.2540  -14.4022   20.9698 O   0  0  0  0  0  0  0  0  0  0  0  0
  -31.4695  -25.2943   19.5631 O   0  0  0  0  0  0  0  0  0  0  0  0
  -27.7199  -24.0976   18.2983 O   0  0  0  0  0  0  0  0  0  0  0  0
  -27.9716  -20.3079   21.1436 O   0  0  0  0  0  0  0  0  0  0  0  0
  -32.0499  -14.5479   20.2000 O   0  0  0  0  0  0  0  0  0  0  0  0
  -22.8697   -6.9760   23.2190 O   0  0  0  0  0  0  0  0  0  0  0  0
  -34.7795  -20.3760   21.1567 O   0  0  0  0  0  0  0  0  0  1  0  0
  -24.2175   -2.3037   20.6196 F   0  0  0  0  0  0  0  0  0  0  0  0
  -25.5144   -6.2219   22.9372 F   0  0  0  0  0  0  0  0  0  0  0  0
  1  2  1  0  0  0  0
  1  6  2  0  0  0  0
  2  7  2  0  0  0  0
  3 14  2  0  0  0  0
  3 15  1  0  0  0  0
  4  9  2  0  0  0  0
  4 18  1  0  0  0  0
  5 10  1  0  0  0  0
  5 18  2  0  0  0  0
  6 20  1  0  0  0  0
  7 22  1  0  0  0  0
  8 11  2  0  0  0  0
  8 21  1  0  0  0  0
  9 24  1  0  0  0  0
 10 24  2  0  0  0  0
 11 25  1  0  0  0  0
 12 13  2  0  0  0  0
 12 26  1  0  0  0  0
 13 27  1  0  0  0  0
 14 30  1  0  0  0  0
 15 31  2  0  0  0  0
 16 23  1  0  0  0  0
 16 25  2  0  0  0  0
 17 27  2  0  0  0  0
 17 28  1  0  0  0  0
 18 29  1  0  0  0  0
 19 29  1  0  0  0  0
 19 32  2  0  0  0  0
 19 33  1  0  0  0  0
 20 22  2  0  0  0  0
 20 38  1  0  0  0  0
 21 23  2  0  0  0  0
 21 39  1  0  0  0  0
 22 47  1  0  0  0  0
 23 40  1  0  0  0  0
 24 78  1  0  0  0  0
 25 79  1  0  0  0  0
 26 28  2  0  0  0  0
 26 78  1  0  0  0  0
 27 80  1  0  0  0  0
 28 81  1  0  0  0  0
 29 61  2  0  0  0  0
 30 55  1  0  0  0  0
 30 62  2  0  0  0  0
 31 62  1  0  0  0  0
 31 68  1  0  0  0  0
 32 63  1  0  0  0  0
 32 66  1  0  0  0  0
 33 67  1  0  0  0  0
 33 73  2  0  0  0  0
 34 48  1  0  0  0  0
 34 69  1  0  0  0  0
 34 74  2  0  0  0  0
 35 58  1  0  0  0  0
 35 64  1  0  0  0  0
 35 75  2  0  0  0  0
 36 59  1  0  0  0  0
 36 70  1  0  0  0  0
 36 76  2  0  0  0  0
 37 65  1  0  0  0  0
 37 68  1  0  0  0  0
 37 77  2  0  0  0  0
 38 41  1  0  0  0  0
 39 48  1  0  0  0  0
 40 64  1  0  0  0  0
 41 43  1  0  0  0  0
 42 44  1  0  0  0  0
 42 45  1  0  0  0  0
 43 47  1  0  0  0  0
 44 49  1  0  0  0  0
 45 65  1  0  0  0  0
 46 49  1  0  0  0  0
 46 65  1  0  0  0  0
 47 69  1  0  0  0  0
 48 64  1  0  0  0  0
 49 63  1  0  0  0  0
 50 59  1  0  0  0  0
 51 60  1  0  0  0  0
 52 60  1  0  0  0  0
 53 60  1  0  0  0  0
 54 71  1  0  0  0  0
 55 72  1  0  0  0  0
 56 57  1  0  0  0  0
 56 72  1  0  0  0  0
 57 79  1  0  0  0  0
 58 60  1  0  0  0  0
 58 70  1  0  0  0  0
 59 71  1  0  0  0  0
 61 63  1  0  0  0  0
M  CHG  2  71   1  72   1
M  ISO  4  37 100  57 101  68 100  79 101
M  END
> <Batch ID>
0130

> <Smiles>
CNC(C)C(=O)NC(C(=O)N1Cc2cc([101O:1][101CH2:1]CNCc3cccc([100NH:0][100C:0](=O)N4CCCC(n5nc(-c6ccc(Oc7ccc(F)cc7F)cc6)c(C(N)=O)c5N)C4)n3)ccc2CC1C(=O)NC1CCCc2ccccc21)C(C)(C)C

> <Shape>
0.206

> <Color>
0.145

> <Negative vol penalty>
0.000

$$$$

  -OEChem-04052320473D

 87 96  0     1  0  0  0  0  0999 V2000
  -21.2864  -29.8055   14.3574 C   0  0  0  0  0  0  0  0  0  0  0  0
  -22.4658  -29.3394   14.9294 C   0  0  0  0  0  0  0  0  0  0  0  0
  -23.4311  -10.9969   22.0152 C   0  0  0  0  0  0  0  0  0  0  0  0
  -24.2227   -9.3153   20.4716 C   0  0  0  0  0  0  0  0  0  0  0  0
  -20.7705  -31.0438   14.7375 C   0  0  0  0  0  0  0  0  0  0  0  0
  -23.1307  -30.1118   15.8810 C   0  0  0  0  0  0  0  0  0  0  0  0
  -24.6628  -27.3896   19.8669 C   0  0  0  0  0  0  0  0  0  0  0  0
  -22.1507  -10.4465   21.9582 C   0  0  0  0  0  0  0  0  0  0  0  0
  -22.9423   -8.7648   20.4147 C   0  0  0  0  0  0  0  0  0  0  0  0
  -25.8101  -26.6142   19.7052 C   0  0  0  0  0  0  0  0  0  0  0  0
  -19.9636   -6.6980   20.1425 C   0  0  0  0  0  0  0  0  0  0  0  0
  -19.8490   -5.3105   20.2276 C   0  0  0  0  0  0  0  0  0  0  0  0
  -27.1063  -28.3081   20.8320 C   0  0  0  0  0  0  0  0  0  0  0  0
  -29.5698  -23.2779   20.1556 C   0  0  0  0  0  0  0  0  0  0  0  0
  -20.8964   -5.3577   22.4043 C   0  0  0  0  0  0  0  0  0  0  0  0
  -30.3102  -24.7534   18.4436 C   0  0  0  0  0  0  0  0  0  0  0  0
  -24.4671  -10.4313   21.2718 C   0  0  0  0  0  0  0  0  0  0  0  0
  -26.8215  -10.6624   22.2261 C   0  0  0  0  0  0  0  0  0  0  0  0
  -21.4243  -31.8275   15.7014 C   0  0  0  0  0  0  0  0  0  0  0  0
  -24.7307  -28.6371   20.5037 C   0  0  0  0  0  0  0  0  0  0  0  0
  -22.6238  -31.3624   16.2734 C   0  0  0  0  0  0  0  0  0  0  0  0
  -25.9580  -29.0962   21.0028 C   0  0  0  0  0  0  0  0  0  0  0  0
  -29.3117  -24.3580   19.3190 C   0  0  0  0  0  0  0  0  0  0  0  0
  -30.8011  -22.6351   20.0921 C   0  0  0  0  0  0  0  0  0  0  0  0
  -21.9063   -9.3305   21.1580 C   0  0  0  0  0  0  0  0  0  0  0  0
  -27.0326  -27.0746   20.1853 C   0  0  0  0  0  0  0  0  0  0  0  0
  -20.5447   -7.4154   21.1881 C   0  0  0  0  0  0  0  0  0  0  0  0
  -20.3154   -4.6403   21.3586 C   0  0  0  0  0  0  0  0  0  0  0  0
  -21.0111   -6.7452   22.3191 C   0  0  0  0  0  0  0  0  0  0  0  0
  -25.7898  -10.9998   21.3298 C   0  0  0  0  0  0  0  0  0  0  0  0
  -31.7329  -23.1075   19.1818 C   0  0  0  0  0  0  0  0  0  0  0  0
  -27.8664  -11.4797   21.8703 C   0  0  0  0  0  0  0  0  0  0  0  0
  -26.8343   -9.6965   23.2856 C   0  0  0  0  0  0  0  0  0  0  0  0
  -24.1436  -31.6364   19.6302 C   0  0  0  0  0  0  0  0  0  0  0  0
  -24.6985  -32.2472   22.7673 C   0  0  0  0  0  0  0  0  0  0  0  0
  -26.1739  -31.2832   25.6898 C   0  0  0  0  0  0  0  0  0  0  0  0
  -29.9680  -16.2234   20.4913 C   0  0  0  0  0  0  0  0  0  0  0  0
  -20.8537  -33.1805   16.0456 C   0  0  0  0  0  0  0  0  0  0  0  0
  -23.4791  -29.4494   20.6939 C   0  0  0  0  0  0  0  0  0  0  0  0
  -26.0806  -30.4193   21.7118 C   0  0  0  0  0  0  0  0  0  0  0  0
  -21.4192  -33.7699   17.3352 C   0  0  0  0  0  0  0  0  0  0  0  0
  -28.5148  -14.4450   17.8326 C   0  0  0  0  0  0  0  0  0  0  0  0
  -22.9382  -33.6338   17.3632 C   0  0  0  0  0  0  0  0  0  0  0  0
  -27.7506  -13.3528   18.5802 C   0  0  0  0  0  0  0  0  0  0  0  0
  -28.4126  -15.7999   18.5352 C   0  0  0  0  0  0  0  0  0  0  0  0
  -29.6352  -18.3947   19.2268 C   0  0  0  0  0  0  0  0  0  0  0  0
  -31.8373  -17.8161   20.1777 C   0  0  0  0  0  0  0  0  0  0  0  0
  -28.0462  -14.6760   20.7081 C   0  0  0  0  0  0  0  0  0  0  0  0
  -29.6253  -19.6984   20.0187 C   0  0  0  0  0  0  0  0  0  0  0  0
  -31.8497  -19.0941   21.0004 C   0  0  0  0  0  0  0  0  0  0  0  0
  -23.3608  -32.1601   17.3272 C   0  0  1  0  0  0  0  0  0  0  0  0
  -23.7569  -30.9350   20.9015 C   0  0  1  0  0  0  0  0  0  0  0  0
  -28.1796  -13.2907   20.0569 C   0  0  1  0  0  0  0  0  0  0  0  0
  -34.2229  -23.4143   19.4250 C   0  0  0  0  0  0  0  0  0  0  0  0
  -33.3112  -21.8434   17.6768 C   0  0  0  0  0  0  0  0  0  0  0  0
  -26.4815  -32.0059   28.0732 C   0  0  0  0  0  0  0  0  0  0  0  0
  -26.7537  -34.3170   21.8719 C   0  0  0  0  0  0  0  0  0  0  0  0
  -27.6757  -34.3061   24.1996 C   0  0  0  0  0  0  0  0  0  0  0  0
  -25.3235  -35.0313   23.7951 C   0  0  0  0  0  0  0  0  0  0  0  0
  -24.8196  -28.8620   26.7204 C   0  0  0  0  0  0  0  0  0  0  0  0
  -31.0869  -21.4701   20.9932 C   0  0  0  0  0  0  0  0  0  0  0  0
  -28.0047  -25.0664   19.3618 C   0  0  0  0  0  0  0  0  0  1  0  0
  -33.0722  -22.4555   19.0690 C   0  0  0  0  0  0  0  0  0  0  0  0
  -25.9178  -32.5823   23.5919 C   0  0  1  0  0  0  0  0  0  0  0  0
  -25.6368  -31.1904   27.1066 C   0  0  2  0  0  0  0  0  0  0  0  0
  -26.4160  -34.0351   23.3496 C   0  0  0  0  0  0  0  0  0  0  0  0
  -31.5185  -24.1538   18.3531 N   0  0  0  0  0  0  0  0  0  0  0  0
  -26.1468  -11.9570   20.4693 N   0  0  0  0  0  0  0  0  0  0  0  0
  -27.4145  -12.2281   20.8234 N   0  0  0  0  0  0  0  0  0  0  0  0
  -24.8297  -31.1799   21.8676 N   0  0  0  0  0  0  0  0  0  0  0  0
  -28.7921  -15.6828   19.9501 N   0  0  0  0  0  0  0  0  0  0  0  0
  -30.4713  -17.3855   19.8880 N   0  0  0  0  0  0  0  0  0  0  0  0
  -29.1185  -11.6241   22.3539 N   0  0  0  0  0  0  0  0  0  0  0  0
  -25.6761   -8.9415   23.5154 N   0  0  0  0  0  0  0  0  0  0  0  0
  -23.1929  -31.5543   18.6308 N   0  0  0  0  0  0  0  0  0  0  0  0
  -25.5648  -32.2950   24.9780 N   0  0  0  0  0  0  0  0  0  0  0  0
  -31.0429  -20.1483   20.2788 N   0  3  0  0  0  0  0  0  0  0  0  0
  -25.6321  -29.7730   27.5670 N   0  3  0  0  0  0  0  0  0  0  0  0
  -27.8374   -9.5201   24.0178 O   0  0  0  0  0  0  0  0  0  0  0  0
  -25.2239  -32.2108   19.5617 O   0  0  0  0  0  0  0  0  0  0  0  0
  -23.6654  -32.9034   22.9212 O   0  0  0  0  0  0  0  0  0  0  0  0
  -27.0490  -30.5356   25.2589 O   0  0  0  0  0  0  0  0  0  0  0  0
  -30.5350  -15.6986   21.4581 O   0  0  0  0  0  0  0  0  0  0  0  0
  -20.6570   -8.7930   21.1024 O   0  0  0  0  0  0  0  0  0  0  0  0
  -28.1614  -26.3152   20.0272 O   0  0  0  0  0  0  0  0  0  1  0  0
  -20.2038   -3.3081   21.4409 F   0  0  0  0  0  0  0  0  0  0  0  0
  -21.5692   -7.4291   23.3274 F   0  0  0  0  0  0  0  0  0  0  0  0
  1  2  1  0  0  0  0
  1  5  2  0  0  0  0
  2  6  2  0  0  0  0
  3  8  2  0  0  0  0
  3 17  1  0  0  0  0
  4  9  1  0  0  0  0
  4 17  2  0  0  0  0
  5 19  1  0  0  0  0
  6 21  1  0  0  0  0
  7 10  2  0  0  0  0
  7 20  1  0  0  0  0
  8 25  1  0  0  0  0
  9 25  2  0  0  0  0
 10 26  1  0  0  0  0
 11 12  2  0  0  0  0
 11 27  1  0  0  0  0
 12 28  1  0  0  0  0
 13 22  1  0  0  0  0
 13 26  2  0  0  0  0
 14 23  2  0  0  0  0
 14 24  1  0  0  0  0
 15 28  2  0  0  0  0
 15 29  1  0  0  0  0
 16 23  1  0  0  0  0
 16 67  2  0  0  0  0
 17 30  1  0  0  0  0
 18 30  1  0  0  0  0
 18 32  2  0  0  0  0
 18 33  1  0  0  0  0
 19 21  2  0  0  0  0
 19 38  1  0  0  0  0
 20 22  2  0  0  0  0
 20 39  1  0  0  0  0
 21 51  1  0  0  0  0
 22 40  1  0  0  0  0
 23 62  1  0  0  0  0
 24 31  2  0  0  0  0
 24 61  1  0  0  0  0
 25 84  1  0  0  0  0
 26 85  1  0  0  0  0
 27 29  2  0  0  0  0
 27 84  1  0  0  0  0
 28 86  1  0  0  0  0
 29 87  1  0  0  0  0
 30 68  2  0  0  0  0
 31 63  1  0  0  0  0
 31 67  1  0  0  0  0
 32 69  1  0  0  0  0
 32 73  1  0  0  0  0
 33 74  1  0  0  0  0
 33 79  2  0  0  0  0
 34 52  1  0  0  0  0
 34 75  1  0  0  0  0
 34 80  2  0  0  0  0
 35 64  1  0  0  0  0
 35 70  1  0  0  0  0
 35 81  2  0  0  0  0
 36 65  1  0  0  0  0
 36 76  1  0  0  0  0
 36 82  2  0  0  0  0
 37 71  1  0  0  0  0
 37 72  1  0  0  0  0
 37 83  2  0  0  0  0
 38 41  1  0  0  0  0
 39 52  1  0  0  0  0
 40 70  1  0  0  0  0
 41 43  1  0  0  0  0
 42 44  1  0  0  0  0
 42 45  1  0  0  0  0
 43 51  1  0  0  0  0
 44 53  1  0  0  0  0
 45 71  1  0  0  0  0
 46 49  1  0  0  0  0
 46 72  1  0  0  0  0
 47 50  1  0  0  0  0
 47 72  1  0  0  0  0
 48 53  1  0  0  0  0
 48 71  1  0  0  0  0
 49 77  1  0  0  0  0
 50 77  1  0  0  0  0
 51 75  1  0  0  0  0
 52 70  1  0  0  0  0
 53 69  1  0  0  0  0
 54 63  1  0  0  0  0
 55 63  1  0  0  0  0
 56 65  1  0  0  0  0
 57 66  1  0  0  0  0
 58 66  1  0  0  0  0
 59 66  1  0  0  0  0
 60 78  1  0  0  0  0
 61 77  1  0  0  0  0
 62 85  1  0  0  0  0
 64 66  1  0  0  0  0
 64 76  1  0  0  0  0
 65 78  1  0  0  0  0
 68 69  1  0  0  0  0
M  CHG  2  77   1  78   1
M  ISO  4  37 100  62 101  72 100  85 101
M  END
> <Batch ID>
0130

> <Smiles>
CNC(C)C(=O)NC(C(=O)N1Cc2cc([101O:1][101CH2:1]c3cnc(C(C)C)c(CN4CC[100N:0]([100C:0](=O)N5CCCC(n6nc(-c7ccc(Oc8ccc(F)cc8F)cc7)c(C(N)=O)c6N)C5)CC4)c3)ccc2CC1C(=O)NC1CCCc2ccccc21)C(C)(C)C

> <Shape>
0.298

> <Color>
0.083

> <Negative vol penalty>
0.000

$$$$

  -OEChem-04052320473D

 91101  0     1  0  0  0  0  0999 V2000
  -29.2714  -34.6079   25.3997 C   0  0  0  0  0  0  0  0  0  0  0  0
  -29.2041  -33.3098   24.9040 C   0  0  0  0  0  0  0  0  0  0  0  0
  -28.5227  -12.4675   20.9145 C   0  0  0  0  0  0  0  0  0  0  0  0
  -27.8348  -12.8908   18.6375 C   0  0  0  0  0  0  0  0  0  0  0  0
  -28.1002  -35.2886   25.7294 C   0  0  0  0  0  0  0  0  0  0  0  0
  -27.9654  -32.6911   24.7388 C   0  0  0  0  0  0  0  0  0  0  0  0
  -27.5746  -30.2796   20.3029 C   0  0  0  0  0  0  0  0  0  0  0  0
  -29.8359  -12.2806   20.4831 C   0  0  0  0  0  0  0  0  0  0  0  0
  -29.1481  -12.7040   18.2061 C   0  0  0  0  0  0  0  0  0  0  0  0
  -28.2007  -29.0385   20.1956 C   0  0  0  0  0  0  0  0  0  0  0  0
  -32.0230  -14.4792   18.1406 C   0  0  0  0  0  0  0  0  0  0  0  0
  -32.5409  -15.3987   17.2286 C   0  0  0  0  0  0  0  0  0  0  0  0
  -26.0810  -27.9448   20.5563 C   0  0  0  0  0  0  0  0  0  0  0  0
  -32.9030  -13.6168   15.6378 C   0  0  0  0  0  0  0  0  0  0  0  0
  -26.8425  -19.3705   23.1773 C   0  0  0  0  0  0  0  0  0  0  0  0
  -27.5221  -12.7725   19.9917 C   0  0  0  0  0  0  0  0  0  0  0  0
  -25.3492  -12.0324   21.1045 C   0  0  0  0  0  0  0  0  0  0  0  0
  -26.8460  -34.6815   25.5590 C   0  0  0  0  0  0  0  0  0  0  0  0
  -26.1966  -30.3627   20.5490 C   0  0  0  0  0  0  0  0  0  0  0  0
  -26.7763  -33.3638   25.0678 C   0  0  0  0  0  0  0  0  0  0  0  0
  -25.4395  -29.1882   20.6638 C   0  0  0  0  0  0  0  0  0  0  0  0
  -27.0505  -21.4861   22.4350 C   0  0  0  0  0  0  0  0  0  0  0  0
  -27.6107  -20.1862   22.3762 C   0  0  0  0  0  0  0  0  0  0  0  0
  -30.1486  -12.3989   19.1289 C   0  0  0  0  0  0  0  0  0  0  0  0
  -27.4544  -27.8709   20.3251 C   0  0  0  0  0  0  0  0  0  0  0  0
  -31.9452  -13.1285   17.8013 C   0  0  0  0  0  0  0  0  0  0  0  0
  -32.9809  -14.9675   15.9771 C   0  0  0  0  0  0  0  0  0  0  0  0
  -32.3851  -12.6973   16.5499 C   0  0  0  0  0  0  0  0  0  0  0  0
  -26.1653  -12.9651   20.4367 C   0  0  0  0  0  0  0  0  0  0  0  0
  -25.9570  -21.4253   23.2705 C   0  0  0  0  0  0  0  0  0  0  0  0
  -24.1631  -12.6954   21.3048 C   0  0  0  0  0  0  0  0  0  0  0  0
  -25.6375  -10.6871   21.5078 C   0  0  0  0  0  0  0  0  0  0  0  0
  -24.4033  -31.5590   22.8850 C   0  0  0  0  0  0  0  0  0  0  0  0
  -21.9695  -30.7813   20.8866 C   0  0  0  0  0  0  0  0  0  0  0  0
  -20.8419  -28.8498   18.3088 C   0  0  0  0  0  0  0  0  0  0  0  0
  -22.7575  -18.5004   21.7265 C   0  0  0  0  0  0  0  0  0  0  0  0
  -25.6100  -35.4398   25.9738 C   0  0  0  0  0  0  0  0  0  0  0  0
  -25.5317  -31.7091   20.6355 C   0  0  0  0  0  0  0  0  0  0  0  0
  -23.9537  -29.2231   20.9081 C   0  0  0  0  0  0  0  0  0  0  0  0
  -24.3174  -34.8494   25.4163 C   0  0  0  0  0  0  0  0  0  0  0  0
  -21.4329  -16.1395   19.4139 C   0  0  0  0  0  0  0  0  0  0  0  0
  -27.9777  -17.4551   18.7895 C   0  0  0  0  0  0  0  0  0  0  0  0
  -28.0082  -23.8155   22.6951 C   0  0  0  0  0  0  0  0  0  0  0  0
  -26.5235  -23.2649   20.7123 C   0  0  0  0  0  0  0  0  0  0  0  0
  -24.2957  -33.3362   25.6075 C   0  0  0  0  0  0  0  0  0  0  0  0
  -22.4219  -14.9740   19.4741 C   0  0  0  0  0  0  0  0  0  0  0  0
  -28.5252  -25.0480   21.9576 C   0  0  0  0  0  0  0  0  0  0  0  0
  -27.0486  -24.4999   19.9850 C   0  0  0  0  0  0  0  0  0  0  0  0
  -27.6385  -18.0182   20.1569 C   0  0  0  0  0  0  0  0  0  0  0  0
  -22.1388  -17.4865   19.5527 C   0  0  0  0  0  0  0  0  0  0  0  0
  -23.9926  -16.4475   20.8008 C   0  0  0  0  0  0  0  0  0  0  0  0
  -29.4726  -17.6822   18.6841 C   0  0  0  0  0  0  0  0  0  0  0  0
  -27.5592  -22.7199   21.7119 C   0  0  0  0  0  0  0  0  0  0  0  0
  -25.4501  -32.6679   24.8511 C   0  0  1  0  0  0  0  0  0  0  0  0
  -24.2115  -31.6756   21.3993 C   0  0  1  0  0  0  0  0  0  0  0  0
  -23.3214  -15.0657   20.7214 C   0  0  2  0  0  0  0  0  0  0  0  0
  -27.4965  -25.5833   20.9631 C   0  0  0  0  0  0  0  0  0  1  0  0
  -28.4540  -19.3019   20.2032 C   0  0  1  0  0  0  0  0  0  0  0  0
  -25.0126  -22.4846   23.6842 C   0  0  0  0  0  0  0  0  0  0  0  0
  -18.7970  -28.4159   16.9205 C   0  0  0  0  0  0  0  0  0  0  0  0
  -20.7284  -29.2314   23.2034 C   0  0  0  0  0  0  0  0  0  0  0  0
  -19.2514  -28.0736   21.5463 C   0  0  0  0  0  0  0  0  0  0  0  0
  -19.0987  -30.5465   21.8363 C   0  0  0  0  0  0  0  0  0  0  0  0
  -22.2263  -29.6374   15.8144 C   0  0  0  0  0  0  0  0  0  0  0  0
  -28.7977  -19.7705   21.6025 C   0  0  0  0  0  0  0  0  0  0  0  0
  -24.8230  -19.6366   24.6156 C   0  0  0  0  0  0  0  0  0  0  0  0
  -23.4834  -19.3936   23.9253 C   0  0  0  0  0  0  0  0  0  0  0  0
  -21.1126  -29.5572   20.6712 C   0  0  1  0  0  0  0  0  0  0  0  0
  -20.0920  -29.2046   17.0375 C   0  0  2  0  0  0  0  0  0  0  0  0
  -20.0761  -29.3512   21.8116 C   0  0  0  0  0  0  0  0  0  0  0  0
  -25.5496  -14.1316   20.2266 N   0  0  0  0  0  0  0  0  0  0  0  0
  -25.8403  -20.1345   23.7160 N   0  0  0  0  0  0  0  0  0  0  0  0
  -24.3341  -13.9364   20.7655 N   0  0  0  0  0  0  0  0  0  0  0  0
  -23.3506  -30.5636   20.9914 N   0  0  0  0  0  0  0  0  0  0  0  0
  -22.9741  -17.5084   20.7559 N   0  0  0  0  0  0  0  0  0  0  0  0
  -23.0010  -12.3321   21.8878 N   0  0  0  0  0  0  0  0  0  0  0  0
  -25.3576   -9.6464   20.6117 N   0  0  0  0  0  0  0  0  0  0  0  0
  -25.1471  -32.5837   23.4384 N   0  0  0  0  0  0  0  0  0  0  0  0
  -20.5214  -29.7010   19.3452 N   0  0  0  0  0  0  0  0  0  0  0  0
  -23.5886  -18.4453   22.8388 N   0  0  0  0  0  0  0  0  0  0  0  0
  -29.7112  -18.9542   19.4482 N   0  3  0  0  0  0  0  0  0  0  0  0
  -20.9313  -28.9101   15.8417 N   0  3  0  0  0  0  0  0  0  0  0  0
  -26.1135  -10.4145   22.6359 O   0  0  0  0  0  0  0  0  0  0  0  0
  -23.9117  -30.6103   23.4851 O   0  0  0  0  0  0  0  0  0  0  0  0
  -21.4338  -31.8905   20.9521 O   0  0  0  0  0  0  0  0  0  0  0  0
  -21.6301  -27.9093   18.3768 O   0  0  0  0  0  0  0  0  0  0  0  0
  -21.8844  -19.3674   21.6130 O   0  0  0  0  0  0  0  0  0  0  0  0
  -31.4300  -12.2169   18.7076 O   0  0  0  0  0  0  0  0  0  0  0  0
  -28.0631  -26.6582   20.2214 O   0  0  0  0  0  0  0  0  0  1  0  0
  -33.4767  -15.8509   15.1008 F   0  0  0  0  0  0  0  0  0  0  0  0
  -32.3118  -11.4011   16.2178 F   0  0  0  0  0  0  0  0  0  0  0  0
  1  2  1  0  0  0  0
  1  5  2  0  0  0  0
  2  6  2  0  0  0  0
  3  8  2  0  0  0  0
  3 16  1  0  0  0  0
  4  9  1  0  0  0  0
  4 16  2  0  0  0  0
  5 18  1  0  0  0  0
  6 20  1  0  0  0  0
  7 10  2  0  0  0  0
  7 19  1  0  0  0  0
  8 24  1  0  0  0  0
  9 24  2  0  0  0  0
 10 25  1  0  0  0  0
 11 12  2  0  0  0  0
 11 26  1  0  0  0  0
 12 27  1  0  0  0  0
 13 21  1  0  0  0  0
 13 25  2  0  0  0  0
 14 27  2  0  0  0  0
 14 28  1  0  0  0  0
 15 23  2  0  0  0  0
 15 72  1  0  0  0  0
 16 29  1  0  0  0  0
 17 29  1  0  0  0  0
 17 31  2  0  0  0  0
 17 32  1  0  0  0  0
 18 20  2  0  0  0  0
 18 37  1  0  0  0  0
 19 21  2  0  0  0  0
 19 38  1  0  0  0  0
 20 54  1  0  0  0  0
 21 39  1  0  0  0  0
 22 23  1  0  0  0  0
 22 30  2  0  0  0  0
 22 53  1  0  0  0  0
 23 65  1  0  0  0  0
 24 88  1  0  0  0  0
 25 89  1  0  0  0  0
 26 28  2  0  0  0  0
 26 88  1  0  0  0  0
 27 90  1  0  0  0  0
 28 91  1  0  0  0  0
 29 71  2  0  0  0  0
 30 59  1  0  0  0  0
 30 72  1  0  0  0  0
 31 73  1  0  0  0  0
 31 76  1  0  0  0  0
 32 77  1  0  0  0  0
 32 83  2  0  0  0  0
 33 55  1  0  0  0  0
 33 78  1  0  0  0  0
 33 84  2  0  0  0  0
 34 68  1  0  0  0  0
 34 74  1  0  0  0  0
 34 85  2  0  0  0  0
 35 69  1  0  0  0  0
 35 79  1  0  0  0  0
 35 86  2  0  0  0  0
 36 75  1  0  0  0  0
 36 80  1  0  0  0  0
 36 87  2  0  0  0  0
 37 40  1  0  0  0  0
 38 55  1  0  0  0  0
 39 74  1  0  0  0  0
 40 45  1  0  0  0  0
 41 46  1  0  0  0  0
 41 50  1  0  0  0  0
 42 49  1  0  0  0  0
 42 52  1  0  0  0  0
 43 47  1  0  0  0  0
 43 53  1  0  0  0  0
 44 48  1  0  0  0  0
 44 53  1  0  0  0  0
 45 54  1  0  0  0  0
 46 56  1  0  0  0  0
 47 57  1  0  0  0  0
 48 57  1  0  0  0  0
 49 58  1  0  0  0  0
 50 75  1  0  0  0  0
 51 56  1  0  0  0  0
 51 75  1  0  0  0  0
 52 81  1  0  0  0  0
 54 78  1  0  0  0  0
 55 74  1  0  0  0  0
 56 73  1  0  0  0  0
 57 89  1  0  0  0  0
 58 65  1  0  0  0  0
 58 81  1  0  0  0  0
 60 69  1  0  0  0  0
 61 70  1  0  0  0  0
 62 70  1  0  0  0  0
 63 70  1  0  0  0  0
 64 82  1  0  0  0  0
 66 67  1  0  0  0  0
 66 72  1  0  0  0  0
 67 80  1  0  0  0  0
 68 70  1  0  0  0  0
 68 79  1  0  0  0  0
 69 82  1  0  0  0  0
 71 73  1  0  0  0  0
M  CHG  2  81   1  82   1
M  ISO  4  36 100  57 101  80 100  89 101
M  END
> <Batch ID>
0130

> <Smiles>
CNC(C)C(=O)NC(C(=O)N1Cc2cc([101O:1][101CH:1]3CCC(c4c(CC5CCCN5)cn(CC[100NH:0][100C:0](=O)N5CCCC(n6nc(-c7ccc(Oc8ccc(F)cc8F)cc7)c(C(N)=O)c6N)C5)c4C)CC3)ccc2CC1C(=O)NC1CCCc2ccccc21)C(C)(C)C

> <Shape>
0.270

> <Color>
0.084

> <Negative vol penalty>
0.000

$$$$

  -OEChem-04052320473D

 84 92  0     1  0  0  0  0  0999 V2000
  -28.4524  -24.1758   17.7912 C   0  0  0  0  0  0  0  0  0  0  0  0
  -27.2474  -24.4259   18.4399 C   0  0  0  0  0  0  0  0  0  0  0  0
  -26.3879  -12.8427   20.2106 C   0  0  0  0  0  0  0  0  0  0  0  0
  -23.9819  -12.8988   20.4221 C   0  0  0  0  0  0  0  0  0  0  0  0
  -29.6275  -24.7669   18.2535 C   0  0  0  0  0  0  0  0  0  0  0  0
  -27.2170  -25.2664   19.5521 C   0  0  0  0  0  0  0  0  0  0  0  0
  -23.3712  -28.5574   19.3955 C   0  0  0  0  0  0  0  0  0  0  0  0
  -26.4246  -11.6559   20.9424 C   0  0  0  0  0  0  0  0  0  0  0  0
  -24.0185  -11.7119   21.1539 C   0  0  0  0  0  0  0  0  0  0  0  0
  -22.1072  -28.0761   19.7337 C   0  0  0  0  0  0  0  0  0  0  0  0
  -24.3335   -8.4070   20.5225 C   0  0  0  0  0  0  0  0  0  0  0  0
  -23.4050   -7.4181   20.1976 C   0  0  0  0  0  0  0  0  0  0  0  0
  -22.3431  -29.0237   21.9395 C   0  0  0  0  0  0  0  0  0  0  0  0
  -22.5162   -7.5152   22.4421 C   0  0  0  0  0  0  0  0  0  0  0  0
  -25.1665  -13.4642   19.9505 C   0  0  0  0  0  0  0  0  0  0  0  0
  -25.0083  -14.8256   17.7989 C   0  0  0  0  0  0  0  0  0  0  0  0
  -29.6099  -25.6228   19.3661 C   0  0  0  0  0  0  0  0  0  0  0  0
  -24.1365  -29.2672   20.3319 C   0  0  0  0  0  0  0  0  0  0  0  0
  -28.3931  -25.8685   20.0306 C   0  0  0  0  0  0  0  0  0  0  0  0
  -23.6155  -29.5151   21.6099 C   0  0  0  0  0  0  0  0  0  0  0  0
  -25.2399  -11.0904   21.4141 C   0  0  0  0  0  0  0  0  0  0  0  0
  -21.5941  -28.3067   21.0068 C   0  0  0  0  0  0  0  0  0  0  0  0
  -24.3534   -8.9499   21.8073 C   0  0  0  0  0  0  0  0  0  0  0  0
  -22.4963   -6.9722   21.1574 C   0  0  0  0  0  0  0  0  0  0  0  0
  -23.4447   -8.5041   22.7670 C   0  0  0  0  0  0  0  0  0  0  0  0
  -25.1280  -14.6906   19.1950 C   0  0  0  0  0  0  0  0  0  0  0  0
  -25.0200  -16.1819   17.5828 C   0  0  0  0  0  0  0  0  0  0  0  0
  -24.8963  -13.8152   16.7877 C   0  0  0  0  0  0  0  0  0  0  0  0
  -26.9489  -28.8086   21.7403 C   0  0  0  0  0  0  0  0  0  0  0  0
  -26.4047  -31.7812   22.9190 C   0  0  0  0  0  0  0  0  0  0  0  0
  -24.1451  -34.2036   23.7397 C   0  0  0  0  0  0  0  0  0  0  0  0
  -23.5733  -20.8702   21.0146 C   0  0  0  0  0  0  0  0  0  0  0  0
  -30.9131  -26.2011   19.8577 C   0  0  0  0  0  0  0  0  0  0  0  0
  -25.4871  -29.8028   19.9429 C   0  0  0  0  0  0  0  0  0  0  0  0
  -24.3886  -30.2893   22.6450 C   0  0  0  0  0  0  0  0  0  0  0  0
  -30.7351  -27.3763   20.8156 C   0  0  0  0  0  0  0  0  0  0  0  0
  -26.7073  -20.2551   19.4410 C   0  0  0  0  0  0  0  0  0  0  0  0
  -29.6827  -27.0503   21.8707 C   0  0  0  0  0  0  0  0  0  0  0  0
  -26.6471  -18.7714   19.0736 C   0  0  0  0  0  0  0  0  0  0  0  0
  -26.0158  -20.5350   20.7735 C   0  0  0  0  0  0  0  0  0  0  0  0
  -24.5684  -18.5592   20.4992 C   0  0  0  0  0  0  0  0  0  0  0  0
  -18.5039  -22.6478   18.8652 C   0  0  0  0  0  0  0  0  0  0  0  0
  -28.3155  -26.7941   21.2253 C   0  0  1  0  0  0  0  0  0  0  0  0
  -26.3922  -30.0693   21.1417 C   0  0  1  0  0  0  0  0  0  0  0  0
  -25.2039  -18.2363   19.1361 C   0  0  2  0  0  0  0  0  0  0  0  0
  -19.2717  -22.4576   20.1702 C   0  0  1  0  0  0  0  0  0  0  0  0
  -18.4825  -24.6026   21.0087 C   0  0  2  0  0  0  0  0  0  0  0  0
  -17.6814  -24.8507   19.7161 C   0  0  2  0  0  0  0  0  0  0  0  0
  -23.9975  -36.5098   24.7179 C   0  0  0  0  0  0  0  0  0  0  0  0
  -15.6658  -25.8573   18.6081 C   0  0  0  0  0  0  0  0  0  0  0  0
  -15.4736  -24.8761   20.9111 C   0  0  0  0  0  0  0  0  0  0  0  0
  -26.8786  -30.6277   25.7038 C   0  0  0  0  0  0  0  0  0  0  0  0
  -25.8074  -32.6789   26.6596 C   0  0  0  0  0  0  0  0  0  0  0  0
  -27.9013  -32.8772   25.3184 C   0  0  0  0  0  0  0  0  0  0  0  0
  -22.9420  -35.3006   21.2683 C   0  0  0  0  0  0  0  0  0  0  0  0
  -20.5302  -21.6269   19.9276 C   0  0  0  0  0  0  0  0  0  0  0  0
  -18.9768  -25.8993   21.6242 C   0  0  0  0  0  0  0  0  0  0  0  0
  -21.1060  -21.0498   21.2129 C   0  0  0  0  0  0  0  0  0  0  0  0
  -19.9253  -26.6412   20.6950 C   0  0  0  0  0  0  0  0  0  1  0  0
  -25.7264  -32.3362   24.1482 C   0  0  1  0  0  0  0  0  0  0  0  0
  -24.1104  -35.6915   23.4411 C   0  0  2  0  0  0  0  0  0  0  0  0
  -16.3836  -25.6209   19.9359 C   0  0  0  0  0  0  0  0  0  0  0  0
  -26.5644  -32.1137   25.4389 C   0  0  0  0  0  0  0  0  0  0  0  0
  -25.2101  -15.8673   19.8216 N   0  0  0  0  0  0  0  0  0  0  0  0
  -25.1418  -16.7545   18.8146 N   0  0  0  0  0  0  0  0  0  0  0  0
  -19.6553  -23.7559   20.7366 N   0  0  0  0  0  0  0  0  0  0  0  0
  -25.7070  -30.7869   22.2187 N   0  0  0  0  0  0  0  0  0  0  0  0
  -24.6507  -20.0037   20.7666 N   0  0  0  0  0  0  0  0  0  0  0  0
  -24.9381  -16.9286   16.4611 N   0  0  0  0  0  0  0  0  0  0  0  0
  -24.9004  -12.4707   17.1833 N   0  0  0  0  0  0  0  0  0  0  0  0
  -27.6881  -28.0451   20.8569 N   0  0  0  0  0  0  0  0  0  0  0  0
  -25.4370  -33.7363   23.8577 N   0  0  0  0  0  0  0  0  0  0  0  0
  -22.3126  -20.2868   20.9833 N   0  0  0  0  0  0  0  0  0  0  0  0
  -17.3171  -23.5146   19.1268 N   0  3  0  0  0  0  0  0  0  0  0  0
  -22.9466  -36.0179   22.5693 N   0  3  0  0  0  0  0  0  0  0  0  0
  -24.8120  -14.0961   15.5681 O   0  0  0  0  0  0  0  0  0  0  0  0
  -26.7258  -28.5485   22.9168 O   0  0  0  0  0  0  0  0  0  0  0  0
  -27.5094  -32.2190   22.5882 O   0  0  0  0  0  0  0  0  0  0  0  0
  -23.1278  -33.5245   23.8603 O   0  0  0  0  0  0  0  0  0  0  0  0
  -23.7234  -22.0756   21.2414 O   0  0  0  0  0  0  0  0  0  0  0  0
  -25.2753   -9.9322   22.1281 O   0  0  0  0  0  0  0  0  0  0  0  0
  -20.3609  -27.8375   21.3397 O   0  0  0  0  0  0  0  0  0  1  0  0
  -21.6037   -6.0237   20.8448 F   0  0  0  0  0  0  0  0  0  0  0  0
  -23.4583   -9.0228   24.0026 F   0  0  0  0  0  0  0  0  0  0  0  0
  1  2  1  0  0  0  0
  1  5  2  0  0  0  0
  2  6  2  0  0  0  0
  3  8  2  0  0  0  0
  3 15  1  0  0  0  0
  4  9  1  0  0  0  0
  4 15  2  0  0  0  0
  5 17  1  0  0  0  0
  6 19  1  0  0  0  0
  7 10  2  0  0  0  0
  7 18  1  0  0  0  0
  8 21  1  0  0  0  0
  9 21  2  0  0  0  0
 10 22  1  0  0  0  0
 11 12  2  0  0  0  0
 11 23  1  0  0  0  0
 12 24  1  0  0  0  0
 13 20  1  0  0  0  0
 13 22  2  0  0  0  0
 14 24  2  0  0  0  0
 14 25  1  0  0  0  0
 15 26  1  0  0  0  0
 16 26  1  0  0  0  0
 16 27  2  0  0  0  0
 16 28  1  0  0  0  0
 17 19  2  0  0  0  0
 17 33  1  0  0  0  0
 18 20  2  0  0  0  0
 18 34  1  0  0  0  0
 19 43  1  0  0  0  0
 20 35  1  0  0  0  0
 21 81  1  0  0  0  0
 22 82  1  0  0  0  0
 23 25  2  0  0  0  0
 23 81  1  0  0  0  0
 24 83  1  0  0  0  0
 25 84  1  0  0  0  0
 26 64  2  0  0  0  0
 27 65  1  0  0  0  0
 27 69  1  0  0  0  0
 28 70  1  0  0  0  0
 28 76  2  0  0  0  0
 29 44  1  0  0  0  0
 29 71  1  0  0  0  0
 29 77  2  0  0  0  0
 30 60  1  0  0  0  0
 30 67  1  0  0  0  0
 30 78  2  0  0  0  0
 31 61  1  0  0  0  0
 31 72  1  0  0  0  0
 31 79  2  0  0  0  0
 32 68  1  0  0  0  0
 32 73  1  0  0  0  0
 32 80  2  0  0  0  0
 33 36  1  0  0  0  0
 34 44  1  0  0  0  0
 35 67  1  0  0  0  0
 36 38  1  0  0  0  0
 37 39  1  0  0  0  0
 37 40  1  0  0  0  0
 38 43  1  0  0  0  0
 39 45  1  0  0  0  0
 40 68  1  0  0  0  0
 41 45  1  0  0  0  0
 41 68  1  0  0  0  0
 42 46  1  0  0  0  0
 42 74  1  0  0  0  0
 43 71  1  0  0  0  0
 44 67  1  0  0  0  0
 45 65  1  0  0  0  0
 46 56  1  0  0  0  0
 46 66  1  0  0  0  0
 47 48  1  0  0  0  0
 47 57  1  0  0  0  0
 47 66  1  0  0  0  0
 48 62  1  0  0  0  0
 48 74  1  0  0  0  0
 49 61  1  0  0  0  0
 50 62  1  0  0  0  0
 51 62  1  0  0  0  0
 52 63  1  0  0  0  0
 53 63  1  0  0  0  0
 54 63  1  0  0  0  0
 55 75  1  0  0  0  0
 56 58  1  0  0  0  0
 57 59  1  0  0  0  0
 58 73  1  0  0  0  0
 59 82  1  0  0  0  0
 60 63  1  0  0  0  0
 60 72  1  0  0  0  0
 61 75  1  0  0  0  0
 64 65  1  0  0  0  0
M  CHG  2  74   1  75   1
M  ISO  4  32 100  59 101  73 100  82 101
M  END
> <Batch ID>
0130

> <Smiles>
CNC(C)C(=O)NC(C(=O)N1Cc2cc([101O:1][101CH2:1]CC3NC(CC[100NH:0][100C:0](=O)N4CCCC(n5nc(-c6ccc(Oc7ccc(F)cc7F)cc6)c(C(N)=O)c5N)C4)CNC3C(C)C)ccc2CC1C(=O)NC1CCCc2ccccc21)C(C)(C)C

> <Shape>
0.275

> <Color>
0.070

> <Negative vol penalty>
0.000

$$$$

  -OEChem-04052320473D

 83 92  0     1  0  0  0  0  0999 V2000
  -19.4640  -24.1807   22.0819 C   0  0  0  0  0  0  0  0  0  0  0  0
  -20.6612  -24.5413   21.4718 C   0  0  0  0  0  0  0  0  0  0  0  0
  -26.4149  -11.5256   21.2445 C   0  0  0  0  0  0  0  0  0  0  0  0
  -25.7457  -12.5627   19.1676 C   0  0  0  0  0  0  0  0  0  0  0  0
  -18.5973  -25.1669   22.5509 C   0  0  0  0  0  0  0  0  0  0  0  0
  -20.9918  -25.8885   21.3295 C   0  0  0  0  0  0  0  0  0  0  0  0
  -25.8073  -26.8485   22.5681 C   0  0  0  0  0  0  0  0  0  0  0  0
  -25.0978  -11.1254   21.4692 C   0  0  0  0  0  0  0  0  0  0  0  0
  -24.4285  -12.1625   19.3922 C   0  0  0  0  0  0  0  0  0  0  0  0
  -26.7842  -26.5171   21.6303 C   0  0  0  0  0  0  0  0  0  0  0  0
  -23.0194   -8.6829   20.3980 C   0  0  0  0  0  0  0  0  0  0  0  0
  -22.8040   -7.3735   20.8276 C   0  0  0  0  0  0  0  0  0  0  0  0
  -26.8906  -28.8245   20.9347 C   0  0  0  0  0  0  0  0  0  0  0  0
  -21.7604   -8.2059   22.8414 C   0  0  0  0  0  0  0  0  0  0  0  0
  -26.7389  -12.2443   20.0938 C   0  0  0  0  0  0  0  0  0  0  0  0
  -29.2305  -11.8299   19.7357 C   0  0  0  0  0  0  0  0  0  0  0  0
  -18.9219  -26.5267   22.4229 C   0  0  0  0  0  0  0  0  0  0  0  0
  -25.3561  -28.1707   22.6890 C   0  0  0  0  0  0  0  0  0  0  0  0
  -20.1279  -26.8938   21.7960 C   0  0  0  0  0  0  0  0  0  0  0  0
  -25.9097  -29.1705   21.8766 C   0  0  0  0  0  0  0  0  0  0  0  0
  -24.1045  -11.4438   20.5430 C   0  0  0  0  0  0  0  0  0  0  0  0
  -27.3239  -27.5046   20.8114 C   0  0  0  0  0  0  0  0  0  0  0  0
  -22.6053   -9.7538   21.1901 C   0  0  0  0  0  0  0  0  0  0  0  0
  -22.1745   -7.1349   22.0493 C   0  0  0  0  0  0  0  0  0  0  0  0
  -21.9759   -9.5153   22.4117 C   0  0  0  0  0  0  0  0  0  0  0  0
  -28.0993  -12.6585   19.8615 C   0  0  0  0  0  0  0  0  0  0  0  0
  -30.2720  -12.7004   19.5259 C   0  0  0  0  0  0  0  0  0  0  0  0
  -29.3307  -10.4012   19.8024 C   0  0  0  0  0  0  0  0  0  0  0  0
  -22.5582  -29.6299   22.3065 C   0  0  0  0  0  0  0  0  0  0  0  0
  -24.1793  -32.1937   23.4560 C   0  0  0  0  0  0  0  0  0  0  0  0
  -27.1798  -33.7479   23.9340 C   0  0  0  0  0  0  0  0  0  0  0  0
  -30.2104  -18.3189   17.3620 C   0  0  0  0  0  0  0  0  0  0  0  0
  -17.9313  -27.5578   22.9028 C   0  0  0  0  0  0  0  0  0  0  0  0
  -24.3209  -28.5166   23.7240 C   0  0  0  0  0  0  0  0  0  0  0  0
  -25.4742  -30.6085   21.9809 C   0  0  0  0  0  0  0  0  0  0  0  0
  -18.5291  -28.9547   23.0497 C   0  0  0  0  0  0  0  0  0  0  0  0
  -30.4179  -17.1958   21.0328 C   0  0  0  0  0  0  0  0  0  0  0  0
  -19.3575  -29.3128   21.8199 C   0  0  0  0  0  0  0  0  0  0  0  0
  -28.0627  -24.6138   17.1620 C   0  0  0  0  0  0  0  0  0  0  0  0
  -29.5854  -23.7669   18.9950 C   0  0  0  0  0  0  0  0  0  0  0  0
  -31.0006  -15.8304   20.6803 C   0  0  0  0  0  0  0  0  0  0  0  0
  -28.0135  -25.9801   17.8392 C   0  0  0  0  0  0  0  0  0  0  0  0
  -29.5315  -25.1354   19.6675 C   0  0  0  0  0  0  0  0  0  0  0  0
  -32.2202  -20.3559   15.6528 C   0  0  0  0  0  0  0  0  0  0  0  0
  -30.5705  -18.1712   19.8698 C   0  0  0  0  0  0  0  0  0  0  0  0
  -29.5471  -16.2777   18.6090 C   0  0  0  0  0  0  0  0  0  0  0  0
  -32.2695  -21.5888   14.7686 C   0  0  0  0  0  0  0  0  0  0  0  0
  -20.5333  -28.3441   21.6454 C   0  0  1  0  0  0  0  0  0  0  0  0
  -23.5661  -29.8039   23.4072 C   0  0  1  0  0  0  0  0  0  0  0  0
  -29.3690  -23.8727   17.4790 C   0  0  0  0  0  0  0  0  0  0  0  0
  -30.4448  -15.2724   19.3520 C   0  0  2  0  0  0  0  0  0  0  0  0
  -30.8571  -20.4682   16.3183 C   0  0  2  0  0  0  0  0  0  0  0  0
  -28.2324  -25.8712   19.3459 C   0  0  0  0  0  0  0  0  0  1  0  0
  -30.7810  -21.9475   16.6765 C   0  0  2  0  0  0  0  0  0  0  0  0
  -28.1826  -35.8503   24.8676 C   0  0  0  0  0  0  0  0  0  0  0  0
  -23.2505  -33.7296   20.9885 C   0  0  0  0  0  0  0  0  0  0  0  0
  -25.0089  -35.4430   21.4789 C   0  0  0  0  0  0  0  0  0  0  0  0
  -23.1748  -35.0356   23.1199 C   0  0  0  0  0  0  0  0  0  0  0  0
  -28.7549  -32.2445   25.9384 C   0  0  0  0  0  0  0  0  0  0  0  0
  -29.3728  -22.4872   16.8358 C   0  0  0  0  0  0  0  0  0  0  0  0
  -24.9966  -33.3047   22.8423 C   0  0  1  0  0  0  0  0  0  0  0  0
  -27.7873  -34.4106   25.1572 C   0  0  2  0  0  0  0  0  0  0  0  0
  -24.1147  -34.3509   22.1039 C   0  0  0  0  0  0  0  0  0  0  0  0
  -28.3944  -13.9556   19.7418 N   0  0  0  0  0  0  0  0  0  0  0  0
  -29.7228  -13.9487   19.5387 N   0  0  0  0  0  0  0  0  0  0  0  0
  -24.4548  -30.8955   23.0037 N   0  0  0  0  0  0  0  0  0  0  0  0
  -30.1421  -17.6150   18.5800 N   0  0  0  0  0  0  0  0  0  0  0  0
  -31.5949  -12.5121   19.3337 N   0  0  0  0  0  0  0  0  0  0  0  0
  -28.1627   -9.6591   20.0241 N   0  0  0  0  0  0  0  0  0  0  0  0
  -21.5987  -28.6708   22.5688 N   0  0  0  0  0  0  0  0  0  0  0  0
  -25.8056  -33.8605   23.9217 N   0  0  0  0  0  0  0  0  0  0  0  0
  -30.7207  -19.6108   17.4610 N   0  0  0  0  0  0  0  0  0  0  0  0
  -31.4591  -22.6183   15.5071 N   0  3  0  0  0  0  0  0  0  0  0  0
  -29.0026  -33.6692   25.5981 N   0  3  0  0  0  0  0  0  0  0  0  0
  -30.4263   -9.8015   19.6857 O   0  0  0  0  0  0  0  0  0  0  0  0
  -22.6439  -30.3161   21.2948 O   0  0  0  0  0  0  0  0  0  0  0  0
  -23.3327  -32.4669   24.3105 O   0  0  0  0  0  0  0  0  0  0  0  0
  -27.8568  -33.1896   23.0735 O   0  0  0  0  0  0  0  0  0  0  0  0
  -29.8466  -17.8392   16.2840 O   0  0  0  0  0  0  0  0  0  0  0  0
  -22.8192  -11.0533   20.7617 O   0  0  0  0  0  0  0  0  0  0  0  0
  -28.2771  -27.1838   19.8947 O   0  0  0  0  0  0  0  0  0  1  0  0
  -21.9664   -5.8774   22.4611 F   0  0  0  0  0  0  0  0  0  0  0  0
  -21.5748  -10.5401   23.1765 F   0  0  0  0  0  0  0  0  0  0  0  0
  1  2  1  0  0  0  0
  1  5  2  0  0  0  0
  2  6  2  0  0  0  0
  3  8  2  0  0  0  0
  3 15  1  0  0  0  0
  4  9  1  0  0  0  0
  4 15  2  0  0  0  0
  5 17  1  0  0  0  0
  6 19  1  0  0  0  0
  7 10  2  0  0  0  0
  7 18  1  0  0  0  0
  8 21  1  0  0  0  0
  9 21  2  0  0  0  0
 10 22  1  0  0  0  0
 11 12  2  0  0  0  0
 11 23  1  0  0  0  0
 12 24  1  0  0  0  0
 13 20  1  0  0  0  0
 13 22  2  0  0  0  0
 14 24  2  0  0  0  0
 14 25  1  0  0  0  0
 15 26  1  0  0  0  0
 16 26  1  0  0  0  0
 16 27  2  0  0  0  0
 16 28  1  0  0  0  0
 17 19  2  0  0  0  0
 17 33  1  0  0  0  0
 18 20  2  0  0  0  0
 18 34  1  0  0  0  0
 19 48  1  0  0  0  0
 20 35  1  0  0  0  0
 21 80  1  0  0  0  0
 22 81  1  0  0  0  0
 23 25  2  0  0  0  0
 23 80  1  0  0  0  0
 24 82  1  0  0  0  0
 25 83  1  0  0  0  0
 26 64  2  0  0  0  0
 27 65  1  0  0  0  0
 27 68  1  0  0  0  0
 28 69  1  0  0  0  0
 28 75  2  0  0  0  0
 29 49  1  0  0  0  0
 29 70  1  0  0  0  0
 29 76  2  0  0  0  0
 30 61  1  0  0  0  0
 30 66  1  0  0  0  0
 30 77  2  0  0  0  0
 31 62  1  0  0  0  0
 31 71  1  0  0  0  0
 31 78  2  0  0  0  0
 32 67  1  0  0  0  0
 32 72  1  0  0  0  0
 32 79  2  0  0  0  0
 33 36  1  0  0  0  0
 34 49  1  0  0  0  0
 35 66  1  0  0  0  0
 36 38  1  0  0  0  0
 37 41  1  0  0  0  0
 37 45  1  0  0  0  0
 38 48  1  0  0  0  0
 39 42  1  0  0  0  0
 39 50  1  0  0  0  0
 40 43  1  0  0  0  0
 40 50  1  0  0  0  0
 41 51  1  0  0  0  0
 42 53  1  0  0  0  0
 43 53  1  0  0  0  0
 44 47  1  0  0  0  0
 44 52  1  0  0  0  0
 45 67  1  0  0  0  0
 46 51  1  0  0  0  0
 46 67  1  0  0  0  0
 47 73  1  0  0  0  0
 48 70  1  0  0  0  0
 49 66  1  0  0  0  0
 50 60  1  0  0  0  0
 51 65  1  0  0  0  0
 52 54  1  0  0  0  0
 52 72  1  0  0  0  0
 53 81  1  0  0  0  0
 54 60  1  0  0  0  0
 54 73  1  0  0  0  0
 55 62  1  0  0  0  0
 56 63  1  0  0  0  0
 57 63  1  0  0  0  0
 58 63  1  0  0  0  0
 59 74  1  0  0  0  0
 61 63  1  0  0  0  0
 61 71  1  0  0  0  0
 62 74  1  0  0  0  0
 64 65  1  0  0  0  0
M  CHG  2  73   1  74   1
M  ISO  4  32 100  53 101  72 100  81 101
M  END
> <Batch ID>
0130

> <Smiles>
CNC(C)C(=O)NC(C(=O)N1Cc2cc([101O:1][101CH:1]3CCC(CC4NCCC4[100NH:0][100C:0](=O)N4CCCC(n5nc(-c6ccc(Oc7ccc(F)cc7F)cc6)c(C(N)=O)c5N)C4)CC3)ccc2CC1C(=O)NC1CCCc2ccccc21)C(C)(C)C

> <Shape>
0.329

> <Color>
0.106

> <Negative vol penalty>
0.000

$$$$

  -OEChem-04052320473D

 84 93  0     1  0  0  0  0  0999 V2000
  -29.2093  -25.2348   16.3675 C   0  0  0  0  0  0  0  0  0  0  0  0
  -28.0254  -25.2029   17.0974 C   0  0  0  0  0  0  0  0  0  0  0  0
  -24.3753  -13.0920   19.7804 C   0  0  0  0  0  0  0  0  0  0  0  0
  -25.6595  -13.5057   21.7846 C   0  0  0  0  0  0  0  0  0  0  0  0
  -30.3147  -25.9244   16.8641 C   0  0  0  0  0  0  0  0  0  0  0  0
  -27.9465  -25.8597   18.3249 C   0  0  0  0  0  0  0  0  0  0  0  0
  -23.6658  -28.5169   18.8350 C   0  0  0  0  0  0  0  0  0  0  0  0
  -24.6495  -11.7285   19.8862 C   0  0  0  0  0  0  0  0  0  0  0  0
  -25.9337  -12.1422   21.8904 C   0  0  0  0  0  0  0  0  0  0  0  0
  -22.5086  -27.8057   19.1494 C   0  0  0  0  0  0  0  0  0  0  0  0
  -23.5300   -9.0949   21.6872 C   0  0  0  0  0  0  0  0  0  0  0  0
  -22.4733   -8.2045   21.4972 C   0  0  0  0  0  0  0  0  0  0  0  0
  -22.7481  -28.4498   21.4617 C   0  0  0  0  0  0  0  0  0  0  0  0
  -23.6517   -7.2020   19.6415 C   0  0  0  0  0  0  0  0  0  0  0  0
  -20.1017  -23.7859   21.7678 C   0  0  0  0  0  0  0  0  0  0  0  0
  -24.8803  -13.9807   20.7296 C   0  0  0  0  0  0  0  0  0  0  0  0
  -23.5066  -16.0831   21.1768 C   0  0  0  0  0  0  0  0  0  0  0  0
  -30.2463  -26.5980   18.0938 C   0  0  0  0  0  0  0  0  0  0  0  0
  -24.3801  -29.1920   19.8352 C   0  0  0  0  0  0  0  0  0  0  0  0
  -29.0524  -26.5578   18.8391 C   0  0  0  0  0  0  0  0  0  0  0  0
  -23.9127  -29.1710   21.1570 C   0  0  0  0  0  0  0  0  0  0  0  0
  -21.3318  -23.1619   21.8119 C   0  0  0  0  0  0  0  0  0  0  0  0
  -25.4287  -11.2535   20.9412 C   0  0  0  0  0  0  0  0  0  0  0  0
  -22.0512  -27.7697   20.4633 C   0  0  0  0  0  0  0  0  0  0  0  0
  -24.6476   -9.0389   20.8544 C   0  0  0  0  0  0  0  0  0  0  0  0
  -22.5341   -7.2581   20.4744 C   0  0  0  0  0  0  0  0  0  0  0  0
  -24.7084   -8.0924   19.8316 C   0  0  0  0  0  0  0  0  0  0  0  0
  -24.5979  -15.3894   20.6206 C   0  0  0  0  0  0  0  0  0  0  0  0
  -22.4140  -23.9516   21.4806 C   0  0  0  0  0  0  0  0  0  0  0  0
  -23.6945  -17.3870   20.7883 C   0  0  0  0  0  0  0  0  0  0  0  0
  -21.0616  -25.7440   21.1265 C   0  0  0  0  0  0  0  0  0  1  0  0
  -22.4201  -15.5928   21.9737 C   0  0  0  0  0  0  0  0  0  0  0  0
  -27.3145  -28.9669   21.0364 C   0  0  0  0  0  0  0  0  0  0  0  0
  -26.4262  -31.6210   22.6763 C   0  0  0  0  0  0  0  0  0  0  0  0
  -23.8999  -33.5284   23.9517 C   0  0  0  0  0  0  0  0  0  0  0  0
  -27.0095  -21.8152   20.0483 C   0  0  0  0  0  0  0  0  0  0  0  0
  -31.4820  -27.2903   18.6119 C   0  0  0  0  0  0  0  0  0  0  0  0
  -25.6118  -29.9767   19.4753 C   0  0  0  0  0  0  0  0  0  0  0  0
  -24.6319  -29.8959   22.2642 C   0  0  0  0  0  0  0  0  0  0  0  0
  -31.1993  -28.2742   19.7444 C   0  0  0  0  0  0  0  0  0  0  0  0
  -26.9117  -19.3936   17.4401 C   0  0  0  0  0  0  0  0  0  0  0  0
  -30.2751  -27.6436   20.7812 C   0  0  0  0  0  0  0  0  0  0  0  0
  -20.4374  -21.5051   24.6135 C   0  0  0  0  0  0  0  0  0  0  0  0
  -21.2247  -20.2504   24.3568 C   0  0  0  0  0  0  0  0  0  0  0  0
  -26.2170  -18.1917   18.0827 C   0  0  0  0  0  0  0  0  0  0  0  0
  -27.8168  -20.1195   18.4330 C   0  0  0  0  0  0  0  0  0  0  0  0
  -26.4644  -19.3215   20.3324 C   0  0  0  0  0  0  0  0  0  0  0  0
  -28.9201  -27.2787   20.1630 C   0  0  1  0  0  0  0  0  0  0  0  0
  -26.5448  -30.2016   20.6612 C   0  0  1  0  0  0  0  0  0  0  0  0
  -21.6318  -21.5406   23.7007 C   0  0  0  0  0  0  0  0  0  0  0  0
  -25.4976  -18.5904   19.3853 C   0  0  2  0  0  0  0  0  0  0  0  0
  -23.4862  -35.6200   25.2752 C   0  0  0  0  0  0  0  0  0  0  0  0
  -27.2400  -30.1631   25.2302 C   0  0  0  0  0  0  0  0  0  0  0  0
  -25.9493  -31.8683   26.5320 C   0  0  0  0  0  0  0  0  0  0  0  0
  -27.9019  -32.5734   25.1488 C   0  0  0  0  0  0  0  0  0  0  0  0
  -22.3944  -34.7754   21.7296 C   0  0  0  0  0  0  0  0  0  0  0  0
  -21.4456  -21.7305   22.1956 C   0  0  0  0  0  0  0  0  0  0  0  0
  -24.8872  -24.0939   21.1830 C   0  0  0  0  0  0  0  0  0  0  0  0
  -26.1173  -23.3951   21.7416 C   0  0  0  0  0  0  0  0  0  0  0  0
  -25.7562  -31.8834   24.0034 C   0  0  1  0  0  0  0  0  0  0  0  0
  -23.6326  -35.0213   23.8849 C   0  0  2  0  0  0  0  0  0  0  0  0
  -26.6991  -31.6067   25.2083 C   0  0  0  0  0  0  0  0  0  0  0  0
  -19.9294  -25.0802   21.4282 N   0  0  0  0  0  0  0  0  0  0  0  0
  -25.4183  -16.1865   19.9310 N   0  0  0  0  0  0  0  0  0  0  0  0
  -22.3148  -25.2512   21.1318 N   0  0  0  0  0  0  0  0  0  0  0  0
  -24.8421  -17.3946   20.0513 N   0  0  0  0  0  0  0  0  0  0  0  0
  -25.8348  -30.6439   21.8630 N   0  0  0  0  0  0  0  0  0  0  0  0
  -27.0735  -20.4711   19.6453 N   0  0  0  0  0  0  0  0  0  0  0  0
  -22.9884  -18.5163   21.0085 N   0  0  0  0  0  0  0  0  0  0  0  0
  -22.3804  -14.2258   22.2804 N   0  0  0  0  0  0  0  0  0  0  0  0
  -23.7038  -23.3661   21.5078 N   0  0  0  0  0  0  0  0  0  0  0  0
  -28.0969  -28.4600   20.0165 N   0  0  0  0  0  0  0  0  0  0  0  0
  -25.2504  -33.2505   23.9421 N   0  0  0  0  0  0  0  0  0  0  0  0
  -26.2796  -22.0624   21.2046 N   0  0  0  0  0  0  0  0  0  0  0  0
  -22.3800  -35.2896   23.1233 N   0  3  0  0  0  0  0  0  0  0  0  0
  -21.5027  -16.3417   22.3872 O   0  0  0  0  0  0  0  0  0  0  0  0
  -27.2075  -28.5090   22.1681 O   0  0  0  0  0  0  0  0  0  0  0  0
  -27.4328  -32.2645   22.3694 O   0  0  0  0  0  0  0  0  0  0  0  0
  -23.0007  -32.6927   24.0105 O   0  0  0  0  0  0  0  0  0  0  0  0
  -27.5574  -22.7280   19.4210 O   0  0  0  0  0  0  0  0  0  0  0  0
  -25.6962   -9.9230   21.0448 O   0  0  0  0  0  0  0  0  0  0  0  0
  -20.9223  -27.0758   20.7730 O   0  0  0  0  0  0  0  0  0  1  0  0
  -21.5199   -6.4021   20.2930 F   0  0  0  0  0  0  0  0  0  0  0  0
  -25.7799   -8.0330   19.0290 F   0  0  0  0  0  0  0  0  0  0  0  0
  1  2  1  0  0  0  0
  1  5  2  0  0  0  0
  2  6  2  0  0  0  0
  3  8  2  0  0  0  0
  3 16  1  0  0  0  0
  4  9  1  0  0  0  0
  4 16  2  0  0  0  0
  5 18  1  0  0  0  0
  6 20  1  0  0  0  0
  7 10  2  0  0  0  0
  7 19  1  0  0  0  0
  8 23  1  0  0  0  0
  9 23  2  0  0  0  0
 10 24  1  0  0  0  0
 11 12  2  0  0  0  0
 11 25  1  0  0  0  0
 12 26  1  0  0  0  0
 13 21  1  0  0  0  0
 13 24  2  0  0  0  0
 14 26  2  0  0  0  0
 14 27  1  0  0  0  0
 15 22  1  0  0  0  0
 15 63  2  0  0  0  0
 16 28  1  0  0  0  0
 17 28  1  0  0  0  0
 17 30  2  0  0  0  0
 17 32  1  0  0  0  0
 18 20  2  0  0  0  0
 18 37  1  0  0  0  0
 19 21  2  0  0  0  0
 19 38  1  0  0  0  0
 20 48  1  0  0  0  0
 21 39  1  0  0  0  0
 22 29  2  0  0  0  0
 22 57  1  0  0  0  0
 23 81  1  0  0  0  0
 24 82  1  0  0  0  0
 25 27  2  0  0  0  0
 25 81  1  0  0  0  0
 26 83  1  0  0  0  0
 27 84  1  0  0  0  0
 28 64  2  0  0  0  0
 29 65  1  0  0  0  0
 29 71  1  0  0  0  0
 30 66  1  0  0  0  0
 30 69  1  0  0  0  0
 31 63  1  0  0  0  0
 31 65  2  0  0  0  0
 31 82  1  0  0  0  0
 32 70  1  0  0  0  0
 32 76  2  0  0  0  0
 33 49  1  0  0  0  0
 33 72  1  0  0  0  0
 33 77  2  0  0  0  0
 34 60  1  0  0  0  0
 34 67  1  0  0  0  0
 34 78  2  0  0  0  0
 35 61  1  0  0  0  0
 35 73  1  0  0  0  0
 35 79  2  0  0  0  0
 36 68  1  0  0  0  0
 36 74  1  0  0  0  0
 36 80  2  0  0  0  0
 37 40  1  0  0  0  0
 38 49  1  0  0  0  0
 39 67  1  0  0  0  0
 40 42  1  0  0  0  0
 41 45  1  0  0  0  0
 41 46  1  0  0  0  0
 42 48  1  0  0  0  0
 43 44  1  0  0  0  0
 43 50  1  0  0  0  0
 44 50  1  0  0  0  0
 45 51  1  0  0  0  0
 46 68  1  0  0  0  0
 47 51  1  0  0  0  0
 47 68  1  0  0  0  0
 48 72  1  0  0  0  0
 49 67  1  0  0  0  0
 50 57  1  0  0  0  0
 51 66  1  0  0  0  0
 52 61  1  0  0  0  0
 53 62  1  0  0  0  0
 54 62  1  0  0  0  0
 55 62  1  0  0  0  0
 56 75  1  0  0  0  0
 58 59  1  0  0  0  0
 58 71  1  0  0  0  0
 59 74  1  0  0  0  0
 60 62  1  0  0  0  0
 60 73  1  0  0  0  0
 61 75  1  0  0  0  0
 64 66  1  0  0  0  0
M  CHG  1  75   1
M  ISO  4  31 101  36 100  74 100  82 101
M  END
> <Batch ID>
0130

> <Smiles>
CNC(C)C(=O)NC(C(=O)N1Cc2cc([101O:1][101c:1]3ncc(CC4CC4)c(NCC[100NH:0][100C:0](=O)N4CCCC(n5nc(-c6ccc(Oc7ccc(F)cc7F)cc6)c(C(N)=O)c5N)C4)n3)ccc2CC1C(=O)NC1CCCc2ccccc21)C(C)(C)C

> <Shape>
0.249

> <Color>
0.084

> <Negative vol penalty>
0.000

$$$$

  -OEChem-04052320473D

 81 89  0     1  0  0  0  0  0999 V2000
  -25.6833  -20.5984   25.4431 C   0  0  0  0  0  0  0  0  0  0  0  0
  -26.6015  -21.6300   25.2830 C   0  0  0  0  0  0  0  0  0  0  0  0
  -26.5351  -12.3060   21.5742 C   0  0  0  0  0  0  0  0  0  0  0  0
  -25.6880  -13.7641   19.8440 C   0  0  0  0  0  0  0  0  0  0  0  0
  -24.4798  -20.6266   24.7417 C   0  0  0  0  0  0  0  0  0  0  0  0
  -26.3115  -22.6960   24.4307 C   0  0  0  0  0  0  0  0  0  0  0  0
  -29.7038  -27.4783   22.7727 C   0  0  0  0  0  0  0  0  0  0  0  0
  -25.3181  -11.6247   21.5958 C   0  0  0  0  0  0  0  0  0  0  0  0
  -24.4710  -13.0828   19.8656 C   0  0  0  0  0  0  0  0  0  0  0  0
  -30.5931  -27.8039   21.7495 C   0  0  0  0  0  0  0  0  0  0  0  0
  -23.7510   -9.2653   19.7490 C   0  0  0  0  0  0  0  0  0  0  0  0
  -23.7889   -7.8712   19.7730 C   0  0  0  0  0  0  0  0  0  0  0  0
  -28.8036  -28.8855   20.5466 C   0  0  0  0  0  0  0  0  0  0  0  0
  -22.5968   -7.8749   21.8744 C   0  0  0  0  0  0  0  0  0  0  0  0
  -26.7200  -13.3757   20.6983 C   0  0  0  0  0  0  0  0  0  0  0  0
  -29.2462  -13.5451   20.3865 C   0  0  0  0  0  0  0  0  0  0  0  0
  -24.1810  -21.6876   23.8711 C   0  0  0  0  0  0  0  0  0  0  0  0
  -28.3531  -27.8450   22.6853 C   0  0  0  0  0  0  0  0  0  0  0  0
  -25.0919  -22.7546   23.7324 C   0  0  0  0  0  0  0  0  0  0  0  0
  -27.8997  -28.5656   21.5712 C   0  0  0  0  0  0  0  0  0  0  0  0
  -24.2861  -12.0131   20.7416 C   0  0  0  0  0  0  0  0  0  0  0  0
  -30.1424  -28.5051   20.6349 C   0  0  0  0  0  0  0  0  0  0  0  0
  -23.1360   -9.9643   20.7878 C   0  0  0  0  0  0  0  0  0  0  0  0
  -23.2118   -7.1760   20.8356 C   0  0  0  0  0  0  0  0  0  0  0  0
  -22.5589   -9.2690   21.8505 C   0  0  0  0  0  0  0  0  0  0  0  0
  -27.9767  -14.0802   20.6758 C   0  0  0  0  0  0  0  0  0  0  0  0
  -30.1024  -14.6134   20.4968 C   0  0  0  0  0  0  0  0  0  0  0  0
  -29.6182  -12.2025   20.0480 C   0  0  0  0  0  0  0  0  0  0  0  0
  -25.6005  -26.2588   22.5814 C   0  0  0  0  0  0  0  0  0  0  0  0
  -24.3263  -29.2367   22.7579 C   0  0  0  0  0  0  0  0  0  0  0  0
  -24.7079  -32.5871   22.2325 C   0  0  0  0  0  0  0  0  0  0  0  0
  -29.2496  -20.4202   19.8567 C   0  0  0  0  0  0  0  0  0  0  0  0
  -22.8602  -21.6716   23.1427 C   0  0  0  0  0  0  0  0  0  0  0  0
  -27.4123  -27.5095   23.8099 C   0  0  0  0  0  0  0  0  0  0  0  0
  -26.4638  -29.0002   21.4386 C   0  0  0  0  0  0  0  0  0  0  0  0
  -22.8350  -22.6051   21.9368 C   0  0  0  0  0  0  0  0  0  0  0  0
  -30.6083  -18.7860   22.7861 C   0  0  0  0  0  0  0  0  0  0  0  0
  -23.3476  -23.9813   22.3340 C   0  0  0  0  0  0  0  0  0  0  0  0
  -30.2010  -17.3322   22.5398 C   0  0  0  0  0  0  0  0  0  0  0  0
  -28.9049  -23.9175   19.5548 C   0  0  0  0  0  0  0  0  0  0  0  0
  -31.2804  -23.1992   19.1070 C   0  0  0  0  0  0  0  0  0  0  0  0
  -29.5219  -19.7510   22.3206 C   0  0  0  0  0  0  0  0  0  0  0  0
  -28.7127  -18.1332   20.6468 C   0  0  0  0  0  0  0  0  0  0  0  0
  -29.0709  -25.0621   18.5638 C   0  0  0  0  0  0  0  0  0  0  0  0
  -31.4348  -24.3483   18.1193 C   0  0  0  0  0  0  0  0  0  0  0  0
  -24.8112  -23.9090   22.7874 C   0  0  1  0  0  0  0  0  0  0  0  0
  -25.9494  -27.4843   23.3777 C   0  0  1  0  0  0  0  0  0  0  0  0
  -29.7791  -17.1089   21.0754 C   0  0  2  0  0  0  0  0  0  0  0  0
  -29.8252  -22.7441   19.2168 C   0  0  0  0  0  0  0  0  0  0  0  0
  -24.1471  -35.0323   22.2936 C   0  0  0  0  0  0  0  0  0  0  0  0
  -33.4049  -28.6932   19.6493 C   0  0  0  0  0  0  0  0  0  0  0  0
  -22.7107  -28.5576   20.2602 C   0  0  0  0  0  0  0  0  0  0  0  0
  -22.2595  -31.0033   19.9719 C   0  0  0  0  0  0  0  0  0  0  0  0
  -21.4451  -29.8184   22.0104 C   0  0  0  0  0  0  0  0  0  0  0  0
  -25.9457  -32.9229   24.8997 C   0  0  0  0  0  0  0  0  0  0  0  0
  -32.0319  -27.3899   17.9854 C   0  0  0  0  0  0  0  0  0  0  0  0
  -30.7204  -26.6887   17.6427 C   0  0  0  0  0  0  0  0  0  0  0  0
  -23.9164  -30.2854   21.7524 C   0  0  1  0  0  0  0  0  0  0  0  0
  -24.4203  -33.7849   23.1196 C   0  0  2  0  0  0  0  0  0  0  0  0
  -32.1037  -27.9355   19.4163 C   0  0  2  0  0  0  0  0  0  1  0  0
  -22.6096  -29.9064   21.0000 C   0  0  0  0  0  0  0  0  0  0  0  0
  -28.0181  -15.3869   20.9497 N   0  0  0  0  0  0  0  0  0  0  0  0
  -29.3240  -15.6818   20.8329 N   0  0  0  0  0  0  0  0  0  0  0  0
  -25.5812  -28.6430   22.5615 N   0  0  0  0  0  0  0  0  0  0  0  0
  -29.1795  -19.4978   20.9139 N   0  0  0  0  0  0  0  0  0  0  0  0
  -31.4376  -14.7337   20.3384 N   0  0  0  0  0  0  0  0  0  0  0  0
  -29.9562  -11.3214   21.0843 N   0  0  0  0  0  0  0  0  0  0  0  0
  -25.1945  -25.1849   23.3505 N   0  0  0  0  0  0  0  0  0  0  0  0
  -23.8405  -31.5452   22.4844 N   0  0  0  0  0  0  0  0  0  0  0  0
  -29.6948  -21.6922   20.1951 N   0  0  0  0  0  0  0  0  0  0  0  0
  -30.5205  -25.4817   18.5177 N   0  3  0  0  0  0  0  0  0  0  0  0
  -25.5811  -34.0581   24.0134 N   0  3  0  0  0  0  0  0  0  0  0  0
  -29.6660  -11.8007   18.8607 O   0  0  0  0  0  0  0  0  0  0  0  0
  -25.6913  -26.2860   21.3597 O   0  0  0  0  0  0  0  0  0  0  0  0
  -23.5642  -28.9597   23.6875 O   0  0  0  0  0  0  0  0  0  0  0  0
  -25.6092  -32.5780   21.3970 O   0  0  0  0  0  0  0  0  0  0  0  0
  -28.9431  -20.1300   18.6953 O   0  0  0  0  0  0  0  0  0  0  0  0
  -23.0986  -11.3483   20.7623 O   0  0  0  0  0  0  0  0  0  0  0  0
  -31.0082  -28.8236   19.6345 O   0  0  0  0  0  0  0  0  0  1  0  0
  -23.2469   -5.8372   20.8576 F   0  0  0  0  0  0  0  0  0  0  0  0
  -21.9657   -9.9349   22.8507 F   0  0  0  0  0  0  0  0  0  0  0  0
  1  2  1  0  0  0  0
  1  5  2  0  0  0  0
  2  6  2  0  0  0  0
  3  8  2  0  0  0  0
  3 15  1  0  0  0  0
  4  9  1  0  0  0  0
  4 15  2  0  0  0  0
  5 17  1  0  0  0  0
  6 19  1  0  0  0  0
  7 10  2  0  0  0  0
  7 18  1  0  0  0  0
  8 21  1  0  0  0  0
  9 21  2  0  0  0  0
 10 22  1  0  0  0  0
 11 12  2  0  0  0  0
 11 23  1  0  0  0  0
 12 24  1  0  0  0  0
 13 20  1  0  0  0  0
 13 22  2  0  0  0  0
 14 24  2  0  0  0  0
 14 25  1  0  0  0  0
 15 26  1  0  0  0  0
 16 26  1  0  0  0  0
 16 27  2  0  0  0  0
 16 28  1  0  0  0  0
 17 19  2  0  0  0  0
 17 33  1  0  0  0  0
 18 20  2  0  0  0  0
 18 34  1  0  0  0  0
 19 46  1  0  0  0  0
 20 35  1  0  0  0  0
 21 78  1  0  0  0  0
 22 79  1  0  0  0  0
 23 25  2  0  0  0  0
 23 78  1  0  0  0  0
 24 80  1  0  0  0  0
 25 81  1  0  0  0  0
 26 62  2  0  0  0  0
 27 63  1  0  0  0  0
 27 66  1  0  0  0  0
 28 67  1  0  0  0  0
 28 73  2  0  0  0  0
 29 47  1  0  0  0  0
 29 68  1  0  0  0  0
 29 74  2  0  0  0  0
 30 58  1  0  0  0  0
 30 64  1  0  0  0  0
 30 75  2  0  0  0  0
 31 59  1  0  0  0  0
 31 69  1  0  0  0  0
 31 76  2  0  0  0  0
 32 65  1  0  0  0  0
 32 70  1  0  0  0  0
 32 77  2  0  0  0  0
 33 36  1  0  0  0  0
 34 47  1  0  0  0  0
 35 64  1  0  0  0  0
 36 38  1  0  0  0  0
 37 39  1  0  0  0  0
 37 42  1  0  0  0  0
 38 46  1  0  0  0  0
 39 48  1  0  0  0  0
 40 44  1  0  0  0  0
 40 49  1  0  0  0  0
 41 45  1  0  0  0  0
 41 49  1  0  0  0  0
 42 65  1  0  0  0  0
 43 48  1  0  0  0  0
 43 65  1  0  0  0  0
 44 71  1  0  0  0  0
 45 71  1  0  0  0  0
 46 68  1  0  0  0  0
 47 64  1  0  0  0  0
 48 63  1  0  0  0  0
 49 70  1  0  0  0  0
 50 59  1  0  0  0  0
 51 60  1  0  0  0  0
 52 61  1  0  0  0  0
 53 61  1  0  0  0  0
 54 61  1  0  0  0  0
 55 72  1  0  0  0  0
 56 57  1  0  0  0  0
 56 60  1  0  0  0  0
 57 71  1  0  0  0  0
 58 61  1  0  0  0  0
 58 69  1  0  0  0  0
 59 72  1  0  0  0  0
 60 79  1  0  0  0  0
 62 63  1  0  0  0  0
M  CHG  2  71   1  72   1
M  ISO  4  32 100  60 101  70 100  79 101
M  END
> <Batch ID>
0130

> <Smiles>
CNC(C)C(=O)NC(C(=O)N1Cc2cc([101O:1][101CH:1](C)CCN3CCC([100NH:0][100C:0](=O)N4CCCC(n5nc(-c6ccc(Oc7ccc(F)cc7F)cc6)c(C(N)=O)c5N)C4)CC3)ccc2CC1C(=O)NC1CCCc2ccccc21)C(C)(C)C

> <Shape>
0.293

> <Color>
0.082

> <Negative vol penalty>
0.000

$$$$

  -OEChem-04052320473D

 85 94  0     1  0  0  0  0  0999 V2000
  -22.5602  -23.4694   15.0619 C   0  0  0  0  0  0  0  0  0  0  0  0
  -22.2467  -24.1793   16.2165 C   0  0  0  0  0  0  0  0  0  0  0  0
  -26.5871  -13.5756   19.6959 C   0  0  0  0  0  0  0  0  0  0  0  0
  -24.4308  -14.0515   20.6762 C   0  0  0  0  0  0  0  0  0  0  0  0
  -23.8089  -22.8620   14.9360 C   0  0  0  0  0  0  0  0  0  0  0  0
  -23.1812  -24.2813   17.2464 C   0  0  0  0  0  0  0  0  0  0  0  0
  -23.5358  -28.9848   19.0892 C   0  0  0  0  0  0  0  0  0  0  0  0
  -20.7343  -23.2892   21.7718 C   0  0  0  0  0  0  0  0  0  0  0  0
  -22.2527  -24.5166   23.1948 C   0  0  0  0  0  0  0  0  0  0  0  0
  -21.8064  -22.5619   21.2550 C   0  0  0  0  0  0  0  0  0  0  0  0
  -23.3249  -23.7892   22.6781 C   0  0  0  0  0  0  0  0  0  0  0  0
  -26.5423  -12.2852   20.2236 C   0  0  0  0  0  0  0  0  0  0  0  0
  -24.3859  -12.7611   21.2039 C   0  0  0  0  0  0  0  0  0  0  0  0
  -22.5352  -29.4024   19.9656 C   0  0  0  0  0  0  0  0  0  0  0  0
  -23.5394   -9.4740   22.5064 C   0  0  0  0  0  0  0  0  0  0  0  0
  -22.3463   -8.7623   22.3810 C   0  0  0  0  0  0  0  0  0  0  0  0
  -23.9944  -28.9570   21.8342 C   0  0  0  0  0  0  0  0  0  0  0  0
  -22.4999   -8.9287   19.9756 C   0  0  0  0  0  0  0  0  0  0  0  0
  -25.5314  -14.4588   19.9222 C   0  0  0  0  0  0  0  0  0  0  0  0
  -25.0999  -16.2147   18.1227 C   0  0  0  0  0  0  0  0  0  0  0  0
  -24.7628  -22.9647   15.9607 C   0  0  0  0  0  0  0  0  0  0  0  0
  -24.7715  -28.5391   19.5800 C   0  0  0  0  0  0  0  0  0  0  0  0
  -24.4433  -23.6736   17.1345 C   0  0  0  0  0  0  0  0  0  0  0  0
  -25.0100  -28.5367   20.9618 C   0  0  0  0  0  0  0  0  0  0  0  0
  -20.9574  -24.2666   22.7416 C   0  0  0  0  0  0  0  0  0  0  0  0
  -23.1017  -22.8118   21.7082 C   0  0  0  0  0  0  0  0  0  0  0  0
  -25.4417  -11.8779   20.9776 C   0  0  0  0  0  0  0  0  0  0  0  0
  -22.7634  -29.3858   21.3385 C   0  0  0  0  0  0  0  0  0  0  0  0
  -24.2127   -9.9131   21.3664 C   0  0  0  0  0  0  0  0  0  0  0  0
  -21.8266   -8.4897   21.1156 C   0  0  0  0  0  0  0  0  0  0  0  0
  -23.6930   -9.6404   20.1010 C   0  0  0  0  0  0  0  0  0  0  0  0
  -25.5774  -15.7920   19.3778 C   0  0  0  0  0  0  0  0  0  0  0  0
  -25.3783  -17.5592   18.0845 C   0  0  0  0  0  0  0  0  0  0  0  0
  -24.4617  -15.4596   17.0844 C   0  0  0  0  0  0  0  0  0  0  0  0
  -26.3771  -25.7986   19.4579 C   0  0  0  0  0  0  0  0  0  0  0  0
  -28.7041  -27.5484   20.8882 C   0  0  0  0  0  0  0  0  0  0  0  0
  -29.5365  -30.2536   22.7949 C   0  0  0  0  0  0  0  0  0  0  0  0
  -25.5376  -22.1962   21.5244 C   0  0  0  0  0  0  0  0  0  0  0  0
  -26.0818  -22.2514   15.7989 C   0  0  0  0  0  0  0  0  0  0  0  0
  -25.8500  -28.1172   18.6201 C   0  0  0  0  0  0  0  0  0  0  0  0
  -26.3265  -28.0865   21.5385 C   0  0  0  0  0  0  0  0  0  0  0  0
  -27.1533  -22.7226   16.7787 C   0  0  0  0  0  0  0  0  0  0  0  0
  -28.5134  -20.5385   20.4882 C   0  0  0  0  0  0  0  0  0  0  0  0
  -26.5840  -22.8094   18.1912 C   0  0  0  0  0  0  0  0  0  0  0  0
  -28.0147  -19.1865   19.9731 C   0  0  0  0  0  0  0  0  0  0  0  0
  -27.7154  -21.0126   21.7015 C   0  0  0  0  0  0  0  0  0  0  0  0
  -25.7604  -19.6881   20.9995 C   0  0  0  0  0  0  0  0  0  0  0  0
  -18.1939  -26.9780   22.8151 C   0  0  0  0  0  0  0  0  0  0  0  0
  -25.4396  -23.8276   18.2632 C   0  0  1  0  0  0  0  0  0  0  0  0
  -26.8881  -27.1969   19.2547 C   0  0  1  0  0  0  0  0  0  0  0  0
  -26.4915  -19.2000   19.7381 C   0  0  2  0  0  0  0  0  0  0  0  0
  -19.5276  -26.3124   22.5027 C   0  0  2  0  0  0  0  0  0  0  0  0
  -19.7646  -28.6661   22.7761 C   0  0  1  0  0  0  0  0  0  0  0  0
  -31.5140  -31.4008   23.8298 C   0  0  0  0  0  0  0  0  0  0  0  0
  -19.7319  -30.9431   21.7122 C   0  0  0  0  0  0  0  0  0  0  0  0
  -28.8106  -25.4038   23.0559 C   0  0  0  0  0  0  0  0  0  0  0  0
  -30.0608  -27.0233   24.4990 C   0  0  0  0  0  0  0  0  0  0  0  0
  -31.0432  -26.2689   22.3337 C   0  0  0  0  0  0  0  0  0  0  0  0
  -29.0569  -32.7299   21.2467 C   0  0  0  0  0  0  0  0  0  0  0  0
  -19.7978  -25.0533   23.3004 C   0  0  0  0  0  0  0  0  0  0  0  0
  -29.0805  -27.8626   22.3159 C   0  0  1  0  0  0  0  0  0  0  0  0
  -30.5997  -31.3225   22.6171 C   0  0  2  0  0  0  0  0  0  0  0  0
  -20.4365  -29.5969   21.7825 C   0  0  1  0  0  0  0  0  0  1  0  0
  -29.7232  -26.6464   23.0407 C   0  0  0  0  0  0  0  0  0  0  0  0
  -26.1182  -16.7873   20.0856 N   0  0  0  0  0  0  0  0  0  0  0  0
  -25.9824  -17.8487   19.2725 N   0  0  0  0  0  0  0  0  0  0  0  0
  -18.3920  -28.3598   22.3715 N   0  0  0  0  0  0  0  0  0  0  0  0
  -27.3472  -27.6775   20.5595 N   0  0  0  0  0  0  0  0  0  0  0  0
  -26.2815  -21.0033   21.4037 N   0  0  0  0  0  0  0  0  0  0  0  0
  -25.1629  -18.5101   17.1509 N   0  0  0  0  0  0  0  0  0  0  0  0
  -24.2523  -14.0888   17.2874 N   0  0  0  0  0  0  0  0  0  0  0  0
  -24.1910  -22.0729   21.1836 N   0  0  0  0  0  0  0  0  0  0  0  0
  -25.9641  -25.1760   18.2954 N   0  0  0  0  0  0  0  0  0  0  0  0
  -29.9332  -29.0451   22.2625 N   0  0  0  0  0  0  0  0  0  0  0  0
  -20.5277  -27.3753   22.8544 N   0  3  0  0  0  0  0  0  0  0  0  0
  -29.9651  -32.6565   22.4201 N   0  3  0  0  0  0  0  0  0  0  0  0
  -24.1030  -15.9817   16.0017 O   0  0  0  0  0  0  0  0  0  0  0  0
  -26.3603  -25.3193   20.5856 O   0  0  0  0  0  0  0  0  0  0  0  0
  -29.5826  -27.2081   20.0920 O   0  0  0  0  0  0  0  0  0  0  0  0
  -28.4631  -30.4682   23.3538 O   0  0  0  0  0  0  0  0  0  0  0  0
  -26.0627  -23.2557   21.8761 O   0  0  0  0  0  0  0  0  0  0  0  0
  -25.3975  -10.6188   21.4925 O   0  0  0  0  0  0  0  0  0  0  0  0
  -21.7882  -29.7922   22.1962 O   0  0  0  0  0  0  0  0  0  1  0  0
  -20.6817   -7.8050   20.9953 F   0  0  0  0  0  0  0  0  0  0  0  0
  -24.3359  -10.0586   19.0021 F   0  0  0  0  0  0  0  0  0  0  0  0
  1  2  1  0  0  0  0
  1  5  2  0  0  0  0
  2  6  2  0  0  0  0
  3 12  2  0  0  0  0
  3 19  1  0  0  0  0
  4 13  1  0  0  0  0
  4 19  2  0  0  0  0
  5 21  1  0  0  0  0
  6 23  1  0  0  0  0
  7 14  2  0  0  0  0
  7 22  1  0  0  0  0
  8 10  2  0  0  0  0
  8 25  1  0  0  0  0
  9 11  1  0  0  0  0
  9 25  2  0  0  0  0
 10 26  1  0  0  0  0
 11 26  2  0  0  0  0
 12 27  1  0  0  0  0
 13 27  2  0  0  0  0
 14 28  1  0  0  0  0
 15 16  2  0  0  0  0
 15 29  1  0  0  0  0
 16 30  1  0  0  0  0
 17 24  1  0  0  0  0
 17 28  2  0  0  0  0
 18 30  2  0  0  0  0
 18 31  1  0  0  0  0
 19 32  1  0  0  0  0
 20 32  1  0  0  0  0
 20 33  2  0  0  0  0
 20 34  1  0  0  0  0
 21 23  2  0  0  0  0
 21 39  1  0  0  0  0
 22 24  2  0  0  0  0
 22 40  1  0  0  0  0
 23 49  1  0  0  0  0
 24 41  1  0  0  0  0
 25 60  1  0  0  0  0
 26 72  1  0  0  0  0
 27 82  1  0  0  0  0
 28 83  1  0  0  0  0
 29 31  2  0  0  0  0
 29 82  1  0  0  0  0
 30 84  1  0  0  0  0
 31 85  1  0  0  0  0
 32 65  2  0  0  0  0
 33 66  1  0  0  0  0
 33 70  1  0  0  0  0
 34 71  1  0  0  0  0
 34 77  2  0  0  0  0
 35 50  1  0  0  0  0
 35 73  1  0  0  0  0
 35 78  2  0  0  0  0
 36 61  1  0  0  0  0
 36 68  1  0  0  0  0
 36 79  2  0  0  0  0
 37 62  1  0  0  0  0
 37 74  1  0  0  0  0
 37 80  2  0  0  0  0
 38 69  1  0  0  0  0
 38 72  1  0  0  0  0
 38 81  2  0  0  0  0
 39 42  1  0  0  0  0
 40 50  1  0  0  0  0
 41 68  1  0  0  0  0
 42 44  1  0  0  0  0
 43 45  1  0  0  0  0
 43 46  1  0  0  0  0
 44 49  1  0  0  0  0
 45 51  1  0  0  0  0
 46 69  1  0  0  0  0
 47 51  1  0  0  0  0
 47 69  1  0  0  0  0
 48 52  1  0  0  0  0
 48 67  1  0  0  0  0
 49 73  1  0  0  0  0
 50 68  1  0  0  0  0
 51 66  1  0  0  0  0
 52 60  1  0  0  0  0
 52 75  1  0  0  0  0
 53 63  1  0  0  0  0
 53 67  1  0  0  0  0
 53 75  1  0  0  0  0
 54 62  1  0  0  0  0
 55 63  1  0  0  0  0
 56 64  1  0  0  0  0
 57 64  1  0  0  0  0
 58 64  1  0  0  0  0
 59 76  1  0  0  0  0
 61 64  1  0  0  0  0
 61 74  1  0  0  0  0
 62 76  1  0  0  0  0
 63 83  1  0  0  0  0
 65 66  1  0  0  0  0
M  CHG  2  75   1  76   1
M  ISO  4  38 100  63 101  72 100  83 101
M  END
> <Batch ID>
0130

> <Smiles>
CNC(C)C(=O)NC(C(=O)N1Cc2cc([101O:1][101CH:1](C)C3NCC(Cc4ccc([100NH:0][100C:0](=O)N5CCCC(n6nc(-c7ccc(Oc8ccc(F)cc8F)cc7)c(C(N)=O)c6N)C5)cc4)N3)ccc2CC1C(=O)NC1CCCc2ccccc21)C(C)(C)C

> <Shape>
0.214

> <Color>
0.073

> <Negative vol penalty>
0.000

$$$$

  -OEChem-04052320473D

 85 94  0     1  0  0  0  0  0999 V2000
  -30.8995  -25.5126   16.7104 C   0  0  0  0  0  0  0  0  0  0  0  0
  -29.7663  -24.7932   17.0728 C   0  0  0  0  0  0  0  0  0  0  0  0
  -29.0001  -17.0070   19.3331 C   0  0  0  0  0  0  0  0  0  0  0  0
  -27.3277  -17.5767   20.9810 C   0  0  0  0  0  0  0  0  0  0  0  0
  -31.2819  -26.6256   17.4561 C   0  0  0  0  0  0  0  0  0  0  0  0
  -29.0085  -25.1936   18.1739 C   0  0  0  0  0  0  0  0  0  0  0  0
  -20.8343  -19.7318   23.1926 C   0  0  0  0  0  0  0  0  0  0  0  0
  -24.1441  -22.6141   20.7836 C   0  0  0  0  0  0  0  0  0  0  0  0
  -20.2170  -18.5084   22.9348 C   0  0  0  0  0  0  0  0  0  0  0  0
  -29.3941  -18.3435   19.2708 C   0  0  0  0  0  0  0  0  0  0  0  0
  -27.7218  -18.9133   20.9188 C   0  0  0  0  0  0  0  0  0  0  0  0
  -23.8871  -21.7061   21.8099 C   0  0  0  0  0  0  0  0  0  0  0  0
  -30.2223  -20.8307   22.1401 C   0  0  0  0  0  0  0  0  0  0  0  0
  -30.3813  -21.5147   23.3453 C   0  0  0  0  0  0  0  0  0  0  0  0
  -20.6209  -17.8294   25.2139 C   0  0  0  0  0  0  0  0  0  0  0  0
  -23.5039  -23.5406   23.3288 C   0  0  0  0  0  0  0  0  0  0  0  0
  -28.6888  -23.1004   22.6686 C   0  0  0  0  0  0  0  0  0  0  0  0
  -27.9669  -16.6235   20.1882 C   0  0  0  0  0  0  0  0  0  0  0  0
  -28.3520  -14.1385   20.6169 C   0  0  0  0  0  0  0  0  0  0  0  0
  -30.5349  -27.0317   18.5742 C   0  0  0  0  0  0  0  0  0  0  0  0
  -24.0935  -23.9945   21.0253 C   0  0  0  0  0  0  0  0  0  0  0  0
  -29.3647  -26.3283   18.9250 C   0  0  0  0  0  0  0  0  0  0  0  0
  -21.3500  -20.0208   24.4665 C   0  0  0  0  0  0  0  0  0  0  0  0
  -21.2537  -19.0527   25.4840 C   0  0  0  0  0  0  0  0  0  0  0  0
  -23.7581  -24.4640   22.3033 C   0  0  0  0  0  0  0  0  0  0  0  0
  -20.1089  -17.5582   23.9456 C   0  0  0  0  0  0  0  0  0  0  0  0
  -28.7550  -19.2967   20.0637 C   0  0  0  0  0  0  0  0  0  0  0  0
  -23.5698  -22.1693   23.0835 C   0  0  0  0  0  0  0  0  0  0  0  0
  -29.2966  -21.2816   21.1991 C   0  0  0  0  0  0  0  0  0  0  0  0
  -29.6145  -22.6495   23.6095 C   0  0  0  0  0  0  0  0  0  0  0  0
  -28.5298  -22.4164   21.4633 C   0  0  0  0  0  0  0  0  0  0  0  0
  -27.5590  -15.2431   20.2525 C   0  0  0  0  0  0  0  0  0  0  0  0
  -27.5056  -13.0611   20.5197 C   0  0  0  0  0  0  0  0  0  0  0  0
  -29.7305  -14.0905   21.0084 C   0  0  0  0  0  0  0  0  0  0  0  0
  -26.1924  -26.3767   20.8736 C   0  0  0  0  0  0  0  0  0  0  0  0
  -23.5818  -28.1985   21.4966 C   0  0  0  0  0  0  0  0  0  0  0  0
  -20.4378  -28.4034   22.8081 C   0  0  0  0  0  0  0  0  0  0  0  0
  -21.5534  -12.5084   20.8609 C   0  0  0  0  0  0  0  0  0  0  0  0
  -30.9898  -28.2484   19.3411 C   0  0  0  0  0  0  0  0  0  0  0  0
  -24.3470  -24.9609   19.9010 C   0  0  0  0  0  0  0  0  0  0  0  0
  -21.7577  -19.3200   26.8804 C   0  0  0  0  0  0  0  0  0  0  0  0
  -23.6708  -25.9361   22.6096 C   0  0  0  0  0  0  0  0  0  0  0  0
  -30.3850  -28.3304   20.7389 C   0  0  0  0  0  0  0  0  0  0  0  0
  -22.7324  -20.4930   26.9596 C   0  0  0  0  0  0  0  0  0  0  0  0
  -23.6414  -11.5377   18.1453 C   0  0  0  0  0  0  0  0  0  0  0  0
  -28.8791  -28.1267   20.6664 C   0  0  0  0  0  0  0  0  0  0  0  0
  -22.1890  -21.6895   26.1845 C   0  0  0  0  0  0  0  0  0  0  0  0
  -24.9538  -12.2776   18.4103 C   0  0  0  0  0  0  0  0  0  0  0  0
  -22.4299  -12.3756   18.5477 C   0  0  0  0  0  0  0  0  0  0  0  0
  -23.7714  -13.6209   20.1980 C   0  0  0  0  0  0  0  0  0  0  0  0
  -28.5422  -26.7270   20.1370 C   0  0  1  0  0  0  0  0  0  0  0  0
  -22.0324  -21.3466   24.7005 C   0  0  1  0  0  0  0  0  0  1  0  0
  -24.7716  -26.3437   20.3860 C   0  0  1  0  0  0  0  0  0  0  0  0
  -25.0236  -12.7938   19.8601 C   0  0  2  0  0  0  0  0  0  0  0  0
  -18.5714  -30.0331   23.2054 C   0  0  0  0  0  0  0  0  0  0  0  0
  -25.1356  -29.4058   23.8285 C   0  0  0  0  0  0  0  0  0  0  0  0
  -22.9688  -30.2779   24.7300 C   0  0  0  0  0  0  0  0  0  0  0  0
  -23.7937  -31.0505   22.5062 C   0  0  0  0  0  0  0  0  0  0  0  0
  -18.5674  -26.8511   21.1196 C   0  0  0  0  0  0  0  0  0  0  0  0
  -19.4438  -16.2512   23.6737 C   0  0  0  0  0  0  0  0  0  0  0  0
  -20.8138  -12.7171   23.2207 C   0  0  0  0  0  0  0  0  0  0  0  0
  -19.7534  -13.7974   23.3250 C   0  0  0  0  0  0  0  0  0  0  0  0
  -22.9003  -28.6977   22.7477 C   0  0  1  0  0  0  0  0  0  0  0  0
  -19.1533  -28.9960   22.2574 C   0  0  2  0  0  0  0  0  0  0  0  0
  -23.7031  -29.8302   23.4481 C   0  0  0  0  0  0  0  0  0  0  0  0
  -26.3052  -14.8991   19.9464 N   0  0  0  0  0  0  0  0  0  0  0  0
  -26.3040  -13.5662   20.1182 N   0  0  0  0  0  0  0  0  0  0  0  0
  -23.9334  -26.8414   21.4787 N   0  0  0  0  0  0  0  0  0  0  0  0
  -22.5575  -12.8326   19.9337 N   0  0  0  0  0  0  0  0  0  0  0  0
  -27.6795  -11.7405   20.7391 N   0  0  0  0  0  0  0  0  0  0  0  0
  -30.4538  -15.2901   21.0556 N   0  0  0  0  0  0  0  0  0  0  0  0
  -27.1201  -26.6470   19.8858 N   0  0  0  0  0  0  0  0  0  0  0  0
  -21.5492  -29.0800   22.3518 N   0  0  0  0  0  0  0  0  0  0  0  0
  -21.7554  -12.9751   22.1540 N   0  0  0  0  0  0  0  0  0  0  0  0
  -18.1366  -27.9263   22.0497 N   0  3  0  0  0  0  0  0  0  0  0  0
  -20.4004  -15.1179   23.5397 N   0  3  0  0  0  0  0  0  0  0  0  0
  -30.3082  -13.0137   21.2917 O   0  0  0  0  0  0  0  0  0  0  0  0
  -26.4293  -26.1737   22.0586 O   0  0  0  0  0  0  0  0  0  0  0  0
  -23.7878  -28.9821   20.5665 O   0  0  0  0  0  0  0  0  0  0  0  0
  -20.4534  -27.4391   23.5700 O   0  0  0  0  0  0  0  0  0  0  0  0
  -20.5538  -11.8472   20.5599 O   0  0  0  0  0  0  0  0  0  0  0  0
  -29.1393  -20.6010   20.0034 O   0  0  0  0  0  0  0  0  0  0  0  0
  -23.3193  -21.2852   24.0872 O   0  0  0  0  0  0  0  0  0  1  0  0
  -29.7662  -23.3054   24.7676 F   0  0  0  0  0  0  0  0  0  0  0  0
  -27.6380  -22.8537   20.5637 F   0  0  0  0  0  0  0  0  0  0  0  0
  1  2  1  0  0  0  0
  1  5  2  0  0  0  0
  2  6  2  0  0  0  0
  3 10  2  0  0  0  0
  3 18  1  0  0  0  0
  4 11  1  0  0  0  0
  4 18  2  0  0  0  0
  5 20  1  0  0  0  0
  6 22  1  0  0  0  0
  7  9  2  0  0  0  0
  7 23  1  0  0  0  0
  8 12  2  0  0  0  0
  8 21  1  0  0  0  0
  9 26  1  0  0  0  0
 10 27  1  0  0  0  0
 11 27  2  0  0  0  0
 12 28  1  0  0  0  0
 13 14  2  0  0  0  0
 13 29  1  0  0  0  0
 14 30  1  0  0  0  0
 15 24  1  0  0  0  0
 15 26  2  0  0  0  0
 16 25  1  0  0  0  0
 16 28  2  0  0  0  0
 17 30  2  0  0  0  0
 17 31  1  0  0  0  0
 18 32  1  0  0  0  0
 19 32  1  0  0  0  0
 19 33  2  0  0  0  0
 19 34  1  0  0  0  0
 20 22  2  0  0  0  0
 20 39  1  0  0  0  0
 21 25  2  0  0  0  0
 21 40  1  0  0  0  0
 22 51  1  0  0  0  0
 23 24  2  0  0  0  0
 23 52  1  0  0  0  0
 24 41  1  0  0  0  0
 25 42  1  0  0  0  0
 26 60  1  0  0  0  0
 27 82  1  0  0  0  0
 28 83  1  0  0  0  0
 29 31  2  0  0  0  0
 29 82  1  0  0  0  0
 30 84  1  0  0  0  0
 31 85  1  0  0  0  0
 32 66  2  0  0  0  0
 33 67  1  0  0  0  0
 33 70  1  0  0  0  0
 34 71  1  0  0  0  0
 34 77  2  0  0  0  0
 35 53  1  0  0  0  0
 35 72  1  0  0  0  0
 35 78  2  0  0  0  0
 36 63  1  0  0  0  0
 36 68  1  0  0  0  0
 36 79  2  0  0  0  0
 37 64  1  0  0  0  0
 37 73  1  0  0  0  0
 37 80  2  0  0  0  0
 38 69  1  0  0  0  0
 38 74  1  0  0  0  0
 38 81  2  0  0  0  0
 39 43  1  0  0  0  0
 40 53  1  0  0  0  0
 41 44  1  0  0  0  0
 42 68  1  0  0  0  0
 43 46  1  0  0  0  0
 44 47  1  0  0  0  0
 45 48  1  0  0  0  0
 45 49  1  0  0  0  0
 46 51  1  0  0  0  0
 47 52  1  0  0  0  0
 48 54  1  0  0  0  0
 49 69  1  0  0  0  0
 50 54  1  0  0  0  0
 50 69  1  0  0  0  0
 51 72  1  0  0  0  0
 52 83  1  0  0  0  0
 53 68  1  0  0  0  0
 54 67  1  0  0  0  0
 55 64  1  0  0  0  0
 56 65  1  0  0  0  0
 57 65  1  0  0  0  0
 58 65  1  0  0  0  0
 59 75  1  0  0  0  0
 60 76  1  0  0  0  0
 61 62  1  0  0  0  0
 61 74  1  0  0  0  0
 62 76  1  0  0  0  0
 63 65  1  0  0  0  0
 63 73  1  0  0  0  0
 64 75  1  0  0  0  0
 66 67  1  0  0  0  0
M  CHG  2  75   1  76   1
M  ISO  4  38 100  52 101  74 100  83 101
M  END
> <Batch ID>
0130

> <Smiles>
CNC(C)C(=O)NC(C(=O)N1Cc2cc([101O:1][101CH:1]3CCCc4cc(CNCC[100NH:0][100C:0](=O)N5CCCC(n6nc(-c7ccc(Oc8ccc(F)cc8F)cc7)c(C(N)=O)c6N)C5)ccc43)ccc2CC1C(=O)NC1CCCc2ccccc21)C(C)(C)C

> <Shape>
0.247

> <Color>
0.057

> <Negative vol penalty>
0.000

$$$$

  -OEChem-04052320473D

 84 93  0     1  0  0  0  0  0999 V2000
  -33.0727  -33.4306   26.5502 C   0  0  0  0  0  0  0  0  0  0  0  0
  -33.3751  -32.0902   26.3325 C   0  0  0  0  0  0  0  0  0  0  0  0
  -23.0409   -9.8976   19.9870 C   0  0  0  0  0  0  0  0  0  0  0  0
  -23.8804   -9.9248   22.2523 C   0  0  0  0  0  0  0  0  0  0  0  0
  -31.9863  -34.0135   25.8993 C   0  0  0  0  0  0  0  0  0  0  0  0
  -32.5906  -31.3317   25.4644 C   0  0  0  0  0  0  0  0  0  0  0  0
  -34.4851  -26.8234   21.7777 C   0  0  0  0  0  0  0  0  0  0  0  0
  -22.3198   -8.7372   20.2681 C   0  0  0  0  0  0  0  0  0  0  0  0
  -23.1592   -8.7644   22.5334 C   0  0  0  0  0  0  0  0  0  0  0  0
  -34.4639  -25.4353   21.9061 C   0  0  0  0  0  0  0  0  0  0  0  0
  -23.4694   -5.4433   21.9815 C   0  0  0  0  0  0  0  0  0  0  0  0
  -24.1216   -4.4287   22.6821 C   0  0  0  0  0  0  0  0  0  0  0  0
  -32.4086  -25.3561   20.6459 C   0  0  0  0  0  0  0  0  0  0  0  0
  -22.4790   -4.5912   24.4464 C   0  0  0  0  0  0  0  0  0  0  0  0
  -23.8212  -10.4914   20.9790 C   0  0  0  0  0  0  0  0  0  0  0  0
  -24.1290  -13.0197   20.8355 C   0  0  0  0  0  0  0  0  0  0  0  0
  -31.1938  -33.2644   25.0153 C   0  0  0  0  0  0  0  0  0  0  0  0
  -33.4607  -27.4903   21.0906 C   0  0  0  0  0  0  0  0  0  0  0  0
  -31.4917  -31.9049   24.8020 C   0  0  0  0  0  0  0  0  0  0  0  0
  -32.4204  -26.7525   20.5079 C   0  0  0  0  0  0  0  0  0  0  0  0
  -22.3789   -8.1706   21.5413 C   0  0  0  0  0  0  0  0  0  0  0  0
  -33.4240  -24.7017   21.3427 C   0  0  0  0  0  0  0  0  0  0  0  0
  -22.3220   -6.0319   22.5133 C   0  0  0  0  0  0  0  0  0  0  0  0
  -23.6264   -4.0027   23.9146 C   0  0  0  0  0  0  0  0  0  0  0  0
  -21.8268   -5.6058   23.7457 C   0  0  0  0  0  0  0  0  0  0  0  0
  -24.5668  -11.6898   20.6890 C   0  0  0  0  0  0  0  0  0  0  0  0
  -25.1989  -13.7799   20.4308 C   0  0  0  0  0  0  0  0  0  0  0  0
  -22.8680  -13.5229   21.2963 C   0  0  0  0  0  0  0  0  0  0  0  0
  -31.2712  -29.6556   21.8788 C   0  0  0  0  0  0  0  0  0  0  0  0
  -30.6518  -29.6184   18.6949 C   0  0  0  0  0  0  0  0  0  0  0  0
  -30.7935  -27.9248   15.7354 C   0  0  0  0  0  0  0  0  0  0  0  0
  -30.8195  -14.5411   20.8663 C   0  0  0  0  0  0  0  0  0  0  0  0
  -30.0013  -33.9257   24.3710 C   0  0  0  0  0  0  0  0  0  0  0  0
  -33.5122  -28.9858   20.9379 C   0  0  0  0  0  0  0  0  0  0  0  0
  -31.3073  -27.4190   19.7428 C   0  0  0  0  0  0  0  0  0  0  0  0
  -29.4454  -33.1511   23.1789 C   0  0  0  0  0  0  0  0  0  0  0  0
  -29.4782  -12.4909   18.0845 C   0  0  0  0  0  0  0  0  0  0  0  0
  -29.3133  -31.6700   23.5193 C   0  0  0  0  0  0  0  0  0  0  0  0
  -28.0712  -12.1518   18.5730 C   0  0  0  0  0  0  0  0  0  0  0  0
  -29.7656  -20.9044   24.1671 C   0  0  0  0  0  0  0  0  0  0  0  0
  -31.5048  -17.3435   22.7933 C   0  0  0  0  0  0  0  0  0  0  0  0
  -29.4878  -17.7692   21.3330 C   0  0  0  0  0  0  0  0  0  0  0  0
  -30.4414  -12.7189   19.2451 C   0  0  0  0  0  0  0  0  0  0  0  0
  -30.1660  -22.2282   24.8154 C   0  0  0  0  0  0  0  0  0  0  0  0
  -31.0584  -15.8903   22.9297 C   0  0  0  0  0  0  0  0  0  0  0  0
  -29.0945  -16.2961   21.4771 C   0  0  0  0  0  0  0  0  0  0  0  0
  -28.5684  -13.4074   20.7080 C   0  0  0  0  0  0  0  0  0  0  0  0
  -30.6793  -31.0557   23.8486 C   0  0  1  0  0  0  0  0  0  0  0  0
  -32.1464  -29.6053   20.6584 C   0  0  1  0  0  0  0  0  0  0  0  0
  -27.5639  -13.2155   19.5618 C   0  0  2  0  0  0  0  0  0  0  0  0
  -30.2973  -18.2432   22.5381 C   0  0  0  0  0  0  0  0  0  0  0  0
  -31.0503  -20.4102   23.5259 C   0  0  2  0  0  0  0  0  0  0  0  0
  -31.8088  -21.6910   23.2251 C   0  0  2  0  0  0  0  0  0  0  0  0
  -30.1746  -28.1370   13.3127 C   0  0  0  0  0  0  0  0  0  0  0  0
  -27.7313  -29.0810   19.3963 C   0  0  0  0  0  0  0  0  0  0  0  0
  -27.3649  -28.3700   17.0239 C   0  0  0  0  0  0  0  0  0  0  0  0
  -28.0732  -30.7081   17.5281 C   0  0  0  0  0  0  0  0  0  0  0  0
  -33.6151  -27.6889   14.8743 C   0  0  0  0  0  0  0  0  0  0  0  0
  -33.2943  -21.4851   22.9792 C   0  0  0  0  0  0  0  0  0  0  0  0
  -33.9957  -22.7898   22.6365 C   0  0  0  0  0  0  0  0  0  1  0  0
  -29.7384  -28.8242   17.7926 C   0  0  1  0  0  0  0  0  0  0  0  0
  -31.2623  -28.3469   14.3547 C   0  0  2  0  0  0  0  0  0  0  0  0
  -28.2467  -29.2331   17.9512 C   0  0  0  0  0  0  0  0  0  0  0  0
  -25.8173  -11.6065   20.2272 N   0  0  0  0  0  0  0  0  0  0  0  0
  -26.1744  -12.8937   20.0798 N   0  0  0  0  0  0  0  0  0  0  0  0
  -31.5705  -22.4498   24.4579 N   0  0  0  0  0  0  0  0  0  0  0  0
  -31.3989  -28.8837   19.6265 N   0  0  0  0  0  0  0  0  0  0  0  0
  -29.9165  -13.6986   20.1964 N   0  0  0  0  0  0  0  0  0  0  0  0
  -30.2741  -15.4676   21.7678 N   0  0  0  0  0  0  0  0  0  0  0  0
  -25.3910  -15.1134   20.3443 N   0  0  0  0  0  0  0  0  0  0  0  0
  -21.8792  -12.6038   21.6730 N   0  0  0  0  0  0  0  0  0  0  0  0
  -31.4253  -30.8021   22.6347 N   0  0  0  0  0  0  0  0  0  0  0  0
  -30.2612  -28.9837   16.4400 N   0  0  0  0  0  0  0  0  0  0  0  0
  -30.7693  -19.6302   22.2909 N   0  3  0  0  0  0  0  0  0  0  0  0
  -32.4595  -27.5570   13.9501 N   0  3  0  0  0  0  0  0  0  0  0  0
  -22.6195  -14.7510   21.3562 O   0  0  0  0  0  0  0  0  0  0  0  0
  -30.5113  -28.7241   22.1161 O   0  0  0  0  0  0  0  0  0  0  0  0
  -30.7059  -30.8447   18.5726 O   0  0  0  0  0  0  0  0  0  0  0  0
  -30.8865  -26.7702   16.1463 O   0  0  0  0  0  0  0  0  0  0  0  0
  -32.0388  -14.4699   20.6681 O   0  0  0  0  0  0  0  0  0  0  0  0
  -21.6752   -7.0384   21.8161 O   0  0  0  0  0  0  0  0  0  0  0  0
  -33.4004  -23.3368   21.4680 O   0  0  0  0  0  0  0  0  0  1  0  0
  -24.2519   -3.0273   24.5866 F   0  0  0  0  0  0  0  0  0  0  0  0
  -20.7242   -6.1666   24.2612 F   0  0  0  0  0  0  0  0  0  0  0  0
  1  2  1  0  0  0  0
  1  5  2  0  0  0  0
  2  6  2  0  0  0  0
  3  8  2  0  0  0  0
  3 15  1  0  0  0  0
  4  9  1  0  0  0  0
  4 15  2  0  0  0  0
  5 17  1  0  0  0  0
  6 19  1  0  0  0  0
  7 10  2  0  0  0  0
  7 18  1  0  0  0  0
  8 21  1  0  0  0  0
  9 21  2  0  0  0  0
 10 22  1  0  0  0  0
 11 12  2  0  0  0  0
 11 23  1  0  0  0  0
 12 24  1  0  0  0  0
 13 20  1  0  0  0  0
 13 22  2  0  0  0  0
 14 24  2  0  0  0  0
 14 25  1  0  0  0  0
 15 26  1  0  0  0  0
 16 26  1  0  0  0  0
 16 27  2  0  0  0  0
 16 28  1  0  0  0  0
 17 19  2  0  0  0  0
 17 33  1  0  0  0  0
 18 20  2  0  0  0  0
 18 34  1  0  0  0  0
 19 48  1  0  0  0  0
 20 35  1  0  0  0  0
 21 81  1  0  0  0  0
 22 82  1  0  0  0  0
 23 25  2  0  0  0  0
 23 81  1  0  0  0  0
 24 83  1  0  0  0  0
 25 84  1  0  0  0  0
 26 64  2  0  0  0  0
 27 65  1  0  0  0  0
 27 70  1  0  0  0  0
 28 71  1  0  0  0  0
 28 76  2  0  0  0  0
 29 49  1  0  0  0  0
 29 72  1  0  0  0  0
 29 77  2  0  0  0  0
 30 61  1  0  0  0  0
 30 67  1  0  0  0  0
 30 78  2  0  0  0  0
 31 62  1  0  0  0  0
 31 73  1  0  0  0  0
 31 79  2  0  0  0  0
 32 68  1  0  0  0  0
 32 69  1  0  0  0  0
 32 80  2  0  0  0  0
 33 36  1  0  0  0  0
 34 49  1  0  0  0  0
 35 67  1  0  0  0  0
 36 38  1  0  0  0  0
 37 39  1  0  0  0  0
 37 43  1  0  0  0  0
 38 48  1  0  0  0  0
 39 50  1  0  0  0  0
 40 44  1  0  0  0  0
 40 52  1  0  0  0  0
 41 45  1  0  0  0  0
 41 51  1  0  0  0  0
 42 46  1  0  0  0  0
 42 51  1  0  0  0  0
 43 68  1  0  0  0  0
 44 66  1  0  0  0  0
 45 69  1  0  0  0  0
 46 69  1  0  0  0  0
 47 50  1  0  0  0  0
 47 68  1  0  0  0  0
 48 72  1  0  0  0  0
 49 67  1  0  0  0  0
 50 65  1  0  0  0  0
 51 74  1  0  0  0  0
 52 53  1  0  0  0  0
 52 74  1  0  0  0  0
 53 59  1  0  0  0  0
 53 66  1  0  0  0  0
 54 62  1  0  0  0  0
 55 63  1  0  0  0  0
 56 63  1  0  0  0  0
 57 63  1  0  0  0  0
 58 75  1  0  0  0  0
 59 60  1  0  0  0  0
 60 82  1  0  0  0  0
 61 63  1  0  0  0  0
 61 73  1  0  0  0  0
 62 75  1  0  0  0  0
 64 65  1  0  0  0  0
M  CHG  2  74   1  75   1
M  ISO  4  32 100  60 101  69 100  82 101
M  END
> <Batch ID>
0130

> <Smiles>
CNC(C)C(=O)NC(C(=O)N1Cc2cc([101O:1][101CH2:1]CC3NCCC3NC3CC[100N:0]([100C:0](=O)N4CCCC(n5nc(-c6ccc(Oc7ccc(F)cc7F)cc6)c(C(N)=O)c5N)C4)CC3)ccc2CC1C(=O)NC1CCCc2ccccc21)C(C)(C)C

> <Shape>
0.202

> <Color>
0.177

> <Negative vol penalty>
0.000

$$$$

  -OEChem-04052320473D

 86 94  0     1  0  0  0  0  0999 V2000
  -28.3664  -11.2158   19.9864 C   0  0  0  0  0  0  0  0  0  0  0  0
  -28.5857  -12.4514   19.3859 C   0  0  0  0  0  0  0  0  0  0  0  0
  -28.5109  -25.8697   22.3285 C   0  0  0  0  0  0  0  0  0  0  0  0
  -16.9736  -25.5886   23.2500 C   0  0  0  0  0  0  0  0  0  0  0  0
  -18.8314  -24.0504   23.1098 C   0  0  0  0  0  0  0  0  0  0  0  0
  -27.1231  -10.9250   20.5463 C   0  0  0  0  0  0  0  0  0  0  0  0
  -27.5613  -13.3965   19.3439 C   0  0  0  0  0  0  0  0  0  0  0  0
  -29.1548  -18.0442   20.5703 C   0  0  0  0  0  0  0  0  0  0  0  0
  -27.5590  -26.7645   21.8400 C   0  0  0  0  0  0  0  0  0  0  0  0
  -29.5601  -25.4517   21.5099 C   0  0  0  0  0  0  0  0  0  0  0  0
  -16.1482  -24.5520   23.6855 C   0  0  0  0  0  0  0  0  0  0  0  0
  -18.0060  -23.0138   23.5453 C   0  0  0  0  0  0  0  0  0  0  0  0
  -29.8449  -18.7594   19.5925 C   0  0  0  0  0  0  0  0  0  0  0  0
  -16.7327  -21.9089   26.4743 C   0  0  0  0  0  0  0  0  0  0  0  0
  -17.2332  -21.0524   27.4548 C   0  0  0  0  0  0  0  0  0  0  0  0
  -27.8326  -19.9864   19.0783 C   0  0  0  0  0  0  0  0  0  0  0  0
  -28.7053  -26.8233   19.7140 C   0  0  0  0  0  0  0  0  0  0  0  0
  -16.9791  -19.1802   25.9490 C   0  0  0  0  0  0  0  0  0  0  0  0
  -18.3152  -25.3378   22.9621 C   0  0  0  0  0  0  0  0  0  0  0  0
  -19.9431  -27.2709   23.3097 C   0  0  0  0  0  0  0  0  0  0  0  0
  -26.0859  -11.8706   20.5197 C   0  0  0  0  0  0  0  0  0  0  0  0
  -27.7934  -18.2876   20.8023 C   0  0  0  0  0  0  0  0  0  0  0  0
  -26.3025  -13.1176   19.9027 C   0  0  0  0  0  0  0  0  0  0  0  0
  -27.1281  -19.2748   20.0613 C   0  0  0  0  0  0  0  0  0  0  0  0
  -27.6562  -27.2413   20.5327 C   0  0  0  0  0  0  0  0  0  0  0  0
  -16.6644  -23.2646   23.8332 C   0  0  0  0  0  0  0  0  0  0  0  0
  -29.1831  -19.7286   18.8444 C   0  0  0  0  0  0  0  0  0  0  0  0
  -29.6573  -25.9285   20.2027 C   0  0  0  0  0  0  0  0  0  0  0  0
  -16.3553  -21.4011   25.2311 C   0  0  0  0  0  0  0  0  0  0  0  0
  -17.3564  -19.6880   27.1922 C   0  0  0  0  0  0  0  0  0  0  0  0
  -16.4785  -20.0367   24.9685 C   0  0  0  0  0  0  0  0  0  0  0  0
  -19.1682  -26.4081   22.5116 C   0  0  0  0  0  0  0  0  0  0  0  0
  -20.5654  -28.1031   22.4115 C   0  0  0  0  0  0  0  0  0  0  0  0
  -20.0875  -27.3161   24.7355 C   0  0  0  0  0  0  0  0  0  0  0  0
  -25.1362  -16.5568   20.5840 C   0  0  0  0  0  0  0  0  0  0  0  0
  -23.7769  -19.1904   21.9026 C   0  0  0  0  0  0  0  0  0  0  0  0
  -23.9143  -22.5563   22.4489 C   0  0  0  0  0  0  0  0  0  0  0  0
  -23.3492  -28.9058   17.6417 C   0  0  0  0  0  0  0  0  0  0  0  0
  -24.7443  -11.4931   21.0960 C   0  0  0  0  0  0  0  0  0  0  0  0
  -27.0698  -17.5263   21.8790 C   0  0  0  0  0  0  0  0  0  0  0  0
  -25.6722  -19.5884   20.2855 C   0  0  0  0  0  0  0  0  0  0  0  0
  -23.8284  -12.6894   21.3416 C   0  0  0  0  0  0  0  0  0  0  0  0
  -19.7965  -28.7631   17.4558 C   0  0  0  0  0  0  0  0  0  0  0  0
  -23.8233  -13.6154   20.1295 C   0  0  0  0  0  0  0  0  0  0  0  0
  -19.3811  -28.2033   18.8174 C   0  0  0  0  0  0  0  0  0  0  0  0
  -21.0964  -28.1338   16.9595 C   0  0  0  0  0  0  0  0  0  0  0  0
  -21.8081  -27.6517   19.2693 C   0  0  0  0  0  0  0  0  0  0  0  0
  -25.2239  -14.1782   19.8593 C   0  0  1  0  0  0  0  0  0  0  0  0
  -25.5579  -17.4973   21.6773 C   0  0  1  0  0  0  0  0  0  0  0  0
  -20.5323  -28.2968   19.8369 C   0  0  2  0  0  0  0  0  0  0  0  0
  -23.2623  -24.7921   23.3837 C   0  0  0  0  0  0  0  0  0  0  0  0
  -21.7986  -19.1789   19.5797 C   0  0  0  0  0  0  0  0  0  0  0  0
  -21.1960  -21.5356   20.1723 C   0  0  0  0  0  0  0  0  0  0  0  0
  -20.7881  -19.6968   21.8079 C   0  0  0  0  0  0  0  0  0  0  0  0
  -25.5643  -22.1540   24.8726 C   0  0  0  0  0  0  0  0  0  0  0  0
  -26.7325  -28.6726   18.7096 C   0  0  0  0  0  0  0  0  0  0  0  0
  -25.5720  -29.6279   18.4765 C   0  0  0  0  0  0  0  0  0  0  0  0
  -31.6787  -21.9154   17.3984 C   0  0  0  0  0  0  0  0  0  0  0  0
  -31.2831  -24.3815   17.3695 C   0  0  0  0  0  0  0  0  0  0  0  0
  -31.2490  -20.6426   18.1007 C   0  0  0  0  0  0  0  0  0  1  0  0
  -30.4293  -25.4628   18.0020 C   0  0  0  0  0  0  0  0  0  0  0  0
  -23.1579  -20.4575   21.3638 C   0  0  1  0  0  0  0  0  0  0  0  0
  -23.7255  -23.3807   23.7096 C   0  0  2  0  0  0  0  0  0  0  0  0
  -21.7621  -20.2102   20.7251 C   0  0  0  0  0  0  0  0  0  0  0  0
  -19.2858  -26.6682   21.2068 N   0  0  0  0  0  0  0  0  0  0  0  0
  -20.1417  -27.7040   21.1781 N   0  0  0  0  0  0  0  0  0  0  0  0
  -25.0067  -18.8126   21.3452 N   0  0  0  0  0  0  0  0  0  0  0  0
  -22.1477  -28.2576   17.9722 N   0  0  0  0  0  0  0  0  0  0  0  0
  -21.4281  -29.1301   22.5644 N   0  0  0  0  0  0  0  0  0  0  0  0
  -19.3766  -26.3881   25.5087 N   0  0  0  0  0  0  0  0  0  0  0  0
  -26.6929  -28.1451   20.0384 N   0  0  0  0  0  0  0  0  0  0  0  0
  -25.5268  -15.2470   20.7868 N   0  0  0  0  0  0  0  0  0  0  0  0
  -23.1490  -21.4095   22.4693 N   0  0  0  0  0  0  0  0  0  0  0  0
  -24.2899  -28.9853   18.6613 N   0  0  0  0  0  0  0  0  0  0  0  0
  -25.0059  -23.4695   24.4669 N   0  3  0  0  0  0  0  0  0  0  0  0
  -30.9255  -23.0642   17.9618 N   0  3  0  0  0  0  0  0  0  0  0  0
  -20.8123  -28.1650   25.3078 O   0  0  0  0  0  0  0  0  0  0  0  0
  -24.5021  -16.9874   19.6278 O   0  0  0  0  0  0  0  0  0  0  0  0
  -23.1942  -18.5628   22.7905 O   0  0  0  0  0  0  0  0  0  0  0  0
  -24.6627  -22.8976   21.5357 O   0  0  0  0  0  0  0  0  0  0  0  0
  -23.5654  -29.3832   16.5227 O   0  0  0  0  0  0  0  0  0  0  0  0
  -15.8593  -22.2528   24.2584 O   0  0  0  0  0  0  0  0  0  0  0  0
  -29.8542  -20.4277   17.8889 O   0  0  0  0  0  0  0  0  0  1  0  0
  -30.6883  -25.5177   19.3986 O   0  0  0  0  0  0  0  0  0  0  0  0
  -17.8385  -18.8659   28.1333 F   0  0  0  0  0  0  0  0  0  0  0  0
  -16.1187  -19.5432   23.7757 F   0  0  0  0  0  0  0  0  0  0  0  0
  1  2  1  0  0  0  0
  1  6  2  0  0  0  0
  2  7  2  0  0  0  0
  3  9  1  0  0  0  0
  3 10  2  0  0  0  0
  4 11  2  0  0  0  0
  4 19  1  0  0  0  0
  5 12  1  0  0  0  0
  5 19  2  0  0  0  0
  6 21  1  0  0  0  0
  7 23  1  0  0  0  0
  8 13  2  0  0  0  0
  8 22  1  0  0  0  0
  9 25  2  0  0  0  0
 10 28  1  0  0  0  0
 11 26  1  0  0  0  0
 12 26  2  0  0  0  0
 13 27  1  0  0  0  0
 14 15  2  0  0  0  0
 14 29  1  0  0  0  0
 15 30  1  0  0  0  0
 16 24  1  0  0  0  0
 16 27  2  0  0  0  0
 17 25  1  0  0  0  0
 17 28  2  0  0  0  0
 18 30  2  0  0  0  0
 18 31  1  0  0  0  0
 19 32  1  0  0  0  0
 20 32  1  0  0  0  0
 20 33  2  0  0  0  0
 20 34  1  0  0  0  0
 21 23  2  0  0  0  0
 21 39  1  0  0  0  0
 22 24  2  0  0  0  0
 22 40  1  0  0  0  0
 23 48  1  0  0  0  0
 24 41  1  0  0  0  0
 25 71  1  0  0  0  0
 26 82  1  0  0  0  0
 27 83  1  0  0  0  0
 28 84  1  0  0  0  0
 29 31  2  0  0  0  0
 29 82  1  0  0  0  0
 30 85  1  0  0  0  0
 31 86  1  0  0  0  0
 32 65  2  0  0  0  0
 33 66  1  0  0  0  0
 33 69  1  0  0  0  0
 34 70  1  0  0  0  0
 34 77  2  0  0  0  0
 35 49  1  0  0  0  0
 35 72  1  0  0  0  0
 35 78  2  0  0  0  0
 36 62  1  0  0  0  0
 36 67  1  0  0  0  0
 36 79  2  0  0  0  0
 37 63  1  0  0  0  0
 37 73  1  0  0  0  0
 37 80  2  0  0  0  0
 38 68  1  0  0  0  0
 38 74  1  0  0  0  0
 38 81  2  0  0  0  0
 39 42  1  0  0  0  0
 40 49  1  0  0  0  0
 41 67  1  0  0  0  0
 42 44  1  0  0  0  0
 43 45  1  0  0  0  0
 43 46  1  0  0  0  0
 44 48  1  0  0  0  0
 45 50  1  0  0  0  0
 46 68  1  0  0  0  0
 47 50  1  0  0  0  0
 47 68  1  0  0  0  0
 48 72  1  0  0  0  0
 49 67  1  0  0  0  0
 50 66  1  0  0  0  0
 51 63  1  0  0  0  0
 52 64  1  0  0  0  0
 53 64  1  0  0  0  0
 54 64  1  0  0  0  0
 55 75  1  0  0  0  0
 56 57  1  0  0  0  0
 56 71  1  0  0  0  0
 57 74  1  0  0  0  0
 58 60  1  0  0  0  0
 58 76  1  0  0  0  0
 59 61  1  0  0  0  0
 59 76  1  0  0  0  0
 60 83  1  0  0  0  0
 61 84  1  0  0  0  0
 62 64  1  0  0  0  0
 62 73  1  0  0  0  0
 63 75  1  0  0  0  0
 65 66  1  0  0  0  0
M  CHG  2  75   1  76   1
M  ISO  4  38 100  60 101  74 100  83 101
M  END
> <Batch ID>
0130

> <Smiles>
CNC(C)C(=O)NC(C(=O)N1Cc2cc([101O:1][101CH2:1]CNCCOc3cccc(NCC[100NH:0][100C:0](=O)N4CCCC(n5nc(-c6ccc(Oc7ccc(F)cc7F)cc6)c(C(N)=O)c5N)C4)c3)ccc2CC1C(=O)NC1CCCc2ccccc21)C(C)(C)C

> <Shape>
0.197

> <Color>
0.079

> <Negative vol penalty>
0.000

$$$$

  -OEChem-04052320473D

 85 94  0     1  0  0  0  0  0999 V2000
  -27.1888  -12.8200   27.3481 C   0  0  0  0  0  0  0  0  0  0  0  0
  -27.4752  -13.5264   26.1843 C   0  0  0  0  0  0  0  0  0  0  0  0
  -22.3025  -27.0812   20.5319 C   0  0  0  0  0  0  0  0  0  0  0  0
  -22.7234  -28.8169   22.1590 C   0  0  0  0  0  0  0  0  0  0  0  0
  -26.7044  -11.5150   27.2687 C   0  0  0  0  0  0  0  0  0  0  0  0
  -27.2784  -12.9277   24.9404 C   0  0  0  0  0  0  0  0  0  0  0  0
  -24.9805  -16.0089   21.6433 C   0  0  0  0  0  0  0  0  0  0  0  0
  -21.0742  -26.8129   21.1359 C   0  0  0  0  0  0  0  0  0  0  0  0
  -21.4950  -28.5486   22.7630 C   0  0  0  0  0  0  0  0  0  0  0  0
  -25.7629  -16.9917   21.0385 C   0  0  0  0  0  0  0  0  0  0  0  0
  -18.2376  -29.2483   22.1975 C   0  0  0  0  0  0  0  0  0  0  0  0
  -17.4350  -30.3359   22.5415 C   0  0  0  0  0  0  0  0  0  0  0  0
  -25.9474  -15.6204   19.0625 C   0  0  0  0  0  0  0  0  0  0  0  0
  -30.4942  -19.2634   21.4393 C   0  0  0  0  0  0  0  0  0  0  0  0
  -17.5060  -29.6554   24.8587 C   0  0  0  0  0  0  0  0  0  0  0  0
  -30.3490  -17.3760   20.2202 C   0  0  0  0  0  0  0  0  0  0  0  0
  -23.1272  -28.0832   21.0435 C   0  0  0  0  0  0  0  0  0  0  0  0
  -24.6511  -29.2741   19.3801 C   0  0  0  0  0  0  0  0  0  0  0  0
  -26.4925  -10.9034   26.0230 C   0  0  0  0  0  0  0  0  0  0  0  0
  -24.6843  -14.8178   20.9652 C   0  0  0  0  0  0  0  0  0  0  0  0
  -26.7921  -11.6129   24.8443 C   0  0  0  0  0  0  0  0  0  0  0  0
  -25.1589  -14.6251   19.6599 C   0  0  0  0  0  0  0  0  0  0  0  0
  -30.8030  -17.8809   21.4186 C   0  0  0  0  0  0  0  0  0  0  0  0
  -20.6704  -27.5466   22.2514 C   0  0  0  0  0  0  0  0  0  0  0  0
  -26.2489  -16.7963   19.7491 C   0  0  0  0  0  0  0  0  0  0  0  0
  -18.6744  -28.3641   23.1840 C   0  0  0  0  0  0  0  0  0  0  0  0
  -17.0692  -30.5395   23.8721 C   0  0  0  0  0  0  0  0  0  0  0  0
  -18.3086  -28.5677   24.5145 C   0  0  0  0  0  0  0  0  0  0  0  0
  -24.3964  -28.3605   20.4204 C   0  0  0  0  0  0  0  0  0  0  0  0
  -29.8607  -19.5612   20.2530 C   0  0  0  0  0  0  0  0  0  0  0  0
  -26.0006  -29.1643   19.1495 C   0  0  0  0  0  0  0  0  0  0  0  0
  -23.7486  -30.1444   18.6846 C   0  0  0  0  0  0  0  0  0  0  0  0
  -25.2900  -11.7386   21.4708 C   0  0  0  0  0  0  0  0  0  0  0  0
  -23.3621  -11.3370   18.8931 C   0  0  0  0  0  0  0  0  0  0  0  0
  -22.0205  -12.6548   16.0452 C   0  0  0  0  0  0  0  0  0  0  0  0
  -29.9830  -24.9256   19.9357 C   0  0  0  0  0  0  0  0  0  0  0  0
  -26.0122   -9.4742   25.9883 C   0  0  0  0  0  0  0  0  0  0  0  0
  -23.8167  -13.7789   21.6214 C   0  0  0  0  0  0  0  0  0  0  0  0
  -24.8524  -13.3727   18.8814 C   0  0  0  0  0  0  0  0  0  0  0  0
  -25.4767   -9.0445   24.6249 C   0  0  0  0  0  0  0  0  0  0  0  0
  -30.1067  -28.0824   21.3382 C   0  0  0  0  0  0  0  0  0  0  0  0
  -26.4292   -9.4799   23.5159 C   0  0  0  0  0  0  0  0  0  0  0  0
  -28.6840  -28.6133   21.1644 C   0  0  0  0  0  0  0  0  0  0  0  0
  -28.7883  -21.7668   20.8908 C   0  0  0  0  0  0  0  0  0  0  0  0
  -30.3493  -21.6485   18.9012 C   0  0  0  0  0  0  0  0  0  0  0  0
  -30.0951  -26.6132   21.7440 C   0  0  0  0  0  0  0  0  0  0  0  0
  -28.2688  -23.1120   20.3754 C   0  0  0  0  0  0  0  0  0  0  0  0
  -29.7765  -22.9787   18.4205 C   0  0  0  0  0  0  0  0  0  0  0  0
  -27.9275  -26.2488   20.6098 C   0  0  0  0  0  0  0  0  0  0  0  0
  -26.5683  -11.0065   23.4759 C   0  0  1  0  0  0  0  0  0  0  0  0
  -29.3149  -20.8828   19.7460 C   0  0  0  0  0  0  0  0  0  0  0  0
  -24.0058  -12.3842   21.0328 C   0  0  1  0  0  0  0  0  0  0  0  0
  -27.8801  -27.7325   20.1916 C   0  0  1  0  0  0  0  0  0  0  0  0
  -31.4854  -17.1210   22.4833 C   0  0  0  0  0  0  0  0  0  0  0  0
  -20.5103  -12.0737   14.1271 C   0  0  0  0  0  0  0  0  0  0  0  0
  -30.2242  -17.8423   17.1721 C   0  0  0  0  0  0  0  0  0  0  0  0
  -25.6011   -9.6920   17.6317 C   0  0  0  0  0  0  0  0  0  0  0  0
  -24.4515   -9.9499   15.4226 C   0  0  0  0  0  0  0  0  0  0  0  0
  -23.3046   -8.7616   17.2923 C   0  0  0  0  0  0  0  0  0  0  0  0
  -20.0973  -14.7869   16.7623 C   0  0  0  0  0  0  0  0  0  0  0  0
  -27.9878  -17.3134   18.2113 C   0  0  0  0  0  0  0  0  0  1  0  0
  -23.5734  -11.2733   17.3996 C   0  0  1  0  0  0  0  0  0  0  0  0
  -20.5965  -12.6783   15.5199 C   0  0  2  0  0  0  0  0  0  0  0  0
  -29.1831  -18.2761   18.2077 C   0  0  1  0  0  0  0  0  0  0  0  0
  -24.2402   -9.9421   16.9517 C   0  0  0  0  0  0  0  0  0  0  0  0
  -25.4958  -27.7175   20.8227 N   0  0  0  0  0  0  0  0  0  0  0  0
  -29.7777  -18.4062   19.5199 N   0  0  0  0  0  0  0  0  0  0  0  0
  -26.4544  -28.2277   20.0310 N   0  0  0  0  0  0  0  0  0  0  0  0
  -24.0054  -12.3838   19.5685 N   0  0  0  0  0  0  0  0  0  0  0  0
  -29.3194  -25.8112   20.7981 N   0  0  0  0  0  0  0  0  0  0  0  0
  -29.2821  -23.7753   19.5431 N   0  0  0  0  0  0  0  0  0  0  0  0
  -26.8315  -29.7783   18.2806 N   0  0  0  0  0  0  0  0  0  0  0  0
  -22.3949  -30.1314   19.0476 N   0  0  0  0  0  0  0  0  0  0  0  0
  -25.4129  -11.6028   22.8404 N   0  0  0  0  0  0  0  0  0  0  0  0
  -22.2707  -11.5231   16.7921 N   0  0  0  0  0  0  0  0  0  0  0  0
  -20.0909  -14.0788   15.4563 N   0  3  0  0  0  0  0  0  0  0  0  0
  -24.1283  -30.8989   17.7572 O   0  0  0  0  0  0  0  0  0  0  0  0
  -26.1080  -11.3882   20.6283 O   0  0  0  0  0  0  0  0  0  0  0  0
  -22.6468  -10.4934   19.4392 O   0  0  0  0  0  0  0  0  0  0  0  0
  -22.8311  -13.5490   15.8129 O   0  0  0  0  0  0  0  0  0  0  0  0
  -31.1335  -25.1490   19.5388 O   0  0  0  0  0  0  0  0  0  0  0  0
  -19.4718  -27.2852   22.8409 O   0  0  0  0  0  0  0  0  0  0  0  0
  -27.0183  -17.7600   19.1528 O   0  0  0  0  0  0  0  0  0  1  0  0
  -16.2998  -31.5849   24.2026 F   0  0  0  0  0  0  0  0  0  0  0  0
  -18.7261  -27.7223   25.4668 F   0  0  0  0  0  0  0  0  0  0  0  0
  1  2  1  0  0  0  0
  1  5  2  0  0  0  0
  2  6  2  0  0  0  0
  3  8  2  0  0  0  0
  3 17  1  0  0  0  0
  4  9  1  0  0  0  0
  4 17  2  0  0  0  0
  5 19  1  0  0  0  0
  6 21  1  0  0  0  0
  7 10  2  0  0  0  0
  7 20  1  0  0  0  0
  8 24  1  0  0  0  0
  9 24  2  0  0  0  0
 10 25  1  0  0  0  0
 11 12  2  0  0  0  0
 11 26  1  0  0  0  0
 12 27  1  0  0  0  0
 13 22  1  0  0  0  0
 13 25  2  0  0  0  0
 14 23  1  0  0  0  0
 14 30  2  0  0  0  0
 15 27  2  0  0  0  0
 15 28  1  0  0  0  0
 16 23  2  0  0  0  0
 16 67  1  0  0  0  0
 17 29  1  0  0  0  0
 18 29  1  0  0  0  0
 18 31  2  0  0  0  0
 18 32  1  0  0  0  0
 19 21  2  0  0  0  0
 19 37  1  0  0  0  0
 20 22  2  0  0  0  0
 20 38  1  0  0  0  0
 21 50  1  0  0  0  0
 22 39  1  0  0  0  0
 23 54  1  0  0  0  0
 24 82  1  0  0  0  0
 25 83  1  0  0  0  0
 26 28  2  0  0  0  0
 26 82  1  0  0  0  0
 27 84  1  0  0  0  0
 28 85  1  0  0  0  0
 29 66  2  0  0  0  0
 30 51  1  0  0  0  0
 30 67  1  0  0  0  0
 31 68  1  0  0  0  0
 31 72  1  0  0  0  0
 32 73  1  0  0  0  0
 32 77  2  0  0  0  0
 33 52  1  0  0  0  0
 33 74  1  0  0  0  0
 33 78  2  0  0  0  0
 34 62  1  0  0  0  0
 34 69  1  0  0  0  0
 34 79  2  0  0  0  0
 35 63  1  0  0  0  0
 35 75  1  0  0  0  0
 35 80  2  0  0  0  0
 36 70  1  0  0  0  0
 36 71  1  0  0  0  0
 36 81  2  0  0  0  0
 37 40  1  0  0  0  0
 38 52  1  0  0  0  0
 39 69  1  0  0  0  0
 40 42  1  0  0  0  0
 41 43  1  0  0  0  0
 41 46  1  0  0  0  0
 42 50  1  0  0  0  0
 43 53  1  0  0  0  0
 44 47  1  0  0  0  0
 44 51  1  0  0  0  0
 45 48  1  0  0  0  0
 45 51  1  0  0  0  0
 46 70  1  0  0  0  0
 47 71  1  0  0  0  0
 48 71  1  0  0  0  0
 49 53  1  0  0  0  0
 49 70  1  0  0  0  0
 50 74  1  0  0  0  0
 52 69  1  0  0  0  0
 53 68  1  0  0  0  0
 55 63  1  0  0  0  0
 56 64  1  0  0  0  0
 57 65  1  0  0  0  0
 58 65  1  0  0  0  0
 59 65  1  0  0  0  0
 60 76  1  0  0  0  0
 61 64  1  0  0  0  0
 61 83  1  0  0  0  0
 62 65  1  0  0  0  0
 62 75  1  0  0  0  0
 63 76  1  0  0  0  0
 64 67  1  0  0  0  0
 66 68  1  0  0  0  0
M  CHG  1  76   1
M  ISO  4  36 100  61 101  71 100  83 101
M  END
> <Batch ID>
0130

> <Smiles>
CNC(C)C(=O)NC(C(=O)N1Cc2cc([101O:1][101CH2:1]C(C)n3cc(C)cc3C3CC[100N:0]([100C:0](=O)N4CCCC(n5nc(-c6ccc(Oc7ccc(F)cc7F)cc6)c(C(N)=O)c5N)C4)CC3)ccc2CC1C(=O)NC1CCCc2ccccc21)C(C)(C)C

> <Shape>
0.255

> <Color>
0.070

> <Negative vol penalty>
0.000

$$$$

  -OEChem-04052320473D

 87 96  0     1  0  0  0  0  0999 V2000
  -29.4142  -35.6765   26.1200 C   0  0  0  0  0  0  0  0  0  0  0  0
  -29.7689  -34.8356   25.0700 C   0  0  0  0  0  0  0  0  0  0  0  0
  -22.5907  -12.1627   21.4511 C   0  0  0  0  0  0  0  0  0  0  0  0
  -23.8787  -10.4169   22.5141 C   0  0  0  0  0  0  0  0  0  0  0  0
  -28.3415  -35.3438   26.9461 C   0  0  0  0  0  0  0  0  0  0  0  0
  -29.0517  -33.6609   24.8462 C   0  0  0  0  0  0  0  0  0  0  0  0
  -26.8848  -29.3684   19.5362 C   0  0  0  0  0  0  0  0  0  0  0  0
  -29.7297  -18.7197   21.2087 C   0  0  0  0  0  0  0  0  0  0  0  0
  -28.8983  -19.6855   21.7758 C   0  0  0  0  0  0  0  0  0  0  0  0
  -21.6599  -12.1077   22.4886 C   0  0  0  0  0  0  0  0  0  0  0  0
  -22.9480  -10.3619   23.5516 C   0  0  0  0  0  0  0  0  0  0  0  0
  -26.9081  -28.0266   19.1584 C   0  0  0  0  0  0  0  0  0  0  0  0
  -19.0706  -10.1401   23.4097 C   0  0  0  0  0  0  0  0  0  0  0  0
  -17.7185  -10.1420   23.0671 C   0  0  0  0  0  0  0  0  0  0  0  0
  -25.0240  -27.5938   20.6012 C   0  0  0  0  0  0  0  0  0  0  0  0
  -27.9316  -18.0279   19.7509 C   0  0  0  0  0  0  0  0  0  0  0  0
  -17.4011  -12.1765   24.3309 C   0  0  0  0  0  0  0  0  0  0  0  0
  -23.7000  -11.3172   21.4638 C   0  0  0  0  0  0  0  0  0  0  0  0
  -24.4242  -11.1407   19.0241 C   0  0  0  0  0  0  0  0  0  0  0  0
  -27.6047  -34.1693   26.7265 C   0  0  0  0  0  0  0  0  0  0  0  0
  -25.9362  -29.8316   20.4593 C   0  0  0  0  0  0  0  0  0  0  0  0
  -27.9690  -33.3115   25.6710 C   0  0  0  0  0  0  0  0  0  0  0  0
  -24.9891  -28.9425   20.9872 C   0  0  0  0  0  0  0  0  0  0  0  0
  -29.2463  -17.8909   20.1962 C   0  0  0  0  0  0  0  0  0  0  0  0
  -27.5836  -19.8225   21.3305 C   0  0  0  0  0  0  0  0  0  0  0  0
  -27.1002  -18.9937   20.3180 C   0  0  0  0  0  0  0  0  0  0  0  0
  -21.8386  -11.2073   23.5388 C   0  0  0  0  0  0  0  0  0  0  0  0
  -25.9795  -27.1385   19.6931 C   0  0  0  0  0  0  0  0  0  0  0  0
  -19.5880  -11.1564   24.2129 C   0  0  0  0  0  0  0  0  0  0  0  0
  -16.8838  -11.1601   23.5277 C   0  0  0  0  0  0  0  0  0  0  0  0
  -18.7533  -12.1746   24.6735 C   0  0  0  0  0  0  0  0  0  0  0  0
  -24.6615  -11.3731   20.3921 C   0  0  0  0  0  0  0  0  0  0  0  0
  -25.6494  -11.3153   18.4285 C   0  0  0  0  0  0  0  0  0  0  0  0
  -23.2051  -10.7978   18.3519 C   0  0  0  0  0  0  0  0  0  0  0  0
  -26.0751  -31.1505   23.3480 C   0  0  0  0  0  0  0  0  0  0  0  0
  -22.8743  -31.4693   22.9292 C   0  0  0  0  0  0  0  0  0  0  0  0
  -20.0344  -30.3915   21.3736 C   0  0  0  0  0  0  0  0  0  0  0  0
  -30.5229  -14.4357   19.9660 C   0  0  0  0  0  0  0  0  0  0  0  0
  -26.4829  -33.8280   27.6749 C   0  0  0  0  0  0  0  0  0  0  0  0
  -25.9074  -31.2874   20.8362 C   0  0  0  0  0  0  0  0  0  0  0  0
  -23.9373  -29.3936   21.9663 C   0  0  0  0  0  0  0  0  0  0  0  0
  -25.5393  -32.7534   27.1408 C   0  0  0  0  0  0  0  0  0  0  0  0
  -30.3346  -10.9391   19.3219 C   0  0  0  0  0  0  0  0  0  0  0  0
  -26.3327  -31.5865   26.5614 C   0  0  0  0  0  0  0  0  0  0  0  0
  -28.8379  -10.6328   19.3997 C   0  0  0  0  0  0  0  0  0  0  0  0
  -25.0018  -23.9319   20.4353 C   0  0  0  0  0  0  0  0  0  0  0  0
  -27.4855  -24.0975   20.0654 C   0  0  0  0  0  0  0  0  0  0  0  0
  -30.7479  -11.9976   20.3420 C   0  0  0  0  0  0  0  0  0  0  0  0
  -28.4718  -12.9422   20.3648 C   0  0  0  0  0  0  0  0  0  0  0  0
  -25.2279  -22.8041   21.4299 C   0  0  0  0  0  0  0  0  0  0  0  0
  -27.7066  -22.9698   21.0611 C   0  0  0  0  0  0  0  0  0  0  0  0
  -27.1997  -32.0410   25.3811 C   0  0  1  0  0  0  0  0  0  0  0  0
  -25.2227  -31.5445   22.1751 C   0  0  1  0  0  0  0  0  0  0  0  0
  -27.9970  -11.9210   19.3170 C   0  0  2  0  0  0  0  0  0  0  0  0
  -26.2032  -24.8699   20.3588 C   0  0  0  0  0  0  0  0  0  1  0  0
  -25.6961  -19.1219   19.8254 C   0  0  0  0  0  0  0  0  0  0  0  0
  -30.3432  -17.0602   18.0823 C   0  0  0  0  0  0  0  0  0  0  0  0
  -17.5645  -30.8213   21.2632 C   0  0  0  0  0  0  0  0  0  0  0  0
  -22.5089  -30.0415   25.6009 C   0  0  0  0  0  0  0  0  0  0  0  0
  -20.1117  -29.6579   24.9887 C   0  0  0  0  0  0  0  0  0  0  0  0
  -20.9765  -31.9844   25.2382 C   0  0  0  0  0  0  0  0  0  0  0  0
  -20.1663  -31.0860   18.4997 C   0  0  0  0  0  0  0  0  0  0  0  0
  -26.7079  -20.8677   21.9565 C   0  0  0  0  0  0  0  0  0  0  0  0
  -30.1352  -16.8580   19.5903 C   0  0  2  0  0  0  0  0  0  0  0  0
  -21.6666  -30.6144   23.2285 C   0  0  1  0  0  0  0  0  0  0  0  0
  -18.9245  -31.1477   20.6660 C   0  0  2  0  0  0  0  0  0  0  0  0
  -21.3368  -30.5653   24.7471 C   0  0  0  0  0  0  0  0  0  0  0  0
  -25.9373  -11.6724   20.6505 N   0  0  0  0  0  0  0  0  0  0  0  0
  -26.5126  -11.6291   19.4368 N   0  0  0  0  0  0  0  0  0  0  0  0
  -23.9541  -30.8255   22.3085 N   0  0  0  0  0  0  0  0  0  0  0  0
  -29.9131  -13.1940   20.2095 N   0  0  0  0  0  0  0  0  0  0  0  0
  -26.0619  -11.2293   17.1460 N   0  0  0  0  0  0  0  0  0  0  0  0
  -22.0378  -10.6578   19.1149 N   0  0  0  0  0  0  0  0  0  0  0  0
  -26.3912  -32.1987   24.1912 N   0  0  0  0  0  0  0  0  0  0  0  0
  -20.5842  -31.1321   22.3984 N   0  0  0  0  0  0  0  0  0  0  0  0
  -29.6587  -15.5173   19.8474 N   0  0  0  0  0  0  0  0  0  0  0  0
  -26.4964  -22.0658   21.0724 N   0  3  0  0  0  0  0  0  0  0  0  0
  -18.8989  -30.7954   19.2182 N   0  3  0  0  0  0  0  0  0  0  0  0
  -23.1558  -10.6047   17.1134 O   0  0  0  0  0  0  0  0  0  0  0  0
  -26.4193  -29.9817   23.4792 O   0  0  0  0  0  0  0  0  0  0  0  0
  -22.8574  -32.6658   23.2285 O   0  0  0  0  0  0  0  0  0  0  0  0
  -20.3767  -29.2557   21.0518 O   0  0  0  0  0  0  0  0  0  0  0  0
  -31.7464  -14.5695   19.8566 O   0  0  0  0  0  0  0  0  0  0  0  0
  -20.9308  -11.1536   24.5515 O   0  0  0  0  0  0  0  0  0  0  0  0
  -26.0004  -25.8281   19.3265 O   0  0  0  0  0  0  0  0  0  1  0  0
  -15.5857  -11.1626   23.1974 F   0  0  0  0  0  0  0  0  0  0  0  0
  -19.2448  -13.1542   25.4445 F   0  0  0  0  0  0  0  0  0  0  0  0
  1  2  1  0  0  0  0
  1  5  2  0  0  0  0
  2  6  2  0  0  0  0
  3 10  2  0  0  0  0
  3 18  1  0  0  0  0
  4 11  1  0  0  0  0
  4 18  2  0  0  0  0
  5 20  1  0  0  0  0
  6 22  1  0  0  0  0
  7 12  2  0  0  0  0
  7 21  1  0  0  0  0
  8  9  2  0  0  0  0
  8 24  1  0  0  0  0
  9 25  1  0  0  0  0
 10 27  1  0  0  0  0
 11 27  2  0  0  0  0
 12 28  1  0  0  0  0
 13 14  2  0  0  0  0
 13 29  1  0  0  0  0
 14 30  1  0  0  0  0
 15 23  1  0  0  0  0
 15 28  2  0  0  0  0
 16 24  2  0  0  0  0
 16 26  1  0  0  0  0
 17 30  2  0  0  0  0
 17 31  1  0  0  0  0
 18 32  1  0  0  0  0
 19 32  1  0  0  0  0
 19 33  2  0  0  0  0
 19 34  1  0  0  0  0
 20 22  2  0  0  0  0
 20 39  1  0  0  0  0
 21 23  2  0  0  0  0
 21 40  1  0  0  0  0
 22 52  1  0  0  0  0
 23 41  1  0  0  0  0
 24 64  1  0  0  0  0
 25 26  2  0  0  0  0
 25 63  1  0  0  0  0
 26 56  1  0  0  0  0
 27 84  1  0  0  0  0
 28 85  1  0  0  0  0
 29 31  2  0  0  0  0
 29 84  1  0  0  0  0
 30 86  1  0  0  0  0
 31 87  1  0  0  0  0
 32 68  2  0  0  0  0
 33 69  1  0  0  0  0
 33 72  1  0  0  0  0
 34 73  1  0  0  0  0
 34 79  2  0  0  0  0
 35 53  1  0  0  0  0
 35 74  1  0  0  0  0
 35 80  2  0  0  0  0
 36 65  1  0  0  0  0
 36 70  1  0  0  0  0
 36 81  2  0  0  0  0
 37 66  1  0  0  0  0
 37 75  1  0  0  0  0
 37 82  2  0  0  0  0
 38 71  1  0  0  0  0
 38 76  1  0  0  0  0
 38 83  2  0  0  0  0
 39 42  1  0  0  0  0
 40 53  1  0  0  0  0
 41 70  1  0  0  0  0
 42 44  1  0  0  0  0
 43 45  1  0  0  0  0
 43 48  1  0  0  0  0
 44 52  1  0  0  0  0
 45 54  1  0  0  0  0
 46 50  1  0  0  0  0
 46 55  1  0  0  0  0
 47 51  1  0  0  0  0
 47 55  1  0  0  0  0
 48 71  1  0  0  0  0
 49 54  1  0  0  0  0
 49 71  1  0  0  0  0
 50 77  1  0  0  0  0
 51 77  1  0  0  0  0
 52 74  1  0  0  0  0
 53 70  1  0  0  0  0
 54 69  1  0  0  0  0
 55 85  1  0  0  0  0
 57 64  1  0  0  0  0
 58 66  1  0  0  0  0
 59 67  1  0  0  0  0
 60 67  1  0  0  0  0
 61 67  1  0  0  0  0
 62 78  1  0  0  0  0
 63 77  1  0  0  0  0
 64 76  1  0  0  0  0
 65 67  1  0  0  0  0
 65 75  1  0  0  0  0
 66 78  1  0  0  0  0
 68 69  1  0  0  0  0
M  CHG  2  77   1  78   1
M  ISO  4  38 100  55 101  76 100  85 101
M  END
> <Batch ID>
0130

> <Smiles>
CNC(C)C(=O)NC(C(=O)N1Cc2cc([101O:1][101CH:1]3CCN(Cc4ccc(C(C)[100NH:0][100C:0](=O)N5CCCC(n6nc(-c7ccc(Oc8ccc(F)cc8F)cc7)c(C(N)=O)c6N)C5)cc4C)CC3)ccc2CC1C(=O)NC1CCCc2ccccc21)C(C)(C)C

> <Shape>
0.252

> <Color>
0.086

> <Negative vol penalty>
0.000

$$$$

  -OEChem-04052320473D

 85 94  0     1  0  0  0  0  0999 V2000
  -30.8266  -25.6854   24.7205 C   0  0  0  0  0  0  0  0  0  0  0  0
  -29.5753  -25.1974   24.3578 C   0  0  0  0  0  0  0  0  0  0  0  0
  -25.5552  -28.6815   20.7647 C   0  0  0  0  0  0  0  0  0  0  0  0
  -24.9303  -26.9103   19.2450 C   0  0  0  0  0  0  0  0  0  0  0  0
  -31.9568  -25.3106   23.9952 C   0  0  0  0  0  0  0  0  0  0  0  0
  -29.4534  -24.3351   23.2688 C   0  0  0  0  0  0  0  0  0  0  0  0
  -26.4290  -20.3918   24.2425 C   0  0  0  0  0  0  0  0  0  0  0  0
  -16.7981  -20.3156   22.1061 C   0  0  0  0  0  0  0  0  0  0  0  0
  -26.8764  -28.2350   20.7418 C   0  0  0  0  0  0  0  0  0  0  0  0
  -26.2515  -26.4639   19.2220 C   0  0  0  0  0  0  0  0  0  0  0  0
  -25.0540  -20.6198   24.2067 C   0  0  0  0  0  0  0  0  0  0  0  0
  -30.4827  -27.7804   20.8002 C   0  0  0  0  0  0  0  0  0  0  0  0
  -31.4882  -28.7371   20.6617 C   0  0  0  0  0  0  0  0  0  0  0  0
  -18.0795  -20.1548   22.6213 C   0  0  0  0  0  0  0  0  0  0  0  0
  -24.9606  -19.6711   21.9907 C   0  0  0  0  0  0  0  0  0  0  0  0
  -30.5522  -29.4136   18.5395 C   0  0  0  0  0  0  0  0  0  0  0  0
  -24.5821  -28.0191   20.0163 C   0  0  0  0  0  0  0  0  0  0  0  0
  -22.6236  -29.4248   19.1821 C   0  0  0  0  0  0  0  0  0  0  0  0
  -31.8500  -24.4355   22.9027 C   0  0  0  0  0  0  0  0  0  0  0  0
  -27.0829  -19.8107   23.1465 C   0  0  0  0  0  0  0  0  0  0  0  0
  -30.5831  -23.9492   22.5274 C   0  0  0  0  0  0  0  0  0  0  0  0
  -16.4156  -21.5443   21.5795 C   0  0  0  0  0  0  0  0  0  0  0  0
  -26.3435  -19.4344   22.0162 C   0  0  0  0  0  0  0  0  0  0  0  0
  -27.2246  -27.1262   19.9704 C   0  0  0  0  0  0  0  0  0  0  0  0
  -24.3200  -20.2621   23.0795 C   0  0  0  0  0  0  0  0  0  0  0  0
  -29.5119  -27.6402   19.8083 C   0  0  0  0  0  0  0  0  0  0  0  0
  -31.5230  -29.5537   19.5314 C   0  0  0  0  0  0  0  0  0  0  0  0
  -29.5467  -28.4568   18.6780 C   0  0  0  0  0  0  0  0  0  0  0  0
  -23.2169  -28.4795   20.0401 C   0  0  0  0  0  0  0  0  0  0  0  0
  -17.3444  -22.5724   21.5915 C   0  0  0  0  0  0  0  0  0  0  0  0
  -18.9339  -21.2451   22.5864 C   0  0  0  0  0  0  0  0  0  0  0  0
  -21.3227  -29.5118   19.6143 C   0  0  0  0  0  0  0  0  0  0  0  0
  -23.1969  -30.1586   18.0919 C   0  0  0  0  0  0  0  0  0  0  0  0
  -29.3687  -20.7449   21.1450 C   0  0  0  0  0  0  0  0  0  0  0  0
  -29.1404  -17.6911   20.0754 C   0  0  0  0  0  0  0  0  0  0  0  0
  -27.2495  -14.8686   19.7513 C   0  0  0  0  0  0  0  0  0  0  0  0
  -17.7429  -25.7229   22.5605 C   0  0  0  0  0  0  0  0  0  0  0  0
  -33.0938  -24.0962   22.1201 C   0  0  0  0  0  0  0  0  0  0  0  0
  -28.5623  -19.5469   23.2115 C   0  0  0  0  0  0  0  0  0  0  0  0
  -26.9947  -18.7889   20.8213 C   0  0  0  0  0  0  0  0  0  0  0  0
  -32.9282  -22.8820   21.2098 C   0  0  0  0  0  0  0  0  0  0  0  0
  -13.4464  -21.1781   19.5791 C   0  0  0  0  0  0  0  0  0  0  0  0
  -18.6432  -29.0232   23.5477 C   0  0  0  0  0  0  0  0  0  0  0  0
  -14.7837  -21.9325   19.4545 C   0  0  0  0  0  0  0  0  0  0  0  0
  -14.0412  -20.4881   20.8218 C   0  0  0  0  0  0  0  0  0  0  0  0
  -31.6233  -22.9767   20.4255 C   0  0  0  0  0  0  0  0  0  0  0  0
  -19.8639  -29.3434   22.6833 C   0  0  0  0  0  0  0  0  0  0  0  0
  -18.6226  -27.5570   23.9743 C   0  0  0  0  0  0  0  0  0  0  0  0
  -19.9519  -26.9086   22.0029 C   0  0  0  0  0  0  0  0  0  0  0  0
  -14.9578  -21.7374   20.9911 C   0  0  0  0  0  0  0  0  0  0  0  0
  -30.4134  -22.9921   21.3675 C   0  0  1  0  0  0  0  0  0  0  0  0
  -29.2076  -19.4199   21.8350 C   0  0  1  0  0  0  0  0  0  0  0  0
  -19.9872  -28.3625   21.5018 C   0  0  2  0  0  0  0  0  0  0  0  0
  -27.3206  -12.5487   18.7972 C   0  0  0  0  0  0  0  0  0  0  0  0
  -28.7500  -18.8340   17.2734 C   0  0  0  0  0  0  0  0  0  0  0  0
  -27.8953  -16.5934   16.5541 C   0  0  0  0  0  0  0  0  0  0  0  0
  -30.2365  -16.8259   17.3832 C   0  0  0  0  0  0  0  0  0  0  0  0
  -26.8616  -13.6366   22.4141 C   0  0  0  0  0  0  0  0  0  0  0  0
  -16.9850  -23.9132   21.0407 C   0  0  0  0  0  0  0  0  0  0  0  0
  -21.2077  -22.1111   23.1389 C   0  0  0  0  0  0  0  0  0  0  0  0
  -22.4824  -21.5961   23.7862 C   0  0  0  0  0  0  0  0  0  1  0  0
  -28.3192  -16.9853   19.0235 C   0  0  1  0  0  0  0  0  0  0  0  0
  -27.5627  -13.4091   20.0276 C   0  0  2  0  0  0  0  0  0  0  0  0
  -28.7880  -17.3236   17.5801 C   0  0  0  0  0  0  0  0  0  0  0  0
  -22.3632  -28.0004   20.9487 N   0  0  0  0  0  0  0  0  0  0  0  0
  -18.5981  -22.4541   22.0831 N   0  0  0  0  0  0  0  0  0  0  0  0
  -21.2201  -28.6473   20.6641 N   0  0  0  0  0  0  0  0  0  0  0  0
  -28.4446  -18.5575   20.9304 N   0  0  0  0  0  0  0  0  0  0  0  0
  -18.7414  -26.6796   22.8072 N   0  0  0  0  0  0  0  0  0  0  0  0
  -20.2681  -30.2428   19.1949 N   0  0  0  0  0  0  0  0  0  0  0  0
  -24.5476  -29.9486   17.7823 N   0  0  0  0  0  0  0  0  0  0  0  0
  -20.2063  -21.0700   23.1047 N   0  0  0  0  0  0  0  0  0  0  0  0
  -30.1311  -21.6571   21.8495 N   0  0  0  0  0  0  0  0  0  0  0  0
  -28.3705  -15.5645   19.3509 N   0  0  0  0  0  0  0  0  0  0  0  0
  -17.9293  -24.9367   21.4302 N   0  0  0  0  0  0  0  0  0  0  0  0
  -26.7075  -12.8965   21.1352 N   0  3  0  0  0  0  0  0  0  0  0  0
  -22.5355  -30.9883   17.4229 O   0  0  0  0  0  0  0  0  0  0  0  0
  -28.8416  -20.9259   20.0536 O   0  0  0  0  0  0  0  0  0  0  0  0
  -30.3532  -17.4759   20.1408 O   0  0  0  0  0  0  0  0  0  0  0  0
  -26.1224  -15.3429   19.8744 O   0  0  0  0  0  0  0  0  0  0  0  0
  -16.7555  -25.5837   23.2904 O   0  0  0  0  0  0  0  0  0  0  0  0
  -28.5139  -26.6904   19.9476 O   0  0  0  0  0  0  0  0  0  0  0  0
  -22.9780  -20.4842   23.0416 O   0  0  0  0  0  0  0  0  0  1  0  0
  -32.4877  -30.4735   19.3993 F   0  0  0  0  0  0  0  0  0  0  0  0
  -28.6162  -28.3276   17.7224 F   0  0  0  0  0  0  0  0  0  0  0  0
  1  2  1  0  0  0  0
  1  5  2  0  0  0  0
  2  6  2  0  0  0  0
  3  9  2  0  0  0  0
  3 17  1  0  0  0  0
  4 10  1  0  0  0  0
  4 17  2  0  0  0  0
  5 19  1  0  0  0  0
  6 21  1  0  0  0  0
  7 11  2  0  0  0  0
  7 20  1  0  0  0  0
  8 14  2  0  0  0  0
  8 22  1  0  0  0  0
  9 24  1  0  0  0  0
 10 24  2  0  0  0  0
 11 25  1  0  0  0  0
 12 13  2  0  0  0  0
 12 26  1  0  0  0  0
 13 27  1  0  0  0  0
 14 31  1  0  0  0  0
 15 23  1  0  0  0  0
 15 25  2  0  0  0  0
 16 27  2  0  0  0  0
 16 28  1  0  0  0  0
 17 29  1  0  0  0  0
 18 29  1  0  0  0  0
 18 32  2  0  0  0  0
 18 33  1  0  0  0  0
 19 21  2  0  0  0  0
 19 38  1  0  0  0  0
 20 23  2  0  0  0  0
 20 39  1  0  0  0  0
 21 51  1  0  0  0  0
 22 30  2  0  0  0  0
 22 50  1  0  0  0  0
 23 40  1  0  0  0  0
 24 82  1  0  0  0  0
 25 83  1  0  0  0  0
 26 28  2  0  0  0  0
 26 82  1  0  0  0  0
 27 84  1  0  0  0  0
 28 85  1  0  0  0  0
 29 65  2  0  0  0  0
 30 59  1  0  0  0  0
 30 66  1  0  0  0  0
 31 66  2  0  0  0  0
 31 72  1  0  0  0  0
 32 67  1  0  0  0  0
 32 70  1  0  0  0  0
 33 71  1  0  0  0  0
 33 77  2  0  0  0  0
 34 52  1  0  0  0  0
 34 73  1  0  0  0  0
 34 78  2  0  0  0  0
 35 62  1  0  0  0  0
 35 68  1  0  0  0  0
 35 79  2  0  0  0  0
 36 63  1  0  0  0  0
 36 74  1  0  0  0  0
 36 80  2  0  0  0  0
 37 69  1  0  0  0  0
 37 75  1  0  0  0  0
 37 81  2  0  0  0  0
 38 41  1  0  0  0  0
 39 52  1  0  0  0  0
 40 68  1  0  0  0  0
 41 46  1  0  0  0  0
 42 44  1  0  0  0  0
 42 45  1  0  0  0  0
 43 47  1  0  0  0  0
 43 48  1  0  0  0  0
 44 50  1  0  0  0  0
 45 50  1  0  0  0  0
 46 51  1  0  0  0  0
 47 53  1  0  0  0  0
 48 69  1  0  0  0  0
 49 53  1  0  0  0  0
 49 69  1  0  0  0  0
 51 73  1  0  0  0  0
 52 68  1  0  0  0  0
 53 67  1  0  0  0  0
 54 63  1  0  0  0  0
 55 64  1  0  0  0  0
 56 64  1  0  0  0  0
 57 64  1  0  0  0  0
 58 76  1  0  0  0  0
 59 75  1  0  0  0  0
 60 61  1  0  0  0  0
 60 72  1  0  0  0  0
 61 83  1  0  0  0  0
 62 64  1  0  0  0  0
 62 74  1  0  0  0  0
 63 76  1  0  0  0  0
 65 67  1  0  0  0  0
M  CHG  1  76   1
M  ISO  4  37 100  61 101  75 100  83 101
M  END
> <Batch ID>
0130

> <Smiles>
CNC(C)C(=O)NC(C(=O)N1Cc2cc([101O:1][101CH2:1]CNc3ccc(C4CCC4)c(C[100NH:0][100C:0](=O)N4CCCC(n5nc(-c6ccc(Oc7ccc(F)cc7F)cc6)c(C(N)=O)c5N)C4)n3)ccc2CC1C(=O)NC1CCCc2ccccc21)C(C)(C)C

> <Shape>
0.186

> <Color>
0.084

> <Negative vol penalty>
0.000

$$$$

  -OEChem-04052320473D

 91100  0     1  0  0  0  0  0999 V2000
  -22.2404  -35.7429   15.5889 C   0  0  0  0  0  0  0  0  0  0  0  0
  -22.6070  -34.4010   15.6088 C   0  0  0  0  0  0  0  0  0  0  0  0
  -24.4072   -9.5851   21.1224 C   0  0  0  0  0  0  0  0  0  0  0  0
  -24.9537  -10.4579   23.3080 C   0  0  0  0  0  0  0  0  0  0  0  0
  -22.9328  -36.6652   16.3723 C   0  0  0  0  0  0  0  0  0  0  0  0
  -23.6672  -33.9809   16.4112 C   0  0  0  0  0  0  0  0  0  0  0  0
  -24.1641  -28.6315   19.3512 C   0  0  0  0  0  0  0  0  0  0  0  0
  -24.1079   -8.3474   21.6915 C   0  0  0  0  0  0  0  0  0  0  0  0
  -24.6543   -9.2201   23.8771 C   0  0  0  0  0  0  0  0  0  0  0  0
  -24.8343  -27.4492   19.0405 C   0  0  0  0  0  0  0  0  0  0  0  0
  -21.5443   -6.9410   23.3894 C   0  0  0  0  0  0  0  0  0  0  0  0
  -20.3768   -6.3014   22.9730 C   0  0  0  0  0  0  0  0  0  0  0  0
  -26.7011  -28.1588   20.3936 C   0  0  0  0  0  0  0  0  0  0  0  0
  -27.6395  -19.7449   21.5212 C   0  0  0  0  0  0  0  0  0  0  0  0
  -21.6826   -4.4223   22.1978 C   0  0  0  0  0  0  0  0  0  0  0  0
  -24.8302  -10.6404   21.9307 C   0  0  0  0  0  0  0  0  0  0  0  0
  -24.2568  -12.9952   21.1346 C   0  0  0  0  0  0  0  0  0  0  0  0
  -23.9958  -36.2546   17.1922 C   0  0  0  0  0  0  0  0  0  0  0  0
  -24.7628  -29.5929   20.1781 C   0  0  0  0  0  0  0  0  0  0  0  0
  -24.3754  -34.8988   17.2053 C   0  0  0  0  0  0  0  0  0  0  0  0
  -26.0353  -29.3514   20.7153 C   0  0  0  0  0  0  0  0  0  0  0  0
  -27.6121  -21.1331   21.5940 C   0  0  0  0  0  0  0  0  0  0  0  0
  -28.6633  -21.8725   21.0634 C   0  0  0  0  0  0  0  0  0  0  0  0
  -24.2314   -8.1648   23.0689 C   0  0  0  0  0  0  0  0  0  0  0  0
  -26.1042  -27.2139   19.5593 C   0  0  0  0  0  0  0  0  0  0  0  0
  -22.7810   -6.3213   23.2099 C   0  0  0  0  0  0  0  0  0  0  0  0
  -20.4459   -5.0420   22.3773 C   0  0  0  0  0  0  0  0  0  0  0  0
  -22.8502   -5.0619   22.6142 C   0  0  0  0  0  0  0  0  0  0  0  0
  -25.1401  -11.9191   21.3433 C   0  0  0  0  0  0  0  0  0  0  0  0
  -29.7103  -21.1814   20.4753 C   0  0  0  0  0  0  0  0  0  0  0  0
  -28.7322  -19.1490   20.9124 C   0  0  0  0  0  0  0  0  0  0  0  0
  -25.0324  -13.9682   20.5531 C   0  0  0  0  0  0  0  0  0  0  0  0
  -22.8602  -13.1055   21.4393 C   0  0  0  0  0  0  0  0  0  0  0  0
  -25.6656  -32.6184   19.8107 C   0  0  0  0  0  0  0  0  0  0  0  0
  -26.2702  -32.4163   22.9913 C   0  0  0  0  0  0  0  0  0  0  0  0
  -26.9799  -30.4461   25.6860 C   0  0  0  0  0  0  0  0  0  0  0  0
  -29.7405  -16.9284   20.2809 C   0  0  0  0  0  0  0  0  0  0  0  0
  -24.7449  -37.2958   17.9854 C   0  0  0  0  0  0  0  0  0  0  0  0
  -24.0156  -30.8513   20.5253 C   0  0  0  0  0  0  0  0  0  0  0  0
  -26.7135  -30.3426   21.6243 C   0  0  0  0  0  0  0  0  0  0  0  0
  -25.6151  -36.7080   19.0934 C   0  0  0  0  0  0  0  0  0  0  0  0
  -29.7270  -13.7519   18.6725 C   0  0  0  0  0  0  0  0  0  0  0  0
  -24.1050  -21.9062   22.7071 C   0  0  0  0  0  0  0  0  0  0  0  0
  -26.4242  -35.5269   18.5668 C   0  0  0  0  0  0  0  0  0  0  0  0
  -25.0811  -21.4686   21.6328 C   0  0  0  0  0  0  0  0  0  0  0  0
  -28.4598  -13.0805   19.2068 C   0  0  0  0  0  0  0  0  0  0  0  0
  -30.4147  -14.5980   19.7425 C   0  0  0  0  0  0  0  0  0  0  0  0
  -28.2839  -14.9130   20.9382 C   0  0  0  0  0  0  0  0  0  0  0  0
  -24.7431  -21.4204   23.9943 C   0  0  0  0  0  0  0  0  0  0  0  0
  -25.5040  -34.4003   18.0817 C   0  0  1  0  0  0  0  0  0  0  0  0
  -26.4362  -21.8110   22.2512 C   0  0  1  0  0  0  0  0  0  0  0  0
  -24.9327  -31.9896   20.9618 C   0  0  1  0  0  0  0  0  0  0  0  0
  -27.5209  -14.1020   19.8782 C   0  0  2  0  0  0  0  0  0  0  0  0
  -30.8679  -21.9225   19.8895 C   0  0  0  0  0  0  0  0  0  0  0  0
  -27.4569  -30.5710   28.1465 C   0  0  0  0  0  0  0  0  0  0  0  0
  -29.0908  -33.4135   22.3914 C   0  0  0  0  0  0  0  0  0  0  0  0
  -29.7789  -32.6224   24.6649 C   0  0  0  0  0  0  0  0  0  0  0  0
  -28.0474  -34.4036   24.4372 C   0  0  0  0  0  0  0  0  0  0  0  0
  -24.6123  -28.7976   26.3466 C   0  0  0  0  0  0  0  0  0  0  0  0
  -28.6610  -23.3790   21.1266 C   0  0  0  0  0  0  0  0  0  0  0  0
  -27.7282  -24.0367   20.1073 C   0  0  0  0  0  0  0  0  0  0  0  0
  -27.2460  -21.6140   25.9704 C   0  0  0  0  0  0  0  0  0  0  0  0
  -27.9752  -22.5049   26.9767 C   0  0  0  0  0  0  0  0  0  0  0  0
  -26.9935  -22.3558   24.6662 C   0  0  0  0  0  0  0  0  0  0  0  0
  -28.2597  -21.7518   28.2678 C   0  0  0  0  0  0  0  0  0  0  0  0
  -27.6676  -25.5544   20.2356 C   0  0  0  0  0  0  0  0  0  1  0  0
  -27.4613  -32.0203   23.8301 C   0  0  1  0  0  0  0  0  0  0  0  0
  -26.3852  -30.3961   27.0818 C   0  0  2  0  0  0  0  0  0  0  0  0
  -28.5829  -33.0969   23.8122 C   0  0  0  0  0  0  0  0  0  0  0  0
  -26.3818  -12.1832   20.9279 N   0  0  0  0  0  0  0  0  0  0  0  0
  -29.7721  -19.8339   20.3858 N   0  0  0  0  0  0  0  0  0  0  0  0
  -26.2843  -13.4364   20.4524 N   0  0  0  0  0  0  0  0  0  0  0  0
  -25.9448  -31.5607   21.9293 N   0  0  0  0  0  0  0  0  0  0  0  0
  -29.4655  -15.5454   20.3311 N   0  0  0  0  0  0  0  0  0  0  0  0
  -24.7589  -15.2183   20.1231 N   0  0  0  0  0  0  0  0  0  0  0  0
  -22.2180  -12.0118   22.0358 N   0  0  0  0  0  0  0  0  0  0  0  0
  -28.7508  -17.7338   20.8434 N   0  0  0  0  0  0  0  0  0  0  0  0
  -24.9806  -33.6554   19.2067 N   0  0  0  0  0  0  0  0  0  0  0  0
  -26.9422  -31.7201   25.1601 N   0  0  0  0  0  0  0  0  0  0  0  0
  -26.2388  -21.4611   23.7310 N   0  3  1  0  0  0  0  0  0  0  0  0
  -29.0056  -22.6384   29.1930 N   0  3  0  0  0  0  0  0  0  0  0  0
  -25.7058  -29.0893   27.3090 N   0  3  0  0  0  0  0  0  0  0  0  0
  -22.1974  -14.1372   21.1750 O   0  0  0  0  0  0  0  0  0  0  0  0
  -26.7714  -32.1952   19.4949 O   0  0  0  0  0  0  0  0  0  0  0  0
  -25.6470  -33.4430   23.2725 O   0  0  0  0  0  0  0  0  0  0  0  0
  -27.4359  -29.4548   25.1204 O   0  0  0  0  0  0  0  0  0  0  0  0
  -30.7648  -17.3676   19.7519 O   0  0  0  0  0  0  0  0  0  0  0  0
  -23.9392   -6.9572   23.6246 O   0  0  0  0  0  0  0  0  0  0  0  0
  -26.7609  -26.0610   19.2571 O   0  0  0  0  0  0  0  0  0  1  0  0
  -19.3245   -4.4273   21.9789 F   0  0  0  0  0  0  0  0  0  0  0  0
  -24.0353   -4.4611   22.4402 F   0  0  0  0  0  0  0  0  0  0  0  0
  1  2  1  0  0  0  0
  1  5  2  0  0  0  0
  2  6  2  0  0  0  0
  3  8  2  0  0  0  0
  3 16  1  0  0  0  0
  4  9  1  0  0  0  0
  4 16  2  0  0  0  0
  5 18  1  0  0  0  0
  6 20  1  0  0  0  0
  7 10  2  0  0  0  0
  7 19  1  0  0  0  0
  8 24  1  0  0  0  0
  9 24  2  0  0  0  0
 10 25  1  0  0  0  0
 11 12  2  0  0  0  0
 11 26  1  0  0  0  0
 12 27  1  0  0  0  0
 13 21  1  0  0  0  0
 13 25  2  0  0  0  0
 14 22  2  0  0  0  0
 14 31  1  0  0  0  0
 15 27  2  0  0  0  0
 15 28  1  0  0  0  0
 16 29  1  0  0  0  0
 17 29  1  0  0  0  0
 17 32  2  0  0  0  0
 17 33  1  0  0  0  0
 18 20  2  0  0  0  0
 18 38  1  0  0  0  0
 19 21  2  0  0  0  0
 19 39  1  0  0  0  0
 20 50  1  0  0  0  0
 21 40  1  0  0  0  0
 22 23  1  0  0  0  0
 22 51  1  0  0  0  0
 23 30  2  0  0  0  0
 23 60  1  0  0  0  0
 24 88  1  0  0  0  0
 25 89  1  0  0  0  0
 26 28  2  0  0  0  0
 26 88  1  0  0  0  0
 27 90  1  0  0  0  0
 28 91  1  0  0  0  0
 29 70  2  0  0  0  0
 30 54  1  0  0  0  0
 30 71  1  0  0  0  0
 31 71  2  0  0  0  0
 31 77  1  0  0  0  0
 32 72  1  0  0  0  0
 32 75  1  0  0  0  0
 33 76  1  0  0  0  0
 33 83  2  0  0  0  0
 34 52  1  0  0  0  0
 34 78  1  0  0  0  0
 34 84  2  0  0  0  0
 35 67  1  0  0  0  0
 35 73  1  0  0  0  0
 35 85  2  0  0  0  0
 36 68  1  0  0  0  0
 36 79  1  0  0  0  0
 36 86  2  0  0  0  0
 37 74  1  0  0  0  0
 37 77  1  0  0  0  0
 37 87  2  0  0  0  0
 38 41  1  0  0  0  0
 39 52  1  0  0  0  0
 40 73  1  0  0  0  0
 41 44  1  0  0  0  0
 42 46  1  0  0  0  0
 42 47  1  0  0  0  0
 43 45  1  0  0  0  0
 43 49  1  0  0  0  0
 44 50  1  0  0  0  0
 45 51  1  0  0  0  0
 46 53  1  0  0  0  0
 47 74  1  0  0  0  0
 48 53  1  0  0  0  0
 48 74  1  0  0  0  0
 49 80  1  0  0  0  0
 50 78  1  0  0  0  0
 51 80  1  0  0  0  0
 52 73  1  0  0  0  0
 53 72  1  0  0  0  0
 55 68  1  0  0  0  0
 56 69  1  0  0  0  0
 57 69  1  0  0  0  0
 58 69  1  0  0  0  0
 59 82  1  0  0  0  0
 60 61  1  0  0  0  0
 61 66  1  0  0  0  0
 62 63  1  0  0  0  0
 62 64  1  0  0  0  0
 63 65  1  0  0  0  0
 64 80  1  0  0  0  0
 65 81  1  0  0  0  0
 66 89  1  0  0  0  0
 67 69  1  0  0  0  0
 67 79  1  0  0  0  0
 68 82  1  0  0  0  0
 70 72  1  0  0  0  0
M  CHG  3  80   1  81   1  82   1
M  ISO  4  37 100  66 101  77 100  89 101
M  END
> <Batch ID>
0130

> <Smiles>
CNC(C)C(=O)NC(C(=O)N1Cc2cc([101O:1][101CH2:1]CCc3c(C4CCCN4CCCCN)cc([100NH:0][100C:0](=O)N4CCCC(n5nc(-c6ccc(Oc7ccc(F)cc7F)cc6)c(C(N)=O)c5N)C4)nc3C)ccc2CC1C(=O)NC1CCCc2ccccc21)C(C)(C)C

> <Shape>
0.297

> <Color>
0.125

> <Negative vol penalty>
0.000

$$$$

  -OEChem-04052320473D

 87 96  0     1  0  0  0  0  0999 V2000
  -27.2214  -33.8778   25.5354 C   0  0  0  0  0  0  0  0  0  0  0  0
  -27.9107  -32.6762   25.4073 C   0  0  0  0  0  0  0  0  0  0  0  0
  -24.1850  -10.7610   23.9376 C   0  0  0  0  0  0  0  0  0  0  0  0
  -24.6935   -9.3316   22.0573 C   0  0  0  0  0  0  0  0  0  0  0  0
  -25.8868  -33.9601   25.1405 C   0  0  0  0  0  0  0  0  0  0  0  0
  -27.2654  -31.5558   24.8852 C   0  0  0  0  0  0  0  0  0  0  0  0
  -31.3722  -20.0071   23.8549 C   0  0  0  0  0  0  0  0  0  0  0  0
  -29.7412  -27.1741   21.3956 C   0  0  0  0  0  0  0  0  0  0  0  0
  -31.0568  -21.3483   23.6374 C   0  0  0  0  0  0  0  0  0  0  0  0
  -23.7915   -9.6466   24.6784 C   0  0  0  0  0  0  0  0  0  0  0  0
  -24.3000   -8.2171   22.7981 C   0  0  0  0  0  0  0  0  0  0  0  0
  -30.2267  -25.9013   21.6921 C   0  0  0  0  0  0  0  0  0  0  0  0
  -23.0900   -5.0349   24.0706 C   0  0  0  0  0  0  0  0  0  0  0  0
  -22.2752   -4.0934   23.4421 C   0  0  0  0  0  0  0  0  0  0  0  0
  -28.1016  -24.9502   21.0608 C   0  0  0  0  0  0  0  0  0  0  0  0
  -32.3811  -21.3322   21.6168 C   0  0  0  0  0  0  0  0  0  0  0  0
  -20.5901   -5.7882   23.0879 C   0  0  0  0  0  0  0  0  0  0  0  0
  -24.6359  -10.6035   22.6270 C   0  0  0  0  0  0  0  0  0  0  0  0
  -24.2537  -12.8699   21.5201 C   0  0  0  0  0  0  0  0  0  0  0  0
  -25.2276  -32.8427   24.6043 C   0  0  0  0  0  0  0  0  0  0  0  0
  -28.4264  -27.3459   20.9390 C   0  0  0  0  0  0  0  0  0  0  0  0
  -25.9203  -31.6228   24.4840 C   0  0  0  0  0  0  0  0  0  0  0  0
  -32.1921  -19.3284   22.9533 C   0  0  0  0  0  0  0  0  0  0  0  0
  -27.6026  -26.2260   20.7567 C   0  0  0  0  0  0  0  0  0  0  0  0
  -31.5612  -22.0108   22.5184 C   0  0  0  0  0  0  0  0  0  0  0  0
  -32.6966  -19.9909   21.8343 C   0  0  0  0  0  0  0  0  0  0  0  0
  -23.8491   -8.3746   24.1087 C   0  0  0  0  0  0  0  0  0  0  0  0
  -29.4060  -24.7894   21.5275 C   0  0  0  0  0  0  0  0  0  0  0  0
  -22.6549   -6.3531   24.2078 C   0  0  0  0  0  0  0  0  0  0  0  0
  -21.0252   -4.4700   22.9507 C   0  0  0  0  0  0  0  0  0  0  0  0
  -21.4050   -6.7297   23.7164 C   0  0  0  0  0  0  0  0  0  0  0  0
  -25.0419  -11.7544   21.8610 C   0  0  0  0  0  0  0  0  0  0  0  0
  -25.0958  -13.6763   20.7941 C   0  0  0  0  0  0  0  0  0  0  0  0
  -22.8829  -13.1518   21.8318 C   0  0  0  0  0  0  0  0  0  0  0  0
  -25.8543  -28.8636   22.0273 C   0  0  0  0  0  0  0  0  0  0  0  0
  -24.6072  -27.9909   19.1627 C   0  0  0  0  0  0  0  0  0  0  0  0
  -24.6733  -25.8509   16.5051 C   0  0  0  0  0  0  0  0  0  0  0  0
  -31.0522  -14.2673   20.6454 C   0  0  0  0  0  0  0  0  0  0  0  0
  -23.7706  -32.9673   24.2353 C   0  0  0  0  0  0  0  0  0  0  0  0
  -27.9264  -28.7229   20.5981 C   0  0  0  0  0  0  0  0  0  0  0  0
  -26.1901  -26.3546   20.2501 C   0  0  0  0  0  0  0  0  0  0  0  0
  -23.2690  -31.8345   23.3434 C   0  0  0  0  0  0  0  0  0  0  0  0
  -28.9104  -13.4772   17.9132 C   0  0  0  0  0  0  0  0  0  0  0  0
  -23.7315  -30.4850   23.8838 C   0  0  0  0  0  0  0  0  0  0  0  0
  -32.8650  -16.0004   24.9050 C   0  0  0  0  0  0  0  0  0  0  0  0
  -27.6050  -13.0467   18.5844 C   0  0  0  0  0  0  0  0  0  0  0  0
  -31.8671  -15.1263   24.1506 C   0  0  0  0  0  0  0  0  0  0  0  0
  -31.5256  -16.9613   22.4559 C   0  0  0  0  0  0  0  0  0  0  0  0
  -30.1312  -13.0240   18.7108 C   0  0  0  0  0  0  0  0  0  0  0  0
  -28.8244  -12.9988   20.8001 C   0  0  0  0  0  0  0  0  0  0  0  0
  -32.5219  -17.8658   23.2115 C   0  0  2  0  0  0  0  0  0  0  0  0
  -25.2620  -30.3920   23.8992 C   0  0  1  0  0  0  0  0  0  0  0  0
  -26.4050  -28.8309   20.6296 C   0  0  1  0  0  0  0  0  0  0  0  0
  -32.5799  -17.5012   24.7195 C   0  0  2  0  0  0  0  0  0  0  0  0
  -27.5641  -13.4814   20.0617 C   0  0  2  0  0  0  0  0  0  0  0  0
  -31.8374  -15.4778   22.6646 C   0  0  2  0  0  0  0  0  0  0  0  0
  -33.5767  -19.2850   20.8556 C   0  0  0  0  0  0  0  0  0  0  0  0
  -23.5070  -25.3664   14.3367 C   0  0  0  0  0  0  0  0  0  0  0  0
  -22.2769  -26.7536   20.6954 C   0  0  0  0  0  0  0  0  0  0  0  0
  -21.6693  -25.4956   18.6178 C   0  0  0  0  0  0  0  0  0  0  0  0
  -21.6229  -27.9897   18.6220 C   0  0  0  0  0  0  0  0  0  0  0  0
  -27.1442  -26.3057   14.9408 C   0  0  0  0  0  0  0  0  0  0  0  0
  -31.2222  -23.4537   22.2847 C   0  0  0  0  0  0  0  0  0  1  0  0
  -33.6445  -18.3122   25.4680 C   0  0  0  0  0  0  0  0  0  0  0  0
  -23.8490  -26.7914   18.6476 C   0  0  1  0  0  0  0  0  0  0  0  0
  -24.6556  -26.1030   15.0082 C   0  0  2  0  0  0  0  0  0  0  0  0
  -22.3805  -26.7550   19.1571 C   0  0  0  0  0  0  0  0  0  0  0  0
  -26.2889  -11.8409   21.3902 N   0  0  0  0  0  0  0  0  0  0  0  0
  -26.2905  -13.0203   20.7460 N   0  0  0  0  0  0  0  0  0  0  0  0
  -25.7452  -27.7225   19.9366 N   0  0  0  0  0  0  0  0  0  0  0  0
  -30.0312  -13.4697   20.1027 N   0  0  0  0  0  0  0  0  0  0  0  0
  -24.9233  -14.8755   20.1986 N   0  0  0  0  0  0  0  0  0  0  0  0
  -21.8921  -12.7177   20.9406 N   0  0  0  0  0  0  0  0  0  0  0  0
  -25.7660  -30.1324   22.5676 N   0  0  0  0  0  0  0  0  0  0  0  0
  -23.9768  -26.8208   17.1946 N   0  0  0  0  0  0  0  0  0  0  0  0
  -30.8762  -14.6514   21.9691 N   0  0  0  0  0  0  0  0  0  0  0  0
  -25.9324  -25.6454   14.3907 N   0  3  0  0  0  0  0  0  0  0  0  0
  -22.5477  -13.7848   22.8616 O   0  0  0  0  0  0  0  0  0  0  0  0
  -25.5319  -27.8155   22.5743 O   0  0  0  0  0  0  0  0  0  0  0  0
  -24.2087  -29.1242   18.8827 O   0  0  0  0  0  0  0  0  0  0  0  0
  -25.2446  -24.8878   17.0117 O   0  0  0  0  0  0  0  0  0  0  0  0
  -32.0444  -14.6159   19.9966 O   0  0  0  0  0  0  0  0  0  0  0  0
  -33.5741  -17.9769   26.8394 O   0  0  0  0  0  0  0  0  0  0  0  0
  -23.4654   -7.2869   24.8314 O   0  0  0  0  0  0  0  0  0  0  0  0
  -29.8772  -23.5459   21.8168 O   0  0  0  0  0  0  0  0  0  1  0  0
  -20.2435   -3.5660   22.3458 F   0  0  0  0  0  0  0  0  0  0  0  0
  -20.9821   -7.9949   23.8442 F   0  0  0  0  0  0  0  0  0  0  0  0
  1  2  1  0  0  0  0
  1  5  2  0  0  0  0
  2  6  2  0  0  0  0
  3 10  2  0  0  0  0
  3 18  1  0  0  0  0
  4 11  1  0  0  0  0
  4 18  2  0  0  0  0
  5 20  1  0  0  0  0
  6 22  1  0  0  0  0
  7  9  2  0  0  0  0
  7 23  1  0  0  0  0
  8 12  2  0  0  0  0
  8 21  1  0  0  0  0
  9 25  1  0  0  0  0
 10 27  1  0  0  0  0
 11 27  2  0  0  0  0
 12 28  1  0  0  0  0
 13 14  2  0  0  0  0
 13 29  1  0  0  0  0
 14 30  1  0  0  0  0
 15 24  1  0  0  0  0
 15 28  2  0  0  0  0
 16 25  2  0  0  0  0
 16 26  1  0  0  0  0
 17 30  2  0  0  0  0
 17 31  1  0  0  0  0
 18 32  1  0  0  0  0
 19 32  1  0  0  0  0
 19 33  2  0  0  0  0
 19 34  1  0  0  0  0
 20 22  2  0  0  0  0
 20 39  1  0  0  0  0
 21 24  2  0  0  0  0
 21 40  1  0  0  0  0
 22 52  1  0  0  0  0
 23 26  2  0  0  0  0
 23 51  1  0  0  0  0
 24 41  1  0  0  0  0
 25 63  1  0  0  0  0
 26 57  1  0  0  0  0
 27 84  1  0  0  0  0
 28 85  1  0  0  0  0
 29 31  2  0  0  0  0
 29 84  1  0  0  0  0
 30 86  1  0  0  0  0
 31 87  1  0  0  0  0
 32 68  2  0  0  0  0
 33 69  1  0  0  0  0
 33 72  1  0  0  0  0
 34 73  1  0  0  0  0
 34 78  2  0  0  0  0
 35 53  1  0  0  0  0
 35 74  1  0  0  0  0
 35 79  2  0  0  0  0
 36 65  1  0  0  0  0
 36 70  1  0  0  0  0
 36 80  2  0  0  0  0
 37 66  1  0  0  0  0
 37 75  1  0  0  0  0
 37 81  2  0  0  0  0
 38 71  1  0  0  0  0
 38 76  1  0  0  0  0
 38 82  2  0  0  0  0
 39 42  1  0  0  0  0
 40 53  1  0  0  0  0
 41 70  1  0  0  0  0
 42 44  1  0  0  0  0
 43 46  1  0  0  0  0
 43 49  1  0  0  0  0
 44 52  1  0  0  0  0
 45 47  1  0  0  0  0
 45 54  1  0  0  0  0
 46 55  1  0  0  0  0
 47 56  1  0  0  0  0
 48 51  1  0  0  0  0
 48 56  1  0  0  0  0
 49 71  1  0  0  0  0
 50 55  1  0  0  0  0
 50 71  1  0  0  0  0
 51 54  1  0  0  0  0
 52 74  1  0  0  0  0
 53 70  1  0  0  0  0
 54 64  1  0  0  0  0
 55 69  1  0  0  0  0
 56 76  1  0  0  0  0
 58 66  1  0  0  0  0
 59 67  1  0  0  0  0
 60 67  1  0  0  0  0
 61 67  1  0  0  0  0
 62 77  1  0  0  0  0
 63 85  1  0  0  0  0
 64 83  1  0  0  0  0
 65 67  1  0  0  0  0
 65 75  1  0  0  0  0
 66 77  1  0  0  0  0
 68 69  1  0  0  0  0
M  CHG  1  77   1
M  ISO  4  38 100  63 101  76 100  85 101
M  END
> <Batch ID>
0130

> <Smiles>
CNC(C)C(=O)NC(C(=O)N1Cc2cc([101O:1][101CH2:1]c3ccc(C4CC([100NH:0][100C:0](=O)N5CCCC(n6nc(-c7ccc(Oc8ccc(F)cc8F)cc7)c(C(N)=O)c6N)C5)CCC4CO)c(C)c3)ccc2CC1C(=O)NC1CCCc2ccccc21)C(C)(C)C

> <Shape>
0.275

> <Color>
0.108

> <Negative vol penalty>
0.000

$$$$

  -OEChem-04052320473D

 85 93  0     1  0  0  0  0  0999 V2000
  -29.6388  -27.3815   19.7816 C   0  0  0  0  0  0  0  0  0  0  0  0
  -28.8616  -26.4782   20.4995 C   0  0  0  0  0  0  0  0  0  0  0  0
  -29.9174  -17.0908   19.0722 C   0  0  0  0  0  0  0  0  0  0  0  0
  -28.7069  -17.2562   21.1565 C   0  0  0  0  0  0  0  0  0  0  0  0
  -29.3112  -28.7367   19.7835 C   0  0  0  0  0  0  0  0  0  0  0  0
  -27.7568  -26.9297   21.2206 C   0  0  0  0  0  0  0  0  0  0  0  0
  -23.6822  -23.9930   20.5741 C   0  0  0  0  0  0  0  0  0  0  0  0
  -29.9135  -18.4811   18.9595 C   0  0  0  0  0  0  0  0  0  0  0  0
  -28.7031  -18.6465   21.0439 C   0  0  0  0  0  0  0  0  0  0  0  0
  -23.6441  -22.7922   21.2815 C   0  0  0  0  0  0  0  0  0  0  0  0
  -30.8597  -21.1930   21.5777 C   0  0  0  0  0  0  0  0  0  0  0  0
  -31.1773  -21.9347   22.7155 C   0  0  0  0  0  0  0  0  0  0  0  0
  -22.1932  -23.8096   22.9184 C   0  0  0  0  0  0  0  0  0  0  0  0
  -21.1579  -16.9797   23.6035 C   0  0  0  0  0  0  0  0  0  0  0  0
  -29.0090  -22.9968   22.6283 C   0  0  0  0  0  0  0  0  0  0  0  0
  -20.9323  -16.0152   21.0609 C   0  0  0  0  0  0  0  0  0  0  0  0
  -29.3140  -16.4783   20.1706 C   0  0  0  0  0  0  0  0  0  0  0  0
  -30.2902  -14.2425   20.9160 C   0  0  0  0  0  0  0  0  0  0  0  0
  -28.1962  -29.2038   20.4972 C   0  0  0  0  0  0  0  0  0  0  0  0
  -22.9837  -25.1162   21.0401 C   0  0  0  0  0  0  0  0  0  0  0  0
  -27.4148  -28.2927   21.2332 C   0  0  0  0  0  0  0  0  0  0  0  0
  -22.2220  -25.0227   22.2136 C   0  0  0  0  0  0  0  0  0  0  0  0
  -20.9929  -15.6135   23.4043 C   0  0  0  0  0  0  0  0  0  0  0  0
  -20.8772  -15.1140   22.1119 C   0  0  0  0  0  0  0  0  0  0  0  0
  -29.3064  -19.2589   19.9454 C   0  0  0  0  0  0  0  0  0  0  0  0
  -22.9018  -22.7012   22.4554 C   0  0  0  0  0  0  0  0  0  0  0  0
  -29.6168  -21.3533   20.9651 C   0  0  0  0  0  0  0  0  0  0  0  0
  -30.2519  -22.8365   23.2409 C   0  0  0  0  0  0  0  0  0  0  0  0
  -28.6914  -22.2551   21.4905 C   0  0  0  0  0  0  0  0  0  0  0  0
  -29.3171  -15.0422   20.2872 C   0  0  0  0  0  0  0  0  0  0  0  0
  -21.2006  -17.7973   22.4857 C   0  0  0  0  0  0  0  0  0  0  0  0
  -29.8347  -12.9568   20.7545 C   0  0  0  0  0  0  0  0  0  0  0  0
  -31.4978  -14.6273   21.5863 C   0  0  0  0  0  0  0  0  0  0  0  0
  -23.8087  -28.0332   21.9960 C   0  0  0  0  0  0  0  0  0  0  0  0
  -20.5981  -28.4837   22.1012 C   0  0  0  0  0  0  0  0  0  0  0  0
  -17.4872  -27.1086   22.3811 C   0  0  0  0  0  0  0  0  0  0  0  0
  -24.3779  -10.6398   19.9139 C   0  0  0  0  0  0  0  0  0  0  0  0
  -27.9093  -30.6844   20.5078 C   0  0  0  0  0  0  0  0  0  0  0  0
  -23.0134  -26.3964   20.2512 C   0  0  0  0  0  0  0  0  0  0  0  0
  -21.4380  -26.1936   22.7455 C   0  0  0  0  0  0  0  0  0  0  0  0
  -26.5036  -31.0289   20.9933 C   0  0  0  0  0  0  0  0  0  0  0  0
  -27.2160  -10.2557   17.7985 C   0  0  0  0  0  0  0  0  0  0  0  0
  -26.1723  -30.2523   22.2637 C   0  0  0  0  0  0  0  0  0  0  0  0
  -28.1641  -11.3667   18.2532 C   0  0  0  0  0  0  0  0  0  0  0  0
  -25.7563  -10.7007   17.8565 C   0  0  0  0  0  0  0  0  0  0  0  0
  -26.2719  -12.3486   19.6150 C   0  0  0  0  0  0  0  0  0  0  0  0
  -26.1942  -28.7405   22.0076 C   0  0  1  0  0  0  0  0  0  0  0  0
  -22.6799  -27.6246   21.0925 C   0  0  1  0  0  0  0  0  0  0  0  0
  -27.7517  -11.9285   19.6271 C   0  0  2  0  0  0  0  0  0  0  0  0
  -20.9432  -14.7047   24.5877 C   0  0  0  0  0  0  0  0  0  0  0  0
  -15.0583  -27.7330   22.4723 C   0  0  0  0  0  0  0  0  0  0  0  0
  -20.9501  -29.4226   24.9829 C   0  0  0  0  0  0  0  0  0  0  0  0
  -18.4866  -29.1185   25.3095 C   0  0  0  0  0  0  0  0  0  0  0  0
  -19.3271  -30.7686   23.6382 C   0  0  0  0  0  0  0  0  0  0  0  0
  -16.8770  -25.5568   19.9360 C   0  0  0  0  0  0  0  0  0  0  0  0
  -20.6990  -13.6603   21.8417 C   0  0  0  0  0  0  0  0  0  0  0  0
  -23.0945  -10.6942   22.0373 C   0  0  0  0  0  0  0  0  0  0  0  0
  -21.4925  -19.7508   24.0103 C   0  0  0  0  0  0  0  0  0  0  0  0
  -21.7734  -11.4056   21.8120 C   0  0  0  0  0  0  0  0  0  0  0  0
  -21.6771  -21.2544   23.8916 C   0  0  0  0  0  0  0  0  0  1  0  0
  -19.5259  -28.2964   23.1473 C   0  0  1  0  0  0  0  0  0  0  0  0
  -16.2166  -27.3196   21.5777 C   0  0  2  0  0  0  0  0  0  0  0  0
  -19.5887  -29.3798   24.2608 C   0  0  0  0  0  0  0  0  0  0  0  0
  -21.0916  -17.3487   21.2151 N   0  0  0  0  0  0  0  0  0  0  0  0
  -28.3189  -14.3247   19.7650 N   0  0  0  0  0  0  0  0  0  0  0  0
  -28.6623  -13.0606   20.0653 N   0  0  0  0  0  0  0  0  0  0  0  0
  -21.5038  -27.4254   21.9419 N   0  0  0  0  0  0  0  0  0  0  0  0
  -25.4292  -11.2213   19.1861 N   0  0  0  0  0  0  0  0  0  0  0  0
  -30.3266  -11.7590   21.1361 N   0  0  0  0  0  0  0  0  0  0  0  0
  -31.8149  -15.9905   21.6614 N   0  0  0  0  0  0  0  0  0  0  0  0
  -21.3653  -19.1558   22.6997 N   0  0  0  0  0  0  0  0  0  0  0  0
  -24.9843  -28.3249   21.3309 N   0  0  0  0  0  0  0  0  0  0  0  0
  -18.2574  -28.2514   22.4282 N   0  0  0  0  0  0  0  0  0  0  0  0
  -24.1383  -11.1890   21.1675 N   0  0  0  0  0  0  0  0  0  0  0  0
  -15.8379  -26.0649   20.8683 N   0  3  0  0  0  0  0  0  0  0  0  0
  -21.9466  -12.8662   22.0223 N   0  3  0  0  0  0  0  0  0  0  0  0
  -32.2809  -13.7862   22.0890 O   0  0  0  0  0  0  0  0  0  0  0  0
  -23.6262  -28.0818   23.2068 O   0  0  0  0  0  0  0  0  0  0  0  0
  -20.6264  -29.5275   21.4444 O   0  0  0  0  0  0  0  0  0  0  0  0
  -17.7666  -26.0383   22.9167 O   0  0  0  0  0  0  0  0  0  0  0  0
  -23.7064   -9.6972   19.4809 O   0  0  0  0  0  0  0  0  0  0  0  0
  -29.3027  -20.6156   19.8360 O   0  0  0  0  0  0  0  0  0  0  0  0
  -22.8634  -21.5305   23.1481 O   0  0  0  0  0  0  0  0  0  1  0  0
  -30.5565  -23.5476   24.3344 F   0  0  0  0  0  0  0  0  0  0  0  0
  -27.4953  -22.4125   20.9071 F   0  0  0  0  0  0  0  0  0  0  0  0
  1  2  1  0  0  0  0
  1  5  2  0  0  0  0
  2  6  2  0  0  0  0
  3  8  2  0  0  0  0
  3 17  1  0  0  0  0
  4  9  1  0  0  0  0
  4 17  2  0  0  0  0
  5 19  1  0  0  0  0
  6 21  1  0  0  0  0
  7 10  2  0  0  0  0
  7 20  1  0  0  0  0
  8 25  1  0  0  0  0
  9 25  2  0  0  0  0
 10 26  1  0  0  0  0
 11 12  2  0  0  0  0
 11 27  1  0  0  0  0
 12 28  1  0  0  0  0
 13 22  1  0  0  0  0
 13 26  2  0  0  0  0
 14 23  2  0  0  0  0
 14 31  1  0  0  0  0
 15 28  2  0  0  0  0
 15 29  1  0  0  0  0
 16 24  2  0  0  0  0
 16 64  1  0  0  0  0
 17 30  1  0  0  0  0
 18 30  1  0  0  0  0
 18 32  2  0  0  0  0
 18 33  1  0  0  0  0
 19 21  2  0  0  0  0
 19 38  1  0  0  0  0
 20 22  2  0  0  0  0
 20 39  1  0  0  0  0
 21 47  1  0  0  0  0
 22 40  1  0  0  0  0
 23 24  1  0  0  0  0
 23 50  1  0  0  0  0
 24 56  1  0  0  0  0
 25 82  1  0  0  0  0
 26 83  1  0  0  0  0
 27 29  2  0  0  0  0
 27 82  1  0  0  0  0
 28 84  1  0  0  0  0
 29 85  1  0  0  0  0
 30 65  2  0  0  0  0
 31 64  2  0  0  0  0
 31 71  1  0  0  0  0
 32 66  1  0  0  0  0
 32 69  1  0  0  0  0
 33 70  1  0  0  0  0
 33 77  2  0  0  0  0
 34 48  1  0  0  0  0
 34 72  1  0  0  0  0
 34 78  2  0  0  0  0
 35 61  1  0  0  0  0
 35 67  1  0  0  0  0
 35 79  2  0  0  0  0
 36 62  1  0  0  0  0
 36 73  1  0  0  0  0
 36 80  2  0  0  0  0
 37 68  1  0  0  0  0
 37 74  1  0  0  0  0
 37 81  2  0  0  0  0
 38 41  1  0  0  0  0
 39 48  1  0  0  0  0
 40 67  1  0  0  0  0
 41 43  1  0  0  0  0
 42 44  1  0  0  0  0
 42 45  1  0  0  0  0
 43 47  1  0  0  0  0
 44 49  1  0  0  0  0
 45 68  1  0  0  0  0
 46 49  1  0  0  0  0
 46 68  1  0  0  0  0
 47 72  1  0  0  0  0
 48 67  1  0  0  0  0
 49 66  1  0  0  0  0
 51 62  1  0  0  0  0
 52 63  1  0  0  0  0
 53 63  1  0  0  0  0
 54 63  1  0  0  0  0
 55 75  1  0  0  0  0
 56 76  1  0  0  0  0
 57 59  1  0  0  0  0
 57 74  1  0  0  0  0
 58 60  1  0  0  0  0
 58 71  1  0  0  0  0
 59 76  1  0  0  0  0
 60 83  1  0  0  0  0
 61 63  1  0  0  0  0
 61 73  1  0  0  0  0
 62 75  1  0  0  0  0
 65 66  1  0  0  0  0
M  CHG  2  75   1  76   1
M  ISO  4  37 100  60 101  74 100  83 101
M  END
> <Batch ID>
0130

> <Smiles>
CNC(C)C(=O)NC(C(=O)N1Cc2cc([101O:1][101CH2:1]CNc3cc(C)c(CNCC[100NH:0][100C:0](=O)N4CCCC(n5nc(-c6ccc(Oc7ccc(F)cc7F)cc6)c(C(N)=O)c5N)C4)cn3)ccc2CC1C(=O)NC1CCCc2ccccc21)C(C)(C)C

> <Shape>
0.265

> <Color>
0.048

> <Negative vol penalty>
0.000

$$$$

  -OEChem-04052320473D

 83 92  0     1  0  0  0  0  0999 V2000
  -27.2788  -35.6001   25.4039 C   0  0  0  0  0  0  0  0  0  0  0  0
  -27.7150  -34.7090   24.4286 C   0  0  0  0  0  0  0  0  0  0  0  0
  -26.6098  -12.6470   21.6965 C   0  0  0  0  0  0  0  0  0  0  0  0
  -26.0952  -13.9811   19.7491 C   0  0  0  0  0  0  0  0  0  0  0  0
  -26.5101  -35.1407   26.4725 C   0  0  0  0  0  0  0  0  0  0  0  0
  -27.3836  -33.3578   24.5220 C   0  0  0  0  0  0  0  0  0  0  0  0
  -26.2097  -29.5266   19.8906 C   0  0  0  0  0  0  0  0  0  0  0  0
  -25.3215  -12.1130   21.6711 C   0  0  0  0  0  0  0  0  0  0  0  0
  -24.8069  -13.4470   19.7236 C   0  0  0  0  0  0  0  0  0  0  0  0
  -26.9950  -28.5797   19.2346 C   0  0  0  0  0  0  0  0  0  0  0  0
  -23.6399   -9.7461   19.9383 C   0  0  0  0  0  0  0  0  0  0  0  0
  -23.5057   -8.3686   20.1117 C   0  0  0  0  0  0  0  0  0  0  0  0
  -26.0876  -26.8528   20.6536 C   0  0  0  0  0  0  0  0  0  0  0  0
  -22.1502   -8.7479   22.0754 C   0  0  0  0  0  0  0  0  0  0  0  0
  -26.9967  -13.5811   20.7355 C   0  0  0  0  0  0  0  0  0  0  0  0
  -29.4702  -13.6285   20.1133 C   0  0  0  0  0  0  0  0  0  0  0  0
  -26.1609  -33.7848   26.5739 C   0  0  0  0  0  0  0  0  0  0  0  0
  -25.3641  -29.1447   20.9422 C   0  0  0  0  0  0  0  0  0  0  0  0
  -26.6106  -32.8796   25.5937 C   0  0  0  0  0  0  0  0  0  0  0  0
  -25.2907  -27.7963   21.3197 C   0  0  0  0  0  0  0  0  0  0  0  0
  -24.4201  -12.5129   20.6847 C   0  0  0  0  0  0  0  0  0  0  0  0
  -26.9362  -27.2430   19.6179 C   0  0  0  0  0  0  0  0  0  0  0  0
  -23.0294  -10.6245   20.8335 C   0  0  0  0  0  0  0  0  0  0  0  0
  -22.7608   -7.8695   21.1802 C   0  0  0  0  0  0  0  0  0  0  0  0
  -22.2845  -10.1254   21.9020 C   0  0  0  0  0  0  0  0  0  0  0  0
  -28.3272  -14.1336   20.7615 C   0  0  0  0  0  0  0  0  0  0  0  0
  -30.4715  -14.5066   20.4492 C   0  0  0  0  0  0  0  0  0  0  0  0
  -29.6139  -12.4694   19.2818 C   0  0  0  0  0  0  0  0  0  0  0  0
  -25.1667  -29.8573   24.0336 C   0  0  0  0  0  0  0  0  0  0  0  0
  -22.4548  -28.0851   23.8697 C   0  0  0  0  0  0  0  0  0  0  0  0
  -20.6834  -25.6399   22.2791 C   0  0  0  0  0  0  0  0  0  0  0  0
  -29.9471  -20.3198   22.3269 C   0  0  0  0  0  0  0  0  0  0  0  0
  -25.3680  -33.3270   27.7723 C   0  0  0  0  0  0  0  0  0  0  0  0
  -24.5035  -30.1741   21.6220 C   0  0  0  0  0  0  0  0  0  0  0  0
  -24.3840  -27.3317   22.4290 C   0  0  0  0  0  0  0  0  0  0  0  0
  -24.7448  -31.9444   27.5984 C   0  0  0  0  0  0  0  0  0  0  0  0
  -31.8201  -17.5302   23.8924 C   0  0  0  0  0  0  0  0  0  0  0  0
  -30.9404  -23.9583   15.7559 C   0  0  0  0  0  0  0  0  0  0  0  0
  -25.7682  -30.9650   27.0325 C   0  0  0  0  0  0  0  0  0  0  0  0
  -31.1704  -16.3007   23.2601 C   0  0  0  0  0  0  0  0  0  0  0  0
  -29.6434  -24.6715   16.0887 C   0  0  0  0  0  0  0  0  0  0  0  0
  -29.0916  -22.7553   20.0089 C   0  0  0  0  0  0  0  0  0  0  0  0
  -30.4973  -20.9681   18.9079 C   0  0  0  0  0  0  0  0  0  0  0  0
  -30.8542  -18.7087   23.9619 C   0  0  0  0  0  0  0  0  0  0  0  0
  -28.4598  -21.6744   20.8819 C   0  0  0  0  0  0  0  0  0  0  0  0
  -29.8545  -19.9228   19.8244 C   0  0  0  0  0  0  0  0  0  0  0  0
  -29.5990  -17.8380   22.0155 C   0  0  0  0  0  0  0  0  0  0  0  0
  -30.8545  -22.7033   16.5954 C   0  0  0  0  0  0  0  0  0  0  0  0
  -26.2508  -31.4106   25.6469 C   0  0  1  0  0  0  0  0  0  0  0  0
  -24.0618  -29.7542   23.0206 C   0  0  1  0  0  0  0  0  0  0  0  0
  -30.5608  -16.6468   21.8908 C   0  0  2  0  0  0  0  0  0  0  0  0
  -29.5621  -22.1548   18.6858 C   0  0  0  0  0  0  0  0  0  0  0  0
  -29.4419  -24.4406   17.5861 C   0  0  2  0  0  0  0  0  0  0  0  0
  -18.5144  -24.3836   22.3993 C   0  0  0  0  0  0  0  0  0  0  0  0
  -23.5440  -26.4317   26.1913 C   0  0  0  0  0  0  0  0  0  0  0  0
  -21.8469  -24.6741   25.6446 C   0  0  0  0  0  0  0  0  0  0  0  0
  -21.1022  -26.9522   26.3365 C   0  0  0  0  0  0  0  0  0  0  0  0
  -19.8364  -26.6163   19.6167 C   0  0  0  0  0  0  0  0  0  0  0  0
  -29.9313  -25.5988   18.4436 C   0  0  0  0  0  0  0  0  0  0  0  0
  -28.9470  -26.7587   18.4439 C   0  0  0  0  0  0  0  0  0  1  0  0
  -22.1205  -26.6235   24.0459 C   0  0  1  0  0  0  0  0  0  0  0  0
  -19.2403  -25.5837   21.8115 C   0  0  2  0  0  0  0  0  0  0  0  0
  -22.1720  -26.1791   25.5349 C   0  0  0  0  0  0  0  0  0  0  0  0
  -28.5780  -15.2461   21.4568 N   0  0  0  0  0  0  0  0  0  0  0  0
  -29.8901  -15.4474   21.2473 N   0  0  0  0  0  0  0  0  0  0  0  0
  -23.5669  -28.3768   23.0673 N   0  0  0  0  0  0  0  0  0  0  0  0
  -30.2513  -18.9889   22.6586 N   0  0  0  0  0  0  0  0  0  0  0  0
  -29.3726  -20.5445   21.0667 N   0  0  0  0  0  0  0  0  0  0  0  0
  -31.7838  -14.5580   20.1367 N   0  0  0  0  0  0  0  0  0  0  0  0
  -28.4836  -11.6771   19.0388 N   0  0  0  0  0  0  0  0  0  0  0  0
  -25.2595  -31.0951   24.6408 N   0  0  0  0  0  0  0  0  0  0  0  0
  -20.8249  -26.4211   23.4064 N   0  0  0  0  0  0  0  0  0  0  0  0
  -30.2827  -23.2051   17.9015 N   0  3  2  0  0  0  0  0  0  0  0  0
  -19.1806  -25.4874   20.3255 N   0  3  0  0  0  0  0  0  0  0  0  0
  -30.7157  -12.1365   18.7830 O   0  0  0  0  0  0  0  0  0  0  0  0
  -25.8811  -28.8854   24.2495 O   0  0  0  0  0  0  0  0  0  0  0  0
  -21.7507  -28.9368   24.4178 O   0  0  0  0  0  0  0  0  0  0  0  0
  -21.5935  -25.0469   21.7041 O   0  0  0  0  0  0  0  0  0  0  0  0
  -30.1777  -21.2501   23.1096 O   0  0  0  0  0  0  0  0  0  0  0  0
  -23.1629  -11.9918   20.6595 O   0  0  0  0  0  0  0  0  0  0  0  0
  -27.7078  -26.3100   18.9749 O   0  0  0  0  0  0  0  0  0  1  0  0
  -22.6307   -6.5467   21.3458 F   0  0  0  0  0  0  0  0  0  0  0  0
  -21.6947  -10.9644   22.7645 F   0  0  0  0  0  0  0  0  0  0  0  0
  1  2  1  0  0  0  0
  1  5  2  0  0  0  0
  2  6  2  0  0  0  0
  3  8  2  0  0  0  0
  3 15  1  0  0  0  0
  4  9  1  0  0  0  0
  4 15  2  0  0  0  0
  5 17  1  0  0  0  0
  6 19  1  0  0  0  0
  7 10  2  0  0  0  0
  7 18  1  0  0  0  0
  8 21  1  0  0  0  0
  9 21  2  0  0  0  0
 10 22  1  0  0  0  0
 11 12  2  0  0  0  0
 11 23  1  0  0  0  0
 12 24  1  0  0  0  0
 13 20  1  0  0  0  0
 13 22  2  0  0  0  0
 14 24  2  0  0  0  0
 14 25  1  0  0  0  0
 15 26  1  0  0  0  0
 16 26  1  0  0  0  0
 16 27  2  0  0  0  0
 16 28  1  0  0  0  0
 17 19  2  0  0  0  0
 17 33  1  0  0  0  0
 18 20  2  0  0  0  0
 18 34  1  0  0  0  0
 19 49  1  0  0  0  0
 20 35  1  0  0  0  0
 21 80  1  0  0  0  0
 22 81  1  0  0  0  0
 23 25  2  0  0  0  0
 23 80  1  0  0  0  0
 24 82  1  0  0  0  0
 25 83  1  0  0  0  0
 26 64  2  0  0  0  0
 27 65  1  0  0  0  0
 27 69  1  0  0  0  0
 28 70  1  0  0  0  0
 28 75  2  0  0  0  0
 29 50  1  0  0  0  0
 29 71  1  0  0  0  0
 29 76  2  0  0  0  0
 30 61  1  0  0  0  0
 30 66  1  0  0  0  0
 30 77  2  0  0  0  0
 31 62  1  0  0  0  0
 31 72  1  0  0  0  0
 31 78  2  0  0  0  0
 32 67  1  0  0  0  0
 32 68  1  0  0  0  0
 32 79  2  0  0  0  0
 33 36  1  0  0  0  0
 34 50  1  0  0  0  0
 35 66  1  0  0  0  0
 36 39  1  0  0  0  0
 37 40  1  0  0  0  0
 37 44  1  0  0  0  0
 38 41  1  0  0  0  0
 38 48  1  0  0  0  0
 39 49  1  0  0  0  0
 40 51  1  0  0  0  0
 41 53  1  0  0  0  0
 42 45  1  0  0  0  0
 42 52  1  0  0  0  0
 43 46  1  0  0  0  0
 43 52  1  0  0  0  0
 44 67  1  0  0  0  0
 45 68  1  0  0  0  0
 46 68  1  0  0  0  0
 47 51  1  0  0  0  0
 47 67  1  0  0  0  0
 48 73  1  0  0  0  0
 49 71  1  0  0  0  0
 50 66  1  0  0  0  0
 51 65  1  0  0  0  0
 52 73  1  0  0  0  0
 53 59  1  0  0  0  0
 53 73  1  0  0  0  0
 54 62  1  0  0  0  0
 55 63  1  0  0  0  0
 56 63  1  0  0  0  0
 57 63  1  0  0  0  0
 58 74  1  0  0  0  0
 59 60  1  0  0  0  0
 60 81  1  0  0  0  0
 61 63  1  0  0  0  0
 61 72  1  0  0  0  0
 62 74  1  0  0  0  0
 64 65  1  0  0  0  0
M  CHG  2  73   1  74   1
M  ISO  4  32 100  60 101  68 100  81 101
M  END
> <Batch ID>
0130

> <Smiles>
CNC(C)C(=O)NC(C(=O)N1Cc2cc([101O:1][101CH2:1]CC3CCCN3C3CC[100N:0]([100C:0](=O)N4CCCC(n5nc(-c6ccc(Oc7ccc(F)cc7F)cc6)c(C(N)=O)c5N)C4)CC3)ccc2CC1C(=O)NC1CCCc2ccccc21)C(C)(C)C

> <Shape>
0.341

> <Color>
0.072

> <Negative vol penalty>
0.000

$$$$

  -OEChem-04052320473D

 82 90  0     1  0  0  0  0  0999 V2000
  -25.6496  -13.4284   36.6753 C   0  0  0  0  0  0  0  0  0  0  0  0
  -26.0831  -13.6528   35.3725 C   0  0  0  0  0  0  0  0  0  0  0  0
  -23.0746   -9.8688   19.9417 C   0  0  0  0  0  0  0  0  0  0  0  0
  -23.8390   -9.8747   22.2336 C   0  0  0  0  0  0  0  0  0  0  0  0
  -24.5772  -14.1575   37.1873 C   0  0  0  0  0  0  0  0  0  0  0  0
  -25.4436  -14.6059   34.5806 C   0  0  0  0  0  0  0  0  0  0  0  0
  -28.7082  -17.5464   32.0625 C   0  0  0  0  0  0  0  0  0  0  0  0
  -22.3322   -8.7148   20.1923 C   0  0  0  0  0  0  0  0  0  0  0  0
  -23.0965   -8.7207   22.4842 C   0  0  0  0  0  0  0  0  0  0  0  0
  -29.3016  -17.0073   30.9218 C   0  0  0  0  0  0  0  0  0  0  0  0
  -21.1163   -5.9811   23.8227 C   0  0  0  0  0  0  0  0  0  0  0  0
  -20.3624   -5.9360   24.9953 C   0  0  0  0  0  0  0  0  0  0  0  0
  -30.5379  -15.0103   24.7913 C   0  0  0  0  0  0  0  0  0  0  0  0
  -29.7433  -15.1426   25.9568 C   0  0  0  0  0  0  0  0  0  0  0  0
  -27.7280  -18.2081   29.5430 C   0  0  0  0  0  0  0  0  0  0  0  0
  -19.1148   -7.8728   24.2676 C   0  0  0  0  0  0  0  0  0  0  0  0
  -23.8281  -10.4487   20.9624 C   0  0  0  0  0  0  0  0  0  0  0  0
  -24.1677  -12.9742   20.8436 C   0  0  0  0  0  0  0  0  0  0  0  0
  -23.9305  -15.1269   36.4045 C   0  0  0  0  0  0  0  0  0  0  0  0
  -27.6115  -18.4133   31.9522 C   0  0  0  0  0  0  0  0  0  0  0  0
  -24.3607  -15.3478   35.0822 C   0  0  0  0  0  0  0  0  0  0  0  0
  -27.1241  -18.7589   30.6837 C   0  0  0  0  0  0  0  0  0  0  0  0
  -22.3430   -8.1408   21.4635 C   0  0  0  0  0  0  0  0  0  0  0  0
  -28.8097  -17.3359   29.6620 C   0  0  0  0  0  0  0  0  0  0  0  0
  -20.8696   -6.9720   22.8725 C   0  0  0  0  0  0  0  0  0  0  0  0
  -19.3616   -6.8819   25.2178 C   0  0  0  0  0  0  0  0  0  0  0  0
  -19.8688   -7.9179   23.0950 C   0  0  0  0  0  0  0  0  0  0  0  0
  -24.5957  -11.6403   20.7041 C   0  0  0  0  0  0  0  0  0  0  0  0
  -30.8360  -16.2807   24.3503 C   0  0  0  0  0  0  0  0  0  0  0  0
  -29.5799  -16.4899   26.1924 C   0  0  0  0  0  0  0  0  0  0  0  0
  -25.2585  -13.7248   20.4787 C   0  0  0  0  0  0  0  0  0  0  0  0
  -22.8976  -13.4887   21.2654 C   0  0  0  0  0  0  0  0  0  0  0  0
  -24.5848  -18.3357   32.9199 C   0  0  0  0  0  0  0  0  0  0  0  0
  -24.5467  -21.3681   31.7687 C   0  0  0  0  0  0  0  0  0  0  0  0
  -25.8955  -23.6807   29.6522 C   0  0  0  0  0  0  0  0  0  0  0  0
  -30.7418  -14.7481   20.6572 C   0  0  0  0  0  0  0  0  0  0  0  0
  -22.7454  -15.8567   36.9856 C   0  0  0  0  0  0  0  0  0  0  0  0
  -26.9996  -19.0073   33.1912 C   0  0  0  0  0  0  0  0  0  0  0  0
  -25.9619  -19.7009   30.5104 C   0  0  0  0  0  0  0  0  0  0  0  0
  -22.3621  -17.1127   36.2072 C   0  0  0  0  0  0  0  0  0  0  0  0
  -29.6015  -12.3644   18.2709 C   0  0  0  0  0  0  0  0  0  0  0  0
  -22.3284  -16.8233   34.7099 C   0  0  0  0  0  0  0  0  0  0  0  0
  -28.1651  -12.0692   18.7064 C   0  0  0  0  0  0  0  0  0  0  0  0
  -30.5207  -12.5851   19.4701 C   0  0  0  0  0  0  0  0  0  0  0  0
  -28.6211  -13.3136   20.8610 C   0  0  0  0  0  0  0  0  0  0  0  0
  -23.7085  -16.3906   34.2004 C   0  0  1  0  0  0  0  0  0  0  0  0
  -25.5625  -19.4749   32.9826 C   0  0  1  0  0  0  0  0  0  0  0  0
  -27.6448  -13.1391   19.6851 C   0  0  2  0  0  0  0  0  0  0  0  0
  -25.6277  -26.0619   28.9070 C   0  0  0  0  0  0  0  0  0  0  0  0
  -31.0372  -19.2457   26.2920 C   0  0  0  0  0  0  0  0  0  0  0  0
  -28.9459  -19.2409   24.8663 C   0  0  0  0  0  0  0  0  0  0  0  0
  -22.1219  -20.5698   30.0974 C   0  0  0  0  0  0  0  0  0  0  0  0
  -22.4879  -22.6231   28.7124 C   0  0  0  0  0  0  0  0  0  0  0  0
  -21.9679  -22.8365   31.1427 C   0  0  0  0  0  0  0  0  0  0  0  0
  -28.6099  -24.4002   30.5866 C   0  0  0  0  0  0  0  0  0  0  0  0
  -31.6310  -16.7154   23.1833 C   0  0  0  0  0  0  0  0  0  0  0  0
  -28.8317  -17.1901   27.2884 C   0  0  0  0  0  0  0  0  0  1  0  0
  -30.8083  -16.8978   21.8955 C   0  0  0  0  0  0  0  0  0  0  0  0
  -24.2453  -22.0002   30.4313 C   0  0  1  0  0  0  0  0  0  0  0  0
  -26.3264  -25.1192   29.8744 C   0  0  2  0  0  0  0  0  0  0  0  0
  -30.3221  -18.6135   25.0963 C   0  0  0  0  0  0  0  0  0  0  0  0
  -22.7264  -21.9881   30.0989 C   0  0  0  0  0  0  0  0  0  0  0  0
  -25.8598  -11.5458   20.2832 N   0  0  0  0  0  0  0  0  0  0  0  0
  -30.2482  -17.1721   25.2095 N   0  0  0  0  0  0  0  0  0  0  0  0
  -26.2355  -12.8298   20.1551 N   0  0  0  0  0  0  0  0  0  0  0  0
  -25.3935  -20.2507   31.7522 N   0  0  0  0  0  0  0  0  0  0  0  0
  -29.9711  -13.6125   20.3579 N   0  0  0  0  0  0  0  0  0  0  0  0
  -25.4677  -15.0565   20.4063 N   0  0  0  0  0  0  0  0  0  0  0  0
  -21.8870  -12.5784   21.6039 N   0  0  0  0  0  0  0  0  0  0  0  0
  -24.5749  -17.5400   34.0497 N   0  0  0  0  0  0  0  0  0  0  0  0
  -24.8386  -23.3325   30.4665 N   0  0  0  0  0  0  0  0  0  0  0  0
  -30.1435  -15.6758   21.5011 N   0  0  0  0  0  0  0  0  0  0  0  0
  -27.7980  -25.2547   29.6824 N   0  3  0  0  0  0  0  0  0  0  0  0
  -22.6604  -14.7190   21.3241 O   0  0  0  0  0  0  0  0  0  0  0  0
  -23.8897  -18.1902   31.9212 O   0  0  0  0  0  0  0  0  0  0  0  0
  -24.0548  -21.8523   32.7910 O   0  0  0  0  0  0  0  0  0  0  0  0
  -26.4395  -22.9411   28.8352 O   0  0  0  0  0  0  0  0  0  0  0  0
  -31.8767  -14.9248   20.2015 O   0  0  0  0  0  0  0  0  0  0  0  0
  -21.6185   -7.0150   21.7084 O   0  0  0  0  0  0  0  0  0  0  0  0
  -29.3867  -16.8106   28.5471 O   0  0  0  0  0  0  0  0  0  1  0  0
  -18.6366   -6.8375   26.3432 F   0  0  0  0  0  0  0  0  0  0  0  0
  -19.6264   -8.8716   22.1853 F   0  0  0  0  0  0  0  0  0  0  0  0
  1  2  1  0  0  0  0
  1  5  2  0  0  0  0
  2  6  2  0  0  0  0
  3  8  2  0  0  0  0
  3 17  1  0  0  0  0
  4  9  1  0  0  0  0
  4 17  2  0  0  0  0
  5 19  1  0  0  0  0
  6 21  1  0  0  0  0
  7 10  2  0  0  0  0
  7 20  1  0  0  0  0
  8 23  1  0  0  0  0
  9 23  2  0  0  0  0
 10 24  1  0  0  0  0
 11 12  2  0  0  0  0
 11 25  1  0  0  0  0
 12 26  1  0  0  0  0
 13 14  1  0  0  0  0
 13 29  2  0  0  0  0
 14 30  2  0  0  0  0
 15 22  1  0  0  0  0
 15 24  2  0  0  0  0
 16 26  2  0  0  0  0
 16 27  1  0  0  0  0
 17 28  1  0  0  0  0
 18 28  1  0  0  0  0
 18 31  2  0  0  0  0
 18 32  1  0  0  0  0
 19 21  2  0  0  0  0
 19 37  1  0  0  0  0
 20 22  2  0  0  0  0
 20 38  1  0  0  0  0
 21 46  1  0  0  0  0
 22 39  1  0  0  0  0
 23 79  1  0  0  0  0
 24 80  1  0  0  0  0
 25 27  2  0  0  0  0
 25 79  1  0  0  0  0
 26 81  1  0  0  0  0
 27 82  1  0  0  0  0
 28 63  2  0  0  0  0
 29 56  1  0  0  0  0
 29 64  1  0  0  0  0
 30 57  1  0  0  0  0
 30 64  1  0  0  0  0
 31 65  1  0  0  0  0
 31 68  1  0  0  0  0
 32 69  1  0  0  0  0
 32 74  2  0  0  0  0
 33 47  1  0  0  0  0
 33 70  1  0  0  0  0
 33 75  2  0  0  0  0
 34 59  1  0  0  0  0
 34 66  1  0  0  0  0
 34 76  2  0  0  0  0
 35 60  1  0  0  0  0
 35 71  1  0  0  0  0
 35 77  2  0  0  0  0
 36 67  1  0  0  0  0
 36 72  1  0  0  0  0
 36 78  2  0  0  0  0
 37 40  1  0  0  0  0
 38 47  1  0  0  0  0
 39 66  1  0  0  0  0
 40 42  1  0  0  0  0
 41 43  1  0  0  0  0
 41 44  1  0  0  0  0
 42 46  1  0  0  0  0
 43 48  1  0  0  0  0
 44 67  1  0  0  0  0
 45 48  1  0  0  0  0
 45 67  1  0  0  0  0
 46 70  1  0  0  0  0
 47 66  1  0  0  0  0
 48 65  1  0  0  0  0
 49 60  1  0  0  0  0
 50 61  1  0  0  0  0
 51 61  1  0  0  0  0
 52 62  1  0  0  0  0
 53 62  1  0  0  0  0
 54 62  1  0  0  0  0
 55 73  1  0  0  0  0
 56 58  1  0  0  0  0
 57 80  1  0  0  0  0
 58 72  1  0  0  0  0
 59 62  1  0  0  0  0
 59 71  1  0  0  0  0
 60 73  1  0  0  0  0
 61 64  1  0  0  0  0
 63 65  1  0  0  0  0
M  CHG  1  73   1
M  ISO  4  36 100  57 101  72 100  80 101
M  END
> <Batch ID>
0130

> <Smiles>
CNC(C)C(=O)NC(C(=O)N1Cc2cc([101O:1][101CH2:1]c3ccc(CC[100NH:0][100C:0](=O)N4CCCC(n5nc(-c6ccc(Oc7ccc(F)cc7F)cc6)c(C(N)=O)c5N)C4)n3C(C)C)ccc2CC1C(=O)NC1CCCc2ccccc21)C(C)(C)C

> <Shape>
0.159

> <Color>
0.196

> <Negative vol penalty>
0.000

$$$$

  -OEChem-04052320473D

 84 93  0     1  0  0  0  0  0999 V2000
  -16.2208  -29.3512   23.8468 C   0  0  0  0  0  0  0  0  0  0  0  0
  -17.0795  -28.3075   23.5170 C   0  0  0  0  0  0  0  0  0  0  0  0
  -22.9120   -9.9007   20.0009 C   0  0  0  0  0  0  0  0  0  0  0  0
  -23.5912  -10.0062   22.3170 C   0  0  0  0  0  0  0  0  0  0  0  0
  -16.7265  -30.6382   24.0260 C   0  0  0  0  0  0  0  0  0  0  0  0
  -18.4442  -28.5503   23.3652 C   0  0  0  0  0  0  0  0  0  0  0  0
  -23.0394  -24.7673   24.8070 C   0  0  0  0  0  0  0  0  0  0  0  0
  -22.0846   -8.8164   20.2928 C   0  0  0  0  0  0  0  0  0  0  0  0
  -22.7638   -8.9218   22.6090 C   0  0  0  0  0  0  0  0  0  0  0  0
  -23.8114  -23.8948   24.0412 C   0  0  0  0  0  0  0  0  0  0  0  0
  -22.8514   -5.5590   22.2700 C   0  0  0  0  0  0  0  0  0  0  0  0
  -23.3720   -4.5445   23.0733 C   0  0  0  0  0  0  0  0  0  0  0  0
  -27.0103  -20.3693   22.3622 C   0  0  0  0  0  0  0  0  0  0  0  0
  -25.5140  -25.5913   23.8356 C   0  0  0  0  0  0  0  0  0  0  0  0
  -26.4063  -21.6450   20.3797 C   0  0  0  0  0  0  0  0  0  0  0  0
  -21.6282   -4.9367   24.6989 C   0  0  0  0  0  0  0  0  0  0  0  0
  -23.6653  -10.4956   21.0130 C   0  0  0  0  0  0  0  0  0  0  0  0
  -24.1789  -12.9805   20.7502 C   0  0  0  0  0  0  0  0  0  0  0  0
  -18.0994  -30.8950   23.8858 C   0  0  0  0  0  0  0  0  0  0  0  0
  -23.4948  -26.0643   25.0841 C   0  0  0  0  0  0  0  0  0  0  0  0
  -18.9684  -29.8421   23.5414 C   0  0  0  0  0  0  0  0  0  0  0  0
  -27.9080  -19.6578   21.5855 C   0  0  0  0  0  0  0  0  0  0  0  0
  -24.7470  -26.4775   24.6072 C   0  0  0  0  0  0  0  0  0  0  0  0
  -28.0609  -19.9329   20.2227 C   0  0  0  0  0  0  0  0  0  0  0  0
  -26.2527  -21.3688   21.7479 C   0  0  0  0  0  0  0  0  0  0  0  0
  -27.3197  -20.9257   19.6060 C   0  0  0  0  0  0  0  0  0  0  0  0
  -22.0105   -8.3269   21.5969 C   0  0  0  0  0  0  0  0  0  0  0  0
  -25.0476  -24.3076   23.5529 C   0  0  0  0  0  0  0  0  0  0  0  0
  -21.7192   -6.2625   22.6812 C   0  0  0  0  0  0  0  0  0  0  0  0
  -22.7604   -4.2333   24.2877 C   0  0  0  0  0  0  0  0  0  0  0  0
  -21.1076   -5.9513   23.8956 C   0  0  0  0  0  0  0  0  0  0  0  0
  -24.5206  -11.6154   20.7119 C   0  0  0  0  0  0  0  0  0  0  0  0
  -25.3305  -13.6332   20.3836 C   0  0  0  0  0  0  0  0  0  0  0  0
  -22.9320  -13.6030   21.0870 C   0  0  0  0  0  0  0  0  0  0  0  0
  -22.4541  -28.9952   24.4276 C   0  0  0  0  0  0  0  0  0  0  0  0
  -24.9131  -29.8778   26.3503 C   0  0  0  0  0  0  0  0  0  0  0  0
  -27.9446  -29.1069   27.7151 C   0  0  0  0  0  0  0  0  0  0  0  0
  -30.8603  -14.3067   20.7199 C   0  0  0  0  0  0  0  0  0  0  0  0
  -18.5927  -32.3116   24.0429 C   0  0  0  0  0  0  0  0  0  0  0  0
  -22.6620  -26.9843   25.9341 C   0  0  0  0  0  0  0  0  0  0  0  0
  -25.2903  -27.8527   24.8936 C   0  0  0  0  0  0  0  0  0  0  0  0
  -28.8358  -18.5691   22.0087 C   0  0  0  0  0  0  0  0  0  0  0  0
  -29.1034  -19.0505   19.6227 C   0  0  0  0  0  0  0  0  0  0  0  0
  -20.1041  -32.4129   24.2316 C   0  0  0  0  0  0  0  0  0  0  0  0
  -29.6489  -11.8519   18.4432 C   0  0  0  0  0  0  0  0  0  0  0  0
  -20.8290  -31.5382   23.2136 C   0  0  0  0  0  0  0  0  0  0  0  0
  -28.1810  -11.6799   18.8377 C   0  0  0  0  0  0  0  0  0  0  0  0
  -30.5368  -12.0900   19.6626 C   0  0  0  0  0  0  0  0  0  0  0  0
  -28.6415  -13.0297   20.9269 C   0  0  0  0  0  0  0  0  0  0  0  0
  -20.4584  -30.0610   23.3923 C   0  0  1  0  0  0  0  0  0  0  0  0
  -22.9949  -28.4580   25.7225 C   0  0  1  0  0  0  0  0  0  0  0  0
  -27.6990  -12.8429   19.7256 C   0  0  2  0  0  0  0  0  0  0  0  0
  -27.4818  -21.2303   18.1578 C   0  0  0  0  0  0  0  0  0  0  0  0
  -29.7241  -30.0427   29.2168 C   0  0  0  0  0  0  0  0  0  0  0  0
  -25.8711  -31.6841   24.0854 C   0  0  0  0  0  0  0  0  0  0  0  0
  -28.0869  -31.8400   25.2405 C   0  0  0  0  0  0  0  0  0  0  0  0
  -26.0324  -32.6966   26.3665 C   0  0  0  0  0  0  0  0  0  0  0  0
  -27.6095  -26.9127   29.6726 C   0  0  0  0  0  0  0  0  0  0  0  0
  -25.2675  -22.1585   22.5585 C   0  0  0  0  0  0  0  0  0  1  0  0
  -31.0269  -16.5236   21.8230 C   0  0  0  0  0  0  0  0  0  0  0  0
  -30.8548  -17.6186   20.7868 C   0  0  0  0  0  0  0  0  0  0  0  0
  -26.3724  -30.2017   26.1390 C   0  0  1  0  0  0  0  0  0  0  0  0
  -28.4607  -29.1996   29.1397 C   0  0  2  0  0  0  0  0  0  0  0  0
  -26.5799  -31.5803   25.4507 C   0  0  0  0  0  0  0  0  0  0  0  0
  -25.7899  -11.4116   20.3494 N   0  0  0  0  0  0  0  0  0  0  0  0
  -26.2558  -12.6573   20.1565 N   0  0  0  0  0  0  0  0  0  0  0  0
  -24.4360  -28.7178   25.7239 N   0  0  0  0  0  0  0  0  0  0  0  0
  -30.0260  -13.2067   20.4614 N   0  0  0  0  0  0  0  0  0  0  0  0
  -25.6317  -14.9408   20.2365 N   0  0  0  0  0  0  0  0  0  0  0  0
  -21.8506  -12.7845   21.4406 N   0  0  0  0  0  0  0  0  0  0  0  0
  -21.1688  -29.4944   24.5186 N   0  0  0  0  0  0  0  0  0  0  0  0
  -27.0100  -30.0843   27.4459 N   0  0  0  0  0  0  0  0  0  0  0  0
  -30.2958  -15.3244   21.4791 N   0  0  0  0  0  0  0  0  0  0  0  0
  -29.4184  -18.0162   20.7059 N   0  3  1  0  0  0  0  0  0  0  0  0
  -28.7695  -27.8408   29.6682 N   0  3  0  0  0  0  0  0  0  0  0  0
  -22.7766  -14.8474   21.0589 O   0  0  0  0  0  0  0  0  0  0  0  0
  -23.1519  -28.9607   23.4208 O   0  0  0  0  0  0  0  0  0  0  0  0
  -24.2237  -30.6228   27.0513 O   0  0  0  0  0  0  0  0  0  0  0  0
  -28.3344  -28.2552   26.9195 O   0  0  0  0  0  0  0  0  0  0  0  0
  -32.0203  -14.3791   20.3005 O   0  0  0  0  0  0  0  0  0  0  0  0
  -21.2031   -7.2690   21.8822 O   0  0  0  0  0  0  0  0  0  0  0  0
  -25.8029  -23.4582   22.8047 O   0  0  0  0  0  0  0  0  0  1  0  0
  -23.2595   -3.2579   25.0582 F   0  0  0  0  0  0  0  0  0  0  0  0
  -20.0190   -6.6229   24.2954 F   0  0  0  0  0  0  0  0  0  0  0  0
  1  2  1  0  0  0  0
  1  5  2  0  0  0  0
  2  6  2  0  0  0  0
  3  8  2  0  0  0  0
  3 17  1  0  0  0  0
  4  9  1  0  0  0  0
  4 17  2  0  0  0  0
  5 19  1  0  0  0  0
  6 21  1  0  0  0  0
  7 10  2  0  0  0  0
  7 20  1  0  0  0  0
  8 27  1  0  0  0  0
  9 27  2  0  0  0  0
 10 28  1  0  0  0  0
 11 12  2  0  0  0  0
 11 29  1  0  0  0  0
 12 30  1  0  0  0  0
 13 22  1  0  0  0  0
 13 25  2  0  0  0  0
 14 23  1  0  0  0  0
 14 28  2  0  0  0  0
 15 25  1  0  0  0  0
 15 26  2  0  0  0  0
 16 30  2  0  0  0  0
 16 31  1  0  0  0  0
 17 32  1  0  0  0  0
 18 32  1  0  0  0  0
 18 33  2  0  0  0  0
 18 34  1  0  0  0  0
 19 21  2  0  0  0  0
 19 39  1  0  0  0  0
 20 23  2  0  0  0  0
 20 40  1  0  0  0  0
 21 50  1  0  0  0  0
 22 24  2  0  0  0  0
 22 42  1  0  0  0  0
 23 41  1  0  0  0  0
 24 26  1  0  0  0  0
 24 43  1  0  0  0  0
 25 59  1  0  0  0  0
 26 53  1  0  0  0  0
 27 81  1  0  0  0  0
 28 82  1  0  0  0  0
 29 31  2  0  0  0  0
 29 81  1  0  0  0  0
 30 83  1  0  0  0  0
 31 84  1  0  0  0  0
 32 65  2  0  0  0  0
 33 66  1  0  0  0  0
 33 69  1  0  0  0  0
 34 70  1  0  0  0  0
 34 76  2  0  0  0  0
 35 51  1  0  0  0  0
 35 71  1  0  0  0  0
 35 77  2  0  0  0  0
 36 62  1  0  0  0  0
 36 67  1  0  0  0  0
 36 78  2  0  0  0  0
 37 63  1  0  0  0  0
 37 72  1  0  0  0  0
 37 79  2  0  0  0  0
 38 68  1  0  0  0  0
 38 73  1  0  0  0  0
 38 80  2  0  0  0  0
 39 44  1  0  0  0  0
 40 51  1  0  0  0  0
 41 67  1  0  0  0  0
 42 74  1  0  0  0  0
 43 74  1  0  0  0  0
 44 46  1  0  0  0  0
 45 47  1  0  0  0  0
 45 48  1  0  0  0  0
 46 50  1  0  0  0  0
 47 52  1  0  0  0  0
 48 68  1  0  0  0  0
 49 52  1  0  0  0  0
 49 68  1  0  0  0  0
 50 71  1  0  0  0  0
 51 67  1  0  0  0  0
 52 66  1  0  0  0  0
 54 63  1  0  0  0  0
 55 64  1  0  0  0  0
 56 64  1  0  0  0  0
 57 64  1  0  0  0  0
 58 75  1  0  0  0  0
 59 82  1  0  0  0  0
 60 61  1  0  0  0  0
 60 73  1  0  0  0  0
 61 74  1  0  0  0  0
 62 64  1  0  0  0  0
 62 72  1  0  0  0  0
 63 75  1  0  0  0  0
 65 66  1  0  0  0  0
M  CHG  2  74   1  75   1
M  ISO  4  38 100  59 101  73 100  82 101
M  END
> <Batch ID>
0130

> <Smiles>
CNC(C)C(=O)NC(C(=O)N1Cc2cc([101O:1][101CH2:1]c3cc(C)c4c(c3)CN(CC[100NH:0][100C:0](=O)N3CCCC(n5nc(-c6ccc(Oc7ccc(F)cc7F)cc6)c(C(N)=O)c5N)C3)C4)ccc2CC1C(=O)NC1CCCc2ccccc21)C(C)(C)C

> <Shape>
0.324

> <Color>
0.246

> <Negative vol penalty>
0.000

$$$$

  -OEChem-04052320473D

 90 99  0     1  0  0  0  0  0999 V2000
  -27.0207  -27.1093   13.3524 C   0  0  0  0  0  0  0  0  0  0  0  0
  -26.6096  -25.8952   13.8931 C   0  0  0  0  0  0  0  0  0  0  0  0
  -30.6370  -20.0082   18.6481 C   0  0  0  0  0  0  0  0  0  0  0  0
  -28.7829  -19.8156   20.1852 C   0  0  0  0  0  0  0  0  0  0  0  0
  -27.3550  -28.1687   14.1948 C   0  0  0  0  0  0  0  0  0  0  0  0
  -26.5337  -25.7395   15.2768 C   0  0  0  0  0  0  0  0  0  0  0  0
  -22.7446  -22.3328   20.3119 C   0  0  0  0  0  0  0  0  0  0  0  0
  -30.2863  -21.3336   18.3912 C   0  0  0  0  0  0  0  0  0  0  0  0
  -28.4323  -21.1410   19.9283 C   0  0  0  0  0  0  0  0  0  0  0  0
  -22.9238  -21.5011   21.4164 C   0  0  0  0  0  0  0  0  0  0  0  0
  -30.6388  -24.3403   19.8974 C   0  0  0  0  0  0  0  0  0  0  0  0
  -31.6609  -25.2892   19.8788 C   0  0  0  0  0  0  0  0  0  0  0  0
  -23.4499  -23.4255   22.7726 C   0  0  0  0  0  0  0  0  0  0  0  0
  -23.1524  -11.9429   22.9278 C   0  0  0  0  0  0  0  0  0  0  0  0
  -21.4139  -13.6205   22.9140 C   0  0  0  0  0  0  0  0  0  0  0  0
  -23.7319  -14.2842   23.0667 C   0  0  0  0  0  0  0  0  0  0  0  0
  -31.1185  -25.8286   17.5871 C   0  0  0  0  0  0  0  0  0  0  0  0
  -29.8852  -19.2492   19.5451 C   0  0  0  0  0  0  0  0  0  0  0  0
  -31.4637  -17.4088   20.3381 C   0  0  0  0  0  0  0  0  0  0  0  0
  -27.2739  -28.0291   15.5893 C   0  0  0  0  0  0  0  0  0  0  0  0
  -22.9276  -23.7183   20.4271 C   0  0  0  0  0  0  0  0  0  0  0  0
  -26.8686  -26.7977   16.1387 C   0  0  0  0  0  0  0  0  0  0  0  0
  -23.2699  -24.2728   21.6687 C   0  0  0  0  0  0  0  0  0  0  0  0
  -21.8002  -12.2808   22.8723 C   0  0  0  0  0  0  0  0  0  0  0  0
  -24.1182  -12.9446   23.0251 C   0  0  0  0  0  0  0  0  0  0  0  0
  -22.3798  -14.6222   23.0112 C   0  0  0  0  0  0  0  0  0  0  0  0
  -29.1840  -21.9000   19.0313 C   0  0  0  0  0  0  0  0  0  0  0  0
  -23.2794  -22.0470   22.6463 C   0  0  0  0  0  0  0  0  0  0  0  0
  -29.8566  -24.1353   18.7608 C   0  0  0  0  0  0  0  0  0  0  0  0
  -31.9007  -26.0334   18.7237 C   0  0  0  0  0  0  0  0  0  0  0  0
  -30.0964  -24.8795   17.6056 C   0  0  0  0  0  0  0  0  0  0  0  0
  -30.2466  -17.8798   19.8105 C   0  0  0  0  0  0  0  0  0  0  0  0
  -31.3079  -16.0454   20.3966 C   0  0  0  0  0  0  0  0  0  0  0  0
  -32.6309  -18.1384   20.7396 C   0  0  0  0  0  0  0  0  0  0  0  0
  -24.9006  -25.8370   19.1147 C   0  0  0  0  0  0  0  0  0  0  0  0
  -23.0466  -27.9685   20.7091 C   0  0  0  0  0  0  0  0  0  0  0  0
  -20.9119  -28.5829   23.2999 C   0  0  0  0  0  0  0  0  0  0  0  0
  -26.4951  -12.5046   20.7848 C   0  0  0  0  0  0  0  0  0  0  0  0
  -27.6909  -29.1875   16.4604 C   0  0  0  0  0  0  0  0  0  0  0  0
  -22.7044  -24.6046   19.2325 C   0  0  0  0  0  0  0  0  0  0  0  0
  -23.4585  -25.7561   21.8498 C   0  0  0  0  0  0  0  0  0  0  0  0
  -27.2243  -29.0597   17.9082 C   0  0  0  0  0  0  0  0  0  0  0  0
  -28.9979  -12.4453   18.2532 C   0  0  0  0  0  0  0  0  0  0  0  0
  -27.5097  -27.6586   18.4394 C   0  0  0  0  0  0  0  0  0  0  0  0
  -20.8518  -19.8501   26.1035 C   0  0  0  0  0  0  0  0  0  0  0  0
  -29.7115  -13.7889   18.4129 C   0  0  0  0  0  0  0  0  0  0  0  0
  -21.2441  -18.3817   25.9472 C   0  0  0  0  0  0  0  0  0  0  0  0
  -22.7221  -18.9833   23.9919 C   0  0  0  0  0  0  0  0  0  0  0  0
  -27.4994  -12.5668   18.5212 C   0  0  0  0  0  0  0  0  0  0  0  0
  -27.8633  -14.5223   19.9765 C   0  0  0  0  0  0  0  0  0  0  0  0
  -26.7497  -26.5978   17.6340 C   0  0  1  0  0  0  0  0  0  0  0  0
  -23.4196  -25.9476   19.3429 C   0  0  1  0  0  0  0  0  0  0  0  0
  -21.9508  -20.7958   25.5939 C   0  0  1  0  0  0  0  0  0  0  0  0
  -29.3855  -14.4391   19.7709 C   0  0  2  0  0  0  0  0  0  0  0  0
  -21.6130  -18.0703   24.5005 C   0  0  1  0  0  0  0  0  0  0  0  0
  -22.3373  -20.4576   24.1412 C   0  0  1  0  0  0  0  0  0  1  0  0
  -20.7680  -11.2093   22.7680 C   0  0  0  0  0  0  0  0  0  0  0  0
  -19.5911  -30.4298   24.3684 C   0  0  0  0  0  0  0  0  0  0  0  0
  -20.2458  -22.5043   24.9021 C   0  0  0  0  0  0  0  0  0  0  0  0
  -21.2428  -22.5865   27.2049 C   0  0  0  0  0  0  0  0  0  0  0  0
  -25.6055  -29.0806   21.9442 C   0  0  0  0  0  0  0  0  0  0  0  0
  -24.1937  -30.2295   23.6632 C   0  0  0  0  0  0  0  0  0  0  0  0
  -23.9422  -30.8149   21.2514 C   0  0  0  0  0  0  0  0  0  0  0  0
  -18.3472  -27.1898   22.8092 C   0  0  0  0  0  0  0  0  0  0  0  0
  -25.5642  -12.5838   23.0840 C   0  0  0  0  0  0  0  0  0  0  0  0
  -21.9638  -16.0630   23.0560 C   0  0  0  0  0  0  0  0  0  0  0  0
  -23.0743  -28.5910   22.0841 C   0  0  1  0  0  0  0  0  0  0  0  0
  -19.5731  -29.2966   23.3544 C   0  0  2  0  0  0  0  0  0  0  0  0
  -21.4964  -22.2509   25.7385 C   0  0  0  0  0  0  0  0  0  0  0  0
  -24.2023  -29.6508   22.2322 C   0  0  0  0  0  0  0  0  0  0  0  0
  -29.3813  -16.8956   19.5520 N   0  0  0  0  0  0  0  0  0  0  0  0
  -30.0557  -15.7925   19.9187 N   0  0  0  0  0  0  0  0  0  0  0  0
  -23.2351  -26.5804   20.6505 N   0  0  0  0  0  0  0  0  0  0  0  0
  -27.2585  -13.1895   19.8251 N   0  0  0  0  0  0  0  0  0  0  0  0
  -32.1211  -15.0502   20.8096 N   0  0  0  0  0  0  0  0  0  0  0  0
  -32.7194  -18.5793   22.0670 N   0  0  0  0  0  0  0  0  0  0  0  0
  -25.3586  -26.5622   18.0313 N   0  0  0  0  0  0  0  0  0  0  0  0
  -21.7320  -29.1095   22.3246 N   0  0  0  0  0  0  0  0  0  0  0  0
  -26.3201  -13.1629   21.9959 N   0  0  0  0  0  0  0  0  0  0  0  0
  -22.0729  -16.6590   24.4140 N   0  3  0  0  0  0  0  0  0  0  0  0
  -18.4929  -28.3429   23.7344 N   0  3  0  0  0  0  0  0  0  0  0  0
  -33.5600  -18.4060   19.9405 O   0  0  0  0  0  0  0  0  0  0  0  0
  -25.5778  -25.1461   19.8668 O   0  0  0  0  0  0  0  0  0  0  0  0
  -22.8574  -28.6863   19.7239 O   0  0  0  0  0  0  0  0  0  0  0  0
  -21.2025  -27.6538   24.0501 O   0  0  0  0  0  0  0  0  0  0  0  0
  -26.0101  -11.3867   20.5796 O   0  0  0  0  0  0  0  0  0  0  0  0
  -28.8418  -23.1934   18.7810 O   0  0  0  0  0  0  0  0  0  0  0  0
  -23.4556  -21.2374   23.7258 O   0  0  0  0  0  0  0  0  0  1  0  0
  -32.8813  -26.9458   18.7065 F   0  0  0  0  0  0  0  0  0  0  0  0
  -29.3475  -24.6880   16.5110 F   0  0  0  0  0  0  0  0  0  0  0  0
  1  2  1  0  0  0  0
  1  5  2  0  0  0  0
  2  6  2  0  0  0  0
  3  8  2  0  0  0  0
  3 18  1  0  0  0  0
  4  9  1  0  0  0  0
  4 18  2  0  0  0  0
  5 20  1  0  0  0  0
  6 22  1  0  0  0  0
  7 10  2  0  0  0  0
  7 21  1  0  0  0  0
  8 27  1  0  0  0  0
  9 27  2  0  0  0  0
 10 28  1  0  0  0  0
 11 12  2  0  0  0  0
 11 29  1  0  0  0  0
 12 30  1  0  0  0  0
 13 23  1  0  0  0  0
 13 28  2  0  0  0  0
 14 24  1  0  0  0  0
 14 25  2  0  0  0  0
 15 24  2  0  0  0  0
 15 26  1  0  0  0  0
 16 25  1  0  0  0  0
 16 26  2  0  0  0  0
 17 30  2  0  0  0  0
 17 31  1  0  0  0  0
 18 32  1  0  0  0  0
 19 32  1  0  0  0  0
 19 33  2  0  0  0  0
 19 34  1  0  0  0  0
 20 22  2  0  0  0  0
 20 39  1  0  0  0  0
 21 23  2  0  0  0  0
 21 40  1  0  0  0  0
 22 51  1  0  0  0  0
 23 41  1  0  0  0  0
 24 57  1  0  0  0  0
 25 65  1  0  0  0  0
 26 66  1  0  0  0  0
 27 87  1  0  0  0  0
 28 88  1  0  0  0  0
 29 31  2  0  0  0  0
 29 87  1  0  0  0  0
 30 89  1  0  0  0  0
 31 90  1  0  0  0  0
 32 71  2  0  0  0  0
 33 72  1  0  0  0  0
 33 75  1  0  0  0  0
 34 76  1  0  0  0  0
 34 82  2  0  0  0  0
 35 52  1  0  0  0  0
 35 77  1  0  0  0  0
 35 83  2  0  0  0  0
 36 67  1  0  0  0  0
 36 73  1  0  0  0  0
 36 84  2  0  0  0  0
 37 68  1  0  0  0  0
 37 78  1  0  0  0  0
 37 85  2  0  0  0  0
 38 74  1  0  0  0  0
 38 79  1  0  0  0  0
 38 86  2  0  0  0  0
 39 42  1  0  0  0  0
 40 52  1  0  0  0  0
 41 73  1  0  0  0  0
 42 44  1  0  0  0  0
 43 46  1  0  0  0  0
 43 49  1  0  0  0  0
 44 51  1  0  0  0  0
 45 47  1  0  0  0  0
 45 53  1  0  0  0  0
 46 54  1  0  0  0  0
 47 55  1  0  0  0  0
 48 55  1  0  0  0  0
 48 56  1  0  0  0  0
 49 74  1  0  0  0  0
 50 54  1  0  0  0  0
 50 74  1  0  0  0  0
 51 77  1  0  0  0  0
 52 73  1  0  0  0  0
 53 56  1  0  0  0  0
 53 69  1  0  0  0  0
 54 72  1  0  0  0  0
 55 80  1  0  0  0  0
 56 88  1  0  0  0  0
 58 68  1  0  0  0  0
 59 69  1  0  0  0  0
 60 69  1  0  0  0  0
 61 70  1  0  0  0  0
 62 70  1  0  0  0  0
 63 70  1  0  0  0  0
 64 81  1  0  0  0  0
 65 79  1  0  0  0  0
 66 80  1  0  0  0  0
 67 70  1  0  0  0  0
 67 78  1  0  0  0  0
 68 81  1  0  0  0  0
 71 72  1  0  0  0  0
M  CHG  2  80   1  81   1
M  ISO  4  38 100  56 101  79 100  88 101
M  END
> <Batch ID>
0130

> <Smiles>
CNC(C)C(=O)NC(C(=O)N1Cc2cc([101O:1][101CH:1]3CC(NCc4cc(C)cc(C[100NH:0][100C:0](=O)N5CCCC(n6nc(-c7ccc(Oc8ccc(F)cc8F)cc7)c(C(N)=O)c6N)C5)c4)CCC3C(C)C)ccc2CC1C(=O)NC1CCCc2ccccc21)C(C)(C)C

> <Shape>
0.225

> <Color>
0.067

> <Negative vol penalty>
0.000

$$$$

  -OEChem-04052320473D

 87 96  0     1  0  0  0  0  0999 V2000
  -23.6751  -12.5622   17.5600 C   0  0  0  0  0  0  0  0  0  0  0  0
  -22.5834  -13.3641   17.2428 C   0  0  0  0  0  0  0  0  0  0  0  0
  -28.6266  -17.9323   19.8242 C   0  0  0  0  0  0  0  0  0  0  0  0
  -30.4875  -18.2242   21.3371 C   0  0  0  0  0  0  0  0  0  0  0  0
  -23.9941  -12.3170   18.8949 C   0  0  0  0  0  0  0  0  0  0  0  0
  -21.8094  -13.9205   18.2606 C   0  0  0  0  0  0  0  0  0  0  0  0
  -20.0066  -21.3921   19.6578 C   0  0  0  0  0  0  0  0  0  0  0  0
  -24.9708  -29.0690   20.0173 C   0  0  0  0  0  0  0  0  0  0  0  0
  -23.5999  -29.2825   20.1611 C   0  0  0  0  0  0  0  0  0  0  0  0
  -28.5209  -16.5966   20.2119 C   0  0  0  0  0  0  0  0  0  0  0  0
  -30.3818  -16.8885   21.7248 C   0  0  0  0  0  0  0  0  0  0  0  0
  -19.7501  -22.6906   20.0985 C   0  0  0  0  0  0  0  0  0  0  0  0
  -30.0953  -13.6796   19.5512 C   0  0  0  0  0  0  0  0  0  0  0  0
  -29.9276  -12.7256   18.5476 C   0  0  0  0  0  0  0  0  0  0  0  0
  -19.5574  -21.8920   22.3730 C   0  0  0  0  0  0  0  0  0  0  0  0
  -25.3005  -29.6155   22.3474 C   0  0  0  0  0  0  0  0  0  0  0  0
  -27.8247  -12.0589   19.5328 C   0  0  0  0  0  0  0  0  0  0  0  0
  -29.6099  -18.7461   20.3867 C   0  0  0  0  0  0  0  0  0  0  0  0
  -29.9683  -20.6177   18.6908 C   0  0  0  0  0  0  0  0  0  0  0  0
  -23.2294  -12.8785   19.9296 C   0  0  0  0  0  0  0  0  0  0  0  0
  -20.0548  -20.3396   20.5762 C   0  0  0  0  0  0  0  0  0  0  0  0
  -22.1176  -13.6815   19.6106 C   0  0  0  0  0  0  0  0  0  0  0  0
  -19.8262  -20.5912   21.9390 C   0  0  0  0  0  0  0  0  0  0  0  0
  -25.8211  -29.2354   21.1104 C   0  0  0  0  0  0  0  0  0  0  0  0
  -23.0793  -29.6626   21.3981 C   0  0  0  0  0  0  0  0  0  0  0  0
  -23.9296  -29.8291   22.4913 C   0  0  0  0  0  0  0  0  0  0  0  0
  -29.3984  -16.0747   21.1622 C   0  0  0  0  0  0  0  0  0  0  0  0
  -19.5258  -22.9398   21.4527 C   0  0  0  0  0  0  0  0  0  0  0  0
  -29.1278  -13.8233   20.5457 C   0  0  0  0  0  0  0  0  0  0  0  0
  -28.7923  -11.9152   18.5384 C   0  0  0  0  0  0  0  0  0  0  0  0
  -27.9925  -13.0130   20.5365 C   0  0  0  0  0  0  0  0  0  0  0  0
  -29.7200  -20.1258   19.9862 C   0  0  0  0  0  0  0  0  0  0  0  0
  -29.9785  -21.9833   18.8381 C   0  0  0  0  0  0  0  0  0  0  0  0
  -30.1716  -19.9041   17.4639 C   0  0  0  0  0  0  0  0  0  0  0  0
  -20.5820  -16.6695   21.1490 C   0  0  0  0  0  0  0  0  0  0  0  0
  -21.9729  -18.1399   23.4541 C   0  0  0  0  0  0  0  0  0  0  0  0
  -23.9353  -20.0353   25.0224 C   0  0  0  0  0  0  0  0  0  0  0  0
  -27.7373  -26.5722   20.8044 C   0  0  0  0  0  0  0  0  0  0  0  0
  -23.5846  -12.5466   21.3573 C   0  0  0  0  0  0  0  0  0  0  0  0
  -20.2668  -18.9158   20.1384 C   0  0  0  0  0  0  0  0  0  0  0  0
  -19.8534  -19.4229   22.8864 C   0  0  0  0  0  0  0  0  0  0  0  0
  -22.9379  -13.4789   22.3784 C   0  0  0  0  0  0  0  0  0  0  0  0
  -30.0315  -24.8467   23.0082 C   0  0  0  0  0  0  0  0  0  0  0  0
  -21.4583  -13.6728   22.0623 C   0  0  0  0  0  0  0  0  0  0  0  0
  -30.1737  -23.4968   22.3027 C   0  0  0  0  0  0  0  0  0  0  0  0
  -28.6045  -25.3769   22.9048 C   0  0  0  0  0  0  0  0  0  0  0  0
  -19.6370  -29.2168   22.7532 C   0  0  0  0  0  0  0  0  0  0  0  0
  -28.2302  -24.1433   20.8044 C   0  0  0  0  0  0  0  0  0  0  0  0
  -20.7854  -27.6275   21.3294 C   0  0  0  0  0  0  0  0  0  0  0  0
  -18.9502  -28.0899   23.5143 C   0  0  0  0  0  0  0  0  0  0  0  0
  -21.2687  -14.3231   20.6866 C   0  0  1  0  0  0  0  0  0  0  0  0
  -21.0751  -18.0867   21.1525 C   0  0  1  0  0  0  0  0  0  0  0  0
  -29.6560  -23.5645   20.8537 C   0  0  2  0  0  0  0  0  0  0  0  0
  -20.1332  -26.4482   22.0582 C   0  0  2  0  0  0  0  0  0  0  0  0
  -23.3949  -30.2359   23.8252 C   0  0  0  0  0  0  0  0  0  0  0  0
  -25.3595  -20.6798   26.9854 C   0  0  0  0  0  0  0  0  0  0  0  0
  -19.5902  -17.5240   25.2562 C   0  0  0  0  0  0  0  0  0  0  0  0
  -20.9311  -18.3640   27.1965 C   0  0  0  0  0  0  0  0  0  0  0  0
  -21.7152  -16.3774   25.9076 C   0  0  0  0  0  0  0  0  0  0  0  0
  -26.3764  -20.1707   23.3546 C   0  0  0  0  0  0  0  0  0  0  0  0
  -21.6006  -29.8878   21.5283 C   0  0  0  0  0  0  0  0  0  0  0  0
  -27.2868  -29.0075   20.9562 C   0  0  0  0  0  0  0  0  0  0  0  0
  -19.8768  -25.2701   21.1296 C   0  0  0  0  0  0  0  0  0  1  0  0
  -21.8679  -18.6736   24.8604 C   0  0  1  0  0  0  0  0  0  0  0  0
  -25.3315  -20.0151   25.6179 C   0  0  2  0  0  0  0  0  0  0  0  0
  -21.0214  -17.7514   25.7826 C   0  0  0  0  0  0  0  0  0  0  0  0
  -29.5825  -21.0996   20.8900 N   0  0  0  0  0  0  0  0  0  0  0  0
  -29.7451  -22.2171   20.1614 N   0  0  0  0  0  0  0  0  0  0  0  0
  -20.9756  -18.5317   22.5528 N   0  0  0  0  0  0  0  0  0  0  0  0
  -28.1793  -25.4340   21.4991 N   0  0  0  0  0  0  0  0  0  0  0  0
  -20.9382  -28.7849   22.2239 N   0  0  1  0  0  0  0  0  0  0  0  0
  -30.1643  -22.9947   17.9636 N   0  0  0  0  0  0  0  0  0  0  0  0
  -31.4781  -19.5388   17.1121 N   0  0  0  0  0  0  0  0  0  0  0  0
  -21.5315  -15.7444   20.7589 N   0  0  0  0  0  0  0  0  0  0  0  0
  -23.2363  -18.8846   25.3201 N   0  0  0  0  0  0  0  0  0  0  0  0
  -27.7122  -27.7531   21.5362 N   0  0  0  0  0  0  0  0  0  0  0  0
  -18.8188  -26.9044   22.6174 N   0  3  0  0  0  0  0  0  0  0  0  0
  -26.2853  -20.7336   24.7264 N   0  3  0  0  0  0  0  0  0  0  0  0
  -29.2245  -19.6139   16.6942 O   0  0  0  0  0  0  0  0  0  0  0  0
  -19.4257  -16.4313   21.4774 O   0  0  0  0  0  0  0  0  0  0  0  0
  -22.9095  -17.3913   23.1614 O   0  0  0  0  0  0  0  0  0  0  0  0
  -23.5062  -20.9792   24.3625 O   0  0  0  0  0  0  0  0  0  0  0  0
  -27.3952  -26.5396   19.6174 O   0  0  0  0  0  0  0  0  0  0  0  0
  -29.2954  -14.7714   21.5410 O   0  0  0  0  0  0  0  0  0  0  0  0
  -19.2804  -24.2106   21.8767 O   0  0  0  0  0  0  0  0  0  1  0  0
  -28.6306  -11.0002   17.5737 F   0  0  0  0  0  0  0  0  0  0  0  0
  -27.0590  -13.1472   21.4885 F   0  0  0  0  0  0  0  0  0  0  0  0
  1  2  1  0  0  0  0
  1  5  2  0  0  0  0
  2  6  2  0  0  0  0
  3 10  2  0  0  0  0
  3 18  1  0  0  0  0
  4 11  1  0  0  0  0
  4 18  2  0  0  0  0
  5 20  1  0  0  0  0
  6 22  1  0  0  0  0
  7 12  2  0  0  0  0
  7 21  1  0  0  0  0
  8  9  2  0  0  0  0
  8 24  1  0  0  0  0
  9 25  1  0  0  0  0
 10 27  1  0  0  0  0
 11 27  2  0  0  0  0
 12 28  1  0  0  0  0
 13 14  2  0  0  0  0
 13 29  1  0  0  0  0
 14 30  1  0  0  0  0
 15 23  1  0  0  0  0
 15 28  2  0  0  0  0
 16 24  2  0  0  0  0
 16 26  1  0  0  0  0
 17 30  2  0  0  0  0
 17 31  1  0  0  0  0
 18 32  1  0  0  0  0
 19 32  1  0  0  0  0
 19 33  2  0  0  0  0
 19 34  1  0  0  0  0
 20 22  2  0  0  0  0
 20 39  1  0  0  0  0
 21 23  2  0  0  0  0
 21 40  1  0  0  0  0
 22 51  1  0  0  0  0
 23 41  1  0  0  0  0
 24 62  1  0  0  0  0
 25 26  2  0  0  0  0
 25 61  1  0  0  0  0
 26 55  1  0  0  0  0
 27 84  1  0  0  0  0
 28 85  1  0  0  0  0
 29 31  2  0  0  0  0
 29 84  1  0  0  0  0
 30 86  1  0  0  0  0
 31 87  1  0  0  0  0
 32 67  2  0  0  0  0
 33 68  1  0  0  0  0
 33 72  1  0  0  0  0
 34 73  1  0  0  0  0
 34 79  2  0  0  0  0
 35 52  1  0  0  0  0
 35 74  1  0  0  0  0
 35 80  2  0  0  0  0
 36 64  1  0  0  0  0
 36 69  1  0  0  0  0
 36 81  2  0  0  0  0
 37 65  1  0  0  0  0
 37 75  1  0  0  0  0
 37 82  2  0  0  0  0
 38 70  1  0  0  0  0
 38 76  1  0  0  0  0
 38 83  2  0  0  0  0
 39 42  1  0  0  0  0
 40 52  1  0  0  0  0
 41 69  1  0  0  0  0
 42 44  1  0  0  0  0
 43 45  1  0  0  0  0
 43 46  1  0  0  0  0
 44 51  1  0  0  0  0
 45 53  1  0  0  0  0
 46 70  1  0  0  0  0
 47 50  1  0  0  0  0
 47 71  1  0  0  0  0
 48 53  1  0  0  0  0
 48 70  1  0  0  0  0
 49 54  1  0  0  0  0
 49 71  1  0  0  0  0
 50 77  1  0  0  0  0
 51 74  1  0  0  0  0
 52 69  1  0  0  0  0
 53 68  1  0  0  0  0
 54 63  1  0  0  0  0
 54 77  1  0  0  0  0
 56 65  1  0  0  0  0
 57 66  1  0  0  0  0
 58 66  1  0  0  0  0
 59 66  1  0  0  0  0
 60 78  1  0  0  0  0
 61 71  1  0  0  0  0
 62 76  1  0  0  0  0
 63 85  1  0  0  0  0
 64 66  1  0  0  0  0
 64 75  1  0  0  0  0
 65 78  1  0  0  0  0
 67 68  1  0  0  0  0
M  CHG  2  77   1  78   1
M  ISO  4  38 100  63 101  76 100  85 101
M  END
> <Batch ID>
0130

> <Smiles>
CNC(C)C(=O)NC(C(=O)N1Cc2cc([101O:1][101CH2:1]C3CN(Cc4ccc(C[100NH:0][100C:0](=O)N5CCCC(n6nc(-c7ccc(Oc8ccc(F)cc8F)cc7)c(C(N)=O)c6N)C5)cc4C)CCN3)ccc2CC1C(=O)NC1CCCc2ccccc21)C(C)(C)C

> <Shape>
0.249

> <Color>
0.053

> <Negative vol penalty>
0.000

$$$$

  -OEChem-04052320473D

 85 93  0     1  0  0  0  0  0999 V2000
  -23.3036   -7.7107   24.3490 C   0  0  0  0  0  0  0  0  0  0  0  0
  -24.3620   -8.5648   24.6418 C   0  0  0  0  0  0  0  0  0  0  0  0
  -25.1238  -30.9524   21.0633 C   0  0  0  0  0  0  0  0  0  0  0  0
  -24.8089  -29.3605   22.8531 C   0  0  0  0  0  0  0  0  0  0  0  0
  -22.7391   -7.7136   23.0742 C   0  0  0  0  0  0  0  0  0  0  0  0
  -24.8574   -9.4215   23.6593 C   0  0  0  0  0  0  0  0  0  0  0  0
  -27.7924  -15.9086   22.8720 C   0  0  0  0  0  0  0  0  0  0  0  0
  -24.6266  -31.9684   21.8794 C   0  0  0  0  0  0  0  0  0  0  0  0
  -24.3118  -30.3765   23.6693 C   0  0  0  0  0  0  0  0  0  0  0  0
  -28.9020  -16.5261   22.2965 C   0  0  0  0  0  0  0  0  0  0  0  0
  -25.7547  -33.9088   24.4083 C   0  0  0  0  0  0  0  0  0  0  0  0
  -26.4467  -35.1197   24.4303 C   0  0  0  0  0  0  0  0  0  0  0  0
  -27.7964  -16.5008   20.1526 C   0  0  0  0  0  0  0  0  0  0  0  0
  -24.4721  -36.2624   23.6351 C   0  0  0  0  0  0  0  0  0  0  0  0
  -25.2149  -29.6484   21.5501 C   0  0  0  0  0  0  0  0  0  0  0  0
  -27.0688  -28.1894   20.5797 C   0  0  0  0  0  0  0  0  0  0  0  0
  -23.2215   -8.5776   22.0785 C   0  0  0  0  0  0  0  0  0  0  0  0
  -26.6790  -15.5721   22.0887 C   0  0  0  0  0  0  0  0  0  0  0  0
  -24.2997   -9.4349   22.3696 C   0  0  0  0  0  0  0  0  0  0  0  0
  -26.6729  -15.8814   20.7211 C   0  0  0  0  0  0  0  0  0  0  0  0
  -24.2206  -31.6805   23.1825 C   0  0  0  0  0  0  0  0  0  0  0  0
  -28.9053  -16.8196   20.9360 C   0  0  0  0  0  0  0  0  0  0  0  0
  -24.4215  -33.8746   23.9997 C   0  0  0  0  0  0  0  0  0  0  0  0
  -25.8054  -36.2965   24.0437 C   0  0  0  0  0  0  0  0  0  0  0  0
  -23.7801  -35.0514   23.6132 C   0  0  0  0  0  0  0  0  0  0  0  0
  -25.7279  -28.5984   20.7073 C   0  0  0  0  0  0  0  0  0  0  0  0
  -27.0302  -27.1663   19.6641 C   0  0  0  0  0  0  0  0  0  0  0  0
  -28.2444  -28.6895   21.2307 C   0  0  0  0  0  0  0  0  0  0  0  0
  -25.2152  -12.8573   21.3198 C   0  0  0  0  0  0  0  0  0  0  0  0
  -23.0720  -14.8599   19.9345 C   0  0  0  0  0  0  0  0  0  0  0  0
  -22.4317  -17.9182   18.5622 C   0  0  0  0  0  0  0  0  0  0  0  0
  -24.7037  -22.4989   17.6771 C   0  0  0  0  0  0  0  0  0  0  0  0
  -22.6102   -8.5112   20.7013 C   0  0  0  0  0  0  0  0  0  0  0  0
  -25.4791  -14.9305   22.7299 C   0  0  0  0  0  0  0  0  0  0  0  0
  -25.4944  -15.5591   19.8404 C   0  0  0  0  0  0  0  0  0  0  0  0
  -22.9476   -9.7158   19.8264 C   0  0  0  0  0  0  0  0  0  0  0  0
  -23.2946  -25.5982   16.6354 C   0  0  0  0  0  0  0  0  0  0  0  0
  -24.4376  -10.0327   19.9060 C   0  0  0  0  0  0  0  0  0  0  0  0
  -23.9076  -26.6197   17.5950 C   0  0  0  0  0  0  0  0  0  0  0  0
  -29.4730  -22.2294   16.1070 C   0  0  0  0  0  0  0  0  0  0  0  0
  -23.0069  -24.2705   17.3328 C   0  0  0  0  0  0  0  0  0  0  0  0
  -30.8455  -22.8527   16.3719 C   0  0  0  0  0  0  0  0  0  0  0  0
  -24.7722  -24.7005   18.9979 C   0  0  0  0  0  0  0  0  0  0  0  0
  -31.8895  -21.0909   17.7494 C   0  0  0  0  0  0  0  0  0  0  0  0
  -24.8485  -10.3964   21.3378 C   0  0  1  0  0  0  0  0  0  0  0  0
  -24.6080  -14.1668   21.7373 C   0  0  1  0  0  0  0  0  0  0  0  0
  -25.1317  -26.0372   18.3268 C   0  0  2  0  0  0  0  0  0  0  0  0
  -28.6707  -21.8489   17.3510 C   0  0  1  0  0  0  0  0  0  0  0  0
  -30.6036  -20.3023   18.0397 C   0  0  1  0  0  0  0  0  0  0  0  0
  -20.5976  -19.2480   17.4827 C   0  0  0  0  0  0  0  0  0  0  0  0
  -33.2419  -23.7976   17.0203 C   0  0  0  0  0  0  0  0  0  0  0  0
  -33.4756  -22.6220   14.8046 C   0  0  0  0  0  0  0  0  0  0  0  0
  -23.4338  -13.2637   17.3594 C   0  0  0  0  0  0  0  0  0  0  0  0
  -22.3598  -15.1546   16.1187 C   0  0  0  0  0  0  0  0  0  0  0  0
  -21.0718  -13.9161   17.8593 C   0  0  0  0  0  0  0  0  0  0  0  0
  -22.5233  -19.9827   20.6808 C   0  0  0  0  0  0  0  0  0  0  0  0
  -27.5313  -20.8893   17.0216 C   0  0  0  0  0  0  0  0  0  0  0  0
  -30.8143  -19.3461   19.2135 C   0  0  0  0  0  0  0  0  0  0  0  0
  -26.4818  -20.8259   18.1231 C   0  0  0  0  0  0  0  0  0  0  0  0
  -29.7504  -18.2649   19.2469 C   0  0  0  0  0  0  0  0  0  1  0  0
  -22.9217  -15.4863   18.5692 C   0  0  1  0  0  0  0  0  0  0  0  0
  -21.3014  -18.9064   18.7868 C   0  0  2  0  0  0  0  0  0  0  0  0
  -33.2159  -22.4599   16.2952 C   0  0  0  0  0  0  0  0  0  0  0  0
  -22.4699  -14.4596   17.4926 C   0  0  0  0  0  0  0  0  0  0  0  0
  -24.8978  -27.8928   19.9345 N   0  0  0  0  0  0  0  0  0  0  0  0
  -25.7195  -27.0302   19.3124 N   0  0  0  0  0  0  0  0  0  0  0  0
  -24.3476  -14.9264   20.5128 N   0  0  0  0  0  0  0  0  0  0  0  0
  -24.2085  -23.7716   18.0059 N   0  0  0  0  0  0  0  0  0  0  0  0
  -31.9008  -21.8369   16.4833 N   0  0  2  0  0  0  0  0  0  0  0  0
  -27.9898  -26.3789   19.1336 N   0  0  0  0  0  0  0  0  0  0  0  0
  -28.1052  -29.7441   22.1432 N   0  0  0  0  0  0  0  0  0  0  0  0
  -24.4520  -11.7532   21.6483 N   0  0  0  0  0  0  0  0  0  0  0  0
  -22.0136  -16.6159   18.7361 N   0  0  0  0  0  0  0  0  0  0  0  0
  -25.8499  -22.1054   18.3569 N   0  0  0  0  0  0  0  0  0  0  0  0
  -29.5154  -21.2604   18.4355 N   0  3  0  0  0  0  0  0  0  0  0  0
  -21.8266  -20.1677   19.3818 N   0  3  0  0  0  0  0  0  0  0  0  0
  -29.3864  -28.2261   20.9974 O   0  0  0  0  0  0  0  0  0  0  0  0
  -26.2953  -12.8494   20.7412 O   0  0  0  0  0  0  0  0  0  0  0  0
  -22.0920  -14.3373   20.4713 O   0  0  0  0  0  0  0  0  0  0  0  0
  -23.5706  -18.2667   18.2589 O   0  0  0  0  0  0  0  0  0  0  0  0
  -24.1674  -21.7697   16.8359 O   0  0  0  0  0  0  0  0  0  0  0  0
  -23.7357  -32.6717   23.9792 O   0  0  0  0  0  0  0  0  0  0  0  0
  -29.9953  -17.4262   20.3674 O   0  0  0  0  0  0  0  0  0  1  0  0
  -26.4695  -37.4595   24.0663 F   0  0  0  0  0  0  0  0  0  0  0  0
  -22.4991  -35.0251   23.2208 F   0  0  0  0  0  0  0  0  0  0  0  0
  1  2  1  0  0  0  0
  1  5  2  0  0  0  0
  2  6  2  0  0  0  0
  3  8  2  0  0  0  0
  3 15  1  0  0  0  0
  4  9  1  0  0  0  0
  4 15  2  0  0  0  0
  5 17  1  0  0  0  0
  6 19  1  0  0  0  0
  7 10  2  0  0  0  0
  7 18  1  0  0  0  0
  8 21  1  0  0  0  0
  9 21  2  0  0  0  0
 10 22  1  0  0  0  0
 11 12  2  0  0  0  0
 11 23  1  0  0  0  0
 12 24  1  0  0  0  0
 13 20  1  0  0  0  0
 13 22  2  0  0  0  0
 14 24  2  0  0  0  0
 14 25  1  0  0  0  0
 15 26  1  0  0  0  0
 16 26  1  0  0  0  0
 16 27  2  0  0  0  0
 16 28  1  0  0  0  0
 17 19  2  0  0  0  0
 17 33  1  0  0  0  0
 18 20  2  0  0  0  0
 18 34  1  0  0  0  0
 19 45  1  0  0  0  0
 20 35  1  0  0  0  0
 21 82  1  0  0  0  0
 22 83  1  0  0  0  0
 23 25  2  0  0  0  0
 23 82  1  0  0  0  0
 24 84  1  0  0  0  0
 25 85  1  0  0  0  0
 26 65  2  0  0  0  0
 27 66  1  0  0  0  0
 27 70  1  0  0  0  0
 28 71  1  0  0  0  0
 28 77  2  0  0  0  0
 29 46  1  0  0  0  0
 29 72  1  0  0  0  0
 29 78  2  0  0  0  0
 30 61  1  0  0  0  0
 30 67  1  0  0  0  0
 30 79  2  0  0  0  0
 31 62  1  0  0  0  0
 31 73  1  0  0  0  0
 31 80  2  0  0  0  0
 32 68  1  0  0  0  0
 32 74  1  0  0  0  0
 32 81  2  0  0  0  0
 33 36  1  0  0  0  0
 34 46  1  0  0  0  0
 35 67  1  0  0  0  0
 36 38  1  0  0  0  0
 37 39  1  0  0  0  0
 37 41  1  0  0  0  0
 38 45  1  0  0  0  0
 39 47  1  0  0  0  0
 40 42  1  0  0  0  0
 40 48  1  0  0  0  0
 41 68  1  0  0  0  0
 42 69  1  0  0  0  0
 43 47  1  0  0  0  0
 43 68  1  0  0  0  0
 44 49  1  0  0  0  0
 44 69  1  0  0  0  0
 45 72  1  0  0  0  0
 46 67  1  0  0  0  0
 47 66  1  0  0  0  0
 48 57  1  0  0  0  0
 48 75  1  0  0  0  0
 49 58  1  0  0  0  0
 49 75  1  0  0  0  0
 50 62  1  0  0  0  0
 51 63  1  0  0  0  0
 52 63  1  0  0  0  0
 53 64  1  0  0  0  0
 54 64  1  0  0  0  0
 55 64  1  0  0  0  0
 56 76  1  0  0  0  0
 57 59  1  0  0  0  0
 58 60  1  0  0  0  0
 59 74  1  0  0  0  0
 60 83  1  0  0  0  0
 61 64  1  0  0  0  0
 61 73  1  0  0  0  0
 62 76  1  0  0  0  0
 63 69  1  0  0  0  0
 65 66  1  0  0  0  0
M  CHG  2  75   1  76   1
M  ISO  4  32 100  60 101  74 100  83 101
M  END
> <Batch ID>
0130

> <Smiles>
CNC(C)C(=O)NC(C(=O)N1Cc2cc([101O:1][101CH2:1]CC3CN(C(C)C)CCC(CC[100NH:0][100C:0](=O)N4CCCC(n5nc(-c6ccc(Oc7ccc(F)cc7F)cc6)c(C(N)=O)c5N)C4)N3)ccc2CC1C(=O)NC1CCCc2ccccc21)C(C)(C)C

> <Shape>
0.236

> <Color>
0.082

> <Negative vol penalty>
0.000

$$$$

  -OEChem-04052320473D

 88 97  0     1  0  0  0  0  0999 V2000
  -16.5772  -28.9986   23.9793 C   0  0  0  0  0  0  0  0  0  0  0  0
  -17.5554  -28.0599   23.6672 C   0  0  0  0  0  0  0  0  0  0  0  0
  -23.1176   -9.8953   21.4285 C   0  0  0  0  0  0  0  0  0  0  0  0
  -25.3729   -9.1562   20.9766 C   0  0  0  0  0  0  0  0  0  0  0  0
  -16.8752  -30.3595   23.9225 C   0  0  0  0  0  0  0  0  0  0  0  0
  -18.8320  -28.4816   23.2971 C   0  0  0  0  0  0  0  0  0  0  0  0
  -24.1380  -25.6916   24.5492 C   0  0  0  0  0  0  0  0  0  0  0  0
  -22.6873   -8.5687   21.4508 C   0  0  0  0  0  0  0  0  0  0  0  0
  -24.9426   -7.8295   20.9989 C   0  0  0  0  0  0  0  0  0  0  0  0
  -24.9513  -24.8430   23.7994 C   0  0  0  0  0  0  0  0  0  0  0  0
  -22.7470   -5.9666   23.6092 C   0  0  0  0  0  0  0  0  0  0  0  0
  -21.8931   -5.5794   24.6419 C   0  0  0  0  0  0  0  0  0  0  0  0
  -26.3062  -26.7288   23.1460 C   0  0  0  0  0  0  0  0  0  0  0  0
  -20.2075   -4.9728   23.0208 C   0  0  0  0  0  0  0  0  0  0  0  0
  -24.4604  -10.1891   21.1913 C   0  0  0  0  0  0  0  0  0  0  0  0
  -24.4667  -12.5807   20.3038 C   0  0  0  0  0  0  0  0  0  0  0  0
  -18.1589  -30.7978   23.5608 C   0  0  0  0  0  0  0  0  0  0  0  0
  -24.3967  -27.0691   24.5942 C   0  0  0  0  0  0  0  0  0  0  0  0
  -19.1471  -29.8496   23.2341 C   0  0  0  0  0  0  0  0  0  0  0  0
  -25.4962  -27.5924   23.8991 C   0  0  0  0  0  0  0  0  0  0  0  0
  -23.5998   -7.5358   21.2361 C   0  0  0  0  0  0  0  0  0  0  0  0
  -26.0339  -25.3620   23.0953 C   0  0  0  0  0  0  0  0  0  0  0  0
  -22.3311   -5.8570   22.2822 C   0  0  0  0  0  0  0  0  0  0  0  0
  -20.6234   -5.0825   24.3478 C   0  0  0  0  0  0  0  0  0  0  0  0
  -21.0614   -5.3601   21.9881 C   0  0  0  0  0  0  0  0  0  0  0  0
  -24.9054  -11.5593   21.1675 C   0  0  0  0  0  0  0  0  0  0  0  0
  -25.1888  -13.6855   20.6839 C   0  0  0  0  0  0  0  0  0  0  0  0
  -23.4933  -12.5350   19.2521 C   0  0  0  0  0  0  0  0  0  0  0  0
  -22.8053  -29.6798   23.7251 C   0  0  0  0  0  0  0  0  0  0  0  0
  -25.2877  -31.1976   25.1591 C   0  0  0  0  0  0  0  0  0  0  0  0
  -28.2603  -32.1727   26.5229 C   0  0  0  0  0  0  0  0  0  0  0  0
  -27.6769  -15.1806   25.8248 C   0  0  0  0  0  0  0  0  0  0  0  0
  -18.4203  -32.2803   23.4677 C   0  0  0  0  0  0  0  0  0  0  0  0
  -23.5257  -27.9672   25.4292 C   0  0  0  0  0  0  0  0  0  0  0  0
  -25.8288  -29.0610   23.9312 C   0  0  0  0  0  0  0  0  0  0  0  0
  -19.9043  -32.6359   23.4294 C   0  0  0  0  0  0  0  0  0  0  0  0
  -29.3759  -14.9315   22.6391 C   0  0  0  0  0  0  0  0  0  0  0  0
  -29.6230  -21.8312   19.0006 C   0  0  0  0  0  0  0  0  0  0  0  0
  -20.6423  -31.7410   22.4387 C   0  0  0  0  0  0  0  0  0  0  0  0
  -28.3659  -14.1282   21.8177 C   0  0  0  0  0  0  0  0  0  0  0  0
  -29.6795  -21.6186   20.5017 C   0  0  0  0  0  0  0  0  0  0  0  0
  -27.9093  -19.5007   24.4597 C   0  0  0  0  0  0  0  0  0  0  0  0
  -29.7143  -20.9222   25.4729 C   0  0  0  0  0  0  0  0  0  0  0  0
  -29.4194  -14.4499   24.0863 C   0  0  0  0  0  0  0  0  0  0  0  0
  -27.5320  -20.6876   23.5687 C   0  0  0  0  0  0  0  0  0  0  0  0
  -29.2779  -22.0623   24.5485 C   0  0  0  0  0  0  0  0  0  0  0  0
  -27.0890  -13.6580   23.9598 C   0  0  0  0  0  0  0  0  0  0  0  0
  -29.0247  -23.2178   18.8709 C   0  0  0  0  0  0  0  0  0  0  0  0
  -20.5506  -30.2672   22.8522 C   0  0  1  0  0  0  0  0  0  0  0  0
  -23.5773  -29.4270   24.9891 C   0  0  1  0  0  0  0  0  0  0  0  0
  -26.9815  -14.1118   22.4926 C   0  0  2  0  0  0  0  0  0  0  0  0
  -28.5439  -19.9876   25.7579 C   0  0  0  0  0  0  0  0  0  0  0  0
  -28.3412  -22.1709   20.9698 C   0  0  1  0  0  0  0  0  0  0  0  0
  -29.5922  -34.2247   27.0821 C   0  0  0  0  0  0  0  0  0  0  0  0
  -27.7193  -18.9711   28.5925 C   0  0  0  0  0  0  0  0  0  0  0  0
  -25.9976  -31.5372   22.2111 C   0  0  0  0  0  0  0  0  0  0  0  0
  -27.9773  -32.8980   22.9163 C   0  0  0  0  0  0  0  0  0  0  0  0
  -25.6714  -33.6797   23.4591 C   0  0  0  0  0  0  0  0  0  0  0  0
  -28.2777  -31.5164   29.4088 C   0  0  0  0  0  0  0  0  0  0  0  0
  -28.4134  -16.7078   27.6366 C   0  0  0  0  0  0  0  0  0  0  0  0
  -26.9644  -23.1908   22.8189 C   0  0  0  0  0  0  0  0  0  1  0  0
  -26.6362  -31.7040   24.7072 C   0  0  1  0  0  0  0  0  0  0  0  0
  -28.5897  -33.2003   27.5906 C   0  0  2  0  0  0  0  0  0  0  0  0
  -28.3321  -22.6425   22.4096 C   0  0  1  0  0  0  0  0  0  0  0  0
  -27.9775  -18.1415   27.3422 C   0  0  2  0  0  0  0  0  0  0  0  0
  -26.5672  -32.4281   23.3330 C   0  0  0  0  0  0  0  0  0  0  0  0
  -25.8344  -11.9779   22.0311 N   0  0  0  0  0  0  0  0  0  0  0  0
  -25.9854  -13.2746   21.7118 N   0  0  0  0  0  0  0  0  0  0  0  0
  -24.9437  -29.8993   24.7567 N   0  0  0  0  0  0  0  0  0  0  0  0
  -28.0734  -14.4761   24.6760 N   0  0  0  0  0  0  0  0  0  0  0  0
  -28.6983  -21.5422   23.3012 N   0  0  0  0  0  0  0  0  0  0  0  0
  -25.2138  -14.9586   20.2356 N   0  0  0  0  0  0  0  0  0  0  0  0
  -23.9231  -12.2129   17.9575 N   0  0  0  0  0  0  0  0  0  0  0  0
  -21.4738  -29.9865   23.9308 N   0  0  0  0  0  0  0  0  0  0  0  0
  -27.1464  -32.5325   25.7942 N   0  0  0  0  0  0  0  0  0  0  0  0
  -28.6707  -15.9255   26.4480 N   0  0  0  0  0  0  0  0  0  0  0  0
  -28.0889  -23.3310   20.0414 N   0  3  0  0  0  0  0  0  0  0  0  0
  -29.0281  -18.8187   26.5351 N   0  3  0  0  0  0  0  0  0  0  0  0
  -29.1678  -32.5329   28.7911 N   0  3  0  0  0  0  0  0  0  0  0  0
  -22.2811  -12.7888   19.4512 O   0  0  0  0  0  0  0  0  0  0  0  0
  -23.3759  -29.6038   22.6433 O   0  0  0  0  0  0  0  0  0  0  0  0
  -24.5693  -31.9244   25.8499 O   0  0  0  0  0  0  0  0  0  0  0  0
  -28.9267  -31.1546   26.3501 O   0  0  0  0  0  0  0  0  0  0  0  0
  -26.5208  -15.1524   26.2604 O   0  0  0  0  0  0  0  0  0  0  0  0
  -23.1803   -6.2411   21.2580 O   0  0  0  0  0  0  0  0  0  0  0  0
  -26.8290  -24.5360   22.3622 O   0  0  0  0  0  0  0  0  0  1  0  0
  -19.8041   -4.7092   25.3395 F   0  0  0  0  0  0  0  0  0  0  0  0
  -20.6568   -5.2513   20.7152 F   0  0  0  0  0  0  0  0  0  0  0  0
  1  2  1  0  0  0  0
  1  5  2  0  0  0  0
  2  6  2  0  0  0  0
  3  8  2  0  0  0  0
  3 15  1  0  0  0  0
  4  9  1  0  0  0  0
  4 15  2  0  0  0  0
  5 17  1  0  0  0  0
  6 19  1  0  0  0  0
  7 10  2  0  0  0  0
  7 18  1  0  0  0  0
  8 21  1  0  0  0  0
  9 21  2  0  0  0  0
 10 22  1  0  0  0  0
 11 12  2  0  0  0  0
 11 23  1  0  0  0  0
 12 24  1  0  0  0  0
 13 20  1  0  0  0  0
 13 22  2  0  0  0  0
 14 24  2  0  0  0  0
 14 25  1  0  0  0  0
 15 26  1  0  0  0  0
 16 26  1  0  0  0  0
 16 27  2  0  0  0  0
 16 28  1  0  0  0  0
 17 19  2  0  0  0  0
 17 33  1  0  0  0  0
 18 20  2  0  0  0  0
 18 34  1  0  0  0  0
 19 49  1  0  0  0  0
 20 35  1  0  0  0  0
 21 85  1  0  0  0  0
 22 86  1  0  0  0  0
 23 25  2  0  0  0  0
 23 85  1  0  0  0  0
 24 87  1  0  0  0  0
 25 88  1  0  0  0  0
 26 67  2  0  0  0  0
 27 68  1  0  0  0  0
 27 72  1  0  0  0  0
 28 73  1  0  0  0  0
 28 80  2  0  0  0  0
 29 50  1  0  0  0  0
 29 74  1  0  0  0  0
 29 81  2  0  0  0  0
 30 62  1  0  0  0  0
 30 69  1  0  0  0  0
 30 82  2  0  0  0  0
 31 63  1  0  0  0  0
 31 75  1  0  0  0  0
 31 83  2  0  0  0  0
 32 70  1  0  0  0  0
 32 76  1  0  0  0  0
 32 84  2  0  0  0  0
 33 36  1  0  0  0  0
 34 50  1  0  0  0  0
 35 69  1  0  0  0  0
 36 39  1  0  0  0  0
 37 40  1  0  0  0  0
 37 44  1  0  0  0  0
 38 41  1  0  0  0  0
 38 48  1  0  0  0  0
 39 49  1  0  0  0  0
 40 51  1  0  0  0  0
 41 53  1  0  0  0  0
 42 45  1  0  0  0  0
 42 52  1  0  0  0  0
 43 46  1  0  0  0  0
 43 52  1  0  0  0  0
 44 70  1  0  0  0  0
 45 71  1  0  0  0  0
 46 71  1  0  0  0  0
 47 51  1  0  0  0  0
 47 70  1  0  0  0  0
 48 77  1  0  0  0  0
 49 74  1  0  0  0  0
 50 69  1  0  0  0  0
 51 68  1  0  0  0  0
 52 78  1  0  0  0  0
 53 64  1  0  0  0  0
 53 77  1  0  0  0  0
 54 63  1  0  0  0  0
 55 65  1  0  0  0  0
 56 66  1  0  0  0  0
 57 66  1  0  0  0  0
 58 66  1  0  0  0  0
 59 79  1  0  0  0  0
 60 65  1  0  0  0  0
 60 76  1  0  0  0  0
 61 64  1  0  0  0  0
 61 86  1  0  0  0  0
 62 66  1  0  0  0  0
 62 75  1  0  0  0  0
 63 79  1  0  0  0  0
 64 71  1  0  0  0  0
 65 78  1  0  0  0  0
 67 68  1  0  0  0  0
M  CHG  3  77   1  78   1  79   1
M  ISO  4  32 100  61 101  76 100  86 101
M  END
> <Batch ID>
0130

> <Smiles>
CNC(C)C(=O)NC(C(=O)N1Cc2cc([101O:1][101CH2:1]C(C3CCCN3)N3CCC(NC(C)C[100NH:0][100C:0](=O)N4CCCC(n5nc(-c6ccc(Oc7ccc(F)cc7F)cc6)c(C(N)=O)c5N)C4)CC3)ccc2CC1C(=O)NC1CCCc2ccccc21)C(C)(C)C

> <Shape>
0.238

> <Color>
0.098

> <Negative vol penalty>
0.000

$$$$

  -OEChem-04052320473D

 84 93  0     1  0  0  0  0  0999 V2000
  -27.4939  -37.9140   23.5892 C   0  0  0  0  0  0  0  0  0  0  0  0
  -28.0380  -36.9722   22.7217 C   0  0  0  0  0  0  0  0  0  0  0  0
  -23.5991   -9.7761   18.9519 C   0  0  0  0  0  0  0  0  0  0  0  0
  -24.8888   -8.4590   20.5136 C   0  0  0  0  0  0  0  0  0  0  0  0
  -26.6892  -37.5001   24.6499 C   0  0  0  0  0  0  0  0  0  0  0  0
  -27.7786  -35.6159   22.9152 C   0  0  0  0  0  0  0  0  0  0  0  0
  -28.0136  -21.9196   18.9946 C   0  0  0  0  0  0  0  0  0  0  0  0
  -26.8684  -29.5280   19.2510 C   0  0  0  0  0  0  0  0  0  0  0  0
  -27.6803  -23.2724   18.9292 C   0  0  0  0  0  0  0  0  0  0  0  0
  -23.1744   -8.6085   18.3179 C   0  0  0  0  0  0  0  0  0  0  0  0
  -24.4640   -7.2914   19.8797 C   0  0  0  0  0  0  0  0  0  0  0  0
  -27.3437  -28.2182   19.2035 C   0  0  0  0  0  0  0  0  0  0  0  0
  -20.8862   -6.1765   18.8495 C   0  0  0  0  0  0  0  0  0  0  0  0
  -19.5333   -6.0691   18.5275 C   0  0  0  0  0  0  0  0  0  0  0  0
  -25.8746  -27.6255   21.0228 C   0  0  0  0  0  0  0  0  0  0  0  0
  -29.9737  -23.8608   19.4098 C   0  0  0  0  0  0  0  0  0  0  0  0
  -20.1069   -5.8498   16.1909 C   0  0  0  0  0  0  0  0  0  0  0  0
  -24.4564   -9.7014   20.0497 C   0  0  0  0  0  0  0  0  0  0  0  0
  -24.2701  -11.5677   21.7788 C   0  0  0  0  0  0  0  0  0  0  0  0
  -26.4118  -36.1387   24.8507 C   0  0  0  0  0  0  0  0  0  0  0  0
  -25.8989  -29.8996   20.1936 C   0  0  0  0  0  0  0  0  0  0  0  0
  -26.9704  -35.1833   23.9803 C   0  0  0  0  0  0  0  0  0  0  0  0
  -29.3270  -21.5373   19.2677 C   0  0  0  0  0  0  0  0  0  0  0  0
  -25.3868  -28.9401   21.0785 C   0  0  0  0  0  0  0  0  0  0  0  0
  -28.6603  -24.2430   19.1368 C   0  0  0  0  0  0  0  0  0  0  0  0
  -30.3071  -22.5079   19.4752 C   0  0  0  0  0  0  0  0  0  0  0  0
  -23.6068   -7.3662   18.7818 C   0  0  0  0  0  0  0  0  0  0  0  0
  -26.8489  -27.2674   20.0914 C   0  0  0  0  0  0  0  0  0  0  0  0
  -21.8495   -6.1206   17.8422 C   0  0  0  0  0  0  0  0  0  0  0  0
  -19.1437   -5.9057   17.1982 C   0  0  0  0  0  0  0  0  0  0  0  0
  -21.4599   -5.9572   16.5129 C   0  0  0  0  0  0  0  0  0  0  0  0
  -24.8959  -10.9072   20.7047 C   0  0  0  0  0  0  0  0  0  0  0  0
  -25.0744  -12.6522   22.0305 C   0  0  0  0  0  0  0  0  0  0  0  0
  -23.0691  -11.2310   22.4859 C   0  0  0  0  0  0  0  0  0  0  0  0
  -25.7968  -31.9568   22.6147 C   0  0  0  0  0  0  0  0  0  0  0  0
  -22.6746  -31.0829   22.7158 C   0  0  0  0  0  0  0  0  0  0  0  0
  -20.2961  -28.7435   21.9969 C   0  0  0  0  0  0  0  0  0  0  0  0
  -27.9316  -16.9420   20.3670 C   0  0  0  0  0  0  0  0  0  0  0  0
  -25.5750  -35.7360   26.0390 C   0  0  0  0  0  0  0  0  0  0  0  0
  -25.3772  -31.3102   20.2143 C   0  0  0  0  0  0  0  0  0  0  0  0
  -24.3307  -29.2833   22.0960 C   0  0  0  0  0  0  0  0  0  0  0  0
  -25.0428  -34.3078   25.9532 C   0  0  0  0  0  0  0  0  0  0  0  0
  -29.6832  -13.8139   20.3439 C   0  0  0  0  0  0  0  0  0  0  0  0
  -26.1523  -33.3489   25.5332 C   0  0  0  0  0  0  0  0  0  0  0  0
  -28.5304  -12.8242   20.4927 C   0  0  0  0  0  0  0  0  0  0  0  0
  -29.3910  -19.3029   18.0315 C   0  0  0  0  0  0  0  0  0  0  0  0
  -29.3121  -15.0094   19.4641 C   0  0  0  0  0  0  0  0  0  0  0  0
  -29.3962  -17.8536   18.4957 C   0  0  0  0  0  0  0  0  0  0  0  0
  -26.9204  -14.7078   20.0394 C   0  0  0  0  0  0  0  0  0  0  0  0
  -29.6641  -20.0666   19.3332 C   0  0  2  0  0  0  0  0  0  0  0  0
  -26.6918  -33.7048   24.1426 C   0  0  1  0  0  0  0  0  0  0  0  0
  -24.7628  -31.7005   21.5550 C   0  0  1  0  0  0  0  0  0  0  0  0
  -27.2581  -13.5391   20.9762 C   0  0  1  0  0  0  0  0  0  0  0  0
  -28.8587  -19.2630   20.3781 C   0  0  2  0  0  0  0  0  0  0  0  0
  -31.7198  -22.1225   19.7695 C   0  0  0  0  0  0  0  0  0  0  0  0
  -29.5149  -19.3050   21.7558 C   0  0  0  0  0  0  0  0  0  0  0  0
  -17.8384  -28.2956   22.2346 C   0  0  0  0  0  0  0  0  0  0  0  0
  -23.0804  -30.4375   25.6702 C   0  0  0  0  0  0  0  0  0  0  0  0
  -20.9420  -29.1369   25.6082 C   0  0  0  0  0  0  0  0  0  0  0  0
  -20.9236  -31.5871   25.1403 C   0  0  0  0  0  0  0  0  0  0  0  0
  -19.9217  -28.5942   19.0649 C   0  0  0  0  0  0  0  0  0  0  0  0
  -28.3038  -25.6894   19.0671 C   0  0  0  0  0  0  0  0  0  1  0  0
  -21.8887  -30.0042   23.4212 C   0  0  1  0  0  0  0  0  0  0  0  0
  -18.9316  -28.8625   21.3423 C   0  0  2  0  0  0  0  0  0  0  0  0
  -21.7300  -30.2851   24.9422 C   0  0  0  0  0  0  0  0  0  0  0  0
  -26.0117  -11.5209   20.3016 N   0  0  0  0  0  0  0  0  0  0  0  0
  -26.0933  -12.5784   21.1268 N   0  0  0  0  0  0  0  0  0  0  0  0
  -23.8571  -30.6772   22.0810 N   0  0  0  0  0  0  0  0  0  0  0  0
  -28.0545  -15.6260   19.9029 N   0  0  0  0  0  0  0  0  0  0  0  0
  -28.8001  -17.8980   19.8324 N   0  0  0  0  0  0  0  0  0  0  0  0
  -25.0024  -13.6523   22.9344 N   0  0  0  0  0  0  0  0  0  0  0  0
  -22.3650  -10.0830   22.0980 N   0  0  0  0  0  0  0  0  0  0  0  0
  -25.7826  -33.2449   23.1148 N   0  0  0  0  0  0  0  0  0  0  0  0
  -20.6257  -29.8822   22.7012 N   0  0  0  0  0  0  0  0  0  0  0  0
  -18.9119  -28.1242   20.0479 N   0  3  0  0  0  0  0  0  0  0  0  0
  -22.6245  -11.9366   23.4229 O   0  0  0  0  0  0  0  0  0  0  0  0
  -26.5508  -31.0524   22.9545 O   0  0  0  0  0  0  0  0  0  0  0  0
  -22.2512  -32.2415   22.7215 O   0  0  0  0  0  0  0  0  0  0  0  0
  -20.9976  -27.7394   21.8967 O   0  0  0  0  0  0  0  0  0  0  0  0
  -27.0680  -17.2544   21.1970 O   0  0  0  0  0  0  0  0  0  0  0  0
  -23.1923   -6.2266   18.1636 O   0  0  0  0  0  0  0  0  0  0  0  0
  -27.3148  -25.9796   20.0473 O   0  0  0  0  0  0  0  0  0  1  0  0
  -17.8445   -5.8011   16.8893 F   0  0  0  0  0  0  0  0  0  0  0  0
  -22.3808   -5.9016   15.5410 F   0  0  0  0  0  0  0  0  0  0  0  0
  1  2  1  0  0  0  0
  1  5  2  0  0  0  0
  2  6  2  0  0  0  0
  3 10  2  0  0  0  0
  3 18  1  0  0  0  0
  4 11  1  0  0  0  0
  4 18  2  0  0  0  0
  5 20  1  0  0  0  0
  6 22  1  0  0  0  0
  7  9  2  0  0  0  0
  7 23  1  0  0  0  0
  8 12  2  0  0  0  0
  8 21  1  0  0  0  0
  9 25  1  0  0  0  0
 10 27  1  0  0  0  0
 11 27  2  0  0  0  0
 12 28  1  0  0  0  0
 13 14  2  0  0  0  0
 13 29  1  0  0  0  0
 14 30  1  0  0  0  0
 15 24  1  0  0  0  0
 15 28  2  0  0  0  0
 16 25  2  0  0  0  0
 16 26  1  0  0  0  0
 17 30  2  0  0  0  0
 17 31  1  0  0  0  0
 18 32  1  0  0  0  0
 19 32  1  0  0  0  0
 19 33  2  0  0  0  0
 19 34  1  0  0  0  0
 20 22  2  0  0  0  0
 20 39  1  0  0  0  0
 21 24  2  0  0  0  0
 21 40  1  0  0  0  0
 22 51  1  0  0  0  0
 23 26  2  0  0  0  0
 23 50  1  0  0  0  0
 24 41  1  0  0  0  0
 25 62  1  0  0  0  0
 26 55  1  0  0  0  0
 27 81  1  0  0  0  0
 28 82  1  0  0  0  0
 29 31  2  0  0  0  0
 29 81  1  0  0  0  0
 30 83  1  0  0  0  0
 31 84  1  0  0  0  0
 32 66  2  0  0  0  0
 33 67  1  0  0  0  0
 33 71  1  0  0  0  0
 34 72  1  0  0  0  0
 34 76  2  0  0  0  0
 35 52  1  0  0  0  0
 35 73  1  0  0  0  0
 35 77  2  0  0  0  0
 36 63  1  0  0  0  0
 36 68  1  0  0  0  0
 36 78  2  0  0  0  0
 37 64  1  0  0  0  0
 37 74  1  0  0  0  0
 37 79  2  0  0  0  0
 38 69  1  0  0  0  0
 38 70  1  0  0  0  0
 38 80  2  0  0  0  0
 39 42  1  0  0  0  0
 40 52  1  0  0  0  0
 41 68  1  0  0  0  0
 42 44  1  0  0  0  0
 43 45  1  0  0  0  0
 43 47  1  0  0  0  0
 44 51  1  0  0  0  0
 45 53  1  0  0  0  0
 46 48  1  0  0  0  0
 46 50  1  0  0  0  0
 47 69  1  0  0  0  0
 48 70  1  0  0  0  0
 49 53  1  0  0  0  0
 49 69  1  0  0  0  0
 50 54  1  0  0  0  0
 51 73  1  0  0  0  0
 52 68  1  0  0  0  0
 53 67  1  0  0  0  0
 54 56  1  0  0  0  0
 54 70  1  0  0  0  0
 57 64  1  0  0  0  0
 58 65  1  0  0  0  0
 59 65  1  0  0  0  0
 60 65  1  0  0  0  0
 61 75  1  0  0  0  0
 62 82  1  0  0  0  0
 63 65  1  0  0  0  0
 63 74  1  0  0  0  0
 64 75  1  0  0  0  0
 66 67  1  0  0  0  0
M  CHG  1  75   1
M  ISO  4  38 100  62 101  70 100  82 101
M  END
> <Batch ID>
0130

> <Smiles>
CNC(C)C(=O)NC(C(=O)N1Cc2cc([101O:1][101CH2:1]c3ccc(C4CC[100N:0]([100C:0](=O)N5CCCC(n6nc(-c7ccc(Oc8ccc(F)cc8F)cc7)c(C(N)=O)c6N)C5)C4C)c(C)c3)ccc2CC1C(=O)NC1CCCc2ccccc21)C(C)(C)C

> <Shape>
0.293

> <Color>
0.077

> <Negative vol penalty>
0.000

$$$$

  -OEChem-04052320473D

 83 91  0     1  0  0  0  0  0999 V2000
  -29.4440  -12.0088   19.4270 C   0  0  0  0  0  0  0  0  0  0  0  0
  -28.9239  -12.8681   18.4645 C   0  0  0  0  0  0  0  0  0  0  0  0
  -27.4902  -25.3736   18.6160 C   0  0  0  0  0  0  0  0  0  0  0  0
  -28.8360  -25.4631   20.6204 C   0  0  0  0  0  0  0  0  0  0  0  0
  -28.6706  -11.6495   20.5301 C   0  0  0  0  0  0  0  0  0  0  0  0
  -27.6296  -13.3678   18.6039 C   0  0  0  0  0  0  0  0  0  0  0  0
  -25.1123  -20.7615   18.7559 C   0  0  0  0  0  0  0  0  0  0  0  0
  -27.6017  -23.9833   18.6032 C   0  0  0  0  0  0  0  0  0  0  0  0
  -28.9475  -24.0728   20.6076 C   0  0  0  0  0  0  0  0  0  0  0  0
  -24.5651  -22.0292   18.9557 C   0  0  0  0  0  0  0  0  0  0  0  0
  -30.7505  -21.7332   18.9625 C   0  0  0  0  0  0  0  0  0  0  0  0
  -32.0112  -21.1820   19.1919 C   0  0  0  0  0  0  0  0  0  0  0  0
  -22.7713  -21.0615   20.2572 C   0  0  0  0  0  0  0  0  0  0  0  0
  -31.1515  -20.0220   21.1291 C   0  0  0  0  0  0  0  0  0  0  0  0
  -28.1074  -26.1135   19.6246 C   0  0  0  0  0  0  0  0  0  0  0  0
  -28.4165  -28.4457   18.6382 C   0  0  0  0  0  0  0  0  0  0  0  0
  -27.3697  -12.1528   20.6880 C   0  0  0  0  0  0  0  0  0  0  0  0
  -24.4988  -19.6394   19.3196 C   0  0  0  0  0  0  0  0  0  0  0  0
  -26.8376  -13.0139   19.7094 C   0  0  0  0  0  0  0  0  0  0  0  0
  -23.3217  -19.7906   20.0709 C   0  0  0  0  0  0  0  0  0  0  0  0
  -28.3304  -23.3329   19.5990 C   0  0  0  0  0  0  0  0  0  0  0  0
  -23.3974  -22.1787   19.7043 C   0  0  0  0  0  0  0  0  0  0  0  0
  -29.6904  -21.4288   19.8164 C   0  0  0  0  0  0  0  0  0  0  0  0
  -32.2116  -20.3264   20.2752 C   0  0  0  0  0  0  0  0  0  0  0  0
  -29.8908  -20.5732   20.8997 C   0  0  0  0  0  0  0  0  0  0  0  0
  -27.9930  -27.5498   19.6381 C   0  0  0  0  0  0  0  0  0  0  0  0
  -28.0841  -29.6861   19.1255 C   0  0  0  0  0  0  0  0  0  0  0  0
  -29.0532  -28.1804   17.3813 C   0  0  0  0  0  0  0  0  0  0  0  0
  -24.5584  -15.9205   19.8116 C   0  0  0  0  0  0  0  0  0  0  0  0
  -23.7123  -17.1598   22.4872 C   0  0  0  0  0  0  0  0  0  0  0  0
  -23.2225  -18.9337   25.3595 C   0  0  0  0  0  0  0  0  0  0  0  0
  -23.9589  -31.5576   23.0410 C   0  0  0  0  0  0  0  0  0  0  0  0
  -26.5545  -11.6986   21.8729 C   0  0  0  0  0  0  0  0  0  0  0  0
  -25.0187  -18.2481   19.0790 C   0  0  0  0  0  0  0  0  0  0  0  0
  -22.6770  -18.5514   20.6293 C   0  0  0  0  0  0  0  0  0  0  0  0
  -25.3285  -12.5685   22.1382 C   0  0  0  0  0  0  0  0  0  0  0  0
  -27.4789  -32.0545   23.2383 C   0  0  0  0  0  0  0  0  0  0  0  0
  -24.5718  -12.8345   20.8407 C   0  0  0  0  0  0  0  0  0  0  0  0
  -28.0480  -31.0372   22.2478 C   0  0  0  0  0  0  0  0  0  0  0  0
  -26.2550  -31.5068   23.9692 C   0  0  0  0  0  0  0  0  0  0  0  0
  -20.2269  -27.4746   20.8590 C   0  0  0  0  0  0  0  0  0  0  0  0
  -20.6211  -26.8772   23.1687 C   0  0  0  0  0  0  0  0  0  0  0  0
  -25.7545  -29.9806   22.1000 C   0  0  0  0  0  0  0  0  0  0  0  0
  -20.0449  -28.9419   21.2328 C   0  0  0  0  0  0  0  0  0  0  0  0
  -20.4505  -28.3271   23.6096 C   0  0  0  0  0  0  0  0  0  0  0  0
  -25.4468  -13.5965   19.8381 C   0  0  1  0  0  0  0  0  0  0  0  0
  -24.8318  -17.3162   20.2897 C   0  0  1  0  0  0  0  0  0  0  0  0
  -26.9565  -30.5082   21.2981 C   0  0  2  0  0  0  0  0  0  0  0  0
  -22.7657  -18.6304   27.8083 C   0  0  0  0  0  0  0  0  0  0  0  0
  -18.7312  -24.7716   20.7851 C   0  0  0  0  0  0  0  0  0  0  0  0
  -20.8057  -16.4822   21.8573 C   0  0  0  0  0  0  0  0  0  0  0  0
  -20.2215  -17.1236   24.2058 C   0  0  0  0  0  0  0  0  0  0  0  0
  -21.7774  -15.2197   23.7851 C   0  0  0  0  0  0  0  0  0  0  0  0
  -25.7405  -20.2925   26.1159 C   0  0  0  0  0  0  0  0  0  0  0  0
  -21.2402  -24.9627   20.7463 C   0  0  0  0  0  0  0  0  0  0  0  0
  -21.7083  -31.5033   21.9963 C   0  0  0  0  0  0  0  0  0  0  0  0
  -20.7675  -30.6878   22.8634 C   0  0  0  0  0  0  0  0  0  0  0  0
  -21.6757  -23.5026   20.6740 C   0  0  0  0  0  0  0  0  0  1  0  0
  -22.5747  -17.5847   23.3809 C   0  0  1  0  0  0  0  0  0  0  0  0
  -23.8360  -18.8025   26.7418 C   0  0  2  0  0  0  0  0  0  0  0  0
  -19.9691  -25.1893   21.5777 C   0  0  1  0  0  0  0  0  0  0  0  0
  -21.3579  -16.6210   23.2901 C   0  0  0  0  0  0  0  0  0  0  0  0
  -27.4344  -28.1684   20.6818 N   0  0  0  0  0  0  0  0  0  0  0  0
  -27.5047  -29.4664   20.3404 N   0  0  0  0  0  0  0  0  0  0  0  0
  -23.7055  -17.6532   21.1768 N   0  0  0  0  0  0  0  0  0  0  0  0
  -25.2575  -31.0230   23.0117 N   0  0  0  0  0  0  0  0  0  0  0  0
  -19.8296  -26.5929   21.9645 N   0  0  0  0  0  0  0  0  0  0  0  0
  -28.2340  -30.9325   18.6290 N   0  0  0  0  0  0  0  0  0  0  0  0
  -29.3224  -26.8489   17.0365 N   0  0  0  0  0  0  0  0  0  0  0  0
  -25.5155  -14.9985   20.1904 N   0  0  0  0  0  0  0  0  0  0  0  0
  -23.1354  -17.7145   24.7215 N   0  0  0  0  0  0  0  0  0  0  0  0
  -23.0773  -31.0483   22.0954 N   0  0  0  0  0  0  0  0  0  0  0  0
  -20.8462  -29.2386   22.4753 N   0  3  0  0  0  0  0  0  0  0  0  0
  -24.6364  -20.0159   27.0706 N   0  3  0  0  0  0  0  0  0  0  0  0
  -29.3889  -29.0981   16.5947 O   0  0  0  0  0  0  0  0  0  0  0  0
  -23.5526  -15.6949   19.1489 O   0  0  0  0  0  0  0  0  0  0  0  0
  -24.5816  -16.4064   22.9343 O   0  0  0  0  0  0  0  0  0  0  0  0
  -22.8536  -20.0097   24.8939 O   0  0  0  0  0  0  0  0  0  0  0  0
  -23.6124  -32.4283   23.8464 O   0  0  0  0  0  0  0  0  0  0  0  0
  -28.4392  -21.9762   19.5869 O   0  0  0  0  0  0  0  0  0  0  0  0
  -22.8711  -23.4196   19.8992 O   0  0  0  0  0  0  0  0  0  1  0  0
  -33.4219  -19.7960   20.4945 F   0  0  0  0  0  0  0  0  0  0  0  0
  -28.8759  -20.2762   21.7228 F   0  0  0  0  0  0  0  0  0  0  0  0
  1  2  1  0  0  0  0
  1  5  2  0  0  0  0
  2  6  2  0  0  0  0
  3  8  2  0  0  0  0
  3 15  1  0  0  0  0
  4  9  1  0  0  0  0
  4 15  2  0  0  0  0
  5 17  1  0  0  0  0
  6 19  1  0  0  0  0
  7 10  2  0  0  0  0
  7 18  1  0  0  0  0
  8 21  1  0  0  0  0
  9 21  2  0  0  0  0
 10 22  1  0  0  0  0
 11 12  2  0  0  0  0
 11 23  1  0  0  0  0
 12 24  1  0  0  0  0
 13 20  1  0  0  0  0
 13 22  2  0  0  0  0
 14 24  2  0  0  0  0
 14 25  1  0  0  0  0
 15 26  1  0  0  0  0
 16 26  1  0  0  0  0
 16 27  2  0  0  0  0
 16 28  1  0  0  0  0
 17 19  2  0  0  0  0
 17 33  1  0  0  0  0
 18 20  2  0  0  0  0
 18 34  1  0  0  0  0
 19 46  1  0  0  0  0
 20 35  1  0  0  0  0
 21 80  1  0  0  0  0
 22 81  1  0  0  0  0
 23 25  2  0  0  0  0
 23 80  1  0  0  0  0
 24 82  1  0  0  0  0
 25 83  1  0  0  0  0
 26 63  2  0  0  0  0
 27 64  1  0  0  0  0
 27 68  1  0  0  0  0
 28 69  1  0  0  0  0
 28 75  2  0  0  0  0
 29 47  1  0  0  0  0
 29 70  1  0  0  0  0
 29 76  2  0  0  0  0
 30 59  1  0  0  0  0
 30 65  1  0  0  0  0
 30 77  2  0  0  0  0
 31 60  1  0  0  0  0
 31 71  1  0  0  0  0
 31 78  2  0  0  0  0
 32 66  1  0  0  0  0
 32 72  1  0  0  0  0
 32 79  2  0  0  0  0
 33 36  1  0  0  0  0
 34 47  1  0  0  0  0
 35 65  1  0  0  0  0
 36 38  1  0  0  0  0
 37 39  1  0  0  0  0
 37 40  1  0  0  0  0
 38 46  1  0  0  0  0
 39 48  1  0  0  0  0
 40 66  1  0  0  0  0
 41 44  1  0  0  0  0
 41 67  1  0  0  0  0
 42 45  1  0  0  0  0
 42 67  1  0  0  0  0
 43 48  1  0  0  0  0
 43 66  1  0  0  0  0
 44 73  1  0  0  0  0
 45 73  1  0  0  0  0
 46 70  1  0  0  0  0
 47 65  1  0  0  0  0
 48 64  1  0  0  0  0
 49 60  1  0  0  0  0
 50 61  1  0  0  0  0
 51 62  1  0  0  0  0
 52 62  1  0  0  0  0
 53 62  1  0  0  0  0
 54 74  1  0  0  0  0
 55 58  1  0  0  0  0
 55 61  1  0  0  0  0
 56 57  1  0  0  0  0
 56 72  1  0  0  0  0
 57 73  1  0  0  0  0
 58 81  1  0  0  0  0
 59 62  1  0  0  0  0
 59 71  1  0  0  0  0
 60 74  1  0  0  0  0
 61 67  1  0  0  0  0
 63 64  1  0  0  0  0
M  CHG  2  73   1  74   1
M  ISO  4  32 100  58 101  72 100  81 101
M  END
> <Batch ID>
0130

> <Smiles>
CNC(C)C(=O)NC(C(=O)N1Cc2cc([101O:1][101CH2:1]CC(C)N3CCN(CC[100NH:0][100C:0](=O)N4CCCC(n5nc(-c6ccc(Oc7ccc(F)cc7F)cc6)c(C(N)=O)c5N)C4)CC3)ccc2CC1C(=O)NC1CCCc2ccccc21)C(C)(C)C

> <Shape>
0.216

> <Color>
0.077

> <Negative vol penalty>
0.000

$$$$

  -OEChem-04052320473D

 82 90  0     1  0  0  0  0  0999 V2000
  -30.3399  -27.2122   23.8163 C   0  0  0  0  0  0  0  0  0  0  0  0
  -30.3596  -28.5134   23.3269 C   0  0  0  0  0  0  0  0  0  0  0  0
  -25.0649  -16.2618   20.4031 C   0  0  0  0  0  0  0  0  0  0  0  0
  -27.2727  -16.4699   21.3621 C   0  0  0  0  0  0  0  0  0  0  0  0
  -29.7907  -26.1899   23.0453 C   0  0  0  0  0  0  0  0  0  0  0  0
  -29.8195  -28.7947   22.0715 C   0  0  0  0  0  0  0  0  0  0  0  0
  -23.0012  -29.7568   18.6304 C   0  0  0  0  0  0  0  0  0  0  0  0
  -25.2447  -14.8834   20.2883 C   0  0  0  0  0  0  0  0  0  0  0  0
  -27.4524  -15.0914   21.2474 C   0  0  0  0  0  0  0  0  0  0  0  0
  -21.7848  -29.1361   18.9114 C   0  0  0  0  0  0  0  0  0  0  0  0
  -28.2282  -12.8740   18.8158 C   0  0  0  0  0  0  0  0  0  0  0  0
  -29.4456  -12.4192   18.3092 C   0  0  0  0  0  0  0  0  0  0  0  0
  -22.1926  -29.4193   21.2721 C   0  0  0  0  0  0  0  0  0  0  0  0
  -29.8530  -11.2187   20.3659 C   0  0  0  0  0  0  0  0  0  0  0  0
  -26.0790  -17.0551   20.9400 C   0  0  0  0  0  0  0  0  0  0  0  0
  -25.6469  -19.3937   20.0170 C   0  0  0  0  0  0  0  0  0  0  0  0
  -29.2551  -26.4576   21.7747 C   0  0  0  0  0  0  0  0  0  0  0  0
  -23.8288  -30.2043   19.6702 C   0  0  0  0  0  0  0  0  0  0  0  0
  -29.2391  -27.7807   21.2883 C   0  0  0  0  0  0  0  0  0  0  0  0
  -23.4178  -30.0476   21.0016 C   0  0  0  0  0  0  0  0  0  0  0  0
  -26.4384  -14.2981   20.7105 C   0  0  0  0  0  0  0  0  0  0  0  0
  -21.3817  -28.9647   20.2325 C   0  0  0  0  0  0  0  0  0  0  0  0
  -27.8233  -12.5013   20.0976 C   0  0  0  0  0  0  0  0  0  0  0  0
  -30.2580  -11.5915   19.0842 C   0  0  0  0  0  0  0  0  0  0  0  0
  -28.6356  -11.6736   20.8725 C   0  0  0  0  0  0  0  0  0  0  0  0
  -25.8941  -18.4791   21.0583 C   0  0  0  0  0  0  0  0  0  0  0  0
  -25.5494  -20.6112   20.6452 C   0  0  0  0  0  0  0  0  0  0  0  0
  -25.5170  -19.1633   18.6078 C   0  0  0  0  0  0  0  0  0  0  0  0
  -26.7663  -29.5006   20.6601 C   0  0  0  0  0  0  0  0  0  0  0  0
  -26.2548  -31.9771   22.6918 C   0  0  0  0  0  0  0  0  0  0  0  0
  -24.0174  -33.9448   24.3557 C   0  0  0  0  0  0  0  0  0  0  0  0
  -24.0900  -22.2140   26.2266 C   0  0  0  0  0  0  0  0  0  0  0  0
  -28.6662  -25.3147   20.9858 C   0  0  0  0  0  0  0  0  0  0  0  0
  -25.1256  -30.8959   19.3497 C   0  0  0  0  0  0  0  0  0  0  0  0
  -24.2604  -30.5286   22.1536 C   0  0  0  0  0  0  0  0  0  0  0  0
  -28.5243  -25.6287   19.5001 C   0  0  0  0  0  0  0  0  0  0  0  0
  -27.1124  -22.9698   24.5033 C   0  0  0  0  0  0  0  0  0  0  0  0
  -27.8379  -26.9740   19.3163 C   0  0  0  0  0  0  0  0  0  0  0  0
  -27.1206  -21.9871   23.3310 C   0  0  0  0  0  0  0  0  0  0  0  0
  -18.3641  -25.2322   19.4210 C   0  0  0  0  0  0  0  0  0  0  0  0
  -26.5200  -22.3411   25.7625 C   0  0  0  0  0  0  0  0  0  0  0  0
  -18.5647  -23.9349   20.2016 C   0  0  0  0  0  0  0  0  0  0  0  0
  -19.7325  -25.5746   21.3701 C   0  0  0  0  0  0  0  0  0  0  0  0
  -25.1900  -20.7637   24.4147 C   0  0  0  0  0  0  0  0  0  0  0  0
  -28.6850  -28.1052   19.9128 C   0  0  1  0  0  0  0  0  0  0  0  0
  -26.1269  -30.8508   20.4998 C   0  0  1  0  0  0  0  0  0  0  0  0
  -18.9210  -26.3335   20.3265 C   0  0  1  0  0  0  0  0  0  0  0  0
  -25.7270  -21.3699   23.1069 C   0  0  2  0  0  0  0  0  0  0  0  0
  -23.8998  -35.8615   25.9712 C   0  0  0  0  0  0  0  0  0  0  0  0
  -27.0039  -30.0959   24.9743 C   0  0  0  0  0  0  0  0  0  0  0  0
  -25.9710  -31.7290   26.5664 C   0  0  0  0  0  0  0  0  0  0  0  0
  -27.9314  -32.4091   25.1818 C   0  0  0  0  0  0  0  0  0  0  0  0
  -22.5716  -35.6454   22.4124 C   0  0  0  0  0  0  0  0  0  0  0  0
  -19.7340  -27.3784   19.5806 C   0  0  0  0  0  0  0  0  0  1  0  0
  -19.6052  -23.3421   22.3134 C   0  0  0  0  0  0  0  0  0  0  0  0
  -21.6421  -21.9843   26.5649 C   0  0  0  0  0  0  0  0  0  0  0  0
  -19.8922  -23.8293   23.7211 C   0  0  0  0  0  0  0  0  0  0  0  0
  -20.9271  -23.1380   25.8867 C   0  0  0  0  0  0  0  0  0  0  0  0
  -25.6752  -32.1202   24.0783 C   0  0  1  0  0  0  0  0  0  0  0  0
  -23.9189  -35.4521   24.5067 C   0  0  2  0  0  0  0  0  0  0  0  0
  -26.6302  -31.5776   25.1788 C   0  0  0  0  0  0  0  0  0  0  0  0
  -25.9503  -19.0655   22.2570 N   0  0  0  0  0  0  0  0  0  0  0  0
  -25.7371  -20.3616   21.9729 N   0  0  0  0  0  0  0  0  0  0  0  0
  -25.5227  -31.1929   21.7890 N   0  0  0  0  0  0  0  0  0  0  0  0
  -25.1978  -21.7758   25.4825 N   0  0  0  0  0  0  0  0  0  0  0  0
  -18.9161  -24.3741   21.5536 N   0  0  2  0  0  0  0  0  0  0  0  0
  -25.3222  -21.8601   20.1860 N   0  0  0  0  0  0  0  0  0  0  0  0
  -25.6449  -17.8517   18.1307 N   0  0  0  0  0  0  0  0  0  0  0  0
  -27.9117  -29.3275   19.9068 N   0  0  0  0  0  0  0  0  0  0  0  0
  -25.3260  -33.5284   24.2314 N   0  0  0  0  0  0  0  0  0  0  0  0
  -22.8731  -21.6320   25.8931 N   0  0  0  0  0  0  0  0  0  0  0  0
  -22.6741  -35.9571   23.8613 N   0  3  0  0  0  0  0  0  0  0  0  0
  -20.5469  -22.7501   24.5011 N   0  3  0  0  0  0  0  0  0  0  0  0
  -25.3103  -20.0952   17.7940 O   0  0  0  0  0  0  0  0  0  0  0  0
  -26.2588  -28.6773   21.4127 O   0  0  0  0  0  0  0  0  0  0  0  0
  -27.3144  -32.5461   22.4176 O   0  0  0  0  0  0  0  0  0  0  0  0
  -23.0323  -33.2099   24.3524 O   0  0  0  0  0  0  0  0  0  0  0  0
  -24.1778  -23.0650   27.1183 O   0  0  0  0  0  0  0  0  0  0  0  0
  -26.6140  -12.9531   20.5989 O   0  0  0  0  0  0  0  0  0  0  0  0
  -20.1952  -28.3586   20.5095 O   0  0  0  0  0  0  0  0  0  1  0  0
  -31.4263  -11.1535   18.5969 F   0  0  0  0  0  0  0  0  0  0  0  0
  -28.2514  -11.3111   22.1041 F   0  0  0  0  0  0  0  0  0  0  0  0
  1  2  1  0  0  0  0
  1  5  2  0  0  0  0
  2  6  2  0  0  0  0
  3  8  2  0  0  0  0
  3 15  1  0  0  0  0
  4  9  1  0  0  0  0
  4 15  2  0  0  0  0
  5 17  1  0  0  0  0
  6 19  1  0  0  0  0
  7 10  2  0  0  0  0
  7 18  1  0  0  0  0
  8 21  1  0  0  0  0
  9 21  2  0  0  0  0
 10 22  1  0  0  0  0
 11 12  2  0  0  0  0
 11 23  1  0  0  0  0
 12 24  1  0  0  0  0
 13 20  1  0  0  0  0
 13 22  2  0  0  0  0
 14 24  2  0  0  0  0
 14 25  1  0  0  0  0
 15 26  1  0  0  0  0
 16 26  1  0  0  0  0
 16 27  2  0  0  0  0
 16 28  1  0  0  0  0
 17 19  2  0  0  0  0
 17 33  1  0  0  0  0
 18 20  2  0  0  0  0
 18 34  1  0  0  0  0
 19 45  1  0  0  0  0
 20 35  1  0  0  0  0
 21 79  1  0  0  0  0
 22 80  1  0  0  0  0
 23 25  2  0  0  0  0
 23 79  1  0  0  0  0
 24 81  1  0  0  0  0
 25 82  1  0  0  0  0
 26 62  2  0  0  0  0
 27 63  1  0  0  0  0
 27 67  1  0  0  0  0
 28 68  1  0  0  0  0
 28 74  2  0  0  0  0
 29 46  1  0  0  0  0
 29 69  1  0  0  0  0
 29 75  2  0  0  0  0
 30 59  1  0  0  0  0
 30 64  1  0  0  0  0
 30 76  2  0  0  0  0
 31 60  1  0  0  0  0
 31 70  1  0  0  0  0
 31 77  2  0  0  0  0
 32 65  1  0  0  0  0
 32 71  1  0  0  0  0
 32 78  2  0  0  0  0
 33 36  1  0  0  0  0
 34 46  1  0  0  0  0
 35 64  1  0  0  0  0
 36 38  1  0  0  0  0
 37 39  1  0  0  0  0
 37 41  1  0  0  0  0
 38 45  1  0  0  0  0
 39 48  1  0  0  0  0
 40 42  1  0  0  0  0
 40 47  1  0  0  0  0
 41 65  1  0  0  0  0
 42 66  1  0  0  0  0
 43 47  1  0  0  0  0
 43 66  1  0  0  0  0
 44 48  1  0  0  0  0
 44 65  1  0  0  0  0
 45 69  1  0  0  0  0
 46 64  1  0  0  0  0
 47 54  1  0  0  0  0
 48 63  1  0  0  0  0
 49 60  1  0  0  0  0
 50 61  1  0  0  0  0
 51 61  1  0  0  0  0
 52 61  1  0  0  0  0
 53 72  1  0  0  0  0
 54 80  1  0  0  0  0
 55 57  1  0  0  0  0
 55 66  1  0  0  0  0
 56 58  1  0  0  0  0
 56 71  1  0  0  0  0
 57 73  1  0  0  0  0
 58 73  1  0  0  0  0
 59 61  1  0  0  0  0
 59 70  1  0  0  0  0
 60 72  1  0  0  0  0
 62 63  1  0  0  0  0
M  CHG  2  72   1  73   1
M  ISO  4  32 100  54 101  71 100  80 101
M  END
> <Batch ID>
0130

> <Smiles>
CNC(C)C(=O)NC(C(=O)N1Cc2cc([101O:1][101CH2:1]C3CCN(CCNCC[100NH:0][100C:0](=O)N4CCCC(n5nc(-c6ccc(Oc7ccc(F)cc7F)cc6)c(C(N)=O)c5N)C4)C3)ccc2CC1C(=O)NC1CCCc2ccccc21)C(C)(C)C

> <Shape>
0.240

> <Color>
0.063

> <Negative vol penalty>
0.000

$$$$

  -OEChem-04052320473D

 85 94  0     1  0  0  0  0  0999 V2000
  -24.1421   -9.3804   24.0433 C   0  0  0  0  0  0  0  0  0  0  0  0
  -25.3042  -10.0306   23.6407 C   0  0  0  0  0  0  0  0  0  0  0  0
  -21.8783  -29.3906   20.9194 C   0  0  0  0  0  0  0  0  0  0  0  0
  -22.8520  -27.5359   22.1231 C   0  0  0  0  0  0  0  0  0  0  0  0
  -22.9046   -9.8045   23.5609 C   0  0  0  0  0  0  0  0  0  0  0  0
  -25.2296  -11.1047   22.7547 C   0  0  0  0  0  0  0  0  0  0  0  0
  -28.8080  -16.0742   22.6838 C   0  0  0  0  0  0  0  0  0  0  0  0
  -30.3507  -22.5101   19.4127 C   0  0  0  0  0  0  0  0  0  0  0  0
  -20.6136  -29.0270   21.3820 C   0  0  0  0  0  0  0  0  0  0  0  0
  -21.5874  -27.1723   22.5858 C   0  0  0  0  0  0  0  0  0  0  0  0
  -29.9247  -16.4151   21.9219 C   0  0  0  0  0  0  0  0  0  0  0  0
  -18.8155  -29.3462   24.2277 C   0  0  0  0  0  0  0  0  0  0  0  0
  -17.9856  -30.3586   24.7091 C   0  0  0  0  0  0  0  0  0  0  0  0
  -29.4615  -23.5564   19.1941 C   0  0  0  0  0  0  0  0  0  0  0  0
  -28.5064  -17.6380   20.4013 C   0  0  0  0  0  0  0  0  0  0  0  0
  -16.3436  -29.8147   23.0223 C   0  0  0  0  0  0  0  0  0  0  0  0
  -22.9975  -28.6451   21.2899 C   0  0  0  0  0  0  0  0  0  0  0  0
  -25.2152  -29.8982   21.4284 C   0  0  0  0  0  0  0  0  0  0  0  0
  -22.8139  -10.8905   22.6760 C   0  0  0  0  0  0  0  0  0  0  0  0
  -27.5286  -16.5042   22.3035 C   0  0  0  0  0  0  0  0  0  0  0  0
  -23.9898  -11.5429   22.2590 C   0  0  0  0  0  0  0  0  0  0  0  0
  -27.3754  -17.3033   21.1615 C   0  0  0  0  0  0  0  0  0  0  0  0
  -31.2286  -22.1290   18.4040 C   0  0  0  0  0  0  0  0  0  0  0  0
  -20.4682  -27.9178   22.2152 C   0  0  0  0  0  0  0  0  0  0  0  0
  -29.7737  -17.1947   20.7789 C   0  0  0  0  0  0  0  0  0  0  0  0
  -18.4096  -28.5681   23.1434 C   0  0  0  0  0  0  0  0  0  0  0  0
  -16.7496  -30.5928   24.1065 C   0  0  0  0  0  0  0  0  0  0  0  0
  -17.1736  -28.8023   22.5408 C   0  0  0  0  0  0  0  0  0  0  0  0
  -24.3040  -29.0199   20.8118 C   0  0  0  0  0  0  0  0  0  0  0  0
  -31.1778  -22.8206   17.2045 C   0  0  0  0  0  0  0  0  0  0  0  0
  -29.4899  -24.1843   17.9593 C   0  0  0  0  0  0  0  0  0  0  0  0
  -26.2983  -29.9177   20.5840 C   0  0  0  0  0  0  0  0  0  0  0  0
  -25.0934  -30.6308   22.6548 C   0  0  0  0  0  0  0  0  0  0  0  0
  -24.8336  -15.0489   21.4534 C   0  0  0  0  0  0  0  0  0  0  0  0
  -23.6439  -18.0661   21.5114 C   0  0  0  0  0  0  0  0  0  0  0  0
  -24.2400  -21.4199   21.3030 C   0  0  0  0  0  0  0  0  0  0  0  0
  -28.4331  -26.0174   16.5921 C   0  0  0  0  0  0  0  0  0  0  0  0
  -21.4580  -11.2826   22.1446 C   0  0  0  0  0  0  0  0  0  0  0  0
  -26.3374  -16.1502   23.1509 C   0  0  0  0  0  0  0  0  0  0  0  0
  -26.0260  -17.8073   20.7215 C   0  0  0  0  0  0  0  0  0  0  0  0
  -21.4329  -12.6667   21.5013 C   0  0  0  0  0  0  0  0  0  0  0  0
  -27.4583  -29.3846   15.9683 C   0  0  0  0  0  0  0  0  0  0  0  0
  -22.6201  -12.8392   20.5592 C   0  0  0  0  0  0  0  0  0  0  0  0
  -26.6268  -29.7551   17.1986 C   0  0  0  0  0  0  0  0  0  0  0  0
  -31.9437  -17.3741   17.9001 C   0  0  0  0  0  0  0  0  0  0  0  0
  -27.2379  -27.9315   15.5515 C   0  0  0  0  0  0  0  0  0  0  0  0
  -26.6016  -27.3133   17.8498 C   0  0  0  0  0  0  0  0  0  0  0  0
  -32.7889  -18.6166   18.0902 C   0  0  0  0  0  0  0  0  0  0  0  0
  -23.9477  -12.7277   21.3184 C   0  0  1  0  0  0  0  0  0  0  0  0
  -25.0195  -16.2130   22.3850 C   0  0  1  0  0  0  0  0  0  0  0  0
  -26.8394  -28.7488   18.3465 C   0  0  2  0  0  0  0  0  0  0  0  0
  -30.6569  -17.7180   18.6336 C   0  0  2  0  0  0  0  0  0  1  0  0
  -30.4165  -19.2012   18.3429 C   0  0  2  0  0  0  0  0  0  0  0  0
  -32.0968  -22.4532   16.0857 C   0  0  0  0  0  0  0  0  0  0  0  0
  -29.4534  -19.4289   17.1851 C   0  0  0  0  0  0  0  0  0  0  0  0
  -23.0639  -23.6363   21.3490 C   0  0  0  0  0  0  0  0  0  0  0  0
  -22.6500  -17.5950   18.6653 C   0  0  0  0  0  0  0  0  0  0  0  0
  -22.3540  -20.0702   18.4334 C   0  0  0  0  0  0  0  0  0  0  0  0
  -21.0425  -18.8138   20.1434 C   0  0  0  0  0  0  0  0  0  0  0  0
  -25.7442  -22.2994   23.6953 C   0  0  0  0  0  0  0  0  0  0  0  0
  -32.1898  -20.9999   18.6326 C   0  0  0  0  0  0  0  0  0  0  0  0
  -23.5170  -19.1848   20.5057 C   0  0  1  0  0  0  0  0  0  0  0  0
  -23.7855  -22.5796   22.1708 C   0  0  2  0  0  0  0  0  0  0  0  0
  -22.4162  -18.9050   19.4439 C   0  0  0  0  0  0  0  0  0  0  0  0
  -24.7678  -28.5179   19.6642 N   0  0  0  0  0  0  0  0  0  0  0  0
  -30.3280  -23.8421   16.9552 N   0  0  0  0  0  0  0  0  0  0  0  0
  -25.9822  -29.0827   19.5530 N   0  0  0  0  0  0  0  0  0  0  0  0
  -24.8911  -17.4292   21.5797 N   0  0  0  0  0  0  0  0  0  0  0  0
  -27.4612  -27.0357   16.6884 N   0  0  0  0  0  0  0  0  0  0  0  0
  -27.4806  -30.5675   20.6303 N   0  0  0  0  0  0  0  0  0  0  0  0
  -23.9138  -30.4957   23.3995 N   0  0  0  0  0  0  0  0  0  0  0  0
  -28.5798  -25.2492   17.7467 N   0  0  0  0  0  0  0  0  0  0  0  0
  -24.2242  -13.9539   22.0357 N   0  0  0  0  0  0  0  0  0  0  0  0
  -23.3068  -20.4052   21.2770 N   0  0  0  0  0  0  0  0  0  0  0  0
  -31.7910  -19.7397   17.9320 N   0  3  1  0  0  0  0  0  0  0  0  0
  -24.9562  -23.2193   22.8351 N   0  3  0  0  0  0  0  0  0  0  0  0
  -25.9970  -31.3956   23.0696 O   0  0  0  0  0  0  0  0  0  0  0  0
  -25.2136  -15.1381   20.2917 O   0  0  0  0  0  0  0  0  0  0  0  0
  -22.6745  -17.7731   22.2156 O   0  0  0  0  0  0  0  0  0  0  0  0
  -25.3136  -21.4163   20.7049 O   0  0  0  0  0  0  0  0  0  0  0  0
  -29.1063  -25.8574   15.5708 O   0  0  0  0  0  0  0  0  0  0  0  0
  -19.2343  -27.5628   22.6671 O   0  0  0  0  0  0  0  0  0  0  0  0
  -30.8620  -17.5284   20.0330 O   0  0  0  0  0  0  0  0  0  1  0  0
  -15.9520  -31.5641   24.5699 F   0  0  0  0  0  0  0  0  0  0  0  0
  -16.7777  -28.0573   21.4996 F   0  0  0  0  0  0  0  0  0  0  0  0
  1  2  1  0  0  0  0
  1  5  2  0  0  0  0
  2  6  2  0  0  0  0
  3  9  2  0  0  0  0
  3 17  1  0  0  0  0
  4 10  1  0  0  0  0
  4 17  2  0  0  0  0
  5 19  1  0  0  0  0
  6 21  1  0  0  0  0
  7 11  2  0  0  0  0
  7 20  1  0  0  0  0
  8 14  2  0  0  0  0
  8 23  1  0  0  0  0
  9 24  1  0  0  0  0
 10 24  2  0  0  0  0
 11 25  1  0  0  0  0
 12 13  2  0  0  0  0
 12 26  1  0  0  0  0
 13 27  1  0  0  0  0
 14 31  1  0  0  0  0
 15 22  1  0  0  0  0
 15 25  2  0  0  0  0
 16 27  2  0  0  0  0
 16 28  1  0  0  0  0
 17 29  1  0  0  0  0
 18 29  1  0  0  0  0
 18 32  2  0  0  0  0
 18 33  1  0  0  0  0
 19 21  2  0  0  0  0
 19 38  1  0  0  0  0
 20 22  2  0  0  0  0
 20 39  1  0  0  0  0
 21 49  1  0  0  0  0
 22 40  1  0  0  0  0
 23 30  2  0  0  0  0
 23 61  1  0  0  0  0
 24 82  1  0  0  0  0
 25 83  1  0  0  0  0
 26 28  2  0  0  0  0
 26 82  1  0  0  0  0
 27 84  1  0  0  0  0
 28 85  1  0  0  0  0
 29 65  2  0  0  0  0
 30 54  1  0  0  0  0
 30 66  1  0  0  0  0
 31 66  2  0  0  0  0
 31 72  1  0  0  0  0
 32 67  1  0  0  0  0
 32 70  1  0  0  0  0
 33 71  1  0  0  0  0
 33 77  2  0  0  0  0
 34 50  1  0  0  0  0
 34 73  1  0  0  0  0
 34 78  2  0  0  0  0
 35 62  1  0  0  0  0
 35 68  1  0  0  0  0
 35 79  2  0  0  0  0
 36 63  1  0  0  0  0
 36 74  1  0  0  0  0
 36 80  2  0  0  0  0
 37 69  1  0  0  0  0
 37 72  1  0  0  0  0
 37 81  2  0  0  0  0
 38 41  1  0  0  0  0
 39 50  1  0  0  0  0
 40 68  1  0  0  0  0
 41 43  1  0  0  0  0
 42 44  1  0  0  0  0
 42 46  1  0  0  0  0
 43 49  1  0  0  0  0
 44 51  1  0  0  0  0
 45 48  1  0  0  0  0
 45 52  1  0  0  0  0
 46 69  1  0  0  0  0
 47 51  1  0  0  0  0
 47 69  1  0  0  0  0
 48 75  1  0  0  0  0
 49 73  1  0  0  0  0
 50 68  1  0  0  0  0
 51 67  1  0  0  0  0
 52 53  1  0  0  0  0
 52 83  1  0  0  0  0
 53 55  1  0  0  0  0
 53 75  1  0  0  0  0
 56 63  1  0  0  0  0
 57 64  1  0  0  0  0
 58 64  1  0  0  0  0
 59 64  1  0  0  0  0
 60 76  1  0  0  0  0
 61 75  1  0  0  0  0
 62 64  1  0  0  0  0
 62 74  1  0  0  0  0
 63 76  1  0  0  0  0
 65 67  1  0  0  0  0
M  CHG  2  75   1  76   1
M  ISO  4  37 100  52 101  72 100  83 101
M  END
> <Batch ID>
0130

> <Smiles>
CNC(C)C(=O)NC(C(=O)N1Cc2cc([101O:1][101CH:1]3CCN(Cc4ccc([100NH:0][100C:0](=O)N5CCCC(n6nc(-c7ccc(Oc8ccc(F)cc8F)cc7)c(C(N)=O)c6N)C5)nc4C)C3C)ccc2CC1C(=O)NC1CCCc2ccccc21)C(C)(C)C

> <Shape>
0.232

> <Color>
0.055

> <Negative vol penalty>
0.000

$$$$

  -OEChem-04052320473D

 86 95  0     1  0  0  0  0  0999 V2000
  -23.0073  -30.2150   18.6734 C   0  0  0  0  0  0  0  0  0  0  0  0
  -22.5195  -28.9304   18.4561 C   0  0  0  0  0  0  0  0  0  0  0  0
  -30.8676  -20.2340   20.1805 C   0  0  0  0  0  0  0  0  0  0  0  0
  -28.5248  -19.7640   19.8230 C   0  0  0  0  0  0  0  0  0  0  0  0
  -24.2327  -30.3950   19.3136 C   0  0  0  0  0  0  0  0  0  0  0  0
  -23.2573  -27.8250   18.8780 C   0  0  0  0  0  0  0  0  0  0  0  0
  -22.4026  -21.1722   21.3933 C   0  0  0  0  0  0  0  0  0  0  0  0
  -30.6927  -21.5112   19.6478 C   0  0  0  0  0  0  0  0  0  0  0  0
  -28.3499  -21.0413   19.2904 C   0  0  0  0  0  0  0  0  0  0  0  0
  -22.8152  -19.8644   21.1419 C   0  0  0  0  0  0  0  0  0  0  0  0
  -28.9411  -22.6210   16.3603 C   0  0  0  0  0  0  0  0  0  0  0  0
  -28.1976  -22.7371   15.1859 C   0  0  0  0  0  0  0  0  0  0  0  0
  -24.8817  -20.2986   22.3082 C   0  0  0  0  0  0  0  0  0  0  0  0
  -24.9878  -13.2981   21.6729 C   0  0  0  0  0  0  0  0  0  0  0  0
  -26.6178  -24.1649   16.3272 C   0  0  0  0  0  0  0  0  0  0  0  0
  -29.7837  -19.3604   20.2680 C   0  0  0  0  0  0  0  0  0  0  0  0
  -29.8351  -17.6564   22.1658 C   0  0  0  0  0  0  0  0  0  0  0  0
  -24.9814  -29.2915   19.7522 C   0  0  0  0  0  0  0  0  0  0  0  0
  -23.2325  -22.0578   22.0958 C   0  0  0  0  0  0  0  0  0  0  0  0
  -24.4945  -27.9904   19.5235 C   0  0  0  0  0  0  0  0  0  0  0  0
  -24.4763  -21.6163   22.5694 C   0  0  0  0  0  0  0  0  0  0  0  0
  -24.9132  -11.9436   21.3680 C   0  0  0  0  0  0  0  0  0  0  0  0
  -25.2101  -11.5090   20.0810 C   0  0  0  0  0  0  0  0  0  0  0  0
  -29.4338  -21.9148   19.2028 C   0  0  0  0  0  0  0  0  0  0  0  0
  -24.0561  -19.4283   21.5969 C   0  0  0  0  0  0  0  0  0  0  0  0
  -28.5230  -23.2768   17.5182 C   0  0  0  0  0  0  0  0  0  0  0  0
  -27.0360  -23.5091   15.1693 C   0  0  0  0  0  0  0  0  0  0  0  0
  -27.3614  -24.0488   17.5017 C   0  0  0  0  0  0  0  0  0  0  0  0
  -29.9639  -18.0407   20.8177 C   0  0  0  0  0  0  0  0  0  0  0  0
  -25.5736  -12.4614   19.1426 C   0  0  0  0  0  0  0  0  0  0  0  0
  -25.3614  -14.1704   20.6633 C   0  0  0  0  0  0  0  0  0  0  0  0
  -30.1043  -16.3096   22.1662 C   0  0  0  0  0  0  0  0  0  0  0  0
  -29.5017  -18.4463   23.3150 C   0  0  0  0  0  0  0  0  0  0  0  0
  -24.6495  -24.8208   21.4163 C   0  0  0  0  0  0  0  0  0  0  0  0
  -25.4542  -24.7340   24.5575 C   0  0  0  0  0  0  0  0  0  0  0  0
  -25.9954  -22.8615   27.3589 C   0  0  0  0  0  0  0  0  0  0  0  0
  -29.6889  -12.0673   17.9613 C   0  0  0  0  0  0  0  0  0  0  0  0
  -26.3228  -29.5346   20.3973 C   0  0  0  0  0  0  0  0  0  0  0  0
  -22.7616  -23.4573   22.3819 C   0  0  0  0  0  0  0  0  0  0  0  0
  -25.3960  -22.5217   23.3459 C   0  0  0  0  0  0  0  0  0  0  0  0
  -26.8663  -28.3216   21.1482 C   0  0  0  0  0  0  0  0  0  0  0  0
  -32.6002  -12.9894   19.7918 C   0  0  0  0  0  0  0  0  0  0  0  0
  -23.3454  -10.0615   22.1886 C   0  0  0  0  0  0  0  0  0  0  0  0
  -23.2137  -11.1900   23.1630 C   0  0  0  0  0  0  0  0  0  0  0  0
  -26.7264  -27.0618   20.2996 C   0  0  0  0  0  0  0  0  0  0  0  0
  -32.2431  -14.3539   20.3839 C   0  0  0  0  0  0  0  0  0  0  0  0
  -32.0124  -12.8095   18.3939 C   0  0  0  0  0  0  0  0  0  0  0  0
  -30.2018  -14.4059   18.8908 C   0  0  0  0  0  0  0  0  0  0  0  0
  -24.5141  -10.9783   22.4342 C   0  0  0  0  0  0  0  0  0  0  0  0
  -25.2540  -26.7669   19.9886 C   0  0  1  0  0  0  0  0  0  0  0  0
  -23.9054  -24.4274   22.6610 C   0  0  1  0  0  0  0  0  0  0  0  0
  -30.7255  -14.6120   20.3224 C   0  0  2  0  0  0  0  0  0  0  0  0
  -25.1388  -10.0624   19.7227 C   0  0  0  0  0  0  0  0  0  0  0  0
  -26.6792  -23.0680   29.7646 C   0  0  0  0  0  0  0  0  0  0  0  0
  -28.3548  -25.1280   23.6967 C   0  0  0  0  0  0  0  0  0  0  0  0
  -29.0607  -24.3840   25.9806 C   0  0  0  0  0  0  0  0  0  0  0  0
  -27.6774  -26.4426   25.7134 C   0  0  0  0  0  0  0  0  0  0  0  0
  -23.4224  -21.7477   28.3065 C   0  0  0  0  0  0  0  0  0  0  0  0
  -25.9039  -12.0553   17.7435 C   0  0  0  0  0  0  0  0  0  0  0  0
  -27.3098  -11.4641   17.5939 C   0  0  0  0  0  0  0  0  0  0  0  0
  -25.1416  -16.0454   22.2948 C   0  0  0  0  0  0  0  0  0  0  0  0
  -25.3326  -17.5528   22.3105 C   0  0  0  0  0  0  0  0  0  1  0  0
  -26.6132  -24.1783   25.3493 C   0  0  1  0  0  0  0  0  0  0  0  0
  -25.5134  -23.0259   28.7890 C   0  0  2  0  0  0  0  0  0  0  0  0
  -27.9103  -25.0165   25.1687 C   0  0  0  0  0  0  0  0  0  0  0  0
  -30.2898  -17.0205   20.0196 N   0  0  0  0  0  0  0  0  0  0  0  0
  -25.6571  -13.7857   19.4015 N   0  0  0  0  0  0  0  0  0  0  0  0
  -30.3681  -15.9818   20.8688 N   0  0  0  0  0  0  0  0  0  0  0  0
  -24.8932  -23.8829   23.5948 N   0  0  0  0  0  0  0  0  0  0  0  0
  -30.5704  -13.0670   18.4048 N   0  0  0  0  0  0  0  0  0  0  0  0
  -30.1389  -15.3855   23.1497 N   0  0  0  0  0  0  0  0  0  0  0  0
  -29.2552  -19.8144   23.1368 N   0  0  0  0  0  0  0  0  0  0  0  0
  -25.4329  -15.5164   20.9820 N   0  0  0  0  0  0  0  0  0  0  0  0
  -24.6038  -26.1734   21.1373 N   0  0  0  0  0  0  0  0  0  0  0  0
  -26.1537  -24.0785   26.7303 N   0  0  0  0  0  0  0  0  0  0  0  0
  -28.3385  -12.3909   18.0105 N   0  0  0  0  0  0  0  0  0  0  0  0
  -24.6233  -21.8926   29.1690 N   0  3  0  0  0  0  0  0  0  0  0  0
  -29.4408  -17.9567   24.4683 O   0  0  0  0  0  0  0  0  0  0  0  0
  -25.2239  -23.9610   20.7586 O   0  0  0  0  0  0  0  0  0  0  0  0
  -25.0565  -25.8783   24.7898 O   0  0  0  0  0  0  0  0  0  0  0  0
  -26.2136  -21.7636   26.8516 O   0  0  0  0  0  0  0  0  0  0  0  0
  -30.0764  -10.9658   17.5568 O   0  0  0  0  0  0  0  0  0  0  0  0
  -29.2627  -23.1612   18.6832 O   0  0  0  0  0  0  0  0  0  0  0  0
  -24.4615  -18.1525   21.3523 O   0  0  0  0  0  0  0  0  0  1  0  0
  -26.3229  -23.6218   14.0411 F   0  0  0  0  0  0  0  0  0  0  0  0
  -26.9553  -24.6821   18.6107 F   0  0  0  0  0  0  0  0  0  0  0  0
  1  2  1  0  0  0  0
  1  5  2  0  0  0  0
  2  6  2  0  0  0  0
  3  8  2  0  0  0  0
  3 16  1  0  0  0  0
  4  9  1  0  0  0  0
  4 16  2  0  0  0  0
  5 18  1  0  0  0  0
  6 20  1  0  0  0  0
  7 10  2  0  0  0  0
  7 19  1  0  0  0  0
  8 24  1  0  0  0  0
  9 24  2  0  0  0  0
 10 25  1  0  0  0  0
 11 12  2  0  0  0  0
 11 26  1  0  0  0  0
 12 27  1  0  0  0  0
 13 21  1  0  0  0  0
 13 25  2  0  0  0  0
 14 22  2  0  0  0  0
 14 31  1  0  0  0  0
 15 27  2  0  0  0  0
 15 28  1  0  0  0  0
 16 29  1  0  0  0  0
 17 29  1  0  0  0  0
 17 32  2  0  0  0  0
 17 33  1  0  0  0  0
 18 20  2  0  0  0  0
 18 38  1  0  0  0  0
 19 21  2  0  0  0  0
 19 39  1  0  0  0  0
 20 50  1  0  0  0  0
 21 40  1  0  0  0  0
 22 23  1  0  0  0  0
 22 49  1  0  0  0  0
 23 30  2  0  0  0  0
 23 53  1  0  0  0  0
 24 83  1  0  0  0  0
 25 84  1  0  0  0  0
 26 28  2  0  0  0  0
 26 83  1  0  0  0  0
 27 85  1  0  0  0  0
 28 86  1  0  0  0  0
 29 66  2  0  0  0  0
 30 59  1  0  0  0  0
 30 67  1  0  0  0  0
 31 67  2  0  0  0  0
 31 73  1  0  0  0  0
 32 68  1  0  0  0  0
 32 71  1  0  0  0  0
 33 72  1  0  0  0  0
 33 78  2  0  0  0  0
 34 51  1  0  0  0  0
 34 74  1  0  0  0  0
 34 79  2  0  0  0  0
 35 63  1  0  0  0  0
 35 69  1  0  0  0  0
 35 80  2  0  0  0  0
 36 64  1  0  0  0  0
 36 75  1  0  0  0  0
 36 81  2  0  0  0  0
 37 70  1  0  0  0  0
 37 76  1  0  0  0  0
 37 82  2  0  0  0  0
 38 41  1  0  0  0  0
 39 51  1  0  0  0  0
 40 69  1  0  0  0  0
 41 45  1  0  0  0  0
 42 46  1  0  0  0  0
 42 47  1  0  0  0  0
 43 44  1  0  0  0  0
 43 49  1  0  0  0  0
 44 49  1  0  0  0  0
 45 50  1  0  0  0  0
 46 52  1  0  0  0  0
 47 70  1  0  0  0  0
 48 52  1  0  0  0  0
 48 70  1  0  0  0  0
 50 74  1  0  0  0  0
 51 69  1  0  0  0  0
 52 68  1  0  0  0  0
 54 64  1  0  0  0  0
 55 65  1  0  0  0  0
 56 65  1  0  0  0  0
 57 65  1  0  0  0  0
 58 77  1  0  0  0  0
 59 60  1  0  0  0  0
 60 76  1  0  0  0  0
 61 62  1  0  0  0  0
 61 73  1  0  0  0  0
 62 84  1  0  0  0  0
 63 65  1  0  0  0  0
 63 75  1  0  0  0  0
 64 77  1  0  0  0  0
 66 68  1  0  0  0  0
M  CHG  1  77   1
M  ISO  4  37 100  62 101  76 100  84 101
M  END
> <Batch ID>
0130

> <Smiles>
CNC(C)C(=O)NC(C(=O)N1Cc2cc([101O:1][101CH2:1]CNc3cc(C4CC4)c(C)c(CC[100NH:0][100C:0](=O)N4CCCC(n5nc(-c6ccc(Oc7ccc(F)cc7F)cc6)c(C(N)=O)c5N)C4)n3)ccc2CC1C(=O)NC1CCCc2ccccc21)C(C)(C)C

> <Shape>
0.194

> <Color>
0.077

> <Negative vol penalty>
0.000

$$$$

  -OEChem-04052320473D

 84 92  0     1  0  0  0  0  0999 V2000
  -25.4522  -26.4889   20.7587 C   0  0  0  0  0  0  0  0  0  0  0  0
  -25.3202  -25.1262   21.0057 C   0  0  0  0  0  0  0  0  0  0  0  0
  -23.2889   -9.7984   19.9152 C   0  0  0  0  0  0  0  0  0  0  0  0
  -23.7380   -9.9431   22.2847 C   0  0  0  0  0  0  0  0  0  0  0  0
  -26.5080  -27.2002   21.3273 C   0  0  0  0  0  0  0  0  0  0  0  0
  -26.2447  -24.4737   21.8206 C   0  0  0  0  0  0  0  0  0  0  0  0
  -25.1378  -19.8329   25.6603 C   0  0  0  0  0  0  0  0  0  0  0  0
  -29.7477  -16.1960   23.9828 C   0  0  0  0  0  0  0  0  0  0  0  0
  -29.7169  -14.5104   25.7132 C   0  0  0  0  0  0  0  0  0  0  0  0
  -22.5624   -8.6263   20.1245 C   0  0  0  0  0  0  0  0  0  0  0  0
  -23.0114   -8.7709   22.4940 C   0  0  0  0  0  0  0  0  0  0  0  0
  -25.3078  -18.4544   25.5393 C   0  0  0  0  0  0  0  0  0  0  0  0
  -28.5033  -16.6583   24.4109 C   0  0  0  0  0  0  0  0  0  0  0  0
  -28.4725  -14.9726   26.1413 C   0  0  0  0  0  0  0  0  0  0  0  0
  -19.7642   -7.8602   22.7106 C   0  0  0  0  0  0  0  0  0  0  0  0
  -18.8611   -7.8404   23.7734 C   0  0  0  0  0  0  0  0  0  0  0  0
  -27.4419  -18.6261   26.6509 C   0  0  0  0  0  0  0  0  0  0  0  0
  -20.0662   -5.9948   24.7629 C   0  0  0  0  0  0  0  0  0  0  0  0
  -23.8767  -10.4568   20.9954 C   0  0  0  0  0  0  0  0  0  0  0  0
  -24.1363  -12.9865   20.7926 C   0  0  0  0  0  0  0  0  0  0  0  0
  -27.4404  -26.5581   22.1573 C   0  0  0  0  0  0  0  0  0  0  0  0
  -26.1252  -20.6211   26.2688 C   0  0  0  0  0  0  0  0  0  0  0  0
  -27.3148  -25.1768   22.3997 C   0  0  0  0  0  0  0  0  0  0  0  0
  -27.2808  -20.0140   26.7807 C   0  0  0  0  0  0  0  0  0  0  0  0
  -30.3545  -15.1221   24.6339 C   0  0  0  0  0  0  0  0  0  0  0  0
  -22.4236   -8.1125   21.4138 C   0  0  0  0  0  0  0  0  0  0  0  0
  -27.8657  -16.0466   25.4902 C   0  0  0  0  0  0  0  0  0  1  0  0
  -26.4613  -17.8512   26.0320 C   0  0  0  0  0  0  0  0  0  0  0  0
  -20.8183   -6.9474   22.6739 C   0  0  0  0  0  0  0  0  0  0  0  0
  -19.0121   -6.9077   24.7996 C   0  0  0  0  0  0  0  0  0  0  0  0
  -20.9693   -6.0147   23.7000 C   0  0  0  0  0  0  0  0  0  0  0  0
  -24.6278  -11.6674   20.7798 C   0  0  0  0  0  0  0  0  0  0  0  0
  -25.2379  -13.7659   20.5371 C   0  0  0  0  0  0  0  0  0  0  0  0
  -22.8031  -13.4645   21.0157 C   0  0  0  0  0  0  0  0  0  0  0  0
  -27.9936  -23.0088   25.3137 C   0  0  0  0  0  0  0  0  0  0  0  0
  -28.8341  -23.0870   28.4458 C   0  0  0  0  0  0  0  0  0  0  0  0
  -29.0932  -21.4305   31.4182 C   0  0  0  0  0  0  0  0  0  0  0  0
  -31.1083  -12.9244   21.3623 C   0  0  0  0  0  0  0  0  0  0  0  0
  -28.5920  -27.3592   22.7112 C   0  0  0  0  0  0  0  0  0  0  0  0
  -25.9146  -22.1032   26.4155 C   0  0  0  0  0  0  0  0  0  0  0  0
  -28.3615  -20.8129   27.4606 C   0  0  0  0  0  0  0  0  0  0  0  0
  -29.3143  -26.6694   23.8656 C   0  0  0  0  0  0  0  0  0  0  0  0
  -29.4616  -13.6585   18.2921 C   0  0  0  0  0  0  0  0  0  0  0  0
  -29.5900  -25.2081   23.5259 C   0  0  0  0  0  0  0  0  0  0  0  0
  -27.9917  -13.3505   18.5827 C   0  0  0  0  0  0  0  0  0  0  0  0
  -30.3944  -12.6803   19.0028 C   0  0  0  0  0  0  0  0  0  0  0  0
  -28.7065  -12.2539   20.7472 C   0  0  0  0  0  0  0  0  0  0  0  0
  -28.2832  -24.4386   23.2982 C   0  0  1  0  0  0  0  0  0  0  0  0
  -27.2172  -22.8771   26.5934 C   0  0  1  0  0  0  0  0  0  0  0  0
  -27.7290  -13.2480   20.0972 C   0  0  2  0  0  0  0  0  0  0  0  0
  -29.8516  -21.7457   33.7895 C   0  0  0  0  0  0  0  0  0  0  0  0
  -33.7593  -16.2747   26.8846 C   0  0  0  0  0  0  0  0  0  0  0  0
  -31.7405  -22.8735   27.5420 C   0  0  0  0  0  0  0  0  0  0  0  0
  -32.3504  -22.2422   29.8868 C   0  0  0  0  0  0  0  0  0  0  0  0
  -31.3471  -24.4779   29.4197 C   0  0  0  0  0  0  0  0  0  0  0  0
  -26.3838  -20.8893   32.4790 C   0  0  0  0  0  0  0  0  0  0  0  0
  -31.6685  -13.1422   23.7701 C   0  0  0  0  0  0  0  0  0  0  0  0
  -33.7747  -16.8999   24.4060 C   0  0  0  0  0  0  0  0  0  0  0  0
  -31.6849  -14.6278   24.1766 C   0  0  2  0  0  0  0  0  0  0  0  0
  -29.8927  -22.4142   29.2857 C   0  0  1  0  0  0  0  0  0  0  0  0
  -28.6770  -21.8165   32.8261 C   0  0  2  0  0  0  0  0  0  0  0  0
  -33.0225  -16.2264   25.5528 C   0  0  1  0  0  0  0  0  0  0  0  0
  -31.3134  -22.9869   29.0191 C   0  0  0  0  0  0  0  0  0  0  0  0
  -25.9396  -11.6083   20.5353 N   0  0  0  0  0  0  0  0  0  0  0  0
  -26.2816  -12.9001   20.3920 N   0  0  0  0  0  0  0  0  0  0  0  0
  -28.1121  -22.2594   27.5741 N   0  0  0  0  0  0  0  0  0  0  0  0
  -30.0941  -12.6314   20.4357 N   0  0  0  0  0  0  0  0  0  0  0  0
  -25.4059  -15.1007   20.4245 N   0  0  0  0  0  0  0  0  0  0  0  0
  -21.7903  -12.5280   21.2640 N   0  0  0  0  0  0  0  0  0  0  0  0
  -33.9954  -18.3055   24.6563 N   0  0  0  0  0  0  0  0  0  0  0  0
  -27.6576  -24.1195   24.5636 N   0  0  0  0  0  0  0  0  0  0  0  0
  -29.4510  -22.5328   30.6711 N   0  0  0  0  0  0  0  0  0  0  0  0
  -30.7377  -12.8611   22.6999 N   0  0  0  0  0  0  0  0  0  0  0  0
  -27.6087  -20.9020   33.3196 N   0  3  0  0  0  0  0  0  0  0  0  0
  -32.7666  -14.8108   25.2083 N   0  3  0  0  0  0  0  0  0  0  0  0
  -22.5152  -14.6849   20.9791 O   0  0  0  0  0  0  0  0  0  0  0  0
  -28.8361  -22.1658   25.0288 O   0  0  0  0  0  0  0  0  0  0  0  0
  -28.6494  -24.3009   28.5640 O   0  0  0  0  0  0  0  0  0  0  0  0
  -29.1037  -20.2671   31.0221 O   0  0  0  0  0  0  0  0  0  0  0  0
  -32.2576  -13.2256   21.0224 O   0  0  0  0  0  0  0  0  0  0  0  0
  -26.6300  -16.5060   25.9146 O   0  0  0  0  0  0  0  0  0  1  0  0
  -21.7145   -6.9689   21.6184 O   0  0  0  0  0  0  0  0  0  0  0  0
  -18.1457   -6.8897   25.8209 F   0  0  0  0  0  0  0  0  0  0  0  0
  -21.9806   -5.1360   23.6708 F   0  0  0  0  0  0  0  0  0  0  0  0
  1  2  1  0  0  0  0
  1  5  2  0  0  0  0
  2  6  2  0  0  0  0
  3 10  2  0  0  0  0
  3 19  1  0  0  0  0
  4 11  1  0  0  0  0
  4 19  2  0  0  0  0
  5 21  1  0  0  0  0
  6 23  1  0  0  0  0
  7 12  2  0  0  0  0
  7 22  1  0  0  0  0
  8 13  2  0  0  0  0
  8 25  1  0  0  0  0
  9 14  1  0  0  0  0
  9 25  2  0  0  0  0
 10 26  1  0  0  0  0
 11 26  2  0  0  0  0
 12 28  1  0  0  0  0
 13 27  1  0  0  0  0
 14 27  2  0  0  0  0
 15 16  2  0  0  0  0
 15 29  1  0  0  0  0
 16 30  1  0  0  0  0
 17 24  1  0  0  0  0
 17 28  2  0  0  0  0
 18 30  2  0  0  0  0
 18 31  1  0  0  0  0
 19 32  1  0  0  0  0
 20 32  1  0  0  0  0
 20 33  2  0  0  0  0
 20 34  1  0  0  0  0
 21 23  2  0  0  0  0
 21 39  1  0  0  0  0
 22 24  2  0  0  0  0
 22 40  1  0  0  0  0
 23 48  1  0  0  0  0
 24 41  1  0  0  0  0
 25 59  1  0  0  0  0
 26 82  1  0  0  0  0
 27 81  1  0  0  0  0
 28 81  1  0  0  0  0
 29 31  2  0  0  0  0
 29 82  1  0  0  0  0
 30 83  1  0  0  0  0
 31 84  1  0  0  0  0
 32 64  2  0  0  0  0
 33 65  1  0  0  0  0
 33 68  1  0  0  0  0
 34 69  1  0  0  0  0
 34 76  2  0  0  0  0
 35 49  1  0  0  0  0
 35 71  1  0  0  0  0
 35 77  2  0  0  0  0
 36 60  1  0  0  0  0
 36 66  1  0  0  0  0
 36 78  2  0  0  0  0
 37 61  1  0  0  0  0
 37 72  1  0  0  0  0
 37 79  2  0  0  0  0
 38 67  1  0  0  0  0
 38 73  1  0  0  0  0
 38 80  2  0  0  0  0
 39 42  1  0  0  0  0
 40 49  1  0  0  0  0
 41 66  1  0  0  0  0
 42 44  1  0  0  0  0
 43 45  1  0  0  0  0
 43 46  1  0  0  0  0
 44 48  1  0  0  0  0
 45 50  1  0  0  0  0
 46 67  1  0  0  0  0
 47 50  1  0  0  0  0
 47 67  1  0  0  0  0
 48 71  1  0  0  0  0
 49 66  1  0  0  0  0
 50 65  1  0  0  0  0
 51 61  1  0  0  0  0
 52 62  1  0  0  0  0
 53 63  1  0  0  0  0
 54 63  1  0  0  0  0
 55 63  1  0  0  0  0
 56 74  1  0  0  0  0
 57 59  1  0  0  0  0
 57 73  1  0  0  0  0
 58 62  1  0  0  0  0
 58 70  1  0  0  0  0
 59 75  1  0  0  0  0
 60 63  1  0  0  0  0
 60 72  1  0  0  0  0
 61 74  1  0  0  0  0
 62 75  1  0  0  0  0
 64 65  1  0  0  0  0
M  CHG  2  74   1  75   1
M  ISO  4  27 101  38 100  73 100  81 101
M  END
> <Batch ID>
0130

> <Smiles>
CNC(C)C(=O)NC(C(=O)N1Cc2cc([101O:1][101c:1]3ccc(C(C[100NH:0][100C:0](=O)N4CCCC(n5nc(-c6ccc(Oc7ccc(F)cc7F)cc6)c(C(N)=O)c5N)C4)NC(C)CN)cc3)ccc2CC1C(=O)NC1CCCc2ccccc21)C(C)(C)C

> <Shape>
0.146

> <Color>
0.167

> <Negative vol penalty>
0.000

$$$$

  -OEChem-04052320473D

 88 97  0     1  0  0  0  0  0999 V2000
  -20.1866  -22.5362   17.2684 C   0  0  0  0  0  0  0  0  0  0  0  0
  -21.3769  -21.8823   16.9710 C   0  0  0  0  0  0  0  0  0  0  0  0
  -22.0593  -28.6530   21.2790 C   0  0  0  0  0  0  0  0  0  0  0  0
  -23.4760  -29.1005   23.1842 C   0  0  0  0  0  0  0  0  0  0  0  0
  -19.5725  -22.3310   18.5021 C   0  0  0  0  0  0  0  0  0  0  0  0
  -21.9473  -21.0139   17.9024 C   0  0  0  0  0  0  0  0  0  0  0  0
  -27.2135  -17.9523   17.7574 C   0  0  0  0  0  0  0  0  0  0  0  0
  -32.0785  -20.3314   21.7096 C   0  0  0  0  0  0  0  0  0  0  0  0
  -20.9775  -28.4401   22.1334 C   0  0  0  0  0  0  0  0  0  0  0  0
  -22.3942  -28.8877   24.0386 C   0  0  0  0  0  0  0  0  0  0  0  0
  -28.5310  -18.1510   18.1679 C   0  0  0  0  0  0  0  0  0  0  0  0
  -17.7578  -28.1327   23.7930 C   0  0  0  0  0  0  0  0  0  0  0  0
  -16.5383  -28.7183   23.4535 C   0  0  0  0  0  0  0  0  0  0  0  0
  -31.8258  -19.1867   20.9618 C   0  0  0  0  0  0  0  0  0  0  0  0
  -28.0794  -16.9202   20.1928 C   0  0  0  0  0  0  0  0  0  0  0  0
  -17.5615  -30.9049   23.5499 C   0  0  0  0  0  0  0  0  0  0  0  0
  -23.3086  -28.9831   21.8044 C   0  0  0  0  0  0  0  0  0  0  0  0
  -24.8240  -30.4214   20.3407 C   0  0  0  0  0  0  0  0  0  0  0  0
  -20.1428  -21.4692   19.4533 C   0  0  0  0  0  0  0  0  0  0  0  0
  -26.3146  -17.2442   18.5679 C   0  0  0  0  0  0  0  0  0  0  0  0
  -21.3301  -20.7752   19.1437 C   0  0  0  0  0  0  0  0  0  0  0  0
  -26.7517  -16.7117   19.7891 C   0  0  0  0  0  0  0  0  0  0  0  0
  -31.0382  -21.2051   22.0061 C   0  0  0  0  0  0  0  0  0  0  0  0
  -21.1449  -28.5575   23.5132 C   0  0  0  0  0  0  0  0  0  0  0  0
  -28.9633  -17.6374   19.3870 C   0  0  0  0  0  0  0  0  0  0  0  0
  -18.8792  -28.9331   24.0110 C   0  0  0  0  0  0  0  0  0  0  0  0
  -16.4401  -30.1044   23.3320 C   0  0  0  0  0  0  0  0  0  0  0  0
  -18.7811  -30.3192   23.8894 C   0  0  0  0  0  0  0  0  0  0  0  0
  -24.4266  -29.2026   20.9223 C   0  0  0  0  0  0  0  0  0  0  0  0
  -29.7735  -20.8913   21.5350 C   0  0  0  0  0  0  0  0  0  0  0  0
  -30.5259  -18.9632   20.5373 C   0  0  0  0  0  0  0  0  0  1  0  0
  -25.9311  -30.1006   19.5938 C   0  0  0  0  0  0  0  0  0  0  0  0
  -24.2443  -31.7269   20.4645 C   0  0  0  0  0  0  0  0  0  0  0  0
  -23.5827  -17.9472   20.0331 C   0  0  0  0  0  0  0  0  0  0  0  0
  -23.5862  -14.7766   20.7184 C   0  0  0  0  0  0  0  0  0  0  0  0
  -25.3822  -11.9051   21.1379 C   0  0  0  0  0  0  0  0  0  0  0  0
  -29.9684  -25.6951   19.9728 C   0  0  0  0  0  0  0  0  0  0  0  0
  -19.4317  -21.2777   20.7698 C   0  0  0  0  0  0  0  0  0  0  0  0
  -24.9039  -17.0155   18.0985 C   0  0  0  0  0  0  0  0  0  0  0  0
  -25.8315  -15.9268   20.6867 C   0  0  0  0  0  0  0  0  0  0  0  0
  -20.3327  -20.6930   21.8526 C   0  0  0  0  0  0  0  0  0  0  0  0
  -27.8960  -26.4655   17.1821 C   0  0  0  0  0  0  0  0  0  0  0  0
  -21.0616  -19.4694   21.3176 C   0  0  0  0  0  0  0  0  0  0  0  0
  -26.8077  -27.3643   17.7717 C   0  0  0  0  0  0  0  0  0  0  0  0
  -27.1917  -21.9416   19.9134 C   0  0  0  0  0  0  0  0  0  0  0  0
  -26.3593  -22.3343   22.2657 C   0  0  0  0  0  0  0  0  0  0  0  0
  -28.3128  -25.3686   18.1593 C   0  0  0  0  0  0  0  0  0  0  0  0
  -27.6283  -26.7478   20.0837 C   0  0  0  0  0  0  0  0  0  0  0  0
  -25.7526  -21.7932   19.4403 C   0  0  0  0  0  0  0  0  0  0  0  0
  -24.9271  -22.1827   21.7727 C   0  0  0  0  0  0  0  0  0  0  0  0
  -21.9849  -19.8496   20.1532 C   0  0  1  0  0  0  0  0  0  0  0  0
  -23.9350  -16.7209   19.2394 C   0  0  1  0  0  0  0  0  0  0  0  0
  -27.2148  -27.9033   19.1563 C   0  0  2  0  0  0  0  0  0  0  0  0
  -27.3383  -21.5457   21.3875 C   0  0  0  0  0  0  0  0  0  0  0  0
  -25.1125   -9.4821   21.7327 C   0  0  0  0  0  0  0  0  0  0  0  0
  -23.2386  -15.5380   23.6526 C   0  0  0  0  0  0  0  0  0  0  0  0
  -23.9226  -13.2089   24.2658 C   0  0  0  0  0  0  0  0  0  0  0  0
  -21.8621  -13.5860   22.9112 C   0  0  0  0  0  0  0  0  0  0  0  0
  -26.4493  -11.0244   18.5217 C   0  0  0  0  0  0  0  0  0  0  0  0
  -31.3137  -22.4323   22.8066 C   0  0  0  0  0  0  0  0  0  0  0  0
  -31.5213  -26.1248   21.8605 C   0  0  0  0  0  0  0  0  0  0  0  0
  -31.5437  -24.9193   22.7817 C   0  0  0  0  0  0  0  0  0  0  0  0
  -24.1278  -13.9263   21.8421 C   0  0  1  0  0  0  0  0  0  0  0  0
  -25.1736  -10.4995   20.6040 C   0  0  2  0  0  0  0  0  0  0  0  0
  -23.3049  -14.0812   23.1521 C   0  0  0  0  0  0  0  0  0  0  0  0
  -25.2168  -28.1835   20.5747 N   0  0  0  0  0  0  0  0  0  0  0  0
  -29.4896  -19.7889   20.8057 N   0  0  0  0  0  0  0  0  0  0  0  0
  -26.1219  -28.7612   19.7665 N   0  0  0  0  0  0  0  0  0  0  0  0
  -24.4601  -15.7354   20.1867 N   0  0  0  0  0  0  0  0  0  0  0  0
  -28.6883  -25.9463   19.4521 N   0  0  0  0  0  0  0  0  0  0  0  0
  -26.7503  -30.8363   18.8127 N   0  0  0  0  0  0  0  0  0  0  0  0
  -23.1089  -31.8800   21.2718 N   0  0  0  0  0  0  0  0  0  0  0  0
  -28.7100  -21.7794   21.8341 N   0  0  0  0  0  0  0  0  0  0  0  0
  -22.4945  -18.6423   19.5412 N   0  0  0  0  0  0  0  0  0  0  0  0
  -24.1848  -12.5613   21.3301 N   0  0  0  0  0  0  0  0  0  0  0  0
  -30.2452  -26.2856   21.1998 N   0  0  0  0  0  0  0  0  0  0  0  0
  -24.8562  -22.5837   20.3359 N   0  3  0  0  0  0  0  0  0  0  0  0
  -26.2888  -10.1216   19.6905 N   0  3  0  0  0  0  0  0  0  0  0  0
  -31.3271  -23.6791   21.9922 N   0  3  0  0  0  0  0  0  0  0  0  0
  -24.7093  -32.7249   19.8635 O   0  0  0  0  0  0  0  0  0  0  0  0
  -24.2481  -18.2401   21.0196 O   0  0  0  0  0  0  0  0  0  0  0  0
  -22.4328  -14.5918   20.3221 O   0  0  0  0  0  0  0  0  0  0  0  0
  -26.4957  -12.3728   21.3656 O   0  0  0  0  0  0  0  0  0  0  0  0
  -30.8048  -25.0008   19.3851 O   0  0  0  0  0  0  0  0  0  0  0  0
  -20.0895  -28.3501   24.3472 O   0  0  0  0  0  0  0  0  0  0  0  0
  -30.2486  -17.8304   19.7904 O   0  0  0  0  0  0  0  0  0  1  0  0
  -15.2693  -30.6666   23.0044 F   0  0  0  0  0  0  0  0  0  0  0  0
  -19.8552  -31.0932   24.0965 F   0  0  0  0  0  0  0  0  0  0  0  0
  1  2  1  0  0  0  0
  1  5  2  0  0  0  0
  2  6  2  0  0  0  0
  3  9  2  0  0  0  0
  3 17  1  0  0  0  0
  4 10  1  0  0  0  0
  4 17  2  0  0  0  0
  5 19  1  0  0  0  0
  6 21  1  0  0  0  0
  7 11  2  0  0  0  0
  7 20  1  0  0  0  0
  8 14  2  0  0  0  0
  8 23  1  0  0  0  0
  9 24  1  0  0  0  0
 10 24  2  0  0  0  0
 11 25  1  0  0  0  0
 12 13  2  0  0  0  0
 12 26  1  0  0  0  0
 13 27  1  0  0  0  0
 14 31  1  0  0  0  0
 15 22  1  0  0  0  0
 15 25  2  0  0  0  0
 16 27  2  0  0  0  0
 16 28  1  0  0  0  0
 17 29  1  0  0  0  0
 18 29  1  0  0  0  0
 18 32  2  0  0  0  0
 18 33  1  0  0  0  0
 19 21  2  0  0  0  0
 19 38  1  0  0  0  0
 20 22  2  0  0  0  0
 20 39  1  0  0  0  0
 21 51  1  0  0  0  0
 22 40  1  0  0  0  0
 23 30  2  0  0  0  0
 23 60  1  0  0  0  0
 24 85  1  0  0  0  0
 25 86  1  0  0  0  0
 26 28  2  0  0  0  0
 26 85  1  0  0  0  0
 27 87  1  0  0  0  0
 28 88  1  0  0  0  0
 29 66  2  0  0  0  0
 30 67  1  0  0  0  0
 30 73  1  0  0  0  0
 31 67  2  0  0  0  0
 31 86  1  0  0  0  0
 32 68  1  0  0  0  0
 32 71  1  0  0  0  0
 33 72  1  0  0  0  0
 33 80  2  0  0  0  0
 34 52  1  0  0  0  0
 34 74  1  0  0  0  0
 34 81  2  0  0  0  0
 35 63  1  0  0  0  0
 35 69  1  0  0  0  0
 35 82  2  0  0  0  0
 36 64  1  0  0  0  0
 36 75  1  0  0  0  0
 36 83  2  0  0  0  0
 37 70  1  0  0  0  0
 37 76  1  0  0  0  0
 37 84  2  0  0  0  0
 38 41  1  0  0  0  0
 39 52  1  0  0  0  0
 40 69  1  0  0  0  0
 41 43  1  0  0  0  0
 42 44  1  0  0  0  0
 42 47  1  0  0  0  0
 43 51  1  0  0  0  0
 44 53  1  0  0  0  0
 45 49  1  0  0  0  0
 45 54  1  0  0  0  0
 46 50  1  0  0  0  0
 46 54  1  0  0  0  0
 47 70  1  0  0  0  0
 48 53  1  0  0  0  0
 48 70  1  0  0  0  0
 49 77  1  0  0  0  0
 50 77  1  0  0  0  0
 51 74  1  0  0  0  0
 52 69  1  0  0  0  0
 53 68  1  0  0  0  0
 54 73  1  0  0  0  0
 55 64  1  0  0  0  0
 56 65  1  0  0  0  0
 57 65  1  0  0  0  0
 58 65  1  0  0  0  0
 59 78  1  0  0  0  0
 60 79  1  0  0  0  0
 61 62  1  0  0  0  0
 61 76  1  0  0  0  0
 62 79  1  0  0  0  0
 63 65  1  0  0  0  0
 63 75  1  0  0  0  0
 64 78  1  0  0  0  0
 66 68  1  0  0  0  0
M  CHG  3  77   1  78   1  79   1
M  ISO  4  31 101  37 100  76 100  86 101
M  END
> <Batch ID>
0130

> <Smiles>
CNC(C)C(=O)NC(C(=O)N1Cc2cc([101O:1][101c:1]3ccc(CNCC[100NH:0][100C:0](=O)N4CCCC(n5nc(-c6ccc(Oc7ccc(F)cc7F)cc6)c(C(N)=O)c5N)C4)c(NC4CCNCC4)n3)ccc2CC1C(=O)NC1CCCc2ccccc21)C(C)(C)C

> <Shape>
0.237

> <Color>
0.082

> <Negative vol penalty>
0.000

$$$$

  -OEChem-04052320473D

 79 87  0     1  0  0  0  0  0999 V2000
  -26.2557  -33.1308   18.4077 C   0  0  0  0  0  0  0  0  0  0  0  0
  -26.8579  -31.9800   18.9060 C   0  0  0  0  0  0  0  0  0  0  0  0
  -23.1007   -9.8373   19.9341 C   0  0  0  0  0  0  0  0  0  0  0  0
  -23.8695   -9.8462   22.2244 C   0  0  0  0  0  0  0  0  0  0  0  0
  -25.3740  -33.0446   17.3311 C   0  0  0  0  0  0  0  0  0  0  0  0
  -26.5779  -30.7420   18.3287 C   0  0  0  0  0  0  0  0  0  0  0  0
  -30.4333  -26.0292   17.6725 C   0  0  0  0  0  0  0  0  0  0  0  0
  -29.1411  -18.7571   21.0185 C   0  0  0  0  0  0  0  0  0  0  0  0
  -31.3554  -18.5679   20.0707 C   0  0  0  0  0  0  0  0  0  0  0  0
  -28.8580  -19.8089   20.1472 C   0  0  0  0  0  0  0  0  0  0  0  0
  -31.0723  -19.6197   19.1994 C   0  0  0  0  0  0  0  0  0  0  0  0
  -22.3825   -8.6671   20.1797 C   0  0  0  0  0  0  0  0  0  0  0  0
  -23.1512   -8.6760   22.4701 C   0  0  0  0  0  0  0  0  0  0  0  0
  -30.6269  -24.8652   18.4152 C   0  0  0  0  0  0  0  0  0  0  0  0
  -19.9432   -7.8061   23.0802 C   0  0  0  0  0  0  0  0  0  0  0  0
  -19.1920   -7.7429   24.2538 C   0  0  0  0  0  0  0  0  0  0  0  0
  -29.1880  -23.6642   16.8965 C   0  0  0  0  0  0  0  0  0  0  0  0
  -20.4772   -5.8277   24.9732 C   0  0  0  0  0  0  0  0  0  0  0  0
  -23.8443  -10.4268   20.9564 C   0  0  0  0  0  0  0  0  0  0  0  0
  -24.1320  -12.9594   20.8509 C   0  0  0  0  0  0  0  0  0  0  0  0
  -25.0904  -31.8062   16.7341 C   0  0  0  0  0  0  0  0  0  0  0  0
  -29.6055  -26.0219   16.5406 C   0  0  0  0  0  0  0  0  0  0  0  0
  -25.6905  -30.6389   17.2439 C   0  0  0  0  0  0  0  0  0  0  0  0
  -28.9876  -24.8287   16.1397 C   0  0  0  0  0  0  0  0  0  0  0  0
  -30.3898  -18.1366   20.9803 C   0  0  0  0  0  0  0  0  0  0  0  0
  -29.8236  -20.2402   19.2377 C   0  0  0  0  0  0  0  0  0  0  0  0
  -22.4077   -8.0864   21.4477 C   0  0  0  0  0  0  0  0  0  0  0  0
  -30.0019  -23.6832   18.0289 C   0  0  0  0  0  0  0  0  0  0  0  0
  -20.9613   -6.8801   22.8531 C   0  0  0  0  0  0  0  0  0  0  0  0
  -19.4590   -6.7537   25.2003 C   0  0  0  0  0  0  0  0  0  0  0  0
  -21.2283   -5.8909   23.7996 C   0  0  0  0  0  0  0  0  0  0  0  0
  -24.5869  -11.6354   20.7032 C   0  0  0  0  0  0  0  0  0  0  0  0
  -25.2065  -13.7341   20.4881 C   0  0  0  0  0  0  0  0  0  0  0  0
  -22.8525  -13.4455   21.2780 C   0  0  0  0  0  0  0  0  0  0  0  0
  -26.9174  -27.5054   15.7179 C   0  0  0  0  0  0  0  0  0  0  0  0
  -27.4575  -26.0678   12.8607 C   0  0  0  0  0  0  0  0  0  0  0  0
  -28.9270  -23.5185   11.1320 C   0  0  0  0  0  0  0  0  0  0  0  0
  -30.6681  -14.8682   20.6614 C   0  0  0  0  0  0  0  0  0  0  0  0
  -24.0943  -31.7568   15.6028 C   0  0  0  0  0  0  0  0  0  0  0  0
  -29.4283  -27.2796   15.7349 C   0  0  0  0  0  0  0  0  0  0  0  0
  -28.1054  -24.7632   14.9207 C   0  0  0  0  0  0  0  0  0  0  0  0
  -24.1397  -30.4546   14.8075 C   0  0  0  0  0  0  0  0  0  0  0  0
  -29.5717  -12.4749   18.2642 C   0  0  0  0  0  0  0  0  0  0  0  0
  -24.1751  -29.2550   15.7492 C   0  0  0  0  0  0  0  0  0  0  0  0
  -28.1426  -12.1480   18.7009 C   0  0  0  0  0  0  0  0  0  0  0  0
  -30.4888  -12.7077   19.4629 C   0  0  0  0  0  0  0  0  0  0  0  0
  -28.5776  -13.3896   20.8614 C   0  0  0  0  0  0  0  0  0  0  0  0
  -25.4311  -29.2809   16.6286 C   0  0  1  0  0  0  0  0  0  0  0  0
  -28.1542  -27.2771   14.8958 C   0  0  1  0  0  0  0  0  0  0  0  0
  -27.6026  -13.2017   19.6865 C   0  0  2  0  0  0  0  0  0  0  0  0
  -29.1577  -22.5866    8.8134 C   0  0  0  0  0  0  0  0  0  0  0  0
  -24.6287  -24.9379   13.0360 C   0  0  0  0  0  0  0  0  0  0  0  0
  -25.2453  -23.3033   11.2426 C   0  0  0  0  0  0  0  0  0  0  0  0
  -25.2883  -25.7512   10.7649 C   0  0  0  0  0  0  0  0  0  0  0  0
  -31.8638  -23.8847   11.1519 C   0  0  0  0  0  0  0  0  0  0  0  0
  -30.6933  -17.0120   21.9115 C   0  0  0  0  0  0  0  0  0  0  0  0
  -29.5177  -21.3705   18.2996 C   0  0  0  0  0  0  0  0  0  1  0  0
  -27.0774  -24.7449   12.2408 C   0  0  1  0  0  0  0  0  0  0  0  0
  -29.7581  -23.5105    9.8616 C   0  0  2  0  0  0  0  0  0  0  0  0
  -25.5749  -24.6857   11.8452 C   0  0  0  0  0  0  0  0  0  0  0  0
  -25.8518  -11.5690   20.2794 N   0  0  0  0  0  0  0  0  0  0  0  0
  -26.2008  -12.8611   20.1576 N   0  0  0  0  0  0  0  0  0  0  0  0
  -27.9582  -26.0208   14.1695 N   0  0  0  0  0  0  0  0  0  0  0  0
  -29.9201  -13.7188   20.3574 N   0  0  0  0  0  0  0  0  0  0  0  0
  -25.3883  -15.0702   20.4226 N   0  0  0  0  0  0  0  0  0  0  0  0
  -21.8615  -12.5130   21.6135 N   0  0  0  0  0  0  0  0  0  0  0  0
  -26.5846  -28.8373   15.8756 N   0  0  0  0  0  0  0  0  0  0  0  0
  -27.9970  -24.5365   11.1275 N   0  0  0  0  0  0  0  0  0  0  0  0
  -30.0528  -15.7789   21.5116 N   0  0  0  0  0  0  0  0  0  0  0  0
  -31.1456  -23.0516   10.1533 N   0  3  0  0  0  0  0  0  0  0  0  0
  -22.5905  -14.6704   21.3440 O   0  0  0  0  0  0  0  0  0  0  0  0
  -26.3092  -26.5444   16.1741 O   0  0  0  0  0  0  0  0  0  0  0  0
  -27.3221  -27.1040   12.2052 O   0  0  0  0  0  0  0  0  0  0  0  0
  -29.0845  -22.7010   12.0361 O   0  0  0  0  0  0  0  0  0  0  0  0
  -31.7982  -15.0706   20.2045 O   0  0  0  0  0  0  0  0  0  0  0  0
  -21.7068   -6.9447   21.6878 O   0  0  0  0  0  0  0  0  0  0  0  0
  -30.1886  -22.5458   18.7524 O   0  0  0  0  0  0  0  0  0  1  0  0
  -18.7385   -6.6940   26.3279 F   0  0  0  0  0  0  0  0  0  0  0  0
  -22.2060   -4.9993   23.5875 F   0  0  0  0  0  0  0  0  0  0  0  0
  1  2  1  0  0  0  0
  1  5  2  0  0  0  0
  2  6  2  0  0  0  0
  3 12  2  0  0  0  0
  3 19  1  0  0  0  0
  4 13  1  0  0  0  0
  4 19  2  0  0  0  0
  5 21  1  0  0  0  0
  6 23  1  0  0  0  0
  7 14  2  0  0  0  0
  7 22  1  0  0  0  0
  8 10  2  0  0  0  0
  8 25  1  0  0  0  0
  9 11  1  0  0  0  0
  9 25  2  0  0  0  0
 10 26  1  0  0  0  0
 11 26  2  0  0  0  0
 12 27  1  0  0  0  0
 13 27  2  0  0  0  0
 14 28  1  0  0  0  0
 15 16  2  0  0  0  0
 15 29  1  0  0  0  0
 16 30  1  0  0  0  0
 17 24  1  0  0  0  0
 17 28  2  0  0  0  0
 18 30  2  0  0  0  0
 18 31  1  0  0  0  0
 19 32  1  0  0  0  0
 20 32  1  0  0  0  0
 20 33  2  0  0  0  0
 20 34  1  0  0  0  0
 21 23  2  0  0  0  0
 21 39  1  0  0  0  0
 22 24  2  0  0  0  0
 22 40  1  0  0  0  0
 23 48  1  0  0  0  0
 24 41  1  0  0  0  0
 25 56  1  0  0  0  0
 26 57  1  0  0  0  0
 27 76  1  0  0  0  0
 28 77  1  0  0  0  0
 29 31  2  0  0  0  0
 29 76  1  0  0  0  0
 30 78  1  0  0  0  0
 31 79  1  0  0  0  0
 32 61  2  0  0  0  0
 33 62  1  0  0  0  0
 33 65  1  0  0  0  0
 34 66  1  0  0  0  0
 34 71  2  0  0  0  0
 35 49  1  0  0  0  0
 35 67  1  0  0  0  0
 35 72  2  0  0  0  0
 36 58  1  0  0  0  0
 36 63  1  0  0  0  0
 36 73  2  0  0  0  0
 37 59  1  0  0  0  0
 37 68  1  0  0  0  0
 37 74  2  0  0  0  0
 38 64  1  0  0  0  0
 38 69  1  0  0  0  0
 38 75  2  0  0  0  0
 39 42  1  0  0  0  0
 40 49  1  0  0  0  0
 41 63  1  0  0  0  0
 42 44  1  0  0  0  0
 43 45  1  0  0  0  0
 43 46  1  0  0  0  0
 44 48  1  0  0  0  0
 45 50  1  0  0  0  0
 46 64  1  0  0  0  0
 47 50  1  0  0  0  0
 47 64  1  0  0  0  0
 48 67  1  0  0  0  0
 49 63  1  0  0  0  0
 50 62  1  0  0  0  0
 51 59  1  0  0  0  0
 52 60  1  0  0  0  0
 53 60  1  0  0  0  0
 54 60  1  0  0  0  0
 55 70  1  0  0  0  0
 56 69  1  0  0  0  0
 57 77  1  0  0  0  0
 58 60  1  0  0  0  0
 58 68  1  0  0  0  0
 59 70  1  0  0  0  0
 61 62  1  0  0  0  0
M  CHG  1  70   1
M  ISO  4  38 100  57 101  69 100  77 101
M  END
> <Batch ID>
0130

> <Smiles>
CNC(C)C(=O)NC(C(=O)N1Cc2cc([101O:1][101CH2:1]c3ccc(C[100NH:0][100C:0](=O)N4CCCC(n5nc(-c6ccc(Oc7ccc(F)cc7F)cc6)c(C(N)=O)c5N)C4)cc3)ccc2CC1C(=O)NC1CCCc2ccccc21)C(C)(C)C

> <Shape>
0.232

> <Color>
0.203

> <Negative vol penalty>
0.000

$$$$

  -OEChem-04052320473D

 90 99  0     1  0  0  0  0  0999 V2000
  -23.4220   -7.9196   21.1499 C   0  0  0  0  0  0  0  0  0  0  0  0
  -24.1857   -8.9121   20.5441 C   0  0  0  0  0  0  0  0  0  0  0  0
  -23.6211  -32.0457   23.6556 C   0  0  0  0  0  0  0  0  0  0  0  0
  -26.0295  -31.8640   23.5971 C   0  0  0  0  0  0  0  0  0  0  0  0
  -22.1836   -8.2367   21.7065 C   0  0  0  0  0  0  0  0  0  0  0  0
  -23.7109  -10.2222   20.4934 C   0  0  0  0  0  0  0  0  0  0  0  0
  -27.2624  -13.6237   21.7026 C   0  0  0  0  0  0  0  0  0  0  0  0
  -29.9980  -18.6437   17.6912 C   0  0  0  0  0  0  0  0  0  0  0  0
  -23.7089  -32.8425   24.7970 C   0  0  0  0  0  0  0  0  0  0  0  0
  -26.1174  -32.6609   24.7386 C   0  0  0  0  0  0  0  0  0  0  0  0
  -28.2051  -13.9351   20.7239 C   0  0  0  0  0  0  0  0  0  0  0  0
  -25.9367  -35.9487   25.4990 C   0  0  0  0  0  0  0  0  0  0  0  0
  -26.8897  -36.9672   25.5048 C   0  0  0  0  0  0  0  0  0  0  0  0
  -29.5356  -17.3327   17.7219 C   0  0  0  0  0  0  0  0  0  0  0  0
  -26.9834  -15.9470   20.1958 C   0  0  0  0  0  0  0  0  0  0  0  0
  -27.9483  -35.9658   27.4319 C   0  0  0  0  0  0  0  0  0  0  0  0
  -24.7814  -31.5564   23.0556 C   0  0  0  0  0  0  0  0  0  0  0  0
  -24.6915  -31.1637   20.5366 C   0  0  0  0  0  0  0  0  0  0  0  0
  -21.6977   -9.5533   21.6712 C   0  0  0  0  0  0  0  0  0  0  0  0
  -26.1652  -14.4674   21.9282 C   0  0  0  0  0  0  0  0  0  0  0  0
  -22.4642  -10.5570   21.0489 C   0  0  0  0  0  0  0  0  0  0  0  0
  -30.3479  -19.2796   18.8773 C   0  0  0  0  0  0  0  0  0  0  0  0
  -26.0295  -15.6453   21.1798 C   0  0  0  0  0  0  0  0  0  0  0  0
  -24.9570  -33.1501   25.3385 C   0  0  0  0  0  0  0  0  0  0  0  0
  -28.0642  -15.0955   19.9683 C   0  0  0  0  0  0  0  0  0  0  0  0
  -25.9894  -34.9388   26.4597 C   0  0  0  0  0  0  0  0  0  0  0  0
  -27.8955  -36.9758   26.4712 C   0  0  0  0  0  0  0  0  0  0  0  0
  -26.9952  -34.9473   27.4261 C   0  0  0  0  0  0  0  0  0  0  0  0
  -24.6914  -30.7328   21.8768 C   0  0  0  0  0  0  0  0  0  0  0  0
  -30.2180  -18.5665   20.0582 C   0  0  0  0  0  0  0  0  0  0  0  0
  -29.4419  -16.7068   18.9545 C   0  0  0  0  0  0  0  0  0  1  0  0
  -24.5873  -30.0067   19.8039 C   0  0  0  0  0  0  0  0  0  0  0  0
  -24.7782  -32.4912   20.0019 C   0  0  0  0  0  0  0  0  0  0  0  0
  -23.0100  -14.1515   21.7084 C   0  0  0  0  0  0  0  0  0  0  0  0
  -23.0130  -17.1233   23.0087 C   0  0  0  0  0  0  0  0  0  0  0  0
  -24.6827  -20.0521   23.5386 C   0  0  0  0  0  0  0  0  0  0  0  0
  -26.0415  -24.3119   20.9465 C   0  0  0  0  0  0  0  0  0  0  0  0
  -20.3322   -9.8387   22.2444 C   0  0  0  0  0  0  0  0  0  0  0  0
  -25.1715  -14.1309   23.0060 C   0  0  0  0  0  0  0  0  0  0  0  0
  -24.8807  -16.5948   21.3969 C   0  0  0  0  0  0  0  0  0  0  0  0
  -20.0690  -11.3237   22.4805 C   0  0  0  0  0  0  0  0  0  0  0  0
  -22.8307  -25.5633   20.0513 C   0  0  0  0  0  0  0  0  0  0  0  0
  -20.4917  -12.1409   21.2638 C   0  0  0  0  0  0  0  0  0  0  0  0
  -22.9434  -27.0689   20.2967 C   0  0  0  0  0  0  0  0  0  0  0  0
  -23.6098  -24.7619   21.0918 C   0  0  0  0  0  0  0  0  0  0  0  0
  -25.1381  -26.6551   21.4846 C   0  0  0  0  0  0  0  0  0  0  0  0
  -30.8416  -23.4220   17.7945 C   0  0  0  0  0  0  0  0  0  0  0  0
  -21.9945  -11.9946   20.9960 C   0  0  1  0  0  0  0  0  0  0  0  0
  -30.8493  -20.7103   18.8507 C   0  0  1  0  0  0  0  0  0  0  0  0
  -23.8159  -14.7993   22.7986 C   0  0  1  0  0  0  0  0  0  0  0  0
  -24.4146  -27.5070   20.4277 C   0  0  2  0  0  0  0  0  0  0  0  0
  -31.5381  -21.1138   17.5225 C   0  0  2  0  0  0  0  0  0  0  0  0
  -30.1635  -23.1203   19.1285 C   0  0  1  0  0  0  0  0  0  0  0  0
  -33.7882  -20.3972   18.3414 C   0  0  0  0  0  0  0  0  0  0  0  0
  -31.7373  -18.4715   22.0672 C   0  0  0  0  0  0  0  0  0  0  0  0
  -29.3728  -19.3103   22.3135 C   0  0  0  0  0  0  0  0  0  0  0  0
  -24.4128  -22.3088   24.6024 C   0  0  0  0  0  0  0  0  0  0  0  0
  -21.2536  -18.0086   20.6783 C   0  0  0  0  0  0  0  0  0  0  0  0
  -21.8020  -20.3820   21.2569 C   0  0  0  0  0  0  0  0  0  0  0  0
  -20.5922  -18.9471   22.9001 C   0  0  0  0  0  0  0  0  0  0  0  0
  -26.9361  -19.5743   25.3968 C   0  0  0  0  0  0  0  0  0  0  0  0
  -32.7828  -20.2620   17.2483 C   0  0  0  0  0  0  0  0  0  0  0  0
  -28.9404  -23.9951   19.3613 C   0  0  0  0  0  0  0  0  0  0  0  0
  -28.5030  -24.0211   20.8212 C   0  0  0  0  0  0  0  0  0  0  0  0
  -30.5783  -19.1995   21.3622 C   0  0  0  0  0  0  0  0  0  0  0  0
  -23.0469  -18.5297   22.4612 C   0  0  1  0  0  0  0  0  0  0  0  0
  -24.8930  -20.8787   24.7944 C   0  0  2  0  0  0  0  0  0  0  0  0
  -21.6944  -18.9482   21.8185 C   0  0  0  0  0  0  0  0  0  0  0  0
  -24.5945  -29.4056   21.9916 N   0  0  0  0  0  0  0  0  0  0  0  0
  -29.7725  -17.2920   20.1275 N   0  0  0  0  0  0  0  0  0  0  0  0
  -24.5328  -28.9926   20.7142 N   0  0  0  0  0  0  0  0  0  0  0  0
  -31.9692  -22.5222   17.5492 N   0  0  0  0  0  0  0  0  0  0  0  0
  -23.9318  -16.2187   22.4579 N   0  0  0  0  0  0  0  0  0  0  0  0
  -24.9974  -25.2257   21.1654 N   0  0  0  0  0  0  0  0  0  0  0  0
  -24.5377  -29.7680   18.4761 N   0  0  0  0  0  0  0  0  0  0  0  0
  -24.8802  -33.5661   20.8954 N   0  0  0  0  0  0  0  0  0  0  0  0
  -22.7541  -12.8100   21.9194 N   0  0  0  0  0  0  0  0  0  0  0  0
  -23.4757  -19.3860   23.5619 N   0  0  0  0  0  0  0  0  0  0  0  0
  -27.3260  -24.8352   21.0284 N   0  0  0  0  0  0  0  0  0  0  0  0
  -29.7239  -21.6869   19.1143 N   0  3  0  0  0  0  0  0  0  0  0  0
  -26.3383  -20.9128   25.1561 N   0  3  0  0  0  0  0  0  0  0  0  0
  -24.7490  -32.7187   18.7686 O   0  0  0  0  0  0  0  0  0  0  0  0
  -22.6460  -14.8195   20.7478 O   0  0  0  0  0  0  0  0  0  0  0  0
  -22.2061  -16.8396   23.8975 O   0  0  0  0  0  0  0  0  0  0  0  0
  -25.5052  -20.0052   22.6266 O   0  0  0  0  0  0  0  0  0  0  0  0
  -25.8434  -23.1192   20.6912 O   0  0  0  0  0  0  0  0  0  0  0  0
  -25.0431  -33.9278   26.4522 O   0  0  0  0  0  0  0  0  0  0  0  0
  -28.9826  -15.4016   19.0120 O   0  0  0  0  0  0  0  0  0  1  0  0
  -28.8114  -37.9531   26.4756 F   0  0  0  0  0  0  0  0  0  0  0  0
  -27.0518  -33.9791   28.3509 F   0  0  0  0  0  0  0  0  0  0  0  0
  1  2  1  0  0  0  0
  1  5  2  0  0  0  0
  2  6  2  0  0  0  0
  3  9  2  0  0  0  0
  3 17  1  0  0  0  0
  4 10  1  0  0  0  0
  4 17  2  0  0  0  0
  5 19  1  0  0  0  0
  6 21  1  0  0  0  0
  7 11  2  0  0  0  0
  7 20  1  0  0  0  0
  8 14  2  0  0  0  0
  8 22  1  0  0  0  0
  9 24  1  0  0  0  0
 10 24  2  0  0  0  0
 11 25  1  0  0  0  0
 12 13  2  0  0  0  0
 12 26  1  0  0  0  0
 13 27  1  0  0  0  0
 14 31  1  0  0  0  0
 15 23  1  0  0  0  0
 15 25  2  0  0  0  0
 16 27  2  0  0  0  0
 16 28  1  0  0  0  0
 17 29  1  0  0  0  0
 18 29  1  0  0  0  0
 18 32  2  0  0  0  0
 18 33  1  0  0  0  0
 19 21  2  0  0  0  0
 19 38  1  0  0  0  0
 20 23  2  0  0  0  0
 20 39  1  0  0  0  0
 21 48  1  0  0  0  0
 22 30  2  0  0  0  0
 22 49  1  0  0  0  0
 23 40  1  0  0  0  0
 24 87  1  0  0  0  0
 25 88  1  0  0  0  0
 26 28  2  0  0  0  0
 26 87  1  0  0  0  0
 27 89  1  0  0  0  0
 28 90  1  0  0  0  0
 29 69  2  0  0  0  0
 30 65  1  0  0  0  0
 30 70  1  0  0  0  0
 31 70  2  0  0  0  0
 31 88  1  0  0  0  0
 32 71  1  0  0  0  0
 32 75  1  0  0  0  0
 33 76  1  0  0  0  0
 33 82  2  0  0  0  0
 34 50  1  0  0  0  0
 34 77  1  0  0  0  0
 34 83  2  0  0  0  0
 35 66  1  0  0  0  0
 35 73  1  0  0  0  0
 35 84  2  0  0  0  0
 36 67  1  0  0  0  0
 36 78  1  0  0  0  0
 36 85  2  0  0  0  0
 37 74  1  0  0  0  0
 37 79  1  0  0  0  0
 37 86  2  0  0  0  0
 38 41  1  0  0  0  0
 39 50  1  0  0  0  0
 40 73  1  0  0  0  0
 41 43  1  0  0  0  0
 42 44  1  0  0  0  0
 42 45  1  0  0  0  0
 43 48  1  0  0  0  0
 44 51  1  0  0  0  0
 45 74  1  0  0  0  0
 46 51  1  0  0  0  0
 46 74  1  0  0  0  0
 47 53  1  0  0  0  0
 47 72  1  0  0  0  0
 48 77  1  0  0  0  0
 49 52  1  0  0  0  0
 49 80  1  0  0  0  0
 50 73  1  0  0  0  0
 51 71  1  0  0  0  0
 52 62  1  0  0  0  0
 52 72  1  0  0  0  0
 53 63  1  0  0  0  0
 53 80  1  0  0  0  0
 54 62  1  0  0  0  0
 55 65  1  0  0  0  0
 56 65  1  0  0  0  0
 57 67  1  0  0  0  0
 58 68  1  0  0  0  0
 59 68  1  0  0  0  0
 60 68  1  0  0  0  0
 61 81  1  0  0  0  0
 63 64  1  0  0  0  0
 64 79  1  0  0  0  0
 66 68  1  0  0  0  0
 66 78  1  0  0  0  0
 67 81  1  0  0  0  0
 69 71  1  0  0  0  0
M  CHG  2  80   1  81   1
M  ISO  4  31 101  37 100  79 100  88 101
M  END
> <Batch ID>
0130

> <Smiles>
CCC1NCC(CC[100NH:0][100C:0](=O)N2CCCC(n3nc(-c4ccc(Oc5ccc(F)cc5F)cc4)c(C(N)=O)c3N)C2)NC1c1cc[101c:1]([101O:1]c2ccc3c(c2)CN(C(=O)C(NC(=O)C(C)NC)C(C)(C)C)C(C(=O)NC2CCCc4ccccc42)C3)nc1C(C)C

> <Shape>
0.219

> <Color>
0.070

> <Negative vol penalty>
0.000

$$$$

  -OEChem-04052320473D

 88 97  0     1  0  0  0  0  0999 V2000
  -36.4937  -20.9001   20.9330 C   0  0  0  0  0  0  0  0  0  0  0  0
  -35.1576  -21.1644   21.2168 C   0  0  0  0  0  0  0  0  0  0  0  0
  -23.0156   -9.8876   19.9705 C   0  0  0  0  0  0  0  0  0  0  0  0
  -23.6678   -9.9600   22.2957 C   0  0  0  0  0  0  0  0  0  0  0  0
  -37.4192  -21.9425   20.9080 C   0  0  0  0  0  0  0  0  0  0  0  0
  -34.7466  -22.4713   21.4767 C   0  0  0  0  0  0  0  0  0  0  0  0
  -30.4633  -23.6778   19.0594 C   0  0  0  0  0  0  0  0  0  0  0  0
  -28.3618  -20.7445   22.9795 C   0  0  0  0  0  0  0  0  0  0  0  0
  -22.2318   -8.7623   20.2254 C   0  0  0  0  0  0  0  0  0  0  0  0
  -22.8839   -8.8347   22.5506 C   0  0  0  0  0  0  0  0  0  0  0  0
  -29.2704  -23.2023   19.6021 C   0  0  0  0  0  0  0  0  0  0  0  0
  -28.3453  -22.0017   22.3754 C   0  0  0  0  0  0  0  0  0  0  0  0
  -23.1157   -5.4886   22.1251 C   0  0  0  0  0  0  0  0  0  0  0  0
  -23.6708   -4.4758   22.9071 C   0  0  0  0  0  0  0  0  0  0  0  0
  -28.8750  -25.3592   20.6074 C   0  0  0  0  0  0  0  0  0  0  0  0
  -26.2876  -21.4318   21.2452 C   0  0  0  0  0  0  0  0  0  0  0  0
  -21.8968   -4.7519   24.5238 C   0  0  0  0  0  0  0  0  0  0  0  0
  -23.7337  -10.4864   21.0056 C   0  0  0  0  0  0  0  0  0  0  0  0
  -24.1450  -12.9966   20.8130 C   0  0  0  0  0  0  0  0  0  0  0  0
  -37.0176  -23.2641   21.1582 C   0  0  0  0  0  0  0  0  0  0  0  0
  -30.8772  -24.9966   19.2961 C   0  0  0  0  0  0  0  0  0  0  0  0
  -35.6679  -23.5321   21.4563 C   0  0  0  0  0  0  0  0  0  0  0  0
  -30.0723  -25.8498   20.0645 C   0  0  0  0  0  0  0  0  0  0  0  0
  -27.3411  -19.8310   22.7164 C   0  0  0  0  0  0  0  0  0  0  0  0
  -26.3041  -20.1745   21.8492 C   0  0  0  0  0  0  0  0  0  0  0  0
  -22.1659   -8.2359   21.5154 C   0  0  0  0  0  0  0  0  0  0  0  0
  -28.4774  -24.0421   20.3786 C   0  0  0  0  0  0  0  0  0  0  0  0
  -27.3082  -22.3453   21.5083 C   0  0  0  0  0  0  0  0  0  1  0  0
  -21.9512   -6.1332   22.5424 C   0  0  0  0  0  0  0  0  0  0  0  0
  -23.0613   -4.1074   24.1065 C   0  0  0  0  0  0  0  0  0  0  0  0
  -21.3417   -5.7648   23.7418 C   0  0  0  0  0  0  0  0  0  0  0  0
  -24.5440  -11.6484   20.7428 C   0  0  0  0  0  0  0  0  0  0  0  0
  -25.2716  -13.7062   20.4758 C   0  0  0  0  0  0  0  0  0  0  0  0
  -22.8699  -13.5574   21.1528 C   0  0  0  0  0  0  0  0  0  0  0  0
  -33.3833  -26.3404   20.7164 C   0  0  0  0  0  0  0  0  0  0  0  0
  -32.0647  -29.0789   19.5831 C   0  0  0  0  0  0  0  0  0  0  0  0
  -29.2726  -30.7228   18.5116 C   0  0  0  0  0  0  0  0  0  0  0  0
  -30.6539  -14.6776   20.7156 C   0  0  0  0  0  0  0  0  0  0  0  0
  -38.0629  -24.3513   21.1666 C   0  0  0  0  0  0  0  0  0  0  0  0
  -32.1535  -25.5022   18.6815 C   0  0  0  0  0  0  0  0  0  0  0  0
  -30.4618  -27.2800   20.3315 C   0  0  0  0  0  0  0  0  0  0  0  0
  -37.4782  -25.7590   21.0842 C   0  0  0  0  0  0  0  0  0  0  0  0
  -29.6774  -12.1834   18.5295 C   0  0  0  0  0  0  0  0  0  0  0  0
  -36.3151  -25.9119   22.0592 C   0  0  0  0  0  0  0  0  0  0  0  0
  -28.2188  -11.9226   18.9047 C   0  0  0  0  0  0  0  0  0  0  0  0
  -29.0505  -17.9030   21.5830 C   0  0  0  0  0  0  0  0  0  0  0  0
  -28.4600  -16.1976   23.3412 C   0  0  0  0  0  0  0  0  0  0  0  0
  -30.5328  -12.3902   19.7743 C   0  0  0  0  0  0  0  0  0  0  0  0
  -30.2691  -17.0651   21.2060 C   0  0  0  0  0  0  0  0  0  0  0  0
  -29.6918  -15.3952   22.9352 C   0  0  0  0  0  0  0  0  0  0  0  0
  -28.5911  -13.2421   21.0469 C   0  0  0  0  0  0  0  0  0  0  0  0
  -35.1789  -24.9399   21.7192 C   0  0  1  0  0  0  0  0  0  0  0  0
  -32.7320  -26.7092   19.4136 C   0  0  1  0  0  0  0  0  0  0  0  0
  -28.6481  -17.6922   23.0483 C   0  0  0  0  0  0  0  0  0  0  0  0
  -27.6774  -13.0331   19.8226 C   0  0  2  0  0  0  0  0  0  0  0  0
  -25.2007  -19.2130   21.5519 C   0  0  0  0  0  0  0  0  0  0  0  0
  -28.5009  -32.9635   17.6863 C   0  0  0  0  0  0  0  0  0  0  0  0
  -25.9602  -19.3950   26.7523 C   0  0  0  0  0  0  0  0  0  0  0  0
  -25.1305  -17.4782   25.3339 C   0  0  0  0  0  0  0  0  0  0  0  0
  -32.1758  -30.1640   22.4327 C   0  0  0  0  0  0  0  0  0  0  0  0
  -30.5685  -31.9540   21.7394 C   0  0  0  0  0  0  0  0  0  0  0  0
  -32.8145  -31.8119   20.6633 C   0  0  0  0  0  0  0  0  0  0  0  0
  -28.4080  -29.5979   15.9144 C   0  0  0  0  0  0  0  0  0  0  0  0
  -27.3805  -18.4750   23.3825 C   0  0  1  0  0  0  0  0  0  0  0  0
  -31.0609  -30.0781   20.1056 C   0  0  1  0  0  0  0  0  0  0  0  0
  -29.0202  -31.5898   17.2914 C   0  0  2  0  0  0  0  0  0  0  0  0
  -25.8843  -18.7983   25.3561 C   0  0  0  0  0  0  0  0  0  0  0  0
  -31.6483  -30.9745   21.2320 C   0  0  0  0  0  0  0  0  0  0  0  0
  -25.8241  -11.5074   20.3887 N   0  0  0  0  0  0  0  0  0  0  0  0
  -26.2392  -12.7761   20.2332 N   0  0  0  0  0  0  0  0  0  0  0  0
  -31.7217  -27.7257   19.7139 N   0  0  0  0  0  0  0  0  0  0  0  0
  -29.9834  -13.4488   20.6212 N   0  0  0  0  0  0  0  0  0  0  0  0
  -30.0735  -15.6552   21.5407 N   0  0  0  0  0  0  0  0  0  0  0  0
  -25.5190  -15.0287   20.3659 N   0  0  0  0  0  0  0  0  0  0  0  0
  -21.8205  -12.6855   21.4735 N   0  0  0  0  0  0  0  0  0  0  0  0
  -34.4151  -25.4297   20.5917 N   0  0  0  0  0  0  0  0  0  0  0  0
  -30.5785  -30.8174   18.9440 N   0  0  0  0  0  0  0  0  0  0  0  0
  -28.0157  -30.9467   16.3978 N   0  3  0  0  0  0  0  0  0  0  0  0
  -27.2658  -18.5594   24.8710 N   0  3  0  0  0  0  0  0  0  0  0  0
  -22.6627  -14.7946   21.1554 O   0  0  0  0  0  0  0  0  0  0  0  0
  -32.9805  -26.8458   21.7576 O   0  0  0  0  0  0  0  0  0  0  0  0
  -33.1113  -29.4842   19.0712 O   0  0  0  0  0  0  0  0  0  0  0  0
  -28.3978  -30.0338   19.0317 O   0  0  0  0  0  0  0  0  0  0  0  0
  -31.7044  -14.8927   20.0982 O   0  0  0  0  0  0  0  0  0  0  0  0
  -21.4009   -7.1380   21.7645 O   0  0  0  0  0  0  0  0  0  0  0  0
  -27.2923  -23.5722   20.9193 O   0  0  0  0  0  0  0  0  0  1  0  0
  -23.5936   -3.1336   24.8566 F   0  0  0  0  0  0  0  0  0  0  0  0
  -20.2222   -6.3795   24.1473 F   0  0  0  0  0  0  0  0  0  0  0  0
  1  2  1  0  0  0  0
  1  5  2  0  0  0  0
  2  6  2  0  0  0  0
  3  9  2  0  0  0  0
  3 18  1  0  0  0  0
  4 10  1  0  0  0  0
  4 18  2  0  0  0  0
  5 20  1  0  0  0  0
  6 22  1  0  0  0  0
  7 11  2  0  0  0  0
  7 21  1  0  0  0  0
  8 12  2  0  0  0  0
  8 24  1  0  0  0  0
  9 26  1  0  0  0  0
 10 26  2  0  0  0  0
 11 27  1  0  0  0  0
 12 28  1  0  0  0  0
 13 14  2  0  0  0  0
 13 29  1  0  0  0  0
 14 30  1  0  0  0  0
 15 23  1  0  0  0  0
 15 27  2  0  0  0  0
 16 25  1  0  0  0  0
 16 28  2  0  0  0  0
 17 30  2  0  0  0  0
 17 31  1  0  0  0  0
 18 32  1  0  0  0  0
 19 32  1  0  0  0  0
 19 33  2  0  0  0  0
 19 34  1  0  0  0  0
 20 22  2  0  0  0  0
 20 39  1  0  0  0  0
 21 23  2  0  0  0  0
 21 40  1  0  0  0  0
 22 52  1  0  0  0  0
 23 41  1  0  0  0  0
 24 25  2  0  0  0  0
 24 64  1  0  0  0  0
 25 56  1  0  0  0  0
 26 85  1  0  0  0  0
 27 86  1  0  0  0  0
 28 86  1  0  0  0  0
 29 31  2  0  0  0  0
 29 85  1  0  0  0  0
 30 87  1  0  0  0  0
 31 88  1  0  0  0  0
 32 69  2  0  0  0  0
 33 70  1  0  0  0  0
 33 74  1  0  0  0  0
 34 75  1  0  0  0  0
 34 80  2  0  0  0  0
 35 53  1  0  0  0  0
 35 76  1  0  0  0  0
 35 81  2  0  0  0  0
 36 65  1  0  0  0  0
 36 71  1  0  0  0  0
 36 82  2  0  0  0  0
 37 66  1  0  0  0  0
 37 77  1  0  0  0  0
 37 83  2  0  0  0  0
 38 72  1  0  0  0  0
 38 73  1  0  0  0  0
 38 84  2  0  0  0  0
 39 42  1  0  0  0  0
 40 53  1  0  0  0  0
 41 71  1  0  0  0  0
 42 44  1  0  0  0  0
 43 45  1  0  0  0  0
 43 48  1  0  0  0  0
 44 52  1  0  0  0  0
 45 55  1  0  0  0  0
 46 49  1  0  0  0  0
 46 54  1  0  0  0  0
 47 50  1  0  0  0  0
 47 54  1  0  0  0  0
 48 72  1  0  0  0  0
 49 73  1  0  0  0  0
 50 73  1  0  0  0  0
 51 55  1  0  0  0  0
 51 72  1  0  0  0  0
 52 76  1  0  0  0  0
 53 71  1  0  0  0  0
 54 64  1  0  0  0  0
 55 70  1  0  0  0  0
 57 66  1  0  0  0  0
 58 67  1  0  0  0  0
 59 67  1  0  0  0  0
 60 68  1  0  0  0  0
 61 68  1  0  0  0  0
 62 68  1  0  0  0  0
 63 78  1  0  0  0  0
 64 79  1  0  0  0  0
 65 68  1  0  0  0  0
 65 77  1  0  0  0  0
 66 78  1  0  0  0  0
 67 79  1  0  0  0  0
 69 70  1  0  0  0  0
M  CHG  2  78   1  79   1
M  ISO  4  28 101  38 100  73 100  86 101
M  END
> <Batch ID>
0130

> <Smiles>
CNC(C)C(=O)NC(C(=O)N1Cc2cc([101O:1][101c:1]3ccc(C(NC(C)C)C4CC[100N:0]([100C:0](=O)N5CCCC(n6nc(-c7ccc(Oc8ccc(F)cc8F)cc7)c(C(N)=O)c6N)C5)CC4)c(C)c3)ccc2CC1C(=O)NC1CCCc2ccccc21)C(C)(C)C

> <Shape>
0.238

> <Color>
0.194

> <Negative vol penalty>
0.000

$$$$

  -OEChem-04052320473D

 84 93  0     1  0  0  0  0  0999 V2000
  -16.8670  -28.8791   24.3013 C   0  0  0  0  0  0  0  0  0  0  0  0
  -17.4910  -27.9003   23.5345 C   0  0  0  0  0  0  0  0  0  0  0  0
  -25.6978  -15.5432   19.9996 C   0  0  0  0  0  0  0  0  0  0  0  0
  -27.1136  -13.6252   20.3916 C   0  0  0  0  0  0  0  0  0  0  0  0
  -17.3094  -30.1998   24.2380 C   0  0  0  0  0  0  0  0  0  0  0  0
  -18.5571  -28.2418   22.7031 C   0  0  0  0  0  0  0  0  0  0  0  0
  -22.4043  -24.9653   23.0319 C   0  0  0  0  0  0  0  0  0  0  0  0
  -26.2097  -21.2433   20.0499 C   0  0  0  0  0  0  0  0  0  0  0  0
  -24.9849  -20.7794   18.0198 C   0  0  0  0  0  0  0  0  0  0  0  0
  -24.6231  -14.6953   19.7323 C   0  0  0  0  0  0  0  0  0  0  0  0
  -26.0388  -12.7772   20.1243 C   0  0  0  0  0  0  0  0  0  0  0  0
  -22.2705  -23.7558   22.3514 C   0  0  0  0  0  0  0  0  0  0  0  0
  -25.0615  -21.7970   20.6161 C   0  0  0  0  0  0  0  0  0  0  0  0
  -23.8367  -21.3331   18.5860 C   0  0  0  0  0  0  0  0  0  0  0  0
  -23.5767  -10.1117   19.8977 C   0  0  0  0  0  0  0  0  0  0  0  0
  -23.3698   -9.0344   20.7592 C   0  0  0  0  0  0  0  0  0  0  0  0
  -23.6417  -24.6170   20.5633 C   0  0  0  0  0  0  0  0  0  0  0  0
  -23.0894  -10.5658   22.6068 C   0  0  0  0  0  0  0  0  0  0  0  0
  -26.9432  -15.0082   20.3292 C   0  0  0  0  0  0  0  0  0  0  0  0
  -28.4281  -16.4147   21.8538 C   0  0  0  0  0  0  0  0  0  0  0  0
  -18.3877  -30.5559   23.4126 C   0  0  0  0  0  0  0  0  0  0  0  0
  -23.1501  -26.0153   22.4772 C   0  0  0  0  0  0  0  0  0  0  0  0
  -19.0134  -29.5687   22.6276 C   0  0  0  0  0  0  0  0  0  0  0  0
  -23.7856  -25.8379   21.2399 C   0  0  0  0  0  0  0  0  0  0  0  0
  -26.1714  -20.7346   18.7517 C   0  0  0  0  0  0  0  0  0  0  0  0
  -24.7935  -13.3123   19.7946 C   0  0  0  0  0  0  0  0  0  0  0  0
  -23.8749  -21.8419   19.8842 C   0  0  0  0  0  0  0  0  0  1  0  0
  -22.8869  -23.5825   21.1156 C   0  0  0  0  0  0  0  0  0  0  0  0
  -23.5401  -11.4161   20.3908 C   0  0  0  0  0  0  0  0  0  0  0  0
  -23.1261   -9.2614   22.1137 C   0  0  0  0  0  0  0  0  0  0  0  0
  -23.2964  -11.6431   21.7453 C   0  0  0  0  0  0  0  0  0  0  0  0
  -28.0539  -15.8835   20.6049 C   0  0  0  0  0  0  0  0  0  0  0  0
  -29.5379  -17.1776   21.5838 C   0  0  0  0  0  0  0  0  0  0  0  0
  -27.8264  -16.2344   23.1426 C   0  0  0  0  0  0  0  0  0  0  0  0
  -22.4942  -28.9799   21.5367 C   0  0  0  0  0  0  0  0  0  0  0  0
  -25.7072  -29.1427   21.1213 C   0  0  0  0  0  0  0  0  0  0  0  0
  -28.6461  -27.4936   20.5828 C   0  0  0  0  0  0  0  0  0  0  0  0
  -31.5271  -19.9987   16.8478 C   0  0  0  0  0  0  0  0  0  0  0  0
  -18.7998  -32.0050   23.3416 C   0  0  0  0  0  0  0  0  0  0  0  0
  -23.3069  -27.3044   23.2362 C   0  0  0  0  0  0  0  0  0  0  0  0
  -24.6141  -26.9269   20.6106 C   0  0  0  0  0  0  0  0  0  0  0  0
  -20.1774  -32.2167   22.7190 C   0  0  0  0  0  0  0  0  0  0  0  0
  -33.2202  -17.5122   18.5535 C   0  0  0  0  0  0  0  0  0  0  0  0
  -20.3175  -31.3955   21.4412 C   0  0  0  0  0  0  0  0  0  0  0  0
  -32.1344  -16.8520   19.4030 C   0  0  0  0  0  0  0  0  0  0  0  0
  -32.6990  -17.8397   17.1586 C   0  0  0  0  0  0  0  0  0  0  0  0
  -30.4153  -22.1630   17.1983 C   0  0  0  0  0  0  0  0  0  0  0  0
  -30.3867  -18.0541   18.0026 C   0  0  0  0  0  0  0  0  0  0  0  0
  -29.1053  -20.3044   16.2203 C   0  0  0  0  0  0  0  0  0  0  0  0
  -29.1703  -22.7094   17.8716 C   0  0  0  0  0  0  0  0  0  0  0  0
  -20.1889  -29.8955   21.7324 C   0  0  1  0  0  0  0  0  0  0  0  0
  -23.6642  -28.4859   22.3397 C   0  0  1  0  0  0  0  0  0  0  0  0
  -30.8577  -17.7108   19.4296 C   0  0  1  0  0  0  0  0  0  0  0  0
  -27.8166  -20.8357   16.8477 C   0  0  1  0  0  0  0  0  0  0  0  0
  -31.1002  -27.8990   20.2505 C   0  0  0  0  0  0  0  0  0  0  0  0
  -25.1652  -30.0675   18.2646 C   0  0  0  0  0  0  0  0  0  0  0  0
  -27.5507  -29.5417   17.7159 C   0  0  0  0  0  0  0  0  0  0  0  0
  -27.0196  -31.2836   19.4207 C   0  0  0  0  0  0  0  0  0  0  0  0
  -29.3493  -25.9291   22.9946 C   0  0  0  0  0  0  0  0  0  0  0  0
  -27.4135  -20.1353   18.1388 C   0  0  2  0  0  0  0  0  0  0  0  0
  -26.6545  -28.8461   19.9840 C   0  0  1  0  0  0  0  0  0  0  0  0
  -30.0009  -27.6027   21.2588 C   0  0  2  0  0  0  0  0  0  0  0  0
  -26.5804  -29.9147   18.8570 C   0  0  0  0  0  0  0  0  0  0  0  0
  -28.8604  -16.2759   19.6151 N   0  0  0  0  0  0  0  0  0  0  0  0
  -29.7524  -17.0618   20.2419 N   0  0  0  0  0  0  0  0  0  0  0  0
  -24.7323  -28.1712   21.3887 N   0  0  0  0  0  0  0  0  0  0  0  0
  -31.4820  -18.6491   17.2261 N   0  0  0  0  0  0  0  0  0  0  0  0
  -30.3234  -20.7277   16.9279 N   0  0  0  0  0  0  0  0  0  0  0  0
  -30.3413  -17.9295   22.3658 N   0  0  0  0  0  0  0  0  0  0  0  0
  -26.6916  -15.4180   23.2419 N   0  0  0  0  0  0  0  0  0  0  0  0
  -21.4171  -29.3841   22.3022 N   0  0  0  0  0  0  0  0  0  0  0  0
  -27.9771  -28.6992   20.5820 N   0  0  0  0  0  0  0  0  0  0  0  0
  -27.9632  -22.3088   17.0914 N   0  3  0  0  0  0  0  0  0  0  0  0
  -30.3351  -26.3297   21.9579 N   0  3  0  0  0  0  0  0  0  0  0  0
  -28.2719  -16.7944   24.1729 O   0  0  0  0  0  0  0  0  0  0  0  0
  -22.5641  -28.9948   20.3134 O   0  0  0  0  0  0  0  0  0  0  0  0
  -25.8323  -30.1942   21.7540 O   0  0  0  0  0  0  0  0  0  0  0  0
  -28.2251  -26.4446   20.1001 O   0  0  0  0  0  0  0  0  0  0  0  0
  -32.5766  -20.5250   16.4562 O   0  0  0  0  0  0  0  0  0  0  0  0
  -27.1595  -18.7613   17.8565 O   0  0  0  0  0  0  0  0  0  0  0  0
  -22.7550  -22.3824   20.4373 O   0  0  0  0  0  0  0  0  0  1  0  0
  -23.7449  -12.4846   19.5341 O   0  0  0  0  0  0  0  0  0  0  0  0
  -22.9258   -8.2268   22.9406 F   0  0  0  0  0  0  0  0  0  0  0  0
  -23.2588  -12.8940   22.2246 F   0  0  0  0  0  0  0  0  0  0  0  0
  1  2  1  0  0  0  0
  1  5  2  0  0  0  0
  2  6  2  0  0  0  0
  3 10  2  0  0  0  0
  3 19  1  0  0  0  0
  4 11  1  0  0  0  0
  4 19  2  0  0  0  0
  5 21  1  0  0  0  0
  6 23  1  0  0  0  0
  7 12  2  0  0  0  0
  7 22  1  0  0  0  0
  8 13  2  0  0  0  0
  8 25  1  0  0  0  0
  9 14  1  0  0  0  0
  9 25  2  0  0  0  0
 10 26  1  0  0  0  0
 11 26  2  0  0  0  0
 12 28  1  0  0  0  0
 13 27  1  0  0  0  0
 14 27  2  0  0  0  0
 15 16  2  0  0  0  0
 15 29  1  0  0  0  0
 16 30  1  0  0  0  0
 17 24  1  0  0  0  0
 17 28  2  0  0  0  0
 18 30  2  0  0  0  0
 18 31  1  0  0  0  0
 19 32  1  0  0  0  0
 20 32  1  0  0  0  0
 20 33  2  0  0  0  0
 20 34  1  0  0  0  0
 21 23  2  0  0  0  0
 21 39  1  0  0  0  0
 22 24  2  0  0  0  0
 22 40  1  0  0  0  0
 23 51  1  0  0  0  0
 24 41  1  0  0  0  0
 25 60  1  0  0  0  0
 26 82  1  0  0  0  0
 27 81  1  0  0  0  0
 28 81  1  0  0  0  0
 29 31  2  0  0  0  0
 29 82  1  0  0  0  0
 30 83  1  0  0  0  0
 31 84  1  0  0  0  0
 32 64  2  0  0  0  0
 33 65  1  0  0  0  0
 33 69  1  0  0  0  0
 34 70  1  0  0  0  0
 34 75  2  0  0  0  0
 35 52  1  0  0  0  0
 35 71  1  0  0  0  0
 35 76  2  0  0  0  0
 36 61  1  0  0  0  0
 36 66  1  0  0  0  0
 36 77  2  0  0  0  0
 37 62  1  0  0  0  0
 37 72  1  0  0  0  0
 37 78  2  0  0  0  0
 38 67  1  0  0  0  0
 38 68  1  0  0  0  0
 38 79  2  0  0  0  0
 39 42  1  0  0  0  0
 40 52  1  0  0  0  0
 41 66  1  0  0  0  0
 42 44  1  0  0  0  0
 43 45  1  0  0  0  0
 43 46  1  0  0  0  0
 44 51  1  0  0  0  0
 45 53  1  0  0  0  0
 46 67  1  0  0  0  0
 47 50  1  0  0  0  0
 47 68  1  0  0  0  0
 48 53  1  0  0  0  0
 48 67  1  0  0  0  0
 49 54  1  0  0  0  0
 49 68  1  0  0  0  0
 50 73  1  0  0  0  0
 51 71  1  0  0  0  0
 52 66  1  0  0  0  0
 53 65  1  0  0  0  0
 54 60  1  0  0  0  0
 54 73  1  0  0  0  0
 55 62  1  0  0  0  0
 56 63  1  0  0  0  0
 57 63  1  0  0  0  0
 58 63  1  0  0  0  0
 59 74  1  0  0  0  0
 60 80  1  0  0  0  0
 61 63  1  0  0  0  0
 61 72  1  0  0  0  0
 62 74  1  0  0  0  0
 64 65  1  0  0  0  0
M  CHG  2  73   1  74   1
M  ISO  4  27 101  38 100  68 100  81 101
M  END
> <Batch ID>
0130

> <Smiles>
CNC(C)C(=O)NC(C(=O)N1Cc2cc([101O:1][101c:1]3ccc(C(O)C4C[100N:0]([100C:0](=O)N5CCCC(n6nc(-c7ccc(Oc8ccc(F)cc8F)cc7)c(C(N)=O)c6N)C5)CCN4)cc3)ccc2CC1C(=O)NC1CCCc2ccccc21)C(C)(C)C

> <Shape>
0.232

> <Color>
0.058

> <Negative vol penalty>
0.000

$$$$

  -OEChem-04052320473D

 84 92  0     1  0  0  0  0  0999 V2000
  -23.0149  -10.6599   18.3761 C   0  0  0  0  0  0  0  0  0  0  0  0
  -22.4468  -11.9281   18.4417 C   0  0  0  0  0  0  0  0  0  0  0  0
  -26.7214  -29.8006   21.1491 C   0  0  0  0  0  0  0  0  0  0  0  0
  -25.1282  -28.6147   19.7734 C   0  0  0  0  0  0  0  0  0  0  0  0
  -24.1518  -10.3668   19.1281 C   0  0  0  0  0  0  0  0  0  0  0  0
  -23.0145  -12.9037   19.2604 C   0  0  0  0  0  0  0  0  0  0  0  0
  -23.2731  -18.9255   18.1756 C   0  0  0  0  0  0  0  0  0  0  0  0
  -27.6791  -28.8218   20.8839 C   0  0  0  0  0  0  0  0  0  0  0  0
  -26.0859  -27.6359   19.5081 C   0  0  0  0  0  0  0  0  0  0  0  0
  -22.4914  -19.9924   18.6165 C   0  0  0  0  0  0  0  0  0  0  0  0
  -28.4082  -25.6978   21.9484 C   0  0  0  0  0  0  0  0  0  0  0  0
  -29.1605  -25.2205   23.0216 C   0  0  0  0  0  0  0  0  0  0  0  0
  -24.0846  -20.4250   20.3754 C   0  0  0  0  0  0  0  0  0  0  0  0
  -19.2236  -20.9628   22.9767 C   0  0  0  0  0  0  0  0  0  0  0  0
  -20.3594  -22.5504   21.5648 C   0  0  0  0  0  0  0  0  0  0  0  0
  -31.1847  -25.9685   21.9352 C   0  0  0  0  0  0  0  0  0  0  0  0
  -25.4459  -29.6970   20.5939 C   0  0  0  0  0  0  0  0  0  0  0  0
  -24.2154  -31.8835   20.1325 C   0  0  0  0  0  0  0  0  0  0  0  0
  -24.7395  -11.3422   19.9490 C   0  0  0  0  0  0  0  0  0  0  0  0
  -24.4630  -18.5930   18.8391 C   0  0  0  0  0  0  0  0  0  0  0  0
  -24.1596  -12.6230   20.0252 C   0  0  0  0  0  0  0  0  0  0  0  0
  -24.8810  -19.3550   19.9394 C   0  0  0  0  0  0  0  0  0  0  0  0
  -19.3831  -22.2659   22.5149 C   0  0  0  0  0  0  0  0  0  0  0  0
  -27.3614  -27.7395   20.0634 C   0  0  0  0  0  0  0  0  0  0  0  0
  -22.8956  -20.7406   19.7183 C   0  0  0  0  0  0  0  0  0  0  0  0
  -29.0441  -26.3103   20.8685 C   0  0  0  0  0  0  0  0  0  0  0  0
  -30.5487  -25.3559   23.0151 C   0  0  0  0  0  0  0  0  0  0  0  0
  -30.4324  -26.4457   20.8620 C   0  0  0  0  0  0  0  0  0  0  0  0
  -24.4560  -30.7075   20.8680 C   0  0  0  0  0  0  0  0  0  0  0  0
  -20.0508  -19.9692   22.4727 C   0  0  0  0  0  0  0  0  0  0  0  0
  -23.1826  -32.4986   20.7968 C   0  0  0  0  0  0  0  0  0  0  0  0
  -21.1578  -21.5167   21.0967 C   0  0  0  0  0  0  0  0  0  1  0  0
  -24.8672  -32.3757   18.9542 C   0  0  0  0  0  0  0  0  0  0  0  0
  -25.5172  -16.0380   20.4089 C   0  0  0  0  0  0  0  0  0  0  0  0
  -28.2924  -17.7156   20.4893 C   0  0  0  0  0  0  0  0  0  0  0  0
  -29.8477  -20.7508   20.3652 C   0  0  0  0  0  0  0  0  0  0  0  0
  -18.8288  -30.4466   24.3585 C   0  0  0  0  0  0  0  0  0  0  0  0
  -25.9402  -10.9644   20.7797 C   0  0  0  0  0  0  0  0  0  0  0  0
  -25.3085  -17.4558   18.3348 C   0  0  0  0  0  0  0  0  0  0  0  0
  -26.1603  -19.0517   20.6741 C   0  0  0  0  0  0  0  0  0  0  0  0
  -26.6995  -12.1667   21.3348 C   0  0  0  0  0  0  0  0  0  0  0  0
  -21.2600  -32.9221   25.1575 C   0  0  0  0  0  0  0  0  0  0  0  0
  -25.7304  -13.1765   21.9414 C   0  0  0  0  0  0  0  0  0  0  0  0
  -22.3330  -32.7413   24.0824 C   0  0  0  0  0  0  0  0  0  0  0  0
  -20.6565  -31.5853   25.5829 C   0  0  0  0  0  0  0  0  0  0  0  0
  -21.2085  -30.5802   23.4015 C   0  0  0  0  0  0  0  0  0  0  0  0
  -24.7609  -13.7154   20.8826 C   0  0  1  0  0  0  0  0  0  0  0  0
  -26.2397  -16.8854   19.4001 C   0  0  1  0  0  0  0  0  0  0  0  0
  -21.8070  -31.9056   22.9000 C   0  0  2  0  0  0  0  0  0  0  0  0
  -19.9445  -18.5550   22.9139 C   0  0  0  0  0  0  0  0  0  0  0  0
  -32.1205  -21.8064   20.4962 C   0  0  0  0  0  0  0  0  0  0  0  0
  -28.3018  -17.3141   23.5140 C   0  0  0  0  0  0  0  0  0  0  0  0
  -30.0060  -19.1405   23.6811 C   0  0  0  0  0  0  0  0  0  0  0  0
  -30.5357  -17.0543   22.4202 C   0  0  0  0  0  0  0  0  0  0  0  0
  -29.6180  -21.8596   17.6308 C   0  0  0  0  0  0  0  0  0  0  0  0
  -18.6680  -24.6555   22.5774 C   0  0  0  0  0  0  0  0  0  0  0  0
  -17.1016  -29.2847   23.0073 C   0  0  0  0  0  0  0  0  0  0  0  0
  -17.6842  -25.5287   23.3332 C   0  0  0  0  0  0  0  0  0  0  0  0
  -16.8877  -27.8856   23.5544 C   0  0  0  0  0  0  0  0  0  0  0  0
  -28.9081  -18.7189   21.4344 C   0  0  1  0  0  0  0  0  0  0  0  0
  -31.0522  -21.2339   19.5777 C   0  0  2  0  0  0  0  0  0  0  0  0
  -29.4128  -18.0617   22.7500 C   0  0  0  0  0  0  0  0  0  0  0  0
  -23.6417  -30.5810   21.9192 N   0  0  0  0  0  0  0  0  0  0  0  0
  -22.8793  -31.6856   21.8490 N   0  0  0  0  0  0  0  0  0  0  0  0
  -20.9828  -20.2709   21.5584 N   0  3  0  0  0  0  0  0  0  0  0  0
  -26.9493  -17.9262   20.1466 N   0  0  0  0  0  0  0  0  0  0  0  0
  -20.1752  -30.8429   24.4154 N   0  0  0  0  0  0  0  0  0  0  0  0
  -22.5133  -33.6504   20.5777 N   0  0  0  0  0  0  0  0  0  0  0  0
  -25.9091  -31.6187   18.4013 N   0  0  0  0  0  0  0  0  0  0  0  0
  -18.5571  -23.2963   23.0090 N   0  0  0  0  0  0  0  0  0  0  0  0
  -25.4156  -14.7060   20.0553 N   0  0  0  0  0  0  0  0  0  0  0  0
  -29.9448  -19.4110   20.6763 N   0  0  0  0  0  0  0  0  0  0  0  0
  -18.4538  -29.7529   23.2144 N   0  0  0  0  0  0  0  0  0  0  0  0
  -30.6477  -22.2928   18.6101 N   0  3  0  0  0  0  0  0  0  0  0  0
  -17.8458  -26.9431   22.9150 N   0  3  0  0  0  0  0  0  0  0  0  0
  -24.5463  -33.4630   18.4171 O   0  0  0  0  0  0  0  0  0  0  0  0
  -25.0854  -16.5541   21.4330 O   0  0  0  0  0  0  0  0  0  0  0  0
  -28.9800  -16.7834   20.0650 O   0  0  0  0  0  0  0  0  0  0  0  0
  -28.9157  -21.4890   20.6766 O   0  0  0  0  0  0  0  0  0  0  0  0
  -18.0196  -30.6974   25.2580 O   0  0  0  0  0  0  0  0  0  0  0  0
  -28.2957  -26.7843   19.8041 O   0  0  0  0  0  0  0  0  0  0  0  0
  -22.1342  -21.7821   20.1511 O   0  0  0  0  0  0  0  0  0  1  0  0
  -31.2709  -24.8990   24.0465 F   0  0  0  0  0  0  0  0  0  0  0  0
  -31.0488  -27.0343   19.8279 F   0  0  0  0  0  0  0  0  0  0  0  0
  1  2  1  0  0  0  0
  1  5  2  0  0  0  0
  2  6  2  0  0  0  0
  3  8  2  0  0  0  0
  3 17  1  0  0  0  0
  4  9  1  0  0  0  0
  4 17  2  0  0  0  0
  5 19  1  0  0  0  0
  6 21  1  0  0  0  0
  7 10  2  0  0  0  0
  7 20  1  0  0  0  0
  8 24  1  0  0  0  0
  9 24  2  0  0  0  0
 10 25  1  0  0  0  0
 11 12  2  0  0  0  0
 11 26  1  0  0  0  0
 12 27  1  0  0  0  0
 13 22  1  0  0  0  0
 13 25  2  0  0  0  0
 14 23  1  0  0  0  0
 14 30  2  0  0  0  0
 15 23  2  0  0  0  0
 15 32  1  0  0  0  0
 16 27  2  0  0  0  0
 16 28  1  0  0  0  0
 17 29  1  0  0  0  0
 18 29  1  0  0  0  0
 18 31  2  0  0  0  0
 18 33  1  0  0  0  0
 19 21  2  0  0  0  0
 19 38  1  0  0  0  0
 20 22  2  0  0  0  0
 20 39  1  0  0  0  0
 21 47  1  0  0  0  0
 22 40  1  0  0  0  0
 23 70  1  0  0  0  0
 24 81  1  0  0  0  0
 25 82  1  0  0  0  0
 26 28  2  0  0  0  0
 26 81  1  0  0  0  0
 27 83  1  0  0  0  0
 28 84  1  0  0  0  0
 29 63  2  0  0  0  0
 30 50  1  0  0  0  0
 30 65  1  0  0  0  0
 31 64  1  0  0  0  0
 31 68  1  0  0  0  0
 32 65  2  0  0  0  0
 32 82  1  0  0  0  0
 33 69  1  0  0  0  0
 33 76  2  0  0  0  0
 34 48  1  0  0  0  0
 34 71  1  0  0  0  0
 34 77  2  0  0  0  0
 35 60  1  0  0  0  0
 35 66  1  0  0  0  0
 35 78  2  0  0  0  0
 36 61  1  0  0  0  0
 36 72  1  0  0  0  0
 36 79  2  0  0  0  0
 37 67  1  0  0  0  0
 37 73  1  0  0  0  0
 37 80  2  0  0  0  0
 38 41  1  0  0  0  0
 39 48  1  0  0  0  0
 40 66  1  0  0  0  0
 41 43  1  0  0  0  0
 42 44  1  0  0  0  0
 42 45  1  0  0  0  0
 43 47  1  0  0  0  0
 44 49  1  0  0  0  0
 45 67  1  0  0  0  0
 46 49  1  0  0  0  0
 46 67  1  0  0  0  0
 47 71  1  0  0  0  0
 48 66  1  0  0  0  0
 49 64  1  0  0  0  0
 51 61  1  0  0  0  0
 52 62  1  0  0  0  0
 53 62  1  0  0  0  0
 54 62  1  0  0  0  0
 55 74  1  0  0  0  0
 56 58  1  0  0  0  0
 56 70  1  0  0  0  0
 57 59  1  0  0  0  0
 57 73  1  0  0  0  0
 58 75  1  0  0  0  0
 59 75  1  0  0  0  0
 60 62  1  0  0  0  0
 60 72  1  0  0  0  0
 61 74  1  0  0  0  0
 63 64  1  0  0  0  0
M  CHG  3  65   1  74   1  75   1
M  ISO  4  32 101  37 100  73 100  82 101
M  END
> <Batch ID>
0130

> <Smiles>
CNC(C)C(=O)NC(C(=O)N1Cc2cc([101O:1][101c:1]3cc(NCCNCC[100NH:0][100C:0](=O)N4CCCC(n5nc(-c6ccc(Oc7ccc(F)cc7F)cc6)c(C(N)=O)c5N)C4)cc(C)n3)ccc2CC1C(=O)NC1CCCc2ccccc21)C(C)(C)C

> <Shape>
0.220

> <Color>
0.065

> <Negative vol penalty>
0.000

$$$$

  -OEChem-04052320473D

 84 93  0     1  0  0  0  0  0999 V2000
  -30.6258  -25.2278   17.0678 C   0  0  0  0  0  0  0  0  0  0  0  0
  -29.2572  -25.0741   17.2646 C   0  0  0  0  0  0  0  0  0  0  0  0
  -22.7253  -10.5983   20.4362 C   0  0  0  0  0  0  0  0  0  0  0  0
  -23.9459   -9.9998   22.4334 C   0  0  0  0  0  0  0  0  0  0  0  0
  -31.4065  -25.8338   18.0512 C   0  0  0  0  0  0  0  0  0  0  0  0
  -28.6687  -25.5253   18.4454 C   0  0  0  0  0  0  0  0  0  0  0  0
  -22.3451  -21.0021   23.4534 C   0  0  0  0  0  0  0  0  0  0  0  0
  -21.3711  -20.0288   21.4682 C   0  0  0  0  0  0  0  0  0  0  0  0
  -23.0707  -27.9249   19.0860 C   0  0  0  0  0  0  0  0  0  0  0  0
  -23.3632  -20.0492   23.4212 C   0  0  0  0  0  0  0  0  0  0  0  0
  -22.3892  -19.0759   21.4359 C   0  0  0  0  0  0  0  0  0  0  0  0
  -21.7775   -9.6154   20.7209 C   0  0  0  0  0  0  0  0  0  0  0  0
  -22.9981   -9.0169   22.7181 C   0  0  0  0  0  0  0  0  0  0  0  0
  -21.8576  -27.3779   19.5017 C   0  0  0  0  0  0  0  0  0  0  0  0
  -22.2717   -5.8818   21.6817 C   0  0  0  0  0  0  0  0  0  0  0  0
  -22.7372   -4.6275   22.0764 C   0  0  0  0  0  0  0  0  0  0  0  0
  -22.2637  -28.1910   21.7363 C   0  0  0  0  0  0  0  0  0  0  0  0
  -21.5613   -4.8514   24.1750 C   0  0  0  0  0  0  0  0  0  0  0  0
  -23.8095  -10.7905   21.2924 C   0  0  0  0  0  0  0  0  0  0  0  0
  -25.6009  -11.8968   19.8519 C   0  0  0  0  0  0  0  0  0  0  0  0
  -21.3490  -20.9919   22.4770 C   0  0  0  0  0  0  0  0  0  0  0  0
  -30.8258  -26.3014   19.2406 C   0  0  0  0  0  0  0  0  0  0  0  0
  -23.8959  -28.6009   19.9963 C   0  0  0  0  0  0  0  0  0  0  0  0
  -29.4426  -26.1370   19.4462 C   0  0  0  0  0  0  0  0  0  0  0  0
  -23.4855  -28.7479   21.3290 C   0  0  0  0  0  0  0  0  0  0  0  0
  -23.3853  -19.0861   22.4124 C   0  0  0  0  0  0  0  0  0  0  0  0
  -21.9138   -8.8247   21.8619 C   0  0  0  0  0  0  0  0  0  0  0  0
  -21.4553  -27.5083   20.8277 C   0  0  0  0  0  0  0  0  0  0  0  0
  -21.4510   -6.6209   22.5337 C   0  0  0  0  0  0  0  0  0  0  0  0
  -22.3820   -4.1124   23.3230 C   0  0  0  0  0  0  0  0  0  0  0  0
  -21.0958   -6.1057   23.7803 C   0  0  0  0  0  0  0  0  0  0  0  0
  -24.7893  -11.8054   20.9985 C   0  0  0  0  0  0  0  0  0  0  0  0
  -26.3523  -13.0288   20.0525 C   0  0  0  0  0  0  0  0  0  0  0  0
  -25.6693  -11.0355   18.7077 C   0  0  0  0  0  0  0  0  0  0  0  0
  -26.8369  -28.1551   21.1167 C   0  0  0  0  0  0  0  0  0  0  0  0
  -26.3122  -31.0251   22.5345 C   0  0  0  0  0  0  0  0  0  0  0  0
  -24.0642  -33.3072   23.7114 C   0  0  0  0  0  0  0  0  0  0  0  0
  -25.4837  -17.9879   23.2709 C   0  0  0  0  0  0  0  0  0  0  0  0
  -31.7180  -26.9073   20.2948 C   0  0  0  0  0  0  0  0  0  0  0  0
  -25.1889  -29.2085   19.5259 C   0  0  0  0  0  0  0  0  0  0  0  0
  -24.3255  -29.4819   22.3410 C   0  0  0  0  0  0  0  0  0  0  0  0
  -30.9567  -27.6958   21.3574 C   0  0  0  0  0  0  0  0  0  0  0  0
  -28.2120  -15.7176   23.5520 C   0  0  0  0  0  0  0  0  0  0  0  0
  -29.7491  -26.9030   21.8473 C   0  0  0  0  0  0  0  0  0  0  0  0
  -27.7201  -14.4672   22.8195 C   0  0  0  0  0  0  0  0  0  0  0  0
  -19.2141  -21.9860   21.3825 C   0  0  0  0  0  0  0  0  0  0  0  0
  -27.0850  -16.4045   24.3213 C   0  0  0  0  0  0  0  0  0  0  0  0
  -25.3970  -15.4618   22.7945 C   0  0  0  0  0  0  0  0  0  0  0  0
  -18.4896  -23.3058   21.5411 C   0  0  0  0  0  0  0  0  0  0  0  0
  -20.7536  -23.4710   22.4425 C   0  0  0  0  0  0  0  0  0  0  0  0
  -20.2443  -22.0259   22.5122 C   0  0  2  0  0  0  0  0  0  0  0  0
  -28.7635  -26.6359   20.7032 C   0  0  1  0  0  0  0  0  0  0  0  0
  -26.1904  -29.4305   20.6551 C   0  0  1  0  0  0  0  0  0  0  0  0
  -26.4828  -14.7721   21.9525 C   0  0  2  0  0  0  0  0  0  0  0  0
  -23.9363  -35.5396   24.8504 C   0  0  0  0  0  0  0  0  0  0  0  0
  -27.0710  -29.7144   25.1833 C   0  0  0  0  0  0  0  0  0  0  0  0
  -26.0294  -31.6605   26.3648 C   0  0  0  0  0  0  0  0  0  0  0  0
  -27.9863  -32.0192   24.8599 C   0  0  0  0  0  0  0  0  0  0  0  0
  -22.6096  -34.5154   21.4347 C   0  0  0  0  0  0  0  0  0  0  0  0
  -19.1688  -25.4283   22.7108 C   0  0  0  0  0  0  0  0  0  0  0  0
  -20.1880  -26.5444   22.5943 C   0  0  0  0  0  0  0  0  0  1  0  0
  -25.7317  -31.4759   23.8531 C   0  0  1  0  0  0  0  0  0  0  0  0
  -23.9577  -34.8090   23.5169 C   0  0  2  0  0  0  0  0  0  0  0  0
  -26.6894  -31.2019   25.0469 C   0  0  0  0  0  0  0  0  0  0  0  0
  -25.0049  -12.8000   21.8636 N   0  0  0  0  0  0  0  0  0  0  0  0
  -25.9607  -13.5271   21.2602 N   0  0  0  0  0  0  0  0  0  0  0  0
  -25.5843  -30.0529   21.8339 N   0  0  0  0  0  0  0  0  0  0  0  0
  -25.9486  -16.6660   23.4352 N   0  0  0  0  0  0  0  0  0  0  0  0
  -27.3034  -13.6367   19.3120 N   0  0  0  0  0  0  0  0  0  0  0  0
  -24.8271   -9.9161   18.6628 N   0  0  0  0  0  0  0  0  0  0  0  0
  -24.4196  -18.1182   22.3791 N   0  0  0  0  0  0  0  0  0  0  0  0
  -27.9833  -27.8216   20.4210 N   0  0  0  0  0  0  0  0  0  0  0  0
  -25.3750  -32.8803   23.6833 N   0  0  0  0  0  0  0  0  0  0  0  0
  -19.6019  -24.2742   21.8645 N   0  3  2  0  0  0  0  0  0  0  0  0
  -22.7103  -35.1480   22.7751 N   0  3  0  0  0  0  0  0  0  0  0  0
  -26.4657  -11.2430   17.7611 O   0  0  0  0  0  0  0  0  0  0  0  0
  -26.3338  -27.5213   22.0369 O   0  0  0  0  0  0  0  0  0  0  0  0
  -27.3687  -31.5226   22.1372 O   0  0  0  0  0  0  0  0  0  0  0  0
  -23.0830  -32.5856   23.8759 O   0  0  0  0  0  0  0  0  0  0  0  0
  -26.0097  -18.9383   23.8558 O   0  0  0  0  0  0  0  0  0  0  0  0
  -20.9890   -7.8656   22.1401 O   0  0  0  0  0  0  0  0  0  0  0  0
  -20.2720  -26.9747   21.2363 O   0  0  0  0  0  0  0  0  0  1  0  0
  -22.8279   -2.9072   23.7012 F   0  0  0  0  0  0  0  0  0  0  0  0
  -20.3067   -6.8106   24.6027 F   0  0  0  0  0  0  0  0  0  0  0  0
  1  2  1  0  0  0  0
  1  5  2  0  0  0  0
  2  6  2  0  0  0  0
  3 12  2  0  0  0  0
  3 19  1  0  0  0  0
  4 13  1  0  0  0  0
  4 19  2  0  0  0  0
  5 22  1  0  0  0  0
  6 24  1  0  0  0  0
  7 10  2  0  0  0  0
  7 21  1  0  0  0  0
  8 11  1  0  0  0  0
  8 21  2  0  0  0  0
  9 14  2  0  0  0  0
  9 23  1  0  0  0  0
 10 26  1  0  0  0  0
 11 26  2  0  0  0  0
 12 27  1  0  0  0  0
 13 27  2  0  0  0  0
 14 28  1  0  0  0  0
 15 16  2  0  0  0  0
 15 29  1  0  0  0  0
 16 30  1  0  0  0  0
 17 25  1  0  0  0  0
 17 28  2  0  0  0  0
 18 30  2  0  0  0  0
 18 31  1  0  0  0  0
 19 32  1  0  0  0  0
 20 32  1  0  0  0  0
 20 33  2  0  0  0  0
 20 34  1  0  0  0  0
 21 51  1  0  0  0  0
 22 24  2  0  0  0  0
 22 39  1  0  0  0  0
 23 25  2  0  0  0  0
 23 40  1  0  0  0  0
 24 52  1  0  0  0  0
 25 41  1  0  0  0  0
 26 71  1  0  0  0  0
 27 81  1  0  0  0  0
 28 82  1  0  0  0  0
 29 31  2  0  0  0  0
 29 81  1  0  0  0  0
 30 83  1  0  0  0  0
 31 84  1  0  0  0  0
 32 65  2  0  0  0  0
 33 66  1  0  0  0  0
 33 69  1  0  0  0  0
 34 70  1  0  0  0  0
 34 76  2  0  0  0  0
 35 53  1  0  0  0  0
 35 72  1  0  0  0  0
 35 77  2  0  0  0  0
 36 62  1  0  0  0  0
 36 67  1  0  0  0  0
 36 78  2  0  0  0  0
 37 63  1  0  0  0  0
 37 73  1  0  0  0  0
 37 79  2  0  0  0  0
 38 68  1  0  0  0  0
 38 71  1  0  0  0  0
 38 80  2  0  0  0  0
 39 42  1  0  0  0  0
 40 53  1  0  0  0  0
 41 67  1  0  0  0  0
 42 44  1  0  0  0  0
 43 45  1  0  0  0  0
 43 47  1  0  0  0  0
 44 52  1  0  0  0  0
 45 54  1  0  0  0  0
 46 49  1  0  0  0  0
 46 51  1  0  0  0  0
 47 68  1  0  0  0  0
 48 54  1  0  0  0  0
 48 68  1  0  0  0  0
 49 74  1  0  0  0  0
 50 51  1  0  0  0  0
 50 74  1  0  0  0  0
 52 72  1  0  0  0  0
 53 67  1  0  0  0  0
 54 66  1  0  0  0  0
 55 63  1  0  0  0  0
 56 64  1  0  0  0  0
 57 64  1  0  0  0  0
 58 64  1  0  0  0  0
 59 75  1  0  0  0  0
 60 61  1  0  0  0  0
 60 74  1  0  0  0  0
 61 82  1  0  0  0  0
 62 64  1  0  0  0  0
 62 73  1  0  0  0  0
 63 75  1  0  0  0  0
 65 66  1  0  0  0  0
M  CHG  2  74   1  75   1
M  ISO  4  38 100  61 101  71 100  82 101
M  END
> <Batch ID>
0130

> <Smiles>
CNC(C)C(=O)NC(C(=O)N1Cc2cc([101O:1][101CH2:1]CN3CCC(c4ccc([100NH:0][100C:0](=O)N5CCCC(n6nc(-c7ccc(Oc8ccc(F)cc8F)cc7)c(C(N)=O)c6N)C5)cc4)C3)ccc2CC1C(=O)NC1CCCc2ccccc21)C(C)(C)C

> <Shape>
0.303

> <Color>
0.085

> <Negative vol penalty>
0.000

$$$$

  -OEChem-04052320473D

 89 98  0     1  0  0  0  0  0999 V2000
  -20.3375  -28.1486   15.0158 C   0  0  0  0  0  0  0  0  0  0  0  0
  -21.5828  -27.7973   15.5270 C   0  0  0  0  0  0  0  0  0  0  0  0
  -24.1468  -10.5219   23.3050 C   0  0  0  0  0  0  0  0  0  0  0  0
  -23.8640  -12.8317   23.9547 C   0  0  0  0  0  0  0  0  0  0  0  0
  -19.9198  -29.4782   15.0530 C   0  0  0  0  0  0  0  0  0  0  0  0
  -22.4115  -28.7759   16.0749 C   0  0  0  0  0  0  0  0  0  0  0  0
  -24.5057  -27.3211   20.4502 C   0  0  0  0  0  0  0  0  0  0  0  0
  -29.3152  -20.0378   21.2729 C   0  0  0  0  0  0  0  0  0  0  0  0
  -23.6644  -10.1131   24.5483 C   0  0  0  0  0  0  0  0  0  0  0  0
  -23.3816  -12.4229   25.1980 C   0  0  0  0  0  0  0  0  0  0  0  0
  -25.5928  -26.4513   20.3776 C   0  0  0  0  0  0  0  0  0  0  0  0
  -24.8374   -9.8357   27.7061 C   0  0  0  0  0  0  0  0  0  0  0  0
  -25.5297   -8.8214   28.3674 C   0  0  0  0  0  0  0  0  0  0  0  0
  -29.0005  -18.6844   21.2230 C   0  0  0  0  0  0  0  0  0  0  0  0
  -28.0984  -26.4092   17.9393 C   0  0  0  0  0  0  0  0  0  0  0  0
  -27.0946  -28.3108   20.7035 C   0  0  0  0  0  0  0  0  0  0  0  0
  -23.5405   -7.4504   28.3471 C   0  0  0  0  0  0  0  0  0  0  0  0
  -28.9369  -25.8982   16.9732 C   0  0  0  0  0  0  0  0  0  0  0  0
  -24.2466  -11.8812   23.0082 C   0  0  0  0  0  0  0  0  0  0  0  0
  -23.9952  -12.5408   20.5568 C   0  0  0  0  0  0  0  0  0  0  0  0
  -20.7398  -30.4720   15.6104 C   0  0  0  0  0  0  0  0  0  0  0  0
  -24.7057  -28.6961   20.6394 C   0  0  0  0  0  0  0  0  0  0  0  0
  -22.0049  -30.1203   16.1184 C   0  0  0  0  0  0  0  0  0  0  0  0
  -26.0082  -29.1956   20.7807 C   0  0  0  0  0  0  0  0  0  0  0  0
  -30.5129  -20.4879   20.7288 C   0  0  0  0  0  0  0  0  0  0  0  0
  -23.2818  -11.0636   25.4948 C   0  0  0  0  0  0  0  0  0  0  0  0
  -26.8877  -26.9464   20.5014 C   0  0  0  0  0  0  0  0  0  0  0  0
  -23.4966   -9.6574   27.3653 C   0  0  0  0  0  0  0  0  0  0  0  0
  -28.5056  -25.8663   19.1831 C   0  0  0  0  0  0  0  0  0  1  0  0
  -24.8813   -7.6287   28.6879 C   0  0  0  0  0  0  0  0  0  0  0  0
  -22.8482   -8.4647   27.6858 C   0  0  0  0  0  0  0  0  0  0  0  0
  -24.7454  -12.3041   21.7243 C   0  0  0  0  0  0  0  0  0  0  0  0
  -31.3550  -19.5517   20.1507 C   0  0  0  0  0  0  0  0  0  0  0  0
  -29.5803  -25.0398   18.9390 C   0  0  0  0  0  0  0  0  0  0  0  0
  -29.9102  -17.8289   20.6226 C   0  0  0  0  0  0  0  0  0  0  0  0
  -24.9266  -12.9190   19.6209 C   0  0  0  0  0  0  0  0  0  0  0  0
  -22.5826  -12.4289   20.3379 C   0  0  0  0  0  0  0  0  0  0  0  0
  -24.0558  -31.3105   18.9522 C   0  0  0  0  0  0  0  0  0  0  0  0
  -25.1271  -32.8228   21.6144 C   0  0  0  0  0  0  0  0  0  0  0  0
  -27.0343  -32.7082   24.4421 C   0  0  0  0  0  0  0  0  0  0  0  0
  -30.3386  -15.4191   20.0265 C   0  0  0  0  0  0  0  0  0  0  0  0
  -20.2648  -31.9033   15.5854 C   0  0  0  0  0  0  0  0  0  0  0  0
  -23.5212  -29.6175   20.7422 C   0  0  0  0  0  0  0  0  0  0  0  0
  -26.2758  -30.6606   21.0054 C   0  0  0  0  0  0  0  0  0  0  0  0
  -21.0461  -32.8207   16.5226 C   0  0  0  0  0  0  0  0  0  0  0  0
  -29.5364  -12.3186   18.4705 C   0  0  0  0  0  0  0  0  0  0  0  0
  -22.5459  -32.5881   16.3696 C   0  0  0  0  0  0  0  0  0  0  0  0
  -28.1459  -11.9876   19.0174 C   0  0  0  0  0  0  0  0  0  0  0  0
  -30.4166  -12.9864   19.5256 C   0  0  0  0  0  0  0  0  0  0  0  0
  -28.4349  -13.8340   20.7186 C   0  0  0  0  0  0  0  0  0  0  0  0
  -22.9220  -31.1492   16.7433 C   0  0  1  0  0  0  0  0  0  0  0  0
  -23.8641  -31.0694   20.4228 C   0  0  1  0  0  0  0  0  0  0  0  0
  -27.4904  -13.2189   19.6730 C   0  0  2  0  0  0  0  0  0  0  0  0
  -32.6552  -19.9787   19.5519 C   0  0  0  0  0  0  0  0  0  0  0  0
  -27.7420  -34.1107   26.3991 C   0  0  0  0  0  0  0  0  0  0  0  0
  -31.8935  -25.2741   16.2498 C   0  0  0  0  0  0  0  0  0  0  0  0
  -30.3163  -23.3231   15.9151 C   0  0  0  0  0  0  0  0  0  0  0  0
  -27.0581  -34.3542   19.8155 C   0  0  0  0  0  0  0  0  0  0  0  0
  -28.3454  -34.9988   21.8638 C   0  0  0  0  0  0  0  0  0  0  0  0
  -25.9765  -35.7343   21.5988 C   0  0  0  0  0  0  0  0  0  0  0  0
  -25.8084  -30.8340   26.3769 C   0  0  0  0  0  0  0  0  0  0  0  0
  -30.8594  -21.9468   20.7804 C   0  0  0  0  0  0  0  0  0  0  0  0
  -30.3870  -24.2250   19.8719 C   0  0  0  0  0  0  0  0  0  0  0  0
  -26.4718  -33.3064   22.1012 C   0  0  1  0  0  0  0  0  0  0  0  0
  -26.7324  -33.1001   25.8773 C   0  0  2  0  0  0  0  0  0  0  0  0
  -30.8806  -24.3376   16.9114 C   0  0  0  0  0  0  0  0  0  0  0  0
  -26.9583  -34.5710   21.3386 C   0  0  0  0  0  0  0  0  0  0  0  0
  -26.0527  -12.5141   21.5485 N   0  0  0  0  0  0  0  0  0  0  0  0
  -31.0836  -18.2291   20.0833 N   0  0  0  0  0  0  0  0  0  0  0  0
  -29.8337  -25.0670   17.5924 N   0  0  0  0  0  0  0  0  0  0  0  0
  -26.1312  -12.8867   20.2597 N   0  0  0  0  0  0  0  0  0  0  0  0
  -25.0851  -31.5222   21.0924 N   0  0  0  0  0  0  0  0  0  0  0  0
  -29.7325  -14.1470   20.0997 N   0  0  0  0  0  0  0  0  0  0  0  0
  -24.8245  -13.2725   18.3221 N   0  0  0  0  0  0  0  0  0  0  0  0
  -21.7705  -12.0279   21.4075 N   0  0  0  0  0  0  0  0  0  0  0  0
  -29.5802  -16.4517   20.5769 N   0  0  0  0  0  0  0  0  0  0  0  0
  -22.9537  -30.9924   18.1816 N   0  0  0  0  0  0  0  0  0  0  0  0
  -26.3419  -33.4909   23.5425 N   0  0  0  0  0  0  0  0  0  0  0  0
  -26.7690  -31.9003   26.7605 N   0  3  0  0  0  0  0  0  0  0  0  0
  -30.0926  -22.7614   19.8055 N   0  3  0  0  0  0  0  0  0  0  0  0
  -22.0582  -12.6614   19.2224 O   0  0  0  0  0  0  0  0  0  0  0  0
  -25.1239  -31.7537   18.5467 O   0  0  0  0  0  0  0  0  0  0  0  0
  -24.1486  -33.5689   21.7009 O   0  0  0  0  0  0  0  0  0  0  0  0
  -27.8099  -31.8012   24.1484 O   0  0  0  0  0  0  0  0  0  0  0  0
  -31.4366  -15.5847   19.4889 O   0  0  0  0  0  0  0  0  0  0  0  0
  -22.8108  -10.6651   26.7080 O   0  0  0  0  0  0  0  0  0  0  0  0
  -27.9506  -26.0997   20.4302 O   0  0  0  0  0  0  0  0  0  1  0  0
  -25.5468   -6.6542   29.3216 F   0  0  0  0  0  0  0  0  0  0  0  0
  -21.5605   -8.2872   27.3599 F   0  0  0  0  0  0  0  0  0  0  0  0
  1  2  1  0  0  0  0
  1  5  2  0  0  0  0
  2  6  2  0  0  0  0
  3  9  2  0  0  0  0
  3 19  1  0  0  0  0
  4 10  1  0  0  0  0
  4 19  2  0  0  0  0
  5 21  1  0  0  0  0
  6 23  1  0  0  0  0
  7 11  2  0  0  0  0
  7 22  1  0  0  0  0
  8 14  2  0  0  0  0
  8 25  1  0  0  0  0
  9 26  1  0  0  0  0
 10 26  2  0  0  0  0
 11 27  1  0  0  0  0
 12 13  2  0  0  0  0
 12 28  1  0  0  0  0
 13 30  1  0  0  0  0
 14 35  1  0  0  0  0
 15 18  2  0  0  0  0
 15 29  1  0  0  0  0
 16 24  1  0  0  0  0
 16 27  2  0  0  0  0
 17 30  2  0  0  0  0
 17 31  1  0  0  0  0
 18 70  1  0  0  0  0
 19 32  1  0  0  0  0
 20 32  1  0  0  0  0
 20 36  2  0  0  0  0
 20 37  1  0  0  0  0
 21 23  2  0  0  0  0
 21 42  1  0  0  0  0
 22 24  2  0  0  0  0
 22 43  1  0  0  0  0
 23 51  1  0  0  0  0
 24 44  1  0  0  0  0
 25 33  2  0  0  0  0
 25 62  1  0  0  0  0
 26 86  1  0  0  0  0
 27 87  1  0  0  0  0
 28 31  2  0  0  0  0
 28 86  1  0  0  0  0
 29 34  2  0  0  0  0
 29 87  1  0  0  0  0
 30 88  1  0  0  0  0
 31 89  1  0  0  0  0
 32 68  2  0  0  0  0
 33 54  1  0  0  0  0
 33 69  1  0  0  0  0
 34 63  1  0  0  0  0
 34 70  1  0  0  0  0
 35 69  2  0  0  0  0
 35 76  1  0  0  0  0
 36 71  1  0  0  0  0
 36 74  1  0  0  0  0
 37 75  1  0  0  0  0
 37 81  2  0  0  0  0
 38 52  1  0  0  0  0
 38 77  1  0  0  0  0
 38 82  2  0  0  0  0
 39 64  1  0  0  0  0
 39 72  1  0  0  0  0
 39 83  2  0  0  0  0
 40 65  1  0  0  0  0
 40 78  1  0  0  0  0
 40 84  2  0  0  0  0
 41 73  1  0  0  0  0
 41 76  1  0  0  0  0
 41 85  2  0  0  0  0
 42 45  1  0  0  0  0
 43 52  1  0  0  0  0
 44 72  1  0  0  0  0
 45 47  1  0  0  0  0
 46 48  1  0  0  0  0
 46 49  1  0  0  0  0
 47 51  1  0  0  0  0
 48 53  1  0  0  0  0
 49 73  1  0  0  0  0
 50 53  1  0  0  0  0
 50 73  1  0  0  0  0
 51 77  1  0  0  0  0
 52 72  1  0  0  0  0
 53 71  1  0  0  0  0
 55 65  1  0  0  0  0
 56 66  1  0  0  0  0
 57 66  1  0  0  0  0
 58 67  1  0  0  0  0
 59 67  1  0  0  0  0
 60 67  1  0  0  0  0
 61 79  1  0  0  0  0
 62 80  1  0  0  0  0
 63 80  1  0  0  0  0
 64 67  1  0  0  0  0
 64 78  1  0  0  0  0
 65 79  1  0  0  0  0
 66 70  1  0  0  0  0
 68 71  1  0  0  0  0
M  CHG  2  79   1  80   1
M  ISO  4  29 101  41 100  76 100  87 101
M  END
> <Batch ID>
0130

> <Smiles>
CNC(C)C(=O)NC(C(=O)N1Cc2cc([101O:1][101c:1]3ccn(C(C)C)c3CNCc3ccc([100NH:0][100C:0](=O)N4CCCC(n5nc(-c6ccc(Oc7ccc(F)cc7F)cc6)c(C(N)=O)c5N)C4)nc3C)ccc2CC1C(=O)NC1CCCc2ccccc21)C(C)(C)C

> <Shape>
0.259

> <Color>
0.102

> <Negative vol penalty>
0.000

$$$$

  -OEChem-04052320473D

 80 88  0     1  0  0  0  0  0999 V2000
  -26.0437  -33.0977   18.5280 C   0  0  0  0  0  0  0  0  0  0  0  0
  -26.6675  -31.9524   19.0123 C   0  0  0  0  0  0  0  0  0  0  0  0
  -23.1043   -9.8331   19.9343 C   0  0  0  0  0  0  0  0  0  0  0  0
  -23.8737   -9.8436   22.2245 C   0  0  0  0  0  0  0  0  0  0  0  0
  -25.1507  -33.0057   17.4613 C   0  0  0  0  0  0  0  0  0  0  0  0
  -26.3977  -30.7141   18.4307 C   0  0  0  0  0  0  0  0  0  0  0  0
  -30.3095  -26.0589   17.7010 C   0  0  0  0  0  0  0  0  0  0  0  0
  -29.1217  -18.7675   21.0195 C   0  0  0  0  0  0  0  0  0  0  0  0
  -28.8345  -19.8185   20.1486 C   0  0  0  0  0  0  0  0  0  0  0  0
  -22.3891   -8.6610   20.1799 C   0  0  0  0  0  0  0  0  0  0  0  0
  -23.1585   -8.6715   22.4701 C   0  0  0  0  0  0  0  0  0  0  0  0
  -30.5278  -24.8934   18.4343 C   0  0  0  0  0  0  0  0  0  0  0  0
  -19.9529   -7.7932   23.0809 C   0  0  0  0  0  0  0  0  0  0  0  0
  -19.2022   -7.7279   24.2547 C   0  0  0  0  0  0  0  0  0  0  0  0
  -29.0878  -23.6815   16.9253 C   0  0  0  0  0  0  0  0  0  0  0  0
  -31.3357  -18.5853   20.0696 C   0  0  0  0  0  0  0  0  0  0  0  0
  -20.4925   -5.8159   24.9734 C   0  0  0  0  0  0  0  0  0  0  0  0
  -23.8466  -10.4244   20.9566 C   0  0  0  0  0  0  0  0  0  0  0  0
  -24.1278  -12.9577   20.8514 C   0  0  0  0  0  0  0  0  0  0  0  0
  -24.8772  -31.7670   16.8601 C   0  0  0  0  0  0  0  0  0  0  0  0
  -29.4687  -26.0468   16.5789 C   0  0  0  0  0  0  0  0  0  0  0  0
  -25.4991  -30.6052   17.3558 C   0  0  0  0  0  0  0  0  0  0  0  0
  -28.8625  -24.8477   16.1780 C   0  0  0  0  0  0  0  0  0  0  0  0
  -30.3723  -18.1509   20.9800 C   0  0  0  0  0  0  0  0  0  0  0  0
  -29.7978  -20.2529   19.2381 C   0  0  0  0  0  0  0  0  0  0  0  0
  -31.0485  -19.6363   19.1986 C   0  0  0  0  0  0  0  0  0  0  0  0
  -22.4162   -8.0802   21.4478 C   0  0  0  0  0  0  0  0  0  0  0  0
  -29.9146  -23.7051   18.0482 C   0  0  0  0  0  0  0  0  0  0  0  0
  -20.9734   -6.8699   22.8533 C   0  0  0  0  0  0  0  0  0  0  0  0
  -19.4720   -6.7392   25.2009 C   0  0  0  0  0  0  0  0  0  0  0  0
  -21.2432   -5.8813   23.7996 C   0  0  0  0  0  0  0  0  0  0  0  0
  -24.5860  -11.6349   20.7033 C   0  0  0  0  0  0  0  0  0  0  0  0
  -25.2002  -13.7352   20.4884 C   0  0  0  0  0  0  0  0  0  0  0  0
  -22.8472  -13.4404   21.2789 C   0  0  0  0  0  0  0  0  0  0  0  0
  -26.7510  -27.4980   15.7966 C   0  0  0  0  0  0  0  0  0  0  0  0
  -27.2772  -26.0848   12.9246 C   0  0  0  0  0  0  0  0  0  0  0  0
  -28.7612  -23.5663   11.1635 C   0  0  0  0  0  0  0  0  0  0  0  0
  -30.6589  -14.8833   20.6605 C   0  0  0  0  0  0  0  0  0  0  0  0
  -23.8685  -31.7106   15.7402 C   0  0  0  0  0  0  0  0  0  0  0  0
  -29.2648  -27.3067   15.7829 C   0  0  0  0  0  0  0  0  0  0  0  0
  -27.9671  -24.7772   14.9690 C   0  0  0  0  0  0  0  0  0  0  0  0
  -23.9225  -30.4138   14.9366 C   0  0  0  0  0  0  0  0  0  0  0  0
  -29.5681  -12.4876   18.2632 C   0  0  0  0  0  0  0  0  0  0  0  0
  -23.9855  -29.2093   15.8705 C   0  0  0  0  0  0  0  0  0  0  0  0
  -28.1399  -12.1570   18.7002 C   0  0  0  0  0  0  0  0  0  0  0  0
  -30.4849  -12.7226   19.4616 C   0  0  0  0  0  0  0  0  0  0  0  0
  -28.5723  -13.3994   20.8608 C   0  0  0  0  0  0  0  0  0  0  0  0
  -25.2512  -29.2474   16.7353 C   0  0  1  0  0  0  0  0  0  0  0  0
  -27.9811  -27.2916   14.9588 C   0  0  1  0  0  0  0  0  0  0  0  0
  -27.5975  -13.2091   19.6861 C   0  0  2  0  0  0  0  0  0  0  0  0
  -32.0954  -20.0841   18.2321 C   0  0  0  0  0  0  0  0  0  0  0  0
  -28.9774  -22.6514    8.8368 C   0  0  0  0  0  0  0  0  0  0  0  0
  -24.4664  -24.9149   13.1260 C   0  0  0  0  0  0  0  0  0  0  0  0
  -25.0843  -23.2996   11.3158 C   0  0  0  0  0  0  0  0  0  0  0  0
  -25.0880  -25.7507   10.8524 C   0  0  0  0  0  0  0  0  0  0  0  0
  -31.6926  -23.9728   11.1513 C   0  0  0  0  0  0  0  0  0  0  0  0
  -30.6790  -17.0270   21.9110 C   0  0  0  0  0  0  0  0  0  0  0  0
  -29.4654  -21.3844   18.3105 C   0  0  0  0  0  0  0  0  0  1  0  0
  -26.9080  -24.7604   12.3011 C   0  0  1  0  0  0  0  0  0  0  0  0
  -29.5772  -23.5773    9.8835 C   0  0  2  0  0  0  0  0  0  0  0  0
  -25.4019  -24.6828   11.9228 C   0  0  0  0  0  0  0  0  0  0  0  0
  -25.8510  -11.5718   20.2791 N   0  0  0  0  0  0  0  0  0  0  0  0
  -26.1967  -12.8648   20.1575 N   0  0  0  0  0  0  0  0  0  0  0  0
  -27.7938  -26.0370   14.2272 N   0  0  0  0  0  0  0  0  0  0  0  0
  -29.9138  -13.7321   20.3565 N   0  0  0  0  0  0  0  0  0  0  0  0
  -25.3786  -15.0718   20.4231 N   0  0  0  0  0  0  0  0  0  0  0  0
  -21.8587  -12.5053   21.6146 N   0  0  0  0  0  0  0  0  0  0  0  0
  -26.4018  -28.8242   15.9662 N   0  0  0  0  0  0  0  0  0  0  0  0
  -27.8173  -24.5714   11.1760 N   0  0  0  0  0  0  0  0  0  0  0  0
  -30.0415  -15.7923   21.5110 N   0  0  0  0  0  0  0  0  0  0  0  0
  -30.9743  -23.1359   10.1561 N   0  3  0  0  0  0  0  0  0  0  0  0
  -22.5820  -14.6647   21.3452 O   0  0  0  0  0  0  0  0  0  0  0  0
  -26.1614  -26.5259   16.2541 O   0  0  0  0  0  0  0  0  0  0  0  0
  -27.1199  -27.1228   12.2770 O   0  0  0  0  0  0  0  0  0  0  0  0
  -28.9404  -22.7457   12.0607 O   0  0  0  0  0  0  0  0  0  0  0  0
  -31.7884  -15.0887   20.2033 O   0  0  0  0  0  0  0  0  0  0  0  0
  -21.7183   -6.9366   21.6879 O   0  0  0  0  0  0  0  0  0  0  0  0
  -30.1254  -22.5662   18.7626 O   0  0  0  0  0  0  0  0  0  1  0  0
  -18.7520   -6.6775   26.3288 F   0  0  0  0  0  0  0  0  0  0  0  0
  -22.2231   -4.9922   23.5871 F   0  0  0  0  0  0  0  0  0  0  0  0
  1  2  1  0  0  0  0
  1  5  2  0  0  0  0
  2  6  2  0  0  0  0
  3 10  2  0  0  0  0
  3 18  1  0  0  0  0
  4 11  1  0  0  0  0
  4 18  2  0  0  0  0
  5 20  1  0  0  0  0
  6 22  1  0  0  0  0
  7 12  2  0  0  0  0
  7 21  1  0  0  0  0
  8  9  2  0  0  0  0
  8 24  1  0  0  0  0
  9 25  1  0  0  0  0
 10 27  1  0  0  0  0
 11 27  2  0  0  0  0
 12 28  1  0  0  0  0
 13 14  2  0  0  0  0
 13 29  1  0  0  0  0
 14 30  1  0  0  0  0
 15 23  1  0  0  0  0
 15 28  2  0  0  0  0
 16 24  2  0  0  0  0
 16 26  1  0  0  0  0
 17 30  2  0  0  0  0
 17 31  1  0  0  0  0
 18 32  1  0  0  0  0
 19 32  1  0  0  0  0
 19 33  2  0  0  0  0
 19 34  1  0  0  0  0
 20 22  2  0  0  0  0
 20 39  1  0  0  0  0
 21 23  2  0  0  0  0
 21 40  1  0  0  0  0
 22 48  1  0  0  0  0
 23 41  1  0  0  0  0
 24 57  1  0  0  0  0
 25 26  2  0  0  0  0
 25 58  1  0  0  0  0
 26 51  1  0  0  0  0
 27 77  1  0  0  0  0
 28 78  1  0  0  0  0
 29 31  2  0  0  0  0
 29 77  1  0  0  0  0
 30 79  1  0  0  0  0
 31 80  1  0  0  0  0
 32 62  2  0  0  0  0
 33 63  1  0  0  0  0
 33 66  1  0  0  0  0
 34 67  1  0  0  0  0
 34 72  2  0  0  0  0
 35 49  1  0  0  0  0
 35 68  1  0  0  0  0
 35 73  2  0  0  0  0
 36 59  1  0  0  0  0
 36 64  1  0  0  0  0
 36 74  2  0  0  0  0
 37 60  1  0  0  0  0
 37 69  1  0  0  0  0
 37 75  2  0  0  0  0
 38 65  1  0  0  0  0
 38 70  1  0  0  0  0
 38 76  2  0  0  0  0
 39 42  1  0  0  0  0
 40 49  1  0  0  0  0
 41 64  1  0  0  0  0
 42 44  1  0  0  0  0
 43 45  1  0  0  0  0
 43 46  1  0  0  0  0
 44 48  1  0  0  0  0
 45 50  1  0  0  0  0
 46 65  1  0  0  0  0
 47 50  1  0  0  0  0
 47 65  1  0  0  0  0
 48 68  1  0  0  0  0
 49 64  1  0  0  0  0
 50 63  1  0  0  0  0
 52 60  1  0  0  0  0
 53 61  1  0  0  0  0
 54 61  1  0  0  0  0
 55 61  1  0  0  0  0
 56 71  1  0  0  0  0
 57 70  1  0  0  0  0
 58 78  1  0  0  0  0
 59 61  1  0  0  0  0
 59 69  1  0  0  0  0
 60 71  1  0  0  0  0
 62 63  1  0  0  0  0
M  CHG  1  71   1
M  ISO  4  38 100  58 101  70 100  78 101
M  END
> <Batch ID>
0130

> <Smiles>
CNC(C)C(=O)NC(C(=O)N1Cc2cc([101O:1][101CH2:1]c3ccc(C[100NH:0][100C:0](=O)N4CCCC(n5nc(-c6ccc(Oc7ccc(F)cc7F)cc6)c(C(N)=O)c5N)C4)cc3C)ccc2CC1C(=O)NC1CCCc2ccccc21)C(C)(C)C

> <Shape>
0.232

> <Color>
0.204

> <Negative vol penalty>
0.000

$$$$

  -OEChem-04052320473D

 95106  0     1  0  0  0  0  0999 V2000
  -26.5486  -33.7924   27.4107 C   0  0  0  0  0  0  0  0  0  0  0  0
  -26.9848  -33.3750   26.1574 C   0  0  0  0  0  0  0  0  0  0  0  0
  -26.8068  -12.8317   19.9765 C   0  0  0  0  0  0  0  0  0  0  0  0
  -25.1956  -13.2904   21.7174 C   0  0  0  0  0  0  0  0  0  0  0  0
  -25.9788  -32.8735   28.2910 C   0  0  0  0  0  0  0  0  0  0  0  0
  -26.8523  -32.0380   25.7839 C   0  0  0  0  0  0  0  0  0  0  0  0
  -25.6455  -29.8892   20.1779 C   0  0  0  0  0  0  0  0  0  0  0  0
  -25.9685  -11.8432   19.4611 C   0  0  0  0  0  0  0  0  0  0  0  0
  -24.3572  -12.3019   21.2020 C   0  0  0  0  0  0  0  0  0  0  0  0
  -26.4636  -29.3692   19.1759 C   0  0  0  0  0  0  0  0  0  0  0  0
  -24.1455   -8.9283   21.2743 C   0  0  0  0  0  0  0  0  0  0  0  0
  -23.5597   -8.0404   22.1764 C   0  0  0  0  0  0  0  0  0  0  0  0
  -25.9700  -27.1352   19.9406 C   0  0  0  0  0  0  0  0  0  0  0  0
  -21.3671   -8.7623   21.4631 C   0  0  0  0  0  0  0  0  0  0  0  0
  -28.5487  -24.8025   20.7214 C   0  0  0  0  0  0  0  0  0  0  0  0
  -26.4204  -13.5553   21.1047 C   0  0  0  0  0  0  0  0  0  0  0  0
  -28.5990  -14.4115   22.1186 C   0  0  0  0  0  0  0  0  0  0  0  0
  -25.8304  -31.5266   27.9244 C   0  0  0  0  0  0  0  0  0  0  0  0
  -24.9910  -29.0351   21.0771 C   0  0  0  0  0  0  0  0  0  0  0  0
  -26.2812  -31.1000   26.6606 C   0  0  0  0  0  0  0  0  0  0  0  0
  -25.1421  -27.6468   20.9515 C   0  0  0  0  0  0  0  0  0  0  0  0
  -24.7437  -11.5783   20.0738 C   0  0  0  0  0  0  0  0  0  0  0  0
  -26.6283  -27.9921   19.0589 C   0  0  0  0  0  0  0  0  0  0  0  0
  -23.3422   -9.7334   20.4666 C   0  0  0  0  0  0  0  0  0  0  0  0
  -22.1705   -7.9573   22.2708 C   0  0  0  0  0  0  0  0  0  0  0  0
  -21.9530   -9.6503   20.5610 C   0  0  0  0  0  0  0  0  0  0  0  0
  -27.2861  -14.5762   21.6380 C   0  0  0  0  0  0  0  0  0  0  0  0
  -30.0374  -24.4337   18.5362 C   0  0  0  0  0  0  0  0  0  0  0  0
  -29.8087  -25.6969   19.0356 C   0  0  0  0  0  0  0  0  0  0  0  0
  -28.7766  -23.5393   20.2216 C   0  0  0  0  0  0  0  0  0  0  0  0
  -28.9822  -15.6713   22.5092 C   0  0  0  0  0  0  0  0  0  0  0  0
  -29.4006  -13.2258   22.2043 C   0  0  0  0  0  0  0  0  0  0  0  0
  -25.0765  -28.6007   24.2247 C   0  0  0  0  0  0  0  0  0  0  0  0
  -22.6220  -26.5682   23.6188 C   0  0  0  0  0  0  0  0  0  0  0  0
  -20.2213  -24.1494   23.4380 C   0  0  0  0  0  0  0  0  0  0  0  0
  -28.3064  -21.0795   20.5572 C   0  0  0  0  0  0  0  0  0  0  0  0
  -25.2517  -30.5607   28.9278 C   0  0  0  0  0  0  0  0  0  0  0  0
  -24.0907  -29.6107   22.1357 C   0  0  0  0  0  0  0  0  0  0  0  0
  -24.4453  -26.6861   21.8790 C   0  0  0  0  0  0  0  0  0  0  0  0
  -24.8053  -29.2372   28.3119 C   0  0  0  0  0  0  0  0  0  0  0  0
  -29.6873  -22.3810   16.2014 C   0  0  0  0  0  0  0  0  0  0  0  0
  -29.2628  -23.6849   15.5287 C   0  0  0  0  0  0  0  0  0  0  0  0
  -25.9553  -19.5859   23.1965 C   0  0  0  0  0  0  0  0  0  0  0  0
  -34.3747  -24.7418   18.9267 C   0  0  0  0  0  0  0  0  0  0  0  0
  -25.8787  -28.6965   27.3727 C   0  0  0  0  0  0  0  0  0  0  0  0
  -32.9601  -24.1978   18.7340 C   0  0  0  0  0  0  0  0  0  0  0  0
  -26.7287  -18.3134   23.5339 C   0  0  0  0  0  0  0  0  0  0  0  0
  -30.9908  -22.6975   16.9334 C   0  0  0  0  0  0  0  0  0  0  0  0
  -30.2995  -24.7258   15.9502 C   0  0  0  0  0  0  0  0  0  0  0  0
  -26.8526  -20.6690   22.6111 C   0  0  0  0  0  0  0  0  0  0  0  0
  -31.2974  -27.6729   19.1166 C   0  0  0  0  0  0  0  0  0  0  0  0
  -27.6429  -18.7677   21.1912 C   0  0  0  0  0  0  0  0  0  0  0  0
  -35.2163  -24.5725   17.6721 C   0  0  0  0  0  0  0  0  0  0  0  0
  -32.2560  -28.3811   18.1720 C   0  0  0  0  0  0  0  0  0  0  0  0
  -33.1512  -24.6403   16.2568 C   0  0  0  0  0  0  0  0  0  0  0  0
  -30.6630  -28.0899   16.2964 C   0  0  0  0  0  0  0  0  0  0  0  0
  -26.1320  -29.6631   26.2095 C   0  0  1  0  0  0  0  0  0  0  0  0
  -23.8805  -28.6694   23.3177 C   0  0  1  0  0  0  0  0  0  0  0  0
  -32.2833  -24.8171   17.5027 C   0  0  1  0  0  0  0  0  0  0  0  0
  -27.8184  -17.9766   22.4969 C   0  0  2  0  0  0  0  0  0  0  0  0
  -29.6710  -27.3651   17.2087 C   0  0  2  0  0  0  0  0  0  0  0  0
  -30.8916  -24.2017   17.2800 C   0  0  0  0  0  0  0  0  0  0  0  0
  -19.3183  -22.1725   24.6925 C   0  0  0  0  0  0  0  0  0  0  0  0
  -25.0202  -24.9078   22.7236 C   0  0  0  0  0  0  0  0  0  0  0  0
  -23.6606  -22.8472   23.1396 C   0  0  0  0  0  0  0  0  0  0  0  0
  -24.1937  -24.3895   25.0263 C   0  0  0  0  0  0  0  0  0  0  0  0
  -17.5508  -25.3956   23.7108 C   0  0  0  0  0  0  0  0  0  0  0  0
  -28.5291  -28.2837   17.6596 C   0  0  0  0  0  0  0  0  0  1  0  0
  -22.5070  -25.1010   23.2825 C   0  0  1  0  0  0  0  0  0  0  0  0
  -19.1972  -23.6690   24.4504 C   0  0  2  0  0  0  0  0  0  0  0  0
  -23.8361  -24.3315   23.5252 C   0  0  0  0  0  0  0  0  0  0  0  0
  -29.0606  -25.9040   20.1373 N   0  0  0  0  0  0  0  0  0  0  0  0
  -26.8635  -15.8409   21.7153 N   0  0  0  0  0  0  0  0  0  0  0  0
  -29.5251  -23.3322   19.1200 N   0  0  0  0  0  0  0  0  0  0  0  0
  -27.9169  -16.4823   22.2492 N   0  0  0  0  0  0  0  0  0  0  0  0
  -30.3686  -26.8026   18.3836 N   0  0  2  0  0  0  0  0  0  0  0  0
  -23.5808  -27.2978   22.9016 N   0  0  0  0  0  0  0  0  0  0  0  0
  -27.6225  -20.2129   21.4448 N   0  0  0  0  0  0  0  0  0  0  0  0
  -30.1231  -16.1534   23.0463 N   0  0  0  0  0  0  0  0  0  0  0  0
  -29.3333  -12.4570   23.3741 N   0  0  0  0  0  0  0  0  0  0  0  0
  -28.2013  -22.4317   20.8933 N   0  0  0  0  0  0  0  0  0  0  0  0
  -25.0780  -29.5522   25.2268 N   0  0  0  0  0  0  0  0  0  0  0  0
  -21.3744  -24.5940   24.0496 N   0  0  0  0  0  0  0  0  0  0  0  0
  -34.5102  -25.2042   16.5184 N   0  3  0  0  0  0  0  0  0  0  0  0
  -31.4899  -29.0453   17.0841 N   0  3  0  0  0  0  0  0  0  0  0  0
  -17.8170  -23.9567   23.9675 N   0  3  0  0  0  0  0  0  0  0  0  0
  -30.1665  -12.8679   21.2776 O   0  0  0  0  0  0  0  0  0  0  0  0
  -25.9335  -27.7466   24.0307 O   0  0  0  0  0  0  0  0  0  0  0  0
  -21.8832  -27.0508   24.4808 O   0  0  0  0  0  0  0  0  0  0  0  0
  -20.0200  -24.1287   22.2257 O   0  0  0  0  0  0  0  0  0  0  0  0
  -28.9398  -20.6490   19.5911 O   0  0  0  0  0  0  0  0  0  0  0  0
  -23.9254  -10.6139   19.5709 O   0  0  0  0  0  0  0  0  0  0  0  0
  -27.4268  -27.4820   18.0822 O   0  0  0  0  0  0  0  0  0  1  0  0
  -21.6080   -7.1034   23.1361 F   0  0  0  0  0  0  0  0  0  0  0  0
  -21.1761  -10.4203   19.7869 F   0  0  0  0  0  0  0  0  0  0  0  0
  1  2  1  0  0  0  0
  1  5  2  0  0  0  0
  2  6  2  0  0  0  0
  3  8  2  0  0  0  0
  3 16  1  0  0  0  0
  4  9  1  0  0  0  0
  4 16  2  0  0  0  0
  5 18  1  0  0  0  0
  6 20  1  0  0  0  0
  7 10  2  0  0  0  0
  7 19  1  0  0  0  0
  8 22  1  0  0  0  0
  9 22  2  0  0  0  0
 10 23  1  0  0  0  0
 11 12  2  0  0  0  0
 11 24  1  0  0  0  0
 12 25  1  0  0  0  0
 13 21  1  0  0  0  0
 13 23  2  0  0  0  0
 14 25  2  0  0  0  0
 14 26  1  0  0  0  0
 15 30  1  0  0  0  0
 15 72  2  0  0  0  0
 16 27  1  0  0  0  0
 17 27  1  0  0  0  0
 17 31  2  0  0  0  0
 17 32  1  0  0  0  0
 18 20  2  0  0  0  0
 18 37  1  0  0  0  0
 19 21  2  0  0  0  0
 19 38  1  0  0  0  0
 20 57  1  0  0  0  0
 21 39  1  0  0  0  0
 22 92  1  0  0  0  0
 23 93  1  0  0  0  0
 24 26  2  0  0  0  0
 24 92  1  0  0  0  0
 25 94  1  0  0  0  0
 26 95  1  0  0  0  0
 27 73  2  0  0  0  0
 28 29  2  0  0  0  0
 28 62  1  0  0  0  0
 28 74  1  0  0  0  0
 29 72  1  0  0  0  0
 29 76  1  0  0  0  0
 30 74  2  0  0  0  0
 30 81  1  0  0  0  0
 31 75  1  0  0  0  0
 31 79  1  0  0  0  0
 32 80  1  0  0  0  0
 32 87  2  0  0  0  0
 33 58  1  0  0  0  0
 33 82  1  0  0  0  0
 33 88  2  0  0  0  0
 34 69  1  0  0  0  0
 34 77  1  0  0  0  0
 34 89  2  0  0  0  0
 35 70  1  0  0  0  0
 35 83  1  0  0  0  0
 35 90  2  0  0  0  0
 36 78  1  0  0  0  0
 36 81  1  0  0  0  0
 36 91  2  0  0  0  0
 37 40  1  0  0  0  0
 38 58  1  0  0  0  0
 39 77  1  0  0  0  0
 40 45  1  0  0  0  0
 41 42  1  0  0  0  0
 41 48  1  0  0  0  0
 42 49  1  0  0  0  0
 43 47  1  0  0  0  0
 43 50  1  0  0  0  0
 44 46  1  0  0  0  0
 44 53  1  0  0  0  0
 45 57  1  0  0  0  0
 46 59  1  0  0  0  0
 47 60  1  0  0  0  0
 48 62  1  0  0  0  0
 49 62  1  0  0  0  0
 50 78  1  0  0  0  0
 51 54  1  0  0  0  0
 51 76  1  0  0  0  0
 52 60  1  0  0  0  0
 52 78  1  0  0  0  0
 53 84  1  0  0  0  0
 54 85  1  0  0  0  0
 55 59  1  0  0  0  0
 55 84  1  0  0  0  0
 56 61  1  0  0  0  0
 56 85  1  0  0  0  0
 57 82  1  0  0  0  0
 58 77  1  0  0  0  0
 59 62  1  0  0  0  0
 60 75  1  0  0  0  0
 61 68  1  0  0  0  0
 61 76  1  0  0  0  0
 63 70  1  0  0  0  0
 64 71  1  0  0  0  0
 65 71  1  0  0  0  0
 66 71  1  0  0  0  0
 67 86  1  0  0  0  0
 68 93  1  0  0  0  0
 69 71  1  0  0  0  0
 69 83  1  0  0  0  0
 70 86  1  0  0  0  0
 73 75  1  0  0  0  0
M  CHG  3  84   1  85   1  86   1
M  ISO  4  36 100  68 101  81 100  93 101
M  END
> <Batch ID>
0130

> <Smiles>
CNC(C)C(=O)NC(C(=O)N1Cc2cc([101O:1][101CH2:1]C3CNCCN3c3ncc([100NH:0][100C:0](=O)N4CCCC(n5nc(-c6ccc(Oc7ccc(F)cc7F)cc6)c(C(N)=O)c5N)C4)nc3C3(C4CCCNC4)CCCC3)ccc2CC1C(=O)NC1CCCc2ccccc21)C(C)(C)C

> <Shape>
0.249

> <Color>
0.071

> <Negative vol penalty>
0.000

$$$$

  -OEChem-04052320473D

 88 97  0     1  0  0  0  0  0999 V2000
  -27.8175  -33.3894   27.6924 C   0  0  0  0  0  0  0  0  0  0  0  0
  -28.6136  -33.0556   26.6014 C   0  0  0  0  0  0  0  0  0  0  0  0
  -23.2197   -9.8006   19.9914 C   0  0  0  0  0  0  0  0  0  0  0  0
  -23.8454  -10.0048   22.3160 C   0  0  0  0  0  0  0  0  0  0  0  0
  -27.0721  -32.4035   28.3376 C   0  0  0  0  0  0  0  0  0  0  0  0
  -28.6655  -31.7354   26.1556 C   0  0  0  0  0  0  0  0  0  0  0  0
  -29.4022  -27.8945   20.1538 C   0  0  0  0  0  0  0  0  0  0  0  0
  -22.5138   -8.6337   20.2839 C   0  0  0  0  0  0  0  0  0  0  0  0
  -23.1395   -8.8379   22.6085 C   0  0  0  0  0  0  0  0  0  0  0  0
  -30.1704  -26.8576   19.6261 C   0  0  0  0  0  0  0  0  0  0  0  0
  -19.9200   -7.9311   23.0915 C   0  0  0  0  0  0  0  0  0  0  0  0
  -19.0994   -7.9374   24.2194 C   0  0  0  0  0  0  0  0  0  0  0  0
  -28.7784  -25.2528   20.7690 C   0  0  0  0  0  0  0  0  0  0  0  0
  -29.0927  -18.9547   20.5978 C   0  0  0  0  0  0  0  0  0  0  0  0
  -20.3799   -6.1179   25.1611 C   0  0  0  0  0  0  0  0  0  0  0  0
  -23.8855  -10.4862   21.0075 C   0  0  0  0  0  0  0  0  0  0  0  0
  -24.1229  -13.0101   20.7228 C   0  0  0  0  0  0  0  0  0  0  0  0
  -27.1074  -31.0723   27.8934 C   0  0  0  0  0  0  0  0  0  0  0  0
  -28.3212  -27.6184   21.0032 C   0  0  0  0  0  0  0  0  0  0  0  0
  -27.9209  -30.7305   26.7962 C   0  0  0  0  0  0  0  0  0  0  0  0
  -27.9965  -26.2879   21.3041 C   0  0  0  0  0  0  0  0  0  0  0  0
  -30.0847  -20.2005   18.7903 C   0  0  0  0  0  0  0  0  0  0  0  0
  -28.9813  -19.9008   19.5834 C   0  0  0  0  0  0  0  0  0  0  0  0
  -22.4737   -8.1523   21.5924 C   0  0  0  0  0  0  0  0  0  0  0  0
  -29.8604  -25.5366   19.9360 C   0  0  0  0  0  0  0  0  0  0  0  0
  -20.9705   -7.0182   22.9983 C   0  0  0  0  0  0  0  0  0  0  0  0
  -19.3294   -7.0308   25.2542 C   0  0  0  0  0  0  0  0  0  0  0  0
  -21.2005   -6.1116   24.0332 C   0  0  0  0  0  0  0  0  0  0  0  0
  -24.6153  -11.6914   20.7059 C   0  0  0  0  0  0  0  0  0  0  0  0
  -30.3145  -18.3272   20.7950 C   0  0  0  0  0  0  0  0  0  0  0  0
  -31.2815  -19.5415   19.0333 C   0  0  0  0  0  0  0  0  0  0  0  0
  -25.2003  -13.7835   20.3657 C   0  0  0  0  0  0  0  0  0  0  0  0
  -22.8091  -13.4928   21.0335 C   0  0  0  0  0  0  0  0  0  0  0  0
  -27.6075  -28.3094   24.0226 C   0  0  0  0  0  0  0  0  0  0  0  0
  -24.7727  -26.9293   23.2597 C   0  0  0  0  0  0  0  0  0  0  0  0
  -23.0468  -24.7728   21.2554 C   0  0  0  0  0  0  0  0  0  0  0  0
  -30.6143  -15.0739   20.7767 C   0  0  0  0  0  0  0  0  0  0  0  0
  -26.3210  -30.0328   28.6522 C   0  0  0  0  0  0  0  0  0  0  0  0
  -27.4860  -28.7470   21.5428 C   0  0  0  0  0  0  0  0  0  0  0  0
  -26.8337  -25.9373   22.1948 C   0  0  0  0  0  0  0  0  0  0  0  0
  -26.1405  -28.7255   27.8848 C   0  0  0  0  0  0  0  0  0  0  0  0
  -29.7213  -12.4762   18.5115 C   0  0  0  0  0  0  0  0  0  0  0  0
  -24.3900  -19.3505   20.1403 C   0  0  0  0  0  0  0  0  0  0  0  0
  -27.4642  -28.2789   27.2724 C   0  0  0  0  0  0  0  0  0  0  0  0
  -28.2756  -12.1453   18.8860 C   0  0  0  0  0  0  0  0  0  0  0  0
  -25.7976  -19.0782   19.6383 C   0  0  0  0  0  0  0  0  0  0  0  0
  -30.5573  -12.8243   19.7411 C   0  0  0  0  0  0  0  0  0  0  0  0
  -28.5488  -13.5593   20.9656 C   0  0  0  0  0  0  0  0  0  0  0  0
  -24.2199  -20.8391   19.9103 C   0  0  0  0  0  0  0  0  0  0  0  0
  -27.9843  -29.3139   26.2676 C   0  0  1  0  0  0  0  0  0  0  0  0
  -26.7229  -28.3729   22.8097 C   0  0  1  0  0  0  0  0  0  0  0  0
  -27.6526  -13.2561   19.7527 C   0  0  2  0  0  0  0  0  0  0  0  0
  -26.5778  -20.2688   20.1667 C   0  0  1  0  0  0  0  0  0  0  0  0
  -32.5160  -19.7906   18.2429 C   0  0  0  0  0  0  0  0  0  0  0  0
  -20.7508  -23.8252   20.8980 C   0  0  0  0  0  0  0  0  0  0  0  0
  -25.1493  -25.1105   25.6805 C   0  0  0  0  0  0  0  0  0  0  0  0
  -23.3781  -23.6106   24.7416 C   0  0  0  0  0  0  0  0  0  0  0  0
  -22.8181  -25.9598   25.3663 C   0  0  0  0  0  0  0  0  0  0  0  0
  -22.8840  -25.8924   18.5207 C   0  0  0  0  0  0  0  0  0  0  0  0
  -29.9896  -21.2219   17.6851 C   0  0  0  0  0  0  0  0  0  0  0  0
  -30.5148  -17.3067   21.8555 C   0  0  0  0  0  0  0  0  0  0  0  0
  -30.6305  -22.5672   18.0329 C   0  0  0  0  0  0  0  0  0  0  0  0
  -29.9485  -23.2782   19.1960 C   0  0  0  0  0  0  0  0  0  1  0  0
  -24.2200  -25.5253   23.3076 C   0  0  1  0  0  0  0  0  0  0  0  0
  -21.7313  -24.9219   20.5127 C   0  0  2  0  0  0  0  0  0  0  0  0
  -23.9145  -25.0579   24.7587 C   0  0  0  0  0  0  0  0  0  0  0  0
  -25.9052  -11.6269   20.3649 N   0  0  0  0  0  0  0  0  0  0  0  0
  -26.2323  -12.9149   20.1642 N   0  0  0  0  0  0  0  0  0  0  0  0
  -31.3610  -18.6347   20.0167 N   0  3  0  0  0  0  0  0  0  0  0  0
  -26.0511  -27.0762   22.7028 N   0  0  0  0  0  0  0  0  0  0  0  0
  -29.9122  -13.8850   20.5188 N   0  0  0  0  0  0  0  0  0  0  0  0
  -25.3562  -15.1151   20.2075 N   0  0  0  0  0  0  0  0  0  0  0  0
  -21.8202  -12.5623   21.3806 N   0  0  0  0  0  0  0  0  0  0  0  0
  -27.7424  -20.5451   19.3744 N   0  0  0  0  0  0  0  0  0  0  0  0
  -27.2664  -29.2079   25.0154 N   0  0  0  0  0  0  0  0  0  0  0  0
  -23.0627  -25.5117   22.4194 N   0  0  0  0  0  0  0  0  0  0  0  0
  -29.9277  -16.0299   21.5151 N   0  0  0  0  0  0  0  0  0  0  0  0
  -25.5980  -21.4048   20.0971 N   0  3  0  0  0  0  0  0  0  0  0  0
  -21.9568  -24.8549   19.0411 N   0  3  0  0  0  0  0  0  0  0  0  0
  -22.5163  -14.7117   20.9883 O   0  0  0  0  0  0  0  0  0  0  0  0
  -28.5302  -27.5037   24.0560 O   0  0  0  0  0  0  0  0  0  0  0  0
  -24.0923  -27.8623   23.6936 O   0  0  0  0  0  0  0  0  0  0  0  0
  -23.9667  -24.0681   20.8460 O   0  0  0  0  0  0  0  0  0  0  0  0
  -31.7657  -15.2712   20.3738 O   0  0  0  0  0  0  0  0  0  0  0  0
  -21.7848   -7.0138   21.8782 O   0  0  0  0  0  0  0  0  0  0  0  0
  -30.6090  -24.5227   19.4228 O   0  0  0  0  0  0  0  0  0  1  0  0
  -18.5422   -7.0380   26.3380 F   0  0  0  0  0  0  0  0  0  0  0  0
  -22.2089   -5.2330   23.9499 F   0  0  0  0  0  0  0  0  0  0  0  0
  1  2  1  0  0  0  0
  1  5  2  0  0  0  0
  2  6  2  0  0  0  0
  3  8  2  0  0  0  0
  3 16  1  0  0  0  0
  4  9  1  0  0  0  0
  4 16  2  0  0  0  0
  5 18  1  0  0  0  0
  6 20  1  0  0  0  0
  7 10  2  0  0  0  0
  7 19  1  0  0  0  0
  8 24  1  0  0  0  0
  9 24  2  0  0  0  0
 10 25  1  0  0  0  0
 11 12  2  0  0  0  0
 11 26  1  0  0  0  0
 12 27  1  0  0  0  0
 13 21  1  0  0  0  0
 13 25  2  0  0  0  0
 14 23  2  0  0  0  0
 14 30  1  0  0  0  0
 15 27  2  0  0  0  0
 15 28  1  0  0  0  0
 16 29  1  0  0  0  0
 17 29  1  0  0  0  0
 17 32  2  0  0  0  0
 17 33  1  0  0  0  0
 18 20  2  0  0  0  0
 18 38  1  0  0  0  0
 19 21  2  0  0  0  0
 19 39  1  0  0  0  0
 20 50  1  0  0  0  0
 21 40  1  0  0  0  0
 22 23  1  0  0  0  0
 22 31  2  0  0  0  0
 22 60  1  0  0  0  0
 23 74  1  0  0  0  0
 24 85  1  0  0  0  0
 25 86  1  0  0  0  0
 26 28  2  0  0  0  0
 26 85  1  0  0  0  0
 27 87  1  0  0  0  0
 28 88  1  0  0  0  0
 29 67  2  0  0  0  0
 30 61  1  0  0  0  0
 30 69  2  0  0  0  0
 31 54  1  0  0  0  0
 31 69  1  0  0  0  0
 32 68  1  0  0  0  0
 32 72  1  0  0  0  0
 33 73  1  0  0  0  0
 33 80  2  0  0  0  0
 34 51  1  0  0  0  0
 34 75  1  0  0  0  0
 34 81  2  0  0  0  0
 35 64  1  0  0  0  0
 35 70  1  0  0  0  0
 35 82  2  0  0  0  0
 36 65  1  0  0  0  0
 36 76  1  0  0  0  0
 36 83  2  0  0  0  0
 37 71  1  0  0  0  0
 37 77  1  0  0  0  0
 37 84  2  0  0  0  0
 38 41  1  0  0  0  0
 39 51  1  0  0  0  0
 40 70  1  0  0  0  0
 41 44  1  0  0  0  0
 42 45  1  0  0  0  0
 42 47  1  0  0  0  0
 43 46  1  0  0  0  0
 43 49  1  0  0  0  0
 44 50  1  0  0  0  0
 45 52  1  0  0  0  0
 46 53  1  0  0  0  0
 47 71  1  0  0  0  0
 48 52  1  0  0  0  0
 48 71  1  0  0  0  0
 49 78  1  0  0  0  0
 50 75  1  0  0  0  0
 51 70  1  0  0  0  0
 52 68  1  0  0  0  0
 53 74  1  0  0  0  0
 53 78  1  0  0  0  0
 55 65  1  0  0  0  0
 56 66  1  0  0  0  0
 57 66  1  0  0  0  0
 58 66  1  0  0  0  0
 59 79  1  0  0  0  0
 60 62  1  0  0  0  0
 61 77  1  0  0  0  0
 62 63  1  0  0  0  0
 63 86  1  0  0  0  0
 64 66  1  0  0  0  0
 64 76  1  0  0  0  0
 65 79  1  0  0  0  0
 67 68  1  0  0  0  0
M  CHG  3  69   1  78   1  79   1
M  ISO  4  37 100  63 101  77 100  86 101
M  END
> <Batch ID>
0130

> <Smiles>
CNC(C)C(=O)NC(C(=O)N1Cc2cc([101O:1][101CH2:1]CCc3c(NC4CCCN4)cc(C[100NH:0][100C:0](=O)N4CCCC(n5nc(-c6ccc(Oc7ccc(F)cc7F)cc6)c(C(N)=O)c5N)C4)nc3C)ccc2CC1C(=O)NC1CCCc2ccccc21)C(C)(C)C

> <Shape>
0.286

> <Color>
0.189

> <Negative vol penalty>
0.000

$$$$

  -OEChem-04052320473D

 85 94  0     1  0  0  0  0  0999 V2000
  -22.4792  -29.5345   18.5561 C   0  0  0  0  0  0  0  0  0  0  0  0
  -22.3323  -28.1552   18.6629 C   0  0  0  0  0  0  0  0  0  0  0  0
  -29.8958  -23.3529   19.9787 C   0  0  0  0  0  0  0  0  0  0  0  0
  -30.4529  -22.4207   17.8205 C   0  0  0  0  0  0  0  0  0  0  0  0
  -23.6404  -30.1490   19.0229 C   0  0  0  0  0  0  0  0  0  0  0  0
  -23.3471  -27.3894   19.2357 C   0  0  0  0  0  0  0  0  0  0  0  0
  -22.6757  -22.3464   22.6450 C   0  0  0  0  0  0  0  0  0  0  0  0
  -30.6021  -24.5128   19.6600 C   0  0  0  0  0  0  0  0  0  0  0  0
  -31.1592  -23.5806   17.5018 C   0  0  0  0  0  0  0  0  0  0  0  0
  -22.7674  -20.9891   22.3402 C   0  0  0  0  0  0  0  0  0  0  0  0
  -31.9554  -27.8645   19.2738 C   0  0  0  0  0  0  0  0  0  0  0  0
  -31.3575  -29.0896   19.5690 C   0  0  0  0  0  0  0  0  0  0  0  0
  -25.0564  -20.9790   23.1014 C   0  0  0  0  0  0  0  0  0  0  0  0
  -24.0808  -12.3106   21.4805 C   0  0  0  0  0  0  0  0  0  0  0  0
  -25.5294  -13.9132   20.4145 C   0  0  0  0  0  0  0  0  0  0  0  0
  -29.5053  -28.5348   18.1204 C   0  0  0  0  0  0  0  0  0  0  0  0
  -29.8213  -22.3069   19.0589 C   0  0  0  0  0  0  0  0  0  0  0  0
  -27.7296  -20.8493   19.1477 C   0  0  0  0  0  0  0  0  0  0  0  0
  -24.6658  -29.3914   19.6105 C   0  0  0  0  0  0  0  0  0  0  0  0
  -23.7789  -23.0339   23.1710 C   0  0  0  0  0  0  0  0  0  0  0  0
  -24.5237  -27.9941   19.7096 C   0  0  0  0  0  0  0  0  0  0  0  0
  -24.9754  -22.3444   23.4144 C   0  0  0  0  0  0  0  0  0  0  0  0
  -24.4498  -13.6317   21.2462 C   0  0  0  0  0  0  0  0  0  0  0  0
  -31.2337  -24.6266   18.4216 C   0  0  0  0  0  0  0  0  0  0  0  0
  -23.9588  -20.3058   22.5657 C   0  0  0  0  0  0  0  0  0  0  0  0
  -31.3283  -26.9746   18.4017 C   0  0  0  0  0  0  0  0  0  0  0  0
  -30.1325  -29.4248   18.9924 C   0  0  0  0  0  0  0  0  0  0  0  0
  -30.1032  -27.3097   17.8251 C   0  0  0  0  0  0  0  0  0  0  0  0
  -29.0923  -21.1083   19.3878 C   0  0  0  0  0  0  0  0  0  0  0  0
  -24.8066  -11.2961   20.8726 C   0  0  0  0  0  0  0  0  0  0  0  0
  -26.2186  -12.8582   19.8336 C   0  0  0  0  0  0  0  0  0  0  0  0
  -27.5284  -19.5835   19.6415 C   0  0  0  0  0  0  0  0  0  0  0  0
  -26.7345  -21.6786   18.5331 C   0  0  0  0  0  0  0  0  0  0  0  0
  -25.5680  -25.4773   22.2052 C   0  0  0  0  0  0  0  0  0  0  0  0
  -26.8990  -25.1602   25.1463 C   0  0  0  0  0  0  0  0  0  0  0  0
  -27.5597  -23.1533   27.8263 C   0  0  0  0  0  0  0  0  0  0  0  0
  -29.1391  -14.2713   20.2176 C   0  0  0  0  0  0  0  0  0  0  0  0
  -25.9229  -30.0946   20.0577 C   0  0  0  0  0  0  0  0  0  0  0  0
  -23.6555  -24.4919   23.5195 C   0  0  0  0  0  0  0  0  0  0  0  0
  -26.1825  -23.0319   23.9965 C   0  0  0  0  0  0  0  0  0  0  0  0
  -26.7908  -29.2554   20.9919 C   0  0  0  0  0  0  0  0  0  0  0  0
  -30.5065  -16.6486   22.4883 C   0  0  0  0  0  0  0  0  0  0  0  0
  -26.9485  -27.8398   20.4460 C   0  0  0  0  0  0  0  0  0  0  0  0
  -30.1535  -17.9984   21.8611 C   0  0  0  0  0  0  0  0  0  0  0  0
  -22.0061  -15.8647   22.8684 C   0  0  0  0  0  0  0  0  0  0  0  0
  -30.8421  -15.6035   21.4266 C   0  0  0  0  0  0  0  0  0  0  0  0
  -22.6017  -14.4661   22.7221 C   0  0  0  0  0  0  0  0  0  0  0  0
  -24.0519  -16.0769   21.6451 C   0  0  0  0  0  0  0  0  0  0  0  0
  -29.4610  -16.7774   19.7568 C   0  0  0  0  0  0  0  0  0  0  0  0
  -25.5916  -27.1322   20.3474 C   0  0  1  0  0  0  0  0  0  0  0  0
  -25.0006  -25.2100   23.5705 C   0  0  1  0  0  0  0  0  0  0  0  0
  -23.2205  -16.7776   22.7256 C   0  0  1  0  0  0  0  0  0  0  0  0
  -29.0607  -17.8485   20.7858 C   0  0  2  0  0  0  0  0  0  0  0  0
  -24.4766   -9.8617   21.0724 C   0  0  0  0  0  0  0  0  0  0  0  0
  -28.6983  -23.1646   30.0626 C   0  0  0  0  0  0  0  0  0  0  0  0
  -29.6132  -24.9929   23.7625 C   0  0  0  0  0  0  0  0  0  0  0  0
  -30.5621  -24.0713   25.8882 C   0  0  0  0  0  0  0  0  0  0  0  0
  -29.5901  -26.3684   25.8511 C   0  0  0  0  0  0  0  0  0  0  0  0
  -25.0339  -22.5483   29.2451 C   0  0  0  0  0  0  0  0  0  0  0  0
  -27.3822  -13.0753   18.9362 C   0  0  0  0  0  0  0  0  0  0  0  0
  -22.8559  -18.2079   22.3687 C   0  0  0  0  0  0  0  0  0  1  0  0
  -28.0493  -24.3682   25.7195 C   0  0  1  0  0  0  0  0  0  0  0  0
  -27.3892  -23.3765   29.3182 C   0  0  2  0  0  0  0  0  0  0  0  0
  -29.4317  -24.9374   25.2925 C   0  0  0  0  0  0  0  0  0  0  0  0
  -29.7130  -20.0890   19.9877 N   0  0  0  0  0  0  0  0  0  0  0  0
  -28.7358  -19.1773   20.1288 N   0  0  0  0  0  0  0  0  0  0  0  0
  -25.8420  -11.5953   20.0762 N   0  3  0  0  0  0  0  0  0  0  0  0
  -23.7469  -14.6605   21.8364 N   0  0  3  0  0  0  0  0  0  0  0  0
  -26.0141  -24.4594   24.3147 N   0  0  0  0  0  0  0  0  0  0  0  0
  -29.7650  -15.5093   20.4383 N   0  0  0  0  0  0  0  0  0  0  0  0
  -26.4383  -18.7896   19.7023 N   0  0  0  0  0  0  0  0  0  0  0  0
  -27.1111  -22.9509   18.0816 N   0  0  0  0  0  0  0  0  0  0  0  0
  -25.1629  -26.6773   21.6526 N   0  0  0  0  0  0  0  0  0  0  0  0
  -27.8390  -24.3292   27.1626 N   0  0  0  0  0  0  0  0  0  0  0  0
  -28.1239  -14.2711   19.2688 N   0  0  0  0  0  0  0  0  0  0  0  0
  -26.3764  -22.4330   29.8706 N   0  3  0  0  0  0  0  0  0  0  0  0
  -25.5428  -21.3090   18.4034 O   0  0  0  0  0  0  0  0  0  0  0  0
  -26.3191  -24.6563   21.6917 O   0  0  0  0  0  0  0  0  0  0  0  0
  -26.7856  -26.3549   25.4319 O   0  0  0  0  0  0  0  0  0  0  0  0
  -27.4592  -22.0460   27.3027 O   0  0  0  0  0  0  0  0  0  0  0  0
  -29.4576  -13.2436   20.8253 O   0  0  0  0  0  0  0  0  0  0  0  0
  -31.9228  -25.7583   18.1102 O   0  0  0  0  0  0  0  0  0  0  0  0
  -24.0512  -18.9810   22.2684 O   0  0  0  0  0  0  0  0  0  1  0  0
  -29.5577  -30.6007   19.2772 F   0  0  0  0  0  0  0  0  0  0  0  0
  -29.4954  -26.4583   16.9875 F   0  0  0  0  0  0  0  0  0  0  0  0
  1  2  1  0  0  0  0
  1  5  2  0  0  0  0
  2  6  2  0  0  0  0
  3  8  2  0  0  0  0
  3 17  1  0  0  0  0
  4  9  1  0  0  0  0
  4 17  2  0  0  0  0
  5 19  1  0  0  0  0
  6 21  1  0  0  0  0
  7 10  2  0  0  0  0
  7 20  1  0  0  0  0
  8 24  1  0  0  0  0
  9 24  2  0  0  0  0
 10 25  1  0  0  0  0
 11 12  2  0  0  0  0
 11 26  1  0  0  0  0
 12 27  1  0  0  0  0
 13 22  1  0  0  0  0
 13 25  2  0  0  0  0
 14 23  1  0  0  0  0
 14 30  2  0  0  0  0
 15 23  2  0  0  0  0
 15 31  1  0  0  0  0
 16 27  2  0  0  0  0
 16 28  1  0  0  0  0
 17 29  1  0  0  0  0
 18 29  1  0  0  0  0
 18 32  2  0  0  0  0
 18 33  1  0  0  0  0
 19 21  2  0  0  0  0
 19 38  1  0  0  0  0
 20 22  2  0  0  0  0
 20 39  1  0  0  0  0
 21 50  1  0  0  0  0
 22 40  1  0  0  0  0
 23 68  1  0  0  0  0
 24 82  1  0  0  0  0
 25 83  1  0  0  0  0
 26 28  2  0  0  0  0
 26 82  1  0  0  0  0
 27 84  1  0  0  0  0
 28 85  1  0  0  0  0
 29 65  2  0  0  0  0
 30 54  1  0  0  0  0
 30 67  1  0  0  0  0
 31 60  1  0  0  0  0
 31 67  2  0  0  0  0
 32 66  1  0  0  0  0
 32 71  1  0  0  0  0
 33 72  1  0  0  0  0
 33 77  2  0  0  0  0
 34 51  1  0  0  0  0
 34 73  1  0  0  0  0
 34 78  2  0  0  0  0
 35 62  1  0  0  0  0
 35 69  1  0  0  0  0
 35 79  2  0  0  0  0
 36 63  1  0  0  0  0
 36 74  1  0  0  0  0
 36 80  2  0  0  0  0
 37 70  1  0  0  0  0
 37 75  1  0  0  0  0
 37 81  2  0  0  0  0
 38 41  1  0  0  0  0
 39 51  1  0  0  0  0
 40 69  1  0  0  0  0
 41 43  1  0  0  0  0
 42 44  1  0  0  0  0
 42 46  1  0  0  0  0
 43 50  1  0  0  0  0
 44 53  1  0  0  0  0
 45 47  1  0  0  0  0
 45 52  1  0  0  0  0
 46 70  1  0  0  0  0
 47 68  1  0  0  0  0
 48 52  1  0  0  0  0
 48 68  1  0  0  0  0
 49 53  1  0  0  0  0
 49 70  1  0  0  0  0
 50 73  1  0  0  0  0
 51 69  1  0  0  0  0
 52 61  1  0  0  0  0
 53 66  1  0  0  0  0
 55 63  1  0  0  0  0
 56 64  1  0  0  0  0
 57 64  1  0  0  0  0
 58 64  1  0  0  0  0
 59 76  1  0  0  0  0
 60 75  1  0  0  0  0
 61 83  1  0  0  0  0
 62 64  1  0  0  0  0
 62 74  1  0  0  0  0
 63 76  1  0  0  0  0
 65 66  1  0  0  0  0
M  CHG  2  67   1  76   1
M  ISO  4  37 100  61 101  75 100  83 101
M  END
> <Batch ID>
0130

> <Smiles>
CNC(C)C(=O)NC(C(=O)N1Cc2cc([101O:1][101CH2:1]C3CCN(c4cc(C)nc(C[100NH:0][100C:0](=O)N5CCCC(n6nc(-c7ccc(Oc8ccc(F)cc8F)cc7)c(C(N)=O)c6N)C5)c4)C3)ccc2CC1C(=O)NC1CCCc2ccccc21)C(C)(C)C

> <Shape>
0.211

> <Color>
0.049

> <Negative vol penalty>
0.000

$$$$

  -OEChem-04052320473D

 83 92  0     1  0  0  0  0  0999 V2000
  -28.7514  -33.6784   20.2993 C   0  0  0  0  0  0  0  0  0  0  0  0
  -29.5608  -32.7048   20.8758 C   0  0  0  0  0  0  0  0  0  0  0  0
  -29.3604  -19.8592   23.8990 C   0  0  0  0  0  0  0  0  0  0  0  0
  -23.0958   -9.8346   19.9547 C   0  0  0  0  0  0  0  0  0  0  0  0
  -23.8383   -9.8824   22.2533 C   0  0  0  0  0  0  0  0  0  0  0  0
  -27.4168  -33.3939   20.0133 C   0  0  0  0  0  0  0  0  0  0  0  0
  -29.0357  -31.4464   21.1677 C   0  0  0  0  0  0  0  0  0  0  0  0
  -31.9605  -26.0747   20.8579 C   0  0  0  0  0  0  0  0  0  0  0  0
  -29.8394  -21.1055   24.3062 C   0  0  0  0  0  0  0  0  0  0  0  0
  -22.3584   -8.6800   20.2169 C   0  0  0  0  0  0  0  0  0  0  0  0
  -23.1009   -8.7278   22.5155 C   0  0  0  0  0  0  0  0  0  0  0  0
  -32.5731  -25.2829   21.8283 C   0  0  0  0  0  0  0  0  0  0  0  0
  -19.8741   -7.9157   23.1062 C   0  0  0  0  0  0  0  0  0  0  0  0
  -19.1086   -7.8882   24.2719 C   0  0  0  0  0  0  0  0  0  0  0  0
  -31.8977  -20.7132   23.1060 C   0  0  0  0  0  0  0  0  0  0  0  0
  -29.6930  -17.7675   22.6638 C   0  0  0  0  0  0  0  0  0  0  0  0
  -30.5591  -23.9688   22.0188 C   0  0  0  0  0  0  0  0  0  0  0  0
  -20.3584   -5.9715   25.0474 C   0  0  0  0  0  0  0  0  0  0  0  0
  -32.1764  -18.5982   21.8851 C   0  0  0  0  0  0  0  0  0  0  0  0
  -30.1448  -19.0222   23.0886 C   0  0  0  0  0  0  0  0  0  0  0  0
  -31.4258  -19.4572   22.6902 C   0  0  0  0  0  0  0  0  0  0  0  0
  -23.8358  -10.4358   20.9729 C   0  0  0  0  0  0  0  0  0  0  0  0
  -24.1603  -12.9612   20.8164 C   0  0  0  0  0  0  0  0  0  0  0  0
  -26.8776  -32.1283   20.2929 C   0  0  0  0  0  0  0  0  0  0  0  0
  -30.6367  -25.8259   20.4679 C   0  0  0  0  0  0  0  0  0  0  0  0
  -27.6923  -31.1451   20.8864 C   0  0  0  0  0  0  0  0  0  0  0  0
  -29.9329  -24.7573   21.0415 C   0  0  0  0  0  0  0  0  0  0  0  0
  -31.1052  -21.5316   23.9106 C   0  0  0  0  0  0  0  0  0  0  0  0
  -22.3609   -8.1266   21.4973 C   0  0  0  0  0  0  0  0  0  0  0  0
  -31.8714  -24.2316   22.4110 C   0  0  0  0  0  0  0  0  0  0  0  0
  -20.8817   -6.9710   22.9110 C   0  0  0  0  0  0  0  0  0  0  0  0
  -19.3508   -6.9162   25.2425 C   0  0  0  0  0  0  0  0  0  0  0  0
  -21.1238   -5.9990   23.8816 C   0  0  0  0  0  0  0  0  0  0  0  0
  -24.5982  -11.6282   20.7025 C   0  0  0  0  0  0  0  0  0  0  0  0
  -30.5271  -17.0001   21.8651 C   0  0  0  0  0  0  0  0  0  0  0  0
  -25.2497  -13.7130   20.4498 C   0  0  0  0  0  0  0  0  0  0  0  0
  -22.8830  -13.4741   21.2179 C   0  0  0  0  0  0  0  0  0  0  0  0
  -27.9186  -27.4699   20.5800 C   0  0  0  0  0  0  0  0  0  0  0  0
  -26.7778  -24.9483   18.8880 C   0  0  0  0  0  0  0  0  0  0  0  0
  -27.0726  -21.6551   18.0426 C   0  0  0  0  0  0  0  0  0  0  0  0
  -30.7068  -14.8012   20.6490 C   0  0  0  0  0  0  0  0  0  0  0  0
  -25.4168  -31.8827   20.0094 C   0  0  0  0  0  0  0  0  0  0  0  0
  -29.9992  -26.6725   19.4006 C   0  0  0  0  0  0  0  0  0  0  0  0
  -28.5164  -24.4359   20.6430 C   0  0  0  0  0  0  0  0  0  0  0  0
  -25.0374  -30.4041   20.0049 C   0  0  0  0  0  0  0  0  0  0  0  0
  -29.6277  -12.3431   18.3100 C   0  0  0  0  0  0  0  0  0  0  0  0
  -25.6339  -29.6962   21.2172 C   0  0  0  0  0  0  0  0  0  0  0  0
  -28.1870  -12.0477   18.7333 C   0  0  0  0  0  0  0  0  0  0  0  0
  -30.5321  -12.5971   19.5147 C   0  0  0  0  0  0  0  0  0  0  0  0
  -28.6096  -13.3287   20.8704 C   0  0  0  0  0  0  0  0  0  0  0  0
  -27.1659  -29.7603   21.1950 C   0  0  1  0  0  0  0  0  0  0  0  0
  -28.4746  -26.6493   19.4508 C   0  0  1  0  0  0  0  0  0  0  0  0
  -27.6469  -13.1302   19.6882 C   0  0  2  0  0  0  0  0  0  0  0  0
  -32.3964  -22.8008   25.6614 C   0  0  0  0  0  0  0  0  0  0  0  0
  -25.9698  -19.8675   16.6694 C   0  0  0  0  0  0  0  0  0  0  0  0
  -24.5814  -24.6916   20.9904 C   0  0  0  0  0  0  0  0  0  0  0  0
  -24.1134  -22.3913   20.1199 C   0  0  0  0  0  0  0  0  0  0  0  0
  -23.8113  -24.3711   18.6327 C   0  0  0  0  0  0  0  0  0  0  0  0
  -29.4892  -21.2830   16.3752 C   0  0  0  0  0  0  0  0  0  0  0  0
  -31.6202  -22.8821   24.3530 C   0  0  1  0  0  0  0  0  0  1  0  0
  -26.1485  -23.6219   19.2395 C   0  0  1  0  0  0  0  0  0  0  0  0
  -27.0343  -20.9532   16.6971 C   0  0  2  0  0  0  0  0  0  0  0  0
  -24.6897  -23.7760   19.7547 C   0  0  0  0  0  0  0  0  0  0  0  0
  -31.7580  -17.3832   21.4644 N   0  0  0  0  0  0  0  0  0  0  0  0
  -25.8668  -11.5352   20.2952 N   0  0  0  0  0  0  0  0  0  0  0  0
  -26.2354  -12.8193   20.1499 N   0  0  0  0  0  0  0  0  0  0  0  0
  -27.9345  -25.2964   19.5997 N   0  0  0  0  0  0  0  0  0  0  0  0
  -29.9591  -13.6372   20.3719 N   0  0  0  0  0  0  0  0  0  0  0  0
  -25.4511  -15.0447   20.3578 N   0  0  0  0  0  0  0  0  0  0  0  0
  -21.8752  -12.5628   21.5616 N   0  0  0  0  0  0  0  0  0  0  0  0
  -30.0466  -15.7339   21.4482 N   0  0  0  0  0  0  0  0  0  0  0  0
  -27.6986  -28.7953   20.2572 N   0  0  0  0  0  0  0  0  0  0  0  0
  -26.2778  -22.7818   18.0537 N   0  0  0  0  0  0  0  0  0  0  0  0
  -28.3535  -20.3256   16.4026 N   0  3  0  0  0  0  0  0  0  0  0  0
  -22.6375  -14.7037   21.2545 O   0  0  0  0  0  0  0  0  0  0  0  0
  -27.7035  -26.9394   21.6635 O   0  0  0  0  0  0  0  0  0  0  0  0
  -26.2660  -25.6465   18.0092 O   0  0  0  0  0  0  0  0  0  0  0  0
  -27.7379  -21.2429   18.9903 O   0  0  0  0  0  0  0  0  0  0  0  0
  -31.8381  -14.9710   20.1872 O   0  0  0  0  0  0  0  0  0  0  0  0
  -21.6413   -7.0001   21.7535 O   0  0  0  0  0  0  0  0  0  0  0  0
  -32.4668  -23.4576   23.3588 O   0  0  0  0  0  0  0  0  0  1  0  0
  -18.6167   -6.8909   26.3626 F   0  0  0  0  0  0  0  0  0  0  0  0
  -22.0912   -5.0895   23.7003 F   0  0  0  0  0  0  0  0  0  0  0  0
  1  2  1  0  0  0  0
  1  6  2  0  0  0  0
  2  7  2  0  0  0  0
  3  9  2  0  0  0  0
  3 20  1  0  0  0  0
  4 10  2  0  0  0  0
  4 22  1  0  0  0  0
  5 11  1  0  0  0  0
  5 22  2  0  0  0  0
  6 24  1  0  0  0  0
  7 26  1  0  0  0  0
  8 12  2  0  0  0  0
  8 25  1  0  0  0  0
  9 28  1  0  0  0  0
 10 29  1  0  0  0  0
 11 29  2  0  0  0  0
 12 30  1  0  0  0  0
 13 14  2  0  0  0  0
 13 31  1  0  0  0  0
 14 32  1  0  0  0  0
 15 21  1  0  0  0  0
 15 28  2  0  0  0  0
 16 20  1  0  0  0  0
 16 35  2  0  0  0  0
 17 27  1  0  0  0  0
 17 30  2  0  0  0  0
 18 32  2  0  0  0  0
 18 33  1  0  0  0  0
 19 21  1  0  0  0  0
 19 64  2  0  0  0  0
 20 21  2  0  0  0  0
 22 34  1  0  0  0  0
 23 34  1  0  0  0  0
 23 36  2  0  0  0  0
 23 37  1  0  0  0  0
 24 26  2  0  0  0  0
 24 42  1  0  0  0  0
 25 27  2  0  0  0  0
 25 43  1  0  0  0  0
 26 51  1  0  0  0  0
 27 44  1  0  0  0  0
 28 60  1  0  0  0  0
 29 80  1  0  0  0  0
 30 81  1  0  0  0  0
 31 33  2  0  0  0  0
 31 80  1  0  0  0  0
 32 82  1  0  0  0  0
 33 83  1  0  0  0  0
 34 65  2  0  0  0  0
 35 64  1  0  0  0  0
 35 71  1  0  0  0  0
 36 66  1  0  0  0  0
 36 69  1  0  0  0  0
 37 70  1  0  0  0  0
 37 75  2  0  0  0  0
 38 52  1  0  0  0  0
 38 72  1  0  0  0  0
 38 76  2  0  0  0  0
 39 61  1  0  0  0  0
 39 67  1  0  0  0  0
 39 77  2  0  0  0  0
 40 62  1  0  0  0  0
 40 73  1  0  0  0  0
 40 78  2  0  0  0  0
 41 68  1  0  0  0  0
 41 71  1  0  0  0  0
 41 79  2  0  0  0  0
 42 45  1  0  0  0  0
 43 52  1  0  0  0  0
 44 67  1  0  0  0  0
 45 47  1  0  0  0  0
 46 48  1  0  0  0  0
 46 49  1  0  0  0  0
 47 51  1  0  0  0  0
 48 53  1  0  0  0  0
 49 68  1  0  0  0  0
 50 53  1  0  0  0  0
 50 68  1  0  0  0  0
 51 72  1  0  0  0  0
 52 67  1  0  0  0  0
 53 66  1  0  0  0  0
 54 60  1  0  0  0  0
 55 62  1  0  0  0  0
 56 63  1  0  0  0  0
 57 63  1  0  0  0  0
 58 63  1  0  0  0  0
 59 74  1  0  0  0  0
 60 81  1  0  0  0  0
 61 63  1  0  0  0  0
 61 73  1  0  0  0  0
 62 74  1  0  0  0  0
 65 66  1  0  0  0  0
M  CHG  1  74   1
M  ISO  4  41 100  60 101  71 100  81 101
M  END
> <Batch ID>
0130

> <Smiles>
CNC(C)C(=O)NC(C(=O)N1Cc2cc([101O:1][101CH:1](C)c3ccc4cc([100NH:0][100C:0](=O)N5CCCC(n6nc(-c7ccc(Oc8ccc(F)cc8F)cc7)c(C(N)=O)c6N)C5)ncc4c3)ccc2CC1C(=O)NC1CCCc2ccccc21)C(C)(C)C

> <Shape>
0.261

> <Color>
0.194

> <Negative vol penalty>
0.000

$$$$

  -OEChem-04052320473D

 85 93  0     1  0  0  0  0  0999 V2000
  -29.6222  -21.6889   15.5175 C   0  0  0  0  0  0  0  0  0  0  0  0
  -29.4203  -21.8084   16.8887 C   0  0  0  0  0  0  0  0  0  0  0  0
  -24.5118   -9.2780   21.4263 C   0  0  0  0  0  0  0  0  0  0  0  0
  -24.7643  -10.3518   23.5758 C   0  0  0  0  0  0  0  0  0  0  0  0
  -29.7310  -22.8327   14.7277 C   0  0  0  0  0  0  0  0  0  0  0  0
  -29.3280  -23.0720   17.4711 C   0  0  0  0  0  0  0  0  0  0  0  0
  -25.5141  -23.4096   20.7855 C   0  0  0  0  0  0  0  0  0  0  0  0
  -24.1942   -8.0783   22.0630 C   0  0  0  0  0  0  0  0  0  0  0  0
  -24.4465   -9.1520   24.2125 C   0  0  0  0  0  0  0  0  0  0  0  0
  -25.7153  -22.8508   22.0469 C   0  0  0  0  0  0  0  0  0  0  0  0
  -22.9638   -4.8243   23.1179 C   0  0  0  0  0  0  0  0  0  0  0  0
  -21.8805   -4.0962   22.6261 C   0  0  0  0  0  0  0  0  0  0  0  0
  -26.1919  -25.0425   22.9351 C   0  0  0  0  0  0  0  0  0  0  0  0
  -20.4186   -5.9656   23.0790 C   0  0  0  0  0  0  0  0  0  0  0  0
  -24.7970  -10.4148   22.1828 C   0  0  0  0  0  0  0  0  0  0  0  0
  -24.2335  -12.6667   21.1250 C   0  0  0  0  0  0  0  0  0  0  0  0
  -29.6303  -24.1109   15.2993 C   0  0  0  0  0  0  0  0  0  0  0  0
  -25.6611  -24.7899   20.5868 C   0  0  0  0  0  0  0  0  0  0  0  0
  -29.4368  -24.2341   16.6884 C   0  0  0  0  0  0  0  0  0  0  0  0
  -25.9895  -25.6166   21.6708 C   0  0  0  0  0  0  0  0  0  0  0  0
  -24.1615   -8.0153   23.4560 C   0  0  0  0  0  0  0  0  0  0  0  0
  -26.0572  -23.6669   23.1213 C   0  0  0  0  0  0  0  0  0  0  0  0
  -22.7746   -6.1230   23.5903 C   0  0  0  0  0  0  0  0  0  0  0  0
  -20.6079   -4.6669   22.6066 C   0  0  0  0  0  0  0  0  0  0  0  0
  -21.5019   -6.6937   23.5708 C   0  0  0  0  0  0  0  0  0  0  0  0
  -25.1258  -11.6542   21.5258 C   0  0  0  0  0  0  0  0  0  0  0  0
  -25.0352  -13.6243   20.5534 C   0  0  0  0  0  0  0  0  0  0  0  0
  -22.8076  -12.7355   21.2576 C   0  0  0  0  0  0  0  0  0  0  0  0
  -27.5778  -26.6104   18.8216 C   0  0  0  0  0  0  0  0  0  0  0  0
  -25.6699  -28.9971   19.9105 C   0  0  0  0  0  0  0  0  0  0  0  0
  -23.5211  -30.1215   22.3116 C   0  0  0  0  0  0  0  0  0  0  0  0
  -29.6515  -16.7604   20.5876 C   0  0  0  0  0  0  0  0  0  0  0  0
  -29.8014  -25.3184   14.4120 C   0  0  0  0  0  0  0  0  0  0  0  0
  -25.4144  -25.3806   19.2257 C   0  0  0  0  0  0  0  0  0  0  0  0
  -26.1396  -27.1071   21.5144 C   0  0  0  0  0  0  0  0  0  0  0  0
  -29.3179  -26.6175   15.0515 C   0  0  0  0  0  0  0  0  0  0  0  0
  -29.9180  -13.4752   19.2409 C   0  0  0  0  0  0  0  0  0  0  0  0
  -29.8347  -26.7330   16.4820 C   0  0  0  0  0  0  0  0  0  0  0  0
  -28.6249  -12.7908   19.6874 C   0  0  0  0  0  0  0  0  0  0  0  0
  -29.7603  -18.6826   26.5923 C   0  0  0  0  0  0  0  0  0  0  0  0
  -30.4477  -14.4315   20.3072 C   0  0  0  0  0  0  0  0  0  0  0  0
  -28.1821  -14.7519   21.2227 C   0  0  0  0  0  0  0  0  0  0  0  0
  -30.1988  -19.0508   25.1875 C   0  0  0  0  0  0  0  0  0  0  0  0
  -29.3066  -25.5871   17.3535 C   0  0  1  0  0  0  0  0  0  0  0  0
  -26.0945  -26.7319   19.0285 C   0  0  1  0  0  0  0  0  0  0  0  0
  -28.9228  -19.8774   27.0246 C   0  0  1  0  0  0  0  0  0  0  0  0
  -27.5793  -13.8199   20.1577 C   0  0  2  0  0  0  0  0  0  0  0  0
  -28.0828  -20.1501   25.7758 C   0  0  1  0  0  0  0  0  0  0  0  0
  -22.1533  -32.1268   22.9483 C   0  0  0  0  0  0  0  0  0  0  0  0
  -27.4740  -18.1934   28.1947 C   0  0  0  0  0  0  0  0  0  0  0  0
  -28.9314  -19.7402   29.5314 C   0  0  0  0  0  0  0  0  0  0  0  0
  -26.6918  -21.8915   26.9108 C   0  0  0  0  0  0  0  0  0  0  0  0
  -28.1996  -30.4214   20.8496 C   0  0  0  0  0  0  0  0  0  0  0  0
  -26.7592  -31.8898   22.2770 C   0  0  0  0  0  0  0  0  0  0  0  0
  -26.4915  -31.9144   19.7970 C   0  0  0  0  0  0  0  0  0  0  0  0
  -20.9932  -28.5898   22.1609 C   0  0  0  0  0  0  0  0  0  0  0  0
  -29.2700  -19.6407   22.1939 C   0  0  0  0  0  0  0  0  0  0  0  0
  -28.7087  -19.0329   20.9130 C   0  0  0  0  0  0  0  0  0  0  0  0
  -28.4209  -19.3039   23.4130 C   0  0  0  0  0  0  0  0  0  0  0  0
  -26.7451  -21.7847   24.4020 C   0  0  0  0  0  0  0  0  0  1  0  0
  -25.6820  -29.9120   21.1113 C   0  0  1  0  0  0  0  0  0  0  0  0
  -22.1643  -30.7953   22.2135 C   0  0  2  0  0  0  0  0  0  0  0  0
  -28.0889  -19.5919   28.2638 C   0  0  0  0  0  0  0  0  0  0  0  0
  -27.5480  -21.5699   25.6878 C   0  0  2  0  0  0  0  0  0  0  0  0
  -26.7822  -31.0061   21.0116 C   0  0  0  0  0  0  0  0  0  0  0  0
  -26.3969  -11.9418   21.2334 N   0  0  0  0  0  0  0  0  0  0  0  0
  -26.3093  -13.1457   20.6427 N   0  0  0  0  0  0  0  0  0  0  0  0
  -25.8943  -27.6363   20.1626 N   0  0  0  0  0  0  0  0  0  0  0  0
  -29.4080  -15.3823   20.7083 N   0  0  0  0  0  0  0  0  0  0  0  0
  -24.7676  -14.8206   19.9880 N   0  0  0  0  0  0  0  0  0  0  0  0
  -22.1411  -11.6652   21.8697 N   0  0  0  0  0  0  0  0  0  0  0  0
  -27.9325  -25.8340   17.7348 N   0  0  0  0  0  0  0  0  0  0  0  0
  -24.3268  -30.4371   21.2381 N   0  0  0  0  0  0  0  0  0  0  0  0
  -28.6112  -17.5920   20.9839 N   0  0  0  0  0  0  0  0  0  0  0  0
  -29.0616  -19.8929   24.6330 N   0  3  2  0  0  0  0  0  0  0  0  0
  -21.1093  -29.9239   22.8039 N   0  3  0  0  0  0  0  0  0  0  0  0
  -22.1424  -13.7095   20.8308 O   0  0  0  0  0  0  0  0  0  0  0  0
  -28.3437  -27.1801   19.5900 O   0  0  0  0  0  0  0  0  0  0  0  0
  -25.4616  -29.4714   18.7910 O   0  0  0  0  0  0  0  0  0  0  0  0
  -23.8360  -29.3914   23.2488 O   0  0  0  0  0  0  0  0  0  0  0  0
  -30.7149  -17.2158   20.1533 O   0  0  0  0  0  0  0  0  0  0  0  0
  -23.8513   -6.8448   24.0776 O   0  0  0  0  0  0  0  0  0  0  0  0
  -26.2548  -23.1240   24.3534 O   0  0  0  0  0  0  0  0  0  1  0  0
  -19.5679   -3.9682   22.1328 F   0  0  0  0  0  0  0  0  0  0  0  0
  -21.3141   -7.9414   24.0223 F   0  0  0  0  0  0  0  0  0  0  0  0
  1  2  1  0  0  0  0
  1  5  2  0  0  0  0
  2  6  2  0  0  0  0
  3  8  2  0  0  0  0
  3 15  1  0  0  0  0
  4  9  1  0  0  0  0
  4 15  2  0  0  0  0
  5 17  1  0  0  0  0
  6 19  1  0  0  0  0
  7 10  2  0  0  0  0
  7 18  1  0  0  0  0
  8 21  1  0  0  0  0
  9 21  2  0  0  0  0
 10 22  1  0  0  0  0
 11 12  2  0  0  0  0
 11 23  1  0  0  0  0
 12 24  1  0  0  0  0
 13 20  1  0  0  0  0
 13 22  2  0  0  0  0
 14 24  2  0  0  0  0
 14 25  1  0  0  0  0
 15 26  1  0  0  0  0
 16 26  1  0  0  0  0
 16 27  2  0  0  0  0
 16 28  1  0  0  0  0
 17 19  2  0  0  0  0
 17 33  1  0  0  0  0
 18 20  2  0  0  0  0
 18 34  1  0  0  0  0
 19 44  1  0  0  0  0
 20 35  1  0  0  0  0
 21 82  1  0  0  0  0
 22 83  1  0  0  0  0
 23 25  2  0  0  0  0
 23 82  1  0  0  0  0
 24 84  1  0  0  0  0
 25 85  1  0  0  0  0
 26 66  2  0  0  0  0
 27 67  1  0  0  0  0
 27 70  1  0  0  0  0
 28 71  1  0  0  0  0
 28 77  2  0  0  0  0
 29 45  1  0  0  0  0
 29 72  1  0  0  0  0
 29 78  2  0  0  0  0
 30 61  1  0  0  0  0
 30 68  1  0  0  0  0
 30 79  2  0  0  0  0
 31 62  1  0  0  0  0
 31 73  1  0  0  0  0
 31 80  2  0  0  0  0
 32 69  1  0  0  0  0
 32 74  1  0  0  0  0
 32 81  2  0  0  0  0
 33 36  1  0  0  0  0
 34 45  1  0  0  0  0
 35 68  1  0  0  0  0
 36 38  1  0  0  0  0
 37 39  1  0  0  0  0
 37 41  1  0  0  0  0
 38 44  1  0  0  0  0
 39 47  1  0  0  0  0
 40 43  1  0  0  0  0
 40 46  1  0  0  0  0
 41 69  1  0  0  0  0
 42 47  1  0  0  0  0
 42 69  1  0  0  0  0
 43 75  1  0  0  0  0
 44 72  1  0  0  0  0
 45 68  1  0  0  0  0
 46 48  1  0  0  0  0
 46 63  1  0  0  0  0
 47 67  1  0  0  0  0
 48 64  1  0  0  0  0
 48 75  1  0  0  0  0
 49 62  1  0  0  0  0
 50 63  1  0  0  0  0
 51 63  1  0  0  0  0
 52 64  1  0  0  0  0
 53 65  1  0  0  0  0
 54 65  1  0  0  0  0
 55 65  1  0  0  0  0
 56 76  1  0  0  0  0
 57 58  1  0  0  0  0
 57 59  1  0  0  0  0
 58 74  1  0  0  0  0
 59 75  1  0  0  0  0
 60 64  1  0  0  0  0
 60 83  1  0  0  0  0
 61 65  1  0  0  0  0
 61 73  1  0  0  0  0
 62 76  1  0  0  0  0
 66 67  1  0  0  0  0
M  CHG  2  75   1  76   1
M  ISO  4  32 100  60 101  74 100  83 101
M  END
> <Batch ID>
0130

> <Smiles>
CNC(C)C(=O)NC(C(=O)N1Cc2cc([101O:1][101CH2:1]C(C)C3C(C(C)C)CCN3CCC[100NH:0][100C:0](=O)N3CCCC(n4nc(-c5ccc(Oc6ccc(F)cc6F)cc5)c(C(N)=O)c4N)C3)ccc2CC1C(=O)NC1CCCc2ccccc21)C(C)(C)C

> <Shape>
0.260

> <Color>
0.124

> <Negative vol penalty>
0.000

$$$$

  -OEChem-04052320473D

 80 88  0     1  0  0  0  0  0999 V2000
  -16.7473  -28.5918   22.9153 C   0  0  0  0  0  0  0  0  0  0  0  0
  -17.6326  -27.5212   22.8417 C   0  0  0  0  0  0  0  0  0  0  0  0
  -23.5062   -9.6719   20.3116 C   0  0  0  0  0  0  0  0  0  0  0  0
  -23.9869  -10.1843   22.6232 C   0  0  0  0  0  0  0  0  0  0  0  0
  -17.2363  -29.8941   23.0084 C   0  0  0  0  0  0  0  0  0  0  0  0
  -19.0076  -27.7524   22.8601 C   0  0  0  0  0  0  0  0  0  0  0  0
  -23.3043  -24.2018   25.3973 C   0  0  0  0  0  0  0  0  0  0  0  0
  -27.5370  -19.5665   24.0928 C   0  0  0  0  0  0  0  0  0  0  0  0
  -22.9039   -8.4759   20.7020 C   0  0  0  0  0  0  0  0  0  0  0  0
  -23.3844   -8.9883   23.0136 C   0  0  0  0  0  0  0  0  0  0  0  0
  -24.1686  -23.2476   24.8623 C   0  0  0  0  0  0  0  0  0  0  0  0
  -20.2485   -7.8108   23.4609 C   0  0  0  0  0  0  0  0  0  0  0  0
  -19.3736   -7.8517   24.5464 C   0  0  0  0  0  0  0  0  0  0  0  0
  -28.5404  -18.7580   23.5704 C   0  0  0  0  0  0  0  0  0  0  0  0
  -25.9021  -24.9173   24.7006 C   0  0  0  0  0  0  0  0  0  0  0  0
  -20.7755   -6.2839   25.7354 C   0  0  0  0  0  0  0  0  0  0  0  0
  -24.0478  -10.5261   21.2723 C   0  0  0  0  0  0  0  0  0  0  0  0
  -24.0512  -13.0167   20.7203 C   0  0  0  0  0  0  0  0  0  0  0  0
  -18.6180  -30.1408   23.0377 C   0  0  0  0  0  0  0  0  0  0  0  0
  -23.7297  -25.5257   25.5781 C   0  0  0  0  0  0  0  0  0  0  0  0
  -19.5156  -29.0594   22.9523 C   0  0  0  0  0  0  0  0  0  0  0  0
  -25.0421  -25.8858   25.2404 C   0  0  0  0  0  0  0  0  0  0  0  0
  -26.8859  -20.4773   23.2682 C   0  0  0  0  0  0  0  0  0  0  0  0
  -22.8429   -8.1341   22.0530 C   0  0  0  0  0  0  0  0  0  0  0  0
  -25.4668  -23.6059   24.5112 C   0  0  0  0  0  0  0  0  0  0  0  0
  -21.3869   -7.0063   23.5125 C   0  0  0  0  0  0  0  0  0  0  0  0
  -19.6371   -7.0883   25.6837 C   0  0  0  0  0  0  0  0  0  0  0  0
  -21.6504   -6.2429   24.6498 C   0  0  0  0  0  0  0  0  0  0  0  0
  -24.6707  -11.7614   20.8696 C   0  0  0  0  0  0  0  0  0  0  0  0
  -28.8528  -18.8979   22.2277 C   0  0  0  0  0  0  0  0  0  0  0  0
  -27.2725  -20.5404   21.9392 C   0  0  0  0  0  0  0  0  0  0  0  0
  -25.0648  -13.8549   20.3247 C   0  0  0  0  0  0  0  0  0  0  0  0
  -22.6820  -13.3915   20.9214 C   0  0  0  0  0  0  0  0  0  0  0  0
  -22.8276  -28.3485   24.4283 C   0  0  0  0  0  0  0  0  0  0  0  0
  -24.9939  -29.4737   26.5644 C   0  0  0  0  0  0  0  0  0  0  0  0
  -27.7883  -28.8936   28.4356 C   0  0  0  0  0  0  0  0  0  0  0  0
  -30.2974  -15.7327   20.8130 C   0  0  0  0  0  0  0  0  0  0  0  0
  -19.0995  -31.5690   23.0916 C   0  0  0  0  0  0  0  0  0  0  0  0
  -22.7936  -26.5369   26.1812 C   0  0  0  0  0  0  0  0  0  0  0  0
  -25.5540  -27.2891   25.4335 C   0  0  0  0  0  0  0  0  0  0  0  0
  -20.5690  -31.7021   23.4827 C   0  0  0  0  0  0  0  0  0  0  0  0
  -29.7826  -12.8317   18.8141 C   0  0  0  0  0  0  0  0  0  0  0  0
  -21.4230  -30.7149   22.6935 C   0  0  0  0  0  0  0  0  0  0  0  0
  -28.3587  -12.3950   19.1630 C   0  0  0  0  0  0  0  0  0  0  0  0
  -30.5152  -13.3923   20.0311 C   0  0  0  0  0  0  0  0  0  0  0  0
  -28.3832  -14.0417   21.0831 C   0  0  0  0  0  0  0  0  0  0  0  0
  -21.0139  -29.2679   22.9944 C   0  0  1  0  0  0  0  0  0  0  0  0
  -23.1702  -27.9760   25.8430 C   0  0  1  0  0  0  0  0  0  0  0  0
  -27.5855  -13.5212   19.8752 C   0  0  2  0  0  0  0  0  0  0  0  0
  -26.6060  -21.4976   21.0063 C   0  0  0  0  0  0  0  0  0  0  0  0
  -29.3435  -30.0161   30.0539 C   0  0  0  0  0  0  0  0  0  0  0  0
  -26.2884  -30.9976   24.2596 C   0  0  0  0  0  0  0  0  0  0  0  0
  -28.3164  -31.3067   25.6948 C   0  0  0  0  0  0  0  0  0  0  0  0
  -26.1310  -32.2806   26.4005 C   0  0  0  0  0  0  0  0  0  0  0  0
  -27.1501  -26.9512   30.5755 C   0  0  0  0  0  0  0  0  0  0  0  0
  -25.8033  -21.3534   23.8265 C   0  0  0  0  0  0  0  0  0  1  0  0
  -29.9235  -18.0448   21.6335 C   0  0  0  0  0  0  0  0  0  0  0  0
  -26.4720  -29.7787   26.5282 C   0  0  1  0  0  0  0  0  0  0  0  0
  -28.0950  -29.1619   29.8979 C   0  0  2  0  0  0  0  0  0  0  0  0
  -26.7920  -31.0648   25.7152 C   0  0  0  0  0  0  0  0  0  0  0  0
  -25.9766  -11.7945   20.5913 N   0  0  0  0  0  0  0  0  0  0  0  0
  -28.2425  -19.7713   21.3957 N   0  0  0  0  0  0  0  0  0  0  0  0
  -26.1860  -13.0808   20.2630 N   0  0  0  0  0  0  0  0  0  0  0  0
  -24.5989  -28.2431   26.0208 N   0  0  0  0  0  0  0  0  0  0  0  0
  -29.7296  -14.4571   20.6595 N   0  0  0  0  0  0  0  0  0  0  0  0
  -25.0974  -15.1712   20.0268 N   0  0  0  0  0  0  0  0  0  0  0  0
  -21.7723  -12.4060   21.3283 N   0  0  0  0  0  0  0  0  0  0  0  0
  -21.5483  -28.8469   24.2717 N   0  0  0  0  0  0  0  0  0  0  0  0
  -26.9133  -29.8251   27.9180 N   0  0  0  0  0  0  0  0  0  0  0  0
  -29.4828  -16.6855   21.4124 N   0  0  0  0  0  0  0  0  0  0  0  0
  -28.3090  -27.8793   30.6261 N   0  3  0  0  0  0  0  0  0  0  0  0
  -22.2739  -14.5621   20.7297 O   0  0  0  0  0  0  0  0  0  0  0  0
  -23.6626  -28.1964   23.5443 O   0  0  0  0  0  0  0  0  0  0  0  0
  -24.2192  -30.2939   27.0632 O   0  0  0  0  0  0  0  0  0  0  0  0
  -28.2790  -27.9539   27.8136 O   0  0  0  0  0  0  0  0  0  0  0  0
  -31.4434  -16.0038   20.4386 O   0  0  0  0  0  0  0  0  0  0  0  0
  -22.2550   -6.9673   22.4343 O   0  0  0  0  0  0  0  0  0  0  0  0
  -26.3123  -22.6767   23.9882 O   0  0  0  0  0  0  0  0  0  1  0  0
  -18.7976   -7.1289   26.7267 F   0  0  0  0  0  0  0  0  0  0  0  0
  -22.7430   -5.4690   24.7057 F   0  0  0  0  0  0  0  0  0  0  0  0
  1  2  1  0  0  0  0
  1  5  2  0  0  0  0
  2  6  2  0  0  0  0
  3  9  2  0  0  0  0
  3 17  1  0  0  0  0
  4 10  1  0  0  0  0
  4 17  2  0  0  0  0
  5 19  1  0  0  0  0
  6 21  1  0  0  0  0
  7 11  2  0  0  0  0
  7 20  1  0  0  0  0
  8 14  2  0  0  0  0
  8 23  1  0  0  0  0
  9 24  1  0  0  0  0
 10 24  2  0  0  0  0
 11 25  1  0  0  0  0
 12 13  2  0  0  0  0
 12 26  1  0  0  0  0
 13 27  1  0  0  0  0
 14 30  1  0  0  0  0
 15 22  1  0  0  0  0
 15 25  2  0  0  0  0
 16 27  2  0  0  0  0
 16 28  1  0  0  0  0
 17 29  1  0  0  0  0
 18 29  1  0  0  0  0
 18 32  2  0  0  0  0
 18 33  1  0  0  0  0
 19 21  2  0  0  0  0
 19 38  1  0  0  0  0
 20 22  2  0  0  0  0
 20 39  1  0  0  0  0
 21 47  1  0  0  0  0
 22 40  1  0  0  0  0
 23 31  2  0  0  0  0
 23 56  1  0  0  0  0
 24 77  1  0  0  0  0
 25 78  1  0  0  0  0
 26 28  2  0  0  0  0
 26 77  1  0  0  0  0
 27 79  1  0  0  0  0
 28 80  1  0  0  0  0
 29 61  2  0  0  0  0
 30 57  1  0  0  0  0
 30 62  2  0  0  0  0
 31 50  1  0  0  0  0
 31 62  1  0  0  0  0
 32 63  1  0  0  0  0
 32 66  1  0  0  0  0
 33 67  1  0  0  0  0
 33 72  2  0  0  0  0
 34 48  1  0  0  0  0
 34 68  1  0  0  0  0
 34 73  2  0  0  0  0
 35 58  1  0  0  0  0
 35 64  1  0  0  0  0
 35 74  2  0  0  0  0
 36 59  1  0  0  0  0
 36 69  1  0  0  0  0
 36 75  2  0  0  0  0
 37 65  1  0  0  0  0
 37 70  1  0  0  0  0
 37 76  2  0  0  0  0
 38 41  1  0  0  0  0
 39 48  1  0  0  0  0
 40 64  1  0  0  0  0
 41 43  1  0  0  0  0
 42 44  1  0  0  0  0
 42 45  1  0  0  0  0
 43 47  1  0  0  0  0
 44 49  1  0  0  0  0
 45 65  1  0  0  0  0
 46 49  1  0  0  0  0
 46 65  1  0  0  0  0
 47 68  1  0  0  0  0
 48 64  1  0  0  0  0
 49 63  1  0  0  0  0
 51 59  1  0  0  0  0
 52 60  1  0  0  0  0
 53 60  1  0  0  0  0
 54 60  1  0  0  0  0
 55 71  1  0  0  0  0
 56 78  1  0  0  0  0
 57 70  1  0  0  0  0
 58 60  1  0  0  0  0
 58 69  1  0  0  0  0
 59 71  1  0  0  0  0
 61 63  1  0  0  0  0
M  CHG  1  71   1
M  ISO  4  37 100  56 101  70 100  78 101
M  END
> <Batch ID>
0130

> <Smiles>
CNC(C)C(=O)NC(C(=O)N1Cc2cc([101O:1][101CH2:1]c3ccc(C[100NH:0][100C:0](=O)N4CCCC(n5nc(-c6ccc(Oc7ccc(F)cc7F)cc6)c(C(N)=O)c5N)C4)nc3C)ccc2CC1C(=O)NC1CCCc2ccccc21)C(C)(C)C

> <Shape>
0.271

> <Color>
0.191

> <Negative vol penalty>
0.000

$$$$

  -OEChem-04052320473D

 86 95  0     1  0  0  0  0  0999 V2000
  -28.4943  -21.9992   19.5306 C   0  0  0  0  0  0  0  0  0  0  0  0
  -27.3539  -22.3421   20.2499 C   0  0  0  0  0  0  0  0  0  0  0  0
  -26.2495  -13.6634   19.8883 C   0  0  0  0  0  0  0  0  0  0  0  0
  -24.8138  -13.6076   21.8307 C   0  0  0  0  0  0  0  0  0  0  0  0
  -29.6601  -22.7501   19.6748 C   0  0  0  0  0  0  0  0  0  0  0  0
  -27.3792  -23.4357   21.1148 C   0  0  0  0  0  0  0  0  0  0  0  0
  -23.2765  -26.3690   20.6576 C   0  0  0  0  0  0  0  0  0  0  0  0
  -26.2132  -12.2707   19.8214 C   0  0  0  0  0  0  0  0  0  0  0  0
  -24.7774  -12.2149   21.7637 C   0  0  0  0  0  0  0  0  0  0  0  0
  -22.1042  -25.9236   21.2667 C   0  0  0  0  0  0  0  0  0  0  0  0
  -23.1751   -9.8507   19.9571 C   0  0  0  0  0  0  0  0  0  0  0  0
  -21.9363   -9.2282   20.1097 C   0  0  0  0  0  0  0  0  0  0  0  0
  -22.5083  -27.4136   23.1203 C   0  0  0  0  0  0  0  0  0  0  0  0
  -22.7248  -23.4611   24.2905 C   0  0  0  0  0  0  0  0  0  0  0  0
  -22.7710   -8.0403   22.0409 C   0  0  0  0  0  0  0  0  0  0  0  0
  -21.9041  -22.5912   26.1982 C   0  0  0  0  0  0  0  0  0  0  0  0
  -25.5499  -14.3319   20.8930 C   0  0  0  0  0  0  0  0  0  0  0  0
  -24.7079  -16.6754   20.3390 C   0  0  0  0  0  0  0  0  0  0  0  0
  -29.6968  -23.8592   20.5345 C   0  0  0  0  0  0  0  0  0  0  0  0
  -24.0805  -27.3338   21.2815 C   0  0  0  0  0  0  0  0  0  0  0  0
  -28.5470  -24.2014   21.2716 C   0  0  0  0  0  0  0  0  0  0  0  0
  -23.6889  -27.8715   22.5159 C   0  0  0  0  0  0  0  0  0  0  0  0
  -21.5371  -23.1921   25.0144 C   0  0  0  0  0  0  0  0  0  0  0  0
  -25.4771  -11.5464   20.7591 C   0  0  0  0  0  0  0  0  0  0  0  0
  -21.7214  -26.4437   22.4996 C   0  0  0  0  0  0  0  0  0  0  0  0
  -24.2120   -9.5679   20.8463 C   0  0  0  0  0  0  0  0  0  0  0  0
  -21.7342   -8.3231   21.1516 C   0  0  0  0  0  0  0  0  0  0  0  0
  -24.0099   -8.6628   21.8882 C   0  0  0  0  0  0  0  0  0  0  0  0
  -25.5876  -15.7706   20.9630 C   0  0  0  0  0  0  0  0  0  0  0  0
  -23.7815  -23.0161   25.0539 C   0  0  0  0  0  0  0  0  0  0  0  0
  -25.1664  -17.9144   20.7146 C   0  0  0  0  0  0  0  0  0  0  0  0
  -23.5773  -16.4188   19.4954 C   0  0  0  0  0  0  0  0  0  0  0  0
  -27.0633  -27.3994   22.3780 C   0  0  0  0  0  0  0  0  0  0  0  0
  -26.4075  -30.5412   22.8486 C   0  0  0  0  0  0  0  0  0  0  0  0
  -24.0594  -32.9693   23.3360 C   0  0  0  0  0  0  0  0  0  0  0  0
  -27.0925  -21.4157   24.6103 C   0  0  0  0  0  0  0  0  0  0  0  0
  -30.9940  -24.6122   20.6931 C   0  0  0  0  0  0  0  0  0  0  0  0
  -25.3282  -27.8233   20.5988 C   0  0  0  0  0  0  0  0  0  0  0  0
  -24.5065  -28.9239   23.2176 C   0  0  0  0  0  0  0  0  0  0  0  0
  -30.8273  -25.9816   21.3467 C   0  0  0  0  0  0  0  0  0  0  0  0
  -29.4557  -19.2767   23.0239 C   0  0  0  0  0  0  0  0  0  0  0  0
  -29.9328  -25.8802   22.5781 C   0  0  0  0  0  0  0  0  0  0  0  0
  -28.5878  -18.2455   22.3005 C   0  0  0  0  0  0  0  0  0  0  0  0
  -23.7436  -20.4082   27.5114 C   0  0  0  0  0  0  0  0  0  0  0  0
  -23.9032  -22.6896   28.6204 C   0  0  0  0  0  0  0  0  0  0  0  0
  -28.8480  -19.6853   24.3639 C   0  0  0  0  0  0  0  0  0  0  0  0
  -26.5836  -19.1233   23.5698 C   0  0  0  0  0  0  0  0  0  0  0  0
  -24.5769  -19.8206   28.6413 C   0  0  0  0  0  0  0  0  0  0  0  0
  -24.7345  -22.0695   29.7343 C   0  0  0  0  0  0  0  0  0  0  0  0
  -28.5277  -25.3957   22.2008 C   0  0  1  0  0  0  0  0  0  0  0  0
  -26.3378  -28.4344   21.5656 C   0  0  1  0  0  0  0  0  0  0  0  0
  -27.1271  -18.7220   22.1879 C   0  0  2  0  0  0  0  0  0  0  0  0
  -24.0515  -21.9018   27.3071 C   0  0  0  0  0  0  0  0  0  0  0  0
  -23.8298  -35.4376   23.7263 C   0  0  0  0  0  0  0  0  0  0  0  0
  -27.2901  -30.1629   25.7448 C   0  0  0  0  0  0  0  0  0  0  0  0
  -26.1652  -32.3302   26.2976 C   0  0  0  0  0  0  0  0  0  0  0  0
  -28.0690  -32.2907   24.6863 C   0  0  0  0  0  0  0  0  0  0  0  0
  -22.4952  -33.3344   20.8503 C   0  0  0  0  0  0  0  0  0  0  0  0
  -20.1301  -23.5058   24.5720 C   0  0  0  0  0  0  0  0  0  0  0  0
  -25.2323  -23.0501   24.7761 C   0  0  0  0  0  0  0  0  0  0  0  0
  -19.6436  -24.8913   25.0023 C   0  0  0  0  0  0  0  0  0  0  0  0
  -20.5448  -26.0234   24.5232 C   0  0  0  0  0  0  0  0  0  1  0  0
  -25.8288  -31.3546   23.9811 C   0  0  1  0  0  0  0  0  0  0  0  0
  -23.8656  -34.3279   22.6870 C   0  0  2  0  0  0  0  0  0  0  0  0
  -26.8237  -31.5134   25.1654 C   0  0  0  0  0  0  0  0  0  0  0  0
  -26.5335  -16.3827   21.6804 N   0  0  0  0  0  0  0  0  0  0  0  0
  -23.2707  -22.4890   26.2112 N   0  0  0  0  0  0  0  0  0  0  0  0
  -26.2508  -17.6854   21.5094 N   0  0  0  0  0  0  0  0  0  0  0  0
  -25.7212  -29.3656   22.5127 N   0  0  0  0  0  0  0  0  0  0  0  0
  -27.4629  -20.1285   24.1873 N   0  0  0  0  0  0  0  0  0  0  0  0
  -24.7438  -19.1666   20.4391 N   0  0  0  0  0  0  0  0  0  0  0  0
  -23.2448  -15.0874   19.2105 N   0  0  0  0  0  0  0  0  0  0  0  0
  -27.7591  -26.4762   21.6210 N   0  0  0  0  0  0  0  0  0  0  0  0
  -25.3912  -32.6168   23.3950 N   0  0  0  0  0  0  0  0  0  0  0  0
  -25.7625  -21.7584   24.4001 N   0  0  0  0  0  0  0  0  0  0  0  0
  -24.3670  -20.6290   29.8797 N   0  3  0  0  0  0  0  0  0  0  0  0
  -22.5869  -34.3589   21.9221 N   0  3  0  0  0  0  0  0  0  0  0  0
  -22.8924  -17.3431   18.9954 O   0  0  0  0  0  0  0  0  0  0  0  0
  -26.9979  -27.4366   23.6011 O   0  0  0  0  0  0  0  0  0  0  0  0
  -27.4266  -30.9381   22.2782 O   0  0  0  0  0  0  0  0  0  0  0  0
  -23.1234  -32.2905   23.7526 O   0  0  0  0  0  0  0  0  0  0  0  0
  -27.8895  -22.2032   25.1314 O   0  0  0  0  0  0  0  0  0  0  0  0
  -25.4412  -10.1873   20.6939 O   0  0  0  0  0  0  0  0  0  0  0  0
  -20.5780  -26.0102   23.0966 O   0  0  0  0  0  0  0  0  0  1  0  0
  -20.5440   -7.7266   21.2990 F   0  0  0  0  0  0  0  0  0  0  0  0
  -25.0019   -8.3881   22.7463 F   0  0  0  0  0  0  0  0  0  0  0  0
  1  2  1  0  0  0  0
  1  5  2  0  0  0  0
  2  6  2  0  0  0  0
  3  8  2  0  0  0  0
  3 17  1  0  0  0  0
  4  9  1  0  0  0  0
  4 17  2  0  0  0  0
  5 19  1  0  0  0  0
  6 21  1  0  0  0  0
  7 10  2  0  0  0  0
  7 20  1  0  0  0  0
  8 24  1  0  0  0  0
  9 24  2  0  0  0  0
 10 25  1  0  0  0  0
 11 12  2  0  0  0  0
 11 26  1  0  0  0  0
 12 27  1  0  0  0  0
 13 22  1  0  0  0  0
 13 25  2  0  0  0  0
 14 23  1  0  0  0  0
 14 30  2  0  0  0  0
 15 27  2  0  0  0  0
 15 28  1  0  0  0  0
 16 23  2  0  0  0  0
 16 67  1  0  0  0  0
 17 29  1  0  0  0  0
 18 29  1  0  0  0  0
 18 31  2  0  0  0  0
 18 32  1  0  0  0  0
 19 21  2  0  0  0  0
 19 37  1  0  0  0  0
 20 22  2  0  0  0  0
 20 38  1  0  0  0  0
 21 50  1  0  0  0  0
 22 39  1  0  0  0  0
 23 59  1  0  0  0  0
 24 83  1  0  0  0  0
 25 84  1  0  0  0  0
 26 28  2  0  0  0  0
 26 83  1  0  0  0  0
 27 85  1  0  0  0  0
 28 86  1  0  0  0  0
 29 66  2  0  0  0  0
 30 60  1  0  0  0  0
 30 67  1  0  0  0  0
 31 68  1  0  0  0  0
 31 71  1  0  0  0  0
 32 72  1  0  0  0  0
 32 78  2  0  0  0  0
 33 51  1  0  0  0  0
 33 73  1  0  0  0  0
 33 79  2  0  0  0  0
 34 63  1  0  0  0  0
 34 69  1  0  0  0  0
 34 80  2  0  0  0  0
 35 64  1  0  0  0  0
 35 74  1  0  0  0  0
 35 81  2  0  0  0  0
 36 70  1  0  0  0  0
 36 75  1  0  0  0  0
 36 82  2  0  0  0  0
 37 40  1  0  0  0  0
 38 51  1  0  0  0  0
 39 69  1  0  0  0  0
 40 42  1  0  0  0  0
 41 43  1  0  0  0  0
 41 46  1  0  0  0  0
 42 50  1  0  0  0  0
 43 52  1  0  0  0  0
 44 48  1  0  0  0  0
 44 53  1  0  0  0  0
 45 49  1  0  0  0  0
 45 53  1  0  0  0  0
 46 70  1  0  0  0  0
 47 52  1  0  0  0  0
 47 70  1  0  0  0  0
 48 76  1  0  0  0  0
 49 76  1  0  0  0  0
 50 73  1  0  0  0  0
 51 69  1  0  0  0  0
 52 68  1  0  0  0  0
 53 67  1  0  0  0  0
 54 64  1  0  0  0  0
 55 65  1  0  0  0  0
 56 65  1  0  0  0  0
 57 65  1  0  0  0  0
 58 77  1  0  0  0  0
 59 61  1  0  0  0  0
 60 75  1  0  0  0  0
 61 62  1  0  0  0  0
 62 84  1  0  0  0  0
 63 65  1  0  0  0  0
 63 74  1  0  0  0  0
 64 77  1  0  0  0  0
 66 68  1  0  0  0  0
M  CHG  2  76   1  77   1
M  ISO  4  36 100  62 101  75 100  84 101
M  END
> <Batch ID>
0130

> <Smiles>
CNC(C)C(=O)NC(C(=O)N1Cc2cc([101O:1][101CH2:1]CCc3cc(C[100NH:0][100C:0](=O)N4CCCC(n5nc(-c6ccc(Oc7ccc(F)cc7F)cc6)c(C(N)=O)c5N)C4)n(C4CCNCC4)c3)ccc2CC1C(=O)NC1CCCc2ccccc21)C(C)(C)C

> <Shape>
0.215

> <Color>
0.066

> <Negative vol penalty>
0.000

$$$$

  -OEChem-04052320473D

 83 92  0     1  0  0  0  0  0999 V2000
  -30.4545  -14.2423   22.3391 C   0  0  0  0  0  0  0  0  0  0  0  0
  -29.9159  -15.5238   22.3926 C   0  0  0  0  0  0  0  0  0  0  0  0
  -27.8207  -28.7434   20.6674 C   0  0  0  0  0  0  0  0  0  0  0  0
  -26.1309  -27.5031   19.4660 C   0  0  0  0  0  0  0  0  0  0  0  0
  -29.9090  -13.2937   21.4750 C   0  0  0  0  0  0  0  0  0  0  0  0
  -28.8322  -15.8579   21.5813 C   0  0  0  0  0  0  0  0  0  0  0  0
  -24.2303  -19.6548   22.9642 C   0  0  0  0  0  0  0  0  0  0  0  0
  -28.7925  -27.8439   20.2292 C   0  0  0  0  0  0  0  0  0  0  0  0
  -27.1028  -26.6036   19.0277 C   0  0  0  0  0  0  0  0  0  0  0  0
  -23.9922  -20.9927   22.6525 C   0  0  0  0  0  0  0  0  0  0  0  0
  -28.7940  -23.9574   20.2802 C   0  0  0  0  0  0  0  0  0  0  0  0
  -28.4961  -22.5966   20.3502 C   0  0  0  0  0  0  0  0  0  0  0  0
  -21.8449  -27.0524   19.4954 C   0  0  0  0  0  0  0  0  0  0  0  0
  -22.6256  -20.3083   20.7862 C   0  0  0  0  0  0  0  0  0  0  0  0
  -21.2110  -25.1077   20.7607 C   0  0  0  0  0  0  0  0  0  0  0  0
  -28.7812  -22.4111   17.9582 C   0  0  0  0  0  0  0  0  0  0  0  0
  -22.6233  -26.2196   18.7077 C   0  0  0  0  0  0  0  0  0  0  0  0
  -26.4898  -28.5730   20.2858 C   0  0  0  0  0  0  0  0  0  0  0  0
  -25.0715  -30.6851   20.0985 C   0  0  0  0  0  0  0  0  0  0  0  0
  -28.8119  -13.6134   20.6597 C   0  0  0  0  0  0  0  0  0  0  0  0
  -23.6758  -18.6320   22.1815 C   0  0  0  0  0  0  0  0  0  0  0  0
  -28.2724  -14.9131   20.7045 C   0  0  0  0  0  0  0  0  0  0  0  0
  -21.1284  -26.4779   20.5394 C   0  0  0  0  0  0  0  0  0  0  0  0
  -22.8561  -18.9582   21.0916 C   0  0  0  0  0  0  0  0  0  0  0  0
  -28.4336  -26.7740   19.4094 C   0  0  0  0  0  0  0  0  0  0  0  0
  -23.1921  -21.3196   21.5616 C   0  0  0  0  0  0  0  0  0  0  0  0
  -29.0854  -24.5452   19.0492 C   0  0  0  0  0  0  0  0  0  0  0  0
  -28.4897  -21.8234   19.1893 C   0  0  0  0  0  0  0  0  0  0  0  0
  -29.0790  -23.7720   17.8882 C   0  0  0  0  0  0  0  0  0  0  0  0
  -25.4854  -29.5015   20.7386 C   0  0  0  0  0  0  0  0  0  0  0  0
  -22.0175  -24.3620   19.9162 C   0  0  0  0  0  0  0  0  0  0  0  0
  -24.1036  -31.2018   20.9247 C   0  0  0  0  0  0  0  0  0  0  0  0
  -25.5216  -31.2654   18.8671 C   0  0  0  0  0  0  0  0  0  0  0  0
  -24.8574  -16.2882   20.3886 C   0  0  0  0  0  0  0  0  0  0  0  0
  -21.7401  -15.4218   20.1552 C   0  0  0  0  0  0  0  0  0  0  0  0
  -18.4578  -16.3437   20.3064 C   0  0  0  0  0  0  0  0  0  0  0  0
  -20.3888  -28.8795   24.8449 C   0  0  0  0  0  0  0  0  0  0  0  0
  -28.2865  -12.5687   19.7072 C   0  0  0  0  0  0  0  0  0  0  0  0
  -23.9205  -17.1936   22.5469 C   0  0  0  0  0  0  0  0  0  0  0  0
  -22.2207  -17.8974   20.2317 C   0  0  0  0  0  0  0  0  0  0  0  0
  -26.9010  -12.8912   19.1534 C   0  0  0  0  0  0  0  0  0  0  0  0
  -17.9328  -27.8352   22.2776 C   0  0  0  0  0  0  0  0  0  0  0  0
  -22.7541  -31.3275   25.5083 C   0  0  0  0  0  0  0  0  0  0  0  0
  -18.7739  -26.9564   21.3529 C   0  0  0  0  0  0  0  0  0  0  0  0
  -26.8359  -14.3431   18.6903 C   0  0  0  0  0  0  0  0  0  0  0  0
  -23.6933  -31.2627   24.3040 C   0  0  0  0  0  0  0  0  0  0  0  0
  -18.4657  -27.8282   23.7074 C   0  0  0  0  0  0  0  0  0  0  0  0
  -22.3389  -29.9298   25.9532 C   0  0  0  0  0  0  0  0  0  0  0  0
  -20.7438  -27.3160   22.8913 C   0  0  0  0  0  0  0  0  0  0  0  0
  -22.6261  -29.0464   23.6610 C   0  0  0  0  0  0  0  0  0  0  0  0
  -20.2607  -27.3436   21.4334 C   0  0  1  0  0  0  0  0  0  0  0  0
  -27.0811  -15.3062   19.8580 C   0  0  1  0  0  0  0  0  0  0  0  0
  -23.7245  -16.2375   21.3743 C   0  0  1  0  0  0  0  0  0  0  0  0
  -23.0722  -30.4359   23.1647 C   0  0  2  0  0  0  0  0  0  0  0  0
  -16.1388  -15.4243   20.0331 C   0  0  0  0  0  0  0  0  0  0  0  0
  -22.0893  -15.4487   17.1241 C   0  0  0  0  0  0  0  0  0  0  0  0
  -19.5952  -15.4700   16.9069 C   0  0  0  0  0  0  0  0  0  0  0  0
  -20.7337  -13.5389   18.0011 C   0  0  0  0  0  0  0  0  0  0  0  0
  -17.7475  -16.9871   23.1065 C   0  0  0  0  0  0  0  0  0  0  0  0
  -22.1299  -22.8885   20.1242 C   0  0  0  0  0  0  0  0  0  1  0  0
  -20.6060  -15.7528   19.2154 C   0  0  1  0  0  0  0  0  0  0  0  0
  -17.2670  -15.7176   21.0097 C   0  0  2  0  0  0  0  0  0  0  0  0
  -20.7695  -15.0728   17.8267 C   0  0  0  0  0  0  0  0  0  0  0  0
  -22.7284  -24.8845   18.8918 N   0  0  0  0  0  0  0  0  0  0  0  0
  -24.8339  -29.2794   21.8832 N   0  0  0  0  0  0  0  0  0  0  0  0
  -24.0008  -30.3305   21.9689 N   0  0  0  0  0  0  0  0  0  0  0  0
  -22.4949  -16.5056   20.6258 N   0  0  0  0  0  0  0  0  0  0  0  0
  -19.8919  -28.1521   23.7508 N   0  0  0  0  0  0  0  0  0  0  0  0
  -21.7612  -29.1714   24.8436 N   0  0  0  0  0  0  0  0  0  0  0  0
  -23.3389  -32.3120   20.8526 N   0  0  0  0  0  0  0  0  0  0  0  0
  -26.5230  -30.6037   18.1433 N   0  0  0  0  0  0  0  0  0  0  0  0
  -25.8934  -15.4205   20.6770 N   0  0  0  0  0  0  0  0  0  0  0  0
  -19.3776  -15.3937   19.9157 N   0  0  0  0  0  0  0  0  0  0  0  0
  -16.7488  -16.6332   22.0652 N   0  3  0  0  0  0  0  0  0  0  0  0
  -25.0615  -32.3474   18.4301 O   0  0  0  0  0  0  0  0  0  0  0  0
  -24.7954  -17.0566   19.4360 O   0  0  0  0  0  0  0  0  0  0  0  0
  -21.9443  -14.2457   20.4660 O   0  0  0  0  0  0  0  0  0  0  0  0
  -18.5598  -17.5540   20.1187 O   0  0  0  0  0  0  0  0  0  0  0  0
  -19.6487  -29.2485   25.7653 O   0  0  0  0  0  0  0  0  0  0  0  0
  -29.3817  -25.8962   18.9814 O   0  0  0  0  0  0  0  0  0  0  0  0
  -22.9570  -22.6338   21.2526 O   0  0  0  0  0  0  0  0  0  1  0  0
  -28.2052  -20.5163   19.2568 F   0  0  0  0  0  0  0  0  0  0  0  0
  -29.3593  -24.3308   16.7029 F   0  0  0  0  0  0  0  0  0  0  0  0
  1  2  1  0  0  0  0
  1  5  2  0  0  0  0
  2  6  2  0  0  0  0
  3  8  2  0  0  0  0
  3 18  1  0  0  0  0
  4  9  1  0  0  0  0
  4 18  2  0  0  0  0
  5 20  1  0  0  0  0
  6 22  1  0  0  0  0
  7 10  2  0  0  0  0
  7 21  1  0  0  0  0
  8 25  1  0  0  0  0
  9 25  2  0  0  0  0
 10 26  1  0  0  0  0
 11 12  2  0  0  0  0
 11 27  1  0  0  0  0
 12 28  1  0  0  0  0
 13 17  2  0  0  0  0
 13 23  1  0  0  0  0
 14 24  1  0  0  0  0
 14 26  2  0  0  0  0
 15 23  2  0  0  0  0
 15 31  1  0  0  0  0
 16 28  2  0  0  0  0
 16 29  1  0  0  0  0
 17 64  1  0  0  0  0
 18 30  1  0  0  0  0
 19 30  1  0  0  0  0
 19 32  2  0  0  0  0
 19 33  1  0  0  0  0
 20 22  2  0  0  0  0
 20 38  1  0  0  0  0
 21 24  2  0  0  0  0
 21 39  1  0  0  0  0
 22 52  1  0  0  0  0
 23 51  1  0  0  0  0
 24 40  1  0  0  0  0
 25 80  1  0  0  0  0
 26 81  1  0  0  0  0
 27 29  2  0  0  0  0
 27 80  1  0  0  0  0
 28 82  1  0  0  0  0
 29 83  1  0  0  0  0
 30 65  2  0  0  0  0
 31 60  1  0  0  0  0
 31 64  2  0  0  0  0
 32 66  1  0  0  0  0
 32 70  1  0  0  0  0
 33 71  1  0  0  0  0
 33 75  2  0  0  0  0
 34 53  1  0  0  0  0
 34 72  1  0  0  0  0
 34 76  2  0  0  0  0
 35 61  1  0  0  0  0
 35 67  1  0  0  0  0
 35 77  2  0  0  0  0
 36 62  1  0  0  0  0
 36 73  1  0  0  0  0
 36 78  2  0  0  0  0
 37 68  1  0  0  0  0
 37 69  1  0  0  0  0
 37 79  2  0  0  0  0
 38 41  1  0  0  0  0
 39 53  1  0  0  0  0
 40 67  1  0  0  0  0
 41 45  1  0  0  0  0
 42 44  1  0  0  0  0
 42 47  1  0  0  0  0
 43 46  1  0  0  0  0
 43 48  1  0  0  0  0
 44 51  1  0  0  0  0
 45 52  1  0  0  0  0
 46 54  1  0  0  0  0
 47 68  1  0  0  0  0
 48 69  1  0  0  0  0
 49 51  1  0  0  0  0
 49 68  1  0  0  0  0
 50 54  1  0  0  0  0
 50 69  1  0  0  0  0
 52 72  1  0  0  0  0
 53 67  1  0  0  0  0
 54 66  1  0  0  0  0
 55 62  1  0  0  0  0
 56 63  1  0  0  0  0
 57 63  1  0  0  0  0
 58 63  1  0  0  0  0
 59 74  1  0  0  0  0
 60 81  1  0  0  0  0
 61 63  1  0  0  0  0
 61 73  1  0  0  0  0
 62 74  1  0  0  0  0
 65 66  1  0  0  0  0
M  CHG  1  74   1
M  ISO  4  37 100  60 101  68 100  81 101
M  END
> <Batch ID>
0130

> <Smiles>
CNC(C)C(=O)NC(C(=O)N1Cc2cc([101O:1][101CH2:1]c3cc(C4CCC[100N:0]([100C:0](=O)N5CCCC(n6nc(-c7ccc(Oc8ccc(F)cc8F)cc7)c(C(N)=O)c6N)C5)C4)ccn3)ccc2CC1C(=O)NC1CCCc2ccccc21)C(C)(C)C

> <Shape>
0.224

> <Color>
0.072

> <Negative vol penalty>
0.000

$$$$

  -OEChem-04052320473D

 86 95  0     1  0  0  0  0  0999 V2000
  -16.6619  -29.0581   24.0327 C   0  0  0  0  0  0  0  0  0  0  0  0
  -17.2555  -28.2404   23.0765 C   0  0  0  0  0  0  0  0  0  0  0  0
  -26.1099  -13.0304   21.2425 C   0  0  0  0  0  0  0  0  0  0  0  0
  -25.8917  -13.7099   18.9343 C   0  0  0  0  0  0  0  0  0  0  0  0
  -17.2262  -30.2963   24.3367 C   0  0  0  0  0  0  0  0  0  0  0  0
  -18.4133  -28.6608   22.4229 C   0  0  0  0  0  0  0  0  0  0  0  0
  -21.9062  -25.0071   22.1152 C   0  0  0  0  0  0  0  0  0  0  0  0
  -23.7474  -19.9465   18.1212 C   0  0  0  0  0  0  0  0  0  0  0  0
  -24.8357  -13.5307   21.5102 C   0  0  0  0  0  0  0  0  0  0  0  0
  -24.6175  -14.2102   19.2020 C   0  0  0  0  0  0  0  0  0  0  0  0
  -21.7197  -24.0285   21.1399 C   0  0  0  0  0  0  0  0  0  0  0  0
  -21.7832  -14.9532   22.8823 C   0  0  0  0  0  0  0  0  0  0  0  0
  -21.6141  -15.7167   24.0373 C   0  0  0  0  0  0  0  0  0  0  0  0
  -22.9017  -21.0484   18.0572 C   0  0  0  0  0  0  0  0  0  0  0  0
  -23.3068  -25.1550   19.7147 C   0  0  0  0  0  0  0  0  0  0  0  0
  -23.2382  -17.3090   23.2224 C   0  0  0  0  0  0  0  0  0  0  0  0
  -26.6379  -13.1200   19.9545 C   0  0  0  0  0  0  0  0  0  0  0  0
  -28.2863  -11.3004   19.2621 C   0  0  0  0  0  0  0  0  0  0  0  0
  -18.3970  -30.7279   23.6935 C   0  0  0  0  0  0  0  0  0  0  0  0
  -22.7877  -26.0748   21.8928 C   0  0  0  0  0  0  0  0  0  0  0  0
  -18.9931  -29.9065   22.7177 C   0  0  0  0  0  0  0  0  0  0  0  0
  -23.5046  -26.1445   20.6898 C   0  0  0  0  0  0  0  0  0  0  0  0
  -24.7068  -19.8707   19.1248 C   0  0  0  0  0  0  0  0  0  0  0  0
  -24.0895  -14.1206   20.4900 C   0  0  0  0  0  0  0  0  0  0  0  0
  -22.4179  -24.1039   19.9382 C   0  0  0  0  0  0  0  0  0  0  0  0
  -22.6798  -15.3675   21.8973 C   0  0  0  0  0  0  0  0  0  0  0  0
  -22.3416  -16.8946   24.2073 C   0  0  0  0  0  0  0  0  0  0  0  0
  -23.4073  -16.5454   22.0674 C   0  0  0  0  0  0  0  0  0  0  0  0
  -27.9543  -12.6039   19.6774 C   0  0  0  0  0  0  0  0  0  0  0  0
  -24.7792  -20.9148   20.0329 C   0  0  0  0  0  0  0  0  0  0  0  0
  -23.0549  -22.0398   19.0130 C   0  0  0  0  0  0  0  0  0  1  0  0
  -29.6540  -11.3177   19.1371 C   0  0  0  0  0  0  0  0  0  0  0  0
  -27.4345  -10.1746   19.0116 C   0  0  0  0  0  0  0  0  0  0  0  0
  -22.4843  -29.2337   21.7116 C   0  0  0  0  0  0  0  0  0  0  0  0
  -25.7220  -29.1440   21.5353 C   0  0  0  0  0  0  0  0  0  0  0  0
  -28.5332  -27.3719   20.7583 C   0  0  0  0  0  0  0  0  0  0  0  0
  -30.5287  -16.6551   20.2356 C   0  0  0  0  0  0  0  0  0  0  0  0
  -18.9436  -32.0948   24.0215 C   0  0  0  0  0  0  0  0  0  0  0  0
  -22.9978  -27.1078   22.9657 C   0  0  0  0  0  0  0  0  0  0  0  0
  -24.4779  -27.2594   20.4101 C   0  0  0  0  0  0  0  0  0  0  0  0
  -20.3815  -32.3041   23.5536 C   0  0  0  0  0  0  0  0  0  0  0  0
  -31.8200  -13.7888   21.9337 C   0  0  0  0  0  0  0  0  0  0  0  0
  -31.2390  -18.8926   17.4718 C   0  0  0  0  0  0  0  0  0  0  0  0
  -20.5517  -31.8187   22.1175 C   0  0  0  0  0  0  0  0  0  0  0  0
  -32.1684  -12.8018   20.8251 C   0  0  0  0  0  0  0  0  0  0  0  0
  -29.7380  -19.1201   17.5825 C   0  0  0  0  0  0  0  0  0  0  0  0
  -32.0963  -15.2160   21.4869 C   0  0  0  0  0  0  0  0  0  0  0  0
  -31.3984  -17.4704   17.9866 C   0  0  0  0  0  0  0  0  0  0  0  0
  -31.5956  -14.6259   19.1232 C   0  0  0  0  0  0  0  0  0  0  0  0
  -20.2635  -30.3168   22.0050 C   0  0  1  0  0  0  0  0  0  0  0  0
  -23.5340  -28.4299   22.4254 C   0  0  1  0  0  0  0  0  0  0  0  0
  -31.4639  -13.1319   19.4994 C   0  0  2  0  0  0  0  0  0  0  0  0
  -29.3685  -18.4009   18.8828 C   0  0  1  0  0  0  0  0  0  0  0  0
  -25.7909  -20.8871   21.1313 C   0  0  0  0  0  0  0  0  0  0  0  0
  -31.0331  -27.5775   20.6816 C   0  0  0  0  0  0  0  0  0  0  0  0
  -27.7311  -16.9165   17.6621 C   0  0  0  0  0  0  0  0  0  0  0  0
  -25.5045  -30.8078   18.9869 C   0  0  0  0  0  0  0  0  0  0  0  0
  -27.8695  -30.1793   18.4578 C   0  0  0  0  0  0  0  0  0  0  0  0
  -27.3598  -31.4862   20.5206 C   0  0  0  0  0  0  0  0  0  0  0  0
  -28.8893  -25.1865   22.7220 C   0  0  0  0  0  0  0  0  0  0  0  0
  -25.6246  -18.6861   19.1969 C   0  0  0  0  0  0  0  0  0  0  0  0
  -26.7293  -29.0401   20.4157 C   0  0  1  0  0  0  0  0  0  0  0  0
  -29.8318  -27.1600   21.5154 C   0  0  2  0  0  0  0  0  0  0  0  0
  -27.9502  -17.8465   18.8431 C   0  0  2  0  0  0  0  0  0  0  0  0
  -26.8461  -30.3582   19.5994 C   0  0  0  0  0  0  0  0  0  0  0  0
  -29.0249  -13.3919   19.8077 N   0  0  0  0  0  0  0  0  0  0  0  0
  -23.9751  -22.0012   20.0026 N   0  0  0  0  0  0  0  0  0  0  0  0
  -30.0429  -12.5812   19.4724 N   0  0  0  0  0  0  0  0  0  0  0  0
  -24.6440  -28.2487   21.4877 N   0  0  0  0  0  0  0  0  0  0  0  0
  -31.3905  -15.5483   20.2493 N   0  0  0  0  0  0  0  0  0  0  0  0
  -30.3816  -17.3493   19.0325 N   0  0  0  0  0  0  0  0  0  0  0  0
  -30.5498  -10.3752   18.7742 N   0  0  0  0  0  0  0  0  0  0  0  0
  -26.0529  -10.3296   19.1887 N   0  0  0  0  0  0  0  0  0  0  0  0
  -21.3887  -29.5484   22.4928 N   0  0  0  0  0  0  0  0  0  0  0  0
  -27.9790  -28.6049   21.0299 N   0  0  0  0  0  0  0  0  0  0  0  0
  -29.9898  -25.7239   21.8811 N   0  3  0  0  0  0  0  0  0  0  0  0
  -27.0034  -18.9882   18.7301 N   0  3  0  0  0  0  0  0  0  0  0  0
  -27.8867   -9.0594   18.6577 O   0  0  0  0  0  0  0  0  0  0  0  0
  -22.6562  -29.5466   20.5393 O   0  0  0  0  0  0  0  0  0  0  0  0
  -25.8894  -29.9835   22.4234 O   0  0  0  0  0  0  0  0  0  0  0  0
  -28.0599  -26.5295   19.9987 O   0  0  0  0  0  0  0  0  0  0  0  0
  -29.9250  -17.0138   21.2554 O   0  0  0  0  0  0  0  0  0  0  0  0
  -22.8460  -14.6087   20.7509 O   0  0  0  0  0  0  0  0  0  0  0  0
  -22.2346  -23.1366   18.9705 O   0  0  0  0  0  0  0  0  0  1  0  0
  -22.1780  -17.6285   25.3158 F   0  0  0  0  0  0  0  0  0  0  0  0
  -24.2693  -16.9492   21.1241 F   0  0  0  0  0  0  0  0  0  0  0  0
  1  2  1  0  0  0  0
  1  5  2  0  0  0  0
  2  6  2  0  0  0  0
  3  9  2  0  0  0  0
  3 17  1  0  0  0  0
  4 10  1  0  0  0  0
  4 17  2  0  0  0  0
  5 19  1  0  0  0  0
  6 21  1  0  0  0  0
  7 11  2  0  0  0  0
  7 20  1  0  0  0  0
  8 14  2  0  0  0  0
  8 23  1  0  0  0  0
  9 24  1  0  0  0  0
 10 24  2  0  0  0  0
 11 25  1  0  0  0  0
 12 13  2  0  0  0  0
 12 26  1  0  0  0  0
 13 27  1  0  0  0  0
 14 31  1  0  0  0  0
 15 22  1  0  0  0  0
 15 25  2  0  0  0  0
 16 27  2  0  0  0  0
 16 28  1  0  0  0  0
 17 29  1  0  0  0  0
 18 29  1  0  0  0  0
 18 32  2  0  0  0  0
 18 33  1  0  0  0  0
 19 21  2  0  0  0  0
 19 38  1  0  0  0  0
 20 22  2  0  0  0  0
 20 39  1  0  0  0  0
 21 50  1  0  0  0  0
 22 40  1  0  0  0  0
 23 30  2  0  0  0  0
 23 61  1  0  0  0  0
 24 83  1  0  0  0  0
 25 84  1  0  0  0  0
 26 28  2  0  0  0  0
 26 83  1  0  0  0  0
 27 85  1  0  0  0  0
 28 86  1  0  0  0  0
 29 66  2  0  0  0  0
 30 54  1  0  0  0  0
 30 67  1  0  0  0  0
 31 67  2  0  0  0  0
 31 84  1  0  0  0  0
 32 68  1  0  0  0  0
 32 72  1  0  0  0  0
 33 73  1  0  0  0  0
 33 78  2  0  0  0  0
 34 51  1  0  0  0  0
 34 74  1  0  0  0  0
 34 79  2  0  0  0  0
 35 62  1  0  0  0  0
 35 69  1  0  0  0  0
 35 80  2  0  0  0  0
 36 63  1  0  0  0  0
 36 75  1  0  0  0  0
 36 81  2  0  0  0  0
 37 70  1  0  0  0  0
 37 71  1  0  0  0  0
 37 82  2  0  0  0  0
 38 41  1  0  0  0  0
 39 51  1  0  0  0  0
 40 69  1  0  0  0  0
 41 44  1  0  0  0  0
 42 45  1  0  0  0  0
 42 47  1  0  0  0  0
 43 46  1  0  0  0  0
 43 48  1  0  0  0  0
 44 50  1  0  0  0  0
 45 52  1  0  0  0  0
 46 53  1  0  0  0  0
 47 70  1  0  0  0  0
 48 71  1  0  0  0  0
 49 52  1  0  0  0  0
 49 70  1  0  0  0  0
 50 74  1  0  0  0  0
 51 69  1  0  0  0  0
 52 68  1  0  0  0  0
 53 64  1  0  0  0  0
 53 71  1  0  0  0  0
 55 63  1  0  0  0  0
 56 64  1  0  0  0  0
 57 65  1  0  0  0  0
 58 65  1  0  0  0  0
 59 65  1  0  0  0  0
 60 76  1  0  0  0  0
 61 77  1  0  0  0  0
 62 65  1  0  0  0  0
 62 75  1  0  0  0  0
 63 76  1  0  0  0  0
 64 77  1  0  0  0  0
 66 68  1  0  0  0  0
M  CHG  2  76   1  77   1
M  ISO  4  31 101  37 100  71 100  84 101
M  END
> <Batch ID>
0130

> <Smiles>
CNC(C)C(=O)NC(C(=O)N1Cc2cc([101O:1][101c:1]3ccc(CNC(C)C4CCC[100N:0]4[100C:0](=O)N4CCCC(n5nc(-c6ccc(Oc7ccc(F)cc7F)cc6)c(C(N)=O)c5N)C4)c(C)n3)ccc2CC1C(=O)NC1CCCc2ccccc21)C(C)(C)C

> <Shape>
0.245

> <Color>
0.091

> <Negative vol penalty>
0.000

$$$$

  -OEChem-04052320473D

 88 98  0     1  0  0  0  0  0999 V2000
  -27.8002  -36.7641   23.4354 C   0  0  0  0  0  0  0  0  0  0  0  0
  -28.2686  -35.5165   23.0359 C   0  0  0  0  0  0  0  0  0  0  0  0
  -25.9642  -10.0178   23.2164 C   0  0  0  0  0  0  0  0  0  0  0  0
  -25.4531   -8.5833   21.3407 C   0  0  0  0  0  0  0  0  0  0  0  0
  -26.5644  -36.8724   24.0716 C   0  0  0  0  0  0  0  0  0  0  0  0
  -27.5018  -34.3763   23.2734 C   0  0  0  0  0  0  0  0  0  0  0  0
  -27.0821  -29.4137   19.7094 C   0  0  0  0  0  0  0  0  0  0  0  0
  -25.3990   -9.0838   24.0847 C   0  0  0  0  0  0  0  0  0  0  0  0
  -24.8880   -7.6493   22.2090 C   0  0  0  0  0  0  0  0  0  0  0  0
  -27.7032  -28.1666   19.7610 C   0  0  0  0  0  0  0  0  0  0  0  0
  -21.9795   -7.2469   23.8852 C   0  0  0  0  0  0  0  0  0  0  0  0
  -20.7545   -6.6855   23.5250 C   0  0  0  0  0  0  0  0  0  0  0  0
  -25.7903  -27.2689   20.9249 C   0  0  0  0  0  0  0  0  0  0  0  0
  -27.3948  -22.3505   20.5053 C   0  0  0  0  0  0  0  0  0  0  0  0
  -21.7590   -4.4882   23.5337 C   0  0  0  0  0  0  0  0  0  0  0  0
  -25.9912   -9.7676   21.8444 C   0  0  0  0  0  0  0  0  0  0  0  0
  -27.9167  -10.8010   20.5283 C   0  0  0  0  0  0  0  0  0  0  0  0
  -25.7776  -35.7342   24.3084 C   0  0  0  0  0  0  0  0  0  0  0  0
  -25.8130  -29.6009   20.2757 C   0  0  0  0  0  0  0  0  0  0  0  0
  -26.2548  -34.4694   23.9146 C   0  0  0  0  0  0  0  0  0  0  0  0
  -25.1542  -28.5188   20.8768 C   0  0  0  0  0  0  0  0  0  0  0  0
  -27.7499  -23.5896   21.0932 C   0  0  0  0  0  0  0  0  0  0  0  0
  -24.8609   -7.8996   23.5810 C   0  0  0  0  0  0  0  0  0  0  0  0
  -27.0585  -27.0947   20.3714 C   0  0  0  0  0  0  0  0  0  0  0  0
  -23.0943   -6.4291   24.0696 C   0  0  0  0  0  0  0  0  0  0  0  0
  -20.6443   -5.3061   23.3493 C   0  0  0  0  0  0  0  0  0  0  0  0
  -22.9841   -5.0497   23.8939 C   0  0  0  0  0  0  0  0  0  0  0  0
  -26.5744  -10.7322   20.9469 C   0  0  0  0  0  0  0  0  0  0  0  0
  -28.4204  -21.4664   20.7580 C   0  0  0  0  0  0  0  0  0  0  0  0
  -28.9818  -23.4250   21.6871 C   0  0  0  0  0  0  0  0  0  0  0  0
  -27.9587  -11.8854   19.6864 C   0  0  0  0  0  0  0  0  0  0  0  0
  -29.0264   -9.9598   20.8698 C   0  0  0  0  0  0  0  0  0  0  0  0
  -24.6450  -31.4078   22.6154 C   0  0  0  0  0  0  0  0  0  0  0  0
  -21.8057  -30.2270   21.5825 C   0  0  0  0  0  0  0  0  0  0  0  0
  -20.1185  -27.7418   19.9626 C   0  0  0  0  0  0  0  0  0  0  0  0
  -26.6474  -17.0232   18.3070 C   0  0  0  0  0  0  0  0  0  0  0  0
  -24.4697  -35.8954   25.0419 C   0  0  0  0  0  0  0  0  0  0  0  0
  -25.1452  -30.9458   20.1880 C   0  0  0  0  0  0  0  0  0  0  0  0
  -23.7824  -28.6624   21.4817 C   0  0  0  0  0  0  0  0  0  0  0  0
  -23.5497  -34.6834   24.9203 C   0  0  0  0  0  0  0  0  0  0  0  0
  -24.2399  -14.6312   17.6509 C   0  0  0  0  0  0  0  0  0  0  0  0
  -24.3276  -33.3954   25.1709 C   0  0  0  0  0  0  0  0  0  0  0  0
  -30.2003  -24.2153   23.8695 C   0  0  0  0  0  0  0  0  0  0  0  0
  -29.1028  -25.2003   23.6127 C   0  0  0  0  0  0  0  0  0  0  0  0
  -24.7337  -13.4006   18.4111 C   0  0  0  0  0  0  0  0  0  0  0  0
  -27.4710  -19.1285   20.9916 C   0  0  0  0  0  0  0  0  0  0  0  0
  -28.6009  -19.8247   18.8357 C   0  0  0  0  0  0  0  0  0  0  0  0
  -24.4474  -15.8990   18.4713 C   0  0  0  0  0  0  0  0  0  0  0  0
  -27.6054  -17.6643   20.5636 C   0  0  0  0  0  0  0  0  0  0  0  0
  -28.7319  -18.3486   18.4718 C   0  0  0  0  0  0  0  0  0  0  0  0
  -26.3714  -14.8952   19.6582 C   0  0  0  0  0  0  0  0  0  0  0  0
  -25.4408  -33.2123   24.1323 C   0  0  1  0  0  0  0  0  0  0  0  0
  -28.5666  -20.0087   20.3637 C   0  0  0  0  0  0  0  0  0  0  0  0
  -29.7663  -24.4981   22.4464 C   0  0  0  0  0  0  0  0  0  0  0  0
  -24.0704  -31.1496   21.2513 C   0  0  1  0  0  0  0  0  0  0  0  0
  -26.1916  -13.5820   18.8696 C   0  0  1  0  0  0  0  0  0  0  0  0
  -17.8006  -27.0357   19.3101 C   0  0  0  0  0  0  0  0  0  0  0  0
  -31.5242  -21.1189   20.7912 C   0  0  0  0  0  0  0  0  0  0  0  0
  -30.3913  -20.4242   22.9453 C   0  0  0  0  0  0  0  0  0  0  0  0
  -21.2645  -29.3566   24.4564 C   0  0  0  0  0  0  0  0  0  0  0  0
  -19.4510  -27.8643   23.5893 C   0  0  0  0  0  0  0  0  0  0  0  0
  -19.2898  -30.3334   23.2728 C   0  0  0  0  0  0  0  0  0  0  0  0
  -20.7795  -27.8257   17.0790 C   0  0  0  0  0  0  0  0  0  0  0  0
  -26.9389  -24.8235   21.0668 C   0  0  0  0  0  0  0  0  0  1  0  0
  -20.9669  -29.0165   21.9144 C   0  0  1  0  0  0  0  0  0  0  0  0
  -19.0523  -27.7862   18.8829 C   0  0  2  0  0  0  0  0  0  0  0  0
  -30.6238  -21.5598   21.9469 C   0  0  0  0  0  0  0  0  0  0  0  0
  -20.2697  -29.1401   23.2987 C   0  0  0  0  0  0  0  0  0  0  0  0
  -25.8183  -11.6963   20.4150 N   0  0  0  0  0  0  0  0  0  0  0  0
  -29.3798  -22.1306   21.4767 N   0  0  0  0  0  0  0  0  0  0  0  0
  -26.6885  -12.3812   19.6535 N   0  0  0  0  0  0  0  0  0  0  0  0
  -23.1737  -29.9988   21.3765 N   0  0  0  0  0  0  0  0  0  0  0  0
  -25.8425  -16.0332   18.8904 N   0  0  0  0  0  0  0  0  0  0  0  0
  -27.6753  -17.5558   19.0997 N   0  0  0  0  0  0  0  0  0  0  0  0
  -28.9578  -12.4538   18.9786 N   0  0  0  0  0  0  0  0  0  0  0  0
  -28.8082   -8.8899   21.7484 N   0  0  0  0  0  0  0  0  0  0  0  0
  -24.8906  -32.7418   22.8793 N   0  0  0  0  0  0  0  0  0  0  0  0
  -20.0473  -28.8380   20.7960 N   0  0  0  0  0  0  0  0  0  0  0  0
  -19.5629  -27.1711   17.6251 N   0  3  0  0  0  0  0  0  0  0  0  0
  -30.1809  -10.1611   20.4223 O   0  0  0  0  0  0  0  0  0  0  0  0
  -24.8489  -30.4665   23.3731 O   0  0  0  0  0  0  0  0  0  0  0  0
  -21.2658  -31.3332   21.5018 O   0  0  0  0  0  0  0  0  0  0  0  0
  -20.9308  -26.8245   20.0593 O   0  0  0  0  0  0  0  0  0  0  0  0
  -26.4600  -17.4086   17.1462 O   0  0  0  0  0  0  0  0  0  0  0  0
  -24.3096   -6.9879   24.4280 O   0  0  0  0  0  0  0  0  0  0  0  0
  -27.6659  -25.8700   20.4240 O   0  0  0  0  0  0  0  0  0  1  0  0
  -19.4675   -4.7669   23.0049 F   0  0  0  0  0  0  0  0  0  0  0  0
  -24.0513   -4.2587   24.0708 F   0  0  0  0  0  0  0  0  0  0  0  0
  1  2  1  0  0  0  0
  1  5  2  0  0  0  0
  2  6  2  0  0  0  0
  3  8  2  0  0  0  0
  3 16  1  0  0  0  0
  4  9  1  0  0  0  0
  4 16  2  0  0  0  0
  5 18  1  0  0  0  0
  6 20  1  0  0  0  0
  7 10  2  0  0  0  0
  7 19  1  0  0  0  0
  8 23  1  0  0  0  0
  9 23  2  0  0  0  0
 10 24  1  0  0  0  0
 11 12  2  0  0  0  0
 11 25  1  0  0  0  0
 12 26  1  0  0  0  0
 13 21  1  0  0  0  0
 13 24  2  0  0  0  0
 14 22  1  0  0  0  0
 14 29  2  0  0  0  0
 15 26  2  0  0  0  0
 15 27  1  0  0  0  0
 16 28  1  0  0  0  0
 17 28  1  0  0  0  0
 17 31  2  0  0  0  0
 17 32  1  0  0  0  0
 18 20  2  0  0  0  0
 18 37  1  0  0  0  0
 19 21  2  0  0  0  0
 19 38  1  0  0  0  0
 20 52  1  0  0  0  0
 21 39  1  0  0  0  0
 22 30  2  0  0  0  0
 22 64  1  0  0  0  0
 23 85  1  0  0  0  0
 24 86  1  0  0  0  0
 25 27  2  0  0  0  0
 25 85  1  0  0  0  0
 26 87  1  0  0  0  0
 27 88  1  0  0  0  0
 28 69  2  0  0  0  0
 29 53  1  0  0  0  0
 29 70  1  0  0  0  0
 30 54  1  0  0  0  0
 30 70  1  0  0  0  0
 31 71  1  0  0  0  0
 31 75  1  0  0  0  0
 32 76  1  0  0  0  0
 32 80  2  0  0  0  0
 33 55  1  0  0  0  0
 33 77  1  0  0  0  0
 33 81  2  0  0  0  0
 34 65  1  0  0  0  0
 34 72  1  0  0  0  0
 34 82  2  0  0  0  0
 35 66  1  0  0  0  0
 35 78  1  0  0  0  0
 35 83  2  0  0  0  0
 36 73  1  0  0  0  0
 36 74  1  0  0  0  0
 36 84  2  0  0  0  0
 37 40  1  0  0  0  0
 38 55  1  0  0  0  0
 39 72  1  0  0  0  0
 40 42  1  0  0  0  0
 41 45  1  0  0  0  0
 41 48  1  0  0  0  0
 42 52  1  0  0  0  0
 43 44  1  0  0  0  0
 43 54  1  0  0  0  0
 44 54  1  0  0  0  0
 45 56  1  0  0  0  0
 46 49  1  0  0  0  0
 46 53  1  0  0  0  0
 47 50  1  0  0  0  0
 47 53  1  0  0  0  0
 48 73  1  0  0  0  0
 49 74  1  0  0  0  0
 50 74  1  0  0  0  0
 51 56  1  0  0  0  0
 51 73  1  0  0  0  0
 52 77  1  0  0  0  0
 55 72  1  0  0  0  0
 56 71  1  0  0  0  0
 57 66  1  0  0  0  0
 58 67  1  0  0  0  0
 59 67  1  0  0  0  0
 60 68  1  0  0  0  0
 61 68  1  0  0  0  0
 62 68  1  0  0  0  0
 63 79  1  0  0  0  0
 64 86  1  0  0  0  0
 65 68  1  0  0  0  0
 65 78  1  0  0  0  0
 66 79  1  0  0  0  0
 67 70  1  0  0  0  0
 69 71  1  0  0  0  0
M  CHG  1  79   1
M  ISO  4  36 100  64 101  74 100  86 101
M  END
> <Batch ID>
0130

> <Smiles>
CNC(C)C(=O)NC(C(=O)N1Cc2cc([101O:1][101CH2:1]c3cc(C4CC[100N:0]([100C:0](=O)N5CCCC(n6nc(-c7ccc(Oc8ccc(F)cc8F)cc7)c(C(N)=O)c6N)C5)CC4)n(C(C)C)c3C3CC3)ccc2CC1C(=O)NC1CCCc2ccccc21)C(C)(C)C

> <Shape>
0.294

> <Color>
0.069

> <Negative vol penalty>
0.000

$$$$

  -OEChem-04052320473D

 86 95  0     1  0  0  0  0  0999 V2000
  -16.7840  -30.7281   23.1677 C   0  0  0  0  0  0  0  0  0  0  0  0
  -17.9673  -31.4020   23.4524 C   0  0  0  0  0  0  0  0  0  0  0  0
  -25.0095  -13.3890   19.6665 C   0  0  0  0  0  0  0  0  0  0  0  0
  -26.4168  -13.5799   21.6210 C   0  0  0  0  0  0  0  0  0  0  0  0
  -16.7980  -29.3469   22.9783 C   0  0  0  0  0  0  0  0  0  0  0  0
  -19.1652  -30.6948   23.5489 C   0  0  0  0  0  0  0  0  0  0  0  0
  -24.7512  -32.2621   19.2791 C   0  0  0  0  0  0  0  0  0  0  0  0
  -24.8784  -12.0192   19.8947 C   0  0  0  0  0  0  0  0  0  0  0  0
  -26.2857  -12.2101   21.8492 C   0  0  0  0  0  0  0  0  0  0  0  0
  -25.9342  -32.6407   18.6439 C   0  0  0  0  0  0  0  0  0  0  0  0
  -23.8790   -8.5347   20.1683 C   0  0  0  0  0  0  0  0  0  0  0  0
  -30.3925  -31.2441   17.7806 C   0  0  0  0  0  0  0  0  0  0  0  0
  -22.6047   -7.9782   20.0595 C   0  0  0  0  0  0  0  0  0  0  0  0
  -31.1282  -30.2358   17.1680 C   0  0  0  0  0  0  0  0  0  0  0  0
  -27.0951  -30.7888   19.6784 C   0  0  0  0  0  0  0  0  0  0  0  0
  -21.8184   -9.4343   21.8197 C   0  0  0  0  0  0  0  0  0  0  0  0
  -28.4203  -30.3061   16.8384 C   0  0  0  0  0  0  0  0  0  0  0  0
  -25.7787  -14.1694   20.5297 C   0  0  0  0  0  0  0  0  0  0  0  0
  -25.0893  -16.6117   20.7886 C   0  0  0  0  0  0  0  0  0  0  0  0
  -17.9982  -28.6237   23.0630 C   0  0  0  0  0  0  0  0  0  0  0  0
  -24.7321  -31.1349   20.1052 C   0  0  0  0  0  0  0  0  0  0  0  0
  -19.1950  -29.3024   23.3618 C   0  0  0  0  0  0  0  0  0  0  0  0
  -25.9103  -30.3973   20.3075 C   0  0  0  0  0  0  0  0  0  0  0  0
  -25.5165  -11.4297   20.9860 C   0  0  0  0  0  0  0  0  0  0  0  0
  -27.1032  -31.9060   18.8433 C   0  0  0  0  0  0  0  0  0  0  0  0
  -29.0122  -31.2866   17.6180 C   0  0  0  0  0  0  0  0  0  1  0  0
  -24.1231   -9.5411   21.1029 C   0  0  0  0  0  0  0  0  0  0  0  0
  -21.5744   -8.4280   20.8851 C   0  0  0  0  0  0  0  0  0  0  0  0
  -23.0928   -9.9909   21.9285 C   0  0  0  0  0  0  0  0  0  0  0  0
  -25.9149  -15.5843   20.2942 C   0  0  0  0  0  0  0  0  0  0  0  0
  -30.4418  -29.3019   16.4087 C   0  0  0  0  0  0  0  0  0  0  0  0
  -25.6366  -17.7654   20.2828 C   0  0  0  0  0  0  0  0  0  0  0  0
  -23.9311  -16.5305   21.6299 C   0  0  0  0  0  0  0  0  0  0  0  0
  -22.7156  -28.8786   22.3230 C   0  0  0  0  0  0  0  0  0  0  0  0
  -24.5818  -27.0797   20.6824 C   0  0  0  0  0  0  0  0  0  0  0  0
  -26.4908  -25.4285   18.3876 C   0  0  0  0  0  0  0  0  0  0  0  0
  -29.9927  -20.9234   19.2832 C   0  0  0  0  0  0  0  0  0  0  0  0
  -17.9560  -27.1252   22.8973 C   0  0  0  0  0  0  0  0  0  0  0  0
  -23.4953  -30.7260   20.8582 C   0  0  0  0  0  0  0  0  0  0  0  0
  -25.8508  -29.2123   21.2322 C   0  0  0  0  0  0  0  0  0  0  0  0
  -19.3265  -26.5014   22.6462 C   0  0  0  0  0  0  0  0  0  0  0  0
  -29.2022  -18.4518   16.7605 C   0  0  0  0  0  0  0  0  0  0  0  0
  -20.3544  -27.0591   23.6255 C   0  0  0  0  0  0  0  0  0  0  0  0
  -28.2012  -17.5666   17.5051 C   0  0  0  0  0  0  0  0  0  0  0  0
  -32.4700  -23.1218   19.6434 C   0  0  0  0  0  0  0  0  0  0  0  0
  -30.3114  -18.9350   17.6903 C   0  0  0  0  0  0  0  0  0  0  0  0
  -28.8283  -18.7667   19.6513 C   0  0  0  0  0  0  0  0  0  0  0  0
  -32.8936  -24.5726   19.4754 C   0  0  0  0  0  0  0  0  0  0  0  0
  -31.5957  -23.8040   17.5498 C   0  0  0  0  0  0  0  0  0  0  0  0
  -20.5184  -28.5737   23.4501 C   0  0  1  0  0  0  0  0  0  0  0  0
  -23.3543  -29.2002   21.0039 C   0  0  1  0  0  0  0  0  0  0  0  0
  -27.6695  -18.2643   18.7710 C   0  0  2  0  0  0  0  0  0  0  0  0
  -31.2226  -23.0071   18.7842 C   0  0  1  0  0  0  0  0  0  0  0  0
  -27.1451  -23.1150   17.6683 C   0  0  0  0  0  0  0  0  0  0  0  0
  -26.4513  -26.8660   23.0830 C   0  0  0  0  0  0  0  0  0  0  0  0
  -27.7135  -25.0884   21.8521 C   0  0  0  0  0  0  0  0  0  0  0  0
  -25.3184  -24.7285   22.4491 C   0  0  0  0  0  0  0  0  0  0  0  0
  -25.3373  -25.8156   15.6897 C   0  0  0  0  0  0  0  0  0  0  0  0
  -31.1996  -28.2070   15.7350 C   0  0  0  0  0  0  0  0  0  0  0  0
  -33.3401  -25.5907   17.1999 C   0  0  0  0  0  0  0  0  0  0  0  0
  -32.6223  -26.3767   16.1204 C   0  0  0  0  0  0  0  0  0  0  0  0
  -25.9056  -26.3615   20.6105 C   0  0  1  0  0  0  0  0  0  0  0  0
  -26.1745  -24.2675   17.4620 C   0  0  2  0  0  0  0  0  0  0  0  0
  -26.3436  -25.7869   21.9872 C   0  0  0  0  0  0  0  0  0  0  0  0
  -29.1021  -29.3114   16.2272 N   0  0  0  0  0  0  0  0  0  0  0  0
  -26.9110  -16.0447   19.5326 N   0  0  0  0  0  0  0  0  0  0  0  0
  -26.7147  -17.3741   19.5447 N   0  0  0  0  0  0  0  0  0  0  0  0
  -24.6190  -28.4457   20.9877 N   0  0  0  0  0  0  0  0  0  0  0  0
  -29.7389  -19.6063   18.8657 N   0  0  0  0  0  0  0  0  0  0  0  0
  -25.2961  -19.0663   20.4018 N   0  0  0  0  0  0  0  0  0  0  0  0
  -23.5047  -15.2664   22.0595 N   0  0  0  0  0  0  0  0  0  0  0  0
  -21.3342  -28.8627   22.2902 N   0  0  0  0  0  0  0  0  0  0  0  0
  -25.7690  -25.3580   19.5603 N   0  0  0  0  0  0  0  0  0  0  0  0
  -30.8716  -21.6488   18.4882 N   0  0  0  0  0  0  0  0  0  0  0  0
  -32.3320  -24.9945   18.1289 N   0  3  2  0  0  0  0  0  0  0  0  0
  -26.2568  -24.7022   16.0390 N   0  3  0  0  0  0  0  0  0  0  0  0
  -23.2837  -17.5474   21.9766 O   0  0  0  0  0  0  0  0  0  0  0  0
  -23.4230  -28.6592   23.2993 O   0  0  0  0  0  0  0  0  0  0  0  0
  -23.5411  -26.4480   20.4794 O   0  0  0  0  0  0  0  0  0  0  0  0
  -27.3002  -26.3077   18.1006 O   0  0  0  0  0  0  0  0  0  0  0  0
  -29.4702  -21.4185   20.2877 O   0  0  0  0  0  0  0  0  0  0  0  0
  -25.3887  -10.0931   21.2091 O   0  0  0  0  0  0  0  0  0  0  0  0
  -28.2535  -32.2786   18.2165 O   0  0  0  0  0  0  0  0  0  1  0  0
  -31.8837  -27.4353   16.7142 O   0  0  0  0  0  0  0  0  0  0  0  0
  -20.3503   -7.8945   20.7795 F   0  0  0  0  0  0  0  0  0  0  0  0
  -23.3210  -10.9582   22.8274 F   0  0  0  0  0  0  0  0  0  0  0  0
  1  2  1  0  0  0  0
  1  5  2  0  0  0  0
  2  6  2  0  0  0  0
  3  8  2  0  0  0  0
  3 18  1  0  0  0  0
  4  9  1  0  0  0  0
  4 18  2  0  0  0  0
  5 20  1  0  0  0  0
  6 22  1  0  0  0  0
  7 10  2  0  0  0  0
  7 21  1  0  0  0  0
  8 24  1  0  0  0  0
  9 24  2  0  0  0  0
 10 25  1  0  0  0  0
 11 13  2  0  0  0  0
 11 27  1  0  0  0  0
 12 14  2  0  0  0  0
 12 26  1  0  0  0  0
 13 28  1  0  0  0  0
 14 31  1  0  0  0  0
 15 23  1  0  0  0  0
 15 25  2  0  0  0  0
 16 28  2  0  0  0  0
 16 29  1  0  0  0  0
 17 26  2  0  0  0  0
 17 65  1  0  0  0  0
 18 30  1  0  0  0  0
 19 30  1  0  0  0  0
 19 32  2  0  0  0  0
 19 33  1  0  0  0  0
 20 22  2  0  0  0  0
 20 38  1  0  0  0  0
 21 23  2  0  0  0  0
 21 39  1  0  0  0  0
 22 50  1  0  0  0  0
 23 40  1  0  0  0  0
 24 82  1  0  0  0  0
 25 83  1  0  0  0  0
 26 83  1  0  0  0  0
 27 29  2  0  0  0  0
 27 82  1  0  0  0  0
 28 85  1  0  0  0  0
 29 86  1  0  0  0  0
 30 66  2  0  0  0  0
 31 59  1  0  0  0  0
 31 65  2  0  0  0  0
 32 67  1  0  0  0  0
 32 70  1  0  0  0  0
 33 71  1  0  0  0  0
 33 77  2  0  0  0  0
 34 51  1  0  0  0  0
 34 72  1  0  0  0  0
 34 78  2  0  0  0  0
 35 62  1  0  0  0  0
 35 68  1  0  0  0  0
 35 79  2  0  0  0  0
 36 63  1  0  0  0  0
 36 73  1  0  0  0  0
 36 80  2  0  0  0  0
 37 69  1  0  0  0  0
 37 74  1  0  0  0  0
 37 81  2  0  0  0  0
 38 41  1  0  0  0  0
 39 51  1  0  0  0  0
 40 68  1  0  0  0  0
 41 43  1  0  0  0  0
 42 44  1  0  0  0  0
 42 46  1  0  0  0  0
 43 50  1  0  0  0  0
 44 52  1  0  0  0  0
 45 48  1  0  0  0  0
 45 53  1  0  0  0  0
 46 69  1  0  0  0  0
 47 52  1  0  0  0  0
 47 69  1  0  0  0  0
 48 75  1  0  0  0  0
 49 53  1  0  0  0  0
 49 75  1  0  0  0  0
 50 72  1  0  0  0  0
 51 68  1  0  0  0  0
 52 67  1  0  0  0  0
 53 74  1  0  0  0  0
 54 63  1  0  0  0  0
 55 64  1  0  0  0  0
 56 64  1  0  0  0  0
 57 64  1  0  0  0  0
 58 76  1  0  0  0  0
 59 84  1  0  0  0  0
 60 61  1  0  0  0  0
 60 75  1  0  0  0  0
 61 84  1  0  0  0  0
 62 64  1  0  0  0  0
 62 73  1  0  0  0  0
 63 76  1  0  0  0  0
 66 67  1  0  0  0  0
M  CHG  2  75   1  76   1
M  ISO  4  26 101  37 100  74 100  83 101
M  END
> <Batch ID>
0130

> <Smiles>
CNC(C)C(=O)NC(C(=O)N1Cc2cc([101O:1][101c:1]3ccc(COCCN4CCC([100NH:0][100C:0](=O)N5CCCC(n6nc(-c7ccc(Oc8ccc(F)cc8F)cc7)c(C(N)=O)c6N)C5)C4)nc3)ccc2CC1C(=O)NC1CCCc2ccccc21)C(C)(C)C

> <Shape>
0.235

> <Color>
0.113

> <Negative vol penalty>
0.000

$$$$

  -OEChem-04052320473D

 80 88  0     1  0  0  0  0  0999 V2000
  -20.4258  -28.3757   11.1400 C   0  0  0  0  0  0  0  0  0  0  0  0
  -21.1352  -27.3584   11.7702 C   0  0  0  0  0  0  0  0  0  0  0  0
  -23.1350   -9.8966   19.9045 C   0  0  0  0  0  0  0  0  0  0  0  0
  -23.8126   -9.9240   22.2234 C   0  0  0  0  0  0  0  0  0  0  0  0
  -20.4126  -29.6577   11.6879 C   0  0  0  0  0  0  0  0  0  0  0  0
  -21.8329  -27.6228   12.9482 C   0  0  0  0  0  0  0  0  0  0  0  0
  -22.6346  -23.8233   17.6839 C   0  0  0  0  0  0  0  0  0  0  0  0
  -22.3977   -8.7350   20.1336 C   0  0  0  0  0  0  0  0  0  0  0  0
  -23.0751   -8.7624   22.4526 C   0  0  0  0  0  0  0  0  0  0  0  0
  -23.6948  -22.9972   18.0546 C   0  0  0  0  0  0  0  0  0  0  0  0
  -19.8381   -7.9252   22.9439 C   0  0  0  0  0  0  0  0  0  0  0  0
  -19.0405   -7.8808   24.0873 C   0  0  0  0  0  0  0  0  0  0  0  0
  -24.5121  -24.7197   19.5325 C   0  0  0  0  0  0  0  0  0  0  0  0
  -20.2798   -5.9631   24.8772 C   0  0  0  0  0  0  0  0  0  0  0  0
  -27.0678  -19.5913   20.1847 C   0  0  0  0  0  0  0  0  0  0  0  0
  -23.8425  -10.4911   20.9494 C   0  0  0  0  0  0  0  0  0  0  0  0
  -24.1558  -13.0200   20.8288 C   0  0  0  0  0  0  0  0  0  0  0  0
  -21.1025  -29.9357   12.8785 C   0  0  0  0  0  0  0  0  0  0  0  0
  -22.5111  -25.1101   18.2274 C   0  0  0  0  0  0  0  0  0  0  0  0
  -21.8300  -28.9101   13.5119 C   0  0  0  0  0  0  0  0  0  0  0  0
  -23.4481  -25.5592   19.1689 C   0  0  0  0  0  0  0  0  0  0  0  0
  -22.3677   -8.1679   21.4077 C   0  0  0  0  0  0  0  0  0  0  0  0
  -24.6353  -23.4465   18.9769 C   0  0  0  0  0  0  0  0  0  0  0  0
  -20.8566   -6.9886   22.7671 C   0  0  0  0  0  0  0  0  0  0  0  0
  -19.2614   -6.8997   25.0540 C   0  0  0  0  0  0  0  0  0  0  0  0
  -21.0774   -6.0076   23.7337 C   0  0  0  0  0  0  0  0  0  0  0  0
  -24.6049  -11.6908   20.7131 C   0  0  0  0  0  0  0  0  0  0  0  0
  -26.9196  -20.6118   19.2832 C   0  0  0  0  0  0  0  0  0  0  0  0
  -28.4575  -19.3861   20.2320 C   0  0  0  0  0  0  0  0  0  0  0  0
  -25.2504  -13.7820   20.5009 C   0  0  0  0  0  0  0  0  0  0  0  0
  -22.8646  -13.5210   21.1997 C   0  0  0  0  0  0  0  0  0  0  0  0
  -22.5280  -28.0581   17.0390 C   0  0  0  0  0  0  0  0  0  0  0  0
  -21.7721  -28.8724   20.0866 C   0  0  0  0  0  0  0  0  0  0  0  0
  -21.8420  -28.0683   23.4025 C   0  0  0  0  0  0  0  0  0  0  0  0
  -30.7104  -14.8735   20.8790 C   0  0  0  0  0  0  0  0  0  0  0  0
  -21.0978  -31.3481   13.4074 C   0  0  0  0  0  0  0  0  0  0  0  0
  -21.3469  -25.9788   17.8372 C   0  0  0  0  0  0  0  0  0  0  0  0
  -23.3492  -26.9245   19.7970 C   0  0  0  0  0  0  0  0  0  0  0  0
  -21.5550  -31.4561   14.8598 C   0  0  0  0  0  0  0  0  0  0  0  0
  -29.6894  -12.4634   18.4653 C   0  0  0  0  0  0  0  0  0  0  0  0
  -22.8243  -30.6398   15.0821 C   0  0  0  0  0  0  0  0  0  0  0  0
  -28.2414  -12.1529   18.8483 C   0  0  0  0  0  0  0  0  0  0  0  0
  -30.5602  -12.7017   19.6969 C   0  0  0  0  0  0  0  0  0  0  0  0
  -28.6010  -13.4142   21.0113 C   0  0  0  0  0  0  0  0  0  0  0  0
  -22.5788  -29.1517   14.8046 C   0  0  1  0  0  0  0  0  0  0  0  0
  -21.6066  -27.4644   18.0667 C   0  0  1  0  0  0  0  0  0  0  0  0
  -27.6718  -13.2215   19.8007 C   0  0  2  0  0  0  0  0  0  0  0  0
  -21.1805  -28.9488   25.6574 C   0  0  0  0  0  0  0  0  0  0  0  0
  -24.1392  -30.7967   20.0269 C   0  0  0  0  0  0  0  0  0  0  0  0
  -24.0126  -30.9198   22.5243 C   0  0  0  0  0  0  0  0  0  0  0  0
  -22.0893  -31.6987   21.1399 C   0  0  0  0  0  0  0  0  0  0  0  0
  -20.0334  -25.7780   23.8949 C   0  0  0  0  0  0  0  0  0  0  0  0
  -25.7336  -21.3507   18.7368 C   0  0  0  0  0  0  0  0  0  1  0  0
  -30.4403  -18.1671   21.1310 C   0  0  0  0  0  0  0  0  0  0  0  0
  -30.7044  -17.0304   22.1066 C   0  0  0  0  0  0  0  0  0  0  0  0
  -22.5593  -29.2215   21.3265 C   0  0  1  0  0  0  0  0  0  0  0  0
  -20.7621  -28.0971   24.4690 C   0  0  2  0  0  0  0  0  0  0  0  0
  -23.2033  -30.6341   21.2413 C   0  0  0  0  0  0  0  0  0  0  0  0
  -25.8850  -11.6096   20.3406 N   0  0  0  0  0  0  0  0  0  0  0  0
  -29.1206  -20.2160   19.4217 N   0  0  0  0  0  0  0  0  0  0  0  0
  -26.2496  -12.8974   20.2193 N   0  0  0  0  0  0  0  0  0  0  0  0
  -22.1965  -27.7391   19.3785 N   0  0  0  0  0  0  0  0  0  0  0  0
  -29.9652  -13.7270   20.5576 N   0  0  0  0  0  0  0  0  0  0  0  0
  -25.4461  -15.1157   20.4287 N   0  0  0  0  0  0  0  0  0  0  0  0
  -21.8532  -12.6003   21.5053 N   0  0  0  0  0  0  0  0  0  0  0  0
  -29.0091  -18.4370   21.0297 N   0  0  0  0  0  0  0  0  0  0  0  0
  -21.8827  -28.5386   15.9155 N   0  0  0  0  0  0  0  0  0  0  0  0
  -21.6471  -29.0476   22.4516 N   0  0  0  0  0  0  0  0  0  0  0  0
  -30.0697  -15.7983   21.6945 N   0  0  0  0  0  0  0  0  0  0  0  0
  -20.4783  -26.7176   24.9561 N   0  3  0  0  0  0  0  0  0  0  0  0
  -22.6106  -14.7487   21.2424 O   0  0  0  0  0  0  0  0  0  0  0  0
  -23.7348  -28.0800   17.2503 O   0  0  0  0  0  0  0  0  0  0  0  0
  -20.8114  -29.5750   19.7623 O   0  0  0  0  0  0  0  0  0  0  0  0
  -22.7682  -27.2604   23.4140 O   0  0  0  0  0  0  0  0  0  0  0  0
  -31.8594  -15.0617   20.4652 O   0  0  0  0  0  0  0  0  0  0  0  0
  -28.1377  -20.9933   18.8208 O   0  0  0  0  0  0  0  0  0  0  0  0
  -21.6481   -7.0345   21.6317 O   0  0  0  0  0  0  0  0  0  0  0  0
  -25.6715  -22.6424   19.3400 O   0  0  0  0  0  0  0  0  0  1  0  0
  -18.4964   -6.8581   26.1527 F   0  0  0  0  0  0  0  0  0  0  0  0
  -22.0551   -5.1058   23.5700 F   0  0  0  0  0  0  0  0  0  0  0  0
  1  2  1  0  0  0  0
  1  5  2  0  0  0  0
  2  6  2  0  0  0  0
  3  8  2  0  0  0  0
  3 16  1  0  0  0  0
  4  9  1  0  0  0  0
  4 16  2  0  0  0  0
  5 18  1  0  0  0  0
  6 20  1  0  0  0  0
  7 10  2  0  0  0  0
  7 19  1  0  0  0  0
  8 22  1  0  0  0  0
  9 22  2  0  0  0  0
 10 23  1  0  0  0  0
 11 12  2  0  0  0  0
 11 24  1  0  0  0  0
 12 25  1  0  0  0  0
 13 21  1  0  0  0  0
 13 23  2  0  0  0  0
 14 25  2  0  0  0  0
 14 26  1  0  0  0  0
 15 28  2  0  0  0  0
 15 29  1  0  0  0  0
 16 27  1  0  0  0  0
 17 27  1  0  0  0  0
 17 30  2  0  0  0  0
 17 31  1  0  0  0  0
 18 20  2  0  0  0  0
 18 36  1  0  0  0  0
 19 21  2  0  0  0  0
 19 37  1  0  0  0  0
 20 45  1  0  0  0  0
 21 38  1  0  0  0  0
 22 77  1  0  0  0  0
 23 78  1  0  0  0  0
 24 26  2  0  0  0  0
 24 77  1  0  0  0  0
 25 79  1  0  0  0  0
 26 80  1  0  0  0  0
 27 59  2  0  0  0  0
 28 53  1  0  0  0  0
 28 76  1  0  0  0  0
 29 60  2  0  0  0  0
 29 66  1  0  0  0  0
 30 61  1  0  0  0  0
 30 64  1  0  0  0  0
 31 65  1  0  0  0  0
 31 71  2  0  0  0  0
 32 46  1  0  0  0  0
 32 67  1  0  0  0  0
 32 72  2  0  0  0  0
 33 56  1  0  0  0  0
 33 62  1  0  0  0  0
 33 73  2  0  0  0  0
 34 57  1  0  0  0  0
 34 68  1  0  0  0  0
 34 74  2  0  0  0  0
 35 63  1  0  0  0  0
 35 69  1  0  0  0  0
 35 75  2  0  0  0  0
 36 39  1  0  0  0  0
 37 46  1  0  0  0  0
 38 62  1  0  0  0  0
 39 41  1  0  0  0  0
 40 42  1  0  0  0  0
 40 43  1  0  0  0  0
 41 45  1  0  0  0  0
 42 47  1  0  0  0  0
 43 63  1  0  0  0  0
 44 47  1  0  0  0  0
 44 63  1  0  0  0  0
 45 67  1  0  0  0  0
 46 62  1  0  0  0  0
 47 61  1  0  0  0  0
 48 57  1  0  0  0  0
 49 58  1  0  0  0  0
 50 58  1  0  0  0  0
 51 58  1  0  0  0  0
 52 70  1  0  0  0  0
 53 78  1  0  0  0  0
 54 55  1  0  0  0  0
 54 66  1  0  0  0  0
 55 69  1  0  0  0  0
 56 58  1  0  0  0  0
 56 68  1  0  0  0  0
 57 70  1  0  0  0  0
 59 61  1  0  0  0  0
 60 76  1  0  0  0  0
M  CHG  1  70   1
M  ISO  4  35 100  53 101  69 100  78 101
M  END
> <Batch ID>
0130

> <Smiles>
CNC(C)C(=O)NC(C(=O)N1Cc2cc([101O:1][101CH2:1]c3cc(NCC[100NH:0][100C:0](=O)N4CCCC(n5nc(-c6ccc(Oc7ccc(F)cc7F)cc6)c(C(N)=O)c5N)C4)no3)ccc2CC1C(=O)NC1CCCc2ccccc21)C(C)(C)C

> <Shape>
0.269

> <Color>
0.230

> <Negative vol penalty>
0.000

$$$$

  -OEChem-04052320473D

 86 95  0     1  0  0  0  0  0999 V2000
  -26.1554  -35.3485   22.8901 C   0  0  0  0  0  0  0  0  0  0  0  0
  -26.6817  -34.0735   22.7086 C   0  0  0  0  0  0  0  0  0  0  0  0
  -22.1097  -14.2628   21.3053 C   0  0  0  0  0  0  0  0  0  0  0  0
  -23.1967  -13.6225   23.3658 C   0  0  0  0  0  0  0  0  0  0  0  0
  -24.8645  -35.5033   23.3935 C   0  0  0  0  0  0  0  0  0  0  0  0
  -25.9177  -32.9526   23.0315 C   0  0  0  0  0  0  0  0  0  0  0  0
  -26.1495  -29.3537   19.4764 C   0  0  0  0  0  0  0  0  0  0  0  0
  -21.0054  -14.7142   22.0281 C   0  0  0  0  0  0  0  0  0  0  0  0
  -22.0924  -14.0739   24.0886 C   0  0  0  0  0  0  0  0  0  0  0  0
  -27.2936  -28.5574   19.4501 C   0  0  0  0  0  0  0  0  0  0  0  0
  -20.1617  -17.4381   23.8451 C   0  0  0  0  0  0  0  0  0  0  0  0
  -19.6179  -18.6736   23.4937 C   0  0  0  0  0  0  0  0  0  0  0  0
  -26.0991  -26.8135   20.6127 C   0  0  0  0  0  0  0  0  0  0  0  0
  -30.5488  -18.8664   18.8103 C   0  0  0  0  0  0  0  0  0  0  0  0
  -28.4672  -18.6107   17.6109 C   0  0  0  0  0  0  0  0  0  0  0  0
  -17.5073  -17.6050   23.0031 C   0  0  0  0  0  0  0  0  0  0  0  0
  -23.2053  -13.7169   21.9742 C   0  0  0  0  0  0  0  0  0  0  0  0
  -24.3649  -12.2403   20.2471 C   0  0  0  0  0  0  0  0  0  0  0  0
  -24.0807  -34.3836   23.7136 C   0  0  0  0  0  0  0  0  0  0  0  0
  -24.9728  -28.8894   20.0816 C   0  0  0  0  0  0  0  0  0  0  0  0
  -24.6155  -33.0927   23.5409 C   0  0  0  0  0  0  0  0  0  0  0  0
  -24.9407  -27.6049   20.6430 C   0  0  0  0  0  0  0  0  0  0  0  0
  -30.6940  -20.1502   18.2847 C   0  0  0  0  0  0  0  0  0  0  0  0
  -28.6123  -19.8946   17.0853 C   0  0  0  0  0  0  0  0  0  0  0  0
  -29.7258  -20.6644   17.4222 C   0  0  0  0  0  0  0  0  0  0  0  0
  -29.4354  -18.0966   18.4734 C   0  0  0  0  0  0  0  0  0  0  0  0
  -20.9968  -14.6198   23.4198 C   0  0  0  0  0  0  0  0  0  0  0  0
  -27.2694  -27.2882   20.0209 C   0  0  0  0  0  0  0  0  0  0  0  0
  -19.3784  -16.2861   23.7754 C   0  0  0  0  0  0  0  0  0  0  0  0
  -18.2907  -18.7570   23.0727 C   0  0  0  0  0  0  0  0  0  0  0  0
  -18.0512  -16.3695   23.3545 C   0  0  0  0  0  0  0  0  0  0  0  0
  -24.3461  -13.2499   21.2280 C   0  0  0  0  0  0  0  0  0  0  0  0
  -25.6769  -12.1760   19.8458 C   0  0  0  0  0  0  0  0  0  0  0  0
  -23.2924  -11.4329   19.7437 C   0  0  0  0  0  0  0  0  0  0  0  0
  -23.1893  -29.8352   22.5369 C   0  0  0  0  0  0  0  0  0  0  0  0
  -21.2189  -27.4702   21.5140 C   0  0  0  0  0  0  0  0  0  0  0  0
  -21.5712  -24.0955   20.2874 C   0  0  0  0  0  0  0  0  0  0  0  0
  -30.1544  -16.1329   19.8781 C   0  0  0  0  0  0  0  0  0  0  0  0
  -22.7081  -34.6018   24.2993 C   0  0  0  0  0  0  0  0  0  0  0  0
  -23.7393  -29.7502   20.0780 C   0  0  0  0  0  0  0  0  0  0  0  0
  -23.6966  -27.0519   21.2871 C   0  0  0  0  0  0  0  0  0  0  0  0
  -21.8259  -33.3564   24.2643 C   0  0  0  0  0  0  0  0  0  0  0  0
  -30.1249  -12.9377   21.4488 C   0  0  0  0  0  0  0  0  0  0  0  0
  -22.6014  -32.1388   24.7572 C   0  0  0  0  0  0  0  0  0  0  0  0
  -28.6419  -12.5606   21.4757 C   0  0  0  0  0  0  0  0  0  0  0  0
  -30.0351  -25.4487   18.5920 C   0  0  0  0  0  0  0  0  0  0  0  0
  -27.8654  -24.3167   19.1787 C   0  0  0  0  0  0  0  0  0  0  0  0
  -30.3342  -14.4330   21.6817 C   0  0  0  0  0  0  0  0  0  0  0  0
  -28.0817  -14.9362   20.8202 C   0  0  0  0  0  0  0  0  0  0  0  0
  -30.2677  -24.4261   17.4909 C   0  0  0  0  0  0  0  0  0  0  0  0
  -28.1021  -23.2967   18.0761 C   0  0  0  0  0  0  0  0  0  0  0  0
  -23.8086  -31.8518   23.8562 C   0  0  1  0  0  0  0  0  0  0  0  0
  -22.7475  -29.3776   21.1756 C   0  0  1  0  0  0  0  0  0  0  0  0
  -27.8168  -13.4507   20.5257 C   0  0  2  0  0  0  0  0  0  0  0  0
  -28.5489  -25.6467   18.8773 C   0  0  0  0  0  0  0  0  0  1  0  0
  -31.8957  -20.9538   18.6606 C   0  0  0  0  0  0  0  0  0  0  0  0
  -27.5612  -20.4216   16.1641 C   0  0  0  0  0  0  0  0  0  0  0  0
  -20.0990  -22.7516   18.7629 C   0  0  0  0  0  0  0  0  0  0  0  0
  -19.9822  -26.4287   24.1016 C   0  0  0  0  0  0  0  0  0  0  0  0
  -19.8105  -24.1726   23.0297 C   0  0  0  0  0  0  0  0  0  0  0  0
  -18.5660  -26.1077   22.0655 C   0  0  0  0  0  0  0  0  0  0  0  0
  -23.8020  -23.5551   18.4190 C   0  0  0  0  0  0  0  0  0  0  0  0
  -29.8818  -22.0455   16.8574 C   0  0  0  0  0  0  0  0  0  0  0  0
  -21.0783  -25.9954   21.8044 C   0  0  1  0  0  0  0  0  0  0  0  0
  -21.3450  -23.6175   18.8644 C   0  0  2  0  0  0  0  0  0  0  0  0
  -19.8844  -25.6893   22.7523 C   0  0  0  0  0  0  0  0  0  0  0  0
  -25.5505  -13.7881   21.4373 N   0  0  0  0  0  0  0  0  0  0  0  0
  -26.3384  -13.1142   20.5823 N   0  0  0  0  0  0  0  0  0  0  0  0
  -22.5182  -27.9341   21.2640 N   0  0  0  0  0  0  0  0  0  0  0  0
  -29.5246  -15.2132   20.7432 N   0  0  0  0  0  0  0  0  0  0  0  0
  -26.3177  -11.4090   18.9384 N   0  0  0  0  0  0  0  0  0  0  0  0
  -22.0066  -11.6291   20.2656 N   0  0  0  0  0  0  0  0  0  0  0  0
  -29.2871  -16.7928   19.0080 N   0  0  0  0  0  0  0  0  0  0  0  0
  -23.3847  -31.1996   22.6358 N   0  0  0  0  0  0  0  0  0  0  0  0
  -20.9983  -25.3300   20.5086 N   0  0  0  0  0  0  0  0  0  0  0  0
  -29.5875  -23.1284   17.8587 N   0  3  0  0  0  0  0  0  0  0  0  0
  -22.5121  -22.8185   18.3947 N   0  3  0  0  0  0  0  0  0  0  0  0
  -23.4721  -10.5520   18.8690 O   0  0  0  0  0  0  0  0  0  0  0  0
  -23.3403  -29.0116   23.4316 O   0  0  0  0  0  0  0  0  0  0  0  0
  -20.2122  -28.1829   21.5021 O   0  0  0  0  0  0  0  0  0  0  0  0
  -22.1907  -23.4377   21.1205 O   0  0  0  0  0  0  0  0  0  0  0  0
  -31.3765  -16.3013   19.8883 O   0  0  0  0  0  0  0  0  0  0  0  0
  -19.9195  -15.0604   24.1254 O   0  0  0  0  0  0  0  0  0  0  0  0
  -28.3849  -26.5091   19.9973 O   0  0  0  0  0  0  0  0  0  1  0  0
  -17.7681  -19.9437   22.7368 F   0  0  0  0  0  0  0  0  0  0  0  0
  -17.2933  -15.2664   23.2867 F   0  0  0  0  0  0  0  0  0  0  0  0
  1  2  1  0  0  0  0
  1  5  2  0  0  0  0
  2  6  2  0  0  0  0
  3  8  2  0  0  0  0
  3 17  1  0  0  0  0
  4  9  1  0  0  0  0
  4 17  2  0  0  0  0
  5 19  1  0  0  0  0
  6 21  1  0  0  0  0
  7 10  2  0  0  0  0
  7 20  1  0  0  0  0
  8 27  1  0  0  0  0
  9 27  2  0  0  0  0
 10 28  1  0  0  0  0
 11 12  2  0  0  0  0
 11 29  1  0  0  0  0
 12 30  1  0  0  0  0
 13 22  1  0  0  0  0
 13 28  2  0  0  0  0
 14 23  2  0  0  0  0
 14 26  1  0  0  0  0
 15 24  1  0  0  0  0
 15 26  2  0  0  0  0
 16 30  2  0  0  0  0
 16 31  1  0  0  0  0
 17 32  1  0  0  0  0
 18 32  1  0  0  0  0
 18 33  2  0  0  0  0
 18 34  1  0  0  0  0
 19 21  2  0  0  0  0
 19 39  1  0  0  0  0
 20 22  2  0  0  0  0
 20 40  1  0  0  0  0
 21 52  1  0  0  0  0
 22 41  1  0  0  0  0
 23 25  1  0  0  0  0
 23 56  1  0  0  0  0
 24 25  2  0  0  0  0
 24 57  1  0  0  0  0
 25 63  1  0  0  0  0
 26 73  1  0  0  0  0
 27 83  1  0  0  0  0
 28 84  1  0  0  0  0
 29 31  2  0  0  0  0
 29 83  1  0  0  0  0
 30 85  1  0  0  0  0
 31 86  1  0  0  0  0
 32 67  2  0  0  0  0
 33 68  1  0  0  0  0
 33 71  1  0  0  0  0
 34 72  1  0  0  0  0
 34 78  2  0  0  0  0
 35 53  1  0  0  0  0
 35 74  1  0  0  0  0
 35 79  2  0  0  0  0
 36 64  1  0  0  0  0
 36 69  1  0  0  0  0
 36 80  2  0  0  0  0
 37 65  1  0  0  0  0
 37 75  1  0  0  0  0
 37 81  2  0  0  0  0
 38 70  1  0  0  0  0
 38 73  1  0  0  0  0
 38 82  2  0  0  0  0
 39 42  1  0  0  0  0
 40 53  1  0  0  0  0
 41 69  1  0  0  0  0
 42 44  1  0  0  0  0
 43 45  1  0  0  0  0
 43 48  1  0  0  0  0
 44 52  1  0  0  0  0
 45 54  1  0  0  0  0
 46 50  1  0  0  0  0
 46 55  1  0  0  0  0
 47 51  1  0  0  0  0
 47 55  1  0  0  0  0
 48 70  1  0  0  0  0
 49 54  1  0  0  0  0
 49 70  1  0  0  0  0
 50 76  1  0  0  0  0
 51 76  1  0  0  0  0
 52 74  1  0  0  0  0
 53 69  1  0  0  0  0
 54 68  1  0  0  0  0
 55 84  1  0  0  0  0
 58 65  1  0  0  0  0
 59 66  1  0  0  0  0
 60 66  1  0  0  0  0
 61 66  1  0  0  0  0
 62 77  1  0  0  0  0
 63 76  1  0  0  0  0
 64 66  1  0  0  0  0
 64 75  1  0  0  0  0
 65 77  1  0  0  0  0
 67 68  1  0  0  0  0
M  CHG  2  76   1  77   1
M  ISO  4  38 100  55 101  73 100  84 101
M  END
> <Batch ID>
0130

> <Smiles>
CNC(C)C(=O)NC(C(=O)N1Cc2cc([101O:1][101CH:1]3CCN(Cc4c(C)cc([100NH:0][100C:0](=O)N5CCCC(n6nc(-c7ccc(Oc8ccc(F)cc8F)cc7)c(C(N)=O)c6N)C5)cc4C)CC3)ccc2CC1C(=O)NC1CCCc2ccccc21)C(C)(C)C

> <Shape>
0.269

> <Color>
0.077

> <Negative vol penalty>
0.000

$$$$
