
  -OEChem-04052320503D

 84 92  0     1  0  0  0  0  0999 V2000
  -21.6306  -20.0381   14.5165 C   0  0  0  0  0  0  0  0  0  0  0  0
  -22.2101  -18.8885   15.0438 C   0  0  0  0  0  0  0  0  0  0  0  0
  -28.6931  -26.3254   18.4912 C   0  0  0  0  0  0  0  0  0  0  0  0
  -27.0099  -25.4671   19.9969 C   0  0  0  0  0  0  0  0  0  0  0  0
  -21.8932  -21.2786   15.0964 C   0  0  0  0  0  0  0  0  0  0  0  0
  -23.0533  -18.9788   16.1506 C   0  0  0  0  0  0  0  0  0  0  0  0
  -23.6359  -14.8957   20.6778 C   0  0  0  0  0  0  0  0  0  0  0  0
  -27.9289  -27.4752   18.2924 C   0  0  0  0  0  0  0  0  0  0  0  0
  -26.2457  -26.6169   19.7981 C   0  0  0  0  0  0  0  0  0  0  0  0
  -24.5672  -13.8859   20.9161 C   0  0  0  0  0  0  0  0  0  0  0  0
  -24.0200  -29.4866   19.9674 C   0  0  0  0  0  0  0  0  0  0  0  0
  -23.4594  -30.0958   21.0900 C   0  0  0  0  0  0  0  0  0  0  0  0
  -25.8100  -15.3782   22.3471 C   0  0  0  0  0  0  0  0  0  0  0  0
  -28.4697  -13.7925   18.3668 C   0  0  0  0  0  0  0  0  0  0  0  0
  -25.6674  -30.4263   22.0133 C   0  0  0  0  0  0  0  0  0  0  0  0
  -30.1257  -13.2583   20.4687 C   0  0  0  0  0  0  0  0  0  0  0  0
  -28.2336  -25.3213   19.3435 C   0  0  0  0  0  0  0  0  0  0  0  0
  -30.0077  -23.9263   20.5328 C   0  0  0  0  0  0  0  0  0  0  0  0
  -22.7324  -21.3830   16.2169 C   0  0  0  0  0  0  0  0  0  0  0  0
  -23.7908  -16.1598   21.2646 C   0  0  0  0  0  0  0  0  0  0  0  0
  -23.3284  -20.2219   16.7453 C   0  0  0  0  0  0  0  0  0  0  0  0
  -24.8779  -16.4015   22.1167 C   0  0  0  0  0  0  0  0  0  0  0  0
  -28.6625  -12.4744   18.7655 C   0  0  0  0  0  0  0  0  0  0  0  0
  -29.5047  -12.1937   19.8356 C   0  0  0  0  0  0  0  0  0  0  0  0
  -26.7052  -27.6210   18.9458 C   0  0  0  0  0  0  0  0  0  0  0  0
  -25.6560  -14.1280   21.7485 C   0  0  0  0  0  0  0  0  0  0  0  0
  -25.4043  -29.3472   19.8677 C   0  0  0  0  0  0  0  0  0  0  0  0
  -24.2831  -30.5656   22.1129 C   0  0  0  0  0  0  0  0  0  0  0  0
  -26.2280  -29.8171   20.8907 C   0  0  0  0  0  0  0  0  0  0  0  0
  -29.0223  -24.1331   19.5488 C   0  0  0  0  0  0  0  0  0  0  0  0
  -29.1369  -14.7855   19.0659 C   0  0  0  0  0  0  0  0  0  0  0  0
  -30.4560  -22.6479   20.3065 C   0  0  0  0  0  0  0  0  0  0  0  0
  -30.4758  -24.8108   21.5595 C   0  0  0  0  0  0  0  0  0  0  0  0
  -24.2047  -19.1109   20.1586 C   0  0  0  0  0  0  0  0  0  0  0  0
  -23.8992  -19.9084   23.2879 C   0  0  0  0  0  0  0  0  0  0  0  0
  -24.1479  -18.9606   26.5569 C   0  0  0  0  0  0  0  0  0  0  0  0
  -29.4997  -17.2746   19.2039 C   0  0  0  0  0  0  0  0  0  0  0  0
  -23.0242  -22.7512   16.7803 C   0  0  0  0  0  0  0  0  0  0  0  0
  -22.7630  -17.2301   21.0188 C   0  0  0  0  0  0  0  0  0  0  0  0
  -25.0787  -17.7351   22.7872 C   0  0  0  0  0  0  0  0  0  0  0  0
  -23.6311  -22.7165   18.1806 C   0  0  0  0  0  0  0  0  0  0  0  0
  -29.6213  -19.5026   16.4293 C   0  0  0  0  0  0  0  0  0  0  0  0
  -24.7547  -21.6872   18.2501 C   0  0  0  0  0  0  0  0  0  0  0  0
  -29.5574  -20.8889   17.0745 C   0  0  0  0  0  0  0  0  0  0  0  0
  -28.7494  -18.4911   17.1711 C   0  0  0  0  0  0  0  0  0  0  0  0
  -28.9353  -19.7833   19.2603 C   0  0  0  0  0  0  0  0  0  0  0  0
  -24.2289  -20.2761   17.9603 C   0  0  1  0  0  0  0  0  0  0  0  0
  -23.2977  -18.6385   21.2594 C   0  0  1  0  0  0  0  0  0  0  0  0
  -29.8483  -20.8207   18.5866 C   0  0  2  0  0  0  0  0  0  0  0  0
  -27.9577  -11.3807   18.0339 C   0  0  0  0  0  0  0  0  0  0  0  0
  -23.8700  -19.8418   28.8901 C   0  0  0  0  0  0  0  0  0  0  0  0
  -26.5476  -21.4026   23.0365 C   0  0  0  0  0  0  0  0  0  0  0  0
  -26.6858  -21.4366   25.5361 C   0  0  0  0  0  0  0  0  0  0  0  0
  -24.8026  -22.5910   24.3770 C   0  0  0  0  0  0  0  0  0  0  0  0
  -22.0251  -16.9923   27.1718 C   0  0  0  0  0  0  0  0  0  0  0  0
  -29.3515  -10.6072   23.4436 C   0  0  0  0  0  0  0  0  0  0  0  0
  -29.7485  -10.7894   20.3074 C   0  0  0  0  0  0  0  0  0  0  0  0
  -28.5923  -10.1982   21.1075 C   0  0  0  0  0  0  0  0  0  0  0  0
  -26.9578  -10.9310   22.8374 C   0  0  0  0  0  0  0  0  0  0  0  0
  -26.0939  -11.7985   21.9433 C   0  0  0  0  0  0  0  0  0  1  0  0
  -24.8510  -20.0643   24.4493 C   0  0  1  0  0  0  0  0  0  0  0  0
  -23.1974  -19.1263   27.7289 C   0  0  2  0  0  0  0  0  0  0  0  0
  -25.7193  -21.3490   24.3357 C   0  0  0  0  0  0  0  0  0  0  0  0
  -29.9630  -14.5515   20.1102 N   0  0  0  0  0  0  0  0  0  0  0  0
  -28.8542  -23.0711   18.7563 N   0  0  0  0  0  0  0  0  0  0  0  0
  -29.7400  -22.1848   19.2420 N   0  0  0  0  0  0  0  0  0  0  0  0
  -24.0501  -18.7514   22.5105 N   0  0  0  0  0  0  0  0  0  0  0  0
  -29.0839  -18.4785   18.5969 N   0  0  0  0  0  0  0  0  0  0  0  0
  -31.3889  -21.8861   20.9161 N   0  0  0  0  0  0  0  0  0  0  0  0
  -29.9072  -26.0885   21.6511 N   0  0  0  0  0  0  0  0  0  0  0  0
  -28.9355  -16.1253   18.6512 N   0  0  0  0  0  0  0  0  0  0  0  0
  -23.5474  -19.7426   19.1201 N   0  0  0  0  0  0  0  0  0  0  0  0
  -24.0352  -19.9993   25.6571 N   0  0  0  0  0  0  0  0  0  0  0  0
  -22.7266  -17.7953   28.2062 N   0  3  0  0  0  0  0  0  0  0  0  0
  -28.3654  -10.9938   22.3692 N   0  3  1  0  0  0  0  0  0  0  0  0
  -31.3834  -24.4837   22.3614 O   0  0  0  0  0  0  0  0  0  0  0  0
  -25.4117  -18.9179   20.2456 O   0  0  0  0  0  0  0  0  0  0  0  0
  -23.0484  -20.7777   23.0824 O   0  0  0  0  0  0  0  0  0  0  0  0
  -24.9164  -18.0072   26.4522 O   0  0  0  0  0  0  0  0  0  0  0  0
  -30.2764  -17.2655   20.1623 O   0  0  0  0  0  0  0  0  0  0  0  0
  -25.9594  -28.7429   18.7522 O   0  0  0  0  0  0  0  0  0  0  0  0
  -26.5669  -13.1443   21.9823 O   0  0  0  0  0  0  0  0  0  1  0  0
  -23.7447  -31.1520   23.1902 F   0  0  0  0  0  0  0  0  0  0  0  0
  -27.5587  -29.6870   20.8000 F   0  0  0  0  0  0  0  0  0  0  0  0
  1  2  1  0  0  0  0
  1  5  2  0  0  0  0
  2  6  2  0  0  0  0
  3  8  2  0  0  0  0
  3 17  1  0  0  0  0
  4  9  1  0  0  0  0
  4 17  2  0  0  0  0
  5 19  1  0  0  0  0
  6 21  1  0  0  0  0
  7 10  2  0  0  0  0
  7 20  1  0  0  0  0
  8 25  1  0  0  0  0
  9 25  2  0  0  0  0
 10 26  1  0  0  0  0
 11 12  2  0  0  0  0
 11 27  1  0  0  0  0
 12 28  1  0  0  0  0
 13 22  1  0  0  0  0
 13 26  2  0  0  0  0
 14 23  1  0  0  0  0
 14 31  2  0  0  0  0
 15 28  2  0  0  0  0
 15 29  1  0  0  0  0
 16 24  1  0  0  0  0
 16 64  2  0  0  0  0
 17 30  1  0  0  0  0
 18 30  1  0  0  0  0
 18 32  2  0  0  0  0
 18 33  1  0  0  0  0
 19 21  2  0  0  0  0
 19 38  1  0  0  0  0
 20 22  2  0  0  0  0
 20 39  1  0  0  0  0
 21 47  1  0  0  0  0
 22 40  1  0  0  0  0
 23 24  2  0  0  0  0
 23 50  1  0  0  0  0
 24 57  1  0  0  0  0
 25 81  1  0  0  0  0
 26 82  1  0  0  0  0
 27 29  2  0  0  0  0
 27 81  1  0  0  0  0
 28 83  1  0  0  0  0
 29 84  1  0  0  0  0
 30 65  2  0  0  0  0
 31 64  1  0  0  0  0
 31 71  1  0  0  0  0
 32 66  1  0  0  0  0
 32 69  1  0  0  0  0
 33 70  1  0  0  0  0
 33 76  2  0  0  0  0
 34 48  1  0  0  0  0
 34 72  1  0  0  0  0
 34 77  2  0  0  0  0
 35 61  1  0  0  0  0
 35 67  1  0  0  0  0
 35 78  2  0  0  0  0
 36 62  1  0  0  0  0
 36 73  1  0  0  0  0
 36 79  2  0  0  0  0
 37 68  1  0  0  0  0
 37 71  1  0  0  0  0
 37 80  2  0  0  0  0
 38 41  1  0  0  0  0
 39 48  1  0  0  0  0
 40 67  1  0  0  0  0
 41 43  1  0  0  0  0
 42 44  1  0  0  0  0
 42 45  1  0  0  0  0
 43 47  1  0  0  0  0
 44 49  1  0  0  0  0
 45 68  1  0  0  0  0
 46 49  1  0  0  0  0
 46 68  1  0  0  0  0
 47 72  1  0  0  0  0
 48 67  1  0  0  0  0
 49 66  1  0  0  0  0
 51 62  1  0  0  0  0
 52 63  1  0  0  0  0
 53 63  1  0  0  0  0
 54 63  1  0  0  0  0
 55 74  1  0  0  0  0
 56 75  1  0  0  0  0
 57 58  1  0  0  0  0
 58 75  1  0  0  0  0
 59 60  1  0  0  0  0
 59 75  1  0  0  0  0
 60 82  1  0  0  0  0
 61 63  1  0  0  0  0
 61 73  1  0  0  0  0
 62 74  1  0  0  0  0
 65 66  1  0  0  0  0
M  CHG  2  74   1  75   1
M  ISO  4  37 100  60 101  71 100  82 101
M  END
> <Batch ID>
0131

> <Smiles>
CNC(C)C(=O)NC(C(=O)N1Cc2cc([101O:1][101CH2:1]CN(C)CCc3cnc([100NH:0][100C:0](=O)N4CCCC(n5nc(-c6ccc(Oc7ccc(F)cc7F)cc6)c(C(N)=O)c5N)C4)cc3C)ccc2CC1C(=O)NC1CCCc2ccccc21)C(C)(C)C

> <Shape>
0.191

> <Color>
0.062

> <Negative vol penalty>
0.000

$$$$

  -OEChem-04052320503D

 80 88  0     1  0  0  0  0  0999 V2000
  -23.4115   -8.1059   21.4858 C   0  0  0  0  0  0  0  0  0  0  0  0
  -24.6367   -8.7315   21.2786 C   0  0  0  0  0  0  0  0  0  0  0  0
  -22.1125  -28.0952   21.8793 C   0  0  0  0  0  0  0  0  0  0  0  0
  -22.0173  -28.8334   19.5808 C   0  0  0  0  0  0  0  0  0  0  0  0
  -22.2284   -8.8317   21.3539 C   0  0  0  0  0  0  0  0  0  0  0  0
  -24.6794  -10.0831   20.9381 C   0  0  0  0  0  0  0  0  0  0  0  0
  -28.7089  -15.9390   21.8254 C   0  0  0  0  0  0  0  0  0  0  0  0
  -20.9493  -27.3495   21.6880 C   0  0  0  0  0  0  0  0  0  0  0  0
  -20.8540  -28.0877   19.3895 C   0  0  0  0  0  0  0  0  0  0  0  0
  -29.3191  -16.9492   21.0831 C   0  0  0  0  0  0  0  0  0  0  0  0
  -20.0886  -24.3881   20.3017 C   0  0  0  0  0  0  0  0  0  0  0  0
  -20.0639  -23.0859   20.8008 C   0  0  0  0  0  0  0  0  0  0  0  0
  -27.2146  -18.1220   20.9606 C   0  0  0  0  0  0  0  0  0  0  0  0
  -18.1818  -23.6590   22.2031 C   0  0  0  0  0  0  0  0  0  0  0  0
  -22.6465  -28.8371   20.8256 C   0  0  0  0  0  0  0  0  0  0  0  0
  -24.0435  -30.6572   21.9407 C   0  0  0  0  0  0  0  0  0  0  0  0
  -22.2570  -10.1952   21.0211 C   0  0  0  0  0  0  0  0  0  0  0  0
  -27.3423  -16.0075   22.1321 C   0  0  0  0  0  0  0  0  0  0  0  0
  -23.4955  -10.8275   20.8003 C   0  0  0  0  0  0  0  0  0  0  0  0
  -26.5901  -17.1127   21.7091 C   0  0  0  0  0  0  0  0  0  0  0  0
  -20.3201  -27.3458   20.4432 C   0  0  0  0  0  0  0  0  0  0  0  0
  -28.5713  -18.0395   20.6481 C   0  0  0  0  0  0  0  0  0  0  0  0
  -19.1599  -25.3259   20.7532 C   0  0  0  0  0  0  0  0  0  0  0  0
  -19.1106  -22.7213   21.7515 C   0  0  0  0  0  0  0  0  0  0  0  0
  -18.2065  -24.9613   21.7039 C   0  0  0  0  0  0  0  0  0  0  0  0
  -23.8477  -29.6080   21.0227 C   0  0  0  0  0  0  0  0  0  0  0  0
  -25.3421  -31.0548   21.7359 C   0  0  0  0  0  0  0  0  0  0  0  0
  -23.1329  -31.2219   22.8934 C   0  0  0  0  0  0  0  0  0  0  0  0
  -24.8006  -14.2205   21.4612 C   0  0  0  0  0  0  0  0  0  0  0  0
  -23.3111  -16.2689   23.4880 C   0  0  0  0  0  0  0  0  0  0  0  0
  -23.2414  -19.3445   24.9653 C   0  0  0  0  0  0  0  0  0  0  0  0
  -30.1692  -28.2554   19.5648 C   0  0  0  0  0  0  0  0  0  0  0  0
  -20.9501  -10.9267   20.8435 C   0  0  0  0  0  0  0  0  0  0  0  0
  -26.7050  -14.9228   22.9565 C   0  0  0  0  0  0  0  0  0  0  0  0
  -25.1242  -17.2436   22.0293 C   0  0  0  0  0  0  0  0  0  0  0  0
  -21.0970  -12.4461   20.8473 C   0  0  0  0  0  0  0  0  0  0  0  0
  -28.7039  -31.2594   18.3378 C   0  0  0  0  0  0  0  0  0  0  0  0
  -22.2546  -12.8727   19.9501 C   0  0  0  0  0  0  0  0  0  0  0  0
  -27.3108  -31.2714   18.9696 C   0  0  0  0  0  0  0  0  0  0  0  0
  -30.6288  -22.2479   21.1916 C   0  0  0  0  0  0  0  0  0  0  0  0
  -28.4442  -22.7258   19.9999 C   0  0  0  0  0  0  0  0  0  0  0  0
  -30.5729  -20.8012   20.7069 C   0  0  0  0  0  0  0  0  0  0  0  0
  -28.3933  -21.2778   19.5185 C   0  0  0  0  0  0  0  0  0  0  0  0
  -29.1426  -29.8447   17.9658 C   0  0  0  0  0  0  0  0  0  0  0  0
  -27.6809  -28.8776   19.6984 C   0  0  0  0  0  0  0  0  0  0  0  0
  -23.5840  -12.2980   20.4540 C   0  0  1  0  0  0  0  0  0  0  0  0
  -25.1928  -14.8422   22.7717 C   0  0  1  0  0  0  0  0  0  0  0  0
  -27.2180  -30.2760   20.1417 C   0  0  2  0  0  0  0  0  0  0  0  0
  -29.8870  -23.1719   20.2278 C   0  0  0  0  0  0  0  0  0  0  0  0
  -29.1354  -20.3400   20.4710 C   0  0  0  0  0  0  0  0  0  1  0  0
  -21.8803  -20.7408   26.5449 C   0  0  0  0  0  0  0  0  0  0  0  0
  -21.2662  -16.7698   21.2794 C   0  0  0  0  0  0  0  0  0  0  0  0
  -20.5272  -18.8132   22.5231 C   0  0  0  0  0  0  0  0  0  0  0  0
  -20.2937  -16.5630   23.5742 C   0  0  0  0  0  0  0  0  0  0  0  0
  -25.4809  -19.5602   26.8880 C   0  0  0  0  0  0  0  0  0  0  0  0
  -31.0550  -26.6596   21.2464 C   0  0  0  0  0  0  0  0  0  0  0  0
  -31.1666  -25.2798   20.6252 C   0  0  0  0  0  0  0  0  0  0  0  0
  -22.5927  -17.5881   23.3378 C   0  0  1  0  0  0  0  0  0  0  0  0
  -23.0378  -19.7637   26.4100 C   0  0  2  0  0  0  0  0  0  0  0  0
  -21.1971  -17.4304   22.6708 C   0  0  0  0  0  0  0  0  0  0  0  0
  -24.9349  -29.3551   20.2892 N   0  0  0  0  0  0  0  0  0  0  0  0
  -25.8263  -30.2511   20.7461 N   0  0  0  0  0  0  0  0  0  0  0  0
  -24.5452  -16.1541   22.8327 N   0  0  0  0  0  0  0  0  0  0  0  0
  -29.0323  -28.9510   19.1213 N   0  0  0  0  0  0  0  0  0  0  0  0
  -26.1057  -32.0100   22.3078 N   0  0  0  0  0  0  0  0  0  0  0  0
  -21.8368  -30.6945   22.9727 N   0  0  0  0  0  0  0  0  0  0  0  0
  -24.0654  -13.0573   21.5880 N   0  0  0  0  0  0  0  0  0  0  0  0
  -22.5551  -18.1862   24.6680 N   0  0  0  0  0  0  0  0  0  0  0  0
  -29.9791  -27.4345   20.6697 N   0  0  0  0  0  0  0  0  0  0  0  0
  -29.8821  -24.5489   20.7890 N   0  3  0  0  0  0  0  0  0  0  0  0
  -24.2686  -20.4173   26.9381 N   0  3  0  0  0  0  0  0  0  0  0  0
  -23.4538  -32.1770   23.6405 O   0  0  0  0  0  0  0  0  0  0  0  0
  -25.1386  -14.7572   20.4127 O   0  0  0  0  0  0  0  0  0  0  0  0
  -22.7995  -15.3757   24.1678 O   0  0  0  0  0  0  0  0  0  0  0  0
  -23.9365  -19.9830   24.1781 O   0  0  0  0  0  0  0  0  0  0  0  0
  -31.2731  -28.3622   19.0199 O   0  0  0  0  0  0  0  0  0  0  0  0
  -19.1852  -26.6181   20.2561 O   0  0  0  0  0  0  0  0  0  0  0  0
  -29.1642  -19.0266   19.9228 O   0  0  0  0  0  0  0  0  0  1  0  0
  -19.0860  -21.4703   22.2296 F   0  0  0  0  0  0  0  0  0  0  0  0
  -17.3110  -25.8574   22.1407 F   0  0  0  0  0  0  0  0  0  0  0  0
  1  2  1  0  0  0  0
  1  5  2  0  0  0  0
  2  6  2  0  0  0  0
  3  8  2  0  0  0  0
  3 15  1  0  0  0  0
  4  9  1  0  0  0  0
  4 15  2  0  0  0  0
  5 17  1  0  0  0  0
  6 19  1  0  0  0  0
  7 10  2  0  0  0  0
  7 18  1  0  0  0  0
  8 21  1  0  0  0  0
  9 21  2  0  0  0  0
 10 22  1  0  0  0  0
 11 12  2  0  0  0  0
 11 23  1  0  0  0  0
 12 24  1  0  0  0  0
 13 20  1  0  0  0  0
 13 22  2  0  0  0  0
 14 24  2  0  0  0  0
 14 25  1  0  0  0  0
 15 26  1  0  0  0  0
 16 26  1  0  0  0  0
 16 27  2  0  0  0  0
 16 28  1  0  0  0  0
 17 19  2  0  0  0  0
 17 33  1  0  0  0  0
 18 20  2  0  0  0  0
 18 34  1  0  0  0  0
 19 46  1  0  0  0  0
 20 35  1  0  0  0  0
 21 77  1  0  0  0  0
 22 78  1  0  0  0  0
 23 25  2  0  0  0  0
 23 77  1  0  0  0  0
 24 79  1  0  0  0  0
 25 80  1  0  0  0  0
 26 61  2  0  0  0  0
 27 62  1  0  0  0  0
 27 65  1  0  0  0  0
 28 66  1  0  0  0  0
 28 72  2  0  0  0  0
 29 47  1  0  0  0  0
 29 67  1  0  0  0  0
 29 73  2  0  0  0  0
 30 58  1  0  0  0  0
 30 63  1  0  0  0  0
 30 74  2  0  0  0  0
 31 59  1  0  0  0  0
 31 68  1  0  0  0  0
 31 75  2  0  0  0  0
 32 64  1  0  0  0  0
 32 69  1  0  0  0  0
 32 76  2  0  0  0  0
 33 36  1  0  0  0  0
 34 47  1  0  0  0  0
 35 63  1  0  0  0  0
 36 38  1  0  0  0  0
 37 39  1  0  0  0  0
 37 44  1  0  0  0  0
 38 46  1  0  0  0  0
 39 48  1  0  0  0  0
 40 42  1  0  0  0  0
 40 49  1  0  0  0  0
 41 43  1  0  0  0  0
 41 49  1  0  0  0  0
 42 50  1  0  0  0  0
 43 50  1  0  0  0  0
 44 64  1  0  0  0  0
 45 48  1  0  0  0  0
 45 64  1  0  0  0  0
 46 67  1  0  0  0  0
 47 63  1  0  0  0  0
 48 62  1  0  0  0  0
 49 70  1  0  0  0  0
 50 78  1  0  0  0  0
 51 59  1  0  0  0  0
 52 60  1  0  0  0  0
 53 60  1  0  0  0  0
 54 60  1  0  0  0  0
 55 71  1  0  0  0  0
 56 57  1  0  0  0  0
 56 69  1  0  0  0  0
 57 70  1  0  0  0  0
 58 60  1  0  0  0  0
 58 68  1  0  0  0  0
 59 71  1  0  0  0  0
 61 62  1  0  0  0  0
M  CHG  2  70   1  71   1
M  ISO  4  32 100  50 101  69 100  78 101
M  END
> <Batch ID>
0131

> <Smiles>
CNC(C)C(=O)NC(C(=O)N1Cc2cc([101O:1][101CH:1]3CCC(NCC[100NH:0][100C:0](=O)N4CCCC(n5nc(-c6ccc(Oc7ccc(F)cc7F)cc6)c(C(N)=O)c5N)C4)CC3)ccc2CC1C(=O)NC1CCCc2ccccc21)C(C)(C)C

> <Shape>
0.235

> <Color>
0.074

> <Negative vol penalty>
0.000

$$$$

  -OEChem-04052320503D

 87 96  0     1  0  0  0  0  0999 V2000
  -17.2681  -30.2324   24.2052 C   0  0  0  0  0  0  0  0  0  0  0  0
  -18.6271  -30.5203   24.2814 C   0  0  0  0  0  0  0  0  0  0  0  0
  -23.0961  -17.7549   19.0918 C   0  0  0  0  0  0  0  0  0  0  0  0
  -24.2633  -17.5683   21.1989 C   0  0  0  0  0  0  0  0  0  0  0  0
  -16.8380  -29.0674   23.5714 C   0  0  0  0  0  0  0  0  0  0  0  0
  -19.5568  -29.6428   23.7247 C   0  0  0  0  0  0  0  0  0  0  0  0
  -25.9420  -29.5966   20.4777 C   0  0  0  0  0  0  0  0  0  0  0  0
  -22.5804  -16.4704   19.2637 C   0  0  0  0  0  0  0  0  0  0  0  0
  -23.7475  -16.2837   21.3709 C   0  0  0  0  0  0  0  0  0  0  0  0
  -27.1937  -28.9897   20.5715 C   0  0  0  0  0  0  0  0  0  0  0  0
  -24.3893  -13.1677   20.2267 C   0  0  0  0  0  0  0  0  0  0  0  0
  -25.2651  -12.1694   20.6531 C   0  0  0  0  0  0  0  0  0  0  0  0
  -26.3304  -27.0469   19.4315 C   0  0  0  0  0  0  0  0  0  0  0  0
  -31.1993  -25.9303   21.5724 C   0  0  0  0  0  0  0  0  0  0  0  0
  -23.9059  -11.8167   22.6191 C   0  0  0  0  0  0  0  0  0  0  0  0
  -23.9376  -18.3039   20.0594 C   0  0  0  0  0  0  0  0  0  0  0  0
  -23.7439  -20.8284   19.7481 C   0  0  0  0  0  0  0  0  0  0  0  0
  -17.7624  -28.1800   22.9982 C   0  0  0  0  0  0  0  0  0  0  0  0
  -24.8705  -28.9277   19.8688 C   0  0  0  0  0  0  0  0  0  0  0  0
  -19.1387  -28.4641   23.0838 C   0  0  0  0  0  0  0  0  0  0  0  0
  -25.0668  -27.6485   19.3290 C   0  0  0  0  0  0  0  0  0  0  0  0
  -30.9102  -27.0526   20.7577 C   0  0  0  0  0  0  0  0  0  0  0  0
  -22.9060  -15.7348   20.4032 C   0  0  0  0  0  0  0  0  0  0  0  0
  -27.3873  -27.7135   20.0510 C   0  0  0  0  0  0  0  0  0  0  0  0
  -23.2718  -13.4906   20.9965 C   0  0  0  0  0  0  0  0  0  0  0  0
  -25.0235  -11.4938   21.8493 C   0  0  0  0  0  0  0  0  0  0  0  0
  -23.0301  -12.8150   22.1927 C   0  0  0  0  0  0  0  0  0  0  0  0
  -24.4711  -19.6305   19.8822 C   0  0  0  0  0  0  0  0  0  0  0  0
  -32.4588  -25.4885   21.2321 C   0  0  0  0  0  0  0  0  0  0  0  0
  -32.0018  -27.2624   19.9441 C   0  0  0  0  0  0  0  0  0  0  0  0
  -24.7048  -21.7994   19.6062 C   0  0  0  0  0  0  0  0  0  0  0  0
  -22.3264  -21.0440   19.7515 C   0  0  0  0  0  0  0  0  0  0  0  0
  -22.0202  -27.9083   20.8385 C   0  0  0  0  0  0  0  0  0  0  0  0
  -21.6374  -27.2000   17.6962 C   0  0  0  0  0  0  0  0  0  0  0  0
  -23.0860  -26.4807   14.6911 C   0  0  0  0  0  0  0  0  0  0  0  0
  -30.3213  -22.0678   21.4056 C   0  0  0  0  0  0  0  0  0  0  0  0
  -17.2526  -26.9096   22.3649 C   0  0  0  0  0  0  0  0  0  0  0  0
  -23.5335  -29.6068   19.7518 C   0  0  0  0  0  0  0  0  0  0  0  0
  -23.9543  -26.8960   18.6474 C   0  0  0  0  0  0  0  0  0  0  0  0
  -18.2803  -26.2191   21.4721 C   0  0  0  0  0  0  0  0  0  0  0  0
  -29.1656  -22.4469   17.9970 C   0  0  0  0  0  0  0  0  0  0  0  0
  -19.6333  -26.1465   22.1729 C   0  0  0  0  0  0  0  0  0  0  0  0
  -27.7498  -21.8749   18.0905 C   0  0  0  0  0  0  0  0  0  0  0  0
  -34.2015  -24.7998   22.9147 C   0  0  0  0  0  0  0  0  0  0  0  0
  -30.1369  -21.6649   18.8764 C   0  0  0  0  0  0  0  0  0  0  0  0
  -28.3201  -21.0024   20.4043 C   0  0  0  0  0  0  0  0  0  0  0  0
  -35.0208  -23.6542   23.4888 C   0  0  0  0  0  0  0  0  0  0  0  0
  -33.2361  -22.0191   22.8503 C   0  0  0  0  0  0  0  0  0  0  0  0
  -20.1765  -27.5493   22.4703 C   0  0  1  0  0  0  0  0  0  0  0  0
  -33.2654  -24.3246   21.7858 C   0  0  1  0  0  0  0  0  0  0  0  0
  -22.3793  -28.6263   19.5684 C   0  0  1  0  0  0  0  0  0  0  0  0
  -27.2861  -21.7637   19.5550 C   0  0  2  0  0  0  0  0  0  0  0  0
  -32.3864  -23.1437   22.2629 C   0  0  1  0  0  0  0  0  0  0  0  0
  -32.2345  -28.2923   18.9091 C   0  0  0  0  0  0  0  0  0  0  0  0
  -22.5145  -25.9112   12.3149 C   0  0  0  0  0  0  0  0  0  0  0  0
  -35.1172  -27.3985   19.8592 C   0  0  0  0  0  0  0  0  0  0  0  0
  -34.1083  -25.8700   18.1122 C   0  0  0  0  0  0  0  0  0  0  0  0
  -20.9145  -24.3621   18.5527 C   0  0  0  0  0  0  0  0  0  0  0  0
  -21.2872  -23.6282   16.1882 C   0  0  0  0  0  0  0  0  0  0  0  0
  -19.4996  -25.2880   16.7101 C   0  0  0  0  0  0  0  0  0  0  0  0
  -24.4579  -28.8923   13.6612 C   0  0  0  0  0  0  0  0  0  0  0  0
  -29.6453  -27.8593   20.7831 C   0  0  0  0  0  0  0  0  0  1  0  0
  -21.9232  -25.9981   16.8287 C   0  0  1  0  0  0  0  0  0  0  0  0
  -22.8375  -27.0268   13.2967 C   0  0  2  0  0  0  0  0  0  0  0  0
  -34.2315  -26.1769   19.6058 C   0  0  0  0  0  0  0  0  0  0  0  0
  -20.9268  -24.8322   17.0844 C   0  0  0  0  0  0  0  0  0  0  0  0
  -25.7922  -19.8208   19.8300 N   0  0  0  0  0  0  0  0  0  0  0  0
  -32.9368  -26.3056   20.2411 N   0  0  0  0  0  0  0  0  0  0  0  0
  -25.9026  -21.1495   19.6615 N   0  0  0  0  0  0  0  0  0  0  0  0
  -22.6639  -27.5998   18.5636 N   0  0  0  0  0  0  0  0  0  0  0  0
  -29.6463  -21.6122   20.2609 N   0  0  0  0  0  0  0  0  0  0  0  0
  -24.6335  -23.1373   19.4408 N   0  0  0  0  0  0  0  0  0  0  0  0
  -21.6921  -21.2972   20.9754 N   0  0  0  0  0  0  0  0  0  0  0  0
  -20.7288  -28.1421   21.2711 N   0  0  0  0  0  0  0  0  0  0  0  0
  -21.9363  -26.4818   15.4524 N   0  0  0  0  0  0  0  0  0  0  0  0
  -31.5745  -22.6257   21.1842 N   0  0  0  0  0  0  0  0  0  0  0  0
  -34.1000  -22.5698   23.9370 N   0  3  0  0  0  0  0  0  0  0  0  0
  -24.0412  -27.7536   12.8029 N   0  3  0  0  0  0  0  0  0  0  0  0
  -21.6401  -20.9968   18.7025 O   0  0  0  0  0  0  0  0  0  0  0  0
  -22.8526  -27.1940   21.3848 O   0  0  0  0  0  0  0  0  0  0  0  0
  -20.5462  -27.7677   17.6025 O   0  0  0  0  0  0  0  0  0  0  0  0
  -24.1887  -26.0885   15.0661 O   0  0  0  0  0  0  0  0  0  0  0  0
  -29.8403  -21.9882   22.5411 O   0  0  0  0  0  0  0  0  0  0  0  0
  -22.4027  -14.4814   20.5714 O   0  0  0  0  0  0  0  0  0  0  0  0
  -28.6078  -27.1186   20.1418 O   0  0  0  0  0  0  0  0  0  1  0  0
  -25.8638  -10.5341   22.2579 F   0  0  0  0  0  0  0  0  0  0  0  0
  -21.9575  -13.1200   22.9359 F   0  0  0  0  0  0  0  0  0  0  0  0
  1  2  1  0  0  0  0
  1  5  2  0  0  0  0
  2  6  2  0  0  0  0
  3  8  2  0  0  0  0
  3 16  1  0  0  0  0
  4  9  1  0  0  0  0
  4 16  2  0  0  0  0
  5 18  1  0  0  0  0
  6 20  1  0  0  0  0
  7 10  2  0  0  0  0
  7 19  1  0  0  0  0
  8 23  1  0  0  0  0
  9 23  2  0  0  0  0
 10 24  1  0  0  0  0
 11 12  2  0  0  0  0
 11 25  1  0  0  0  0
 12 26  1  0  0  0  0
 13 21  1  0  0  0  0
 13 24  2  0  0  0  0
 14 22  1  0  0  0  0
 14 29  2  0  0  0  0
 15 26  2  0  0  0  0
 15 27  1  0  0  0  0
 16 28  1  0  0  0  0
 17 28  1  0  0  0  0
 17 31  2  0  0  0  0
 17 32  1  0  0  0  0
 18 20  2  0  0  0  0
 18 37  1  0  0  0  0
 19 21  2  0  0  0  0
 19 38  1  0  0  0  0
 20 49  1  0  0  0  0
 21 39  1  0  0  0  0
 22 30  2  0  0  0  0
 22 62  1  0  0  0  0
 23 84  1  0  0  0  0
 24 85  1  0  0  0  0
 25 27  2  0  0  0  0
 25 84  1  0  0  0  0
 26 86  1  0  0  0  0
 27 87  1  0  0  0  0
 28 67  2  0  0  0  0
 29 50  1  0  0  0  0
 29 68  1  0  0  0  0
 30 54  1  0  0  0  0
 30 68  1  0  0  0  0
 31 69  1  0  0  0  0
 31 72  1  0  0  0  0
 32 73  1  0  0  0  0
 32 79  2  0  0  0  0
 33 51  1  0  0  0  0
 33 74  1  0  0  0  0
 33 80  2  0  0  0  0
 34 63  1  0  0  0  0
 34 70  1  0  0  0  0
 34 81  2  0  0  0  0
 35 64  1  0  0  0  0
 35 75  1  0  0  0  0
 35 82  2  0  0  0  0
 36 71  1  0  0  0  0
 36 76  1  0  0  0  0
 36 83  2  0  0  0  0
 37 40  1  0  0  0  0
 38 51  1  0  0  0  0
 39 70  1  0  0  0  0
 40 42  1  0  0  0  0
 41 43  1  0  0  0  0
 41 45  1  0  0  0  0
 42 49  1  0  0  0  0
 43 52  1  0  0  0  0
 44 47  1  0  0  0  0
 44 50  1  0  0  0  0
 45 71  1  0  0  0  0
 46 52  1  0  0  0  0
 46 71  1  0  0  0  0
 47 77  1  0  0  0  0
 48 53  1  0  0  0  0
 48 77  1  0  0  0  0
 49 74  1  0  0  0  0
 50 53  1  0  0  0  0
 51 70  1  0  0  0  0
 52 69  1  0  0  0  0
 53 76  1  0  0  0  0
 55 64  1  0  0  0  0
 56 65  1  0  0  0  0
 57 65  1  0  0  0  0
 58 66  1  0  0  0  0
 59 66  1  0  0  0  0
 60 66  1  0  0  0  0
 61 78  1  0  0  0  0
 62 85  1  0  0  0  0
 63 66  1  0  0  0  0
 63 75  1  0  0  0  0
 64 78  1  0  0  0  0
 65 68  1  0  0  0  0
 67 69  1  0  0  0  0
M  CHG  2  77   1  78   1
M  ISO  4  36 100  62 101  76 100  85 101
M  END
> <Batch ID>
0131

> <Smiles>
CNC(C)C(=O)NC(C(=O)N1Cc2cc([101O:1][101CH2:1]c3cc(C4CCNCC4[100NH:0][100C:0](=O)N4CCCC(n5nc(-c6ccc(Oc7ccc(F)cc7F)cc6)c(C(N)=O)c5N)C4)n(C(C)C)c3C)ccc2CC1C(=O)NC1CCCc2ccccc21)C(C)(C)C

> <Shape>
0.210

> <Color>
0.081

> <Negative vol penalty>
0.000

$$$$

  -OEChem-04052320503D

 83 92  0     1  0  0  0  0  0999 V2000
  -27.6406  -24.6436   38.1338 C   0  0  0  0  0  0  0  0  0  0  0  0
  -27.6427  -23.9052   36.9547 C   0  0  0  0  0  0  0  0  0  0  0  0
  -23.0752   -9.8682   19.9403 C   0  0  0  0  0  0  0  0  0  0  0  0
  -23.8341   -9.8747   22.2340 C   0  0  0  0  0  0  0  0  0  0  0  0
  -28.5520  -25.6849   38.3045 C   0  0  0  0  0  0  0  0  0  0  0  0
  -28.5556  -24.2084   35.9451 C   0  0  0  0  0  0  0  0  0  0  0  0
  -30.7114  -17.4127   24.9125 C   0  0  0  0  0  0  0  0  0  0  0  0
  -31.2706  -20.2615   32.1299 C   0  0  0  0  0  0  0  0  0  0  0  0
  -30.8348  -17.6736   26.2771 C   0  0  0  0  0  0  0  0  0  0  0  0
  -22.3313   -8.7150   20.1897 C   0  0  0  0  0  0  0  0  0  0  0  0
  -23.0901   -8.7214   22.4834 C   0  0  0  0  0  0  0  0  0  0  0  0
  -30.9929  -19.8844   30.8167 C   0  0  0  0  0  0  0  0  0  0  0  0
  -19.8617   -7.9234   23.0844 C   0  0  0  0  0  0  0  0  0  0  0  0
  -19.1043   -7.8832   24.2549 C   0  0  0  0  0  0  0  0  0  0  0  0
  -32.6116  -21.4862   30.0208 C   0  0  0  0  0  0  0  0  0  0  0  0
  -29.6008  -19.7315   25.9953 C   0  0  0  0  0  0  0  0  0  0  0  0
  -20.3454   -5.9456   24.9915 C   0  0  0  0  0  0  0  0  0  0  0  0
  -23.8267  -10.4480   20.9625 C   0  0  0  0  0  0  0  0  0  0  0  0
  -24.1685  -12.9732   20.8432 C   0  0  0  0  0  0  0  0  0  0  0  0
  -29.4828  -25.9947   37.3004 C   0  0  0  0  0  0  0  0  0  0  0  0
  -32.2146  -21.2631   32.3983 C   0  0  0  0  0  0  0  0  0  0  0  0
  -29.4793  -25.2556   36.1020 C   0  0  0  0  0  0  0  0  0  0  0  0
  -30.0327  -18.3112   24.0892 C   0  0  0  0  0  0  0  0  0  0  0  0
  -32.9013  -21.8723   31.3384 C   0  0  0  0  0  0  0  0  0  0  0  0
  -30.2795  -18.8329   26.8186 C   0  0  0  0  0  0  0  0  0  0  0  0
  -29.4774  -19.4706   24.6306 C   0  0  0  0  0  0  0  0  0  0  0  0
  -22.3387   -8.1416   21.4612 C   0  0  0  0  0  0  0  0  0  0  0  0
  -31.6613  -20.4988   29.7618 C   0  0  0  0  0  0  0  0  0  0  0  0
  -20.8610   -6.9747   22.8673 C   0  0  0  0  0  0  0  0  0  0  0  0
  -19.3461   -6.8944   25.2085 C   0  0  0  0  0  0  0  0  0  0  0  0
  -21.1028   -5.9858   23.8208 C   0  0  0  0  0  0  0  0  0  0  0  0
  -24.5959  -11.6390   20.7053 C   0  0  0  0  0  0  0  0  0  0  0  0
  -25.2608  -13.7228   20.4805 C   0  0  0  0  0  0  0  0  0  0  0  0
  -22.8979  -13.4889   21.2616 C   0  0  0  0  0  0  0  0  0  0  0  0
  -32.1167  -24.1274   33.7730 C   0  0  0  0  0  0  0  0  0  0  0  0
  -35.3353  -23.9883   33.3943 C   0  0  0  0  0  0  0  0  0  0  0  0
  -38.0003  -22.6868   31.7059 C   0  0  0  0  0  0  0  0  0  0  0  0
  -30.7373  -14.7522   20.6539 C   0  0  0  0  0  0  0  0  0  0  0  0
  -30.4171  -27.1598   37.5112 C   0  0  0  0  0  0  0  0  0  0  0  0
  -32.5221  -21.6396   33.8217 C   0  0  0  0  0  0  0  0  0  0  0  0
  -33.9385  -22.9387   31.5743 C   0  0  0  0  0  0  0  0  0  0  0  0
  -31.5994  -27.1748   36.5456 C   0  0  0  0  0  0  0  0  0  0  0  0
  -29.6102  -12.3573   18.2862 C   0  0  0  0  0  0  0  0  0  0  0  0
  -31.1262  -26.9187   35.1182 C   0  0  0  0  0  0  0  0  0  0  0  0
  -28.1715  -12.0646   18.7156 C   0  0  0  0  0  0  0  0  0  0  0  0
  -30.5242  -12.5784   19.4895 C   0  0  0  0  0  0  0  0  0  0  0  0
  -28.6212  -13.3091   20.8719 C   0  0  0  0  0  0  0  0  0  0  0  0
  -30.9569  -17.9747   20.7392 C   0  0  0  0  0  0  0  0  0  0  0  0
  -30.4704  -25.5381   34.9938 C   0  0  1  0  0  0  0  0  0  0  0  0
  -29.9052  -17.9959   22.5474 C   0  0  2  0  0  0  0  0  0  0  0  0
  -33.1300  -23.0327   33.9533 C   0  0  1  0  0  0  0  0  0  0  0  0
  -27.6485  -13.1348   19.6928 C   0  0  2  0  0  0  0  0  0  0  0  0
  -30.8217  -16.9473   21.8715 C   0  0  1  0  0  0  0  0  0  0  0  0
  -28.7472  -20.4449   23.7666 C   0  0  0  0  0  0  0  0  0  0  0  0
  -40.5052  -22.7913   31.5975 C   0  0  0  0  0  0  0  0  0  0  0  0
  -35.1590  -26.6832   31.9741 C   0  0  0  0  0  0  0  0  0  0  0  0
  -37.4617  -26.2823   31.0767 C   0  0  0  0  0  0  0  0  0  0  0  0
  -37.0966  -26.4532   33.5385 C   0  0  0  0  0  0  0  0  0  0  0  0
  -38.2642  -19.8116   32.3561 C   0  0  0  0  0  0  0  0  0  0  0  0
  -30.4124  -19.1131   28.2866 C   0  0  0  0  0  0  0  0  0  1  0  0
  -36.3024  -24.3924   32.3078 C   0  0  1  0  0  0  0  0  0  0  0  0
  -39.3022  -22.0777   32.1943 C   0  0  2  0  0  0  0  0  0  0  0  0
  -36.4840  -25.9341   32.2194 C   0  0  0  0  0  0  0  0  0  0  0  0
  -25.8609  -11.5432   20.2876 N   0  0  0  0  0  0  0  0  0  0  0  0
  -26.2379  -12.8269   20.1597 N   0  0  0  0  0  0  0  0  0  0  0  0
  -34.1994  -23.2767   32.9832 N   0  0  0  0  0  0  0  0  0  0  0  0
  -29.9720  -13.6097   20.3717 N   0  0  0  0  0  0  0  0  0  0  0  0
  -25.4713  -15.0543   20.4079 N   0  0  0  0  0  0  0  0  0  0  0  0
  -21.8858  -12.5796   21.5983 N   0  0  0  0  0  0  0  0  0  0  0  0
  -31.4796  -24.5022   34.9405 N   0  0  0  0  0  0  0  0  0  0  0  0
  -37.5368  -23.6592   32.5666 N   0  0  0  0  0  0  0  0  0  0  0  0
  -30.1437  -15.6909   21.4914 N   0  0  0  0  0  0  0  0  0  0  0  0
  -30.5952  -19.0169   21.7141 N   0  3  0  0  0  0  0  0  0  0  0  0
  -39.3745  -20.6380   31.8162 N   0  3  0  0  0  0  0  0  0  0  0  0
  -22.6616  -14.7195   21.3192 O   0  0  0  0  0  0  0  0  0  0  0  0
  -31.9280  -24.5983   32.6575 O   0  0  0  0  0  0  0  0  0  0  0  0
  -35.5824  -24.2867   34.5654 O   0  0  0  0  0  0  0  0  0  0  0  0
  -37.4515  -22.3377   30.6631 O   0  0  0  0  0  0  0  0  0  0  0  0
  -31.8680  -14.9336   20.1894 O   0  0  0  0  0  0  0  0  0  0  0  0
  -21.6126   -7.0164   21.7050 O   0  0  0  0  0  0  0  0  0  0  0  0
  -31.3917  -20.1331   28.4790 O   0  0  0  0  0  0  0  0  0  1  0  0
  -18.6197   -6.8568   26.3332 F   0  0  0  0  0  0  0  0  0  0  0  0
  -22.0623   -5.0724   23.6184 F   0  0  0  0  0  0  0  0  0  0  0  0
  1  2  1  0  0  0  0
  1  5  2  0  0  0  0
  2  6  2  0  0  0  0
  3 10  2  0  0  0  0
  3 18  1  0  0  0  0
  4 11  1  0  0  0  0
  4 18  2  0  0  0  0
  5 20  1  0  0  0  0
  6 22  1  0  0  0  0
  7  9  2  0  0  0  0
  7 23  1  0  0  0  0
  8 12  2  0  0  0  0
  8 21  1  0  0  0  0
  9 25  1  0  0  0  0
 10 27  1  0  0  0  0
 11 27  2  0  0  0  0
 12 28  1  0  0  0  0
 13 14  2  0  0  0  0
 13 29  1  0  0  0  0
 14 30  1  0  0  0  0
 15 24  1  0  0  0  0
 15 28  2  0  0  0  0
 16 25  2  0  0  0  0
 16 26  1  0  0  0  0
 17 30  2  0  0  0  0
 17 31  1  0  0  0  0
 18 32  1  0  0  0  0
 19 32  1  0  0  0  0
 19 33  2  0  0  0  0
 19 34  1  0  0  0  0
 20 22  2  0  0  0  0
 20 39  1  0  0  0  0
 21 24  2  0  0  0  0
 21 40  1  0  0  0  0
 22 49  1  0  0  0  0
 23 26  2  0  0  0  0
 23 50  1  0  0  0  0
 24 41  1  0  0  0  0
 25 60  1  0  0  0  0
 26 54  1  0  0  0  0
 27 80  1  0  0  0  0
 28 81  1  0  0  0  0
 29 31  2  0  0  0  0
 29 80  1  0  0  0  0
 30 82  1  0  0  0  0
 31 83  1  0  0  0  0
 32 64  2  0  0  0  0
 33 65  1  0  0  0  0
 33 68  1  0  0  0  0
 34 69  1  0  0  0  0
 34 75  2  0  0  0  0
 35 51  1  0  0  0  0
 35 70  1  0  0  0  0
 35 76  2  0  0  0  0
 36 61  1  0  0  0  0
 36 66  1  0  0  0  0
 36 77  2  0  0  0  0
 37 62  1  0  0  0  0
 37 71  1  0  0  0  0
 37 78  2  0  0  0  0
 38 67  1  0  0  0  0
 38 72  1  0  0  0  0
 38 79  2  0  0  0  0
 39 42  1  0  0  0  0
 40 51  1  0  0  0  0
 41 66  1  0  0  0  0
 42 44  1  0  0  0  0
 43 45  1  0  0  0  0
 43 46  1  0  0  0  0
 44 49  1  0  0  0  0
 45 52  1  0  0  0  0
 46 67  1  0  0  0  0
 47 52  1  0  0  0  0
 47 67  1  0  0  0  0
 48 53  1  0  0  0  0
 48 73  1  0  0  0  0
 49 70  1  0  0  0  0
 50 53  1  0  0  0  0
 50 73  1  0  0  0  0
 51 66  1  0  0  0  0
 52 65  1  0  0  0  0
 53 72  1  0  0  0  0
 55 62  1  0  0  0  0
 56 63  1  0  0  0  0
 57 63  1  0  0  0  0
 58 63  1  0  0  0  0
 59 74  1  0  0  0  0
 60 81  1  0  0  0  0
 61 63  1  0  0  0  0
 61 71  1  0  0  0  0
 62 74  1  0  0  0  0
 64 65  1  0  0  0  0
M  CHG  2  73   1  74   1
M  ISO  4  38 100  60 101  72 100  81 101
M  END
> <Batch ID>
0131

> <Smiles>
CNC(C)C(=O)NC(C(=O)N1Cc2cc([101O:1][101CH2:1]c3ccc(C4NCC4[100NH:0][100C:0](=O)N4CCCC(n5nc(-c6ccc(Oc7ccc(F)cc7F)cc6)c(C(N)=O)c5N)C4)c(C)c3)ccc2CC1C(=O)NC1CCCc2ccccc21)C(C)(C)C

> <Shape>
0.172

> <Color>
0.188

> <Negative vol penalty>
0.000

$$$$

  -OEChem-04052320503D

 85 93  0     1  0  0  0  0  0999 V2000
  -23.5293  -33.9145   22.4660 C   0  0  0  0  0  0  0  0  0  0  0  0
  -24.2011  -32.6964   22.4499 C   0  0  0  0  0  0  0  0  0  0  0  0
  -22.8730  -10.0819   20.0356 C   0  0  0  0  0  0  0  0  0  0  0  0
  -23.6837  -10.0042   22.3102 C   0  0  0  0  0  0  0  0  0  0  0  0
  -22.1818  -33.9616   22.8206 C   0  0  0  0  0  0  0  0  0  0  0  0
  -23.5258  -31.5246   22.7895 C   0  0  0  0  0  0  0  0  0  0  0  0
  -24.5177  -27.7173   19.6011 C   0  0  0  0  0  0  0  0  0  0  0  0
  -30.0084  -20.0346   19.6481 C   0  0  0  0  0  0  0  0  0  0  0  0
  -22.0457   -8.9888   20.2930 C   0  0  0  0  0  0  0  0  0  0  0  0
  -22.8564   -8.9111   22.5677 C   0  0  0  0  0  0  0  0  0  0  0  0
  -25.7337  -27.0541   19.7600 C   0  0  0  0  0  0  0  0  0  0  0  0
  -29.6027  -21.2899   19.1951 C   0  0  0  0  0  0  0  0  0  0  0  0
  -22.8693   -5.5826   21.9744 C   0  0  0  0  0  0  0  0  0  0  0  0
  -23.4178   -4.5042   22.6684 C   0  0  0  0  0  0  0  0  0  0  0  0
  -24.6047  -25.2800   20.9420 C   0  0  0  0  0  0  0  0  0  0  0  0
  -21.7753   -4.7939   24.4165 C   0  0  0  0  0  0  0  0  0  0  0  0
  -23.6920  -10.5896   21.0441 C   0  0  0  0  0  0  0  0  0  0  0  0
  -24.2306  -13.0809   20.9382 C   0  0  0  0  0  0  0  0  0  0  0  0
  -21.4871  -32.7885   23.1554 C   0  0  0  0  0  0  0  0  0  0  0  0
  -23.3357  -27.1712   20.1218 C   0  0  0  0  0  0  0  0  0  0  0  0
  -22.1680  -31.5561   23.1502 C   0  0  0  0  0  0  0  0  0  0  0  0
  -23.3746  -25.9370   20.7861 C   0  0  0  0  0  0  0  0  0  0  0  0
  -27.9235  -19.7925   20.8446 C   0  0  0  0  0  0  0  0  0  0  0  0
  -27.5178  -21.0479   20.3917 C   0  0  0  0  0  0  0  0  0  0  0  0
  -29.1688  -19.2858   20.4729 C   0  0  0  0  0  0  0  0  0  0  0  0
  -22.0374   -8.4034   21.5591 C   0  0  0  0  0  0  0  0  0  0  0  0
  -25.7778  -25.8367   20.4331 C   0  0  0  0  0  0  0  0  0  0  0  0
  -28.3575  -21.7965   19.5669 C   0  0  0  0  0  0  0  0  0  0  0  0
  -21.7740   -6.2668   22.5014 C   0  0  0  0  0  0  0  0  0  0  0  0
  -22.8708   -4.1098   23.8894 C   0  0  0  0  0  0  0  0  0  0  0  0
  -21.2269   -5.8724   23.7224 C   0  0  0  0  0  0  0  0  0  0  0  0
  -24.5472  -11.7185   20.7786 C   0  0  0  0  0  0  0  0  0  0  0  0
  -25.3703  -13.7453   20.5556 C   0  0  0  0  0  0  0  0  0  0  0  0
  -23.0152  -13.6913   21.3918 C   0  0  0  0  0  0  0  0  0  0  0  0
  -21.2047  -28.0936   22.2924 C   0  0  0  0  0  0  0  0  0  0  0  0
  -19.6134  -25.4530   21.2836 C   0  0  0  0  0  0  0  0  0  0  0  0
  -19.7455  -22.3759   19.8138 C   0  0  0  0  0  0  0  0  0  0  0  0
  -30.9205  -14.3243   20.6222 C   0  0  0  0  0  0  0  0  0  0  0  0
  -20.0433  -32.8953   23.5778 C   0  0  0  0  0  0  0  0  0  0  0  0
  -22.0280  -27.8861   19.9186 C   0  0  0  0  0  0  0  0  0  0  0  0
  -22.1308  -25.2984   21.3462 C   0  0  0  0  0  0  0  0  0  0  0  0
  -19.3035  -31.5601   23.5614 C   0  0  0  0  0  0  0  0  0  0  0  0
  -29.5423  -12.0630   18.2423 C   0  0  0  0  0  0  0  0  0  0  0  0
  -20.1413  -30.4773   24.2339 C   0  0  0  0  0  0  0  0  0  0  0  0
  -28.0964  -11.8796   18.7068 C   0  0  0  0  0  0  0  0  0  0  0  0
  -30.5015  -12.1977   19.4229 C   0  0  0  0  0  0  0  0  0  0  0  0
  -28.6963  -13.0624   20.8608 C   0  0  0  0  0  0  0  0  0  0  0  0
  -21.4636  -30.2601   23.4882 C   0  0  1  0  0  0  0  0  0  0  0  0
  -20.9650  -27.4885   20.9381 C   0  0  1  0  0  0  0  0  0  0  0  0
  -27.6845  -12.9781   19.7052 C   0  0  2  0  0  0  0  0  0  0  0  0
  -27.0210  -18.9907   21.7293 C   0  0  0  0  0  0  0  0  0  0  0  0
  -26.1842  -21.5985   20.7856 C   0  0  0  0  0  0  0  0  0  0  0  0
  -18.2877  -20.4403   19.1612 C   0  0  0  0  0  0  0  0  0  0  0  0
  -19.4874  -24.5675   24.2008 C   0  0  0  0  0  0  0  0  0  0  0  0
  -18.9041  -22.2667   23.4046 C   0  0  0  0  0  0  0  0  0  0  0  0
  -17.3858  -24.1809   22.9016 C   0  0  0  0  0  0  0  0  0  0  0  0
  -20.4180  -22.6855   16.9484 C   0  0  0  0  0  0  0  0  0  0  0  0
  -30.9718  -17.6235   20.9328 C   0  0  0  0  0  0  0  0  0  0  0  0
  -31.1857  -16.4496   21.8760 C   0  0  0  0  0  0  0  0  0  0  0  0
  -27.9484  -25.3795   19.5757 C   0  0  0  0  0  0  0  0  0  1  0  0
  -28.8026  -24.1308   19.4721 C   0  0  0  0  0  0  0  0  0  0  0  0
  -19.5944  -23.9978   21.6849 C   0  0  1  0  0  0  0  0  0  0  0  0
  -18.9130  -21.7507   18.7090 C   0  0  2  0  0  0  0  0  0  0  0  0
  -18.8668  -23.7659   23.0392 C   0  0  0  0  0  0  0  0  0  0  0  0
  -25.7904  -11.5271   20.3295 N   0  0  0  0  0  0  0  0  0  0  0  0
  -26.2651  -12.7781   20.2035 N   0  0  0  0  0  0  0  0  0  0  0  0
  -20.8775  -26.0391   21.1274 N   0  0  0  0  0  0  0  0  0  0  0  0
  -30.0550  -13.2571   20.3308 N   0  0  0  0  0  0  0  0  0  0  0  0
  -25.6841  -15.0565   20.4893 N   0  0  0  0  0  0  0  0  0  0  0  0
  -21.9422  -12.8617   21.7450 N   0  0  0  0  0  0  0  0  0  0  0  0
  -29.5979  -18.0169   20.9206 N   0  0  0  0  0  0  0  0  0  0  0  0
  -21.2462  -29.4748   22.2922 N   0  0  0  0  0  0  0  0  0  0  0  0
  -19.0114  -23.2722   20.5615 N   0  0  0  0  0  0  0  0  0  0  0  0
  -30.4167  -15.2887   21.4864 N   0  0  0  0  0  0  0  0  0  0  0  0
  -19.7596  -21.4794   17.5129 N   0  3  0  0  0  0  0  0  0  0  0  0
  -22.8789  -14.9361   21.4655 O   0  0  0  0  0  0  0  0  0  0  0  0
  -21.3403  -27.3615   23.2658 O   0  0  0  0  0  0  0  0  0  0  0  0
  -18.5460  -26.0459   21.1081 O   0  0  0  0  0  0  0  0  0  0  0  0
  -20.9276  -22.0942   19.9977 O   0  0  0  0  0  0  0  0  0  0  0  0
  -32.0561  -14.4140   20.1432 O   0  0  0  0  0  0  0  0  0  0  0  0
  -21.2301   -7.3368   21.8107 O   0  0  0  0  0  0  0  0  0  0  0  0
  -26.9634  -25.1875   20.5902 O   0  0  0  0  0  0  0  0  0  1  0  0
  -27.9759  -23.0310   19.1112 O   0  0  0  0  0  0  0  0  0  0  0  0
  -23.3965   -3.0731   24.5551 F   0  0  0  0  0  0  0  0  0  0  0  0
  -20.1739   -6.5251   24.2332 F   0  0  0  0  0  0  0  0  0  0  0  0
  1  2  1  0  0  0  0
  1  5  2  0  0  0  0
  2  6  2  0  0  0  0
  3  9  2  0  0  0  0
  3 17  1  0  0  0  0
  4 10  1  0  0  0  0
  4 17  2  0  0  0  0
  5 19  1  0  0  0  0
  6 21  1  0  0  0  0
  7 11  2  0  0  0  0
  7 20  1  0  0  0  0
  8 12  2  0  0  0  0
  8 25  1  0  0  0  0
  9 26  1  0  0  0  0
 10 26  2  0  0  0  0
 11 27  1  0  0  0  0
 12 28  1  0  0  0  0
 13 14  2  0  0  0  0
 13 29  1  0  0  0  0
 14 30  1  0  0  0  0
 15 22  1  0  0  0  0
 15 27  2  0  0  0  0
 16 30  2  0  0  0  0
 16 31  1  0  0  0  0
 17 32  1  0  0  0  0
 18 32  1  0  0  0  0
 18 33  2  0  0  0  0
 18 34  1  0  0  0  0
 19 21  2  0  0  0  0
 19 39  1  0  0  0  0
 20 22  2  0  0  0  0
 20 40  1  0  0  0  0
 21 48  1  0  0  0  0
 22 41  1  0  0  0  0
 23 24  1  0  0  0  0
 23 25  2  0  0  0  0
 23 51  1  0  0  0  0
 24 28  2  0  0  0  0
 24 52  1  0  0  0  0
 25 71  1  0  0  0  0
 26 81  1  0  0  0  0
 27 82  1  0  0  0  0
 28 83  1  0  0  0  0
 29 31  2  0  0  0  0
 29 81  1  0  0  0  0
 30 84  1  0  0  0  0
 31 85  1  0  0  0  0
 32 65  2  0  0  0  0
 33 66  1  0  0  0  0
 33 69  1  0  0  0  0
 34 70  1  0  0  0  0
 34 76  2  0  0  0  0
 35 49  1  0  0  0  0
 35 72  1  0  0  0  0
 35 77  2  0  0  0  0
 36 62  1  0  0  0  0
 36 67  1  0  0  0  0
 36 78  2  0  0  0  0
 37 63  1  0  0  0  0
 37 73  1  0  0  0  0
 37 79  2  0  0  0  0
 38 68  1  0  0  0  0
 38 74  1  0  0  0  0
 38 80  2  0  0  0  0
 39 42  1  0  0  0  0
 40 49  1  0  0  0  0
 41 67  1  0  0  0  0
 42 44  1  0  0  0  0
 43 45  1  0  0  0  0
 43 46  1  0  0  0  0
 44 48  1  0  0  0  0
 45 50  1  0  0  0  0
 46 68  1  0  0  0  0
 47 50  1  0  0  0  0
 47 68  1  0  0  0  0
 48 72  1  0  0  0  0
 49 67  1  0  0  0  0
 50 66  1  0  0  0  0
 53 63  1  0  0  0  0
 54 64  1  0  0  0  0
 55 64  1  0  0  0  0
 56 64  1  0  0  0  0
 57 75  1  0  0  0  0
 58 59  1  0  0  0  0
 58 71  1  0  0  0  0
 59 74  1  0  0  0  0
 60 61  1  0  0  0  0
 60 82  1  0  0  0  0
 61 83  1  0  0  0  0
 62 64  1  0  0  0  0
 62 73  1  0  0  0  0
 63 75  1  0  0  0  0
 65 66  1  0  0  0  0
M  CHG  1  75   1
M  ISO  4  38 100  60 101  74 100  82 101
M  END
> <Batch ID>
0131

> <Smiles>
CNC(C)C(=O)NC(C(=O)N1Cc2cc([101O:1][101CH2:1]COc3ccc(NCC[100NH:0][100C:0](=O)N4CCCC(n5nc(-c6ccc(Oc7ccc(F)cc7F)cc6)c(C(N)=O)c5N)C4)c(C)c3C)ccc2CC1C(=O)NC1CCCc2ccccc21)C(C)(C)C

> <Shape>
0.331

> <Color>
0.219

> <Negative vol penalty>
0.000

$$$$

  -OEChem-04052320503D

 81 89  0     1  0  0  0  0  0999 V2000
  -32.4960  -23.7854   28.0475 C   0  0  0  0  0  0  0  0  0  0  0  0
  -32.0881  -23.9299   26.7253 C   0  0  0  0  0  0  0  0  0  0  0  0
  -28.1424  -26.6299   15.1314 C   0  0  0  0  0  0  0  0  0  0  0  0
  -29.3448  -25.9831   14.8462 C   0  0  0  0  0  0  0  0  0  0  0  0
  -27.8043  -13.8636   21.9478 C   0  0  0  0  0  0  0  0  0  0  0  0
  -27.4026  -14.4762   19.6455 C   0  0  0  0  0  0  0  0  0  0  0  0
  -31.5845  -23.3647   29.0150 C   0  0  0  0  0  0  0  0  0  0  0  0
  -30.7686  -23.6526   26.3696 C   0  0  0  0  0  0  0  0  0  0  0  0
  -28.7993  -27.1762   23.3116 C   0  0  0  0  0  0  0  0  0  0  0  0
  -27.6244  -26.6002   16.4262 C   0  0  0  0  0  0  0  0  0  0  0  0
  -30.0293  -25.3064   15.8558 C   0  0  0  0  0  0  0  0  0  0  0  0
  -26.9171  -12.7951   21.8183 C   0  0  0  0  0  0  0  0  0  0  0  0
  -26.5154  -13.4077   19.5160 C   0  0  0  0  0  0  0  0  0  0  0  0
  -29.1643  -27.1281   21.9668 C   0  0  0  0  0  0  0  0  0  0  0  0
  -24.4832  -10.1200   22.1976 C   0  0  0  0  0  0  0  0  0  0  0  0
  -23.5580   -9.9156   23.2213 C   0  0  0  0  0  0  0  0  0  0  0  0
  -27.0764  -26.0382   21.4454 C   0  0  0  0  0  0  0  0  0  0  0  0
  -22.6429  -12.1178   22.8339 C   0  0  0  0  0  0  0  0  0  0  0  0
  -28.0470  -14.7042   20.8614 C   0  0  0  0  0  0  0  0  0  0  0  0
  -30.3492  -15.7974   20.7497 C   0  0  0  0  0  0  0  0  0  0  0  0
  -30.2507  -23.0914   28.6728 C   0  0  0  0  0  0  0  0  0  0  0  0
  -27.5728  -26.6449   23.7356 C   0  0  0  0  0  0  0  0  0  0  0  0
  -29.8387  -23.2266   27.3333 C   0  0  0  0  0  0  0  0  0  0  0  0
  -26.6971  -26.0830   22.7957 C   0  0  0  0  0  0  0  0  0  0  0  0
  -28.3088  -25.9236   17.4358 C   0  0  0  0  0  0  0  0  0  0  0  0
  -29.5113  -25.2767   17.1507 C   0  0  0  0  0  0  0  0  0  0  0  0
  -26.2726  -12.5672   20.6024 C   0  0  0  0  0  0  0  0  0  0  0  0
  -28.3040  -26.5565   21.0340 C   0  0  0  0  0  0  0  0  0  0  0  0
  -24.4883  -11.3234   21.4922 C   0  0  0  0  0  0  0  0  0  0  0  0
  -22.6379  -10.9145   23.5394 C   0  0  0  0  0  0  0  0  0  0  0  0
  -23.5682  -12.3222   21.8103 C   0  0  0  0  0  0  0  0  0  0  0  0
  -28.9630  -15.8084   20.9947 C   0  0  0  0  0  0  0  0  0  0  0  0
  -30.7558  -17.0813   21.0195 C   0  0  0  0  0  0  0  0  0  0  0  0
  -31.1938  -14.7227   20.3168 C   0  0  0  0  0  0  0  0  0  0  0  0
  -26.7019  -24.3094   25.7081 C   0  0  0  0  0  0  0  0  0  0  0  0
  -23.7229  -25.4477   25.1149 C   0  0  0  0  0  0  0  0  0  0  0  0
  -21.6392  -27.1613   23.0248 C   0  0  0  0  0  0  0  0  0  0  0  0
  -30.0374  -22.6007   20.6129 C   0  0  0  0  0  0  0  0  0  0  0  0
  -29.3136  -22.5939   29.7447 C   0  0  0  0  0  0  0  0  0  0  0  0
  -27.1823  -26.7285   25.1858 C   0  0  0  0  0  0  0  0  0  0  0  0
  -25.3602  -25.5170   23.1966 C   0  0  0  0  0  0  0  0  0  0  0  0
  -27.8404  -22.6809   29.3542 C   0  0  0  0  0  0  0  0  0  0  0  0
  -28.3044  -20.9157   23.2272 C   0  0  0  0  0  0  0  0  0  0  0  0
  -27.6287  -22.1368   27.9449 C   0  0  0  0  0  0  0  0  0  0  0  0
  -28.4303  -19.4371   22.8559 C   0  0  0  0  0  0  0  0  0  0  0  0
  -28.1420  -21.7964   21.9903 C   0  0  0  0  0  0  0  0  0  0  0  0
  -29.3087  -20.1379   20.5896 C   0  0  0  0  0  0  0  0  0  0  0  0
  -28.4097  -22.9593   26.9129 C   0  0  1  0  0  0  0  0  0  0  0  0
  -26.1332  -25.6945   25.5827 C   0  0  1  0  0  0  0  0  0  0  0  0
  -29.5307  -19.2158   21.8006 C   0  0  2  0  0  0  0  0  0  0  0  0
  -19.2509  -27.8953   22.7911 C   0  0  0  0  0  0  0  0  0  0  0  0
  -22.9289  -22.6071   24.3332 C   0  0  0  0  0  0  0  0  0  0  0  0
  -20.8894  -23.5546   23.2327 C   0  0  0  0  0  0  0  0  0  0  0  0
  -21.2215  -23.8318   25.6895 C   0  0  0  0  0  0  0  0  0  0  0  0
  -22.3981  -30.0219   23.0118 C   0  0  0  0  0  0  0  0  0  0  0  0
  -27.7285  -25.9079   18.8194 C   0  0  0  0  0  0  0  0  0  1  0  0
  -31.4527  -23.9094   17.9170 C   0  0  0  0  0  0  0  0  0  0  0  0
  -31.9635  -23.2512   19.1896 C   0  0  0  0  0  0  0  0  0  0  0  0
  -22.6545  -25.1626   24.0871 C   0  0  1  0  0  0  0  0  0  0  0  0
  -20.6379  -28.2715   23.2885 C   0  0  2  0  0  0  0  0  0  0  0  0
  -21.9495  -23.7978   24.3280 C   0  0  0  0  0  0  0  0  0  0  0  0
  -28.5188  -17.0044   21.3900 N   0  0  0  0  0  0  0  0  0  0  0  0
  -29.6323  -17.7569   21.3955 N   0  0  0  0  0  0  0  0  0  0  0  0
  -25.0264  -25.6167   24.6270 N   0  0  0  0  0  0  0  0  0  0  0  0
  -29.2179  -21.5388   21.0300 N   0  0  0  0  0  0  0  0  0  0  0  0
  -31.9613  -17.6869   20.9696 N   0  0  0  0  0  0  0  0  0  0  0  0
  -30.6132  -13.4683   20.0851 N   0  0  0  0  0  0  0  0  0  0  0  0
  -30.2179  -24.5868   18.1601 N   0  0  0  0  0  0  0  0  0  0  0  0
  -27.7232  -24.2021   26.6328 N   0  0  0  0  0  0  0  0  0  0  0  0
  -21.7549  -26.3110   24.1041 N   0  0  0  0  0  0  0  0  0  0  0  0
  -31.0368  -22.2689   19.7064 N   0  0  0  0  0  0  0  0  0  0  0  0
  -21.0603  -29.5241   22.6004 N   0  3  0  0  0  0  0  0  0  0  0  0
  -32.4296  -14.8662   20.1565 O   0  0  0  0  0  0  0  0  0  0  0  0
  -26.2468  -23.4046   25.0182 O   0  0  0  0  0  0  0  0  0  0  0  0
  -23.4111  -25.5248   26.3059 O   0  0  0  0  0  0  0  0  0  0  0  0
  -22.2541  -27.0566   21.9658 O   0  0  0  0  0  0  0  0  0  0  0  0
  -29.8927  -23.7575   21.0224 O   0  0  0  0  0  0  0  0  0  0  0  0
  -25.4070  -11.5245   20.4756 O   0  0  0  0  0  0  0  0  0  0  0  0
  -28.6580  -26.5077   19.7209 O   0  0  0  0  0  0  0  0  0  1  0  0
  -21.7484  -10.7175   24.5214 F   0  0  0  0  0  0  0  0  0  0  0  0
  -23.5674  -13.4799   21.1353 F   0  0  0  0  0  0  0  0  0  0  0  0
  1  2  1  0  0  0  0
  1  7  2  0  0  0  0
  2  8  2  0  0  0  0
  3  4  1  0  0  0  0
  3 10  2  0  0  0  0
  4 11  2  0  0  0  0
  5 12  2  0  0  0  0
  5 19  1  0  0  0  0
  6 13  1  0  0  0  0
  6 19  2  0  0  0  0
  7 21  1  0  0  0  0
  8 23  1  0  0  0  0
  9 14  2  0  0  0  0
  9 22  1  0  0  0  0
 10 25  1  0  0  0  0
 11 26  1  0  0  0  0
 12 27  1  0  0  0  0
 13 27  2  0  0  0  0
 14 28  1  0  0  0  0
 15 16  2  0  0  0  0
 15 29  1  0  0  0  0
 16 30  1  0  0  0  0
 17 24  1  0  0  0  0
 17 28  2  0  0  0  0
 18 30  2  0  0  0  0
 18 31  1  0  0  0  0
 19 32  1  0  0  0  0
 20 32  1  0  0  0  0
 20 33  2  0  0  0  0
 20 34  1  0  0  0  0
 21 23  2  0  0  0  0
 21 39  1  0  0  0  0
 22 24  2  0  0  0  0
 22 40  1  0  0  0  0
 23 48  1  0  0  0  0
 24 41  1  0  0  0  0
 25 26  2  0  0  0  0
 25 56  1  0  0  0  0
 26 68  1  0  0  0  0
 27 78  1  0  0  0  0
 28 79  1  0  0  0  0
 29 31  2  0  0  0  0
 29 78  1  0  0  0  0
 30 80  1  0  0  0  0
 31 81  1  0  0  0  0
 32 62  2  0  0  0  0
 33 63  1  0  0  0  0
 33 66  1  0  0  0  0
 34 67  1  0  0  0  0
 34 73  2  0  0  0  0
 35 49  1  0  0  0  0
 35 69  1  0  0  0  0
 35 74  2  0  0  0  0
 36 59  1  0  0  0  0
 36 64  1  0  0  0  0
 36 75  2  0  0  0  0
 37 60  1  0  0  0  0
 37 70  1  0  0  0  0
 37 76  2  0  0  0  0
 38 65  1  0  0  0  0
 38 71  1  0  0  0  0
 38 77  2  0  0  0  0
 39 42  1  0  0  0  0
 40 49  1  0  0  0  0
 41 64  1  0  0  0  0
 42 44  1  0  0  0  0
 43 45  1  0  0  0  0
 43 46  1  0  0  0  0
 44 48  1  0  0  0  0
 45 50  1  0  0  0  0
 46 65  1  0  0  0  0
 47 50  1  0  0  0  0
 47 65  1  0  0  0  0
 48 69  1  0  0  0  0
 49 64  1  0  0  0  0
 50 63  1  0  0  0  0
 51 60  1  0  0  0  0
 52 61  1  0  0  0  0
 53 61  1  0  0  0  0
 54 61  1  0  0  0  0
 55 72  1  0  0  0  0
 56 79  1  0  0  0  0
 57 58  1  0  0  0  0
 57 68  1  0  0  0  0
 58 71  1  0  0  0  0
 59 61  1  0  0  0  0
 59 70  1  0  0  0  0
 60 72  1  0  0  0  0
 62 63  1  0  0  0  0
M  CHG  1  72   1
M  ISO  4  38 100  56 101  71 100  79 101
M  END
> <Batch ID>
0131

> <Smiles>
CNC(C)C(=O)NC(C(=O)N1Cc2cc([101O:1][101CH2:1]c3ccccc3NCC[100NH:0][100C:0](=O)N3CCCC(n4nc(-c5ccc(Oc6ccc(F)cc6F)cc5)c(C(N)=O)c4N)C3)ccc2CC1C(=O)NC1CCCc2ccccc21)C(C)(C)C

> <Shape>
0.202

> <Color>
0.059

> <Negative vol penalty>
0.000

$$$$

  -OEChem-04052320503D

 82 90  0     1  0  0  0  0  0999 V2000
  -19.8742  -30.8621   21.3036 C   0  0  0  0  0  0  0  0  0  0  0  0
  -21.1817  -30.3971   21.4009 C   0  0  0  0  0  0  0  0  0  0  0  0
  -26.3738  -12.9345   21.5960 C   0  0  0  0  0  0  0  0  0  0  0  0
  -25.8738  -13.8234   19.4058 C   0  0  0  0  0  0  0  0  0  0  0  0
  -18.8110  -30.0249   21.6396 C   0  0  0  0  0  0  0  0  0  0  0  0
  -21.4270  -29.0949   21.8352 C   0  0  0  0  0  0  0  0  0  0  0  0
  -24.8895  -26.7219   19.0024 C   0  0  0  0  0  0  0  0  0  0  0  0
  -25.1331  -12.2976   21.6208 C   0  0  0  0  0  0  0  0  0  0  0  0
  -24.6331  -13.1865   19.4306 C   0  0  0  0  0  0  0  0  0  0  0  0
  -26.2271  -27.0422   19.2307 C   0  0  0  0  0  0  0  0  0  0  0  0
  -23.7379   -9.5090   20.3133 C   0  0  0  0  0  0  0  0  0  0  0  0
  -23.6981   -8.1836   20.7461 C   0  0  0  0  0  0  0  0  0  0  0  0
  -26.4748  -25.0396   20.5525 C   0  0  0  0  0  0  0  0  0  0  0  0
  -28.6952  -21.2171   17.0633 C   0  0  0  0  0  0  0  0  0  0  0  0
  -29.2221  -23.4298   16.2820 C   0  0  0  0  0  0  0  0  0  0  0  0
  -22.2065   -8.8140   22.5391 C   0  0  0  0  0  0  0  0  0  0  0  0
  -26.7442  -13.6974   20.4885 C   0  0  0  0  0  0  0  0  0  0  0  0
  -29.2390  -13.8356   19.9741 C   0  0  0  0  0  0  0  0  0  0  0  0
  -19.0429  -28.7087   22.0690 C   0  0  0  0  0  0  0  0  0  0  0  0
  -24.3307  -25.5616   19.5574 C   0  0  0  0  0  0  0  0  0  0  0  0
  -20.3660  -28.2398   22.1784 C   0  0  0  0  0  0  0  0  0  0  0  0
  -25.1306  -24.7054   20.3276 C   0  0  0  0  0  0  0  0  0  0  0  0
  -28.7097  -22.1598   16.0414 C   0  0  0  0  0  0  0  0  0  0  0  0
  -24.2627  -12.4236   20.5381 C   0  0  0  0  0  0  0  0  0  0  0  0
  -27.0192  -26.2025   20.0083 C   0  0  0  0  0  0  0  0  0  0  0  0
  -23.0121  -10.4869   20.9934 C   0  0  0  0  0  0  0  0  0  0  0  0
  -22.9324   -7.8361   21.8590 C   0  0  0  0  0  0  0  0  0  0  0  0
  -22.2463  -10.1394   22.1062 C   0  0  0  0  0  0  0  0  0  0  0  0
  -28.0255  -14.3559   20.4625 C   0  0  0  0  0  0  0  0  0  0  0  0
  -29.2009  -21.5910   18.2979 C   0  0  0  0  0  0  0  0  0  0  0  0
  -29.7040  -23.7048   17.5516 C   0  0  0  0  0  0  0  0  0  0  0  0
  -30.1501  -14.8437   20.1743 C   0  0  0  0  0  0  0  0  0  0  0  0
  -29.5176  -12.5556   19.3915 C   0  0  0  0  0  0  0  0  0  0  0  0
  -21.9849  -24.9660   21.6180 C   0  0  0  0  0  0  0  0  0  0  0  0
  -22.6013  -21.8806   20.8288 C   0  0  0  0  0  0  0  0  0  0  0  0
  -24.8262  -19.5843   19.6356 C   0  0  0  0  0  0  0  0  0  0  0  0
  -29.6348  -20.7784   20.6426 C   0  0  0  0  0  0  0  0  0  0  0  0
  -17.8638  -27.8564   22.4663 C   0  0  0  0  0  0  0  0  0  0  0  0
  -22.8934  -25.2164   19.2796 C   0  0  0  0  0  0  0  0  0  0  0  0
  -24.5841  -23.4375   20.9293 C   0  0  0  0  0  0  0  0  0  0  0  0
  -18.1917  -26.3684   22.5597 C   0  0  0  0  0  0  0  0  0  0  0  0
  -31.0440  -18.5667   23.0509 C   0  0  0  0  0  0  0  0  0  0  0  0
  -19.4894  -26.1553   23.3327 C   0  0  0  0  0  0  0  0  0  0  0  0
  -30.5452  -17.1879   22.6125 C   0  0  0  0  0  0  0  0  0  0  0  0
  -29.9890  -19.6488   22.8275 C   0  0  0  0  0  0  0  0  0  0  0  0
  -28.9425  -18.3314   21.0279 C   0  0  0  0  0  0  0  0  0  0  0  0
  -20.6714  -26.8255   22.6218 C   0  0  1  0  0  0  0  0  0  0  0  0
  -22.2931  -24.2754   20.3196 C   0  0  1  0  0  0  0  0  0  0  0  0
  -29.9941  -17.2193   21.1734 C   0  0  2  0  0  0  0  0  0  0  0  0
  -28.1780  -21.8104   14.6931 C   0  0  0  0  0  0  0  0  0  0  0  0
  -25.6720  -17.3665   18.8212 C   0  0  0  0  0  0  0  0  0  0  0  0
  -22.9005  -21.3087   23.8110 C   0  0  0  0  0  0  0  0  0  0  0  0
  -24.0335  -19.1575   23.2138 C   0  0  0  0  0  0  0  0  0  0  0  0
  -21.6669  -19.5502   22.5302 C   0  0  0  0  0  0  0  0  0  0  0  0
  -24.0257  -20.1719   16.8476 C   0  0  0  0  0  0  0  0  0  0  0  0
  -30.4840  -26.8962   19.2584 C   0  0  0  0  0  0  0  0  0  0  0  0
  -30.7481  -25.4108   19.0433 C   0  0  0  0  0  0  0  0  0  0  0  0
  -29.0020  -27.2493   19.2154 C   0  0  0  0  0  0  0  0  0  1  0  0
  -23.5208  -20.8055   21.3558 C   0  0  1  0  0  0  0  0  0  0  0  0
  -24.6875  -18.5005   18.5817 C   0  0  2  0  0  0  0  0  0  0  0  0
  -23.0405  -20.2303   22.7181 C   0  0  0  0  0  0  0  0  0  0  0  0
  -28.1510  -15.5980   20.9375 N   0  0  0  0  0  0  0  0  0  0  0  0
  -29.7067  -22.8149   18.5694 N   0  0  0  0  0  0  0  0  0  0  0  0
  -29.4542  -15.8666   20.7485 N   0  0  0  0  0  0  0  0  0  0  0  0
  -23.1713  -23.1467   20.6343 N   0  0  0  0  0  0  0  0  0  0  0  0
  -29.5164  -19.6215   21.4416 N   0  0  0  0  0  0  0  0  0  0  0  0
  -31.4707  -14.9461   19.9136 N   0  0  0  0  0  0  0  0  0  0  0  0
  -28.4662  -11.6382   19.2600 N   0  0  0  0  0  0  0  0  0  0  0  0
  -29.1819  -20.6234   19.3329 N   0  0  0  0  0  0  0  0  0  0  0  0
  -30.2115  -24.9749   17.7767 N   0  0  0  0  0  0  0  0  0  0  0  0
  -21.1049  -26.0245   21.4971 N   0  0  0  0  0  0  0  0  0  0  0  0
  -23.6364  -19.8110   20.2947 N   0  0  0  0  0  0  0  0  0  0  0  0
  -24.9390  -19.0625   17.2246 N   0  3  0  0  0  0  0  0  0  0  0  0
  -30.6684  -12.2287   19.0141 O   0  0  0  0  0  0  0  0  0  0  0  0
  -22.5057  -24.5670   22.6530 O   0  0  0  0  0  0  0  0  0  0  0  0
  -21.4225  -21.6052   20.5916 O   0  0  0  0  0  0  0  0  0  0  0  0
  -25.8850  -20.1685   19.8550 O   0  0  0  0  0  0  0  0  0  0  0  0
  -30.1284  -21.8211   21.0796 O   0  0  0  0  0  0  0  0  0  0  0  0
  -23.0520  -11.8022   20.5619 O   0  0  0  0  0  0  0  0  0  0  0  0
  -28.3248  -26.5132   20.2332 O   0  0  0  0  0  0  0  0  0  1  0  0
  -22.8930   -6.5630   22.2737 F   0  0  0  0  0  0  0  0  0  0  0  0
  -21.5459  -11.0743   22.7629 F   0  0  0  0  0  0  0  0  0  0  0  0
  1  2  1  0  0  0  0
  1  5  2  0  0  0  0
  2  6  2  0  0  0  0
  3  8  2  0  0  0  0
  3 17  1  0  0  0  0
  4  9  1  0  0  0  0
  4 17  2  0  0  0  0
  5 19  1  0  0  0  0
  6 21  1  0  0  0  0
  7 10  2  0  0  0  0
  7 20  1  0  0  0  0
  8 24  1  0  0  0  0
  9 24  2  0  0  0  0
 10 25  1  0  0  0  0
 11 12  2  0  0  0  0
 11 26  1  0  0  0  0
 12 27  1  0  0  0  0
 13 22  1  0  0  0  0
 13 25  2  0  0  0  0
 14 23  1  0  0  0  0
 14 30  2  0  0  0  0
 15 23  2  0  0  0  0
 15 31  1  0  0  0  0
 16 27  2  0  0  0  0
 16 28  1  0  0  0  0
 17 29  1  0  0  0  0
 18 29  1  0  0  0  0
 18 32  2  0  0  0  0
 18 33  1  0  0  0  0
 19 21  2  0  0  0  0
 19 38  1  0  0  0  0
 20 22  2  0  0  0  0
 20 39  1  0  0  0  0
 21 47  1  0  0  0  0
 22 40  1  0  0  0  0
 23 50  1  0  0  0  0
 24 79  1  0  0  0  0
 25 80  1  0  0  0  0
 26 28  2  0  0  0  0
 26 79  1  0  0  0  0
 27 81  1  0  0  0  0
 28 82  1  0  0  0  0
 29 62  2  0  0  0  0
 30 63  1  0  0  0  0
 30 69  1  0  0  0  0
 31 63  2  0  0  0  0
 31 70  1  0  0  0  0
 32 64  1  0  0  0  0
 32 67  1  0  0  0  0
 33 68  1  0  0  0  0
 33 74  2  0  0  0  0
 34 48  1  0  0  0  0
 34 71  1  0  0  0  0
 34 75  2  0  0  0  0
 35 59  1  0  0  0  0
 35 65  1  0  0  0  0
 35 76  2  0  0  0  0
 36 60  1  0  0  0  0
 36 72  1  0  0  0  0
 36 77  2  0  0  0  0
 37 66  1  0  0  0  0
 37 69  1  0  0  0  0
 37 78  2  0  0  0  0
 38 41  1  0  0  0  0
 39 48  1  0  0  0  0
 40 65  1  0  0  0  0
 41 43  1  0  0  0  0
 42 44  1  0  0  0  0
 42 45  1  0  0  0  0
 43 47  1  0  0  0  0
 44 49  1  0  0  0  0
 45 66  1  0  0  0  0
 46 49  1  0  0  0  0
 46 66  1  0  0  0  0
 47 71  1  0  0  0  0
 48 65  1  0  0  0  0
 49 64  1  0  0  0  0
 51 60  1  0  0  0  0
 52 61  1  0  0  0  0
 53 61  1  0  0  0  0
 54 61  1  0  0  0  0
 55 73  1  0  0  0  0
 56 57  1  0  0  0  0
 56 58  1  0  0  0  0
 57 70  1  0  0  0  0
 58 80  1  0  0  0  0
 59 61  1  0  0  0  0
 59 72  1  0  0  0  0
 60 73  1  0  0  0  0
 62 64  1  0  0  0  0
M  CHG  1  73   1
M  ISO  4  37 100  58 101  69 100  80 101
M  END
> <Batch ID>
0131

> <Smiles>
CNC(C)C(=O)NC(C(=O)N1Cc2cc([101O:1][101CH2:1]CCNc3cc(C)cc([100NH:0][100C:0](=O)N4CCCC(n5nc(-c6ccc(Oc7ccc(F)cc7F)cc6)c(C(N)=O)c5N)C4)n3)ccc2CC1C(=O)NC1CCCc2ccccc21)C(C)(C)C

> <Shape>
0.274

> <Color>
0.096

> <Negative vol penalty>
0.000

$$$$

  -OEChem-04052320503D

 88 96  0     1  0  0  0  0  0999 V2000
  -40.1484  -15.9676   13.4587 C   0  0  0  0  0  0  0  0  0  0  0  0
  -39.0452  -16.7538   13.1422 C   0  0  0  0  0  0  0  0  0  0  0  0
  -22.9845   -9.9359   19.9870 C   0  0  0  0  0  0  0  0  0  0  0  0
  -23.7222   -9.9667   22.2874 C   0  0  0  0  0  0  0  0  0  0  0  0
  -40.5268  -15.8031   14.7904 C   0  0  0  0  0  0  0  0  0  0  0  0
  -38.3190  -17.3752   14.1576 C   0  0  0  0  0  0  0  0  0  0  0  0
  -34.5410  -23.3142   15.4883 C   0  0  0  0  0  0  0  0  0  0  0  0
  -22.2051   -8.8099   20.2520 C   0  0  0  0  0  0  0  0  0  0  0  0
  -22.9427   -8.8407   22.5525 C   0  0  0  0  0  0  0  0  0  0  0  0
  -33.2961  -23.7128   15.9732 C   0  0  0  0  0  0  0  0  0  0  0  0
  -23.1424   -5.5013   22.0636 C   0  0  0  0  0  0  0  0  0  0  0  0
  -23.7209   -4.4732   22.8078 C   0  0  0  0  0  0  0  0  0  0  0  0
  -34.0897  -23.4216   18.2326 C   0  0  0  0  0  0  0  0  0  0  0  0
  -31.6651  -18.2442   20.0203 C   0  0  0  0  0  0  0  0  0  0  0  0
  -29.4513  -18.5686   20.9317 C   0  0  0  0  0  0  0  0  0  0  0  0
  -22.0090   -4.7298   24.4931 C   0  0  0  0  0  0  0  0  0  0  0  0
  -23.7431  -10.5143   21.0047 C   0  0  0  0  0  0  0  0  0  0  0  0
  -24.1592  -13.0256   20.8385 C   0  0  0  0  0  0  0  0  0  0  0  0
  -39.8107  -16.4305   15.8220 C   0  0  0  0  0  0  0  0  0  0  0  0
  -35.5679  -22.9553   16.3732 C   0  0  0  0  0  0  0  0  0  0  0  0
  -38.6873  -17.2178   15.5046 C   0  0  0  0  0  0  0  0  0  0  0  0
  -35.3475  -23.0213   17.7564 C   0  0  0  0  0  0  0  0  0  0  0  0
  -30.6673  -17.8854   20.9265 C   0  0  0  0  0  0  0  0  0  0  0  0
  -31.4468  -19.2864   19.1192 C   0  0  0  0  0  0  0  0  0  0  0  0
  -30.2308  -19.9697   19.1243 C   0  0  0  0  0  0  0  0  0  0  0  0
  -22.1842   -8.2623   21.5347 C   0  0  0  0  0  0  0  0  0  0  0  0
  -33.0693  -23.7637   17.3455 C   0  0  0  0  0  0  0  0  0  0  0  0
  -21.9972   -6.1437   22.5342 C   0  0  0  0  0  0  0  0  0  0  0  0
  -29.2330  -19.6108   20.0306 C   0  0  0  0  0  0  0  0  0  0  0  0
  -23.1542   -4.0874   24.0226 C   0  0  0  0  0  0  0  0  0  0  0  0
  -21.4305   -5.7580   23.7489 C   0  0  0  0  0  0  0  0  0  0  0  0
  -24.5489  -11.6771   20.7314 C   0  0  0  0  0  0  0  0  0  0  0  0
  -25.2761  -13.7359   20.4717 C   0  0  0  0  0  0  0  0  0  0  0  0
  -22.9003  -13.5861   21.2342 C   0  0  0  0  0  0  0  0  0  0  0  0
  -37.2287  -20.3016   16.9241 C   0  0  0  0  0  0  0  0  0  0  0  0
  -38.9020  -22.2295   18.9256 C   0  0  0  0  0  0  0  0  0  0  0  0
  -38.9722  -25.0500   20.8457 C   0  0  0  0  0  0  0  0  0  0  0  0
  -30.7851  -14.5999   20.6958 C   0  0  0  0  0  0  0  0  0  0  0  0
  -40.2293  -16.1849   17.2500 C   0  0  0  0  0  0  0  0  0  0  0  0
  -36.9135  -22.5532   15.8346 C   0  0  0  0  0  0  0  0  0  0  0  0
  -36.4233  -22.6657   18.7487 C   0  0  0  0  0  0  0  0  0  0  0  0
  -39.6312  -17.1810   18.2400 C   0  0  0  0  0  0  0  0  0  0  0  0
  -29.6017  -12.2020   18.3449 C   0  0  0  0  0  0  0  0  0  0  0  0
  -38.1392  -17.3623   17.9793 C   0  0  0  0  0  0  0  0  0  0  0  0
  -28.1522  -11.9586   18.7689 C   0  0  0  0  0  0  0  0  0  0  0  0
  -30.5133  -12.4202   19.5505 C   0  0  0  0  0  0  0  0  0  0  0  0
  -28.6203  -13.2334   20.9030 C   0  0  0  0  0  0  0  0  0  0  0  0
  -37.8891  -17.9281   16.5762 C   0  0  1  0  0  0  0  0  0  0  0  0
  -37.7250  -21.7159   16.8184 C   0  0  1  0  0  0  0  0  0  0  0  0
  -27.6529  -13.0635   19.7192 C   0  0  2  0  0  0  0  0  0  0  0  0
  -32.5317  -19.6522   18.1598 C   0  0  0  0  0  0  0  0  0  0  0  0
  -28.8479  -20.7450   17.1819 C   0  0  0  0  0  0  0  0  0  0  0  0
  -40.4652  -26.3419   22.3947 C   0  0  0  0  0  0  0  0  0  0  0  0
  -38.3836  -20.1828   21.1284 C   0  0  0  0  0  0  0  0  0  0  0  0
  -39.0393  -21.9236   22.8041 C   0  0  0  0  0  0  0  0  0  0  0  0
  -40.6956  -21.1360   21.1132 C   0  0  0  0  0  0  0  0  0  0  0  0
  -38.9253  -27.4327   19.0909 C   0  0  0  0  0  0  0  0  0  0  0  0
  -28.0910  -24.8507   19.5800 C   0  0  0  0  0  0  0  0  0  0  0  0
  -27.0768  -19.8325   21.0092 C   0  0  0  0  0  0  0  0  0  0  0  0
  -30.9015  -16.7719   21.8907 C   0  0  0  0  0  0  0  0  0  0  0  0
  -29.6913  -22.4544   18.8391 C   0  0  0  0  0  0  0  0  0  0  0  0
  -30.7175  -23.8680   17.0078 C   0  0  0  0  0  0  0  0  0  1  0  0
  -29.9875  -21.1044   18.1449 C   0  0  1  0  0  0  0  0  0  0  0  0
  -38.7854  -22.6206   20.3790 C   0  0  1  0  0  0  0  0  0  0  0  0
  -39.9949  -26.1661   20.9592 C   0  0  2  0  0  0  0  0  0  0  0  0
  -29.4948  -23.6523   17.8971 C   0  0  2  0  0  0  0  0  0  0  0  0
  -39.2049  -21.4707   21.3377 C   0  0  0  0  0  0  0  0  0  0  0  0
  -25.8144  -11.5365   20.3280 N   0  0  0  0  0  0  0  0  0  0  0  0
  -26.2296  -12.8059   20.1783 N   0  0  0  0  0  0  0  0  0  0  0  0
  -37.7199  -22.2726   18.1728 N   0  0  0  0  0  0  0  0  0  0  0  0
  -29.9843  -13.4817   20.4104 N   0  0  0  0  0  0  0  0  0  0  0  0
  -25.5258  -15.0590   20.3746 N   0  0  0  0  0  0  0  0  0  0  0  0
  -21.8592  -12.7134   21.5790 N   0  0  0  0  0  0  0  0  0  0  0  0
  -38.1578  -19.3499   16.5493 N   0  0  0  0  0  0  0  0  0  0  0  0
  -39.5646  -23.8439   20.5363 N   0  0  0  0  0  0  0  0  0  0  0  0
  -30.2051  -15.5623   21.5132 N   0  0  0  0  0  0  0  0  0  0  0  0
  -39.4082  -27.4552   20.4956 N   0  3  0  0  0  0  0  0  0  0  0  0
  -29.2867  -24.8928   18.7010 N   0  3  0  0  0  0  0  0  0  0  0  0
  -22.6993  -14.8239   21.2649 O   0  0  0  0  0  0  0  0  0  0  0  0
  -36.0879  -20.0895   17.3181 O   0  0  0  0  0  0  0  0  0  0  0  0
  -40.0026  -21.9048   18.4732 O   0  0  0  0  0  0  0  0  0  0  0  0
  -37.7686  -25.2293   21.0182 O   0  0  0  0  0  0  0  0  0  0  0  0
  -31.9300  -14.7335   20.2504 O   0  0  0  0  0  0  0  0  0  0  0  0
  -21.4235   -7.1637   21.7937 O   0  0  0  0  0  0  0  0  0  0  0  0
  -28.0386  -20.2661   20.0495 O   0  0  0  0  0  0  0  0  0  0  0  0
  -31.8549  -24.1518   17.8215 O   0  0  0  0  0  0  0  0  0  1  0  0
  -23.7090   -3.0991   24.7364 F   0  0  0  0  0  0  0  0  0  0  0  0
  -20.3296   -6.3706   24.2056 F   0  0  0  0  0  0  0  0  0  0  0  0
  1  2  1  0  0  0  0
  1  5  2  0  0  0  0
  2  6  2  0  0  0  0
  3  8  2  0  0  0  0
  3 17  1  0  0  0  0
  4  9  1  0  0  0  0
  4 17  2  0  0  0  0
  5 19  1  0  0  0  0
  6 21  1  0  0  0  0
  7 10  2  0  0  0  0
  7 20  1  0  0  0  0
  8 26  1  0  0  0  0
  9 26  2  0  0  0  0
 10 27  1  0  0  0  0
 11 12  2  0  0  0  0
 11 28  1  0  0  0  0
 12 30  1  0  0  0  0
 13 22  1  0  0  0  0
 13 27  2  0  0  0  0
 14 23  1  0  0  0  0
 14 24  2  0  0  0  0
 15 23  2  0  0  0  0
 15 29  1  0  0  0  0
 16 30  2  0  0  0  0
 16 31  1  0  0  0  0
 17 32  1  0  0  0  0
 18 32  1  0  0  0  0
 18 33  2  0  0  0  0
 18 34  1  0  0  0  0
 19 21  2  0  0  0  0
 19 39  1  0  0  0  0
 20 22  2  0  0  0  0
 20 40  1  0  0  0  0
 21 48  1  0  0  0  0
 22 41  1  0  0  0  0
 23 60  1  0  0  0  0
 24 25  1  0  0  0  0
 24 51  1  0  0  0  0
 25 29  2  0  0  0  0
 25 63  1  0  0  0  0
 26 84  1  0  0  0  0
 27 86  1  0  0  0  0
 28 31  2  0  0  0  0
 28 84  1  0  0  0  0
 29 85  1  0  0  0  0
 30 87  1  0  0  0  0
 31 88  1  0  0  0  0
 32 68  2  0  0  0  0
 33 69  1  0  0  0  0
 33 72  1  0  0  0  0
 34 73  1  0  0  0  0
 34 79  2  0  0  0  0
 35 49  1  0  0  0  0
 35 74  1  0  0  0  0
 35 80  2  0  0  0  0
 36 64  1  0  0  0  0
 36 70  1  0  0  0  0
 36 81  2  0  0  0  0
 37 65  1  0  0  0  0
 37 75  1  0  0  0  0
 37 82  2  0  0  0  0
 38 71  1  0  0  0  0
 38 76  1  0  0  0  0
 38 83  2  0  0  0  0
 39 42  1  0  0  0  0
 40 49  1  0  0  0  0
 41 70  1  0  0  0  0
 42 44  1  0  0  0  0
 43 45  1  0  0  0  0
 43 46  1  0  0  0  0
 44 48  1  0  0  0  0
 45 50  1  0  0  0  0
 46 71  1  0  0  0  0
 47 50  1  0  0  0  0
 47 71  1  0  0  0  0
 48 74  1  0  0  0  0
 49 70  1  0  0  0  0
 50 69  1  0  0  0  0
 52 63  1  0  0  0  0
 53 65  1  0  0  0  0
 54 67  1  0  0  0  0
 55 67  1  0  0  0  0
 56 67  1  0  0  0  0
 57 77  1  0  0  0  0
 58 78  1  0  0  0  0
 59 85  1  0  0  0  0
 60 76  1  0  0  0  0
 61 63  1  0  0  0  0
 61 66  1  0  0  0  0
 62 66  1  0  0  0  0
 62 86  1  0  0  0  0
 64 67  1  0  0  0  0
 64 75  1  0  0  0  0
 65 77  1  0  0  0  0
 66 78  1  0  0  0  0
 68 69  1  0  0  0  0
M  CHG  2  77   1  78   1
M  ISO  4  38 100  62 101  76 100  86 101
M  END
> <Batch ID>
0131

> <Smiles>
CNC(C)C(=O)NC(C(=O)N1Cc2cc([101O:1][101CH2:1]C(CC(C)c3c(C)cc(C[100NH:0][100C:0](=O)N4CCCC(n5nc(-c6ccc(Oc7ccc(F)cc7F)cc6)c(C(N)=O)c5N)C4)cc3OC)NC)ccc2CC1C(=O)NC1CCCc2ccccc21)C(C)(C)C

> <Shape>
0.231

> <Color>
0.193

> <Negative vol penalty>
0.000

$$$$

  -OEChem-04052320503D

 81 90  0     1  0  0  0  0  0999 V2000
  -34.6558  -11.7300   20.4271 C   0  0  0  0  0  0  0  0  0  0  0  0
  -34.1130  -12.9969   20.6162 C   0  0  0  0  0  0  0  0  0  0  0  0
  -24.0302  -32.2213   23.7373 C   0  0  0  0  0  0  0  0  0  0  0  0
  -24.7508  -31.6087   21.5142 C   0  0  0  0  0  0  0  0  0  0  0  0
  -33.9579  -10.7774   19.6860 C   0  0  0  0  0  0  0  0  0  0  0  0
  -32.8724  -13.3123   20.0633 C   0  0  0  0  0  0  0  0  0  0  0  0
  -28.5945  -16.9763   22.4675 C   0  0  0  0  0  0  0  0  0  0  0  0
  -24.9193  -33.2960   23.7295 C   0  0  0  0  0  0  0  0  0  0  0  0
  -25.6399  -32.6835   21.5063 C   0  0  0  0  0  0  0  0  0  0  0  0
  -28.2647  -18.3110   22.2360 C   0  0  0  0  0  0  0  0  0  0  0  0
  -25.0479  -36.4130   22.4253 C   0  0  0  0  0  0  0  0  0  0  0  0
  -24.5796  -37.6452   22.8814 C   0  0  0  0  0  0  0  0  0  0  0  0
  -26.5427  -17.6125   20.6978 C   0  0  0  0  0  0  0  0  0  0  0  0
  -26.2703  -37.6490   24.6073 C   0  0  0  0  0  0  0  0  0  0  0  0
  -23.9459  -31.3776   22.6297 C   0  0  0  0  0  0  0  0  0  0  0  0
  -21.6891  -30.2677   22.2030 C   0  0  0  0  0  0  0  0  0  0  0  0
  -32.7036  -11.0781   19.1319 C   0  0  0  0  0  0  0  0  0  0  0  0
  -27.9069  -15.9483   21.8065 C   0  0  0  0  0  0  0  0  0  0  0  0
  -32.1576  -12.3632   19.3129 C   0  0  0  0  0  0  0  0  0  0  0  0
  -26.8639  -16.2655   20.9246 C   0  0  0  0  0  0  0  0  0  0  0  0
  -25.7242  -33.5271   22.6139 C   0  0  0  0  0  0  0  0  0  0  0  0
  -27.2407  -18.6294   21.3489 C   0  0  0  0  0  0  0  0  0  0  0  0
  -26.1274  -35.7988   23.0603 C   0  0  0  0  0  0  0  0  0  0  0  0
  -25.1908  -38.2632   23.9723 C   0  0  0  0  0  0  0  0  0  0  0  0
  -26.7386  -36.4168   24.1512 C   0  0  0  0  0  0  0  0  0  0  0  0
  -23.0281  -30.2670   22.6375 C   0  0  0  0  0  0  0  0  0  0  0  0
  -21.2580  -28.9812   22.4169 C   0  0  0  0  0  0  0  0  0  0  0  0
  -20.9050  -31.3357   21.6550 C   0  0  0  0  0  0  0  0  0  0  0  0
  -28.7252  -13.6548   19.7635 C   0  0  0  0  0  0  0  0  0  0  0  0
  -25.6513  -12.7124   20.1943 C   0  0  0  0  0  0  0  0  0  0  0  0
  -22.4594  -13.5492   21.0651 C   0  0  0  0  0  0  0  0  0  0  0  0
  -24.1140  -23.7311   22.7788 C   0  0  0  0  0  0  0  0  0  0  0  0
  -32.0083  -10.0309   18.2985 C   0  0  0  0  0  0  0  0  0  0  0  0
  -28.2568  -14.5127   22.0874 C   0  0  0  0  0  0  0  0  0  0  0  0
  -26.0816  -15.1984   20.2052 C   0  0  0  0  0  0  0  0  0  0  0  0
  -30.5290  -10.3242   18.0620 C   0  0  0  0  0  0  0  0  0  0  0  0
  -22.0145  -25.2010   25.2503 C   0  0  0  0  0  0  0  0  0  0  0  0
  -30.3328  -11.7789   17.6472 C   0  0  0  0  0  0  0  0  0  0  0  0
  -21.9154  -26.6661   24.8217 C   0  0  0  0  0  0  0  0  0  0  0  0
  -30.9596  -23.7910   19.6120 C   0  0  0  0  0  0  0  0  0  0  0  0
  -30.3151  -25.1122   19.9225 C   0  0  0  0  0  0  0  0  0  0  0  0
  -23.4022  -24.6255   24.9765 C   0  0  0  0  0  0  0  0  0  0  0  0
  -23.7762  -26.2485   23.1599 C   0  0  0  0  0  0  0  0  0  0  0  0
  -27.1286  -23.9544   20.1761 C   0  0  0  0  0  0  0  0  0  0  0  0
  -28.2776  -21.9079   19.4805 C   0  0  0  0  0  0  0  0  0  0  0  0
  -30.8031  -12.7352   18.7499 C   0  0  1  0  0  0  0  0  0  0  0  0
  -27.8335  -13.5647   20.9695 C   0  0  1  0  0  0  0  0  0  0  0  0
  -26.3117  -22.7157   20.5322 C   0  0  2  0  0  0  0  0  0  0  0  0
  -26.7710  -21.6903   19.4936 C   0  0  2  0  0  0  0  0  0  0  0  0
  -22.3782  -26.8566   23.3648 C   0  0  2  0  0  0  0  0  0  0  0  0
  -29.6482  -23.8337   20.3430 C   0  0  0  0  0  0  0  0  0  0  0  0
  -20.1573  -12.5745   21.2839 C   0  0  0  0  0  0  0  0  0  0  0  0
  -25.3365  -12.7810   17.1602 C   0  0  0  0  0  0  0  0  0  0  0  0
  -22.8545  -12.7416   17.4866 C   0  0  0  0  0  0  0  0  0  0  0  0
  -24.2454  -10.8281   18.2783 C   0  0  0  0  0  0  0  0  0  0  0  0
  -22.3569  -14.1440   23.9624 C   0  0  0  0  0  0  0  0  0  0  0  0
  -24.8153  -22.9869   20.5175 C   0  0  0  0  0  0  0  0  0  0  0  0
  -26.3982  -20.2553   19.8314 C   0  0  0  0  0  0  0  0  0  1  0  0
  -24.3338  -13.0247   19.5269 C   0  0  1  0  0  0  0  0  0  0  0  0
  -21.4631  -12.8857   21.9986 C   0  0  2  0  0  0  0  0  0  0  0  0
  -24.2084  -12.3643   18.1249 C   0  0  0  0  0  0  0  0  0  0  0  0
  -23.4217  -29.0747   23.0931 N   0  0  0  0  0  0  0  0  0  0  0  0
  -22.3234  -28.3142   22.9462 N   0  0  0  0  0  0  0  0  0  0  0  0
  -26.4655  -13.8098   20.5084 N   0  0  0  0  0  0  0  0  0  0  0  0
  -23.7806  -24.8376   23.5773 N   0  0  0  0  0  0  0  0  0  0  0  0
  -20.0753  -28.3669   22.2020 N   0  0  0  0  0  0  0  0  0  0  0  0
  -21.5033  -32.5940   21.5031 N   0  0  0  0  0  0  0  0  0  0  0  0
  -29.8181  -12.8104   19.8075 N   0  0  0  0  0  0  0  0  0  0  0  0
  -23.2941  -12.6271   20.4699 N   0  0  0  0  0  0  0  0  0  0  0  0
  -24.4545  -24.0197   21.4629 N   0  0  0  0  0  0  0  0  0  0  0  0
  -28.4180  -23.4097   19.5948 N   0  3  2  0  0  0  0  0  0  0  0  0
  -21.1649  -13.7763   23.1557 N   0  3  0  0  0  0  0  0  0  0  0  0
  -19.7043  -31.1831   21.3256 O   0  0  0  0  0  0  0  0  0  0  0  0
  -28.4417  -14.4317   18.8592 O   0  0  0  0  0  0  0  0  0  0  0  0
  -25.9440  -11.5385   20.4349 O   0  0  0  0  0  0  0  0  0  0  0  0
  -22.4914  -14.7637   20.8793 O   0  0  0  0  0  0  0  0  0  0  0  0
  -24.1033  -22.5714   23.2053 O   0  0  0  0  0  0  0  0  0  0  0  0
  -26.5917  -34.5758   22.6058 O   0  0  0  0  0  0  0  0  0  0  0  0
  -26.9172  -19.9314   21.1206 O   0  0  0  0  0  0  0  0  0  1  0  0
  -24.7419  -39.4472   24.4092 F   0  0  0  0  0  0  0  0  0  0  0  0
  -27.7768  -35.8321   24.7645 F   0  0  0  0  0  0  0  0  0  0  0  0
  1  2  1  0  0  0  0
  1  5  2  0  0  0  0
  2  6  2  0  0  0  0
  3  8  2  0  0  0  0
  3 15  1  0  0  0  0
  4  9  1  0  0  0  0
  4 15  2  0  0  0  0
  5 17  1  0  0  0  0
  6 19  1  0  0  0  0
  7 10  2  0  0  0  0
  7 18  1  0  0  0  0
  8 21  1  0  0  0  0
  9 21  2  0  0  0  0
 10 22  1  0  0  0  0
 11 12  2  0  0  0  0
 11 23  1  0  0  0  0
 12 24  1  0  0  0  0
 13 20  1  0  0  0  0
 13 22  2  0  0  0  0
 14 24  2  0  0  0  0
 14 25  1  0  0  0  0
 15 26  1  0  0  0  0
 16 26  1  0  0  0  0
 16 27  2  0  0  0  0
 16 28  1  0  0  0  0
 17 19  2  0  0  0  0
 17 33  1  0  0  0  0
 18 20  2  0  0  0  0
 18 34  1  0  0  0  0
 19 46  1  0  0  0  0
 20 35  1  0  0  0  0
 21 78  1  0  0  0  0
 22 79  1  0  0  0  0
 23 25  2  0  0  0  0
 23 78  1  0  0  0  0
 24 80  1  0  0  0  0
 25 81  1  0  0  0  0
 26 62  2  0  0  0  0
 27 63  1  0  0  0  0
 27 66  1  0  0  0  0
 28 67  1  0  0  0  0
 28 73  2  0  0  0  0
 29 47  1  0  0  0  0
 29 68  1  0  0  0  0
 29 74  2  0  0  0  0
 30 59  1  0  0  0  0
 30 64  1  0  0  0  0
 30 75  2  0  0  0  0
 31 60  1  0  0  0  0
 31 69  1  0  0  0  0
 31 76  2  0  0  0  0
 32 65  1  0  0  0  0
 32 70  1  0  0  0  0
 32 77  2  0  0  0  0
 33 36  1  0  0  0  0
 34 47  1  0  0  0  0
 35 64  1  0  0  0  0
 36 38  1  0  0  0  0
 37 39  1  0  0  0  0
 37 42  1  0  0  0  0
 38 46  1  0  0  0  0
 39 50  1  0  0  0  0
 40 41  1  0  0  0  0
 40 51  1  0  0  0  0
 41 51  1  0  0  0  0
 42 65  1  0  0  0  0
 43 50  1  0  0  0  0
 43 65  1  0  0  0  0
 44 48  1  0  0  0  0
 44 71  1  0  0  0  0
 45 49  1  0  0  0  0
 45 71  1  0  0  0  0
 46 68  1  0  0  0  0
 47 64  1  0  0  0  0
 48 49  1  0  0  0  0
 48 57  1  0  0  0  0
 49 58  1  0  0  0  0
 50 63  1  0  0  0  0
 51 71  1  0  0  0  0
 52 60  1  0  0  0  0
 53 61  1  0  0  0  0
 54 61  1  0  0  0  0
 55 61  1  0  0  0  0
 56 72  1  0  0  0  0
 57 70  1  0  0  0  0
 58 79  1  0  0  0  0
 59 61  1  0  0  0  0
 59 69  1  0  0  0  0
 60 72  1  0  0  0  0
 62 63  1  0  0  0  0
M  CHG  2  71   1  72   1
M  ISO  4  32 100  58 101  70 100  79 101
M  END
> <Batch ID>
0131

> <Smiles>
CNC(C)C(=O)NC(C(=O)N1Cc2cc([101O:1][101CH2:1]C3CN(C4CC4)CC3C[100NH:0][100C:0](=O)N3CCCC(n4nc(-c5ccc(Oc6ccc(F)cc6F)cc5)c(C(N)=O)c4N)C3)ccc2CC1C(=O)NC1CCCc2ccccc21)C(C)(C)C

> <Shape>
0.247

> <Color>
0.072

> <Negative vol penalty>
0.000

$$$$

  -OEChem-04052320503D

 83 91  0     1  0  0  0  0  0999 V2000
  -20.6490  -23.9140   22.1909 C   0  0  0  0  0  0  0  0  0  0  0  0
  -21.9839  -23.5263   22.1350 C   0  0  0  0  0  0  0  0  0  0  0  0
  -33.7879  -19.7512   20.2180 C   0  0  0  0  0  0  0  0  0  0  0  0
  -22.0003  -28.6295   21.5743 C   0  0  0  0  0  0  0  0  0  0  0  0
  -22.7900  -27.2804   23.4164 C   0  0  0  0  0  0  0  0  0  0  0  0
  -19.6706  -22.9900   22.5552 C   0  0  0  0  0  0  0  0  0  0  0  0
  -22.3413  -22.2144   22.4443 C   0  0  0  0  0  0  0  0  0  0  0  0
  -25.6504  -20.2717   19.1397 C   0  0  0  0  0  0  0  0  0  0  0  0
  -34.0103  -20.9623   20.8731 C   0  0  0  0  0  0  0  0  0  0  0  0
  -32.5027  -19.2113   20.1673 C   0  0  0  0  0  0  0  0  0  0  0  0
  -20.6826  -28.3910   21.9646 C   0  0  0  0  0  0  0  0  0  0  0  0
  -21.4723  -27.0420   23.8067 C   0  0  0  0  0  0  0  0  0  0  0  0
  -26.9835  -20.6582   19.2716 C   0  0  0  0  0  0  0  0  0  0  0  0
  -18.5338  -29.5351   24.3113 C   0  0  0  0  0  0  0  0  0  0  0  0
  -17.6591  -30.6212   24.3383 C   0  0  0  0  0  0  0  0  0  0  0  0
  -27.4657  -18.5858   20.4082 C   0  0  0  0  0  0  0  0  0  0  0  0
  -16.2443  -29.5222   22.7173 C   0  0  0  0  0  0  0  0  0  0  0  0
  -23.0540  -28.0741   22.3002 C   0  0  0  0  0  0  0  0  0  0  0  0
  -25.2481  -29.3755   22.3138 C   0  0  0  0  0  0  0  0  0  0  0  0
  -20.0150  -21.6636   22.8597 C   0  0  0  0  0  0  0  0  0  0  0  0
  -25.2120  -19.0420   19.6516 C   0  0  0  0  0  0  0  0  0  0  0  0
  -21.3667  -21.2721   22.8142 C   0  0  0  0  0  0  0  0  0  0  0  0
  -26.1271  -18.1849   20.2793 C   0  0  0  0  0  0  0  0  0  0  0  0
  -32.9475  -21.6336   21.4777 C   0  0  0  0  0  0  0  0  0  0  0  0
  -31.4400  -19.8826   20.7719 C   0  0  0  0  0  0  0  0  0  0  0  0
  -31.6623  -21.0938   21.4271 C   0  0  0  0  0  0  0  0  0  0  0  0
  -20.4185  -27.5973   23.0808 C   0  0  0  0  0  0  0  0  0  0  0  0
  -27.8907  -19.8166   19.9085 C   0  0  0  0  0  0  0  0  0  0  0  0
  -18.2638  -28.4425   23.4872 C   0  0  0  0  0  0  0  0  0  0  0  0
  -16.5143  -30.6148   23.5414 C   0  0  0  0  0  0  0  0  0  0  0  0
  -17.1191  -28.4361   22.6903 C   0  0  0  0  0  0  0  0  0  0  0  0
  -24.4154  -28.3196   21.8972 C   0  0  0  0  0  0  0  0  0  0  0  0
  -26.4317  -29.1616   21.6508 C   0  0  0  0  0  0  0  0  0  0  0  0
  -24.9759  -30.4534   23.2193 C   0  0  0  0  0  0  0  0  0  0  0  0
  -23.1066  -18.1547   21.8616 C   0  0  0  0  0  0  0  0  0  0  0  0
  -23.8180  -15.1783   20.7858 C   0  0  0  0  0  0  0  0  0  0  0  0
  -26.0463  -13.1172   19.2258 C   0  0  0  0  0  0  0  0  0  0  0  0
  -30.4863  -25.7444   19.9104 C   0  0  0  0  0  0  0  0  0  0  0  0
  -18.9279  -20.7127   23.2941 C   0  0  0  0  0  0  0  0  0  0  0  0
  -23.7765  -18.6279   19.4776 C   0  0  0  0  0  0  0  0  0  0  0  0
  -25.7112  -16.8454   20.8282 C   0  0  0  0  0  0  0  0  0  0  0  0
  -19.3459  -19.2454   23.2433 C   0  0  0  0  0  0  0  0  0  0  0  0
  -27.5676  -25.9809   17.8851 C   0  0  0  0  0  0  0  0  0  0  0  0
  -20.7202  -19.0596   23.8786 C   0  0  0  0  0  0  0  0  0  0  0  0
  -26.5548  -26.6916   18.7847 C   0  0  0  0  0  0  0  0  0  0  0  0
  -28.4585  -25.0292   18.6804 C   0  0  0  0  0  0  0  0  0  0  0  0
  -28.1306  -26.3516   20.7340 C   0  0  0  0  0  0  0  0  0  0  0  0
  -21.7909  -19.8517   23.1186 C   0  0  1  0  0  0  0  0  0  0  0  0
  -23.3299  -17.5793   20.4916 C   0  0  1  0  0  0  0  0  0  0  0  0
  -27.2465  -27.3639   19.9858 C   0  0  2  0  0  0  0  0  0  0  0  0
  -30.5228  -21.8136   22.0754 C   0  0  0  0  0  0  0  0  0  0  0  0
  -26.3637  -10.7283   18.5260 C   0  0  0  0  0  0  0  0  0  0  0  0
  -24.4269  -14.4149   23.6766 C   0  0  0  0  0  0  0  0  0  0  0  0
  -25.6176  -12.3872   22.8171 C   0  0  0  0  0  0  0  0  0  0  0  0
  -23.1791  -12.6784   22.3797 C   0  0  0  0  0  0  0  0  0  0  0  0
  -26.2321  -13.8581   16.3665 C   0  0  0  0  0  0  0  0  0  0  0  0
  -33.2125  -22.9292   22.1726 C   0  0  0  0  0  0  0  0  0  0  0  0
  -30.0674  -19.2805   20.7027 C   0  0  0  0  0  0  0  0  0  1  0  0
  -32.4206  -26.5456   21.2431 C   0  0  0  0  0  0  0  0  0  0  0  0
  -32.9467  -25.4118   22.1034 C   0  0  0  0  0  0  0  0  0  0  0  0
  -24.8416  -14.1282   21.1444 C   0  0  1  0  0  0  0  0  0  0  0  0
  -25.8703  -12.1048   18.1084 C   0  0  2  0  0  0  0  0  0  0  0  0
  -24.5240  -13.4282   22.4959 C   0  0  0  0  0  0  0  0  0  0  0  0
  -25.0189  -27.4961   21.0360 N   0  0  0  0  0  0  0  0  0  0  0  0
  -26.2433  -28.0346   20.9060 N   0  0  0  0  0  0  0  0  0  0  0  0
  -24.2955  -16.4883   20.6390 N   0  0  0  0  0  0  0  0  0  0  0  0
  -29.0858  -25.7292   19.8040 N   0  0  0  0  0  0  0  0  0  0  0  0
  -27.6049  -29.8294   21.6379 N   0  0  0  0  0  0  0  0  0  0  0  0
  -23.7083  -30.5233   23.8130 N   0  0  0  0  0  0  0  0  0  0  0  0
  -22.1613  -19.1618   21.9015 N   0  0  0  0  0  0  0  0  0  0  0  0
  -24.9127  -13.2212   20.0039 N   0  0  0  0  0  0  0  0  0  0  0  0
  -30.9992  -26.4355   21.0013 N   0  0  0  0  0  0  0  0  0  0  0  0
  -26.6312  -12.5301   16.8996 N   0  3  0  0  0  0  0  0  0  0  0  0
  -32.7446  -24.1152   21.4051 N   0  3  0  0  0  0  0  0  0  0  0  0
  -25.8261  -31.3378   23.4811 O   0  0  0  0  0  0  0  0  0  0  0  0
  -23.7436  -17.7164   22.8122 O   0  0  0  0  0  0  0  0  0  0  0  0
  -22.6395  -14.8471   20.6344 O   0  0  0  0  0  0  0  0  0  0  0  0
  -27.0867  -13.7496   19.3940 O   0  0  0  0  0  0  0  0  0  0  0  0
  -31.2251  -25.1882   19.0908 O   0  0  0  0  0  0  0  0  0  0  0  0
  -19.1328  -27.3646   23.4621 O   0  0  0  0  0  0  0  0  0  0  0  0
  -29.1923  -20.1917   20.0392 O   0  0  0  0  0  0  0  0  0  1  0  0
  -15.6736  -31.6572   23.5686 F   0  0  0  0  0  0  0  0  0  0  0  0
  -16.8538  -27.3887   21.8975 F   0  0  0  0  0  0  0  0  0  0  0  0
  1  2  1  0  0  0  0
  1  6  2  0  0  0  0
  2  7  2  0  0  0  0
  3  9  1  0  0  0  0
  3 10  2  0  0  0  0
  4 11  2  0  0  0  0
  4 18  1  0  0  0  0
  5 12  1  0  0  0  0
  5 18  2  0  0  0  0
  6 20  1  0  0  0  0
  7 22  1  0  0  0  0
  8 13  2  0  0  0  0
  8 21  1  0  0  0  0
  9 24  2  0  0  0  0
 10 25  1  0  0  0  0
 11 27  1  0  0  0  0
 12 27  2  0  0  0  0
 13 28  1  0  0  0  0
 14 15  2  0  0  0  0
 14 29  1  0  0  0  0
 15 30  1  0  0  0  0
 16 23  1  0  0  0  0
 16 28  2  0  0  0  0
 17 30  2  0  0  0  0
 17 31  1  0  0  0  0
 18 32  1  0  0  0  0
 19 32  1  0  0  0  0
 19 33  2  0  0  0  0
 19 34  1  0  0  0  0
 20 22  2  0  0  0  0
 20 39  1  0  0  0  0
 21 23  2  0  0  0  0
 21 40  1  0  0  0  0
 22 48  1  0  0  0  0
 23 41  1  0  0  0  0
 24 26  1  0  0  0  0
 24 57  1  0  0  0  0
 25 26  2  0  0  0  0
 25 58  1  0  0  0  0
 26 51  1  0  0  0  0
 27 80  1  0  0  0  0
 28 81  1  0  0  0  0
 29 31  2  0  0  0  0
 29 80  1  0  0  0  0
 30 82  1  0  0  0  0
 31 83  1  0  0  0  0
 32 64  2  0  0  0  0
 33 65  1  0  0  0  0
 33 68  1  0  0  0  0
 34 69  1  0  0  0  0
 34 75  2  0  0  0  0
 35 49  1  0  0  0  0
 35 70  1  0  0  0  0
 35 76  2  0  0  0  0
 36 61  1  0  0  0  0
 36 66  1  0  0  0  0
 36 77  2  0  0  0  0
 37 62  1  0  0  0  0
 37 71  1  0  0  0  0
 37 78  2  0  0  0  0
 38 67  1  0  0  0  0
 38 72  1  0  0  0  0
 38 79  2  0  0  0  0
 39 42  1  0  0  0  0
 40 49  1  0  0  0  0
 41 66  1  0  0  0  0
 42 44  1  0  0  0  0
 43 45  1  0  0  0  0
 43 46  1  0  0  0  0
 44 48  1  0  0  0  0
 45 50  1  0  0  0  0
 46 67  1  0  0  0  0
 47 50  1  0  0  0  0
 47 67  1  0  0  0  0
 48 70  1  0  0  0  0
 49 66  1  0  0  0  0
 50 65  1  0  0  0  0
 52 62  1  0  0  0  0
 53 63  1  0  0  0  0
 54 63  1  0  0  0  0
 55 63  1  0  0  0  0
 56 73  1  0  0  0  0
 57 74  1  0  0  0  0
 58 81  1  0  0  0  0
 59 60  1  0  0  0  0
 59 72  1  0  0  0  0
 60 74  1  0  0  0  0
 61 63  1  0  0  0  0
 61 71  1  0  0  0  0
 62 73  1  0  0  0  0
 64 65  1  0  0  0  0
M  CHG  2  73   1  74   1
M  ISO  4  38 100  58 101  72 100  81 101
M  END
> <Batch ID>
0131

> <Smiles>
CNC(C)C(=O)NC(C(=O)N1Cc2cc([101O:1][101CH2:1]c3cccc(CNCC[100NH:0][100C:0](=O)N4CCCC(n5nc(-c6ccc(Oc7ccc(F)cc7F)cc6)c(C(N)=O)c5N)C4)c3C)ccc2CC1C(=O)NC1CCCc2ccccc21)C(C)(C)C

> <Shape>
0.217

> <Color>
0.065

> <Negative vol penalty>
0.000

$$$$

  -OEChem-04052320503D

 89 98  0     1  0  0  0  0  0999 V2000
  -16.5126  -29.3094   22.9827 C   0  0  0  0  0  0  0  0  0  0  0  0
  -17.4727  -30.3138   23.0330 C   0  0  0  0  0  0  0  0  0  0  0  0
  -32.8895  -28.9065   17.3097 C   0  0  0  0  0  0  0  0  0  0  0  0
  -27.7234  -18.0041   20.6142 C   0  0  0  0  0  0  0  0  0  0  0  0
  -29.8982  -18.6066   21.4769 C   0  0  0  0  0  0  0  0  0  0  0  0
  -16.9080  -27.9741   22.9404 C   0  0  0  0  0  0  0  0  0  0  0  0
  -18.8284  -29.9837   23.0291 C   0  0  0  0  0  0  0  0  0  0  0  0
  -26.6888  -31.1720   23.1839 C   0  0  0  0  0  0  0  0  0  0  0  0
  -33.0277  -27.6346   16.7541 C   0  0  0  0  0  0  0  0  0  0  0  0
  -32.9153  -29.0692   18.6949 C   0  0  0  0  0  0  0  0  0  0  0  0
  -27.9820  -16.6633   20.8988 C   0  0  0  0  0  0  0  0  0  0  0  0
  -30.1568  -17.2658   21.7615 C   0  0  0  0  0  0  0  0  0  0  0  0
  -27.9045  -30.5412   23.4447 C   0  0  0  0  0  0  0  0  0  0  0  0
  -29.7290  -14.1175   19.5235 C   0  0  0  0  0  0  0  0  0  0  0  0
  -29.4079  -13.1749   18.5469 C   0  0  0  0  0  0  0  0  0  0  0  0
  -27.3578  -28.8337   21.8308 C   0  0  0  0  0  0  0  0  0  0  0  0
  -27.8924  -12.0948   20.0877 C   0  0  0  0  0  0  0  0  0  0  0  0
  -28.6816  -18.9758   20.9032 C   0  0  0  0  0  0  0  0  0  0  0  0
  -27.8156  -21.3103   21.4580 C   0  0  0  0  0  0  0  0  0  0  0  0
  -18.2693  -27.6279   22.9485 C   0  0  0  0  0  0  0  0  0  0  0  0
  -25.7922  -30.6315   22.2510 C   0  0  0  0  0  0  0  0  0  0  0  0
  -19.2477  -28.6427   22.9626 C   0  0  0  0  0  0  0  0  0  0  0  0
  -26.1325  -29.4609   21.5581 C   0  0  0  0  0  0  0  0  0  0  0  0
  -33.2175  -26.6879   18.9688 C   0  0  0  0  0  0  0  0  0  0  0  0
  -33.1917  -26.5253   17.5837 C   0  0  0  0  0  0  0  0  0  0  0  0
  -33.0793  -27.9598   19.5244 C   0  0  0  0  0  0  0  0  0  0  0  0
  -29.1987  -16.2941   21.4725 C   0  0  0  0  0  0  0  0  0  0  0  0
  -28.2379  -29.3703   22.7702 C   0  0  0  0  0  0  0  0  0  0  0  0
  -29.1319  -14.0488   20.7823 C   0  0  0  0  0  0  0  0  0  0  0  0
  -28.4895  -12.1635   18.8289 C   0  0  0  0  0  0  0  0  0  0  0  0
  -28.2136  -13.0375   21.0643 C   0  0  0  0  0  0  0  0  0  0  0  0
  -28.4153  -20.3609   20.6089 C   0  0  0  0  0  0  0  0  0  0  0  0
  -27.7903  -22.4663   20.7167 C   0  0  0  0  0  0  0  0  0  0  0  0
  -27.3255  -21.1606   22.7970 C   0  0  0  0  0  0  0  0  0  0  0  0
  -22.8249  -29.4999   22.3867 C   0  0  0  0  0  0  0  0  0  0  0  0
  -23.1527  -29.3444   19.1633 C   0  0  0  0  0  0  0  0  0  0  0  0
  -25.7189  -28.3715   16.8212 C   0  0  0  0  0  0  0  0  0  0  0  0
  -31.1086  -24.4524   16.1455 C   0  0  0  0  0  0  0  0  0  0  0  0
  -18.6413  -26.1672   22.8936 C   0  0  0  0  0  0  0  0  0  0  0  0
  -24.4966  -31.3386   21.9615 C   0  0  0  0  0  0  0  0  0  0  0  0
  -25.2137  -28.8511   20.5323 C   0  0  0  0  0  0  0  0  0  0  0  0
  -20.0756  -25.9018   23.3395 C   0  0  0  0  0  0  0  0  0  0  0  0
  -27.5761  -24.0099   16.1932 C   0  0  0  0  0  0  0  0  0  0  0  0
  -32.1740  -25.2604   20.7810 C   0  0  0  0  0  0  0  0  0  0  0  0
  -34.6912  -25.5701   20.6977 C   0  0  0  0  0  0  0  0  0  0  0  0
  -21.0265  -26.8477   22.6215 C   0  0  0  0  0  0  0  0  0  0  0  0
  -27.3365  -23.1102   17.4069 C   0  0  0  0  0  0  0  0  0  0  0  0
  -32.3605  -24.0396   21.6784 C   0  0  0  0  0  0  0  0  0  0  0  0
  -34.8645  -24.3475   21.5951 C   0  0  0  0  0  0  0  0  0  0  0  0
  -28.8679  -23.6440   15.4656 C   0  0  0  0  0  0  0  0  0  0  0  0
  -29.8308  -22.7088   17.5325 C   0  0  0  0  0  0  0  0  0  0  0  0
  -33.3958  -25.4807   19.8715 C   0  0  0  0  0  0  0  0  0  0  0  0
  -20.7277  -28.3064   22.9902 C   0  0  1  0  0  0  0  0  0  0  0  0
  -23.4342  -30.4195   21.3665 C   0  0  1  0  0  0  0  0  0  0  0  0
  -28.5684  -23.0757   18.3312 C   0  0  2  0  0  0  0  0  0  0  0  0
  -33.6494  -24.1297   22.4935 C   0  0  0  0  0  0  0  0  0  0  0  0
  -26.1351  -29.1071   14.4584 C   0  0  0  0  0  0  0  0  0  0  0  0
  -21.5021  -26.8897   18.4149 C   0  0  0  0  0  0  0  0  0  0  0  0
  -23.0597  -26.5151   16.4909 C   0  0  0  0  0  0  0  0  0  0  0  0
  -21.7013  -28.6042   16.6051 C   0  0  0  0  0  0  0  0  0  0  0  0
  -28.4986  -29.1781   17.4392 C   0  0  0  0  0  0  0  0  0  0  0  0
  -33.3378  -25.1741   16.9634 C   0  0  0  0  0  0  0  0  0  0  0  0
  -33.1039  -28.1622   21.0108 C   0  0  0  0  0  0  0  0  0  0  0  0
  -31.8218  -28.9269   23.0133 C   0  0  0  0  0  0  0  0  0  0  0  0
  -30.5158  -29.5802   23.4205 C   0  0  0  0  0  0  0  0  0  1  0  0
  -23.6498  -28.3047   18.1881 C   0  0  1  0  0  0  0  0  0  0  0  0
  -26.5208  -29.2910   15.9179 C   0  0  2  0  0  0  0  0  0  0  0  0
  -22.4882  -27.5798   17.4514 C   0  0  0  0  0  0  0  0  0  0  0  0
  -28.7468  -20.8696   19.4192 N   0  0  0  0  0  0  0  0  0  0  0  0
  -28.3540  -22.1512   19.5154 N   0  0  0  0  0  0  0  0  0  0  0  0
  -23.9557  -29.5762   20.2890 N   0  0  0  0  0  0  0  0  0  0  0  0
  -29.9977  -23.6306   16.3980 N   0  0  0  0  0  0  0  0  0  0  0  0
  -27.3410  -23.7114   20.9818 N   0  0  0  0  0  0  0  0  0  0  0  0
  -27.4295  -19.9046   23.4101 N   0  0  0  0  0  0  0  0  0  0  0  0
  -21.5047  -29.1777   22.1364 N   0  0  0  0  0  0  0  0  0  0  0  0
  -24.5841  -28.9900   17.3017 N   0  0  0  0  0  0  0  0  0  0  0  0
  -32.1328  -24.3838   17.0821 N   0  0  0  0  0  0  0  0  0  0  0  0
  -27.9781  -29.0126   16.0576 N   0  3  0  0  0  0  0  0  0  0  0  0
  -31.8516  -28.7691   21.5374 N   0  3  0  0  0  0  0  0  0  0  0  0
  -26.7956  -22.1084   23.4251 O   0  0  0  0  0  0  0  0  0  0  0  0
  -23.5028  -29.1103   23.3303 O   0  0  0  0  0  0  0  0  0  0  0  0
  -22.0946  -29.9344   18.9310 O   0  0  0  0  0  0  0  0  0  0  0  0
  -26.0628  -27.2186   17.0722 O   0  0  0  0  0  0  0  0  0  0  0  0
  -31.1799  -25.1964   15.1615 O   0  0  0  0  0  0  0  0  0  0  0  0
  -33.8368  -22.9237   23.2261 O   0  0  0  0  0  0  0  0  0  0  0  0
  -29.4513  -14.9859   21.7505 O   0  0  0  0  0  0  0  0  0  0  0  0
  -29.4235  -28.7522   23.0234 O   0  0  0  0  0  0  0  0  0  1  0  0
  -28.1800  -11.2593   17.8905 F   0  0  0  0  0  0  0  0  0  0  0  0
  -27.6358  -12.9671   22.2714 F   0  0  0  0  0  0  0  0  0  0  0  0
  1  2  1  0  0  0  0
  1  6  2  0  0  0  0
  2  7  2  0  0  0  0
  3  9  1  0  0  0  0
  3 10  2  0  0  0  0
  4 11  2  0  0  0  0
  4 18  1  0  0  0  0
  5 12  1  0  0  0  0
  5 18  2  0  0  0  0
  6 20  1  0  0  0  0
  7 22  1  0  0  0  0
  8 13  2  0  0  0  0
  8 21  1  0  0  0  0
  9 25  2  0  0  0  0
 10 26  1  0  0  0  0
 11 27  1  0  0  0  0
 12 27  2  0  0  0  0
 13 28  1  0  0  0  0
 14 15  2  0  0  0  0
 14 29  1  0  0  0  0
 15 30  1  0  0  0  0
 16 23  1  0  0  0  0
 16 28  2  0  0  0  0
 17 30  2  0  0  0  0
 17 31  1  0  0  0  0
 18 32  1  0  0  0  0
 19 32  1  0  0  0  0
 19 33  2  0  0  0  0
 19 34  1  0  0  0  0
 20 22  2  0  0  0  0
 20 39  1  0  0  0  0
 21 23  2  0  0  0  0
 21 40  1  0  0  0  0
 22 53  1  0  0  0  0
 23 41  1  0  0  0  0
 24 25  1  0  0  0  0
 24 26  2  0  0  0  0
 24 52  1  0  0  0  0
 25 62  1  0  0  0  0
 26 63  1  0  0  0  0
 27 86  1  0  0  0  0
 28 87  1  0  0  0  0
 29 31  2  0  0  0  0
 29 86  1  0  0  0  0
 30 88  1  0  0  0  0
 31 89  1  0  0  0  0
 32 69  2  0  0  0  0
 33 70  1  0  0  0  0
 33 73  1  0  0  0  0
 34 74  1  0  0  0  0
 34 80  2  0  0  0  0
 35 54  1  0  0  0  0
 35 75  1  0  0  0  0
 35 81  2  0  0  0  0
 36 66  1  0  0  0  0
 36 71  1  0  0  0  0
 36 82  2  0  0  0  0
 37 67  1  0  0  0  0
 37 76  1  0  0  0  0
 37 83  2  0  0  0  0
 38 72  1  0  0  0  0
 38 77  1  0  0  0  0
 38 84  2  0  0  0  0
 39 42  1  0  0  0  0
 40 54  1  0  0  0  0
 41 71  1  0  0  0  0
 42 46  1  0  0  0  0
 43 47  1  0  0  0  0
 43 50  1  0  0  0  0
 44 48  1  0  0  0  0
 44 52  1  0  0  0  0
 45 49  1  0  0  0  0
 45 52  1  0  0  0  0
 46 53  1  0  0  0  0
 47 55  1  0  0  0  0
 48 56  1  0  0  0  0
 49 56  1  0  0  0  0
 50 72  1  0  0  0  0
 51 55  1  0  0  0  0
 51 72  1  0  0  0  0
 53 75  1  0  0  0  0
 54 71  1  0  0  0  0
 55 70  1  0  0  0  0
 56 85  1  0  0  0  0
 57 67  1  0  0  0  0
 58 68  1  0  0  0  0
 59 68  1  0  0  0  0
 60 68  1  0  0  0  0
 61 78  1  0  0  0  0
 62 77  1  0  0  0  0
 63 79  1  0  0  0  0
 64 65  1  0  0  0  0
 64 79  1  0  0  0  0
 65 87  1  0  0  0  0
 66 68  1  0  0  0  0
 66 76  1  0  0  0  0
 67 78  1  0  0  0  0
 69 70  1  0  0  0  0
M  CHG  2  78   1  79   1
M  ISO  4  38 100  65 101  77 100  87 101
M  END
> <Batch ID>
0131

> <Smiles>
CNC(C)C(=O)NC(C(=O)N1Cc2cc([101O:1][101CH2:1]CNCc3cccc(C[100NH:0][100C:0](=O)N4CCCC(n5nc(-c6ccc(Oc7ccc(F)cc7F)cc6)c(C(N)=O)c5N)C4)c3C3CCC(O)CC3)ccc2CC1C(=O)NC1CCCc2ccccc21)C(C)(C)C

> <Shape>
0.264

> <Color>
0.099

> <Negative vol penalty>
0.000

$$$$

  -OEChem-04052320503D

 87 96  0     1  0  0  0  0  0999 V2000
  -21.7818  -18.2769   22.2557 C   0  0  0  0  0  0  0  0  0  0  0  0
  -22.8418  -19.1777   22.2391 C   0  0  0  0  0  0  0  0  0  0  0  0
  -23.1176   -9.7667   19.9740 C   0  0  0  0  0  0  0  0  0  0  0  0
  -23.8064   -9.8936   22.2862 C   0  0  0  0  0  0  0  0  0  0  0  0
  -20.5382  -18.6562   21.7520 C   0  0  0  0  0  0  0  0  0  0  0  0
  -22.6592  -20.4580   21.7177 C   0  0  0  0  0  0  0  0  0  0  0  0
  -29.6005  -19.3245   22.1351 C   0  0  0  0  0  0  0  0  0  0  0  0
  -24.7005  -24.0550   24.6400 C   0  0  0  0  0  0  0  0  0  0  0  0
  -29.4409  -17.9401   22.1925 C   0  0  0  0  0  0  0  0  0  0  0  0
  -22.3724   -8.6225   20.2587 C   0  0  0  0  0  0  0  0  0  0  0  0
  -23.0612   -8.7494   22.5710 C   0  0  0  0  0  0  0  0  0  0  0  0
  -26.0817  -24.2290   24.5644 C   0  0  0  0  0  0  0  0  0  0  0  0
  -19.8203   -7.9608   23.1141 C   0  0  0  0  0  0  0  0  0  0  0  0
  -19.0278   -7.9744   24.2619 C   0  0  0  0  0  0  0  0  0  0  0  0
  -25.7573  -26.1199   23.1020 C   0  0  0  0  0  0  0  0  0  0  0  0
  -31.1264  -17.6750   20.4818 C   0  0  0  0  0  0  0  0  0  0  0  0
  -20.2562   -6.0848   25.1323 C   0  0  0  0  0  0  0  0  0  0  0  0
  -23.8346  -10.4023   20.9877 C   0  0  0  0  0  0  0  0  0  0  0  0
  -24.1667  -12.9205   20.7514 C   0  0  0  0  0  0  0  0  0  0  0  0
  -20.3377  -19.9450   21.2330 C   0  0  0  0  0  0  0  0  0  0  0  0
  -23.8363  -24.9068   23.9373 C   0  0  0  0  0  0  0  0  0  0  0  0
  -21.4122  -20.8545   21.2054 C   0  0  0  0  0  0  0  0  0  0  0  0
  -30.5229  -19.8843   21.2511 C   0  0  0  0  0  0  0  0  0  0  0  0
  -24.3655  -25.9561   23.1725 C   0  0  0  0  0  0  0  0  0  0  0  0
  -30.2039  -17.1153   21.3658 C   0  0  0  0  0  0  0  0  0  0  0  0
  -22.3442   -8.1138   21.5572 C   0  0  0  0  0  0  0  0  0  0  0  0
  -26.6105  -25.2598   23.7930 C   0  0  0  0  0  0  0  0  0  0  0  0
  -20.8306   -7.0092   22.9753 C   0  0  0  0  0  0  0  0  0  0  0  0
  -31.2859  -19.0595   20.4245 C   0  0  0  0  0  0  0  0  0  0  0  0
  -19.2458   -7.0364   25.2710 C   0  0  0  0  0  0  0  0  0  0  0  0
  -21.0486   -6.0712   23.9844 C   0  0  0  0  0  0  0  0  0  0  0  0
  -24.6050  -11.5839   20.6940 C   0  0  0  0  0  0  0  0  0  0  0  0
  -25.2655  -13.6583   20.3844 C   0  0  0  0  0  0  0  0  0  0  0  0
  -22.8812  -13.4480   21.1049 C   0  0  0  0  0  0  0  0  0  0  0  0
  -21.6898  -24.5149   21.6259 C   0  0  0  0  0  0  0  0  0  0  0  0
  -21.0772  -27.6487   22.1974 C   0  0  0  0  0  0  0  0  0  0  0  0
  -22.1891  -30.6482   23.3862 C   0  0  0  0  0  0  0  0  0  0  0  0
  -30.7182  -14.7485   20.6730 C   0  0  0  0  0  0  0  0  0  0  0  0
  -18.9883  -20.2936   20.6564 C   0  0  0  0  0  0  0  0  0  0  0  0
  -22.3478  -24.7223   24.0508 C   0  0  0  0  0  0  0  0  0  0  0  0
  -23.4799  -26.9105   22.4153 C   0  0  0  0  0  0  0  0  0  0  0  0
  -18.7768  -21.7931   20.4647 C   0  0  0  0  0  0  0  0  0  0  0  0
  -29.6900  -12.2116   18.3961 C   0  0  0  0  0  0  0  0  0  0  0  0
  -19.9959  -22.4234   19.7988 C   0  0  0  0  0  0  0  0  0  0  0  0
  -28.2393  -11.9321   18.7957 C   0  0  0  0  0  0  0  0  0  0  0  0
  -29.3566  -22.0319   20.7876 C   0  0  0  0  0  0  0  0  0  0  0  0
  -31.1438  -21.9001   22.5695 C   0  0  0  0  0  0  0  0  0  0  0  0
  -30.5664  -12.5065   19.6121 C   0  0  0  0  0  0  0  0  0  0  0  0
  -28.6140  -13.2862   20.8964 C   0  0  0  0  0  0  0  0  0  0  0  0
  -29.4606  -23.5515   20.8094 C   0  0  0  0  0  0  0  0  0  0  0  0
  -31.2343  -23.4207   22.5774 C   0  0  0  0  0  0  0  0  0  0  0  0
  -30.6803  -21.3700   21.2031 C   0  0  0  0  0  0  0  0  0  0  0  0
  -21.2468  -22.2605   20.6708 C   0  0  1  0  0  0  0  0  0  0  0  0
  -21.5794  -25.3317   22.8822 C   0  0  1  0  0  0  0  0  0  0  0  0
  -27.6789  -13.0476   19.6996 C   0  0  2  0  0  0  0  0  0  0  0  0
  -21.4756  -33.0355   23.6851 C   0  0  0  0  0  0  0  0  0  0  0  0
  -21.5013  -28.1461   19.2170 C   0  0  0  0  0  0  0  0  0  0  0  0
  -21.7212  -30.5874   19.7268 C   0  0  0  0  0  0  0  0  0  0  0  0
  -19.5842  -29.3993   20.2214 C   0  0  0  0  0  0  0  0  0  0  0  0
  -22.4838  -30.4896   26.3267 C   0  0  0  0  0  0  0  0  0  0  0  0
  -32.9280  -18.6744   18.7479 C   0  0  0  0  0  0  0  0  0  0  0  0
  -29.8964  -25.5052   22.2953 C   0  0  0  0  0  0  0  0  0  0  0  0
  -28.4750  -25.9873   22.5084 C   0  0  0  0  0  0  0  0  0  1  0  0
  -21.6115  -28.9567   21.6658 C   0  0  1  0  0  0  0  0  0  0  0  0
  -21.5534  -31.6579   24.3247 C   0  0  2  0  0  0  0  0  0  0  0  0
  -21.1216  -29.2534   20.2203 C   0  0  0  0  0  0  0  0  0  0  0  0
  -25.8826  -11.4759   20.3198 N   0  0  0  0  0  0  0  0  0  0  0  0
  -26.2565  -12.7540   20.1387 N   0  0  0  0  0  0  0  0  0  0  0  0
  -22.0315  -26.6850   22.5528 N   0  0  0  0  0  0  0  0  0  0  0  0
  -29.9752  -13.5761   20.4191 N   0  0  0  0  0  0  0  0  0  0  0  0
  -25.4711  -14.9858   20.2510 N   0  0  0  0  0  0  0  0  0  0  0  0
  -21.8642  -12.5500   21.4564 N   0  0  0  0  0  0  0  0  0  0  0  0
  -30.0410  -15.7089   21.4237 N   0  0  0  0  0  0  0  0  0  0  0  0
  -21.2338  -23.2171   21.7568 N   0  0  0  0  0  0  0  0  0  0  0  0
  -21.2425  -29.9755   22.6427 N   0  0  0  0  0  0  0  0  0  0  0  0
  -29.9000  -24.0248   22.1822 N   0  3  0  0  0  0  0  0  0  0  0  0
  -22.3464  -31.7675   25.5817 N   0  3  0  0  0  0  0  0  0  0  0  0
  -22.6368  -14.6783   21.0931 O   0  0  0  0  0  0  0  0  0  0  0  0
  -22.1529  -25.0249   20.6124 O   0  0  0  0  0  0  0  0  0  0  0  0
  -19.8581  -27.4905   22.3004 O   0  0  0  0  0  0  0  0  0  0  0  0
  -23.4040  -30.4763   23.3166 O   0  0  0  0  0  0  0  0  0  0  0  0
  -31.8602  -14.9012   20.2321 O   0  0  0  0  0  0  0  0  0  0  0  0
  -21.6170   -6.9975   21.8356 O   0  0  0  0  0  0  0  0  0  0  0  0
  -32.1910  -19.5903   19.5552 O   0  0  0  0  0  0  0  0  0  0  0  0
  -27.9583  -25.4315   23.7169 O   0  0  0  0  0  0  0  0  0  1  0  0
  -18.4858   -7.0506   26.3739 F   0  0  0  0  0  0  0  0  0  0  0  0
  -22.0185   -5.1552   23.8573 F   0  0  0  0  0  0  0  0  0  0  0  0
  1  2  1  0  0  0  0
  1  5  2  0  0  0  0
  2  6  2  0  0  0  0
  3 10  2  0  0  0  0
  3 18  1  0  0  0  0
  4 11  1  0  0  0  0
  4 18  2  0  0  0  0
  5 20  1  0  0  0  0
  6 22  1  0  0  0  0
  7  9  2  0  0  0  0
  7 23  1  0  0  0  0
  8 12  2  0  0  0  0
  8 21  1  0  0  0  0
  9 25  1  0  0  0  0
 10 26  1  0  0  0  0
 11 26  2  0  0  0  0
 12 27  1  0  0  0  0
 13 14  2  0  0  0  0
 13 28  1  0  0  0  0
 14 30  1  0  0  0  0
 15 24  1  0  0  0  0
 15 27  2  0  0  0  0
 16 25  2  0  0  0  0
 16 29  1  0  0  0  0
 17 30  2  0  0  0  0
 17 31  1  0  0  0  0
 18 32  1  0  0  0  0
 19 32  1  0  0  0  0
 19 33  2  0  0  0  0
 19 34  1  0  0  0  0
 20 22  2  0  0  0  0
 20 39  1  0  0  0  0
 21 24  2  0  0  0  0
 21 40  1  0  0  0  0
 22 53  1  0  0  0  0
 23 29  2  0  0  0  0
 23 52  1  0  0  0  0
 24 41  1  0  0  0  0
 25 73  1  0  0  0  0
 26 83  1  0  0  0  0
 27 85  1  0  0  0  0
 28 31  2  0  0  0  0
 28 83  1  0  0  0  0
 29 84  1  0  0  0  0
 30 86  1  0  0  0  0
 31 87  1  0  0  0  0
 32 67  2  0  0  0  0
 33 68  1  0  0  0  0
 33 71  1  0  0  0  0
 34 72  1  0  0  0  0
 34 78  2  0  0  0  0
 35 54  1  0  0  0  0
 35 74  1  0  0  0  0
 35 79  2  0  0  0  0
 36 64  1  0  0  0  0
 36 69  1  0  0  0  0
 36 80  2  0  0  0  0
 37 65  1  0  0  0  0
 37 75  1  0  0  0  0
 37 81  2  0  0  0  0
 38 70  1  0  0  0  0
 38 73  1  0  0  0  0
 38 82  2  0  0  0  0
 39 42  1  0  0  0  0
 40 54  1  0  0  0  0
 41 69  1  0  0  0  0
 42 44  1  0  0  0  0
 43 45  1  0  0  0  0
 43 48  1  0  0  0  0
 44 53  1  0  0  0  0
 45 55  1  0  0  0  0
 46 50  1  0  0  0  0
 46 52  1  0  0  0  0
 47 51  1  0  0  0  0
 47 52  1  0  0  0  0
 48 70  1  0  0  0  0
 49 55  1  0  0  0  0
 49 70  1  0  0  0  0
 50 76  1  0  0  0  0
 51 76  1  0  0  0  0
 53 74  1  0  0  0  0
 54 69  1  0  0  0  0
 55 68  1  0  0  0  0
 56 65  1  0  0  0  0
 57 66  1  0  0  0  0
 58 66  1  0  0  0  0
 59 66  1  0  0  0  0
 60 77  1  0  0  0  0
 61 84  1  0  0  0  0
 62 63  1  0  0  0  0
 62 76  1  0  0  0  0
 63 85  1  0  0  0  0
 64 66  1  0  0  0  0
 64 75  1  0  0  0  0
 65 77  1  0  0  0  0
 67 68  1  0  0  0  0
M  CHG  2  76   1  77   1
M  ISO  4  38 100  63 101  73 100  85 101
M  END
> <Batch ID>
0131

> <Smiles>
CNC(C)C(=O)NC(C(=O)N1Cc2cc([101O:1][101CH2:1]CN3CCC(c4ccc([100NH:0][100C:0](=O)N5CCCC(n6nc(-c7ccc(Oc8ccc(F)cc8F)cc7)c(C(N)=O)c6N)C5)cc4OC)CC3)ccc2CC1C(=O)NC1CCCc2ccccc21)C(C)(C)C

> <Shape>
0.250

> <Color>
0.198

> <Negative vol penalty>
0.000

$$$$

  -OEChem-04052320503D

 88 97  0     1  0  0  0  0  0999 V2000
  -30.9029  -35.1005   24.7289 C   0  0  0  0  0  0  0  0  0  0  0  0
  -30.5237  -34.6737   23.4602 C   0  0  0  0  0  0  0  0  0  0  0  0
  -23.0728   -9.8709   19.9396 C   0  0  0  0  0  0  0  0  0  0  0  0
  -23.8382   -9.8715   22.2312 C   0  0  0  0  0  0  0  0  0  0  0  0
  -31.6640  -34.2652   25.5455 C   0  0  0  0  0  0  0  0  0  0  0  0
  -30.9063  -33.4117   23.0071 C   0  0  0  0  0  0  0  0  0  0  0  0
  -28.6125  -28.0341   18.8675 C   0  0  0  0  0  0  0  0  0  0  0  0
  -28.0930  -22.1938   16.1102 C   0  0  0  0  0  0  0  0  0  0  0  0
  -27.8481  -21.0974   16.9369 C   0  0  0  0  0  0  0  0  0  0  0  0
  -22.3299   -8.7168   20.1880 C   0  0  0  0  0  0  0  0  0  0  0  0
  -23.0953   -8.7174   22.4796 C   0  0  0  0  0  0  0  0  0  0  0  0
  -29.0325  -27.2421   17.7998 C   0  0  0  0  0  0  0  0  0  0  0  0
  -19.8689   -7.9165   23.0875 C   0  0  0  0  0  0  0  0  0  0  0  0
  -19.1147   -7.8729   24.2601 C   0  0  0  0  0  0  0  0  0  0  0  0
  -30.2798  -25.8537   19.3281 C   0  0  0  0  0  0  0  0  0  0  0  0
  -30.4005  -22.2180   16.8257 C   0  0  0  0  0  0  0  0  0  0  0  0
  -20.3586   -5.9338   24.9879 C   0  0  0  0  0  0  0  0  0  0  0  0
  -23.8269  -10.4483   20.9612 C   0  0  0  0  0  0  0  0  0  0  0  0
  -24.1675  -12.9739   20.8478 C   0  0  0  0  0  0  0  0  0  0  0  0
  -32.0480  -32.9885   25.1059 C   0  0  0  0  0  0  0  0  0  0  0  0
  -29.0325  -27.7478   20.1745 C   0  0  0  0  0  0  0  0  0  0  0  0
  -31.6744  -32.5591   23.8181 C   0  0  0  0  0  0  0  0  0  0  0  0
  -29.8617  -26.6420   20.4110 C   0  0  0  0  0  0  0  0  0  0  0  0
  -29.3692  -22.7541   16.0545 C   0  0  0  0  0  0  0  0  0  0  0  0
  -28.8794  -20.5613   17.7081 C   0  0  0  0  0  0  0  0  0  0  0  0
  -30.1556  -21.1217   17.6525 C   0  0  0  0  0  0  0  0  0  0  0  0
  -22.3412   -8.1400   21.4580 C   0  0  0  0  0  0  0  0  0  0  0  0
  -29.8687  -26.1534   18.0296 C   0  0  0  0  0  0  0  0  0  0  0  0
  -20.8679   -6.9688   22.8650 C   0  0  0  0  0  0  0  0  0  0  0  0
  -19.3596   -6.8815   25.2103 C   0  0  0  0  0  0  0  0  0  0  0  0
  -21.1128   -5.9774   23.8153 C   0  0  0  0  0  0  0  0  0  0  0  0
  -24.5949  -11.6402   20.7051 C   0  0  0  0  0  0  0  0  0  0  0  0
  -25.2585  -13.7249   20.4841 C   0  0  0  0  0  0  0  0  0  0  0  0
  -22.8978  -13.4880   21.2712 C   0  0  0  0  0  0  0  0  0  0  0  0
  -30.7304  -29.2917   22.3738 C   0  0  0  0  0  0  0  0  0  0  0  0
  -29.8865  -26.7714   24.2334 C   0  0  0  0  0  0  0  0  0  0  0  0
  -28.8948  -23.5111   24.4186 C   0  0  0  0  0  0  0  0  0  0  0  0
  -30.7423  -14.7455   20.6623 C   0  0  0  0  0  0  0  0  0  0  0  0
  -32.9106  -32.1398   26.0060 C   0  0  0  0  0  0  0  0  0  0  0  0
  -28.5490  -28.5959   21.3187 C   0  0  0  0  0  0  0  0  0  0  0  0
  -30.3245  -26.2801   21.7978 C   0  0  0  0  0  0  0  0  0  0  0  0
  -32.9577  -30.6702   25.5957 C   0  0  0  0  0  0  0  0  0  0  0  0
  -29.5999  -12.3675   18.2713 C   0  0  0  0  0  0  0  0  0  0  0  0
  -27.2297  -19.5829   21.8160 C   0  0  0  0  0  0  0  0  0  0  0  0
  -33.1919  -30.5425   24.0939 C   0  0  0  0  0  0  0  0  0  0  0  0
  -28.1636  -12.0720   18.7068 C   0  0  0  0  0  0  0  0  0  0  0  0
  -28.4372  -18.7589   22.2139 C   0  0  0  0  0  0  0  0  0  0  0  0
  -30.5198  -12.5852   19.4706 C   0  0  0  0  0  0  0  0  0  0  0  0
  -28.6211  -13.3115   20.8639 C   0  0  0  0  0  0  0  0  0  0  0  0
  -27.7577  -20.4743   20.7082 C   0  0  0  0  0  0  0  0  0  0  0  0
  -32.0491  -31.1873   23.3004 C   0  0  1  0  0  0  0  0  0  0  0  0
  -29.4539  -28.5177   22.5445 C   0  0  1  0  0  0  0  0  0  0  0  0
  -27.6442  -13.1400   19.6881 C   0  0  2  0  0  0  0  0  0  0  0  0
  -29.0502  -18.3965   20.8690 C   0  0  2  0  0  0  0  0  0  0  0  0
  -31.2751  -20.5648   18.4695 C   0  0  0  0  0  0  0  0  0  0  0  0
  -28.0974  -21.3759   25.4685 C   0  0  0  0  0  0  0  0  0  0  0  0
  -32.8516  -26.3886   24.8429 C   0  0  0  0  0  0  0  0  0  0  0  0
  -32.3107  -24.0940   25.6858 C   0  0  0  0  0  0  0  0  0  0  0  0
  -31.3359  -26.0959   26.8105 C   0  0  0  0  0  0  0  0  0  0  0  0
  -26.0556  -24.2987   24.1401 C   0  0  0  0  0  0  0  0  0  0  0  0
  -29.6338  -23.9408   15.1601 C   0  0  0  0  0  0  0  0  0  0  0  0
  -28.5930  -19.3880   18.5867 C   0  0  0  0  0  0  0  0  0  0  0  0
  -30.5246  -18.0454   20.9476 C   0  0  0  0  0  0  0  0  0  0  0  0
  -30.8103  -16.8925   21.9053 C   0  0  0  0  0  0  0  0  0  0  0  0
  -29.3984  -25.2680   15.8730 C   0  0  0  0  0  0  0  0  0  1  0  0
  -30.4805  -25.4157   24.5306 C   0  0  1  0  0  0  0  0  0  0  0  0
  -27.7820  -22.8398   25.2030 C   0  0  2  0  0  0  0  0  0  0  0  0
  -31.7377  -25.5063   25.4409 C   0  0  0  0  0  0  0  0  0  0  0  0
  -25.8588  -11.5461   20.2835 N   0  0  0  0  0  0  0  0  0  0  0  0
  -26.2349  -12.8302   20.1581 N   0  0  0  0  0  0  0  0  0  0  0  0
  -29.8297  -27.1435   22.8828 N   0  0  0  0  0  0  0  0  0  0  0  0
  -29.9710  -13.6109   20.3609 N   0  0  0  0  0  0  0  0  0  0  0  0
  -25.4682  -15.0566   20.4145 N   0  0  0  0  0  0  0  0  0  0  0  0
  -21.8871  -12.5775   21.6083 N   0  0  0  0  0  0  0  0  0  0  0  0
  -30.8918  -30.3185   23.2845 N   0  0  0  0  0  0  0  0  0  0  0  0
  -29.3987  -24.6085   25.0843 N   0  0  0  0  0  0  0  0  0  0  0  0
  -30.1448  -15.6716   21.5085 N   0  0  0  0  0  0  0  0  0  0  0  0
  -28.8502  -19.6573   20.0379 N   0  3  1  0  0  0  0  0  0  0  0  0
  -26.4987  -22.9148   24.4491 N   0  3  0  0  0  0  0  0  0  0  0  0
  -22.6613  -14.7184   21.3327 O   0  0  0  0  0  0  0  0  0  0  0  0
  -31.5118  -28.9795   21.4830 O   0  0  0  0  0  0  0  0  0  0  0  0
  -29.4810  -27.4713   25.1648 O   0  0  0  0  0  0  0  0  0  0  0  0
  -29.2812  -23.1008   23.3264 O   0  0  0  0  0  0  0  0  0  0  0  0
  -31.8771  -14.9227   20.2065 O   0  0  0  0  0  0  0  0  0  0  0  0
  -21.6162   -7.0139   21.7008 O   0  0  0  0  0  0  0  0  0  0  0  0
  -30.2806  -25.3792   16.9891 O   0  0  0  0  0  0  0  0  0  1  0  0
  -18.6364   -6.8407   26.3370 F   0  0  0  0  0  0  0  0  0  0  0  0
  -22.0719   -5.0649   23.6077 F   0  0  0  0  0  0  0  0  0  0  0  0
  1  2  1  0  0  0  0
  1  5  2  0  0  0  0
  2  6  2  0  0  0  0
  3 10  2  0  0  0  0
  3 18  1  0  0  0  0
  4 11  1  0  0  0  0
  4 18  2  0  0  0  0
  5 20  1  0  0  0  0
  6 22  1  0  0  0  0
  7 12  2  0  0  0  0
  7 21  1  0  0  0  0
  8  9  2  0  0  0  0
  8 24  1  0  0  0  0
  9 25  1  0  0  0  0
 10 27  1  0  0  0  0
 11 27  2  0  0  0  0
 12 28  1  0  0  0  0
 13 14  2  0  0  0  0
 13 29  1  0  0  0  0
 14 30  1  0  0  0  0
 15 23  1  0  0  0  0
 15 28  2  0  0  0  0
 16 24  2  0  0  0  0
 16 26  1  0  0  0  0
 17 30  2  0  0  0  0
 17 31  1  0  0  0  0
 18 32  1  0  0  0  0
 19 32  1  0  0  0  0
 19 33  2  0  0  0  0
 19 34  1  0  0  0  0
 20 22  2  0  0  0  0
 20 39  1  0  0  0  0
 21 23  2  0  0  0  0
 21 40  1  0  0  0  0
 22 51  1  0  0  0  0
 23 41  1  0  0  0  0
 24 61  1  0  0  0  0
 25 26  2  0  0  0  0
 25 62  1  0  0  0  0
 26 55  1  0  0  0  0
 27 85  1  0  0  0  0
 28 86  1  0  0  0  0
 29 31  2  0  0  0  0
 29 85  1  0  0  0  0
 30 87  1  0  0  0  0
 31 88  1  0  0  0  0
 32 69  2  0  0  0  0
 33 70  1  0  0  0  0
 33 73  1  0  0  0  0
 34 74  1  0  0  0  0
 34 80  2  0  0  0  0
 35 52  1  0  0  0  0
 35 75  1  0  0  0  0
 35 81  2  0  0  0  0
 36 66  1  0  0  0  0
 36 71  1  0  0  0  0
 36 82  2  0  0  0  0
 37 67  1  0  0  0  0
 37 76  1  0  0  0  0
 37 83  2  0  0  0  0
 38 72  1  0  0  0  0
 38 77  1  0  0  0  0
 38 84  2  0  0  0  0
 39 42  1  0  0  0  0
 40 52  1  0  0  0  0
 41 71  1  0  0  0  0
 42 45  1  0  0  0  0
 43 46  1  0  0  0  0
 43 48  1  0  0  0  0
 44 47  1  0  0  0  0
 44 50  1  0  0  0  0
 45 51  1  0  0  0  0
 46 53  1  0  0  0  0
 47 54  1  0  0  0  0
 48 72  1  0  0  0  0
 49 53  1  0  0  0  0
 49 72  1  0  0  0  0
 50 78  1  0  0  0  0
 51 75  1  0  0  0  0
 52 71  1  0  0  0  0
 53 70  1  0  0  0  0
 54 63  1  0  0  0  0
 54 78  1  0  0  0  0
 56 67  1  0  0  0  0
 57 68  1  0  0  0  0
 58 68  1  0  0  0  0
 59 68  1  0  0  0  0
 60 79  1  0  0  0  0
 61 65  1  0  0  0  0
 62 78  1  0  0  0  0
 63 64  1  0  0  0  0
 64 77  1  0  0  0  0
 65 86  1  0  0  0  0
 66 68  1  0  0  0  0
 66 76  1  0  0  0  0
 67 79  1  0  0  0  0
 69 70  1  0  0  0  0
M  CHG  2  78   1  79   1
M  ISO  4  38 100  65 101  77 100  86 101
M  END
> <Batch ID>
0131

> <Smiles>
CNC(C)C(=O)NC(C(=O)N1Cc2cc([101O:1][101CH2:1]Cc3ccc(CN4CCCC4CC[100NH:0][100C:0](=O)N4CCCC(n5nc(-c6ccc(Oc7ccc(F)cc7F)cc6)c(C(N)=O)c5N)C4)c(C)c3)ccc2CC1C(=O)NC1CCCc2ccccc21)C(C)(C)C

> <Shape>
0.255

> <Color>
0.188

> <Negative vol penalty>
0.000

$$$$

  -OEChem-04052320503D

 88 97  0     1  0  0  0  0  0999 V2000
  -18.4471  -27.2966   23.2911 C   0  0  0  0  0  0  0  0  0  0  0  0
  -19.3371  -26.2942   22.9189 C   0  0  0  0  0  0  0  0  0  0  0  0
  -26.4749  -12.6160   21.1247 C   0  0  0  0  0  0  0  0  0  0  0  0
  -25.1762  -14.0154   19.6441 C   0  0  0  0  0  0  0  0  0  0  0  0
  -18.6663  -28.6103   22.8787 C   0  0  0  0  0  0  0  0  0  0  0  0
  -20.4464  -26.6048   22.1332 C   0  0  0  0  0  0  0  0  0  0  0  0
  -24.6903  -24.4080   23.8087 C   0  0  0  0  0  0  0  0  0  0  0  0
  -25.3205  -11.9161   21.4758 C   0  0  0  0  0  0  0  0  0  0  0  0
  -24.0219  -13.3155   19.9951 C   0  0  0  0  0  0  0  0  0  0  0  0
  -24.8678  -23.0572   23.5126 C   0  0  0  0  0  0  0  0  0  0  0  0
  -23.3808   -9.4854   20.1485 C   0  0  0  0  0  0  0  0  0  0  0  0
  -23.4544   -8.0931   20.1906 C   0  0  0  0  0  0  0  0  0  0  0  0
  -26.3351  -23.6550   21.6935 C   0  0  0  0  0  0  0  0  0  0  0  0
  -22.8480   -8.1317   22.5290 C   0  0  0  0  0  0  0  0  0  0  0  0
  -26.4027  -13.6657   20.2090 C   0  0  0  0  0  0  0  0  0  0  0  0
  -28.7574  -13.8674   19.2484 C   0  0  0  0  0  0  0  0  0  0  0  0
  -19.7841  -28.9388   22.0956 C   0  0  0  0  0  0  0  0  0  0  0  0
  -25.3263  -25.3945   23.0413 C   0  0  0  0  0  0  0  0  0  0  0  0
  -20.6801  -27.9239   21.7088 C   0  0  0  0  0  0  0  0  0  0  0  0
  -26.1661  -25.0175   21.9835 C   0  0  0  0  0  0  0  0  0  0  0  0
  -24.0940  -12.2659   20.9110 C   0  0  0  0  0  0  0  0  0  0  0  0
  -25.6880  -22.6807   22.4530 C   0  0  0  0  0  0  0  0  0  0  0  0
  -23.0408  -10.2009   21.2967 C   0  0  0  0  0  0  0  0  0  0  0  0
  -23.1880   -7.4163   21.3808 C   0  0  0  0  0  0  0  0  0  0  0  0
  -22.7744   -9.5240   22.4869 C   0  0  0  0  0  0  0  0  0  0  0  0
  -27.5948  -14.3894   19.8464 C   0  0  0  0  0  0  0  0  0  0  0  0
  -29.5891  -14.9517   19.1105 C   0  0  0  0  0  0  0  0  0  0  0  0
  -29.0585  -12.5226   18.8528 C   0  0  0  0  0  0  0  0  0  0  0  0
  -23.3456  -21.5023   19.9422 C   0  0  0  0  0  0  0  0  0  0  0  0
  -24.3365  -27.7851   21.1950 C   0  0  0  0  0  0  0  0  0  0  0  0
  -24.5207  -22.3143   16.6463 C   0  0  0  0  0  0  0  0  0  0  0  0
  -27.5019  -28.4830   21.0702 C   0  0  0  0  0  0  0  0  0  0  0  0
  -30.5917  -26.6496   20.7401 C   0  0  0  0  0  0  0  0  0  0  0  0
  -28.5772  -20.8367   18.6702 C   0  0  0  0  0  0  0  0  0  0  0  0
  -19.9536  -30.3647   21.6345 C   0  0  0  0  0  0  0  0  0  0  0  0
  -25.1458  -26.8463   23.3904 C   0  0  0  0  0  0  0  0  0  0  0  0
  -26.8876  -26.0370   21.1419 C   0  0  0  0  0  0  0  0  0  0  0  0
  -21.3558  -30.6748   21.1166 C   0  0  0  0  0  0  0  0  0  0  0  0
  -23.9353  -18.4393   21.2465 C   0  0  0  0  0  0  0  0  0  0  0  0
  -30.5834  -19.1856   21.1045 C   0  0  0  0  0  0  0  0  0  0  0  0
  -21.8273  -29.5805   20.1643 C   0  0  0  0  0  0  0  0  0  0  0  0
  -24.1860  -19.1567   19.9256 C   0  0  0  0  0  0  0  0  0  0  0  0
  -30.1498  -17.7221   21.0042 C   0  0  0  0  0  0  0  0  0  0  0  0
  -24.8643  -19.1533   22.2104 C   0  0  0  0  0  0  0  0  0  0  0  0
  -22.7171  -23.8090   19.2497 C   0  0  0  0  0  0  0  0  0  0  0  0
  -29.4078  -20.1380   20.8969 C   0  0  0  0  0  0  0  0  0  0  0  0
  -28.2101  -18.4535   19.5545 C   0  0  0  0  0  0  0  0  0  0  0  0
  -21.5615  -23.6193   18.2918 C   0  0  0  0  0  0  0  0  0  0  0  0
  -21.9083  -28.2255   20.8778 C   0  0  1  0  0  0  0  0  0  0  0  0
  -24.4937  -20.6101   20.3041 C   0  0  2  0  0  0  0  0  0  0  0  0
  -23.6350  -22.6181   18.9829 C   0  0  2  0  0  0  0  0  0  0  0  0
  -25.4344  -27.7824   22.2208 C   0  0  1  0  0  0  0  0  0  0  0  0
  -23.3421  -22.1680   17.5501 C   0  0  1  0  0  0  0  0  0  0  0  0
  -29.3717  -17.4558   19.7015 C   0  0  2  0  0  0  0  0  0  0  0  0
  -24.7043  -20.6180   21.8231 C   0  0  2  0  0  0  0  0  0  1  0  0
  -32.9119  -27.2097   21.5149 C   0  0  0  0  0  0  0  0  0  0  0  0
  -27.8506  -29.6279   18.2635 C   0  0  0  0  0  0  0  0  0  0  0  0
  -30.1876  -28.7297   18.2629 C   0  0  0  0  0  0  0  0  0  0  0  0
  -29.5148  -30.4498   19.9396 C   0  0  0  0  0  0  0  0  0  0  0  0
  -30.8300  -24.1083   22.2380 C   0  0  0  0  0  0  0  0  0  0  0  0
  -26.4259  -21.0702   15.6439 C   0  0  0  0  0  0  0  0  0  0  0  0
  -27.6986  -21.3821   16.4141 C   0  0  0  0  0  0  0  0  0  0  0  0
  -28.6497  -28.0857   20.1738 C   0  0  1  0  0  0  0  0  0  0  0  0
  -31.6396  -26.4334   21.8170 C   0  0  2  0  0  0  0  0  0  0  0  0
  -29.0285  -29.2060   19.1643 C   0  0  0  0  0  0  0  0  0  0  0  0
  -27.6768  -15.7031   20.0729 N   0  0  0  0  0  0  0  0  0  0  0  0
  -28.9010  -16.0157   19.6150 N   0  0  0  0  0  0  0  0  0  0  0  0
  -26.6740  -27.4441   21.5187 N   0  0  0  0  0  0  0  0  0  0  0  0
  -28.7135  -19.8332   19.6435 N   0  0  0  0  0  0  0  0  0  0  0  0
  -30.8346  -15.0892   18.6083 N   0  0  0  0  0  0  0  0  0  0  0  0
  -28.7249  -12.1178   17.5531 N   0  0  0  0  0  0  0  0  0  0  0  0
  -23.1017  -28.1544   21.6934 N   0  0  0  0  0  0  0  0  0  0  0  0
  -25.2485  -21.1518   16.4782 N   0  0  0  0  0  0  0  0  0  0  0  0
  -29.7387  -27.6852   21.0582 N   0  0  0  0  0  0  0  0  0  0  0  0
  -27.9117  -20.4623   17.5093 N   0  0  0  0  0  0  0  0  0  0  0  0
  -22.2304  -23.0650   17.0791 N   0  3  0  0  0  0  0  0  0  0  0  0
  -31.9848  -24.9874   21.9208 N   0  3  0  0  0  0  0  0  0  0  0  0
  -29.5924  -11.6992   19.6342 O   0  0  0  0  0  0  0  0  0  0  0  0
  -22.2205  -21.3269   20.4074 O   0  0  0  0  0  0  0  0  0  0  0  0
  -24.5912  -27.4764   20.0367 O   0  0  0  0  0  0  0  0  0  0  0  0
  -24.7576  -23.4018   16.1335 O   0  0  0  0  0  0  0  0  0  0  0  0
  -27.3498  -29.6705   21.3675 O   0  0  0  0  0  0  0  0  0  0  0  0
  -30.5378  -25.9705   19.7172 O   0  0  0  0  0  0  0  0  0  0  0  0
  -29.0208  -21.9800   18.8221 O   0  0  0  0  0  0  0  0  0  0  0  0
  -22.9674  -11.5830   21.2531 O   0  0  0  0  0  0  0  0  0  0  0  0
  -25.8624  -21.3629   22.1614 O   0  0  0  0  0  0  0  0  0  1  0  0
  -23.2572   -6.0792   21.4207 F   0  0  0  0  0  0  0  0  0  0  0  0
  -22.4462  -10.2059   23.5929 F   0  0  0  0  0  0  0  0  0  0  0  0
  1  2  1  0  0  0  0
  1  5  2  0  0  0  0
  2  6  2  0  0  0  0
  3  8  2  0  0  0  0
  3 15  1  0  0  0  0
  4  9  1  0  0  0  0
  4 15  2  0  0  0  0
  5 17  1  0  0  0  0
  6 19  1  0  0  0  0
  7 10  2  0  0  0  0
  7 18  1  0  0  0  0
  8 21  1  0  0  0  0
  9 21  2  0  0  0  0
 10 22  1  0  0  0  0
 11 12  2  0  0  0  0
 11 23  1  0  0  0  0
 12 24  1  0  0  0  0
 13 20  1  0  0  0  0
 13 22  2  0  0  0  0
 14 24  2  0  0  0  0
 14 25  1  0  0  0  0
 15 26  1  0  0  0  0
 16 26  1  0  0  0  0
 16 27  2  0  0  0  0
 16 28  1  0  0  0  0
 17 19  2  0  0  0  0
 17 35  1  0  0  0  0
 18 20  2  0  0  0  0
 18 36  1  0  0  0  0
 19 49  1  0  0  0  0
 20 37  1  0  0  0  0
 21 85  1  0  0  0  0
 22 86  1  0  0  0  0
 23 25  2  0  0  0  0
 23 85  1  0  0  0  0
 24 87  1  0  0  0  0
 25 88  1  0  0  0  0
 26 66  2  0  0  0  0
 27 67  1  0  0  0  0
 27 70  1  0  0  0  0
 28 71  1  0  0  0  0
 28 78  2  0  0  0  0
 29 50  1  0  0  0  0
 29 51  1  0  0  0  0
 29 79  2  0  0  0  0
 30 52  1  0  0  0  0
 30 72  1  0  0  0  0
 30 80  2  0  0  0  0
 31 53  1  0  0  0  0
 31 73  1  0  0  0  0
 31 81  2  0  0  0  0
 32 63  1  0  0  0  0
 32 68  1  0  0  0  0
 32 82  2  0  0  0  0
 33 64  1  0  0  0  0
 33 74  1  0  0  0  0
 33 83  2  0  0  0  0
 34 69  1  0  0  0  0
 34 75  1  0  0  0  0
 34 84  2  0  0  0  0
 35 38  1  0  0  0  0
 36 52  1  0  0  0  0
 37 68  1  0  0  0  0
 38 41  1  0  0  0  0
 39 42  1  0  0  0  0
 39 44  1  0  0  0  0
 40 43  1  0  0  0  0
 40 46  1  0  0  0  0
 41 49  1  0  0  0  0
 42 50  1  0  0  0  0
 43 54  1  0  0  0  0
 44 55  1  0  0  0  0
 45 48  1  0  0  0  0
 45 51  1  0  0  0  0
 46 69  1  0  0  0  0
 47 54  1  0  0  0  0
 47 69  1  0  0  0  0
 48 76  1  0  0  0  0
 49 72  1  0  0  0  0
 50 55  1  0  0  0  0
 51 53  1  0  0  0  0
 52 68  1  0  0  0  0
 53 76  1  0  0  0  0
 54 67  1  0  0  0  0
 55 86  1  0  0  0  0
 56 64  1  0  0  0  0
 57 65  1  0  0  0  0
 58 65  1  0  0  0  0
 59 65  1  0  0  0  0
 60 77  1  0  0  0  0
 61 62  1  0  0  0  0
 61 73  1  0  0  0  0
 62 75  1  0  0  0  0
 63 65  1  0  0  0  0
 63 74  1  0  0  0  0
 64 77  1  0  0  0  0
 66 67  1  0  0  0  0
M  CHG  2  76   1  77   1
M  ISO  4  34 100  55 101  75 100  86 101
M  END
> <Batch ID>
0131

> <Smiles>
CNC(C)C(=O)NC(C(=O)N1Cc2cc([101O:1][101CH:1]3CCCC3C(=O)C3CCNC3C(=O)NCC[100NH:0][100C:0](=O)N3CCCC(n4nc(-c5ccc(Oc6ccc(F)cc6F)cc5)c(C(N)=O)c4N)C3)ccc2CC1C(=O)NC1CCCc2ccccc21)C(C)(C)C

> <Shape>
0.247

> <Color>
0.065

> <Negative vol penalty>
0.000

$$$$

  -OEChem-04052320503D

 85 94  0     1  0  0  0  0  0999 V2000
  -24.8967  -30.7628   27.3640 C   0  0  0  0  0  0  0  0  0  0  0  0
  -25.2667  -29.5707   26.7496 C   0  0  0  0  0  0  0  0  0  0  0  0
  -23.8604   -9.9051   22.1791 C   0  0  0  0  0  0  0  0  0  0  0  0
  -24.3658  -11.3971   24.0109 C   0  0  0  0  0  0  0  0  0  0  0  0
  -24.0125  -31.6303   26.7241 C   0  0  0  0  0  0  0  0  0  0  0  0
  -24.7518  -29.2449   25.4953 C   0  0  0  0  0  0  0  0  0  0  0  0
  -28.2963  -27.4793   22.3389 C   0  0  0  0  0  0  0  0  0  0  0  0
  -29.8366  -21.1888   20.9780 C   0  0  0  0  0  0  0  0  0  0  0  0
  -30.3292  -19.9268   21.3104 C   0  0  0  0  0  0  0  0  0  0  0  0
  -23.3732   -8.9608   23.0826 C   0  0  0  0  0  0  0  0  0  0  0  0
  -23.8785  -10.4528   24.9145 C   0  0  0  0  0  0  0  0  0  0  0  0
  -28.6985  -26.1553   22.5096 C   0  0  0  0  0  0  0  0  0  0  0  0
  -20.5488   -8.4487   24.8697 C   0  0  0  0  0  0  0  0  0  0  0  0
  -19.3410   -7.8218   24.5637 C   0  0  0  0  0  0  0  0  0  0  0  0
  -27.7210  -20.6334   22.0041 C   0  0  0  0  0  0  0  0  0  0  0  0
  -27.2685  -25.4917   20.6838 C   0  0  0  0  0  0  0  0  0  0  0  0
  -20.4520   -5.6764   24.5739 C   0  0  0  0  0  0  0  0  0  0  0  0
  -24.3568  -11.1233   22.6432 C   0  0  0  0  0  0  0  0  0  0  0  0
  -24.1334  -13.1240   21.0765 C   0  0  0  0  0  0  0  0  0  0  0  0
  -23.4940  -31.3195   25.4571 C   0  0  0  0  0  0  0  0  0  0  0  0
  -27.3673  -27.8184   21.3447 C   0  0  0  0  0  0  0  0  0  0  0  0
  -23.8587  -30.1085   24.8385 C   0  0  0  0  0  0  0  0  0  0  0  0
  -28.2135  -19.3714   22.3365 C   0  0  0  0  0  0  0  0  0  0  0  0
  -26.8580  -26.8211   20.5008 C   0  0  0  0  0  0  0  0  0  0  0  0
  -28.5326  -21.5421   21.3249 C   0  0  0  0  0  0  0  0  0  0  0  0
  -29.5176  -19.0181   21.9896 C   0  0  0  0  0  0  0  0  0  0  0  0
  -23.3821   -9.2346   24.4503 C   0  0  0  0  0  0  0  0  0  0  0  0
  -28.1824  -25.1609   21.6839 C   0  0  0  0  0  0  0  0  0  0  0  0
  -21.7083   -7.6896   25.0277 C   0  0  0  0  0  0  0  0  0  0  0  0
  -19.2926   -6.4356   24.4159 C   0  0  0  0  0  0  0  0  0  0  0  0
  -21.6599   -6.3034   24.8799 C   0  0  0  0  0  0  0  0  0  0  0  0
  -24.8608  -12.0989   21.7104 C   0  0  0  0  0  0  0  0  0  0  0  0
  -25.0603  -13.7703   20.2955 C   0  0  0  0  0  0  0  0  0  0  0  0
  -22.7442  -13.4619   21.1839 C   0  0  0  0  0  0  0  0  0  0  0  0
  -24.4547  -29.0912   21.3367 C   0  0  0  0  0  0  0  0  0  0  0  0
  -24.8755  -29.0642   18.1204 C   0  0  0  0  0  0  0  0  0  0  0  0
  -26.4575  -27.7098   15.4167 C   0  0  0  0  0  0  0  0  0  0  0  0
  -31.0122  -14.3219   20.6446 C   0  0  0  0  0  0  0  0  0  0  0  0
  -22.5044  -32.2664   24.8255 C   0  0  0  0  0  0  0  0  0  0  0  0
  -26.9640  -29.2551   21.1560 C   0  0  0  0  0  0  0  0  0  0  0  0
  -25.8735  -27.1359   19.4053 C   0  0  0  0  0  0  0  0  0  0  0  0
  -22.2960  -32.0232   23.3330 C   0  0  0  0  0  0  0  0  0  0  0  0
  -25.4673  -17.2047   23.1824 C   0  0  0  0  0  0  0  0  0  0  0  0
  -29.1406  -13.0033   17.9178 C   0  0  0  0  0  0  0  0  0  0  0  0
  -25.7650  -18.7127   23.2852 C   0  0  0  0  0  0  0  0  0  0  0  0
  -26.7669  -17.0836   22.3636 C   0  0  0  0  0  0  0  0  0  0  0  0
  -22.1015  -30.5357   23.0565 C   0  0  0  0  0  0  0  0  0  0  0  0
  -27.7659  -12.7145   18.5234 C   0  0  0  0  0  0  0  0  0  0  0  0
  -30.2657  -12.7183   18.9102 C   0  0  0  0  0  0  0  0  0  0  0  0
  -28.7550  -13.1087   20.8179 C   0  0  0  0  0  0  0  0  0  0  0  0
  -27.2721  -18.3571   23.1068 C   0  0  0  0  0  0  0  0  0  0  0  0
  -23.3408  -29.7316   23.4674 C   0  0  1  0  0  0  0  0  0  0  0  0
  -25.6223  -29.4108   20.4466 C   0  0  1  0  0  0  0  0  0  0  0  0
  -27.5854  -13.4344   19.8733 C   0  0  2  0  0  0  0  0  0  0  0  0
  -26.5661  -27.8677   12.9146 C   0  0  0  0  0  0  0  0  0  0  0  0
  -22.2312  -27.5559   17.9128 C   0  0  0  0  0  0  0  0  0  0  0  0
  -22.8561  -26.9228   15.5726 C   0  0  0  0  0  0  0  0  0  0  0  0
  -22.5621  -29.3252   16.1765 C   0  0  0  0  0  0  0  0  0  0  0  0
  -29.3179  -28.4674   15.4728 C   0  0  0  0  0  0  0  0  0  0  0  0
  -28.0040  -22.9001   20.9676 C   0  0  0  0  0  0  0  0  0  1  0  0
  -31.3584  -17.3338   21.9835 C   0  0  0  0  0  0  0  0  0  0  0  0
  -31.6144  -15.9101   22.4540 C   0  0  0  0  0  0  0  0  0  0  0  0
  -24.5948  -28.0765   17.0137 C   0  0  1  0  0  0  0  0  0  0  0  0
  -27.1538  -28.3525   14.2308 C   0  0  2  0  0  0  0  0  0  0  0  0
  -23.0781  -27.9635   16.6907 C   0  0  0  0  0  0  0  0  0  0  0  0
  -26.1503  -12.0905   21.3623 N   0  0  0  0  0  0  0  0  0  0  0  0
  -26.2404  -13.1182   20.5010 N   0  0  0  0  0  0  0  0  0  0  0  0
  -25.5052  -28.5544   19.2647 N   0  0  0  0  0  0  0  0  0  0  0  0
  -30.0351  -13.4319   20.1686 N   0  0  0  0  0  0  0  0  0  0  0  0
  -24.9727  -14.8270   19.4600 N   0  0  0  0  0  0  0  0  0  0  0  0
  -21.9336  -12.6945   22.0315 N   0  0  0  0  0  0  0  0  0  0  0  0
  -30.0306  -17.7443   22.3174 N   0  0  0  0  0  0  0  0  0  0  0  0
  -24.3854  -29.8708   22.4755 N   0  0  0  0  0  0  0  0  0  0  0  0
  -25.4179  -28.4873   15.8814 N   0  0  0  0  0  0  0  0  0  0  0  0
  -30.7116  -14.9615   21.8409 N   0  0  0  0  0  0  0  0  0  0  0  0
  -28.6079  -28.0261   14.2447 N   0  3  0  0  0  0  0  0  0  0  0  0
  -22.2333  -14.4057   20.5346 O   0  0  0  0  0  0  0  0  0  0  0  0
  -23.6735  -28.2041   21.0134 O   0  0  0  0  0  0  0  0  0  0  0  0
  -24.5544  -30.2459   17.9720 O   0  0  0  0  0  0  0  0  0  0  0  0
  -26.7990  -26.6246   15.8819 O   0  0  0  0  0  0  0  0  0  0  0  0
  -32.0714  -14.5348   20.0449 O   0  0  0  0  0  0  0  0  0  0  0  0
  -22.9065   -8.3134   25.3322 O   0  0  0  0  0  0  0  0  0  0  0  0
  -28.5728  -23.8677   21.8488 O   0  0  0  0  0  0  0  0  0  1  0  0
  -18.1323   -5.8335   24.1236 F   0  0  0  0  0  0  0  0  0  0  0  0
  -22.7703   -5.5687   25.0317 F   0  0  0  0  0  0  0  0  0  0  0  0
  1  2  1  0  0  0  0
  1  5  2  0  0  0  0
  2  6  2  0  0  0  0
  3 10  2  0  0  0  0
  3 18  1  0  0  0  0
  4 11  1  0  0  0  0
  4 18  2  0  0  0  0
  5 20  1  0  0  0  0
  6 22  1  0  0  0  0
  7 12  2  0  0  0  0
  7 21  1  0  0  0  0
  8  9  2  0  0  0  0
  8 25  1  0  0  0  0
  9 26  1  0  0  0  0
 10 27  1  0  0  0  0
 11 27  2  0  0  0  0
 12 28  1  0  0  0  0
 13 14  2  0  0  0  0
 13 29  1  0  0  0  0
 14 30  1  0  0  0  0
 15 23  1  0  0  0  0
 15 25  2  0  0  0  0
 16 24  1  0  0  0  0
 16 28  2  0  0  0  0
 17 30  2  0  0  0  0
 17 31  1  0  0  0  0
 18 32  1  0  0  0  0
 19 32  1  0  0  0  0
 19 33  2  0  0  0  0
 19 34  1  0  0  0  0
 20 22  2  0  0  0  0
 20 39  1  0  0  0  0
 21 24  2  0  0  0  0
 21 40  1  0  0  0  0
 22 52  1  0  0  0  0
 23 26  2  0  0  0  0
 23 51  1  0  0  0  0
 24 41  1  0  0  0  0
 25 60  1  0  0  0  0
 26 72  1  0  0  0  0
 27 82  1  0  0  0  0
 28 83  1  0  0  0  0
 29 31  2  0  0  0  0
 29 82  1  0  0  0  0
 30 84  1  0  0  0  0
 31 85  1  0  0  0  0
 32 66  2  0  0  0  0
 33 67  1  0  0  0  0
 33 70  1  0  0  0  0
 34 71  1  0  0  0  0
 34 77  2  0  0  0  0
 35 53  1  0  0  0  0
 35 73  1  0  0  0  0
 35 78  2  0  0  0  0
 36 63  1  0  0  0  0
 36 68  1  0  0  0  0
 36 79  2  0  0  0  0
 37 64  1  0  0  0  0
 37 74  1  0  0  0  0
 37 80  2  0  0  0  0
 38 69  1  0  0  0  0
 38 75  1  0  0  0  0
 38 81  2  0  0  0  0
 39 42  1  0  0  0  0
 40 53  1  0  0  0  0
 41 68  1  0  0  0  0
 42 47  1  0  0  0  0
 43 45  1  0  0  0  0
 43 46  1  0  0  0  0
 44 48  1  0  0  0  0
 44 49  1  0  0  0  0
 45 51  1  0  0  0  0
 46 51  1  0  0  0  0
 47 52  1  0  0  0  0
 48 54  1  0  0  0  0
 49 69  1  0  0  0  0
 50 54  1  0  0  0  0
 50 69  1  0  0  0  0
 52 73  1  0  0  0  0
 53 68  1  0  0  0  0
 54 67  1  0  0  0  0
 55 64  1  0  0  0  0
 56 65  1  0  0  0  0
 57 65  1  0  0  0  0
 58 65  1  0  0  0  0
 59 76  1  0  0  0  0
 60 83  1  0  0  0  0
 61 62  1  0  0  0  0
 61 72  1  0  0  0  0
 62 75  1  0  0  0  0
 63 65  1  0  0  0  0
 63 74  1  0  0  0  0
 64 76  1  0  0  0  0
 66 67  1  0  0  0  0
M  CHG  1  76   1
M  ISO  4  38 100  60 101  75 100  83 101
M  END
> <Batch ID>
0131

> <Smiles>
CNC(C)C(=O)NC(C(=O)N1Cc2cc([101O:1][101CH2:1]c3ccc(NCC[100NH:0][100C:0](=O)N4CCCC(n5nc(-c6ccc(Oc7ccc(F)cc7F)cc6)c(C(N)=O)c5N)C4)c(C4CCC4)c3)ccc2CC1C(=O)NC1CCCc2ccccc21)C(C)(C)C

> <Shape>
0.253

> <Color>
0.129

> <Negative vol penalty>
0.000

$$$$

  -OEChem-04052320503D

 82 90  0     1  0  0  0  0  0999 V2000
  -23.2946   -7.8419   21.2609 C   0  0  0  0  0  0  0  0  0  0  0  0
  -24.1135   -8.8455   20.7534 C   0  0  0  0  0  0  0  0  0  0  0  0
  -21.4891  -27.9941   19.1532 C   0  0  0  0  0  0  0  0  0  0  0  0
  -21.6894  -26.1945   20.7528 C   0  0  0  0  0  0  0  0  0  0  0  0
  -21.9908   -8.1401   21.6547 C   0  0  0  0  0  0  0  0  0  0  0  0
  -23.6287  -10.1479   20.6385 C   0  0  0  0  0  0  0  0  0  0  0  0
  -26.9446  -13.6069   22.2771 C   0  0  0  0  0  0  0  0  0  0  0  0
  -30.3415  -18.2299   19.3994 C   0  0  0  0  0  0  0  0  0  0  0  0
  -31.8128  -17.7597   21.2572 C   0  0  0  0  0  0  0  0  0  0  0  0
  -30.1907  -19.5411   19.8506 C   0  0  0  0  0  0  0  0  0  0  0  0
  -31.6620  -19.0710   21.7084 C   0  0  0  0  0  0  0  0  0  0  0  0
  -20.2527  -27.4937   18.7452 C   0  0  0  0  0  0  0  0  0  0  0  0
  -20.4529  -25.6942   20.3448 C   0  0  0  0  0  0  0  0  0  0  0  0
  -27.9991  -13.9319   21.4249 C   0  0  0  0  0  0  0  0  0  0  0  0
  -19.2282  -23.8725   17.7734 C   0  0  0  0  0  0  0  0  0  0  0  0
  -19.1243  -22.4983   17.5578 C   0  0  0  0  0  0  0  0  0  0  0  0
  -26.8231  -15.9234   20.7393 C   0  0  0  0  0  0  0  0  0  0  0  0
  -17.4123  -22.3612   19.2571 C   0  0  0  0  0  0  0  0  0  0  0  0
  -22.2075  -27.3444   20.1570 C   0  0  0  0  0  0  0  0  0  0  0  0
  -23.7282  -28.7965   21.6015 C   0  0  0  0  0  0  0  0  0  0  0  0
  -21.4929   -9.4488   21.5536 C   0  0  0  0  0  0  0  0  0  0  0  0
  -25.8148  -14.4334   22.3588 C   0  0  0  0  0  0  0  0  0  0  0  0
  -22.3166  -10.4637   21.0302 C   0  0  0  0  0  0  0  0  0  0  0  0
  -25.7568  -15.6080   21.5952 C   0  0  0  0  0  0  0  0  0  0  0  0
  -31.1525  -17.3392   20.1027 C   0  0  0  0  0  0  0  0  0  0  0  0
  -30.8510  -19.9617   21.0051 C   0  0  0  0  0  0  0  0  0  0  0  0
  -19.7346  -26.3438   19.3410 C   0  0  0  0  0  0  0  0  0  0  0  0
  -27.9372  -15.0888   20.6536 C   0  0  0  0  0  0  0  0  0  0  0  0
  -18.4242  -24.4910   18.7309 C   0  0  0  0  0  0  0  0  0  0  0  0
  -18.2163  -21.7427   18.2996 C   0  0  0  0  0  0  0  0  0  0  0  0
  -17.5163  -23.7354   19.4727 C   0  0  0  0  0  0  0  0  0  0  0  0
  -23.4851  -27.8604   20.5785 C   0  0  0  0  0  0  0  0  0  0  0  0
  -25.0928  -28.9523   21.6071 C   0  0  0  0  0  0  0  0  0  0  0  0
  -22.8033  -29.4654   22.4691 C   0  0  0  0  0  0  0  0  0  0  0  0
  -22.7183  -14.0672   21.7415 C   0  0  0  0  0  0  0  0  0  0  0  0
  -22.5100  -17.0405   23.0216 C   0  0  0  0  0  0  0  0  0  0  0  0
  -24.0532  -19.9961   23.7492 C   0  0  0  0  0  0  0  0  0  0  0  0
  -29.6067  -25.4241   19.8670 C   0  0  0  0  0  0  0  0  0  0  0  0
  -20.0614   -9.7134   21.9479 C   0  0  0  0  0  0  0  0  0  0  0  0
  -24.6976  -14.0827   23.3029 C   0  0  0  0  0  0  0  0  0  0  0  0
  -24.5751  -16.5395   21.6616 C   0  0  0  0  0  0  0  0  0  0  0  0
  -19.7473  -11.1943   22.1437 C   0  0  0  0  0  0  0  0  0  0  0  0
  -28.9001  -28.7194   18.7189 C   0  0  0  0  0  0  0  0  0  0  0  0
  -20.3083  -12.0164   20.9876 C   0  0  0  0  0  0  0  0  0  0  0  0
  -27.4541  -28.9574   19.1576 C   0  0  0  0  0  0  0  0  0  0  0  0
  -29.1283  -27.2721   18.2884 C   0  0  0  0  0  0  0  0  0  0  0  0
  -27.2780  -26.4975   19.7202 C   0  0  0  0  0  0  0  0  0  0  0  0
  -21.8350  -11.8936   20.9133 C   0  0  1  0  0  0  0  0  0  0  0  0
  -23.3691  -14.7293   22.9229 C   0  0  1  0  0  0  0  0  0  0  0  0
  -27.0129  -27.9291   20.2166 C   0  0  2  0  0  0  0  0  0  0  0  0
  -23.6154  -22.2498   24.7625 C   0  0  0  0  0  0  0  0  0  0  0  0
  -21.0471  -17.8946   20.4838 C   0  0  0  0  0  0  0  0  0  0  0  0
  -21.4807  -20.2772   21.1192 C   0  0  0  0  0  0  0  0  0  0  0  0
  -20.0946  -18.8256   22.6005 C   0  0  0  0  0  0  0  0  0  0  0  0
  -26.0597  -19.5566   25.8799 C   0  0  0  0  0  0  0  0  0  0  0  0
  -31.3159  -15.9200   19.6154 C   0  0  0  0  0  0  0  0  0  0  0  0
  -29.8867  -22.2526   20.7877 C   0  0  0  0  0  0  0  0  0  0  0  0
  -29.9349  -23.5914   21.5080 C   0  0  0  0  0  0  0  0  0  0  0  0
  -30.2703  -14.9802   20.2059 C   0  0  0  0  0  0  0  0  0  1  0  0
  -22.5912  -18.4465   22.4781 C   0  0  1  0  0  0  0  0  0  0  0  0
  -24.0895  -20.8277   25.0187 C   0  0  2  0  0  0  0  0  0  0  0  0
  -21.3249  -18.8426   21.6675 C   0  0  0  0  0  0  0  0  0  0  0  0
  -24.6054  -27.4505   19.9778 N   0  0  0  0  0  0  0  0  0  0  0  0
  -25.5657  -28.1323   20.6252 N   0  0  0  0  0  0  0  0  0  0  0  0
  -23.5053  -16.1499   22.5949 N   0  0  0  0  0  0  0  0  0  0  0  0
  -28.6907  -26.3479   19.3373 N   0  0  0  0  0  0  0  0  0  0  0  0
  -25.9224  -29.7095   22.3560 N   0  0  0  0  0  0  0  0  0  0  0  0
  -21.4363  -29.1894   22.3287 N   0  0  0  0  0  0  0  0  0  0  0  0
  -30.7003  -21.2878   21.4606 N   0  0  0  0  0  0  0  0  0  0  0  0
  -22.4585  -12.7222   21.9228 N   0  0  0  0  0  0  0  0  0  0  0  0
  -22.8635  -19.3110   23.6213 N   0  0  0  0  0  0  0  0  0  0  0  0
  -29.1120  -24.5894   20.8617 N   0  0  0  0  0  0  0  0  0  0  0  0
  -25.4766  -20.8852   25.5608 N   0  3  0  0  0  0  0  0  0  0  0  0
  -23.1764  -30.2959   23.3320 O   0  0  0  0  0  0  0  0  0  0  0  0
  -22.4688  -14.7281   20.7402 O   0  0  0  0  0  0  0  0  0  0  0  0
  -21.6013  -16.7453   23.8018 O   0  0  0  0  0  0  0  0  0  0  0  0
  -24.9854  -19.9610   22.9490 O   0  0  0  0  0  0  0  0  0  0  0  0
  -30.7799  -25.3522   19.4858 O   0  0  0  0  0  0  0  0  0  0  0  0
  -18.5280  -25.8555   18.9432 O   0  0  0  0  0  0  0  0  0  0  0  0
  -28.9647  -15.4081   19.8205 O   0  0  0  0  0  0  0  0  0  1  0  0
  -18.1156  -20.4233   18.0914 F   0  0  0  0  0  0  0  0  0  0  0  0
  -16.7404  -24.3242   20.3931 F   0  0  0  0  0  0  0  0  0  0  0  0
  1  2  1  0  0  0  0
  1  5  2  0  0  0  0
  2  6  2  0  0  0  0
  3 12  2  0  0  0  0
  3 19  1  0  0  0  0
  4 13  1  0  0  0  0
  4 19  2  0  0  0  0
  5 21  1  0  0  0  0
  6 23  1  0  0  0  0
  7 14  2  0  0  0  0
  7 22  1  0  0  0  0
  8 10  2  0  0  0  0
  8 25  1  0  0  0  0
  9 11  1  0  0  0  0
  9 25  2  0  0  0  0
 10 26  1  0  0  0  0
 11 26  2  0  0  0  0
 12 27  1  0  0  0  0
 13 27  2  0  0  0  0
 14 28  1  0  0  0  0
 15 16  2  0  0  0  0
 15 29  1  0  0  0  0
 16 30  1  0  0  0  0
 17 24  1  0  0  0  0
 17 28  2  0  0  0  0
 18 30  2  0  0  0  0
 18 31  1  0  0  0  0
 19 32  1  0  0  0  0
 20 32  1  0  0  0  0
 20 33  2  0  0  0  0
 20 34  1  0  0  0  0
 21 23  2  0  0  0  0
 21 39  1  0  0  0  0
 22 24  2  0  0  0  0
 22 40  1  0  0  0  0
 23 48  1  0  0  0  0
 24 41  1  0  0  0  0
 25 56  1  0  0  0  0
 26 69  1  0  0  0  0
 27 79  1  0  0  0  0
 28 80  1  0  0  0  0
 29 31  2  0  0  0  0
 29 79  1  0  0  0  0
 30 81  1  0  0  0  0
 31 82  1  0  0  0  0
 32 63  2  0  0  0  0
 33 64  1  0  0  0  0
 33 67  1  0  0  0  0
 34 68  1  0  0  0  0
 34 74  2  0  0  0  0
 35 49  1  0  0  0  0
 35 70  1  0  0  0  0
 35 75  2  0  0  0  0
 36 60  1  0  0  0  0
 36 65  1  0  0  0  0
 36 76  2  0  0  0  0
 37 61  1  0  0  0  0
 37 71  1  0  0  0  0
 37 77  2  0  0  0  0
 38 66  1  0  0  0  0
 38 72  1  0  0  0  0
 38 78  2  0  0  0  0
 39 42  1  0  0  0  0
 40 49  1  0  0  0  0
 41 65  1  0  0  0  0
 42 44  1  0  0  0  0
 43 45  1  0  0  0  0
 43 46  1  0  0  0  0
 44 48  1  0  0  0  0
 45 50  1  0  0  0  0
 46 66  1  0  0  0  0
 47 50  1  0  0  0  0
 47 66  1  0  0  0  0
 48 70  1  0  0  0  0
 49 65  1  0  0  0  0
 50 64  1  0  0  0  0
 51 61  1  0  0  0  0
 52 62  1  0  0  0  0
 53 62  1  0  0  0  0
 54 62  1  0  0  0  0
 55 73  1  0  0  0  0
 56 59  1  0  0  0  0
 57 58  1  0  0  0  0
 57 69  1  0  0  0  0
 58 72  1  0  0  0  0
 59 80  1  0  0  0  0
 60 62  1  0  0  0  0
 60 71  1  0  0  0  0
 61 73  1  0  0  0  0
 63 64  1  0  0  0  0
M  CHG  1  73   1
M  ISO  4  38 100  59 101  72 100  80 101
M  END
> <Batch ID>
0131

> <Smiles>
CNC(C)C(=O)NC(C(=O)N1Cc2cc([101O:1][101CH2:1]Cc3ccc(NCC[100NH:0][100C:0](=O)N4CCCC(n5nc(-c6ccc(Oc7ccc(F)cc7F)cc6)c(C(N)=O)c5N)C4)cc3)ccc2CC1C(=O)NC1CCCc2ccccc21)C(C)(C)C

> <Shape>
0.186

> <Color>
0.097

> <Negative vol penalty>
0.000

$$$$

  -OEChem-04052320503D

 88 97  0     1  0  0  0  0  0999 V2000
  -21.2120  -26.3340   14.5758 C   0  0  0  0  0  0  0  0  0  0  0  0
  -21.2125  -26.8227   15.8784 C   0  0  0  0  0  0  0  0  0  0  0  0
  -23.1341  -15.3091   22.1905 C   0  0  0  0  0  0  0  0  0  0  0  0
  -22.4756  -15.9040   19.9434 C   0  0  0  0  0  0  0  0  0  0  0  0
  -22.1266  -25.3506   14.2011 C   0  0  0  0  0  0  0  0  0  0  0  0
  -22.1270  -26.3275   16.8073 C   0  0  0  0  0  0  0  0  0  0  0  0
  -18.1699  -27.8777   22.4614 C   0  0  0  0  0  0  0  0  0  0  0  0
  -24.3574  -30.0557   19.5673 C   0  0  0  0  0  0  0  0  0  0  0  0
  -18.9382  -26.9699   21.7327 C   0  0  0  0  0  0  0  0  0  0  0  0
  -22.4161  -14.1179   22.0856 C   0  0  0  0  0  0  0  0  0  0  0  0
  -21.7575  -14.7127   19.8385 C   0  0  0  0  0  0  0  0  0  0  0  0
  -23.6355  -30.6271   20.6143 C   0  0  0  0  0  0  0  0  0  0  0  0
  -21.0528  -10.7534   22.2785 C   0  0  0  0  0  0  0  0  0  0  0  0
  -21.6662   -9.5846   22.7294 C   0  0  0  0  0  0  0  0  0  0  0  0
  -24.7865  -29.1981   22.1798 C   0  0  0  0  0  0  0  0  0  0  0  0
  -20.9428  -27.8373   22.7654 C   0  0  0  0  0  0  0  0  0  0  0  0
  -23.4480   -9.9023   21.1290 C   0  0  0  0  0  0  0  0  0  0  0  0
  -23.1638  -16.2022   21.1194 C   0  0  0  0  0  0  0  0  0  0  0  0
  -25.2545  -17.6454   20.8878 C   0  0  0  0  0  0  0  0  0  0  0  0
  -23.0592  -24.8501   15.1233 C   0  0  0  0  0  0  0  0  0  0  0  0
  -25.2937  -29.0421   19.8175 C   0  0  0  0  0  0  0  0  0  0  0  0
  -23.0541  -25.3356   16.4449 C   0  0  0  0  0  0  0  0  0  0  0  0
  -18.7880  -28.7655   23.3421 C   0  0  0  0  0  0  0  0  0  0  0  0
  -25.5224  -28.6189   21.1349 C   0  0  0  0  0  0  0  0  0  0  0  0
  -20.3246  -26.9496   21.8847 C   0  0  0  0  0  0  0  0  0  0  0  0
  -20.1744  -28.7452   23.4941 C   0  0  0  0  0  0  0  0  0  0  0  0
  -21.7278  -13.8197   20.9096 C   0  0  0  0  0  0  0  0  0  0  0  0
  -23.8484  -30.1967   21.9205 C   0  0  0  0  0  0  0  0  0  0  0  0
  -21.6370  -11.4967   21.2528 C   0  0  0  0  0  0  0  0  0  0  0  0
  -22.8638   -9.1591   22.1547 C   0  0  0  0  0  0  0  0  0  0  0  0
  -22.8346  -11.0711   20.6781 C   0  0  0  0  0  0  0  0  0  0  0  0
  -23.9049  -17.4331   21.2274 C   0  0  0  0  0  0  0  0  0  0  0  0
  -25.4759  -18.9706   21.1729 C   0  0  0  0  0  0  0  0  0  0  0  0
  -26.2216  -16.7269   20.3617 C   0  0  0  0  0  0  0  0  0  0  0  0
  -25.6894  -25.9860   18.9518 C   0  0  0  0  0  0  0  0  0  0  0  0
  -28.5388  -26.4290   20.6066 C   0  0  0  0  0  0  0  0  0  0  0  0
  -29.3707  -23.5042   19.7951 C   0  0  0  0  0  0  0  0  0  0  0  0
  -21.8317  -23.6107   21.3836 C   0  0  0  0  0  0  0  0  0  0  0  0
  -23.9971  -23.7535   14.6845 C   0  0  0  0  0  0  0  0  0  0  0  0
  -26.0841  -28.4599   18.6771 C   0  0  0  0  0  0  0  0  0  0  0  0
  -26.5184  -27.5375   21.4560 C   0  0  0  0  0  0  0  0  0  0  0  0
  -25.1801  -23.5503   15.6277 C   0  0  0  0  0  0  0  0  0  0  0  0
  -23.9823  -22.4792   24.0654 C   0  0  0  0  0  0  0  0  0  0  0  0
  -15.6196  -30.2341   23.5276 C   0  0  0  0  0  0  0  0  0  0  0  0
  -24.7071  -23.5154   17.0775 C   0  0  0  0  0  0  0  0  0  0  0  0
  -17.0535  -30.6597   23.2578 C   0  0  0  0  0  0  0  0  0  0  0  0
  -24.3331  -21.0655   23.5980 C   0  0  0  0  0  0  0  0  0  0  0  0
  -22.5368  -22.8308   23.7261 C   0  0  0  0  0  0  0  0  0  0  0  0
  -22.5398  -21.2751   21.8147 C   0  0  0  0  0  0  0  0  0  0  0  0
  -15.6490  -29.8116   24.9785 C   0  0  0  0  0  0  0  0  0  0  0  0
  -24.0469  -24.8413   17.4745 C   0  0  1  0  0  0  0  0  0  0  0  0
  -17.9350  -29.7396   24.1209 C   0  0  1  0  0  0  0  0  0  0  0  0
  -26.6989  -27.0980   18.9932 C   0  0  1  0  0  0  0  0  0  0  0  0
  -23.9951  -20.8677   22.1084 C   0  0  2  0  0  0  0  0  0  0  0  0
  -16.3974  -28.1834   27.2999 C   0  0  0  0  0  0  0  0  0  0  0  0
  -30.4292  -21.3015   19.2252 C   0  0  0  0  0  0  0  0  0  0  0  0
  -29.6096  -28.3508   18.4935 C   0  0  0  0  0  0  0  0  0  0  0  0
  -31.1115  -26.5167   17.6881 C   0  0  0  0  0  0  0  0  0  0  0  0
  -31.3512  -27.3930   20.0113 C   0  0  0  0  0  0  0  0  0  0  0  0
  -29.4903  -22.6942   22.6391 C   0  0  0  0  0  0  0  0  0  0  0  0
  -20.8649  -29.6954   24.4397 C   0  0  0  0  0  0  0  0  0  0  0  0
  -21.1460  -25.9791   21.1053 C   0  0  0  0  0  0  0  0  0  0  0  0
  -20.9779  -31.1242   23.9036 C   0  0  0  0  0  0  0  0  0  0  0  0
  -17.4511  -28.8871   26.4728 C   0  0  0  0  0  0  0  0  0  0  0  0
  -21.8343  -31.2318   22.6473 C   0  0  0  0  0  0  0  0  0  1  0  0
  -29.3533  -25.9577   19.4280 C   0  0  1  0  0  0  0  0  0  0  0  0
  -30.2644  -22.3793   20.2853 C   0  0  2  0  0  0  0  0  0  0  0  0
  -30.3283  -27.0508   18.9063 C   0  0  0  0  0  0  0  0  0  0  0  0
  -23.3108  -18.5351   21.6927 N   0  0  0  0  0  0  0  0  0  0  0  0
  -24.2917  -19.4527   21.6477 N   0  0  0  0  0  0  0  0  0  0  0  0
  -27.3223  -27.0626   20.3223 N   0  0  0  0  0  0  0  0  0  0  0  0
  -22.2859  -22.6390   22.2907 N   0  0  0  0  0  0  0  0  0  0  0  0
  -26.5661  -19.7589   21.0613 N   0  0  0  0  0  0  0  0  0  0  0  0
  -25.8269  -15.4026   20.1276 N   0  0  0  0  0  0  0  0  0  0  0  0
  -25.0527  -25.8492   17.7331 N   0  0  0  0  0  0  0  0  0  0  0  0
  -30.0090  -24.7252   19.8516 N   0  0  0  0  0  0  0  0  0  0  0  0
  -21.6086  -24.8747   21.9159 N   0  0  0  0  0  0  0  0  0  0  0  0
  -16.9490  -29.0535   25.0737 N   0  3  1  0  0  0  0  0  0  0  0  0
  -29.6850  -21.7524   21.5068 N   0  3  0  0  0  0  0  0  0  0  0  0
  -27.4052  -17.0662   20.1222 O   0  0  0  0  0  0  0  0  0  0  0  0
  -25.5031  -25.3017   19.9512 O   0  0  0  0  0  0  0  0  0  0  0  0
  -28.9705  -26.2485   21.7487 O   0  0  0  0  0  0  0  0  0  0  0  0
  -28.2226  -23.3180   19.3979 O   0  0  0  0  0  0  0  0  0  0  0  0
  -21.6438  -23.3711   20.1860 O   0  0  0  0  0  0  0  0  0  0  0  0
  -21.0272  -12.6573   20.8068 O   0  0  0  0  0  0  0  0  0  0  0  0
  -23.1455  -30.7531   22.9443 O   0  0  0  0  0  0  0  0  0  1  0  0
  -23.4535   -8.0375   22.5888 F   0  0  0  0  0  0  0  0  0  0  0  0
  -23.4012  -11.7816   19.6932 F   0  0  0  0  0  0  0  0  0  0  0  0
  1  2  1  0  0  0  0
  1  5  2  0  0  0  0
  2  6  2  0  0  0  0
  3 10  2  0  0  0  0
  3 18  1  0  0  0  0
  4 11  1  0  0  0  0
  4 18  2  0  0  0  0
  5 20  1  0  0  0  0
  6 22  1  0  0  0  0
  7  9  2  0  0  0  0
  7 23  1  0  0  0  0
  8 12  2  0  0  0  0
  8 21  1  0  0  0  0
  9 25  1  0  0  0  0
 10 27  1  0  0  0  0
 11 27  2  0  0  0  0
 12 28  1  0  0  0  0
 13 14  2  0  0  0  0
 13 29  1  0  0  0  0
 14 30  1  0  0  0  0
 15 24  1  0  0  0  0
 15 28  2  0  0  0  0
 16 25  2  0  0  0  0
 16 26  1  0  0  0  0
 17 30  2  0  0  0  0
 17 31  1  0  0  0  0
 18 32  1  0  0  0  0
 19 32  1  0  0  0  0
 19 33  2  0  0  0  0
 19 34  1  0  0  0  0
 20 22  2  0  0  0  0
 20 39  1  0  0  0  0
 21 24  2  0  0  0  0
 21 40  1  0  0  0  0
 22 51  1  0  0  0  0
 23 26  2  0  0  0  0
 23 52  1  0  0  0  0
 24 41  1  0  0  0  0
 25 62  1  0  0  0  0
 26 61  1  0  0  0  0
 27 85  1  0  0  0  0
 28 86  1  0  0  0  0
 29 31  2  0  0  0  0
 29 85  1  0  0  0  0
 30 87  1  0  0  0  0
 31 88  1  0  0  0  0
 32 69  2  0  0  0  0
 33 70  1  0  0  0  0
 33 73  1  0  0  0  0
 34 74  1  0  0  0  0
 34 80  2  0  0  0  0
 35 53  1  0  0  0  0
 35 75  1  0  0  0  0
 35 81  2  0  0  0  0
 36 66  1  0  0  0  0
 36 71  1  0  0  0  0
 36 82  2  0  0  0  0
 37 67  1  0  0  0  0
 37 76  1  0  0  0  0
 37 83  2  0  0  0  0
 38 72  1  0  0  0  0
 38 77  1  0  0  0  0
 38 84  2  0  0  0  0
 39 42  1  0  0  0  0
 40 53  1  0  0  0  0
 41 71  1  0  0  0  0
 42 45  1  0  0  0  0
 43 47  1  0  0  0  0
 43 48  1  0  0  0  0
 44 46  1  0  0  0  0
 44 50  1  0  0  0  0
 45 51  1  0  0  0  0
 46 52  1  0  0  0  0
 47 54  1  0  0  0  0
 48 72  1  0  0  0  0
 49 54  1  0  0  0  0
 49 72  1  0  0  0  0
 50 78  1  0  0  0  0
 51 75  1  0  0  0  0
 52 78  1  0  0  0  0
 53 71  1  0  0  0  0
 54 70  1  0  0  0  0
 55 64  1  0  0  0  0
 56 67  1  0  0  0  0
 57 68  1  0  0  0  0
 58 68  1  0  0  0  0
 59 68  1  0  0  0  0
 60 79  1  0  0  0  0
 61 63  1  0  0  0  0
 62 77  1  0  0  0  0
 63 65  1  0  0  0  0
 64 78  1  0  0  0  0
 65 86  1  0  0  0  0
 66 68  1  0  0  0  0
 66 76  1  0  0  0  0
 67 79  1  0  0  0  0
 69 70  1  0  0  0  0
M  CHG  2  78   1  79   1
M  ISO  4  38 100  65 101  77 100  86 101
M  END
> <Batch ID>
0131

> <Smiles>
CCN1CCCC1c1ccc(C[100NH:0][100C:0](=O)N2CCCC(n3nc(-c4ccc(Oc5ccc(F)cc5F)cc4)c(C(N)=O)c3N)C2)cc1CC[101CH2:1][101O:1]c1ccc2c(c1)CN(C(=O)C(NC(=O)C(C)NC)C(C)(C)C)C(C(=O)NC1CCCc3ccccc31)C2

> <Shape>
0.242

> <Color>
0.075

> <Negative vol penalty>
0.000

$$$$

  -OEChem-04052320503D

 87 95  0     1  0  0  0  0  0999 V2000
  -17.0152  -28.9212   24.5423 C   0  0  0  0  0  0  0  0  0  0  0  0
  -17.7032  -27.8725   23.9404 C   0  0  0  0  0  0  0  0  0  0  0  0
  -29.3727  -18.8369   23.0716 C   0  0  0  0  0  0  0  0  0  0  0  0
  -30.6123  -18.7092   21.0017 C   0  0  0  0  0  0  0  0  0  0  0  0
  -17.3047  -30.2380   24.1874 C   0  0  0  0  0  0  0  0  0  0  0  0
  -18.6804  -28.1400   22.9823 C   0  0  0  0  0  0  0  0  0  0  0  0
  -22.8788  -25.3930   23.6697 C   0  0  0  0  0  0  0  0  0  0  0  0
  -22.8754  -20.2145   19.1439 C   0  0  0  0  0  0  0  0  0  0  0  0
  -29.3144  -20.2253   22.9511 C   0  0  0  0  0  0  0  0  0  0  0  0
  -30.5540  -20.0977   20.8812 C   0  0  0  0  0  0  0  0  0  0  0  0
  -22.8447  -24.0629   23.2531 C   0  0  0  0  0  0  0  0  0  0  0  0
  -22.7246  -18.8536   18.8779 C   0  0  0  0  0  0  0  0  0  0  0  0
  -28.2993  -22.4192   19.9079 C   0  0  0  0  0  0  0  0  0  0  0  0
  -27.9706  -22.9465   18.6592 C   0  0  0  0  0  0  0  0  0  0  0  0
  -24.0177  -24.6714   21.2349 C   0  0  0  0  0  0  0  0  0  0  0  0
  -24.6070  -19.7086   20.7510 C   0  0  0  0  0  0  0  0  0  0  0  0
  -30.0890  -24.1062   18.5912 C   0  0  0  0  0  0  0  0  0  0  0  0
  -30.0217  -18.0788   22.0969 C   0  0  0  0  0  0  0  0  0  0  0  0
  -30.6642  -15.9061   23.2691 C   0  0  0  0  0  0  0  0  0  0  0  0
  -18.2927  -30.5223   23.2315 C   0  0  0  0  0  0  0  0  0  0  0  0
  -23.4739  -26.3757   22.8657 C   0  0  0  0  0  0  0  0  0  0  0  0
  -18.9825  -29.4619   22.6133 C   0  0  0  0  0  0  0  0  0  0  0  0
  -24.0603  -26.0127   21.6448 C   0  0  0  0  0  0  0  0  0  0  0  0
  -23.8166  -20.6420   20.0804 C   0  0  0  0  0  0  0  0  0  0  0  0
  -24.4562  -18.3477   20.4850 C   0  0  0  0  0  0  0  0  0  0  0  0
  -29.9050  -20.8557   21.8559 C   0  0  0  0  0  0  0  0  0  0  0  0
  -23.4117  -23.7024   22.0342 C   0  0  0  0  0  0  0  0  0  0  0  0
  -23.5151  -17.9202   19.5484 C   0  0  0  0  0  0  0  0  0  0  0  0
  -29.5229  -22.7354   20.4984 C   0  0  0  0  0  0  0  0  0  0  0  0
  -28.8654  -23.7900   18.0008 C   0  0  0  0  0  0  0  0  0  0  0  0
  -30.4177  -23.5789   19.8400 C   0  0  0  0  0  0  0  0  0  0  0  0
  -30.0828  -16.6446   22.2211 C   0  0  0  0  0  0  0  0  0  0  0  0
  -30.4605  -14.5938   22.9186 C   0  0  0  0  0  0  0  0  0  0  0  0
  -31.3290  -16.3653   24.4536 C   0  0  0  0  0  0  0  0  0  0  0  0
  -22.4459  -29.0071   21.4089 C   0  0  0  0  0  0  0  0  0  0  0  0
  -25.5953  -29.3960   20.7360 C   0  0  0  0  0  0  0  0  0  0  0  0
  -28.6669  -27.9680   20.3205 C   0  0  0  0  0  0  0  0  0  0  0  0
  -26.3944  -11.8813   19.4603 C   0  0  0  0  0  0  0  0  0  0  0  0
  -18.5375  -31.9596   22.8458 C   0  0  0  0  0  0  0  0  0  0  0  0
  -23.5261  -27.8016   23.3417 C   0  0  0  0  0  0  0  0  0  0  0  0
  -24.7293  -27.0263   20.7540 C   0  0  0  0  0  0  0  0  0  0  0  0
  -19.8491  -32.1738   22.0948 C   0  0  0  0  0  0  0  0  0  0  0  0
  -29.9335  -11.7806   19.0847 C   0  0  0  0  0  0  0  0  0  0  0  0
  -20.0130  -31.1270   20.9975 C   0  0  0  0  0  0  0  0  0  0  0  0
  -30.4256  -12.9492   19.9405 C   0  0  0  0  0  0  0  0  0  0  0  0
  -28.6153  -12.1081   18.3867 C   0  0  0  0  0  0  0  0  0  0  0  0
  -28.0312  -13.7409   20.1378 C   0  0  0  0  0  0  0  0  0  0  0  0
  -20.0666  -29.7127   21.5877 C   0  0  1  0  0  0  0  0  0  0  0  0
  -23.7034  -28.8045   22.2059 C   0  0  1  0  0  0  0  0  0  0  0  0
  -29.3291  -13.4378   20.9060 C   0  0  2  0  0  0  0  0  0  0  0  0
  -25.4064  -15.6233   23.0502 C   0  0  0  0  0  0  0  0  0  0  0  0
  -31.0405  -28.5357   19.7365 C   0  0  0  0  0  0  0  0  0  0  0  0
  -24.8070  -29.6607   17.8003 C   0  0  0  0  0  0  0  0  0  0  0  0
  -27.2045  -29.2706   17.1935 C   0  0  0  0  0  0  0  0  0  0  0  0
  -26.5726  -31.2631   18.5550 C   0  0  0  0  0  0  0  0  0  0  0  0
  -29.6630  -27.0052   22.9358 C   0  0  0  0  0  0  0  0  0  0  0  0
  -25.3116  -17.3623   21.2110 C   0  0  0  0  0  0  0  0  0  0  0  0
  -23.9792  -22.1062   20.3651 C   0  0  0  0  0  0  0  0  0  1  0  0
  -24.5437  -16.6504   22.3342 C   0  0  0  0  0  0  0  0  0  0  0  0
  -24.2120  -11.7750   20.6371 C   0  0  0  0  0  0  0  0  0  0  0  0
  -23.1345  -12.3868   19.7614 C   0  0  0  0  0  0  0  0  0  0  0  0
  -22.0712  -14.5646   19.1569 C   0  0  0  0  0  0  0  0  0  0  0  0
  -22.0646  -16.0356   19.5231 C   0  0  0  0  0  0  0  0  0  0  0  0
  -26.5095  -28.9679   19.6135 C   0  0  1  0  0  0  0  0  0  0  0  0
  -30.0345  -28.3451   20.8609 C   0  0  2  0  0  0  0  0  0  0  0  0
  -26.2591  -29.7716   18.3062 C   0  0  0  0  0  0  0  0  0  0  0  0
  -29.5498  -15.8662   21.2756 N   0  0  0  0  0  0  0  0  0  0  0  0
  -29.7956  -14.6249   21.7282 N   0  0  0  0  0  0  0  0  0  0  0  0
  -24.7491  -28.4086   21.2604 N   0  0  0  0  0  0  0  0  0  0  0  0
  -27.6179  -12.5637   19.3580 N   0  0  0  0  0  0  0  0  0  0  0  0
  -30.7871  -13.4279   23.5156 N   0  0  0  0  0  0  0  0  0  0  0  0
  -32.7142  -16.5729   24.4044 N   0  0  0  0  0  0  0  0  0  0  0  0
  -21.3717  -29.4514   22.1560 N   0  0  0  0  0  0  0  0  0  0  0  0
  -27.8693  -29.0766   20.1306 N   0  0  0  0  0  0  0  0  0  0  0  0
  -25.5082  -12.3744   20.4101 N   0  0  0  0  0  0  0  0  0  0  0  0
  -30.5433  -27.2806   21.7713 N   0  3  0  0  0  0  0  0  0  0  0  0
  -23.0569  -13.8520   20.0083 N   0  3  0  0  0  0  0  0  0  0  0  0
  -30.7154  -16.5692   25.5285 O   0  0  0  0  0  0  0  0  0  0  0  0
  -22.4503  -28.7788   20.2049 O   0  0  0  0  0  0  0  0  0  0  0  0
  -25.6357  -30.5616   21.1378 O   0  0  0  0  0  0  0  0  0  0  0  0
  -28.3403  -26.8065   20.0865 O   0  0  0  0  0  0  0  0  0  0  0  0
  -26.1149  -10.9016   18.7609 O   0  0  0  0  0  0  0  0  0  0  0  0
  -29.8481  -22.2104   21.7378 O   0  0  0  0  0  0  0  0  0  0  0  0
  -23.3793  -22.4050   21.6249 O   0  0  0  0  0  0  0  0  0  1  0  0
  -23.3534  -16.5946   19.2774 O   0  0  0  0  0  0  0  0  0  0  0  0
  -28.5502  -24.2951   16.8009 F   0  0  0  0  0  0  0  0  0  0  0  0
  -31.5952  -23.8853   20.4017 F   0  0  0  0  0  0  0  0  0  0  0  0
  1  2  1  0  0  0  0
  1  5  2  0  0  0  0
  2  6  2  0  0  0  0
  3  9  2  0  0  0  0
  3 18  1  0  0  0  0
  4 10  1  0  0  0  0
  4 18  2  0  0  0  0
  5 20  1  0  0  0  0
  6 22  1  0  0  0  0
  7 11  2  0  0  0  0
  7 21  1  0  0  0  0
  8 12  2  0  0  0  0
  8 24  1  0  0  0  0
  9 26  1  0  0  0  0
 10 26  2  0  0  0  0
 11 27  1  0  0  0  0
 12 28  1  0  0  0  0
 13 14  2  0  0  0  0
 13 29  1  0  0  0  0
 14 30  1  0  0  0  0
 15 23  1  0  0  0  0
 15 27  2  0  0  0  0
 16 24  2  0  0  0  0
 16 25  1  0  0  0  0
 17 30  2  0  0  0  0
 17 31  1  0  0  0  0
 18 32  1  0  0  0  0
 19 32  1  0  0  0  0
 19 33  2  0  0  0  0
 19 34  1  0  0  0  0
 20 22  2  0  0  0  0
 20 39  1  0  0  0  0
 21 23  2  0  0  0  0
 21 40  1  0  0  0  0
 22 48  1  0  0  0  0
 23 41  1  0  0  0  0
 24 58  1  0  0  0  0
 25 28  2  0  0  0  0
 25 57  1  0  0  0  0
 26 83  1  0  0  0  0
 27 84  1  0  0  0  0
 28 85  1  0  0  0  0
 29 31  2  0  0  0  0
 29 83  1  0  0  0  0
 30 86  1  0  0  0  0
 31 87  1  0  0  0  0
 32 67  2  0  0  0  0
 33 68  1  0  0  0  0
 33 71  1  0  0  0  0
 34 72  1  0  0  0  0
 34 78  2  0  0  0  0
 35 49  1  0  0  0  0
 35 73  1  0  0  0  0
 35 79  2  0  0  0  0
 36 64  1  0  0  0  0
 36 69  1  0  0  0  0
 36 80  2  0  0  0  0
 37 65  1  0  0  0  0
 37 74  1  0  0  0  0
 37 81  2  0  0  0  0
 38 70  1  0  0  0  0
 38 75  1  0  0  0  0
 38 82  2  0  0  0  0
 39 42  1  0  0  0  0
 40 49  1  0  0  0  0
 41 69  1  0  0  0  0
 42 44  1  0  0  0  0
 43 45  1  0  0  0  0
 43 46  1  0  0  0  0
 44 48  1  0  0  0  0
 45 50  1  0  0  0  0
 46 70  1  0  0  0  0
 47 50  1  0  0  0  0
 47 70  1  0  0  0  0
 48 73  1  0  0  0  0
 49 69  1  0  0  0  0
 50 68  1  0  0  0  0
 51 59  1  0  0  0  0
 52 65  1  0  0  0  0
 53 66  1  0  0  0  0
 54 66  1  0  0  0  0
 55 66  1  0  0  0  0
 56 76  1  0  0  0  0
 57 59  1  0  0  0  0
 58 84  1  0  0  0  0
 60 61  1  0  0  0  0
 60 75  1  0  0  0  0
 61 77  1  0  0  0  0
 62 63  1  0  0  0  0
 62 77  1  0  0  0  0
 63 85  1  0  0  0  0
 64 66  1  0  0  0  0
 64 74  1  0  0  0  0
 65 76  1  0  0  0  0
 67 68  1  0  0  0  0
M  CHG  2  76   1  77   1
M  ISO  4  38 100  58 101  75 100  84 101
M  END
> <Batch ID>
0131

> <Smiles>
CCCc1cc([101CH2:1][101O:1]c2ccc3c(c2)CN(C(=O)C(NC(=O)C(C)NC)C(C)(C)C)C(C(=O)NC2CCCc4ccccc42)C3)ccc1OCCNCC[100NH:0][100C:0](=O)N1CCCC(n2nc(-c3ccc(Oc4ccc(F)cc4F)cc3)c(C(N)=O)c2N)C1

> <Shape>
0.259

> <Color>
0.072

> <Negative vol penalty>
0.000

$$$$

  -OEChem-04052320503D

 87 95  0     1  0  0  0  0  0999 V2000
  -19.3772  -31.5848   24.0755 C   0  0  0  0  0  0  0  0  0  0  0  0
  -20.7066  -31.2674   23.8157 C   0  0  0  0  0  0  0  0  0  0  0  0
  -24.7493  -13.9350   20.0478 C   0  0  0  0  0  0  0  0  0  0  0  0
  -27.0693  -13.3313   19.7476 C   0  0  0  0  0  0  0  0  0  0  0  0
  -18.3796  -30.6355   23.8573 C   0  0  0  0  0  0  0  0  0  0  0  0
  -21.0392  -30.0001   23.3385 C   0  0  0  0  0  0  0  0  0  0  0  0
  -25.5177  -28.6079   19.4001 C   0  0  0  0  0  0  0  0  0  0  0  0
  -33.2814  -23.0192   18.4326 C   0  0  0  0  0  0  0  0  0  0  0  0
  -24.3842  -12.5947   19.9220 C   0  0  0  0  0  0  0  0  0  0  0  0
  -26.7042  -11.9909   19.6219 C   0  0  0  0  0  0  0  0  0  0  0  0
  -26.8115  -28.1222   19.5845 C   0  0  0  0  0  0  0  0  0  0  0  0
  -32.6971  -24.2290   18.8072 C   0  0  0  0  0  0  0  0  0  0  0  0
  -22.8766   -9.2889   20.0402 C   0  0  0  0  0  0  0  0  0  0  0  0
  -21.9518   -8.7804   20.9522 C   0  0  0  0  0  0  0  0  0  0  0  0
  -26.0181  -25.8779   19.1940 C   0  0  0  0  0  0  0  0  0  0  0  0
  -31.5108  -21.8169   19.5535 C   0  0  0  0  0  0  0  0  0  0  0  0
  -23.4514   -9.3131   22.7700 C   0  0  0  0  0  0  0  0  0  0  0  0
  -26.0918  -14.3034   19.9605 C   0  0  0  0  0  0  0  0  0  0  0  0
  -26.8010  -16.3715   21.2749 C   0  0  0  0  0  0  0  0  0  0  0  0
  -18.6992  -29.3592   23.3680 C   0  0  0  0  0  0  0  0  0  0  0  0
  -24.4606  -27.7296   19.1216 C   0  0  0  0  0  0  0  0  0  0  0  0
  -20.0451  -29.0325   23.1148 C   0  0  0  0  0  0  0  0  0  0  0  0
  -24.7122  -26.3552   19.0040 C   0  0  0  0  0  0  0  0  0  0  0  0
  -32.6883  -21.8131   18.8057 C   0  0  0  0  0  0  0  0  0  0  0  0
  -30.9265  -23.0267   19.9282 C   0  0  0  0  0  0  0  0  0  0  0  0
  -25.3616  -11.6227   19.7091 C   0  0  0  0  0  0  0  0  0  0  0  0
  -27.0613  -26.7567   19.4843 C   0  0  0  0  0  0  0  0  0  0  0  0
  -31.5196  -24.2328   19.5551 C   0  0  0  0  0  0  0  0  0  0  0  0
  -24.0889   -9.8094   20.4932 C   0  0  0  0  0  0  0  0  0  0  0  0
  -22.2391   -8.7925   22.3171 C   0  0  0  0  0  0  0  0  0  0  0  0
  -24.3762   -9.8215   21.8581 C   0  0  0  0  0  0  0  0  0  0  0  0
  -26.4695  -15.6878   20.0897 C   0  0  0  0  0  0  0  0  0  0  0  0
  -27.0821  -17.6520   20.8654 C   0  0  0  0  0  0  0  0  0  0  0  0
  -26.8504  -15.8919   22.6251 C   0  0  0  0  0  0  0  0  0  0  0  0
  -21.7494  -26.9473   20.5849 C   0  0  0  0  0  0  0  0  0  0  0  0
  -21.2313  -25.2461   17.8720 C   0  0  0  0  0  0  0  0  0  0  0  0
  -22.5460  -23.6632   15.1493 C   0  0  0  0  0  0  0  0  0  0  0  0
  -28.9339  -19.9534   15.6572 C   0  0  0  0  0  0  0  0  0  0  0  0
  -17.5915  -28.3507   23.1926 C   0  0  0  0  0  0  0  0  0  0  0  0
  -23.0755  -28.2722   18.8990 C   0  0  0  0  0  0  0  0  0  0  0  0
  -23.6158  -25.3726   18.6867 C   0  0  0  0  0  0  0  0  0  0  0  0
  -17.9874  -27.1550   22.3302 C   0  0  0  0  0  0  0  0  0  0  0  0
  -25.9823  -20.8179   17.4509 C   0  0  0  0  0  0  0  0  0  0  0  0
  -19.3498  -26.6171   22.7563 C   0  0  0  0  0  0  0  0  0  0  0  0
  -25.8024  -19.6628   18.4375 C   0  0  0  0  0  0  0  0  0  0  0  0
  -26.5283  -20.3342   16.1093 C   0  0  0  0  0  0  0  0  0  0  0  0
  -27.5881  -18.3848   17.1818 C   0  0  0  0  0  0  0  0  0  0  0  0
  -20.4431  -27.6767   22.5729 C   0  0  1  0  0  0  0  0  0  0  0  0
  -21.9826  -27.2328   19.1282 C   0  0  1  0  0  0  0  0  0  0  0  0
  -27.0924  -18.8308   18.5681 C   0  0  2  0  0  0  0  0  0  0  0  0
  -33.6803  -19.6261   19.5967 C   0  0  0  0  0  0  0  0  0  0  0  0
  -21.8757  -22.3318   13.1306 C   0  0  0  0  0  0  0  0  0  0  0  0
  -20.7571  -22.8061   19.6417 C   0  0  0  0  0  0  0  0  0  0  0  0
  -21.0392  -21.3666   17.6128 C   0  0  0  0  0  0  0  0  0  0  0  0
  -19.1756  -23.0216   17.7164 C   0  0  0  0  0  0  0  0  0  0  0  0
  -28.7626  -21.9726   20.5855 C   0  0  0  0  0  0  0  0  0  0  0  0
  -23.6856  -25.6741   13.3010 C   0  0  0  0  0  0  0  0  0  0  0  0
  -31.3392  -19.4489   15.3117 C   0  0  0  0  0  0  0  0  0  0  0  0
  -32.1785  -20.3626   16.1852 C   0  0  0  0  0  0  0  0  0  0  0  0
  -29.4011  -27.1430   19.3046 C   0  0  0  0  0  0  0  0  0  1  0  0
  -30.5797  -26.3019   18.8541 C   0  0  0  0  0  0  0  0  0  0  0  0
  -33.3134  -20.5198   18.4047 C   0  0  1  0  0  0  0  0  0  0  0  0
  -21.5474  -23.8431   17.4132 C   0  0  1  0  0  0  0  0  0  0  0  0
  -22.1786  -23.7181   13.6774 C   0  0  2  0  0  0  0  0  0  0  0  0
  -20.6504  -22.7774   18.1039 C   0  0  0  0  0  0  0  0  0  0  0  0
  -26.5336  -16.4694   19.0085 N   0  0  0  0  0  0  0  0  0  0  0  0
  -26.9084  -17.6574   19.5126 N   0  0  0  0  0  0  0  0  0  0  0  0
  -22.2773  -25.9513   18.4839 N   0  0  0  0  0  0  0  0  0  0  0  0
  -27.7525  -19.5533   16.3030 N   0  0  0  0  0  0  0  0  0  0  0  0
  -27.4584  -18.7627   21.5341 N   0  0  0  0  0  0  0  0  0  0  0  0
  -26.5318  -14.5491   22.8693 N   0  0  0  0  0  0  0  0  0  0  0  0
  -29.7344  -23.0160   20.6849 N   0  0  0  0  0  0  0  0  0  0  0  0
  -20.8194  -27.7787   21.1792 N   0  0  0  0  0  0  0  0  0  0  0  0
  -21.4460  -23.8569   15.9578 N   0  0  0  0  0  0  0  0  0  0  0  0
  -30.0498  -19.1617   15.8997 N   0  0  0  0  0  0  0  0  0  0  0  0
  -23.2983  -24.3014   12.8855 N   0  3  0  0  0  0  0  0  0  0  0  0
  -32.4540  -19.7023   17.4812 N   0  3  0  0  0  0  0  0  0  0  0  0
  -27.1518  -16.6363   23.5887 O   0  0  0  0  0  0  0  0  0  0  0  0
  -22.3664  -26.0390   21.1289 O   0  0  0  0  0  0  0  0  0  0  0  0
  -20.1001  -25.7022   17.6877 O   0  0  0  0  0  0  0  0  0  0  0  0
  -23.6933  -23.4644   15.5425 O   0  0  0  0  0  0  0  0  0  0  0  0
  -28.9915  -20.9460   14.9234 O   0  0  0  0  0  0  0  0  0  0  0  0
  -25.0057  -10.3146   19.5866 O   0  0  0  0  0  0  0  0  0  0  0  0
  -28.3231  -26.2799   19.6644 O   0  0  0  0  0  0  0  0  0  1  0  0
  -30.9611  -25.4317   19.9127 O   0  0  0  0  0  0  0  0  0  0  0  0
  -21.3502   -8.3056   23.1928 F   0  0  0  0  0  0  0  0  0  0  0  0
  -25.5387  -10.3214   22.2993 F   0  0  0  0  0  0  0  0  0  0  0  0
  1  2  1  0  0  0  0
  1  5  2  0  0  0  0
  2  6  2  0  0  0  0
  3  9  2  0  0  0  0
  3 18  1  0  0  0  0
  4 10  1  0  0  0  0
  4 18  2  0  0  0  0
  5 20  1  0  0  0  0
  6 22  1  0  0  0  0
  7 11  2  0  0  0  0
  7 21  1  0  0  0  0
  8 12  2  0  0  0  0
  8 24  1  0  0  0  0
  9 26  1  0  0  0  0
 10 26  2  0  0  0  0
 11 27  1  0  0  0  0
 12 28  1  0  0  0  0
 13 14  2  0  0  0  0
 13 29  1  0  0  0  0
 14 30  1  0  0  0  0
 15 23  1  0  0  0  0
 15 27  2  0  0  0  0
 16 24  2  0  0  0  0
 16 25  1  0  0  0  0
 17 30  2  0  0  0  0
 17 31  1  0  0  0  0
 18 32  1  0  0  0  0
 19 32  1  0  0  0  0
 19 33  2  0  0  0  0
 19 34  1  0  0  0  0
 20 22  2  0  0  0  0
 20 39  1  0  0  0  0
 21 23  2  0  0  0  0
 21 40  1  0  0  0  0
 22 48  1  0  0  0  0
 23 41  1  0  0  0  0
 24 62  1  0  0  0  0
 25 28  2  0  0  0  0
 25 72  1  0  0  0  0
 26 83  1  0  0  0  0
 27 84  1  0  0  0  0
 28 85  1  0  0  0  0
 29 31  2  0  0  0  0
 29 83  1  0  0  0  0
 30 86  1  0  0  0  0
 31 87  1  0  0  0  0
 32 66  2  0  0  0  0
 33 67  1  0  0  0  0
 33 70  1  0  0  0  0
 34 71  1  0  0  0  0
 34 78  2  0  0  0  0
 35 49  1  0  0  0  0
 35 73  1  0  0  0  0
 35 79  2  0  0  0  0
 36 63  1  0  0  0  0
 36 68  1  0  0  0  0
 36 80  2  0  0  0  0
 37 64  1  0  0  0  0
 37 74  1  0  0  0  0
 37 81  2  0  0  0  0
 38 69  1  0  0  0  0
 38 75  1  0  0  0  0
 38 82  2  0  0  0  0
 39 42  1  0  0  0  0
 40 49  1  0  0  0  0
 41 68  1  0  0  0  0
 42 44  1  0  0  0  0
 43 45  1  0  0  0  0
 43 46  1  0  0  0  0
 44 48  1  0  0  0  0
 45 50  1  0  0  0  0
 46 69  1  0  0  0  0
 47 50  1  0  0  0  0
 47 69  1  0  0  0  0
 48 73  1  0  0  0  0
 49 68  1  0  0  0  0
 50 67  1  0  0  0  0
 51 62  1  0  0  0  0
 52 64  1  0  0  0  0
 53 65  1  0  0  0  0
 54 65  1  0  0  0  0
 55 65  1  0  0  0  0
 56 72  1  0  0  0  0
 57 76  1  0  0  0  0
 58 59  1  0  0  0  0
 58 75  1  0  0  0  0
 59 77  1  0  0  0  0
 60 61  1  0  0  0  0
 60 84  1  0  0  0  0
 61 85  1  0  0  0  0
 62 77  1  0  0  0  0
 63 65  1  0  0  0  0
 63 74  1  0  0  0  0
 64 76  1  0  0  0  0
 66 67  1  0  0  0  0
M  CHG  2  76   1  77   1
M  ISO  4  38 100  60 101  75 100  84 101
M  END
> <Batch ID>
0131

> <Smiles>
CNc1cc(C(C)NCC[100NH:0][100C:0](=O)N2CCCC(n3nc(-c4ccc(Oc5ccc(F)cc5F)cc4)c(C(N)=O)c3N)C2)ccc1OC[101CH2:1][101O:1]c1ccc2c(c1)CN(C(=O)C(NC(=O)C(C)NC)C(C)(C)C)C(C(=O)NC1CCCc3ccccc31)C2

> <Shape>
0.214

> <Color>
0.069

> <Negative vol penalty>
0.000

$$$$

  -OEChem-04052320503D

 85 93  0     1  0  0  0  0  0999 V2000
  -27.1131  -24.3958   27.5830 C   0  0  0  0  0  0  0  0  0  0  0  0
  -26.0824  -24.2036   26.6686 C   0  0  0  0  0  0  0  0  0  0  0  0
  -29.0322  -26.8040   19.0500 C   0  0  0  0  0  0  0  0  0  0  0  0
  -27.8186  -25.5207   20.6984 C   0  0  0  0  0  0  0  0  0  0  0  0
  -28.3208  -23.7177   27.4232 C   0  0  0  0  0  0  0  0  0  0  0  0
  -26.2594  -23.3339   25.5931 C   0  0  0  0  0  0  0  0  0  0  0  0
  -22.2694  -20.3001   24.8712 C   0  0  0  0  0  0  0  0  0  0  0  0
  -19.9741  -28.3390   22.1389 C   0  0  0  0  0  0  0  0  0  0  0  0
  -18.8559  -27.2994   24.0113 C   0  0  0  0  0  0  0  0  0  0  0  0
  -19.6538  -27.2423   21.3387 C   0  0  0  0  0  0  0  0  0  0  0  0
  -18.5356  -26.2027   23.2112 C   0  0  0  0  0  0  0  0  0  0  0  0
  -30.0904  -25.8983   19.1240 C   0  0  0  0  0  0  0  0  0  0  0  0
  -28.8768  -24.6149   20.7724 C   0  0  0  0  0  0  0  0  0  0  0  0
  -21.1581  -20.8504   24.2340 C   0  0  0  0  0  0  0  0  0  0  0  0
  -31.1074  -21.7663   21.1300 C   0  0  0  0  0  0  0  0  0  0  0  0
  -30.7992  -20.4060   21.1247 C   0  0  0  0  0  0  0  0  0  0  0  0
  -21.8455  -19.8243   22.1619 C   0  0  0  0  0  0  0  0  0  0  0  0
  -29.7517  -20.6516   18.9615 C   0  0  0  0  0  0  0  0  0  0  0  0
  -27.8963  -26.6152   19.8373 C   0  0  0  0  0  0  0  0  0  0  0  0
  -25.6923  -27.4924   18.8988 C   0  0  0  0  0  0  0  0  0  0  0  0
  -28.5092  -22.8319   26.3506 C   0  0  0  0  0  0  0  0  0  0  0  0
  -23.1845  -19.5154   24.1548 C   0  0  0  0  0  0  0  0  0  0  0  0
  -27.4712  -22.6443   25.4180 C   0  0  0  0  0  0  0  0  0  0  0  0
  -22.9662  -19.2631   22.7929 C   0  0  0  0  0  0  0  0  0  0  0  0
  -19.5752  -28.3676   23.4752 C   0  0  0  0  0  0  0  0  0  0  0  0
  -18.9346  -26.1742   21.8748 C   0  0  0  0  0  0  0  0  0  0  0  0
  -30.0127  -24.8037   19.9851 C   0  0  0  0  0  0  0  0  0  0  0  0
  -20.9476  -20.6150   22.8786 C   0  0  0  0  0  0  0  0  0  0  0  0
  -30.7376  -22.5694   20.0510 C   0  0  0  0  0  0  0  0  0  0  0  0
  -30.1214  -19.8486   20.0405 C   0  0  0  0  0  0  0  0  0  0  0  0
  -30.0598  -22.0120   18.9668 C   0  0  0  0  0  0  0  0  0  0  0  0
  -26.8031  -27.5508   19.7617 C   0  0  0  0  0  0  0  0  0  0  0  0
  -24.9504  -28.6032   19.2185 C   0  0  0  0  0  0  0  0  0  0  0  0
  -25.3608  -26.5210   17.8978 C   0  0  0  0  0  0  0  0  0  0  0  0
  -26.2757  -19.7522   23.4534 C   0  0  0  0  0  0  0  0  0  0  0  0
  -25.8238  -16.7863   22.2199 C   0  0  0  0  0  0  0  0  0  0  0  0
  -23.6628  -14.4891   20.9163 C   0  0  0  0  0  0  0  0  0  0  0  0
  -24.5063  -31.9190   24.1844 C   0  0  0  0  0  0  0  0  0  0  0  0
  -29.8489  -22.1575   26.1928 C   0  0  0  0  0  0  0  0  0  0  0  0
  -24.3639  -18.9069   24.8628 C   0  0  0  0  0  0  0  0  0  0  0  0
  -23.9080  -18.4109   21.9834 C   0  0  0  0  0  0  0  0  0  0  0  0
  -29.8232  -20.9680   25.2365 C   0  0  0  0  0  0  0  0  0  0  0  0
  -25.4096  -33.0472   20.9305 C   0  0  0  0  0  0  0  0  0  0  0  0
  -29.0766  -21.3285   23.9561 C   0  0  0  0  0  0  0  0  0  0  0  0
  -25.7690  -31.7612   20.1841 C   0  0  0  0  0  0  0  0  0  0  0  0
  -25.8420  -32.9899   22.3940 C   0  0  0  0  0  0  0  0  0  0  0  0
  -25.7117  -30.5289   22.3925 C   0  0  0  0  0  0  0  0  0  0  0  0
  -27.6161  -21.6903   24.2523 C   0  0  1  0  0  0  0  0  0  0  0  0
  -25.5073  -18.5478   23.9188 C   0  0  1  0  0  0  0  0  0  0  0  0
  -25.2455  -30.5170   20.9266 C   0  0  2  0  0  0  0  0  0  0  0  0
  -23.5935  -12.1687   19.9631 C   0  0  0  0  0  0  0  0  0  0  0  0
  -27.0240  -17.8238   19.6135 C   0  0  0  0  0  0  0  0  0  0  0  0
  -26.0720  -15.8173   18.4577 C   0  0  0  0  0  0  0  0  0  0  0  0
  -27.7686  -15.5264   20.2632 C   0  0  0  0  0  0  0  0  0  0  0  0
  -21.8344  -13.5449   23.0434 C   0  0  0  0  0  0  0  0  0  0  0  0
  -19.9172  -29.5397   24.3314 C   0  0  0  0  0  0  0  0  0  0  0  0
  -18.5890  -24.9957   21.0131 C   0  0  0  0  0  0  0  0  0  0  0  0
  -23.1950  -30.7024   25.9048 C   0  0  0  0  0  0  0  0  0  0  0  0
  -21.7202  -30.7624   25.5532 C   0  0  0  0  0  0  0  0  0  0  0  0
  -19.0646  -22.5966   20.5062 C   0  0  0  0  0  0  0  0  0  0  0  0
  -20.0001  -21.4598   20.8674 C   0  0  0  0  0  0  0  0  0  1  0  0
  -25.4205  -16.2391   20.8719 C   0  0  1  0  0  0  0  0  0  0  0  0
  -23.4558  -13.0159   21.2185 C   0  0  2  0  0  0  0  0  0  0  0  0
  -26.5544  -16.3694   19.8161 C   0  0  0  0  0  0  0  0  0  0  0  0
  -26.7736  -28.6146   20.5689 N   0  0  0  0  0  0  0  0  0  0  0  0
  -25.6354  -29.2349   20.2145 N   0  0  0  0  0  0  0  0  0  0  0  0
  -25.0499  -17.8434   22.7193 N   0  0  0  0  0  0  0  0  0  0  0  0
  -25.3113  -31.7874   23.0409 N   0  0  0  0  0  0  0  0  0  0  0  0
  -23.7855  -29.0914   18.7421 N   0  0  0  0  0  0  0  0  0  0  0  0
  -26.2330  -25.4421   17.6990 N   0  0  0  0  0  0  0  0  0  0  0  0
  -26.8346  -20.4932   24.4772 N   0  0  0  0  0  0  0  0  0  0  0  0
  -24.9747  -14.8696   21.1041 N   0  0  0  0  0  0  0  0  0  0  0  0
  -24.0394  -30.7300   24.7314 N   0  0  0  0  0  0  0  0  0  0  0  0
  -22.0985  -12.7903   21.7912 N   0  3  0  0  0  0  0  0  0  0  0  0
  -21.3469  -29.5715   24.7464 N   0  3  0  0  0  0  0  0  0  0  0  0
  -19.4229  -23.7978   21.3018 N   0  3  0  0  0  0  0  0  0  0  0  0
  -24.3302  -26.6159   17.1890 O   0  0  0  0  0  0  0  0  0  0  0  0
  -26.3569  -19.9908   22.2542 O   0  0  0  0  0  0  0  0  0  0  0  0
  -26.7855  -16.2893   22.8112 O   0  0  0  0  0  0  0  0  0  0  0  0
  -22.7525  -15.2275   20.5467 O   0  0  0  0  0  0  0  0  0  0  0  0
  -24.2200  -33.0150   24.6780 O   0  0  0  0  0  0  0  0  0  0  0  0
  -31.0450  -23.9196   20.0574 O   0  0  0  0  0  0  0  0  0  0  0  0
  -19.8640  -21.1515   22.2541 O   0  0  0  0  0  0  0  0  0  1  0  0
  -29.8269  -18.5419   20.0349 F   0  0  0  0  0  0  0  0  0  0  0  0
  -29.7031  -22.7782   17.9268 F   0  0  0  0  0  0  0  0  0  0  0  0
  1  2  1  0  0  0  0
  1  5  2  0  0  0  0
  2  6  2  0  0  0  0
  3 12  2  0  0  0  0
  3 19  1  0  0  0  0
  4 13  1  0  0  0  0
  4 19  2  0  0  0  0
  5 21  1  0  0  0  0
  6 23  1  0  0  0  0
  7 14  2  0  0  0  0
  7 22  1  0  0  0  0
  8 10  2  0  0  0  0
  8 25  1  0  0  0  0
  9 11  1  0  0  0  0
  9 25  2  0  0  0  0
 10 26  1  0  0  0  0
 11 26  2  0  0  0  0
 12 27  1  0  0  0  0
 13 27  2  0  0  0  0
 14 28  1  0  0  0  0
 15 16  2  0  0  0  0
 15 29  1  0  0  0  0
 16 30  1  0  0  0  0
 17 24  1  0  0  0  0
 17 28  2  0  0  0  0
 18 30  2  0  0  0  0
 18 31  1  0  0  0  0
 19 32  1  0  0  0  0
 20 32  1  0  0  0  0
 20 33  2  0  0  0  0
 20 34  1  0  0  0  0
 21 23  2  0  0  0  0
 21 39  1  0  0  0  0
 22 24  2  0  0  0  0
 22 40  1  0  0  0  0
 23 48  1  0  0  0  0
 24 41  1  0  0  0  0
 25 56  1  0  0  0  0
 26 57  1  0  0  0  0
 27 82  1  0  0  0  0
 28 83  1  0  0  0  0
 29 31  2  0  0  0  0
 29 82  1  0  0  0  0
 30 84  1  0  0  0  0
 31 85  1  0  0  0  0
 32 65  2  0  0  0  0
 33 66  1  0  0  0  0
 33 69  1  0  0  0  0
 34 70  1  0  0  0  0
 34 77  2  0  0  0  0
 35 49  1  0  0  0  0
 35 71  1  0  0  0  0
 35 78  2  0  0  0  0
 36 62  1  0  0  0  0
 36 67  1  0  0  0  0
 36 79  2  0  0  0  0
 37 63  1  0  0  0  0
 37 72  1  0  0  0  0
 37 80  2  0  0  0  0
 38 68  1  0  0  0  0
 38 73  1  0  0  0  0
 38 81  2  0  0  0  0
 39 42  1  0  0  0  0
 40 49  1  0  0  0  0
 41 67  1  0  0  0  0
 42 44  1  0  0  0  0
 43 45  1  0  0  0  0
 43 46  1  0  0  0  0
 44 48  1  0  0  0  0
 45 50  1  0  0  0  0
 46 68  1  0  0  0  0
 47 50  1  0  0  0  0
 47 68  1  0  0  0  0
 48 71  1  0  0  0  0
 49 67  1  0  0  0  0
 50 66  1  0  0  0  0
 51 63  1  0  0  0  0
 52 64  1  0  0  0  0
 53 64  1  0  0  0  0
 54 64  1  0  0  0  0
 55 74  1  0  0  0  0
 56 75  1  0  0  0  0
 57 76  1  0  0  0  0
 58 59  1  0  0  0  0
 58 73  1  0  0  0  0
 59 75  1  0  0  0  0
 60 61  1  0  0  0  0
 60 76  1  0  0  0  0
 61 83  1  0  0  0  0
 62 64  1  0  0  0  0
 62 72  1  0  0  0  0
 63 74  1  0  0  0  0
 65 66  1  0  0  0  0
M  CHG  3  74   1  75   1  76   1
M  ISO  4  38 100  61 101  73 100  83 101
M  END
> <Batch ID>
0131

> <Smiles>
CNC(C)C(=O)NC(C(=O)N1Cc2cc([101O:1][101CH2:1]CNCc3ccc(CNCC[100NH:0][100C:0](=O)N4CCCC(n5nc(-c6ccc(Oc7ccc(F)cc7F)cc6)c(C(N)=O)c5N)C4)cc3)ccc2CC1C(=O)NC1CCCc2ccccc21)C(C)(C)C

> <Shape>
0.219

> <Color>
0.073

> <Negative vol penalty>
0.000

$$$$

  -OEChem-04052320503D

 87 96  0     1  0  0  0  0  0999 V2000
  -32.2204  -15.0235   21.0541 C   0  0  0  0  0  0  0  0  0  0  0  0
  -31.3170  -16.0647   21.2414 C   0  0  0  0  0  0  0  0  0  0  0  0
  -18.7107  -27.4686   23.8890 C   0  0  0  0  0  0  0  0  0  0  0  0
  -28.0737  -26.1504   18.5751 C   0  0  0  0  0  0  0  0  0  0  0  0
  -29.2978  -27.2302   20.3563 C   0  0  0  0  0  0  0  0  0  0  0  0
  -31.7945  -13.8279   20.4772 C   0  0  0  0  0  0  0  0  0  0  0  0
  -29.9872  -15.9112   20.8507 C   0  0  0  0  0  0  0  0  0  0  0  0
  -25.0461  -18.2527   23.6091 C   0  0  0  0  0  0  0  0  0  0  0  0
  -18.3208  -26.4907   22.9740 C   0  0  0  0  0  0  0  0  0  0  0  0
  -19.9427  -23.3760   19.9410 C   0  0  0  0  0  0  0  0  0  0  0  0
  -19.1569  -23.3196   22.2249 C   0  0  0  0  0  0  0  0  0  0  0  0
  -20.5715  -22.1449   20.1269 C   0  0  0  0  0  0  0  0  0  0  0  0
  -19.7857  -22.0885   22.4109 C   0  0  0  0  0  0  0  0  0  0  0  0
  -19.7874  -28.3064   23.5980 C   0  0  0  0  0  0  0  0  0  0  0  0
  -28.9280  -25.0507   18.6546 C   0  0  0  0  0  0  0  0  0  0  0  0
  -30.1521  -26.1304   20.4358 C   0  0  0  0  0  0  0  0  0  0  0  0
  -24.2724  -19.3824   23.3467 C   0  0  0  0  0  0  0  0  0  0  0  0
  -30.5655  -21.8052   18.6338 C   0  0  0  0  0  0  0  0  0  0  0  0
  -29.9906  -20.5345   18.6132 C   0  0  0  0  0  0  0  0  0  0  0  0
  -22.7121  -18.0193   22.1110 C   0  0  0  0  0  0  0  0  0  0  0  0
  -28.7445  -21.0659   20.6137 C   0  0  0  0  0  0  0  0  0  0  0  0
  -28.2586  -27.2402   19.4260 C   0  0  0  0  0  0  0  0  0  0  0  0
  -27.1620  -29.2073   18.2278 C   0  0  0  0  0  0  0  0  0  0  0  0
  -30.4567  -13.6561   20.0881 C   0  0  0  0  0  0  0  0  0  0  0  0
  -24.6637  -16.9975   23.1144 C   0  0  0  0  0  0  0  0  0  0  0  0
  -29.5433  -14.7126   20.2668 C   0  0  0  0  0  0  0  0  0  0  0  0
  -23.4814  -16.8748   22.3707 C   0  0  0  0  0  0  0  0  0  0  0  0
  -19.2354  -23.9634   20.9900 C   0  0  0  0  0  0  0  0  0  0  0  0
  -20.4929  -21.5011   21.3618 C   0  0  0  0  0  0  0  0  0  0  0  0
  -19.0076  -26.3503   21.7681 C   0  0  0  0  0  0  0  0  0  0  0  0
  -20.0843  -27.1880   21.4771 C   0  0  0  0  0  0  0  0  0  0  0  0
  -20.4742  -28.1660   22.3921 C   0  0  0  0  0  0  0  0  0  0  0  0
  -29.9673  -25.0407   19.5849 C   0  0  0  0  0  0  0  0  0  0  0  0
  -23.1067  -19.2663   22.5951 C   0  0  0  0  0  0  0  0  0  0  0  0
  -30.2300  -22.7062   19.6444 C   0  0  0  0  0  0  0  0  0  0  0  0
  -29.0801  -20.1649   19.6032 C   0  0  0  0  0  0  0  0  0  0  0  0
  -29.3195  -22.3366   20.6343 C   0  0  0  0  0  0  0  0  0  0  0  0
  -27.3767  -28.3767   19.3440 C   0  0  0  0  0  0  0  0  0  0  0  0
  -26.2420  -30.1314   18.6594 C   0  0  0  0  0  0  0  0  0  0  0  0
  -27.7421  -29.1487   16.9180 C   0  0  0  0  0  0  0  0  0  0  0  0
  -25.9519  -14.8861   21.1178 C   0  0  0  0  0  0  0  0  0  0  0  0
  -23.4279  -13.0654   22.0329 C   0  0  0  0  0  0  0  0  0  0  0  0
  -20.2591  -12.9296   23.2926 C   0  0  0  0  0  0  0  0  0  0  0  0
  -22.0639  -30.0447   22.9303 C   0  0  0  0  0  0  0  0  0  0  0  0
  -30.0538  -12.3627   19.4253 C   0  0  0  0  0  0  0  0  0  0  0  0
  -25.4952  -15.7841   23.4288 C   0  0  0  0  0  0  0  0  0  0  0  0
  -23.0163  -15.5466   21.8339 C   0  0  0  0  0  0  0  0  0  0  0  0
  -28.5435  -12.1450   19.3823 C   0  0  0  0  0  0  0  0  0  0  0  0
  -24.7515  -32.3603   22.6273 C   0  0  0  0  0  0  0  0  0  0  0  0
  -27.8347  -13.4115   18.9127 C   0  0  0  0  0  0  0  0  0  0  0  0
  -25.7073  -31.6799   21.6447 C   0  0  0  0  0  0  0  0  0  0  0  0
  -24.0823  -31.3510   23.5586 C   0  0  0  0  0  0  0  0  0  0  0  0
  -24.3687  -29.5516   21.9005 C   0  0  0  0  0  0  0  0  0  0  0  0
  -28.0871  -14.5754   19.8788 C   0  0  1  0  0  0  0  0  0  0  0  0
  -25.2824  -14.6415   22.4406 C   0  0  1  0  0  0  0  0  0  0  0  0
  -25.0176  -30.5207   20.8989 C   0  0  2  0  0  0  0  0  0  0  0  0
  -20.4358  -28.1101   19.1722 C   0  0  0  0  0  0  0  0  0  0  0  0
  -18.4454  -11.3020   23.8914 C   0  0  0  0  0  0  0  0  0  0  0  0
  -22.7653  -12.7192   19.0747 C   0  0  0  0  0  0  0  0  0  0  0  0
  -20.4880  -11.9270   19.7491 C   0  0  0  0  0  0  0  0  0  0  0  0
  -22.5105  -10.6463   20.4504 C   0  0  0  0  0  0  0  0  0  0  0  0
  -20.2970  -13.7547   26.1345 C   0  0  0  0  0  0  0  0  0  0  0  0
  -18.5628  -25.2796   20.7921 C   0  0  0  0  0  0  0  0  0  0  0  0
  -20.8181  -27.0337   20.1818 C   0  0  0  0  0  0  0  0  0  0  0  0
  -21.1682  -20.1760   21.5605 C   0  0  0  0  0  0  0  0  0  1  0  0
  -22.0140  -12.8730   21.5401 C   0  0  1  0  0  0  0  0  0  0  0  0
  -19.6488  -12.0833   24.3952 C   0  0  2  0  0  0  0  0  0  0  0  0
  -21.9540  -12.0669   20.2119 C   0  0  0  0  0  0  0  0  0  0  0  0
  -26.6517  -28.7410   20.4049 N   0  0  0  0  0  0  0  0  0  0  0  0
  -25.9724  -29.8108   19.9573 N   0  0  0  0  0  0  0  0  0  0  0  0
  -23.8668  -14.3907   22.1628 N   0  0  0  0  0  0  0  0  0  0  0  0
  -23.4464  -30.2846   22.7819 N   0  0  0  0  0  0  0  0  0  0  0  0
  -25.6456  -31.1788   18.0515 N   0  0  0  0  0  0  0  0  0  0  0  0
  -28.9272  -29.8581   16.6798 N   0  0  0  0  0  0  0  0  0  0  0  0
  -21.5646  -29.0281   22.1169 N   0  0  0  0  0  0  0  0  0  0  0  0
  -27.2590  -14.4418   21.0581 N   0  0  0  0  0  0  0  0  0  0  0  0
  -21.2769  -12.2645   22.6422 N   0  0  0  0  0  0  0  0  0  0  0  0
  -19.2083  -12.9467   25.5272 N   0  3  0  0  0  0  0  0  0  0  0  0
  -27.2161  -28.5002   15.9819 O   0  0  0  0  0  0  0  0  0  0  0  0
  -25.3282  -15.4356   20.2174 O   0  0  0  0  0  0  0  0  0  0  0  0
  -24.1152  -12.0765   22.2999 O   0  0  0  0  0  0  0  0  0  0  0  0
  -19.8692  -14.0656   23.0316 O   0  0  0  0  0  0  0  0  0  0  0  0
  -21.3686  -30.7115   23.7010 O   0  0  0  0  0  0  0  0  0  0  0  0
  -30.8010  -23.9677   19.6629 O   0  0  0  0  0  0  0  0  0  0  0  0
  -22.3500  -20.3675   22.3369 O   0  0  0  0  0  0  0  0  0  1  0  0
  -28.5269  -18.9451   19.5824 F   0  0  0  0  0  0  0  0  0  0  0  0
  -28.9923  -23.1983   21.6070 F   0  0  0  0  0  0  0  0  0  0  0  0
  1  2  1  0  0  0  0
  1  6  2  0  0  0  0
  2  7  2  0  0  0  0
  3  9  1  0  0  0  0
  3 14  2  0  0  0  0
  4 15  2  0  0  0  0
  4 22  1  0  0  0  0
  5 16  1  0  0  0  0
  5 22  2  0  0  0  0
  6 24  1  0  0  0  0
  7 26  1  0  0  0  0
  8 17  2  0  0  0  0
  8 25  1  0  0  0  0
  9 30  2  0  0  0  0
 10 12  2  0  0  0  0
 10 28  1  0  0  0  0
 11 13  1  0  0  0  0
 11 28  2  0  0  0  0
 12 29  1  0  0  0  0
 13 29  2  0  0  0  0
 14 32  1  0  0  0  0
 15 33  1  0  0  0  0
 16 33  2  0  0  0  0
 17 34  1  0  0  0  0
 18 19  2  0  0  0  0
 18 35  1  0  0  0  0
 19 36  1  0  0  0  0
 20 27  1  0  0  0  0
 20 34  2  0  0  0  0
 21 36  2  0  0  0  0
 21 37  1  0  0  0  0
 22 38  1  0  0  0  0
 23 38  1  0  0  0  0
 23 39  2  0  0  0  0
 23 40  1  0  0  0  0
 24 26  2  0  0  0  0
 24 45  1  0  0  0  0
 25 27  2  0  0  0  0
 25 46  1  0  0  0  0
 26 54  1  0  0  0  0
 27 47  1  0  0  0  0
 28 63  1  0  0  0  0
 29 65  1  0  0  0  0
 30 31  1  0  0  0  0
 30 63  1  0  0  0  0
 31 32  2  0  0  0  0
 31 64  1  0  0  0  0
 32 75  1  0  0  0  0
 33 84  1  0  0  0  0
 34 85  1  0  0  0  0
 35 37  2  0  0  0  0
 35 84  1  0  0  0  0
 36 86  1  0  0  0  0
 37 87  1  0  0  0  0
 38 69  2  0  0  0  0
 39 70  1  0  0  0  0
 39 73  1  0  0  0  0
 40 74  1  0  0  0  0
 40 79  2  0  0  0  0
 41 55  1  0  0  0  0
 41 76  1  0  0  0  0
 41 80  2  0  0  0  0
 42 66  1  0  0  0  0
 42 71  1  0  0  0  0
 42 81  2  0  0  0  0
 43 67  1  0  0  0  0
 43 77  1  0  0  0  0
 43 82  2  0  0  0  0
 44 72  1  0  0  0  0
 44 75  1  0  0  0  0
 44 83  2  0  0  0  0
 45 48  1  0  0  0  0
 46 55  1  0  0  0  0
 47 71  1  0  0  0  0
 48 50  1  0  0  0  0
 49 51  1  0  0  0  0
 49 52  1  0  0  0  0
 50 54  1  0  0  0  0
 51 56  1  0  0  0  0
 52 72  1  0  0  0  0
 53 56  1  0  0  0  0
 53 72  1  0  0  0  0
 54 76  1  0  0  0  0
 55 71  1  0  0  0  0
 56 70  1  0  0  0  0
 57 64  1  0  0  0  0
 58 67  1  0  0  0  0
 59 68  1  0  0  0  0
 60 68  1  0  0  0  0
 61 68  1  0  0  0  0
 62 78  1  0  0  0  0
 65 85  1  0  0  0  0
 66 68  1  0  0  0  0
 66 77  1  0  0  0  0
 67 78  1  0  0  0  0
 69 70  1  0  0  0  0
M  CHG  1  78   1
M  ISO  4  44 100  65 101  75 100  85 101
M  END
> <Batch ID>
0131

> <Smiles>
CCc1c(Cc2ccc([101CH2:1][101O:1]c3ccc4c(c3)CN(C(=O)C(NC(=O)C(C)NC)C(C)(C)C)C(C(=O)NC3CCCc5ccccc53)C4)cc2)cccc1[100NH:0][100C:0](=O)N1CCCC(n2nc(-c3ccc(Oc4ccc(F)cc4F)cc3)c(C(N)=O)c2N)C1

> <Shape>
0.289

> <Color>
0.075

> <Negative vol penalty>
0.000

$$$$

  -OEChem-04052320503D

 91101  0     1  0  0  0  0  0999 V2000
  -22.3056  -36.0676   16.1854 C   0  0  0  0  0  0  0  0  0  0  0  0
  -22.7777  -34.7673   16.0382 C   0  0  0  0  0  0  0  0  0  0  0  0
  -23.6533  -16.1455   22.4975 C   0  0  0  0  0  0  0  0  0  0  0  0
  -25.0268  -14.9269   24.0678 C   0  0  0  0  0  0  0  0  0  0  0  0
  -22.7379  -36.8478   17.2570 C   0  0  0  0  0  0  0  0  0  0  0  0
  -23.6833  -34.2468   16.9620 C   0  0  0  0  0  0  0  0  0  0  0  0
  -24.0371  -28.4501   18.9060 C   0  0  0  0  0  0  0  0  0  0  0  0
  -23.2389  -16.9975   23.5212 C   0  0  0  0  0  0  0  0  0  0  0  0
  -24.6124  -15.7789   25.0915 C   0  0  0  0  0  0  0  0  0  0  0  0
  -24.8589  -27.3857   18.5377 C   0  0  0  0  0  0  0  0  0  0  0  0
  -25.3395  -18.8924   26.1860 C   0  0  0  0  0  0  0  0  0  0  0  0
  -26.3148  -19.3806   27.0555 C   0  0  0  0  0  0  0  0  0  0  0  0
  -29.6849  -19.4362   19.2309 C   0  0  0  0  0  0  0  0  0  0  0  0
  -30.4338  -18.2749   18.9185 C   0  0  0  0  0  0  0  0  0  0  0  0
  -26.3375  -27.9001   20.3731 C   0  0  0  0  0  0  0  0  0  0  0  0
  -25.1745  -18.3445   28.9165 C   0  0  0  0  0  0  0  0  0  0  0  0
  -24.5472  -15.1101   22.7708 C   0  0  0  0  0  0  0  0  0  0  0  0
  -24.1633  -13.3995   20.9178 C   0  0  0  0  0  0  0  0  0  0  0  0
  -23.6418  -36.3333   18.1998 C   0  0  0  0  0  0  0  0  0  0  0  0
  -24.3657  -29.2555   20.0059 C   0  0  0  0  0  0  0  0  0  0  0  0
  -24.1291  -35.0213   18.0465 C   0  0  0  0  0  0  0  0  0  0  0  0
  -25.5168  -28.9725   20.7548 C   0  0  0  0  0  0  0  0  0  0  0  0
  -23.7185  -16.8143   24.8181 C   0  0  0  0  0  0  0  0  0  0  0  0
  -26.0108  -27.1124   19.2695 C   0  0  0  0  0  0  0  0  0  0  0  0
  -24.2816  -18.1303   26.6818 C   0  0  0  0  0  0  0  0  0  0  0  0
  -26.2324  -19.1067   28.4207 C   0  0  0  0  0  0  0  0  0  0  0  0
  -24.1992  -17.8563   28.0470 C   0  0  0  0  0  0  0  0  0  0  0  0
  -24.9752  -14.2293   21.7139 C   0  0  0  0  0  0  0  0  0  0  0  0
  -29.3373  -20.0342   18.0397 C   0  0  0  0  0  0  0  0  0  0  0  0
  -30.5213  -18.1987   17.5460 C   0  0  0  0  0  0  0  0  0  0  0  0
  -25.0419  -12.7711   20.0694 C   0  0  0  0  0  0  0  0  0  0  0  0
  -22.7418  -13.2133   20.9427 C   0  0  0  0  0  0  0  0  0  0  0  0
  -25.0532  -32.3329   20.4069 C   0  0  0  0  0  0  0  0  0  0  0  0
  -25.0068  -31.5327   23.5501 C   0  0  0  0  0  0  0  0  0  0  0  0
  -26.1651  -28.7886   25.5862 C   0  0  0  0  0  0  0  0  0  0  0  0
  -30.4749  -14.2271   18.0166 C   0  0  0  0  0  0  0  0  0  0  0  0
  -24.1168  -37.2307   19.3151 C   0  0  0  0  0  0  0  0  0  0  0  0
  -23.4546  -30.3834   20.4063 C   0  0  0  0  0  0  0  0  0  0  0  0
  -25.9033  -29.7945   21.9562 C   0  0  0  0  0  0  0  0  0  0  0  0
  -24.7892  -36.4765   20.4593 C   0  0  0  0  0  0  0  0  0  0  0  0
  -29.5821  -11.2842   19.8108 C   0  0  0  0  0  0  0  0  0  0  0  0
  -25.7906  -35.4628   19.9147 C   0  0  0  0  0  0  0  0  0  0  0  0
  -29.2312  -22.5422   18.3653 C   0  0  0  0  0  0  0  0  0  0  0  0
  -27.0959  -21.1798   18.3043 C   0  0  0  0  0  0  0  0  0  0  0  0
  -28.4254  -23.8116   18.0907 C   0  0  0  0  0  0  0  0  0  0  0  0
  -26.2954  -22.4526   18.0299 C   0  0  0  0  0  0  0  0  0  0  0  0
  -28.2269  -11.6304   20.4302 C   0  0  0  0  0  0  0  0  0  0  0  0
  -33.2332  -22.5239   15.7473 C   0  0  0  0  0  0  0  0  0  0  0  0
  -34.2959  -21.4715   15.6030 C   0  0  0  0  0  0  0  0  0  0  0  0
  -30.5157  -12.4924   19.7845 C   0  0  0  0  0  0  0  0  0  0  0  0
  -28.5990  -14.0414   19.7610 C   0  0  0  0  0  0  0  0  0  0  0  0
  -25.0931  -34.4126   19.0416 C   0  0  1  0  0  0  0  0  0  0  0  0
  -28.5380  -21.2988   17.7832 C   0  0  0  0  0  0  0  0  0  0  0  0
  -24.1580  -31.4544   21.2343 C   0  0  1  0  0  0  0  0  0  0  0  0
  -26.9866  -23.6935   18.6102 C   0  0  0  0  0  0  0  0  0  0  0  0
  -27.6034  -12.8688   19.7586 C   0  0  2  0  0  0  0  0  0  0  0  0
  -33.0059  -21.3457   14.8438 C   0  0  0  0  0  0  0  0  0  0  0  0
  -25.3194  -27.9154   27.7816 C   0  0  0  0  0  0  0  0  0  0  0  0
  -27.1255  -33.3623   24.7640 C   0  0  0  0  0  0  0  0  0  0  0  0
  -27.5770  -31.5896   26.4734 C   0  0  0  0  0  0  0  0  0  0  0  0
  -25.3251  -32.6556   26.3494 C   0  0  0  0  0  0  0  0  0  0  0  0
  -25.8283  -26.0556   24.5016 C   0  0  0  0  0  0  0  0  0  0  0  0
  -31.1872  -17.1914   16.6945 C   0  0  0  0  0  0  0  0  0  0  0  0
  -26.1907  -24.9557   18.2834 C   0  0  0  0  0  0  0  0  0  1  0  0
  -29.7084  -19.5609   15.6105 C   0  0  0  0  0  0  0  0  0  0  0  0
  -30.2857  -16.0084   16.2990 C   0  0  0  0  0  0  0  0  0  0  0  0
  -30.6135  -20.6834   15.1202 C   0  0  0  0  0  0  0  0  0  0  0  0
  -26.0304  -31.0348   24.5418 C   0  0  1  0  0  0  0  0  0  0  0  0
  -25.3075  -27.7398   26.2710 C   0  0  2  0  0  0  0  0  0  0  0  0
  -26.5166  -32.1548   25.5044 C   0  0  0  0  0  0  0  0  0  0  0  0
  -26.2702  -14.1385   21.3996 N   0  0  0  0  0  0  0  0  0  0  0  0
  -29.8513  -19.2734   17.0223 N   0  0  0  0  0  0  0  0  0  0  0  0
  -26.2786  -13.2441   20.3966 N   0  0  0  0  0  0  0  0  0  0  0  0
  -24.9836  -30.8903   22.3040 N   0  0  0  0  0  0  0  0  0  0  0  0
  -29.8650  -13.6318   19.1332 N   0  0  0  0  0  0  0  0  0  0  0  0
  -24.8696  -11.8656   19.0831 N   0  0  0  0  0  0  0  0  0  0  0  0
  -22.2134  -12.2130   21.7700 N   0  0  0  0  0  0  0  0  0  0  0  0
  -24.4178  -33.4356   19.8686 N   0  0  0  0  0  0  0  0  0  0  0  0
  -25.4245  -29.8905   25.2140 N   0  0  0  0  0  0  0  0  0  0  0  0
  -29.7886  -15.2972   17.4556 N   0  0  0  0  0  0  0  0  0  0  0  0
  -32.0383  -20.3071   15.2912 N   0  3  0  0  0  0  0  0  0  0  0  0
  -25.8082  -26.3727   25.9528 N   0  3  0  0  0  0  0  0  0  0  0  0
  -21.9646  -13.9024   20.2395 O   0  0  0  0  0  0  0  0  0  0  0  0
  -26.2333  -32.0333   20.2684 O   0  0  0  0  0  0  0  0  0  0  0  0
  -24.2507  -32.4527   23.8718 O   0  0  0  0  0  0  0  0  0  0  0  0
  -27.3721  -28.6462   25.4032 O   0  0  0  0  0  0  0  0  0  0  0  0
  -31.5485  -13.8307   17.5507 O   0  0  0  0  0  0  0  0  0  0  0  0
  -23.3145  -17.6457   25.8172 O   0  0  0  0  0  0  0  0  0  0  0  0
  -26.8150  -26.0745   18.9118 O   0  0  0  0  0  0  0  0  0  1  0  0
  -27.1699  -19.5743   29.2553 F   0  0  0  0  0  0  0  0  0  0  0  0
  -23.1859  -17.1238   28.5290 F   0  0  0  0  0  0  0  0  0  0  0  0
  1  2  1  0  0  0  0
  1  5  2  0  0  0  0
  2  6  2  0  0  0  0
  3  8  2  0  0  0  0
  3 17  1  0  0  0  0
  4  9  1  0  0  0  0
  4 17  2  0  0  0  0
  5 19  1  0  0  0  0
  6 21  1  0  0  0  0
  7 10  2  0  0  0  0
  7 20  1  0  0  0  0
  8 23  1  0  0  0  0
  9 23  2  0  0  0  0
 10 24  1  0  0  0  0
 11 12  2  0  0  0  0
 11 25  1  0  0  0  0
 12 26  1  0  0  0  0
 13 14  1  0  0  0  0
 13 29  2  0  0  0  0
 14 30  2  0  0  0  0
 15 22  1  0  0  0  0
 15 24  2  0  0  0  0
 16 26  2  0  0  0  0
 16 27  1  0  0  0  0
 17 28  1  0  0  0  0
 18 28  1  0  0  0  0
 18 31  2  0  0  0  0
 18 32  1  0  0  0  0
 19 21  2  0  0  0  0
 19 37  1  0  0  0  0
 20 22  2  0  0  0  0
 20 38  1  0  0  0  0
 21 52  1  0  0  0  0
 22 39  1  0  0  0  0
 23 88  1  0  0  0  0
 24 89  1  0  0  0  0
 25 27  2  0  0  0  0
 25 88  1  0  0  0  0
 26 90  1  0  0  0  0
 27 91  1  0  0  0  0
 28 71  2  0  0  0  0
 29 53  1  0  0  0  0
 29 72  1  0  0  0  0
 30 63  1  0  0  0  0
 30 72  1  0  0  0  0
 31 73  1  0  0  0  0
 31 76  1  0  0  0  0
 32 77  1  0  0  0  0
 32 83  2  0  0  0  0
 33 54  1  0  0  0  0
 33 78  1  0  0  0  0
 33 84  2  0  0  0  0
 34 68  1  0  0  0  0
 34 74  1  0  0  0  0
 34 85  2  0  0  0  0
 35 69  1  0  0  0  0
 35 79  1  0  0  0  0
 35 86  2  0  0  0  0
 36 75  1  0  0  0  0
 36 80  1  0  0  0  0
 36 87  2  0  0  0  0
 37 40  1  0  0  0  0
 38 54  1  0  0  0  0
 39 74  1  0  0  0  0
 40 42  1  0  0  0  0
 41 47  1  0  0  0  0
 41 50  1  0  0  0  0
 42 52  1  0  0  0  0
 43 45  1  0  0  0  0
 43 53  1  0  0  0  0
 44 46  1  0  0  0  0
 44 53  1  0  0  0  0
 45 55  1  0  0  0  0
 46 55  1  0  0  0  0
 47 56  1  0  0  0  0
 48 49  1  0  0  0  0
 48 57  1  0  0  0  0
 49 57  1  0  0  0  0
 50 75  1  0  0  0  0
 51 56  1  0  0  0  0
 51 75  1  0  0  0  0
 52 78  1  0  0  0  0
 54 74  1  0  0  0  0
 55 64  1  0  0  0  0
 56 73  1  0  0  0  0
 57 81  1  0  0  0  0
 58 69  1  0  0  0  0
 59 70  1  0  0  0  0
 60 70  1  0  0  0  0
 61 70  1  0  0  0  0
 62 82  1  0  0  0  0
 63 66  1  0  0  0  0
 64 89  1  0  0  0  0
 65 67  1  0  0  0  0
 65 72  1  0  0  0  0
 66 80  1  0  0  0  0
 67 81  1  0  0  0  0
 68 70  1  0  0  0  0
 68 79  1  0  0  0  0
 69 82  1  0  0  0  0
 71 73  1  0  0  0  0
M  CHG  2  81   1  82   1
M  ISO  4  36 100  64 101  80 100  89 101
M  END
> <Batch ID>
0131

> <Smiles>
CNC(C)C(=O)NC(C(=O)N1Cc2cc([101O:1][101CH2:1]C3CCC(c4ccc(CC[100NH:0][100C:0](=O)N5CCCC(n6nc(-c7ccc(Oc8ccc(F)cc8F)cc7)c(C(N)=O)c6N)C5)n4CCNC4CC4)CC3)ccc2CC1C(=O)NC1CCCc2ccccc21)C(C)(C)C

> <Shape>
0.215

> <Color>
0.092

> <Negative vol penalty>
0.000

$$$$

  -OEChem-04052320503D

 86 94  0     1  0  0  0  0  0999 V2000
  -31.2911  -11.2037   20.6464 C   0  0  0  0  0  0  0  0  0  0  0  0
  -31.0018  -12.4470   20.0932 C   0  0  0  0  0  0  0  0  0  0  0  0
  -19.9622  -28.4156   23.1408 C   0  0  0  0  0  0  0  0  0  0  0  0
  -21.5963  -26.7895   22.4179 C   0  0  0  0  0  0  0  0  0  0  0  0
  -30.2626  -10.4123   21.1561 C   0  0  0  0  0  0  0  0  0  0  0  0
  -29.6835  -12.8992   20.0485 C   0  0  0  0  0  0  0  0  0  0  0  0
  -29.2400  -17.7380   21.4745 C   0  0  0  0  0  0  0  0  0  0  0  0
  -29.1031  -26.2592   17.3264 C   0  0  0  0  0  0  0  0  0  0  0  0
  -18.9916  -27.7869   22.3610 C   0  0  0  0  0  0  0  0  0  0  0  0
  -20.6257  -26.1608   21.6380 C   0  0  0  0  0  0  0  0  0  0  0  0
  -29.5980  -18.7117   20.5431 C   0  0  0  0  0  0  0  0  0  0  0  0
  -29.3901  -24.9651   17.7605 C   0  0  0  0  0  0  0  0  0  0  0  0
  -18.4903  -23.9137   19.7383 C   0  0  0  0  0  0  0  0  0  0  0  0
  -18.4189  -22.5216   19.7881 C   0  0  0  0  0  0  0  0  0  0  0  0
  -27.2702  -19.0429   20.0036 C   0  0  0  0  0  0  0  0  0  0  0  0
  -27.5383  -25.0739   19.3085 C   0  0  0  0  0  0  0  0  0  0  0  0
  -17.9787  -22.6292   22.1613 C   0  0  0  0  0  0  0  0  0  0  0  0
  -21.2647  -27.9170   23.1693 C   0  0  0  0  0  0  0  0  0  0  0  0
  -22.5891  -28.2917   25.3171 C   0  0  0  0  0  0  0  0  0  0  0  0
  -28.9321  -10.8592   21.1263 C   0  0  0  0  0  0  0  0  0  0  0  0
  -27.8928  -17.4012   21.6700 C   0  0  0  0  0  0  0  0  0  0  0  0
  -28.6360  -12.1125   20.5570 C   0  0  0  0  0  0  0  0  0  0  0  0
  -26.8976  -18.0665   20.9399 C   0  0  0  0  0  0  0  0  0  0  0  0
  -28.0338  -26.9607   17.8833 C   0  0  0  0  0  0  0  0  0  0  0  0
  -27.2514  -26.3680   18.8743 C   0  0  0  0  0  0  0  0  0  0  0  0
  -19.3233  -26.6595   21.6096 C   0  0  0  0  0  0  0  0  0  0  0  0
  -28.6133  -19.3623   19.8053 C   0  0  0  0  0  0  0  0  0  0  0  0
  -28.6077  -24.3724   18.7516 C   0  0  0  0  0  0  0  0  0  0  0  0
  -18.3059  -24.6636   20.9000 C   0  0  0  0  0  0  0  0  0  0  0  0
  -18.1631  -21.8793   20.9996 C   0  0  0  0  0  0  0  0  0  0  0  0
  -18.0501  -24.0213   22.1114 C   0  0  0  0  0  0  0  0  0  0  0  0
  -22.2679  -28.5663   23.9742 C   0  0  0  0  0  0  0  0  0  0  0  0
  -23.5994  -29.1730   25.6156 C   0  0  0  0  0  0  0  0  0  0  0  0
  -22.0247  -27.3263   26.2143 C   0  0  0  0  0  0  0  0  0  0  0  0
  -26.1670  -14.7563   21.3102 C   0  0  0  0  0  0  0  0  0  0  0  0
  -23.8368  -16.5586   22.6680 C   0  0  0  0  0  0  0  0  0  0  0  0
  -22.5917  -19.6672   23.3263 C   0  0  0  0  0  0  0  0  0  0  0  0
  -27.6656  -32.0048   22.2543 C   0  0  0  0  0  0  0  0  0  0  0  0
  -27.8485   -9.9482   21.6464 C   0  0  0  0  0  0  0  0  0  0  0  0
  -27.5213  -16.3677   22.6977 C   0  0  0  0  0  0  0  0  0  0  0  0
  -25.4357  -17.7559   21.1268 C   0  0  0  0  0  0  0  0  0  0  0  0
  -26.5231  -10.6616   21.9005 C   0  0  0  0  0  0  0  0  0  0  0  0
  -25.2706  -33.4955   24.4266 C   0  0  0  0  0  0  0  0  0  0  0  0
  -26.1639  -11.5574   20.7192 C   0  0  0  0  0  0  0  0  0  0  0  0
  -24.2585  -32.3765   24.6781 C   0  0  0  0  0  0  0  0  0  0  0  0
  -25.8050  -33.4622   22.9964 C   0  0  0  0  0  0  0  0  0  0  0  0
  -25.3527  -31.0455   22.8261 C   0  0  0  0  0  0  0  0  0  0  0  0
  -27.2215  -12.6484   20.5127 C   0  0  1  0  0  0  0  0  0  0  0  0
  -26.1540  -15.7396   22.4462 C   0  0  1  0  0  0  0  0  0  0  0  0
  -24.8275  -31.0039   24.2713 C   0  0  2  0  0  0  0  0  0  0  0  0
  -26.1023  -27.1001   19.4859 C   0  0  0  0  0  0  0  0  0  0  0  0
  -20.6509  -20.8205   24.4221 C   0  0  0  0  0  0  0  0  0  0  0  0
  -22.0712  -15.8484   20.2830 C   0  0  0  0  0  0  0  0  0  0  0  0
  -20.5570  -17.7340   20.9312 C   0  0  0  0  0  0  0  0  0  0  0  0
  -20.9006  -15.8193   22.4929 C   0  0  0  0  0  0  0  0  0  0  0  0
  -24.3539  -21.0386   25.2687 C   0  0  0  0  0  0  0  0  0  0  0  0
  -27.7461  -28.3449   17.4022 C   0  0  0  0  0  0  0  0  0  0  0  0
  -29.4328  -30.4161   21.5387 C   0  0  0  0  0  0  0  0  0  0  0  0
  -28.7131  -29.4038   17.9317 C   0  0  0  0  0  0  0  0  0  0  0  0
  -29.5692  -30.4577   20.0281 C   0  0  0  0  0  0  0  0  0  0  0  0
  -30.1449  -21.0628   19.1587 C   0  0  0  0  0  0  0  0  0  1  0  0
  -29.9952  -22.4500   18.5646 C   0  0  0  0  0  0  0  0  0  0  0  0
  -22.7672  -17.4898   22.1505 C   0  0  1  0  0  0  0  0  0  0  0  0
  -22.0647  -20.2910   24.6060 C   0  0  2  0  0  0  0  0  0  0  0  0
  -21.6016  -16.7276   21.4593 C   0  0  0  0  0  0  0  0  0  0  0  0
  -23.0136  -29.5455   23.4555 N   0  0  0  0  0  0  0  0  0  0  0  0
  -23.8133  -29.8940   24.4778 N   0  0  0  0  0  0  0  0  0  0  0  0
  -25.1234  -16.7334   22.1389 N   0  0  0  0  0  0  0  0  0  0  0  0
  -26.3314  -32.1336   22.6744 N   0  0  0  0  0  0  0  0  0  0  0  0
  -24.3166  -29.3938   26.7377 N   0  0  0  0  0  0  0  0  0  0  0  0
  -20.9942  -26.5004   25.7451 N   0  0  0  0  0  0  0  0  0  0  0  0
  -27.0506  -13.7081   21.4835 N   0  0  0  0  0  0  0  0  0  0  0  0
  -22.3555  -18.3094   23.2850 N   0  0  0  0  0  0  0  0  0  0  0  0
  -28.0860  -30.7102   21.9753 N   0  0  0  0  0  0  0  0  0  0  0  0
  -22.9386  -21.4215   25.0293 N   0  3  0  0  0  0  0  0  0  0  0  0
  -28.6217  -29.4906   19.4101 N   0  3  0  0  0  0  0  0  0  0  0  0
  -22.4113  -27.2109   27.4021 O   0  0  0  0  0  0  0  0  0  0  0  0
  -25.4289  -14.9345   20.3484 O   0  0  0  0  0  0  0  0  0  0  0  0
  -23.5431  -15.7122   23.5160 O   0  0  0  0  0  0  0  0  0  0  0  0
  -23.1532  -20.3199   22.4492 O   0  0  0  0  0  0  0  0  0  0  0  0
  -28.4272  -32.9713   22.1417 O   0  0  0  0  0  0  0  0  0  0  0  0
  -18.3763  -26.0457   20.8487 O   0  0  0  0  0  0  0  0  0  0  0  0
  -28.9600  -20.3125   18.8951 O   0  0  0  0  0  0  0  0  0  1  0  0
  -28.8897  -23.1014   19.1785 O   0  0  0  0  0  0  0  0  0  0  0  0
  -18.0931  -20.5425   21.0470 F   0  0  0  0  0  0  0  0  0  0  0  0
  -17.8710  -24.7364   23.2305 F   0  0  0  0  0  0  0  0  0  0  0  0
  1  2  1  0  0  0  0
  1  5  2  0  0  0  0
  2  6  2  0  0  0  0
  3  9  2  0  0  0  0
  3 18  1  0  0  0  0
  4 10  1  0  0  0  0
  4 18  2  0  0  0  0
  5 20  1  0  0  0  0
  6 22  1  0  0  0  0
  7 11  2  0  0  0  0
  7 21  1  0  0  0  0
  8 12  2  0  0  0  0
  8 24  1  0  0  0  0
  9 26  1  0  0  0  0
 10 26  2  0  0  0  0
 11 27  1  0  0  0  0
 12 28  1  0  0  0  0
 13 14  2  0  0  0  0
 13 29  1  0  0  0  0
 14 30  1  0  0  0  0
 15 23  1  0  0  0  0
 15 27  2  0  0  0  0
 16 25  1  0  0  0  0
 16 28  2  0  0  0  0
 17 30  2  0  0  0  0
 17 31  1  0  0  0  0
 18 32  1  0  0  0  0
 19 32  1  0  0  0  0
 19 33  2  0  0  0  0
 19 34  1  0  0  0  0
 20 22  2  0  0  0  0
 20 39  1  0  0  0  0
 21 23  2  0  0  0  0
 21 40  1  0  0  0  0
 22 48  1  0  0  0  0
 23 41  1  0  0  0  0
 24 25  2  0  0  0  0
 24 57  1  0  0  0  0
 25 51  1  0  0  0  0
 26 82  1  0  0  0  0
 27 83  1  0  0  0  0
 28 84  1  0  0  0  0
 29 31  2  0  0  0  0
 29 82  1  0  0  0  0
 30 85  1  0  0  0  0
 31 86  1  0  0  0  0
 32 66  2  0  0  0  0
 33 67  1  0  0  0  0
 33 70  1  0  0  0  0
 34 71  1  0  0  0  0
 34 77  2  0  0  0  0
 35 49  1  0  0  0  0
 35 72  1  0  0  0  0
 35 78  2  0  0  0  0
 36 63  1  0  0  0  0
 36 68  1  0  0  0  0
 36 79  2  0  0  0  0
 37 64  1  0  0  0  0
 37 73  1  0  0  0  0
 37 80  2  0  0  0  0
 38 69  1  0  0  0  0
 38 74  1  0  0  0  0
 38 81  2  0  0  0  0
 39 42  1  0  0  0  0
 40 49  1  0  0  0  0
 41 68  1  0  0  0  0
 42 44  1  0  0  0  0
 43 45  1  0  0  0  0
 43 46  1  0  0  0  0
 44 48  1  0  0  0  0
 45 50  1  0  0  0  0
 46 69  1  0  0  0  0
 47 50  1  0  0  0  0
 47 69  1  0  0  0  0
 48 72  1  0  0  0  0
 49 68  1  0  0  0  0
 50 67  1  0  0  0  0
 52 64  1  0  0  0  0
 53 65  1  0  0  0  0
 54 65  1  0  0  0  0
 55 65  1  0  0  0  0
 56 75  1  0  0  0  0
 57 59  1  0  0  0  0
 58 60  1  0  0  0  0
 58 74  1  0  0  0  0
 59 76  1  0  0  0  0
 60 76  1  0  0  0  0
 61 62  1  0  0  0  0
 61 83  1  0  0  0  0
 62 84  1  0  0  0  0
 63 65  1  0  0  0  0
 63 73  1  0  0  0  0
 64 75  1  0  0  0  0
 66 67  1  0  0  0  0
M  CHG  2  75   1  76   1
M  ISO  4  38 100  61 101  74 100  83 101
M  END
> <Batch ID>
0131

> <Smiles>
CNC(C)C(=O)NC(C(=O)N1Cc2cc([101O:1][101CH2:1]COc3ccc(CCNCC[100NH:0][100C:0](=O)N4CCCC(n5nc(-c6ccc(Oc7ccc(F)cc7F)cc6)c(C(N)=O)c5N)C4)c(C)c3)ccc2CC1C(=O)NC1CCCc2ccccc21)C(C)(C)C

> <Shape>
0.223

> <Color>
0.055

> <Negative vol penalty>
0.000

$$$$

  -OEChem-04052320503D

 89 99  0     1  0  0  0  0  0999 V2000
  -29.2111  -30.8546   13.4507 C   0  0  0  0  0  0  0  0  0  0  0  0
  -29.2670  -30.4905   14.7923 C   0  0  0  0  0  0  0  0  0  0  0  0
  -22.9623  -10.0626   20.2732 C   0  0  0  0  0  0  0  0  0  0  0  0
  -24.3099   -9.2379   22.1010 C   0  0  0  0  0  0  0  0  0  0  0  0
  -28.2416  -31.7564   13.0141 C   0  0  0  0  0  0  0  0  0  0  0  0
  -28.3540  -31.0290   15.6983 C   0  0  0  0  0  0  0  0  0  0  0  0
  -26.4302  -27.5396   18.8236 C   0  0  0  0  0  0  0  0  0  0  0  0
  -30.6361  -18.1037   24.0853 C   0  0  0  0  0  0  0  0  0  0  0  0
  -31.7125  -18.6520   21.9930 C   0  0  0  0  0  0  0  0  0  0  0  0
  -30.3741  -16.8175   23.6135 C   0  0  0  0  0  0  0  0  0  0  0  0
  -31.4506  -17.3658   21.5211 C   0  0  0  0  0  0  0  0  0  0  0  0
  -22.2333   -8.8734   20.2741 C   0  0  0  0  0  0  0  0  0  0  0  0
  -23.5808   -8.0487   22.1020 C   0  0  0  0  0  0  0  0  0  0  0  0
  -27.2312  -27.1267   19.8873 C   0  0  0  0  0  0  0  0  0  0  0  0
  -20.5858   -6.9661   23.2325 C   0  0  0  0  0  0  0  0  0  0  0  0
  -20.1710   -6.4630   24.4655 C   0  0  0  0  0  0  0  0  0  0  0  0
  -26.0106  -28.5899   21.3666 C   0  0  0  0  0  0  0  0  0  0  0  0
  -21.4241   -4.4374   24.0605 C   0  0  0  0  0  0  0  0  0  0  0  0
  -24.0006  -10.2448   21.1866 C   0  0  0  0  0  0  0  0  0  0  0  0
  -24.4758  -12.6418   21.9189 C   0  0  0  0  0  0  0  0  0  0  0  0
  -27.3101  -32.2988   13.9135 C   0  0  0  0  0  0  0  0  0  0  0  0
  -25.4187  -28.4905   19.0215 C   0  0  0  0  0  0  0  0  0  0  0  0
  -27.3719  -31.9400   15.2735 C   0  0  0  0  0  0  0  0  0  0  0  0
  -25.1964  -29.0113   20.3043 C   0  0  0  0  0  0  0  0  0  0  0  0
  -31.3052  -19.0210   23.2750 C   0  0  0  0  0  0  0  0  0  0  0  0
  -30.7814  -16.4485   22.3314 C   0  0  0  0  0  0  0  0  0  0  0  0
  -22.5425   -7.8665   21.1885 C   0  0  0  0  0  0  0  0  0  0  0  0
  -27.0234  -27.6539   21.1585 C   0  0  0  0  0  0  0  0  0  0  0  0
  -21.4196   -6.2049   22.4134 C   0  0  0  0  0  0  0  0  0  0  0  0
  -20.5902   -5.1987   24.8796 C   0  0  0  0  0  0  0  0  0  0  0  0
  -21.8388   -4.9406   22.8274 C   0  0  0  0  0  0  0  0  0  0  0  0
  -24.7545  -11.4728   21.1858 C   0  0  0  0  0  0  0  0  0  0  0  0
  -25.4802  -13.5121   21.5722 C   0  0  0  0  0  0  0  0  0  0  0  0
  -23.4049  -12.9165   22.8318 C   0  0  0  0  0  0  0  0  0  0  0  0
  -24.8352  -31.4097   17.9073 C   0  0  0  0  0  0  0  0  0  0  0  0
  -22.0547  -31.0543   19.5398 C   0  0  0  0  0  0  0  0  0  0  0  0
  -20.3576  -29.5200   22.0721 C   0  0  0  0  0  0  0  0  0  0  0  0
  -30.8516  -14.6149   20.6053 C   0  0  0  0  0  0  0  0  0  0  0  0
  -26.3103  -33.3062   13.4035 C   0  0  0  0  0  0  0  0  0  0  0  0
  -24.5458  -28.9056   17.8691 C   0  0  0  0  0  0  0  0  0  0  0  0
  -24.1105  -30.0196   20.5736 C   0  0  0  0  0  0  0  0  0  0  0  0
  -25.1434  -33.5436   14.3586 C   0  0  0  0  0  0  0  0  0  0  0  0
  -28.9726  -13.2248   17.9194 C   0  0  0  0  0  0  0  0  0  0  0  0
  -25.6510  -33.7354   15.7842 C   0  0  0  0  0  0  0  0  0  0  0  0
  -27.6848  -12.7412   18.5901 C   0  0  0  0  0  0  0  0  0  0  0  0
  -28.7059  -22.5529   22.4703 C   0  0  0  0  0  0  0  0  0  0  0  0
  -29.2049  -23.1955   24.8662 C   0  0  0  0  0  0  0  0  0  0  0  0
  -30.0285  -27.1120   23.1004 C   0  0  0  0  0  0  0  0  0  0  0  0
  -30.1912  -13.0201   18.8177 C   0  0  0  0  0  0  0  0  0  0  0  0
  -28.7827  -13.1045   20.8372 C   0  0  0  0  0  0  0  0  0  0  0  0
  -30.0166  -21.7766   22.4161 C   0  0  0  0  0  0  0  0  0  0  0  0
  -30.5116  -22.4140   24.7931 C   0  0  0  0  0  0  0  0  0  0  0  0
  -29.7280  -25.9275   23.9964 C   0  0  0  0  0  0  0  0  0  0  0  0
  -29.2070  -25.3579   21.6718 C   0  0  0  0  0  0  0  0  0  0  0  0
  -26.3834  -32.4836   16.2822 C   0  0  1  0  0  0  0  0  0  0  0  0
  -23.8810  -30.2622   18.0814 C   0  0  1  0  0  0  0  0  0  0  0  0
  -27.5191  -13.3495   19.9965 C   0  0  2  0  0  0  0  0  0  0  0  0
  -28.7158  -23.6792   23.5023 C   0  0  0  0  0  0  0  0  0  0  0  0
  -29.1419  -26.8611   21.8928 C   0  0  1  0  0  0  0  0  0  1  0  0
  -18.1096  -29.4632   23.1858 C   0  0  0  0  0  0  0  0  0  0  0  0
  -22.6823  -33.6938   20.9358 C   0  0  0  0  0  0  0  0  0  0  0  0
  -20.9591  -33.1131   22.6567 C   0  0  0  0  0  0  0  0  0  0  0  0
  -20.2880  -33.4081   20.2724 C   0  0  0  0  0  0  0  0  0  0  0  0
  -19.9694  -26.6633   21.4031 C   0  0  0  0  0  0  0  0  0  0  0  0
  -31.5868  -20.4045   23.7826 C   0  0  0  0  0  0  0  0  0  0  0  0
  -21.5955  -31.3519   20.9467 C   0  0  1  0  0  0  0  0  0  0  0  0
  -18.9953  -28.8515   22.1115 C   0  0  2  0  0  0  0  0  0  0  0  0
  -21.4030  -32.8742   21.1978 C   0  0  0  0  0  0  0  0  0  0  0  0
  -25.8500  -11.5868   20.4302 N   0  0  0  0  0  0  0  0  0  0  0  0
  -26.2685  -12.8378   20.6866 N   0  0  0  0  0  0  0  0  0  0  0  0
  -23.2876  -30.3986   19.4131 N   0  0  0  0  0  0  0  0  0  0  0  0
  -29.9636  -13.6262   20.1314 N   0  0  0  0  0  0  0  0  0  0  0  0
  -25.7571  -14.7808   21.9413 N   0  0  0  0  0  0  0  0  0  0  0  0
  -22.4592  -11.9109   23.0743 N   0  0  0  0  0  0  0  0  0  0  0  0
  -30.5157  -15.1419   21.8520 N   0  0  0  0  0  0  0  0  0  0  0  0
  -25.4335  -31.4602   16.6627 N   0  0  0  0  0  0  0  0  0  0  0  0
  -20.3928  -30.5542   21.1608 N   0  0  0  0  0  0  0  0  0  0  0  0
  -29.6014  -24.7790   23.0229 N   0  3  2  0  0  0  0  0  0  0  0  0
  -30.3677  -21.2853   23.8002 N   0  3  0  0  0  0  0  0  0  0  0  0
  -19.1407  -27.3957   22.3951 N   0  3  0  0  0  0  0  0  0  0  0  0
  -23.2807  -14.0265   23.4026 O   0  0  0  0  0  0  0  0  0  0  0  0
  -25.0143  -32.1923   18.8332 O   0  0  0  0  0  0  0  0  0  0  0  0
  -21.3424  -31.3848   18.5885 O   0  0  0  0  0  0  0  0  0  0  0  0
  -21.2956  -29.1631   22.7816 O   0  0  0  0  0  0  0  0  0  0  0  0
  -31.8222  -14.9876   19.9412 O   0  0  0  0  0  0  0  0  0  0  0  0
  -21.8311   -6.7061   21.1898 O   0  0  0  0  0  0  0  0  0  0  0  0
  -27.8043  -27.2531   22.1984 O   0  0  0  0  0  0  0  0  0  1  0  0
  -20.1931   -4.7163   26.0644 F   0  0  0  0  0  0  0  0  0  0  0  0
  -22.6409   -4.2051   22.0454 F   0  0  0  0  0  0  0  0  0  0  0  0
  1  2  1  0  0  0  0
  1  5  2  0  0  0  0
  2  6  2  0  0  0  0
  3 12  2  0  0  0  0
  3 19  1  0  0  0  0
  4 13  1  0  0  0  0
  4 19  2  0  0  0  0
  5 21  1  0  0  0  0
  6 23  1  0  0  0  0
  7 14  2  0  0  0  0
  7 22  1  0  0  0  0
  8 10  2  0  0  0  0
  8 25  1  0  0  0  0
  9 11  1  0  0  0  0
  9 25  2  0  0  0  0
 10 26  1  0  0  0  0
 11 26  2  0  0  0  0
 12 27  1  0  0  0  0
 13 27  2  0  0  0  0
 14 28  1  0  0  0  0
 15 16  2  0  0  0  0
 15 29  1  0  0  0  0
 16 30  1  0  0  0  0
 17 24  1  0  0  0  0
 17 28  2  0  0  0  0
 18 30  2  0  0  0  0
 18 31  1  0  0  0  0
 19 32  1  0  0  0  0
 20 32  1  0  0  0  0
 20 33  2  0  0  0  0
 20 34  1  0  0  0  0
 21 23  2  0  0  0  0
 21 39  1  0  0  0  0
 22 24  2  0  0  0  0
 22 40  1  0  0  0  0
 23 55  1  0  0  0  0
 24 41  1  0  0  0  0
 25 65  1  0  0  0  0
 26 75  1  0  0  0  0
 27 86  1  0  0  0  0
 28 87  1  0  0  0  0
 29 31  2  0  0  0  0
 29 86  1  0  0  0  0
 30 88  1  0  0  0  0
 31 89  1  0  0  0  0
 32 69  2  0  0  0  0
 33 70  1  0  0  0  0
 33 73  1  0  0  0  0
 34 74  1  0  0  0  0
 34 81  2  0  0  0  0
 35 56  1  0  0  0  0
 35 76  1  0  0  0  0
 35 82  2  0  0  0  0
 36 66  1  0  0  0  0
 36 71  1  0  0  0  0
 36 83  2  0  0  0  0
 37 67  1  0  0  0  0
 37 77  1  0  0  0  0
 37 84  2  0  0  0  0
 38 72  1  0  0  0  0
 38 75  1  0  0  0  0
 38 85  2  0  0  0  0
 39 42  1  0  0  0  0
 40 56  1  0  0  0  0
 41 71  1  0  0  0  0
 42 44  1  0  0  0  0
 43 45  1  0  0  0  0
 43 49  1  0  0  0  0
 44 55  1  0  0  0  0
 45 57  1  0  0  0  0
 46 51  1  0  0  0  0
 46 58  1  0  0  0  0
 47 52  1  0  0  0  0
 47 58  1  0  0  0  0
 48 53  1  0  0  0  0
 48 59  1  0  0  0  0
 49 72  1  0  0  0  0
 50 57  1  0  0  0  0
 50 72  1  0  0  0  0
 51 79  1  0  0  0  0
 52 79  1  0  0  0  0
 53 78  1  0  0  0  0
 54 59  1  0  0  0  0
 54 78  1  0  0  0  0
 55 76  1  0  0  0  0
 56 71  1  0  0  0  0
 57 70  1  0  0  0  0
 58 78  1  0  0  0  0
 59 87  1  0  0  0  0
 60 67  1  0  0  0  0
 61 68  1  0  0  0  0
 62 68  1  0  0  0  0
 63 68  1  0  0  0  0
 64 80  1  0  0  0  0
 65 79  1  0  0  0  0
 66 68  1  0  0  0  0
 66 77  1  0  0  0  0
 67 80  1  0  0  0  0
 69 70  1  0  0  0  0
M  CHG  3  78   1  79   1  80   1
M  ISO  4  38 100  59 101  75 100  87 101
M  END
> <Batch ID>
0131

> <Smiles>
CNC(C)C(=O)NC(C(=O)N1Cc2cc([101O:1][101CH:1]3CCN(C4CCN(Cc5ccc([100NH:0][100C:0](=O)N6CCCC(n7nc(-c8ccc(Oc9ccc(F)cc9F)cc8)c(C(N)=O)c7N)C6)cc5)CC4)C3)ccc2CC1C(=O)NC1CCCc2ccccc21)C(C)(C)C

> <Shape>
0.279

> <Color>
0.132

> <Negative vol penalty>
0.000

$$$$

  -OEChem-04052320503D

 85 93  0     1  0  0  0  0  0999 V2000
  -28.8397  -11.1527   19.8815 C   0  0  0  0  0  0  0  0  0  0  0  0
  -29.0353  -12.4835   19.5261 C   0  0  0  0  0  0  0  0  0  0  0  0
  -30.0815  -27.6983   19.9964 C   0  0  0  0  0  0  0  0  0  0  0  0
  -28.9040  -25.8151   20.9471 C   0  0  0  0  0  0  0  0  0  0  0  0
  -27.5710  -10.7115   20.2552 C   0  0  0  0  0  0  0  0  0  0  0  0
  -27.9621  -13.3736   19.5432 C   0  0  0  0  0  0  0  0  0  0  0  0
  -26.4390  -20.2589   20.8039 C   0  0  0  0  0  0  0  0  0  0  0  0
  -31.2921  -27.1642   20.4376 C   0  0  0  0  0  0  0  0  0  0  0  0
  -30.1147  -25.2809   21.3884 C   0  0  0  0  0  0  0  0  0  0  0  0
  -25.7999  -21.3467   20.2107 C   0  0  0  0  0  0  0  0  0  0  0  0
  -32.7072  -23.5638   20.0653 C   0  0  0  0  0  0  0  0  0  0  0  0
  -32.9266  -22.2019   19.8586 C   0  0  0  0  0  0  0  0  0  0  0  0
  -23.6693  -20.4901   20.9496 C   0  0  0  0  0  0  0  0  0  0  0  0
  -18.8705  -28.7206   23.1448 C   0  0  0  0  0  0  0  0  0  0  0  0
  -33.1487  -21.8759   22.2422 C   0  0  0  0  0  0  0  0  0  0  0  0
  -18.7568  -26.9389   21.7728 C   0  0  0  0  0  0  0  0  0  0  0  0
  -28.8874  -27.0238   20.2512 C   0  0  0  0  0  0  0  0  0  0  0  0
  -27.0058  -27.3448   18.5588 C   0  0  0  0  0  0  0  0  0  0  0  0
  -26.4836  -11.5988   20.2862 C   0  0  0  0  0  0  0  0  0  0  0  0
  -25.6959  -19.2712   21.4662 C   0  0  0  0  0  0  0  0  0  0  0  0
  -26.6774  -12.9435   19.9164 C   0  0  0  0  0  0  0  0  0  0  0  0
  -24.3016  -19.3921   21.5526 C   0  0  0  0  0  0  0  0  0  0  0  0
  -18.0644  -28.0545   22.1890 C   0  0  0  0  0  0  0  0  0  0  0  0
  -31.3087  -25.9555   21.1336 C   0  0  0  0  0  0  0  0  0  0  0  0
  -24.4146  -21.4610   20.2810 C   0  0  0  0  0  0  0  0  0  0  0  0
  -32.7086  -24.0818   21.3605 C   0  0  0  0  0  0  0  0  0  0  0  0
  -33.1474  -21.3579   20.9470 C   0  0  0  0  0  0  0  0  0  0  0  0
  -32.9294  -23.2378   22.4489 C   0  0  0  0  0  0  0  0  0  0  0  0
  -27.6365  -27.5753   19.7961 C   0  0  0  0  0  0  0  0  0  0  0  0
  -20.0311  -27.9918   23.2835 C   0  0  0  0  0  0  0  0  0  0  0  0
  -25.8547  -28.0920   18.6157 C   0  0  0  0  0  0  0  0  0  0  0  0
  -27.4230  -26.5281   17.4567 C   0  0  0  0  0  0  0  0  0  0  0  0
  -25.2414  -16.1523   21.0543 C   0  0  0  0  0  0  0  0  0  0  0  0
  -23.6254  -16.4136   23.8547 C   0  0  0  0  0  0  0  0  0  0  0  0
  -21.9055  -18.3998   26.0328 C   0  0  0  0  0  0  0  0  0  0  0  0
  -22.5179  -30.1008   23.1634 C   0  0  0  0  0  0  0  0  0  0  0  0
  -25.1212  -11.0650   20.6514 C   0  0  0  0  0  0  0  0  0  0  0  0
  -26.4027  -18.1178   22.1239 C   0  0  0  0  0  0  0  0  0  0  0  0
  -23.4598  -18.3694   22.2695 C   0  0  0  0  0  0  0  0  0  0  0  0
  -24.1138  -12.1563   21.0042 C   0  0  0  0  0  0  0  0  0  0  0  0
  -24.0550  -32.0504   20.6114 C   0  0  0  0  0  0  0  0  0  0  0  0
  -24.1616  -13.2802   19.9739 C   0  0  0  0  0  0  0  0  0  0  0  0
  -25.0903  -31.1038   20.0014 C   0  0  0  0  0  0  0  0  0  0  0  0
  -23.9272  -31.8505   22.1199 C   0  0  0  0  0  0  0  0  0  0  0  0
  -24.6936  -29.5159   21.9302 C   0  0  0  0  0  0  0  0  0  0  0  0
  -25.5432  -13.9450   19.9464 C   0  0  1  0  0  0  0  0  0  0  0  0
  -25.5020  -16.9037   22.3291 C   0  0  1  0  0  0  0  0  0  0  0  0
  -24.8177  -29.6415   20.4021 C   0  0  2  0  0  0  0  0  0  0  0  0
  -16.7422  -29.8504   21.0141 C   0  0  0  0  0  0  0  0  0  0  0  0
  -15.6744  -28.4997   22.8554 C   0  0  0  0  0  0  0  0  0  0  0  0
  -20.6723  -18.3216   28.2169 C   0  0  0  0  0  0  0  0  0  0  0  0
  -21.2540  -15.0882   22.4656 C   0  0  0  0  0  0  0  0  0  0  0  0
  -19.7985  -15.8888   24.3388 C   0  0  0  0  0  0  0  0  0  0  0  0
  -21.6662  -14.3019   24.8036 C   0  0  0  0  0  0  0  0  0  0  0  0
  -23.7708  -20.3245   27.2877 C   0  0  0  0  0  0  0  0  0  0  0  0
  -21.2067  -28.2361   24.1446 C   0  0  0  0  0  0  0  0  0  0  0  0
  -20.9697  -25.8798   22.2794 C   0  0  0  0  0  0  0  0  0  0  0  0
  -21.7780  -26.0185   20.9960 C   0  0  0  0  0  0  0  0  0  0  0  0
  -23.5470  -24.9127   19.6224 C   0  0  0  0  0  0  0  0  0  0  0  0
  -24.5160  -23.7469   19.6327 C   0  0  0  0  0  0  0  0  0  1  0  0
  -16.7292  -28.4766   21.7245 C   0  0  0  0  0  0  0  0  0  0  0  0
  -22.1962  -16.7090   24.2408 C   0  0  1  0  0  0  0  0  0  0  0  0
  -22.0098  -18.5708   27.5375 C   0  0  2  0  0  0  0  0  0  0  0  0
  -21.2441  -15.5154   23.9469 C   0  0  0  0  0  0  0  0  0  0  0  0
  -26.9437  -28.4043   20.5815 N   0  0  0  0  0  0  0  0  0  0  0  0
  -19.9510  -26.9111   22.4446 N   0  0  0  0  0  0  0  0  0  0  0  0
  -25.8657  -28.7013   19.8359 N   0  0  0  0  0  0  0  0  0  0  0  0
  -24.1968  -17.2567   22.8911 N   0  0  0  0  0  0  0  0  0  0  0  0
  -23.6676  -30.4431   22.4326 N   0  0  0  0  0  0  0  0  0  0  0  0
  -24.8445  -28.2809   17.7404 N   0  0  0  0  0  0  0  0  0  0  0  0
  -28.6320  -25.8274   17.5644 N   0  0  0  0  0  0  0  0  0  0  0  0
  -25.6929  -14.8463   21.0687 N   0  0  0  0  0  0  0  0  0  0  0  0
  -22.2276  -17.1176   25.6409 N   0  0  0  0  0  0  0  0  0  0  0  0
  -22.3442  -28.7446   23.4110 N   0  0  0  0  0  0  0  0  0  0  0  0
  -22.4565  -19.9527   27.8720 N   0  3  0  0  0  0  0  0  0  0  0  0
  -22.7502  -24.8986   20.8751 N   0  3  0  0  0  0  0  0  0  0  0  0
  -26.7518  -26.4357   16.4010 O   0  0  0  0  0  0  0  0  0  0  0  0
  -24.6716  -16.7152   20.1269 O   0  0  0  0  0  0  0  0  0  0  0  0
  -24.2155  -15.4740   24.3937 O   0  0  0  0  0  0  0  0  0  0  0  0
  -21.5680  -19.3113   25.2806 O   0  0  0  0  0  0  0  0  0  0  0  0
  -21.7037  -30.9409   23.5609 O   0  0  0  0  0  0  0  0  0  0  0  0
  -32.4899  -25.4339   21.5641 O   0  0  0  0  0  0  0  0  0  0  0  0
  -23.7882  -22.5214   19.7022 O   0  0  0  0  0  0  0  0  0  1  0  0
  -33.3565  -20.0499   20.7484 F   0  0  0  0  0  0  0  0  0  0  0  0
  -32.9307  -23.7294   23.6955 F   0  0  0  0  0  0  0  0  0  0  0  0
  1  2  1  0  0  0  0
  1  5  2  0  0  0  0
  2  6  2  0  0  0  0
  3  8  2  0  0  0  0
  3 17  1  0  0  0  0
  4  9  1  0  0  0  0
  4 17  2  0  0  0  0
  5 19  1  0  0  0  0
  6 21  1  0  0  0  0
  7 10  2  0  0  0  0
  7 20  1  0  0  0  0
  8 24  1  0  0  0  0
  9 24  2  0  0  0  0
 10 25  1  0  0  0  0
 11 12  2  0  0  0  0
 11 26  1  0  0  0  0
 12 27  1  0  0  0  0
 13 22  1  0  0  0  0
 13 25  2  0  0  0  0
 14 23  1  0  0  0  0
 14 30  2  0  0  0  0
 15 27  2  0  0  0  0
 15 28  1  0  0  0  0
 16 23  2  0  0  0  0
 16 66  1  0  0  0  0
 17 29  1  0  0  0  0
 18 29  1  0  0  0  0
 18 31  2  0  0  0  0
 18 32  1  0  0  0  0
 19 21  2  0  0  0  0
 19 37  1  0  0  0  0
 20 22  2  0  0  0  0
 20 38  1  0  0  0  0
 21 46  1  0  0  0  0
 22 39  1  0  0  0  0
 23 61  1  0  0  0  0
 24 82  1  0  0  0  0
 25 83  1  0  0  0  0
 26 28  2  0  0  0  0
 26 82  1  0  0  0  0
 27 84  1  0  0  0  0
 28 85  1  0  0  0  0
 29 65  2  0  0  0  0
 30 56  1  0  0  0  0
 30 66  1  0  0  0  0
 31 67  1  0  0  0  0
 31 70  1  0  0  0  0
 32 71  1  0  0  0  0
 32 77  2  0  0  0  0
 33 47  1  0  0  0  0
 33 72  1  0  0  0  0
 33 78  2  0  0  0  0
 34 62  1  0  0  0  0
 34 68  1  0  0  0  0
 34 79  2  0  0  0  0
 35 63  1  0  0  0  0
 35 73  1  0  0  0  0
 35 80  2  0  0  0  0
 36 69  1  0  0  0  0
 36 74  1  0  0  0  0
 36 81  2  0  0  0  0
 37 40  1  0  0  0  0
 38 47  1  0  0  0  0
 39 68  1  0  0  0  0
 40 42  1  0  0  0  0
 41 43  1  0  0  0  0
 41 44  1  0  0  0  0
 42 46  1  0  0  0  0
 43 48  1  0  0  0  0
 44 69  1  0  0  0  0
 45 48  1  0  0  0  0
 45 69  1  0  0  0  0
 46 72  1  0  0  0  0
 47 68  1  0  0  0  0
 48 67  1  0  0  0  0
 49 61  1  0  0  0  0
 50 61  1  0  0  0  0
 51 63  1  0  0  0  0
 52 64  1  0  0  0  0
 53 64  1  0  0  0  0
 54 64  1  0  0  0  0
 55 75  1  0  0  0  0
 56 74  1  0  0  0  0
 57 58  1  0  0  0  0
 57 66  1  0  0  0  0
 58 76  1  0  0  0  0
 59 60  1  0  0  0  0
 59 76  1  0  0  0  0
 60 83  1  0  0  0  0
 62 64  1  0  0  0  0
 62 73  1  0  0  0  0
 63 75  1  0  0  0  0
 65 67  1  0  0  0  0
M  CHG  2  75   1  76   1
M  ISO  4  36 100  60 101  74 100  83 101
M  END
> <Batch ID>
0131

> <Smiles>
CNC(C)C(=O)NC(C(=O)N1Cc2cc([101O:1][101CH2:1]CNCCn3cc(C(C)C)cc3C[100NH:0][100C:0](=O)N3CCCC(n4nc(-c5ccc(Oc6ccc(F)cc6F)cc5)c(C(N)=O)c4N)C3)ccc2CC1C(=O)NC1CCCc2ccccc21)C(C)(C)C

> <Shape>
0.210

> <Color>
0.067

> <Negative vol penalty>
0.000

$$$$

  -OEChem-04052320503D

 90 98  0     1  0  0  0  0  0999 V2000
  -32.0495  -30.4733   27.1909 C   0  0  0  0  0  0  0  0  0  0  0  0
  -31.3954  -29.3906   26.6117 C   0  0  0  0  0  0  0  0  0  0  0  0
  -30.1232  -20.8467   19.5164 C   0  0  0  0  0  0  0  0  0  0  0  0
  -31.7321  -19.6386   18.1789 C   0  0  0  0  0  0  0  0  0  0  0  0
  -31.3105  -31.5108   27.7578 C   0  0  0  0  0  0  0  0  0  0  0  0
  -30.0018  -29.3444   26.6000 C   0  0  0  0  0  0  0  0  0  0  0  0
  -28.1428  -27.9234   22.1089 C   0  0  0  0  0  0  0  0  0  0  0  0
  -30.1841  -21.9165   18.6235 C   0  0  0  0  0  0  0  0  0  0  0  0
  -31.7930  -20.7084   17.2859 C   0  0  0  0  0  0  0  0  0  0  0  0
  -28.1833  -26.5634   21.8045 C   0  0  0  0  0  0  0  0  0  0  0  0
  -32.2594  -24.5045   17.9755 C   0  0  0  0  0  0  0  0  0  0  0  0
  -32.3575  -25.7891   18.5101 C   0  0  0  0  0  0  0  0  0  0  0  0
  -25.8580  -26.3638   22.4147 C   0  0  0  0  0  0  0  0  0  0  0  0
  -30.2866  -26.3987   17.4253 C   0  0  0  0  0  0  0  0  0  0  0  0
  -30.8972  -19.7077   19.2942 C   0  0  0  0  0  0  0  0  0  0  0  0
  -31.1488  -18.6219   21.5888 C   0  0  0  0  0  0  0  0  0  0  0  0
  -29.9071  -31.4819   27.7444 C   0  0  0  0  0  0  0  0  0  0  0  0
  -26.9606  -28.5125   22.5797 C   0  0  0  0  0  0  0  0  0  0  0  0
  -29.2433  -30.3819   27.1684 C   0  0  0  0  0  0  0  0  0  0  0  0
  -25.8045  -27.7319   22.7220 C   0  0  0  0  0  0  0  0  0  0  0  0
  -31.0190  -21.8473   17.5082 C   0  0  0  0  0  0  0  0  0  0  0  0
  -27.0416  -25.7828   21.9601 C   0  0  0  0  0  0  0  0  0  0  0  0
  -31.1749  -24.1670   17.1658 C   0  0  0  0  0  0  0  0  0  0  0  0
  -31.3711  -26.7362   18.2350 C   0  0  0  0  0  0  0  0  0  0  0  0
  -30.1885  -25.1141   16.8907 C   0  0  0  0  0  0  0  0  0  0  0  0
  -30.8351  -18.6025   20.2165 C   0  0  0  0  0  0  0  0  0  0  0  0
  -30.9288  -17.3330   22.0095 C   0  0  0  0  0  0  0  0  0  0  0  0
  -31.5987  -19.7078   22.4098 C   0  0  0  0  0  0  0  0  0  0  0  0
  -26.1032  -29.9883   25.2612 C   0  0  0  0  0  0  0  0  0  0  0  0
  -23.3535  -30.5254   23.6262 C   0  0  0  0  0  0  0  0  0  0  0  0
  -21.2408  -29.5766   21.1196 C   0  0  0  0  0  0  0  0  0  0  0  0
  -27.3869  -13.0771   19.9607 C   0  0  0  0  0  0  0  0  0  0  0  0
  -29.1515  -32.6038   28.4115 C   0  0  0  0  0  0  0  0  0  0  0  0
  -26.9261  -29.9863   22.8782 C   0  0  0  0  0  0  0  0  0  0  0  0
  -24.5048  -28.3204   23.2046 C   0  0  0  0  0  0  0  0  0  0  0  0
  -27.6758  -32.6587   28.0249 C   0  0  0  0  0  0  0  0  0  0  0  0
  -30.9669  -12.8178   20.4225 C   0  0  0  0  0  0  0  0  0  0  0  0
  -27.0529  -31.2681   28.0971 C   0  0  0  0  0  0  0  0  0  0  0  0
  -31.3642  -14.2893   20.5530 C   0  0  0  0  0  0  0  0  0  0  0  0
  -29.8524  -12.6349   19.3966 C   0  0  0  0  0  0  0  0  0  0  0  0
  -21.8722  -10.1457   21.2600 C   0  0  0  0  0  0  0  0  0  0  0  0
  -29.0296  -14.9248   19.7876 C   0  0  0  0  0  0  0  0  0  0  0  0
  -21.9160   -8.7047   20.7744 C   0  0  0  0  0  0  0  0  0  0  0  0
  -24.3360   -8.6552   21.3022 C   0  0  0  0  0  0  0  0  0  0  0  0
  -27.7328  -30.3074   27.1141 C   0  0  1  0  0  0  0  0  0  0  0  0
  -25.8074  -30.3752   23.8398 C   0  0  1  0  0  0  0  0  0  0  0  0
  -30.1370  -15.1788   20.8265 C   0  0  2  0  0  0  0  0  0  0  0  0
  -24.2524  -10.1127   21.7790 C   0  0  1  0  0  0  0  0  0  0  0  0
  -19.0546  -30.1869   20.0493 C   0  0  0  0  0  0  0  0  0  0  0  0
  -21.8583  -29.2931   25.9832 C   0  0  0  0  0  0  0  0  0  0  0  0
  -19.8552  -29.0581   24.4997 C   0  0  0  0  0  0  0  0  0  0  0  0
  -20.7723  -31.3223   25.0047 C   0  0  0  0  0  0  0  0  0  0  0  0
  -22.5303  -30.0849   18.5047 C   0  0  0  0  0  0  0  0  0  0  0  0
  -25.6258  -10.7602   21.5541 C   0  0  0  0  0  0  0  0  0  0  0  0
  -24.0348  -17.6594   21.0265 C   0  0  0  0  0  0  0  0  0  0  0  0
  -22.8048  -16.7654   21.2091 C   0  0  0  0  0  0  0  0  0  0  0  0
  -23.8100  -19.1043   21.4775 C   0  0  0  0  0  0  0  0  0  0  0  0
  -23.0522  -15.3034   20.8273 C   0  0  0  0  0  0  0  0  0  0  0  0
  -25.0589  -19.9575   21.2437 C   0  0  0  0  0  0  0  0  0  0  0  0
  -21.7986  -14.4544   21.0552 C   0  0  0  0  0  0  0  0  0  0  0  0
  -24.8274  -21.4106   21.6630 C   0  0  0  0  0  0  0  0  0  0  0  0
  -21.9864  -12.9787   20.6829 C   0  0  0  0  0  0  0  0  0  0  0  0
  -26.0908  -22.2534   21.4654 C   0  0  0  0  0  0  0  0  0  0  0  0
  -23.0404  -12.2245   21.4963 C   0  0  0  0  0  0  0  0  0  0  0  0
  -25.8589  -11.1270   20.0984 C   0  0  0  0  0  0  0  0  0  0  0  0
  -25.8755  -23.7132   21.8457 C   0  0  0  0  0  0  0  0  0  1  0  0
  -22.0490  -29.7851   23.4558 C   0  0  1  0  0  0  0  0  0  0  0  0
  -20.5638  -30.3717   20.0178 C   0  0  2  0  0  0  0  0  0  0  0  0
  -21.1585  -29.8529   24.7286 C   0  0  0  0  0  0  0  0  0  0  0  0
  -30.4457  -17.3969   19.7936 N   0  0  0  0  0  0  0  0  0  0  0  0
  -30.5133  -16.6467   20.9065 N   0  0  0  0  0  0  0  0  0  0  0  0
  -24.5233  -29.7647   23.4895 N   0  0  0  0  0  0  0  0  0  0  0  0
  -28.7071  -13.4954   19.7249 N   0  0  0  0  0  0  0  0  0  0  0  0
  -23.1651  -10.8276   21.0710 N   0  0  2  0  0  0  0  0  0  0  0  0
  -31.0523  -16.7312   23.2115 N   0  0  0  0  0  0  0  0  0  0  0  0
  -32.9776  -19.9284   22.5291 N   0  0  0  0  0  0  0  0  0  0  0  0
  -27.2620  -30.5461   25.7666 N   0  0  0  0  0  0  0  0  0  0  0  0
  -21.4220  -30.3333   22.2580 N   0  0  0  0  0  0  0  0  0  0  0  0
  -27.1640  -11.7083   19.8754 N   0  0  0  0  0  0  0  0  0  0  0  0
  -23.0136   -7.9939   21.4845 N   0  3  0  0  0  0  0  0  0  0  0  0
  -21.0629  -29.9359   18.6830 N   0  3  0  0  0  0  0  0  0  0  0  0
  -30.8021  -20.4500   23.0326 O   0  0  0  0  0  0  0  0  0  0  0  0
  -25.3360  -29.2403   25.8559 O   0  0  0  0  0  0  0  0  0  0  0  0
  -23.3355  -31.7356   23.8644 O   0  0  0  0  0  0  0  0  0  0  0  0
  -21.5721  -28.4007   20.9853 O   0  0  0  0  0  0  0  0  0  0  0  0
  -26.4746  -13.8652   20.2326 O   0  0  0  0  0  0  0  0  0  0  0  0
  -31.0785  -22.8910   16.6365 O   0  0  0  0  0  0  0  0  0  0  0  0
  -27.0789  -24.4450   21.6621 O   0  0  0  0  0  0  0  0  0  1  0  0
  -31.4647  -27.9693   18.7496 F   0  0  0  0  0  0  0  0  0  0  0  0
  -29.1437  -24.7953   16.1144 F   0  0  0  0  0  0  0  0  0  0  0  0
  1  2  1  0  0  0  0
  1  5  2  0  0  0  0
  2  6  2  0  0  0  0
  3  8  2  0  0  0  0
  3 15  1  0  0  0  0
  4  9  1  0  0  0  0
  4 15  2  0  0  0  0
  5 17  1  0  0  0  0
  6 19  1  0  0  0  0
  7 10  2  0  0  0  0
  7 18  1  0  0  0  0
  8 21  1  0  0  0  0
  9 21  2  0  0  0  0
 10 22  1  0  0  0  0
 11 12  2  0  0  0  0
 11 23  1  0  0  0  0
 12 24  1  0  0  0  0
 13 20  1  0  0  0  0
 13 22  2  0  0  0  0
 14 24  2  0  0  0  0
 14 25  1  0  0  0  0
 15 26  1  0  0  0  0
 16 26  1  0  0  0  0
 16 27  2  0  0  0  0
 16 28  1  0  0  0  0
 17 19  2  0  0  0  0
 17 33  1  0  0  0  0
 18 20  2  0  0  0  0
 18 34  1  0  0  0  0
 19 45  1  0  0  0  0
 20 35  1  0  0  0  0
 21 87  1  0  0  0  0
 22 88  1  0  0  0  0
 23 25  2  0  0  0  0
 23 87  1  0  0  0  0
 24 89  1  0  0  0  0
 25 90  1  0  0  0  0
 26 70  2  0  0  0  0
 27 71  1  0  0  0  0
 27 75  1  0  0  0  0
 28 76  1  0  0  0  0
 28 82  2  0  0  0  0
 29 46  1  0  0  0  0
 29 77  1  0  0  0  0
 29 83  2  0  0  0  0
 30 67  1  0  0  0  0
 30 72  1  0  0  0  0
 30 84  2  0  0  0  0
 31 68  1  0  0  0  0
 31 78  1  0  0  0  0
 31 85  2  0  0  0  0
 32 73  1  0  0  0  0
 32 79  1  0  0  0  0
 32 86  2  0  0  0  0
 33 36  1  0  0  0  0
 34 46  1  0  0  0  0
 35 72  1  0  0  0  0
 36 38  1  0  0  0  0
 37 39  1  0  0  0  0
 37 40  1  0  0  0  0
 38 45  1  0  0  0  0
 39 47  1  0  0  0  0
 40 73  1  0  0  0  0
 41 43  1  0  0  0  0
 41 74  1  0  0  0  0
 42 47  1  0  0  0  0
 42 73  1  0  0  0  0
 43 80  1  0  0  0  0
 44 48  1  0  0  0  0
 44 80  1  0  0  0  0
 45 77  1  0  0  0  0
 46 72  1  0  0  0  0
 47 71  1  0  0  0  0
 48 54  1  0  0  0  0
 48 74  1  0  0  0  0
 49 68  1  0  0  0  0
 50 69  1  0  0  0  0
 51 69  1  0  0  0  0
 52 69  1  0  0  0  0
 53 81  1  0  0  0  0
 54 65  1  0  0  0  0
 55 56  1  0  0  0  0
 55 57  1  0  0  0  0
 56 58  1  0  0  0  0
 57 59  1  0  0  0  0
 58 60  1  0  0  0  0
 59 61  1  0  0  0  0
 60 62  1  0  0  0  0
 61 63  1  0  0  0  0
 62 64  1  0  0  0  0
 63 66  1  0  0  0  0
 64 74  1  0  0  0  0
 65 79  1  0  0  0  0
 66 88  1  0  0  0  0
 67 69  1  0  0  0  0
 67 78  1  0  0  0  0
 68 81  1  0  0  0  0
 70 71  1  0  0  0  0
M  CHG  2  80   1  81   1
M  ISO  4  32 100  66 101  79 100  88 101
M  END
> <Batch ID>
0131

> <Smiles>
CNC(C)C(=O)NC(C(=O)N1Cc2cc([101O:1][101CH2:1]CCCCCCCCCCN3CCNCC3CC[100NH:0][100C:0](=O)N3CCCC(n4nc(-c5ccc(Oc6ccc(F)cc6F)cc5)c(C(N)=O)c4N)C3)ccc2CC1C(=O)NC1CCCc2ccccc21)C(C)(C)C

> <Shape>
0.247

> <Color>
0.059

> <Negative vol penalty>
0.000

$$$$

  -OEChem-04052320503D

 84 92  0     1  0  0  0  0  0999 V2000
  -33.4198  -23.9457   35.7453 C   0  0  0  0  0  0  0  0  0  0  0  0
  -32.9540  -23.3093   34.5993 C   0  0  0  0  0  0  0  0  0  0  0  0
  -23.1907   -9.8191   19.9319 C   0  0  0  0  0  0  0  0  0  0  0  0
  -23.5689   -9.9994   22.3113 C   0  0  0  0  0  0  0  0  0  0  0  0
  -34.1955  -25.0989   35.6344 C   0  0  0  0  0  0  0  0  0  0  0  0
  -33.2627  -23.8264   33.3416 C   0  0  0  0  0  0  0  0  0  0  0  0
  -34.7111  -20.2428   30.0698 C   0  0  0  0  0  0  0  0  0  0  0  0
  -22.4246   -8.6723   20.1405 C   0  0  0  0  0  0  0  0  0  0  0  0
  -22.8027   -8.8526   22.5199 C   0  0  0  0  0  0  0  0  0  0  0  0
  -33.7087  -19.4627   29.4949 C   0  0  0  0  0  0  0  0  0  0  0  0
  -23.2042   -5.5060   22.2557 C   0  0  0  0  0  0  0  0  0  0  0  0
  -23.7027   -4.5447   23.1349 C   0  0  0  0  0  0  0  0  0  0  0  0
  -33.8149  -20.8096   27.4965 C   0  0  0  0  0  0  0  0  0  0  0  0
  -31.0433  -17.0973   25.5232 C   0  0  0  0  0  0  0  0  0  0  0  0
  -21.7461   -4.8044   24.5282 C   0  0  0  0  0  0  0  0  0  0  0  0
  -29.4495  -18.8309   25.8567 C   0  0  0  0  0  0  0  0  0  0  0  0
  -23.7630  -10.4826   21.0173 C   0  0  0  0  0  0  0  0  0  0  0  0
  -24.1014  -12.9993   20.7736 C   0  0  0  0  0  0  0  0  0  0  0  0
  -34.5220  -25.6250   34.3745 C   0  0  0  0  0  0  0  0  0  0  0  0
  -35.2662  -21.3208   29.3652 C   0  0  0  0  0  0  0  0  0  0  0  0
  -34.0424  -24.9885   33.2138 C   0  0  0  0  0  0  0  0  0  0  0  0
  -34.8260  -21.6003   28.0636 C   0  0  0  0  0  0  0  0  0  0  0  0
  -30.7686  -18.4086   25.8954 C   0  0  0  0  0  0  0  0  0  0  0  0
  -30.0052  -16.2604   25.1293 C   0  0  0  0  0  0  0  0  0  0  0  0
  -22.2306   -8.1891   21.4345 C   0  0  0  0  0  0  0  0  0  0  0  0
  -33.2584  -19.7478   28.2092 C   0  0  0  0  0  0  0  0  0  0  0  0
  -21.9767   -6.1166   22.5128 C   0  0  0  0  0  0  0  0  0  0  0  0
  -22.9736   -4.1938   24.2711 C   0  0  0  0  0  0  0  0  0  0  0  0
  -21.2476   -5.7657   23.6490 C   0  0  0  0  0  0  0  0  0  0  0  0
  -24.5550  -11.6669   20.8023 C   0  0  0  0  0  0  0  0  0  0  0  0
  -28.7203  -16.7788   25.1250 C   0  0  0  0  0  0  0  0  0  0  0  0
  -25.2325  -13.7421   20.5384 C   0  0  0  0  0  0  0  0  0  0  0  0
  -22.7761  -13.5190   20.9445 C   0  0  0  0  0  0  0  0  0  0  0  0
  -35.4101  -24.4631   29.8217 C   0  0  0  0  0  0  0  0  0  0  0  0
  -37.3303  -24.3620   27.2092 C   0  0  0  0  0  0  0  0  0  0  0  0
  -38.2718  -22.7237   24.3673 C   0  0  0  0  0  0  0  0  0  0  0  0
  -31.0474  -12.7527   21.5677 C   0  0  0  0  0  0  0  0  0  0  0  0
  -35.3238  -26.9005   34.3061 C   0  0  0  0  0  0  0  0  0  0  0  0
  -36.3655  -22.1361   29.9891 C   0  0  0  0  0  0  0  0  0  0  0  0
  -35.4036  -22.7338   27.2574 C   0  0  0  0  0  0  0  0  0  0  0  0
  -35.9199  -27.1720   32.9272 C   0  0  0  0  0  0  0  0  0  0  0  0
  -29.5200  -13.4701   18.4326 C   0  0  0  0  0  0  0  0  0  0  0  0
  -34.8713  -26.9564   31.8405 C   0  0  0  0  0  0  0  0  0  0  0  0
  -28.0334  -13.2096   18.6818 C   0  0  0  0  0  0  0  0  0  0  0  0
  -30.4014  -12.4808   19.1918 C   0  0  0  0  0  0  0  0  0  0  0  0
  -28.6479  -12.1377   20.8892 C   0  0  0  0  0  0  0  0  0  0  0  0
  -34.3769  -25.5049   31.8312 C   0  0  1  0  0  0  0  0  0  0  0  0
  -36.4984  -23.5273   29.3773 C   0  0  1  0  0  0  0  0  0  0  0  0
  -27.7203  -13.1454   20.1889 C   0  0  2  0  0  0  0  0  0  0  0  0
  -26.8526  -16.4738   23.4600 C   0  0  0  0  0  0  0  0  0  0  0  0
  -26.5451  -15.7308   25.8493 C   0  0  0  0  0  0  0  0  0  0  0  0
  -39.8404  -22.9049   22.4170 C   0  0  0  0  0  0  0  0  0  0  0  0
  -35.5173  -26.4685   25.9500 C   0  0  0  0  0  0  0  0  0  0  0  0
  -36.5330  -25.9148   23.7296 C   0  0  0  0  0  0  0  0  0  0  0  0
  -37.9613  -26.8276   25.5598 C   0  0  0  0  0  0  0  0  0  0  0  0
  -39.6534  -20.2100   25.0962 C   0  0  0  0  0  0  0  0  0  0  0  0
  -31.8662  -19.3368   26.3255 C   0  0  0  0  0  0  0  0  0  1  0  0
  -31.5701  -14.4816   24.3466 C   0  0  0  0  0  0  0  0  0  0  0  0
  -31.5374  -13.0038   23.9876 C   0  0  0  0  0  0  0  0  0  0  0  0
  -27.5633  -15.9283   24.7118 C   0  0  0  0  0  0  0  0  0  0  0  0
  -37.1122  -24.4515   25.7181 C   0  0  1  0  0  0  0  0  0  0  0  0
  -39.6405  -22.3581   23.8219 C   0  0  2  0  0  0  0  0  0  0  0  0
  -36.7685  -25.8954   25.2550 C   0  0  0  0  0  0  0  0  0  0  0  0
  -28.4146  -18.0471   25.4797 N   0  0  0  0  0  0  0  0  0  0  0  0
  -25.8716  -11.5660   20.6012 N   0  0  0  0  0  0  0  0  0  0  0  0
  -26.2550  -12.8444   20.4438 N   0  0  0  0  0  0  0  0  0  0  0  0
  -36.4718  -23.5059   27.9134 N   0  0  0  0  0  0  0  0  0  0  0  0
  -30.0548  -12.4695   20.6150 N   0  0  0  0  0  0  0  0  0  0  0  0
  -25.4423  -15.0690   20.4053 N   0  0  0  0  0  0  0  0  0  0  0  0
  -21.7295  -12.6166   21.1784 N   0  0  0  0  0  0  0  0  0  0  0  0
  -30.2722  -14.9321   24.7518 N   0  0  0  0  0  0  0  0  0  0  0  0
  -35.3479  -24.6443   31.1902 N   0  0  0  0  0  0  0  0  0  0  0  0
  -38.3083  -23.8934   25.0965 N   0  0  0  0  0  0  0  0  0  0  0  0
  -30.6331  -12.7272   22.8938 N   0  0  0  0  0  0  0  0  0  0  0  0
  -39.8017  -20.8773   23.7773 N   0  3  0  0  0  0  0  0  0  0  0  0
  -22.5248  -14.7460   20.8749 O   0  0  0  0  0  0  0  0  0  0  0  0
  -34.6818  -24.9836   28.9849 O   0  0  0  0  0  0  0  0  0  0  0  0
  -38.2337  -25.0217   27.7290 O   0  0  0  0  0  0  0  0  0  0  0  0
  -37.2697  -22.0418   24.1636 O   0  0  0  0  0  0  0  0  0  0  0  0
  -32.2149  -13.0145   21.2591 O   0  0  0  0  0  0  0  0  0  0  0  0
  -21.4828   -7.0702   21.6385 O   0  0  0  0  0  0  0  0  0  0  0  0
  -32.2797  -18.9884   27.6461 O   0  0  0  0  0  0  0  0  0  1  0  0
  -23.4517   -3.2695   25.1145 F   0  0  0  0  0  0  0  0  0  0  0  0
  -20.0672   -6.3480   23.9006 F   0  0  0  0  0  0  0  0  0  0  0  0
  1  2  1  0  0  0  0
  1  5  2  0  0  0  0
  2  6  2  0  0  0  0
  3  8  2  0  0  0  0
  3 17  1  0  0  0  0
  4  9  1  0  0  0  0
  4 17  2  0  0  0  0
  5 19  1  0  0  0  0
  6 21  1  0  0  0  0
  7 10  2  0  0  0  0
  7 20  1  0  0  0  0
  8 25  1  0  0  0  0
  9 25  2  0  0  0  0
 10 26  1  0  0  0  0
 11 12  2  0  0  0  0
 11 27  1  0  0  0  0
 12 28  1  0  0  0  0
 13 22  1  0  0  0  0
 13 26  2  0  0  0  0
 14 23  2  0  0  0  0
 14 24  1  0  0  0  0
 15 28  2  0  0  0  0
 15 29  1  0  0  0  0
 16 23  1  0  0  0  0
 16 64  2  0  0  0  0
 17 30  1  0  0  0  0
 18 30  1  0  0  0  0
 18 32  2  0  0  0  0
 18 33  1  0  0  0  0
 19 21  2  0  0  0  0
 19 38  1  0  0  0  0
 20 22  2  0  0  0  0
 20 39  1  0  0  0  0
 21 47  1  0  0  0  0
 22 40  1  0  0  0  0
 23 57  1  0  0  0  0
 24 31  2  0  0  0  0
 24 71  1  0  0  0  0
 25 81  1  0  0  0  0
 26 82  1  0  0  0  0
 27 29  2  0  0  0  0
 27 81  1  0  0  0  0
 28 83  1  0  0  0  0
 29 84  1  0  0  0  0
 30 65  2  0  0  0  0
 31 60  1  0  0  0  0
 31 64  1  0  0  0  0
 32 66  1  0  0  0  0
 32 69  1  0  0  0  0
 33 70  1  0  0  0  0
 33 76  2  0  0  0  0
 34 48  1  0  0  0  0
 34 72  1  0  0  0  0
 34 77  2  0  0  0  0
 35 61  1  0  0  0  0
 35 67  1  0  0  0  0
 35 78  2  0  0  0  0
 36 62  1  0  0  0  0
 36 73  1  0  0  0  0
 36 79  2  0  0  0  0
 37 68  1  0  0  0  0
 37 74  1  0  0  0  0
 37 80  2  0  0  0  0
 38 41  1  0  0  0  0
 39 48  1  0  0  0  0
 40 67  1  0  0  0  0
 41 43  1  0  0  0  0
 42 44  1  0  0  0  0
 42 45  1  0  0  0  0
 43 47  1  0  0  0  0
 44 49  1  0  0  0  0
 45 68  1  0  0  0  0
 46 49  1  0  0  0  0
 46 68  1  0  0  0  0
 47 72  1  0  0  0  0
 48 67  1  0  0  0  0
 49 66  1  0  0  0  0
 50 60  1  0  0  0  0
 51 60  1  0  0  0  0
 52 62  1  0  0  0  0
 53 63  1  0  0  0  0
 54 63  1  0  0  0  0
 55 63  1  0  0  0  0
 56 75  1  0  0  0  0
 57 82  1  0  0  0  0
 58 59  1  0  0  0  0
 58 71  1  0  0  0  0
 59 74  1  0  0  0  0
 61 63  1  0  0  0  0
 61 73  1  0  0  0  0
 62 75  1  0  0  0  0
 65 66  1  0  0  0  0
M  CHG  1  75   1
M  ISO  4  37 100  57 101  74 100  82 101
M  END
> <Batch ID>
0131

> <Smiles>
CNC(C)C(=O)NC(C(=O)N1Cc2cc([101O:1][101CH2:1]c3cnc(C(C)C)c(NCC[100NH:0][100C:0](=O)N4CCCC(n5nc(-c6ccc(Oc7ccc(F)cc7F)cc6)c(C(N)=O)c5N)C4)c3)ccc2CC1C(=O)NC1CCCc2ccccc21)C(C)(C)C

> <Shape>
0.141

> <Color>
0.178

> <Negative vol penalty>
0.000

$$$$

  -OEChem-04052320503D

 87 96  0     1  0  0  0  0  0999 V2000
  -29.9156  -33.4199   26.0211 C   0  0  0  0  0  0  0  0  0  0  0  0
  -29.1091  -32.2937   26.1501 C   0  0  0  0  0  0  0  0  0  0  0  0
  -23.6377  -12.8927   24.8549 C   0  0  0  0  0  0  0  0  0  0  0  0
  -25.0158  -11.0641   24.0841 C   0  0  0  0  0  0  0  0  0  0  0  0
  -29.4162  -34.5666   25.4050 C   0  0  0  0  0  0  0  0  0  0  0  0
  -27.8022  -32.3140   25.6642 C   0  0  0  0  0  0  0  0  0  0  0  0
  -26.6185  -28.1121   23.0975 C   0  0  0  0  0  0  0  0  0  0  0  0
  -26.0129  -22.4675   24.4723 C   0  0  0  0  0  0  0  0  0  0  0  0
  -23.1448  -12.0882   25.8823 C   0  0  0  0  0  0  0  0  0  0  0  0
  -24.5229  -10.2596   25.1114 C   0  0  0  0  0  0  0  0  0  0  0  0
  -26.3156  -26.9741   23.8439 C   0  0  0  0  0  0  0  0  0  0  0  0
  -21.7255   -8.4721   25.7521 C   0  0  0  0  0  0  0  0  0  0  0  0
  -21.3454   -7.1694   25.4295 C   0  0  0  0  0  0  0  0  0  0  0  0
  -27.0471  -21.9322   23.7126 C   0  0  0  0  0  0  0  0  0  0  0  0
  -23.9626  -27.3930   23.5163 C   0  0  0  0  0  0  0  0  0  0  0  0
  -22.9767   -6.3073   26.9893 C   0  0  0  0  0  0  0  0  0  0  0  0
  -24.5732  -12.3806   23.9558 C   0  0  0  0  0  0  0  0  0  0  0  0
  -24.3420  -13.8267   21.8670 C   0  0  0  0  0  0  0  0  0  0  0  0
  -28.1057  -34.5977   24.9026 C   0  0  0  0  0  0  0  0  0  0  0  0
  -25.5938  -28.9064   22.5632 C   0  0  0  0  0  0  0  0  0  0  0  0
  -27.2844  -33.4627   25.0420 C   0  0  0  0  0  0  0  0  0  0  0  0
  -24.2552  -28.5391   22.7614 C   0  0  0  0  0  0  0  0  0  0  0  0
  -24.7878  -22.7410   23.8742 C   0  0  0  0  0  0  0  0  0  0  0  0
  -23.5874  -10.7716   26.0105 C   0  0  0  0  0  0  0  0  0  0  0  0
  -24.9875  -26.6160   24.0558 C   0  0  0  0  0  0  0  0  0  0  0  0
  -22.7312   -8.6924   26.6932 C   0  0  0  0  0  0  0  0  0  0  0  0
  -21.9710   -6.0870   26.0481 C   0  0  0  0  0  0  0  0  0  0  0  0
  -23.3567   -7.6100   27.3118 C   0  0  0  0  0  0  0  0  0  0  0  0
  -25.0823  -13.2110   22.8940 C   0  0  0  0  0  0  0  0  0  0  0  0
  -24.6491  -22.4633   22.5238 C   0  0  0  0  0  0  0  0  0  0  0  0
  -26.8071  -21.6905   22.3695 C   0  0  0  0  0  0  0  0  0  0  0  0
  -25.2807  -14.4979   21.1221 C   0  0  0  0  0  0  0  0  0  0  0  0
  -22.9320  -13.7947   21.6093 C   0  0  0  0  0  0  0  0  0  0  0  0
  -24.6591  -31.9199   22.9491 C   0  0  0  0  0  0  0  0  0  0  0  0
  -22.6161  -31.1852   20.5389 C   0  0  0  0  0  0  0  0  0  0  0  0
  -20.5310  -28.3897   19.6143 C   0  0  0  0  0  0  0  0  0  0  0  0
  -29.7817  -17.7794   20.7773 C   0  0  0  0  0  0  0  0  0  0  0  0
  -27.5945  -35.8760   24.2868 C   0  0  0  0  0  0  0  0  0  0  0  0
  -25.9376  -30.1160   21.7378 C   0  0  0  0  0  0  0  0  0  0  0  0
  -23.1186  -29.3469   22.1922 C   0  0  0  0  0  0  0  0  0  0  0  0
  -26.3224  -35.6895   23.4639 C   0  0  0  0  0  0  0  0  0  0  0  0
  -30.3336  -14.2917   21.2335 C   0  0  0  0  0  0  0  0  0  0  0  0
  -25.3125  -34.8389   24.2276 C   0  0  0  0  0  0  0  0  0  0  0  0
  -28.9575  -13.7520   21.6273 C   0  0  0  0  0  0  0  0  0  0  0  0
  -27.8605  -22.1451   19.3960 C   0  0  0  0  0  0  0  0  0  0  0  0
  -30.5841  -15.6798   21.8187 C   0  0  0  0  0  0  0  0  0  0  0  0
  -28.1641  -16.1372   21.9102 C   0  0  0  0  0  0  0  0  0  0  0  0
  -27.8225  -21.8799   17.8981 C   0  0  0  0  0  0  0  0  0  0  0  0
  -28.7718  -19.5874   18.2605 C   0  0  0  0  0  0  0  0  0  0  0  0
  -25.8696  -33.4375   24.5054 C   0  0  1  0  0  0  0  0  0  0  0  0
  -24.8063  -31.1375   21.6748 C   0  0  1  0  0  0  0  0  0  0  0  0
  -27.8432  -14.7633   21.2973 C   0  0  2  0  0  0  0  0  0  0  0  0
  -27.7487  -20.8441   20.1970 C   0  0  1  0  0  0  0  0  0  0  0  0
  -28.8251  -19.8335   19.7663 C   0  0  1  0  0  0  0  0  0  0  0  0
  -23.3559  -22.7372   21.8282 C   0  0  0  0  0  0  0  0  0  0  0  0
  -19.7197  -27.6338   17.3631 C   0  0  0  0  0  0  0  0  0  0  0  0
  -20.1427  -32.8474   21.1940 C   0  0  0  0  0  0  0  0  0  0  0  0
  -18.7489  -31.0745   20.1066 C   0  0  0  0  0  0  0  0  0  0  0  0
  -20.4375  -32.3283   18.7654 C   0  0  0  0  0  0  0  0  0  0  0  0
  -21.6503  -25.6763   19.9932 C   0  0  0  0  0  0  0  0  0  0  0  0
  -23.6616  -23.3225   24.6938 C   0  0  0  0  0  0  0  0  0  0  0  0
  -23.4831  -24.8179   24.4553 C   0  0  0  0  0  0  0  0  0  1  0  0
  -21.2190  -30.6194   20.4568 C   0  0  1  0  0  0  0  0  0  0  0  0
  -20.7555  -27.4318   18.4582 C   0  0  2  0  0  0  0  0  0  0  0  0
  -20.1544  -31.7109   20.1522 C   0  0  0  0  0  0  0  0  0  0  0  0
  -26.3904  -13.4681   22.8121 N   0  0  0  0  0  0  0  0  0  0  0  0
  -25.6306  -21.9433   21.7533 N   0  0  0  0  0  0  0  0  0  0  0  0
  -26.4795  -14.2527   21.7246 N   0  0  0  0  0  0  0  0  0  0  0  0
  -23.5058  -30.5242   21.3976 N   0  0  0  0  0  0  0  0  0  0  0  0
  -29.4920  -16.5910   21.4679 N   0  0  0  0  0  0  0  0  0  0  0  0
  -25.1895  -15.2679   20.0171 N   0  0  0  0  0  0  0  0  0  0  0  0
  -22.1114  -13.0570   22.4735 N   0  0  0  0  0  0  0  0  0  0  0  0
  -27.8708  -21.1445   21.6089 N   0  0  0  0  0  0  0  0  0  0  0  0
  -25.7939  -32.6183   23.3148 N   0  0  0  0  0  0  0  0  0  0  0  0
  -21.2712  -29.5444   19.4719 N   0  0  0  0  0  0  0  0  0  0  0  0
  -28.6883  -18.5831   20.4783 N   0  0  0  0  0  0  0  0  0  0  0  0
  -28.8870  -20.8949   17.5450 N   0  3  0  0  0  0  0  0  0  0  0  0
  -20.6709  -26.0209   18.9306 N   0  3  0  0  0  0  0  0  0  0  0  0
  -22.4170  -14.3890   20.6319 O   0  0  0  0  0  0  0  0  0  0  0  0
  -23.5942  -31.8932   23.5548 O   0  0  0  0  0  0  0  0  0  0  0  0
  -22.9094  -32.1729   19.8606 O   0  0  0  0  0  0  0  0  0  0  0  0
  -19.7720  -28.1404   20.5482 O   0  0  0  0  0  0  0  0  0  0  0  0
  -30.9289  -18.0978   20.4467 O   0  0  0  0  0  0  0  0  0  0  0  0
  -23.1068   -9.9864   27.0130 O   0  0  0  0  0  0  0  0  0  0  0  0
  -24.6891  -25.5061   24.7845 O   0  0  0  0  0  0  0  0  0  1  0  0
  -21.6049   -4.8361   25.7393 F   0  0  0  0  0  0  0  0  0  0  0  0
  -24.3227   -7.8154   28.2177 F   0  0  0  0  0  0  0  0  0  0  0  0
  1  2  1  0  0  0  0
  1  5  2  0  0  0  0
  2  6  2  0  0  0  0
  3  9  2  0  0  0  0
  3 17  1  0  0  0  0
  4 10  1  0  0  0  0
  4 17  2  0  0  0  0
  5 19  1  0  0  0  0
  6 21  1  0  0  0  0
  7 11  2  0  0  0  0
  7 20  1  0  0  0  0
  8 14  2  0  0  0  0
  8 23  1  0  0  0  0
  9 24  1  0  0  0  0
 10 24  2  0  0  0  0
 11 25  1  0  0  0  0
 12 13  2  0  0  0  0
 12 26  1  0  0  0  0
 13 27  1  0  0  0  0
 14 31  1  0  0  0  0
 15 22  1  0  0  0  0
 15 25  2  0  0  0  0
 16 27  2  0  0  0  0
 16 28  1  0  0  0  0
 17 29  1  0  0  0  0
 18 29  1  0  0  0  0
 18 32  2  0  0  0  0
 18 33  1  0  0  0  0
 19 21  2  0  0  0  0
 19 38  1  0  0  0  0
 20 22  2  0  0  0  0
 20 39  1  0  0  0  0
 21 50  1  0  0  0  0
 22 40  1  0  0  0  0
 23 30  2  0  0  0  0
 23 61  1  0  0  0  0
 24 84  1  0  0  0  0
 25 85  1  0  0  0  0
 26 28  2  0  0  0  0
 26 84  1  0  0  0  0
 27 86  1  0  0  0  0
 28 87  1  0  0  0  0
 29 66  2  0  0  0  0
 30 55  1  0  0  0  0
 30 67  1  0  0  0  0
 31 67  2  0  0  0  0
 31 73  1  0  0  0  0
 32 68  1  0  0  0  0
 32 71  1  0  0  0  0
 33 72  1  0  0  0  0
 33 79  2  0  0  0  0
 34 51  1  0  0  0  0
 34 74  1  0  0  0  0
 34 80  2  0  0  0  0
 35 63  1  0  0  0  0
 35 69  1  0  0  0  0
 35 81  2  0  0  0  0
 36 64  1  0  0  0  0
 36 75  1  0  0  0  0
 36 82  2  0  0  0  0
 37 70  1  0  0  0  0
 37 76  1  0  0  0  0
 37 83  2  0  0  0  0
 38 41  1  0  0  0  0
 39 51  1  0  0  0  0
 40 69  1  0  0  0  0
 41 43  1  0  0  0  0
 42 44  1  0  0  0  0
 42 46  1  0  0  0  0
 43 50  1  0  0  0  0
 44 52  1  0  0  0  0
 45 48  1  0  0  0  0
 45 53  1  0  0  0  0
 46 70  1  0  0  0  0
 47 52  1  0  0  0  0
 47 70  1  0  0  0  0
 48 77  1  0  0  0  0
 49 54  1  0  0  0  0
 49 77  1  0  0  0  0
 50 74  1  0  0  0  0
 51 69  1  0  0  0  0
 52 68  1  0  0  0  0
 53 54  1  0  0  0  0
 53 73  1  0  0  0  0
 54 76  1  0  0  0  0
 56 64  1  0  0  0  0
 57 65  1  0  0  0  0
 58 65  1  0  0  0  0
 59 65  1  0  0  0  0
 60 78  1  0  0  0  0
 61 62  1  0  0  0  0
 62 85  1  0  0  0  0
 63 65  1  0  0  0  0
 63 75  1  0  0  0  0
 64 78  1  0  0  0  0
 66 68  1  0  0  0  0
M  CHG  2  77   1  78   1
M  ISO  4  37 100  62 101  76 100  85 101
M  END
> <Batch ID>
0131

> <Smiles>
CNC(C)C(=O)NC(C(=O)N1Cc2cc([101O:1][101CH2:1]Cc3ccc(NC4CCNCC4[100NH:0][100C:0](=O)N4CCCC(n5nc(-c6ccc(Oc7ccc(F)cc7F)cc6)c(C(N)=O)c5N)C4)nc3C)ccc2CC1C(=O)NC1CCCc2ccccc21)C(C)(C)C

> <Shape>
0.216

> <Color>
0.095

> <Negative vol penalty>
0.000

$$$$

  -OEChem-04052320503D

 85 93  0     1  0  0  0  0  0999 V2000
  -19.7202  -14.0829   20.1931 C   0  0  0  0  0  0  0  0  0  0  0  0
  -20.2814  -15.2424   19.6676 C   0  0  0  0  0  0  0  0  0  0  0  0
  -20.5210  -27.1994   22.4545 C   0  0  0  0  0  0  0  0  0  0  0  0
  -22.0287  -25.5262   23.3287 C   0  0  0  0  0  0  0  0  0  0  0  0
  -20.3875  -13.3786   21.1944 C   0  0  0  0  0  0  0  0  0  0  0  0
  -21.5099  -15.6988   20.1440 C   0  0  0  0  0  0  0  0  0  0  0  0
  -27.4216  -19.1115   17.9711 C   0  0  0  0  0  0  0  0  0  0  0  0
  -19.7875  -26.2024   21.8113 C   0  0  0  0  0  0  0  0  0  0  0  0
  -21.2952  -24.5292   22.6855 C   0  0  0  0  0  0  0  0  0  0  0  0
  -28.2235  -20.2000   18.3114 C   0  0  0  0  0  0  0  0  0  0  0  0
  -20.0315  -21.5788   20.9803 C   0  0  0  0  0  0  0  0  0  0  0  0
  -20.7404  -20.5946   20.2914 C   0  0  0  0  0  0  0  0  0  0  0  0
  -29.3230  -18.8583   19.9877 C   0  0  0  0  0  0  0  0  0  0  0  0
  -21.7121  -22.2895   18.8701 C   0  0  0  0  0  0  0  0  0  0  0  0
  -21.6416  -26.8613   23.2132 C   0  0  0  0  0  0  0  0  0  0  0  0
  -22.1990  -28.3891   25.1785 C   0  0  0  0  0  0  0  0  0  0  0  0
  -21.6293  -13.8214   21.6765 C   0  0  0  0  0  0  0  0  0  0  0  0
  -27.5572  -17.8893   18.6451 C   0  0  0  0  0  0  0  0  0  0  0  0
  -22.1938  -15.0006   21.1537 C   0  0  0  0  0  0  0  0  0  0  0  0
  -28.5235  -17.7550   19.6523 C   0  0  0  0  0  0  0  0  0  0  0  0
  -20.1746  -24.8674   21.9268 C   0  0  0  0  0  0  0  0  0  0  0  0
  -29.1724  -20.0744   19.3218 C   0  0  0  0  0  0  0  0  0  0  0  0
  -20.1629  -22.9183   20.6140 C   0  0  0  0  0  0  0  0  0  0  0  0
  -21.5807  -20.9500   19.2363 C   0  0  0  0  0  0  0  0  0  0  0  0
  -21.0032  -23.2737   19.5589 C   0  0  0  0  0  0  0  0  0  0  0  0
  -22.4000  -27.8907   23.8774 C   0  0  0  0  0  0  0  0  0  0  0  0
  -23.1720  -29.3459   25.3338 C   0  0  0  0  0  0  0  0  0  0  0  0
  -21.2202  -28.0201   26.1591 C   0  0  0  0  0  0  0  0  0  0  0  0
  -25.6508  -16.1021   20.4549 C   0  0  0  0  0  0  0  0  0  0  0  0
  -28.1245  -14.0087   20.3116 C   0  0  0  0  0  0  0  0  0  0  0  0
  -31.4667  -13.5008   19.8440 C   0  0  0  0  0  0  0  0  0  0  0  0
  -28.5268  -30.1673   22.7836 C   0  0  0  0  0  0  0  0  0  0  0  0
  -22.2905  -13.0527   22.7930 C   0  0  0  0  0  0  0  0  0  0  0  0
  -26.7030  -16.7167   18.2478 C   0  0  0  0  0  0  0  0  0  0  0  0
  -28.7225  -16.4585   20.3924 C   0  0  0  0  0  0  0  0  0  0  0  0
  -23.7659  -13.3974   22.9794 C   0  0  0  0  0  0  0  0  0  0  0  0
  -25.7999  -32.4563   22.8217 C   0  0  0  0  0  0  0  0  0  0  0  0
  -23.9662  -14.9096   22.9692 C   0  0  0  0  0  0  0  0  0  0  0  0
  -29.5665  -23.6402   22.1600 C   0  0  0  0  0  0  0  0  0  0  0  0
  -24.6012  -31.5907   23.2140 C   0  0  0  0  0  0  0  0  0  0  0  0
  -29.1258  -22.2679   21.6391 C   0  0  0  0  0  0  0  0  0  0  0  0
  -26.7761  -31.6961   21.9266 C   0  0  0  0  0  0  0  0  0  0  0  0
  -26.0377  -29.5387   22.8615 C   0  0  0  0  0  0  0  0  0  0  0  0
  -23.5363  -15.5140   21.6270 C   0  0  1  0  0  0  0  0  0  0  0  0
  -26.5739  -15.6706   19.3507 C   0  0  1  0  0  0  0  0  0  0  0  0
  -29.6352  -24.5373   20.9219 C   0  0  2  0  0  0  0  0  0  0  0  0
  -25.0532  -30.2440   23.8100 C   0  0  2  0  0  0  0  0  0  0  0  0
  -30.1308  -23.5592   19.8629 C   0  0  1  0  0  0  0  0  0  0  0  0
  -29.2932  -22.3130   20.1156 C   0  0  1  0  0  0  0  0  0  1  0  0
  -33.1997  -11.6859   19.8248 C   0  0  0  0  0  0  0  0  0  0  0  0
  -30.1126  -23.6948   16.1014 C   0  0  0  0  0  0  0  0  0  0  0  0
  -28.0656  -13.9235   23.3610 C   0  0  0  0  0  0  0  0  0  0  0  0
  -30.3471  -12.8938   23.3069 C   0  0  0  0  0  0  0  0  0  0  0  0
  -28.4190  -11.7050   22.2620 C   0  0  0  0  0  0  0  0  0  0  0  0
  -32.1520  -14.0253   17.0131 C   0  0  0  0  0  0  0  0  0  0  0  0
  -30.5329  -25.7482   21.1187 C   0  0  0  0  0  0  0  0  0  0  0  0
  -30.1613  -28.5365   23.6937 C   0  0  0  0  0  0  0  0  0  0  0  0
  -30.8074  -27.7761   22.5507 C   0  0  0  0  0  0  0  0  0  0  0  0
  -32.1430  -24.1670   17.5291 C   0  0  0  0  0  0  0  0  0  0  0  0
  -29.3649  -13.7614   21.1358 C   0  0  1  0  0  0  0  0  0  0  0  0
  -32.2237  -12.5000   18.9897 C   0  0  2  0  0  0  0  0  0  0  0  0
  -30.7800  -23.4908   17.4520 C   0  0  1  0  0  0  0  0  0  0  0  0
  -29.0443  -13.0960   22.5040 C   0  0  0  0  0  0  0  0  0  0  0  0
  -23.4205  -28.4822   23.2506 N   0  0  0  0  0  0  0  0  0  0  0  0
  -23.8694  -29.3621   24.1618 N   0  0  0  0  0  0  0  0  0  0  0  0
  -27.8588  -15.3428   19.9719 N   0  0  0  0  0  0  0  0  0  0  0  0
  -27.1667  -30.4293   22.5501 N   0  0  0  0  0  0  0  0  0  0  0  0
  -23.4906  -30.1667   26.3572 N   0  0  0  0  0  0  0  0  0  0  0  0
  -20.2950  -27.0184   25.8356 N   0  0  0  0  0  0  0  0  0  0  0  0
  -24.5505  -15.2829   20.6208 N   0  0  0  0  0  0  0  0  0  0  0  0
  -30.2681  -12.9868   20.2917 N   0  0  0  0  0  0  0  0  0  0  0  0
  -28.8097  -28.9465   23.3840 N   0  0  0  0  0  0  0  0  0  0  0  0
  -29.8985  -24.0807   18.4993 N   0  3  0  0  0  0  0  0  0  0  0  0
  -32.9909  -13.2044   17.9238 N   0  3  0  0  0  0  0  0  0  0  0  0
  -29.9867  -26.5788   22.2141 N   0  3  0  0  0  0  0  0  0  0  0  0
  -21.1574  -28.5742   27.2828 O   0  0  0  0  0  0  0  0  0  0  0  0
  -25.9179  -17.1034   21.1090 O   0  0  0  0  0  0  0  0  0  0  0  0
  -27.4214  -13.0527   19.9753 O   0  0  0  0  0  0  0  0  0  0  0  0
  -31.8975  -14.6247   20.0926 O   0  0  0  0  0  0  0  0  0  0  0  0
  -29.4222  -30.9645   22.4844 O   0  0  0  0  0  0  0  0  0  0  0  0
  -31.9874  -25.5699   17.3531 O   0  0  0  0  0  0  0  0  0  0  0  0
  -19.4590  -23.8942   21.2994 O   0  0  0  0  0  0  0  0  0  0  0  0
  -29.9559  -21.1356   19.6565 O   0  0  0  0  0  0  0  0  0  1  0  0
  -22.2626  -20.0050   18.5759 F   0  0  0  0  0  0  0  0  0  0  0  0
  -21.1344  -24.5590   19.2033 F   0  0  0  0  0  0  0  0  0  0  0  0
  1  2  1  0  0  0  0
  1  5  2  0  0  0  0
  2  6  2  0  0  0  0
  3  8  2  0  0  0  0
  3 15  1  0  0  0  0
  4  9  1  0  0  0  0
  4 15  2  0  0  0  0
  5 17  1  0  0  0  0
  6 19  1  0  0  0  0
  7 10  2  0  0  0  0
  7 18  1  0  0  0  0
  8 21  1  0  0  0  0
  9 21  2  0  0  0  0
 10 22  1  0  0  0  0
 11 12  2  0  0  0  0
 11 23  1  0  0  0  0
 12 24  1  0  0  0  0
 13 20  1  0  0  0  0
 13 22  2  0  0  0  0
 14 24  2  0  0  0  0
 14 25  1  0  0  0  0
 15 26  1  0  0  0  0
 16 26  1  0  0  0  0
 16 27  2  0  0  0  0
 16 28  1  0  0  0  0
 17 19  2  0  0  0  0
 17 33  1  0  0  0  0
 18 20  2  0  0  0  0
 18 34  1  0  0  0  0
 19 44  1  0  0  0  0
 20 35  1  0  0  0  0
 21 82  1  0  0  0  0
 22 83  1  0  0  0  0
 23 25  2  0  0  0  0
 23 82  1  0  0  0  0
 24 84  1  0  0  0  0
 25 85  1  0  0  0  0
 26 64  2  0  0  0  0
 27 65  1  0  0  0  0
 27 68  1  0  0  0  0
 28 69  1  0  0  0  0
 28 76  2  0  0  0  0
 29 45  1  0  0  0  0
 29 70  1  0  0  0  0
 29 77  2  0  0  0  0
 30 60  1  0  0  0  0
 30 66  1  0  0  0  0
 30 78  2  0  0  0  0
 31 61  1  0  0  0  0
 31 71  1  0  0  0  0
 31 79  2  0  0  0  0
 32 67  1  0  0  0  0
 32 72  1  0  0  0  0
 32 80  2  0  0  0  0
 33 36  1  0  0  0  0
 34 45  1  0  0  0  0
 35 66  1  0  0  0  0
 36 38  1  0  0  0  0
 37 40  1  0  0  0  0
 37 42  1  0  0  0  0
 38 44  1  0  0  0  0
 39 41  1  0  0  0  0
 39 46  1  0  0  0  0
 40 47  1  0  0  0  0
 41 49  1  0  0  0  0
 42 67  1  0  0  0  0
 43 47  1  0  0  0  0
 43 67  1  0  0  0  0
 44 70  1  0  0  0  0
 45 66  1  0  0  0  0
 46 48  1  0  0  0  0
 46 56  1  0  0  0  0
 47 65  1  0  0  0  0
 48 49  1  0  0  0  0
 48 73  1  0  0  0  0
 49 83  1  0  0  0  0
 50 61  1  0  0  0  0
 51 62  1  0  0  0  0
 52 63  1  0  0  0  0
 53 63  1  0  0  0  0
 54 63  1  0  0  0  0
 55 74  1  0  0  0  0
 56 75  1  0  0  0  0
 57 58  1  0  0  0  0
 57 72  1  0  0  0  0
 58 75  1  0  0  0  0
 59 62  1  0  0  0  0
 59 81  1  0  0  0  0
 60 63  1  0  0  0  0
 60 71  1  0  0  0  0
 61 74  1  0  0  0  0
 62 73  1  0  0  0  0
 64 65  1  0  0  0  0
M  CHG  3  73   1  74   1  75   1
M  ISO  4  32 100  49 101  72 100  83 101
M  END
> <Batch ID>
0131

> <Smiles>
CNC(C)C(=O)NC(C(=O)N1Cc2cc([101O:1][101CH:1]3CCC(CNCC[100NH:0][100C:0](=O)N4CCCC(n5nc(-c6ccc(Oc7ccc(F)cc7F)cc6)c(C(N)=O)c5N)C4)C3NC(C)CO)ccc2CC1C(=O)NC1CCCc2ccccc21)C(C)(C)C

> <Shape>
0.230

> <Color>
0.048

> <Negative vol penalty>
0.000

$$$$

  -OEChem-04052320503D

 86 95  0     1  0  0  0  0  0999 V2000
  -24.4830  -33.1103   14.3359 C   0  0  0  0  0  0  0  0  0  0  0  0
  -25.2728  -32.1843   15.0099 C   0  0  0  0  0  0  0  0  0  0  0  0
  -22.9054  -10.4114   22.8091 C   0  0  0  0  0  0  0  0  0  0  0  0
  -21.2532  -10.8423   21.0998 C   0  0  0  0  0  0  0  0  0  0  0  0
  -23.9889  -34.2257   15.0109 C   0  0  0  0  0  0  0  0  0  0  0  0
  -25.5697  -32.3737   16.3591 C   0  0  0  0  0  0  0  0  0  0  0  0
  -25.0577  -28.1304   19.0753 C   0  0  0  0  0  0  0  0  0  0  0  0
  -22.8210   -9.0442   22.5461 C   0  0  0  0  0  0  0  0  0  0  0  0
  -21.1688   -9.4750   20.8368 C   0  0  0  0  0  0  0  0  0  0  0  0
  -26.0843  -27.1912   18.9886 C   0  0  0  0  0  0  0  0  0  0  0  0
  -20.7353   -6.4898   23.2871 C   0  0  0  0  0  0  0  0  0  0  0  0
  -20.6573   -5.6243   24.3782 C   0  0  0  0  0  0  0  0  0  0  0  0
  -26.9789  -27.9846   21.0837 C   0  0  0  0  0  0  0  0  0  0  0  0
  -22.6966   -4.5423   23.6656 C   0  0  0  0  0  0  0  0  0  0  0  0
  -22.1215  -11.3105   22.0860 C   0  0  0  0  0  0  0  0  0  0  0  0
  -21.9356  -13.3723   23.5766 C   0  0  0  0  0  0  0  0  0  0  0  0
  -24.2719  -34.4238   16.3716 C   0  0  0  0  0  0  0  0  0  0  0  0
  -24.9900  -29.0126   20.1632 C   0  0  0  0  0  0  0  0  0  0  0  0
  -25.0800  -33.4934   17.0526 C   0  0  0  0  0  0  0  0  0  0  0  0
  -25.9489  -28.9324   21.1831 C   0  0  0  0  0  0  0  0  0  0  0  0
  -21.9528   -8.5760   21.5600 C   0  0  0  0  0  0  0  0  0  0  0  0
  -27.0468  -27.1201   19.9915 C   0  0  0  0  0  0  0  0  0  0  0  0
  -21.7939   -6.3815   22.3852 C   0  0  0  0  0  0  0  0  0  0  0  0
  -21.6380   -4.6506   24.5674 C   0  0  0  0  0  0  0  0  0  0  0  0
  -22.7745   -5.4077   22.5745 C   0  0  0  0  0  0  0  0  0  0  0  0
  -22.2078  -12.7229   22.3576 C   0  0  0  0  0  0  0  0  0  0  0  0
  -22.1641  -14.7014   23.3161 C   0  0  0  0  0  0  0  0  0  0  0  0
  -21.5140  -12.8233   24.8322 C   0  0  0  0  0  0  0  0  0  0  0  0
  -25.1236  -32.1703   20.5023 C   0  0  0  0  0  0  0  0  0  0  0  0
  -24.4156  -31.4777   23.5912 C   0  0  0  0  0  0  0  0  0  0  0  0
  -25.4057  -29.0103   26.0303 C   0  0  0  0  0  0  0  0  0  0  0  0
  -25.5731  -17.5408   19.2952 C   0  0  0  0  0  0  0  0  0  0  0  0
  -23.7545  -35.6692   17.0468 C   0  0  0  0  0  0  0  0  0  0  0  0
  -23.8610  -30.0022   20.2553 C   0  0  0  0  0  0  0  0  0  0  0  0
  -25.9095  -29.8432   22.3820 C   0  0  0  0  0  0  0  0  0  0  0  0
  -23.8049  -35.6014   18.5710 C   0  0  0  0  0  0  0  0  0  0  0  0
  -22.0592  -17.8901   19.7507 C   0  0  0  0  0  0  0  0  0  0  0  0
  -25.1583  -35.0746   19.0374 C   0  0  0  0  0  0  0  0  0  0  0  0
  -29.1400  -22.5569   21.9272 C   0  0  0  0  0  0  0  0  0  0  0  0
  -29.2006  -21.4066   19.6800 C   0  0  0  0  0  0  0  0  0  0  0  0
  -28.3296  -23.7006   21.3199 C   0  0  0  0  0  0  0  0  0  0  0  0
  -28.3902  -22.5503   19.0727 C   0  0  0  0  0  0  0  0  0  0  0  0
  -21.6743  -16.6640   20.5804 C   0  0  0  0  0  0  0  0  0  0  0  0
  -23.1587  -17.5661   18.7416 C   0  0  0  0  0  0  0  0  0  0  0  0
  -30.4857  -17.7932   21.6242 C   0  0  0  0  0  0  0  0  0  0  0  0
  -23.9794  -15.7162   20.1480 C   0  0  0  0  0  0  0  0  0  0  0  0
  -31.9493  -18.2030   21.5586 C   0  0  0  0  0  0  0  0  0  0  0  0
  -31.2392  -20.5712   21.7155 C   0  0  0  0  0  0  0  0  0  0  0  0
  -25.4035  -33.6512   18.5225 C   0  0  1  0  0  0  0  0  0  0  0  0
  -24.1830  -31.1945   21.1509 C   0  0  1  0  0  0  0  0  0  0  0  0
  -28.9106  -21.2388   21.1769 C   0  0  0  0  0  0  0  0  0  0  0  0
  -28.6197  -23.8684   19.8230 C   0  0  0  0  0  0  0  0  0  0  0  0
  -22.9132  -16.0070   21.2181 C   0  0  2  0  0  0  0  0  0  0  0  0
  -29.7729  -20.1181   21.7739 C   0  0  1  0  0  0  0  0  0  0  0  0
  -24.1747  -28.0930   28.0153 C   0  0  0  0  0  0  0  0  0  0  0  0
  -25.8948  -33.6467   25.1460 C   0  0  0  0  0  0  0  0  0  0  0  0
  -26.1526  -32.0210   27.0325 C   0  0  0  0  0  0  0  0  0  0  0  0
  -23.8752  -32.7287   26.3007 C   0  0  0  0  0  0  0  0  0  0  0  0
  -25.7291  -26.2232   25.0889 C   0  0  0  0  0  0  0  0  0  0  0  0
  -27.7616  -24.9839   19.2289 C   0  0  0  0  0  0  0  0  0  1  0  0
  -28.2158  -18.3505   21.0961 C   0  0  0  0  0  0  0  0  0  0  0  0
  -27.9630  -17.3867   19.9461 C   0  0  0  0  0  0  0  0  0  0  0  0
  -25.2221  -31.1740   24.8307 C   0  0  1  0  0  0  0  0  0  0  0  0
  -24.5598  -27.8672   26.5615 C   0  0  2  0  0  0  0  0  0  0  0  0
  -25.2959  -32.3863   25.8015 C   0  0  0  0  0  0  0  0  0  0  0  0
  -22.5805  -13.5696   21.3942 N   0  0  0  0  0  0  0  0  0  0  0  0
  -22.5441  -14.7648   22.0077 N   0  0  0  0  0  0  0  0  0  0  0  0
  -24.7896  -30.7980   22.4233 N   0  0  0  0  0  0  0  0  0  0  0  0
  -24.3054  -16.9470   19.4107 N   0  0  0  0  0  0  0  0  0  0  0  0
  -29.6004  -18.8297   21.0636 N   0  0  2  0  0  0  0  0  0  0  0  0
  -22.0749  -15.8103   24.0807 N   0  0  0  0  0  0  0  0  0  0  0  0
  -20.1400  -12.7040   25.0816 N   0  0  0  0  0  0  0  0  0  0  0  0
  -24.6583  -32.6932   19.3108 N   0  0  0  0  0  0  0  0  0  0  0  0
  -24.6341  -29.9743   25.4165 N   0  0  0  0  0  0  0  0  0  0  0  0
  -26.6039  -16.8935   19.9653 N   0  0  0  0  0  0  0  0  0  0  0  0
  -32.1149  -19.5003   22.2683 N   0  3  0  0  0  0  0  0  0  0  0  0
  -25.3082  -26.5819   26.4678 N   0  3  0  0  0  0  0  0  0  0  0  0
  -22.3314  -12.4648   25.7136 O   0  0  0  0  0  0  0  0  0  0  0  0
  -26.1918  -32.4307   21.0435 O   0  0  0  0  0  0  0  0  0  0  0  0
  -23.4834  -32.2828   23.6585 O   0  0  0  0  0  0  0  0  0  0  0  0
  -26.6282  -29.0465   26.1512 O   0  0  0  0  0  0  0  0  0  0  0  0
  -25.7706  -18.5745   18.6475 O   0  0  0  0  0  0  0  0  0  0  0  0
  -21.8703   -7.2420   21.3029 O   0  0  0  0  0  0  0  0  0  0  0  0
  -28.0504  -26.2047   19.9090 O   0  0  0  0  0  0  0  0  0  1  0  0
  -21.5638   -3.8205   25.6161 F   0  0  0  0  0  0  0  0  0  0  0  0
  -23.7945   -5.2996   21.7120 F   0  0  0  0  0  0  0  0  0  0  0  0
  1  2  1  0  0  0  0
  1  5  2  0  0  0  0
  2  6  2  0  0  0  0
  3  8  2  0  0  0  0
  3 15  1  0  0  0  0
  4  9  1  0  0  0  0
  4 15  2  0  0  0  0
  5 17  1  0  0  0  0
  6 19  1  0  0  0  0
  7 10  2  0  0  0  0
  7 18  1  0  0  0  0
  8 21  1  0  0  0  0
  9 21  2  0  0  0  0
 10 22  1  0  0  0  0
 11 12  2  0  0  0  0
 11 23  1  0  0  0  0
 12 24  1  0  0  0  0
 13 20  1  0  0  0  0
 13 22  2  0  0  0  0
 14 24  2  0  0  0  0
 14 25  1  0  0  0  0
 15 26  1  0  0  0  0
 16 26  1  0  0  0  0
 16 27  2  0  0  0  0
 16 28  1  0  0  0  0
 17 19  2  0  0  0  0
 17 33  1  0  0  0  0
 18 20  2  0  0  0  0
 18 34  1  0  0  0  0
 19 49  1  0  0  0  0
 20 35  1  0  0  0  0
 21 83  1  0  0  0  0
 22 84  1  0  0  0  0
 23 25  2  0  0  0  0
 23 83  1  0  0  0  0
 24 85  1  0  0  0  0
 25 86  1  0  0  0  0
 26 66  2  0  0  0  0
 27 67  1  0  0  0  0
 27 71  1  0  0  0  0
 28 72  1  0  0  0  0
 28 78  2  0  0  0  0
 29 50  1  0  0  0  0
 29 73  1  0  0  0  0
 29 79  2  0  0  0  0
 30 63  1  0  0  0  0
 30 68  1  0  0  0  0
 30 80  2  0  0  0  0
 31 64  1  0  0  0  0
 31 74  1  0  0  0  0
 31 81  2  0  0  0  0
 32 69  1  0  0  0  0
 32 75  1  0  0  0  0
 32 82  2  0  0  0  0
 33 36  1  0  0  0  0
 34 50  1  0  0  0  0
 35 68  1  0  0  0  0
 36 38  1  0  0  0  0
 37 43  1  0  0  0  0
 37 44  1  0  0  0  0
 38 49  1  0  0  0  0
 39 41  1  0  0  0  0
 39 51  1  0  0  0  0
 40 42  1  0  0  0  0
 40 51  1  0  0  0  0
 41 52  1  0  0  0  0
 42 52  1  0  0  0  0
 43 53  1  0  0  0  0
 44 69  1  0  0  0  0
 45 47  1  0  0  0  0
 45 70  1  0  0  0  0
 46 53  1  0  0  0  0
 46 69  1  0  0  0  0
 47 76  1  0  0  0  0
 48 54  1  0  0  0  0
 48 76  1  0  0  0  0
 49 73  1  0  0  0  0
 50 68  1  0  0  0  0
 51 54  1  0  0  0  0
 52 60  1  0  0  0  0
 53 67  1  0  0  0  0
 54 70  1  0  0  0  0
 55 64  1  0  0  0  0
 56 65  1  0  0  0  0
 57 65  1  0  0  0  0
 58 65  1  0  0  0  0
 59 77  1  0  0  0  0
 60 84  1  0  0  0  0
 61 62  1  0  0  0  0
 61 70  1  0  0  0  0
 62 75  1  0  0  0  0
 63 65  1  0  0  0  0
 63 74  1  0  0  0  0
 64 77  1  0  0  0  0
 66 67  1  0  0  0  0
M  CHG  2  76   1  77   1
M  ISO  4  32 100  60 101  75 100  84 101
M  END
> <Batch ID>
0131

> <Smiles>
CNC(C)C(=O)NC(C(=O)N1Cc2cc([101O:1][101CH2:1]C3CCC(C4CNCCN4CC[100NH:0][100C:0](=O)N4CCCC(n5nc(-c6ccc(Oc7ccc(F)cc7F)cc6)c(C(N)=O)c5N)C4)CC3)ccc2CC1C(=O)NC1CCCc2ccccc21)C(C)(C)C

> <Shape>
0.245

> <Color>
0.105

> <Negative vol penalty>
0.000

$$$$

  -OEChem-04052320503D

 82 90  0     1  0  0  0  0  0999 V2000
  -27.5510  -34.2986   23.9726 C   0  0  0  0  0  0  0  0  0  0  0  0
  -28.5534  -33.3605   23.7476 C   0  0  0  0  0  0  0  0  0  0  0  0
  -23.6234   -9.5700   20.1316 C   0  0  0  0  0  0  0  0  0  0  0  0
  -23.6631  -10.1277   22.4820 C   0  0  0  0  0  0  0  0  0  0  0  0
  -26.2445  -33.8764   24.2151 C   0  0  0  0  0  0  0  0  0  0  0  0
  -28.2501  -31.9996   23.7661 C   0  0  0  0  0  0  0  0  0  0  0  0
  -30.1690  -25.8102   20.7125 C   0  0  0  0  0  0  0  0  0  0  0  0
  -29.6567  -19.6973   23.7908 C   0  0  0  0  0  0  0  0  0  0  0  0
  -22.9624   -8.3775   20.4257 C   0  0  0  0  0  0  0  0  0  0  0  0
  -23.0020   -8.9352   22.7762 C   0  0  0  0  0  0  0  0  0  0  0  0
  -30.5664  -24.5182   21.0541 C   0  0  0  0  0  0  0  0  0  0  0  0
  -30.2317  -18.4785   24.1507 C   0  0  0  0  0  0  0  0  0  0  0  0
  -19.8152   -7.3928   21.1730 C   0  0  0  0  0  0  0  0  0  0  0  0
  -18.7234   -7.0438   20.3782 C   0  0  0  0  0  0  0  0  0  0  0  0
  -28.2591  -23.9079   21.4050 C   0  0  0  0  0  0  0  0  0  0  0  0
  -30.6708  -17.9986   21.8239 C   0  0  0  0  0  0  0  0  0  0  0  0
  -19.8484   -5.0070   19.7275 C   0  0  0  0  0  0  0  0  0  0  0  0
  -23.9738  -10.4451   21.1598 C   0  0  0  0  0  0  0  0  0  0  0  0
  -24.0727  -12.9251   20.5705 C   0  0  0  0  0  0  0  0  0  0  0  0
  -25.9232  -32.5099   24.2271 C   0  0  0  0  0  0  0  0  0  0  0  0
  -28.8122  -26.1643   20.7251 C   0  0  0  0  0  0  0  0  0  0  0  0
  -26.9384  -31.5587   24.0104 C   0  0  0  0  0  0  0  0  0  0  0  0
  -27.8469  -25.2042   21.0606 C   0  0  0  0  0  0  0  0  0  0  0  0
  -29.5887  -20.0667   22.4475 C   0  0  0  0  0  0  0  0  0  0  0  0
  -30.0958  -19.2174   21.4640 C   0  0  0  0  0  0  0  0  0  0  0  0
  -22.6516   -8.0601   21.7480 C   0  0  0  0  0  0  0  0  0  0  0  0
  -29.6116  -23.5676   21.4033 C   0  0  0  0  0  0  0  0  0  0  0  0
  -30.7388  -17.6292   23.1672 C   0  0  0  0  0  0  0  0  0  0  0  0
  -20.9236   -6.5490   21.2451 C   0  0  0  0  0  0  0  0  0  0  0  0
  -18.7400   -5.8509   19.6554 C   0  0  0  0  0  0  0  0  0  0  0  0
  -20.9402   -5.3561   20.5224 C   0  0  0  0  0  0  0  0  0  0  0  0
  -24.6572  -11.6768   20.8567 C   0  0  0  0  0  0  0  0  0  0  0  0
  -25.1398  -13.7625   20.3547 C   0  0  0  0  0  0  0  0  0  0  0  0
  -22.6889  -13.2947   20.5057 C   0  0  0  0  0  0  0  0  0  0  0  0
  -27.0570  -28.2642   22.3416 C   0  0  0  0  0  0  0  0  0  0  0  0
  -24.7187  -27.2771   20.3216 C   0  0  0  0  0  0  0  0  0  0  0  0
  -23.5035  -24.8371   18.2681 C   0  0  0  0  0  0  0  0  0  0  0  0
  -30.8398  -13.6586   22.1849 C   0  0  0  0  0  0  0  0  0  0  0  0
  -24.5060  -32.1001   24.5406 C   0  0  0  0  0  0  0  0  0  0  0  0
  -28.3979  -27.5547   20.3281 C   0  0  0  0  0  0  0  0  0  0  0  0
  -26.3760  -25.5282   21.0699 C   0  0  0  0  0  0  0  0  0  0  0  0
  -24.1950  -30.6518   24.1721 C   0  0  0  0  0  0  0  0  0  0  0  0
  -29.6721  -13.7337   18.8223 C   0  0  0  0  0  0  0  0  0  0  0  0
  -25.3053  -29.7266   24.6601 C   0  0  0  0  0  0  0  0  0  0  0  0
  -28.2017  -13.3277   18.9365 C   0  0  0  0  0  0  0  0  0  0  0  0
  -30.5455  -12.9780   19.8213 C   0  0  0  0  0  0  0  0  0  0  0  0
  -28.6297  -12.6608   21.3388 C   0  0  0  0  0  0  0  0  0  0  0  0
  -26.6440  -30.0743   23.9980 C   0  0  1  0  0  0  0  0  0  0  0  0
  -27.0284  -27.9485   20.8729 C   0  0  1  0  0  0  0  0  0  0  0  0
  -27.7011  -13.4370   20.3893 C   0  0  2  0  0  0  0  0  0  0  0  0
  -30.0330  -19.5914   20.0195 C   0  0  0  0  0  0  0  0  0  0  0  0
  -21.5518  -24.3030   16.7839 C   0  0  0  0  0  0  0  0  0  0  0  0
  -23.0069  -26.7064   22.7820 C   0  0  0  0  0  0  0  0  0  0  0  0
  -21.5045  -25.3263   21.3306 C   0  0  0  0  0  0  0  0  0  0  0  0
  -21.7775  -27.7643   20.8784 C   0  0  0  0  0  0  0  0  0  0  0  0
  -25.2337  -24.6155   15.8773 C   0  0  0  0  0  0  0  0  0  0  0  0
  -28.9656  -21.3827   22.0850 C   0  0  0  0  0  0  0  0  0  1  0  0
  -30.9769  -14.3055   24.5770 C   0  0  0  0  0  0  0  0  0  0  0  0
  -30.7996  -15.8086   24.6962 C   0  0  0  0  0  0  0  0  0  0  0  0
  -23.6775  -26.1842   20.3440 C   0  0  1  0  0  0  0  0  0  0  0  0
  -22.9519  -24.8923   16.8549 C   0  0  2  0  0  0  0  0  0  0  0  0
  -22.5194  -26.4894   21.3356 C   0  0  0  0  0  0  0  0  0  0  0  0
  -25.9920  -11.7133   20.8260 N   0  0  0  0  0  0  0  0  0  0  0  0
  -26.2551  -12.9947   20.5179 N   0  0  0  0  0  0  0  0  0  0  0  0
  -26.0215  -26.9030   20.6803 N   0  0  0  0  0  0  0  0  0  0  0  0
  -30.0173  -13.1234   21.1799 N   0  0  0  0  0  0  0  0  0  0  0  0
  -25.2234  -15.0734   20.0429 N   0  0  0  0  0  0  0  0  0  0  0  0
  -21.7222  -12.3109   20.7547 N   0  0  0  0  0  0  0  0  0  0  0  0
  -26.6877  -29.5605   22.6458 N   0  0  0  0  0  0  0  0  0  0  0  0
  -23.2481  -26.0011   18.9619 N   0  0  0  0  0  0  0  0  0  0  0  0
  -30.2593  -13.7679   23.4426 N   0  0  0  0  0  0  0  0  0  0  0  0
  -23.8312  -24.1280   15.9255 N   0  3  0  0  0  0  0  0  0  0  0  0
  -22.3203  -14.4589   20.2189 O   0  0  0  0  0  0  0  0  0  0  0  0
  -27.3880  -27.3954   23.1400 O   0  0  0  0  0  0  0  0  0  0  0  0
  -24.3898  -28.4190   19.9907 O   0  0  0  0  0  0  0  0  0  0  0  0
  -24.0979  -23.8579   18.7134 O   0  0  0  0  0  0  0  0  0  0  0  0
  -32.0035  -14.0178   21.9756 O   0  0  0  0  0  0  0  0  0  0  0  0
  -22.0064   -6.8966   22.0353 O   0  0  0  0  0  0  0  0  0  0  0  0
  -29.9968  -22.3060   21.7378 O   0  0  0  0  0  0  0  0  0  1  0  0
  -31.2994  -16.4396   23.5182 O   0  0  0  0  0  0  0  0  0  0  0  0
  -17.6909   -5.5150   18.8933 F   0  0  0  0  0  0  0  0  0  0  0  0
  -22.0017   -4.5409   20.5885 F   0  0  0  0  0  0  0  0  0  0  0  0
  1  2  1  0  0  0  0
  1  5  2  0  0  0  0
  2  6  2  0  0  0  0
  3  9  2  0  0  0  0
  3 18  1  0  0  0  0
  4 10  1  0  0  0  0
  4 18  2  0  0  0  0
  5 20  1  0  0  0  0
  6 22  1  0  0  0  0
  7 11  2  0  0  0  0
  7 21  1  0  0  0  0
  8 12  2  0  0  0  0
  8 24  1  0  0  0  0
  9 26  1  0  0  0  0
 10 26  2  0  0  0  0
 11 27  1  0  0  0  0
 12 28  1  0  0  0  0
 13 14  2  0  0  0  0
 13 29  1  0  0  0  0
 14 30  1  0  0  0  0
 15 23  1  0  0  0  0
 15 27  2  0  0  0  0
 16 25  1  0  0  0  0
 16 28  2  0  0  0  0
 17 30  2  0  0  0  0
 17 31  1  0  0  0  0
 18 32  1  0  0  0  0
 19 32  1  0  0  0  0
 19 33  2  0  0  0  0
 19 34  1  0  0  0  0
 20 22  2  0  0  0  0
 20 39  1  0  0  0  0
 21 23  2  0  0  0  0
 21 40  1  0  0  0  0
 22 48  1  0  0  0  0
 23 41  1  0  0  0  0
 24 25  2  0  0  0  0
 24 57  1  0  0  0  0
 25 51  1  0  0  0  0
 26 78  1  0  0  0  0
 27 79  1  0  0  0  0
 28 80  1  0  0  0  0
 29 31  2  0  0  0  0
 29 78  1  0  0  0  0
 30 81  1  0  0  0  0
 31 82  1  0  0  0  0
 32 63  2  0  0  0  0
 33 64  1  0  0  0  0
 33 67  1  0  0  0  0
 34 68  1  0  0  0  0
 34 73  2  0  0  0  0
 35 49  1  0  0  0  0
 35 69  1  0  0  0  0
 35 74  2  0  0  0  0
 36 60  1  0  0  0  0
 36 65  1  0  0  0  0
 36 75  2  0  0  0  0
 37 61  1  0  0  0  0
 37 70  1  0  0  0  0
 37 76  2  0  0  0  0
 38 66  1  0  0  0  0
 38 71  1  0  0  0  0
 38 77  2  0  0  0  0
 39 42  1  0  0  0  0
 40 49  1  0  0  0  0
 41 65  1  0  0  0  0
 42 44  1  0  0  0  0
 43 45  1  0  0  0  0
 43 46  1  0  0  0  0
 44 48  1  0  0  0  0
 45 50  1  0  0  0  0
 46 66  1  0  0  0  0
 47 50  1  0  0  0  0
 47 66  1  0  0  0  0
 48 69  1  0  0  0  0
 49 65  1  0  0  0  0
 50 64  1  0  0  0  0
 52 61  1  0  0  0  0
 53 62  1  0  0  0  0
 54 62  1  0  0  0  0
 55 62  1  0  0  0  0
 56 72  1  0  0  0  0
 57 79  1  0  0  0  0
 58 59  1  0  0  0  0
 58 71  1  0  0  0  0
 59 80  1  0  0  0  0
 60 62  1  0  0  0  0
 60 70  1  0  0  0  0
 61 72  1  0  0  0  0
 63 64  1  0  0  0  0
M  CHG  1  72   1
M  ISO  4  38 100  57 101  71 100  79 101
M  END
> <Batch ID>
0131

> <Smiles>
CNC(C)C(=O)NC(C(=O)N1Cc2cc([101O:1][101CH2:1]c3ccc(OCC[100NH:0][100C:0](=O)N4CCCC(n5nc(-c6ccc(Oc7ccc(F)cc7F)cc6)c(C(N)=O)c5N)C4)cc3C)ccc2CC1C(=O)NC1CCCc2ccccc21)C(C)(C)C

> <Shape>
0.274

> <Color>
0.140

> <Negative vol penalty>
0.000

$$$$

  -OEChem-04052320503D

 88 98  0     1  0  0  0  0  0999 V2000
  -28.1073  -20.7751   27.5190 C   0  0  0  0  0  0  0  0  0  0  0  0
  -28.1365  -21.6755   26.4589 C   0  0  0  0  0  0  0  0  0  0  0  0
  -26.2746  -12.8081   21.7649 C   0  0  0  0  0  0  0  0  0  0  0  0
  -25.6240  -13.9907   19.7611 C   0  0  0  0  0  0  0  0  0  0  0  0
  -26.9813  -19.9793   27.7254 C   0  0  0  0  0  0  0  0  0  0  0  0
  -27.0400  -21.7798   25.6038 C   0  0  0  0  0  0  0  0  0  0  0  0
  -25.8079  -26.5885   24.6022 C   0  0  0  0  0  0  0  0  0  0  0  0
  -25.0650  -12.1137   21.7478 C   0  0  0  0  0  0  0  0  0  0  0  0
  -24.4144  -13.2963   19.7440 C   0  0  0  0  0  0  0  0  0  0  0  0
  -26.5913  -27.2653   23.6684 C   0  0  0  0  0  0  0  0  0  0  0  0
  -23.7235   -9.4877   20.0934 C   0  0  0  0  0  0  0  0  0  0  0  0
  -23.7626   -8.1120   20.3199 C   0  0  0  0  0  0  0  0  0  0  0  0
  -24.9113  -26.8717   21.9827 C   0  0  0  0  0  0  0  0  0  0  0  0
  -22.3408   -8.3899   22.2534 C   0  0  0  0  0  0  0  0  0  0  0  0
  -26.5541  -13.7467   20.7715 C   0  0  0  0  0  0  0  0  0  0  0  0
  -29.0106  -14.0851   20.1726 C   0  0  0  0  0  0  0  0  0  0  0  0
  -25.8666  -20.0808   26.8781 C   0  0  0  0  0  0  0  0  0  0  0  0
  -24.5731  -26.0378   24.2299 C   0  0  0  0  0  0  0  0  0  0  0  0
  -25.8985  -20.9836   25.7982 C   0  0  0  0  0  0  0  0  0  0  0  0
  -24.1129  -26.1906   22.9142 C   0  0  0  0  0  0  0  0  0  0  0  0
  -24.1349  -12.3578   20.7374 C   0  0  0  0  0  0  0  0  0  0  0  0
  -26.1444  -27.4044   22.3577 C   0  0  0  0  0  0  0  0  0  0  0  0
  -22.9931  -10.3146   20.9470 C   0  0  0  0  0  0  0  0  0  0  0  0
  -23.0712   -7.5630   21.3999 C   0  0  0  0  0  0  0  0  0  0  0  0
  -22.3017   -9.7657   22.0269 C   0  0  0  0  0  0  0  0  0  0  0  0
  -27.8032  -14.4647   20.7889 C   0  0  0  0  0  0  0  0  0  0  0  0
  -29.8873  -15.0958   20.4834 C   0  0  0  0  0  0  0  0  0  0  0  0
  -29.3127  -12.9230   19.3892 C   0  0  0  0  0  0  0  0  0  0  0  0
  -23.3612  -23.1006   24.1450 C   0  0  0  0  0  0  0  0  0  0  0  0
  -20.6323  -24.6694   23.3610 C   0  0  0  0  0  0  0  0  0  0  0  0
  -19.1694  -27.4592   22.0482 C   0  0  0  0  0  0  0  0  0  0  0  0
  -29.1245  -20.8622   21.9036 C   0  0  0  0  0  0  0  0  0  0  0  0
  -24.6908  -19.1659   27.1128 C   0  0  0  0  0  0  0  0  0  0  0  0
  -23.7278  -25.3339   25.2557 C   0  0  0  0  0  0  0  0  0  0  0  0
  -22.7855  -25.6355   22.4690 C   0  0  0  0  0  0  0  0  0  0  0  0
  -23.4228  -19.6047   26.3849 C   0  0  0  0  0  0  0  0  0  0  0  0
  -30.7762  -18.3788   23.8482 C   0  0  0  0  0  0  0  0  0  0  0  0
  -23.7369  -19.9679   24.9370 C   0  0  0  0  0  0  0  0  0  0  0  0
  -31.2152  -28.0442   19.0161 C   0  0  0  0  0  0  0  0  0  0  0  0
  -28.4969  -26.2632   16.8174 C   0  0  0  0  0  0  0  0  0  0  0  0
  -30.5108  -28.0766   20.3754 C   0  0  0  0  0  0  0  0  0  0  0  0
  -30.3105  -17.0599   23.2290 C   0  0  0  0  0  0  0  0  0  0  0  0
  -27.8965  -24.8813   17.0721 C   0  0  0  0  0  0  0  0  0  0  0  0
  -29.8010  -23.5182   15.9517 C   0  0  0  0  0  0  0  0  0  0  0  0
  -31.0473  -24.2719   16.3808 C   0  0  0  0  0  0  0  0  0  0  0  0
  -28.4614  -27.0081   19.3074 C   0  0  0  0  0  0  0  0  0  0  0  0
  -31.3131  -25.5666   18.6265 C   0  0  0  0  0  0  0  0  0  0  0  0
  -29.6645  -19.4258   23.8483 C   0  0  0  0  0  0  0  0  0  0  0  0
  -28.5793  -18.3524   21.9134 C   0  0  0  0  0  0  0  0  0  0  0  0
  -24.7190  -21.1434   24.8637 C   0  0  1  0  0  0  0  0  0  0  0  0
  -22.7215  -24.3672   24.6391 C   0  0  1  0  0  0  0  0  0  0  0  0
  -29.1845  -27.0460   17.9536 C   0  0  1  0  0  0  0  0  0  0  0  0
  -30.7193  -26.8936   18.0981 C   0  0  1  0  0  0  0  0  0  0  0  0
  -28.9828  -28.1147   20.2410 C   0  0  1  0  0  0  0  0  0  0  0  0
  -29.6828  -17.2832   21.8400 C   0  0  2  0  0  0  0  0  0  0  0  0
  -28.8166  -23.6602   17.1005 C   0  0  1  0  0  0  0  0  0  0  0  0
  -31.0425  -24.2461   17.9049 C   0  0  1  0  0  0  0  0  0  0  0  0
  -16.9221  -28.4346   21.5044 C   0  0  0  0  0  0  0  0  0  0  0  0
  -20.4372  -22.8514   20.9183 C   0  0  0  0  0  0  0  0  0  0  0  0
  -18.7761  -24.4526   19.9461 C   0  0  0  0  0  0  0  0  0  0  0  0
  -18.2640  -23.2712   22.0826 C   0  0  0  0  0  0  0  0  0  0  0  0
  -19.5867  -29.7422   23.8848 C   0  0  0  0  0  0  0  0  0  0  0  0
  -28.3175  -28.0204   21.6133 C   0  0  0  0  0  0  0  0  0  1  0  0
  -28.5352  -22.1667   19.8762 C   0  0  0  0  0  0  0  0  0  0  0  0
  -29.7791  -22.3837   19.0349 C   0  0  0  0  0  0  0  0  0  0  0  0
  -19.9903  -25.1183   22.0706 C   0  0  1  0  0  0  0  0  0  0  0  0
  -18.0259  -28.3255   22.5448 C   0  0  2  0  0  0  0  0  0  0  0  0
  -19.3928  -23.9323   21.2620 C   0  0  0  0  0  0  0  0  0  0  0  0
  -27.9004  -15.6258   21.4420 N   0  0  0  0  0  0  0  0  0  0  0  0
  -29.1793  -15.9844   21.2379 N   0  0  0  0  0  0  0  0  0  0  0  0
  -21.9982  -24.9500   23.5072 N   0  0  0  0  0  0  0  0  0  0  0  0
  -29.1129  -19.5911   22.5013 N   0  0  0  0  0  0  0  0  0  0  0  0
  -31.1870  -15.3020   20.1822 N   0  0  0  0  0  0  0  0  0  0  0  0
  -28.2958  -11.9846   19.1664 N   0  0  0  0  0  0  0  0  0  0  0  0
  -24.0335  -22.3915   25.1221 N   0  0  0  0  0  0  0  0  0  0  0  0
  -19.0183  -26.1439   22.4334 N   0  0  0  0  0  0  0  0  0  0  0  0
  -28.5883  -20.9299   20.6235 N   0  0  0  0  0  0  0  0  0  0  0  0
  -29.6885  -23.7081   18.3237 N   0  3  2  0  0  0  0  0  0  0  0  0
  -18.5142  -29.6983   22.8578 N   0  3  0  0  0  0  0  0  0  0  0  0
  -30.4551  -12.7145   18.9149 O   0  0  0  0  0  0  0  0  0  0  0  0
  -23.2516  -22.7889   22.9649 O   0  0  0  0  0  0  0  0  0  0  0  0
  -19.9456  -24.0973   24.2111 O   0  0  0  0  0  0  0  0  0  0  0  0
  -20.1014  -27.9041   21.3819 O   0  0  0  0  0  0  0  0  0  0  0  0
  -29.5838  -21.8616   22.4669 O   0  0  0  0  0  0  0  0  0  0  0  0
  -22.9546  -11.6802   20.7203 O   0  0  0  0  0  0  0  0  0  0  0  0
  -26.9145  -28.0701   21.4356 O   0  0  0  0  0  0  0  0  0  1  0  0
  -23.1076   -6.2417   21.6163 F   0  0  0  0  0  0  0  0  0  0  0  0
  -21.5974  -10.5549   22.8497 F   0  0  0  0  0  0  0  0  0  0  0  0
  1  2  1  0  0  0  0
  1  5  2  0  0  0  0
  2  6  2  0  0  0  0
  3  8  2  0  0  0  0
  3 15  1  0  0  0  0
  4  9  1  0  0  0  0
  4 15  2  0  0  0  0
  5 17  1  0  0  0  0
  6 19  1  0  0  0  0
  7 10  2  0  0  0  0
  7 18  1  0  0  0  0
  8 21  1  0  0  0  0
  9 21  2  0  0  0  0
 10 22  1  0  0  0  0
 11 12  2  0  0  0  0
 11 23  1  0  0  0  0
 12 24  1  0  0  0  0
 13 20  1  0  0  0  0
 13 22  2  0  0  0  0
 14 24  2  0  0  0  0
 14 25  1  0  0  0  0
 15 26  1  0  0  0  0
 16 26  1  0  0  0  0
 16 27  2  0  0  0  0
 16 28  1  0  0  0  0
 17 19  2  0  0  0  0
 17 33  1  0  0  0  0
 18 20  2  0  0  0  0
 18 34  1  0  0  0  0
 19 50  1  0  0  0  0
 20 35  1  0  0  0  0
 21 85  1  0  0  0  0
 22 86  1  0  0  0  0
 23 25  2  0  0  0  0
 23 85  1  0  0  0  0
 24 87  1  0  0  0  0
 25 88  1  0  0  0  0
 26 69  2  0  0  0  0
 27 70  1  0  0  0  0
 27 73  1  0  0  0  0
 28 74  1  0  0  0  0
 28 80  2  0  0  0  0
 29 51  1  0  0  0  0
 29 75  1  0  0  0  0
 29 81  2  0  0  0  0
 30 66  1  0  0  0  0
 30 71  1  0  0  0  0
 30 82  2  0  0  0  0
 31 67  1  0  0  0  0
 31 76  1  0  0  0  0
 31 83  2  0  0  0  0
 32 72  1  0  0  0  0
 32 77  1  0  0  0  0
 32 84  2  0  0  0  0
 33 36  1  0  0  0  0
 34 51  1  0  0  0  0
 35 71  1  0  0  0  0
 36 38  1  0  0  0  0
 37 42  1  0  0  0  0
 37 48  1  0  0  0  0
 38 50  1  0  0  0  0
 39 41  1  0  0  0  0
 39 53  1  0  0  0  0
 40 43  1  0  0  0  0
 40 52  1  0  0  0  0
 41 54  1  0  0  0  0
 42 55  1  0  0  0  0
 43 56  1  0  0  0  0
 44 45  1  0  0  0  0
 44 56  1  0  0  0  0
 45 57  1  0  0  0  0
 46 52  1  0  0  0  0
 46 54  1  0  0  0  0
 47 53  1  0  0  0  0
 47 57  1  0  0  0  0
 48 72  1  0  0  0  0
 49 55  1  0  0  0  0
 49 72  1  0  0  0  0
 50 75  1  0  0  0  0
 51 71  1  0  0  0  0
 52 53  1  0  0  0  0
 54 63  1  0  0  0  0
 55 70  1  0  0  0  0
 56 78  1  0  0  0  0
 57 78  1  0  0  0  0
 58 67  1  0  0  0  0
 59 68  1  0  0  0  0
 60 68  1  0  0  0  0
 61 68  1  0  0  0  0
 62 79  1  0  0  0  0
 63 86  1  0  0  0  0
 64 65  1  0  0  0  0
 64 77  1  0  0  0  0
 65 78  1  0  0  0  0
 66 68  1  0  0  0  0
 66 76  1  0  0  0  0
 67 79  1  0  0  0  0
 69 70  1  0  0  0  0
M  CHG  2  78   1  79   1
M  ISO  4  32 100  63 101  77 100  86 101
M  END
> <Batch ID>
0131

> <Smiles>
CNC(C)C(=O)NC(C(=O)N1Cc2cc([101O:1][101CH2:1]C3CCC4CC5CCC(CCC4C3)N5CC[100NH:0][100C:0](=O)N3CCCC(n4nc(-c5ccc(Oc6ccc(F)cc6F)cc5)c(C(N)=O)c4N)C3)ccc2CC1C(=O)NC1CCCc2ccccc21)C(C)(C)C

> <Shape>
0.252

> <Color>
0.040

> <Negative vol penalty>
0.000

$$$$

  -OEChem-04052320503D

 80 88  0     1  0  0  0  0  0999 V2000
  -28.8868  -37.3251   20.0956 C   0  0  0  0  0  0  0  0  0  0  0  0
  -29.1322  -35.9851   19.8134 C   0  0  0  0  0  0  0  0  0  0  0  0
  -22.8420   -9.9353   20.1294 C   0  0  0  0  0  0  0  0  0  0  0  0
  -24.4030   -9.2023   21.8215 C   0  0  0  0  0  0  0  0  0  0  0  0
  -28.1005  -37.6724   21.1933 C   0  0  0  0  0  0  0  0  0  0  0  0
  -28.5923  -34.9916   20.6294 C   0  0  0  0  0  0  0  0  0  0  0  0
  -26.6217  -29.4619   18.8845 C   0  0  0  0  0  0  0  0  0  0  0  0
  -22.1461   -8.7326   20.2504 C   0  0  0  0  0  0  0  0  0  0  0  0
  -23.7070   -7.9995   21.9425 C   0  0  0  0  0  0  0  0  0  0  0  0
  -27.2159  -28.2012   18.9167 C   0  0  0  0  0  0  0  0  0  0  0  0
  -20.8822   -6.8975   23.4346 C   0  0  0  0  0  0  0  0  0  0  0  0
  -20.6186   -6.4297   24.7220 C   0  0  0  0  0  0  0  0  0  0  0  0
  -26.1043  -27.7372   21.0067 C   0  0  0  0  0  0  0  0  0  0  0  0
  -21.8669   -4.4167   24.2460 C   0  0  0  0  0  0  0  0  0  0  0  0
  -23.9705  -10.1702   20.9149 C   0  0  0  0  0  0  0  0  0  0  0  0
  -25.3138  -11.9209   19.6350 C   0  0  0  0  0  0  0  0  0  0  0  0
  -27.5427  -36.6824   22.0176 C   0  0  0  0  0  0  0  0  0  0  0  0
  -25.7714  -29.8747   19.9204 C   0  0  0  0  0  0  0  0  0  0  0  0
  -27.7989  -35.3261   21.7400 C   0  0  0  0  0  0  0  0  0  0  0  0
  -25.4984  -29.0027   20.9840 C   0  0  0  0  0  0  0  0  0  0  0  0
  -22.5785   -7.7647   21.1569 C   0  0  0  0  0  0  0  0  0  0  0  0
  -26.9596  -27.3397   19.9793 C   0  0  0  0  0  0  0  0  0  0  0  0
  -21.6381   -6.1249   22.5529 C   0  0  0  0  0  0  0  0  0  0  0  0
  -21.1110   -5.1893   25.1277 C   0  0  0  0  0  0  0  0  0  0  0  0
  -22.1305   -4.8845   22.9586 C   0  0  0  0  0  0  0  0  0  0  0  0
  -24.6902  -11.4122   20.7900 C   0  0  0  0  0  0  0  0  0  0  0  0
  -25.8528  -13.1191   20.0352 C   0  0  0  0  0  0  0  0  0  0  0  0
  -25.3981  -11.3605   18.3180 C   0  0  0  0  0  0  0  0  0  0  0  0
  -25.8230  -32.2207   22.0645 C   0  0  0  0  0  0  0  0  0  0  0  0
  -25.3320  -17.9606   22.7881 C   0  0  0  0  0  0  0  0  0  0  0  0
  -22.8571  -31.1136   22.7716 C   0  0  0  0  0  0  0  0  0  0  0  0
  -20.6497  -28.5113   22.7292 C   0  0  0  0  0  0  0  0  0  0  0  0
  -26.7383  -37.1078   23.2204 C   0  0  0  0  0  0  0  0  0  0  0  0
  -25.1171  -31.2276   19.8574 C   0  0  0  0  0  0  0  0  0  0  0  0
  -24.5770  -29.3902   22.1106 C   0  0  0  0  0  0  0  0  0  0  0  0
  -25.8943  -35.9844   23.8170 C   0  0  0  0  0  0  0  0  0  0  0  0
  -26.4362  -15.1011   24.6439 C   0  0  0  0  0  0  0  0  0  0  0  0
  -26.7219  -34.7105   23.9552 C   0  0  0  0  0  0  0  0  0  0  0  0
  -24.6021  -20.2556   19.8320 C   0  0  0  0  0  0  0  0  0  0  0  0
  -26.8000  -20.1674   21.0841 C   0  0  0  0  0  0  0  0  0  0  0  0
  -26.1039  -13.9264   23.7247 C   0  0  0  0  0  0  0  0  0  0  0  0
  -24.8144  -21.7458   19.5652 C   0  0  0  0  0  0  0  0  0  0  0  0
  -27.0116  -21.6576   20.8168 C   0  0  0  0  0  0  0  0  0  0  0  0
  -25.3938  -16.2093   24.5327 C   0  0  0  0  0  0  0  0  0  0  0  0
  -24.8455  -15.5297   22.2177 C   0  0  0  0  0  0  0  0  0  0  0  0
  -27.2104  -34.2189   22.5873 C   0  0  1  0  0  0  0  0  0  0  0  0
  -24.6737  -31.7411   21.2238 C   0  0  1  0  0  0  0  0  0  0  0  0
  -25.3086  -19.8034   21.1182 C   0  0  0  0  0  0  0  0  0  0  0  0
  -25.8901  -14.4010   22.2765 C   0  0  2  0  0  0  0  0  0  0  0  0
  -26.3017  -22.0867   19.5357 C   0  0  0  0  0  0  0  0  0  0  0  0
  -18.3141  -27.8979   23.4122 C   0  0  0  0  0  0  0  0  0  0  0  0
  -23.7645  -30.9035   25.6772 C   0  0  0  0  0  0  0  0  0  0  0  0
  -21.7853  -29.4344   26.1162 C   0  0  0  0  0  0  0  0  0  0  0  0
  -21.4465  -31.7904   25.3698 C   0  0  0  0  0  0  0  0  0  0  0  0
  -19.8578  -27.9421   19.9349 C   0  0  0  0  0  0  0  0  0  0  0  0
  -25.1254  -18.3024   21.3340 C   0  0  0  0  0  0  0  0  0  0  0  0
  -27.8049  -23.9833   18.9209 C   0  0  0  0  0  0  0  0  0  0  0  0
  -27.8250  -25.4905   18.7597 C   0  0  0  0  0  0  0  0  0  1  0  0
  -22.3001  -30.0775   23.7178 C   0  0  1  0  0  0  0  0  0  0  0  0
  -19.1976  -28.4290   22.2941 C   0  0  2  0  0  0  0  0  0  0  0  0
  -22.3430  -30.5446   25.2001 C   0  0  0  0  0  0  0  0  0  0  0  0
  -24.8205  -12.2209   21.8450 N   0  0  0  0  0  0  0  0  0  0  0  0
  -25.5322  -13.2500   21.3544 N   0  0  0  0  0  0  0  0  0  0  0  0
  -23.9664  -30.7258   22.0069 N   0  0  0  0  0  0  0  0  0  0  0  0
  -25.2035  -16.6167   23.1395 N   0  0  0  0  0  0  0  0  0  0  0  0
  -26.5651  -14.0629   19.3840 N   0  0  0  0  0  0  0  0  0  0  0  0
  -26.4822  -10.5253   18.0154 N   0  0  0  0  0  0  0  0  0  0  0  0
  -26.1393  -33.5528   21.8776 N   0  0  0  0  0  0  0  0  0  0  0  0
  -20.9628  -29.7569   23.2308 N   0  0  0  0  0  0  0  0  0  0  0  0
  -26.4555  -23.5562   19.3692 N   0  3  0  0  0  0  0  0  0  0  0  0
  -19.0600  -27.5256   21.1169 N   0  3  0  0  0  0  0  0  0  0  0  0
  -24.5464  -11.6067   17.4306 O   0  0  0  0  0  0  0  0  0  0  0  0
  -26.3805  -31.4404   22.8273 O   0  0  0  0  0  0  0  0  0  0  0  0
  -25.6023  -18.8621   23.5859 O   0  0  0  0  0  0  0  0  0  0  0  0
  -22.3230  -32.2237   22.7080 O   0  0  0  0  0  0  0  0  0  0  0  0
  -21.4273  -27.5640   22.6370 O   0  0  0  0  0  0  0  0  0  0  0  0
  -21.8995   -6.5910   21.2754 O   0  0  0  0  0  0  0  0  0  0  0  0
  -27.5389  -26.1088   20.0136 O   0  0  0  0  0  0  0  0  0  1  0  0
  -20.8591   -4.7409   26.3645 F   0  0  0  0  0  0  0  0  0  0  0  0
  -22.8582   -4.1383   22.1164 F   0  0  0  0  0  0  0  0  0  0  0  0
  1  2  1  0  0  0  0
  1  5  2  0  0  0  0
  2  6  2  0  0  0  0
  3  8  2  0  0  0  0
  3 15  1  0  0  0  0
  4  9  1  0  0  0  0
  4 15  2  0  0  0  0
  5 17  1  0  0  0  0
  6 19  1  0  0  0  0
  7 10  2  0  0  0  0
  7 18  1  0  0  0  0
  8 21  1  0  0  0  0
  9 21  2  0  0  0  0
 10 22  1  0  0  0  0
 11 12  2  0  0  0  0
 11 23  1  0  0  0  0
 12 24  1  0  0  0  0
 13 20  1  0  0  0  0
 13 22  2  0  0  0  0
 14 24  2  0  0  0  0
 14 25  1  0  0  0  0
 15 26  1  0  0  0  0
 16 26  1  0  0  0  0
 16 27  2  0  0  0  0
 16 28  1  0  0  0  0
 17 19  2  0  0  0  0
 17 33  1  0  0  0  0
 18 20  2  0  0  0  0
 18 34  1  0  0  0  0
 19 46  1  0  0  0  0
 20 35  1  0  0  0  0
 21 77  1  0  0  0  0
 22 78  1  0  0  0  0
 23 25  2  0  0  0  0
 23 77  1  0  0  0  0
 24 79  1  0  0  0  0
 25 80  1  0  0  0  0
 26 62  2  0  0  0  0
 27 63  1  0  0  0  0
 27 66  1  0  0  0  0
 28 67  1  0  0  0  0
 28 72  2  0  0  0  0
 29 47  1  0  0  0  0
 29 68  1  0  0  0  0
 29 73  2  0  0  0  0
 30 56  1  0  0  0  0
 30 65  1  0  0  0  0
 30 74  2  0  0  0  0
 31 59  1  0  0  0  0
 31 64  1  0  0  0  0
 31 75  2  0  0  0  0
 32 60  1  0  0  0  0
 32 69  1  0  0  0  0
 32 76  2  0  0  0  0
 33 36  1  0  0  0  0
 34 47  1  0  0  0  0
 35 64  1  0  0  0  0
 36 38  1  0  0  0  0
 37 41  1  0  0  0  0
 37 44  1  0  0  0  0
 38 46  1  0  0  0  0
 39 42  1  0  0  0  0
 39 48  1  0  0  0  0
 40 43  1  0  0  0  0
 40 48  1  0  0  0  0
 41 49  1  0  0  0  0
 42 50  1  0  0  0  0
 43 50  1  0  0  0  0
 44 65  1  0  0  0  0
 45 49  1  0  0  0  0
 45 65  1  0  0  0  0
 46 68  1  0  0  0  0
 47 64  1  0  0  0  0
 48 56  1  0  0  0  0
 49 63  1  0  0  0  0
 50 70  1  0  0  0  0
 51 60  1  0  0  0  0
 52 61  1  0  0  0  0
 53 61  1  0  0  0  0
 54 61  1  0  0  0  0
 55 71  1  0  0  0  0
 57 58  1  0  0  0  0
 57 70  1  0  0  0  0
 58 78  1  0  0  0  0
 59 61  1  0  0  0  0
 59 69  1  0  0  0  0
 60 71  1  0  0  0  0
 62 63  1  0  0  0  0
M  CHG  2  70   1  71   1
M  ISO  4  30 100  56 100  58 101  78 101
M  END
> <Batch ID>
0131

> <Smiles>
CNC(C)C(=O)NC(C(=O)N1Cc2cc([101O:1][101CH2:1]CNC3CCC([100CH2:0][100C:0](=O)N4CCCC(n5nc(-c6ccc(Oc7ccc(F)cc7F)cc6)c(C(N)=O)c5N)C4)CC3)ccc2CC1C(=O)NC1CCCc2ccccc21)C(C)(C)C

> <Shape>
0.263

> <Color>
0.120

> <Negative vol penalty>
0.000

$$$$

  -OEChem-04052320503D

 89 98  0     1  0  0  0  0  0999 V2000
  -17.2748  -26.3433   22.7094 C   0  0  0  0  0  0  0  0  0  0  0  0
  -18.3744  -25.8676   22.0022 C   0  0  0  0  0  0  0  0  0  0  0  0
  -24.6232  -14.1647   23.9500 C   0  0  0  0  0  0  0  0  0  0  0  0
  -24.2741  -15.8549   22.2594 C   0  0  0  0  0  0  0  0  0  0  0  0
  -17.3528  -27.5640   23.3786 C   0  0  0  0  0  0  0  0  0  0  0  0
  -19.5523  -26.6128   21.9629 C   0  0  0  0  0  0  0  0  0  0  0  0
  -23.7427  -23.7311   22.7552 C   0  0  0  0  0  0  0  0  0  0  0  0
  -24.2194  -15.0662   24.9348 C   0  0  0  0  0  0  0  0  0  0  0  0
  -23.8701  -16.7565   23.2442 C   0  0  0  0  0  0  0  0  0  0  0  0
  -24.2228  -22.9560   21.7005 C   0  0  0  0  0  0  0  0  0  0  0  0
  -25.3343  -18.7367   25.5606 C   0  0  0  0  0  0  0  0  0  0  0  0
  -25.8481  -20.0322   25.5033 C   0  0  0  0  0  0  0  0  0  0  0  0
  -31.2722  -21.1532   17.2589 C   0  0  0  0  0  0  0  0  0  0  0  0
  -25.8591  -24.6570   21.2033 C   0  0  0  0  0  0  0  0  0  0  0  0
  -29.5066  -19.9207   18.3468 C   0  0  0  0  0  0  0  0  0  0  0  0
  -23.6076  -20.9116   25.2944 C   0  0  0  0  0  0  0  0  0  0  0  0
  -24.6506  -14.5590   22.6123 C   0  0  0  0  0  0  0  0  0  0  0  0
  -24.2531  -12.7371   20.8716 C   0  0  0  0  0  0  0  0  0  0  0  0
  -18.5355  -28.3200   23.3555 C   0  0  0  0  0  0  0  0  0  0  0  0
  -24.3111  -24.9819   23.0363 C   0  0  0  0  0  0  0  0  0  0  0  0
  -19.6458  -27.8454   22.6313 C   0  0  0  0  0  0  0  0  0  0  0  0
  -30.8619  -22.3342   17.8960 C   0  0  0  0  0  0  0  0  0  0  0  0
  -25.3875  -25.4438   22.2651 C   0  0  0  0  0  0  0  0  0  0  0  0
  -29.7733  -22.2961   18.7868 C   0  0  0  0  0  0  0  0  0  0  0  0
  -30.5959  -19.9542   17.4814 C   0  0  0  0  0  0  0  0  0  0  0  0
  -23.8428  -16.3621   24.5819 C   0  0  0  0  0  0  0  0  0  0  0  0
  -25.2797  -23.4199   20.9229 C   0  0  0  0  0  0  0  0  0  0  0  0
  -23.9571  -18.5287   25.4847 C   0  0  0  0  0  0  0  0  0  0  0  0
  -29.0950  -21.0854   18.9940 C   0  0  0  0  0  0  0  0  0  0  0  0
  -24.9848  -21.1197   25.3702 C   0  0  0  0  0  0  0  0  0  0  0  0
  -23.0938  -19.6161   25.3516 C   0  0  0  0  0  0  0  0  0  0  0  0
  -25.0683  -13.6284   21.5947 C   0  0  0  0  0  0  0  0  0  0  0  0
  -25.1212  -12.0801   20.0343 C   0  0  0  0  0  0  0  0  0  0  0  0
  -22.8376  -12.5223   20.9499 C   0  0  0  0  0  0  0  0  0  0  0  0
  -23.3026  -28.0183   23.1318 C   0  0  0  0  0  0  0  0  0  0  0  0
  -26.3912  -28.4618   24.2795 C   0  0  0  0  0  0  0  0  0  0  0  0
  -25.5214  -31.6124   25.2575 C   0  0  0  0  0  0  0  0  0  0  0  0
  -30.4577  -13.5320   17.7397 C   0  0  0  0  0  0  0  0  0  0  0  0
  -18.5567  -29.6560   24.0548 C   0  0  0  0  0  0  0  0  0  0  0  0
  -23.7981  -25.7892   24.1980 C   0  0  0  0  0  0  0  0  0  0  0  0
  -31.6396  -23.6040   17.6555 C   0  0  0  0  0  0  0  0  0  0  0  0
  -29.2771  -23.5410   19.4790 C   0  0  0  0  0  0  0  0  0  0  0  0
  -26.0340  -26.7769   22.5286 C   0  0  0  0  0  0  0  0  0  0  0  0
  -19.9636  -30.2062   24.2745 C   0  0  0  0  0  0  0  0  0  0  0  0
  -30.8882  -24.8623   18.0863 C   0  0  0  0  0  0  0  0  0  0  0  0
  -30.2961  -24.6790   19.4776 C   0  0  0  0  0  0  0  0  0  0  0  0
  -29.6852  -10.6784   19.7239 C   0  0  0  0  0  0  0  0  0  0  0  0
  -20.7909  -30.0812   22.9991 C   0  0  0  0  0  0  0  0  0  0  0  0
  -28.3408  -11.0305   20.3631 C   0  0  0  0  0  0  0  0  0  0  0  0
  -30.5895  -11.9028   19.6011 C   0  0  0  0  0  0  0  0  0  0  0  0
  -28.6376  -13.4065   19.5475 C   0  0  0  0  0  0  0  0  0  0  0  0
  -20.9491  -28.6130   22.5857 C   0  0  1  0  0  0  0  0  0  0  0  0
  -24.1568  -27.2715   24.1167 C   0  0  1  0  0  0  0  0  0  0  0  0
  -27.6697  -12.2146   19.6415 C   0  0  2  0  0  0  0  0  0  0  0  0
  -26.3723  -33.5714   26.5750 C   0  0  0  0  0  0  0  0  0  0  0  0
  -25.7710  -26.9820   26.8739 C   0  0  0  0  0  0  0  0  0  0  0  0
  -25.7107  -29.1967   28.0400 C   0  0  0  0  0  0  0  0  0  0  0  0
  -27.8173  -28.4174   26.9549 C   0  0  0  0  0  0  0  0  0  0  0  0
  -25.4399  -33.3876   22.8909 C   0  0  0  0  0  0  0  0  0  0  0  0
  -30.3686  -17.5142   17.0116 C   0  0  0  0  0  0  0  0  0  0  0  0
  -30.1780  -15.2074   15.9303 C   0  0  0  0  0  0  0  0  0  0  0  0
  -25.6429  -21.2482   20.0241 C   0  0  0  0  0  0  0  0  0  1  0  0
  -26.7850  -20.5931   19.2717 C   0  0  0  0  0  0  0  0  0  0  0  0
  -25.8844  -29.1713   25.5101 C   0  0  1  0  0  0  0  0  0  0  0  0
  -26.2746  -32.9292   25.2000 C   0  0  2  0  0  0  0  0  0  0  0  0
  -31.0609  -16.4285   16.1865 C   0  0  2  0  0  0  0  0  0  0  0  0
  -26.2789  -28.4368   26.8225 C   0  0  0  0  0  0  0  0  0  0  0  0
  -26.3554  -13.5475   21.2472 N   0  0  0  0  0  0  0  0  0  0  0  0
  -26.3556  -12.5974   20.2967 N   0  0  0  0  0  0  0  0  0  0  0  0
  -25.5548  -27.4863   23.7220 N   0  0  0  0  0  0  0  0  0  0  0  0
  -29.8942  -12.9888   18.9061 N   0  0  0  0  0  0  0  0  0  0  0  0
  -24.9415  -11.1160   19.1065 N   0  0  0  0  0  0  0  0  0  0  0  0
  -22.0960  -13.2826   21.8643 N   0  0  0  0  0  0  0  0  0  0  0  0
  -31.0160  -18.7765   16.8292 N   0  0  0  0  0  0  0  0  0  0  0  0
  -21.9492  -27.9624   23.4048 N   0  0  0  0  0  0  0  0  0  0  0  0
  -26.3753  -30.5423   25.4221 N   0  0  0  0  0  0  0  0  0  0  0  0
  -29.7310  -14.5532   17.1398 N   0  0  0  0  0  0  0  0  0  0  0  0
  -32.2953  -15.9901   16.9014 N   0  3  0  0  0  0  0  0  0  0  0  0
  -25.5842  -33.8812   24.2846 N   0  3  0  0  0  0  0  0  0  0  0  0
  -22.2505  -11.6694   20.2418 O   0  0  0  0  0  0  0  0  0  0  0  0
  -23.8323  -28.6032   22.1943 O   0  0  0  0  0  0  0  0  0  0  0  0
  -27.5010  -28.7569   23.8274 O   0  0  0  0  0  0  0  0  0  0  0  0
  -24.2976  -31.5406   25.1694 O   0  0  0  0  0  0  0  0  0  0  0  0
  -31.5264  -13.1326   17.2650 O   0  0  0  0  0  0  0  0  0  0  0  0
  -23.4485  -17.2420   25.5425 O   0  0  0  0  0  0  0  0  0  0  0  0
  -25.7506  -22.6651   19.8931 O   0  0  0  0  0  0  0  0  0  1  0  0
  -28.0186  -21.0170   19.8389 O   0  0  0  0  0  0  0  0  0  0  0  0
  -25.4783  -22.3638   25.3167 F   0  0  0  0  0  0  0  0  0  0  0  0
  -21.7697  -19.4226   25.2794 F   0  0  0  0  0  0  0  0  0  0  0  0
  1  2  1  0  0  0  0
  1  5  2  0  0  0  0
  2  6  2  0  0  0  0
  3  8  2  0  0  0  0
  3 17  1  0  0  0  0
  4  9  1  0  0  0  0
  4 17  2  0  0  0  0
  5 19  1  0  0  0  0
  6 21  1  0  0  0  0
  7 10  2  0  0  0  0
  7 20  1  0  0  0  0
  8 26  1  0  0  0  0
  9 26  2  0  0  0  0
 10 27  1  0  0  0  0
 11 12  2  0  0  0  0
 11 28  1  0  0  0  0
 12 30  1  0  0  0  0
 13 22  2  0  0  0  0
 13 25  1  0  0  0  0
 14 23  1  0  0  0  0
 14 27  2  0  0  0  0
 15 25  2  0  0  0  0
 15 29  1  0  0  0  0
 16 30  2  0  0  0  0
 16 31  1  0  0  0  0
 17 32  1  0  0  0  0
 18 32  1  0  0  0  0
 18 33  2  0  0  0  0
 18 34  1  0  0  0  0
 19 21  2  0  0  0  0
 19 39  1  0  0  0  0
 20 23  2  0  0  0  0
 20 40  1  0  0  0  0
 21 52  1  0  0  0  0
 22 24  1  0  0  0  0
 22 41  1  0  0  0  0
 23 43  1  0  0  0  0
 24 29  2  0  0  0  0
 24 42  1  0  0  0  0
 25 74  1  0  0  0  0
 26 85  1  0  0  0  0
 27 86  1  0  0  0  0
 28 31  2  0  0  0  0
 28 85  1  0  0  0  0
 29 87  1  0  0  0  0
 30 88  1  0  0  0  0
 31 89  1  0  0  0  0
 32 68  2  0  0  0  0
 33 69  1  0  0  0  0
 33 72  1  0  0  0  0
 34 73  1  0  0  0  0
 34 80  2  0  0  0  0
 35 53  1  0  0  0  0
 35 75  1  0  0  0  0
 35 81  2  0  0  0  0
 36 64  1  0  0  0  0
 36 70  1  0  0  0  0
 36 82  2  0  0  0  0
 37 65  1  0  0  0  0
 37 76  1  0  0  0  0
 37 83  2  0  0  0  0
 38 71  1  0  0  0  0
 38 77  1  0  0  0  0
 38 84  2  0  0  0  0
 39 44  1  0  0  0  0
 40 53  1  0  0  0  0
 41 45  1  0  0  0  0
 42 46  1  0  0  0  0
 43 70  1  0  0  0  0
 44 48  1  0  0  0  0
 45 46  1  0  0  0  0
 47 49  1  0  0  0  0
 47 50  1  0  0  0  0
 48 52  1  0  0  0  0
 49 54  1  0  0  0  0
 50 71  1  0  0  0  0
 51 54  1  0  0  0  0
 51 71  1  0  0  0  0
 52 75  1  0  0  0  0
 53 70  1  0  0  0  0
 54 69  1  0  0  0  0
 55 65  1  0  0  0  0
 56 67  1  0  0  0  0
 57 67  1  0  0  0  0
 58 67  1  0  0  0  0
 59 79  1  0  0  0  0
 60 66  1  0  0  0  0
 60 74  1  0  0  0  0
 61 66  1  0  0  0  0
 61 77  1  0  0  0  0
 62 63  1  0  0  0  0
 62 86  1  0  0  0  0
 63 87  1  0  0  0  0
 64 67  1  0  0  0  0
 64 76  1  0  0  0  0
 65 79  1  0  0  0  0
 66 78  1  0  0  0  0
 68 69  1  0  0  0  0
M  CHG  2  78   1  79   1
M  ISO  4  38 100  62 101  77 100  86 101
M  END
> <Batch ID>
0131

> <Smiles>
CNC(C)C(=O)NC(C(=O)N1Cc2cc([101O:1][101CH2:1]COc3cc(NCC(N)C[100NH:0][100C:0](=O)N4CCCC(n5nc(-c6ccc(Oc7ccc(F)cc7F)cc6)c(C(N)=O)c5N)C4)cc4c3CCCC4)ccc2CC1C(=O)NC1CCCc2ccccc21)C(C)(C)C

> <Shape>
0.245

> <Color>
0.076

> <Negative vol penalty>
0.000

$$$$

  -OEChem-04052320503D

 86 95  0     1  0  0  0  0  0999 V2000
  -18.4693  -27.8102   22.2469 C   0  0  0  0  0  0  0  0  0  0  0  0
  -18.6995  -26.4597   22.0049 C   0  0  0  0  0  0  0  0  0  0  0  0
  -28.8437  -22.9743   20.6565 C   0  0  0  0  0  0  0  0  0  0  0  0
  -29.6719  -22.4973   18.4376 C   0  0  0  0  0  0  0  0  0  0  0  0
  -19.5094  -28.6245   22.6930 C   0  0  0  0  0  0  0  0  0  0  0  0
  -19.9703  -25.9229   22.2079 C   0  0  0  0  0  0  0  0  0  0  0  0
  -21.3118  -20.2974   24.2226 C   0  0  0  0  0  0  0  0  0  0  0  0
  -29.4279  -24.2398   20.6025 C   0  0  0  0  0  0  0  0  0  0  0  0
  -30.2560  -23.7628   18.3835 C   0  0  0  0  0  0  0  0  0  0  0  0
  -21.6766  -19.1260   23.5603 C   0  0  0  0  0  0  0  0  0  0  0  0
  -28.7391  -27.2439   19.2117 C   0  0  0  0  0  0  0  0  0  0  0  0
  -27.9761  -28.3290   19.6429 C   0  0  0  0  0  0  0  0  0  0  0  0
  -24.0011  -19.6281   23.9652 C   0  0  0  0  0  0  0  0  0  0  0  0
  -24.8170  -12.9723   21.9146 C   0  0  0  0  0  0  0  0  0  0  0  0
  -25.2035  -14.0138   19.7747 C   0  0  0  0  0  0  0  0  0  0  0  0
  -29.6290  -28.8187   21.3356 C   0  0  0  0  0  0  0  0  0  0  0  0
  -28.9658  -22.1030   19.5741 C   0  0  0  0  0  0  0  0  0  0  0  0
  -27.0637  -20.4402   19.2207 C   0  0  0  0  0  0  0  0  0  0  0  0
  -20.7913  -28.0954   22.9107 C   0  0  0  0  0  0  0  0  0  0  0  0
  -22.2911  -21.1499   24.7526 C   0  0  0  0  0  0  0  0  0  0  0  0
  -21.0289  -26.7312   22.6560 C   0  0  0  0  0  0  0  0  0  0  0  0
  -23.6460  -20.8084   24.6360 C   0  0  0  0  0  0  0  0  0  0  0  0
  -25.3152  -11.7577   21.4221 C   0  0  0  0  0  0  0  0  0  0  0  0
  -25.6883  -12.8046   19.2735 C   0  0  0  0  0  0  0  0  0  0  0  0
  -25.7354  -11.6583   20.0801 C   0  0  0  0  0  0  0  0  0  0  0  0
  -30.1340  -24.6341   19.4660 C   0  0  0  0  0  0  0  0  0  0  0  0
  -23.0215  -18.7927   23.4290 C   0  0  0  0  0  0  0  0  0  0  0  0
  -29.9471  -26.9461   19.8425 C   0  0  0  0  0  0  0  0  0  0  0  0
  -24.7641  -14.0963   21.0928 C   0  0  0  0  0  0  0  0  0  0  0  0
  -28.4210  -29.1164   20.7048 C   0  0  0  0  0  0  0  0  0  0  0  0
  -30.3920  -27.7336   20.9044 C   0  0  0  0  0  0  0  0  0  0  0  0
  -28.3632  -20.7954   19.6295 C   0  0  0  0  0  0  0  0  0  0  0  0
  -26.9790  -19.0937   19.4776 C   0  0  0  0  0  0  0  0  0  0  0  0
  -26.0261  -21.2547   18.6588 C   0  0  0  0  0  0  0  0  0  0  0  0
  -23.1673  -24.1598   24.2271 C   0  0  0  0  0  0  0  0  0  0  0  0
  -25.1159  -23.6255   26.7647 C   0  0  0  0  0  0  0  0  0  0  0  0
  -26.8017  -21.3762   28.7001 C   0  0  0  0  0  0  0  0  0  0  0  0
  -29.1673  -13.9622   19.3218 C   0  0  0  0  0  0  0  0  0  0  0  0
  -21.8956  -29.0248   23.3482 C   0  0  0  0  0  0  0  0  0  0  0  0
  -21.8801  -22.3962   25.4875 C   0  0  0  0  0  0  0  0  0  0  0  0
  -25.3584  -10.5475   22.3229 C   0  0  0  0  0  0  0  0  0  0  0  0
  -24.7351  -21.6794   25.2049 C   0  0  0  0  0  0  0  0  0  0  0  0
  -23.1211  -28.2987   23.8970 C   0  0  0  0  0  0  0  0  0  0  0  0
  -26.3559   -9.5092   21.8095 C   0  0  0  0  0  0  0  0  0  0  0  0
  -30.0618  -16.0369   22.0736 C   0  0  0  0  0  0  0  0  0  0  0  0
  -23.5129  -27.1444   22.9801 C   0  0  0  0  0  0  0  0  0  0  0  0
  -29.5982  -17.4307   21.6466 C   0  0  0  0  0  0  0  0  0  0  0  0
  -26.1215   -9.2395   20.3279 C   0  0  0  0  0  0  0  0  0  0  0  0
  -30.6006  -15.2346   20.8912 C   0  0  0  0  0  0  0  0  0  0  0  0
  -29.2201  -16.5300   19.3133 C   0  0  0  0  0  0  0  0  0  0  0  0
  -22.3877  -26.1066   22.8881 C   0  0  1  0  0  0  0  0  0  0  0  0
  -22.9816  -23.4504   25.5386 C   0  0  1  0  0  0  0  0  0  0  0  0
  -28.6166  -17.3567   20.4616 C   0  0  2  0  0  0  0  0  0  0  0  0
  -28.3396  -21.2424   30.6786 C   0  0  0  0  0  0  0  0  0  0  0  0
  -27.4365  -24.5672   25.0217 C   0  0  0  0  0  0  0  0  0  0  0  0
  -29.0067  -23.5325   26.6746 C   0  0  0  0  0  0  0  0  0  0  0  0
  -27.5024  -25.3926   27.3816 C   0  0  0  0  0  0  0  0  0  0  0  0
  -24.8607  -19.7635   30.2462 C   0  0  0  0  0  0  0  0  0  0  0  0
  -26.1470  -12.7749   17.8491 C   0  0  0  0  0  0  0  0  0  0  0  0
  -27.6698  -12.8300   17.6986 C   0  0  0  0  0  0  0  0  0  0  0  0
  -24.5868  -17.0162   23.2053 C   0  0  0  0  0  0  0  0  0  1  0  0
  -24.4688  -15.5223   22.9730 C   0  0  0  0  0  0  0  0  0  0  0  0
  -26.5215  -23.1042   26.9422 C   0  0  1  0  0  0  0  0  0  0  0  0
  -26.8942  -21.2134   30.2065 C   0  0  2  0  0  0  0  0  0  0  0  0
  -27.5966  -24.1335   26.4925 C   0  0  0  0  0  0  0  0  0  0  0  0
  -29.0541  -19.7582   20.1099 N   0  0  0  0  0  0  0  0  0  0  0  0
  -28.1856  -18.7380   20.0046 N   0  0  0  0  0  0  0  0  0  0  0  0
  -26.2348  -10.4677   19.5651 N   0  0  0  0  0  0  0  0  0  0  0  0
  -24.2830  -22.8907   25.9092 N   0  0  0  0  0  0  0  0  0  0  0  0
  -29.6212  -15.2015   19.8024 N   0  0  0  0  0  0  0  0  0  0  0  0
  -25.9907  -18.1910   19.3021 N   0  0  0  0  0  0  0  0  0  0  0  0
  -26.2805  -22.6187   18.4613 N   0  0  0  0  0  0  0  0  0  0  0  0
  -22.3678  -25.2763   24.0732 N   0  0  0  0  0  0  0  0  0  0  0  0
  -26.6322  -22.6960   28.3385 N   0  0  0  0  0  0  0  0  0  0  0  0
  -28.2350  -14.0207   18.2932 N   0  0  0  0  0  0  0  0  0  0  0  0
  -26.2888  -19.9177   30.6256 N   0  3  0  0  0  0  0  0  0  0  0  0
  -24.9009  -20.7900   18.3565 O   0  0  0  0  0  0  0  0  0  0  0  0
  -23.9771  -23.7271   23.4155 O   0  0  0  0  0  0  0  0  0  0  0  0
  -24.7676  -24.6432   27.3687 O   0  0  0  0  0  0  0  0  0  0  0  0
  -26.8764  -20.4280   27.9218 O   0  0  0  0  0  0  0  0  0  0  0  0
  -29.5596  -12.8834   19.7794 O   0  0  0  0  0  0  0  0  0  0  0  0
  -30.7039  -25.8690   19.4128 O   0  0  0  0  0  0  0  0  0  0  0  0
  -23.3803  -17.6503   22.7824 O   0  0  0  0  0  0  0  0  0  1  0  0
  -24.2828  -15.2815   21.5835 O   0  0  0  0  0  0  0  0  0  0  0  0
  -27.6889  -30.1593   21.1177 F   0  0  0  0  0  0  0  0  0  0  0  0
  -31.5522  -27.4532   21.5136 F   0  0  0  0  0  0  0  0  0  0  0  0
  1  2  1  0  0  0  0
  1  5  2  0  0  0  0
  2  6  2  0  0  0  0
  3  8  2  0  0  0  0
  3 17  1  0  0  0  0
  4  9  1  0  0  0  0
  4 17  2  0  0  0  0
  5 19  1  0  0  0  0
  6 21  1  0  0  0  0
  7 10  2  0  0  0  0
  7 20  1  0  0  0  0
  8 26  1  0  0  0  0
  9 26  2  0  0  0  0
 10 27  1  0  0  0  0
 11 12  2  0  0  0  0
 11 28  1  0  0  0  0
 12 30  1  0  0  0  0
 13 22  1  0  0  0  0
 13 27  2  0  0  0  0
 14 23  2  0  0  0  0
 14 29  1  0  0  0  0
 15 24  1  0  0  0  0
 15 29  2  0  0  0  0
 16 30  2  0  0  0  0
 16 31  1  0  0  0  0
 17 32  1  0  0  0  0
 18 32  1  0  0  0  0
 18 33  2  0  0  0  0
 18 34  1  0  0  0  0
 19 21  2  0  0  0  0
 19 39  1  0  0  0  0
 20 22  2  0  0  0  0
 20 40  1  0  0  0  0
 21 51  1  0  0  0  0
 22 42  1  0  0  0  0
 23 25  1  0  0  0  0
 23 41  1  0  0  0  0
 24 25  2  0  0  0  0
 24 59  1  0  0  0  0
 25 68  1  0  0  0  0
 26 82  1  0  0  0  0
 27 83  1  0  0  0  0
 28 31  2  0  0  0  0
 28 82  1  0  0  0  0
 29 84  1  0  0  0  0
 30 85  1  0  0  0  0
 31 86  1  0  0  0  0
 32 66  2  0  0  0  0
 33 67  1  0  0  0  0
 33 71  1  0  0  0  0
 34 72  1  0  0  0  0
 34 77  2  0  0  0  0
 35 52  1  0  0  0  0
 35 73  1  0  0  0  0
 35 78  2  0  0  0  0
 36 63  1  0  0  0  0
 36 69  1  0  0  0  0
 36 79  2  0  0  0  0
 37 64  1  0  0  0  0
 37 74  1  0  0  0  0
 37 80  2  0  0  0  0
 38 70  1  0  0  0  0
 38 75  1  0  0  0  0
 38 81  2  0  0  0  0
 39 43  1  0  0  0  0
 40 52  1  0  0  0  0
 41 44  1  0  0  0  0
 42 69  1  0  0  0  0
 43 46  1  0  0  0  0
 44 48  1  0  0  0  0
 45 47  1  0  0  0  0
 45 49  1  0  0  0  0
 46 51  1  0  0  0  0
 47 53  1  0  0  0  0
 48 68  1  0  0  0  0
 49 70  1  0  0  0  0
 50 53  1  0  0  0  0
 50 70  1  0  0  0  0
 51 73  1  0  0  0  0
 52 69  1  0  0  0  0
 53 67  1  0  0  0  0
 54 64  1  0  0  0  0
 55 65  1  0  0  0  0
 56 65  1  0  0  0  0
 57 65  1  0  0  0  0
 58 76  1  0  0  0  0
 59 60  1  0  0  0  0
 60 75  1  0  0  0  0
 61 62  1  0  0  0  0
 61 83  1  0  0  0  0
 62 84  1  0  0  0  0
 63 65  1  0  0  0  0
 63 74  1  0  0  0  0
 64 76  1  0  0  0  0
 66 67  1  0  0  0  0
M  CHG  1  76   1
M  ISO  4  38 100  61 101  75 100  83 101
M  END
> <Batch ID>
0131

> <Smiles>
CNC(C)C(=O)NC(C(=O)N1Cc2cc([101O:1][101CH2:1]COc3cc4c(c(CC[100NH:0][100C:0](=O)N5CCCC(n6nc(-c7ccc(Oc8ccc(F)cc8F)cc7)c(C(N)=O)c6N)C5)c3)NCCC4)ccc2CC1C(=O)NC1CCCc2ccccc21)C(C)(C)C

> <Shape>
0.236

> <Color>
0.057

> <Negative vol penalty>
0.000

$$$$

  -OEChem-04052320503D

 84 93  0     1  0  0  0  0  0999 V2000
  -27.0933  -34.8001   21.5346 C   0  0  0  0  0  0  0  0  0  0  0  0
  -27.3215  -33.4783   21.1657 C   0  0  0  0  0  0  0  0  0  0  0  0
  -23.1029   -9.8586   19.8673 C   0  0  0  0  0  0  0  0  0  0  0  0
  -23.9316   -9.7308   22.1332 C   0  0  0  0  0  0  0  0  0  0  0  0
  -26.1199  -35.0988   22.4871 C   0  0  0  0  0  0  0  0  0  0  0  0
  -26.5771  -32.4541   21.7500 C   0  0  0  0  0  0  0  0  0  0  0  0
  -28.5186  -21.3367   19.0183 C   0  0  0  0  0  0  0  0  0  0  0  0
  -24.7187  -27.2671   19.0766 C   0  0  0  0  0  0  0  0  0  0  0  0
  -29.1162  -20.3005   19.7326 C   0  0  0  0  0  0  0  0  0  0  0  0
  -22.4002   -8.6688   20.0572 C   0  0  0  0  0  0  0  0  0  0  0  0
  -23.2289   -8.5409   22.3231 C   0  0  0  0  0  0  0  0  0  0  0  0
  -25.2284  -25.9695   19.0911 C   0  0  0  0  0  0  0  0  0  0  0  0
  -20.0447   -7.6051   22.9597 C   0  0  0  0  0  0  0  0  0  0  0  0
  -19.3251   -7.4614   24.1459 C   0  0  0  0  0  0  0  0  0  0  0  0
  -23.6941  -25.3931   20.8611 C   0  0  0  0  0  0  0  0  0  0  0  0
  -26.9498  -19.6323   20.5618 C   0  0  0  0  0  0  0  0  0  0  0  0
  -20.6432   -5.5167   24.7099 C   0  0  0  0  0  0  0  0  0  0  0  0
  -23.8687  -10.3896   20.9053 C   0  0  0  0  0  0  0  0  0  0  0  0
  -24.1344  -12.9263   20.9521 C   0  0  0  0  0  0  0  0  0  0  0  0
  -25.3565  -34.0786   23.0763 C   0  0  0  0  0  0  0  0  0  0  0  0
  -23.6986  -27.6411   19.9631 C   0  0  0  0  0  0  0  0  0  0  0  0
  -25.5935  -32.7393   22.7123 C   0  0  0  0  0  0  0  0  0  0  0  0
  -27.1308  -21.5324   19.0781 C   0  0  0  0  0  0  0  0  0  0  0  0
  -23.1714  -26.6953   20.8540 C   0  0  0  0  0  0  0  0  0  0  0  0
  -26.3278  -20.6602   19.8376 C   0  0  0  0  0  0  0  0  0  0  0  0
  -28.3327  -19.4513   20.5078 C   0  0  0  0  0  0  0  0  0  0  0  0
  -22.4632   -8.0099   21.2851 C   0  0  0  0  0  0  0  0  0  0  0  0
  -24.7182  -25.0331   19.9854 C   0  0  0  0  0  0  0  0  0  0  0  0
  -21.0634   -6.7045   22.6485 C   0  0  0  0  0  0  0  0  0  0  0  0
  -19.6244   -6.4173   25.0211 C   0  0  0  0  0  0  0  0  0  0  0  0
  -21.3627   -5.6604   23.5236 C   0  0  0  0  0  0  0  0  0  0  0  0
  -24.5952  -11.6184   20.7096 C   0  0  0  0  0  0  0  0  0  0  0  0
  -25.1932  -13.7321   20.6112 C   0  0  0  0  0  0  0  0  0  0  0  0
  -22.8630  -13.3729   21.4419 C   0  0  0  0  0  0  0  0  0  0  0  0
  -23.4356  -29.7667   22.3118 C   0  0  0  0  0  0  0  0  0  0  0  0
  -20.3350  -28.8137   22.3017 C   0  0  0  0  0  0  0  0  0  0  0  0
  -18.0509  -26.3915   21.5514 C   0  0  0  0  0  0  0  0  0  0  0  0
  -30.6488  -14.9031   20.7147 C   0  0  0  0  0  0  0  0  0  0  0  0
  -24.3482  -34.4462   24.1359 C   0  0  0  0  0  0  0  0  0  0  0  0
  -23.1412  -29.0373   19.9166 C   0  0  0  0  0  0  0  0  0  0  0  0
  -26.5050  -22.6601   18.2912 C   0  0  0  0  0  0  0  0  0  0  0  0
  -22.0621  -27.0408   21.8124 C   0  0  0  0  0  0  0  0  0  0  0  0
  -23.3442  -33.3353   24.4328 C   0  0  0  0  0  0  0  0  0  0  0  0
  -29.5077  -12.6550   18.2006 C   0  0  0  0  0  0  0  0  0  0  0  0
  -24.0600  -31.9981   24.5950 C   0  0  0  0  0  0  0  0  0  0  0  0
  -28.0931  -12.2883   18.6525 C   0  0  0  0  0  0  0  0  0  0  0  0
  -30.4542  -12.8205   19.3875 C   0  0  0  0  0  0  0  0  0  0  0  0
  -28.5754  -13.3958   20.8751 C   0  0  0  0  0  0  0  0  0  0  0  0
  -24.2674  -21.7564   19.0376 C   0  0  0  0  0  0  0  0  0  0  0  0
  -24.7894  -31.6027   23.3054 C   0  0  1  0  0  0  0  0  0  0  0  0
  -22.4573  -29.4513   21.2159 C   0  0  1  0  0  0  0  0  0  0  0  0
  -27.5713  -13.2730   19.7162 C   0  0  2  0  0  0  0  0  0  0  0  0
  -25.1042  -23.0095   18.7973 C   0  0  1  0  0  0  0  0  0  1  0  0
  -15.5971  -25.8858   21.6938 C   0  0  0  0  0  0  0  0  0  0  0  0
  -20.6231  -28.2685   25.2899 C   0  0  0  0  0  0  0  0  0  0  0  0
  -18.5231  -26.9104   25.1738 C   0  0  0  0  0  0  0  0  0  0  0  0
  -18.4642  -29.3440   24.6292 C   0  0  0  0  0  0  0  0  0  0  0  0
  -17.8132  -26.1441   18.6118 C   0  0  0  0  0  0  0  0  0  0  0  0
  -30.3453  -18.1635   21.2266 C   0  0  0  0  0  0  0  0  0  0  0  0
  -30.6907  -16.9643   22.0963 C   0  0  0  0  0  0  0  0  0  0  0  0
  -19.5454  -27.7362   23.0049 C   0  0  1  0  0  0  0  0  0  0  0  0
  -16.7148  -26.4545   20.8335 C   0  0  2  0  0  0  0  0  0  0  0  0
  -19.3112  -28.0585   24.5078 C   0  0  0  0  0  0  0  0  0  0  0  0
  -25.8490  -11.5904   20.2500 N   0  0  0  0  0  0  0  0  0  0  0  0
  -26.1850  -12.8907   20.2009 N   0  0  0  0  0  0  0  0  0  0  0  0
  -24.9521  -20.8284   19.9185 N   0  0  0  0  0  0  0  0  0  0  0  0
  -21.5547  -28.4206   21.7329 N   0  0  0  0  0  0  0  0  0  0  0  0
  -29.9017  -13.7682   20.3583 N   0  0  0  0  0  0  0  0  0  0  0  0
  -25.3631  -15.0713   20.6254 N   0  0  0  0  0  0  0  0  0  0  0  0
  -21.8882  -12.4121   21.7434 N   0  0  0  0  0  0  0  0  0  0  0  0
  -28.9361  -18.4061   21.2382 N   0  0  0  0  0  0  0  0  0  0  0  0
  -23.8513  -31.0843   22.3329 N   0  0  0  0  0  0  0  0  0  0  0  0
  -18.3197  -27.5592   22.2337 N   0  0  0  0  0  0  0  0  0  0  0  0
  -30.0492  -15.7529   21.6362 N   0  0  0  0  0  0  0  0  0  0  0  0
  -16.7721  -25.6773   19.5633 N   0  3  0  0  0  0  0  0  0  0  0  0
  -22.5936  -14.5889   21.5916 O   0  0  0  0  0  0  0  0  0  0  0  0
  -23.7862  -28.8806   23.0823 O   0  0  0  0  0  0  0  0  0  0  0  0
  -19.8827  -29.9603   22.2524 O   0  0  0  0  0  0  0  0  0  0  0  0
  -18.7813  -25.4037   21.5139 O   0  0  0  0  0  0  0  0  0  0  0  0
  -31.7649  -15.1441   20.2424 O   0  0  0  0  0  0  0  0  0  0  0  0
  -21.7774   -6.8490   21.4708 O   0  0  0  0  0  0  0  0  0  0  0  0
  -25.2144  -23.7661   20.0022 O   0  0  0  0  0  0  0  0  0  1  0  0
  -18.9343   -6.2803   26.1609 F   0  0  0  0  0  0  0  0  0  0  0  0
  -22.3411   -4.7928   23.2306 F   0  0  0  0  0  0  0  0  0  0  0  0
  1  2  1  0  0  0  0
  1  5  2  0  0  0  0
  2  6  2  0  0  0  0
  3 10  2  0  0  0  0
  3 18  1  0  0  0  0
  4 11  1  0  0  0  0
  4 18  2  0  0  0  0
  5 20  1  0  0  0  0
  6 22  1  0  0  0  0
  7  9  2  0  0  0  0
  7 23  1  0  0  0  0
  8 12  2  0  0  0  0
  8 21  1  0  0  0  0
  9 26  1  0  0  0  0
 10 27  1  0  0  0  0
 11 27  2  0  0  0  0
 12 28  1  0  0  0  0
 13 14  2  0  0  0  0
 13 29  1  0  0  0  0
 14 30  1  0  0  0  0
 15 24  1  0  0  0  0
 15 28  2  0  0  0  0
 16 25  1  0  0  0  0
 16 26  2  0  0  0  0
 17 30  2  0  0  0  0
 17 31  1  0  0  0  0
 18 32  1  0  0  0  0
 19 32  1  0  0  0  0
 19 33  2  0  0  0  0
 19 34  1  0  0  0  0
 20 22  2  0  0  0  0
 20 39  1  0  0  0  0
 21 24  2  0  0  0  0
 21 40  1  0  0  0  0
 22 50  1  0  0  0  0
 23 25  2  0  0  0  0
 23 41  1  0  0  0  0
 24 42  1  0  0  0  0
 25 66  1  0  0  0  0
 26 71  1  0  0  0  0
 27 81  1  0  0  0  0
 28 82  1  0  0  0  0
 29 31  2  0  0  0  0
 29 81  1  0  0  0  0
 30 83  1  0  0  0  0
 31 84  1  0  0  0  0
 32 64  2  0  0  0  0
 33 65  1  0  0  0  0
 33 69  1  0  0  0  0
 34 70  1  0  0  0  0
 34 76  2  0  0  0  0
 35 51  1  0  0  0  0
 35 72  1  0  0  0  0
 35 77  2  0  0  0  0
 36 61  1  0  0  0  0
 36 67  1  0  0  0  0
 36 78  2  0  0  0  0
 37 62  1  0  0  0  0
 37 73  1  0  0  0  0
 37 79  2  0  0  0  0
 38 68  1  0  0  0  0
 38 74  1  0  0  0  0
 38 80  2  0  0  0  0
 39 43  1  0  0  0  0
 40 51  1  0  0  0  0
 41 53  1  0  0  0  0
 42 67  1  0  0  0  0
 43 45  1  0  0  0  0
 44 46  1  0  0  0  0
 44 47  1  0  0  0  0
 45 50  1  0  0  0  0
 46 52  1  0  0  0  0
 47 68  1  0  0  0  0
 48 52  1  0  0  0  0
 48 68  1  0  0  0  0
 49 53  1  0  0  0  0
 49 66  1  0  0  0  0
 50 72  1  0  0  0  0
 51 67  1  0  0  0  0
 52 65  1  0  0  0  0
 53 82  1  0  0  0  0
 54 62  1  0  0  0  0
 55 63  1  0  0  0  0
 56 63  1  0  0  0  0
 57 63  1  0  0  0  0
 58 75  1  0  0  0  0
 59 60  1  0  0  0  0
 59 71  1  0  0  0  0
 60 74  1  0  0  0  0
 61 63  1  0  0  0  0
 61 73  1  0  0  0  0
 62 75  1  0  0  0  0
 64 65  1  0  0  0  0
M  CHG  1  75   1
M  ISO  4  38 100  53 101  74 100  82 101
M  END
> <Batch ID>
0131

> <Smiles>
CNC(C)C(=O)NC(C(=O)N1Cc2cc([101O:1][101CH:1]3CNc4cc(NCC[100NH:0][100C:0](=O)N5CCCC(n6nc(-c7ccc(Oc8ccc(F)cc8F)cc7)c(C(N)=O)c6N)C5)ccc4C3)ccc2CC1C(=O)NC1CCCc2ccccc21)C(C)(C)C

> <Shape>
0.373

> <Color>
0.199

> <Negative vol penalty>
0.000

$$$$

  -OEChem-04052320503D

 85 94  0     1  0  0  0  0  0999 V2000
  -29.3858  -30.7575   13.8907 C   0  0  0  0  0  0  0  0  0  0  0  0
  -29.3147  -29.7074   14.8005 C   0  0  0  0  0  0  0  0  0  0  0  0
  -22.8916  -10.1544   19.9604 C   0  0  0  0  0  0  0  0  0  0  0  0
  -23.8180   -9.8645   22.1728 C   0  0  0  0  0  0  0  0  0  0  0  0
  -28.8453  -32.0002   14.2186 C   0  0  0  0  0  0  0  0  0  0  0  0
  -28.7039  -29.8998   16.0392 C   0  0  0  0  0  0  0  0  0  0  0  0
  -25.6071  -26.0933   17.2902 C   0  0  0  0  0  0  0  0  0  0  0  0
  -29.2672  -21.1386   19.2190 C   0  0  0  0  0  0  0  0  0  0  0  0
  -29.8038  -20.0279   19.8701 C   0  0  0  0  0  0  0  0  0  0  0  0
  -22.0955   -9.0242   20.1456 C   0  0  0  0  0  0  0  0  0  0  0  0
  -23.0218   -8.7342   22.3581 C   0  0  0  0  0  0  0  0  0  0  0  0
  -26.1964  -24.9246   17.7704 C   0  0  0  0  0  0  0  0  0  0  0  0
  -23.0560   -5.4834   21.4294 C   0  0  0  0  0  0  0  0  0  0  0  0
  -23.6556   -4.3520   21.9824 C   0  0  0  0  0  0  0  0  0  0  0  0
  -27.6302  -19.5195   20.7942 C   0  0  0  0  0  0  0  0  0  0  0  0
  -25.6782  -25.5980   20.0280 C   0  0  0  0  0  0  0  0  0  0  0  0
  -22.0999   -4.4303   23.8292 C   0  0  0  0  0  0  0  0  0  0  0  0
  -23.7529  -10.5746   20.9740 C   0  0  0  0  0  0  0  0  0  0  0  0
  -24.2469  -13.0743   21.0958 C   0  0  0  0  0  0  0  0  0  0  0  0
  -28.2190  -32.2052   15.4581 C   0  0  0  0  0  0  0  0  0  0  0  0
  -25.0576  -27.0299   18.1775 C   0  0  0  0  0  0  0  0  0  0  0  0
  -28.1557  -31.1468   16.3844 C   0  0  0  0  0  0  0  0  0  0  0  0
  -27.0936  -20.6302   20.1431 C   0  0  0  0  0  0  0  0  0  0  0  0
  -25.0802  -26.7766   19.5564 C   0  0  0  0  0  0  0  0  0  0  0  0
  -27.9120  -21.4398   19.3555 C   0  0  0  0  0  0  0  0  0  0  0  0
  -28.9854  -19.2183   20.6577 C   0  0  0  0  0  0  0  0  0  0  0  0
  -22.1606   -8.3140   21.3444 C   0  0  0  0  0  0  0  0  0  0  0  0
  -26.2346  -24.6781   19.1396 C   0  0  0  0  0  0  0  0  0  0  0  0
  -21.9784   -6.0884   22.0763 C   0  0  0  0  0  0  0  0  0  0  0  0
  -23.1775   -3.8254   23.1823 C   0  0  0  0  0  0  0  0  0  0  0  0
  -21.5003   -5.5618   23.2762 C   0  0  0  0  0  0  0  0  0  0  0  0
  -24.5759  -11.7417   20.7831 C   0  0  0  0  0  0  0  0  0  0  0  0
  -25.3552  -13.7971   20.7273 C   0  0  0  0  0  0  0  0  0  0  0  0
  -23.0468  -13.6108   21.6681 C   0  0  0  0  0  0  0  0  0  0  0  0
  -25.6588  -30.0696   18.8861 C   0  0  0  0  0  0  0  0  0  0  0  0
  -22.9911  -29.7668   20.7066 C   0  0  0  0  0  0  0  0  0  0  0  0
  -20.8665  -27.7132   22.4140 C   0  0  0  0  0  0  0  0  0  0  0  0
  -30.8921  -14.4802   20.5804 C   0  0  0  0  0  0  0  0  0  0  0  0
  -27.6912  -33.5793   15.7863 C   0  0  0  0  0  0  0  0  0  0  0  0
  -24.4017  -28.2730   17.6420 C   0  0  0  0  0  0  0  0  0  0  0  0
  -24.4862  -27.7406   20.5496 C   0  0  0  0  0  0  0  0  0  0  0  0
  -26.7289  -33.5952   16.9713 C   0  0  0  0  0  0  0  0  0  0  0  0
  -23.5051  -20.3637   20.0812 C   0  0  0  0  0  0  0  0  0  0  0  0
  -29.4297  -12.4426   18.0533 C   0  0  0  0  0  0  0  0  0  0  0  0
  -24.6057  -20.7764   19.0855 C   0  0  0  0  0  0  0  0  0  0  0  0
  -24.6368  -19.9127   21.0246 C   0  0  0  0  0  0  0  0  0  0  0  0
  -27.2939  -32.7779   18.1287 C   0  0  0  0  0  0  0  0  0  0  0  0
  -28.0123  -12.1837   18.5670 C   0  0  0  0  0  0  0  0  0  0  0  0
  -30.4455  -12.4772   19.1930 C   0  0  0  0  0  0  0  0  0  0  0  0
  -28.7027  -13.1553   20.7981 C   0  0  0  0  0  0  0  0  0  0  0  0
  -25.5521  -20.9533   20.3113 C   0  0  0  0  0  0  0  0  0  0  0  0
  -27.4791  -31.3093   17.7283 C   0  0  1  0  0  0  0  0  0  0  0  0
  -24.3314  -29.4005   18.6672 C   0  0  1  0  0  0  0  0  0  0  0  0
  -27.6348  -13.1672   19.6910 C   0  0  2  0  0  0  0  0  0  0  0  0
  -18.7975  -27.7601   23.8334 C   0  0  0  0  0  0  0  0  0  0  0  0
  -24.6341  -30.7953   23.0631 C   0  0  0  0  0  0  0  0  0  0  0  0
  -22.8497  -29.9337   24.5934 C   0  0  0  0  0  0  0  0  0  0  0  0
  -22.3118  -31.7138   22.9306 C   0  0  0  0  0  0  0  0  0  0  0  0
  -19.3691  -26.0338   20.4913 C   0  0  0  0  0  0  0  0  0  0  0  0
  -27.3547  -22.6390   18.6465 C   0  0  0  0  0  0  0  0  0  1  0  0
  -30.9081  -17.7317   21.2220 C   0  0  0  0  0  0  0  0  0  0  0  0
  -31.1878  -16.4732   22.0294 C   0  0  0  0  0  0  0  0  0  0  0  0
  -22.7097  -29.3490   22.1297 C   0  0  1  0  0  0  0  0  0  0  0  0
  -19.3516  -27.6153   22.4245 C   0  0  2  0  0  0  0  0  0  0  0  0
  -23.1393  -30.4305   23.1609 C   0  0  0  0  0  0  0  0  0  0  0  0
  -25.7976  -11.6222   20.2565 N   0  0  0  0  0  0  0  0  0  0  0  0
  -26.2459  -12.8889   20.2353 N   0  0  0  0  0  0  0  0  0  0  0  0
  -23.8618  -28.9448   19.9772 N   0  0  0  0  0  0  0  0  0  0  0  0
  -30.0294  -13.4303   20.2247 N   0  0  0  0  0  0  0  0  0  0  0  0
  -25.6450  -15.1146   20.7795 N   0  0  0  0  0  0  0  0  0  0  0  0
  -22.0061  -12.7280   21.9873 N   0  0  0  0  0  0  0  0  0  0  0  0
  -29.5285  -18.0963   21.3174 N   0  0  0  0  0  0  0  0  0  0  0  0
  -26.2081  -30.6174   17.7426 N   0  0  0  0  0  0  0  0  0  0  0  0
  -21.2933  -29.0035   22.1812 N   0  0  0  0  0  0  0  0  0  0  0  0
  -30.4180  -15.3420   21.5619 N   0  0  0  0  0  0  0  0  0  0  0  0
  -18.9138  -26.2988   21.8804 N   0  3  0  0  0  0  0  0  0  0  0  0
  -22.8953  -14.8388   21.8747 O   0  0  0  0  0  0  0  0  0  0  0  0
  -26.1477  -30.0889   20.0096 O   0  0  0  0  0  0  0  0  0  0  0  0
  -22.4525  -30.7811   20.2564 O   0  0  0  0  0  0  0  0  0  0  0  0
  -21.5980  -26.7428   22.5978 O   0  0  0  0  0  0  0  0  0  0  0  0
  -32.0003  -14.6410   20.0579 O   0  0  0  0  0  0  0  0  0  0  0  0
  -21.3837   -7.2112   21.5255 O   0  0  0  0  0  0  0  0  0  0  0  0
  -26.8098  -23.5385   19.6110 O   0  0  0  0  0  0  0  0  0  1  0  0
  -23.7524   -2.7379   23.7125 F   0  0  0  0  0  0  0  0  0  0  0  0
  -20.4646   -6.1379   23.9017 F   0  0  0  0  0  0  0  0  0  0  0  0
  1  2  1  0  0  0  0
  1  5  2  0  0  0  0
  2  6  2  0  0  0  0
  3 10  2  0  0  0  0
  3 18  1  0  0  0  0
  4 11  1  0  0  0  0
  4 18  2  0  0  0  0
  5 20  1  0  0  0  0
  6 22  1  0  0  0  0
  7 12  2  0  0  0  0
  7 21  1  0  0  0  0
  8  9  2  0  0  0  0
  8 25  1  0  0  0  0
  9 26  1  0  0  0  0
 10 27  1  0  0  0  0
 11 27  2  0  0  0  0
 12 28  1  0  0  0  0
 13 14  2  0  0  0  0
 13 29  1  0  0  0  0
 14 30  1  0  0  0  0
 15 23  1  0  0  0  0
 15 26  2  0  0  0  0
 16 24  1  0  0  0  0
 16 28  2  0  0  0  0
 17 30  2  0  0  0  0
 17 31  1  0  0  0  0
 18 32  1  0  0  0  0
 19 32  1  0  0  0  0
 19 33  2  0  0  0  0
 19 34  1  0  0  0  0
 20 22  2  0  0  0  0
 20 39  1  0  0  0  0
 21 24  2  0  0  0  0
 21 40  1  0  0  0  0
 22 52  1  0  0  0  0
 23 25  2  0  0  0  0
 23 51  1  0  0  0  0
 24 41  1  0  0  0  0
 25 60  1  0  0  0  0
 26 72  1  0  0  0  0
 27 82  1  0  0  0  0
 28 83  1  0  0  0  0
 29 31  2  0  0  0  0
 29 82  1  0  0  0  0
 30 84  1  0  0  0  0
 31 85  1  0  0  0  0
 32 66  2  0  0  0  0
 33 67  1  0  0  0  0
 33 70  1  0  0  0  0
 34 71  1  0  0  0  0
 34 77  2  0  0  0  0
 35 53  1  0  0  0  0
 35 73  1  0  0  0  0
 35 78  2  0  0  0  0
 36 63  1  0  0  0  0
 36 68  1  0  0  0  0
 36 79  2  0  0  0  0
 37 64  1  0  0  0  0
 37 74  1  0  0  0  0
 37 80  2  0  0  0  0
 38 69  1  0  0  0  0
 38 75  1  0  0  0  0
 38 81  2  0  0  0  0
 39 42  1  0  0  0  0
 40 53  1  0  0  0  0
 41 68  1  0  0  0  0
 42 47  1  0  0  0  0
 43 45  1  0  0  0  0
 43 46  1  0  0  0  0
 44 48  1  0  0  0  0
 44 49  1  0  0  0  0
 45 51  1  0  0  0  0
 46 51  1  0  0  0  0
 47 52  1  0  0  0  0
 48 54  1  0  0  0  0
 49 69  1  0  0  0  0
 50 54  1  0  0  0  0
 50 69  1  0  0  0  0
 52 73  1  0  0  0  0
 53 68  1  0  0  0  0
 54 67  1  0  0  0  0
 55 64  1  0  0  0  0
 56 65  1  0  0  0  0
 57 65  1  0  0  0  0
 58 65  1  0  0  0  0
 59 76  1  0  0  0  0
 60 83  1  0  0  0  0
 61 62  1  0  0  0  0
 61 72  1  0  0  0  0
 62 75  1  0  0  0  0
 63 65  1  0  0  0  0
 63 74  1  0  0  0  0
 64 76  1  0  0  0  0
 66 67  1  0  0  0  0
M  CHG  1  76   1
M  ISO  4  38 100  60 101  75 100  83 101
M  END
> <Batch ID>
0131

> <Smiles>
CNC(C)C(=O)NC(C(=O)N1Cc2cc([101O:1][101CH2:1]c3ccc(NCC[100NH:0][100C:0](=O)N4CCCC(n5nc(-c6ccc(Oc7ccc(F)cc7F)cc6)c(C(N)=O)c5N)C4)cc3C3CCC3)ccc2CC1C(=O)NC1CCCc2ccccc21)C(C)(C)C

> <Shape>
0.345

> <Color>
0.201

> <Negative vol penalty>
0.000

$$$$

  -OEChem-04052320503D

 86 95  0     1  0  0  0  0  0999 V2000
  -30.0491  -26.0249   10.5495 C   0  0  0  0  0  0  0  0  0  0  0  0
  -29.6929  -25.4821   11.7799 C   0  0  0  0  0  0  0  0  0  0  0  0
  -23.0708   -9.8706   19.9447 C   0  0  0  0  0  0  0  0  0  0  0  0
  -23.8330   -9.8796   22.2374 C   0  0  0  0  0  0  0  0  0  0  0  0
  -31.3581  -26.4515   10.3298 C   0  0  0  0  0  0  0  0  0  0  0  0
  -30.6459  -25.3647   12.7911 C   0  0  0  0  0  0  0  0  0  0  0  0
  -28.9290  -21.5515   19.1145 C   0  0  0  0  0  0  0  0  0  0  0  0
  -28.8916  -26.8660   17.2981 C   0  0  0  0  0  0  0  0  0  0  0  0
  -29.4218  -20.3391   19.5956 C   0  0  0  0  0  0  0  0  0  0  0  0
  -22.3249   -8.7194   20.1972 C   0  0  0  0  0  0  0  0  0  0  0  0
  -23.0870   -8.7283   22.4899 C   0  0  0  0  0  0  0  0  0  0  0  0
  -28.0632  -25.9805   17.9860 C   0  0  0  0  0  0  0  0  0  0  0  0
  -19.8578   -7.9379   23.0968 C   0  0  0  0  0  0  0  0  0  0  0  0
  -19.1020   -7.9013   24.2685 C   0  0  0  0  0  0  0  0  0  0  0  0
  -29.9320  -25.3035   19.3529 C   0  0  0  0  0  0  0  0  0  0  0  0
  -20.3402   -5.9625   25.0067 C   0  0  0  0  0  0  0  0  0  0  0  0
  -23.8249  -10.4507   20.9648 C   0  0  0  0  0  0  0  0  0  0  0  0
  -24.1717  -12.9750   20.8405 C   0  0  0  0  0  0  0  0  0  0  0  0
  -32.3253  -26.3482   11.3419 C   0  0  0  0  0  0  0  0  0  0  0  0
  -30.2512  -26.9692   17.6257 C   0  0  0  0  0  0  0  0  0  0  0  0
  -31.9695  -25.7891   12.5842 C   0  0  0  0  0  0  0  0  0  0  0  0
  -27.6310  -21.9783   19.4394 C   0  0  0  0  0  0  0  0  0  0  0  0
  -30.7750  -26.1930   18.6693 C   0  0  0  0  0  0  0  0  0  0  0  0
  -26.8314  -21.1756   20.2736 C   0  0  0  0  0  0  0  0  0  0  0  0
  -27.3360  -19.9527   20.7430 C   0  0  0  0  0  0  0  0  0  0  0  0
  -28.6249  -19.5392   20.4085 C   0  0  0  0  0  0  0  0  0  0  0  0
  -22.3329   -8.1482   21.4698 C   0  0  0  0  0  0  0  0  0  0  0  0
  -28.5839  -25.1970   19.0117 C   0  0  0  0  0  0  0  0  0  0  0  0
  -20.8549   -6.9868   22.8800 C   0  0  0  0  0  0  0  0  0  0  0  0
  -19.3432   -6.9137   25.2235 C   0  0  0  0  0  0  0  0  0  0  0  0
  -21.0961   -5.9991   23.8349 C   0  0  0  0  0  0  0  0  0  0  0  0
  -24.5961  -11.6397   20.7045 C   0  0  0  0  0  0  0  0  0  0  0  0
  -25.2650  -13.7217   20.4750 C   0  0  0  0  0  0  0  0  0  0  0  0
  -22.9026  -13.4940   21.2599 C   0  0  0  0  0  0  0  0  0  0  0  0
  -32.9776  -26.4439   16.0782 C   0  0  0  0  0  0  0  0  0  0  0  0
  -34.2922  -27.6923   18.7681 C   0  0  0  0  0  0  0  0  0  0  0  0
  -33.9970  -28.3393   22.1059 C   0  0  0  0  0  0  0  0  0  0  0  0
  -30.7509  -14.7301   20.6564 C   0  0  0  0  0  0  0  0  0  0  0  0
  -33.7391  -26.7793   11.0418 C   0  0  0  0  0  0  0  0  0  0  0  0
  -31.1256  -27.9487   16.8919 C   0  0  0  0  0  0  0  0  0  0  0  0
  -25.4168  -21.5636   20.6283 C   0  0  0  0  0  0  0  0  0  0  0  0
  -32.2233  -26.2810   19.0733 C   0  0  0  0  0  0  0  0  0  0  0  0
  -34.5972  -26.9653   12.2905 C   0  0  0  0  0  0  0  0  0  0  0  0
  -29.6062  -12.3442   18.2745 C   0  0  0  0  0  0  0  0  0  0  0  0
  -34.4223  -25.7839   13.2394 C   0  0  0  0  0  0  0  0  0  0  0  0
  -28.1686  -12.0540   18.7093 C   0  0  0  0  0  0  0  0  0  0  0  0
  -25.6225  -23.4702   19.0095 C   0  0  0  0  0  0  0  0  0  0  0  0
  -30.5250  -12.5650   19.4741 C   0  0  0  0  0  0  0  0  0  0  0  0
  -28.6260  -13.3020   20.8614 C   0  0  0  0  0  0  0  0  0  0  0  0
  -32.9688  -25.6680   13.7141 C   0  0  1  0  0  0  0  0  0  0  0  0
  -27.1427  -23.3075   18.9196 C   0  0  1  0  0  0  0  0  0  1  0  0
  -32.6085  -27.5983   16.9665 C   0  0  1  0  0  0  0  0  0  0  0  0
  -25.1106  -23.0500   20.3933 C   0  0  1  0  0  0  0  0  0  0  0  0
  -27.6504  -13.1276   19.6850 C   0  0  2  0  0  0  0  0  0  0  0  0
  -26.4909  -19.0623   21.6041 C   0  0  0  0  0  0  0  0  0  0  0  0
  -23.6125  -23.3174   20.5251 C   0  0  0  0  0  0  0  0  0  0  0  0
  -35.2506  -29.3364   24.0377 C   0  0  0  0  0  0  0  0  0  0  0  0
  -36.0249  -25.1862   18.9340 C   0  0  0  0  0  0  0  0  0  0  0  0
  -36.5331  -25.7795   21.3126 C   0  0  0  0  0  0  0  0  0  0  0  0
  -37.2184  -27.3172   19.4718 C   0  0  0  0  0  0  0  0  0  0  0  0
  -31.9321  -30.4180   22.5233 C   0  0  0  0  0  0  0  0  0  0  0  0
  -30.5399  -18.0264   20.9281 C   0  0  0  0  0  0  0  0  0  0  0  0
  -30.8223  -16.8824   21.8899 C   0  0  0  0  0  0  0  0  0  0  0  0
  -34.7725  -27.1292   20.0839 C   0  0  1  0  0  0  0  0  0  0  0  0
  -34.2582  -29.5968   22.9152 C   0  0  2  0  0  0  0  0  0  0  0  0
  -36.1103  -26.3497   19.9419 C   0  0  0  0  0  0  0  0  0  0  0  0
  -25.8604  -11.5407   20.2851 N   0  0  0  0  0  0  0  0  0  0  0  0
  -26.2397  -12.8233   20.1544 N   0  0  0  0  0  0  0  0  0  0  0  0
  -33.0393  -27.2488   18.3217 N   0  0  0  0  0  0  0  0  0  0  0  0
  -29.9773  -13.5960   20.3590 N   0  0  0  0  0  0  0  0  0  0  0  0
  -25.4780  -15.0527   20.3998 N   0  0  0  0  0  0  0  0  0  0  0  0
  -21.8892  -12.5874   21.5996 N   0  0  0  0  0  0  0  0  0  0  0  0
  -29.1405  -18.3119   20.8810 N   0  0  0  0  0  0  0  0  0  0  0  0
  -32.6931  -26.6492   14.7416 N   0  0  0  0  0  0  0  0  0  0  0  0
  -34.8316  -28.2535   21.0117 N   0  0  0  0  0  0  0  0  0  0  0  0
  -30.1545  -15.6614   21.4976 N   0  0  0  0  0  0  0  0  0  0  0  0
  -32.9902  -30.0988   23.5160 N   0  3  0  0  0  0  0  0  0  0  0  0
  -22.6689  -14.7252   21.3156 O   0  0  0  0  0  0  0  0  0  0  0  0
  -33.4843  -25.4419   16.5689 O   0  0  0  0  0  0  0  0  0  0  0  0
  -34.9994  -28.5013   18.1623 O   0  0  0  0  0  0  0  0  0  0  0  0
  -33.1409  -27.5137   22.4157 O   0  0  0  0  0  0  0  0  0  0  0  0
  -31.8868  -14.9026   20.2014 O   0  0  0  0  0  0  0  0  0  0  0  0
  -21.6050   -7.0250   21.7165 O   0  0  0  0  0  0  0  0  0  0  0  0
  -27.7777  -24.3313   19.6843 O   0  0  0  0  0  0  0  0  0  1  0  0
  -18.6183   -6.8796   26.3493 F   0  0  0  0  0  0  0  0  0  0  0  0
  -22.0534   -5.0834   23.6328 F   0  0  0  0  0  0  0  0  0  0  0  0
  1  2  1  0  0  0  0
  1  5  2  0  0  0  0
  2  6  2  0  0  0  0
  3 10  2  0  0  0  0
  3 17  1  0  0  0  0
  4 11  1  0  0  0  0
  4 17  2  0  0  0  0
  5 19  1  0  0  0  0
  6 21  1  0  0  0  0
  7  9  1  0  0  0  0
  7 22  2  0  0  0  0
  8 12  2  0  0  0  0
  8 20  1  0  0  0  0
  9 26  2  0  0  0  0
 10 27  1  0  0  0  0
 11 27  2  0  0  0  0
 12 28  1  0  0  0  0
 13 14  2  0  0  0  0
 13 29  1  0  0  0  0
 14 30  1  0  0  0  0
 15 23  1  0  0  0  0
 15 28  2  0  0  0  0
 16 30  2  0  0  0  0
 16 31  1  0  0  0  0
 17 32  1  0  0  0  0
 18 32  1  0  0  0  0
 18 33  2  0  0  0  0
 18 34  1  0  0  0  0
 19 21  2  0  0  0  0
 19 39  1  0  0  0  0
 20 23  2  0  0  0  0
 20 40  1  0  0  0  0
 21 50  1  0  0  0  0
 22 24  1  0  0  0  0
 22 51  1  0  0  0  0
 23 42  1  0  0  0  0
 24 25  2  0  0  0  0
 24 41  1  0  0  0  0
 25 26  1  0  0  0  0
 25 55  1  0  0  0  0
 26 73  1  0  0  0  0
 27 83  1  0  0  0  0
 28 84  1  0  0  0  0
 29 31  2  0  0  0  0
 29 83  1  0  0  0  0
 30 85  1  0  0  0  0
 31 86  1  0  0  0  0
 32 67  2  0  0  0  0
 33 68  1  0  0  0  0
 33 71  1  0  0  0  0
 34 72  1  0  0  0  0
 34 78  2  0  0  0  0
 35 52  1  0  0  0  0
 35 74  1  0  0  0  0
 35 79  2  0  0  0  0
 36 64  1  0  0  0  0
 36 69  1  0  0  0  0
 36 80  2  0  0  0  0
 37 65  1  0  0  0  0
 37 75  1  0  0  0  0
 37 81  2  0  0  0  0
 38 70  1  0  0  0  0
 38 76  1  0  0  0  0
 38 82  2  0  0  0  0
 39 43  1  0  0  0  0
 40 52  1  0  0  0  0
 41 53  1  0  0  0  0
 42 69  1  0  0  0  0
 43 45  1  0  0  0  0
 44 46  1  0  0  0  0
 44 48  1  0  0  0  0
 45 50  1  0  0  0  0
 46 54  1  0  0  0  0
 47 51  1  0  0  0  0
 47 53  1  0  0  0  0
 48 70  1  0  0  0  0
 49 54  1  0  0  0  0
 49 70  1  0  0  0  0
 50 74  1  0  0  0  0
 51 84  1  0  0  0  0
 52 69  1  0  0  0  0
 53 56  1  0  0  0  0
 54 68  1  0  0  0  0
 57 65  1  0  0  0  0
 58 66  1  0  0  0  0
 59 66  1  0  0  0  0
 60 66  1  0  0  0  0
 61 77  1  0  0  0  0
 62 63  1  0  0  0  0
 62 73  1  0  0  0  0
 63 76  1  0  0  0  0
 64 66  1  0  0  0  0
 64 75  1  0  0  0  0
 65 77  1  0  0  0  0
 67 68  1  0  0  0  0
M  CHG  1  77   1
M  ISO  4  38 100  51 101  76 100  84 101
M  END
> <Batch ID>
0131

> <Smiles>
CNC(C)C(=O)NC(C(=O)N1Cc2cc([101O:1][101CH:1]3CC(C)Cc4c3ccc(NCC[100NH:0][100C:0](=O)N3CCCC(n5nc(-c6ccc(Oc7ccc(F)cc7F)cc6)c(C(N)=O)c5N)C3)c4C)ccc2CC1C(=O)NC1CCCc2ccccc21)C(C)(C)C

> <Shape>
0.233

> <Color>
0.192

> <Negative vol penalty>
0.000

$$$$

  -OEChem-04052320503D

 90 99  0     1  0  0  0  0  0999 V2000
  -24.9330  -23.1995   16.9400 C   0  0  0  0  0  0  0  0  0  0  0  0
  -24.2481  -24.3198   17.3969 C   0  0  0  0  0  0  0  0  0  0  0  0
  -24.1255  -14.6698   22.0072 C   0  0  0  0  0  0  0  0  0  0  0  0
  -25.1439  -15.6868   20.0666 C   0  0  0  0  0  0  0  0  0  0  0  0
  -26.1485  -22.8452   17.5215 C   0  0  0  0  0  0  0  0  0  0  0  0
  -24.7843  -25.0929   18.4273 C   0  0  0  0  0  0  0  0  0  0  0  0
  -22.4564  -29.2877   19.5175 C   0  0  0  0  0  0  0  0  0  0  0  0
  -18.5231  -26.1236   21.9441 C   0  0  0  0  0  0  0  0  0  0  0  0
  -19.4386  -25.7941   20.9448 C   0  0  0  0  0  0  0  0  0  0  0  0
  -24.7940  -13.4768   21.7328 C   0  0  0  0  0  0  0  0  0  0  0  0
  -25.8125  -14.4937   19.7923 C   0  0  0  0  0  0  0  0  0  0  0  0
  -21.2218  -29.3184   20.1645 C   0  0  0  0  0  0  0  0  0  0  0  0
  -28.5434  -12.8542   20.9213 C   0  0  0  0  0  0  0  0  0  0  0  0
  -29.8947  -12.9330   20.5845 C   0  0  0  0  0  0  0  0  0  0  0  0
  -22.3210  -29.9406   22.2197 C   0  0  0  0  0  0  0  0  0  0  0  0
  -20.0742  -25.3416   23.6232 C   0  0  0  0  0  0  0  0  0  0  0  0
  -29.4223  -11.9064   18.4490 C   0  0  0  0  0  0  0  0  0  0  0  0
  -24.3004  -15.7748   21.1740 C   0  0  0  0  0  0  0  0  0  0  0  0
  -23.7132  -17.7924   22.6206 C   0  0  0  0  0  0  0  0  0  0  0  0
  -26.6931  -23.6078   18.5679 C   0  0  0  0  0  0  0  0  0  0  0  0
  -23.6357  -29.5731   20.2206 C   0  0  0  0  0  0  0  0  0  0  0  0
  -26.0215  -24.7654   19.0109 C   0  0  0  0  0  0  0  0  0  0  0  0
  -23.5690  -29.9154   21.5787 C   0  0  0  0  0  0  0  0  0  0  0  0
  -18.8409  -25.8974   23.2834 C   0  0  0  0  0  0  0  0  0  0  0  0
  -20.6720  -25.2382   21.2847 C   0  0  0  0  0  0  0  0  0  0  0  0
  -20.9898  -25.0119   22.6239 C   0  0  0  0  0  0  0  0  0  0  0  0
  -25.6375  -13.3887   20.6254 C   0  0  0  0  0  0  0  0  0  0  0  0
  -21.1542  -29.6420   21.5164 C   0  0  0  0  0  0  0  0  0  0  0  0
  -27.6315  -12.3015   20.0220 C   0  0  0  0  0  0  0  0  0  0  0  0
  -30.3341  -12.4591   19.3484 C   0  0  0  0  0  0  0  0  0  0  0  0
  -28.0710  -11.8276   18.7859 C   0  0  0  0  0  0  0  0  0  0  0  0
  -23.6096  -17.0074   21.4566 C   0  0  0  0  0  0  0  0  0  0  0  0
  -22.8646  -18.8493   22.3985 C   0  0  0  0  0  0  0  0  0  0  0  0
  -24.5057  -17.5848   23.7972 C   0  0  0  0  0  0  0  0  0  0  0  0
  -26.2777  -27.9507   20.9217 C   0  0  0  0  0  0  0  0  0  0  0  0
  -27.2500  -30.8082   22.1098 C   0  0  0  0  0  0  0  0  0  0  0  0
  -26.3977  -33.8588   23.3804 C   0  0  0  0  0  0  0  0  0  0  0  0
  -20.8245  -22.8363   19.0688 C   0  0  0  0  0  0  0  0  0  0  0  0
  -28.0157  -23.1834   19.1558 C   0  0  0  0  0  0  0  0  0  0  0  0
  -24.9569  -29.5618   19.5018 C   0  0  0  0  0  0  0  0  0  0  0  0
  -24.8038  -30.2497   22.3738 C   0  0  0  0  0  0  0  0  0  0  0  0
  -28.2823  -23.7989   20.5256 C   0  0  0  0  0  0  0  0  0  0  0  0
  -19.3979  -19.5861   18.7894 C   0  0  0  0  0  0  0  0  0  0  0  0
  -16.2388  -30.4274   23.5884 C   0  0  0  0  0  0  0  0  0  0  0  0
  -28.0380  -25.2997   20.4775 C   0  0  0  0  0  0  0  0  0  0  0  0
  -20.3779  -18.6900   19.5487 C   0  0  0  0  0  0  0  0  0  0  0  0
  -17.6202  -31.0022   23.3452 C   0  0  0  0  0  0  0  0  0  0  0  0
  -20.1204  -20.6989   18.0333 C   0  0  0  0  0  0  0  0  0  0  0  0
  -22.0077  -20.6234   19.6164 C   0  0  0  0  0  0  0  0  0  0  0  0
  -16.4267  -28.9385   23.3701 C   0  0  0  0  0  0  0  0  0  0  0  0
  -26.5704  -25.6040   20.1511 C   0  0  1  0  0  0  0  0  0  0  0  0
  -26.1451  -29.3673   20.4387 C   0  0  1  0  0  0  0  0  0  0  0  0
  -21.3217  -19.5199   20.4397 C   0  0  2  0  0  0  0  0  0  0  0  0
  -18.5272  -30.0054   24.0514 C   0  0  2  0  0  0  0  0  0  0  0  0
  -26.7168  -36.1940   24.2420 C   0  0  0  0  0  0  0  0  0  0  0  0
  -27.8602  -29.3694   24.7304 C   0  0  0  0  0  0  0  0  0  0  0  0
  -27.9468  -31.6040   25.8563 C   0  0  0  0  0  0  0  0  0  0  0  0
  -29.5723  -31.0585   24.0444 C   0  0  0  0  0  0  0  0  0  0  0  0
  -26.2305  -35.0100   20.6591 C   0  0  0  0  0  0  0  0  0  0  0  0
  -17.8550  -26.2518   24.3588 C   0  0  0  0  0  0  0  0  0  0  0  0
  -22.3040  -24.4176   23.0115 C   0  0  0  0  0  0  0  0  0  0  0  0
  -21.6356  -24.8924   20.1972 C   0  0  0  0  0  0  0  0  0  0  0  0
  -19.9548  -30.0115   23.5365 C   0  0  0  0  0  0  0  0  0  1  0  0
  -23.3445  -25.4416   23.5025 C   0  0  0  0  0  0  0  0  0  0  0  0
  -18.0026  -27.6756   24.8859 C   0  0  0  0  0  0  0  0  0  0  0  0
  -24.7097  -24.8608   23.8581 C   0  0  0  0  0  0  0  0  0  0  0  0
  -27.1545  -31.4972   23.4497 C   0  0  1  0  0  0  0  0  0  0  0  0
  -26.8886  -35.2581   23.0557 C   0  0  2  0  0  0  0  0  0  0  0  0
  -28.1102  -30.8741   24.5060 C   0  0  0  0  0  0  0  0  0  0  0  0
  -22.7620  -17.5216   20.5616 N   0  0  0  0  0  0  0  0  0  0  0  0
  -22.3251  -18.6410   21.1633 N   0  0  0  0  0  0  0  0  0  0  0  0
  -26.0726  -30.2189   21.6278 N   0  0  0  0  0  0  0  0  0  0  0  0
  -20.9978  -21.4487   18.9354 N   0  0  0  0  0  0  0  0  0  0  0  0
  -22.5347  -19.9271   23.1414 N   0  0  0  0  0  0  0  0  0  0  0  0
  -25.7992  -18.1230   23.8351 N   0  0  0  0  0  0  0  0  0  0  0  0
  -26.4249  -27.0224   19.9088 N   0  0  0  0  0  0  0  0  0  0  0  0
  -27.3863  -32.9153   23.1969 N   0  0  0  0  0  0  0  0  0  0  0  0
  -21.6938  -23.4692   19.9488 N   0  0  0  0  0  0  0  0  0  0  0  0
  -17.8673  -28.6629   23.7670 N   0  3  1  0  0  0  0  0  0  0  0  0
  -24.5798  -23.8198   24.9041 N   0  3  0  0  0  0  0  0  0  0  0  0
  -26.1304  -35.8182   21.9015 N   0  3  0  0  0  0  0  0  0  0  0  0
  -24.0854  -16.9271   24.7792 O   0  0  0  0  0  0  0  0  0  0  0  0
  -26.2500  -27.7174   22.1244 O   0  0  0  0  0  0  0  0  0  0  0  0
  -28.3276  -30.7996   21.5097 O   0  0  0  0  0  0  0  0  0  0  0  0
  -25.2529  -33.6265   23.7625 O   0  0  0  0  0  0  0  0  0  0  0  0
  -19.9558  -23.4637   18.4534 O   0  0  0  0  0  0  0  0  0  0  0  0
  -26.2902  -12.2247   20.3575 O   0  0  0  0  0  0  0  0  0  0  0  0
  -19.9505  -29.6721   22.1505 O   0  0  0  0  0  0  0  0  0  1  0  0
  -31.6315  -12.5362   19.0244 F   0  0  0  0  0  0  0  0  0  0  0  0
  -27.1995  -11.2967   17.9173 F   0  0  0  0  0  0  0  0  0  0  0  0
  1  2  1  0  0  0  0
  1  5  2  0  0  0  0
  2  6  2  0  0  0  0
  3 10  2  0  0  0  0
  3 18  1  0  0  0  0
  4 11  1  0  0  0  0
  4 18  2  0  0  0  0
  5 20  1  0  0  0  0
  6 22  1  0  0  0  0
  7 12  2  0  0  0  0
  7 21  1  0  0  0  0
  8  9  2  0  0  0  0
  8 24  1  0  0  0  0
  9 25  1  0  0  0  0
 10 27  1  0  0  0  0
 11 27  2  0  0  0  0
 12 28  1  0  0  0  0
 13 14  2  0  0  0  0
 13 29  1  0  0  0  0
 14 30  1  0  0  0  0
 15 23  1  0  0  0  0
 15 28  2  0  0  0  0
 16 24  2  0  0  0  0
 16 26  1  0  0  0  0
 17 30  2  0  0  0  0
 17 31  1  0  0  0  0
 18 32  1  0  0  0  0
 19 32  1  0  0  0  0
 19 33  2  0  0  0  0
 19 34  1  0  0  0  0
 20 22  2  0  0  0  0
 20 39  1  0  0  0  0
 21 23  2  0  0  0  0
 21 40  1  0  0  0  0
 22 51  1  0  0  0  0
 23 41  1  0  0  0  0
 24 60  1  0  0  0  0
 25 26  2  0  0  0  0
 25 62  1  0  0  0  0
 26 61  1  0  0  0  0
 27 87  1  0  0  0  0
 28 88  1  0  0  0  0
 29 31  2  0  0  0  0
 29 87  1  0  0  0  0
 30 89  1  0  0  0  0
 31 90  1  0  0  0  0
 32 70  2  0  0  0  0
 33 71  1  0  0  0  0
 33 74  1  0  0  0  0
 34 75  1  0  0  0  0
 34 82  2  0  0  0  0
 35 52  1  0  0  0  0
 35 76  1  0  0  0  0
 35 83  2  0  0  0  0
 36 67  1  0  0  0  0
 36 72  1  0  0  0  0
 36 84  2  0  0  0  0
 37 68  1  0  0  0  0
 37 77  1  0  0  0  0
 37 85  2  0  0  0  0
 38 73  1  0  0  0  0
 38 78  1  0  0  0  0
 38 86  2  0  0  0  0
 39 42  1  0  0  0  0
 40 52  1  0  0  0  0
 41 72  1  0  0  0  0
 42 45  1  0  0  0  0
 43 46  1  0  0  0  0
 43 48  1  0  0  0  0
 44 47  1  0  0  0  0
 44 50  1  0  0  0  0
 45 51  1  0  0  0  0
 46 53  1  0  0  0  0
 47 54  1  0  0  0  0
 48 73  1  0  0  0  0
 49 53  1  0  0  0  0
 49 73  1  0  0  0  0
 50 79  1  0  0  0  0
 51 76  1  0  0  0  0
 52 72  1  0  0  0  0
 53 71  1  0  0  0  0
 54 63  1  0  0  0  0
 54 79  1  0  0  0  0
 55 68  1  0  0  0  0
 56 69  1  0  0  0  0
 57 69  1  0  0  0  0
 58 69  1  0  0  0  0
 59 81  1  0  0  0  0
 60 65  1  0  0  0  0
 61 64  1  0  0  0  0
 62 78  1  0  0  0  0
 63 88  1  0  0  0  0
 64 66  1  0  0  0  0
 65 79  1  0  0  0  0
 66 80  1  0  0  0  0
 67 69  1  0  0  0  0
 67 77  1  0  0  0  0
 68 81  1  0  0  0  0
 70 71  1  0  0  0  0
M  CHG  3  79   1  80   1  81   1
M  ISO  4  38 100  63 101  78 100  88 101
M  END
> <Batch ID>
0131

> <Smiles>
CNC(C)C(=O)NC(C(=O)N1Cc2cc([101O:1][101CH2:1]C3CCCN3CCc3ccc(C[100NH:0][100C:0](=O)N4CCCC(n5nc(-c6ccc(Oc7ccc(F)cc7F)cc6)c(C(N)=O)c5N)C4)c(CCCN)c3)ccc2CC1C(=O)NC1CCCc2ccccc21)C(C)(C)C

> <Shape>
0.281

> <Color>
0.055

> <Negative vol penalty>
0.000

$$$$

  -OEChem-04052320503D

 86 95  0     1  0  0  0  0  0999 V2000
  -27.7200  -31.6092   27.3308 C   0  0  0  0  0  0  0  0  0  0  0  0
  -27.4749  -30.5196   26.5012 C   0  0  0  0  0  0  0  0  0  0  0  0
  -24.6331   -8.8713   21.5410 C   0  0  0  0  0  0  0  0  0  0  0  0
  -22.7212  -10.2570   21.0297 C   0  0  0  0  0  0  0  0  0  0  0  0
  -26.8486  -32.6976   27.3258 C   0  0  0  0  0  0  0  0  0  0  0  0
  -26.3576  -30.5174   25.6668 C   0  0  0  0  0  0  0  0  0  0  0  0
  -27.4351  -28.9275   20.9812 C   0  0  0  0  0  0  0  0  0  0  0  0
  -23.8406   -8.0870   22.3790 C   0  0  0  0  0  0  0  0  0  0  0  0
  -21.9286   -9.4726   21.8677 C   0  0  0  0  0  0  0  0  0  0  0  0
  -27.5711  -27.5531   20.7907 C   0  0  0  0  0  0  0  0  0  0  0  0
  -21.5649   -5.6076   22.0521 C   0  0  0  0  0  0  0  0  0  0  0  0
  -21.6892   -4.2219   21.9516 C   0  0  0  0  0  0  0  0  0  0  0  0
  -25.3279  -27.4595   19.9083 C   0  0  0  0  0  0  0  0  0  0  0  0
  -22.3619   -4.1141   24.2696 C   0  0  0  0  0  0  0  0  0  0  0  0
  -24.0734   -9.9564   20.8664 C   0  0  0  0  0  0  0  0  0  0  0  0
  -25.1218  -10.5776   18.6252 C   0  0  0  0  0  0  0  0  0  0  0  0
  -25.7254  -32.7129   26.4840 C   0  0  0  0  0  0  0  0  0  0  0  0
  -26.2386  -29.5775   20.6462 C   0  0  0  0  0  0  0  0  0  0  0  0
  -25.4697  -31.6065   25.6516 C   0  0  0  0  0  0  0  0  0  0  0  0
  -25.1802  -28.8427   20.0932 C   0  0  0  0  0  0  0  0  0  0  0  0
  -27.1504  -21.1841   20.6126 C   0  0  0  0  0  0  0  0  0  0  0  0
  -27.8733  -20.7542   19.4902 C   0  0  0  0  0  0  0  0  0  0  0  0
  -27.1465  -22.5475   20.9335 C   0  0  0  0  0  0  0  0  0  0  0  0
  -22.4883   -8.3876   22.5423 C   0  0  0  0  0  0  0  0  0  0  0  0
  -26.5164  -26.8184   20.2569 C   0  0  0  0  0  0  0  0  0  0  0  0
  -21.8392   -6.2466   23.2614 C   0  0  0  0  0  0  0  0  0  0  0  0
  -22.0876   -3.4752   23.0604 C   0  0  0  0  0  0  0  0  0  0  0  0
  -22.2377   -5.4998   24.3701 C   0  0  0  0  0  0  0  0  0  0  0  0
  -24.8917  -10.7674   20.0010 C   0  0  0  0  0  0  0  0  0  0  0  0
  -28.5525  -21.7279   18.7564 C   0  0  0  0  0  0  0  0  0  0  0  0
  -27.8619  -23.4236   20.1342 C   0  0  0  0  0  0  0  0  0  0  0  0
  -25.9606  -11.6063   18.2723 C   0  0  0  0  0  0  0  0  0  0  0  0
  -24.6219   -9.5623   17.7450 C   0  0  0  0  0  0  0  0  0  0  0  0
  -24.0471  -31.2160   22.2638 C   0  0  0  0  0  0  0  0  0  0  0  0
  -22.8305  -31.7560   19.3057 C   0  0  0  0  0  0  0  0  0  0  0  0
  -22.5578  -30.7475   16.0568 C   0  0  0  0  0  0  0  0  0  0  0  0
  -26.7174  -16.9180   21.1492 C   0  0  0  0  0  0  0  0  0  0  0  0
  -24.7862  -33.8913   26.5480 C   0  0  0  0  0  0  0  0  0  0  0  0
  -26.1174  -31.0651   20.8330 C   0  0  0  0  0  0  0  0  0  0  0  0
  -26.3667  -20.2250   21.4734 C   0  0  0  0  0  0  0  0  0  0  0  0
  -27.9144  -19.3176   19.0465 C   0  0  0  0  0  0  0  0  0  0  0  0
  -23.8821  -29.4964   19.6982 C   0  0  0  0  0  0  0  0  0  0  0  0
  -23.8301  -33.9733   25.3609 C   0  0  0  0  0  0  0  0  0  0  0  0
  -29.3376  -14.4774   20.0437 C   0  0  0  0  0  0  0  0  0  0  0  0
  -23.2079  -32.6090   25.0812 C   0  0  0  0  0  0  0  0  0  0  0  0
  -28.4982  -13.2125   19.8708 C   0  0  0  0  0  0  0  0  0  0  0  0
  -27.2386  -19.1355   22.0963 C   0  0  0  0  0  0  0  0  0  0  0  0
  -28.5043  -18.3590   20.0854 C   0  0  0  0  0  0  0  0  0  0  0  0
  -28.7298  -15.4068   21.0877 C   0  0  0  0  0  0  0  0  0  0  0  0
  -26.4641  -14.5171   20.6363 C   0  0  0  0  0  0  0  0  0  0  0  0
  -24.2819  -31.5777   24.7143 C   0  0  1  0  0  0  0  0  0  0  0  0
  -24.6707  -31.5385   20.9354 C   0  0  1  0  0  0  0  0  0  0  0  0
  -27.0311  -13.5639   19.5720 C   0  0  2  0  0  0  0  0  0  0  0  0
  -29.3511  -21.3781   17.5415 C   0  0  0  0  0  0  0  0  0  0  0  0
  -24.1314  -23.6987   23.0523 C   0  0  0  0  0  0  0  0  0  0  0  0
  -21.4651  -31.3715   13.8856 C   0  0  0  0  0  0  0  0  0  0  0  0
  -20.1651  -30.6950   20.3449 C   0  0  0  0  0  0  0  0  0  0  0  0
  -19.4163  -30.4482   17.9687 C   0  0  0  0  0  0  0  0  0  0  0  0
  -19.9834  -32.7049   18.8678 C   0  0  0  0  0  0  0  0  0  0  0  0
  -25.1692  -31.0791   14.7042 C   0  0  0  0  0  0  0  0  0  0  0  0
  -26.4004  -23.0876   22.1115 C   0  0  0  0  0  0  0  0  0  0  0  0
  -27.8890  -24.8852   20.4430 C   0  0  0  0  0  0  0  0  0  1  0  0
  -24.8923  -23.1807   21.8421 C   0  0  0  0  0  0  0  0  0  0  0  0
  -21.8396  -31.0500   18.4120 C   0  0  1  0  0  0  0  0  0  0  0  0
  -22.7087  -31.5061   14.7506 C   0  0  2  0  0  0  0  0  0  0  0  0
  -20.3748  -31.2115   18.9075 C   0  0  0  0  0  0  0  0  0  0  0  0
  -25.5328  -11.8328   20.4889 N   0  0  0  0  0  0  0  0  0  0  0  0
  -28.5680  -23.0472   19.0503 N   0  0  0  0  0  0  0  0  0  0  0  0
  -26.1740  -12.3216   19.4137 N   0  0  0  0  0  0  0  0  0  0  0  0
  -23.8099  -30.9522   19.9061 N   0  0  0  0  0  0  0  0  0  0  0  0
  -27.5537  -18.0503   21.1654 N   0  0  0  0  0  0  0  0  0  0  0  0
  -27.3170  -15.6952   20.8041 N   0  0  0  0  0  0  0  0  0  0  0  0
  -26.5293  -11.9596   17.1000 N   0  0  0  0  0  0  0  0  0  0  0  0
  -23.7709   -8.5811   18.2718 N   0  0  0  0  0  0  0  0  0  0  0  0
  -24.7125  -31.7617   23.3450 N   0  0  0  0  0  0  0  0  0  0  0  0
  -22.0735  -31.5556   17.0637 N   0  0  0  0  0  0  0  0  0  0  0  0
  -23.8746  -30.9865   13.9815 N   0  3  0  0  0  0  0  0  0  0  0  0
  -24.9340   -9.5166   16.5309 O   0  0  0  0  0  0  0  0  0  0  0  0
  -23.0363  -30.5245   22.3048 O   0  0  0  0  0  0  0  0  0  0  0  0
  -22.7432  -32.9768   19.4596 O   0  0  0  0  0  0  0  0  0  0  0  0
  -22.8377  -29.5563   16.1714 O   0  0  0  0  0  0  0  0  0  0  0  0
  -25.5143  -16.9942   21.4279 O   0  0  0  0  0  0  0  0  0  0  0  0
  -21.7146   -7.6222   23.3597 O   0  0  0  0  0  0  0  0  0  0  0  0
  -26.6472  -25.4670   20.0692 O   0  0  0  0  0  0  0  0  0  1  0  0
  -22.2054   -2.1444   22.9641 F   0  0  0  0  0  0  0  0  0  0  0  0
  -22.5014   -6.1080   25.5347 F   0  0  0  0  0  0  0  0  0  0  0  0
  1  2  1  0  0  0  0
  1  5  2  0  0  0  0
  2  6  2  0  0  0  0
  3  8  2  0  0  0  0
  3 15  1  0  0  0  0
  4  9  1  0  0  0  0
  4 15  2  0  0  0  0
  5 17  1  0  0  0  0
  6 19  1  0  0  0  0
  7 10  2  0  0  0  0
  7 18  1  0  0  0  0
  8 24  1  0  0  0  0
  9 24  2  0  0  0  0
 10 25  1  0  0  0  0
 11 12  2  0  0  0  0
 11 26  1  0  0  0  0
 12 27  1  0  0  0  0
 13 20  1  0  0  0  0
 13 25  2  0  0  0  0
 14 27  2  0  0  0  0
 14 28  1  0  0  0  0
 15 29  1  0  0  0  0
 16 29  1  0  0  0  0
 16 32  2  0  0  0  0
 16 33  1  0  0  0  0
 17 19  2  0  0  0  0
 17 38  1  0  0  0  0
 18 20  2  0  0  0  0
 18 39  1  0  0  0  0
 19 51  1  0  0  0  0
 20 42  1  0  0  0  0
 21 22  1  0  0  0  0
 21 23  2  0  0  0  0
 21 40  1  0  0  0  0
 22 30  2  0  0  0  0
 22 41  1  0  0  0  0
 23 31  1  0  0  0  0
 23 61  1  0  0  0  0
 24 83  1  0  0  0  0
 25 84  1  0  0  0  0
 26 28  2  0  0  0  0
 26 83  1  0  0  0  0
 27 85  1  0  0  0  0
 28 86  1  0  0  0  0
 29 67  2  0  0  0  0
 30 54  1  0  0  0  0
 30 68  1  0  0  0  0
 31 62  1  0  0  0  0
 31 68  2  0  0  0  0
 32 69  1  0  0  0  0
 32 73  1  0  0  0  0
 33 74  1  0  0  0  0
 33 78  2  0  0  0  0
 34 52  1  0  0  0  0
 34 75  1  0  0  0  0
 34 79  2  0  0  0  0
 35 64  1  0  0  0  0
 35 70  1  0  0  0  0
 35 80  2  0  0  0  0
 36 65  1  0  0  0  0
 36 76  1  0  0  0  0
 36 81  2  0  0  0  0
 37 71  1  0  0  0  0
 37 72  1  0  0  0  0
 37 82  2  0  0  0  0
 38 43  1  0  0  0  0
 39 52  1  0  0  0  0
 40 47  1  0  0  0  0
 41 48  1  0  0  0  0
 42 70  1  0  0  0  0
 43 45  1  0  0  0  0
 44 46  1  0  0  0  0
 44 49  1  0  0  0  0
 45 51  1  0  0  0  0
 46 53  1  0  0  0  0
 47 71  1  0  0  0  0
 48 71  1  0  0  0  0
 49 72  1  0  0  0  0
 50 53  1  0  0  0  0
 50 72  1  0  0  0  0
 51 75  1  0  0  0  0
 52 70  1  0  0  0  0
 53 69  1  0  0  0  0
 55 63  1  0  0  0  0
 56 65  1  0  0  0  0
 57 66  1  0  0  0  0
 58 66  1  0  0  0  0
 59 66  1  0  0  0  0
 60 77  1  0  0  0  0
 61 63  1  0  0  0  0
 62 84  1  0  0  0  0
 64 66  1  0  0  0  0
 64 76  1  0  0  0  0
 65 77  1  0  0  0  0
 67 69  1  0  0  0  0
M  CHG  1  77   1
M  ISO  4  37 100  62 101  71 100  84 101
M  END
> <Batch ID>
0131

> <Smiles>
CCCc1c([101CH2:1][101O:1]c2ccc3c(c2)CN(C(=O)C(NC(=O)C(C)NC)C(C)(C)C)C(C(=O)NC2CCCc4ccccc42)C3)nc(C)c2c1CC[100N:0]([100C:0](=O)N1CCCC(n3nc(-c4ccc(Oc5ccc(F)cc5F)cc4)c(C(N)=O)c3N)C1)CC2

> <Shape>
0.284

> <Color>
0.089

> <Negative vol penalty>
0.000

$$$$

  -OEChem-04052320503D

 88 97  0     1  0  0  0  0  0999 V2000
  -29.4974   -6.7300   15.9961 C   0  0  0  0  0  0  0  0  0  0  0  0
  -29.5116   -8.0912   16.2831 C   0  0  0  0  0  0  0  0  0  0  0  0
  -31.3557  -28.0091   19.7457 C   0  0  0  0  0  0  0  0  0  0  0  0
  -20.6182  -26.3294   22.7314 C   0  0  0  0  0  0  0  0  0  0  0  0
  -20.0791  -28.6815   22.8500 C   0  0  0  0  0  0  0  0  0  0  0  0
  -28.2828   -6.0536   15.8903 C   0  0  0  0  0  0  0  0  0  0  0  0
  -28.3110   -8.7771   16.4635 C   0  0  0  0  0  0  0  0  0  0  0  0
  -28.4213  -11.8643   20.4762 C   0  0  0  0  0  0  0  0  0  0  0  0
  -31.1866  -26.6786   19.3627 C   0  0  0  0  0  0  0  0  0  0  0  0
  -30.3196  -28.6871   20.3879 C   0  0  0  0  0  0  0  0  0  0  0  0
  -19.4282  -26.0913   22.0438 C   0  0  0  0  0  0  0  0  0  0  0  0
  -18.8891  -28.4434   22.1623 C   0  0  0  0  0  0  0  0  0  0  0  0
  -29.0853  -13.0809   20.3255 C   0  0  0  0  0  0  0  0  0  0  0  0
  -15.8065  -27.2424   22.8594 C   0  0  0  0  0  0  0  0  0  0  0  0
  -14.6466  -27.8480   23.3424 C   0  0  0  0  0  0  0  0  0  0  0  0
  -26.9680  -14.1889   19.9962 C   0  0  0  0  0  0  0  0  0  0  0  0
  -28.9451  -26.7041   20.2640 C   0  0  0  0  0  0  0  0  0  0  0  0
  -14.3759  -29.0068   21.2398 C   0  0  0  0  0  0  0  0  0  0  0  0
  -20.9437  -27.6245   23.1345 C   0  0  0  0  0  0  0  0  0  0  0  0
  -22.5643  -27.3228   25.0814 C   0  0  0  0  0  0  0  0  0  0  0  0
  -27.0670   -6.7296   16.0790 C   0  0  0  0  0  0  0  0  0  0  0  0
  -27.0240  -11.7990   20.3770 C   0  0  0  0  0  0  0  0  0  0  0  0
  -27.0789   -8.1094   16.3588 C   0  0  0  0  0  0  0  0  0  0  0  0
  -26.2884  -12.9707   20.1485 C   0  0  0  0  0  0  0  0  0  0  0  0
  -29.9813  -26.0261   19.6218 C   0  0  0  0  0  0  0  0  0  0  0  0
  -29.1143  -28.0346   20.6470 C   0  0  0  0  0  0  0  0  0  0  0  0
  -18.5637  -27.1483   21.7592 C   0  0  0  0  0  0  0  0  0  0  0  0
  -28.3589  -14.2429   20.0826 C   0  0  0  0  0  0  0  0  0  0  0  0
  -16.2512  -27.5190   21.5665 C   0  0  0  0  0  0  0  0  0  0  0  0
  -13.9312  -28.7302   22.5326 C   0  0  0  0  0  0  0  0  0  0  0  0
  -15.5359  -28.4012   20.7567 C   0  0  0  0  0  0  0  0  0  0  0  0
  -22.1725  -27.8710   23.8453 C   0  0  0  0  0  0  0  0  0  0  0  0
  -23.8024  -27.8667   25.3213 C   0  0  0  0  0  0  0  0  0  0  0  0
  -21.8710  -26.4039   25.9362 C   0  0  0  0  0  0  0  0  0  0  0  0
  -24.9791  -10.3260   18.4399 C   0  0  0  0  0  0  0  0  0  0  0  0
  -22.7752  -11.5024   20.5089 C   0  0  0  0  0  0  0  0  0  0  0  0
  -22.2117  -14.5959   22.2782 C   0  0  0  0  0  0  0  0  0  0  0  0
  -28.0666  -30.0446   21.7465 C   0  0  0  0  0  0  0  0  0  0  0  0
  -25.7777   -5.9659   15.9081 C   0  0  0  0  0  0  0  0  0  0  0  0
  -26.3208  -10.4833   20.5686 C   0  0  0  0  0  0  0  0  0  0  0  0
  -24.7853  -12.9575   20.0535 C   0  0  0  0  0  0  0  0  0  0  0  0
  -24.5616   -6.6873   16.4835 C   0  0  0  0  0  0  0  0  0  0  0  0
  -26.4228  -31.7665   24.3941 C   0  0  0  0  0  0  0  0  0  0  0  0
  -24.5584   -8.1518   16.0570 C   0  0  0  0  0  0  0  0  0  0  0  0
  -30.6194  -19.4035   19.9902 C   0  0  0  0  0  0  0  0  0  0  0  0
  -29.4485  -19.0633   22.2015 C   0  0  0  0  0  0  0  0  0  0  0  0
  -30.4786  -17.9130   19.6864 C   0  0  0  0  0  0  0  0  0  0  0  0
  -29.3078  -17.5728   21.8977 C   0  0  0  0  0  0  0  0  0  0  0  0
  -25.1852  -30.9098   24.6704 C   0  0  0  0  0  0  0  0  0  0  0  0
  -26.7598  -31.8125   22.9048 C   0  0  0  0  0  0  0  0  0  0  0  0
  -25.6506  -29.6444   22.5329 C   0  0  0  0  0  0  0  0  0  0  0  0
  -25.7983   -8.8831   16.5857 C   0  0  1  0  0  0  0  0  0  0  0  0
  -24.9326  -10.4501   19.9366 C   0  0  1  0  0  0  0  0  0  0  0  0
  -29.5034  -19.9008   20.9175 C   0  0  0  0  0  0  0  0  0  0  0  0
  -30.4239  -17.0755   20.9703 C   0  0  0  0  0  0  0  0  0  0  0  0
  -25.3100  -29.5150   24.0265 C   0  0  2  0  0  0  0  0  0  0  0  0
  -21.0115  -15.0462   24.4356 C   0  0  0  0  0  0  0  0  0  0  0  0
  -20.3680  -12.0575   18.7181 C   0  0  0  0  0  0  0  0  0  0  0  0
  -19.7412  -13.9288   20.2588 C   0  0  0  0  0  0  0  0  0  0  0  0
  -19.8032  -11.5840   21.1079 C   0  0  0  0  0  0  0  0  0  0  0  0
  -24.5742  -15.9427   23.4459 C   0  0  0  0  0  0  0  0  0  0  0  0
  -29.7998  -24.5949   19.2096 C   0  0  0  0  0  0  0  0  0  0  0  0
  -29.6942  -21.3803   21.2462 C   0  0  0  0  0  0  0  0  0  0  0  0
  -30.2331  -15.5960   20.6417 C   0  0  0  0  0  0  0  0  0  1  0  0
  -29.6294  -22.2280   19.9890 C   0  0  0  0  0  0  0  0  0  0  0  0
  -21.9743  -12.7784   20.6064 C   0  0  1  0  0  0  0  0  0  0  0  0
  -22.3620  -14.8296   23.7706 C   0  0  2  0  0  0  0  0  0  0  0  0
  -20.4973  -12.5866   20.1604 C   0  0  0  0  0  0  0  0  0  0  0  0
  -23.0876  -28.6998   23.3357 N   0  0  0  0  0  0  0  0  0  0  0  0
  -24.0666  -28.6765   24.2560 N   0  0  0  0  0  0  0  0  0  0  0  0
  -24.1441  -11.6457   20.2415 N   0  0  0  0  0  0  0  0  0  0  0  0
  -26.8665  -30.4555   22.3642 N   0  0  0  0  0  0  0  0  0  0  0  0
  -24.6801  -27.7267   26.3374 N   0  0  0  0  0  0  0  0  0  0  0  0
  -20.6082  -25.9440   25.5384 N   0  0  0  0  0  0  0  0  0  0  0  0
  -28.0623  -28.7235   21.3001 N   0  0  0  0  0  0  0  0  0  0  0  0
  -25.6388   -9.1986   17.9891 N   0  0  0  0  0  0  0  0  0  0  0  0
  -22.1277  -13.2528   21.9775 N   0  0  0  0  0  0  0  0  0  0  0  0
  -23.2086  -16.0294   24.0244 N   0  3  0  0  0  0  0  0  0  0  0  0
  -29.8671  -23.6452   20.3541 N   0  3  0  0  0  0  0  0  0  0  0  0
  -22.3498  -26.0152   27.0285 O   0  0  0  0  0  0  0  0  0  0  0  0
  -24.4540  -11.1884   17.7455 O   0  0  0  0  0  0  0  0  0  0  0  0
  -22.2085  -10.4189   20.6713 O   0  0  0  0  0  0  0  0  0  0  0  0
  -22.1691  -15.5131   21.4613 O   0  0  0  0  0  0  0  0  0  0  0  0
  -29.0370  -30.7998   21.6469 O   0  0  0  0  0  0  0  0  0  0  0  0
  -17.4025  -26.9163   21.0881 O   0  0  0  0  0  0  0  0  0  0  0  0
  -29.0046  -15.4316   19.9344 O   0  0  0  0  0  0  0  0  0  1  0  0
  -12.8165  -29.3105   22.9961 F   0  0  0  0  0  0  0  0  0  0  0  0
  -15.9575  -28.6699   19.5134 F   0  0  0  0  0  0  0  0  0  0  0  0
  1  2  1  0  0  0  0
  1  6  2  0  0  0  0
  2  7  2  0  0  0  0
  3  9  2  0  0  0  0
  3 10  1  0  0  0  0
  4 11  2  0  0  0  0
  4 19  1  0  0  0  0
  5 12  1  0  0  0  0
  5 19  2  0  0  0  0
  6 21  1  0  0  0  0
  7 23  1  0  0  0  0
  8 13  2  0  0  0  0
  8 22  1  0  0  0  0
  9 25  1  0  0  0  0
 10 26  2  0  0  0  0
 11 27  1  0  0  0  0
 12 27  2  0  0  0  0
 13 28  1  0  0  0  0
 14 15  2  0  0  0  0
 14 29  1  0  0  0  0
 15 30  1  0  0  0  0
 16 24  1  0  0  0  0
 16 28  2  0  0  0  0
 17 25  2  0  0  0  0
 17 26  1  0  0  0  0
 18 30  2  0  0  0  0
 18 31  1  0  0  0  0
 19 32  1  0  0  0  0
 20 32  1  0  0  0  0
 20 33  2  0  0  0  0
 20 34  1  0  0  0  0
 21 23  2  0  0  0  0
 21 39  1  0  0  0  0
 22 24  2  0  0  0  0
 22 40  1  0  0  0  0
 23 52  1  0  0  0  0
 24 41  1  0  0  0  0
 25 62  1  0  0  0  0
 26 75  1  0  0  0  0
 27 85  1  0  0  0  0
 28 86  1  0  0  0  0
 29 31  2  0  0  0  0
 29 85  1  0  0  0  0
 30 87  1  0  0  0  0
 31 88  1  0  0  0  0
 32 69  2  0  0  0  0
 33 70  1  0  0  0  0
 33 73  1  0  0  0  0
 34 74  1  0  0  0  0
 34 80  2  0  0  0  0
 35 53  1  0  0  0  0
 35 76  1  0  0  0  0
 35 81  2  0  0  0  0
 36 66  1  0  0  0  0
 36 71  1  0  0  0  0
 36 82  2  0  0  0  0
 37 67  1  0  0  0  0
 37 77  1  0  0  0  0
 37 83  2  0  0  0  0
 38 72  1  0  0  0  0
 38 75  1  0  0  0  0
 38 84  2  0  0  0  0
 39 42  1  0  0  0  0
 40 53  1  0  0  0  0
 41 71  1  0  0  0  0
 42 44  1  0  0  0  0
 43 49  1  0  0  0  0
 43 50  1  0  0  0  0
 44 52  1  0  0  0  0
 45 47  1  0  0  0  0
 45 54  1  0  0  0  0
 46 48  1  0  0  0  0
 46 54  1  0  0  0  0
 47 55  1  0  0  0  0
 48 55  1  0  0  0  0
 49 56  1  0  0  0  0
 50 72  1  0  0  0  0
 51 56  1  0  0  0  0
 51 72  1  0  0  0  0
 52 76  1  0  0  0  0
 53 71  1  0  0  0  0
 54 63  1  0  0  0  0
 55 64  1  0  0  0  0
 56 70  1  0  0  0  0
 57 67  1  0  0  0  0
 58 68  1  0  0  0  0
 59 68  1  0  0  0  0
 60 68  1  0  0  0  0
 61 78  1  0  0  0  0
 62 79  1  0  0  0  0
 63 65  1  0  0  0  0
 64 86  1  0  0  0  0
 65 79  1  0  0  0  0
 66 68  1  0  0  0  0
 66 77  1  0  0  0  0
 67 78  1  0  0  0  0
 69 70  1  0  0  0  0
M  CHG  2  78   1  79   1
M  ISO  4  38 100  64 101  75 100  86 101
M  END
> <Batch ID>
0131

> <Smiles>
CNC(C)C(=O)NC(C(=O)N1Cc2cc([101O:1][101CH2:1]C3CCC(CCNCc4cccc([100NH:0][100C:0](=O)N5CCCC(n6nc(-c7ccc(Oc8ccc(F)cc8F)cc7)c(C(N)=O)c6N)C5)c4)CC3)ccc2CC1C(=O)NC1CCCc2ccccc21)C(C)(C)C

> <Shape>
0.266

> <Color>
0.057

> <Negative vol penalty>
0.000

$$$$

  -OEChem-04052320503D

 87 95  0     1  0  0  0  0  0999 V2000
  -21.8524  -11.2191   21.1276 C   0  0  0  0  0  0  0  0  0  0  0  0
  -22.0641  -12.1892   22.1021 C   0  0  0  0  0  0  0  0  0  0  0  0
  -21.3803  -29.0740   20.4702 C   0  0  0  0  0  0  0  0  0  0  0  0
  -22.0589  -27.7841   22.3970 C   0  0  0  0  0  0  0  0  0  0  0  0
  -22.8424  -10.9547   20.1822 C   0  0  0  0  0  0  0  0  0  0  0  0
  -23.2665  -12.8946   22.1323 C   0  0  0  0  0  0  0  0  0  0  0  0
  -24.0604  -18.7492   23.7448 C   0  0  0  0  0  0  0  0  0  0  0  0
  -27.6953  -25.6218   25.5217 C   0  0  0  0  0  0  0  0  0  0  0  0
  -28.4582  -26.3896   24.6418 C   0  0  0  0  0  0  0  0  0  0  0  0
  -20.1284  -28.4599   20.4999 C   0  0  0  0  0  0  0  0  0  0  0  0
  -20.8069  -27.1700   22.4268 C   0  0  0  0  0  0  0  0  0  0  0  0
  -24.4767  -19.3464   24.9338 C   0  0  0  0  0  0  0  0  0  0  0  0
  -17.6858  -27.9303   23.4761 C   0  0  0  0  0  0  0  0  0  0  0  0
  -17.0535  -27.8107   24.7136 C   0  0  0  0  0  0  0  0  0  0  0  0
  -26.7289  -19.4662   24.0779 C   0  0  0  0  0  0  0  0  0  0  0  0
  -29.6936  -25.0451   26.7511 C   0  0  0  0  0  0  0  0  0  0  0  0
  -17.0329  -25.4070   24.4708 C   0  0  0  0  0  0  0  0  0  0  0  0
  -22.3457  -28.7361   21.4187 C   0  0  0  0  0  0  0  0  0  0  0  0
  -24.0217  -30.5539   22.0465 C   0  0  0  0  0  0  0  0  0  0  0  0
  -24.0537  -11.6640   20.1950 C   0  0  0  0  0  0  0  0  0  0  0  0
  -24.9788  -18.4956   22.7159 C   0  0  0  0  0  0  0  0  0  0  0  0
  -24.2742  -12.6385   21.1870 C   0  0  0  0  0  0  0  0  0  0  0  0
  -26.3212  -18.8680   22.8758 C   0  0  0  0  0  0  0  0  0  0  0  0
  -28.3130  -24.9496   26.5764 C   0  0  0  0  0  0  0  0  0  0  0  0
  -29.8388  -26.4851   24.8165 C   0  0  0  0  0  0  0  0  0  0  0  0
  -30.4565  -25.8128   25.8712 C   0  0  0  0  0  0  0  0  0  0  0  0
  -19.8416  -27.5079   21.4782 C   0  0  0  0  0  0  0  0  0  0  0  0
  -25.8117  -19.7024   25.1016 C   0  0  0  0  0  0  0  0  0  0  0  0
  -17.9915  -26.7882   22.7358 C   0  0  0  0  0  0  0  0  0  0  0  0
  -16.7271  -26.5491   25.2111 C   0  0  0  0  0  0  0  0  0  0  0  0
  -17.6651  -25.5266   23.2332 C   0  0  0  0  0  0  0  0  0  0  0  0
  -23.6394  -29.3697   21.3881 C   0  0  0  0  0  0  0  0  0  0  0  0
  -25.3394  -30.7289   21.7006 C   0  0  0  0  0  0  0  0  0  0  0  0
  -23.2545  -31.4183   22.8948 C   0  0  0  0  0  0  0  0  0  0  0  0
  -26.0427  -15.8821   21.2525 C   0  0  0  0  0  0  0  0  0  0  0  0
  -27.5546  -18.0335   19.3530 C   0  0  0  0  0  0  0  0  0  0  0  0
  -28.8328  -21.1760   18.9819 C   0  0  0  0  0  0  0  0  0  0  0  0
  -29.6384  -26.9381   19.9687 C   0  0  0  0  0  0  0  0  0  0  0  0
  -25.1130  -11.3101   19.1814 C   0  0  0  0  0  0  0  0  0  0  0  0
  -24.5086  -17.8750   21.4290 C   0  0  0  0  0  0  0  0  0  0  0  0
  -27.3428  -18.6359   21.7938 C   0  0  0  0  0  0  0  0  0  0  0  0
  -26.2099  -12.3639   19.0534 C   0  0  0  0  0  0  0  0  0  0  0  0
  -28.4463  -29.7813   18.1878 C   0  0  0  0  0  0  0  0  0  0  0  0
  -26.6928  -12.8020   20.4324 C   0  0  0  0  0  0  0  0  0  0  0  0
  -27.1137  -30.1050   18.8654 C   0  0  0  0  0  0  0  0  0  0  0  0
  -28.6898  -28.2756   18.1120 C   0  0  0  0  0  0  0  0  0  0  0  0
  -27.2555  -27.8899   20.0787 C   0  0  0  0  0  0  0  0  0  0  0  0
  -25.5555  -13.4422   21.2375 C   0  0  1  0  0  0  0  0  0  0  0  0
  -25.6295  -17.1948   20.6491 C   0  0  1  0  0  0  0  0  0  0  0  0
  -26.9915  -29.3980   20.2287 C   0  0  2  0  0  0  0  0  0  0  0  0
  -33.9968  -25.4974   27.0859 C   0  0  0  0  0  0  0  0  0  0  0  0
  -30.0409  -22.6289   17.3306 C   0  0  0  0  0  0  0  0  0  0  0  0
  -30.1511  -16.5449   19.9466 C   0  0  0  0  0  0  0  0  0  0  0  0
  -31.4061  -18.5340   19.0884 C   0  0  0  0  0  0  0  0  0  0  0  0
  -29.8848  -17.2702   17.5681 C   0  0  0  0  0  0  0  0  0  0  0  0
  -26.6151  -23.1344   18.9067 C   0  0  0  0  0  0  0  0  0  0  0  0
  -30.6315  -27.3129   23.8581 C   0  0  0  0  0  0  0  0  0  0  0  0
  -27.4920  -24.1239   27.5225 C   0  0  0  0  0  0  0  0  0  0  0  0
  -31.3657  -26.5014   22.7740 C   0  0  0  0  0  0  0  0  0  0  0  0
  -32.5316  -25.2253   27.1259 C   0  0  0  0  0  0  0  0  0  0  0  0
  -30.4529  -25.6298   21.9140 C   0  0  0  0  0  0  0  0  0  0  0  0
  -25.9861  -22.1461   27.7660 C   0  0  0  0  0  0  0  0  0  0  0  0
  -25.2661  -21.0836   26.9592 C   0  0  0  0  0  0  0  0  0  1  0  0
  -28.8946  -18.7282   19.3807 C   0  0  1  0  0  0  0  0  0  0  0  0
  -28.6856  -22.1984   17.8695 C   0  0  2  0  0  0  0  0  0  0  0  0
  -30.0655  -17.7721   19.0173 C   0  0  0  0  0  0  0  0  0  0  0  0
  -24.6337  -28.8306   20.6777 N   0  0  0  0  0  0  0  0  0  0  0  0
  -25.6539  -29.6799   20.8876 N   0  0  0  0  0  0  0  0  0  0  0  0
  -26.8353  -18.0204   20.5564 N   0  0  0  0  0  0  0  0  0  0  0  0
  -28.5608  -27.6659   19.4377 N   0  0  0  0  0  0  0  0  0  0  0  0
  -26.2482  -31.6762   22.0157 N   0  0  0  0  0  0  0  0  0  0  0  0
  -21.9151  -31.0909   23.1463 N   0  0  0  0  0  0  0  0  0  0  0  0
  -31.8531  -25.8967   26.0622 N   0  0  0  0  0  0  0  0  0  0  0  0
  -25.3207  -14.7984   20.7902 N   0  0  0  0  0  0  0  0  0  0  0  0
  -28.7728  -19.8853   18.5005 N   0  0  0  0  0  0  0  0  0  0  0  0
  -29.4352  -26.3987   21.2331 N   0  0  0  0  0  0  0  0  0  0  0  0
  -27.9726  -23.4081   18.3688 N   0  3  0  0  0  0  0  0  0  0  0  0
  -26.7607  -23.0180   26.8472 N   0  3  0  0  0  0  0  0  0  0  0  0
  -23.7375  -32.4594   23.4012 O   0  0  0  0  0  0  0  0  0  0  0  0
  -26.9503  -15.8544   22.0753 O   0  0  0  0  0  0  0  0  0  0  0  0
  -27.1575  -17.5274   18.3004 O   0  0  0  0  0  0  0  0  0  0  0  0
  -28.9893  -21.4909   20.1595 O   0  0  0  0  0  0  0  0  0  0  0  0
  -30.7047  -26.7851   19.3634 O   0  0  0  0  0  0  0  0  0  0  0  0
  -18.6199  -26.9086   21.5077 O   0  0  0  0  0  0  0  0  0  0  0  0
  -26.2208  -20.2850   26.2614 O   0  0  0  0  0  0  0  0  0  1  0  0
  -16.1214  -26.4343   26.4002 F   0  0  0  0  0  0  0  0  0  0  0  0
  -17.9574  -24.4258   22.5272 F   0  0  0  0  0  0  0  0  0  0  0  0
  1  2  1  0  0  0  0
  1  5  2  0  0  0  0
  2  6  2  0  0  0  0
  3 10  2  0  0  0  0
  3 18  1  0  0  0  0
  4 11  1  0  0  0  0
  4 18  2  0  0  0  0
  5 20  1  0  0  0  0
  6 22  1  0  0  0  0
  7 12  2  0  0  0  0
  7 21  1  0  0  0  0
  8  9  2  0  0  0  0
  8 24  1  0  0  0  0
  9 25  1  0  0  0  0
 10 27  1  0  0  0  0
 11 27  2  0  0  0  0
 12 28  1  0  0  0  0
 13 14  2  0  0  0  0
 13 29  1  0  0  0  0
 14 30  1  0  0  0  0
 15 23  1  0  0  0  0
 15 28  2  0  0  0  0
 16 24  2  0  0  0  0
 16 26  1  0  0  0  0
 17 30  2  0  0  0  0
 17 31  1  0  0  0  0
 18 32  1  0  0  0  0
 19 32  1  0  0  0  0
 19 33  2  0  0  0  0
 19 34  1  0  0  0  0
 20 22  2  0  0  0  0
 20 39  1  0  0  0  0
 21 23  2  0  0  0  0
 21 40  1  0  0  0  0
 22 48  1  0  0  0  0
 23 41  1  0  0  0  0
 24 58  1  0  0  0  0
 25 26  2  0  0  0  0
 25 57  1  0  0  0  0
 26 73  1  0  0  0  0
 27 84  1  0  0  0  0
 28 85  1  0  0  0  0
 29 31  2  0  0  0  0
 29 84  1  0  0  0  0
 30 86  1  0  0  0  0
 31 87  1  0  0  0  0
 32 67  2  0  0  0  0
 33 68  1  0  0  0  0
 33 71  1  0  0  0  0
 34 72  1  0  0  0  0
 34 79  2  0  0  0  0
 35 49  1  0  0  0  0
 35 74  1  0  0  0  0
 35 80  2  0  0  0  0
 36 64  1  0  0  0  0
 36 69  1  0  0  0  0
 36 81  2  0  0  0  0
 37 65  1  0  0  0  0
 37 75  1  0  0  0  0
 37 82  2  0  0  0  0
 38 70  1  0  0  0  0
 38 76  1  0  0  0  0
 38 83  2  0  0  0  0
 39 42  1  0  0  0  0
 40 49  1  0  0  0  0
 41 69  1  0  0  0  0
 42 44  1  0  0  0  0
 43 45  1  0  0  0  0
 43 46  1  0  0  0  0
 44 48  1  0  0  0  0
 45 50  1  0  0  0  0
 46 70  1  0  0  0  0
 47 50  1  0  0  0  0
 47 70  1  0  0  0  0
 48 74  1  0  0  0  0
 49 69  1  0  0  0  0
 50 68  1  0  0  0  0
 51 60  1  0  0  0  0
 52 65  1  0  0  0  0
 53 66  1  0  0  0  0
 54 66  1  0  0  0  0
 55 66  1  0  0  0  0
 56 77  1  0  0  0  0
 57 59  1  0  0  0  0
 58 78  1  0  0  0  0
 59 61  1  0  0  0  0
 60 73  1  0  0  0  0
 61 76  1  0  0  0  0
 62 63  1  0  0  0  0
 62 78  1  0  0  0  0
 63 85  1  0  0  0  0
 64 66  1  0  0  0  0
 64 75  1  0  0  0  0
 65 77  1  0  0  0  0
 67 68  1  0  0  0  0
M  CHG  2  77   1  78   1
M  ISO  4  38 100  63 101  76 100  85 101
M  END
> <Batch ID>
0131

> <Smiles>
CCNc1cc(CNC[101CH2:1][101O:1]c2ccc3c(c2)CN(C(=O)C(NC(=O)C(C)NC)C(C)(C)C)C(C(=O)NC2CCCc4ccccc42)C3)ccc1CCC[100NH:0][100C:0](=O)N1CCCC(n2nc(-c3ccc(Oc4ccc(F)cc4F)cc3)c(C(N)=O)c2N)C1

> <Shape>
0.250

> <Color>
0.066

> <Negative vol penalty>
0.000

$$$$

  -OEChem-04052320503D

 83 91  0     1  0  0  0  0  0999 V2000
  -20.7507   -8.5744   18.4973 C   0  0  0  0  0  0  0  0  0  0  0  0
  -20.4069   -9.9151   18.6373 C   0  0  0  0  0  0  0  0  0  0  0  0
  -29.4010  -26.0855   18.4003 C   0  0  0  0  0  0  0  0  0  0  0  0
  -28.6304  -24.8547   20.3312 C   0  0  0  0  0  0  0  0  0  0  0  0
  -21.7613   -8.0289   19.2879 C   0  0  0  0  0  0  0  0  0  0  0  0
  -21.0728  -10.7109   19.5689 C   0  0  0  0  0  0  0  0  0  0  0  0
  -22.4470  -16.6537   19.0206 C   0  0  0  0  0  0  0  0  0  0  0  0
  -30.6478  -25.4692   18.5050 C   0  0  0  0  0  0  0  0  0  0  0  0
  -29.8773  -24.2383   20.4358 C   0  0  0  0  0  0  0  0  0  0  0  0
  -21.8310  -17.8073   19.5038 C   0  0  0  0  0  0  0  0  0  0  0  0
  -32.9529  -25.0203   21.6022 C   0  0  0  0  0  0  0  0  0  0  0  0
  -33.5294  -24.9353   22.8694 C   0  0  0  0  0  0  0  0  0  0  0  0
  -23.3410  -17.8184   21.3850 C   0  0  0  0  0  0  0  0  0  0  0  0
  -33.5491  -22.5254   22.6990 C   0  0  0  0  0  0  0  0  0  0  0  0
  -28.3922  -25.7783   19.3135 C   0  0  0  0  0  0  0  0  0  0  0  0
  -25.9905  -25.9625   18.4735 C   0  0  0  0  0  0  0  0  0  0  0  0
  -22.4465   -8.8207   20.2228 C   0  0  0  0  0  0  0  0  0  0  0  0
  -23.5093  -16.0666   19.7229 C   0  0  0  0  0  0  0  0  0  0  0  0
  -22.0926  -10.1751   20.3736 C   0  0  0  0  0  0  0  0  0  0  0  0
  -23.9704  -16.6588   20.9073 C   0  0  0  0  0  0  0  0  0  0  0  0
  -30.8860  -24.5456   19.5227 C   0  0  0  0  0  0  0  0  0  0  0  0
  -22.2761  -18.3882   20.6877 C   0  0  0  0  0  0  0  0  0  0  0  0
  -32.6743  -23.8578   20.8833 C   0  0  0  0  0  0  0  0  0  0  0  0
  -33.8276  -23.6879   23.4178 C   0  0  0  0  0  0  0  0  0  0  0  0
  -32.9725  -22.6104   21.4317 C   0  0  0  0  0  0  0  0  0  0  0  0
  -27.1041  -26.4151   19.2062 C   0  0  0  0  0  0  0  0  0  0  0  0
  -25.0244  -26.9133   18.6951 C   0  0  0  0  0  0  0  0  0  0  0  0
  -25.8426  -24.7877   17.6650 C   0  0  0  0  0  0  0  0  0  0  0  0
  -23.9878  -13.2560   21.1283 C   0  0  0  0  0  0  0  0  0  0  0  0
  -26.9975  -14.4019   21.5171 C   0  0  0  0  0  0  0  0  0  0  0  0
  -29.0585  -17.1123   21.7460 C   0  0  0  0  0  0  0  0  0  0  0  0
  -22.3434  -30.1930   22.4898 C   0  0  0  0  0  0  0  0  0  0  0  0
  -20.1553  -28.9071   22.8260 C   0  0  0  0  0  0  0  0  0  0  0  0
  -23.4995   -8.1749   21.0882 C   0  0  0  0  0  0  0  0  0  0  0  0
  -24.1805  -14.8374   19.1743 C   0  0  0  0  0  0  0  0  0  0  0  0
  -25.1205  -16.0791   21.6882 C   0  0  0  0  0  0  0  0  0  0  0  0
  -24.4121   -9.1785   21.7884 C   0  0  0  0  0  0  0  0  0  0  0  0
  -25.2971  -31.4859   20.7805 C   0  0  0  0  0  0  0  0  0  0  0  0
  -23.5899  -10.2972   22.4203 C   0  0  0  0  0  0  0  0  0  0  0  0
  -20.6791  -23.6373   21.8914 C   0  0  0  0  0  0  0  0  0  0  0  0
  -18.3589  -23.1625   21.0151 C   0  0  0  0  0  0  0  0  0  0  0  0
  -21.1889  -22.3547   21.2366 C   0  0  0  0  0  0  0  0  0  0  0  0
  -18.8687  -21.8798   20.3604 C   0  0  0  0  0  0  0  0  0  0  0  0
  -25.9744  -30.2366   20.2284 C   0  0  0  0  0  0  0  0  0  0  0  0
  -24.5678  -31.1849   22.0833 C   0  0  0  0  0  0  0  0  0  0  0  0
  -24.1923  -28.8313   21.3752 C   0  0  0  0  0  0  0  0  0  0  0  0
  -22.8088  -11.0768   21.3556 C   0  0  1  0  0  0  0  0  0  0  0  0
  -24.9181  -14.0332   20.2405 C   0  0  1  0  0  0  0  0  0  0  0  0
  -19.4692  -24.2129   21.1445 C   0  0  0  0  0  0  0  0  0  0  0  0
  -20.0786  -21.3043   21.1074 C   0  0  0  0  0  0  0  0  0  0  0  0
  -24.9528  -29.1028   20.0631 C   0  0  2  0  0  0  0  0  0  0  0  0
  -31.4636  -17.7337   22.1020 C   0  0  0  0  0  0  0  0  0  0  0  0
  -26.7144  -13.7832   24.4915 C   0  0  0  0  0  0  0  0  0  0  0  0
  -28.6916  -15.2595   24.9155 C   0  0  0  0  0  0  0  0  0  0  0  0
  -28.9444  -13.2110   23.5145 C   0  0  0  0  0  0  0  0  0  0  0  0
  -29.2260  -18.4428   19.1077 C   0  0  0  0  0  0  0  0  0  0  0  0
  -18.9478  -25.4654   21.8463 C   0  0  0  0  0  0  0  0  0  0  0  0
  -20.6000  -20.0517   20.4057 C   0  0  0  0  0  0  0  0  0  1  0  0
  -19.9879  -26.5736   21.9076 C   0  0  0  0  0  0  0  0  0  0  0  0
  -27.7059  -15.2071   22.5795 C   0  0  1  0  0  0  0  0  0  0  0  0
  -30.3831  -17.4299   21.0759 C   0  0  2  0  0  0  0  0  0  0  0  0
  -27.9911  -14.3753   23.8618 C   0  0  0  0  0  0  0  0  0  0  0  0
  -26.8686  -27.5641   19.8453 N   0  0  0  0  0  0  0  0  0  0  0  0
  -25.5959  -27.8415   19.5148 N   0  0  0  0  0  0  0  0  0  0  0  0
  -25.7399  -14.8731   21.1143 N   0  0  0  0  0  0  0  0  0  0  0  0
  -23.6336  -30.0633   21.9516 N   0  0  0  0  0  0  0  0  0  0  0  0
  -23.7502  -27.0375   18.2667 N   0  0  0  0  0  0  0  0  0  0  0  0
  -26.9346  -23.9174   17.5450 N   0  0  0  0  0  0  0  0  0  0  0  0
  -19.5318  -29.9477   23.5113 N   0  0  0  0  0  0  0  0  0  0  0  0
  -23.6839  -11.9932   20.6566 N   0  0  0  0  0  0  0  0  0  0  0  0
  -28.8996  -15.7574   21.9465 N   0  0  0  0  0  0  0  0  0  0  0  0
  -21.4749  -29.0406   22.3542 N   0  0  0  0  0  0  0  0  0  0  0  0
  -19.4323  -27.7263   22.6166 N   0  3  0  0  0  0  0  0  0  0  0  0
  -30.2401  -18.6123   20.1800 N   0  3  0  0  0  0  0  0  0  0  0  0
  -24.7790  -24.5263   17.0535 O   0  0  0  0  0  0  0  0  0  0  0  0
  -23.5773  -13.7638   22.1653 O   0  0  0  0  0  0  0  0  0  0  0  0
  -27.5430  -13.3960   21.0563 O   0  0  0  0  0  0  0  0  0  0  0  0
  -28.2477  -17.9797   22.0634 O   0  0  0  0  0  0  0  0  0  0  0  0
  -21.9522  -31.2042   23.0699 O   0  0  0  0  0  0  0  0  0  0  0  0
  -32.1026  -23.9438   19.6250 O   0  0  0  0  0  0  0  0  0  0  0  0
  -21.6707  -19.5243   21.1662 O   0  0  0  0  0  0  0  0  0  1  0  0
  -34.3828  -23.6066   24.6341 F   0  0  0  0  0  0  0  0  0  0  0  0
  -32.7083  -21.4901   20.7454 F   0  0  0  0  0  0  0  0  0  0  0  0
  1  2  1  0  0  0  0
  1  5  2  0  0  0  0
  2  6  2  0  0  0  0
  3  8  2  0  0  0  0
  3 15  1  0  0  0  0
  4  9  1  0  0  0  0
  4 15  2  0  0  0  0
  5 17  1  0  0  0  0
  6 19  1  0  0  0  0
  7 10  2  0  0  0  0
  7 18  1  0  0  0  0
  8 21  1  0  0  0  0
  9 21  2  0  0  0  0
 10 22  1  0  0  0  0
 11 12  2  0  0  0  0
 11 23  1  0  0  0  0
 12 24  1  0  0  0  0
 13 20  1  0  0  0  0
 13 22  2  0  0  0  0
 14 24  2  0  0  0  0
 14 25  1  0  0  0  0
 15 26  1  0  0  0  0
 16 26  1  0  0  0  0
 16 27  2  0  0  0  0
 16 28  1  0  0  0  0
 17 19  2  0  0  0  0
 17 34  1  0  0  0  0
 18 20  2  0  0  0  0
 18 35  1  0  0  0  0
 19 47  1  0  0  0  0
 20 36  1  0  0  0  0
 21 80  1  0  0  0  0
 22 81  1  0  0  0  0
 23 25  2  0  0  0  0
 23 80  1  0  0  0  0
 24 82  1  0  0  0  0
 25 83  1  0  0  0  0
 26 63  2  0  0  0  0
 27 64  1  0  0  0  0
 27 67  1  0  0  0  0
 28 68  1  0  0  0  0
 28 75  2  0  0  0  0
 29 48  1  0  0  0  0
 29 70  1  0  0  0  0
 29 76  2  0  0  0  0
 30 60  1  0  0  0  0
 30 65  1  0  0  0  0
 30 77  2  0  0  0  0
 31 61  1  0  0  0  0
 31 71  1  0  0  0  0
 31 78  2  0  0  0  0
 32 66  1  0  0  0  0
 32 72  1  0  0  0  0
 32 79  2  0  0  0  0
 33 69  1  0  0  0  0
 33 72  1  0  0  0  0
 33 73  2  0  0  0  0
 34 37  1  0  0  0  0
 35 48  1  0  0  0  0
 36 65  1  0  0  0  0
 37 39  1  0  0  0  0
 38 44  1  0  0  0  0
 38 45  1  0  0  0  0
 39 47  1  0  0  0  0
 40 42  1  0  0  0  0
 40 49  1  0  0  0  0
 41 43  1  0  0  0  0
 41 49  1  0  0  0  0
 42 50  1  0  0  0  0
 43 50  1  0  0  0  0
 44 51  1  0  0  0  0
 45 66  1  0  0  0  0
 46 51  1  0  0  0  0
 46 66  1  0  0  0  0
 47 70  1  0  0  0  0
 48 65  1  0  0  0  0
 49 57  1  0  0  0  0
 50 58  1  0  0  0  0
 51 64  1  0  0  0  0
 52 61  1  0  0  0  0
 53 62  1  0  0  0  0
 54 62  1  0  0  0  0
 55 62  1  0  0  0  0
 56 74  1  0  0  0  0
 57 59  1  0  0  0  0
 58 81  1  0  0  0  0
 59 73  1  0  0  0  0
 60 62  1  0  0  0  0
 60 71  1  0  0  0  0
 61 74  1  0  0  0  0
 63 64  1  0  0  0  0
M  CHG  2  73   1  74   1
M  ISO  4  32 100  58 101  72 100  81 101
M  END
> <Batch ID>
0131

> <Smiles>
CNC(C)C(=O)NC(C(=O)N1Cc2cc([101O:1][101CH2:1]C3CCC(CCNC(=N)[100NH:0][100C:0](=O)N4CCCC(n5nc(-c6ccc(Oc7ccc(F)cc7F)cc6)c(C(N)=O)c5N)C4)CC3)ccc2CC1C(=O)NC1CCCc2ccccc21)C(C)(C)C

> <Shape>
0.252

> <Color>
0.056

> <Negative vol penalty>
0.000

$$$$

  -OEChem-04052320503D

 80 88  0     1  0  0  0  0  0999 V2000
  -17.1503  -26.4616   22.4691 C   0  0  0  0  0  0  0  0  0  0  0  0
  -18.3994  -25.8745   22.6438 C   0  0  0  0  0  0  0  0  0  0  0  0
  -23.8075  -14.9390   22.6803 C   0  0  0  0  0  0  0  0  0  0  0  0
  -25.1772  -15.5927   20.8005 C   0  0  0  0  0  0  0  0  0  0  0  0
  -17.0526  -27.7393   21.9197 C   0  0  0  0  0  0  0  0  0  0  0  0
  -19.5515  -26.5644   22.2682 C   0  0  0  0  0  0  0  0  0  0  0  0
  -25.0175  -26.3776   25.0238 C   0  0  0  0  0  0  0  0  0  0  0  0
  -23.3584  -13.8278   21.9667 C   0  0  0  0  0  0  0  0  0  0  0  0
  -24.7282  -14.4815   20.0869 C   0  0  0  0  0  0  0  0  0  0  0  0
  -26.1842  -25.6666   24.7460 C   0  0  0  0  0  0  0  0  0  0  0  0
  -24.5107  -10.7527   21.1611 C   0  0  0  0  0  0  0  0  0  0  0  0
  -24.4711   -9.5276   21.8267 C   0  0  0  0  0  0  0  0  0  0  0  0
  -27.0545  -27.5731   23.5514 C   0  0  0  0  0  0  0  0  0  0  0  0
  -22.0901   -9.3941   21.4394 C   0  0  0  0  0  0  0  0  0  0  0  0
  -24.7168  -15.8215   22.0972 C   0  0  0  0  0  0  0  0  0  0  0  0
  -26.3051  -17.0411   23.6775 C   0  0  0  0  0  0  0  0  0  0  0  0
  -18.2047  -28.4491   21.5461 C   0  0  0  0  0  0  0  0  0  0  0  0
  -24.8558  -27.6901   24.5574 C   0  0  0  0  0  0  0  0  0  0  0  0
  -19.4690  -27.8522   21.7120 C   0  0  0  0  0  0  0  0  0  0  0  0
  -25.8859  -28.2995   23.8268 C   0  0  0  0  0  0  0  0  0  0  0  0
  -23.8188  -13.5990   20.6700 C   0  0  0  0  0  0  0  0  0  0  0  0
  -27.2017  -26.2633   24.0073 C   0  0  0  0  0  0  0  0  0  0  0  0
  -23.3399  -11.2986   20.6347 C   0  0  0  0  0  0  0  0  0  0  0  0
  -23.2608   -8.8482   21.9658 C   0  0  0  0  0  0  0  0  0  0  0  0
  -22.1297  -10.6193   20.7739 C   0  0  0  0  0  0  0  0  0  0  0  0
  -25.1806  -16.9698   22.8336 C   0  0  0  0  0  0  0  0  0  0  0  0
  -26.3117  -18.3372   24.1320 C   0  0  0  0  0  0  0  0  0  0  0  0
  -27.2585  -16.0265   24.0199 C   0  0  0  0  0  0  0  0  0  0  0  0
  -22.8199  -29.1372   22.5915 C   0  0  0  0  0  0  0  0  0  0  0  0
  -24.3839  -31.8072   23.5650 C   0  0  0  0  0  0  0  0  0  0  0  0
  -27.2228  -33.1936   24.8553 C   0  0  0  0  0  0  0  0  0  0  0  0
  -24.1032  -23.4446   21.9210 C   0  0  0  0  0  0  0  0  0  0  0  0
  -18.0462  -29.8086   20.9127 C   0  0  0  0  0  0  0  0  0  0  0  0
  -23.6024  -28.4529   24.8883 C   0  0  0  0  0  0  0  0  0  0  0  0
  -25.7700  -29.7133   23.3206 C   0  0  0  0  0  0  0  0  0  0  0  0
  -19.3371  -30.6230   20.8874 C   0  0  0  0  0  0  0  0  0  0  0  0
  -23.3675  -21.9862   25.0846 C   0  0  0  0  0  0  0  0  0  0  0  0
  -29.6221  -22.7113   19.5034 C   0  0  0  0  0  0  0  0  0  0  0  0
  -20.5000  -29.7652   20.3992 C   0  0  0  0  0  0  0  0  0  0  0  0
  -23.8502  -20.5416   24.9426 C   0  0  0  0  0  0  0  0  0  0  0  0
  -30.2505  -23.8384   20.3011 C   0  0  0  0  0  0  0  0  0  0  0  0
  -22.7637  -22.5099   23.7834 C   0  0  0  0  0  0  0  0  0  0  0  0
  -24.1162  -20.9330   22.4577 C   0  0  0  0  0  0  0  0  0  0  0  0
  -28.2039  -23.1969   19.3025 C   0  0  0  0  0  0  0  0  0  0  0  0
  -20.7433  -28.5787   21.3398 C   0  0  1  0  0  0  0  0  0  0  0  0
  -23.3316  -29.6043   23.9248 C   0  0  1  0  0  0  0  0  0  0  0  0
  -24.7839  -20.3792   23.7281 C   0  0  2  0  0  0  0  0  0  0  0  0
  -29.1614  -24.2830   21.2771 C   0  0  2  0  0  0  0  0  0  0  0  0
  -28.2167  -35.4052   25.5024 C   0  0  0  0  0  0  0  0  0  0  0  0
  -24.8485  -32.4572   20.6202 C   0  0  0  0  0  0  0  0  0  0  0  0
  -26.6059  -34.0928   21.3305 C   0  0  0  0  0  0  0  0  0  0  0  0
  -24.2371  -34.4240   22.0389 C   0  0  0  0  0  0  0  0  0  0  0  0
  -27.5238  -32.3631   27.6800 C   0  0  0  0  0  0  0  0  0  0  0  0
  -29.2977  -23.6539   22.6562 C   0  0  0  0  0  0  0  0  0  0  0  0
  -25.5084  -24.2319   20.0329 C   0  0  0  0  0  0  0  0  0  0  0  0
  -26.7866  -24.8443   20.5745 C   0  0  0  0  0  0  0  0  0  0  0  0
  -28.2274  -24.1539   23.6145 C   0  0  0  0  0  0  0  0  0  1  0  0
  -25.5970  -32.5691   23.0887 C   0  0  1  0  0  0  0  0  0  0  0  0
  -27.4355  -34.1909   25.9799 C   0  0  2  0  0  0  0  0  0  0  0  0
  -25.3238  -33.3585   21.7773 C   0  0  0  0  0  0  0  0  0  0  0  0
  -24.5206  -18.1284   22.7550 N   0  0  0  0  0  0  0  0  0  0  0  0
  -25.2326  -18.9399   23.5554 N   0  0  0  0  0  0  0  0  0  0  0  0
  -24.5226  -30.4155   23.6647 N   0  0  0  0  0  0  0  0  0  0  0  0
  -23.6999  -22.3279   22.6715 N   0  0  0  0  0  0  0  0  0  0  0  0
  -27.1352  -19.0087   24.9646 N   0  0  0  0  0  0  0  0  0  0  0  0
  -27.1037  -14.7493   23.4640 N   0  0  0  0  0  0  0  0  0  0  0  0
  -21.4452  -29.0121   22.5289 N   0  0  0  0  0  0  0  0  0  0  0  0
  -26.0225  -33.4009   24.2092 N   0  0  0  0  0  0  0  0  0  0  0  0
  -24.9970  -23.1850   20.8893 N   0  0  0  0  0  0  0  0  0  0  0  0
  -27.8575  -23.8021   20.6435 N   0  3  1  0  0  0  0  0  0  0  0  0
  -28.1893  -33.5572   27.0985 N   0  3  0  0  0  0  0  0  0  0  0  0
  -28.2098  -16.2415   24.8088 O   0  0  0  0  0  0  0  0  0  0  0  0
  -23.6134  -28.9087   21.6861 O   0  0  0  0  0  0  0  0  0  0  0  0
  -23.3535  -32.4247   23.8453 O   0  0  0  0  0  0  0  0  0  0  0  0
  -28.0414  -32.3207   24.5755 O   0  0  0  0  0  0  0  0  0  0  0  0
  -23.7010  -24.5890   22.1565 O   0  0  0  0  0  0  0  0  0  0  0  0
  -23.3810  -12.5147   19.9735 O   0  0  0  0  0  0  0  0  0  0  0  0
  -28.3412  -25.5713   23.7342 O   0  0  0  0  0  0  0  0  0  1  0  0
  -23.2232   -7.6710   22.6037 F   0  0  0  0  0  0  0  0  0  0  0  0
  -21.0018  -11.1382   20.2693 F   0  0  0  0  0  0  0  0  0  0  0  0
  1  2  1  0  0  0  0
  1  5  2  0  0  0  0
  2  6  2  0  0  0  0
  3  8  2  0  0  0  0
  3 15  1  0  0  0  0
  4  9  1  0  0  0  0
  4 15  2  0  0  0  0
  5 17  1  0  0  0  0
  6 19  1  0  0  0  0
  7 10  2  0  0  0  0
  7 18  1  0  0  0  0
  8 21  1  0  0  0  0
  9 21  2  0  0  0  0
 10 22  1  0  0  0  0
 11 12  2  0  0  0  0
 11 23  1  0  0  0  0
 12 24  1  0  0  0  0
 13 20  1  0  0  0  0
 13 22  2  0  0  0  0
 14 24  2  0  0  0  0
 14 25  1  0  0  0  0
 15 26  1  0  0  0  0
 16 26  1  0  0  0  0
 16 27  2  0  0  0  0
 16 28  1  0  0  0  0
 17 19  2  0  0  0  0
 17 33  1  0  0  0  0
 18 20  2  0  0  0  0
 18 34  1  0  0  0  0
 19 45  1  0  0  0  0
 20 35  1  0  0  0  0
 21 77  1  0  0  0  0
 22 78  1  0  0  0  0
 23 25  2  0  0  0  0
 23 77  1  0  0  0  0
 24 79  1  0  0  0  0
 25 80  1  0  0  0  0
 26 61  2  0  0  0  0
 27 62  1  0  0  0  0
 27 65  1  0  0  0  0
 28 66  1  0  0  0  0
 28 72  2  0  0  0  0
 29 46  1  0  0  0  0
 29 67  1  0  0  0  0
 29 73  2  0  0  0  0
 30 58  1  0  0  0  0
 30 63  1  0  0  0  0
 30 74  2  0  0  0  0
 31 59  1  0  0  0  0
 31 68  1  0  0  0  0
 31 75  2  0  0  0  0
 32 64  1  0  0  0  0
 32 69  1  0  0  0  0
 32 76  2  0  0  0  0
 33 36  1  0  0  0  0
 34 46  1  0  0  0  0
 35 63  1  0  0  0  0
 36 39  1  0  0  0  0
 37 40  1  0  0  0  0
 37 42  1  0  0  0  0
 38 41  1  0  0  0  0
 38 44  1  0  0  0  0
 39 45  1  0  0  0  0
 40 47  1  0  0  0  0
 41 48  1  0  0  0  0
 42 64  1  0  0  0  0
 43 47  1  0  0  0  0
 43 64  1  0  0  0  0
 44 70  1  0  0  0  0
 45 67  1  0  0  0  0
 46 63  1  0  0  0  0
 47 62  1  0  0  0  0
 48 54  1  0  0  0  0
 48 70  1  0  0  0  0
 49 59  1  0  0  0  0
 50 60  1  0  0  0  0
 51 60  1  0  0  0  0
 52 60  1  0  0  0  0
 53 71  1  0  0  0  0
 54 57  1  0  0  0  0
 55 56  1  0  0  0  0
 55 69  1  0  0  0  0
 56 70  1  0  0  0  0
 57 78  1  0  0  0  0
 58 60  1  0  0  0  0
 58 68  1  0  0  0  0
 59 71  1  0  0  0  0
 61 62  1  0  0  0  0
M  CHG  2  70   1  71   1
M  ISO  4  32 100  57 101  69 100  78 101
M  END
> <Batch ID>
0131

> <Smiles>
CNC(C)C(=O)NC(C(=O)N1Cc2cc([101O:1][101CH2:1]CC3CCCN3CC[100NH:0][100C:0](=O)N3CCCC(n4nc(-c5ccc(Oc6ccc(F)cc6F)cc5)c(C(N)=O)c4N)C3)ccc2CC1C(=O)NC1CCCc2ccccc21)C(C)(C)C

> <Shape>
0.203

> <Color>
0.060

> <Negative vol penalty>
0.000

$$$$

  -OEChem-04052320503D

 81 89  0     1  0  0  0  0  0999 V2000
  -29.3258  -10.9638   19.9059 C   0  0  0  0  0  0  0  0  0  0  0  0
  -29.4106  -12.3221   19.6176 C   0  0  0  0  0  0  0  0  0  0  0  0
  -31.3088  -22.9583   17.0450 C   0  0  0  0  0  0  0  0  0  0  0  0
  -21.4817  -28.6435   20.9743 C   0  0  0  0  0  0  0  0  0  0  0  0
  -23.1539  -27.4488   22.2446 C   0  0  0  0  0  0  0  0  0  0  0  0
  -28.0856  -10.3849   20.1722 C   0  0  0  0  0  0  0  0  0  0  0  0
  -28.2551  -13.1022   19.5943 C   0  0  0  0  0  0  0  0  0  0  0  0
  -28.8441  -17.5190   22.0006 C   0  0  0  0  0  0  0  0  0  0  0  0
  -30.4639  -22.0570   17.6927 C   0  0  0  0  0  0  0  0  0  0  0  0
  -31.2968  -24.3064   17.4033 C   0  0  0  0  0  0  0  0  0  0  0  0
  -20.5602  -27.6290   21.2334 C   0  0  0  0  0  0  0  0  0  0  0  0
  -22.2323  -26.4343   22.5037 C   0  0  0  0  0  0  0  0  0  0  0  0
  -29.5294  -18.5267   21.3232 C   0  0  0  0  0  0  0  0  0  0  0  0
  -18.5730  -26.6629   23.7928 C   0  0  0  0  0  0  0  0  0  0  0  0
  -17.2871  -27.0389   24.1810 C   0  0  0  0  0  0  0  0  0  0  0  0
  -27.4268  -19.5512   20.7327 C   0  0  0  0  0  0  0  0  0  0  0  0
  -29.5950  -23.8519   19.0568 C   0  0  0  0  0  0  0  0  0  0  0  0
  -16.3734  -25.9043   22.2536 C   0  0  0  0  0  0  0  0  0  0  0  0
  -22.7787  -28.5533   21.4799 C   0  0  0  0  0  0  0  0  0  0  0  0
  -23.9674  -30.7531   21.9855 C   0  0  0  0  0  0  0  0  0  0  0  0
  -26.9155  -11.1603   20.1617 C   0  0  0  0  0  0  0  0  0  0  0  0
  -27.4424  -17.5139   22.0399 C   0  0  0  0  0  0  0  0  0  0  0  0
  -26.9979  -12.5330   19.8594 C   0  0  0  0  0  0  0  0  0  0  0  0
  -26.7262  -18.5438   21.4134 C   0  0  0  0  0  0  0  0  0  0  0  0
  -29.6070  -22.5038   18.6986 C   0  0  0  0  0  0  0  0  0  0  0  0
  -30.4399  -24.7532   18.4091 C   0  0  0  0  0  0  0  0  0  0  0  0
  -20.9354  -26.5244   21.9981 C   0  0  0  0  0  0  0  0  0  0  0  0
  -28.8207  -19.5414   20.6867 C   0  0  0  0  0  0  0  0  0  0  0  0
  -18.7591  -25.9076   22.6350 C   0  0  0  0  0  0  0  0  0  0  0  0
  -16.1873  -26.6596   23.4115 C   0  0  0  0  0  0  0  0  0  0  0  0
  -17.6593  -25.5283   21.8654 C   0  0  0  0  0  0  0  0  0  0  0  0
  -23.7313  -29.6007   21.2122 C   0  0  0  0  0  0  0  0  0  0  0  0
  -24.9592  -31.4221   21.3107 C   0  0  0  0  0  0  0  0  0  0  0  0
  -23.3460  -31.1806   23.2048 C   0  0  0  0  0  0  0  0  0  0  0  0
  -25.1769  -15.5318   21.0188 C   0  0  0  0  0  0  0  0  0  0  0  0
  -23.2180  -17.5817   22.5944 C   0  0  0  0  0  0  0  0  0  0  0  0
  -22.6999  -20.7193   23.8328 C   0  0  0  0  0  0  0  0  0  0  0  0
  -29.2338  -29.6321   17.5192 C   0  0  0  0  0  0  0  0  0  0  0  0
  -25.5920  -10.4806   20.4093 C   0  0  0  0  0  0  0  0  0  0  0  0
  -26.7188  -16.4345   22.7974 C   0  0  0  0  0  0  0  0  0  0  0  0
  -25.2212  -18.5951   21.4433 C   0  0  0  0  0  0  0  0  0  0  0  0
  -24.4597  -11.4518   20.7332 C   0  0  0  0  0  0  0  0  0  0  0  0
  -26.7115  -32.0691   16.9060 C   0  0  0  0  0  0  0  0  0  0  0  0
  -24.4628  -12.6212   19.7536 C   0  0  0  0  0  0  0  0  0  0  0  0
  -25.6830  -31.8168   18.0098 C   0  0  0  0  0  0  0  0  0  0  0  0
  -27.3340  -30.7672   16.4063 C   0  0  0  0  0  0  0  0  0  0  0  0
  -26.8875  -29.6624   18.5635 C   0  0  0  0  0  0  0  0  0  0  0  0
  -25.7699  -13.4173   19.8491 C   0  0  1  0  0  0  0  0  0  0  0  0
  -25.2767  -16.2456   22.3372 C   0  0  1  0  0  0  0  0  0  0  0  0
  -26.2731  -30.9501   19.1385 C   0  0  2  0  0  0  0  0  0  0  0  0
  -20.9877  -22.1043   25.0360 C   0  0  0  0  0  0  0  0  0  0  0  0
  -21.6098  -17.8314   20.0135 C   0  0  0  0  0  0  0  0  0  0  0  0
  -20.5364  -19.8844   20.9630 C   0  0  0  0  0  0  0  0  0  0  0  0
  -20.2285  -17.6819   22.0930 C   0  0  0  0  0  0  0  0  0  0  0  0
  -24.5147  -21.1814   26.1245 C   0  0  0  0  0  0  0  0  0  0  0  0
  -28.6978  -21.5342   19.3946 C   0  0  0  0  0  0  0  0  0  1  0  0
  -31.2679  -27.0925   18.1494 C   0  0  0  0  0  0  0  0  0  0  0  0
  -31.0384  -28.4661   18.7613 C   0  0  0  0  0  0  0  0  0  0  0  0
  -22.4711  -18.8414   22.2280 C   0  0  1  0  0  0  0  0  0  0  0  0
  -22.2010  -21.1993   25.1838 C   0  0  2  0  0  0  0  0  0  0  0  0
  -21.2398  -18.5580   21.3219 C   0  0  0  0  0  0  0  0  0  0  0  0
  -24.5102  -29.5381   20.1289 N   0  0  0  0  0  0  0  0  0  0  0  0
  -25.2454  -30.6596   20.2167 N   0  0  0  0  0  0  0  0  0  0  0  0
  -24.5592  -17.5137   22.1915 N   0  0  0  0  0  0  0  0  0  0  0  0
  -27.8763  -29.9931   17.5254 N   0  0  0  0  0  0  0  0  0  0  0  0
  -25.6056  -32.5823   21.5523 N   0  0  0  0  0  0  0  0  0  0  0  0
  -22.3447  -30.3741   23.7628 N   0  0  0  0  0  0  0  0  0  0  0  0
  -30.4282  -26.1162   18.7715 N   0  0  0  0  0  0  0  0  0  0  0  0
  -25.7546  -14.2765   21.0135 N   0  0  0  0  0  0  0  0  0  0  0  0
  -22.1471  -19.5045   23.4864 N   0  0  0  0  0  0  0  0  0  0  0  0
  -29.6678  -28.9047   18.6207 N   0  0  0  0  0  0  0  0  0  0  0  0
  -23.2705  -21.9588   25.8910 N   0  3  0  0  0  0  0  0  0  0  0  0
  -23.6574  -32.2543   23.7735 O   0  0  0  0  0  0  0  0  0  0  0  0
  -24.6161  -16.0788   20.0765 O   0  0  0  0  0  0  0  0  0  0  0  0
  -22.6349  -16.6937   23.2216 O   0  0  0  0  0  0  0  0  0  0  0  0
  -23.4972  -21.3598   23.1512 O   0  0  0  0  0  0  0  0  0  0  0  0
  -30.0033  -29.9402   16.6027 O   0  0  0  0  0  0  0  0  0  0  0  0
  -20.0363  -25.5345   22.2513 O   0  0  0  0  0  0  0  0  0  0  0  0
  -29.4870  -20.5258   20.0243 O   0  0  0  0  0  0  0  0  0  1  0  0
  -14.9524  -27.0194   23.7852 F   0  0  0  0  0  0  0  0  0  0  0  0
  -17.8318  -24.8017   20.7527 F   0  0  0  0  0  0  0  0  0  0  0  0
  1  2  1  0  0  0  0
  1  6  2  0  0  0  0
  2  7  2  0  0  0  0
  3  9  2  0  0  0  0
  3 10  1  0  0  0  0
  4 11  2  0  0  0  0
  4 19  1  0  0  0  0
  5 12  1  0  0  0  0
  5 19  2  0  0  0  0
  6 21  1  0  0  0  0
  7 23  1  0  0  0  0
  8 13  2  0  0  0  0
  8 22  1  0  0  0  0
  9 25  1  0  0  0  0
 10 26  2  0  0  0  0
 11 27  1  0  0  0  0
 12 27  2  0  0  0  0
 13 28  1  0  0  0  0
 14 15  2  0  0  0  0
 14 29  1  0  0  0  0
 15 30  1  0  0  0  0
 16 24  1  0  0  0  0
 16 28  2  0  0  0  0
 17 25  2  0  0  0  0
 17 26  1  0  0  0  0
 18 30  2  0  0  0  0
 18 31  1  0  0  0  0
 19 32  1  0  0  0  0
 20 32  1  0  0  0  0
 20 33  2  0  0  0  0
 20 34  1  0  0  0  0
 21 23  2  0  0  0  0
 21 39  1  0  0  0  0
 22 24  2  0  0  0  0
 22 40  1  0  0  0  0
 23 48  1  0  0  0  0
 24 41  1  0  0  0  0
 25 56  1  0  0  0  0
 26 68  1  0  0  0  0
 27 78  1  0  0  0  0
 28 79  1  0  0  0  0
 29 31  2  0  0  0  0
 29 78  1  0  0  0  0
 30 80  1  0  0  0  0
 31 81  1  0  0  0  0
 32 62  2  0  0  0  0
 33 63  1  0  0  0  0
 33 66  1  0  0  0  0
 34 67  1  0  0  0  0
 34 73  2  0  0  0  0
 35 49  1  0  0  0  0
 35 69  1  0  0  0  0
 35 74  2  0  0  0  0
 36 59  1  0  0  0  0
 36 64  1  0  0  0  0
 36 75  2  0  0  0  0
 37 60  1  0  0  0  0
 37 70  1  0  0  0  0
 37 76  2  0  0  0  0
 38 65  1  0  0  0  0
 38 71  1  0  0  0  0
 38 77  2  0  0  0  0
 39 42  1  0  0  0  0
 40 49  1  0  0  0  0
 41 64  1  0  0  0  0
 42 44  1  0  0  0  0
 43 45  1  0  0  0  0
 43 46  1  0  0  0  0
 44 48  1  0  0  0  0
 45 50  1  0  0  0  0
 46 65  1  0  0  0  0
 47 50  1  0  0  0  0
 47 65  1  0  0  0  0
 48 69  1  0  0  0  0
 49 64  1  0  0  0  0
 50 63  1  0  0  0  0
 51 60  1  0  0  0  0
 52 61  1  0  0  0  0
 53 61  1  0  0  0  0
 54 61  1  0  0  0  0
 55 72  1  0  0  0  0
 56 79  1  0  0  0  0
 57 58  1  0  0  0  0
 57 68  1  0  0  0  0
 58 71  1  0  0  0  0
 59 61  1  0  0  0  0
 59 70  1  0  0  0  0
 60 72  1  0  0  0  0
 62 63  1  0  0  0  0
M  CHG  1  72   1
M  ISO  4  38 100  56 101  71 100  79 101
M  END
> <Batch ID>
0131

> <Smiles>
CNC(C)C(=O)NC(C(=O)N1Cc2cc([101O:1][101CH2:1]c3cccc(NCC[100NH:0][100C:0](=O)N4CCCC(n5nc(-c6ccc(Oc7ccc(F)cc7F)cc6)c(C(N)=O)c5N)C4)c3)ccc2CC1C(=O)NC1CCCc2ccccc21)C(C)(C)C

> <Shape>
0.233

> <Color>
0.075

> <Negative vol penalty>
0.000

$$$$

  -OEChem-04052320503D

 79 87  0     1  0  0  0  0  0999 V2000
  -26.2557  -33.1308   18.4077 C   0  0  0  0  0  0  0  0  0  0  0  0
  -26.8579  -31.9800   18.9060 C   0  0  0  0  0  0  0  0  0  0  0  0
  -23.1007   -9.8373   19.9341 C   0  0  0  0  0  0  0  0  0  0  0  0
  -23.8695   -9.8462   22.2244 C   0  0  0  0  0  0  0  0  0  0  0  0
  -25.3740  -33.0446   17.3311 C   0  0  0  0  0  0  0  0  0  0  0  0
  -26.5779  -30.7420   18.3287 C   0  0  0  0  0  0  0  0  0  0  0  0
  -30.4333  -26.0292   17.6725 C   0  0  0  0  0  0  0  0  0  0  0  0
  -29.1411  -18.7571   21.0185 C   0  0  0  0  0  0  0  0  0  0  0  0
  -31.3554  -18.5679   20.0707 C   0  0  0  0  0  0  0  0  0  0  0  0
  -28.8580  -19.8089   20.1472 C   0  0  0  0  0  0  0  0  0  0  0  0
  -31.0723  -19.6197   19.1994 C   0  0  0  0  0  0  0  0  0  0  0  0
  -22.3825   -8.6671   20.1797 C   0  0  0  0  0  0  0  0  0  0  0  0
  -23.1512   -8.6760   22.4701 C   0  0  0  0  0  0  0  0  0  0  0  0
  -30.6269  -24.8652   18.4152 C   0  0  0  0  0  0  0  0  0  0  0  0
  -19.9432   -7.8061   23.0802 C   0  0  0  0  0  0  0  0  0  0  0  0
  -19.1920   -7.7429   24.2538 C   0  0  0  0  0  0  0  0  0  0  0  0
  -29.1880  -23.6642   16.8965 C   0  0  0  0  0  0  0  0  0  0  0  0
  -20.4772   -5.8277   24.9732 C   0  0  0  0  0  0  0  0  0  0  0  0
  -23.8443  -10.4268   20.9564 C   0  0  0  0  0  0  0  0  0  0  0  0
  -24.1320  -12.9594   20.8509 C   0  0  0  0  0  0  0  0  0  0  0  0
  -25.0904  -31.8062   16.7341 C   0  0  0  0  0  0  0  0  0  0  0  0
  -29.6055  -26.0219   16.5406 C   0  0  0  0  0  0  0  0  0  0  0  0
  -25.6905  -30.6389   17.2439 C   0  0  0  0  0  0  0  0  0  0  0  0
  -28.9876  -24.8287   16.1397 C   0  0  0  0  0  0  0  0  0  0  0  0
  -30.3898  -18.1366   20.9803 C   0  0  0  0  0  0  0  0  0  0  0  0
  -29.8236  -20.2402   19.2377 C   0  0  0  0  0  0  0  0  0  0  0  0
  -22.4077   -8.0864   21.4477 C   0  0  0  0  0  0  0  0  0  0  0  0
  -30.0019  -23.6832   18.0289 C   0  0  0  0  0  0  0  0  0  0  0  0
  -20.9613   -6.8801   22.8531 C   0  0  0  0  0  0  0  0  0  0  0  0
  -19.4590   -6.7537   25.2003 C   0  0  0  0  0  0  0  0  0  0  0  0
  -21.2283   -5.8909   23.7996 C   0  0  0  0  0  0  0  0  0  0  0  0
  -24.5869  -11.6354   20.7032 C   0  0  0  0  0  0  0  0  0  0  0  0
  -25.2065  -13.7341   20.4881 C   0  0  0  0  0  0  0  0  0  0  0  0
  -22.8525  -13.4455   21.2780 C   0  0  0  0  0  0  0  0  0  0  0  0
  -26.9174  -27.5054   15.7179 C   0  0  0  0  0  0  0  0  0  0  0  0
  -27.4575  -26.0678   12.8607 C   0  0  0  0  0  0  0  0  0  0  0  0
  -28.9270  -23.5185   11.1320 C   0  0  0  0  0  0  0  0  0  0  0  0
  -30.6681  -14.8682   20.6614 C   0  0  0  0  0  0  0  0  0  0  0  0
  -24.0943  -31.7568   15.6028 C   0  0  0  0  0  0  0  0  0  0  0  0
  -29.4283  -27.2796   15.7349 C   0  0  0  0  0  0  0  0  0  0  0  0
  -28.1054  -24.7632   14.9207 C   0  0  0  0  0  0  0  0  0  0  0  0
  -24.1397  -30.4546   14.8075 C   0  0  0  0  0  0  0  0  0  0  0  0
  -29.5717  -12.4749   18.2642 C   0  0  0  0  0  0  0  0  0  0  0  0
  -24.1751  -29.2550   15.7492 C   0  0  0  0  0  0  0  0  0  0  0  0
  -28.1426  -12.1480   18.7009 C   0  0  0  0  0  0  0  0  0  0  0  0
  -30.4888  -12.7077   19.4629 C   0  0  0  0  0  0  0  0  0  0  0  0
  -28.5776  -13.3896   20.8614 C   0  0  0  0  0  0  0  0  0  0  0  0
  -25.4311  -29.2809   16.6286 C   0  0  1  0  0  0  0  0  0  0  0  0
  -28.1542  -27.2771   14.8958 C   0  0  1  0  0  0  0  0  0  0  0  0
  -27.6026  -13.2017   19.6865 C   0  0  2  0  0  0  0  0  0  0  0  0
  -29.1577  -22.5866    8.8134 C   0  0  0  0  0  0  0  0  0  0  0  0
  -24.6287  -24.9379   13.0360 C   0  0  0  0  0  0  0  0  0  0  0  0
  -25.2453  -23.3033   11.2426 C   0  0  0  0  0  0  0  0  0  0  0  0
  -25.2883  -25.7512   10.7649 C   0  0  0  0  0  0  0  0  0  0  0  0
  -31.8638  -23.8847   11.1519 C   0  0  0  0  0  0  0  0  0  0  0  0
  -30.6933  -17.0120   21.9115 C   0  0  0  0  0  0  0  0  0  0  0  0
  -29.5177  -21.3705   18.2996 C   0  0  0  0  0  0  0  0  0  1  0  0
  -27.0774  -24.7449   12.2408 C   0  0  1  0  0  0  0  0  0  0  0  0
  -29.7581  -23.5105    9.8616 C   0  0  2  0  0  0  0  0  0  0  0  0
  -25.5749  -24.6857   11.8452 C   0  0  0  0  0  0  0  0  0  0  0  0
  -25.8518  -11.5690   20.2794 N   0  0  0  0  0  0  0  0  0  0  0  0
  -26.2008  -12.8611   20.1576 N   0  0  0  0  0  0  0  0  0  0  0  0
  -27.9582  -26.0208   14.1695 N   0  0  0  0  0  0  0  0  0  0  0  0
  -29.9201  -13.7188   20.3574 N   0  0  0  0  0  0  0  0  0  0  0  0
  -25.3883  -15.0702   20.4226 N   0  0  0  0  0  0  0  0  0  0  0  0
  -21.8615  -12.5130   21.6135 N   0  0  0  0  0  0  0  0  0  0  0  0
  -26.5846  -28.8373   15.8756 N   0  0  0  0  0  0  0  0  0  0  0  0
  -27.9970  -24.5365   11.1275 N   0  0  0  0  0  0  0  0  0  0  0  0
  -30.0528  -15.7789   21.5116 N   0  0  0  0  0  0  0  0  0  0  0  0
  -31.1456  -23.0516   10.1533 N   0  3  0  0  0  0  0  0  0  0  0  0
  -22.5905  -14.6704   21.3440 O   0  0  0  0  0  0  0  0  0  0  0  0
  -26.3092  -26.5444   16.1741 O   0  0  0  0  0  0  0  0  0  0  0  0
  -27.3221  -27.1040   12.2052 O   0  0  0  0  0  0  0  0  0  0  0  0
  -29.0845  -22.7010   12.0361 O   0  0  0  0  0  0  0  0  0  0  0  0
  -31.7982  -15.0706   20.2045 O   0  0  0  0  0  0  0  0  0  0  0  0
  -21.7068   -6.9447   21.6878 O   0  0  0  0  0  0  0  0  0  0  0  0
  -30.1886  -22.5458   18.7524 O   0  0  0  0  0  0  0  0  0  1  0  0
  -18.7385   -6.6940   26.3279 F   0  0  0  0  0  0  0  0  0  0  0  0
  -22.2060   -4.9993   23.5875 F   0  0  0  0  0  0  0  0  0  0  0  0
  1  2  1  0  0  0  0
  1  5  2  0  0  0  0
  2  6  2  0  0  0  0
  3 12  2  0  0  0  0
  3 19  1  0  0  0  0
  4 13  1  0  0  0  0
  4 19  2  0  0  0  0
  5 21  1  0  0  0  0
  6 23  1  0  0  0  0
  7 14  2  0  0  0  0
  7 22  1  0  0  0  0
  8 10  2  0  0  0  0
  8 25  1  0  0  0  0
  9 11  1  0  0  0  0
  9 25  2  0  0  0  0
 10 26  1  0  0  0  0
 11 26  2  0  0  0  0
 12 27  1  0  0  0  0
 13 27  2  0  0  0  0
 14 28  1  0  0  0  0
 15 16  2  0  0  0  0
 15 29  1  0  0  0  0
 16 30  1  0  0  0  0
 17 24  1  0  0  0  0
 17 28  2  0  0  0  0
 18 30  2  0  0  0  0
 18 31  1  0  0  0  0
 19 32  1  0  0  0  0
 20 32  1  0  0  0  0
 20 33  2  0  0  0  0
 20 34  1  0  0  0  0
 21 23  2  0  0  0  0
 21 39  1  0  0  0  0
 22 24  2  0  0  0  0
 22 40  1  0  0  0  0
 23 48  1  0  0  0  0
 24 41  1  0  0  0  0
 25 56  1  0  0  0  0
 26 57  1  0  0  0  0
 27 76  1  0  0  0  0
 28 77  1  0  0  0  0
 29 31  2  0  0  0  0
 29 76  1  0  0  0  0
 30 78  1  0  0  0  0
 31 79  1  0  0  0  0
 32 61  2  0  0  0  0
 33 62  1  0  0  0  0
 33 65  1  0  0  0  0
 34 66  1  0  0  0  0
 34 71  2  0  0  0  0
 35 49  1  0  0  0  0
 35 67  1  0  0  0  0
 35 72  2  0  0  0  0
 36 58  1  0  0  0  0
 36 63  1  0  0  0  0
 36 73  2  0  0  0  0
 37 59  1  0  0  0  0
 37 68  1  0  0  0  0
 37 74  2  0  0  0  0
 38 64  1  0  0  0  0
 38 69  1  0  0  0  0
 38 75  2  0  0  0  0
 39 42  1  0  0  0  0
 40 49  1  0  0  0  0
 41 63  1  0  0  0  0
 42 44  1  0  0  0  0
 43 45  1  0  0  0  0
 43 46  1  0  0  0  0
 44 48  1  0  0  0  0
 45 50  1  0  0  0  0
 46 64  1  0  0  0  0
 47 50  1  0  0  0  0
 47 64  1  0  0  0  0
 48 67  1  0  0  0  0
 49 63  1  0  0  0  0
 50 62  1  0  0  0  0
 51 59  1  0  0  0  0
 52 60  1  0  0  0  0
 53 60  1  0  0  0  0
 54 60  1  0  0  0  0
 55 70  1  0  0  0  0
 56 69  1  0  0  0  0
 57 77  1  0  0  0  0
 58 60  1  0  0  0  0
 58 68  1  0  0  0  0
 59 70  1  0  0  0  0
 61 62  1  0  0  0  0
M  CHG  1  70   1
M  ISO  4  38 100  57 101  69 100  77 101
M  END
> <Batch ID>
0131

> <Smiles>
CNC(C)C(=O)NC(C(=O)N1Cc2cc([101O:1][101CH2:1]c3ccc(C[100NH:0][100C:0](=O)N4CCCC(n5nc(-c6ccc(Oc7ccc(F)cc7F)cc6)c(C(N)=O)c5N)C4)cc3)ccc2CC1C(=O)NC1CCCc2ccccc21)C(C)(C)C

> <Shape>
0.232

> <Color>
0.203

> <Negative vol penalty>
0.000

$$$$

  -OEChem-04052320503D

 88 98  0     1  0  0  0  0  0999 V2000
  -25.0399  -37.3968   20.3675 C   0  0  0  0  0  0  0  0  0  0  0  0
  -25.8111  -36.2780   20.0692 C   0  0  0  0  0  0  0  0  0  0  0  0
  -24.5727  -14.2759   20.3261 C   0  0  0  0  0  0  0  0  0  0  0  0
  -26.8712  -14.0134   21.0226 C   0  0  0  0  0  0  0  0  0  0  0  0
  -24.1668  -37.3706   21.4543 C   0  0  0  0  0  0  0  0  0  0  0  0
  -25.7104  -35.1327   20.8581 C   0  0  0  0  0  0  0  0  0  0  0  0
  -26.1733  -29.3202   18.9855 C   0  0  0  0  0  0  0  0  0  0  0  0
  -24.4618  -12.8942   20.1712 C   0  0  0  0  0  0  0  0  0  0  0  0
  -26.7603  -12.6316   20.8677 C   0  0  0  0  0  0  0  0  0  0  0  0
  -27.2273  -28.4080   19.0099 C   0  0  0  0  0  0  0  0  0  0  0  0
  -24.0227  -10.1924   22.1562 C   0  0  0  0  0  0  0  0  0  0  0  0
  -22.8814   -9.5726   22.6650 C   0  0  0  0  0  0  0  0  0  0  0  0
  -31.6801  -23.4309   19.7538 C   0  0  0  0  0  0  0  0  0  0  0  0
  -29.8051  -22.8992   21.7410 C   0  0  0  0  0  0  0  0  0  0  0  0
  -26.3735  -27.4858   21.0689 C   0  0  0  0  0  0  0  0  0  0  0  0
  -22.3222   -8.7846   20.4505 C   0  0  0  0  0  0  0  0  0  0  0  0
  -25.7775  -14.8356   20.7517 C   0  0  0  0  0  0  0  0  0  0  0  0
  -25.6268  -17.0127   22.0728 C   0  0  0  0  0  0  0  0  0  0  0  0
  -24.0482  -36.2210   22.2511 C   0  0  0  0  0  0  0  0  0  0  0  0
  -25.2159  -29.3292   20.0101 C   0  0  0  0  0  0  0  0  0  0  0  0
  -24.8359  -35.0915   21.9573 C   0  0  0  0  0  0  0  0  0  0  0  0
  -30.9528  -24.4914   20.3159 C   0  0  0  0  0  0  0  0  0  0  0  0
  -29.9922  -24.2211   21.3072 C   0  0  0  0  0  0  0  0  0  0  0  0
  -25.3069  -28.3974   21.0539 C   0  0  0  0  0  0  0  0  0  0  0  0
  -31.4779  -22.1212   20.1874 C   0  0  0  0  0  0  0  0  0  0  0  0
  -30.5425  -21.8557   21.1826 C   0  0  0  0  0  0  0  0  0  0  0  0
  -25.5556  -12.0720   20.4420 C   0  0  0  0  0  0  0  0  0  0  0  0
  -27.3292  -27.4925   20.0532 C   0  0  0  0  0  0  0  0  0  0  0  0
  -24.3138  -10.1084   20.7946 C   0  0  0  0  0  0  0  0  0  0  0  0
  -22.0311   -8.8687   21.8121 C   0  0  0  0  0  0  0  0  0  0  0  0
  -23.4635   -9.4045   19.9418 C   0  0  0  0  0  0  0  0  0  0  0  0
  -25.8928  -16.2629   20.9114 C   0  0  0  0  0  0  0  0  0  0  0  0
  -25.8860  -18.3117   21.7098 C   0  0  0  0  0  0  0  0  0  0  0  0
  -25.1848  -16.5741   23.3643 C   0  0  0  0  0  0  0  0  0  0  0  0
  -24.2852  -31.4453   22.1917 C   0  0  0  0  0  0  0  0  0  0  0  0
  -22.0145  -29.2156   22.8200 C   0  0  0  0  0  0  0  0  0  0  0  0
  -21.0528  -25.9437   22.6910 C   0  0  0  0  0  0  0  0  0  0  0  0
  -29.3832  -20.7500   17.5055 C   0  0  0  0  0  0  0  0  0  0  0  0
  -23.1257  -36.2563   23.4437 C   0  0  0  0  0  0  0  0  0  0  0  0
  -24.0700  -30.3020   19.9551 C   0  0  0  0  0  0  0  0  0  0  0  0
  -31.1793  -25.8879   19.7961 C   0  0  0  0  0  0  0  0  0  0  0  0
  -29.1916  -25.3223   21.9626 C   0  0  0  0  0  0  0  0  0  0  0  0
  -24.2936  -28.3524   22.1673 C   0  0  0  0  0  0  0  0  0  0  0  0
  -22.8024  -34.8740   24.0049 C   0  0  0  0  0  0  0  0  0  0  0  0
  -30.6454  -26.9715   20.7332 C   0  0  0  0  0  0  0  0  0  0  0  0
  -25.8748  -21.2090   17.9024 C   0  0  0  0  0  0  0  0  0  0  0  0
  -24.0738  -34.0419   24.1398 C   0  0  0  0  0  0  0  0  0  0  0  0
  -30.4232  -18.1410   23.8153 C   0  0  0  0  0  0  0  0  0  0  0  0
  -29.0080  -18.2482   24.3105 C   0  0  0  0  0  0  0  0  0  0  0  0
  -25.4576  -20.0611   18.8233 C   0  0  0  0  0  0  0  0  0  0  0  0
  -26.9737  -20.7827   16.9314 C   0  0  0  0  0  0  0  0  0  0  0  0
  -27.7443  -19.0331   18.4867 C   0  0  0  0  0  0  0  0  0  0  0  0
  -24.7365  -33.8217   22.7746 C   0  0  1  0  0  0  0  0  0  0  0  0
  -23.4396  -30.5605   21.3201 C   0  0  1  0  0  0  0  0  0  0  0  0
  -29.3646  -18.7516   22.9394 C   0  0  0  0  0  0  0  0  0  0  0  0
  -26.6776  -19.4305   19.5214 C   0  0  2  0  0  0  0  0  0  0  0  0
  -29.2313  -26.6522   21.2056 C   0  0  1  0  0  0  0  0  0  1  0  0
  -19.1585  -24.4211   23.3160 C   0  0  0  0  0  0  0  0  0  0  0  0
  -22.8932  -29.3248   25.7400 C   0  0  0  0  0  0  0  0  0  0  0  0
  -21.6745  -27.1702   26.1148 C   0  0  0  0  0  0  0  0  0  0  0  0
  -20.4187  -29.2032   25.3991 C   0  0  0  0  0  0  0  0  0  0  0  0
  -20.5944  -25.1664   19.8723 C   0  0  0  0  0  0  0  0  0  0  0  0
  -32.2787  -21.0236   19.5659 C   0  0  0  0  0  0  0  0  0  0  0  0
  -29.3755  -20.2154   22.6569 C   0  0  0  0  0  0  0  0  0  0  0  0
  -31.7647  -20.5972   18.1867 C   0  0  0  0  0  0  0  0  0  0  0  0
  -21.9140  -28.0213   23.7380 C   0  0  1  0  0  0  0  0  0  0  0  0
  -19.7644  -25.2901   22.2249 C   0  0  2  0  0  0  0  0  0  0  0  0
  -21.7454  -28.4318   25.2282 C   0  0  0  0  0  0  0  0  0  0  0  0
  -26.2905  -17.0224   19.8871 N   0  0  0  0  0  0  0  0  0  0  0  0
  -26.2761  -18.2630   20.4038 N   0  0  0  0  0  0  0  0  0  0  0  0
  -23.1952  -29.3281   22.0722 N   0  0  0  0  0  0  0  0  0  0  0  0
  -28.1020  -20.1943   17.6570 N   0  0  0  0  0  0  0  0  0  0  0  0
  -25.8160  -19.4795   22.3835 N   0  0  0  0  0  0  0  0  0  0  0  0
  -24.9664  -15.2045   23.5662 N   0  0  0  0  0  0  0  0  0  0  0  0
  -30.3255  -20.5370   21.6385 N   0  0  0  0  0  0  0  0  0  0  0  0
  -24.0364  -32.7952   22.0326 N   0  0  0  0  0  0  0  0  0  0  0  0
  -20.8277  -27.1975   23.2186 N   0  0  0  0  0  0  0  0  0  0  0  0
  -30.3951  -20.1361   18.2335 N   0  0  0  0  0  0  0  0  0  0  0  0
  -20.0195  -24.4356   21.0309 N   0  3  0  0  0  0  0  0  0  0  0  0
  -24.9737  -17.3749   24.3065 O   0  0  0  0  0  0  0  0  0  0  0  0
  -25.1018  -30.9406   22.9534 O   0  0  0  0  0  0  0  0  0  0  0  0
  -21.0770  -30.0152   22.7631 O   0  0  0  0  0  0  0  0  0  0  0  0
  -22.1489  -25.3951   22.5998 O   0  0  0  0  0  0  0  0  0  0  0  0
  -29.6076  -21.7246   16.7797 O   0  0  0  0  0  0  0  0  0  0  0  0
  -25.4477  -10.7236   20.2912 O   0  0  0  0  0  0  0  0  0  0  0  0
  -28.3574  -26.6014   20.0798 O   0  0  0  0  0  0  0  0  0  1  0  0
  -20.9360   -8.2723   22.3011 F   0  0  0  0  0  0  0  0  0  0  0  0
  -23.7385   -9.3193   18.6330 F   0  0  0  0  0  0  0  0  0  0  0  0
  1  2  1  0  0  0  0
  1  5  2  0  0  0  0
  2  6  2  0  0  0  0
  3  8  2  0  0  0  0
  3 17  1  0  0  0  0
  4  9  1  0  0  0  0
  4 17  2  0  0  0  0
  5 19  1  0  0  0  0
  6 21  1  0  0  0  0
  7 10  2  0  0  0  0
  7 20  1  0  0  0  0
  8 27  1  0  0  0  0
  9 27  2  0  0  0  0
 10 28  1  0  0  0  0
 11 12  2  0  0  0  0
 11 29  1  0  0  0  0
 12 30  1  0  0  0  0
 13 22  1  0  0  0  0
 13 25  2  0  0  0  0
 14 23  1  0  0  0  0
 14 26  2  0  0  0  0
 15 24  1  0  0  0  0
 15 28  2  0  0  0  0
 16 30  2  0  0  0  0
 16 31  1  0  0  0  0
 17 32  1  0  0  0  0
 18 32  1  0  0  0  0
 18 33  2  0  0  0  0
 18 34  1  0  0  0  0
 19 21  2  0  0  0  0
 19 39  1  0  0  0  0
 20 24  2  0  0  0  0
 20 40  1  0  0  0  0
 21 53  1  0  0  0  0
 22 23  2  0  0  0  0
 22 41  1  0  0  0  0
 23 42  1  0  0  0  0
 24 43  1  0  0  0  0
 25 26  1  0  0  0  0
 25 63  1  0  0  0  0
 26 75  1  0  0  0  0
 27 85  1  0  0  0  0
 28 86  1  0  0  0  0
 29 31  2  0  0  0  0
 29 85  1  0  0  0  0
 30 87  1  0  0  0  0
 31 88  1  0  0  0  0
 32 69  2  0  0  0  0
 33 70  1  0  0  0  0
 33 73  1  0  0  0  0
 34 74  1  0  0  0  0
 34 80  2  0  0  0  0
 35 54  1  0  0  0  0
 35 76  1  0  0  0  0
 35 81  2  0  0  0  0
 36 66  1  0  0  0  0
 36 71  1  0  0  0  0
 36 82  2  0  0  0  0
 37 67  1  0  0  0  0
 37 77  1  0  0  0  0
 37 83  2  0  0  0  0
 38 72  1  0  0  0  0
 38 78  1  0  0  0  0
 38 84  2  0  0  0  0
 39 44  1  0  0  0  0
 40 54  1  0  0  0  0
 41 45  1  0  0  0  0
 42 57  1  0  0  0  0
 43 71  1  0  0  0  0
 44 47  1  0  0  0  0
 45 57  1  0  0  0  0
 46 50  1  0  0  0  0
 46 51  1  0  0  0  0
 47 53  1  0  0  0  0
 48 49  1  0  0  0  0
 48 55  1  0  0  0  0
 49 55  1  0  0  0  0
 50 56  1  0  0  0  0
 51 72  1  0  0  0  0
 52 56  1  0  0  0  0
 52 72  1  0  0  0  0
 53 76  1  0  0  0  0
 54 71  1  0  0  0  0
 55 64  1  0  0  0  0
 56 70  1  0  0  0  0
 57 86  1  0  0  0  0
 58 67  1  0  0  0  0
 59 68  1  0  0  0  0
 60 68  1  0  0  0  0
 61 68  1  0  0  0  0
 62 79  1  0  0  0  0
 63 65  1  0  0  0  0
 64 75  1  0  0  0  0
 65 78  1  0  0  0  0
 66 68  1  0  0  0  0
 66 77  1  0  0  0  0
 67 79  1  0  0  0  0
 69 70  1  0  0  0  0
M  CHG  1  79   1
M  ISO  4  38 100  57 101  78 100  86 101
M  END
> <Batch ID>
0131

> <Smiles>
CNC(C)C(=O)NC(C(=O)N1Cc2cc([101O:1][101CH:1]3CCc4cc(CC[100NH:0][100C:0](=O)N5CCCC(n6nc(-c7ccc(Oc8ccc(F)cc8F)cc7)c(C(N)=O)c6N)C5)c(NCC5CC5)cc4C3)ccc2CC1C(=O)NC1CCCc2ccccc21)C(C)(C)C

> <Shape>
0.255

> <Color>
0.078

> <Negative vol penalty>
0.000

$$$$

  -OEChem-04052320503D

 83 91  0     1  0  0  0  0  0999 V2000
  -24.4991  -30.4863   17.6682 C   0  0  0  0  0  0  0  0  0  0  0  0
  -23.8428  -29.2741   17.4807 C   0  0  0  0  0  0  0  0  0  0  0  0
  -30.6337  -20.0359   19.6069 C   0  0  0  0  0  0  0  0  0  0  0  0
  -28.3694  -19.7244   20.3900 C   0  0  0  0  0  0  0  0  0  0  0  0
  -25.5485  -30.5756   18.5819 C   0  0  0  0  0  0  0  0  0  0  0  0
  -24.2363  -28.1501   18.2062 C   0  0  0  0  0  0  0  0  0  0  0  0
  -21.5649  -22.1965   21.1617 C   0  0  0  0  0  0  0  0  0  0  0  0
  -22.9197  -15.9339   20.2684 C   0  0  0  0  0  0  0  0  0  0  0  0
  -23.2507  -14.5895   20.4379 C   0  0  0  0  0  0  0  0  0  0  0  0
  -30.2988  -21.3087   19.1449 C   0  0  0  0  0  0  0  0  0  0  0  0
  -28.0346  -20.9972   19.9280 C   0  0  0  0  0  0  0  0  0  0  0  0
  -21.7702  -20.8176   21.1802 C   0  0  0  0  0  0  0  0  0  0  0  0
  -29.8483  -24.3944   20.4520 C   0  0  0  0  0  0  0  0  0  0  0  0
  -30.7311  -25.4379   20.7299 C   0  0  0  0  0  0  0  0  0  0  0  0
  -23.5440  -21.1094   22.7889 C   0  0  0  0  0  0  0  0  0  0  0  0
  -22.3750  -16.0958   22.6167 C   0  0  0  0  0  0  0  0  0  0  0  0
  -31.0162  -25.8273   18.3626 C   0  0  0  0  0  0  0  0  0  0  0  0
  -29.6690  -19.2437   20.2294 C   0  0  0  0  0  0  0  0  0  0  0  0
  -30.9898  -17.6017   21.6670 C   0  0  0  0  0  0  0  0  0  0  0  0
  -25.9487  -29.4545   19.3259 C   0  0  0  0  0  0  0  0  0  0  0  0
  -22.3562  -23.0446   21.9497 C   0  0  0  0  0  0  0  0  0  0  0  0
  -25.2929  -28.2241   19.1297 C   0  0  0  0  0  0  0  0  0  0  0  0
  -23.3450  -22.4984   22.7805 C   0  0  0  0  0  0  0  0  0  0  0  0
  -22.4819  -16.6871   21.3578 C   0  0  0  0  0  0  0  0  0  0  0  0
  -23.1439  -13.9983   21.6967 C   0  0  0  0  0  0  0  0  0  0  0  0
  -22.7060  -14.7514   22.7862 C   0  0  0  0  0  0  0  0  0  0  0  0
  -28.9993  -21.7894   19.3055 C   0  0  0  0  0  0  0  0  0  0  0  0
  -22.7618  -20.2741   21.9917 C   0  0  0  0  0  0  0  0  0  0  0  0
  -29.5495  -24.0672   19.1293 C   0  0  0  0  0  0  0  0  0  0  0  0
  -31.3151  -26.1544   19.6853 C   0  0  0  0  0  0  0  0  0  0  0  0
  -30.1334  -24.7837   18.0846 C   0  0  0  0  0  0  0  0  0  0  0  0
  -30.0141  -17.9286   20.7063 C   0  0  0  0  0  0  0  0  0  0  0  0
  -30.9290  -16.2331   21.7661 C   0  0  0  0  0  0  0  0  0  0  0  0
  -31.8720  -18.4585   22.4040 C   0  0  0  0  0  0  0  0  0  0  0  0
  -24.3907  -25.4122   21.3504 C   0  0  0  0  0  0  0  0  0  0  0  0
  -24.3942  -25.7056   24.5809 C   0  0  0  0  0  0  0  0  0  0  0  0
  -23.8895  -24.2442   27.6234 C   0  0  0  0  0  0  0  0  0  0  0  0
  -26.5914  -12.2541   20.6691 C   0  0  0  0  0  0  0  0  0  0  0  0
  -27.1193  -29.5882   20.2674 C   0  0  0  0  0  0  0  0  0  0  0  0
  -22.1044  -24.5274   21.9386 C   0  0  0  0  0  0  0  0  0  0  0  0
  -24.2080  -23.3638   23.6607 C   0  0  0  0  0  0  0  0  0  0  0  0
  -27.2290  -28.4419   21.2695 C   0  0  0  0  0  0  0  0  0  0  0  0
  -29.8382  -12.3385   19.2102 C   0  0  0  0  0  0  0  0  0  0  0  0
  -27.0589  -27.0994   20.5655 C   0  0  0  0  0  0  0  0  0  0  0  0
  -30.3394  -13.7513   19.5149 C   0  0  0  0  0  0  0  0  0  0  0  0
  -28.3398  -12.3227   18.9155 C   0  0  0  0  0  0  0  0  0  0  0  0
  -27.9995  -14.3621   20.2566 C   0  0  0  0  0  0  0  0  0  0  0  0
  -25.6743  -26.9886   19.9159 C   0  0  1  0  0  0  0  0  0  0  0  0
  -23.3115  -25.3419   22.3935 C   0  0  1  0  0  0  0  0  0  0  0  0
  -29.4943  -14.4210   20.6150 C   0  0  2  0  0  0  0  0  0  0  0  0
  -21.1346  -14.1530   24.6640 C   0  0  0  0  0  0  0  0  0  0  0  0
  -23.5166  -14.8032   25.1724 C   0  0  0  0  0  0  0  0  0  0  0  0
  -24.0082  -24.7247   30.0835 C   0  0  0  0  0  0  0  0  0  0  0  0
  -27.4369  -25.5060   24.4706 C   0  0  0  0  0  0  0  0  0  0  0  0
  -27.4257  -25.0369   26.9299 C   0  0  0  0  0  0  0  0  0  0  0  0
  -26.5609  -27.2143   26.0734 C   0  0  0  0  0  0  0  0  0  0  0  0
  -21.0021  -23.7053   27.9859 C   0  0  0  0  0  0  0  0  0  0  0  0
  -23.5028  -12.5571   21.8535 C   0  0  0  0  0  0  0  0  0  0  0  0
  -22.1254  -18.1330   21.1752 C   0  0  0  0  0  0  0  0  0  1  0  0
  -24.8875  -12.3349   22.4716 C   0  0  0  0  0  0  0  0  0  0  0  0
  -22.5834  -14.1397   24.1432 C   0  0  0  0  0  0  0  0  0  0  0  0
  -25.2051  -25.1120   25.7075 C   0  0  1  0  0  0  0  0  0  0  0  0
  -23.1214  -24.7071   28.8482 C   0  0  2  0  0  0  0  0  0  0  0  0
  -26.6423  -25.7009   25.7774 C   0  0  0  0  0  0  0  0  0  0  0  0
  -29.3801  -16.8542   20.2290 N   0  0  0  0  0  0  0  0  0  0  0  0
  -29.9587  -15.8388   20.8925 N   0  0  0  0  0  0  0  0  0  0  0  0
  -23.9275  -24.8082   23.6100 N   0  0  0  0  0  0  0  0  0  0  0  0
  -27.5955  -12.9712   19.9978 N   0  0  0  0  0  0  0  0  0  0  0  0
  -31.6116  -15.3406   22.5144 N   0  0  0  0  0  0  0  0  0  0  0  0
  -31.4392  -18.9597   23.6393 N   0  0  0  0  0  0  0  0  0  0  0  0
  -24.6695  -26.6935   20.9147 N   0  0  0  0  0  0  0  0  0  0  0  0
  -24.4201  -25.3061   26.9218 N   0  0  0  0  0  0  0  0  0  0  0  0
  -25.9392  -12.9408   21.6858 N   0  0  0  0  0  0  0  0  0  0  0  0
  -21.9686  -23.7998   29.1102 N   0  3  0  0  0  0  0  0  0  0  0  0
  -33.0040  -18.7836   21.9722 O   0  0  0  0  0  0  0  0  0  0  0  0
  -24.9316  -24.3803   20.9702 O   0  0  0  0  0  0  0  0  0  0  0  0
  -24.1767  -26.9197   24.5669 O   0  0  0  0  0  0  0  0  0  0  0  0
  -24.0101  -23.0590   27.3214 O   0  0  0  0  0  0  0  0  0  0  0  0
  -26.3017  -11.0864   20.3870 O   0  0  0  0  0  0  0  0  0  0  0  0
  -28.6723  -23.0314   18.8550 O   0  0  0  0  0  0  0  0  0  0  0  0
  -22.9647  -18.9286   22.0112 O   0  0  0  0  0  0  0  0  0  1  0  0
  -32.1616  -27.1575   19.9523 F   0  0  0  0  0  0  0  0  0  0  0  0
  -29.8493  -24.4748   16.8120 F   0  0  0  0  0  0  0  0  0  0  0  0
  1  2  1  0  0  0  0
  1  5  2  0  0  0  0
  2  6  2  0  0  0  0
  3 10  2  0  0  0  0
  3 18  1  0  0  0  0
  4 11  1  0  0  0  0
  4 18  2  0  0  0  0
  5 20  1  0  0  0  0
  6 22  1  0  0  0  0
  7 12  2  0  0  0  0
  7 21  1  0  0  0  0
  8  9  2  0  0  0  0
  8 24  1  0  0  0  0
  9 25  1  0  0  0  0
 10 27  1  0  0  0  0
 11 27  2  0  0  0  0
 12 28  1  0  0  0  0
 13 14  2  0  0  0  0
 13 29  1  0  0  0  0
 14 30  1  0  0  0  0
 15 23  1  0  0  0  0
 15 28  2  0  0  0  0
 16 24  2  0  0  0  0
 16 26  1  0  0  0  0
 17 30  2  0  0  0  0
 17 31  1  0  0  0  0
 18 32  1  0  0  0  0
 19 32  1  0  0  0  0
 19 33  2  0  0  0  0
 19 34  1  0  0  0  0
 20 22  2  0  0  0  0
 20 39  1  0  0  0  0
 21 23  2  0  0  0  0
 21 40  1  0  0  0  0
 22 48  1  0  0  0  0
 23 41  1  0  0  0  0
 24 59  1  0  0  0  0
 25 26  2  0  0  0  0
 25 58  1  0  0  0  0
 26 61  1  0  0  0  0
 27 80  1  0  0  0  0
 28 81  1  0  0  0  0
 29 31  2  0  0  0  0
 29 80  1  0  0  0  0
 30 82  1  0  0  0  0
 31 83  1  0  0  0  0
 32 65  2  0  0  0  0
 33 66  1  0  0  0  0
 33 69  1  0  0  0  0
 34 70  1  0  0  0  0
 34 75  2  0  0  0  0
 35 49  1  0  0  0  0
 35 71  1  0  0  0  0
 35 76  2  0  0  0  0
 36 62  1  0  0  0  0
 36 67  1  0  0  0  0
 36 77  2  0  0  0  0
 37 63  1  0  0  0  0
 37 72  1  0  0  0  0
 37 78  2  0  0  0  0
 38 68  1  0  0  0  0
 38 73  1  0  0  0  0
 38 79  2  0  0  0  0
 39 42  1  0  0  0  0
 40 49  1  0  0  0  0
 41 67  1  0  0  0  0
 42 44  1  0  0  0  0
 43 45  1  0  0  0  0
 43 46  1  0  0  0  0
 44 48  1  0  0  0  0
 45 50  1  0  0  0  0
 46 68  1  0  0  0  0
 47 50  1  0  0  0  0
 47 68  1  0  0  0  0
 48 71  1  0  0  0  0
 49 67  1  0  0  0  0
 50 66  1  0  0  0  0
 51 61  1  0  0  0  0
 52 61  1  0  0  0  0
 53 63  1  0  0  0  0
 54 64  1  0  0  0  0
 55 64  1  0  0  0  0
 56 64  1  0  0  0  0
 57 74  1  0  0  0  0
 58 60  1  0  0  0  0
 59 81  1  0  0  0  0
 60 73  1  0  0  0  0
 62 64  1  0  0  0  0
 62 72  1  0  0  0  0
 63 74  1  0  0  0  0
 65 66  1  0  0  0  0
M  CHG  1  74   1
M  ISO  4  38 100  59 101  73 100  81 101
M  END
> <Batch ID>
0131

> <Smiles>
CNC(C)C(=O)NC(C(=O)N1Cc2cc([101O:1][101CH2:1]c3ccc(CC[100NH:0][100C:0](=O)N4CCCC(n5nc(-c6ccc(Oc7ccc(F)cc7F)cc6)c(C(N)=O)c5N)C4)c(C(C)C)c3)ccc2CC1C(=O)NC1CCCc2ccccc21)C(C)(C)C

> <Shape>
0.207

> <Color>
0.063

> <Negative vol penalty>
0.000

$$$$

  -OEChem-04052320503D

 85 94  0     1  0  0  0  0  0999 V2000
  -28.5314  -37.1839   18.5816 C   0  0  0  0  0  0  0  0  0  0  0  0
  -28.8303  -35.8258   18.5400 C   0  0  0  0  0  0  0  0  0  0  0  0
  -25.1871   -7.5863   20.0185 C   0  0  0  0  0  0  0  0  0  0  0  0
  -24.3565   -8.7249   21.9808 C   0  0  0  0  0  0  0  0  0  0  0  0
  -27.7312  -37.6894   19.6054 C   0  0  0  0  0  0  0  0  0  0  0  0
  -28.3300  -34.9726   19.5229 C   0  0  0  0  0  0  0  0  0  0  0  0
  -30.9829  -22.9006   20.4842 C   0  0  0  0  0  0  0  0  0  0  0  0
  -28.7523  -21.9834   20.6266 C   0  0  0  0  0  0  0  0  0  0  0  0
  -26.5828  -29.1476   18.7995 C   0  0  0  0  0  0  0  0  0  0  0  0
  -30.4540  -24.1225   20.0685 C   0  0  0  0  0  0  0  0  0  0  0  0
  -28.2233  -23.2053   20.2110 C   0  0  0  0  0  0  0  0  0  0  0  0
  -24.8845   -6.3569   20.6037 C   0  0  0  0  0  0  0  0  0  0  0  0
  -24.0539   -7.4954   22.5660 C   0  0  0  0  0  0  0  0  0  0  0  0
  -27.2270  -27.9370   19.0511 C   0  0  0  0  0  0  0  0  0  0  0  0
  -21.6188   -5.1631   22.3398 C   0  0  0  0  0  0  0  0  0  0  0  0
  -20.3792   -5.0327   22.9659 C   0  0  0  0  0  0  0  0  0  0  0  0
  -26.1334  -27.8080   21.1974 C   0  0  0  0  0  0  0  0  0  0  0  0
  -21.4867   -4.5390   25.0556 C   0  0  0  0  0  0  0  0  0  0  0  0
  -24.9232   -8.7703   20.7071 C   0  0  0  0  0  0  0  0  0  0  0  0
  -24.3956  -10.8263   19.2920 C   0  0  0  0  0  0  0  0  0  0  0  0
  -30.1321  -21.8310   20.7632 C   0  0  0  0  0  0  0  0  0  0  0  0
  -27.2129  -36.8403   20.5959 C   0  0  0  0  0  0  0  0  0  0  0  0
  -25.7161  -29.7039   19.7512 C   0  0  0  0  0  0  0  0  0  0  0  0
  -27.5232  -35.4673   20.5616 C   0  0  0  0  0  0  0  0  0  0  0  0
  -25.4775  -29.0245   20.9544 C   0  0  0  0  0  0  0  0  0  0  0  0
  -29.0742  -24.2749   19.9320 C   0  0  0  0  0  0  0  0  0  0  0  0
  -24.3179   -6.3114   21.8774 C   0  0  0  0  0  0  0  0  0  0  0  0
  -27.0045  -27.2684   20.2514 C   0  0  0  0  0  0  0  0  0  0  0  0
  -22.7924   -4.9813   23.0716 C   0  0  0  0  0  0  0  0  0  0  0  0
  -20.3131   -4.7207   24.3238 C   0  0  0  0  0  0  0  0  0  0  0  0
  -22.7263   -4.6693   24.4295 C   0  0  0  0  0  0  0  0  0  0  0  0
  -25.2360  -10.0406   20.1033 C   0  0  0  0  0  0  0  0  0  0  0  0
  -25.1544  -11.9266   18.9757 C   0  0  0  0  0  0  0  0  0  0  0  0
  -23.0494  -10.5832   18.8626 C   0  0  0  0  0  0  0  0  0  0  0  0
  -25.6727  -32.3935   21.4447 C   0  0  0  0  0  0  0  0  0  0  0  0
  -22.7529  -31.3136   22.3562 C   0  0  0  0  0  0  0  0  0  0  0  0
  -20.6512  -28.6601   22.7905 C   0  0  0  0  0  0  0  0  0  0  0  0
  -29.6620  -14.5289   21.7623 C   0  0  0  0  0  0  0  0  0  0  0  0
  -26.3914  -37.4404   21.7093 C   0  0  0  0  0  0  0  0  0  0  0  0
  -25.0083  -30.9973   19.4535 C   0  0  0  0  0  0  0  0  0  0  0  0
  -24.5407  -29.5693   22.0004 C   0  0  0  0  0  0  0  0  0  0  0  0
  -25.5926  -36.4084   22.5012 C   0  0  0  0  0  0  0  0  0  0  0  0
  -29.7012  -13.2894   18.3623 C   0  0  0  0  0  0  0  0  0  0  0  0
  -26.4703  -35.2129   22.8578 C   0  0  0  0  0  0  0  0  0  0  0  0
  -28.4679  -12.3844   18.3543 C   0  0  0  0  0  0  0  0  0  0  0  0
  -30.4349  -13.2121   19.6980 C   0  0  0  0  0  0  0  0  0  0  0  0
  -30.1656  -20.0660   22.5840 C   0  0  0  0  0  0  0  0  0  0  0  0
  -28.3551  -12.6174   20.8787 C   0  0  0  0  0  0  0  0  0  0  0  0
  -31.0151  -18.0818   20.6591 C   0  0  0  0  0  0  0  0  0  0  0  0
  -26.9788  -34.5058   21.5957 C   0  0  1  0  0  0  0  0  0  0  0  0
  -30.7052  -20.5049   21.2142 C   0  0  1  0  0  0  0  0  0  0  0  0
  -24.5440  -31.7273   20.7100 C   0  0  1  0  0  0  0  0  0  0  0  0
  -27.5569  -12.6681   19.5633 C   0  0  2  0  0  0  0  0  0  0  0  0
  -30.4568  -17.7230   22.0351 C   0  0  1  0  0  0  0  0  0  0  0  0
  -18.3416  -28.0861   23.5866 C   0  0  0  0  0  0  0  0  0  0  0  0
  -23.6662  -31.6585   25.2471 C   0  0  0  0  0  0  0  0  0  0  0  0
  -21.7469  -30.2139   25.9526 C   0  0  0  0  0  0  0  0  0  0  0  0
  -21.3148  -32.3848   24.8022 C   0  0  0  0  0  0  0  0  0  0  0  0
  -19.8844  -27.5731   20.1468 C   0  0  0  0  0  0  0  0  0  0  0  0
  -28.5059  -25.5901   19.4864 C   0  0  0  0  0  0  0  0  0  1  0  0
  -31.0754  -16.4177   22.5315 C   0  0  0  0  0  0  0  0  0  0  0  0
  -22.2372  -30.4407   23.4748 C   0  0  1  0  0  0  0  0  0  0  0  0
  -19.2038  -28.4448   22.3864 C   0  0  2  0  0  0  0  0  0  0  0  0
  -22.2605  -31.1649   24.8505 C   0  0  0  0  0  0  0  0  0  0  0  0
  -26.4368  -10.5947   20.2907 N   0  0  0  0  0  0  0  0  0  0  0  0
  -26.3564  -11.7403   19.5926 N   0  0  0  0  0  0  0  0  0  0  0  0
  -30.7409  -18.7866   23.0059 N   0  0  0  0  0  0  0  0  0  0  0  0
  -23.8773  -30.8401   21.6653 N   0  0  0  0  0  0  0  0  0  0  0  0
  -29.5162  -13.5106   20.8056 N   0  0  0  0  0  0  0  0  0  0  0  0
  -24.9039  -13.0257   18.2329 N   0  0  0  0  0  0  0  0  0  0  0  0
  -22.4181   -9.4032   19.2791 N   0  0  0  0  0  0  0  0  0  0  0  0
  -25.9356  -33.6827   21.0225 N   0  0  0  0  0  0  0  0  0  0  0  0
  -20.9140  -29.9863   23.0611 N   0  0  0  0  0  0  0  0  0  0  0  0
  -30.7920  -15.3260   21.6266 N   0  0  0  0  0  0  0  0  0  0  0  0
  -30.4435  -19.3938   20.2292 N   0  3  0  0  0  0  0  0  0  0  0  0
  -19.1031  -27.3420   21.3890 N   0  3  0  0  0  0  0  0  0  0  0  0
  -22.4306  -11.3806   18.1179 O   0  0  0  0  0  0  0  0  0  0  0  0
  -26.2604  -31.7836   22.3303 O   0  0  0  0  0  0  0  0  0  0  0  0
  -22.1749  -32.3728   22.1002 O   0  0  0  0  0  0  0  0  0  0  0  0
  -21.4661  -27.7429   22.8629 O   0  0  0  0  0  0  0  0  0  0  0  0
  -28.8425  -14.7175   22.6678 O   0  0  0  0  0  0  0  0  0  0  0  0
  -24.0223   -5.1119   22.4487 O   0  0  0  0  0  0  0  0  0  0  0  0
  -27.6325  -26.0870   20.4997 O   0  0  0  0  0  0  0  0  0  1  0  0
  -19.1227   -4.5970   24.9253 F   0  0  0  0  0  0  0  0  0  0  0  0
  -23.8503   -4.4947   25.1380 F   0  0  0  0  0  0  0  0  0  0  0  0
  1  2  1  0  0  0  0
  1  5  2  0  0  0  0
  2  6  2  0  0  0  0
  3 12  2  0  0  0  0
  3 19  1  0  0  0  0
  4 13  1  0  0  0  0
  4 19  2  0  0  0  0
  5 22  1  0  0  0  0
  6 24  1  0  0  0  0
  7 10  2  0  0  0  0
  7 21  1  0  0  0  0
  8 11  1  0  0  0  0
  8 21  2  0  0  0  0
  9 14  2  0  0  0  0
  9 23  1  0  0  0  0
 10 26  1  0  0  0  0
 11 26  2  0  0  0  0
 12 27  1  0  0  0  0
 13 27  2  0  0  0  0
 14 28  1  0  0  0  0
 15 16  2  0  0  0  0
 15 29  1  0  0  0  0
 16 30  1  0  0  0  0
 17 25  1  0  0  0  0
 17 28  2  0  0  0  0
 18 30  2  0  0  0  0
 18 31  1  0  0  0  0
 19 32  1  0  0  0  0
 20 32  1  0  0  0  0
 20 33  2  0  0  0  0
 20 34  1  0  0  0  0
 21 51  1  0  0  0  0
 22 24  2  0  0  0  0
 22 39  1  0  0  0  0
 23 25  2  0  0  0  0
 23 40  1  0  0  0  0
 24 50  1  0  0  0  0
 25 41  1  0  0  0  0
 26 60  1  0  0  0  0
 27 82  1  0  0  0  0
 28 83  1  0  0  0  0
 29 31  2  0  0  0  0
 29 82  1  0  0  0  0
 30 84  1  0  0  0  0
 31 85  1  0  0  0  0
 32 65  2  0  0  0  0
 33 66  1  0  0  0  0
 33 70  1  0  0  0  0
 34 71  1  0  0  0  0
 34 77  2  0  0  0  0
 35 52  1  0  0  0  0
 35 72  1  0  0  0  0
 35 78  2  0  0  0  0
 36 62  1  0  0  0  0
 36 68  1  0  0  0  0
 36 79  2  0  0  0  0
 37 63  1  0  0  0  0
 37 73  1  0  0  0  0
 37 80  2  0  0  0  0
 38 69  1  0  0  0  0
 38 74  1  0  0  0  0
 38 81  2  0  0  0  0
 39 42  1  0  0  0  0
 40 52  1  0  0  0  0
 41 68  1  0  0  0  0
 42 44  1  0  0  0  0
 43 45  1  0  0  0  0
 43 46  1  0  0  0  0
 44 50  1  0  0  0  0
 45 53  1  0  0  0  0
 46 69  1  0  0  0  0
 47 51  1  0  0  0  0
 47 67  1  0  0  0  0
 48 53  1  0  0  0  0
 48 69  1  0  0  0  0
 49 54  1  0  0  0  0
 49 75  1  0  0  0  0
 50 72  1  0  0  0  0
 51 75  1  0  0  0  0
 52 68  1  0  0  0  0
 53 66  1  0  0  0  0
 54 61  1  0  0  0  0
 54 67  1  0  0  0  0
 55 63  1  0  0  0  0
 56 64  1  0  0  0  0
 57 64  1  0  0  0  0
 58 64  1  0  0  0  0
 59 76  1  0  0  0  0
 60 83  1  0  0  0  0
 61 74  1  0  0  0  0
 62 64  1  0  0  0  0
 62 73  1  0  0  0  0
 63 76  1  0  0  0  0
 65 66  1  0  0  0  0
M  CHG  2  75   1  76   1
M  ISO  4  38 100  60 101  74 100  83 101
M  END
> <Batch ID>
0131

> <Smiles>
CNC(C)C(=O)NC(C(=O)N1Cc2cc([101O:1][101CH2:1]c3ccc(C4CNC(C[100NH:0][100C:0](=O)N5CCCC(n6nc(-c7ccc(Oc8ccc(F)cc8F)cc7)c(C(N)=O)c6N)C5)CN4)cc3)ccc2CC1C(=O)NC1CCCc2ccccc21)C(C)(C)C

> <Shape>
0.304

> <Color>
0.082

> <Negative vol penalty>
0.000

$$$$

  -OEChem-04052320503D

 84 92  0     1  0  0  0  0  0999 V2000
  -17.5797  -18.1808    9.6425 C   0  0  0  0  0  0  0  0  0  0  0  0
  -18.3427  -17.8693   10.7633 C   0  0  0  0  0  0  0  0  0  0  0  0
  -23.0633   -9.9041   19.9551 C   0  0  0  0  0  0  0  0  0  0  0  0
  -23.8414   -9.8996   22.2423 C   0  0  0  0  0  0  0  0  0  0  0  0
  -18.2063  -18.5854    8.4645 C   0  0  0  0  0  0  0  0  0  0  0  0
  -19.7329  -17.9613   10.7065 C   0  0  0  0  0  0  0  0  0  0  0  0
  -23.4988  -19.6502   15.2310 C   0  0  0  0  0  0  0  0  0  0  0  0
  -31.5074  -19.8612   19.7784 C   0  0  0  0  0  0  0  0  0  0  0  0
  -22.3003   -8.7652   20.2124 C   0  0  0  0  0  0  0  0  0  0  0  0
  -23.0784   -8.7607   22.4997 C   0  0  0  0  0  0  0  0  0  0  0  0
  -24.2731  -18.9175   16.1296 C   0  0  0  0  0  0  0  0  0  0  0  0
  -19.3495   -8.0248   21.6880 C   0  0  0  0  0  0  0  0  0  0  0  0
  -18.0381   -8.0022   21.2131 C   0  0  0  0  0  0  0  0  0  0  0  0
  -31.7326  -18.8410   20.6958 C   0  0  0  0  0  0  0  0  0  0  0  0
  -26.1868  -19.1787   14.6844 C   0  0  0  0  0  0  0  0  0  0  0  0
  -18.5513   -6.0477   19.8890 C   0  0  0  0  0  0  0  0  0  0  0  0
  -23.8340  -10.4713   20.9700 C   0  0  0  0  0  0  0  0  0  0  0  0
  -24.2215  -12.9895   20.8441 C   0  0  0  0  0  0  0  0  0  0  0  0
  -19.6044  -18.6916    8.3961 C   0  0  0  0  0  0  0  0  0  0  0  0
  -24.0610  -20.1441   14.0451 C   0  0  0  0  0  0  0  0  0  0  0  0
  -20.3789  -18.3664    9.5261 C   0  0  0  0  0  0  0  0  0  0  0  0
  -25.4182  -19.9195   13.7736 C   0  0  0  0  0  0  0  0  0  0  0  0
  -30.3087  -19.9039   19.0750 C   0  0  0  0  0  0  0  0  0  0  0  0
  -22.3078   -8.1935   21.4847 C   0  0  0  0  0  0  0  0  0  0  0  0
  -25.6166  -18.6793   15.8550 C   0  0  0  0  0  0  0  0  0  0  0  0
  -20.2618   -7.0589   21.2632 C   0  0  0  0  0  0  0  0  0  0  0  0
  -17.6390   -7.0136   20.3137 C   0  0  0  0  0  0  0  0  0  0  0  0
  -19.8627   -6.0703   20.3638 C   0  0  0  0  0  0  0  0  0  0  0  0
  -24.6229  -11.6474   20.7047 C   0  0  0  0  0  0  0  0  0  0  0  0
  -30.7354  -17.8953   20.8720 C   0  0  0  0  0  0  0  0  0  0  0  0
  -29.3753  -18.9106   19.3235 C   0  0  0  0  0  0  0  0  0  0  0  0
  -25.3243  -13.7183   20.4712 C   0  0  0  0  0  0  0  0  0  0  0  0
  -22.9641  -13.5292   21.2724 C   0  0  0  0  0  0  0  0  0  0  0  0
  -23.5271  -19.6798   10.9462 C   0  0  0  0  0  0  0  0  0  0  0  0
  -25.7146  -22.0516   10.6122 C   0  0  0  0  0  0  0  0  0  0  0  0
  -28.3470  -23.7726   11.9369 C   0  0  0  0  0  0  0  0  0  0  0  0
  -30.8273  -14.6360   20.6149 C   0  0  0  0  0  0  0  0  0  0  0  0
  -20.2391  -19.0877    7.0866 C   0  0  0  0  0  0  0  0  0  0  0  0
  -23.2190  -20.9554   13.0989 C   0  0  0  0  0  0  0  0  0  0  0  0
  -26.0746  -20.4454   12.5242 C   0  0  0  0  0  0  0  0  0  0  0  0
  -21.6968  -19.5200    7.2224 C   0  0  0  0  0  0  0  0  0  0  0  0
  -29.6269  -12.2702   18.2402 C   0  0  0  0  0  0  0  0  0  0  0  0
  -22.4677  -18.5324    8.0925 C   0  0  0  0  0  0  0  0  0  0  0  0
  -28.1878  -12.0036   18.6849 C   0  0  0  0  0  0  0  0  0  0  0  0
  -30.5575  -12.4754   19.4335 C   0  0  0  0  0  0  0  0  0  0  0  0
  -28.6806  -13.2431   20.8342 C   0  0  0  0  0  0  0  0  0  0  0  0
  -21.8880  -18.4777    9.5112 C   0  0  1  0  0  0  0  0  0  0  0  0
  -23.7671  -20.9715   11.6752 C   0  0  1  0  0  0  0  0  0  0  0  0
  -27.6941  -13.0852   19.6645 C   0  0  2  0  0  0  0  0  0  0  0  0
  -29.9383  -21.6154   15.6343 C   0  0  0  0  0  0  0  0  0  0  0  0
  -29.9489  -25.6319   11.4131 C   0  0  0  0  0  0  0  0  0  0  0  0
  -27.2651  -20.1898    8.7575 C   0  0  0  0  0  0  0  0  0  0  0  0
  -29.2536  -21.6861    9.0321 C   0  0  0  0  0  0  0  0  0  0  0  0
  -27.1627  -22.5705    7.9983 C   0  0  0  0  0  0  0  0  0  0  0  0
  -27.4085  -25.3847   14.2346 C   0  0  0  0  0  0  0  0  0  0  0  0
  -30.0573  -20.9921   18.0896 C   0  0  0  0  0  0  0  0  0  0  0  0
  -30.9427  -16.7863   21.8485 C   0  0  0  0  0  0  0  0  0  0  0  0
  -30.2292  -20.5124   16.6396 C   0  0  0  0  0  0  0  0  0  0  0  0
  -26.0204  -18.0418   18.1104 C   0  0  0  0  0  0  0  0  0  1  0  0
  -27.2696  -17.8694   18.9525 C   0  0  0  0  0  0  0  0  0  0  0  0
  -27.2176  -22.1094   10.4836 C   0  0  1  0  0  0  0  0  0  0  0  0
  -28.6207  -25.2612   12.0542 C   0  0  2  0  0  0  0  0  0  0  0  0
  -27.7122  -21.6272    9.0906 C   0  0  0  0  0  0  0  0  0  0  0  0
  -25.8824  -11.5278   20.2765 N   0  0  0  0  0  0  0  0  0  0  0  0
  -29.5583  -17.9038   20.2071 N   0  0  0  0  0  0  0  0  0  0  0  0
  -26.2819  -12.8040   20.1436 N   0  0  0  0  0  0  0  0  0  0  0  0
  -25.2080  -21.2276   11.6271 N   0  0  0  0  0  0  0  0  0  0  0  0
  -30.0331  -13.5149   20.3225 N   0  0  0  0  0  0  0  0  0  0  0  0
  -25.5587  -15.0455   20.3949 N   0  0  0  0  0  0  0  0  0  0  0  0
  -21.9382  -12.6393   21.6189 N   0  0  0  0  0  0  0  0  0  0  0  0
  -22.3188  -19.6271   10.2778 N   0  0  0  0  0  0  0  0  0  0  0  0
  -27.6033  -23.4770   10.8141 N   0  0  0  0  0  0  0  0  0  0  0  0
  -30.2521  -15.5766   21.4604 N   0  0  0  0  0  0  0  0  0  0  0  0
  -28.6603  -25.6693   13.4870 N   0  3  0  0  0  0  0  0  0  0  0  0
  -22.7511  -14.7641   21.3301 O   0  0  0  0  0  0  0  0  0  0  0  0
  -24.3759  -18.7969   10.9858 O   0  0  0  0  0  0  0  0  0  0  0  0
  -25.0159  -22.7187    9.8450 O   0  0  0  0  0  0  0  0  0  0  0  0
  -28.7556  -22.9536   12.7572 O   0  0  0  0  0  0  0  0  0  0  0  0
  -31.9627  -14.7899   20.1520 O   0  0  0  0  0  0  0  0  0  0  0  0
  -21.5631   -7.0822   21.7362 O   0  0  0  0  0  0  0  0  0  0  0  0
  -26.3744  -17.9639   16.7302 O   0  0  0  0  0  0  0  0  0  1  0  0
  -28.1823  -18.9175   18.6499 O   0  0  0  0  0  0  0  0  0  0  0  0
  -16.3793   -6.9911   19.8590 F   0  0  0  0  0  0  0  0  0  0  0  0
  -20.7343   -5.1390   19.9531 F   0  0  0  0  0  0  0  0  0  0  0  0
  1  2  1  0  0  0  0
  1  5  2  0  0  0  0
  2  6  2  0  0  0  0
  3  9  2  0  0  0  0
  3 17  1  0  0  0  0
  4 10  1  0  0  0  0
  4 17  2  0  0  0  0
  5 19  1  0  0  0  0
  6 21  1  0  0  0  0
  7 11  2  0  0  0  0
  7 20  1  0  0  0  0
  8 14  2  0  0  0  0
  8 23  1  0  0  0  0
  9 24  1  0  0  0  0
 10 24  2  0  0  0  0
 11 25  1  0  0  0  0
 12 13  2  0  0  0  0
 12 26  1  0  0  0  0
 13 27  1  0  0  0  0
 14 30  1  0  0  0  0
 15 22  1  0  0  0  0
 15 25  2  0  0  0  0
 16 27  2  0  0  0  0
 16 28  1  0  0  0  0
 17 29  1  0  0  0  0
 18 29  1  0  0  0  0
 18 32  2  0  0  0  0
 18 33  1  0  0  0  0
 19 21  2  0  0  0  0
 19 38  1  0  0  0  0
 20 22  2  0  0  0  0
 20 39  1  0  0  0  0
 21 47  1  0  0  0  0
 22 40  1  0  0  0  0
 23 31  2  0  0  0  0
 23 56  1  0  0  0  0
 24 80  1  0  0  0  0
 25 81  1  0  0  0  0
 26 28  2  0  0  0  0
 26 80  1  0  0  0  0
 27 83  1  0  0  0  0
 28 84  1  0  0  0  0
 29 64  2  0  0  0  0
 30 57  1  0  0  0  0
 30 65  2  0  0  0  0
 31 65  1  0  0  0  0
 31 82  1  0  0  0  0
 32 66  1  0  0  0  0
 32 69  1  0  0  0  0
 33 70  1  0  0  0  0
 33 75  2  0  0  0  0
 34 48  1  0  0  0  0
 34 71  1  0  0  0  0
 34 76  2  0  0  0  0
 35 61  1  0  0  0  0
 35 67  1  0  0  0  0
 35 77  2  0  0  0  0
 36 62  1  0  0  0  0
 36 72  1  0  0  0  0
 36 78  2  0  0  0  0
 37 68  1  0  0  0  0
 37 73  1  0  0  0  0
 37 79  2  0  0  0  0
 38 41  1  0  0  0  0
 39 48  1  0  0  0  0
 40 67  1  0  0  0  0
 41 43  1  0  0  0  0
 42 44  1  0  0  0  0
 42 45  1  0  0  0  0
 43 47  1  0  0  0  0
 44 49  1  0  0  0  0
 45 68  1  0  0  0  0
 46 49  1  0  0  0  0
 46 68  1  0  0  0  0
 47 71  1  0  0  0  0
 48 67  1  0  0  0  0
 49 66  1  0  0  0  0
 50 58  1  0  0  0  0
 51 62  1  0  0  0  0
 52 63  1  0  0  0  0
 53 63  1  0  0  0  0
 54 63  1  0  0  0  0
 55 74  1  0  0  0  0
 56 58  1  0  0  0  0
 57 73  1  0  0  0  0
 59 60  1  0  0  0  0
 59 81  1  0  0  0  0
 60 82  1  0  0  0  0
 61 63  1  0  0  0  0
 61 72  1  0  0  0  0
 62 74  1  0  0  0  0
 64 66  1  0  0  0  0
M  CHG  1  74   1
M  ISO  4  37 100  59 101  73 100  81 101
M  END
> <Batch ID>
0131

> <Smiles>
CCCc1ccc(C[100NH:0][100C:0](=O)N2CCCC(n3nc(-c4ccc(Oc5ccc(F)cc5F)cc4)c(C(N)=O)c3N)C2)nc1OC[101CH2:1][101O:1]c1ccc2c(c1)CN(C(=O)C(NC(=O)C(C)NC)C(C)(C)C)C(C(=O)NC1CCCc3ccccc31)C2

> <Shape>
0.174

> <Color>
0.198

> <Negative vol penalty>
0.000

$$$$

  -OEChem-04052320503D

 85 94  0     1  0  0  0  0  0999 V2000
  -27.3313  -36.4811   19.8704 C   0  0  0  0  0  0  0  0  0  0  0  0
  -26.8882  -35.5284   18.9600 C   0  0  0  0  0  0  0  0  0  0  0  0
  -22.8830  -10.1301   19.9009 C   0  0  0  0  0  0  0  0  0  0  0  0
  -23.8511   -9.6613   22.0643 C   0  0  0  0  0  0  0  0  0  0  0  0
  -27.9148  -36.0759   21.0690 C   0  0  0  0  0  0  0  0  0  0  0  0
  -27.0174  -34.1704   19.2530 C   0  0  0  0  0  0  0  0  0  0  0  0
  -26.3893  -26.2750   18.1322 C   0  0  0  0  0  0  0  0  0  0  0  0
  -22.0744   -8.9995   20.0177 C   0  0  0  0  0  0  0  0  0  0  0  0
  -23.0424   -8.5308   22.1812 C   0  0  0  0  0  0  0  0  0  0  0  0
  -26.8612  -25.0364   18.5648 C   0  0  0  0  0  0  0  0  0  0  0  0
  -23.0094   -5.3595   21.0095 C   0  0  0  0  0  0  0  0  0  0  0  0
  -23.6037   -4.1817   21.4623 C   0  0  0  0  0  0  0  0  0  0  0  0
  -26.3099  -25.6270   20.8375 C   0  0  0  0  0  0  0  0  0  0  0  0
  -22.0883   -4.1403   23.3435 C   0  0  0  0  0  0  0  0  0  0  0  0
  -29.9389  -19.8755   20.4121 C   0  0  0  0  0  0  0  0  0  0  0  0
  -23.7714  -10.4610   20.9241 C   0  0  0  0  0  0  0  0  0  0  0  0
  -24.3045  -12.9376   21.2231 C   0  0  0  0  0  0  0  0  0  0  0  0
  -28.0623  -34.7119   21.3705 C   0  0  0  0  0  0  0  0  0  0  0  0
  -25.8827  -27.2049   19.0516 C   0  0  0  0  0  0  0  0  0  0  0  0
  -27.5819  -33.7414   20.4679 C   0  0  0  0  0  0  0  0  0  0  0  0
  -25.8278  -26.8746   20.4134 C   0  0  0  0  0  0  0  0  0  0  0  0
  -27.7790  -19.3866   21.3142 C   0  0  0  0  0  0  0  0  0  0  0  0
  -27.3035  -20.5611   20.7141 C   0  0  0  0  0  0  0  0  0  0  0  0
  -29.1208  -19.0329   21.1472 C   0  0  0  0  0  0  0  0  0  0  0  0
  -22.1541   -8.1999   21.1579 C   0  0  0  0  0  0  0  0  0  0  0  0
  -26.8236  -24.7132   19.9179 C   0  0  0  0  0  0  0  0  0  0  0  0
  -21.9546   -5.9278   21.7237 C   0  0  0  0  0  0  0  0  0  0  0  0
  -23.1432   -3.5721   22.6293 C   0  0  0  0  0  0  0  0  0  0  0  0
  -21.4940   -5.3182   22.8907 C   0  0  0  0  0  0  0  0  0  0  0  0
  -24.6073  -11.6284   20.8038 C   0  0  0  0  0  0  0  0  0  0  0  0
  -28.2172  -21.3372   20.0056 C   0  0  0  0  0  0  0  0  0  0  0  0
  -25.4154  -13.6717   20.8860 C   0  0  0  0  0  0  0  0  0  0  0  0
  -23.1247  -13.4449   21.8605 C   0  0  0  0  0  0  0  0  0  0  0  0
  -26.6119  -30.1798   19.9811 C   0  0  0  0  0  0  0  0  0  0  0  0
  -23.8019  -29.7708   21.7102 C   0  0  0  0  0  0  0  0  0  0  0  0
  -22.7837  -33.0069   21.3494 C   0  0  0  0  0  0  0  0  0  0  0  0
  -30.9574  -14.2915   20.6695 C   0  0  0  0  0  0  0  0  0  0  0  0
  -28.6939  -34.3292   22.6857 C   0  0  0  0  0  0  0  0  0  0  0  0
  -25.3504  -28.5240   18.5605 C   0  0  0  0  0  0  0  0  0  0  0  0
  -26.8609  -18.4698   22.0818 C   0  0  0  0  0  0  0  0  0  0  0  0
  -25.8797  -21.0185   20.8699 C   0  0  0  0  0  0  0  0  0  0  0  0
  -25.2902  -27.8360   21.4388 C   0  0  0  0  0  0  0  0  0  0  0  0
  -29.1885  -32.8866   22.7101 C   0  0  0  0  0  0  0  0  0  0  0  0
  -25.5554  -19.1433   22.5041 C   0  0  0  0  0  0  0  0  0  0  0  0
  -24.9427  -19.9041   21.3339 C   0  0  0  0  0  0  0  0  0  0  0  0
  -29.4127  -12.4703   18.0287 C   0  0  0  0  0  0  0  0  0  0  0  0
  -28.0948  -31.9536   22.2124 C   0  0  0  0  0  0  0  0  0  0  0  0
  -28.0027  -12.1918   18.5524 C   0  0  0  0  0  0  0  0  0  0  0  0
  -30.4525  -12.4053   19.1452 C   0  0  0  0  0  0  0  0  0  0  0  0
  -28.7538  -12.9827   20.8347 C   0  0  0  0  0  0  0  0  0  0  0  0
  -27.7398  -32.2586   20.7516 C   0  0  1  0  0  0  0  0  0  0  0  0
  -25.2695  -29.5926   19.6486 C   0  0  1  0  0  0  0  0  0  0  0  0
  -27.6633  -13.0923   19.7553 C   0  0  2  0  0  0  0  0  0  0  0  0
  -21.4757  -35.1005   21.8008 C   0  0  0  0  0  0  0  0  0  0  0  0
  -21.7313  -28.4294   19.9162 C   0  0  0  0  0  0  0  0  0  0  0  0
  -20.3907  -30.5421   20.0033 C   0  0  0  0  0  0  0  0  0  0  0  0
  -20.8378  -29.2634   22.0980 C   0  0  0  0  0  0  0  0  0  0  0  0
  -24.7089  -33.9040   23.4105 C   0  0  0  0  0  0  0  0  0  0  0  0
  -27.7901  -22.6163   19.3478 C   0  0  0  0  0  0  0  0  0  1  0  0
  -31.0346  -17.4846   21.5540 C   0  0  0  0  0  0  0  0  0  0  0  0
  -31.3126  -16.1651   22.2578 C   0  0  0  0  0  0  0  0  0  0  0  0
  -22.7200  -30.5508   21.0061 C   0  0  1  0  0  0  0  0  0  0  0  0
  -22.4438  -34.0761   22.3720 C   0  0  2  0  0  0  0  0  0  0  0  0
  -21.4469  -29.6968   20.7467 C   0  0  0  0  0  0  0  0  0  0  0  0
  -29.5212  -21.0230   19.8378 N   0  0  0  0  0  0  0  0  0  0  0  0
  -25.8158  -11.5331   20.2429 N   0  0  0  0  0  0  0  0  0  0  0  0
  -26.2821  -12.7918   20.3074 N   0  0  0  0  0  0  0  0  0  0  0  0
  -24.7067  -29.0719   20.9010 N   0  0  0  0  0  0  0  0  0  0  0  0
  -30.0722  -13.2829   20.2547 N   0  0  0  0  0  0  0  0  0  0  0  0
  -25.7255  -14.9775   21.0310 N   0  0  0  0  0  0  0  0  0  0  0  0
  -22.0780  -12.5541   22.1350 N   0  0  0  0  0  0  0  0  0  0  0  0
  -29.6617  -17.8592   21.7069 N   0  0  0  0  0  0  0  0  0  0  0  0
  -26.5641  -31.5009   20.3834 N   0  0  0  0  0  0  0  0  0  0  0  0
  -22.4853  -31.7432   21.8133 N   0  0  0  0  0  0  0  0  0  0  0  0
  -30.5167  -15.0827   21.7233 N   0  0  0  0  0  0  0  0  0  0  0  0
  -23.6786  -34.7880   22.8071 N   0  3  0  0  0  0  0  0  0  0  0  0
  -22.9955  -14.6556   22.1624 O   0  0  0  0  0  0  0  0  0  0  0  0
  -27.6166  -29.4853   19.8816 O   0  0  0  0  0  0  0  0  0  0  0  0
  -23.8414  -29.7732   22.9438 O   0  0  0  0  0  0  0  0  0  0  0  0
  -23.2623  -33.2671   20.2477 O   0  0  0  0  0  0  0  0  0  0  0  0
  -32.0567  -14.4769   20.1364 O   0  0  0  0  0  0  0  0  0  0  0  0
  -21.3651   -7.0968   21.2724 O   0  0  0  0  0  0  0  0  0  0  0  0
  -27.2831  -23.5048   20.3427 O   0  0  0  0  0  0  0  0  0  1  0  0
  -23.7130   -2.4402   23.0633 F   0  0  0  0  0  0  0  0  0  0  0  0
  -20.4802   -5.8588   23.5804 F   0  0  0  0  0  0  0  0  0  0  0  0
  1  2  1  0  0  0  0
  1  5  2  0  0  0  0
  2  6  2  0  0  0  0
  3  8  2  0  0  0  0
  3 16  1  0  0  0  0
  4  9  1  0  0  0  0
  4 16  2  0  0  0  0
  5 18  1  0  0  0  0
  6 20  1  0  0  0  0
  7 10  2  0  0  0  0
  7 19  1  0  0  0  0
  8 25  1  0  0  0  0
  9 25  2  0  0  0  0
 10 26  1  0  0  0  0
 11 12  2  0  0  0  0
 11 27  1  0  0  0  0
 12 28  1  0  0  0  0
 13 21  1  0  0  0  0
 13 26  2  0  0  0  0
 14 28  2  0  0  0  0
 14 29  1  0  0  0  0
 15 24  1  0  0  0  0
 15 65  2  0  0  0  0
 16 30  1  0  0  0  0
 17 30  1  0  0  0  0
 17 32  2  0  0  0  0
 17 33  1  0  0  0  0
 18 20  2  0  0  0  0
 18 38  1  0  0  0  0
 19 21  2  0  0  0  0
 19 39  1  0  0  0  0
 20 51  1  0  0  0  0
 21 42  1  0  0  0  0
 22 23  1  0  0  0  0
 22 24  2  0  0  0  0
 22 40  1  0  0  0  0
 23 31  2  0  0  0  0
 23 41  1  0  0  0  0
 24 72  1  0  0  0  0
 25 82  1  0  0  0  0
 26 83  1  0  0  0  0
 27 29  2  0  0  0  0
 27 82  1  0  0  0  0
 28 84  1  0  0  0  0
 29 85  1  0  0  0  0
 30 66  2  0  0  0  0
 31 59  1  0  0  0  0
 31 65  1  0  0  0  0
 32 67  1  0  0  0  0
 32 70  1  0  0  0  0
 33 71  1  0  0  0  0
 33 77  2  0  0  0  0
 34 52  1  0  0  0  0
 34 73  1  0  0  0  0
 34 78  2  0  0  0  0
 35 62  1  0  0  0  0
 35 68  1  0  0  0  0
 35 79  2  0  0  0  0
 36 63  1  0  0  0  0
 36 74  1  0  0  0  0
 36 80  2  0  0  0  0
 37 69  1  0  0  0  0
 37 75  1  0  0  0  0
 37 81  2  0  0  0  0
 38 43  1  0  0  0  0
 39 52  1  0  0  0  0
 40 44  1  0  0  0  0
 41 45  1  0  0  0  0
 42 68  1  0  0  0  0
 43 47  1  0  0  0  0
 44 45  1  0  0  0  0
 46 48  1  0  0  0  0
 46 49  1  0  0  0  0
 47 51  1  0  0  0  0
 48 53  1  0  0  0  0
 49 69  1  0  0  0  0
 50 53  1  0  0  0  0
 50 69  1  0  0  0  0
 51 73  1  0  0  0  0
 52 68  1  0  0  0  0
 53 67  1  0  0  0  0
 54 63  1  0  0  0  0
 55 64  1  0  0  0  0
 56 64  1  0  0  0  0
 57 64  1  0  0  0  0
 58 76  1  0  0  0  0
 59 83  1  0  0  0  0
 60 61  1  0  0  0  0
 60 72  1  0  0  0  0
 61 75  1  0  0  0  0
 62 64  1  0  0  0  0
 62 74  1  0  0  0  0
 63 76  1  0  0  0  0
 66 67  1  0  0  0  0
M  CHG  1  76   1
M  ISO  4  37 100  59 101  75 100  83 101
M  END
> <Batch ID>
0131

> <Smiles>
CNC(C)C(=O)NC(C(=O)N1Cc2cc([101O:1][101CH2:1]c3ncc(NCC[100NH:0][100C:0](=O)N4CCCC(n5nc(-c6ccc(Oc7ccc(F)cc7F)cc6)c(C(N)=O)c5N)C4)c4c3CCCC4)ccc2CC1C(=O)NC1CCCc2ccccc21)C(C)(C)C

> <Shape>
0.325

> <Color>
0.196

> <Negative vol penalty>
0.000

$$$$

  -OEChem-04052320503D

 87 95  0     1  0  0  0  0  0999 V2000
  -27.2932  -32.5312   21.7455 C   0  0  0  0  0  0  0  0  0  0  0  0
  -27.0667  -31.2179   22.1448 C   0  0  0  0  0  0  0  0  0  0  0  0
  -23.5508   -9.7440   21.0123 C   0  0  0  0  0  0  0  0  0  0  0  0
  -24.4365  -10.3560   23.1752 C   0  0  0  0  0  0  0  0  0  0  0  0
  -27.5919  -32.8117   20.4128 C   0  0  0  0  0  0  0  0  0  0  0  0
  -27.1377  -30.1844   21.2114 C   0  0  0  0  0  0  0  0  0  0  0  0
  -29.7219  -26.1846   22.9344 C   0  0  0  0  0  0  0  0  0  0  0  0
  -23.0002   -8.5878   21.5650 C   0  0  0  0  0  0  0  0  0  0  0  0
  -23.8858   -9.1997   23.7279 C   0  0  0  0  0  0  0  0  0  0  0  0
  -29.0609  -25.3319   23.8175 C   0  0  0  0  0  0  0  0  0  0  0  0
  -20.8510   -8.1414   24.7722 C   0  0  0  0  0  0  0  0  0  0  0  0
  -20.1790   -8.2628   25.9884 C   0  0  0  0  0  0  0  0  0  0  0  0
  -28.6243  -23.8022   22.0041 C   0  0  0  0  0  0  0  0  0  0  0  0
  -21.7325   -6.7142   27.0012 C   0  0  0  0  0  0  0  0  0  0  0  0
  -24.2690  -10.6281   21.8175 C   0  0  0  0  0  0  0  0  0  0  0  0
  -24.2294  -13.0869   21.1390 C   0  0  0  0  0  0  0  0  0  0  0  0
  -27.6761  -31.7800   19.4645 C   0  0  0  0  0  0  0  0  0  0  0  0
  -29.8297  -25.8572   21.5752 C   0  0  0  0  0  0  0  0  0  0  0  0
  -27.4365  -30.4515   19.8645 C   0  0  0  0  0  0  0  0  0  0  0  0
  -29.2893  -24.6512   21.1063 C   0  0  0  0  0  0  0  0  0  0  0  0
  -23.1676   -8.3156   22.9227 C   0  0  0  0  0  0  0  0  0  0  0  0
  -28.5095  -24.1419   23.3519 C   0  0  0  0  0  0  0  0  0  0  0  0
  -21.9637   -7.3064   24.6704 C   0  0  0  0  0  0  0  0  0  0  0  0
  -20.6198   -7.5492   27.1030 C   0  0  0  0  0  0  0  0  0  0  0  0
  -22.4045   -6.5928   25.7849 C   0  0  0  0  0  0  0  0  0  0  0  0
  -24.8386  -11.8224   21.2471 C   0  0  0  0  0  0  0  0  0  0  0  0
  -25.1764  -13.8733   20.5296 C   0  0  0  0  0  0  0  0  0  0  0  0
  -22.9242  -13.5127   21.5525 C   0  0  0  0  0  0  0  0  0  0  0  0
  -28.8268  -27.1777   18.8633 C   0  0  0  0  0  0  0  0  0  0  0  0
  -30.5935  -24.8151   17.5146 C   0  0  0  0  0  0  0  0  0  0  0  0
  -32.0053  -21.7225   17.8134 C   0  0  0  0  0  0  0  0  0  0  0  0
  -31.1492  -13.5741   20.2352 C   0  0  0  0  0  0  0  0  0  0  0  0
  -27.9554  -32.1373   18.0261 C   0  0  0  0  0  0  0  0  0  0  0  0
  -30.5690  -26.7749   20.6406 C   0  0  0  0  0  0  0  0  0  0  0  0
  -29.3955  -24.2438   19.6602 C   0  0  0  0  0  0  0  0  0  0  0  0
  -28.3808  -30.9444   17.1737 C   0  0  0  0  0  0  0  0  0  0  0  0
  -28.8704  -13.6173   17.4999 C   0  0  0  0  0  0  0  0  0  0  0  0
  -27.4597  -29.7544   17.4233 C   0  0  0  0  0  0  0  0  0  0  0  0
  -27.5237  -13.2763   18.1403 C   0  0  0  0  0  0  0  0  0  0  0  0
  -30.0170  -12.8498   18.1543 C   0  0  0  0  0  0  0  0  0  0  0  0
  -28.7530  -12.6500   20.2605 C   0  0  0  0  0  0  0  0  0  0  0  0
  -28.1558  -17.3588   23.1995 C   0  0  0  0  0  0  0  0  0  0  0  0
  -27.5290  -29.3005   18.8864 C   0  0  1  0  0  0  0  0  0  0  0  0
  -30.1715  -26.5867   19.1798 C   0  0  1  0  0  0  0  0  0  0  0  0
  -27.5730  -13.4415   19.6712 C   0  0  2  0  0  0  0  0  0  0  0  0
  -29.2936  -17.8830   24.0709 C   0  0  1  0  0  0  0  0  0  0  0  0
  -27.8636  -19.6318   24.9782 C   0  0  2  0  0  0  0  0  0  0  0  0
  -26.6742  -19.1470   24.1272 C   0  0  2  0  0  0  0  0  0  0  0  0
  -33.3564  -20.0415   16.5302 C   0  0  0  0  0  0  0  0  0  0  0  0
  -22.7878  -19.0961   24.6259 C   0  0  0  0  0  0  0  0  0  0  0  0
  -24.1516  -19.7172   22.6215 C   0  0  0  0  0  0  0  0  0  0  0  0
  -28.1096  -24.0380   15.9220 C   0  0  0  0  0  0  0  0  0  0  0  0
  -29.2083  -21.8473   15.4103 C   0  0  0  0  0  0  0  0  0  0  0  0
  -30.2448  -23.9747   14.6214 C   0  0  0  0  0  0  0  0  0  0  0  0
  -34.2247  -21.8420   19.7676 C   0  0  0  0  0  0  0  0  0  0  0  0
  -27.8139  -21.1304   25.2159 C   0  0  0  0  0  0  0  0  0  0  0  0
  -30.6388  -17.6318   23.3924 C   0  0  0  0  0  0  0  0  0  0  0  0
  -25.3203  -19.3229   24.8066 C   0  0  0  0  0  0  0  0  0  0  0  0
  -32.1434  -14.2721   22.3994 C   0  0  0  0  0  0  0  0  0  0  0  0
  -32.0758  -15.7828   22.5235 C   0  0  0  0  0  0  0  0  0  0  0  0
  -27.9004  -21.9129   23.9144 C   0  0  0  0  0  0  0  0  0  1  0  0
  -30.3252  -23.3943   17.0808 C   0  0  1  0  0  0  0  0  0  0  0  0
  -33.4007  -21.2171   17.4940 C   0  0  2  0  0  0  0  0  0  0  0  0
  -24.1326  -18.9101   23.9218 C   0  0  0  0  0  0  0  0  0  0  0  0
  -29.4681  -23.3219   15.7856 C   0  0  0  0  0  0  0  0  0  0  0  0
  -26.0767  -11.8021   20.7464 N   0  0  0  0  0  0  0  0  0  0  0  0
  -26.2531  -13.0635   20.3177 N   0  0  0  0  0  0  0  0  0  0  0  0
  -29.1383  -19.3224   24.3106 N   0  0  0  0  0  0  0  0  0  0  0  0
  -30.1224  -25.1776   18.7844 N   0  0  0  0  0  0  0  0  0  0  0  0
  -30.0083  -13.0499   19.6055 N   0  0  0  0  0  0  0  0  0  0  0  0
  -25.1847  -15.1716   20.1597 N   0  0  0  0  0  0  0  0  0  0  0  0
  -22.0783  -12.5766   22.1629 N   0  0  0  0  0  0  0  0  0  0  0  0
  -28.7328  -28.5321   19.1207 N   0  0  0  0  0  0  0  0  0  0  0  0
  -31.6284  -22.7477   16.9718 N   0  0  0  0  0  0  0  0  0  0  0  0
  -31.0547  -13.7380   21.6118 N   0  0  0  0  0  0  0  0  0  0  0  0
  -26.8563  -17.6767   23.8618 N   0  3  0  0  0  0  0  0  0  0  0  0
  -34.0902  -20.7776   18.7399 N   0  3  0  0  0  0  0  0  0  0  0  0
  -30.8217  -16.1754   23.2282 N   0  3  0  0  0  0  0  0  0  0  0  0
  -22.5140  -14.6841   21.3708 O   0  0  0  0  0  0  0  0  0  0  0  0
  -27.9406  -26.4585   18.4173 O   0  0  0  0  0  0  0  0  0  0  0  0
  -31.2050  -25.5732   16.7577 O   0  0  0  0  0  0  0  0  0  0  0  0
  -31.3170  -21.2522   18.7164 O   0  0  0  0  0  0  0  0  0  0  0  0
  -32.1741  -13.8790   19.6157 O   0  0  0  0  0  0  0  0  0  0  0  0
  -22.6302   -7.1875   23.4624 O   0  0  0  0  0  0  0  0  0  0  0  0
  -27.8633  -23.3081   24.2116 O   0  0  0  0  0  0  0  0  0  1  0  0
  -19.9754   -7.6671   28.2713 F   0  0  0  0  0  0  0  0  0  0  0  0
  -23.4735   -5.7900   25.6936 F   0  0  0  0  0  0  0  0  0  0  0  0
  1  2  1  0  0  0  0
  1  5  2  0  0  0  0
  2  6  2  0  0  0  0
  3  8  2  0  0  0  0
  3 15  1  0  0  0  0
  4  9  1  0  0  0  0
  4 15  2  0  0  0  0
  5 17  1  0  0  0  0
  6 19  1  0  0  0  0
  7 10  2  0  0  0  0
  7 18  1  0  0  0  0
  8 21  1  0  0  0  0
  9 21  2  0  0  0  0
 10 22  1  0  0  0  0
 11 12  2  0  0  0  0
 11 23  1  0  0  0  0
 12 24  1  0  0  0  0
 13 20  1  0  0  0  0
 13 22  2  0  0  0  0
 14 24  2  0  0  0  0
 14 25  1  0  0  0  0
 15 26  1  0  0  0  0
 16 26  1  0  0  0  0
 16 27  2  0  0  0  0
 16 28  1  0  0  0  0
 17 19  2  0  0  0  0
 17 33  1  0  0  0  0
 18 20  2  0  0  0  0
 18 34  1  0  0  0  0
 19 43  1  0  0  0  0
 20 35  1  0  0  0  0
 21 84  1  0  0  0  0
 22 85  1  0  0  0  0
 23 25  2  0  0  0  0
 23 84  1  0  0  0  0
 24 86  1  0  0  0  0
 25 87  1  0  0  0  0
 26 66  2  0  0  0  0
 27 67  1  0  0  0  0
 27 71  1  0  0  0  0
 28 72  1  0  0  0  0
 28 79  2  0  0  0  0
 29 44  1  0  0  0  0
 29 73  1  0  0  0  0
 29 80  2  0  0  0  0
 30 62  1  0  0  0  0
 30 69  1  0  0  0  0
 30 81  2  0  0  0  0
 31 63  1  0  0  0  0
 31 74  1  0  0  0  0
 31 82  2  0  0  0  0
 32 70  1  0  0  0  0
 32 75  1  0  0  0  0
 32 83  2  0  0  0  0
 33 36  1  0  0  0  0
 34 44  1  0  0  0  0
 35 69  1  0  0  0  0
 36 38  1  0  0  0  0
 37 39  1  0  0  0  0
 37 40  1  0  0  0  0
 38 43  1  0  0  0  0
 39 45  1  0  0  0  0
 40 70  1  0  0  0  0
 41 45  1  0  0  0  0
 41 70  1  0  0  0  0
 42 46  1  0  0  0  0
 42 76  1  0  0  0  0
 43 73  1  0  0  0  0
 44 69  1  0  0  0  0
 45 67  1  0  0  0  0
 46 57  1  0  0  0  0
 46 68  1  0  0  0  0
 47 48  1  0  0  0  0
 47 56  1  0  0  0  0
 47 68  1  0  0  0  0
 48 58  1  0  0  0  0
 48 76  1  0  0  0  0
 49 63  1  0  0  0  0
 50 64  1  0  0  0  0
 51 64  1  0  0  0  0
 52 65  1  0  0  0  0
 53 65  1  0  0  0  0
 54 65  1  0  0  0  0
 55 77  1  0  0  0  0
 56 61  1  0  0  0  0
 57 78  1  0  0  0  0
 58 64  1  0  0  0  0
 59 60  1  0  0  0  0
 59 75  1  0  0  0  0
 60 78  1  0  0  0  0
 61 85  1  0  0  0  0
 62 65  1  0  0  0  0
 62 74  1  0  0  0  0
 63 77  1  0  0  0  0
 66 67  1  0  0  0  0
M  CHG  3  76   1  77   1  78   1
M  ISO  4  32 100  61 101  75 100  85 101
M  END
> <Batch ID>
0131

> <Smiles>
CNC(C)C(=O)NC(C(=O)N1Cc2cc([101O:1][101CH2:1]CC3NC(CNCC[100NH:0][100C:0](=O)N4CCCC(n5nc(-c6ccc(Oc7ccc(F)cc7F)cc6)c(C(N)=O)c5N)C4)CNC3CC(C)C)ccc2CC1C(=O)NC1CCCc2ccccc21)C(C)(C)C

> <Shape>
0.222

> <Color>
0.116

> <Negative vol penalty>
0.000

$$$$

  -OEChem-04052320503D

 88 97  0     1  0  0  0  0  0999 V2000
  -35.2688  -24.7932   20.3875 C   0  0  0  0  0  0  0  0  0  0  0  0
  -33.9016  -24.5379   20.3549 C   0  0  0  0  0  0  0  0  0  0  0  0
  -23.0576  -18.9798   20.7429 C   0  0  0  0  0  0  0  0  0  0  0  0
  -22.4311  -20.2147   20.5754 C   0  0  0  0  0  0  0  0  0  0  0  0
  -22.9977   -9.8923   19.9920 C   0  0  0  0  0  0  0  0  0  0  0  0
  -23.7182   -9.9622   22.2970 C   0  0  0  0  0  0  0  0  0  0  0  0
  -35.8611  -25.2642   21.5585 C   0  0  0  0  0  0  0  0  0  0  0  0
  -33.1261  -24.7526   21.4938 C   0  0  0  0  0  0  0  0  0  0  0  0
  -24.4502  -18.8996   20.7509 C   0  0  0  0  0  0  0  0  0  0  0  0
  -28.7858  -27.1501   20.4648 C   0  0  0  0  0  0  0  0  0  0  0  0
  -23.1970  -21.3694   20.4157 C   0  0  0  0  0  0  0  0  0  0  0  0
  -22.2305   -8.7601   20.2662 C   0  0  0  0  0  0  0  0  0  0  0  0
  -22.9510   -8.8301   22.5712 C   0  0  0  0  0  0  0  0  0  0  0  0
  -27.7542  -26.3911   19.9141 C   0  0  0  0  0  0  0  0  0  0  0  0
  -23.1958   -5.4873   22.1274 C   0  0  0  0  0  0  0  0  0  0  0  0
  -23.7817   -4.4763   22.8891 C   0  0  0  0  0  0  0  0  0  0  0  0
  -26.7203  -26.2305   22.0877 C   0  0  0  0  0  0  0  0  0  0  0  0
  -22.0545   -4.7333   24.5587 C   0  0  0  0  0  0  0  0  0  0  0  0
  -23.7416  -10.4933   21.0074 C   0  0  0  0  0  0  0  0  0  0  0  0
  -24.1276  -13.0073   20.8114 C   0  0  0  0  0  0  0  0  0  0  0  0
  -35.0908  -25.4940   22.7094 C   0  0  0  0  0  0  0  0  0  0  0  0
  -28.7982  -27.4464   21.8354 C   0  0  0  0  0  0  0  0  0  0  0  0
  -33.7089  -25.2259   22.6816 C   0  0  0  0  0  0  0  0  0  0  0  0
  -25.2162  -20.0544   20.5912 C   0  0  0  0  0  0  0  0  0  0  0  0
  -27.7519  -26.9957   22.6528 C   0  0  0  0  0  0  0  0  0  0  0  0
  -22.2071   -8.2290   21.5557 C   0  0  0  0  0  0  0  0  0  0  0  0
  -26.7227  -25.9286   20.7261 C   0  0  0  0  0  0  0  0  0  0  0  0
  -24.5896  -21.2893   20.4236 C   0  0  0  0  0  0  0  0  0  0  0  0
  -22.0393   -6.1214   22.5814 C   0  0  0  0  0  0  0  0  0  0  0  0
  -23.2110   -4.0993   24.1047 C   0  0  0  0  0  0  0  0  0  0  0  0
  -21.4686   -5.7443   23.7971 C   0  0  0  0  0  0  0  0  0  0  0  0
  -24.5348  -11.6625   20.7247 C   0  0  0  0  0  0  0  0  0  0  0  0
  -25.2382  -13.7268   20.4433 C   0  0  0  0  0  0  0  0  0  0  0  0
  -22.8590  -13.5571   21.1908 C   0  0  0  0  0  0  0  0  0  0  0  0
  -30.7564  -26.7961   24.2533 C   0  0  0  0  0  0  0  0  0  0  0  0
  -28.7661  -28.7701   25.8856 C   0  0  0  0  0  0  0  0  0  0  0  0
  -25.6718  -30.1828   26.1618 C   0  0  0  0  0  0  0  0  0  0  0  0
  -30.7342  -14.6627   20.6951 C   0  0  0  0  0  0  0  0  0  0  0  0
  -35.7837  -25.9587   23.9658 C   0  0  0  0  0  0  0  0  0  0  0  0
  -29.9042  -28.2889   22.4090 C   0  0  0  0  0  0  0  0  0  0  0  0
  -27.7079  -27.3034   24.1265 C   0  0  0  0  0  0  0  0  0  0  0  0
  -34.8281  -26.5163   25.0176 C   0  0  0  0  0  0  0  0  0  0  0  0
  -29.5979  -12.2199   18.3675 C   0  0  0  0  0  0  0  0  0  0  0  0
  -33.6282  -25.5910   25.1928 C   0  0  0  0  0  0  0  0  0  0  0  0
  -28.1485  -11.9638   18.7843 C   0  0  0  0  0  0  0  0  0  0  0  0
  -27.1917  -19.3963   21.9519 C   0  0  0  0  0  0  0  0  0  0  0  0
  -27.1856  -19.0537   19.4480 C   0  0  0  0  0  0  0  0  0  0  0  0
  -30.4979  -12.4652   19.5765 C   0  0  0  0  0  0  0  0  0  0  0  0
  -28.5852  -13.2719   20.9048 C   0  0  0  0  0  0  0  0  0  0  0  0
  -28.7022  -19.1993   21.9654 C   0  0  0  0  0  0  0  0  0  0  0  0
  -28.6962  -18.8597   19.4807 C   0  0  0  0  0  0  0  0  0  0  0  0
  -26.7054  -19.9496   20.6019 C   0  0  0  0  0  0  0  0  0  0  0  0
  -32.8299  -25.4700   23.8891 C   0  0  1  0  0  0  0  0  0  0  0  0
  -30.0845  -28.0959   23.9116 C   0  0  1  0  0  0  0  0  0  0  0  0
  -27.6285  -13.0746   19.7165 C   0  0  2  0  0  0  0  0  0  0  0  0
  -24.3332  -31.7242   27.6211 C   0  0  0  0  0  0  0  0  0  0  0  0
  -28.4411  -26.5383   27.9406 C   0  0  0  0  0  0  0  0  0  0  0  0
  -26.4240  -27.7344   28.8176 C   0  0  0  0  0  0  0  0  0  0  0  0
  -28.6627  -28.8304   28.9161 C   0  0  0  0  0  0  0  0  0  0  0  0
  -25.2753  -32.1154   23.9556 C   0  0  0  0  0  0  0  0  0  0  0  0
  -30.8148  -16.8514   21.8624 C   0  0  0  0  0  0  0  0  0  0  0  0
  -30.5683  -17.9669   20.8638 C   0  0  0  0  0  0  0  0  0  0  0  0
  -26.0337  -24.3776   19.0601 C   0  0  0  0  0  0  0  0  0  1  0  0
  -25.1343  -23.1567   19.0554 C   0  0  0  0  0  0  0  0  0  0  0  0
  -27.4985  -28.5879   26.6850 C   0  0  1  0  0  0  0  0  0  0  0  0
  -25.2373  -31.6172   26.4029 C   0  0  2  0  0  0  0  0  0  0  0  0
  -27.7581  -27.9152   28.0624 C   0  0  0  0  0  0  0  0  0  0  0  0
  -25.8048  -11.5326   20.3321 N   0  0  0  0  0  0  0  0  0  0  0  0
  -26.2053  -12.8050   20.1688 N   0  0  0  0  0  0  0  0  0  0  0  0
  -28.8154  -28.1254   24.6415 N   0  0  0  0  0  0  0  0  0  0  0  0
  -29.9495  -13.5309   20.4187 N   0  0  0  0  0  0  0  0  0  0  0  0
  -25.4721  -15.0515   20.3307 N   0  0  0  0  0  0  0  0  0  0  0  0
  -21.8264  -12.6759   21.5396 N   0  0  0  0  0  0  0  0  0  0  0  0
  -32.0084  -26.6444   23.6886 N   0  0  0  0  0  0  0  0  0  0  0  0
  -26.8773  -29.9051   26.7709 N   0  0  0  0  0  0  0  0  0  0  0  0
  -30.1363  -15.6282   21.4958 N   0  0  0  0  0  0  0  0  0  0  0  0
  -29.1016  -18.2976   20.8222 N   0  3  0  0  0  0  0  0  0  0  0  0
  -24.4961  -32.1397   25.2203 N   0  3  0  0  0  0  0  0  0  0  0  0
  -22.6424  -14.7926   21.2039 O   0  0  0  0  0  0  0  0  0  0  0  0
  -30.1820  -25.9911   24.9770 O   0  0  0  0  0  0  0  0  0  0  0  0
  -29.6761  -29.4649   26.3448 O   0  0  0  0  0  0  0  0  0  0  0  0
  -25.0065  -29.3872   25.5024 O   0  0  0  0  0  0  0  0  0  0  0  0
  -31.8805  -14.8049   20.2562 O   0  0  0  0  0  0  0  0  0  0  0  0
  -21.4584   -7.1244   21.8237 O   0  0  0  0  0  0  0  0  0  0  0  0
  -25.7148  -25.1870   20.1913 O   0  0  0  0  0  0  0  0  0  1  0  0
  -25.3271  -22.4330   20.2647 O   0  0  0  0  0  0  0  0  0  0  0  0
  -23.7729   -3.1273   24.8353 F   0  0  0  0  0  0  0  0  0  0  0  0
  -20.3569   -6.3490   24.2379 F   0  0  0  0  0  0  0  0  0  0  0  0
  1  2  1  0  0  0  0
  1  7  2  0  0  0  0
  2  8  2  0  0  0  0
  3  4  1  0  0  0  0
  3  9  2  0  0  0  0
  4 11  2  0  0  0  0
  5 12  2  0  0  0  0
  5 19  1  0  0  0  0
  6 13  1  0  0  0  0
  6 19  2  0  0  0  0
  7 21  1  0  0  0  0
  8 23  1  0  0  0  0
  9 24  1  0  0  0  0
 10 14  2  0  0  0  0
 10 22  1  0  0  0  0
 11 28  1  0  0  0  0
 12 26  1  0  0  0  0
 13 26  2  0  0  0  0
 14 27  1  0  0  0  0
 15 16  2  0  0  0  0
 15 29  1  0  0  0  0
 16 30  1  0  0  0  0
 17 25  1  0  0  0  0
 17 27  2  0  0  0  0
 18 30  2  0  0  0  0
 18 31  1  0  0  0  0
 19 32  1  0  0  0  0
 20 32  1  0  0  0  0
 20 33  2  0  0  0  0
 20 34  1  0  0  0  0
 21 23  2  0  0  0  0
 21 39  1  0  0  0  0
 22 25  2  0  0  0  0
 22 40  1  0  0  0  0
 23 53  1  0  0  0  0
 24 28  2  0  0  0  0
 24 52  1  0  0  0  0
 25 41  1  0  0  0  0
 26 84  1  0  0  0  0
 27 85  1  0  0  0  0
 28 86  1  0  0  0  0
 29 31  2  0  0  0  0
 29 84  1  0  0  0  0
 30 87  1  0  0  0  0
 31 88  1  0  0  0  0
 32 68  2  0  0  0  0
 33 69  1  0  0  0  0
 33 72  1  0  0  0  0
 34 73  1  0  0  0  0
 34 79  2  0  0  0  0
 35 54  1  0  0  0  0
 35 74  1  0  0  0  0
 35 80  2  0  0  0  0
 36 65  1  0  0  0  0
 36 70  1  0  0  0  0
 36 81  2  0  0  0  0
 37 66  1  0  0  0  0
 37 75  1  0  0  0  0
 37 82  2  0  0  0  0
 38 71  1  0  0  0  0
 38 76  1  0  0  0  0
 38 83  2  0  0  0  0
 39 42  1  0  0  0  0
 40 54  1  0  0  0  0
 41 70  1  0  0  0  0
 42 44  1  0  0  0  0
 43 45  1  0  0  0  0
 43 48  1  0  0  0  0
 44 53  1  0  0  0  0
 45 55  1  0  0  0  0
 46 50  1  0  0  0  0
 46 52  1  0  0  0  0
 47 51  1  0  0  0  0
 47 52  1  0  0  0  0
 48 71  1  0  0  0  0
 49 55  1  0  0  0  0
 49 71  1  0  0  0  0
 50 77  1  0  0  0  0
 51 77  1  0  0  0  0
 53 74  1  0  0  0  0
 54 70  1  0  0  0  0
 55 69  1  0  0  0  0
 56 66  1  0  0  0  0
 57 67  1  0  0  0  0
 58 67  1  0  0  0  0
 59 67  1  0  0  0  0
 60 78  1  0  0  0  0
 61 62  1  0  0  0  0
 61 76  1  0  0  0  0
 62 77  1  0  0  0  0
 63 64  1  0  0  0  0
 63 85  1  0  0  0  0
 64 86  1  0  0  0  0
 65 67  1  0  0  0  0
 65 75  1  0  0  0  0
 66 78  1  0  0  0  0
 68 69  1  0  0  0  0
M  CHG  2  77   1  78   1
M  ISO  4  38 100  63 101  76 100  85 101
M  END
> <Batch ID>
0131

> <Smiles>
CNC(C)C(=O)NC(C(=O)N1Cc2cc([101O:1][101CH2:1]COc3ccccc3C3CCN(CC[100NH:0][100C:0](=O)N4CCCC(n5nc(-c6ccc(Oc7ccc(F)cc7F)cc6)c(C(N)=O)c5N)C4)CC3)ccc2CC1C(=O)NC1CCCc2ccccc21)C(C)(C)C

> <Shape>
0.259

> <Color>
0.189

> <Negative vol penalty>
0.000

$$$$

  -OEChem-04052320503D

 82 90  0     1  0  0  0  0  0999 V2000
  -29.4038  -30.7611   13.9111 C   0  0  0  0  0  0  0  0  0  0  0  0
  -29.3300  -29.7103   14.8198 C   0  0  0  0  0  0  0  0  0  0  0  0
  -22.8902  -10.1574   19.9617 C   0  0  0  0  0  0  0  0  0  0  0  0
  -23.8189   -9.8638   22.1727 C   0  0  0  0  0  0  0  0  0  0  0  0
  -28.8638  -32.0040   14.2389 C   0  0  0  0  0  0  0  0  0  0  0  0
  -28.7170  -29.9022   16.0575 C   0  0  0  0  0  0  0  0  0  0  0  0
  -25.6142  -26.0975   17.2994 C   0  0  0  0  0  0  0  0  0  0  0  0
  -29.2664  -21.1403   19.2291 C   0  0  0  0  0  0  0  0  0  0  0  0
  -29.8038  -20.0300   19.8802 C   0  0  0  0  0  0  0  0  0  0  0  0
  -22.0942   -9.0269   20.1459 C   0  0  0  0  0  0  0  0  0  0  0  0
  -23.0228   -8.7333   22.3569 C   0  0  0  0  0  0  0  0  0  0  0  0
  -26.2015  -24.9278   17.7797 C   0  0  0  0  0  0  0  0  0  0  0  0
  -23.0556   -5.4840   21.4230 C   0  0  0  0  0  0  0  0  0  0  0  0
  -23.6556   -4.3516   21.9736 C   0  0  0  0  0  0  0  0  0  0  0  0
  -25.6796  -25.5998   20.0369 C   0  0  0  0  0  0  0  0  0  0  0  0
  -27.6303  -19.5192   20.8033 C   0  0  0  0  0  0  0  0  0  0  0  0
  -22.1018   -4.4272   23.8221 C   0  0  0  0  0  0  0  0  0  0  0  0
  -23.7527  -10.5758   20.9751 C   0  0  0  0  0  0  0  0  0  0  0  0
  -24.2471  -13.0753   21.1003 C   0  0  0  0  0  0  0  0  0  0  0  0
  -28.2353  -32.2085   15.4774 C   0  0  0  0  0  0  0  0  0  0  0  0
  -25.0640  -27.0338   18.1864 C   0  0  0  0  0  0  0  0  0  0  0  0
  -28.1692  -31.1494   16.4028 C   0  0  0  0  0  0  0  0  0  0  0  0
  -25.0836  -26.7794   19.5652 C   0  0  0  0  0  0  0  0  0  0  0  0
  -27.9109  -21.4402   19.3652 C   0  0  0  0  0  0  0  0  0  0  0  0
  -27.0929  -20.6296   20.1522 C   0  0  0  0  0  0  0  0  0  0  0  0
  -28.9858  -19.2194   20.6673 C   0  0  0  0  0  0  0  0  0  0  0  0
  -22.1605   -8.3149   21.3435 C   0  0  0  0  0  0  0  0  0  0  0  0
  -26.2369  -24.6802   19.1488 C   0  0  0  0  0  0  0  0  0  0  0  0
  -21.9787   -6.0881   22.0720 C   0  0  0  0  0  0  0  0  0  0  0  0
  -23.1787   -3.8231   23.1731 C   0  0  0  0  0  0  0  0  0  0  0  0
  -21.5019   -5.5596   23.2715 C   0  0  0  0  0  0  0  0  0  0  0  0
  -24.5756  -11.7432   20.7852 C   0  0  0  0  0  0  0  0  0  0  0  0
  -25.3551  -13.7985   20.7319 C   0  0  0  0  0  0  0  0  0  0  0  0
  -23.0477  -13.6110   21.6748 C   0  0  0  0  0  0  0  0  0  0  0  0
  -25.6666  -30.0725   18.8988 C   0  0  0  0  0  0  0  0  0  0  0  0
  -22.9951  -29.7706   20.7139 C   0  0  0  0  0  0  0  0  0  0  0  0
  -20.8653  -27.7175   22.4154 C   0  0  0  0  0  0  0  0  0  0  0  0
  -30.8919  -14.4812   20.5804 C   0  0  0  0  0  0  0  0  0  0  0  0
  -27.7082  -33.5829   15.8058 C   0  0  0  0  0  0  0  0  0  0  0  0
  -24.4102  -28.2781   17.6507 C   0  0  0  0  0  0  0  0  0  0  0  0
  -24.4886  -27.7431   20.5580 C   0  0  0  0  0  0  0  0  0  0  0  0
  -26.7437  -33.5987   16.9889 C   0  0  0  0  0  0  0  0  0  0  0  0
  -29.4267  -12.4479   18.0515 C   0  0  0  0  0  0  0  0  0  0  0  0
  -27.3056  -32.7799   18.1467 C   0  0  0  0  0  0  0  0  0  0  0  0
  -28.0098  -12.1883   18.5663 C   0  0  0  0  0  0  0  0  0  0  0  0
  -30.4437  -12.4805   19.1902 C   0  0  0  0  0  0  0  0  0  0  0  0
  -28.7026  -13.1562   20.7982 C   0  0  0  0  0  0  0  0  0  0  0  0
  -27.4903  -31.3114   17.7455 C   0  0  1  0  0  0  0  0  0  0  0  0
  -24.3390  -29.4048   18.6768 C   0  0  1  0  0  0  0  0  0  0  0  0
  -27.6336  -13.1701   19.6922 C   0  0  2  0  0  0  0  0  0  0  0  0
  -25.6392  -20.9318   20.3138 C   0  0  0  0  0  0  0  0  0  0  0  0
  -18.7937  -27.7652   23.8309 C   0  0  0  0  0  0  0  0  0  0  0  0
  -24.6345  -30.7955   23.0744 C   0  0  0  0  0  0  0  0  0  0  0  0
  -22.8463  -29.9343   24.6005 C   0  0  0  0  0  0  0  0  0  0  0  0
  -22.3133  -31.7163   22.9382 C   0  0  0  0  0  0  0  0  0  0  0  0
  -19.3700  -26.0411   20.4885 C   0  0  0  0  0  0  0  0  0  0  0  0
  -27.3560  -22.6404   18.6561 C   0  0  0  0  0  0  0  0  0  1  0  0
  -30.9090  -17.7317   21.2272 C   0  0  0  0  0  0  0  0  0  0  0  0
  -31.1894  -16.4719   22.0322 C   0  0  0  0  0  0  0  0  0  0  0  0
  -22.7106  -29.3518   22.1361 C   0  0  1  0  0  0  0  0  0  0  0  0
  -19.3503  -27.6210   22.4230 C   0  0  2  0  0  0  0  0  0  0  0  0
  -23.1392  -30.4320   23.1690 C   0  0  0  0  0  0  0  0  0  0  0  0
  -25.7967  -11.6243   20.2571 N   0  0  0  0  0  0  0  0  0  0  0  0
  -26.2451  -12.8910   20.2375 N   0  0  0  0  0  0  0  0  0  0  0  0
  -23.8664  -28.9484   19.9854 N   0  0  0  0  0  0  0  0  0  0  0  0
  -30.0288  -13.4320   20.2239 N   0  0  0  0  0  0  0  0  0  0  0  0
  -25.6451  -15.1159   20.7859 N   0  0  0  0  0  0  0  0  0  0  0  0
  -22.0072  -12.7278   21.9937 N   0  0  0  0  0  0  0  0  0  0  0  0
  -29.5295  -18.0963   21.3246 N   0  0  0  0  0  0  0  0  0  0  0  0
  -26.2186  -30.6207   17.7567 N   0  0  0  0  0  0  0  0  0  0  0  0
  -21.2938  -29.0076   22.1846 N   0  0  0  0  0  0  0  0  0  0  0  0
  -30.4190  -15.3415   21.5637 N   0  0  0  0  0  0  0  0  0  0  0  0
  -18.9123  -26.3054   21.8769 N   0  3  0  0  0  0  0  0  0  0  0  0
  -22.8965  -14.8387   21.8835 O   0  0  0  0  0  0  0  0  0  0  0  0
  -26.1534  -30.0903   20.0232 O   0  0  0  0  0  0  0  0  0  0  0  0
  -22.4583  -30.7858   20.2635 O   0  0  0  0  0  0  0  0  0  0  0  0
  -21.5955  -26.7462   22.5998 O   0  0  0  0  0  0  0  0  0  0  0  0
  -31.9996  -14.6427   20.0570 O   0  0  0  0  0  0  0  0  0  0  0  0
  -21.3836   -7.2119   21.5237 O   0  0  0  0  0  0  0  0  0  0  0  0
  -26.8101  -23.5396   19.6203 O   0  0  0  0  0  0  0  0  0  1  0  0
  -23.7540   -2.7348   23.7010 F   0  0  0  0  0  0  0  0  0  0  0  0
  -20.4669   -6.1349   23.8990 F   0  0  0  0  0  0  0  0  0  0  0  0
  1  2  1  0  0  0  0
  1  5  2  0  0  0  0
  2  6  2  0  0  0  0
  3 10  2  0  0  0  0
  3 18  1  0  0  0  0
  4 11  1  0  0  0  0
  4 18  2  0  0  0  0
  5 20  1  0  0  0  0
  6 22  1  0  0  0  0
  7 12  2  0  0  0  0
  7 21  1  0  0  0  0
  8  9  2  0  0  0  0
  8 24  1  0  0  0  0
  9 26  1  0  0  0  0
 10 27  1  0  0  0  0
 11 27  2  0  0  0  0
 12 28  1  0  0  0  0
 13 14  2  0  0  0  0
 13 29  1  0  0  0  0
 14 30  1  0  0  0  0
 15 23  1  0  0  0  0
 15 28  2  0  0  0  0
 16 25  1  0  0  0  0
 16 26  2  0  0  0  0
 17 30  2  0  0  0  0
 17 31  1  0  0  0  0
 18 32  1  0  0  0  0
 19 32  1  0  0  0  0
 19 33  2  0  0  0  0
 19 34  1  0  0  0  0
 20 22  2  0  0  0  0
 20 39  1  0  0  0  0
 21 23  2  0  0  0  0
 21 40  1  0  0  0  0
 22 48  1  0  0  0  0
 23 41  1  0  0  0  0
 24 25  2  0  0  0  0
 24 57  1  0  0  0  0
 25 51  1  0  0  0  0
 26 69  1  0  0  0  0
 27 79  1  0  0  0  0
 28 80  1  0  0  0  0
 29 31  2  0  0  0  0
 29 79  1  0  0  0  0
 30 81  1  0  0  0  0
 31 82  1  0  0  0  0
 32 63  2  0  0  0  0
 33 64  1  0  0  0  0
 33 67  1  0  0  0  0
 34 68  1  0  0  0  0
 34 74  2  0  0  0  0
 35 49  1  0  0  0  0
 35 70  1  0  0  0  0
 35 75  2  0  0  0  0
 36 60  1  0  0  0  0
 36 65  1  0  0  0  0
 36 76  2  0  0  0  0
 37 61  1  0  0  0  0
 37 71  1  0  0  0  0
 37 77  2  0  0  0  0
 38 66  1  0  0  0  0
 38 72  1  0  0  0  0
 38 78  2  0  0  0  0
 39 42  1  0  0  0  0
 40 49  1  0  0  0  0
 41 65  1  0  0  0  0
 42 44  1  0  0  0  0
 43 45  1  0  0  0  0
 43 46  1  0  0  0  0
 44 48  1  0  0  0  0
 45 50  1  0  0  0  0
 46 66  1  0  0  0  0
 47 50  1  0  0  0  0
 47 66  1  0  0  0  0
 48 70  1  0  0  0  0
 49 65  1  0  0  0  0
 50 64  1  0  0  0  0
 52 61  1  0  0  0  0
 53 62  1  0  0  0  0
 54 62  1  0  0  0  0
 55 62  1  0  0  0  0
 56 73  1  0  0  0  0
 57 80  1  0  0  0  0
 58 59  1  0  0  0  0
 58 69  1  0  0  0  0
 59 72  1  0  0  0  0
 60 62  1  0  0  0  0
 60 71  1  0  0  0  0
 61 73  1  0  0  0  0
 63 64  1  0  0  0  0
M  CHG  1  73   1
M  ISO  4  38 100  57 101  72 100  80 101
M  END
> <Batch ID>
0131

> <Smiles>
CNC(C)C(=O)NC(C(=O)N1Cc2cc([101O:1][101CH2:1]c3ccc(NCC[100NH:0][100C:0](=O)N4CCCC(n5nc(-c6ccc(Oc7ccc(F)cc7F)cc6)c(C(N)=O)c5N)C4)cc3C)ccc2CC1C(=O)NC1CCCc2ccccc21)C(C)(C)C

> <Shape>
0.350

> <Color>
0.205

> <Negative vol penalty>
0.000

$$$$

  -OEChem-04052320503D

 87 96  0     1  0  0  0  0  0999 V2000
  -17.3388  -27.2309   25.5782 C   0  0  0  0  0  0  0  0  0  0  0  0
  -18.0353  -26.0313   25.6846 C   0  0  0  0  0  0  0  0  0  0  0  0
  -29.4038  -20.4240   21.0584 C   0  0  0  0  0  0  0  0  0  0  0  0
  -30.0037  -19.6694   18.8430 C   0  0  0  0  0  0  0  0  0  0  0  0
  -17.5977  -28.0940   24.5143 C   0  0  0  0  0  0  0  0  0  0  0  0
  -18.9904  -25.6936   24.7263 C   0  0  0  0  0  0  0  0  0  0  0  0
  -24.2058  -22.6194   25.6506 C   0  0  0  0  0  0  0  0  0  0  0  0
  -21.6701  -14.6414   23.9953 C   0  0  0  0  0  0  0  0  0  0  0  0
  -29.1487  -21.6996   20.5549 C   0  0  0  0  0  0  0  0  0  0  0  0
  -29.7486  -20.9450   18.3395 C   0  0  0  0  0  0  0  0  0  0  0  0
  -24.5510  -21.2812   25.4666 C   0  0  0  0  0  0  0  0  0  0  0  0
  -29.6018  -24.0945   16.5315 C   0  0  0  0  0  0  0  0  0  0  0  0
  -30.5298  -24.6386   15.6436 C   0  0  0  0  0  0  0  0  0  0  0  0
  -22.1302  -15.9514   23.9210 C   0  0  0  0  0  0  0  0  0  0  0  0
  -25.4659  -21.8214   23.3009 C   0  0  0  0  0  0  0  0  0  0  0  0
  -32.2433  -24.4840   17.3399 C   0  0  0  0  0  0  0  0  0  0  0  0
  -29.8313  -19.4090   20.2025 C   0  0  0  0  0  0  0  0  0  0  0  0
  -31.0366  -17.7392   21.7081 C   0  0  0  0  0  0  0  0  0  0  0  0
  -18.5633  -27.7712   23.5478 C   0  0  0  0  0  0  0  0  0  0  0  0
  -24.4787  -23.5683   24.6549 C   0  0  0  0  0  0  0  0  0  0  0  0
  -19.2614  -26.5526   23.6477 C   0  0  0  0  0  0  0  0  0  0  0  0
  -22.4784  -13.6004   23.5522 C   0  0  0  0  0  0  0  0  0  0  0  0
  -25.1255  -23.1714   23.4758 C   0  0  0  0  0  0  0  0  0  0  0  0
  -29.3211  -21.9601   19.1954 C   0  0  0  0  0  0  0  0  0  0  0  0
  -25.1786  -20.8815   24.2904 C   0  0  0  0  0  0  0  0  0  0  0  0
  -29.9944  -23.7453   17.8236 C   0  0  0  0  0  0  0  0  0  0  0  0
  -31.8505  -24.8333   16.0478 C   0  0  0  0  0  0  0  0  0  0  0  0
  -31.3152  -23.9400   18.2278 C   0  0  0  0  0  0  0  0  0  0  0  0
  -30.0955  -18.0913   20.7221 C   0  0  0  0  0  0  0  0  0  0  0  0
  -23.7286  -13.9197   23.0473 C   0  0  0  0  0  0  0  0  0  0  0  0
  -23.3960  -16.1655   23.3997 C   0  0  0  0  0  0  0  0  0  0  0  0
  -30.8984  -16.3795   21.8447 C   0  0  0  0  0  0  0  0  0  0  0  0
  -31.9536  -18.5672   22.4355 C   0  0  0  0  0  0  0  0  0  0  0  0
  -22.7110  -25.4964   22.8489 C   0  0  0  0  0  0  0  0  0  0  0  0
  -25.6024  -26.6285   21.9108 C   0  0  0  0  0  0  0  0  0  0  0  0
  -28.9487  -26.0729   21.5362 C   0  0  0  0  0  0  0  0  0  0  0  0
  -26.3639  -12.6152   20.7867 C   0  0  0  0  0  0  0  0  0  0  0  0
  -18.7748  -28.7141   22.3898 C   0  0  0  0  0  0  0  0  0  0  0  0
  -24.1240  -25.0126   24.8800 C   0  0  0  0  0  0  0  0  0  0  0  0
  -25.4588  -24.1546   22.3846 C   0  0  0  0  0  0  0  0  0  0  0  0
  -20.0688  -28.4555   21.6224 C   0  0  0  0  0  0  0  0  0  0  0  0
  -29.6324  -12.4782   19.3814 C   0  0  0  0  0  0  0  0  0  0  0  0
  -20.2326  -26.9657   21.3386 C   0  0  0  0  0  0  0  0  0  0  0  0
  -30.2066  -13.8695   19.6546 C   0  0  0  0  0  0  0  0  0  0  0  0
  -21.7307  -11.7176   25.0812 C   0  0  0  0  0  0  0  0  0  0  0  0
  -20.7363  -11.9337   22.7588 C   0  0  0  0  0  0  0  0  0  0  0  0
  -28.1402  -12.5363   19.0619 C   0  0  0  0  0  0  0  0  0  0  0  0
  -27.8931  -14.6296   20.3390 C   0  0  0  0  0  0  0  0  0  0  0  0
  -21.2415  -10.2775   25.1389 C   0  0  0  0  0  0  0  0  0  0  0  0
  -20.2600  -10.4908   22.8462 C   0  0  0  0  0  0  0  0  0  0  0  0
  -21.9833  -12.1726   23.6312 C   0  0  0  0  0  0  0  0  0  0  0  0
  -20.3226  -26.1625   22.6418 C   0  0  1  0  0  0  0  0  0  0  0  0
  -23.9858  -25.8032   23.5826 C   0  0  1  0  0  0  0  0  0  0  0  0
  -29.3831  -14.6165   20.7209 C   0  0  2  0  0  0  0  0  0  0  0  0
  -31.0473  -27.1712   20.7073 C   0  0  0  0  0  0  0  0  0  0  0  0
  -24.7249  -26.1271   19.0318 C   0  0  0  0  0  0  0  0  0  0  0  0
  -27.1228  -26.3252   18.3399 C   0  0  0  0  0  0  0  0  0  0  0  0
  -25.9637  -28.2704   19.3865 C   0  0  0  0  0  0  0  0  0  0  0  0
  -30.2219  -25.9172   24.2034 C   0  0  0  0  0  0  0  0  0  0  0  0
  -24.6395  -12.8421   22.5571 C   0  0  0  0  0  0  0  0  0  0  0  0
  -25.5257  -19.0889   22.7667 C   0  0  0  0  0  0  0  0  0  1  0  0
  -25.1755  -17.6134   22.7731 C   0  0  0  0  0  0  0  0  0  0  0  0
  -26.5834  -26.2803   20.8174 C   0  0  1  0  0  0  0  0  0  0  0  0
  -30.1573  -26.9108   21.9126 C   0  0  2  0  0  0  0  0  0  0  0  0
  -26.0908  -26.7317   19.4135 C   0  0  0  0  0  0  0  0  0  0  0  0
  -29.4102  -17.0400   20.2646 N   0  0  0  0  0  0  0  0  0  0  0  0
  -24.2099  -15.1799   22.9593 N   0  0  0  0  0  0  0  0  0  0  0  0
  -29.9213  -16.0140   20.9662 N   0  0  0  0  0  0  0  0  0  0  0  0
  -25.0862  -25.5542   22.6491 N   0  0  0  0  0  0  0  0  0  0  0  0
  -27.4164  -13.2561   20.1126 N   0  0  0  0  0  0  0  0  0  0  0  0
  -31.5187  -15.4729   22.6294 N   0  0  0  0  0  0  0  0  0  0  0  0
  -33.2316  -18.7789   21.9004 N   0  0  0  0  0  0  0  0  0  0  0  0
  -21.6421  -26.2883   23.2229 N   0  0  0  0  0  0  0  0  0  0  0  0
  -27.8618  -26.8589   21.2166 N   0  0  0  0  0  0  0  0  0  0  0  0
  -25.7352  -13.3661   21.7724 N   0  0  0  0  0  0  0  0  0  0  0  0
  -20.0306  -10.1341   24.2777 N   0  3  0  0  0  0  0  0  0  0  0  0
  -30.9664  -26.2148   22.9527 N   0  3  0  0  0  0  0  0  0  0  0  0
  -31.6544  -19.0902   23.5358 O   0  0  0  0  0  0  0  0  0  0  0  0
  -22.6984  -24.6080   22.0049 O   0  0  0  0  0  0  0  0  0  0  0  0
  -25.3105  -27.8108   22.1074 O   0  0  0  0  0  0  0  0  0  0  0  0
  -28.9681  -24.8441   21.5231 O   0  0  0  0  0  0  0  0  0  0  0  0
  -26.0141  -11.4576   20.5328 O   0  0  0  0  0  0  0  0  0  0  0  0
  -29.0721  -23.2046   18.7037 O   0  0  0  0  0  0  0  0  0  0  0  0
  -25.5161  -19.5759   24.1080 O   0  0  0  0  0  0  0  0  0  1  0  0
  -23.8710  -17.4478   23.3153 O   0  0  0  0  0  0  0  0  0  0  0  0
  -32.7420  -25.3543   15.1945 F   0  0  0  0  0  0  0  0  0  0  0  0
  -31.6986  -23.6054   19.4675 F   0  0  0  0  0  0  0  0  0  0  0  0
  1  2  1  0  0  0  0
  1  5  2  0  0  0  0
  2  6  2  0  0  0  0
  3  9  2  0  0  0  0
  3 17  1  0  0  0  0
  4 10  1  0  0  0  0
  4 17  2  0  0  0  0
  5 19  1  0  0  0  0
  6 21  1  0  0  0  0
  7 11  2  0  0  0  0
  7 20  1  0  0  0  0
  8 14  2  0  0  0  0
  8 22  1  0  0  0  0
  9 24  1  0  0  0  0
 10 24  2  0  0  0  0
 11 25  1  0  0  0  0
 12 13  2  0  0  0  0
 12 26  1  0  0  0  0
 13 27  1  0  0  0  0
 14 31  1  0  0  0  0
 15 23  1  0  0  0  0
 15 25  2  0  0  0  0
 16 27  2  0  0  0  0
 16 28  1  0  0  0  0
 17 29  1  0  0  0  0
 18 29  1  0  0  0  0
 18 32  2  0  0  0  0
 18 33  1  0  0  0  0
 19 21  2  0  0  0  0
 19 38  1  0  0  0  0
 20 23  2  0  0  0  0
 20 39  1  0  0  0  0
 21 52  1  0  0  0  0
 22 30  2  0  0  0  0
 22 51  1  0  0  0  0
 23 40  1  0  0  0  0
 24 83  1  0  0  0  0
 25 84  1  0  0  0  0
 26 28  2  0  0  0  0
 26 83  1  0  0  0  0
 27 86  1  0  0  0  0
 28 87  1  0  0  0  0
 29 66  2  0  0  0  0
 30 60  1  0  0  0  0
 30 67  1  0  0  0  0
 31 67  2  0  0  0  0
 31 85  1  0  0  0  0
 32 68  1  0  0  0  0
 32 71  1  0  0  0  0
 33 72  1  0  0  0  0
 33 78  2  0  0  0  0
 34 53  1  0  0  0  0
 34 73  1  0  0  0  0
 34 79  2  0  0  0  0
 35 63  1  0  0  0  0
 35 69  1  0  0  0  0
 35 80  2  0  0  0  0
 36 64  1  0  0  0  0
 36 74  1  0  0  0  0
 36 81  2  0  0  0  0
 37 70  1  0  0  0  0
 37 75  1  0  0  0  0
 37 82  2  0  0  0  0
 38 41  1  0  0  0  0
 39 53  1  0  0  0  0
 40 69  1  0  0  0  0
 41 43  1  0  0  0  0
 42 44  1  0  0  0  0
 42 47  1  0  0  0  0
 43 52  1  0  0  0  0
 44 54  1  0  0  0  0
 45 49  1  0  0  0  0
 45 51  1  0  0  0  0
 46 50  1  0  0  0  0
 46 51  1  0  0  0  0
 47 70  1  0  0  0  0
 48 54  1  0  0  0  0
 48 70  1  0  0  0  0
 49 76  1  0  0  0  0
 50 76  1  0  0  0  0
 52 73  1  0  0  0  0
 53 69  1  0  0  0  0
 54 68  1  0  0  0  0
 55 64  1  0  0  0  0
 56 65  1  0  0  0  0
 57 65  1  0  0  0  0
 58 65  1  0  0  0  0
 59 77  1  0  0  0  0
 60 75  1  0  0  0  0
 61 62  1  0  0  0  0
 61 84  1  0  0  0  0
 62 85  1  0  0  0  0
 63 65  1  0  0  0  0
 63 74  1  0  0  0  0
 64 77  1  0  0  0  0
 66 68  1  0  0  0  0
M  CHG  2  76   1  77   1
M  ISO  4  37 100  61 101  75 100  84 101
M  END
> <Batch ID>
0131

> <Smiles>
CNC(C)C(=O)NC(C(=O)N1Cc2cc([101O:1][101CH2:1]COc3ccc(C4CCNCC4)c(C[100NH:0][100C:0](=O)N4CCCC(n5nc(-c6ccc(Oc7ccc(F)cc7F)cc6)c(C(N)=O)c5N)C4)n3)ccc2CC1C(=O)NC1CCCc2ccccc21)C(C)(C)C

> <Shape>
0.220

> <Color>
0.063

> <Negative vol penalty>
0.000

$$$$

  -OEChem-04052320503D

 85 93  0     1  0  0  0  0  0999 V2000
  -17.2318  -30.3687   24.7684 C   0  0  0  0  0  0  0  0  0  0  0  0
  -17.9881  -29.2319   25.0350 C   0  0  0  0  0  0  0  0  0  0  0  0
  -23.1612  -10.0155   21.8822 C   0  0  0  0  0  0  0  0  0  0  0  0
  -24.6320  -10.6898   23.6764 C   0  0  0  0  0  0  0  0  0  0  0  0
  -17.3584  -31.0166   23.5404 C   0  0  0  0  0  0  0  0  0  0  0  0
  -18.8709  -28.7418   24.0732 C   0  0  0  0  0  0  0  0  0  0  0  0
  -24.2799  -26.0492   25.0724 C   0  0  0  0  0  0  0  0  0  0  0  0
  -22.6234   -9.0196   22.6974 C   0  0  0  0  0  0  0  0  0  0  0  0
  -24.0941   -9.6939   24.4916 C   0  0  0  0  0  0  0  0  0  0  0  0
  -24.6678  -24.7107   25.1145 C   0  0  0  0  0  0  0  0  0  0  0  0
  -23.4888   -5.9270   23.7515 C   0  0  0  0  0  0  0  0  0  0  0  0
  -23.3141   -4.6597   23.1956 C   0  0  0  0  0  0  0  0  0  0  0  0
  -25.3665  -24.8470   22.8096 C   0  0  0  0  0  0  0  0  0  0  0  0
  -20.9414   -4.7962   23.6304 C   0  0  0  0  0  0  0  0  0  0  0  0
  -24.1656  -10.8505   22.3717 C   0  0  0  0  0  0  0  0  0  0  0  0
  -24.0352  -12.9537   20.9339 C   0  0  0  0  0  0  0  0  0  0  0  0
  -18.2503  -30.5398   22.5668 C   0  0  0  0  0  0  0  0  0  0  0  0
  -24.4225  -26.7948   23.8934 C   0  0  0  0  0  0  0  0  0  0  0  0
  -19.0086  -29.3832   22.8305 C   0  0  0  0  0  0  0  0  0  0  0  0
  -24.9820  -26.1955   22.7559 C   0  0  0  0  0  0  0  0  0  0  0  0
  -23.0898   -8.8588   24.0021 C   0  0  0  0  0  0  0  0  0  0  0  0
  -25.2085  -24.1086   23.9821 C   0  0  0  0  0  0  0  0  0  0  0  0
  -22.3899   -6.6289   24.2470 C   0  0  0  0  0  0  0  0  0  0  0  0
  -22.0404   -4.0943   23.1350 C   0  0  0  0  0  0  0  0  0  0  0  0
  -21.1162   -6.0635   24.1864 C   0  0  0  0  0  0  0  0  0  0  0  0
  -24.7220  -11.8791   21.5300 C   0  0  0  0  0  0  0  0  0  0  0  0
  -25.0036  -13.6378   20.2406 C   0  0  0  0  0  0  0  0  0  0  0  0
  -22.6461  -13.3024   21.0011 C   0  0  0  0  0  0  0  0  0  0  0  0
  -22.4201  -28.2880   21.9276 C   0  0  0  0  0  0  0  0  0  0  0  0
  -25.1655  -29.2967   20.5249 C   0  0  0  0  0  0  0  0  0  0  0  0
  -28.4884  -28.7715   19.9511 C   0  0  0  0  0  0  0  0  0  0  0  0
  -30.9387  -14.0847   20.8934 C   0  0  0  0  0  0  0  0  0  0  0  0
  -18.3180  -31.2465   21.2361 C   0  0  0  0  0  0  0  0  0  0  0  0
  -24.0240  -28.2450   23.8722 C   0  0  0  0  0  0  0  0  0  0  0  0
  -25.1750  -26.9580   21.4715 C   0  0  0  0  0  0  0  0  0  0  0  0
  -19.5511  -30.8802   20.4140 C   0  0  0  0  0  0  0  0  0  0  0  0
  -29.1803  -12.9755   18.0029 C   0  0  0  0  0  0  0  0  0  0  0  0
  -19.7566  -29.3688   20.4044 C   0  0  0  0  0  0  0  0  0  0  0  0
  -27.7764  -12.6657   18.5253 C   0  0  0  0  0  0  0  0  0  0  0  0
  -27.9056  -19.3000   24.3300 C   0  0  0  0  0  0  0  0  0  0  0  0
  -27.1388  -20.6079   24.4484 C   0  0  0  0  0  0  0  0  0  0  0  0
  -30.2557  -12.6101   19.0237 C   0  0  0  0  0  0  0  0  0  0  0  0
  -28.6634  -12.8933   20.8833 C   0  0  0  0  0  0  0  0  0  0  0  0
  -19.9952  -28.8354   21.8222 C   0  0  1  0  0  0  0  0  0  0  0  0
  -23.7385  -28.7658   22.4669 C   0  0  1  0  0  0  0  0  0  0  0  0
  -27.5417  -13.2968   19.9110 C   0  0  2  0  0  0  0  0  0  0  0  0
  -28.0798  -19.0671   22.8243 C   0  0  2  0  0  0  0  0  0  0  0  0
  -26.5068  -20.7934   23.0749 C   0  0  1  0  0  0  0  0  0  0  0  0
  -30.4558  -29.7463   18.7359 C   0  0  0  0  0  0  0  0  0  0  0  0
  -28.4808  -21.9715   19.8773 C   0  0  0  0  0  0  0  0  0  0  0  0
  -26.4800  -21.1284   18.6083 C   0  0  0  0  0  0  0  0  0  0  0  0
  -24.0654  -28.2242   17.8887 C   0  0  0  0  0  0  0  0  0  0  0  0
  -26.3831  -28.3509   16.9503 C   0  0  0  0  0  0  0  0  0  0  0  0
  -25.2326  -30.4290   17.7121 C   0  0  0  0  0  0  0  0  0  0  0  0
  -29.9934  -29.1695   22.4681 C   0  0  0  0  0  0  0  0  0  0  0  0
  -29.5369  -18.8046   22.4599 C   0  0  0  0  0  0  0  0  0  0  0  0
  -26.1339  -22.2491   22.8236 C   0  0  0  0  0  0  0  0  0  1  0  0
  -27.0999  -20.0572   20.8263 C   0  0  0  0  0  0  0  0  0  0  0  0
  -31.4739  -15.5410   22.8303 C   0  0  0  0  0  0  0  0  0  0  0  0
  -31.2564  -16.9930   22.4471 C   0  0  0  0  0  0  0  0  0  0  0  0
  -26.0628  -28.7709   19.4307 C   0  0  1  0  0  0  0  0  0  0  0  0
  -29.6861  -29.6994   20.0466 C   0  0  2  0  0  0  0  0  0  0  0  0
  -27.0906  -21.3449   19.9937 C   0  0  0  0  0  0  0  0  0  0  0  0
  -25.4307  -28.9285   18.0189 C   0  0  0  0  0  0  0  0  0  0  0  0
  -26.0259  -11.8764   21.2404 N   0  0  0  0  0  0  0  0  0  0  0  0
  -26.1662  -12.9577   20.4548 N   0  0  0  0  0  0  0  0  0  0  0  0
  -24.7641  -28.3715   21.4989 N   0  0  0  0  0  0  0  0  0  0  0  0
  -29.9752  -13.2416   20.3154 N   0  0  0  0  0  0  0  0  0  0  0  0
  -27.5699  -20.2957   22.1884 N   0  0  2  0  0  0  0  0  0  0  0  0
  -24.9654  -14.7488   19.4745 N   0  0  0  0  0  0  0  0  0  0  0  0
  -21.7895  -12.4915   21.7581 N   0  0  0  0  0  0  0  0  0  0  0  0
  -21.3530  -29.1074   22.2427 N   0  0  0  0  0  0  0  0  0  0  0  0
  -27.3436  -29.4506   19.5912 N   0  0  0  0  0  0  0  0  0  0  0  0
  -30.5903  -14.6475   22.1151 N   0  0  0  0  0  0  0  0  0  0  0  0
  -30.6128  -29.2402   21.1196 N   0  3  0  0  0  0  0  0  0  0  0  0
  -29.8694  -17.4066   22.8045 N   0  3  0  0  0  0  0  0  0  0  0  0
  -22.1754  -14.2941   20.3941 O   0  0  0  0  0  0  0  0  0  0  0  0
  -22.3744  -27.2532   21.2726 O   0  0  0  0  0  0  0  0  0  0  0  0
  -24.8388  -30.4862   20.5197 O   0  0  0  0  0  0  0  0  0  0  0  0
  -28.5619  -27.5644   20.1699 O   0  0  0  0  0  0  0  0  0  0  0  0
  -32.0264  -14.3227   20.3576 O   0  0  0  0  0  0  0  0  0  0  0  0
  -22.5650   -7.8872   24.7979 O   0  0  0  0  0  0  0  0  0  0  0  0
  -25.5874  -22.8021   24.0203 O   0  0  0  0  0  0  0  0  0  1  0  0
  -21.8724   -2.8780   22.5997 F   0  0  0  0  0  0  0  0  0  0  0  0
  -20.0565   -6.7335   24.6597 F   0  0  0  0  0  0  0  0  0  0  0  0
  1  2  1  0  0  0  0
  1  5  2  0  0  0  0
  2  6  2  0  0  0  0
  3  8  2  0  0  0  0
  3 15  1  0  0  0  0
  4  9  1  0  0  0  0
  4 15  2  0  0  0  0
  5 17  1  0  0  0  0
  6 19  1  0  0  0  0
  7 10  2  0  0  0  0
  7 18  1  0  0  0  0
  8 21  1  0  0  0  0
  9 21  2  0  0  0  0
 10 22  1  0  0  0  0
 11 12  2  0  0  0  0
 11 23  1  0  0  0  0
 12 24  1  0  0  0  0
 13 20  1  0  0  0  0
 13 22  2  0  0  0  0
 14 24  2  0  0  0  0
 14 25  1  0  0  0  0
 15 26  1  0  0  0  0
 16 26  1  0  0  0  0
 16 27  2  0  0  0  0
 16 28  1  0  0  0  0
 17 19  2  0  0  0  0
 17 33  1  0  0  0  0
 18 20  2  0  0  0  0
 18 34  1  0  0  0  0
 19 44  1  0  0  0  0
 20 35  1  0  0  0  0
 21 82  1  0  0  0  0
 22 83  1  0  0  0  0
 23 25  2  0  0  0  0
 23 82  1  0  0  0  0
 24 84  1  0  0  0  0
 25 85  1  0  0  0  0
 26 65  2  0  0  0  0
 27 66  1  0  0  0  0
 27 70  1  0  0  0  0
 28 71  1  0  0  0  0
 28 77  2  0  0  0  0
 29 45  1  0  0  0  0
 29 72  1  0  0  0  0
 29 78  2  0  0  0  0
 30 61  1  0  0  0  0
 30 67  1  0  0  0  0
 30 79  2  0  0  0  0
 31 62  1  0  0  0  0
 31 73  1  0  0  0  0
 31 80  2  0  0  0  0
 32 68  1  0  0  0  0
 32 74  1  0  0  0  0
 32 81  2  0  0  0  0
 33 36  1  0  0  0  0
 34 45  1  0  0  0  0
 35 67  1  0  0  0  0
 36 38  1  0  0  0  0
 37 39  1  0  0  0  0
 37 42  1  0  0  0  0
 38 44  1  0  0  0  0
 39 46  1  0  0  0  0
 40 41  1  0  0  0  0
 40 47  1  0  0  0  0
 41 48  1  0  0  0  0
 42 68  1  0  0  0  0
 43 46  1  0  0  0  0
 43 68  1  0  0  0  0
 44 72  1  0  0  0  0
 45 67  1  0  0  0  0
 46 66  1  0  0  0  0
 47 56  1  0  0  0  0
 47 69  1  0  0  0  0
 48 57  1  0  0  0  0
 48 69  1  0  0  0  0
 49 62  1  0  0  0  0
 50 63  1  0  0  0  0
 51 63  1  0  0  0  0
 52 64  1  0  0  0  0
 53 64  1  0  0  0  0
 54 64  1  0  0  0  0
 55 75  1  0  0  0  0
 56 76  1  0  0  0  0
 57 83  1  0  0  0  0
 58 63  1  0  0  0  0
 58 69  1  0  0  0  0
 59 60  1  0  0  0  0
 59 74  1  0  0  0  0
 60 76  1  0  0  0  0
 61 64  1  0  0  0  0
 61 73  1  0  0  0  0
 62 75  1  0  0  0  0
 65 66  1  0  0  0  0
M  CHG  2  75   1  76   1
M  ISO  4  32 100  57 101  74 100  83 101
M  END
> <Batch ID>
0131

> <Smiles>
CNC(C)C(=O)NC(C(=O)N1Cc2cc([101O:1][101CH2:1]C3CCC(CNCC[100NH:0][100C:0](=O)N4CCCC(n5nc(-c6ccc(Oc7ccc(F)cc7F)cc6)c(C(N)=O)c5N)C4)N3CC(C)C)ccc2CC1C(=O)NC1CCCc2ccccc21)C(C)(C)C

> <Shape>
0.273

> <Color>
0.165

> <Negative vol penalty>
0.000

$$$$

  -OEChem-04052320503D

 79 87  0     1  0  0  0  0  0999 V2000
  -30.3817  -24.2799   17.5455 C   0  0  0  0  0  0  0  0  0  0  0  0
  -29.0087  -24.2038   17.7566 C   0  0  0  0  0  0  0  0  0  0  0  0
  -27.2509  -17.1656   21.2377 C   0  0  0  0  0  0  0  0  0  0  0  0
  -27.2752  -17.0670   18.8239 C   0  0  0  0  0  0  0  0  0  0  0  0
  -31.1940  -24.9270   18.4757 C   0  0  0  0  0  0  0  0  0  0  0  0
  -28.4473  -24.7738   18.8987 C   0  0  0  0  0  0  0  0  0  0  0  0
  -22.9651  -27.4649   19.3558 C   0  0  0  0  0  0  0  0  0  0  0  0
  -18.8146  -23.9707   21.1497 C   0  0  0  0  0  0  0  0  0  0  0  0
  -20.0013  -23.1531   23.0889 C   0  0  0  0  0  0  0  0  0  0  0  0
  -19.0950  -22.7816   20.4767 C   0  0  0  0  0  0  0  0  0  0  0  0
  -20.2816  -21.9639   22.4160 C   0  0  0  0  0  0  0  0  0  0  0  0
  -28.6010  -17.5158   21.2371 C   0  0  0  0  0  0  0  0  0  0  0  0
  -28.6254  -17.4173   18.8232 C   0  0  0  0  0  0  0  0  0  0  0  0
  -21.7312  -27.0076   19.8164 C   0  0  0  0  0  0  0  0  0  0  0  0
  -31.9496  -18.7882   21.8558 C   0  0  0  0  0  0  0  0  0  0  0  0
  -32.3497  -19.8302   22.6923 C   0  0  0  0  0  0  0  0  0  0  0  0
  -22.1853  -27.9776   21.9779 C   0  0  0  0  0  0  0  0  0  0  0  0
  -30.8555  -21.3342   21.5338 C   0  0  0  0  0  0  0  0  0  0  0  0
  -26.5880  -16.9411   20.0311 C   0  0  0  0  0  0  0  0  0  0  0  0
  -24.6089  -15.4480   20.6324 C   0  0  0  0  0  0  0  0  0  0  0  0
  -30.6411  -25.5137   19.6250 C   0  0  0  0  0  0  0  0  0  0  0  0
  -23.8245  -28.1738   20.2075 C   0  0  0  0  0  0  0  0  0  0  0  0
  -29.2532  -25.4282   19.8458 C   0  0  0  0  0  0  0  0  0  0  0  0
  -23.4284  -28.4451   21.5250 C   0  0  0  0  0  0  0  0  0  0  0  0
  -19.2678  -24.1565   22.4558 C   0  0  0  0  0  0  0  0  0  0  0  0
  -19.8284  -21.7781   21.1099 C   0  0  0  0  0  0  0  0  0  0  0  0
  -29.2883  -17.6417   20.0299 C   0  0  0  0  0  0  0  0  0  0  0  0
  -21.3424  -27.2614   21.1284 C   0  0  0  0  0  0  0  0  0  0  0  0
  -31.0025  -19.0193   20.8581 C   0  0  0  0  0  0  0  0  0  0  0  0
  -31.8026  -21.1031   22.5314 C   0  0  0  0  0  0  0  0  0  0  0  0
  -30.4554  -20.2922   20.6972 C   0  0  0  0  0  0  0  0  0  0  0  0
  -25.1934  -16.5788   20.0311 C   0  0  0  0  0  0  0  0  0  0  0  0
  -23.2698  -15.5620   20.3489 C   0  0  0  0  0  0  0  0  0  0  0  0
  -25.2216  -14.3893   21.3803 C   0  0  0  0  0  0  0  0  0  0  0  0
  -26.7489  -27.6879   21.3544 C   0  0  0  0  0  0  0  0  0  0  0  0
  -26.3600  -30.6825   22.5389 C   0  0  0  0  0  0  0  0  0  0  0  0
  -24.2221  -33.1496   23.5337 C   0  0  0  0  0  0  0  0  0  0  0  0
  -19.7379  -20.2248   19.1287 C   0  0  0  0  0  0  0  0  0  0  0  0
  -31.5652  -26.1613   20.6256 C   0  0  0  0  0  0  0  0  0  0  0  0
  -25.1407  -28.6834   19.6875 C   0  0  0  0  0  0  0  0  0  0  0  0
  -24.3058  -29.2193   22.4733 C   0  0  0  0  0  0  0  0  0  0  0  0
  -30.8455  -27.0654   21.6232 C   0  0  0  0  0  0  0  0  0  0  0  0
  -20.2753  -17.3658   17.0757 C   0  0  0  0  0  0  0  0  0  0  0  0
  -29.6066  -26.3692   22.1773 C   0  0  0  0  0  0  0  0  0  0  0  0
  -21.5409  -16.7332   17.6592 C   0  0  0  0  0  0  0  0  0  0  0  0
  -20.3329  -18.8918   17.1176 C   0  0  0  0  0  0  0  0  0  0  0  0
  -21.8983  -18.8332   19.0191 C   0  0  0  0  0  0  0  0  0  0  0  0
  -28.6038  -26.0558   21.0602 C   0  0  1  0  0  0  0  0  0  0  0  0
  -26.1572  -28.9500   20.7934 C   0  0  1  0  0  0  0  0  0  0  0  0
  -21.8592  -17.2968   19.0580 C   0  0  2  0  0  0  0  0  0  0  0  0
  -24.1998  -35.4694   24.4906 C   0  0  0  0  0  0  0  0  0  0  0  0
  -27.0744  -29.5550   25.2827 C   0  0  0  0  0  0  0  0  0  0  0  0
  -26.1268  -31.6339   26.3065 C   0  0  0  0  0  0  0  0  0  0  0  0
  -28.0894  -31.7833   24.7740 C   0  0  0  0  0  0  0  0  0  0  0  0
  -22.8102  -34.2359   21.1704 C   0  0  0  0  0  0  0  0  0  0  0  0
  -18.9645  -25.4434   23.1839 C   0  0  0  0  0  0  0  0  0  0  0  0
  -20.0432  -26.4994   22.9690 C   0  0  0  0  0  0  0  0  0  1  0  0
  -25.8074  -31.2627   23.8183 C   0  0  1  0  0  0  0  0  0  0  0  0
  -24.1814  -34.6343   23.2197 C   0  0  2  0  0  0  0  0  0  0  0  0
  -26.7586  -31.0424   25.0283 C   0  0  0  0  0  0  0  0  0  0  0  0
  -24.2989  -17.3540   19.4122 N   0  0  0  0  0  0  0  0  0  0  0  0
  -23.1388  -16.7092   19.6230 N   0  0  0  0  0  0  0  0  0  0  0  0
  -25.5858  -29.6910   21.9198 N   0  0  0  0  0  0  0  0  0  0  0  0
  -20.6343  -19.3534   18.4745 N   0  0  0  0  0  0  0  0  0  0  0  0
  -22.2035  -14.7917   20.6521 N   0  0  0  0  0  0  0  0  0  0  0  0
  -25.6731  -13.2570   20.6886 N   0  0  0  0  0  0  0  0  0  0  0  0
  -20.1131  -20.5699   20.4266 N   0  0  0  0  0  0  0  0  0  0  0  0
  -27.8756  -27.2490   20.6854 N   0  0  0  0  0  0  0  0  0  0  0  0
  -25.5125  -32.6636   23.5373 N   0  0  0  0  0  0  0  0  0  0  0  0
  -22.9463  -34.9685   22.4556 N   0  3  0  0  0  0  0  0  0  0  0  0
  -25.3497  -14.4385   22.6272 O   0  0  0  0  0  0  0  0  0  0  0  0
  -26.2232  -27.1527   22.3233 O   0  0  0  0  0  0  0  0  0  0  0  0
  -27.4354  -31.0989   22.1010 O   0  0  0  0  0  0  0  0  0  0  0  0
  -23.2108  -32.4881   23.7573 O   0  0  0  0  0  0  0  0  0  0  0  0
  -18.6992  -20.6130   18.5880 O   0  0  0  0  0  0  0  0  0  0  0  0
  -30.6057  -17.9836   20.0288 O   0  0  0  0  0  0  0  0  0  0  0  0
  -20.1388  -26.8156   21.5807 O   0  0  0  0  0  0  0  0  0  1  0  0
  -32.1858  -22.1032   23.3359 F   0  0  0  0  0  0  0  0  0  0  0  0
  -29.5442  -20.5200   19.7413 F   0  0  0  0  0  0  0  0  0  0  0  0
  1  2  1  0  0  0  0
  1  5  2  0  0  0  0
  2  6  2  0  0  0  0
  3 12  2  0  0  0  0
  3 19  1  0  0  0  0
  4 13  1  0  0  0  0
  4 19  2  0  0  0  0
  5 21  1  0  0  0  0
  6 23  1  0  0  0  0
  7 14  2  0  0  0  0
  7 22  1  0  0  0  0
  8 10  2  0  0  0  0
  8 25  1  0  0  0  0
  9 11  1  0  0  0  0
  9 25  2  0  0  0  0
 10 26  1  0  0  0  0
 11 26  2  0  0  0  0
 12 27  1  0  0  0  0
 13 27  2  0  0  0  0
 14 28  1  0  0  0  0
 15 16  2  0  0  0  0
 15 29  1  0  0  0  0
 16 30  1  0  0  0  0
 17 24  1  0  0  0  0
 17 28  2  0  0  0  0
 18 30  2  0  0  0  0
 18 31  1  0  0  0  0
 19 32  1  0  0  0  0
 20 32  1  0  0  0  0
 20 33  2  0  0  0  0
 20 34  1  0  0  0  0
 21 23  2  0  0  0  0
 21 39  1  0  0  0  0
 22 24  2  0  0  0  0
 22 40  1  0  0  0  0
 23 48  1  0  0  0  0
 24 41  1  0  0  0  0
 25 56  1  0  0  0  0
 26 67  1  0  0  0  0
 27 76  1  0  0  0  0
 28 77  1  0  0  0  0
 29 31  2  0  0  0  0
 29 76  1  0  0  0  0
 30 78  1  0  0  0  0
 31 79  1  0  0  0  0
 32 61  2  0  0  0  0
 33 62  1  0  0  0  0
 33 65  1  0  0  0  0
 34 66  1  0  0  0  0
 34 71  2  0  0  0  0
 35 49  1  0  0  0  0
 35 68  1  0  0  0  0
 35 72  2  0  0  0  0
 36 58  1  0  0  0  0
 36 63  1  0  0  0  0
 36 73  2  0  0  0  0
 37 59  1  0  0  0  0
 37 69  1  0  0  0  0
 37 74  2  0  0  0  0
 38 64  1  0  0  0  0
 38 67  1  0  0  0  0
 38 75  2  0  0  0  0
 39 42  1  0  0  0  0
 40 49  1  0  0  0  0
 41 63  1  0  0  0  0
 42 44  1  0  0  0  0
 43 45  1  0  0  0  0
 43 46  1  0  0  0  0
 44 48  1  0  0  0  0
 45 50  1  0  0  0  0
 46 64  1  0  0  0  0
 47 50  1  0  0  0  0
 47 64  1  0  0  0  0
 48 68  1  0  0  0  0
 49 63  1  0  0  0  0
 50 62  1  0  0  0  0
 51 59  1  0  0  0  0
 52 60  1  0  0  0  0
 53 60  1  0  0  0  0
 54 60  1  0  0  0  0
 55 70  1  0  0  0  0
 56 57  1  0  0  0  0
 57 77  1  0  0  0  0
 58 60  1  0  0  0  0
 58 69  1  0  0  0  0
 59 70  1  0  0  0  0
 61 62  1  0  0  0  0
M  CHG  1  70   1
M  ISO  4  38 100  57 101  67 100  77 101
M  END
> <Batch ID>
0131

> <Smiles>
CNC(C)C(=O)NC(C(=O)N1Cc2cc([101O:1][101CH2:1]Cc3ccc([100NH:0][100C:0](=O)N4CCCC(n5nc(-c6ccc(Oc7ccc(F)cc7F)cc6)c(C(N)=O)c5N)C4)cc3)ccc2CC1C(=O)NC1CCCc2ccccc21)C(C)(C)C

> <Shape>
0.245

> <Color>
0.073

> <Negative vol penalty>
0.000

$$$$

  -OEChem-04052320503D

 85 94  0     1  0  0  0  0  0999 V2000
  -29.5406  -31.5029   26.6773 C   0  0  0  0  0  0  0  0  0  0  0  0
  -29.1011  -30.4298   25.9087 C   0  0  0  0  0  0  0  0  0  0  0  0
  -24.2226   -9.6513   22.0807 C   0  0  0  0  0  0  0  0  0  0  0  0
  -24.7124  -11.2473   23.8270 C   0  0  0  0  0  0  0  0  0  0  0  0
  -28.6585  -32.5316   27.0052 C   0  0  0  0  0  0  0  0  0  0  0  0
  -27.7788  -30.3843   25.4684 C   0  0  0  0  0  0  0  0  0  0  0  0
  -28.0714  -21.8282   17.7521 C   0  0  0  0  0  0  0  0  0  0  0  0
  -27.3967  -29.0355   20.6023 C   0  0  0  0  0  0  0  0  0  0  0  0
  -28.1294  -23.1817   18.0838 C   0  0  0  0  0  0  0  0  0  0  0  0
  -23.9025   -8.6950   23.0444 C   0  0  0  0  0  0  0  0  0  0  0  0
  -24.3923  -10.2911   24.7908 C   0  0  0  0  0  0  0  0  0  0  0  0
  -27.5349  -27.6805   20.3044 C   0  0  0  0  0  0  0  0  0  0  0  0
  -21.2873   -7.9692   25.0610 C   0  0  0  0  0  0  0  0  0  0  0  0
  -20.1290   -7.2166   24.8677 C   0  0  0  0  0  0  0  0  0  0  0  0
  -25.1356  -27.4721   20.1671 C   0  0  0  0  0  0  0  0  0  0  0  0
  -27.4122  -22.6616   20.3315 C   0  0  0  0  0  0  0  0  0  0  0  0
  -21.4478   -5.1923   24.8472 C   0  0  0  0  0  0  0  0  0  0  0  0
  -24.6275  -10.9274   22.4720 C   0  0  0  0  0  0  0  0  0  0  0  0
  -24.0861  -12.8419   20.8753 C   0  0  0  0  0  0  0  0  0  0  0  0
  -27.3273  -32.5034   26.5606 C   0  0  0  0  0  0  0  0  0  0  0  0
  -26.1243  -29.6175   20.6957 C   0  0  0  0  0  0  0  0  0  0  0  0
  -26.8777  -31.4129   25.7918 C   0  0  0  0  0  0  0  0  0  0  0  0
  -27.6837  -20.8913   18.7100 C   0  0  0  0  0  0  0  0  0  0  0  0
  -24.9840  -28.8352   20.4638 C   0  0  0  0  0  0  0  0  0  0  0  0
  -27.7998  -23.5985   19.3735 C   0  0  0  0  0  0  0  0  0  0  0  0
  -27.3541  -21.3080   19.9997 C   0  0  0  0  0  0  0  0  0  0  0  0
  -23.9873   -9.0149   24.3994 C   0  0  0  0  0  0  0  0  0  0  0  0
  -26.4042  -26.8979   20.0896 C   0  0  0  0  0  0  0  0  0  0  0  0
  -22.5259   -7.3335   25.1474 C   0  0  0  0  0  0  0  0  0  0  0  0
  -20.2092   -5.8281   24.7608 C   0  0  0  0  0  0  0  0  0  0  0  0
  -22.6061   -5.9451   25.0405 C   0  0  0  0  0  0  0  0  0  0  0  0
  -24.9588  -11.9155   21.4770 C   0  0  0  0  0  0  0  0  0  0  0  0
  -24.8815  -13.5491   20.0071 C   0  0  0  0  0  0  0  0  0  0  0  0
  -22.6821  -13.0451   21.0828 C   0  0  0  0  0  0  0  0  0  0  0  0
  -24.4776  -31.0509   23.0059 C   0  0  0  0  0  0  0  0  0  0  0  0
  -22.3613  -31.6150   20.6131 C   0  0  0  0  0  0  0  0  0  0  0  0
  -21.1255  -30.7069   17.5644 C   0  0  0  0  0  0  0  0  0  0  0  0
  -29.6319  -16.2408   18.8522 C   0  0  0  0  0  0  0  0  0  0  0  0
  -26.3982  -33.6149   26.9802 C   0  0  0  0  0  0  0  0  0  0  0  0
  -25.9931  -31.0864   20.9916 C   0  0  0  0  0  0  0  0  0  0  0  0
  -23.5962  -29.4164   20.5324 C   0  0  0  0  0  0  0  0  0  0  0  0
  -25.1125  -33.6765   26.1595 C   0  0  0  0  0  0  0  0  0  0  0  0
  -29.6193  -12.7032   18.4502 C   0  0  0  0  0  0  0  0  0  0  0  0
  -24.5039  -32.2852   26.0156 C   0  0  0  0  0  0  0  0  0  0  0  0
  -28.3376  -12.2592   19.1573 C   0  0  0  0  0  0  0  0  0  0  0  0
  -28.4810  -18.9574   17.1945 C   0  0  0  0  0  0  0  0  0  0  0  0
  -30.2856  -13.8728   19.1713 C   0  0  0  0  0  0  0  0  0  0  0  0
  -28.1261  -14.5896   20.1181 C   0  0  0  0  0  0  0  0  0  0  0  0
  -27.6289  -19.4478   18.3329 C   0  0  1  0  0  0  0  0  0  0  0  0
  -25.4573  -31.3399   25.2747 C   0  0  1  0  0  0  0  0  0  0  0  0
  -24.6313  -31.4604   21.5684 C   0  0  1  0  0  0  0  0  0  0  0  0
  -27.3884  -13.4488   19.3966 C   0  0  2  0  0  0  0  0  0  0  0  0
  -28.8335  -18.5773   18.6021 C   0  0  1  0  0  0  0  0  0  0  0  0
  -19.3715  -31.3350   15.8832 C   0  0  0  0  0  0  0  0  0  0  0  0
  -24.4469  -20.4836   20.5236 C   0  0  0  0  0  0  0  0  0  0  0  0
  -25.2102  -19.5405   22.7126 C   0  0  0  0  0  0  0  0  0  0  0  0
  -20.2194  -30.3461   22.3773 C   0  0  0  0  0  0  0  0  0  0  0  0
  -18.7704  -30.1354   20.3465 C   0  0  0  0  0  0  0  0  0  0  0  0
  -19.4777  -32.3910   21.1434 C   0  0  0  0  0  0  0  0  0  0  0  0
  -23.1541  -31.2561   15.4805 C   0  0  0  0  0  0  0  0  0  0  0  0
  -26.9375  -20.3245   21.0440 C   0  0  0  0  0  0  0  0  0  0  0  0
  -27.8631  -25.0545   19.7305 C   0  0  0  0  0  0  0  0  0  1  0  0
  -21.1756  -30.8780   20.0387 C   0  0  1  0  0  0  0  0  0  0  0  0
  -20.8164  -31.5196   16.3200 C   0  0  2  0  0  0  0  0  0  0  0  0
  -25.5183  -20.5611   21.6142 C   0  0  0  0  0  0  0  0  0  0  0  0
  -19.9367  -30.9259   20.9770 C   0  0  0  0  0  0  0  0  0  0  0  0
  -26.2126  -12.0219   21.0288 N   0  0  0  0  0  0  0  0  0  0  0  0
  -26.1334  -13.0235   20.1362 N   0  0  0  0  0  0  0  0  0  0  0  0
  -23.5198  -30.8561   20.8311 N   0  0  0  0  0  0  0  0  0  0  0  0
  -29.3324  -14.9681   19.3656 N   0  0  0  0  0  0  0  0  0  0  0  0
  -24.6251  -14.5629   19.1534 N   0  0  0  0  0  0  0  0  0  0  0  0
  -22.0192  -12.2312   22.0115 N   0  0  0  0  0  0  0  0  0  0  0  0
  -25.4224  -31.6002   23.8515 N   0  0  0  0  0  0  0  0  0  0  0  0
  -20.9446  -31.4453   18.7147 N   0  0  0  0  0  0  0  0  0  0  0  0
  -28.6719  -17.2204   19.0749 N   0  0  0  0  0  0  0  0  0  0  0  0
  -21.7037  -31.1048   15.1968 N   0  3  0  0  0  0  0  0  0  0  0  0
  -22.0311  -13.9115   20.4510 O   0  0  0  0  0  0  0  0  0  0  0  0
  -23.5681  -30.2939   23.3246 O   0  0  0  0  0  0  0  0  0  0  0  0
  -22.2654  -32.8213   20.8527 O   0  0  0  0  0  0  0  0  0  0  0  0
  -21.4874  -29.5332   17.5205 O   0  0  0  0  0  0  0  0  0  0  0  0
  -30.6749  -16.4846   18.2361 O   0  0  0  0  0  0  0  0  0  0  0  0
  -23.6748   -8.0821   25.3401 O   0  0  0  0  0  0  0  0  0  0  0  0
  -26.5363  -25.5750   19.7993 O   0  0  0  0  0  0  0  0  0  1  0  0
  -19.0967   -5.1053   24.5767 F   0  0  0  0  0  0  0  0  0  0  0  0
  -23.7931   -5.3286   25.1238 F   0  0  0  0  0  0  0  0  0  0  0  0
  1  2  1  0  0  0  0
  1  5  2  0  0  0  0
  2  6  2  0  0  0  0
  3 10  2  0  0  0  0
  3 18  1  0  0  0  0
  4 11  1  0  0  0  0
  4 18  2  0  0  0  0
  5 20  1  0  0  0  0
  6 22  1  0  0  0  0
  7  9  2  0  0  0  0
  7 23  1  0  0  0  0
  8 12  2  0  0  0  0
  8 21  1  0  0  0  0
  9 25  1  0  0  0  0
 10 27  1  0  0  0  0
 11 27  2  0  0  0  0
 12 28  1  0  0  0  0
 13 14  2  0  0  0  0
 13 29  1  0  0  0  0
 14 30  1  0  0  0  0
 15 24  1  0  0  0  0
 15 28  2  0  0  0  0
 16 25  2  0  0  0  0
 16 26  1  0  0  0  0
 17 30  2  0  0  0  0
 17 31  1  0  0  0  0
 18 32  1  0  0  0  0
 19 32  1  0  0  0  0
 19 33  2  0  0  0  0
 19 34  1  0  0  0  0
 20 22  2  0  0  0  0
 20 39  1  0  0  0  0
 21 24  2  0  0  0  0
 21 40  1  0  0  0  0
 22 50  1  0  0  0  0
 23 26  2  0  0  0  0
 23 49  1  0  0  0  0
 24 41  1  0  0  0  0
 25 62  1  0  0  0  0
 26 61  1  0  0  0  0
 27 82  1  0  0  0  0
 28 83  1  0  0  0  0
 29 31  2  0  0  0  0
 29 82  1  0  0  0  0
 30 84  1  0  0  0  0
 31 85  1  0  0  0  0
 32 67  2  0  0  0  0
 33 68  1  0  0  0  0
 33 71  1  0  0  0  0
 34 72  1  0  0  0  0
 34 77  2  0  0  0  0
 35 51  1  0  0  0  0
 35 73  1  0  0  0  0
 35 78  2  0  0  0  0
 36 63  1  0  0  0  0
 36 69  1  0  0  0  0
 36 79  2  0  0  0  0
 37 64  1  0  0  0  0
 37 74  1  0  0  0  0
 37 80  2  0  0  0  0
 38 70  1  0  0  0  0
 38 75  1  0  0  0  0
 38 81  2  0  0  0  0
 39 42  1  0  0  0  0
 40 51  1  0  0  0  0
 41 69  1  0  0  0  0
 42 44  1  0  0  0  0
 43 45  1  0  0  0  0
 43 47  1  0  0  0  0
 44 50  1  0  0  0  0
 45 52  1  0  0  0  0
 46 49  1  0  0  0  0
 46 53  1  0  0  0  0
 47 70  1  0  0  0  0
 48 52  1  0  0  0  0
 48 70  1  0  0  0  0
 49 53  1  0  0  0  0
 50 73  1  0  0  0  0
 51 69  1  0  0  0  0
 52 68  1  0  0  0  0
 53 75  1  0  0  0  0
 54 64  1  0  0  0  0
 55 65  1  0  0  0  0
 56 65  1  0  0  0  0
 57 66  1  0  0  0  0
 58 66  1  0  0  0  0
 59 66  1  0  0  0  0
 60 76  1  0  0  0  0
 61 65  1  0  0  0  0
 62 83  1  0  0  0  0
 63 66  1  0  0  0  0
 63 74  1  0  0  0  0
 64 76  1  0  0  0  0
 67 68  1  0  0  0  0
M  CHG  1  76   1
M  ISO  4  38 100  62 101  75 100  83 101
M  END
> <Batch ID>
0131

> <Smiles>
CNC(C)C(=O)NC(C(=O)N1Cc2cc([101O:1][101CH2:1]c3ccc(C4CC4[100NH:0][100C:0](=O)N4CCCC(n5nc(-c6ccc(Oc7ccc(F)cc7F)cc6)c(C(N)=O)c5N)C4)c(CC(C)C)c3)ccc2CC1C(=O)NC1CCCc2ccccc21)C(C)(C)C

> <Shape>
0.289

> <Color>
0.112

> <Negative vol penalty>
0.000

$$$$

  -OEChem-04052320503D

 82 90  0     1  0  0  0  0  0999 V2000
  -28.6606  -11.3287   21.1843 C   0  0  0  0  0  0  0  0  0  0  0  0
  -28.9466  -12.6647   20.9220 C   0  0  0  0  0  0  0  0  0  0  0  0
  -31.8457  -20.4217   15.2923 C   0  0  0  0  0  0  0  0  0  0  0  0
  -25.6705  -26.9634   21.2372 C   0  0  0  0  0  0  0  0  0  0  0  0
  -25.8441  -28.0208   19.0718 C   0  0  0  0  0  0  0  0  0  0  0  0
  -27.3514  -10.8624   21.0731 C   0  0  0  0  0  0  0  0  0  0  0  0
  -27.9235  -13.5349   20.5473 C   0  0  0  0  0  0  0  0  0  0  0  0
  -28.1582  -17.9708   22.9789 C   0  0  0  0  0  0  0  0  0  0  0  0
  -32.9914  -21.2123   15.2042 C   0  0  0  0  0  0  0  0  0  0  0  0
  -31.1354  -20.3540   16.4909 C   0  0  0  0  0  0  0  0  0  0  0  0
  -24.5982  -27.7958   21.5578 C   0  0  0  0  0  0  0  0  0  0  0  0
  -24.7717  -28.8532   19.3923 C   0  0  0  0  0  0  0  0  0  0  0  0
  -29.0996  -18.8950   22.5281 C   0  0  0  0  0  0  0  0  0  0  0  0
  -21.2906  -27.9706   20.8782 C   0  0  0  0  0  0  0  0  0  0  0  0
  -20.1737  -27.3876   21.4767 C   0  0  0  0  0  0  0  0  0  0  0  0
  -27.3661  -20.0659   21.3268 C   0  0  0  0  0  0  0  0  0  0  0  0
  -32.7169  -21.8674   17.5134 C   0  0  0  0  0  0  0  0  0  0  0  0
  -20.4637  -28.8126   23.4060 C   0  0  0  0  0  0  0  0  0  0  0  0
  -26.2935  -27.0759   19.9942 C   0  0  0  0  0  0  0  0  0  0  0  0
  -27.3427  -24.9547   19.0415 C   0  0  0  0  0  0  0  0  0  0  0  0
  -26.3102  -11.7295   20.7062 C   0  0  0  0  0  0  0  0  0  0  0  0
  -26.8133  -18.0811   22.5976 C   0  0  0  0  0  0  0  0  0  0  0  0
  -26.5993  -13.0795   20.4298 C   0  0  0  0  0  0  0  0  0  0  0  0
  -26.4091  -19.1433   21.7762 C   0  0  0  0  0  0  0  0  0  0  0  0
  -33.4271  -21.9351   16.3148 C   0  0  0  0  0  0  0  0  0  0  0  0
  -24.1488  -28.7407   20.6353 C   0  0  0  0  0  0  0  0  0  0  0  0
  -28.7042  -19.9411   21.6996 C   0  0  0  0  0  0  0  0  0  0  0  0
  -31.5711  -21.0768   17.6015 C   0  0  0  0  0  0  0  0  0  0  0  0
  -21.9941  -28.9746   21.5436 C   0  0  0  0  0  0  0  0  0  0  0  0
  -19.7602  -27.8086   22.7406 C   0  0  0  0  0  0  0  0  0  0  0  0
  -21.5806  -29.3956   22.8075 C   0  0  0  0  0  0  0  0  0  0  0  0
  -27.4016  -26.2167   19.6627 C   0  0  0  0  0  0  0  0  0  0  0  0
  -28.6536  -24.5552   18.9505 C   0  0  0  0  0  0  0  0  0  0  0  0
  -26.2046  -24.2102   18.5873 C   0  0  0  0  0  0  0  0  0  0  0  0
  -24.7878  -16.2553   20.9643 C   0  0  0  0  0  0  0  0  0  0  0  0
  -22.6379  -18.5117   21.8636 C   0  0  0  0  0  0  0  0  0  0  0  0
  -22.0540  -21.7226   22.8617 C   0  0  0  0  0  0  0  0  0  0  0  0
  -34.0018  -25.6394   17.7814 C   0  0  0  0  0  0  0  0  0  0  0  0
  -24.9184  -11.1689   20.5532 C   0  0  0  0  0  0  0  0  0  0  0  0
  -25.8053  -17.0914   23.1141 C   0  0  0  0  0  0  0  0  0  0  0  0
  -24.9738  -19.3179   21.3545 C   0  0  0  0  0  0  0  0  0  0  0  0
  -23.8312  -12.2397   20.5149 C   0  0  0  0  0  0  0  0  0  0  0  0
  -32.8367  -26.4878   21.0370 C   0  0  0  0  0  0  0  0  0  0  0  0
  -24.2280  -13.3698   19.5704 C   0  0  0  0  0  0  0  0  0  0  0  0
  -31.3146  -26.3949   20.9165 C   0  0  0  0  0  0  0  0  0  0  0  0
  -33.4717  -27.0329   19.7596 C   0  0  0  0  0  0  0  0  0  0  0  0
  -31.5792  -26.2190   18.4070 C   0  0  0  0  0  0  0  0  0  0  0  0
  -25.5127  -14.0599   20.0448 C   0  0  1  0  0  0  0  0  0  0  0  0
  -24.5540  -17.0044   22.2456 C   0  0  1  0  0  0  0  0  0  0  0  0
  -30.8985  -25.6219   19.6506 C   0  0  2  0  0  0  0  0  0  0  0  0
  -20.1908  -23.2836   23.4854 C   0  0  0  0  0  0  0  0  0  0  0  0
  -21.8972  -18.8008   18.9178 C   0  0  0  0  0  0  0  0  0  0  0  0
  -20.7756  -20.9663   19.4842 C   0  0  0  0  0  0  0  0  0  0  0  0
  -19.9532  -18.8371   20.4907 C   0  0  0  0  0  0  0  0  0  0  0  0
  -23.1398  -22.1156   25.5866 C   0  0  0  0  0  0  0  0  0  0  0  0
  -34.6524  -22.7800   16.2206 C   0  0  0  0  0  0  0  0  0  0  0  0
  -34.3723  -24.2214   15.7786 C   0  0  0  0  0  0  0  0  0  0  0  0
  -30.9598  -20.3800   21.0865 C   0  0  0  0  0  0  0  0  0  1  0  0
  -31.6214  -21.1744   19.9771 C   0  0  0  0  0  0  0  0  0  0  0  0
  -22.1476  -19.8144   21.2791 C   0  0  1  0  0  0  0  0  0  0  0  0
  -21.2207  -22.2887   23.9973 C   0  0  2  0  0  0  0  0  0  0  0  0
  -21.2208  -19.6005   20.0491 C   0  0  0  0  0  0  0  0  0  0  0  0
  -28.6511  -26.5938   19.9464 N   0  0  0  0  0  0  0  0  0  0  0  0
  -29.3894  -25.5627   19.5016 N   0  0  0  0  0  0  0  0  0  0  0  0
  -24.0268  -18.3208   21.8805 N   0  0  0  0  0  0  0  0  0  0  0  0
  -33.0378  -26.2551   18.5966 N   0  0  0  0  0  0  0  0  0  0  0  0
  -29.2372  -23.4439   18.4538 N   0  0  0  0  0  0  0  0  0  0  0  0
  -24.9301  -24.7676   18.7581 N   0  0  0  0  0  0  0  0  0  0  0  0
  -25.2280  -14.9577   21.1435 N   0  0  0  0  0  0  0  0  0  0  0  0
  -21.5242  -20.5454   22.3770 N   0  0  0  0  0  0  0  0  0  0  0  0
  -33.5051  -24.9161   16.7039 N   0  0  0  0  0  0  0  0  0  0  0  0
  -22.0946  -22.9830   24.9848 N   0  3  0  0  0  0  0  0  0  0  0  0
  -26.3135  -23.0769   18.0608 O   0  0  0  0  0  0  0  0  0  0  0  0
  -24.5825  -16.8127   19.8925 O   0  0  0  0  0  0  0  0  0  0  0  0
  -21.8191  -17.6967   22.2959 O   0  0  0  0  0  0  0  0  0  0  0  0
  -23.0709  -22.2718   22.4436 O   0  0  0  0  0  0  0  0  0  0  0  0
  -35.2150  -25.7233   18.0008 O   0  0  0  0  0  0  0  0  0  0  0  0
  -23.1023  -29.5530   20.9477 O   0  0  0  0  0  0  0  0  0  0  0  0
  -29.6212  -20.8442   21.2576 O   0  0  0  0  0  0  0  0  0  1  0  0
  -30.8731  -21.0107   18.7786 O   0  0  0  0  0  0  0  0  0  0  0  0
  -18.6868  -27.2497   23.3145 F   0  0  0  0  0  0  0  0  0  0  0  0
  -22.2518  -30.3606   23.4511 F   0  0  0  0  0  0  0  0  0  0  0  0
  1  2  1  0  0  0  0
  1  6  2  0  0  0  0
  2  7  2  0  0  0  0
  3  9  1  0  0  0  0
  3 10  2  0  0  0  0
  4 11  2  0  0  0  0
  4 19  1  0  0  0  0
  5 12  1  0  0  0  0
  5 19  2  0  0  0  0
  6 21  1  0  0  0  0
  7 23  1  0  0  0  0
  8 13  2  0  0  0  0
  8 22  1  0  0  0  0
  9 25  2  0  0  0  0
 10 28  1  0  0  0  0
 11 26  1  0  0  0  0
 12 26  2  0  0  0  0
 13 27  1  0  0  0  0
 14 15  2  0  0  0  0
 14 29  1  0  0  0  0
 15 30  1  0  0  0  0
 16 24  1  0  0  0  0
 16 27  2  0  0  0  0
 17 25  1  0  0  0  0
 17 28  2  0  0  0  0
 18 30  2  0  0  0  0
 18 31  1  0  0  0  0
 19 32  1  0  0  0  0
 20 32  1  0  0  0  0
 20 33  2  0  0  0  0
 20 34  1  0  0  0  0
 21 23  2  0  0  0  0
 21 39  1  0  0  0  0
 22 24  2  0  0  0  0
 22 40  1  0  0  0  0
 23 48  1  0  0  0  0
 24 41  1  0  0  0  0
 25 56  1  0  0  0  0
 26 78  1  0  0  0  0
 27 79  1  0  0  0  0
 28 80  1  0  0  0  0
 29 31  2  0  0  0  0
 29 78  1  0  0  0  0
 30 81  1  0  0  0  0
 31 82  1  0  0  0  0
 32 63  2  0  0  0  0
 33 64  1  0  0  0  0
 33 67  1  0  0  0  0
 34 68  1  0  0  0  0
 34 73  2  0  0  0  0
 35 49  1  0  0  0  0
 35 69  1  0  0  0  0
 35 74  2  0  0  0  0
 36 60  1  0  0  0  0
 36 65  1  0  0  0  0
 36 75  2  0  0  0  0
 37 61  1  0  0  0  0
 37 70  1  0  0  0  0
 37 76  2  0  0  0  0
 38 66  1  0  0  0  0
 38 71  1  0  0  0  0
 38 77  2  0  0  0  0
 39 42  1  0  0  0  0
 40 49  1  0  0  0  0
 41 65  1  0  0  0  0
 42 44  1  0  0  0  0
 43 45  1  0  0  0  0
 43 46  1  0  0  0  0
 44 48  1  0  0  0  0
 45 50  1  0  0  0  0
 46 66  1  0  0  0  0
 47 50  1  0  0  0  0
 47 66  1  0  0  0  0
 48 69  1  0  0  0  0
 49 65  1  0  0  0  0
 50 64  1  0  0  0  0
 51 61  1  0  0  0  0
 52 62  1  0  0  0  0
 53 62  1  0  0  0  0
 54 62  1  0  0  0  0
 55 72  1  0  0  0  0
 56 57  1  0  0  0  0
 57 71  1  0  0  0  0
 58 59  1  0  0  0  0
 58 79  1  0  0  0  0
 59 80  1  0  0  0  0
 60 62  1  0  0  0  0
 60 70  1  0  0  0  0
 61 72  1  0  0  0  0
 63 64  1  0  0  0  0
M  CHG  1  72   1
M  ISO  4  38 100  58 101  71 100  79 101
M  END
> <Batch ID>
0131

> <Smiles>
CNC(C)C(=O)NC(C(=O)N1Cc2cc([101O:1][101CH2:1]COc3cccc(CC[100NH:0][100C:0](=O)N4CCCC(n5nc(-c6ccc(Oc7ccc(F)cc7F)cc6)c(C(N)=O)c5N)C4)c3)ccc2CC1C(=O)NC1CCCc2ccccc21)C(C)(C)C

> <Shape>
0.190

> <Color>
0.072

> <Negative vol penalty>
0.000

$$$$

  -OEChem-04052320503D

 89 98  0     1  0  0  0  0  0999 V2000
  -28.4622  -37.3856   23.2416 C   0  0  0  0  0  0  0  0  0  0  0  0
  -28.8449  -36.2269   22.5736 C   0  0  0  0  0  0  0  0  0  0  0  0
  -22.5846  -15.6378   22.1431 C   0  0  0  0  0  0  0  0  0  0  0  0
  -23.5972  -15.2781   24.3069 C   0  0  0  0  0  0  0  0  0  0  0  0
  -27.5541  -37.3127   24.2971 C   0  0  0  0  0  0  0  0  0  0  0  0
  -28.3205  -34.9944   22.9613 C   0  0  0  0  0  0  0  0  0  0  0  0
  -26.9913  -30.2503   19.3237 C   0  0  0  0  0  0  0  0  0  0  0  0
  -21.6423  -16.4858   22.7250 C   0  0  0  0  0  0  0  0  0  0  0  0
  -22.6550  -16.1262   24.8888 C   0  0  0  0  0  0  0  0  0  0  0  0
  -27.6853  -29.0809   19.0159 C   0  0  0  0  0  0  0  0  0  0  0  0
  -18.7876  -16.1856   24.5096 C   0  0  0  0  0  0  0  0  0  0  0  0
  -17.4541  -16.0273   24.1327 C   0  0  0  0  0  0  0  0  0  0  0  0
  -26.4345  -27.9005   20.7074 C   0  0  0  0  0  0  0  0  0  0  0  0
  -29.3210  -24.7150   17.0700 C   0  0  0  0  0  0  0  0  0  0  0  0
  -30.5943  -24.9903   19.1046 C   0  0  0  0  0  0  0  0  0  0  0  0
  -17.4135  -18.3022   23.3202 C   0  0  0  0  0  0  0  0  0  0  0  0
  -23.5620  -15.0339   22.9341 C   0  0  0  0  0  0  0  0  0  0  0  0
  -24.2847  -12.9658   21.6271 C   0  0  0  0  0  0  0  0  0  0  0  0
  -27.0110  -36.0799   24.6917 C   0  0  0  0  0  0  0  0  0  0  0  0
  -26.0197  -30.2561   20.3348 C   0  0  0  0  0  0  0  0  0  0  0  0
  -27.4054  -34.9047   24.0239 C   0  0  0  0  0  0  0  0  0  0  0  0
  -25.7277  -29.0706   21.0243 C   0  0  0  0  0  0  0  0  0  0  0  0
  -29.6745  -25.4834   18.1791 C   0  0  0  0  0  0  0  0  0  0  0  0
  -29.8871  -23.4534   16.8864 C   0  0  0  0  0  0  0  0  0  0  0  0
  -31.1605  -23.7288   18.9210 C   0  0  0  0  0  0  0  0  0  0  0  0
  -30.8069  -22.9604   17.8118 C   0  0  0  0  0  0  0  0  0  0  0  0
  -21.6775  -16.7301   24.0978 C   0  0  0  0  0  0  0  0  0  0  0  0
  -27.4090  -27.9065   19.7098 C   0  0  0  0  0  0  0  0  0  0  0  0
  -19.4342  -17.4023   24.2919 C   0  0  0  0  0  0  0  0  0  0  0  0
  -16.7670  -17.0855   23.5380 C   0  0  0  0  0  0  0  0  0  0  0  0
  -18.7471  -18.4606   23.6972 C   0  0  0  0  0  0  0  0  0  0  0  0
  -24.5353  -14.1573   22.3337 C   0  0  0  0  0  0  0  0  0  0  0  0
  -25.5299  -12.5130   21.2651 C   0  0  0  0  0  0  0  0  0  0  0  0
  -23.0379  -12.3256   21.3249 C   0  0  0  0  0  0  0  0  0  0  0  0
  -25.6795  -31.7680   23.1101 C   0  0  0  0  0  0  0  0  0  0  0  0
  -22.7671  -30.3399   23.0864 C   0  0  0  0  0  0  0  0  0  0  0  0
  -20.8016  -27.7861   21.9630 C   0  0  0  0  0  0  0  0  0  0  0  0
  -30.7374  -15.1009   20.3369 C   0  0  0  0  0  0  0  0  0  0  0  0
  -26.0689  -36.0452   25.8690 C   0  0  0  0  0  0  0  0  0  0  0  0
  -25.2610  -31.5194   20.6364 C   0  0  0  0  0  0  0  0  0  0  0  0
  -24.6796  -29.0192   22.1047 C   0  0  0  0  0  0  0  0  0  0  0  0
  -25.2734  -34.7466   25.9745 C   0  0  0  0  0  0  0  0  0  0  0  0
  -31.5508  -17.2960   16.1502 C   0  0  0  0  0  0  0  0  0  0  0  0
  -30.1012  -12.5924   22.6453 C   0  0  0  0  0  0  0  0  0  0  0  0
  -26.1907  -33.5421   25.7884 C   0  0  0  0  0  0  0  0  0  0  0  0
  -28.5782  -12.5855   22.7702 C   0  0  0  0  0  0  0  0  0  0  0  0
  -30.7966  -16.3095   17.0412 C   0  0  0  0  0  0  0  0  0  0  0  0
  -31.0352  -18.7231   16.3269 C   0  0  0  0  0  0  0  0  0  0  0  0
  -30.3096  -18.1678   18.6901 C   0  0  0  0  0  0  0  0  0  0  0  0
  -30.6339  -14.0178   22.5601 C   0  0  0  0  0  0  0  0  0  0  0  0
  -28.5231  -14.8159   21.5458 C   0  0  0  0  0  0  0  0  0  0  0  0
  -26.8396  -33.5522   24.3991 C   0  0  1  0  0  0  0  0  0  0  0  0
  -24.6550  -31.5326   22.0364 C   0  0  1  0  0  0  0  0  0  0  0  0
  -27.9285  -13.3954   21.6346 C   0  0  2  0  0  0  0  0  0  0  0  0
  -30.8319  -16.7383   18.5114 C   0  0  1  0  0  0  0  0  0  0  0  0
  -31.0789  -19.1390   17.7952 C   0  0  2  0  0  0  0  0  0  0  0  0
  -29.4924  -22.6511   15.6897 C   0  0  0  0  0  0  0  0  0  0  0  0
  -32.1431  -23.2237   19.9265 C   0  0  0  0  0  0  0  0  0  0  0  0
  -18.4749  -26.8639   22.1460 C   0  0  0  0  0  0  0  0  0  0  0  0
  -23.4254  -29.2347   25.8532 C   0  0  0  0  0  0  0  0  0  0  0  0
  -21.5469  -27.6036   25.5720 C   0  0  0  0  0  0  0  0  0  0  0  0
  -21.0772  -30.0534   25.5885 C   0  0  0  0  0  0  0  0  0  0  0  0
  -28.6236  -15.9259   19.2160 C   0  0  0  0  0  0  0  0  0  0  0  0
  -20.3143  -28.1257   19.0637 C   0  0  0  0  0  0  0  0  0  0  0  0
  -31.4141  -21.6079   17.6145 C   0  0  0  0  0  0  0  0  0  0  0  0
  -29.0650  -26.8401   18.3770 C   0  0  0  0  0  0  0  0  0  1  0  0
  -22.2178  -29.0236   23.5809 C   0  0  1  0  0  0  0  0  0  0  0  0
  -19.4066  -27.7770   21.3644 C   0  0  2  0  0  0  0  0  0  0  0  0
  -22.0880  -28.9799   25.1297 C   0  0  0  0  0  0  0  0  0  0  0  0
  -25.8373  -14.4434   22.4169 N   0  0  0  0  0  0  0  0  0  0  0  0
  -26.4160  -13.4251   21.7580 N   0  0  0  0  0  0  0  0  0  0  0  0
  -23.9693  -30.2818   22.3673 N   0  0  0  0  0  0  0  0  0  0  0  0
  -29.9913  -14.7592   21.4746 N   0  0  0  0  0  0  0  0  0  0  0  0
  -25.9422  -11.4275   20.5765 N   0  0  0  0  0  0  0  0  0  0  0  0
  -21.8530  -12.9258   21.7721 N   0  0  0  0  0  0  0  0  0  0  0  0
  -25.8969  -33.1020   23.3976 N   0  0  0  0  0  0  0  0  0  0  0  0
  -20.9615  -28.8125   22.8698 N   0  0  0  0  0  0  0  0  0  0  0  0
  -30.0771  -15.8192   19.3286 N   0  0  0  0  0  0  0  0  0  0  0  0
  -30.4802  -20.4938   17.9290 N   0  3  0  0  0  0  0  0  0  0  0  0
  -19.4522  -27.3041   19.9518 N   0  3  0  0  0  0  0  0  0  0  0  0
  -22.9775  -11.2445   20.6916 O   0  0  0  0  0  0  0  0  0  0  0  0
  -26.2308  -30.8102   23.6395 O   0  0  0  0  0  0  0  0  0  0  0  0
  -22.1484  -31.3805   23.3230 O   0  0  0  0  0  0  0  0  0  0  0  0
  -21.6621  -26.9627   21.6596 O   0  0  0  0  0  0  0  0  0  0  0  0
  -31.9303  -14.7886   20.2298 O   0  0  0  0  0  0  0  0  0  0  0  0
  -20.7584  -17.5577   24.6659 O   0  0  0  0  0  0  0  0  0  0  0  0
  -28.0854  -26.7639   19.4119 O   0  0  0  0  0  0  0  0  0  1  0  0
  -15.4868  -16.9328   23.1747 F   0  0  0  0  0  0  0  0  0  0  0  0
  -19.3633  -19.6314   23.4844 F   0  0  0  0  0  0  0  0  0  0  0  0
  1  2  1  0  0  0  0
  1  5  2  0  0  0  0
  2  6  2  0  0  0  0
  3  8  2  0  0  0  0
  3 17  1  0  0  0  0
  4  9  1  0  0  0  0
  4 17  2  0  0  0  0
  5 19  1  0  0  0  0
  6 21  1  0  0  0  0
  7 10  2  0  0  0  0
  7 20  1  0  0  0  0
  8 27  1  0  0  0  0
  9 27  2  0  0  0  0
 10 28  1  0  0  0  0
 11 12  2  0  0  0  0
 11 29  1  0  0  0  0
 12 30  1  0  0  0  0
 13 22  1  0  0  0  0
 13 28  2  0  0  0  0
 14 23  1  0  0  0  0
 14 24  2  0  0  0  0
 15 23  2  0  0  0  0
 15 25  1  0  0  0  0
 16 30  2  0  0  0  0
 16 31  1  0  0  0  0
 17 32  1  0  0  0  0
 18 32  1  0  0  0  0
 18 33  2  0  0  0  0
 18 34  1  0  0  0  0
 19 21  2  0  0  0  0
 19 39  1  0  0  0  0
 20 22  2  0  0  0  0
 20 40  1  0  0  0  0
 21 52  1  0  0  0  0
 22 41  1  0  0  0  0
 23 66  1  0  0  0  0
 24 26  1  0  0  0  0
 24 57  1  0  0  0  0
 25 26  2  0  0  0  0
 25 58  1  0  0  0  0
 26 65  1  0  0  0  0
 27 86  1  0  0  0  0
 28 87  1  0  0  0  0
 29 31  2  0  0  0  0
 29 86  1  0  0  0  0
 30 88  1  0  0  0  0
 31 89  1  0  0  0  0
 32 70  2  0  0  0  0
 33 71  1  0  0  0  0
 33 74  1  0  0  0  0
 34 75  1  0  0  0  0
 34 81  2  0  0  0  0
 35 53  1  0  0  0  0
 35 76  1  0  0  0  0
 35 82  2  0  0  0  0
 36 67  1  0  0  0  0
 36 72  1  0  0  0  0
 36 83  2  0  0  0  0
 37 68  1  0  0  0  0
 37 77  1  0  0  0  0
 37 84  2  0  0  0  0
 38 73  1  0  0  0  0
 38 78  1  0  0  0  0
 38 85  2  0  0  0  0
 39 42  1  0  0  0  0
 40 53  1  0  0  0  0
 41 72  1  0  0  0  0
 42 45  1  0  0  0  0
 43 47  1  0  0  0  0
 43 48  1  0  0  0  0
 44 46  1  0  0  0  0
 44 50  1  0  0  0  0
 45 52  1  0  0  0  0
 46 54  1  0  0  0  0
 47 55  1  0  0  0  0
 48 56  1  0  0  0  0
 49 55  1  0  0  0  0
 49 56  1  0  0  0  0
 50 73  1  0  0  0  0
 51 54  1  0  0  0  0
 51 73  1  0  0  0  0
 52 76  1  0  0  0  0
 53 72  1  0  0  0  0
 54 71  1  0  0  0  0
 55 78  1  0  0  0  0
 56 79  1  0  0  0  0
 59 68  1  0  0  0  0
 60 69  1  0  0  0  0
 61 69  1  0  0  0  0
 62 69  1  0  0  0  0
 63 78  1  0  0  0  0
 64 80  1  0  0  0  0
 65 79  1  0  0  0  0
 66 87  1  0  0  0  0
 67 69  1  0  0  0  0
 67 77  1  0  0  0  0
 68 80  1  0  0  0  0
 70 71  1  0  0  0  0
M  CHG  2  79   1  80   1
M  ISO  4  38 100  66 101  78 100  87 101
M  END
> <Batch ID>
0131

> <Smiles>
CNC(C)C(=O)NC(C(=O)N1Cc2cc([101O:1][101CH2:1]c3cc(C)c(CNC4CCCC([100N:0](C)[100C:0](=O)N5CCCC(n6nc(-c7ccc(Oc8ccc(F)cc8F)cc7)c(C(N)=O)c6N)C5)C4)c(C)c3)ccc2CC1C(=O)NC1CCCc2ccccc21)C(C)(C)C

> <Shape>
0.269

> <Color>
0.106

> <Negative vol penalty>
0.000

$$$$

  -OEChem-04052320503D

 80 88  0     1  0  0  0  0  0999 V2000
  -27.1144  -30.7874   22.2080 C   0  0  0  0  0  0  0  0  0  0  0  0
  -27.7029  -29.5274   22.2487 C   0  0  0  0  0  0  0  0  0  0  0  0
  -22.8491  -10.1021   20.1097 C   0  0  0  0  0  0  0  0  0  0  0  0
  -24.2752   -9.5514   21.9806 C   0  0  0  0  0  0  0  0  0  0  0  0
  -26.6927  -31.3971   23.3888 C   0  0  0  0  0  0  0  0  0  0  0  0
  -27.8710  -28.8769   23.4706 C   0  0  0  0  0  0  0  0  0  0  0  0
  -27.5085  -22.8533   24.5149 C   0  0  0  0  0  0  0  0  0  0  0  0
  -22.1412   -8.9154   20.3000 C   0  0  0  0  0  0  0  0  0  0  0  0
  -23.5673   -8.3646   22.1709 C   0  0  0  0  0  0  0  0  0  0  0  0
  -28.4815  -21.8623   24.6374 C   0  0  0  0  0  0  0  0  0  0  0  0
  -20.6337   -7.4101   23.5505 C   0  0  0  0  0  0  0  0  0  0  0  0
  -20.2720   -7.0751   24.8553 C   0  0  0  0  0  0  0  0  0  0  0  0
  -28.4112  -22.0984   27.0371 C   0  0  0  0  0  0  0  0  0  0  0  0
  -21.5446   -5.0287   24.6826 C   0  0  0  0  0  0  0  0  0  0  0  0
  -23.9162  -10.4201   20.9500 C   0  0  0  0  0  0  0  0  0  0  0  0
  -24.1392  -12.9571   20.8034 C   0  0  0  0  0  0  0  0  0  0  0  0
  -26.8469  -30.7495   24.6248 C   0  0  0  0  0  0  0  0  0  0  0  0
  -26.9865  -23.4830   25.6539 C   0  0  0  0  0  0  0  0  0  0  0  0
  -27.4522  -29.4791   24.6692 C   0  0  0  0  0  0  0  0  0  0  0  0
  -27.4298  -23.0953   26.9264 C   0  0  0  0  0  0  0  0  0  0  0  0
  -22.5003   -8.0467   21.3305 C   0  0  0  0  0  0  0  0  0  0  0  0
  -28.9351  -21.4868   25.8984 C   0  0  0  0  0  0  0  0  0  0  0  0
  -21.4507   -6.5543   22.8117 C   0  0  0  0  0  0  0  0  0  0  0  0
  -20.7275   -5.8844   25.4214 C   0  0  0  0  0  0  0  0  0  0  0  0
  -21.9062   -5.3637   23.3778 C   0  0  0  0  0  0  0  0  0  0  0  0
  -24.6482  -11.6455   20.7536 C   0  0  0  0  0  0  0  0  0  0  0  0
  -25.2270  -13.7573   20.5527 C   0  0  0  0  0  0  0  0  0  0  0  0
  -22.8026  -13.4114   21.0541 C   0  0  0  0  0  0  0  0  0  0  0  0
  -26.9501  -26.4667   26.7492 C   0  0  0  0  0  0  0  0  0  0  0  0
  -25.0155  -25.1953   29.0215 C   0  0  0  0  0  0  0  0  0  0  0  0
  -24.0064  -22.4327   30.7525 C   0  0  0  0  0  0  0  0  0  0  0  0
  -31.1181  -12.9772   21.2855 C   0  0  0  0  0  0  0  0  0  0  0  0
  -26.4186  -31.4686   25.8794 C   0  0  0  0  0  0  0  0  0  0  0  0
  -25.9181  -24.5313   25.5062 C   0  0  0  0  0  0  0  0  0  0  0  0
  -26.8867  -23.7262   28.1816 C   0  0  0  0  0  0  0  0  0  0  0  0
  -26.2922  -30.5521   27.0937 C   0  0  0  0  0  0  0  0  0  0  0  0
  -29.4230  -13.7600   18.2539 C   0  0  0  0  0  0  0  0  0  0  0  0
  -27.5094  -29.6391   27.2024 C   0  0  0  0  0  0  0  0  0  0  0  0
  -27.9611  -13.4252   18.5553 C   0  0  0  0  0  0  0  0  0  0  0  0
  -30.5666  -18.8575   24.4104 C   0  0  0  0  0  0  0  0  0  0  0  0
  -29.6027  -18.2236   26.6469 C   0  0  0  0  0  0  0  0  0  0  0  0
  -30.3777  -12.7784   18.9299 C   0  0  0  0  0  0  0  0  0  0  0  0
  -28.7179  -12.2884   20.6846 C   0  0  0  0  0  0  0  0  0  0  0  0
  -30.3577  -17.4334   23.9198 C   0  0  0  0  0  0  0  0  0  0  0  0
  -29.3953  -16.8010   26.1517 C   0  0  0  0  0  0  0  0  0  0  0  0
  -27.6293  -28.7309   25.9727 C   0  0  1  0  0  0  0  0  0  0  0  0
  -25.8290  -25.4671   26.7077 C   0  0  1  0  0  0  0  0  0  0  0  0
  -27.7190  -13.2839   20.0701 C   0  0  2  0  0  0  0  0  0  0  0  0
  -29.5698  -19.2327   25.5035 C   0  0  0  0  0  0  0  0  0  1  0  0
  -22.4356  -21.7134   32.5726 C   0  0  0  0  0  0  0  0  0  0  0  0
  -26.8921  -26.3901   31.1098 C   0  0  0  0  0  0  0  0  0  0  0  0
  -25.8480  -24.8789   32.8111 C   0  0  0  0  0  0  0  0  0  0  0  0
  -24.4596  -26.5974   31.6527 C   0  0  0  0  0  0  0  0  0  0  0  0
  -22.5447  -20.6140   28.9318 C   0  0  0  0  0  0  0  0  0  0  0  0
  -31.6970  -14.6105   24.1174 C   0  0  0  0  0  0  0  0  0  0  0  0
  -31.7057  -13.1466   23.6907 C   0  0  0  0  0  0  0  0  0  0  0  0
  -30.3383  -15.0489   24.6486 C   0  0  0  0  0  0  0  0  0  0  0  0
  -25.2294  -24.5574   30.3729 C   0  0  1  0  0  0  0  0  0  0  0  0
  -22.6237  -21.8952   31.0745 C   0  0  2  0  0  0  0  0  0  0  0  0
  -25.6191  -25.5952   31.4631 C   0  0  0  0  0  0  0  0  0  0  0  0
  -25.9574  -11.6101   20.4916 N   0  0  0  0  0  0  0  0  0  0  0  0
  -26.2803  -12.9094   20.3745 N   0  0  0  0  0  0  0  0  0  0  0  0
  -25.8481  -24.7508   27.9847 N   0  0  0  0  0  0  0  0  0  0  0  0
  -30.0962  -12.6920   20.3649 N   0  0  0  0  0  0  0  0  0  0  0  0
  -25.3756  -15.0964   20.4694 N   0  0  0  0  0  0  0  0  0  0  0  0
  -21.8057  -12.4556   21.2929 N   0  0  0  0  0  0  0  0  0  0  0  0
  -26.6879  -27.6352   26.0598 N   0  0  0  0  0  0  0  0  0  0  0  0
  -24.0124  -23.8090   30.6683 N   0  0  0  0  0  0  0  0  0  0  0  0
  -30.7653  -12.8777   22.6258 N   0  0  0  0  0  0  0  0  0  0  0  0
  -30.4243  -16.4834   25.0923 N   0  3  0  0  0  0  0  0  0  0  0  0
  -22.4127  -20.5775   30.4111 N   0  3  0  0  0  0  0  0  0  0  0  0
  -22.4980  -14.6283   21.0497 O   0  0  0  0  0  0  0  0  0  0  0  0
  -27.9764  -26.1983   27.3627 O   0  0  0  0  0  0  0  0  0  0  0  0
  -24.1371  -26.0511   28.8890 O   0  0  0  0  0  0  0  0  0  0  0  0
  -24.9841  -21.7047   30.5954 O   0  0  0  0  0  0  0  0  0  0  0  0
  -32.2588  -13.3020   20.9387 O   0  0  0  0  0  0  0  0  0  0  0  0
  -21.8096   -6.8887   21.5166 O   0  0  0  0  0  0  0  0  0  0  0  0
  -29.8853  -20.5203   26.0208 O   0  0  0  0  0  0  0  0  0  1  0  0
  -20.3813   -5.5636   26.6749 F   0  0  0  0  0  0  0  0  0  0  0  0
  -22.6924   -4.5381   22.6733 F   0  0  0  0  0  0  0  0  0  0  0  0
  1  2  1  0  0  0  0
  1  5  2  0  0  0  0
  2  6  2  0  0  0  0
  3  8  2  0  0  0  0
  3 15  1  0  0  0  0
  4  9  1  0  0  0  0
  4 15  2  0  0  0  0
  5 17  1  0  0  0  0
  6 19  1  0  0  0  0
  7 10  2  0  0  0  0
  7 18  1  0  0  0  0
  8 21  1  0  0  0  0
  9 21  2  0  0  0  0
 10 22  1  0  0  0  0
 11 12  2  0  0  0  0
 11 23  1  0  0  0  0
 12 24  1  0  0  0  0
 13 20  1  0  0  0  0
 13 22  2  0  0  0  0
 14 24  2  0  0  0  0
 14 25  1  0  0  0  0
 15 26  1  0  0  0  0
 16 26  1  0  0  0  0
 16 27  2  0  0  0  0
 16 28  1  0  0  0  0
 17 19  2  0  0  0  0
 17 33  1  0  0  0  0
 18 20  2  0  0  0  0
 18 34  1  0  0  0  0
 19 46  1  0  0  0  0
 20 35  1  0  0  0  0
 21 77  1  0  0  0  0
 22 78  1  0  0  0  0
 23 25  2  0  0  0  0
 23 77  1  0  0  0  0
 24 79  1  0  0  0  0
 25 80  1  0  0  0  0
 26 61  2  0  0  0  0
 27 62  1  0  0  0  0
 27 65  1  0  0  0  0
 28 66  1  0  0  0  0
 28 72  2  0  0  0  0
 29 47  1  0  0  0  0
 29 67  1  0  0  0  0
 29 73  2  0  0  0  0
 30 58  1  0  0  0  0
 30 63  1  0  0  0  0
 30 74  2  0  0  0  0
 31 59  1  0  0  0  0
 31 68  1  0  0  0  0
 31 75  2  0  0  0  0
 32 64  1  0  0  0  0
 32 69  1  0  0  0  0
 32 76  2  0  0  0  0
 33 36  1  0  0  0  0
 34 47  1  0  0  0  0
 35 63  1  0  0  0  0
 36 38  1  0  0  0  0
 37 39  1  0  0  0  0
 37 42  1  0  0  0  0
 38 46  1  0  0  0  0
 39 48  1  0  0  0  0
 40 44  1  0  0  0  0
 40 49  1  0  0  0  0
 41 45  1  0  0  0  0
 41 49  1  0  0  0  0
 42 64  1  0  0  0  0
 43 48  1  0  0  0  0
 43 64  1  0  0  0  0
 44 70  1  0  0  0  0
 45 70  1  0  0  0  0
 46 67  1  0  0  0  0
 47 63  1  0  0  0  0
 48 62  1  0  0  0  0
 49 78  1  0  0  0  0
 50 59  1  0  0  0  0
 51 60  1  0  0  0  0
 52 60  1  0  0  0  0
 53 60  1  0  0  0  0
 54 71  1  0  0  0  0
 55 56  1  0  0  0  0
 55 57  1  0  0  0  0
 56 69  1  0  0  0  0
 57 70  1  0  0  0  0
 58 60  1  0  0  0  0
 58 68  1  0  0  0  0
 59 71  1  0  0  0  0
 61 62  1  0  0  0  0
M  CHG  2  70   1  71   1
M  ISO  4  32 100  49 101  69 100  78 101
M  END
> <Batch ID>
0131

> <Smiles>
CNC(C)C(=O)NC(C(=O)N1Cc2cc([101O:1][101CH:1]3CCN(CCC[100NH:0][100C:0](=O)N4CCCC(n5nc(-c6ccc(Oc7ccc(F)cc7F)cc6)c(C(N)=O)c5N)C4)CC3)ccc2CC1C(=O)NC1CCCc2ccccc21)C(C)(C)C

> <Shape>
0.208

> <Color>
0.177

> <Negative vol penalty>
0.000

$$$$

  -OEChem-04052320503D

 90 99  0     1  0  0  0  0  0999 V2000
  -20.7407   -4.3327   23.4247 C   0  0  0  0  0  0  0  0  0  0  0  0
  -20.4253   -5.4246   24.2271 C   0  0  0  0  0  0  0  0  0  0  0  0
  -27.6246  -25.1485   19.5319 C   0  0  0  0  0  0  0  0  0  0  0  0
  -28.8713  -26.4052   21.1762 C   0  0  0  0  0  0  0  0  0  0  0  0
  -21.9814   -4.2694   22.7919 C   0  0  0  0  0  0  0  0  0  0  0  0
  -21.3511   -6.4533   24.3980 C   0  0  0  0  0  0  0  0  0  0  0  0
  -19.7387  -13.2338   22.5770 C   0  0  0  0  0  0  0  0  0  0  0  0
  -18.7683  -27.3959   20.6338 C   0  0  0  0  0  0  0  0  0  0  0  0
  -18.4209  -26.2448   19.9268 C   0  0  0  0  0  0  0  0  0  0  0  0
  -28.4180  -24.0296   19.7855 C   0  0  0  0  0  0  0  0  0  0  0  0
  -29.6646  -25.2862   21.4298 C   0  0  0  0  0  0  0  0  0  0  0  0
  -19.4317  -14.5887   22.4499 C   0  0  0  0  0  0  0  0  0  0  0  0
  -28.6298  -21.6070   22.1347 C   0  0  0  0  0  0  0  0  0  0  0  0
  -27.9883  -20.3770   22.2801 C   0  0  0  0  0  0  0  0  0  0  0  0
  -21.6952  -15.1707   23.0712 C   0  0  0  0  0  0  0  0  0  0  0  0
  -19.7067  -26.0320   22.3935 C   0  0  0  0  0  0  0  0  0  0  0  0
  -29.2383  -19.5035   20.4062 C   0  0  0  0  0  0  0  0  0  0  0  0
  -27.8514  -26.3363   20.2272 C   0  0  0  0  0  0  0  0  0  0  0  0
  -26.8826  -28.1681   18.7393 C   0  0  0  0  0  0  0  0  0  0  0  0
  -22.9191   -5.3024   22.9474 C   0  0  0  0  0  0  0  0  0  0  0  0
  -21.0308  -12.8413   22.9372 C   0  0  0  0  0  0  0  0  0  0  0  0
  -22.6061   -6.4030   23.7677 C   0  0  0  0  0  0  0  0  0  0  0  0
  -22.0119  -13.8146   23.1880 C   0  0  0  0  0  0  0  0  0  0  0  0
  -19.4113  -27.2895   21.8671 C   0  0  0  0  0  0  0  0  0  0  0  0
  -18.7163  -24.9873   20.4531 C   0  0  0  0  0  0  0  0  0  0  0  0
  -19.3592  -24.8809   21.6865 C   0  0  0  0  0  0  0  0  0  0  0  0
  -29.4379  -24.0985   20.7345 C   0  0  0  0  0  0  0  0  0  0  0  0
  -20.4075  -15.5547   22.6966 C   0  0  0  0  0  0  0  0  0  0  0  0
  -29.5755  -21.7853   21.1250 C   0  0  0  0  0  0  0  0  0  0  0  0
  -28.2925  -19.3252   21.4159 C   0  0  0  0  0  0  0  0  0  0  0  0
  -29.8797  -20.7335   20.2607 C   0  0  0  0  0  0  0  0  0  0  0  0
  -27.0326  -27.4926   19.9653 C   0  0  0  0  0  0  0  0  0  0  0  0
  -26.0052  -29.1883   19.0144 C   0  0  0  0  0  0  0  0  0  0  0  0
  -27.4828  -27.8974   17.4656 C   0  0  0  0  0  0  0  0  0  0  0  0
  -23.3926  -10.0109   23.6349 C   0  0  0  0  0  0  0  0  0  0  0  0
  -24.9659  -12.1143   22.0503 C   0  0  0  0  0  0  0  0  0  0  0  0
  -26.2189  -14.4808   19.9369 C   0  0  0  0  0  0  0  0  0  0  0  0
  -21.7640  -29.9068   23.1794 C   0  0  0  0  0  0  0  0  0  0  0  0
  -24.2655   -5.1670   22.2814 C   0  0  0  0  0  0  0  0  0  0  0  0
  -21.3897  -11.3951   23.1460 C   0  0  0  0  0  0  0  0  0  0  0  0
  -23.3789  -13.3470   23.6067 C   0  0  0  0  0  0  0  0  0  0  0  0
  -25.0459   -6.4772   22.2132 C   0  0  0  0  0  0  0  0  0  0  0  0
  -24.5630  -32.0258   22.5864 C   0  0  0  0  0  0  0  0  0  0  0  0
  -25.0110   -7.1900   23.5613 C   0  0  0  0  0  0  0  0  0  0  0  0
  -25.4998  -31.1652   21.7368 C   0  0  0  0  0  0  0  0  0  0  0  0
  -20.1631  -17.5577   20.2525 C   0  0  0  0  0  0  0  0  0  0  0  0
  -20.9702  -19.0614   22.1020 C   0  0  0  0  0  0  0  0  0  0  0  0
  -23.8303  -31.1942   23.6369 C   0  0  0  0  0  0  0  0  0  0  0  0
  -24.0426  -29.1638   22.2562 C   0  0  0  0  0  0  0  0  0  0  0  0
  -20.8482  -18.4515   19.2307 C   0  0  0  0  0  0  0  0  0  0  0  0
  -21.6540  -19.9518   21.0765 C   0  0  0  0  0  0  0  0  0  0  0  0
  -23.5742   -7.5505   23.9578 C   0  0  1  0  0  0  0  0  0  0  0  0
  -22.8329  -11.0647   22.7251 C   0  0  1  0  0  0  0  0  0  0  0  0
  -24.7621  -29.9487   21.1460 C   0  0  2  0  0  0  0  0  0  0  0  0
  -20.8512  -17.6213   21.6133 C   0  0  0  0  0  0  0  0  0  1  0  0
  -19.6853  -23.5452   22.2699 C   0  0  0  0  0  0  0  0  0  0  0  0
  -28.3040  -15.0974   18.6841 C   0  0  0  0  0  0  0  0  0  0  0  0
  -26.2326  -13.0919   24.6471 C   0  0  0  0  0  0  0  0  0  0  0  0
  -27.7866  -14.4976   23.2769 C   0  0  0  0  0  0  0  0  0  0  0  0
  -27.8265  -12.0137   23.0497 C   0  0  0  0  0  0  0  0  0  0  0  0
  -24.8440  -14.2899   17.3230 C   0  0  0  0  0  0  0  0  0  0  0  0
  -19.7821  -28.5204   22.6230 C   0  0  0  0  0  0  0  0  0  0  0  0
  -18.3319  -23.7635   19.6750 C   0  0  0  0  0  0  0  0  0  0  0  0
  -20.4156  -21.2066   17.7240 C   0  0  0  0  0  0  0  0  0  0  0  0
  -21.4798  -20.8139   18.7432 C   0  0  0  0  0  0  0  0  0  0  0  0
  -19.1572  -21.8543   18.2921 C   0  0  0  0  0  0  0  0  0  0  0  0
  -25.8776  -13.3141   22.0995 C   0  0  1  0  0  0  0  0  0  0  0  0
  -26.9741  -14.3621   18.6254 C   0  0  2  0  0  0  0  0  0  0  0  0
  -26.9027  -13.2322   23.2657 C   0  0  0  0  0  0  0  0  0  0  0  0
  -26.3085  -28.0380   20.9463 N   0  0  0  0  0  0  0  0  0  0  0  0
  -25.6952  -29.0669   20.3370 N   0  0  0  0  0  0  0  0  0  0  0  0
  -23.7833  -12.1875   22.7963 N   0  0  0  0  0  0  0  0  0  0  0  0
  -23.1503  -30.0575   23.0111 N   0  0  0  0  0  0  0  0  0  0  0  0
  -25.4763  -30.1684   18.2515 N   0  0  0  0  0  0  0  0  0  0  0  0
  -28.7080  -28.5063   17.1614 N   0  0  0  0  0  0  0  0  0  0  0  0
  -23.1263   -8.7173   23.2283 N   0  0  0  0  0  0  0  0  0  0  0  0
  -26.4844  -13.4201   20.7770 N   0  0  0  0  0  0  0  0  0  0  0  0
  -21.1976  -28.8063   22.5478 N   0  0  0  0  0  0  0  0  0  0  0  0
  -20.9139  -19.8638   19.7626 N   0  3  0  0  0  0  0  0  0  0  0  0
  -26.1688  -14.9355   17.5102 N   0  3  0  0  0  0  0  0  0  0  0  0
  -19.4925  -23.1023   19.0165 N   0  3  0  0  0  0  0  0  0  0  0  0
  -26.9405  -27.1510   16.6158 O   0  0  0  0  0  0  0  0  0  0  0  0
  -24.0214  -10.3454   24.6320 O   0  0  0  0  0  0  0  0  0  0  0  0
  -25.2935  -11.1350   21.3742 O   0  0  0  0  0  0  0  0  0  0  0  0
  -25.4713  -15.4223   20.1922 O   0  0  0  0  0  0  0  0  0  0  0  0
  -21.0807  -30.6975   23.8388 O   0  0  0  0  0  0  0  0  0  0  0  0
  -30.2121  -23.0068   20.9824 O   0  0  0  0  0  0  0  0  0  0  0  0
  -20.1024  -16.8756   22.5663 O   0  0  0  0  0  0  0  0  0  1  0  0
  -27.6775  -18.1436   21.5567 F   0  0  0  0  0  0  0  0  0  0  0  0
  -30.7883  -20.8984   19.2896 F   0  0  0  0  0  0  0  0  0  0  0  0
  1  2  1  0  0  0  0
  1  5  2  0  0  0  0
  2  6  2  0  0  0  0
  3 10  2  0  0  0  0
  3 18  1  0  0  0  0
  4 11  1  0  0  0  0
  4 18  2  0  0  0  0
  5 20  1  0  0  0  0
  6 22  1  0  0  0  0
  7 12  2  0  0  0  0
  7 21  1  0  0  0  0
  8  9  2  0  0  0  0
  8 24  1  0  0  0  0
  9 25  1  0  0  0  0
 10 27  1  0  0  0  0
 11 27  2  0  0  0  0
 12 28  1  0  0  0  0
 13 14  2  0  0  0  0
 13 29  1  0  0  0  0
 14 30  1  0  0  0  0
 15 23  1  0  0  0  0
 15 28  2  0  0  0  0
 16 24  2  0  0  0  0
 16 26  1  0  0  0  0
 17 30  2  0  0  0  0
 17 31  1  0  0  0  0
 18 32  1  0  0  0  0
 19 32  1  0  0  0  0
 19 33  2  0  0  0  0
 19 34  1  0  0  0  0
 20 22  2  0  0  0  0
 20 39  1  0  0  0  0
 21 23  2  0  0  0  0
 21 40  1  0  0  0  0
 22 52  1  0  0  0  0
 23 41  1  0  0  0  0
 24 62  1  0  0  0  0
 25 26  2  0  0  0  0
 25 63  1  0  0  0  0
 26 56  1  0  0  0  0
 27 87  1  0  0  0  0
 28 88  1  0  0  0  0
 29 31  2  0  0  0  0
 29 87  1  0  0  0  0
 30 89  1  0  0  0  0
 31 90  1  0  0  0  0
 32 70  2  0  0  0  0
 33 71  1  0  0  0  0
 33 74  1  0  0  0  0
 34 75  1  0  0  0  0
 34 82  2  0  0  0  0
 35 53  1  0  0  0  0
 35 76  1  0  0  0  0
 35 83  2  0  0  0  0
 36 67  1  0  0  0  0
 36 72  1  0  0  0  0
 36 84  2  0  0  0  0
 37 68  1  0  0  0  0
 37 77  1  0  0  0  0
 37 85  2  0  0  0  0
 38 73  1  0  0  0  0
 38 78  1  0  0  0  0
 38 86  2  0  0  0  0
 39 42  1  0  0  0  0
 40 53  1  0  0  0  0
 41 72  1  0  0  0  0
 42 44  1  0  0  0  0
 43 45  1  0  0  0  0
 43 48  1  0  0  0  0
 44 52  1  0  0  0  0
 45 54  1  0  0  0  0
 46 50  1  0  0  0  0
 46 55  1  0  0  0  0
 47 51  1  0  0  0  0
 47 55  1  0  0  0  0
 48 73  1  0  0  0  0
 49 54  1  0  0  0  0
 49 73  1  0  0  0  0
 50 79  1  0  0  0  0
 51 79  1  0  0  0  0
 52 76  1  0  0  0  0
 53 72  1  0  0  0  0
 54 71  1  0  0  0  0
 55 88  1  0  0  0  0
 57 68  1  0  0  0  0
 58 69  1  0  0  0  0
 59 69  1  0  0  0  0
 60 69  1  0  0  0  0
 61 80  1  0  0  0  0
 62 78  1  0  0  0  0
 63 81  1  0  0  0  0
 64 65  1  0  0  0  0
 64 66  1  0  0  0  0
 65 79  1  0  0  0  0
 66 81  1  0  0  0  0
 67 69  1  0  0  0  0
 67 77  1  0  0  0  0
 68 80  1  0  0  0  0
 70 71  1  0  0  0  0
M  CHG  3  79   1  80   1  81   1
M  ISO  4  38 100  55 101  78 100  88 101
M  END
> <Batch ID>
0131

> <Smiles>
CNC(C)C(=O)NC(C(=O)N1Cc2cc([101O:1][101CH:1]3CCN(CCCNCc4ccc(C[100NH:0][100C:0](=O)N5CCCC(n6nc(-c7ccc(Oc8ccc(F)cc8F)cc7)c(C(N)=O)c6N)C5)cc4C)CC3)ccc2CC1C(=O)NC1CCCc2ccccc21)C(C)(C)C

> <Shape>
0.234

> <Color>
0.068

> <Negative vol penalty>
0.000

$$$$

  -OEChem-04052320503D

 86 95  0     1  0  0  0  0  0999 V2000
  -17.2910  -26.6210   22.4864 C   0  0  0  0  0  0  0  0  0  0  0  0
  -17.8323  -27.3045   21.4023 C   0  0  0  0  0  0  0  0  0  0  0  0
  -26.4028  -12.7966   21.6400 C   0  0  0  0  0  0  0  0  0  0  0  0
  -26.1550  -13.6518   19.3940 C   0  0  0  0  0  0  0  0  0  0  0  0
  -17.6585  -26.9725   23.7846 C   0  0  0  0  0  0  0  0  0  0  0  0
  -18.7407  -28.3407   21.6159 C   0  0  0  0  0  0  0  0  0  0  0  0
  -25.3752  -28.0911   18.8210 C   0  0  0  0  0  0  0  0  0  0  0  0
  -25.1422  -12.2058   21.5542 C   0  0  0  0  0  0  0  0  0  0  0  0
  -24.8943  -13.0610   19.3082 C   0  0  0  0  0  0  0  0  0  0  0  0
  -26.5898  -28.2154   18.1460 C   0  0  0  0  0  0  0  0  0  0  0  0
  -23.7766   -9.4397   20.1697 C   0  0  0  0  0  0  0  0  0  0  0  0
  -23.6438   -8.1271   20.6224 C   0  0  0  0  0  0  0  0  0  0  0  0
  -27.0244  -30.3010   19.2903 C   0  0  0  0  0  0  0  0  0  0  0  0
  -22.0082   -8.8526   22.2459 C   0  0  0  0  0  0  0  0  0  0  0  0
  -26.9092  -13.5197   20.5600 C   0  0  0  0  0  0  0  0  0  0  0  0
  -29.4459  -13.5556   20.2928 C   0  0  0  0  0  0  0  0  0  0  0  0
  -18.5792  -28.0071   24.0139 C   0  0  0  0  0  0  0  0  0  0  0  0
  -24.9874  -29.0647   19.7457 C   0  0  0  0  0  0  0  0  0  0  0  0
  -19.1198  -28.7073   22.9184 C   0  0  0  0  0  0  0  0  0  0  0  0
  -25.8148  -30.1755   19.9786 C   0  0  0  0  0  0  0  0  0  0  0  0
  -24.3880  -12.3380   20.3883 C   0  0  0  0  0  0  0  0  0  0  0  0
  -27.4122  -29.3178   18.3800 C   0  0  0  0  0  0  0  0  0  0  0  0
  -23.0254  -10.4588   20.7551 C   0  0  0  0  0  0  0  0  0  0  0  0
  -22.7595   -7.8335   21.6605 C   0  0  0  0  0  0  0  0  0  0  0  0
  -22.1412  -10.1653   21.7932 C   0  0  0  0  0  0  0  0  0  0  0  0
  -28.2111  -14.1307   20.6482 C   0  0  0  0  0  0  0  0  0  0  0  0
  -30.3709  -14.5345   20.5626 C   0  0  0  0  0  0  0  0  0  0  0  0
  -29.7313  -12.2531   19.7659 C   0  0  0  0  0  0  0  0  0  0  0  0
  -30.4588  -28.0791   19.5454 C   0  0  0  0  0  0  0  0  0  0  0  0
  -22.4132  -30.2277   22.2149 C   0  0  0  0  0  0  0  0  0  0  0  0
  -25.1599  -30.7962   23.4568 C   0  0  0  0  0  0  0  0  0  0  0  0
  -28.3571  -30.8690   24.6443 C   0  0  0  0  0  0  0  0  0  0  0  0
  -29.9260  -20.4181   20.7651 C   0  0  0  0  0  0  0  0  0  0  0  0
  -18.9098  -28.3826   25.4367 C   0  0  0  0  0  0  0  0  0  0  0  0
  -23.6593  -29.0031   20.4502 C   0  0  0  0  0  0  0  0  0  0  0  0
  -25.3408  -31.2157   20.9565 C   0  0  0  0  0  0  0  0  0  0  0  0
  -20.1638  -29.2439   25.5636 C   0  0  0  0  0  0  0  0  0  0  0  0
  -31.1213  -18.2881   23.4356 C   0  0  0  0  0  0  0  0  0  0  0  0
  -20.1415  -30.3735   24.5388 C   0  0  0  0  0  0  0  0  0  0  0  0
  -30.6201  -16.9170   22.9786 C   0  0  0  0  0  0  0  0  0  0  0  0
  -32.1057  -24.8201   20.1562 C   0  0  0  0  0  0  0  0  0  0  0  0
  -29.6386  -24.9055   19.6087 C   0  0  0  0  0  0  0  0  0  0  0  0
  -31.8792  -23.5518   20.9794 C   0  0  0  0  0  0  0  0  0  0  0  0
  -29.4122  -23.6372   20.4320 C   0  0  0  0  0  0  0  0  0  0  0  0
  -32.0821  -29.8791   19.0820 C   0  0  0  0  0  0  0  0  0  0  0  0
  -30.1110  -19.3835   23.1078 C   0  0  0  0  0  0  0  0  0  0  0  0
  -29.2216  -18.0843   21.2118 C   0  0  0  0  0  0  0  0  0  0  0  0
  -32.4298  -31.0852   18.2255 C   0  0  0  0  0  0  0  0  0  0  0  0
  -30.0345  -31.3387   17.5659 C   0  0  0  0  0  0  0  0  0  0  0  0
  -20.1270  -29.8206   23.1085 C   0  0  1  0  0  0  0  0  0  0  0  0
  -30.8330  -29.1571   18.5709 C   0  0  2  0  0  0  0  0  0  0  0  0
  -23.7124  -29.5524   21.8871 C   0  0  1  0  0  0  0  0  0  0  0  0
  -30.2085  -16.9370   21.4945 C   0  0  2  0  0  0  0  0  0  0  0  0
  -30.8489  -25.6928   20.1154 C   0  0  0  0  0  0  0  0  0  0  0  0
  -30.6691  -22.7645   20.4723 C   0  0  0  0  0  0  0  0  0  0  0  0
  -29.6521  -30.1191   18.3947 C   0  0  2  0  0  0  0  0  0  1  0  0
  -29.6967  -31.5487   26.6545 C   0  0  0  0  0  0  0  0  0  0  0  0
  -24.9022  -33.7222   22.6347 C   0  0  0  0  0  0  0  0  0  0  0  0
  -26.9353  -34.2142   24.0104 C   0  0  0  0  0  0  0  0  0  0  0  0
  -24.8766  -33.3259   25.1038 C   0  0  0  0  0  0  0  0  0  0  0  0
  -29.2999  -28.1003   25.0965 C   0  0  0  0  0  0  0  0  0  0  0  0
  -26.2745  -31.7909   23.6609 C   0  0  1  0  0  0  0  0  0  0  0  0
  -28.9516  -30.4160   25.9656 C   0  0  2  0  0  0  0  0  0  0  0  0
  -25.7481  -33.2439   23.8316 C   0  0  0  0  0  0  0  0  0  0  0  0
  -28.3368  -15.3781   21.1088 N   0  0  0  0  0  0  0  0  0  0  0  0
  -29.6615  -15.5949   21.0447 N   0  0  0  0  0  0  0  0  0  0  0  0
  -24.7529  -30.5642   22.1374 N   0  0  0  0  0  0  0  0  0  0  0  0
  -29.7757  -19.3601   21.6770 N   0  0  0  0  0  0  0  0  0  0  0  0
  -31.7136  -14.5829   20.4321 N   0  0  0  0  0  0  0  0  0  0  0  0
  -28.6636  -11.3715   19.5488 N   0  0  0  0  0  0  0  0  0  0  0  0
  -21.4502  -29.3777   22.7244 N   0  0  0  0  0  0  0  0  0  0  0  0
  -31.0671  -26.8629   19.2999 N   0  0  0  0  0  0  0  0  0  0  0  0
  -27.0562  -31.3019   24.7914 N   0  0  0  0  0  0  0  0  0  0  0  0
  -30.4510  -21.5938   21.2872 N   0  0  0  0  0  0  0  0  0  0  0  0
  -31.2428  -31.9859   18.1472 N   0  3  0  0  0  0  0  0  0  0  0  0
  -29.9048  -29.2915   25.7462 N   0  3  0  0  0  0  0  0  0  0  0  0
  -30.9003  -11.8762   19.5109 O   0  0  0  0  0  0  0  0  0  0  0  0
  -29.6769  -28.3314   20.4546 O   0  0  0  0  0  0  0  0  0  0  0  0
  -22.2924  -31.4317   22.0216 O   0  0  0  0  0  0  0  0  0  0  0  0
  -24.6581  -30.2427   24.4392 O   0  0  0  0  0  0  0  0  0  0  0  0
  -28.9851  -30.8450   23.5882 O   0  0  0  0  0  0  0  0  0  0  0  0
  -29.6199  -20.3205   19.5718 O   0  0  0  0  0  0  0  0  0  0  0  0
  -23.1579  -11.7614   20.3041 O   0  0  0  0  0  0  0  0  0  0  0  0
  -28.5987  -29.4306   17.7209 O   0  0  0  0  0  0  0  0  0  1  0  0
  -22.6309   -6.5727   22.0940 F   0  0  0  0  0  0  0  0  0  0  0  0
  -21.4159  -11.1399   22.3588 F   0  0  0  0  0  0  0  0  0  0  0  0
  1  2  1  0  0  0  0
  1  5  2  0  0  0  0
  2  6  2  0  0  0  0
  3  8  2  0  0  0  0
  3 15  1  0  0  0  0
  4  9  1  0  0  0  0
  4 15  2  0  0  0  0
  5 17  1  0  0  0  0
  6 19  1  0  0  0  0
  7 10  2  0  0  0  0
  7 18  1  0  0  0  0
  8 21  1  0  0  0  0
  9 21  2  0  0  0  0
 10 22  1  0  0  0  0
 11 12  2  0  0  0  0
 11 23  1  0  0  0  0
 12 24  1  0  0  0  0
 13 20  1  0  0  0  0
 13 22  2  0  0  0  0
 14 24  2  0  0  0  0
 14 25  1  0  0  0  0
 15 26  1  0  0  0  0
 16 26  1  0  0  0  0
 16 27  2  0  0  0  0
 16 28  1  0  0  0  0
 17 19  2  0  0  0  0
 17 34  1  0  0  0  0
 18 20  2  0  0  0  0
 18 35  1  0  0  0  0
 19 50  1  0  0  0  0
 20 36  1  0  0  0  0
 21 83  1  0  0  0  0
 22 84  1  0  0  0  0
 23 25  2  0  0  0  0
 23 83  1  0  0  0  0
 24 85  1  0  0  0  0
 25 86  1  0  0  0  0
 26 65  2  0  0  0  0
 27 66  1  0  0  0  0
 27 69  1  0  0  0  0
 28 70  1  0  0  0  0
 28 77  2  0  0  0  0
 29 51  1  0  0  0  0
 29 72  1  0  0  0  0
 29 78  2  0  0  0  0
 30 52  1  0  0  0  0
 30 71  1  0  0  0  0
 30 79  2  0  0  0  0
 31 62  1  0  0  0  0
 31 67  1  0  0  0  0
 31 80  2  0  0  0  0
 32 63  1  0  0  0  0
 32 73  1  0  0  0  0
 32 81  2  0  0  0  0
 33 68  1  0  0  0  0
 33 74  1  0  0  0  0
 33 82  2  0  0  0  0
 34 37  1  0  0  0  0
 35 52  1  0  0  0  0
 36 67  1  0  0  0  0
 37 39  1  0  0  0  0
 38 40  1  0  0  0  0
 38 46  1  0  0  0  0
 39 50  1  0  0  0  0
 40 53  1  0  0  0  0
 41 43  1  0  0  0  0
 41 54  1  0  0  0  0
 42 44  1  0  0  0  0
 42 54  1  0  0  0  0
 43 55  1  0  0  0  0
 44 55  1  0  0  0  0
 45 48  1  0  0  0  0
 45 51  1  0  0  0  0
 46 68  1  0  0  0  0
 47 53  1  0  0  0  0
 47 68  1  0  0  0  0
 48 75  1  0  0  0  0
 49 56  1  0  0  0  0
 49 75  1  0  0  0  0
 50 71  1  0  0  0  0
 51 56  1  0  0  0  0
 52 67  1  0  0  0  0
 53 66  1  0  0  0  0
 54 72  1  0  0  0  0
 55 74  1  0  0  0  0
 56 84  1  0  0  0  0
 57 63  1  0  0  0  0
 58 64  1  0  0  0  0
 59 64  1  0  0  0  0
 60 64  1  0  0  0  0
 61 76  1  0  0  0  0
 62 64  1  0  0  0  0
 62 73  1  0  0  0  0
 63 76  1  0  0  0  0
 65 66  1  0  0  0  0
M  CHG  2  75   1  76   1
M  ISO  4  33 100  56 101  74 100  84 101
M  END
> <Batch ID>
0131

> <Smiles>
CNC(C)C(=O)NC(C(=O)N1Cc2cc([101O:1][101CH:1]3CNCCC3C(=O)NC3CCC([100NH:0][100C:0](=O)N4CCCC(n5nc(-c6ccc(Oc7ccc(F)cc7F)cc6)c(C(N)=O)c5N)C4)CC3)ccc2CC1C(=O)NC1CCCc2ccccc21)C(C)(C)C

> <Shape>
0.362

> <Color>
0.106

> <Negative vol penalty>
0.000

$$$$

  -OEChem-04052320503D

 87 96  0     1  0  0  0  0  0999 V2000
  -29.6553  -35.7021   25.1839 C   0  0  0  0  0  0  0  0  0  0  0  0
  -29.4025  -34.3888   24.8010 C   0  0  0  0  0  0  0  0  0  0  0  0
  -23.7128   -9.3227   21.4121 C   0  0  0  0  0  0  0  0  0  0  0  0
  -22.9762  -11.6068   21.1346 C   0  0  0  0  0  0  0  0  0  0  0  0
  -28.6029  -36.5266   25.5796 C   0  0  0  0  0  0  0  0  0  0  0  0
  -28.0971  -33.8987   24.8147 C   0  0  0  0  0  0  0  0  0  0  0  0
  -26.9714  -31.2528   20.6461 C   0  0  0  0  0  0  0  0  0  0  0  0
  -28.2833  -19.0230   20.3313 C   0  0  0  0  0  0  0  0  0  0  0  0
  -30.4999  -18.7348   21.2483 C   0  0  0  0  0  0  0  0  0  0  0  0
  -28.9352  -25.2509   21.5484 C   0  0  0  0  0  0  0  0  0  0  0  0
  -28.2612  -17.6781   19.9620 C   0  0  0  0  0  0  0  0  0  0  0  0
  -30.4777  -17.3899   20.8791 C   0  0  0  0  0  0  0  0  0  0  0  0
  -29.2276  -23.8878   21.5043 C   0  0  0  0  0  0  0  0  0  0  0  0
  -22.7035   -9.1113   22.3514 C   0  0  0  0  0  0  0  0  0  0  0  0
  -21.9669  -11.3955   22.0739 C   0  0  0  0  0  0  0  0  0  0  0  0
  -27.4532  -29.9467   20.5715 C   0  0  0  0  0  0  0  0  0  0  0  0
  -19.3760   -8.5107   22.3400 C   0  0  0  0  0  0  0  0  0  0  0  0
  -18.6311   -7.3360   22.2378 C   0  0  0  0  0  0  0  0  0  0  0  0
  -25.2879  -29.1164   21.2357 C   0  0  0  0  0  0  0  0  0  0  0  0
  -28.8729  -25.3158   19.1341 C   0  0  0  0  0  0  0  0  0  0  0  0
  -19.3477   -6.6888   24.4524 C   0  0  0  0  0  0  0  0  0  0  0  0
  -23.8491  -10.5705   20.8037 C   0  0  0  0  0  0  0  0  0  0  0  0
  -24.8125  -10.5952   18.4417 C   0  0  0  0  0  0  0  0  0  0  0  0
  -27.2827  -36.0493   25.5889 C   0  0  0  0  0  0  0  0  0  0  0  0
  -25.6450  -31.5015   21.0272 C   0  0  0  0  0  0  0  0  0  0  0  0
  -27.0261  -34.7172   25.2122 C   0  0  0  0  0  0  0  0  0  0  0  0
  -24.7909  -30.4265   21.3119 C   0  0  0  0  0  0  0  0  0  0  0  0
  -29.4027  -19.5514   20.9743 C   0  0  0  0  0  0  0  0  0  0  0  0
  -28.7578  -25.9649   20.3633 C   0  0  0  0  0  0  0  0  0  0  0  0
  -29.1654  -23.9527   19.0899 C   0  0  0  0  0  0  0  0  0  0  0  0
  -29.3583  -16.8615   20.2359 C   0  0  0  0  0  0  0  0  0  0  0  0
  -29.3428  -23.2387   20.2750 C   0  0  0  0  0  0  0  0  0  0  0  0
  -21.8306  -10.1476   22.6823 C   0  0  0  0  0  0  0  0  0  0  0  0
  -26.6123  -28.8784   20.8692 C   0  0  0  0  0  0  0  0  0  0  0  0
  -20.1070   -8.7745   23.4984 C   0  0  0  0  0  0  0  0  0  0  0  0
  -18.6169   -6.4250   23.2940 C   0  0  0  0  0  0  0  0  0  0  0  0
  -20.0928   -7.8636   24.5546 C   0  0  0  0  0  0  0  0  0  0  0  0
  -24.8918  -10.7896   19.8337 C   0  0  0  0  0  0  0  0  0  0  0  0
  -26.0572  -10.9408   17.9752 C   0  0  0  0  0  0  0  0  0  0  0  0
  -23.7120  -10.1426   17.6418 C   0  0  0  0  0  0  0  0  0  0  0  0
  -24.2541  -33.0390   23.4367 C   0  0  0  0  0  0  0  0  0  0  0  0
  -21.5460  -32.3986   21.7698 C   0  0  0  0  0  0  0  0  0  0  0  0
  -19.9482  -30.4332   19.4827 C   0  0  0  0  0  0  0  0  0  0  0  0
  -30.3407  -14.5485   20.0589 C   0  0  0  0  0  0  0  0  0  0  0  0
  -26.1837  -36.9635   26.0696 C   0  0  0  0  0  0  0  0  0  0  0  0
  -25.1330  -32.9150   21.0770 C   0  0  0  0  0  0  0  0  0  0  0  0
  -23.3530  -30.6390   21.7063 C   0  0  0  0  0  0  0  0  0  0  0  0
  -24.7840  -36.4811   25.6978 C   0  0  0  0  0  0  0  0  0  0  0  0
  -30.6527  -11.0805   19.3155 C   0  0  0  0  0  0  0  0  0  0  0  0
  -24.6314  -34.9954   26.0081 C   0  0  0  0  0  0  0  0  0  0  0  0
  -29.2035  -10.5959   19.2313 C   0  0  0  0  0  0  0  0  0  0  0  0
  -30.8350  -12.1377   20.4031 C   0  0  0  0  0  0  0  0  0  0  0  0
  -28.4668  -12.7954   20.2347 C   0  0  0  0  0  0  0  0  0  0  0  0
  -25.6207  -34.1566   25.1901 C   0  0  1  0  0  0  0  0  0  0  0  0
  -23.9100  -33.0762   21.9745 C   0  0  1  0  0  0  0  0  0  0  0  0
  -28.2206  -11.7769   19.1096 C   0  0  2  0  0  0  0  0  0  0  0  0
  -29.2830  -23.2826   17.7596 C   0  0  0  0  0  0  0  0  0  0  0  0
  -17.7275  -30.1322   18.3534 C   0  0  0  0  0  0  0  0  0  0  0  0
  -20.4222  -31.1512   24.3175 C   0  0  0  0  0  0  0  0  0  0  0  0
  -18.6598  -30.0526   22.9191 C   0  0  0  0  0  0  0  0  0  0  0  0
  -18.7906  -32.5413   23.0291 C   0  0  0  0  0  0  0  0  0  0  0  0
  -21.1171  -30.8971   16.8037 C   0  0  0  0  0  0  0  0  0  0  0  0
  -29.4265  -20.9991   21.3717 C   0  0  0  0  0  0  0  0  0  0  0  0
  -28.4432  -27.4313   20.4113 C   0  0  0  0  0  0  0  0  0  1  0  0
  -20.5514  -31.2633   21.7413 C   0  0  1  0  0  0  0  0  0  0  0  0
  -19.1003  -30.7815   18.2726 C   0  0  2  0  0  0  0  0  0  0  0  0
  -19.6336  -31.2478   22.9962 C   0  0  0  0  0  0  0  0  0  0  0  0
  -26.0921  -11.2249   20.2260 N   0  0  0  0  0  0  0  0  0  0  0  0
  -26.7785  -11.3067   19.0735 N   0  0  0  0  0  0  0  0  0  0  0  0
  -22.9011  -32.0396   21.7468 N   0  0  0  0  0  0  0  0  0  0  0  0
  -29.8733  -13.2271   20.2212 N   0  0  0  0  0  0  0  0  0  0  0  0
  -26.5942  -10.9643   16.7369 N   0  0  0  0  0  0  0  0  0  0  0  0
  -22.5048   -9.8303   18.2818 N   0  0  0  0  0  0  0  0  0  0  0  0
  -29.3360  -15.4952   19.8612 N   0  0  0  0  0  0  0  0  0  0  0  0
  -29.6394  -21.8582   20.2496 N   0  0  0  0  0  0  0  0  0  0  0  0
  -25.1545  -34.0115   23.8277 N   0  0  0  0  0  0  0  0  0  0  0  0
  -19.8331  -31.3815   20.4771 N   0  0  0  0  0  0  0  0  0  0  0  0
  -19.7666  -30.3183   17.0227 N   0  3  0  0  0  0  0  0  0  0  0  0
  -23.8016  -10.0033   16.3984 O   0  0  0  0  0  0  0  0  0  0  0  0
  -23.7396  -32.1917   24.1571 O   0  0  0  0  0  0  0  0  0  0  0  0
  -21.1356  -33.5614   21.8038 O   0  0  0  0  0  0  0  0  0  0  0  0
  -20.6403  -29.4192   19.5415 O   0  0  0  0  0  0  0  0  0  0  0  0
  -31.5449  -14.8164   20.0656 O   0  0  0  0  0  0  0  0  0  0  0  0
  -20.8455   -9.9417   23.5987 O   0  0  0  0  0  0  0  0  0  0  0  0
  -27.0802  -27.6025   20.7978 O   0  0  0  0  0  0  0  0  0  1  0  0
  -17.9001   -5.2976   23.1963 F   0  0  0  0  0  0  0  0  0  0  0  0
  -20.7920   -8.1120   25.6705 F   0  0  0  0  0  0  0  0  0  0  0  0
  1  2  1  0  0  0  0
  1  5  2  0  0  0  0
  2  6  2  0  0  0  0
  3 14  2  0  0  0  0
  3 22  1  0  0  0  0
  4 15  1  0  0  0  0
  4 22  2  0  0  0  0
  5 24  1  0  0  0  0
  6 26  1  0  0  0  0
  7 16  2  0  0  0  0
  7 25  1  0  0  0  0
  8 11  2  0  0  0  0
  8 28  1  0  0  0  0
  9 12  1  0  0  0  0
  9 28  2  0  0  0  0
 10 13  2  0  0  0  0
 10 29  1  0  0  0  0
 11 31  1  0  0  0  0
 12 31  2  0  0  0  0
 13 32  1  0  0  0  0
 14 33  1  0  0  0  0
 15 33  2  0  0  0  0
 16 34  1  0  0  0  0
 17 18  2  0  0  0  0
 17 35  1  0  0  0  0
 18 36  1  0  0  0  0
 19 27  1  0  0  0  0
 19 34  2  0  0  0  0
 20 29  2  0  0  0  0
 20 30  1  0  0  0  0
 21 36  2  0  0  0  0
 21 37  1  0  0  0  0
 22 38  1  0  0  0  0
 23 38  1  0  0  0  0
 23 39  2  0  0  0  0
 23 40  1  0  0  0  0
 24 26  2  0  0  0  0
 24 45  1  0  0  0  0
 25 27  2  0  0  0  0
 25 46  1  0  0  0  0
 26 54  1  0  0  0  0
 27 47  1  0  0  0  0
 28 63  1  0  0  0  0
 29 64  1  0  0  0  0
 30 32  2  0  0  0  0
 30 57  1  0  0  0  0
 31 74  1  0  0  0  0
 32 75  1  0  0  0  0
 33 84  1  0  0  0  0
 34 85  1  0  0  0  0
 35 37  2  0  0  0  0
 35 84  1  0  0  0  0
 36 86  1  0  0  0  0
 37 87  1  0  0  0  0
 38 68  2  0  0  0  0
 39 69  1  0  0  0  0
 39 72  1  0  0  0  0
 40 73  1  0  0  0  0
 40 79  2  0  0  0  0
 41 55  1  0  0  0  0
 41 76  1  0  0  0  0
 41 80  2  0  0  0  0
 42 65  1  0  0  0  0
 42 70  1  0  0  0  0
 42 81  2  0  0  0  0
 43 66  1  0  0  0  0
 43 77  1  0  0  0  0
 43 82  2  0  0  0  0
 44 71  1  0  0  0  0
 44 74  1  0  0  0  0
 44 83  2  0  0  0  0
 45 48  1  0  0  0  0
 46 55  1  0  0  0  0
 47 70  1  0  0  0  0
 48 50  1  0  0  0  0
 49 51  1  0  0  0  0
 49 52  1  0  0  0  0
 50 54  1  0  0  0  0
 51 56  1  0  0  0  0
 52 71  1  0  0  0  0
 53 56  1  0  0  0  0
 53 71  1  0  0  0  0
 54 76  1  0  0  0  0
 55 70  1  0  0  0  0
 56 69  1  0  0  0  0
 58 66  1  0  0  0  0
 59 67  1  0  0  0  0
 60 67  1  0  0  0  0
 61 67  1  0  0  0  0
 62 78  1  0  0  0  0
 63 75  1  0  0  0  0
 64 85  1  0  0  0  0
 65 67  1  0  0  0  0
 65 77  1  0  0  0  0
 66 78  1  0  0  0  0
 68 69  1  0  0  0  0
M  CHG  1  78   1
M  ISO  4  44 100  64 101  74 100  85 101
M  END
> <Batch ID>
0131

> <Smiles>
CNC(C)C(=O)NC(C(=O)N1Cc2cc([101O:1][101CH2:1]c3ccc(NCc4ccc([100NH:0][100C:0](=O)N5CCCC(n6nc(-c7ccc(Oc8ccc(F)cc8F)cc7)c(C(N)=O)c6N)C5)cc4)c(C)c3)ccc2CC1C(=O)NC1CCCc2ccccc21)C(C)(C)C

> <Shape>
0.280

> <Color>
0.076

> <Negative vol penalty>
0.000

$$$$

  -OEChem-04052320503D

 92101  0     1  0  0  0  0  0999 V2000
  -32.8024  -31.1001   16.9192 C   0  0  0  0  0  0  0  0  0  0  0  0
  -32.0216  -30.1587   17.5822 C   0  0  0  0  0  0  0  0  0  0  0  0
  -22.9878   -9.9174   19.9796 C   0  0  0  0  0  0  0  0  0  0  0  0
  -23.7241   -9.9454   22.2805 C   0  0  0  0  0  0  0  0  0  0  0  0
  -33.1678  -30.8895   15.5902 C   0  0  0  0  0  0  0  0  0  0  0  0
  -31.6048  -29.0067   16.9162 C   0  0  0  0  0  0  0  0  0  0  0  0
  -32.2617  -20.9337   22.1350 C   0  0  0  0  0  0  0  0  0  0  0  0
  -30.8801  -23.4219   19.3225 C   0  0  0  0  0  0  0  0  0  0  0  0
  -31.5955  -19.7726   21.7416 C   0  0  0  0  0  0  0  0  0  0  0  0
  -22.2145   -8.7864   20.2409 C   0  0  0  0  0  0  0  0  0  0  0  0
  -22.9507   -8.8144   22.5418 C   0  0  0  0  0  0  0  0  0  0  0  0
  -29.7551  -22.7349   19.7766 C   0  0  0  0  0  0  0  0  0  0  0  0
  -21.4528   -5.7228   23.7284 C   0  0  0  0  0  0  0  0  0  0  0  0
  -22.0350   -4.6971   24.4730 C   0  0  0  0  0  0  0  0  0  0  0  0
  -30.2948  -19.8387   23.7684 C   0  0  0  0  0  0  0  0  0  0  0  0
  -29.5682  -21.6383   17.6361 C   0  0  0  0  0  0  0  0  0  0  0  0
  -23.7517   -4.4505   22.7909 C   0  0  0  0  0  0  0  0  0  0  0  0
  -23.7427  -10.4969   20.9995 C   0  0  0  0  0  0  0  0  0  0  0  0
  -24.1452  -13.0110   20.8409 C   0  0  0  0  0  0  0  0  0  0  0  0
  -32.7633  -29.7297   14.9106 C   0  0  0  0  0  0  0  0  0  0  0  0
  -31.3520  -23.2300   18.0160 C   0  0  0  0  0  0  0  0  0  0  0  0
  -31.9639  -28.7810   15.5765 C   0  0  0  0  0  0  0  0  0  0  0  0
  -31.9651  -21.5574   23.3589 C   0  0  0  0  0  0  0  0  0  0  0  0
  -30.9474  -21.0162   24.1633 C   0  0  0  0  0  0  0  0  0  0  0  0
  -30.7010  -22.3221   17.1687 C   0  0  0  0  0  0  0  0  0  0  0  0
  -30.6178  -19.2205   22.5622 C   0  0  0  0  0  0  0  0  0  0  0  0
  -22.1959   -8.2349   21.5219 C   0  0  0  0  0  0  0  0  0  0  0  0
  -29.0972  -21.8451   18.9324 C   0  0  0  0  0  0  0  0  0  0  0  0
  -22.0199   -6.1123   22.5150 C   0  0  0  0  0  0  0  0  0  0  0  0
  -23.1845   -4.0609   24.0043 C   0  0  0  0  0  0  0  0  0  0  0  0
  -23.1694   -5.4762   22.0463 C   0  0  0  0  0  0  0  0  0  0  0  0
  -24.5423  -11.6649   20.7301 C   0  0  0  0  0  0  0  0  0  0  0  0
  -25.2584  -13.7284   20.4768 C   0  0  0  0  0  0  0  0  0  0  0  0
  -22.8830  -13.5634   21.2376 C   0  0  0  0  0  0  0  0  0  0  0  0
  -31.7257  -25.0953   15.4695 C   0  0  0  0  0  0  0  0  0  0  0  0
  -33.1427  -22.4547   14.2279 C   0  0  0  0  0  0  0  0  0  0  0  0
  -33.4833  -19.0593   14.2687 C   0  0  0  0  0  0  0  0  0  0  0  0
  -30.7624  -14.6219   20.7066 C   0  0  0  0  0  0  0  0  0  0  0  0
  -33.1434  -29.5685   13.4600 C   0  0  0  0  0  0  0  0  0  0  0  0
  -32.5827  -23.9586   17.5503 C   0  0  0  0  0  0  0  0  0  0  0  0
  -30.5687  -21.6753   25.4599 C   0  0  0  0  0  0  0  0  0  0  0  0
  -31.1795  -22.0652   15.7639 C   0  0  0  0  0  0  0  0  0  0  0  0
  -32.9741  -28.1430   12.9408 C   0  0  0  0  0  0  0  0  0  0  0  0
  -29.5935  -12.2245   18.3480 C   0  0  0  0  0  0  0  0  0  0  0  0
  -31.6238  -27.5762   13.3678 C   0  0  0  0  0  0  0  0  0  0  0  0
  -28.1451  -11.9719   18.7704 C   0  0  0  0  0  0  0  0  0  0  0  0
  -30.5032  -12.4442   19.5547 C   0  0  0  0  0  0  0  0  0  0  0  0
  -28.6051  -13.2429   20.9086 C   0  0  0  0  0  0  0  0  0  0  0  0
  -30.7993  -23.1757   25.3986 C   0  0  0  0  0  0  0  0  0  0  0  0
  -31.5129  -27.5070   14.8957 C   0  0  1  0  0  0  0  0  0  0  0  0
  -32.7154  -22.8142   23.7721 C   0  0  2  0  0  0  0  0  0  0  0  0
  -32.6712  -24.0716   16.0315 C   0  0  1  0  0  0  0  0  0  0  0  0
  -27.6392  -13.0713   19.7237 C   0  0  2  0  0  0  0  0  0  0  0  0
  -34.5061  -21.4971   24.9152 C   0  0  0  0  0  0  0  0  0  0  0  0
  -34.6864  -17.1861   13.1105 C   0  0  0  0  0  0  0  0  0  0  0  0
  -32.7599  -25.2478   26.6839 C   0  0  0  0  0  0  0  0  0  0  0  0
  -31.4308  -25.6817   24.5817 C   0  0  0  0  0  0  0  0  0  0  0  0
  -31.2378  -22.7004   11.8571 C   0  0  0  0  0  0  0  0  0  0  0  0
  -31.8141  -20.3436   11.2392 C   0  0  0  0  0  0  0  0  0  0  0  0
  -33.5877  -22.0978   11.2492 C   0  0  0  0  0  0  0  0  0  0  0  0
  -34.8503  -18.2404   16.7626 C   0  0  0  0  0  0  0  0  0  0  0  0
  -34.2216  -22.5378   23.8870 C   0  0  0  0  0  0  0  0  0  0  0  0
  -27.0304  -19.0258   19.8429 C   0  0  0  0  0  0  0  0  0  0  0  0
  -30.8663  -16.7910   21.9080 C   0  0  0  0  0  0  0  0  0  0  0  0
  -27.7968  -18.8497   21.1452 C   0  0  0  0  0  0  0  0  0  0  0  0
  -27.7577  -19.8835   18.8147 C   0  0  0  0  0  0  0  0  0  1  0  0
  -29.9106  -17.9747   22.1478 C   0  0  2  0  0  0  0  0  0  0  0  0
  -32.6672  -21.2533   13.4473 C   0  0  1  0  0  0  0  0  0  0  0  0
  -34.7139  -18.1703   14.2696 C   0  0  2  0  0  0  0  0  0  0  0  0
  -32.5706  -24.9008   25.2160 C   0  0  0  0  0  0  0  0  0  0  0  0
  -32.3163  -21.6048   11.9739 C   0  0  0  0  0  0  0  0  0  0  0  0
  -25.8087  -11.5324   20.3269 N   0  0  0  0  0  0  0  0  0  0  0  0
  -26.2171  -12.8045   20.1812 N   0  0  0  0  0  0  0  0  0  0  0  0
  -32.3833  -22.8064   15.3528 N   0  0  0  0  0  0  0  0  0  0  0  0
  -29.9680  -13.5001   20.4175 N   0  0  0  0  0  0  0  0  0  0  0  0
  -25.5009  -15.0532   20.3838 N   0  0  0  0  0  0  0  0  0  0  0  0
  -21.8465  -12.6840   21.5792 N   0  0  0  0  0  0  0  0  0  0  0  0
  -32.2515  -26.3715   15.4052 N   0  0  0  0  0  0  0  0  0  0  0  0
  -33.7052  -20.2379   13.5883 N   0  0  0  0  0  0  0  0  0  0  0  0
  -30.1767  -15.5786   21.5266 N   0  0  0  0  0  0  0  0  0  0  0  0
  -32.2594  -23.4278   25.1088 N   0  3  1  0  0  0  0  0  0  0  0  0
  -34.7932  -17.3969   15.5410 N   0  3  0  0  0  0  0  0  0  0  0  0
  -29.0808  -18.1558   20.9043 N   0  3  0  0  0  0  0  0  0  0  0  0
  -22.6753  -14.8000   21.2719 O   0  0  0  0  0  0  0  0  0  0  0  0
  -30.6027  -24.7524   15.1188 O   0  0  0  0  0  0  0  0  0  0  0  0
  -34.1549  -23.0546   13.8575 O   0  0  0  0  0  0  0  0  0  0  0  0
  -32.4294  -18.7385   14.8136 O   0  0  0  0  0  0  0  0  0  0  0  0
  -31.9068  -14.7630   20.2622 O   0  0  0  0  0  0  0  0  0  0  0  0
  -21.4411   -7.1314   21.7773 O   0  0  0  0  0  0  0  0  0  0  0  0
  -27.9908  -21.1691   19.3760 O   0  0  0  0  0  0  0  0  0  1  0  0
  -23.7444   -3.0770   24.7202 F   0  0  0  0  0  0  0  0  0  0  0  0
  -23.7195   -5.8469   20.8819 F   0  0  0  0  0  0  0  0  0  0  0  0
  1  2  1  0  0  0  0
  1  5  2  0  0  0  0
  2  6  2  0  0  0  0
  3 10  2  0  0  0  0
  3 18  1  0  0  0  0
  4 11  1  0  0  0  0
  4 18  2  0  0  0  0
  5 20  1  0  0  0  0
  6 22  1  0  0  0  0
  7  9  2  0  0  0  0
  7 23  1  0  0  0  0
  8 12  2  0  0  0  0
  8 21  1  0  0  0  0
  9 26  1  0  0  0  0
 10 27  1  0  0  0  0
 11 27  2  0  0  0  0
 12 28  1  0  0  0  0
 13 14  2  0  0  0  0
 13 29  1  0  0  0  0
 14 30  1  0  0  0  0
 15 24  1  0  0  0  0
 15 26  2  0  0  0  0
 16 25  1  0  0  0  0
 16 28  2  0  0  0  0
 17 30  2  0  0  0  0
 17 31  1  0  0  0  0
 18 32  1  0  0  0  0
 19 32  1  0  0  0  0
 19 33  2  0  0  0  0
 19 34  1  0  0  0  0
 20 22  2  0  0  0  0
 20 39  1  0  0  0  0
 21 25  2  0  0  0  0
 21 40  1  0  0  0  0
 22 50  1  0  0  0  0
 23 24  2  0  0  0  0
 23 51  1  0  0  0  0
 24 41  1  0  0  0  0
 25 42  1  0  0  0  0
 26 67  1  0  0  0  0
 27 89  1  0  0  0  0
 28 90  1  0  0  0  0
 29 31  2  0  0  0  0
 29 89  1  0  0  0  0
 30 91  1  0  0  0  0
 31 92  1  0  0  0  0
 32 72  2  0  0  0  0
 33 73  1  0  0  0  0
 33 76  1  0  0  0  0
 34 77  1  0  0  0  0
 34 84  2  0  0  0  0
 35 52  1  0  0  0  0
 35 78  1  0  0  0  0
 35 85  2  0  0  0  0
 36 68  1  0  0  0  0
 36 74  1  0  0  0  0
 36 86  2  0  0  0  0
 37 69  1  0  0  0  0
 37 79  1  0  0  0  0
 37 87  2  0  0  0  0
 38 75  1  0  0  0  0
 38 80  1  0  0  0  0
 38 88  2  0  0  0  0
 39 43  1  0  0  0  0
 40 52  1  0  0  0  0
 41 49  1  0  0  0  0
 42 74  1  0  0  0  0
 43 45  1  0  0  0  0
 44 46  1  0  0  0  0
 44 47  1  0  0  0  0
 45 50  1  0  0  0  0
 46 53  1  0  0  0  0
 47 75  1  0  0  0  0
 48 53  1  0  0  0  0
 48 75  1  0  0  0  0
 49 81  1  0  0  0  0
 50 78  1  0  0  0  0
 51 62  1  0  0  0  0
 51 81  1  0  0  0  0
 52 74  1  0  0  0  0
 53 73  1  0  0  0  0
 54 62  1  0  0  0  0
 55 69  1  0  0  0  0
 56 70  1  0  0  0  0
 57 70  1  0  0  0  0
 58 71  1  0  0  0  0
 59 71  1  0  0  0  0
 60 71  1  0  0  0  0
 61 82  1  0  0  0  0
 63 65  1  0  0  0  0
 63 66  1  0  0  0  0
 64 67  1  0  0  0  0
 64 80  1  0  0  0  0
 65 83  1  0  0  0  0
 66 90  1  0  0  0  0
 67 83  1  0  0  0  0
 68 71  1  0  0  0  0
 68 79  1  0  0  0  0
 69 82  1  0  0  0  0
 70 81  1  0  0  0  0
 72 73  1  0  0  0  0
M  CHG  3  81   1  82   1  83   1
M  ISO  4  38 100  66 101  80 100  90 101
M  END
> <Batch ID>
0131

> <Smiles>
CCC1c2ccc(C(C[100NH:0][100C:0](=O)N3CCCC(n4nc(-c5ccc(Oc6ccc(F)cc6F)cc5)c(C(N)=O)c4N)C3)NCC[101CH2:1][101O:1]c3ccc4c(c3)CN(C(=O)C(NC(=O)C(C)NC)C(C)(C)C)C(C(=O)NC3CCCc5ccccc53)C4)cc2CCN1C(C)C

> <Shape>
0.219

> <Color>
0.180

> <Negative vol penalty>
0.000

$$$$

  -OEChem-04052320503D

 82 90  0     1  0  0  0  0  0999 V2000
  -19.6469  -14.6484   17.1169 C   0  0  0  0  0  0  0  0  0  0  0  0
  -20.4821  -15.7500   17.2727 C   0  0  0  0  0  0  0  0  0  0  0  0
  -20.2366  -26.7166   23.2675 C   0  0  0  0  0  0  0  0  0  0  0  0
  -20.4919  -28.5543   21.7201 C   0  0  0  0  0  0  0  0  0  0  0  0
  -19.8885  -13.4835   17.8439 C   0  0  0  0  0  0  0  0  0  0  0  0
  -21.5587  -15.6878   18.1566 C   0  0  0  0  0  0  0  0  0  0  0  0
  -27.0236  -18.3722   17.4968 C   0  0  0  0  0  0  0  0  0  0  0  0
  -29.3771  -24.5708   21.5096 C   0  0  0  0  0  0  0  0  0  0  0  0
  -31.0315  -24.6479   19.7506 C   0  0  0  0  0  0  0  0  0  0  0  0
  -28.7415  -23.5094   20.8654 C   0  0  0  0  0  0  0  0  0  0  0  0
  -30.3959  -23.5865   19.1063 C   0  0  0  0  0  0  0  0  0  0  0  0
  -18.8512  -26.8729   23.2246 C   0  0  0  0  0  0  0  0  0  0  0  0
  -19.1064  -28.7106   21.6771 C   0  0  0  0  0  0  0  0  0  0  0  0
  -27.5575  -19.5520   18.0132 C   0  0  0  0  0  0  0  0  0  0  0  0
  -16.6932  -30.0829   23.6068 C   0  0  0  0  0  0  0  0  0  0  0  0
  -16.1840  -31.3782   23.6994 C   0  0  0  0  0  0  0  0  0  0  0  0
  -28.5922  -18.2969   19.7946 C   0  0  0  0  0  0  0  0  0  0  0  0
  -15.1455  -31.1248   21.5327 C   0  0  0  0  0  0  0  0  0  0  0  0
  -21.0569  -27.5573   22.5153 C   0  0  0  0  0  0  0  0  0  0  0  0
  -23.2787  -26.5843   21.7249 C   0  0  0  0  0  0  0  0  0  0  0  0
  -20.9743  -13.4037   18.7300 C   0  0  0  0  0  0  0  0  0  0  0  0
  -27.2613  -17.1452   18.1326 C   0  0  0  0  0  0  0  0  0  0  0  0
  -21.8143  -14.5212   18.8972 C   0  0  0  0  0  0  0  0  0  0  0  0
  -28.0622  -17.1026   19.2828 C   0  0  0  0  0  0  0  0  0  0  0  0
  -30.5221  -25.1401   20.9522 C   0  0  0  0  0  0  0  0  0  0  0  0
  -29.2509  -23.0172   19.6637 C   0  0  0  0  0  0  0  0  0  0  0  0
  -18.2861  -27.8699   22.4294 C   0  0  0  0  0  0  0  0  0  0  0  0
  -28.3396  -19.5149   19.1639 C   0  0  0  0  0  0  0  0  0  0  0  0
  -16.4287  -29.3086   22.4772 C   0  0  0  0  0  0  0  0  0  0  0  0
  -15.4101  -31.8991   22.6623 C   0  0  0  0  0  0  0  0  0  0  0  0
  -15.6548  -29.8295   21.4401 C   0  0  0  0  0  0  0  0  0  0  0  0
  -22.4881  -27.3967   22.5596 C   0  0  0  0  0  0  0  0  0  0  0  0
  -24.5630  -26.7817   22.1700 C   0  0  0  0  0  0  0  0  0  0  0  0
  -22.8871  -25.7277   20.6438 C   0  0  0  0  0  0  0  0  0  0  0  0
  -25.4323  -14.9446   19.5168 C   0  0  0  0  0  0  0  0  0  0  0  0
  -28.2247  -13.3052   19.7086 C   0  0  0  0  0  0  0  0  0  0  0  0
  -31.6353  -13.3919   19.7944 C   0  0  0  0  0  0  0  0  0  0  0  0
  -28.6506  -30.1693   23.8908 C   0  0  0  0  0  0  0  0  0  0  0  0
  -21.1675  -12.1394   19.5294 C   0  0  0  0  0  0  0  0  0  0  0  0
  -26.7002  -15.8781   17.5478 C   0  0  0  0  0  0  0  0  0  0  0  0
  -28.3640  -15.8083   19.9915 C   0  0  0  0  0  0  0  0  0  0  0  0
  -22.5504  -12.0265   20.1659 C   0  0  0  0  0  0  0  0  0  0  0  0
  -26.2885  -29.0906   26.3267 C   0  0  0  0  0  0  0  0  0  0  0  0
  -22.9346  -13.3378   20.8441 C   0  0  0  0  0  0  0  0  0  0  0  0
  -25.1523  -28.4928   25.4949 C   0  0  0  0  0  0  0  0  0  0  0  0
  -26.9066  -30.3090   25.6445 C   0  0  0  0  0  0  0  0  0  0  0  0
  -26.2194  -29.4835   23.4264 C   0  0  0  0  0  0  0  0  0  0  0  0
  -23.0070  -14.4839   19.8279 C   0  0  1  0  0  0  0  0  0  0  0  0
  -26.5813  -14.7504   18.5683 C   0  0  1  0  0  0  0  0  0  0  0  0
  -25.6016  -28.2188   24.0470 C   0  0  2  0  0  0  0  0  0  0  0  0
  -33.6395  -11.8951   19.9943 C   0  0  0  0  0  0  0  0  0  0  0  0
  -27.6942  -12.9979   22.6976 C   0  0  0  0  0  0  0  0  0  0  0  0
  -30.0994  -12.3667   22.9888 C   0  0  0  0  0  0  0  0  0  0  0  0
  -28.6016  -10.9511   21.5833 C   0  0  0  0  0  0  0  0  0  0  0  0
  -32.6624  -14.2198   17.1452 C   0  0  0  0  0  0  0  0  0  0  0  0
  -31.2023  -26.2749   21.6404 C   0  0  0  0  0  0  0  0  0  0  0  0
  -28.5676  -21.8743   18.9722 C   0  0  0  0  0  0  0  0  0  1  0  0
  -30.2866  -29.9595   22.0364 C   0  0  0  0  0  0  0  0  0  0  0  0
  -31.1112  -28.7005   22.2291 C   0  0  0  0  0  0  0  0  0  0  0  0
  -29.3410  -13.2096   20.7204 C   0  0  1  0  0  0  0  0  0  0  0  0
  -32.6825  -12.5927   19.0402 C   0  0  2  0  0  0  0  0  0  0  0  0
  -28.9269  -12.4061   21.9855 C   0  0  0  0  0  0  0  0  0  0  0  0
  -23.2098  -28.0607   23.4664 N   0  0  0  0  0  0  0  0  0  0  0  0
  -24.4673  -27.6657   23.2042 N   0  0  0  0  0  0  0  0  0  0  0  0
  -27.7874  -14.5973   19.3845 N   0  0  0  0  0  0  0  0  0  0  0  0
  -27.3127  -29.9818   24.2756 N   0  0  0  0  0  0  0  0  0  0  0  0
  -25.7534  -26.2836   21.7737 N   0  0  0  0  0  0  0  0  0  0  0  0
  -21.5265  -25.6419   20.3185 N   0  0  0  0  0  0  0  0  0  0  0  0
  -24.2382  -14.4110   19.0707 N   0  0  0  0  0  0  0  0  0  0  0  0
  -30.4892  -12.6564   20.0105 N   0  0  0  0  0  0  0  0  0  0  0  0
  -28.9523  -29.8285   22.5779 N   0  0  0  0  0  0  0  0  0  0  0  0
  -33.4752  -13.4874   18.1502 N   0  3  0  0  0  0  0  0  0  0  0  0
  -30.4788  -27.5690   21.5023 N   0  3  0  0  0  0  0  0  0  0  0  0
  -23.7173  -25.0458   19.9964 O   0  0  0  0  0  0  0  0  0  0  0  0
  -25.6157  -15.5337   20.5756 O   0  0  0  0  0  0  0  0  0  0  0  0
  -27.7627  -12.2718   19.2184 O   0  0  0  0  0  0  0  0  0  0  0  0
  -31.8172  -14.5514   20.1590 O   0  0  0  0  0  0  0  0  0  0  0  0
  -29.5134  -30.6029   24.6617 O   0  0  0  0  0  0  0  0  0  0  0  0
  -16.9343  -28.0225   22.3871 O   0  0  0  0  0  0  0  0  0  0  0  0
  -28.8615  -20.6650   19.6705 O   0  0  0  0  0  0  0  0  0  1  0  0
  -14.9199  -33.1424   22.7520 F   0  0  0  0  0  0  0  0  0  0  0  0
  -15.3963  -29.0899   20.3529 F   0  0  0  0  0  0  0  0  0  0  0  0
  1  2  1  0  0  0  0
  1  5  2  0  0  0  0
  2  6  2  0  0  0  0
  3 12  2  0  0  0  0
  3 19  1  0  0  0  0
  4 13  1  0  0  0  0
  4 19  2  0  0  0  0
  5 21  1  0  0  0  0
  6 23  1  0  0  0  0
  7 14  2  0  0  0  0
  7 22  1  0  0  0  0
  8 10  2  0  0  0  0
  8 25  1  0  0  0  0
  9 11  1  0  0  0  0
  9 25  2  0  0  0  0
 10 26  1  0  0  0  0
 11 26  2  0  0  0  0
 12 27  1  0  0  0  0
 13 27  2  0  0  0  0
 14 28  1  0  0  0  0
 15 16  2  0  0  0  0
 15 29  1  0  0  0  0
 16 30  1  0  0  0  0
 17 24  1  0  0  0  0
 17 28  2  0  0  0  0
 18 30  2  0  0  0  0
 18 31  1  0  0  0  0
 19 32  1  0  0  0  0
 20 32  1  0  0  0  0
 20 33  2  0  0  0  0
 20 34  1  0  0  0  0
 21 23  2  0  0  0  0
 21 39  1  0  0  0  0
 22 24  2  0  0  0  0
 22 40  1  0  0  0  0
 23 48  1  0  0  0  0
 24 41  1  0  0  0  0
 25 56  1  0  0  0  0
 26 57  1  0  0  0  0
 27 79  1  0  0  0  0
 28 80  1  0  0  0  0
 29 31  2  0  0  0  0
 29 79  1  0  0  0  0
 30 81  1  0  0  0  0
 31 82  1  0  0  0  0
 32 63  2  0  0  0  0
 33 64  1  0  0  0  0
 33 67  1  0  0  0  0
 34 68  1  0  0  0  0
 34 74  2  0  0  0  0
 35 49  1  0  0  0  0
 35 69  1  0  0  0  0
 35 75  2  0  0  0  0
 36 60  1  0  0  0  0
 36 65  1  0  0  0  0
 36 76  2  0  0  0  0
 37 61  1  0  0  0  0
 37 70  1  0  0  0  0
 37 77  2  0  0  0  0
 38 66  1  0  0  0  0
 38 71  1  0  0  0  0
 38 78  2  0  0  0  0
 39 42  1  0  0  0  0
 40 49  1  0  0  0  0
 41 65  1  0  0  0  0
 42 44  1  0  0  0  0
 43 45  1  0  0  0  0
 43 46  1  0  0  0  0
 44 48  1  0  0  0  0
 45 50  1  0  0  0  0
 46 66  1  0  0  0  0
 47 50  1  0  0  0  0
 47 66  1  0  0  0  0
 48 69  1  0  0  0  0
 49 65  1  0  0  0  0
 50 64  1  0  0  0  0
 51 61  1  0  0  0  0
 52 62  1  0  0  0  0
 53 62  1  0  0  0  0
 54 62  1  0  0  0  0
 55 72  1  0  0  0  0
 56 73  1  0  0  0  0
 57 80  1  0  0  0  0
 58 59  1  0  0  0  0
 58 71  1  0  0  0  0
 59 73  1  0  0  0  0
 60 62  1  0  0  0  0
 60 70  1  0  0  0  0
 61 72  1  0  0  0  0
 63 64  1  0  0  0  0
M  CHG  2  72   1  73   1
M  ISO  4  38 100  57 101  71 100  80 101
M  END
> <Batch ID>
0131

> <Smiles>
CNC(C)C(=O)NC(C(=O)N1Cc2cc([101O:1][101CH2:1]c3ccc(CNCC[100NH:0][100C:0](=O)N4CCCC(n5nc(-c6ccc(Oc7ccc(F)cc7F)cc6)c(C(N)=O)c5N)C4)cc3)ccc2CC1C(=O)NC1CCCc2ccccc21)C(C)(C)C

> <Shape>
0.238

> <Color>
0.075

> <Negative vol penalty>
0.000

$$$$

  -OEChem-04052320503D

 82 91  0     1  0  0  0  0  0999 V2000
  -28.6224  -32.2590   19.7087 C   0  0  0  0  0  0  0  0  0  0  0  0
  -28.5924  -30.9350   20.1349 C   0  0  0  0  0  0  0  0  0  0  0  0
  -23.0945   -9.8923   19.8833 C   0  0  0  0  0  0  0  0  0  0  0  0
  -23.9084   -9.7861   22.1556 C   0  0  0  0  0  0  0  0  0  0  0  0
  -27.5918  -33.1281   20.0643 C   0  0  0  0  0  0  0  0  0  0  0  0
  -27.5322  -30.4796   20.9179 C   0  0  0  0  0  0  0  0  0  0  0  0
  -29.0758  -20.0637   23.8430 C   0  0  0  0  0  0  0  0  0  0  0  0
  -28.1523  -18.9027   21.9361 C   0  0  0  0  0  0  0  0  0  0  0  0
  -25.7789  -25.9818   19.3880 C   0  0  0  0  0  0  0  0  0  0  0  0
  -28.2055  -21.1297   23.6156 C   0  0  0  0  0  0  0  0  0  0  0  0
  -27.2819  -19.9687   21.7086 C   0  0  0  0  0  0  0  0  0  0  0  0
  -22.3835   -8.7090   20.0826 C   0  0  0  0  0  0  0  0  0  0  0  0
  -23.1973   -8.6028   22.3549 C   0  0  0  0  0  0  0  0  0  0  0  0
  -26.5179  -24.8551   19.7461 C   0  0  0  0  0  0  0  0  0  0  0  0
  -20.0036   -7.6934   22.9824 C   0  0  0  0  0  0  0  0  0  0  0  0
  -19.2758   -7.5679   24.1657 C   0  0  0  0  0  0  0  0  0  0  0  0
  -24.9775  -24.4263   21.5524 C   0  0  0  0  0  0  0  0  0  0  0  0
  -20.5786   -5.6221   24.7606 C   0  0  0  0  0  0  0  0  0  0  0  0
  -23.8570  -10.4309   20.9198 C   0  0  0  0  0  0  0  0  0  0  0  0
  -24.1378  -12.9663   20.9387 C   0  0  0  0  0  0  0  0  0  0  0  0
  -29.0493  -18.9502   23.0032 C   0  0  0  0  0  0  0  0  0  0  0  0
  -26.5136  -32.6806   20.8440 C   0  0  0  0  0  0  0  0  0  0  0  0
  -24.6380  -26.3460   20.1174 C   0  0  0  0  0  0  0  0  0  0  0  0
  -26.4869  -31.3439   21.2854 C   0  0  0  0  0  0  0  0  0  0  0  0
  -24.2244  -25.5567   21.1999 C   0  0  0  0  0  0  0  0  0  0  0  0
  -27.3085  -21.0822   22.5484 C   0  0  0  0  0  0  0  0  0  0  0  0
  -22.4349   -8.0642   21.3184 C   0  0  0  0  0  0  0  0  0  0  0  0
  -26.1189  -24.0788   20.8302 C   0  0  0  0  0  0  0  0  0  0  0  0
  -21.0188   -6.7832   22.6881 C   0  0  0  0  0  0  0  0  0  0  0  0
  -19.5633   -6.5323   25.0548 C   0  0  0  0  0  0  0  0  0  0  0  0
  -21.3063   -5.7476   23.5772 C   0  0  0  0  0  0  0  0  0  0  0  0
  -24.5922  -11.6529   20.7143 C   0  0  0  0  0  0  0  0  0  0  0  0
  -25.2035  -13.7618   20.5951 C   0  0  0  0  0  0  0  0  0  0  0  0
  -22.8661  -13.4262   21.4152 C   0  0  0  0  0  0  0  0  0  0  0  0
  -23.7931  -28.8773   21.8443 C   0  0  0  0  0  0  0  0  0  0  0  0
  -20.9349  -27.3487   21.9719 C   0  0  0  0  0  0  0  0  0  0  0  0
  -19.2098  -24.4103   21.7812 C   0  0  0  0  0  0  0  0  0  0  0  0
  -30.6574  -14.9124   20.7025 C   0  0  0  0  0  0  0  0  0  0  0  0
  -25.4466  -33.6692   21.2428 C   0  0  0  0  0  0  0  0  0  0  0  0
  -23.8366  -27.5492   19.7019 C   0  0  0  0  0  0  0  0  0  0  0  0
  -22.9954  -25.8932   22.0030 C   0  0  0  0  0  0  0  0  0  0  0  0
  -24.1702  -33.0117   21.7614 C   0  0  0  0  0  0  0  0  0  0  0  0
  -29.5286  -12.6302   18.2268 C   0  0  0  0  0  0  0  0  0  0  0  0
  -31.4877  -18.0538   23.7460 C   0  0  0  0  0  0  0  0  0  0  0  0
  -24.5054  -31.9144   22.7666 C   0  0  0  0  0  0  0  0  0  0  0  0
  -28.1078  -12.2785   18.6714 C   0  0  0  0  0  0  0  0  0  0  0  0
  -31.9532  -16.8215   22.9485 C   0  0  0  0  0  0  0  0  0  0  0  0
  -30.4662  -12.8043   19.4196 C   0  0  0  0  0  0  0  0  0  0  0  0
  -28.5810  -13.4082   20.8851 C   0  0  0  0  0  0  0  0  0  0  0  0
  -30.0396  -17.7376   23.2623 C   0  0  2  0  0  0  0  0  0  0  0  0
  -25.3414  -30.8061   22.1153 C   0  0  1  0  0  0  0  0  0  0  0  0
  -22.9835  -28.1181   20.8315 C   0  0  1  0  0  0  0  0  0  0  0  0
  -27.5843  -13.2781   19.7204 C   0  0  2  0  0  0  0  0  0  0  0  0
  -30.7208  -17.0358   22.0425 C   0  0  2  0  0  0  0  0  0  0  0  0
  -16.8893  -23.4728   21.9650 C   0  0  0  0  0  0  0  0  0  0  0  0
  -21.0733  -27.6079   25.0090 C   0  0  0  0  0  0  0  0  0  0  0  0
  -19.2788  -25.8695   25.1694 C   0  0  0  0  0  0  0  0  0  0  0  0
  -18.8137  -28.0378   24.0272 C   0  0  0  0  0  0  0  0  0  0  0  0
  -19.2639  -23.4202   18.9927 C   0  0  0  0  0  0  0  0  0  0  0  0
  -26.3727  -22.2292   22.3035 C   0  0  0  0  0  0  0  0  0  1  0  0
  -20.3042  -26.3366   22.8975 C   0  0  1  0  0  0  0  0  0  0  0  0
  -17.9487  -24.0297   21.0268 C   0  0  2  0  0  0  0  0  0  0  0  0
  -19.8918  -26.9574   24.2620 C   0  0  0  0  0  0  0  0  0  0  0  0
  -25.8486  -11.6121   20.2629 N   0  0  0  0  0  0  0  0  0  0  0  0
  -26.1927  -12.9097   20.2008 N   0  0  0  0  0  0  0  0  0  0  0  0
  -22.2488  -27.0828   21.5614 N   0  0  0  0  0  0  0  0  0  0  0  0
  -29.9119  -13.7697   20.3723 N   0  0  0  0  0  0  0  0  0  0  0  0
  -25.3814  -15.0999   20.5947 N   0  0  0  0  0  0  0  0  0  0  0  0
  -21.8836  -12.4748   21.7218 N   0  0  0  0  0  0  0  0  0  0  0  0
  -24.4996  -29.9412   21.3167 N   0  0  0  0  0  0  0  0  0  0  0  0
  -19.2001  -25.7373   22.1557 N   0  0  0  0  0  0  0  0  0  0  0  0
  -30.0629  -15.7871   21.6061 N   0  0  0  0  0  0  0  0  0  0  0  0
  -18.2533  -22.9973   19.9961 N   0  3  0  0  0  0  0  0  0  0  0  0
  -22.6031  -14.6454   21.5490 O   0  0  0  0  0  0  0  0  0  0  0  0
  -23.7767  -28.5250   23.0179 O   0  0  0  0  0  0  0  0  0  0  0  0
  -20.2831  -28.3352   21.6202 O   0  0  0  0  0  0  0  0  0  0  0  0
  -20.1115  -23.6094   22.0182 O   0  0  0  0  0  0  0  0  0  0  0  0
  -31.7721  -15.1476   20.2235 O   0  0  0  0  0  0  0  0  0  0  0  0
  -21.7410   -6.9096   21.5133 O   0  0  0  0  0  0  0  0  0  0  0  0
  -26.8387  -22.9789   21.1822 O   0  0  0  0  0  0  0  0  0  1  0  0
  -18.8654   -6.4128   26.1918 F   0  0  0  0  0  0  0  0  0  0  0  0
  -22.2813   -4.8709   23.3005 F   0  0  0  0  0  0  0  0  0  0  0  0
  1  2  1  0  0  0  0
  1  5  2  0  0  0  0
  2  6  2  0  0  0  0
  3 12  2  0  0  0  0
  3 19  1  0  0  0  0
  4 13  1  0  0  0  0
  4 19  2  0  0  0  0
  5 22  1  0  0  0  0
  6 24  1  0  0  0  0
  7 10  2  0  0  0  0
  7 21  1  0  0  0  0
  8 11  1  0  0  0  0
  8 21  2  0  0  0  0
  9 14  2  0  0  0  0
  9 23  1  0  0  0  0
 10 26  1  0  0  0  0
 11 26  2  0  0  0  0
 12 27  1  0  0  0  0
 13 27  2  0  0  0  0
 14 28  1  0  0  0  0
 15 16  2  0  0  0  0
 15 29  1  0  0  0  0
 16 30  1  0  0  0  0
 17 25  1  0  0  0  0
 17 28  2  0  0  0  0
 18 30  2  0  0  0  0
 18 31  1  0  0  0  0
 19 32  1  0  0  0  0
 20 32  1  0  0  0  0
 20 33  2  0  0  0  0
 20 34  1  0  0  0  0
 21 50  1  0  0  0  0
 22 24  2  0  0  0  0
 22 39  1  0  0  0  0
 23 25  2  0  0  0  0
 23 40  1  0  0  0  0
 24 51  1  0  0  0  0
 25 41  1  0  0  0  0
 26 60  1  0  0  0  0
 27 79  1  0  0  0  0
 28 80  1  0  0  0  0
 29 31  2  0  0  0  0
 29 79  1  0  0  0  0
 30 81  1  0  0  0  0
 31 82  1  0  0  0  0
 32 64  2  0  0  0  0
 33 65  1  0  0  0  0
 33 68  1  0  0  0  0
 34 69  1  0  0  0  0
 34 74  2  0  0  0  0
 35 52  1  0  0  0  0
 35 70  1  0  0  0  0
 35 75  2  0  0  0  0
 36 61  1  0  0  0  0
 36 66  1  0  0  0  0
 36 76  2  0  0  0  0
 37 62  1  0  0  0  0
 37 71  1  0  0  0  0
 37 77  2  0  0  0  0
 38 67  1  0  0  0  0
 38 72  1  0  0  0  0
 38 78  2  0  0  0  0
 39 42  1  0  0  0  0
 40 52  1  0  0  0  0
 41 66  1  0  0  0  0
 42 45  1  0  0  0  0
 43 46  1  0  0  0  0
 43 48  1  0  0  0  0
 44 47  1  0  0  0  0
 44 50  1  0  0  0  0
 45 51  1  0  0  0  0
 46 53  1  0  0  0  0
 47 54  1  0  0  0  0
 48 67  1  0  0  0  0
 49 53  1  0  0  0  0
 49 67  1  0  0  0  0
 50 54  1  0  0  0  0
 51 70  1  0  0  0  0
 52 66  1  0  0  0  0
 53 65  1  0  0  0  0
 54 72  1  0  0  0  0
 55 62  1  0  0  0  0
 56 63  1  0  0  0  0
 57 63  1  0  0  0  0
 58 63  1  0  0  0  0
 59 73  1  0  0  0  0
 60 80  1  0  0  0  0
 61 63  1  0  0  0  0
 61 71  1  0  0  0  0
 62 73  1  0  0  0  0
 64 65  1  0  0  0  0
M  CHG  1  73   1
M  ISO  4  38 100  60 101  72 100  80 101
M  END
> <Batch ID>
0131

> <Smiles>
CNC(C)C(=O)NC(C(=O)N1Cc2cc([101O:1][101CH2:1]c3ccc(C4CCC4[100NH:0][100C:0](=O)N4CCCC(n5nc(-c6ccc(Oc7ccc(F)cc7F)cc6)c(C(N)=O)c5N)C4)cc3)ccc2CC1C(=O)NC1CCCc2ccccc21)C(C)(C)C

> <Shape>
0.298

> <Color>
0.208

> <Negative vol penalty>
0.000

$$$$

  -OEChem-04052320503D

 89 98  0     1  0  0  0  0  0999 V2000
  -27.7525  -32.7864   27.1783 C   0  0  0  0  0  0  0  0  0  0  0  0
  -27.9435  -31.6954   26.3365 C   0  0  0  0  0  0  0  0  0  0  0  0
  -23.9866  -12.8719   20.7727 C   0  0  0  0  0  0  0  0  0  0  0  0
  -26.3703  -13.2649   20.7912 C   0  0  0  0  0  0  0  0  0  0  0  0
  -26.4605  -33.2182   27.4756 C   0  0  0  0  0  0  0  0  0  0  0  0
  -26.8426  -31.0348   25.7924 C   0  0  0  0  0  0  0  0  0  0  0  0
  -27.4209  -30.0306   20.8627 C   0  0  0  0  0  0  0  0  0  0  0  0
  -24.2065  -11.5573   20.3614 C   0  0  0  0  0  0  0  0  0  0  0  0
  -26.5903  -11.9503   20.3800 C   0  0  0  0  0  0  0  0  0  0  0  0
  -28.2295  -28.9465   20.5243 C   0  0  0  0  0  0  0  0  0  0  0  0
  -24.1551   -7.9917   19.6549 C   0  0  0  0  0  0  0  0  0  0  0  0
  -23.4302   -6.9836   20.2903 C   0  0  0  0  0  0  0  0  0  0  0  0
  -26.2622  -27.5908   20.1912 C   0  0  0  0  0  0  0  0  0  0  0  0
  -24.4049   -7.6175   22.4081 C   0  0  0  0  0  0  0  0  0  0  0  0
  -25.0685  -13.7257   20.9876 C   0  0  0  0  0  0  0  0  0  0  0  0
  -24.1940  -15.5107   22.5866 C   0  0  0  0  0  0  0  0  0  0  0  0
  -25.3435  -32.5686   26.9271 C   0  0  0  0  0  0  0  0  0  0  0  0
  -26.0248  -29.8997   20.8785 C   0  0  0  0  0  0  0  0  0  0  0  0
  -25.5345  -31.4574   26.0837 C   0  0  0  0  0  0  0  0  0  0  0  0
  -25.4380  -28.6755   20.5277 C   0  0  0  0  0  0  0  0  0  0  0  0
  -25.5083  -11.0965   20.1651 C   0  0  0  0  0  0  0  0  0  0  0  0
  -27.6504  -27.7255   20.1913 C   0  0  0  0  0  0  0  0  0  0  0  0
  -25.0049   -8.8128   20.3961 C   0  0  0  0  0  0  0  0  0  0  0  0
  -23.5551   -6.7964   21.6669 C   0  0  0  0  0  0  0  0  0  0  0  0
  -25.1298   -8.6257   21.7727 C   0  0  0  0  0  0  0  0  0  0  0  0
  -24.8419  -15.0839   21.4119 C   0  0  0  0  0  0  0  0  0  0  0  0
  -24.2375  -16.8820   22.5238 C   0  0  0  0  0  0  0  0  0  0  0  0
  -23.6056  -14.7367   23.6403 C   0  0  0  0  0  0  0  0  0  0  0  0
  -23.7724  -30.1606   23.1061 C   0  0  0  0  0  0  0  0  0  0  0  0
  -21.7759  -29.7777   20.5783 C   0  0  0  0  0  0  0  0  0  0  0  0
  -21.3068  -28.6019   17.4091 C   0  0  0  0  0  0  0  0  0  0  0  0
  -27.9053  -20.7230   19.7588 C   0  0  0  0  0  0  0  0  0  0  0  0
  -23.9652  -33.0423   27.3152 C   0  0  0  0  0  0  0  0  0  0  0  0
  -25.1656  -31.0861   21.2198 C   0  0  0  0  0  0  0  0  0  0  0  0
  -23.9436  -28.4886   20.5097 C   0  0  0  0  0  0  0  0  0  0  0  0
  -22.8613  -32.5202   26.3991 C   0  0  0  0  0  0  0  0  0  0  0  0
  -24.3734  -20.4839   19.3776 C   0  0  0  0  0  0  0  0  0  0  0  0
  -31.8250  -16.9676   21.3233 C   0  0  0  0  0  0  0  0  0  0  0  0
  -33.5492  -22.3220   18.4143 C   0  0  0  0  0  0  0  0  0  0  0  0
  -23.0338  -31.0245   26.1541 C   0  0  0  0  0  0  0  0  0  0  0  0
  -31.5551  -18.4712   21.3494 C   0  0  0  0  0  0  0  0  0  0  0  0
  -24.0345  -19.1114   19.9617 C   0  0  0  0  0  0  0  0  0  0  0  0
  -33.6329  -21.1681   19.3956 C   0  0  0  0  0  0  0  0  0  0  0  0
  -25.7102  -20.4687   18.6394 C   0  0  0  0  0  0  0  0  0  0  0  0
  -26.5078  -18.5829   20.0110 C   0  0  0  0  0  0  0  0  0  0  0  0
  -30.8715  -16.2428   20.3871 C   0  0  0  0  0  0  0  0  0  0  0  0
  -33.1388  -23.4796   19.2968 C   0  0  0  0  0  0  0  0  0  0  0  0
  -30.6150  -18.3204   19.0123 C   0  0  0  0  0  0  0  0  0  0  0  0
  -24.3661  -30.7302   25.4543 C   0  0  1  0  0  0  0  0  0  0  0  0
  -23.7719  -30.6957   21.7021 C   0  0  1  0  0  0  0  0  0  0  0  0
  -31.5756  -19.0698   19.9356 C   0  0  1  0  0  0  0  0  0  0  0  0
  -25.1952  -18.5621   20.8129 C   0  0  2  0  0  0  0  0  0  0  0  0
  -32.4552  -21.3763   20.3474 C   0  0  2  0  0  0  0  0  0  0  0  0
  -19.5574  -28.4018   15.6210 C   0  0  0  0  0  0  0  0  0  0  0  0
  -33.3064  -23.4974   22.2505 C   0  0  0  0  0  0  0  0  0  0  0  0
  -20.4666  -27.4922   22.1185 C   0  0  0  0  0  0  0  0  0  0  0  0
  -19.4159  -26.7414   19.9736 C   0  0  0  0  0  0  0  0  0  0  0  0
  -18.8668  -28.9873   20.9103 C   0  0  0  0  0  0  0  0  0  0  0  0
  -22.8919  -30.2310   15.5137 C   0  0  0  0  0  0  0  0  0  0  0  0
  -30.1613  -25.1494   20.6199 C   0  0  0  0  0  0  0  0  0  0  0  0
  -31.5396  -25.0246   21.2825 C   0  0  0  0  0  0  0  0  0  0  0  0
  -30.0779  -20.8340   20.9533 C   0  0  0  0  0  0  0  0  0  0  0  0
  -29.7294  -26.6034   20.4638 C   0  0  0  0  0  0  0  0  0  1  0  0
  -21.1441  -28.5952   19.8845 C   0  0  1  0  0  0  0  0  0  0  0  0
  -20.6954  -29.2438   16.1768 C   0  0  2  0  0  0  0  0  0  0  0  0
  -31.2287  -20.5564   19.9735 C   0  0  2  0  0  0  0  0  0  0  0  0
  -31.9694  -23.5731   21.5248 C   0  0  1  0  0  0  0  0  0  0  0  0
  -20.0016  -27.9567   20.7239 C   0  0  0  0  0  0  0  0  0  0  0  0
  -25.2658  -16.1017   20.6580 N   0  0  0  0  0  0  0  0  0  0  0  0
  -24.8833  -17.1816   21.3605 N   0  0  0  0  0  0  0  0  0  0  0  0
  -23.1463  -29.6766   20.8570 N   0  0  0  0  0  0  0  0  0  0  0  0
  -26.7687  -19.9386   19.5022 N   0  0  0  0  0  0  0  0  0  0  0  0
  -23.7858  -17.8488   23.3507 N   0  0  0  0  0  0  0  0  0  0  0  0
  -24.4091  -14.3693   24.7283 N   0  0  0  0  0  0  0  0  0  0  0  0
  -24.2759  -31.0418   24.0439 N   0  0  0  0  0  0  0  0  0  0  0  0
  -20.7264  -29.0689   18.5694 N   0  0  0  0  0  0  0  0  0  0  0  0
  -28.8575  -20.1480   20.5916 N   0  0  0  0  0  0  0  0  0  0  0  0
  -30.9480  -16.8638   19.0316 N   0  3  0  0  0  0  0  0  0  0  0  0
  -32.1137  -22.8594   20.2182 N   0  3  1  0  0  0  0  0  0  0  0  0
  -21.7251  -29.4042   15.1114 N   0  3  0  0  0  0  0  0  0  0  0  0
  -22.4071  -14.3675   23.6099 O   0  0  0  0  0  0  0  0  0  0  0  0
  -23.3461  -29.0323   23.3229 O   0  0  0  0  0  0  0  0  0  0  0  0
  -21.0808  -30.7582   20.8562 O   0  0  0  0  0  0  0  0  0  0  0  0
  -22.2065  -27.7668   17.3483 O   0  0  0  0  0  0  0  0  0  0  0  0
  -28.0576  -21.8542   19.2855 O   0  0  0  0  0  0  0  0  0  0  0  0
  -25.7233   -9.8138   19.7640 O   0  0  0  0  0  0  0  0  0  0  0  0
  -28.4374  -26.6655   19.8613 O   0  0  0  0  0  0  0  0  0  1  0  0
  -22.8578   -5.8292   22.2772 F   0  0  0  0  0  0  0  0  0  0  0  0
  -25.9438   -9.4120   22.4902 F   0  0  0  0  0  0  0  0  0  0  0  0
  1  2  1  0  0  0  0
  1  5  2  0  0  0  0
  2  6  2  0  0  0  0
  3  8  2  0  0  0  0
  3 15  1  0  0  0  0
  4  9  1  0  0  0  0
  4 15  2  0  0  0  0
  5 17  1  0  0  0  0
  6 19  1  0  0  0  0
  7 10  2  0  0  0  0
  7 18  1  0  0  0  0
  8 21  1  0  0  0  0
  9 21  2  0  0  0  0
 10 22  1  0  0  0  0
 11 12  2  0  0  0  0
 11 23  1  0  0  0  0
 12 24  1  0  0  0  0
 13 20  1  0  0  0  0
 13 22  2  0  0  0  0
 14 24  2  0  0  0  0
 14 25  1  0  0  0  0
 15 26  1  0  0  0  0
 16 26  1  0  0  0  0
 16 27  2  0  0  0  0
 16 28  1  0  0  0  0
 17 19  2  0  0  0  0
 17 33  1  0  0  0  0
 18 20  2  0  0  0  0
 18 34  1  0  0  0  0
 19 49  1  0  0  0  0
 20 35  1  0  0  0  0
 21 86  1  0  0  0  0
 22 87  1  0  0  0  0
 23 25  2  0  0  0  0
 23 86  1  0  0  0  0
 24 88  1  0  0  0  0
 25 89  1  0  0  0  0
 26 69  2  0  0  0  0
 27 70  1  0  0  0  0
 27 73  1  0  0  0  0
 28 74  1  0  0  0  0
 28 81  2  0  0  0  0
 29 50  1  0  0  0  0
 29 75  1  0  0  0  0
 29 82  2  0  0  0  0
 30 64  1  0  0  0  0
 30 71  1  0  0  0  0
 30 83  2  0  0  0  0
 31 65  1  0  0  0  0
 31 76  1  0  0  0  0
 31 84  2  0  0  0  0
 32 72  1  0  0  0  0
 32 77  1  0  0  0  0
 32 85  2  0  0  0  0
 33 36  1  0  0  0  0
 34 50  1  0  0  0  0
 35 71  1  0  0  0  0
 36 40  1  0  0  0  0
 37 42  1  0  0  0  0
 37 44  1  0  0  0  0
 38 41  1  0  0  0  0
 38 46  1  0  0  0  0
 39 43  1  0  0  0  0
 39 47  1  0  0  0  0
 40 49  1  0  0  0  0
 41 51  1  0  0  0  0
 42 52  1  0  0  0  0
 43 53  1  0  0  0  0
 44 72  1  0  0  0  0
 45 52  1  0  0  0  0
 45 72  1  0  0  0  0
 46 78  1  0  0  0  0
 47 79  1  0  0  0  0
 48 51  1  0  0  0  0
 48 78  1  0  0  0  0
 49 75  1  0  0  0  0
 50 71  1  0  0  0  0
 51 66  1  0  0  0  0
 52 70  1  0  0  0  0
 53 66  1  0  0  0  0
 53 79  1  0  0  0  0
 54 65  1  0  0  0  0
 55 67  1  0  0  0  0
 56 68  1  0  0  0  0
 57 68  1  0  0  0  0
 58 68  1  0  0  0  0
 59 80  1  0  0  0  0
 60 61  1  0  0  0  0
 60 63  1  0  0  0  0
 61 67  1  0  0  0  0
 62 66  1  0  0  0  0
 62 77  1  0  0  0  0
 63 87  1  0  0  0  0
 64 68  1  0  0  0  0
 64 76  1  0  0  0  0
 65 80  1  0  0  0  0
 67 79  1  0  0  0  0
 69 70  1  0  0  0  0
M  CHG  3  78   1  79   1  80   1
M  ISO  4  32 100  63 101  77 100  87 101
M  END
> <Batch ID>
0131

> <Smiles>
CNC(C)C(=O)NC(C(=O)N1Cc2cc([101O:1][101CH2:1]CCC(C)N3CCCC3C(C[100NH:0][100C:0](=O)N3CCCC(n4nc(-c5ccc(Oc6ccc(F)cc6F)cc5)c(C(N)=O)c4N)C3)C3CCCNC3)ccc2CC1C(=O)NC1CCCc2ccccc21)C(C)(C)C

> <Shape>
0.257

> <Color>
0.085

> <Negative vol penalty>
0.000

$$$$

  -OEChem-04052320503D

 91100  0     1  0  0  0  0  0999 V2000
  -20.3460  -21.2117   24.4207 C   0  0  0  0  0  0  0  0  0  0  0  0
  -21.5627  -21.5215   23.8215 C   0  0  0  0  0  0  0  0  0  0  0  0
  -27.5361  -14.6423   19.4745 C   0  0  0  0  0  0  0  0  0  0  0  0
  -25.7573  -15.0376   21.0610 C   0  0  0  0  0  0  0  0  0  0  0  0
  -19.2598  -22.0738   24.2767 C   0  0  0  0  0  0  0  0  0  0  0  0
  -21.6936  -22.6932   23.0770 C   0  0  0  0  0  0  0  0  0  0  0  0
  -26.6695  -26.2356   22.6317 C   0  0  0  0  0  0  0  0  0  0  0  0
  -26.9053  -23.7742   14.3698 C   0  0  0  0  0  0  0  0  0  0  0  0
  -27.3452  -13.2666   19.6033 C   0  0  0  0  0  0  0  0  0  0  0  0
  -25.5664  -13.6618   21.1897 C   0  0  0  0  0  0  0  0  0  0  0  0
  -27.6717  -26.3281   21.6669 C   0  0  0  0  0  0  0  0  0  0  0  0
  -27.5718  -24.4569   13.3545 C   0  0  0  0  0  0  0  0  0  0  0  0
  -24.0681  -11.1831   19.4486 C   0  0  0  0  0  0  0  0  0  0  0  0
  -22.7570  -10.7075   19.4270 C   0  0  0  0  0  0  0  0  0  0  0  0
  -26.4962  -28.1622   20.6306 C   0  0  0  0  0  0  0  0  0  0  0  0
  -23.0545   -9.7868   21.6407 C   0  0  0  0  0  0  0  0  0  0  0  0
  -26.7422  -15.5278   20.2035 C   0  0  0  0  0  0  0  0  0  0  0  0
  -29.4775  -24.7697   14.8134 C   0  0  0  0  0  0  0  0  0  0  0  0
  -28.1126  -17.6743   20.3526 C   0  0  0  0  0  0  0  0  0  0  0  0
  -19.3802  -23.2615   23.5381 C   0  0  0  0  0  0  0  0  0  0  0  0
  -25.5658  -27.0999   22.5967 C   0  0  0  0  0  0  0  0  0  0  0  0
  -20.6076  -23.5714   22.9218 C   0  0  0  0  0  0  0  0  0  0  0  0
  -25.4827  -28.0802   21.5975 C   0  0  0  0  0  0  0  0  0  0  0  0
  -28.8068  -24.0933   15.8414 C   0  0  0  0  0  0  0  0  0  0  0  0
  -27.5219  -23.5877   15.6068 C   0  0  0  0  0  0  0  0  0  0  0  0
  -26.3603  -12.7763   20.4608 C   0  0  0  0  0  0  0  0  0  0  0  0
  -27.5837  -27.2896   20.6644 C   0  0  0  0  0  0  0  0  0  0  0  0
  -28.8580  -24.9516   13.5709 C   0  0  0  0  0  0  0  0  0  0  0  0
  -24.8724  -10.9605   20.5662 C   0  0  0  0  0  0  0  0  0  0  0  0
  -22.2502  -10.0094   20.5230 C   0  0  0  0  0  0  0  0  0  0  0  0
  -24.3657  -10.2624   21.6623 C   0  0  0  0  0  0  0  0  0  0  0  0
  -26.9393  -16.9490   20.0714 C   0  0  0  0  0  0  0  0  0  0  0  0
  -27.7873  -18.9777   20.0668 C   0  0  0  0  0  0  0  0  0  0  0  0
  -30.8602  -25.2731   15.0249 C   0  0  0  0  0  0  0  0  0  0  0  0
  -29.3829  -17.2111   20.8295 C   0  0  0  0  0  0  0  0  0  0  0  0
  -22.4278  -26.7187   22.2628 C   0  0  0  0  0  0  0  0  0  0  0  0
  -22.3699  -29.9056   22.8652 C   0  0  0  0  0  0  0  0  0  0  0  0
  -24.0220  -32.8916   22.8282 C   0  0  0  0  0  0  0  0  0  0  0  0
  -25.4326  -22.8007   16.7740 C   0  0  0  0  0  0  0  0  0  0  0  0
  -18.1648  -24.1388   23.3709 C   0  0  0  0  0  0  0  0  0  0  0  0
  -24.5066  -27.0046   23.6603 C   0  0  0  0  0  0  0  0  0  0  0  0
  -29.4813  -23.8672   17.1634 C   0  0  0  0  0  0  0  0  0  0  0  0
  -24.3285  -29.0453   21.5276 C   0  0  0  0  0  0  0  0  0  0  0  0
  -18.4924  -25.5460   22.8782 C   0  0  0  0  0  0  0  0  0  0  0  0
  -23.3061  -21.1136   19.0779 C   0  0  0  0  0  0  0  0  0  0  0  0
  -19.4683  -25.4879   21.7073 C   0  0  0  0  0  0  0  0  0  0  0  0
  -24.1582  -19.9394   19.5649 C   0  0  0  0  0  0  0  0  0  0  0  0
  -23.5441  -21.4121   17.5988 C   0  0  0  0  0  0  0  0  0  0  0  0
  -25.8024  -20.4339   17.7105 C   0  0  0  0  0  0  0  0  0  0  0  0
  -20.7959  -24.8454   22.1271 C   0  0  1  0  0  0  0  0  0  0  0  0
  -23.1701  -27.5996   23.2276 C   0  0  1  0  0  0  0  0  0  0  0  0
  -25.6452  -20.1371   19.2107 C   0  0  2  0  0  0  0  0  0  0  0  0
  -30.4506  -25.0062   17.4879 C   0  0  2  0  0  0  0  0  0  0  0  0
  -29.8278  -27.7581   11.5362 C   0  0  0  0  0  0  0  0  0  0  0  0
  -23.7017  -35.3266   23.3434 C   0  0  0  0  0  0  0  0  0  0  0  0
  -33.6444  -23.3867   16.3401 C   0  0  0  0  0  0  0  0  0  0  0  0
  -34.9102  -25.0931   17.6858 C   0  0  0  0  0  0  0  0  0  0  0  0
  -20.7602  -30.2354   20.2941 C   0  0  0  0  0  0  0  0  0  0  0  0
  -21.2868  -32.6821   20.3607 C   0  0  0  0  0  0  0  0  0  0  0  0
  -19.9712  -31.6406   22.2065 C   0  0  0  0  0  0  0  0  0  0  0  0
  -26.1558  -32.8575   24.8787 C   0  0  0  0  0  0  0  0  0  0  0  0
  -29.7144  -26.2742   17.9338 C   0  0  0  0  0  0  0  0  0  0  0  0
  -32.6858  -25.7247   16.6351 C   0  0  0  0  0  0  0  0  0  0  0  0
  -28.7916  -26.7863   12.0593 C   0  0  0  0  0  0  0  0  0  0  0  0
  -29.2476  -26.1791   19.3783 C   0  0  0  0  0  0  0  0  0  1  0  0
  -22.4453  -31.1547   22.0208 C   0  0  1  0  0  0  0  0  0  0  0  0
  -24.1608  -33.9790   23.8783 C   0  0  2  0  0  0  0  0  0  0  0  0
  -33.5257  -24.6036   17.2589 C   0  0  0  0  0  0  0  0  0  0  0  0
  -21.1368  -31.4089   21.2204 C   0  0  0  0  0  0  0  0  0  0  0  0
  -25.9430  -17.7271   19.6401 N   0  0  0  0  0  0  0  0  0  0  0  0
  -26.4894  -18.9549   19.6484 N   0  0  0  0  0  0  0  0  0  0  0  0
  -31.3281  -25.2847   16.3428 N   0  0  0  0  0  0  0  0  0  0  0  0
  -23.3150  -28.9081   22.5865 N   0  0  0  0  0  0  0  0  0  0  0  0
  -24.9742  -21.5918   17.3388 N   0  0  0  0  0  0  0  0  0  0  0  0
  -28.4878  -20.1297   20.1353 N   0  0  0  0  0  0  0  0  0  0  0  0
  -29.5973  -17.1557   22.2135 N   0  0  0  0  0  0  0  0  0  0  0  0
  -26.8149  -22.8695   16.6029 N   0  0  0  0  0  0  0  0  0  0  0  0
  -21.6026  -25.7906   22.8688 N   0  0  0  0  0  0  0  0  0  0  0  0
  -22.8118  -32.2382   22.9265 N   0  0  0  0  0  0  0  0  0  0  0  0
  -25.5818  -34.1040   24.3098 N   0  3  0  0  0  0  0  0  0  0  0  0
  -31.5153  -25.6303   14.0482 O   0  0  0  0  0  0  0  0  0  0  0  0
  -30.3065  -16.8725   20.0512 O   0  0  0  0  0  0  0  0  0  0  0  0
  -22.5905  -26.8709   21.0578 O   0  0  0  0  0  0  0  0  0  0  0  0
  -21.5089  -29.8211   23.7445 O   0  0  0  0  0  0  0  0  0  0  0  0
  -24.8979  -32.6487   22.0009 O   0  0  0  0  0  0  0  0  0  0  0  0
  -24.6590  -23.7188   16.4900 O   0  0  0  0  0  0  0  0  0  0  0  0
  -26.1736  -11.4340   20.5864 O   0  0  0  0  0  0  0  0  0  0  0  0
  -28.5602  -27.3817   19.7211 O   0  0  0  0  0  0  0  0  0  1  0  0
  -29.4518  -25.6178   12.5400 O   0  0  0  0  0  0  0  0  0  0  0  0
  -20.9907   -9.5540   20.5028 F   0  0  0  0  0  0  0  0  0  0  0  0
  -25.1332  -10.0464   22.7393 F   0  0  0  0  0  0  0  0  0  0  0  0
  1  2  1  0  0  0  0
  1  5  2  0  0  0  0
  2  6  2  0  0  0  0
  3  9  2  0  0  0  0
  3 17  1  0  0  0  0
  4 10  1  0  0  0  0
  4 17  2  0  0  0  0
  5 20  1  0  0  0  0
  6 22  1  0  0  0  0
  7 11  2  0  0  0  0
  7 21  1  0  0  0  0
  8 12  2  0  0  0  0
  8 25  1  0  0  0  0
  9 26  1  0  0  0  0
 10 26  2  0  0  0  0
 11 27  1  0  0  0  0
 12 28  1  0  0  0  0
 13 14  2  0  0  0  0
 13 29  1  0  0  0  0
 14 30  1  0  0  0  0
 15 23  1  0  0  0  0
 15 27  2  0  0  0  0
 16 30  2  0  0  0  0
 16 31  1  0  0  0  0
 17 32  1  0  0  0  0
 18 24  1  0  0  0  0
 18 28  2  0  0  0  0
 18 34  1  0  0  0  0
 19 32  1  0  0  0  0
 19 33  2  0  0  0  0
 19 35  1  0  0  0  0
 20 22  2  0  0  0  0
 20 40  1  0  0  0  0
 21 23  2  0  0  0  0
 21 41  1  0  0  0  0
 22 50  1  0  0  0  0
 23 43  1  0  0  0  0
 24 25  2  0  0  0  0
 24 42  1  0  0  0  0
 25 77  1  0  0  0  0
 26 87  1  0  0  0  0
 27 88  1  0  0  0  0
 28 89  1  0  0  0  0
 29 31  2  0  0  0  0
 29 87  1  0  0  0  0
 30 90  1  0  0  0  0
 31 91  1  0  0  0  0
 32 70  2  0  0  0  0
 33 71  1  0  0  0  0
 33 75  1  0  0  0  0
 34 72  1  0  0  0  0
 34 81  2  0  0  0  0
 35 76  1  0  0  0  0
 35 82  2  0  0  0  0
 36 51  1  0  0  0  0
 36 78  1  0  0  0  0
 36 83  2  0  0  0  0
 37 66  1  0  0  0  0
 37 73  1  0  0  0  0
 37 84  2  0  0  0  0
 38 67  1  0  0  0  0
 38 79  1  0  0  0  0
 38 85  2  0  0  0  0
 39 74  1  0  0  0  0
 39 77  1  0  0  0  0
 39 86  2  0  0  0  0
 40 44  1  0  0  0  0
 41 51  1  0  0  0  0
 42 53  1  0  0  0  0
 43 73  1  0  0  0  0
 44 46  1  0  0  0  0
 45 47  1  0  0  0  0
 45 48  1  0  0  0  0
 46 50  1  0  0  0  0
 47 52  1  0  0  0  0
 48 74  1  0  0  0  0
 49 52  1  0  0  0  0
 49 74  1  0  0  0  0
 50 78  1  0  0  0  0
 51 73  1  0  0  0  0
 52 71  1  0  0  0  0
 53 62  1  0  0  0  0
 53 72  1  0  0  0  0
 54 64  1  0  0  0  0
 55 67  1  0  0  0  0
 56 68  1  0  0  0  0
 57 68  1  0  0  0  0
 58 69  1  0  0  0  0
 59 69  1  0  0  0  0
 60 69  1  0  0  0  0
 61 80  1  0  0  0  0
 62 65  1  0  0  0  0
 63 68  1  0  0  0  0
 63 72  1  0  0  0  0
 64 89  1  0  0  0  0
 65 88  1  0  0  0  0
 66 69  1  0  0  0  0
 66 79  1  0  0  0  0
 67 80  1  0  0  0  0
 70 71  1  0  0  0  0
M  CHG  1  80   1
M  ISO  4  39 100  65 101  77 100  88 101
M  END
> <Batch ID>
0131

> <Smiles>
CCOc1ccc([100NH:0][100C:0](=O)N2CCCC(n3nc(-c4ccc(Oc5ccc(F)cc5F)cc4)c(C(N)=O)c3N)C2)c2c1C(=O)N(CC(C)C)C(C[101CH2:1][101O:1]c1ccc3c(c1)CN(C(=O)C(NC(=O)C(C)NC)C(C)(C)C)C(C(=O)NC1CCCc4ccccc41)C3)C2

> <Shape>
0.224

> <Color>
0.065

> <Negative vol penalty>
0.000

$$$$

  -OEChem-04052320503D

 84 93  0     1  0  0  0  0  0999 V2000
  -21.7397  -22.4651   21.6767 C   0  0  0  0  0  0  0  0  0  0  0  0
  -22.8837  -21.6738   21.6543 C   0  0  0  0  0  0  0  0  0  0  0  0
  -23.1702   -9.8399   19.9243 C   0  0  0  0  0  0  0  0  0  0  0  0
  -23.4943   -9.9962   22.3134 C   0  0  0  0  0  0  0  0  0  0  0  0
  -20.6709  -22.1673   20.8324 C   0  0  0  0  0  0  0  0  0  0  0  0
  -22.9591  -20.5835   20.7883 C   0  0  0  0  0  0  0  0  0  0  0  0
  -27.4084  -20.3159   18.3847 C   0  0  0  0  0  0  0  0  0  0  0  0
  -22.3650   -8.7157   20.1071 C   0  0  0  0  0  0  0  0  0  0  0  0
  -22.6890   -8.8720   22.4962 C   0  0  0  0  0  0  0  0  0  0  0  0
  -28.4910  -19.8107   19.1034 C   0  0  0  0  0  0  0  0  0  0  0  0
  -21.0123   -5.8305   23.5675 C   0  0  0  0  0  0  0  0  0  0  0  0
  -21.4575   -4.8516   24.4557 C   0  0  0  0  0  0  0  0  0  0  0  0
  -33.9330  -16.8249   22.3838 C   0  0  0  0  0  0  0  0  0  0  0  0
  -28.1999  -17.6717   18.0266 C   0  0  0  0  0  0  0  0  0  0  0  0
  -31.5351  -17.2191   22.1848 C   0  0  0  0  0  0  0  0  0  0  0  0
  -23.4415   -4.5361   23.1134 C   0  0  0  0  0  0  0  0  0  0  0  0
  -23.7349  -10.4801   21.0275 C   0  0  0  0  0  0  0  0  0  0  0  0
  -24.1548  -12.9867   20.8074 C   0  0  0  0  0  0  0  0  0  0  0  0
  -20.7371  -21.0786   19.9487 C   0  0  0  0  0  0  0  0  0  0  0  0
  -26.7055  -19.4983   17.4881 C   0  0  0  0  0  0  0  0  0  0  0  0
  -21.8897  -20.2701   19.9323 C   0  0  0  0  0  0  0  0  0  0  0  0
  -34.1063  -17.7590   21.3898 C   0  0  0  0  0  0  0  0  0  0  0  0
  -27.1104  -18.1697   17.2958 C   0  0  0  0  0  0  0  0  0  0  0  0
  -33.0459  -18.4079   20.8048 C   0  0  0  0  0  0  0  0  0  0  0  0
  -31.7449  -18.1638   21.1769 C   0  0  0  0  0  0  0  0  0  0  0  0
  -32.6221  -16.5539   22.7844 C   0  0  0  0  0  0  0  0  0  0  0  0
  -22.1244   -8.2318   21.3930 C   0  0  0  0  0  0  0  0  0  0  0  0
  -28.8851  -18.4876   18.9266 C   0  0  0  0  0  0  0  0  0  0  0  0
  -21.7815   -6.1623   22.4522 C   0  0  0  0  0  0  0  0  0  0  0  0
  -22.6721   -4.2044   24.2287 C   0  0  0  0  0  0  0  0  0  0  0  0
  -22.9961   -5.5151   22.2252 C   0  0  0  0  0  0  0  0  0  0  0  0
  -24.5673  -11.6411   20.8393 C   0  0  0  0  0  0  0  0  0  0  0  0
  -25.3132  -13.6962   20.6047 C   0  0  0  0  0  0  0  0  0  0  0  0
  -22.8419  -13.5453   20.9485 C   0  0  0  0  0  0  0  0  0  0  0  0
  -23.7119  -18.4494   17.2833 C   0  0  0  0  0  0  0  0  0  0  0  0
  -24.7320  -17.2699   14.4389 C   0  0  0  0  0  0  0  0  0  0  0  0
  -27.3410  -16.2171   12.5071 C   0  0  0  0  0  0  0  0  0  0  0  0
  -31.0683  -12.5264   21.7717 C   0  0  0  0  0  0  0  0  0  0  0  0
  -19.5378  -20.7678   19.0886 C   0  0  0  0  0  0  0  0  0  0  0  0
  -25.5566  -20.0660   16.7006 C   0  0  0  0  0  0  0  0  0  0  0  0
  -35.1274  -18.4705   20.5528 C   0  0  0  0  0  0  0  0  0  0  0  0
  -33.9193  -19.2103   19.8869 C   0  0  0  0  0  0  0  0  0  0  0  0
  -26.4017  -17.2565   16.3303 C   0  0  0  0  0  0  0  0  0  0  0  0
  -19.8461  -19.8184   17.9337 C   0  0  0  0  0  0  0  0  0  0  0  0
  -29.6417  -13.3060   18.6040 C   0  0  0  0  0  0  0  0  0  0  0  0
  -20.6707  -18.6322   18.4233 C   0  0  0  0  0  0  0  0  0  0  0  0
  -28.1422  -13.0891   18.8148 C   0  0  0  0  0  0  0  0  0  0  0  0
  -30.4738  -12.2866   19.3788 C   0  0  0  0  0  0  0  0  0  0  0  0
  -28.6690  -11.9877   21.0303 C   0  0  0  0  0  0  0  0  0  0  0  0
  -22.0191  -19.0937   18.9892 C   0  0  1  0  0  0  0  0  0  0  0  0
  -24.5922  -18.9971   16.1958 C   0  0  1  0  0  0  0  0  0  0  0  0
  -27.7899  -13.0266   20.3132 C   0  0  2  0  0  0  0  0  0  0  0  0
  -27.8584  -15.2738   10.2400 C   0  0  0  0  0  0  0  0  0  0  0  0
  -23.6931  -14.5456   15.3380 C   0  0  0  0  0  0  0  0  0  0  0  0
  -25.0544  -13.5022   13.5142 C   0  0  0  0  0  0  0  0  0  0  0  0
  -23.2270  -15.1018   12.9448 C   0  0  0  0  0  0  0  0  0  0  0  0
  -29.0375  -18.5371   11.8010 C   0  0  0  0  0  0  0  0  0  0  0  0
  -30.5996  -18.8827   20.5267 C   0  0  0  0  0  0  0  0  0  1  0  0
  -31.0757  -13.9571   25.0353 C   0  0  0  0  0  0  0  0  0  0  0  0
  -31.0705  -15.2752   24.2619 C   0  0  0  0  0  0  0  0  0  0  0  0
  -31.5052  -12.7499   24.2044 C   0  0  0  0  0  0  0  0  0  0  0  0
  -25.3607  -15.9758   13.9818 C   0  0  1  0  0  0  0  0  0  0  0  0
  -27.7275  -16.5383   11.0746 C   0  0  2  0  0  0  0  0  0  0  0  0
  -24.3461  -14.7977   13.9644 C   0  0  0  0  0  0  0  0  0  0  0  0
  -25.8848  -11.5016   20.6702 N   0  0  0  0  0  0  0  0  0  0  0  0
  -26.3103  -12.7686   20.5301 N   0  0  0  0  0  0  0  0  0  0  0  0
  -25.2805  -17.8563   15.5883 N   0  0  0  0  0  0  0  0  0  0  0  0
  -30.0917  -12.2783   20.7930 N   0  0  0  0  0  0  0  0  0  0  0  0
  -25.5660  -15.0169   20.4847 N   0  0  0  0  0  0  0  0  0  0  0  0
  -21.7631  -12.6737   21.1511 N   0  0  0  0  0  0  0  0  0  0  0  0
  -32.3829  -15.6034   23.8011 N   0  0  0  0  0  0  0  0  0  0  0  0
  -22.9383  -19.4041   17.9153 N   0  0  0  0  0  0  0  0  0  0  0  0
  -25.9746  -16.2548   12.6880 N   0  0  0  0  0  0  0  0  0  0  0  0
  -30.6205  -12.5065   23.0869 N   0  0  0  0  0  0  0  0  0  0  0  0
  -29.0300  -17.2616   11.0394 N   0  3  0  0  0  0  0  0  0  0  0  0
  -22.6293  -14.7797   20.8800 O   0  0  0  0  0  0  0  0  0  0  0  0
  -23.7319  -17.2491   17.5297 O   0  0  0  0  0  0  0  0  0  0  0  0
  -23.7937  -17.7468   13.7956 O   0  0  0  0  0  0  0  0  0  0  0  0
  -28.1682  -15.9551   13.3775 O   0  0  0  0  0  0  0  0  0  0  0  0
  -32.2505  -12.7545   21.4936 O   0  0  0  0  0  0  0  0  0  0  0  0
  -21.3385   -7.1350   21.5717 O   0  0  0  0  0  0  0  0  0  0  0  0
  -29.9410  -17.9918   19.6273 O   0  0  0  0  0  0  0  0  0  1  0  0
  -23.1004   -3.2654   25.0826 F   0  0  0  0  0  0  0  0  0  0  0  0
  -23.7401   -5.8304   21.1561 F   0  0  0  0  0  0  0  0  0  0  0  0
  1  2  1  0  0  0  0
  1  5  2  0  0  0  0
  2  6  2  0  0  0  0
  3  8  2  0  0  0  0
  3 17  1  0  0  0  0
  4  9  1  0  0  0  0
  4 17  2  0  0  0  0
  5 19  1  0  0  0  0
  6 21  1  0  0  0  0
  7 10  2  0  0  0  0
  7 20  1  0  0  0  0
  8 27  1  0  0  0  0
  9 27  2  0  0  0  0
 10 28  1  0  0  0  0
 11 12  2  0  0  0  0
 11 29  1  0  0  0  0
 12 30  1  0  0  0  0
 13 22  2  0  0  0  0
 13 26  1  0  0  0  0
 14 23  1  0  0  0  0
 14 28  2  0  0  0  0
 15 25  1  0  0  0  0
 15 26  2  0  0  0  0
 16 30  2  0  0  0  0
 16 31  1  0  0  0  0
 17 32  1  0  0  0  0
 18 32  1  0  0  0  0
 18 33  2  0  0  0  0
 18 34  1  0  0  0  0
 19 21  2  0  0  0  0
 19 39  1  0  0  0  0
 20 23  2  0  0  0  0
 20 40  1  0  0  0  0
 21 50  1  0  0  0  0
 22 24  1  0  0  0  0
 22 41  1  0  0  0  0
 23 43  1  0  0  0  0
 24 25  2  0  0  0  0
 24 42  1  0  0  0  0
 25 58  1  0  0  0  0
 26 71  1  0  0  0  0
 27 81  1  0  0  0  0
 28 82  1  0  0  0  0
 29 31  2  0  0  0  0
 29 81  1  0  0  0  0
 30 83  1  0  0  0  0
 31 84  1  0  0  0  0
 32 65  2  0  0  0  0
 33 66  1  0  0  0  0
 33 69  1  0  0  0  0
 34 70  1  0  0  0  0
 34 76  2  0  0  0  0
 35 51  1  0  0  0  0
 35 72  1  0  0  0  0
 35 77  2  0  0  0  0
 36 62  1  0  0  0  0
 36 67  1  0  0  0  0
 36 78  2  0  0  0  0
 37 63  1  0  0  0  0
 37 73  1  0  0  0  0
 37 79  2  0  0  0  0
 38 68  1  0  0  0  0
 38 74  1  0  0  0  0
 38 80  2  0  0  0  0
 39 44  1  0  0  0  0
 40 51  1  0  0  0  0
 41 42  1  0  0  0  0
 43 67  1  0  0  0  0
 44 46  1  0  0  0  0
 45 47  1  0  0  0  0
 45 48  1  0  0  0  0
 46 50  1  0  0  0  0
 47 52  1  0  0  0  0
 48 68  1  0  0  0  0
 49 52  1  0  0  0  0
 49 68  1  0  0  0  0
 50 72  1  0  0  0  0
 51 67  1  0  0  0  0
 52 66  1  0  0  0  0
 53 63  1  0  0  0  0
 54 64  1  0  0  0  0
 55 64  1  0  0  0  0
 56 64  1  0  0  0  0
 57 75  1  0  0  0  0
 58 82  1  0  0  0  0
 59 60  1  0  0  0  0
 59 61  1  0  0  0  0
 60 71  1  0  0  0  0
 61 74  1  0  0  0  0
 62 64  1  0  0  0  0
 62 73  1  0  0  0  0
 63 75  1  0  0  0  0
 65 66  1  0  0  0  0
M  CHG  1  75   1
M  ISO  4  38 100  58 101  74 100  82 101
M  END
> <Batch ID>
0131

> <Smiles>
CNC(C)C(=O)NC(C(=O)N1Cc2cc([101O:1][101CH2:1]c3cc(NCCC[100NH:0][100C:0](=O)N4CCCC(n5nc(-c6ccc(Oc7ccc(F)cc7F)cc6)c(C(N)=O)c5N)C4)cc4c3CC4)ccc2CC1C(=O)NC1CCCc2ccccc21)C(C)(C)C

> <Shape>
0.182

> <Color>
0.196

> <Negative vol penalty>
0.000

$$$$

  -OEChem-04052320503D

 82 90  0     1  0  0  0  0  0999 V2000
  -29.9344  -23.9009   16.3634 C   0  0  0  0  0  0  0  0  0  0  0  0
  -29.4026  -23.4974   17.5840 C   0  0  0  0  0  0  0  0  0  0  0  0
  -26.9010  -22.8072   27.1723 C   0  0  0  0  0  0  0  0  0  0  0  0
  -24.1873  -12.6015   19.8528 C   0  0  0  0  0  0  0  0  0  0  0  0
  -25.1964  -12.7957   22.0394 C   0  0  0  0  0  0  0  0  0  0  0  0
  -29.8933  -25.2455   15.9969 C   0  0  0  0  0  0  0  0  0  0  0  0
  -28.8303  -24.4384   18.4392 C   0  0  0  0  0  0  0  0  0  0  0  0
  -24.4289  -22.8678   20.3900 C   0  0  0  0  0  0  0  0  0  0  0  0
  -26.1353  -21.7966   26.6019 C   0  0  0  0  0  0  0  0  0  0  0  0
  -24.2986  -11.2130   19.9248 C   0  0  0  0  0  0  0  0  0  0  0  0
  -25.3077  -11.4071   22.1114 C   0  0  0  0  0  0  0  0  0  0  0  0
  -24.4884  -21.9569   21.4438 C   0  0  0  0  0  0  0  0  0  0  0  0
  -23.9873   -7.5989   19.6865 C   0  0  0  0  0  0  0  0  0  0  0  0
  -22.8846   -6.8388   19.2968 C   0  0  0  0  0  0  0  0  0  0  0  0
  -24.1174  -23.7538   23.0099 C   0  0  0  0  0  0  0  0  0  0  0  0
  -21.5509   -7.8939   21.0131 C   0  0  0  0  0  0  0  0  0  0  0  0
  -28.1726  -23.0221   26.6655 C   0  0  0  0  0  0  0  0  0  0  0  0
  -24.6362  -13.3929   20.9102 C   0  0  0  0  0  0  0  0  0  0  0  0
  -23.4389  -15.6171   21.2661 C   0  0  0  0  0  0  0  0  0  0  0  0
  -29.3117  -26.2021   16.8438 C   0  0  0  0  0  0  0  0  0  0  0  0
  -24.2237  -24.2324   20.6394 C   0  0  0  0  0  0  0  0  0  0  0  0
  -28.7827  -25.7972   18.0842 C   0  0  0  0  0  0  0  0  0  0  0  0
  -24.0531  -24.6796   21.9573 C   0  0  0  0  0  0  0  0  0  0  0  0
  -26.6570  -21.0423   25.5568 C   0  0  0  0  0  0  0  0  0  0  0  0
  -24.8588  -10.6158   21.0540 C   0  0  0  0  0  0  0  0  0  0  0  0
  -24.3356  -22.4003   22.7542 C   0  0  0  0  0  0  0  0  0  0  0  0
  -23.8719   -8.5064   20.7395 C   0  0  0  0  0  0  0  0  0  0  0  0
  -21.6664   -6.9863   19.9601 C   0  0  0  0  0  0  0  0  0  0  0  0
  -22.6537   -8.6539   21.4028 C   0  0  0  0  0  0  0  0  0  0  0  0
  -24.5220  -14.8273   20.8362 C   0  0  0  0  0  0  0  0  0  0  0  0
  -27.9394  -21.3363   25.1222 C   0  0  0  0  0  0  0  0  0  0  0  0
  -23.8176  -16.9055   20.9778 C   0  0  0  0  0  0  0  0  0  0  0  0
  -22.2011  -15.2216   21.8720 C   0  0  0  0  0  0  0  0  0  0  0  0
  -25.8998  -26.8836   20.1242 C   0  0  0  0  0  0  0  0  0  0  0  0
  -23.2043  -28.3315   21.2014 C   0  0  0  0  0  0  0  0  0  0  0  0
  -20.3418  -28.1198   23.0474 C   0  0  0  0  0  0  0  0  0  0  0  0
  -29.1564  -19.5365   20.3246 C   0  0  0  0  0  0  0  0  0  0  0  0
  -29.3330  -27.6509   16.4252 C   0  0  0  0  0  0  0  0  0  0  0  0
  -24.1354  -25.1983   19.4898 C   0  0  0  0  0  0  0  0  0  0  0  0
  -23.8104  -26.1313   22.2770 C   0  0  0  0  0  0  0  0  0  0  0  0
  -28.3730  -28.5295   17.2231 C   0  0  0  0  0  0  0  0  0  0  0  0
  -26.5194  -19.4221   17.9351 C   0  0  0  0  0  0  0  0  0  0  0  0
  -28.4994  -28.2400   18.7154 C   0  0  0  0  0  0  0  0  0  0  0  0
  -25.6107  -18.3028   18.4464 C   0  0  0  0  0  0  0  0  0  0  0  0
  -27.9938  -19.1082   18.1796 C   0  0  0  0  0  0  0  0  0  0  0  0
  -27.4240  -17.6553   20.0870 C   0  0  0  0  0  0  0  0  0  0  0  0
  -28.1313  -26.7846   19.0281 C   0  0  1  0  0  0  0  0  0  0  0  0
  -24.4353  -26.6383   19.8948 C   0  0  1  0  0  0  0  0  0  0  0  0
  -25.9246  -17.9518   19.9132 C   0  0  2  0  0  0  0  0  0  0  0  0
  -18.3593  -29.4778   23.7708 C   0  0  0  0  0  0  0  0  0  0  0  0
  -24.9523  -29.8011   23.2249 C   0  0  0  0  0  0  0  0  0  0  0  0
  -22.8742  -30.3785   24.4962 C   0  0  0  0  0  0  0  0  0  0  0  0
  -23.1779  -31.2077   22.1632 C   0  0  0  0  0  0  0  0  0  0  0  0
  -18.4475  -26.2791   21.7124 C   0  0  0  0  0  0  0  0  0  0  0  0
  -25.8223  -19.9462   24.9403 C   0  0  0  0  0  0  0  0  0  0  0  0
  -29.5689  -21.0203   23.2593 C   0  0  0  0  0  0  0  0  0  0  0  0
  -30.2263  -19.8513   22.5417 C   0  0  0  0  0  0  0  0  0  0  0  0
  -25.2160  -20.3611   23.6041 C   0  0  0  0  0  0  0  0  0  1  0  0
  -22.6876  -28.7585   22.5541 C   0  0  1  0  0  0  0  0  0  0  0  0
  -18.9092  -28.5115   22.7331 C   0  0  2  0  0  0  0  0  0  0  0  0
  -23.4295  -30.0093   23.1040 C   0  0  0  0  0  0  0  0  0  0  0  0
  -28.7134  -22.3101   25.6516 N   0  0  0  0  0  0  0  0  0  0  0  0
  -25.5143  -15.5532   20.3143 N   0  0  0  0  0  0  0  0  0  0  0  0
  -25.0562  -16.8126   20.4143 N   0  0  0  0  0  0  0  0  0  0  0  0
  -23.7385  -27.0378   21.1192 N   0  0  0  0  0  0  0  0  0  0  0  0
  -28.2244  -18.7853   19.5897 N   0  0  0  0  0  0  0  0  0  0  0  0
  -23.2087  -18.0974   21.1537 N   0  0  0  0  0  0  0  0  0  0  0  0
  -21.9735  -13.8571   22.0974 N   0  0  0  0  0  0  0  0  0  0  0  0
  -28.4749  -20.5706   24.0567 N   0  0  0  0  0  0  0  0  0  0  0  0
  -26.6941  -26.6150   19.0258 N   0  0  0  0  0  0  0  0  0  0  0  0
  -21.2474  -28.9361   22.4035 N   0  0  0  0  0  0  0  0  0  0  0  0
  -29.3096  -19.1689   21.6558 N   0  0  0  0  0  0  0  0  0  0  0  0
  -18.0361  -27.3041   22.7060 N   0  3  0  0  0  0  0  0  0  0  0  0
  -21.3159  -16.0521   22.1886 O   0  0  0  0  0  0  0  0  0  0  0  0
  -26.2808  -27.2882   21.2164 O   0  0  0  0  0  0  0  0  0  0  0  0
  -23.1299  -29.1144   20.2510 O   0  0  0  0  0  0  0  0  0  0  0  0
  -20.6286  -27.1857   23.7928 O   0  0  0  0  0  0  0  0  0  0  0  0
  -29.8001  -20.4694   19.8324 O   0  0  0  0  0  0  0  0  0  0  0  0
  -24.9674   -9.2609   21.1247 O   0  0  0  0  0  0  0  0  0  0  0  0
  -24.3939  -21.5134   23.7847 O   0  0  0  0  0  0  0  0  0  1  0  0
  -20.6071   -6.2575   19.5848 F   0  0  0  0  0  0  0  0  0  0  0  0
  -22.5364   -9.5250   22.4143 F   0  0  0  0  0  0  0  0  0  0  0  0
  1  2  1  0  0  0  0
  1  6  2  0  0  0  0
  2  7  2  0  0  0  0
  3  9  2  0  0  0  0
  3 17  1  0  0  0  0
  4 10  2  0  0  0  0
  4 18  1  0  0  0  0
  5 11  1  0  0  0  0
  5 18  2  0  0  0  0
  6 20  1  0  0  0  0
  7 22  1  0  0  0  0
  8 12  2  0  0  0  0
  8 21  1  0  0  0  0
  9 24  1  0  0  0  0
 10 25  1  0  0  0  0
 11 25  2  0  0  0  0
 12 26  1  0  0  0  0
 13 14  2  0  0  0  0
 13 27  1  0  0  0  0
 14 28  1  0  0  0  0
 15 23  1  0  0  0  0
 15 26  2  0  0  0  0
 16 28  2  0  0  0  0
 16 29  1  0  0  0  0
 17 62  2  0  0  0  0
 18 30  1  0  0  0  0
 19 30  1  0  0  0  0
 19 32  2  0  0  0  0
 19 33  1  0  0  0  0
 20 22  2  0  0  0  0
 20 38  1  0  0  0  0
 21 23  2  0  0  0  0
 21 39  1  0  0  0  0
 22 47  1  0  0  0  0
 23 40  1  0  0  0  0
 24 31  2  0  0  0  0
 24 55  1  0  0  0  0
 25 79  1  0  0  0  0
 26 80  1  0  0  0  0
 27 29  2  0  0  0  0
 27 79  1  0  0  0  0
 28 81  1  0  0  0  0
 29 82  1  0  0  0  0
 30 63  2  0  0  0  0
 31 62  1  0  0  0  0
 31 69  1  0  0  0  0
 32 64  1  0  0  0  0
 32 67  1  0  0  0  0
 33 68  1  0  0  0  0
 33 74  2  0  0  0  0
 34 48  1  0  0  0  0
 34 70  1  0  0  0  0
 34 75  2  0  0  0  0
 35 59  1  0  0  0  0
 35 65  1  0  0  0  0
 35 76  2  0  0  0  0
 36 60  1  0  0  0  0
 36 71  1  0  0  0  0
 36 77  2  0  0  0  0
 37 66  1  0  0  0  0
 37 72  1  0  0  0  0
 37 78  2  0  0  0  0
 38 41  1  0  0  0  0
 39 48  1  0  0  0  0
 40 65  1  0  0  0  0
 41 43  1  0  0  0  0
 42 44  1  0  0  0  0
 42 45  1  0  0  0  0
 43 47  1  0  0  0  0
 44 49  1  0  0  0  0
 45 66  1  0  0  0  0
 46 49  1  0  0  0  0
 46 66  1  0  0  0  0
 47 70  1  0  0  0  0
 48 65  1  0  0  0  0
 49 64  1  0  0  0  0
 50 60  1  0  0  0  0
 51 61  1  0  0  0  0
 52 61  1  0  0  0  0
 53 61  1  0  0  0  0
 54 73  1  0  0  0  0
 55 58  1  0  0  0  0
 56 57  1  0  0  0  0
 56 69  1  0  0  0  0
 57 72  1  0  0  0  0
 58 80  1  0  0  0  0
 59 61  1  0  0  0  0
 59 71  1  0  0  0  0
 60 73  1  0  0  0  0
 63 64  1  0  0  0  0
M  CHG  1  73   1
M  ISO  4  37 100  58 101  72 100  80 101
M  END
> <Batch ID>
0131

> <Smiles>
CNC(C)C(=O)NC(C(=O)N1Cc2cc([101O:1][101CH2:1]Cc3cccnc3NCC[100NH:0][100C:0](=O)N3CCCC(n4nc(-c5ccc(Oc6ccc(F)cc6F)cc5)c(C(N)=O)c4N)C3)ccc2CC1C(=O)NC1CCCc2ccccc21)C(C)(C)C

> <Shape>
0.218

> <Color>
0.063

> <Negative vol penalty>
0.000

$$$$

  -OEChem-04052320503D

 85 93  0     1  0  0  0  0  0999 V2000
  -31.0104  -25.4480   18.8273 C   0  0  0  0  0  0  0  0  0  0  0  0
  -30.1213  -24.9612   19.7802 C   0  0  0  0  0  0  0  0  0  0  0  0
  -27.8917  -14.8967   19.0851 C   0  0  0  0  0  0  0  0  0  0  0  0
  -27.8625  -15.2523   21.4746 C   0  0  0  0  0  0  0  0  0  0  0  0
  -31.1224  -26.8218   18.6176 C   0  0  0  0  0  0  0  0  0  0  0  0
  -29.3444  -25.8481   20.5246 C   0  0  0  0  0  0  0  0  0  0  0  0
  -24.5140  -24.3702   20.8828 C   0  0  0  0  0  0  0  0  0  0  0  0
  -22.4988  -18.6750   26.6707 C   0  0  0  0  0  0  0  0  0  0  0  0
  -28.8691  -15.8826   18.9502 C   0  0  0  0  0  0  0  0  0  0  0  0
  -28.8400  -16.2382   21.3398 C   0  0  0  0  0  0  0  0  0  0  0  0
  -24.2236  -23.3592   21.7978 C   0  0  0  0  0  0  0  0  0  0  0  0
  -23.6692  -19.4221   26.8032 C   0  0  0  0  0  0  0  0  0  0  0  0
  -28.9922  -19.4842   20.4064 C   0  0  0  0  0  0  0  0  0  0  0  0
  -28.8119  -20.6758   21.1087 C   0  0  0  0  0  0  0  0  0  0  0  0
  -23.4476  -25.0145   23.3716 C   0  0  0  0  0  0  0  0  0  0  0  0
  -22.1061  -19.6741   24.5063 C   0  0  0  0  0  0  0  0  0  0  0  0
  -30.8857  -20.2945   22.2880 C   0  0  0  0  0  0  0  0  0  0  0  0
  -27.3884  -14.5815   20.3472 C   0  0  0  0  0  0  0  0  0  0  0  0
  -26.5825  -12.1862   20.6948 C   0  0  0  0  0  0  0  0  0  0  0  0
  -30.3394  -27.7255   19.3530 C   0  0  0  0  0  0  0  0  0  0  0  0
  -24.2831  -25.7141   21.2101 C   0  0  0  0  0  0  0  0  0  0  0  0
  -29.4469  -27.2353   20.3254 C   0  0  0  0  0  0  0  0  0  0  0  0
  -23.7335  -26.0406   22.4580 C   0  0  0  0  0  0  0  0  0  0  0  0
  -21.7173  -18.8009   25.5222 C   0  0  0  0  0  0  0  0  0  0  0  0
  -23.2765  -20.4213   24.6388 C   0  0  0  0  0  0  0  0  0  0  0  0
  -29.3432  -16.5534   20.0776 C   0  0  0  0  0  0  0  0  0  0  0  0
  -23.6931  -23.6814   23.0435 C   0  0  0  0  0  0  0  0  0  0  0  0
  -24.0580  -20.2953   25.7873 C   0  0  0  0  0  0  0  0  0  0  0  0
  -30.1192  -18.6977   20.6450 C   0  0  0  0  0  0  0  0  0  0  0  0
  -29.7586  -21.0810   22.0495 C   0  0  0  0  0  0  0  0  0  0  0  0
  -31.0660  -19.1029   21.5858 C   0  0  0  0  0  0  0  0  0  0  0  0
  -26.3783  -13.5635   20.4871 C   0  0  0  0  0  0  0  0  0  0  0  0
  -25.3166  -11.6572   20.7589 C   0  0  0  0  0  0  0  0  0  0  0  0
  -27.8070  -11.4508   20.8187 C   0  0  0  0  0  0  0  0  0  0  0  0
  -26.1139  -28.2942   21.5184 C   0  0  0  0  0  0  0  0  0  0  0  0
  -23.2626  -29.7942   21.8951 C   0  0  0  0  0  0  0  0  0  0  0  0
  -19.9696  -29.5812   22.7655 C   0  0  0  0  0  0  0  0  0  0  0  0
  -19.9953  -13.9819   22.2186 C   0  0  0  0  0  0  0  0  0  0  0  0
  -30.5296  -29.2041   19.1243 C   0  0  0  0  0  0  0  0  0  0  0  0
  -24.5767  -26.7910   20.2018 C   0  0  0  0  0  0  0  0  0  0  0  0
  -23.4480  -27.4664   22.8503 C   0  0  0  0  0  0  0  0  0  0  0  0
  -29.3990  -30.0586   19.6915 C   0  0  0  0  0  0  0  0  0  0  0  0
  -20.8678  -12.3873   19.1571 C   0  0  0  0  0  0  0  0  0  0  0  0
  -29.0575  -29.6178   21.1114 C   0  0  0  0  0  0  0  0  0  0  0  0
  -22.3974  -12.3837   19.1695 C   0  0  0  0  0  0  0  0  0  0  0  0
  -20.3014  -13.6606   19.7815 C   0  0  0  0  0  0  0  0  0  0  0  0
  -22.3301  -13.9573   21.1489 C   0  0  0  0  0  0  0  0  0  0  0  0
  -28.5690  -28.1644   21.1355 C   0  0  1  0  0  0  0  0  0  0  0  0
  -24.7817  -28.1633   20.8359 C   0  0  1  0  0  0  0  0  0  0  0  0
  -22.9474  -12.6682   20.5802 C   0  0  2  0  0  0  0  0  0  0  0  0
  -27.5580  -21.0865   25.5067 C   0  0  0  0  0  0  0  0  0  0  0  0
  -17.9021  -30.9823   23.0100 C   0  0  0  0  0  0  0  0  0  0  0  0
  -24.3559  -30.9489   24.4992 C   0  0  0  0  0  0  0  0  0  0  0  0
  -22.0077  -31.5272   25.1473 C   0  0  0  0  0  0  0  0  0  0  0  0
  -23.0302  -32.5592   23.1194 C   0  0  0  0  0  0  0  0  0  0  0  0
  -18.5169  -27.9999   20.7288 C   0  0  0  0  0  0  0  0  0  0  0  0
  -20.4669  -18.0007   25.3804 C   0  0  0  0  0  0  0  0  0  0  0  0
  -23.6803  -21.3547   23.5357 C   0  0  0  0  0  0  0  0  0  1  0  0
  -19.8513  -14.2999   24.6757 C   0  0  0  0  0  0  0  0  0  0  0  0
  -19.4831  -15.7403   24.9788 C   0  0  0  0  0  0  0  0  0  0  0  0
  -26.4161  -20.2859   26.0955 C   0  0  0  0  0  0  0  0  0  0  0  0
  -22.3723  -30.1186   23.0703 C   0  0  1  0  0  0  0  0  0  0  0  0
  -18.7124  -30.0895   22.0831 C   0  0  2  0  0  0  0  0  0  0  0  0
  -22.9486  -31.2616   23.9527 C   0  0  0  0  0  0  0  0  0  0  0  0
  -25.0845  -13.8891   20.4234 N   0  0  0  0  0  0  0  0  0  0  0  0
  -24.4643  -12.7088   20.5919 N   0  0  0  0  0  0  0  0  0  0  0  0
  -23.7581  -28.4841   21.8326 N   0  0  0  0  0  0  0  0  0  0  0  0
  -20.8616  -13.8717   21.1185 N   0  0  0  0  0  0  0  0  0  0  0  0
  -24.8605  -10.3998   20.9412 N   0  0  0  0  0  0  0  0  0  0  0  0
  -29.0184  -12.1499   20.7287 N   0  0  0  0  0  0  0  0  0  0  0  0
  -27.1960  -28.0852   20.6848 N   0  0  0  0  0  0  0  0  0  0  0  0
  -21.0518  -30.3987   22.5169 N   0  0  0  0  0  0  0  0  0  0  0  0
  -20.6087  -14.1744   23.4504 N   0  0  0  0  0  0  0  0  0  0  0  0
  -17.8536  -28.9467   21.6619 N   0  3  0  0  0  0  0  0  0  0  0  0
  -20.7153  -16.5662   25.0678 N   0  3  0  0  0  0  0  0  0  0  0  0
  -27.8266  -10.2079   20.9874 O   0  0  0  0  0  0  0  0  0  0  0  0
  -26.1570  -28.5661   22.7125 O   0  0  0  0  0  0  0  0  0  0  0  0
  -23.5036  -30.6689   21.0594 O   0  0  0  0  0  0  0  0  0  0  0  0
  -19.9888  -28.5630   23.4536 O   0  0  0  0  0  0  0  0  0  0  0  0
  -18.7664  -13.9084   22.1118 O   0  0  0  0  0  0  0  0  0  0  0  0
  -30.2971  -17.5154   19.9464 O   0  0  0  0  0  0  0  0  0  0  0  0
  -23.4094  -22.6965   23.9388 O   0  0  0  0  0  0  0  0  0  1  0  0
  -25.2034  -21.0187   25.9341 O   0  0  0  0  0  0  0  0  0  0  0  0
  -29.5861  -22.2261   22.7227 F   0  0  0  0  0  0  0  0  0  0  0  0
  -32.1513  -18.3521   21.8184 F   0  0  0  0  0  0  0  0  0  0  0  0
  1  2  1  0  0  0  0
  1  5  2  0  0  0  0
  2  6  2  0  0  0  0
  3  9  2  0  0  0  0
  3 18  1  0  0  0  0
  4 10  1  0  0  0  0
  4 18  2  0  0  0  0
  5 20  1  0  0  0  0
  6 22  1  0  0  0  0
  7 11  2  0  0  0  0
  7 21  1  0  0  0  0
  8 12  2  0  0  0  0
  8 24  1  0  0  0  0
  9 26  1  0  0  0  0
 10 26  2  0  0  0  0
 11 27  1  0  0  0  0
 12 28  1  0  0  0  0
 13 14  2  0  0  0  0
 13 29  1  0  0  0  0
 14 30  1  0  0  0  0
 15 23  1  0  0  0  0
 15 27  2  0  0  0  0
 16 24  2  0  0  0  0
 16 25  1  0  0  0  0
 17 30  2  0  0  0  0
 17 31  1  0  0  0  0
 18 32  1  0  0  0  0
 19 32  1  0  0  0  0
 19 33  2  0  0  0  0
 19 34  1  0  0  0  0
 20 22  2  0  0  0  0
 20 39  1  0  0  0  0
 21 23  2  0  0  0  0
 21 40  1  0  0  0  0
 22 48  1  0  0  0  0
 23 41  1  0  0  0  0
 24 57  1  0  0  0  0
 25 28  2  0  0  0  0
 25 58  1  0  0  0  0
 26 81  1  0  0  0  0
 27 82  1  0  0  0  0
 28 83  1  0  0  0  0
 29 31  2  0  0  0  0
 29 81  1  0  0  0  0
 30 84  1  0  0  0  0
 31 85  1  0  0  0  0
 32 65  2  0  0  0  0
 33 66  1  0  0  0  0
 33 69  1  0  0  0  0
 34 70  1  0  0  0  0
 34 76  2  0  0  0  0
 35 49  1  0  0  0  0
 35 71  1  0  0  0  0
 35 77  2  0  0  0  0
 36 62  1  0  0  0  0
 36 67  1  0  0  0  0
 36 78  2  0  0  0  0
 37 63  1  0  0  0  0
 37 72  1  0  0  0  0
 37 79  2  0  0  0  0
 38 68  1  0  0  0  0
 38 73  1  0  0  0  0
 38 80  2  0  0  0  0
 39 42  1  0  0  0  0
 40 49  1  0  0  0  0
 41 67  1  0  0  0  0
 42 44  1  0  0  0  0
 43 45  1  0  0  0  0
 43 46  1  0  0  0  0
 44 48  1  0  0  0  0
 45 50  1  0  0  0  0
 46 68  1  0  0  0  0
 47 50  1  0  0  0  0
 47 68  1  0  0  0  0
 48 71  1  0  0  0  0
 49 67  1  0  0  0  0
 50 66  1  0  0  0  0
 51 61  1  0  0  0  0
 52 63  1  0  0  0  0
 53 64  1  0  0  0  0
 54 64  1  0  0  0  0
 55 64  1  0  0  0  0
 56 74  1  0  0  0  0
 57 75  1  0  0  0  0
 58 82  1  0  0  0  0
 59 60  1  0  0  0  0
 59 73  1  0  0  0  0
 60 75  1  0  0  0  0
 61 83  1  0  0  0  0
 62 64  1  0  0  0  0
 62 72  1  0  0  0  0
 63 74  1  0  0  0  0
 65 66  1  0  0  0  0
M  CHG  2  74   1  75   1
M  ISO  4  38 100  58 101  73 100  82 101
M  END
> <Batch ID>
0131

> <Smiles>
CCOc1ccc(CNCC[100NH:0][100C:0](=O)N2CCCC(n3nc(-c4ccc(Oc5ccc(F)cc5F)cc4)c(C(N)=O)c3N)C2)cc1[101CH2:1][101O:1]c1ccc2c(c1)CN(C(=O)C(NC(=O)C(C)NC)C(C)(C)C)C(C(=O)NC1CCCc3ccccc31)C2

> <Shape>
0.230

> <Color>
0.043

> <Negative vol penalty>
0.000

$$$$

  -OEChem-04052320503D

 83 91  0     1  0  0  0  0  0999 V2000
  -27.9945  -24.6365   16.8528 C   0  0  0  0  0  0  0  0  0  0  0  0
  -26.8147  -24.8536   17.5574 C   0  0  0  0  0  0  0  0  0  0  0  0
  -25.8321  -12.1651   19.9744 C   0  0  0  0  0  0  0  0  0  0  0  0
  -24.1906  -12.9230   21.5769 C   0  0  0  0  0  0  0  0  0  0  0  0
  -29.1997  -25.1383   17.3422 C   0  0  0  0  0  0  0  0  0  0  0  0
  -26.8397  -25.5716   18.7525 C   0  0  0  0  0  0  0  0  0  0  0  0
  -23.1049  -28.9786   19.0503 C   0  0  0  0  0  0  0  0  0  0  0  0
  -22.1141  -21.9155   23.3450 C   0  0  0  0  0  0  0  0  0  0  0  0
  -23.0984  -20.9833   23.0169 C   0  0  0  0  0  0  0  0  0  0  0  0
  -25.9988  -10.9870   20.7022 C   0  0  0  0  0  0  0  0  0  0  0  0
  -24.3572  -11.7448   22.3047 C   0  0  0  0  0  0  0  0  0  0  0  0
  -21.8339  -28.5037   19.3707 C   0  0  0  0  0  0  0  0  0  0  0  0
  -24.0862   -8.7787   24.3897 C   0  0  0  0  0  0  0  0  0  0  0  0
  -22.9388   -8.1262   24.8402 C   0  0  0  0  0  0  0  0  0  0  0  0
  -22.1551  -29.2036   21.6568 C   0  0  0  0  0  0  0  0  0  0  0  0
  -24.2721  -22.6698   21.7460 C   0  0  0  0  0  0  0  0  0  0  0  0
  -22.1854   -7.8755   22.5584 C   0  0  0  0  0  0  0  0  0  0  0  0
  -24.9281  -13.1332   20.4117 C   0  0  0  0  0  0  0  0  0  0  0  0
  -23.8422  -14.5826   18.6152 C   0  0  0  0  0  0  0  0  0  0  0  0
  -29.2381  -25.8711   18.5389 C   0  0  0  0  0  0  0  0  0  0  0  0
  -23.9163  -29.5608   20.0349 C   0  0  0  0  0  0  0  0  0  0  0  0
  -28.0468  -26.0825   19.2590 C   0  0  0  0  0  0  0  0  0  0  0  0
  -23.4351  -29.6875   21.3458 C   0  0  0  0  0  0  0  0  0  0  0  0
  -22.2087  -23.2249   22.8736 C   0  0  0  0  0  0  0  0  0  0  0  0
  -23.2877  -23.6021   22.0741 C   0  0  0  0  0  0  0  0  0  0  0  0
  -24.1774  -21.3604   22.2174 C   0  0  0  0  0  0  0  0  0  0  0  0
  -25.2613  -10.7768   21.8674 C   0  0  0  0  0  0  0  0  0  0  0  0
  -21.3599  -28.6135   20.6747 C   0  0  0  0  0  0  0  0  0  0  0  0
  -24.2833   -8.9798   23.0235 C   0  0  0  0  0  0  0  0  0  0  0  0
  -21.9883   -7.6745   23.9246 C   0  0  0  0  0  0  0  0  0  0  0  0
  -23.3329   -8.5282   22.1079 C   0  0  0  0  0  0  0  0  0  0  0  0
  -24.7560  -14.3507   19.6606 C   0  0  0  0  0  0  0  0  0  0  0  0
  -24.0739  -15.8830   18.2388 C   0  0  0  0  0  0  0  0  0  0  0  0
  -22.8707  -13.7013   18.0362 C   0  0  0  0  0  0  0  0  0  0  0  0
  -26.7449  -28.8677   21.3086 C   0  0  0  0  0  0  0  0  0  0  0  0
  -26.3303  -31.7136   22.8089 C   0  0  0  0  0  0  0  0  0  0  0  0
  -24.1746  -34.1041   23.9428 C   0  0  0  0  0  0  0  0  0  0  0  0
  -26.3137  -20.6247   21.1033 C   0  0  0  0  0  0  0  0  0  0  0  0
  -30.5717  -26.3531   19.0526 C   0  0  0  0  0  0  0  0  0  0  0  0
  -25.2744  -30.0924   19.6673 C   0  0  0  0  0  0  0  0  0  0  0  0
  -24.2588  -30.3228   22.4350 C   0  0  0  0  0  0  0  0  0  0  0  0
  -30.4569  -27.4247   20.1337 C   0  0  0  0  0  0  0  0  0  0  0  0
  -27.5468  -19.1772   18.0930 C   0  0  0  0  0  0  0  0  0  0  0  0
  -29.4199  -27.0213   21.1771 C   0  0  0  0  0  0  0  0  0  0  0  0
  -26.8832  -17.7987   18.0552 C   0  0  0  0  0  0  0  0  0  0  0  0
  -27.9204  -19.5879   19.5162 C   0  0  0  0  0  0  0  0  0  0  0  0
  -26.1599  -18.1410   20.4524 C   0  0  0  0  0  0  0  0  0  0  0  0
  -28.0295  -26.8778   20.5464 C   0  0  1  0  0  0  0  0  0  0  0  0
  -26.2168  -30.2016   20.8620 C   0  0  1  0  0  0  0  0  0  0  0  0
  -25.7068  -17.7122   19.0473 C   0  0  2  0  0  0  0  0  0  0  0  0
  -23.4110  -24.9988   21.5598 C   0  0  0  0  0  0  0  0  0  0  0  0
  -24.1290  -36.2967   25.1625 C   0  0  0  0  0  0  0  0  0  0  0  0
  -26.8322  -30.2564   25.4423 C   0  0  0  0  0  0  0  0  0  0  0  0
  -25.8545  -32.2266   26.6384 C   0  0  0  0  0  0  0  0  0  0  0  0
  -27.9209  -32.5011   25.2682 C   0  0  0  0  0  0  0  0  0  0  0  0
  -22.9499  -35.4946   21.6351 C   0  0  0  0  0  0  0  0  0  0  0  0
  -21.1374  -24.2096   23.2392 C   0  0  0  0  0  0  0  0  0  0  0  0
  -18.6806  -26.2354   21.1129 C   0  0  0  0  0  0  0  0  0  0  0  0
  -19.3268  -25.7017   22.3825 C   0  0  0  0  0  0  0  0  0  0  0  0
  -19.6286  -27.0434   20.2353 C   0  0  0  0  0  0  0  0  0  1  0  0
  -25.7012  -32.1556   24.1081 C   0  0  1  0  0  0  0  0  0  0  0  0
  -24.1831  -35.6157   23.8038 C   0  0  2  0  0  0  0  0  0  0  0  0
  -26.5622  -31.7712   25.3444 C   0  0  0  0  0  0  0  0  0  0  0  0
  -25.5120  -15.4181   19.9309 N   0  0  0  0  0  0  0  0  0  0  0  0
  -25.0737  -16.3333   19.0498 N   0  0  0  0  0  0  0  0  0  0  0  0
  -25.5826  -30.8216   22.0272 N   0  0  0  0  0  0  0  0  0  0  0  0
  -26.7561  -19.4851   20.3986 N   0  0  0  0  0  0  0  0  0  0  0  0
  -23.5179  -16.6738   17.2964 N   0  0  0  0  0  0  0  0  0  0  0  0
  -22.7645  -12.3987   18.5424 N   0  0  0  0  0  0  0  0  0  0  0  0
  -25.1785  -20.4142   21.8854 N   0  0  0  0  0  0  0  0  0  0  0  0
  -27.4361  -28.1798   20.3295 N   0  0  0  0  0  0  0  0  0  0  0  0
  -25.4524  -33.5870   23.9750 N   0  0  0  0  0  0  0  0  0  0  0  0
  -23.0102  -36.0690   23.0039 N   0  3  0  0  0  0  0  0  0  0  0  0
  -20.4338  -24.7732   22.0540 N   0  3  0  0  0  0  0  0  0  0  0  0
  -22.1303  -14.0532   17.0867 O   0  0  0  0  0  0  0  0  0  0  0  0
  -26.5416  -28.4910   22.4569 O   0  0  0  0  0  0  0  0  0  0  0  0
  -27.4409  -32.1495   22.4957 O   0  0  0  0  0  0  0  0  0  0  0  0
  -23.1382  -33.4480   24.0191 O   0  0  0  0  0  0  0  0  0  0  0  0
  -26.8826  -21.7142   20.9978 O   0  0  0  0  0  0  0  0  0  0  0  0
  -25.4234   -9.6272   22.5777 O   0  0  0  0  0  0  0  0  0  0  0  0
  -20.1199  -28.1502   20.9902 O   0  0  0  0  0  0  0  0  0  1  0  0
  -20.8872   -7.0465   24.3573 F   0  0  0  0  0  0  0  0  0  0  0  0
  -23.5172   -8.7173   20.7941 F   0  0  0  0  0  0  0  0  0  0  0  0
  1  2  1  0  0  0  0
  1  5  2  0  0  0  0
  2  6  2  0  0  0  0
  3 10  2  0  0  0  0
  3 18  1  0  0  0  0
  4 11  1  0  0  0  0
  4 18  2  0  0  0  0
  5 20  1  0  0  0  0
  6 22  1  0  0  0  0
  7 12  2  0  0  0  0
  7 21  1  0  0  0  0
  8  9  2  0  0  0  0
  8 24  1  0  0  0  0
  9 26  1  0  0  0  0
 10 27  1  0  0  0  0
 11 27  2  0  0  0  0
 12 28  1  0  0  0  0
 13 14  2  0  0  0  0
 13 29  1  0  0  0  0
 14 30  1  0  0  0  0
 15 23  1  0  0  0  0
 15 28  2  0  0  0  0
 16 25  1  0  0  0  0
 16 26  2  0  0  0  0
 17 30  2  0  0  0  0
 17 31  1  0  0  0  0
 18 32  1  0  0  0  0
 19 32  1  0  0  0  0
 19 33  2  0  0  0  0
 19 34  1  0  0  0  0
 20 22  2  0  0  0  0
 20 39  1  0  0  0  0
 21 23  2  0  0  0  0
 21 40  1  0  0  0  0
 22 48  1  0  0  0  0
 23 41  1  0  0  0  0
 24 25  2  0  0  0  0
 24 57  1  0  0  0  0
 25 51  1  0  0  0  0
 26 70  1  0  0  0  0
 27 80  1  0  0  0  0
 28 81  1  0  0  0  0
 29 31  2  0  0  0  0
 29 80  1  0  0  0  0
 30 82  1  0  0  0  0
 31 83  1  0  0  0  0
 32 64  2  0  0  0  0
 33 65  1  0  0  0  0
 33 68  1  0  0  0  0
 34 69  1  0  0  0  0
 34 75  2  0  0  0  0
 35 49  1  0  0  0  0
 35 71  1  0  0  0  0
 35 76  2  0  0  0  0
 36 61  1  0  0  0  0
 36 66  1  0  0  0  0
 36 77  2  0  0  0  0
 37 62  1  0  0  0  0
 37 72  1  0  0  0  0
 37 78  2  0  0  0  0
 38 67  1  0  0  0  0
 38 70  1  0  0  0  0
 38 79  2  0  0  0  0
 39 42  1  0  0  0  0
 40 49  1  0  0  0  0
 41 66  1  0  0  0  0
 42 44  1  0  0  0  0
 43 45  1  0  0  0  0
 43 46  1  0  0  0  0
 44 48  1  0  0  0  0
 45 50  1  0  0  0  0
 46 67  1  0  0  0  0
 47 50  1  0  0  0  0
 47 67  1  0  0  0  0
 48 71  1  0  0  0  0
 49 66  1  0  0  0  0
 50 65  1  0  0  0  0
 52 62  1  0  0  0  0
 53 63  1  0  0  0  0
 54 63  1  0  0  0  0
 55 63  1  0  0  0  0
 56 73  1  0  0  0  0
 57 74  1  0  0  0  0
 58 59  1  0  0  0  0
 58 60  1  0  0  0  0
 59 74  1  0  0  0  0
 60 81  1  0  0  0  0
 61 63  1  0  0  0  0
 61 72  1  0  0  0  0
 62 73  1  0  0  0  0
 64 65  1  0  0  0  0
M  CHG  2  73   1  74   1
M  ISO  4  38 100  60 101  70 100  81 101
M  END
> <Batch ID>
0131

> <Smiles>
CNC(C)C(=O)NC(C(=O)N1Cc2cc([101O:1][101CH2:1]CCNCc3ccc([100NH:0][100C:0](=O)N4CCCC(n5nc(-c6ccc(Oc7ccc(F)cc7F)cc6)c(C(N)=O)c5N)C4)cc3C)ccc2CC1C(=O)NC1CCCc2ccccc21)C(C)(C)C

> <Shape>
0.295

> <Color>
0.078

> <Negative vol penalty>
0.000

$$$$

  -OEChem-04052320503D

 91100  0     1  0  0  0  0  0999 V2000
  -29.8378  -36.0369   21.9369 C   0  0  0  0  0  0  0  0  0  0  0  0
  -29.6502  -34.7482   22.4261 C   0  0  0  0  0  0  0  0  0  0  0  0
  -24.3197   -8.2354   21.0207 C   0  0  0  0  0  0  0  0  0  0  0  0
  -25.2867   -9.4073   22.8991 C   0  0  0  0  0  0  0  0  0  0  0  0
  -28.7487  -36.8978   21.8080 C   0  0  0  0  0  0  0  0  0  0  0  0
  -28.3734  -34.3199   22.7878 C   0  0  0  0  0  0  0  0  0  0  0  0
  -27.3283  -29.6683   21.0806 C   0  0  0  0  0  0  0  0  0  0  0  0
  -24.0320   -7.1488   21.8466 C   0  0  0  0  0  0  0  0  0  0  0  0
  -24.9990   -8.3207   23.7251 C   0  0  0  0  0  0  0  0  0  0  0  0
  -27.8785  -28.5949   21.7797 C   0  0  0  0  0  0  0  0  0  0  0  0
  -21.6955   -6.3167   24.1447 C   0  0  0  0  0  0  0  0  0  0  0  0
  -20.4318   -5.7365   24.0360 C   0  0  0  0  0  0  0  0  0  0  0  0
  -25.7714  -28.2547   22.9038 C   0  0  0  0  0  0  0  0  0  0  0  0
  -21.4504   -3.6313   23.4299 C   0  0  0  0  0  0  0  0  0  0  0  0
  -24.9471   -9.3646   21.5469 C   0  0  0  0  0  0  0  0  0  0  0  0
  -24.3288  -11.2638   19.9599 C   0  0  0  0  0  0  0  0  0  0  0  0
  -27.4564  -36.4767   22.1592 C   0  0  0  0  0  0  0  0  0  0  0  0
  -25.9964  -30.0504   21.2962 C   0  0  0  0  0  0  0  0  0  0  0  0
  -27.2662  -35.1764   22.6648 C   0  0  0  0  0  0  0  0  0  0  0  0
  -25.2059  -29.3316   22.2042 C   0  0  0  0  0  0  0  0  0  0  0  0
  -24.3716   -7.1915   23.1988 C   0  0  0  0  0  0  0  0  0  0  0  0
  -27.1009  -27.8897   22.6936 C   0  0  0  0  0  0  0  0  0  0  0  0
  -22.8368   -5.5542   23.8960 C   0  0  0  0  0  0  0  0  0  0  0  0
  -20.3092   -4.3938   23.6786 C   0  0  0  0  0  0  0  0  0  0  0  0
  -22.7142   -4.2115   23.5386 C   0  0  0  0  0  0  0  0  0  0  0  0
  -25.2451  -10.4871   20.6941 C   0  0  0  0  0  0  0  0  0  0  0  0
  -25.1061  -12.1972   19.3189 C   0  0  0  0  0  0  0  0  0  0  0  0
  -22.9026  -11.1515   19.8659 C   0  0  0  0  0  0  0  0  0  0  0  0
  -24.5617  -32.6762   22.3688 C   0  0  0  0  0  0  0  0  0  0  0  0
  -21.8669  -31.0736   21.5371 C   0  0  0  0  0  0  0  0  0  0  0  0
  -20.6299  -27.6936   21.7876 C   0  0  0  0  0  0  0  0  0  0  0  0
  -30.4828  -14.5432   20.5184 C   0  0  0  0  0  0  0  0  0  0  0  0
  -26.3173  -37.4587   22.0469 C   0  0  0  0  0  0  0  0  0  0  0  0
  -25.4099  -31.1938   20.5144 C   0  0  0  0  0  0  0  0  0  0  0  0
  -23.7648  -29.6890   22.4570 C   0  0  0  0  0  0  0  0  0  0  0  0
  -24.9400  -36.8025   22.0996 C   0  0  0  0  0  0  0  0  0  0  0  0
  -29.5080  -12.8292   17.5539 C   0  0  0  0  0  0  0  0  0  0  0  0
  -24.8723  -35.7943   23.2423 C   0  0  0  0  0  0  0  0  0  0  0  0
  -29.7209  -23.8203   22.5393 C   0  0  0  0  0  0  0  0  0  0  0  0
  -27.2417  -24.0414   22.9989 C   0  0  0  0  0  0  0  0  0  0  0  0
  -28.2222  -12.1046   17.9563 C   0  0  0  0  0  0  0  0  0  0  0  0
  -29.6718  -22.3576   22.9807 C   0  0  0  0  0  0  0  0  0  0  0  0
  -27.1935  -22.5786   23.4401 C   0  0  0  0  0  0  0  0  0  0  0  0
  -30.5185  -12.8631   18.6983 C   0  0  0  0  0  0  0  0  0  0  0  0
  -28.7146  -12.6865   20.3683 C   0  0  0  0  0  0  0  0  0  0  0  0
  -26.8830  -18.4175   23.7423 C   0  0  0  0  0  0  0  0  0  0  0  0
  -25.8927  -34.6669   23.0444 C   0  0  1  0  0  0  0  0  0  0  0  0
  -24.1938  -31.8187   21.1911 C   0  0  1  0  0  0  0  0  0  0  0  0
  -28.6305  -24.6564   23.2247 C   0  0  0  0  0  0  0  0  0  0  0  0
  -27.6430  -12.6754   19.2647 C   0  0  2  0  0  0  0  0  0  0  0  0
  -27.5639  -18.8255   21.5002 C   0  0  1  0  0  0  0  0  0  0  0  0
  -28.2844  -21.7656   22.7486 C   0  0  0  0  0  0  0  0  0  0  0  0
  -27.1330  -19.5461   22.7658 C   0  0  2  0  0  0  0  0  0  0  0  0
  -28.1768  -17.5155   22.0170 C   0  0  1  0  0  0  0  0  0  0  0  0
  -18.9690  -26.4550   20.3718 C   0  0  0  0  0  0  0  0  0  0  0  0
  -26.6432  -19.8462   18.5786 C   0  0  0  0  0  0  0  0  0  0  0  0
  -19.8378  -31.9986   23.6197 C   0  0  0  0  0  0  0  0  0  0  0  0
  -18.7141  -29.7709   23.4127 C   0  0  0  0  0  0  0  0  0  0  0  0
  -18.8433  -31.2891   21.4375 C   0  0  0  0  0  0  0  0  0  0  0  0
  -22.5460  -25.5026   21.2517 C   0  0  0  0  0  0  0  0  0  0  0  0
  -28.6673  -26.1005   22.7279 C   0  0  0  0  0  0  0  0  0  1  0  0
  -30.3060  -16.1609   22.3921 C   0  0  0  0  0  0  0  0  0  0  0  0
  -20.9346  -30.1143   22.2367 C   0  0  1  0  0  0  0  0  0  0  0  0
  -20.4429  -26.7076   20.6486 C   0  0  2  0  0  0  0  0  0  0  0  0
  -29.6943  -17.4725   21.8986 C   0  0  1  0  0  0  0  0  0  0  0  0
  -25.9259  -19.6905   19.9130 C   0  0  2  0  0  0  0  0  0  0  0  0
  -19.6100  -30.7949   22.6836 C   0  0  0  0  0  0  0  0  0  0  0  0
  -26.5080  -10.8919   20.5349 N   0  0  0  0  0  0  0  0  0  0  0  0
  -26.3908  -11.9330   19.6932 N   0  0  0  0  0  0  0  0  0  0  0  0
  -23.2389  -30.8186   21.6728 N   0  0  0  0  0  0  0  0  0  0  0  0
  -29.9067  -13.4164   19.9090 N   0  0  0  0  0  0  0  0  0  0  0  0
  -24.8093  -13.2100   18.4772 N   0  0  0  0  0  0  0  0  0  0  0  0
  -22.2631  -10.1360   20.5899 N   0  0  0  0  0  0  0  0  0  0  0  0
  -25.4143  -33.7191   22.0609 N   0  0  0  0  0  0  0  0  0  0  0  0
  -20.7505  -28.9880   21.3279 N   0  0  0  0  0  0  0  0  0  0  0  0
  -29.8368  -15.0071   21.6577 N   0  0  0  0  0  0  0  0  0  0  0  0
  -26.3804  -18.5339   20.6821 N   0  0  0  0  0  0  0  0  0  0  0  0
  -28.2588  -20.3766   23.2790 N   0  3  0  0  0  0  0  0  0  0  0  0
  -21.0888  -25.4058   20.9791 N   0  3  0  0  0  0  0  0  0  0  0  0
  -22.2172  -11.9185   19.1478 O   0  0  0  0  0  0  0  0  0  0  0  0
  -24.1046  -32.4121   23.4747 O   0  0  0  0  0  0  0  0  0  0  0  0
  -21.3950  -32.0104   20.8879 O   0  0  0  0  0  0  0  0  0  0  0  0
  -20.6618  -27.3504   22.9673 O   0  0  0  0  0  0  0  0  0  0  0  0
  -31.4947  -15.0980   20.0767 O   0  0  0  0  0  0  0  0  0  0  0  0
  -27.8224  -17.3884   23.4076 O   0  0  0  0  0  0  0  0  0  0  0  0
  -30.0792  -17.6751   20.5397 O   0  0  0  0  0  0  0  0  0  0  0  0
  -24.0908   -6.1315   24.0051 O   0  0  0  0  0  0  0  0  0  0  0  0
  -27.6357  -26.8420   23.3778 O   0  0  0  0  0  0  0  0  0  1  0  0
  -19.0956   -3.8364   23.5757 F   0  0  0  0  0  0  0  0  0  0  0  0
  -23.8070   -3.4736   23.2996 F   0  0  0  0  0  0  0  0  0  0  0  0
  -24.1845  -19.4149   19.6074 Cl  0  0  0  0  0  0  0  0  0  0  0  0
  1  2  1  0  0  0  0
  1  5  2  0  0  0  0
  2  6  2  0  0  0  0
  3  8  2  0  0  0  0
  3 15  1  0  0  0  0
  4  9  1  0  0  0  0
  4 15  2  0  0  0  0
  5 17  1  0  0  0  0
  6 19  1  0  0  0  0
  7 10  2  0  0  0  0
  7 18  1  0  0  0  0
  8 21  1  0  0  0  0
  9 21  2  0  0  0  0
 10 22  1  0  0  0  0
 11 12  2  0  0  0  0
 11 23  1  0  0  0  0
 12 24  1  0  0  0  0
 13 20  1  0  0  0  0
 13 22  2  0  0  0  0
 14 24  2  0  0  0  0
 14 25  1  0  0  0  0
 15 26  1  0  0  0  0
 16 26  1  0  0  0  0
 16 27  2  0  0  0  0
 16 28  1  0  0  0  0
 17 19  2  0  0  0  0
 17 33  1  0  0  0  0
 18 20  2  0  0  0  0
 18 34  1  0  0  0  0
 19 47  1  0  0  0  0
 20 35  1  0  0  0  0
 21 87  1  0  0  0  0
 22 88  1  0  0  0  0
 23 25  2  0  0  0  0
 23 87  1  0  0  0  0
 24 89  1  0  0  0  0
 25 90  1  0  0  0  0
 26 68  2  0  0  0  0
 27 69  1  0  0  0  0
 27 72  1  0  0  0  0
 28 73  1  0  0  0  0
 28 80  2  0  0  0  0
 29 48  1  0  0  0  0
 29 74  1  0  0  0  0
 29 81  2  0  0  0  0
 30 63  1  0  0  0  0
 30 70  1  0  0  0  0
 30 82  2  0  0  0  0
 31 64  1  0  0  0  0
 31 75  1  0  0  0  0
 31 83  2  0  0  0  0
 32 71  1  0  0  0  0
 32 76  1  0  0  0  0
 32 84  2  0  0  0  0
 33 36  1  0  0  0  0
 34 48  1  0  0  0  0
 35 70  1  0  0  0  0
 36 38  1  0  0  0  0
 37 41  1  0  0  0  0
 37 44  1  0  0  0  0
 38 47  1  0  0  0  0
 39 42  1  0  0  0  0
 39 49  1  0  0  0  0
 40 43  1  0  0  0  0
 40 49  1  0  0  0  0
 41 50  1  0  0  0  0
 42 52  1  0  0  0  0
 43 52  1  0  0  0  0
 44 71  1  0  0  0  0
 45 50  1  0  0  0  0
 45 71  1  0  0  0  0
 46 53  1  0  0  0  0
 46 85  1  0  0  0  0
 47 74  1  0  0  0  0
 48 70  1  0  0  0  0
 49 61  1  0  0  0  0
 50 69  1  0  0  0  0
 51 53  1  0  0  0  0
 51 54  1  0  0  0  0
 51 77  1  0  0  0  0
 52 78  1  0  0  0  0
 53 78  1  0  0  0  0
 54 65  1  0  0  0  0
 54 85  1  0  0  0  0
 55 64  1  0  0  0  0
 56 66  1  0  0  0  0
 57 67  1  0  0  0  0
 58 67  1  0  0  0  0
 59 67  1  0  0  0  0
 60 79  1  0  0  0  0
 61 88  1  0  0  0  0
 62 65  1  0  0  0  0
 62 76  1  0  0  0  0
 63 67  1  0  0  0  0
 63 75  1  0  0  0  0
 64 79  1  0  0  0  0
 65 86  1  0  0  0  0
 66 77  1  0  0  0  0
 66 91  1  0  0  0  0
 68 69  1  0  0  0  0
M  CHG  2  78   1  79   1
M  ISO  4  32 100  61 101  76 100  88 101
M  END
> <Batch ID>
0131

> <Smiles>
CNC(C)C(=O)NC(C(=O)N1Cc2cc([101O:1][101CH2:1]C3CCC(NC4COC(C(O)C[100NH:0][100C:0](=O)N5CCCC(n6nc(-c7ccc(Oc8ccc(F)cc8F)cc7)c(C(N)=O)c6N)C5)C4NC(C)Cl)CC3)ccc2CC1C(=O)NC1CCCc2ccccc21)C(C)(C)C

> <Shape>
0.299

> <Color>
0.088

> <Negative vol penalty>
0.000

$$$$

  -OEChem-04052320503D

 86 95  0     1  0  0  0  0  0999 V2000
  -26.7963  -37.8685   20.7534 C   0  0  0  0  0  0  0  0  0  0  0  0
  -27.3988  -36.7579   20.1712 C   0  0  0  0  0  0  0  0  0  0  0  0
  -24.0271  -10.9305   22.6866 C   0  0  0  0  0  0  0  0  0  0  0  0
  -24.0046   -9.3219   20.8841 C   0  0  0  0  0  0  0  0  0  0  0  0
  -26.0604  -37.7249   21.9288 C   0  0  0  0  0  0  0  0  0  0  0  0
  -27.2666  -35.5031   20.7647 C   0  0  0  0  0  0  0  0  0  0  0  0
  -26.8051  -28.5541   19.0868 C   0  0  0  0  0  0  0  0  0  0  0  0
  -23.0063  -10.2277   23.3265 C   0  0  0  0  0  0  0  0  0  0  0  0
  -22.9839   -8.6190   21.5241 C   0  0  0  0  0  0  0  0  0  0  0  0
  -27.3939  -27.3294   19.3986 C   0  0  0  0  0  0  0  0  0  0  0  0
  -20.6202   -6.2004   22.8588 C   0  0  0  0  0  0  0  0  0  0  0  0
  -20.7312   -4.8116   22.9257 C   0  0  0  0  0  0  0  0  0  0  0  0
  -26.0328  -27.1878   21.3852 C   0  0  0  0  0  0  0  0  0  0  0  0
  -28.7157  -22.3862   19.8054 C   0  0  0  0  0  0  0  0  0  0  0  0
  -22.8033   -5.0360   24.1475 C   0  0  0  0  0  0  0  0  0  0  0  0
  -29.9091  -23.3821   21.4345 C   0  0  0  0  0  0  0  0  0  0  0  0
  -24.5263  -10.4776   21.4653 C   0  0  0  0  0  0  0  0  0  0  0  0
  -26.9672  -11.0147   20.9543 C   0  0  0  0  0  0  0  0  0  0  0  0
  -25.9110  -36.4661   22.5319 C   0  0  0  0  0  0  0  0  0  0  0  0
  -25.8320  -29.1110   19.9290 C   0  0  0  0  0  0  0  0  0  0  0  0
  -26.5291  -35.3427   21.9501 C   0  0  0  0  0  0  0  0  0  0  0  0
  -25.4314  -28.4185   21.0805 C   0  0  0  0  0  0  0  0  0  0  0  0
  -29.0521  -23.6340   20.3860 C   0  0  0  0  0  0  0  0  0  0  0  0
  -22.4847   -9.0719   22.7453 C   0  0  0  0  0  0  0  0  0  0  0  0
  -27.0098  -26.6474   20.5495 C   0  0  0  0  0  0  0  0  0  0  0  0
  -21.6008   -7.0071   23.4362 C   0  0  0  0  0  0  0  0  0  0  0  0
  -21.8227   -4.2294   23.5700 C   0  0  0  0  0  0  0  0  0  0  0  0
  -22.6924   -6.4249   24.0806 C   0  0  0  0  0  0  0  0  0  0  0  0
  -25.5803  -11.2035   20.8034 C   0  0  0  0  0  0  0  0  0  0  0  0
  -29.3774  -21.4098   20.5169 C   0  0  0  0  0  0  0  0  0  0  0  0
  -27.5335  -11.9443   20.1166 C   0  0  0  0  0  0  0  0  0  0  0  0
  -27.6799  -10.0824   21.7781 C   0  0  0  0  0  0  0  0  0  0  0  0
  -25.6117  -31.7763   21.6471 C   0  0  0  0  0  0  0  0  0  0  0  0
  -22.5837  -30.7322   22.1602 C   0  0  0  0  0  0  0  0  0  0  0  0
  -20.4049  -28.1082   22.2787 C   0  0  0  0  0  0  0  0  0  0  0  0
  -27.8564  -16.9545   17.9228 C   0  0  0  0  0  0  0  0  0  0  0  0
  -25.1456  -36.3681   23.8277 C   0  0  0  0  0  0  0  0  0  0  0  0
  -25.1873  -30.4202   19.5645 C   0  0  0  0  0  0  0  0  0  0  0  0
  -24.3765  -28.9636   22.0070 C   0  0  0  0  0  0  0  0  0  0  0  0
  -24.7407  -34.9415   24.1896 C   0  0  0  0  0  0  0  0  0  0  0  0
  -25.4706  -14.8644   16.5487 C   0  0  0  0  0  0  0  0  0  0  0  0
  -25.9196  -33.9902   24.0105 C   0  0  0  0  0  0  0  0  0  0  0  0
  -25.3921  -13.7024   17.5386 C   0  0  0  0  0  0  0  0  0  0  0  0
  -27.9819  -19.2946   20.5354 C   0  0  0  0  0  0  0  0  0  0  0  0
  -29.9585  -19.4916   18.9657 C   0  0  0  0  0  0  0  0  0  0  0  0
  -25.5886  -16.1968   17.2797 C   0  0  0  0  0  0  0  0  0  0  0  0
  -27.9862  -17.7791   20.3153 C   0  0  0  0  0  0  0  0  0  0  0  0
  -29.9330  -17.9745   18.8037 C   0  0  0  0  0  0  0  0  0  0  0  0
  -26.6846  -15.1136   19.2145 C   0  0  0  0  0  0  0  0  0  0  0  0
  -26.3879  -33.9608   22.5505 C   0  0  1  0  0  0  0  0  0  0  0  0
  -29.3807  -19.9040   20.3318 C   0  0  0  0  0  0  0  0  0  0  0  0
  -24.5767  -31.1397   20.7633 C   0  0  1  0  0  0  0  0  0  0  0  0
  -26.5709  -13.7376   18.5273 C   0  0  1  0  0  0  0  0  0  0  0  0
  -18.0042  -27.5615   22.7636 C   0  0  0  0  0  0  0  0  0  0  0  0
  -33.1685  -20.2515   22.9978 C   0  0  0  0  0  0  0  0  0  0  0  0
  -33.0546  -22.1740   21.3988 C   0  0  0  0  0  0  0  0  0  0  0  0
  -23.1245  -31.0201   25.1493 C   0  0  0  0  0  0  0  0  0  0  0  0
  -21.1096  -29.5978   25.5799 C   0  0  0  0  0  0  0  0  0  0  0  0
  -20.8603  -31.7919   24.4197 C   0  0  0  0  0  0  0  0  0  0  0  0
  -19.9669  -27.0725   19.5411 C   0  0  0  0  0  0  0  0  0  0  0  0
  -28.5737  -24.9594   19.9490 C   0  0  0  0  0  0  0  0  0  1  0  0
  -30.9389  -21.3655   22.4798 C   0  0  0  0  0  0  0  0  0  0  0  0
  -21.9163  -29.8521   23.1892 C   0  0  1  0  0  0  0  0  0  0  0  0
  -19.0182  -27.9230   21.6894 C   0  0  2  0  0  0  0  0  0  0  0  0
  -32.3154  -20.9460   21.9340 C   0  0  0  0  0  0  0  0  0  0  0  0
  -21.7740  -30.5558   24.5683 C   0  0  0  0  0  0  0  0  0  0  0  0
  -25.2836  -12.1767   19.9380 N   0  0  0  0  0  0  0  0  0  0  0  0
  -30.0995  -22.0267   21.5048 N   0  0  0  0  0  0  0  0  0  0  0  0
  -26.4919  -12.6077   19.5376 N   0  0  0  0  0  0  0  0  0  0  0  0
  -23.7802  -30.2501   21.6108 N   0  0  0  0  0  0  0  0  0  0  0  0
  -26.7165  -16.1890   18.2111 N   0  0  0  0  0  0  0  0  0  0  0  0
  -28.5862  -17.4450   19.0161 N   0  0  0  0  0  0  0  0  0  0  0  0
  -28.8157  -12.2507   19.8262 N   0  0  0  0  0  0  0  0  0  0  0  0
  -26.9430   -9.1980   22.5775 N   0  0  0  0  0  0  0  0  0  0  0  0
  -25.4961  -33.1494   21.7500 N   0  0  0  0  0  0  0  0  0  0  0  0
  -20.6504  -29.4259   22.6024 N   0  0  0  0  0  0  0  0  0  0  0  0
  -19.0297  -26.8366   20.6694 N   0  3  0  0  0  0  0  0  0  0  0  0
  -28.9331  -10.0460   21.8168 O   0  0  0  0  0  0  0  0  0  0  0  0
  -26.4521  -31.0735   22.1962 O   0  0  0  0  0  0  0  0  0  0  0  0
  -22.0589  -31.8046   21.8498 O   0  0  0  0  0  0  0  0  0  0  0  0
  -21.1902  -27.1766   22.4394 O   0  0  0  0  0  0  0  0  0  0  0  0
  -28.2029  -17.1858   16.7576 O   0  0  0  0  0  0  0  0  0  0  0  0
  -21.4888   -8.3857   23.3697 O   0  0  0  0  0  0  0  0  0  0  0  0
  -27.5863  -25.4461   20.8581 O   0  0  0  0  0  0  0  0  0  1  0  0
  -21.9284   -2.8957   23.6355 F   0  0  0  0  0  0  0  0  0  0  0  0
  -23.6370   -7.1946   24.6382 F   0  0  0  0  0  0  0  0  0  0  0  0
  1  2  1  0  0  0  0
  1  5  2  0  0  0  0
  2  6  2  0  0  0  0
  3  8  2  0  0  0  0
  3 17  1  0  0  0  0
  4  9  1  0  0  0  0
  4 17  2  0  0  0  0
  5 19  1  0  0  0  0
  6 21  1  0  0  0  0
  7 10  2  0  0  0  0
  7 20  1  0  0  0  0
  8 24  1  0  0  0  0
  9 24  2  0  0  0  0
 10 25  1  0  0  0  0
 11 12  2  0  0  0  0
 11 26  1  0  0  0  0
 12 27  1  0  0  0  0
 13 22  1  0  0  0  0
 13 25  2  0  0  0  0
 14 23  1  0  0  0  0
 14 30  2  0  0  0  0
 15 27  2  0  0  0  0
 15 28  1  0  0  0  0
 16 23  2  0  0  0  0
 16 68  1  0  0  0  0
 17 29  1  0  0  0  0
 18 29  1  0  0  0  0
 18 31  2  0  0  0  0
 18 32  1  0  0  0  0
 19 21  2  0  0  0  0
 19 37  1  0  0  0  0
 20 22  2  0  0  0  0
 20 38  1  0  0  0  0
 21 50  1  0  0  0  0
 22 39  1  0  0  0  0
 23 61  1  0  0  0  0
 24 83  1  0  0  0  0
 25 84  1  0  0  0  0
 26 28  2  0  0  0  0
 26 83  1  0  0  0  0
 27 85  1  0  0  0  0
 28 86  1  0  0  0  0
 29 67  2  0  0  0  0
 30 51  1  0  0  0  0
 30 68  1  0  0  0  0
 31 69  1  0  0  0  0
 31 73  1  0  0  0  0
 32 74  1  0  0  0  0
 32 78  2  0  0  0  0
 33 52  1  0  0  0  0
 33 75  1  0  0  0  0
 33 79  2  0  0  0  0
 34 63  1  0  0  0  0
 34 70  1  0  0  0  0
 34 80  2  0  0  0  0
 35 64  1  0  0  0  0
 35 76  1  0  0  0  0
 35 81  2  0  0  0  0
 36 71  1  0  0  0  0
 36 72  1  0  0  0  0
 36 82  2  0  0  0  0
 37 40  1  0  0  0  0
 38 52  1  0  0  0  0
 39 70  1  0  0  0  0
 40 42  1  0  0  0  0
 41 43  1  0  0  0  0
 41 46  1  0  0  0  0
 42 50  1  0  0  0  0
 43 53  1  0  0  0  0
 44 47  1  0  0  0  0
 44 51  1  0  0  0  0
 45 48  1  0  0  0  0
 45 51  1  0  0  0  0
 46 71  1  0  0  0  0
 47 72  1  0  0  0  0
 48 72  1  0  0  0  0
 49 53  1  0  0  0  0
 49 71  1  0  0  0  0
 50 75  1  0  0  0  0
 52 70  1  0  0  0  0
 53 69  1  0  0  0  0
 54 64  1  0  0  0  0
 55 65  1  0  0  0  0
 56 65  1  0  0  0  0
 57 66  1  0  0  0  0
 58 66  1  0  0  0  0
 59 66  1  0  0  0  0
 60 77  1  0  0  0  0
 61 84  1  0  0  0  0
 62 65  1  0  0  0  0
 62 68  1  0  0  0  0
 63 66  1  0  0  0  0
 63 76  1  0  0  0  0
 64 77  1  0  0  0  0
 67 69  1  0  0  0  0
M  CHG  1  77   1
M  ISO  4  36 100  61 101  72 100  84 101
M  END
> <Batch ID>
0131

> <Smiles>
CNC(C)C(=O)NC(C(=O)N1Cc2cc([101O:1][101CH2:1]c3cc(C4CC[100N:0]([100C:0](=O)N5CCCC(n6nc(-c7ccc(Oc8ccc(F)cc8F)cc7)c(C(N)=O)c6N)C5)CC4)n(CC(C)C)c3)ccc2CC1C(=O)NC1CCCc2ccccc21)C(C)(C)C

> <Shape>
0.321

> <Color>
0.073

> <Negative vol penalty>
0.000

$$$$

  -OEChem-04052320503D

 86 94  0     1  0  0  0  0  0999 V2000
  -27.7908  -34.4916   24.7156 C   0  0  0  0  0  0  0  0  0  0  0  0
  -27.9957  -33.1873   24.2770 C   0  0  0  0  0  0  0  0  0  0  0  0
  -25.2453  -22.2168   25.4968 C   0  0  0  0  0  0  0  0  0  0  0  0
  -25.0135  -22.5075   23.1096 C   0  0  0  0  0  0  0  0  0  0  0  0
  -26.5195  -34.8988   25.1179 C   0  0  0  0  0  0  0  0  0  0  0  0
  -26.9296  -32.2892   24.2414 C   0  0  0  0  0  0  0  0  0  0  0  0
  -26.7931  -29.6048   19.9495 C   0  0  0  0  0  0  0  0  0  0  0  0
  -25.9146  -23.4377   25.5805 C   0  0  0  0  0  0  0  0  0  0  0  0
  -25.6827  -23.7285   23.1933 C   0  0  0  0  0  0  0  0  0  0  0  0
  -27.6851  -28.5393   19.8363 C   0  0  0  0  0  0  0  0  0  0  0  0
  -29.4946  -20.8462   18.0150 C   0  0  0  0  0  0  0  0  0  0  0  0
  -29.2105  -20.6373   20.4051 C   0  0  0  0  0  0  0  0  0  0  0  0
  -29.7319  -22.2127   18.1626 C   0  0  0  0  0  0  0  0  0  0  0  0
  -29.4478  -22.0039   20.5527 C   0  0  0  0  0  0  0  0  0  0  0  0
  -27.3662  -26.6484   26.4744 C   0  0  0  0  0  0  0  0  0  0  0  0
  -27.0006  -27.5193   27.5008 C   0  0  0  0  0  0  0  0  0  0  0  0
  -25.9166  -27.0050   20.4175 C   0  0  0  0  0  0  0  0  0  0  0  0
  -24.7464  -27.5940   26.6348 C   0  0  0  0  0  0  0  0  0  0  0  0
  -24.7948  -21.7517   24.2613 C   0  0  0  0  0  0  0  0  0  0  0  0
  -22.7174  -20.2712   24.2819 C   0  0  0  0  0  0  0  0  0  0  0  0
  -25.4352  -34.0080   25.0781 C   0  0  0  0  0  0  0  0  0  0  0  0
  -25.4565  -29.3791   20.3088 C   0  0  0  0  0  0  0  0  0  0  0  0
  -25.6429  -32.6846   24.6448 C   0  0  0  0  0  0  0  0  0  0  0  0
  -25.0091  -28.0691   20.5321 C   0  0  0  0  0  0  0  0  0  0  0  0
  -26.1333  -24.1936   24.4288 C   0  0  0  0  0  0  0  0  0  0  0  0
  -29.2338  -20.0584   19.1362 C   0  0  0  0  0  0  0  0  0  0  0  0
  -29.7085  -22.7916   19.4314 C   0  0  0  0  0  0  0  0  0  0  0  0
  -27.2476  -27.2394   20.0731 C   0  0  0  0  0  0  0  0  0  0  0  0
  -26.4218  -26.2504   25.5281 C   0  0  0  0  0  0  0  0  0  0  0  0
  -25.6908  -27.9921   27.5810 C   0  0  0  0  0  0  0  0  0  0  0  0
  -25.1120  -26.7231   25.6083 C   0  0  0  0  0  0  0  0  0  0  0  0
  -24.1038  -20.4903   24.1741 C   0  0  0  0  0  0  0  0  0  0  0  0
  -22.5714  -18.9139   24.1299 C   0  0  0  0  0  0  0  0  0  0  0  0
  -21.6564  -21.2105   24.4997 C   0  0  0  0  0  0  0  0  0  0  0  0
  -23.6091  -30.2563   22.7422 C   0  0  0  0  0  0  0  0  0  0  0  0
  -21.2871  -28.8217   20.9893 C   0  0  0  0  0  0  0  0  0  0  0  0
  -20.4606  -26.5377   18.5920 C   0  0  0  0  0  0  0  0  0  0  0  0
  -25.8964  -14.7329   21.4254 C   0  0  0  0  0  0  0  0  0  0  0  0
  -24.0892  -34.4805   25.5677 C   0  0  0  0  0  0  0  0  0  0  0  0
  -24.5005  -30.5367   20.4006 C   0  0  0  0  0  0  0  0  0  0  0  0
  -23.5794  -27.7715   20.9007 C   0  0  0  0  0  0  0  0  0  0  0  0
  -22.9352  -33.5750   25.1451 C   0  0  0  0  0  0  0  0  0  0  0  0
  -24.8983  -14.7946   24.8425 C   0  0  0  0  0  0  0  0  0  0  0  0
  -23.2860  -32.1116   25.3947 C   0  0  0  0  0  0  0  0  0  0  0  0
  -24.4564  -16.2416   25.0684 C   0  0  0  0  0  0  0  0  0  0  0  0
  -26.0927  -14.7107   23.8947 C   0  0  0  0  0  0  0  0  0  0  0  0
  -25.4642  -16.8412   22.8271 C   0  0  0  0  0  0  0  0  0  0  0  0
  -24.5065  -31.6882   24.5685 C   0  0  1  0  0  0  0  0  0  0  0  0
  -23.2858  -30.2405   21.2749 C   0  0  1  0  0  0  0  0  0  0  0  0
  -24.2273  -16.9730   23.7321 C   0  0  2  0  0  0  0  0  0  0  0  0
  -18.4794  -25.5619   17.4004 C   0  0  0  0  0  0  0  0  0  0  0  0
  -20.6223  -27.1601   23.4605 C   0  0  0  0  0  0  0  0  0  0  0  0
  -19.3424  -25.5983   21.9803 C   0  0  0  0  0  0  0  0  0  0  0  0
  -18.6315  -27.9803   22.1884 C   0  0  0  0  0  0  0  0  0  0  0  0
  -21.4314  -27.4826   15.9606 C   0  0  0  0  0  0  0  0  0  0  0  0
  -25.6462  -14.9091   18.9626 C   0  0  0  0  0  0  0  0  0  0  0  0
  -27.0160  -15.0370   18.3226 C   0  0  0  0  0  0  0  0  0  0  0  0
  -28.7669  -16.7078   17.7049 C   0  0  0  0  0  0  0  0  0  0  0  0
  -29.0379  -18.1989   17.6667 C   0  0  0  0  0  0  0  0  0  0  0  0
  -29.5581  -24.9712   18.4921 C   0  0  0  0  0  0  0  0  0  0  0  0
  -29.1862  -26.3392   19.0304 C   0  0  0  0  0  0  0  0  0  1  0  0
  -20.7303  -27.4217   20.8942 C   0  0  1  0  0  0  0  0  0  0  0  0
  -19.5562  -26.6355   17.3766 C   0  0  2  0  0  0  0  0  0  0  0  0
  -19.8591  -27.0455   22.1258 C   0  0  0  0  0  0  0  0  0  0  0  0
  -24.7897  -19.3625   23.9697 N   0  0  0  0  0  0  0  0  0  0  0  0
  -23.8303  -18.4217   23.9478 N   0  0  0  0  0  0  0  0  0  0  0  0
  -22.6844  -28.9375   20.9842 N   0  0  0  0  0  0  0  0  0  0  0  0
  -25.8100  -15.4226   22.6460 N   0  0  0  0  0  0  0  0  0  0  0  0
  -21.4904  -18.1054   24.1357 N   0  0  0  0  0  0  0  0  0  0  0  0
  -21.9821  -22.5671   24.6341 N   0  0  0  0  0  0  0  0  0  0  0  0
  -24.1283  -31.4557   23.1910 N   0  0  0  0  0  0  0  0  0  0  0  0
  -20.0255  -27.3485   19.6189 N   0  0  0  0  0  0  0  0  0  0  0  0
  -25.6065  -15.4801   20.2904 N   0  0  0  0  0  0  0  0  0  0  0  0
  -20.3506  -26.4768   16.1257 N   0  3  0  0  0  0  0  0  0  0  0  0
  -27.4112  -16.4702   18.2615 N   0  3  0  0  0  0  0  0  0  0  0  0
  -20.4566  -20.8554   24.5895 O   0  0  0  0  0  0  0  0  0  0  0  0
  -23.4013  -29.2551   23.4174 O   0  0  0  0  0  0  0  0  0  0  0  0
  -20.5108  -29.7779   21.0581 O   0  0  0  0  0  0  0  0  0  0  0  0
  -21.4516  -25.8117   18.6281 O   0  0  0  0  0  0  0  0  0  0  0  0
  -26.2036  -13.5382   21.3530 O   0  0  0  0  0  0  0  0  0  0  0  0
  -26.7861  -25.3851   24.5101 O   0  0  0  0  0  0  0  0  0  0  0  0
  -29.0007  -18.7253   18.9924 O   0  0  0  0  0  0  0  0  0  0  0  0
  -29.9414  -24.1339   19.5763 O   0  0  0  0  0  0  0  0  0  0  0  0
  -28.1163  -26.1977   19.9640 O   0  0  0  0  0  0  0  0  0  1  0  0
  -25.3396  -28.8272   28.5677 F   0  0  0  0  0  0  0  0  0  0  0  0
  -24.2001  -26.3433   24.7028 F   0  0  0  0  0  0  0  0  0  0  0  0
  1  2  1  0  0  0  0
  1  5  2  0  0  0  0
  2  6  2  0  0  0  0
  3  8  2  0  0  0  0
  3 19  1  0  0  0  0
  4  9  1  0  0  0  0
  4 19  2  0  0  0  0
  5 21  1  0  0  0  0
  6 23  1  0  0  0  0
  7 10  2  0  0  0  0
  7 22  1  0  0  0  0
  8 25  1  0  0  0  0
  9 25  2  0  0  0  0
 10 28  1  0  0  0  0
 11 13  2  0  0  0  0
 11 26  1  0  0  0  0
 12 14  1  0  0  0  0
 12 26  2  0  0  0  0
 13 27  1  0  0  0  0
 14 27  2  0  0  0  0
 15 16  2  0  0  0  0
 15 29  1  0  0  0  0
 16 30  1  0  0  0  0
 17 24  1  0  0  0  0
 17 28  2  0  0  0  0
 18 30  2  0  0  0  0
 18 31  1  0  0  0  0
 19 32  1  0  0  0  0
 20 32  1  0  0  0  0
 20 33  2  0  0  0  0
 20 34  1  0  0  0  0
 21 23  2  0  0  0  0
 21 39  1  0  0  0  0
 22 24  2  0  0  0  0
 22 40  1  0  0  0  0
 23 48  1  0  0  0  0
 24 41  1  0  0  0  0
 25 81  1  0  0  0  0
 26 82  1  0  0  0  0
 27 83  1  0  0  0  0
 28 84  1  0  0  0  0
 29 31  2  0  0  0  0
 29 81  1  0  0  0  0
 30 85  1  0  0  0  0
 31 86  1  0  0  0  0
 32 65  2  0  0  0  0
 33 66  1  0  0  0  0
 33 69  1  0  0  0  0
 34 70  1  0  0  0  0
 34 76  2  0  0  0  0
 35 49  1  0  0  0  0
 35 71  1  0  0  0  0
 35 77  2  0  0  0  0
 36 62  1  0  0  0  0
 36 67  1  0  0  0  0
 36 78  2  0  0  0  0
 37 63  1  0  0  0  0
 37 72  1  0  0  0  0
 37 79  2  0  0  0  0
 38 68  1  0  0  0  0
 38 73  1  0  0  0  0
 38 80  2  0  0  0  0
 39 42  1  0  0  0  0
 40 49  1  0  0  0  0
 41 67  1  0  0  0  0
 42 44  1  0  0  0  0
 43 45  1  0  0  0  0
 43 46  1  0  0  0  0
 44 48  1  0  0  0  0
 45 50  1  0  0  0  0
 46 68  1  0  0  0  0
 47 50  1  0  0  0  0
 47 68  1  0  0  0  0
 48 71  1  0  0  0  0
 49 67  1  0  0  0  0
 50 66  1  0  0  0  0
 51 63  1  0  0  0  0
 52 64  1  0  0  0  0
 53 64  1  0  0  0  0
 54 64  1  0  0  0  0
 55 74  1  0  0  0  0
 56 57  1  0  0  0  0
 56 73  1  0  0  0  0
 57 75  1  0  0  0  0
 58 59  1  0  0  0  0
 58 75  1  0  0  0  0
 59 82  1  0  0  0  0
 60 61  1  0  0  0  0
 60 83  1  0  0  0  0
 61 84  1  0  0  0  0
 62 64  1  0  0  0  0
 62 72  1  0  0  0  0
 63 74  1  0  0  0  0
 65 66  1  0  0  0  0
M  CHG  2  74   1  75   1
M  ISO  4  38 100  61 101  73 100  84 101
M  END
> <Batch ID>
0131

> <Smiles>
CNC(C)C(=O)NC(C(=O)N1Cc2cc([101O:1][101CH2:1]COc3ccc(OCCNCC[100NH:0][100C:0](=O)N4CCCC(n5nc(-c6ccc(Oc7ccc(F)cc7F)cc6)c(C(N)=O)c5N)C4)cc3)ccc2CC1C(=O)NC1CCCc2ccccc21)C(C)(C)C

> <Shape>
0.220

> <Color>
0.070

> <Negative vol penalty>
0.000

$$$$

  -OEChem-04052320503D

 82 90  0     1  0  0  0  0  0999 V2000
  -28.0683  -33.3347   14.0971 C   0  0  0  0  0  0  0  0  0  0  0  0
  -28.2411  -31.9945   14.4279 C   0  0  0  0  0  0  0  0  0  0  0  0
  -22.8926  -10.1542   19.9601 C   0  0  0  0  0  0  0  0  0  0  0  0
  -23.8210   -9.8616   22.1713 C   0  0  0  0  0  0  0  0  0  0  0  0
  -27.5954  -34.2322   15.0534 C   0  0  0  0  0  0  0  0  0  0  0  0
  -27.9420  -31.5512   15.7157 C   0  0  0  0  0  0  0  0  0  0  0  0
  -25.6240  -26.1055   17.2894 C   0  0  0  0  0  0  0  0  0  0  0  0
  -29.2903  -21.1397   19.2261 C   0  0  0  0  0  0  0  0  0  0  0  0
  -29.8107  -20.0254   19.8841 C   0  0  0  0  0  0  0  0  0  0  0  0
  -22.0979   -9.0227   20.1439 C   0  0  0  0  0  0  0  0  0  0  0  0
  -23.0263   -8.7301   22.3552 C   0  0  0  0  0  0  0  0  0  0  0  0
  -26.2153  -24.9374   17.7685 C   0  0  0  0  0  0  0  0  0  0  0  0
  -23.0635   -5.4809   21.4210 C   0  0  0  0  0  0  0  0  0  0  0  0
  -23.6649   -4.3493   21.9717 C   0  0  0  0  0  0  0  0  0  0  0  0
  -25.6953  -25.6076   20.0267 C   0  0  0  0  0  0  0  0  0  0  0  0
  -27.1042  -20.6543   20.1331 C   0  0  0  0  0  0  0  0  0  0  0  0
  -22.1104   -4.4226   23.8198 C   0  0  0  0  0  0  0  0  0  0  0  0
  -23.7542  -10.5736   20.9737 C   0  0  0  0  0  0  0  0  0  0  0  0
  -24.2454  -13.0737   21.0993 C   0  0  0  0  0  0  0  0  0  0  0  0
  -27.2812  -33.7979   16.3509 C   0  0  0  0  0  0  0  0  0  0  0  0
  -25.0726  -27.0402   18.1775 C   0  0  0  0  0  0  0  0  0  0  0  0
  -27.4657  -32.4441   16.6908 C   0  0  0  0  0  0  0  0  0  0  0  0
  -25.0952  -26.7856   19.5562 C   0  0  0  0  0  0  0  0  0  0  0  0
  -27.9370  -21.4543   19.3506 C   0  0  0  0  0  0  0  0  0  0  0  0
  -27.6246  -19.5399   20.7911 C   0  0  0  0  0  0  0  0  0  0  0  0
  -28.9779  -19.2255   20.6666 C   0  0  0  0  0  0  0  0  0  0  0  0
  -22.1648   -8.3106   21.3415 C   0  0  0  0  0  0  0  0  0  0  0  0
  -26.2536  -24.6897   19.1376 C   0  0  0  0  0  0  0  0  0  0  0  0
  -21.9857   -6.0836   22.0698 C   0  0  0  0  0  0  0  0  0  0  0  0
  -23.1883   -3.8201   23.1711 C   0  0  0  0  0  0  0  0  0  0  0  0
  -21.5091   -5.5544   23.2691 C   0  0  0  0  0  0  0  0  0  0  0  0
  -24.5757  -11.7421   20.7842 C   0  0  0  0  0  0  0  0  0  0  0  0
  -25.3526  -13.7984   20.7313 C   0  0  0  0  0  0  0  0  0  0  0  0
  -23.0451  -13.6079   21.6734 C   0  0  0  0  0  0  0  0  0  0  0  0
  -25.6679  -30.0803   18.8893 C   0  0  0  0  0  0  0  0  0  0  0  0
  -23.0003  -29.7708   20.7088 C   0  0  0  0  0  0  0  0  0  0  0  0
  -20.8790  -27.7115   22.4135 C   0  0  0  0  0  0  0  0  0  0  0  0
  -30.8885  -14.4882   20.5813 C   0  0  0  0  0  0  0  0  0  0  0  0
  -26.8179  -34.8142   17.3643 C   0  0  0  0  0  0  0  0  0  0  0  0
  -24.4145  -28.2826   17.6430 C   0  0  0  0  0  0  0  0  0  0  0  0
  -24.4992  -27.7475   20.5501 C   0  0  0  0  0  0  0  0  0  0  0  0
  -26.1687  -34.1920   18.5979 C   0  0  0  0  0  0  0  0  0  0  0  0
  -29.4266  -12.4532   18.0519 C   0  0  0  0  0  0  0  0  0  0  0  0
  -27.0132  -33.0333   19.1185 C   0  0  0  0  0  0  0  0  0  0  0  0
  -28.0099  -12.1917   18.5662 C   0  0  0  0  0  0  0  0  0  0  0  0
  -30.4432  -12.4870   19.1910 C   0  0  0  0  0  0  0  0  0  0  0  0
  -28.7008  -13.1604   20.7985 C   0  0  0  0  0  0  0  0  0  0  0  0
  -27.1288  -31.9203   18.0700 C   0  0  1  0  0  0  0  0  0  0  0  0
  -24.3418  -29.4090   18.6694 C   0  0  1  0  0  0  0  0  0  0  0  0
  -27.6321  -13.1730   19.6922 C   0  0  2  0  0  0  0  0  0  0  0  0
  -26.7101  -18.7005   21.6226 C   0  0  0  0  0  0  0  0  0  0  0  0
  -18.8096  -27.7532   23.8324 C   0  0  0  0  0  0  0  0  0  0  0  0
  -24.6408  -30.7999   23.0667 C   0  0  0  0  0  0  0  0  0  0  0  0
  -22.8575  -29.9335   24.5956 C   0  0  0  0  0  0  0  0  0  0  0  0
  -22.3168  -31.7142   22.9345 C   0  0  0  0  0  0  0  0  0  0  0  0
  -19.3853  -26.0313   20.4888 C   0  0  0  0  0  0  0  0  0  0  0  0
  -27.3776  -22.6531   18.6427 C   0  0  0  0  0  0  0  0  0  1  0  0
  -30.9012  -17.7386   21.2285 C   0  0  0  0  0  0  0  0  0  0  0  0
  -31.1830  -16.4792   22.0335 C   0  0  0  0  0  0  0  0  0  0  0  0
  -22.7193  -29.3510   22.1314 C   0  0  1  0  0  0  0  0  0  0  0  0
  -19.3644  -27.6108   22.4236 C   0  0  2  0  0  0  0  0  0  0  0  0
  -23.1466  -30.4323   23.1637 C   0  0  0  0  0  0  0  0  0  0  0  0
  -25.7971  -11.6248   20.2564 N   0  0  0  0  0  0  0  0  0  0  0  0
  -26.2439  -12.8921   20.2370 N   0  0  0  0  0  0  0  0  0  0  0  0
  -23.8727  -28.9511   19.9788 N   0  0  0  0  0  0  0  0  0  0  0  0
  -30.0268  -13.4379   20.2246 N   0  0  0  0  0  0  0  0  0  0  0  0
  -25.6409  -15.1161   20.7854 N   0  0  0  0  0  0  0  0  0  0  0  0
  -22.0057  -12.7233   21.9920 N   0  0  0  0  0  0  0  0  0  0  0  0
  -29.5222  -18.1012   21.3254 N   0  0  0  0  0  0  0  0  0  0  0  0
  -25.9140  -31.1347   18.0307 N   0  0  0  0  0  0  0  0  0  0  0  0
  -21.3035  -29.0028   22.1821 N   0  0  0  0  0  0  0  0  0  0  0  0
  -30.4142  -15.3478   21.5646 N   0  0  0  0  0  0  0  0  0  0  0  0
  -18.9291  -26.2940   21.8780 N   0  3  0  0  0  0  0  0  0  0  0  0
  -22.8922  -14.8353   21.8822 O   0  0  0  0  0  0  0  0  0  0  0  0
  -26.4121  -29.6729   19.7735 O   0  0  0  0  0  0  0  0  0  0  0  0
  -22.4599  -30.7845   20.2594 O   0  0  0  0  0  0  0  0  0  0  0  0
  -21.6123  -26.7423   22.5965 O   0  0  0  0  0  0  0  0  0  0  0  0
  -31.9962  -14.6512   20.0583 O   0  0  0  0  0  0  0  0  0  0  0  0
  -21.3893   -7.2066   21.5214 O   0  0  0  0  0  0  0  0  0  0  0  0
  -26.8308  -23.5506   19.6080 O   0  0  0  0  0  0  0  0  0  1  0  0
  -23.7648   -2.7324   23.6990 F   0  0  0  0  0  0  0  0  0  0  0  0
  -20.4732   -6.1282   23.8964 F   0  0  0  0  0  0  0  0  0  0  0  0
  1  2  1  0  0  0  0
  1  5  2  0  0  0  0
  2  6  2  0  0  0  0
  3 10  2  0  0  0  0
  3 18  1  0  0  0  0
  4 11  1  0  0  0  0
  4 18  2  0  0  0  0
  5 20  1  0  0  0  0
  6 22  1  0  0  0  0
  7 12  2  0  0  0  0
  7 21  1  0  0  0  0
  8  9  2  0  0  0  0
  8 24  1  0  0  0  0
  9 26  1  0  0  0  0
 10 27  1  0  0  0  0
 11 27  2  0  0  0  0
 12 28  1  0  0  0  0
 13 14  2  0  0  0  0
 13 29  1  0  0  0  0
 14 30  1  0  0  0  0
 15 23  1  0  0  0  0
 15 28  2  0  0  0  0
 16 24  2  0  0  0  0
 16 25  1  0  0  0  0
 17 30  2  0  0  0  0
 17 31  1  0  0  0  0
 18 32  1  0  0  0  0
 19 32  1  0  0  0  0
 19 33  2  0  0  0  0
 19 34  1  0  0  0  0
 20 22  2  0  0  0  0
 20 39  1  0  0  0  0
 21 23  2  0  0  0  0
 21 40  1  0  0  0  0
 22 48  1  0  0  0  0
 23 41  1  0  0  0  0
 24 57  1  0  0  0  0
 25 26  2  0  0  0  0
 25 51  1  0  0  0  0
 26 69  1  0  0  0  0
 27 79  1  0  0  0  0
 28 80  1  0  0  0  0
 29 31  2  0  0  0  0
 29 79  1  0  0  0  0
 30 81  1  0  0  0  0
 31 82  1  0  0  0  0
 32 63  2  0  0  0  0
 33 64  1  0  0  0  0
 33 67  1  0  0  0  0
 34 68  1  0  0  0  0
 34 74  2  0  0  0  0
 35 49  1  0  0  0  0
 35 70  1  0  0  0  0
 35 75  2  0  0  0  0
 36 60  1  0  0  0  0
 36 65  1  0  0  0  0
 36 76  2  0  0  0  0
 37 61  1  0  0  0  0
 37 71  1  0  0  0  0
 37 77  2  0  0  0  0
 38 66  1  0  0  0  0
 38 72  1  0  0  0  0
 38 78  2  0  0  0  0
 39 42  1  0  0  0  0
 40 49  1  0  0  0  0
 41 65  1  0  0  0  0
 42 44  1  0  0  0  0
 43 45  1  0  0  0  0
 43 46  1  0  0  0  0
 44 48  1  0  0  0  0
 45 50  1  0  0  0  0
 46 66  1  0  0  0  0
 47 50  1  0  0  0  0
 47 66  1  0  0  0  0
 48 70  1  0  0  0  0
 49 65  1  0  0  0  0
 50 64  1  0  0  0  0
 52 61  1  0  0  0  0
 53 62  1  0  0  0  0
 54 62  1  0  0  0  0
 55 62  1  0  0  0  0
 56 73  1  0  0  0  0
 57 80  1  0  0  0  0
 58 59  1  0  0  0  0
 58 69  1  0  0  0  0
 59 72  1  0  0  0  0
 60 62  1  0  0  0  0
 60 71  1  0  0  0  0
 61 73  1  0  0  0  0
 63 64  1  0  0  0  0
M  CHG  1  73   1
M  ISO  4  38 100  57 101  72 100  80 101
M  END
> <Batch ID>
0131

> <Smiles>
CNC(C)C(=O)NC(C(=O)N1Cc2cc([101O:1][101CH2:1]c3ccc(NCC[100NH:0][100C:0](=O)N4CCCC(n5nc(-c6ccc(Oc7ccc(F)cc7F)cc6)c(C(N)=O)c5N)C4)c(C)c3)ccc2CC1C(=O)NC1CCCc2ccccc21)C(C)(C)C

> <Shape>
0.350

> <Color>
0.205

> <Negative vol penalty>
0.000

$$$$

  -OEChem-04052320503D

 82 90  0     1  0  0  0  0  0999 V2000
  -15.7227  -30.8951   24.4516 C   0  0  0  0  0  0  0  0  0  0  0  0
  -15.9014  -30.2290   23.2434 C   0  0  0  0  0  0  0  0  0  0  0  0
  -23.3339  -11.0595   22.8924 C   0  0  0  0  0  0  0  0  0  0  0  0
  -24.5127   -9.2458   21.8163 C   0  0  0  0  0  0  0  0  0  0  0  0
  -16.8003  -31.5409   25.0563 C   0  0  0  0  0  0  0  0  0  0  0  0
  -17.1577  -30.2091   22.6386 C   0  0  0  0  0  0  0  0  0  0  0  0
  -20.4952  -23.9836   21.2257 C   0  0  0  0  0  0  0  0  0  0  0  0
  -22.7957  -10.1624   23.8149 C   0  0  0  0  0  0  0  0  0  0  0  0
  -23.9745   -8.3487   22.7390 C   0  0  0  0  0  0  0  0  0  0  0  0
  -21.1051  -22.8303   20.7317 C   0  0  0  0  0  0  0  0  0  0  0  0
  -21.0400   -6.7439   23.2332 C   0  0  0  0  0  0  0  0  0  0  0  0
  -20.5307   -5.5404   22.7457 C   0  0  0  0  0  0  0  0  0  0  0  0
  -22.9711  -24.1457   19.9346 C   0  0  0  0  0  0  0  0  0  0  0  0
  -22.1155   -4.3205   24.1013 C   0  0  0  0  0  0  0  0  0  0  0  0
  -24.1924  -10.6012   21.8930 C   0  0  0  0  0  0  0  0  0  0  0  0
  -24.0415  -12.3480   20.0401 C   0  0  0  0  0  0  0  0  0  0  0  0
  -18.0727  -31.5207   24.4635 C   0  0  0  0  0  0  0  0  0  0  0  0
  -21.1289  -25.2218   21.0894 C   0  0  0  0  0  0  0  0  0  0  0  0
  -18.2531  -30.8563   23.2353 C   0  0  0  0  0  0  0  0  0  0  0  0
  -22.3709  -25.3027   20.4384 C   0  0  0  0  0  0  0  0  0  0  0  0
  -23.1160   -8.8070   23.7383 C   0  0  0  0  0  0  0  0  0  0  0  0
  -22.3399  -22.9112   20.0875 C   0  0  0  0  0  0  0  0  0  0  0  0
  -22.0871   -6.7357   24.1548 C   0  0  0  0  0  0  0  0  0  0  0  0
  -21.0684   -4.3287   23.1797 C   0  0  0  0  0  0  0  0  0  0  0  0
  -22.6248   -5.5241   24.5888 C   0  0  0  0  0  0  0  0  0  0  0  0
  -24.7482  -11.5273   20.9393 C   0  0  0  0  0  0  0  0  0  0  0  0
  -25.0186  -13.0333   19.3602 C   0  0  0  0  0  0  0  0  0  0  0  0
  -22.6282  -12.4793   19.8375 C   0  0  0  0  0  0  0  0  0  0  0  0
  -21.0226  -28.9136   21.7491 C   0  0  0  0  0  0  0  0  0  0  0  0
  -23.9107  -28.0035   22.2403 C   0  0  0  0  0  0  0  0  0  0  0  0
  -26.8672  -26.5258   23.0843 C   0  0  0  0  0  0  0  0  0  0  0  0
  -30.6537  -14.5267   20.7263 C   0  0  0  0  0  0  0  0  0  0  0  0
  -19.1965  -32.2731   25.1310 C   0  0  0  0  0  0  0  0  0  0  0  0
  -20.4803  -26.4983   21.5517 C   0  0  0  0  0  0  0  0  0  0  0  0
  -22.9995  -26.6606   20.2840 C   0  0  0  0  0  0  0  0  0  0  0  0
  -20.5797  -31.8874   24.6131 C   0  0  0  0  0  0  0  0  0  0  0  0
  -29.5626  -12.6289   17.9183 C   0  0  0  0  0  0  0  0  0  0  0  0
  -20.5865  -31.8460   23.0883 C   0  0  0  0  0  0  0  0  0  0  0  0
  -28.1413  -12.2054   18.2930 C   0  0  0  0  0  0  0  0  0  0  0  0
  -24.8061  -21.5997   18.1270 C   0  0  0  0  0  0  0  0  0  0  0  0
  -24.8768  -20.6210   20.4515 C   0  0  0  0  0  0  0  0  0  0  0  0
  -30.4879  -12.6370   19.1332 C   0  0  0  0  0  0  0  0  0  0  0  0
  -28.5818  -13.0107   20.6502 C   0  0  0  0  0  0  0  0  0  0  0  0
  -26.3134  -21.4440   18.0216 C   0  0  0  0  0  0  0  0  0  0  0  0
  -19.6062  -30.7914   22.5607 C   0  0  1  0  0  0  0  0  0  0  0  0
  -21.4903  -27.5287   22.0877 C   0  0  1  0  0  0  0  0  0  0  0  0
  -27.5984  -13.0413   19.4677 C   0  0  2  0  0  0  0  0  0  0  0  0
  -24.3544  -21.7612   19.5768 C   0  0  2  0  0  0  0  0  0  1  0  0
  -26.3929  -20.4725   20.3396 C   0  0  1  0  0  0  0  0  0  0  0  0
  -29.1618  -27.0622   23.9470 C   0  0  0  0  0  0  0  0  0  0  0  0
  -24.6912  -29.0689   19.4908 C   0  0  0  0  0  0  0  0  0  0  0  0
  -27.0889  -28.6863   20.1016 C   0  0  0  0  0  0  0  0  0  0  0  0
  -25.7111  -30.2989   21.4147 C   0  0  0  0  0  0  0  0  0  0  0  0
  -26.4769  -24.8563   25.4967 C   0  0  0  0  0  0  0  0  0  0  0  0
  -26.9079  -19.2599   21.1009 C   0  0  0  0  0  0  0  0  0  0  0  0
  -30.6661  -16.3881   22.3677 C   0  0  0  0  0  0  0  0  0  0  0  0
  -28.4214  -19.1563   21.0083 C   0  0  0  0  0  0  0  0  0  0  0  0
  -30.3345  -17.6888   21.6603 C   0  0  0  0  0  0  0  0  0  0  0  0
  -25.2932  -27.8183   21.6679 C   0  0  1  0  0  0  0  0  0  0  0  0
  -27.7434  -26.6571   24.3169 C   0  0  2  0  0  0  0  0  0  0  0  0
  -25.6774  -28.9467   20.6696 C   0  0  0  0  0  0  0  0  0  0  0  0
  -26.0720  -11.6760   20.8419 N   0  0  0  0  0  0  0  0  0  0  0  0
  -26.2049  -12.5980   19.8733 N   0  0  0  0  0  0  0  0  0  0  0  0
  -22.8498  -27.4281   21.5303 N   0  0  0  0  0  0  0  0  0  0  0  0
  -29.9160  -13.4484   20.2104 N   0  0  0  0  0  0  0  0  0  0  0  0
  -24.9700  -13.9596   18.3793 N   0  0  0  0  0  0  0  0  0  0  0  0
  -22.0078  -11.6461   18.8967 N   0  0  0  0  0  0  0  0  0  0  0  0
  -20.1728  -29.4658   22.6885 N   0  0  0  0  0  0  0  0  0  0  0  0
  -26.1945  -27.6974   22.8087 N   0  0  0  0  0  0  0  0  0  0  0  0
  -30.0359  -15.2476   21.7408 N   0  0  0  0  0  0  0  0  0  0  0  0
  -26.7535  -20.3108   18.8907 N   0  3  0  0  0  0  0  0  0  0  0  0
  -27.8011  -25.3619   25.0519 N   0  3  0  0  0  0  0  0  0  0  0  0
  -28.8681  -17.9378   21.7250 N   0  3  0  0  0  0  0  0  0  0  0  0
  -21.9388  -13.3222   20.4602 O   0  0  0  0  0  0  0  0  0  0  0  0
  -21.4051  -29.4441   20.7128 O   0  0  0  0  0  0  0  0  0  0  0  0
  -23.7715  -28.6454   23.2852 O   0  0  0  0  0  0  0  0  0  0  0  0
  -26.7902  -25.4887   22.4292 O   0  0  0  0  0  0  0  0  0  0  0  0
  -31.7773  -14.8282   20.3096 O   0  0  0  0  0  0  0  0  0  0  0  0
  -22.5912   -7.9314   24.6385 O   0  0  0  0  0  0  0  0  0  0  0  0
  -22.9318  -21.7808   19.6116 O   0  0  0  0  0  0  0  0  0  1  0  0
  -20.5781   -3.1730   22.7126 F   0  0  0  0  0  0  0  0  0  0  0  0
  -23.6301   -5.5099   25.4749 F   0  0  0  0  0  0  0  0  0  0  0  0
  1  2  1  0  0  0  0
  1  5  2  0  0  0  0
  2  6  2  0  0  0  0
  3  8  2  0  0  0  0
  3 15  1  0  0  0  0
  4  9  1  0  0  0  0
  4 15  2  0  0  0  0
  5 17  1  0  0  0  0
  6 19  1  0  0  0  0
  7 10  2  0  0  0  0
  7 18  1  0  0  0  0
  8 21  1  0  0  0  0
  9 21  2  0  0  0  0
 10 22  1  0  0  0  0
 11 12  2  0  0  0  0
 11 23  1  0  0  0  0
 12 24  1  0  0  0  0
 13 20  1  0  0  0  0
 13 22  2  0  0  0  0
 14 24  2  0  0  0  0
 14 25  1  0  0  0  0
 15 26  1  0  0  0  0
 16 26  1  0  0  0  0
 16 27  2  0  0  0  0
 16 28  1  0  0  0  0
 17 19  2  0  0  0  0
 17 33  1  0  0  0  0
 18 20  2  0  0  0  0
 18 34  1  0  0  0  0
 19 45  1  0  0  0  0
 20 35  1  0  0  0  0
 21 79  1  0  0  0  0
 22 80  1  0  0  0  0
 23 25  2  0  0  0  0
 23 79  1  0  0  0  0
 24 81  1  0  0  0  0
 25 82  1  0  0  0  0
 26 62  2  0  0  0  0
 27 63  1  0  0  0  0
 27 66  1  0  0  0  0
 28 67  1  0  0  0  0
 28 74  2  0  0  0  0
 29 46  1  0  0  0  0
 29 68  1  0  0  0  0
 29 75  2  0  0  0  0
 30 59  1  0  0  0  0
 30 64  1  0  0  0  0
 30 76  2  0  0  0  0
 31 60  1  0  0  0  0
 31 69  1  0  0  0  0
 31 77  2  0  0  0  0
 32 65  1  0  0  0  0
 32 70  1  0  0  0  0
 32 78  2  0  0  0  0
 33 36  1  0  0  0  0
 34 46  1  0  0  0  0
 35 64  1  0  0  0  0
 36 38  1  0  0  0  0
 37 39  1  0  0  0  0
 37 42  1  0  0  0  0
 38 45  1  0  0  0  0
 39 47  1  0  0  0  0
 40 44  1  0  0  0  0
 40 48  1  0  0  0  0
 41 48  1  0  0  0  0
 41 49  1  0  0  0  0
 42 65  1  0  0  0  0
 43 47  1  0  0  0  0
 43 65  1  0  0  0  0
 44 71  1  0  0  0  0
 45 68  1  0  0  0  0
 46 64  1  0  0  0  0
 47 63  1  0  0  0  0
 48 80  1  0  0  0  0
 49 55  1  0  0  0  0
 49 71  1  0  0  0  0
 50 60  1  0  0  0  0
 51 61  1  0  0  0  0
 52 61  1  0  0  0  0
 53 61  1  0  0  0  0
 54 72  1  0  0  0  0
 55 57  1  0  0  0  0
 56 58  1  0  0  0  0
 56 70  1  0  0  0  0
 57 73  1  0  0  0  0
 58 73  1  0  0  0  0
 59 61  1  0  0  0  0
 59 69  1  0  0  0  0
 60 72  1  0  0  0  0
 62 63  1  0  0  0  0
M  CHG  3  71   1  72   1  73   1
M  ISO  4  32 100  48 101  70 100  80 101
M  END
> <Batch ID>
0131

> <Smiles>
CNC(C)C(=O)NC(C(=O)N1Cc2cc([101O:1][101CH:1]3CCNC(CCNCC[100NH:0][100C:0](=O)N4CCCC(n5nc(-c6ccc(Oc7ccc(F)cc7F)cc6)c(C(N)=O)c5N)C4)C3)ccc2CC1C(=O)NC1CCCc2ccccc21)C(C)(C)C

> <Shape>
0.268

> <Color>
0.108

> <Negative vol penalty>
0.000

$$$$

  -OEChem-04052320503D

 85 94  0     1  0  0  0  0  0999 V2000
  -16.4504  -27.2651   25.8923 C   0  0  0  0  0  0  0  0  0  0  0  0
  -17.2929  -26.1805   26.1141 C   0  0  0  0  0  0  0  0  0  0  0  0
  -22.9320  -10.0958   19.9184 C   0  0  0  0  0  0  0  0  0  0  0  0
  -23.8395   -9.8220   22.1407 C   0  0  0  0  0  0  0  0  0  0  0  0
  -16.5852  -28.0251   24.7312 C   0  0  0  0  0  0  0  0  0  0  0  0
  -18.2702  -25.8547   25.1743 C   0  0  0  0  0  0  0  0  0  0  0  0
  -24.8810  -23.1350   24.7083 C   0  0  0  0  0  0  0  0  0  0  0  0
  -22.1298   -8.9705   20.1073 C   0  0  0  0  0  0  0  0  0  0  0  0
  -23.0372   -8.6966   22.3296 C   0  0  0  0  0  0  0  0  0  0  0  0
  -25.5903  -22.1361   24.0428 C   0  0  0  0  0  0  0  0  0  0  0  0
  -19.8090   -8.0390   23.0823 C   0  0  0  0  0  0  0  0  0  0  0  0
  -19.1295   -7.9256   24.2951 C   0  0  0  0  0  0  0  0  0  0  0  0
  -28.5013  -17.7807   20.3765 C   0  0  0  0  0  0  0  0  0  0  0  0
  -27.3644  -18.4884   20.8389 C   0  0  0  0  0  0  0  0  0  0  0  0
  -25.7830  -23.5683   22.1112 C   0  0  0  0  0  0  0  0  0  0  0  0
  -20.2826   -5.8511   24.7471 C   0  0  0  0  0  0  0  0  0  0  0  0
  -23.7869  -10.5215   20.9351 C   0  0  0  0  0  0  0  0  0  0  0  0
  -24.2903  -13.0203   21.0384 C   0  0  0  0  0  0  0  0  0  0  0  0
  -17.5710  -27.7143   23.7813 C   0  0  0  0  0  0  0  0  0  0  0  0
  -24.6075  -24.3560   24.0753 C   0  0  0  0  0  0  0  0  0  0  0  0
  -18.4175  -26.6105   23.9988 C   0  0  0  0  0  0  0  0  0  0  0  0
  -25.0723  -24.5820   22.7718 C   0  0  0  0  0  0  0  0  0  0  0  0
  -22.1824   -8.2709   21.3129 C   0  0  0  0  0  0  0  0  0  0  0  0
  -26.0389  -22.3515   22.7430 C   0  0  0  0  0  0  0  0  0  0  0  0
  -20.7252   -7.0585   22.7017 C   0  0  0  0  0  0  0  0  0  0  0  0
  -19.3663   -6.8317   25.1276 C   0  0  0  0  0  0  0  0  0  0  0  0
  -20.9620   -5.9646   23.5342 C   0  0  0  0  0  0  0  0  0  0  0  0
  -24.6163  -11.6836   20.7404 C   0  0  0  0  0  0  0  0  0  0  0  0
  -29.5555  -18.1139   21.1981 C   0  0  0  0  0  0  0  0  0  0  0  0
  -27.7586  -19.2327   21.9289 C   0  0  0  0  0  0  0  0  0  0  0  0
  -25.4044  -13.7352   20.6725 C   0  0  0  0  0  0  0  0  0  0  0  0
  -23.0878  -13.5668   21.5963 C   0  0  0  0  0  0  0  0  0  0  0  0
  -21.9615  -25.9014   23.2304 C   0  0  0  0  0  0  0  0  0  0  0  0
  -24.0525  -28.2537   22.4452 C   0  0  0  0  0  0  0  0  0  0  0  0
  -27.2306  -29.1290   21.5616 C   0  0  0  0  0  0  0  0  0  0  0  0
  -30.9451  -14.3945   20.5639 C   0  0  0  0  0  0  0  0  0  0  0  0
  -17.6477  -28.5363   22.5191 C   0  0  0  0  0  0  0  0  0  0  0  0
  -23.8644  -25.4334   24.8165 C   0  0  0  0  0  0  0  0  0  0  0  0
  -24.8225  -25.8830   22.0553 C   0  0  0  0  0  0  0  0  0  0  0  0
  -18.9538  -28.3521   21.7507 C   0  0  0  0  0  0  0  0  0  0  0  0
  -31.4416  -23.0193   23.5545 C   0  0  0  0  0  0  0  0  0  0  0  0
  -31.9580  -22.5895   22.1802 C   0  0  0  0  0  0  0  0  0  0  0  0
  -29.4946  -12.3402   18.0435 C   0  0  0  0  0  0  0  0  0  0  0  0
  -19.2992  -26.8711   21.6323 C   0  0  0  0  0  0  0  0  0  0  0  0
  -30.6860  -21.8197   24.1178 C   0  0  0  0  0  0  0  0  0  0  0  0
  -31.5040  -21.1458   21.9911 C   0  0  0  0  0  0  0  0  0  0  0  0
  -28.0721  -12.0917   18.5481 C   0  0  0  0  0  0  0  0  0  0  0  0
  -30.5014  -12.3809   19.1910 C   0  0  0  0  0  0  0  0  0  0  0  0
  -28.7485  -13.0805   20.7759 C   0  0  0  0  0  0  0  0  0  0  0  0
  -19.5060  -26.2405   23.0147 C   0  0  1  0  0  0  0  0  0  0  0  0
  -23.1973  -26.4450   23.8898 C   0  0  1  0  0  0  0  0  0  0  0  0
  -30.2709  -21.0284   22.8814 C   0  0  0  0  0  0  0  0  0  0  0  0
  -27.6896  -13.0868   19.6602 C   0  0  2  0  0  0  0  0  0  0  0  0
  -28.6265  -31.1221   20.9482 C   0  0  0  0  0  0  0  0  0  0  0  0
  -22.7744  -28.2932   19.6748 C   0  0  0  0  0  0  0  0  0  0  0  0
  -24.7665  -29.5661   18.8504 C   0  0  0  0  0  0  0  0  0  0  0  0
  -23.3013  -30.5509   20.6129 C   0  0  0  0  0  0  0  0  0  0  0  0
  -29.0384  -28.7183   23.8686 C   0  0  0  0  0  0  0  0  0  0  0  0
  -30.9620  -17.6630   21.1632 C   0  0  0  0  0  0  0  0  0  0  0  0
  -26.9616  -20.1603   22.7983 C   0  0  0  0  0  0  0  0  0  1  0  0
  -29.8900  -19.5912   23.1902 C   0  0  0  0  0  0  0  0  0  0  0  0
  -31.2374  -16.3993   21.9974 C   0  0  0  0  0  0  0  0  0  0  0  0
  -24.8281  -28.6243   21.2041 C   0  0  1  0  0  0  0  0  0  0  0  0
  -28.1556  -30.2171   22.0761 C   0  0  2  0  0  0  0  0  0  0  0  0
  -23.9208  -29.2333   20.0981 C   0  0  0  0  0  0  0  0  0  0  0  0
  -25.8416  -11.5544   20.2247 N   0  0  0  0  0  0  0  0  0  0  0  0
  -29.0924  -18.9975   22.1378 N   0  0  0  0  0  0  0  0  0  0  0  0
  -26.2952  -12.8190   20.1957 N   0  0  0  0  0  0  0  0  0  0  0  0
  -24.0859  -26.9030   22.8198 N   0  0  0  0  0  0  0  0  0  0  0  0
  -30.0810  -13.3450   20.2108 N   0  0  0  0  0  0  0  0  0  0  0  0
  -25.6992  -15.0519   20.7151 N   0  0  0  0  0  0  0  0  0  0  0  0
  -22.0410  -12.6910   21.9150 N   0  0  0  0  0  0  0  0  0  0  0  0
  -20.8068  -26.5936   23.5417 N   0  0  0  0  0  0  0  0  0  0  0  0
  -25.9061  -29.5035   21.6438 N   0  0  0  0  0  0  0  0  0  0  0  0
  -30.4667  -15.2670   21.5338 N   0  0  0  0  0  0  0  0  0  0  0  0
  -29.3534  -29.6142   22.7261 N   0  3  0  0  0  0  0  0  0  0  0  0
  -22.9397  -14.7971   21.7906 O   0  0  0  0  0  0  0  0  0  0  0  0
  -22.0493  -24.9270   22.4925 O   0  0  0  0  0  0  0  0  0  0  0  0
  -23.4455  -29.1316   23.0636 O   0  0  0  0  0  0  0  0  0  0  0  0
  -27.6420  -28.0557   21.1266 O   0  0  0  0  0  0  0  0  0  0  0  0
  -32.0581  -14.5461   20.0490 O   0  0  0  0  0  0  0  0  0  0  0  0
  -21.3996   -7.1729   21.4977 O   0  0  0  0  0  0  0  0  0  0  0  0
  -26.7308  -21.3780   22.0909 O   0  0  0  0  0  0  0  0  0  1  0  0
  -18.7149   -6.7237   26.2930 F   0  0  0  0  0  0  0  0  0  0  0  0
  -21.8420   -5.0200   23.1745 F   0  0  0  0  0  0  0  0  0  0  0  0
  1  2  1  0  0  0  0
  1  5  2  0  0  0  0
  2  6  2  0  0  0  0
  3  8  2  0  0  0  0
  3 17  1  0  0  0  0
  4  9  1  0  0  0  0
  4 17  2  0  0  0  0
  5 19  1  0  0  0  0
  6 21  1  0  0  0  0
  7 10  2  0  0  0  0
  7 20  1  0  0  0  0
  8 23  1  0  0  0  0
  9 23  2  0  0  0  0
 10 24  1  0  0  0  0
 11 12  2  0  0  0  0
 11 25  1  0  0  0  0
 12 26  1  0  0  0  0
 13 14  1  0  0  0  0
 13 29  2  0  0  0  0
 14 30  2  0  0  0  0
 15 22  1  0  0  0  0
 15 24  2  0  0  0  0
 16 26  2  0  0  0  0
 16 27  1  0  0  0  0
 17 28  1  0  0  0  0
 18 28  1  0  0  0  0
 18 31  2  0  0  0  0
 18 32  1  0  0  0  0
 19 21  2  0  0  0  0
 19 37  1  0  0  0  0
 20 22  2  0  0  0  0
 20 38  1  0  0  0  0
 21 50  1  0  0  0  0
 22 39  1  0  0  0  0
 23 82  1  0  0  0  0
 24 83  1  0  0  0  0
 25 27  2  0  0  0  0
 25 82  1  0  0  0  0
 26 84  1  0  0  0  0
 27 85  1  0  0  0  0
 28 66  2  0  0  0  0
 29 59  1  0  0  0  0
 29 67  1  0  0  0  0
 30 60  1  0  0  0  0
 30 67  1  0  0  0  0
 31 68  1  0  0  0  0
 31 71  1  0  0  0  0
 32 72  1  0  0  0  0
 32 77  2  0  0  0  0
 33 51  1  0  0  0  0
 33 73  1  0  0  0  0
 33 78  2  0  0  0  0
 34 63  1  0  0  0  0
 34 69  1  0  0  0  0
 34 79  2  0  0  0  0
 35 64  1  0  0  0  0
 35 74  1  0  0  0  0
 35 80  2  0  0  0  0
 36 70  1  0  0  0  0
 36 75  1  0  0  0  0
 36 81  2  0  0  0  0
 37 40  1  0  0  0  0
 38 51  1  0  0  0  0
 39 69  1  0  0  0  0
 40 44  1  0  0  0  0
 41 42  1  0  0  0  0
 41 45  1  0  0  0  0
 42 46  1  0  0  0  0
 43 47  1  0  0  0  0
 43 48  1  0  0  0  0
 44 50  1  0  0  0  0
 45 52  1  0  0  0  0
 46 52  1  0  0  0  0
 47 53  1  0  0  0  0
 48 70  1  0  0  0  0
 49 53  1  0  0  0  0
 49 70  1  0  0  0  0
 50 73  1  0  0  0  0
 51 69  1  0  0  0  0
 52 61  1  0  0  0  0
 53 68  1  0  0  0  0
 54 64  1  0  0  0  0
 55 65  1  0  0  0  0
 56 65  1  0  0  0  0
 57 65  1  0  0  0  0
 58 76  1  0  0  0  0
 59 62  1  0  0  0  0
 60 83  1  0  0  0  0
 61 67  1  0  0  0  0
 62 75  1  0  0  0  0
 63 65  1  0  0  0  0
 63 74  1  0  0  0  0
 64 76  1  0  0  0  0
 66 68  1  0  0  0  0
M  CHG  1  76   1
M  ISO  4  36 100  60 101  75 100  83 101
M  END
> <Batch ID>
0131

> <Smiles>
CNC(C)C(=O)NC(C(=O)N1Cc2cc([101O:1][101CH2:1]c3ccc(CC[100NH:0][100C:0](=O)N4CCCC(n5nc(-c6ccc(Oc7ccc(F)cc7F)cc6)c(C(N)=O)c5N)C4)n3CC3CCCC3)ccc2CC1C(=O)NC1CCCc2ccccc21)C(C)(C)C

> <Shape>
0.299

> <Color>
0.215

> <Negative vol penalty>
0.000

$$$$

  -OEChem-04052320503D

 85 93  0     1  0  0  0  0  0999 V2000
  -29.8113  -34.8786   23.3648 C   0  0  0  0  0  0  0  0  0  0  0  0
  -29.7474  -33.5296   23.0311 C   0  0  0  0  0  0  0  0  0  0  0  0
  -26.3255  -14.0624   21.9900 C   0  0  0  0  0  0  0  0  0  0  0  0
  -25.0386  -15.6489   20.7001 C   0  0  0  0  0  0  0  0  0  0  0  0
  -28.7620  -35.4729   24.0647 C   0  0  0  0  0  0  0  0  0  0  0  0
  -28.6346  -32.7736   23.3981 C   0  0  0  0  0  0  0  0  0  0  0  0
  -26.9734  -29.8117   19.6414 C   0  0  0  0  0  0  0  0  0  0  0  0
  -30.1282  -23.1174   17.2887 C   0  0  0  0  0  0  0  0  0  0  0  0
  -29.5826  -24.3873   17.4758 C   0  0  0  0  0  0  0  0  0  0  0  0
  -25.2125  -13.2257   22.0714 C   0  0  0  0  0  0  0  0  0  0  0  0
  -23.9256  -14.8122   20.7815 C   0  0  0  0  0  0  0  0  0  0  0  0
  -27.6821  -28.6363   19.3965 C   0  0  0  0  0  0  0  0  0  0  0  0
  -23.6181  -11.0008   20.0862 C   0  0  0  0  0  0  0  0  0  0  0  0
  -23.8119   -9.6395   19.8516 C   0  0  0  0  0  0  0  0  0  0  0  0
  -26.0205  -27.3867   20.6199 C   0  0  0  0  0  0  0  0  0  0  0  0
  -30.8969  -23.1102   19.5792 C   0  0  0  0  0  0  0  0  0  0  0  0
  -23.0066   -9.1418   22.0744 C   0  0  0  0  0  0  0  0  0  0  0  0
  -26.2386  -15.2740   21.3043 C   0  0  0  0  0  0  0  0  0  0  0  0
  -28.3828  -16.1365   20.2244 C   0  0  0  0  0  0  0  0  0  0  0  0
  -27.6314  -34.7261   24.4320 C   0  0  0  0  0  0  0  0  0  0  0  0
  -25.7867  -29.7849   20.3880 C   0  0  0  0  0  0  0  0  0  0  0  0
  -27.5698  -33.3581   24.1047 C   0  0  0  0  0  0  0  0  0  0  0  0
  -25.2973  -28.5627   20.8707 C   0  0  0  0  0  0  0  0  0  0  0  0
  -30.7853  -22.4787   18.3405 C   0  0  0  0  0  0  0  0  0  0  0  0
  -29.6941  -25.0188   18.7145 C   0  0  0  0  0  0  0  0  0  0  0  0
  -30.3512  -24.3802   19.7662 C   0  0  0  0  0  0  0  0  0  0  0  0
  -24.0125  -13.6006   21.4671 C   0  0  0  0  0  0  0  0  0  0  0  0
  -27.2072  -27.4239   19.8882 C   0  0  0  0  0  0  0  0  0  0  0  0
  -23.1187  -11.4326   21.3150 C   0  0  0  0  0  0  0  0  0  0  0  0
  -23.5061   -8.7100   20.8456 C   0  0  0  0  0  0  0  0  0  0  0  0
  -22.8129  -10.5030   22.3091 C   0  0  0  0  0  0  0  0  0  0  0  0
  -27.3879  -16.1390   21.2204 C   0  0  0  0  0  0  0  0  0  0  0  0
  -29.2442  -17.1393   20.5969 C   0  0  0  0  0  0  0  0  0  0  0  0
  -28.5163  -15.3023   19.0659 C   0  0  0  0  0  0  0  0  0  0  0  0
  -24.8351  -31.0703   23.1349 C   0  0  0  0  0  0  0  0  0  0  0  0
  -21.9693  -29.8131   22.2813 C   0  0  0  0  0  0  0  0  0  0  0  0
  -20.2506  -27.4777   20.4817 C   0  0  0  0  0  0  0  0  0  0  0  0
  -28.4327  -22.0352   23.7949 C   0  0  0  0  0  0  0  0  0  0  0  0
  -26.5433  -35.4009   25.2291 C   0  0  0  0  0  0  0  0  0  0  0  0
  -25.0199  -31.0578   20.6207 C   0  0  0  0  0  0  0  0  0  0  0  0
  -24.0176  -28.4773   21.6604 C   0  0  0  0  0  0  0  0  0  0  0  0
  -25.2322  -34.6195   25.2532 C   0  0  0  0  0  0  0  0  0  0  0  0
  -30.8624  -19.4394   24.4697 C   0  0  0  0  0  0  0  0  0  0  0  0
  -25.4939  -33.1466   25.5510 C   0  0  0  0  0  0  0  0  0  0  0  0
  -30.3303  -18.2932   23.6077 C   0  0  0  0  0  0  0  0  0  0  0  0
  -29.7215  -20.2357   25.0962 C   0  0  0  0  0  0  0  0  0  0  0  0
  -28.2008  -19.6276   23.2546 C   0  0  0  0  0  0  0  0  0  0  0  0
  -26.3684  -32.5108   24.4635 C   0  0  1  0  0  0  0  0  0  0  0  0
  -24.0938  -30.9848   21.8308 C   0  0  1  0  0  0  0  0  0  0  0  0
  -29.3053  -18.7980   22.5749 C   0  0  2  0  0  0  0  0  0  0  0  0
  -32.4776  -21.1087   17.0705 C   0  0  0  0  0  0  0  0  0  0  0  0
  -30.3009  -20.0653   17.7974 C   0  0  0  0  0  0  0  0  0  0  0  0
  -17.9195  -26.6735   20.0159 C   0  0  0  0  0  0  0  0  0  0  0  0
  -21.9011  -28.4404   25.0054 C   0  0  0  0  0  0  0  0  0  0  0  0
  -20.0934  -26.9460   24.1294 C   0  0  0  0  0  0  0  0  0  0  0  0
  -19.7154  -29.4078   24.2697 C   0  0  0  0  0  0  0  0  0  0  0  0
  -20.4913  -28.0905   17.5963 C   0  0  0  0  0  0  0  0  0  0  0  0
  -30.4832  -25.0370   21.1012 C   0  0  0  0  0  0  0  0  0  0  0  0
  -29.1002  -26.3853   18.8914 C   0  0  0  0  0  0  0  0  0  1  0  0
  -28.7654  -24.4051   24.4507 C   0  0  0  0  0  0  0  0  0  0  0  0
  -29.7257  -25.0683   23.4811 C   0  0  0  0  0  0  0  0  0  0  0  0
  -31.3691  -21.1211   18.1401 C   0  0  0  0  0  0  0  0  0  0  0  0
  -21.2732  -28.4917   22.5016 C   0  0  1  0  0  0  0  0  0  0  0  0
  -19.0425  -27.5971   19.5702 C   0  0  2  0  0  0  0  0  0  0  0  0
  -20.7709  -28.3230   23.9633 C   0  0  0  0  0  0  0  0  0  0  0  0
  -27.5968  -17.0695   22.1555 N   0  0  0  0  0  0  0  0  0  0  0  0
  -28.7330  -17.6610   21.7488 N   0  0  0  0  0  0  0  0  0  0  0  0
  -23.3073  -29.7502   21.8669 N   0  0  0  0  0  0  0  0  0  0  0  0
  -28.7919  -20.7029   24.0581 N   0  0  0  0  0  0  0  0  0  0  0  0
  -30.3814  -17.6170   20.0484 N   0  0  0  0  0  0  0  0  0  0  0  0
  -27.5424  -14.3217   18.8329 N   0  0  0  0  0  0  0  0  0  0  0  0
  -25.5799  -32.2247   23.2841 N   0  0  0  0  0  0  0  0  0  0  0  0
  -20.2202  -28.4122   21.4950 N   0  0  0  0  0  0  0  0  0  0  0  0
  -29.0316  -22.9922   24.6050 N   0  0  0  0  0  0  0  0  0  0  0  0
  -19.4130  -27.2450   18.1703 N   0  3  0  0  0  0  0  0  0  0  0  0
  -29.5710  -24.4678   22.1301 N   0  3  0  0  0  0  0  0  0  0  0  0
  -29.4798  -15.4120   18.2702 O   0  0  0  0  0  0  0  0  0  0  0  0
  -24.7374  -30.1573   23.9465 O   0  0  0  0  0  0  0  0  0  0  0  0
  -21.3466  -30.8623   22.4630 O   0  0  0  0  0  0  0  0  0  0  0  0
  -21.1311  -26.6368   20.3138 O   0  0  0  0  0  0  0  0  0  0  0  0
  -27.6404  -22.3496   22.9002 O   0  0  0  0  0  0  0  0  0  0  0  0
  -22.9262  -12.7843   21.5462 O   0  0  0  0  0  0  0  0  0  0  0  0
  -27.8973  -26.2753   19.6511 O   0  0  0  0  0  0  0  0  0  1  0  0
  -23.6907   -7.4027   20.6196 F   0  0  0  0  0  0  0  0  0  0  0  0
  -22.3317  -10.9117   23.4911 F   0  0  0  0  0  0  0  0  0  0  0  0
  1  2  1  0  0  0  0
  1  5  2  0  0  0  0
  2  6  2  0  0  0  0
  3 10  2  0  0  0  0
  3 18  1  0  0  0  0
  4 11  1  0  0  0  0
  4 18  2  0  0  0  0
  5 20  1  0  0  0  0
  6 22  1  0  0  0  0
  7 12  2  0  0  0  0
  7 21  1  0  0  0  0
  8  9  2  0  0  0  0
  8 24  1  0  0  0  0
  9 25  1  0  0  0  0
 10 27  1  0  0  0  0
 11 27  2  0  0  0  0
 12 28  1  0  0  0  0
 13 14  2  0  0  0  0
 13 29  1  0  0  0  0
 14 30  1  0  0  0  0
 15 23  1  0  0  0  0
 15 28  2  0  0  0  0
 16 24  2  0  0  0  0
 16 26  1  0  0  0  0
 17 30  2  0  0  0  0
 17 31  1  0  0  0  0
 18 32  1  0  0  0  0
 19 32  1  0  0  0  0
 19 33  2  0  0  0  0
 19 34  1  0  0  0  0
 20 22  2  0  0  0  0
 20 39  1  0  0  0  0
 21 23  2  0  0  0  0
 21 40  1  0  0  0  0
 22 48  1  0  0  0  0
 23 41  1  0  0  0  0
 24 62  1  0  0  0  0
 25 26  2  0  0  0  0
 25 59  1  0  0  0  0
 26 58  1  0  0  0  0
 27 82  1  0  0  0  0
 28 83  1  0  0  0  0
 29 31  2  0  0  0  0
 29 82  1  0  0  0  0
 30 84  1  0  0  0  0
 31 85  1  0  0  0  0
 32 66  2  0  0  0  0
 33 67  1  0  0  0  0
 33 70  1  0  0  0  0
 34 71  1  0  0  0  0
 34 77  2  0  0  0  0
 35 49  1  0  0  0  0
 35 72  1  0  0  0  0
 35 78  2  0  0  0  0
 36 63  1  0  0  0  0
 36 68  1  0  0  0  0
 36 79  2  0  0  0  0
 37 64  1  0  0  0  0
 37 73  1  0  0  0  0
 37 80  2  0  0  0  0
 38 69  1  0  0  0  0
 38 74  1  0  0  0  0
 38 81  2  0  0  0  0
 39 42  1  0  0  0  0
 40 49  1  0  0  0  0
 41 68  1  0  0  0  0
 42 44  1  0  0  0  0
 43 45  1  0  0  0  0
 43 46  1  0  0  0  0
 44 48  1  0  0  0  0
 45 50  1  0  0  0  0
 46 69  1  0  0  0  0
 47 50  1  0  0  0  0
 47 69  1  0  0  0  0
 48 72  1  0  0  0  0
 49 68  1  0  0  0  0
 50 67  1  0  0  0  0
 51 62  1  0  0  0  0
 52 62  1  0  0  0  0
 53 64  1  0  0  0  0
 54 65  1  0  0  0  0
 55 65  1  0  0  0  0
 56 65  1  0  0  0  0
 57 75  1  0  0  0  0
 58 76  1  0  0  0  0
 59 83  1  0  0  0  0
 60 61  1  0  0  0  0
 60 74  1  0  0  0  0
 61 76  1  0  0  0  0
 63 65  1  0  0  0  0
 63 73  1  0  0  0  0
 64 75  1  0  0  0  0
 66 67  1  0  0  0  0
M  CHG  2  75   1  76   1
M  ISO  4  38 100  59 101  74 100  83 101
M  END
> <Batch ID>
0131

> <Smiles>
CNC(C)C(=O)NC(C(=O)N1Cc2cc([101O:1][101CH2:1]c3ccc(C(C)C)cc3CNCC[100NH:0][100C:0](=O)N3CCCC(n4nc(-c5ccc(Oc6ccc(F)cc6F)cc5)c(C(N)=O)c4N)C3)ccc2CC1C(=O)NC1CCCc2ccccc21)C(C)(C)C

> <Shape>
0.291

> <Color>
0.069

> <Negative vol penalty>
0.000

$$$$

  -OEChem-04052320503D

 82 91  0     1  0  0  0  0  0999 V2000
  -24.0437  -32.0620   13.8782 C   0  0  0  0  0  0  0  0  0  0  0  0
  -24.8849  -31.2752   14.6584 C   0  0  0  0  0  0  0  0  0  0  0  0
  -26.5539  -13.8935   19.3823 C   0  0  0  0  0  0  0  0  0  0  0  0
  -26.7860  -12.9968   21.6137 C   0  0  0  0  0  0  0  0  0  0  0  0
  -23.5301  -33.2523   14.3913 C   0  0  0  0  0  0  0  0  0  0  0  0
  -25.2139  -31.6789   15.9520 C   0  0  0  0  0  0  0  0  0  0  0  0
  -24.9313  -27.8905   19.3005 C   0  0  0  0  0  0  0  0  0  0  0  0
  -25.2261  -13.4675   19.3492 C   0  0  0  0  0  0  0  0  0  0  0  0
  -25.4582  -12.5708   21.5806 C   0  0  0  0  0  0  0  0  0  0  0  0
  -25.9877  -26.9809   19.3235 C   0  0  0  0  0  0  0  0  0  0  0  0
  -23.6956  -10.0103   20.2510 C   0  0  0  0  0  0  0  0  0  0  0  0
  -23.4169   -8.7218   20.7065 C   0  0  0  0  0  0  0  0  0  0  0  0
  -26.9139  -28.1142   21.2410 C   0  0  0  0  0  0  0  0  0  0  0  0
  -21.9576   -9.6364   22.4009 C   0  0  0  0  0  0  0  0  0  0  0  0
  -27.3339  -13.6581   20.5145 C   0  0  0  0  0  0  0  0  0  0  0  0
  -29.7438  -13.7124   19.6795 C   0  0  0  0  0  0  0  0  0  0  0  0
  -23.8452  -33.6660   15.6952 C   0  0  0  0  0  0  0  0  0  0  0  0
  -24.8640  -28.9271   20.2425 C   0  0  0  0  0  0  0  0  0  0  0  0
  -24.7051  -32.8766   16.4825 C   0  0  0  0  0  0  0  0  0  0  0  0
  -25.8543  -29.0341   21.2294 C   0  0  0  0  0  0  0  0  0  0  0  0
  -24.6782  -12.8062   20.4484 C   0  0  0  0  0  0  0  0  0  0  0  0
  -26.9807  -27.0944   20.2920 C   0  0  0  0  0  0  0  0  0  0  0  0
  -23.1054  -11.1120   20.8705 C   0  0  0  0  0  0  0  0  0  0  0  0
  -22.5479   -8.5348   21.7814 C   0  0  0  0  0  0  0  0  0  0  0  0
  -22.2364  -10.9250   21.9454 C   0  0  0  0  0  0  0  0  0  0  0  0
  -28.7057  -14.0974   20.5490 C   0  0  0  0  0  0  0  0  0  0  0  0
  -30.8425  -14.4028   20.1296 C   0  0  0  0  0  0  0  0  0  0  0  0
  -30.0232  -23.9087   20.4929 C   0  0  0  0  0  0  0  0  0  0  0  0
  -29.7172  -12.8114   18.5645 C   0  0  0  0  0  0  0  0  0  0  0  0
  -24.8955  -32.1019   20.0903 C   0  0  0  0  0  0  0  0  0  0  0  0
  -24.3022  -31.8715   23.2711 C   0  0  0  0  0  0  0  0  0  0  0  0
  -24.5077  -30.0190   26.1299 C   0  0  0  0  0  0  0  0  0  0  0  0
  -31.4758  -19.4954   23.2143 C   0  0  0  0  0  0  0  0  0  0  0  0
  -23.3039  -34.9841   16.1894 C   0  0  0  0  0  0  0  0  0  0  0  0
  -23.7038  -29.8841   20.2207 C   0  0  0  0  0  0  0  0  0  0  0  0
  -25.8174  -30.1168   22.2758 C   0  0  0  0  0  0  0  0  0  0  0  0
  -23.4008  -35.1532   17.7034 C   0  0  0  0  0  0  0  0  0  0  0  0
  -32.7117  -16.2798   24.1138 C   0  0  0  0  0  0  0  0  0  0  0  0
  -24.7849  -34.7459   18.1985 C   0  0  0  0  0  0  0  0  0  0  0  0
  -29.0112  -24.6708   22.6429 C   0  0  0  0  0  0  0  0  0  0  0  0
  -31.9188  -15.3211   23.2238 C   0  0  0  0  0  0  0  0  0  0  0  0
  -27.6305  -24.5213   21.9920 C   0  0  0  0  0  0  0  0  0  0  0  0
  -29.1646  -24.3999   18.4172 C   0  0  0  0  0  0  0  0  0  0  0  0
  -30.5921  -23.8825   18.3582 C   0  0  0  0  0  0  0  0  0  0  0  0
  -31.8580  -17.4598   24.5732 C   0  0  0  0  0  0  0  0  0  0  0  0
  -30.4018  -17.2457   22.5965 C   0  0  0  0  0  0  0  0  0  0  0  0
  -25.0653  -33.2684   17.8991 C   0  0  1  0  0  0  0  0  0  0  0  0
  -28.6971  -23.9358   19.7844 C   0  0  2  0  0  0  0  0  0  0  0  0
  -30.0856  -23.7910   21.9950 C   0  0  1  0  0  0  0  0  0  0  0  0
  -24.0092  -31.2092   20.9121 C   0  0  1  0  0  0  0  0  0  0  0  0
  -31.2363  -16.0689   22.0626 C   0  0  2  0  0  0  0  0  0  0  0  0
  -27.6834  -24.8317   20.4929 C   0  0  2  0  0  0  0  0  0  1  0  0
  -23.9733  -30.1118   28.5800 C   0  0  0  0  0  0  0  0  0  0  0  0
  -26.7091  -33.6911   23.7247 C   0  0  0  0  0  0  0  0  0  0  0  0
  -26.7022  -32.9851   26.1267 C   0  0  0  0  0  0  0  0  0  0  0  0
  -24.7355  -34.1905   25.1772 C   0  0  0  0  0  0  0  0  0  0  0  0
  -22.6701  -27.7073   25.9350 C   0  0  0  0  0  0  0  0  0  0  0  0
  -29.9457  -22.3220   22.3874 C   0  0  0  0  0  0  0  0  0  0  0  0
  -31.0100  -21.4420   21.7470 C   0  0  0  0  0  0  0  0  0  0  0  0
  -25.1546  -31.7870   24.5142 C   0  0  1  0  0  0  0  0  0  0  0  0
  -23.4798  -29.7024   27.2011 C   0  0  2  0  0  0  0  0  0  0  0  0
  -25.8274  -33.1441   24.8650 C   0  0  0  0  0  0  0  0  0  0  0  0
  -29.1090  -14.9649   21.4811 N   0  0  0  0  0  0  0  0  0  0  0  0
  -31.0877  -23.8917   19.7494 N   0  0  0  0  0  0  0  0  0  0  0  0
  -30.4126  -15.1307   21.1999 N   0  0  0  0  0  0  0  0  0  0  0  0
  -24.6661  -31.0320   22.2087 N   0  0  0  0  0  0  0  0  0  0  0  0
  -31.2406  -18.1266   23.4242 N   0  0  0  0  0  0  0  0  0  0  0  0
  -32.1248  -14.4521   19.7104 N   0  0  0  0  0  0  0  0  0  0  0  0
  -28.5054  -12.1869   18.2389 N   0  0  0  0  0  0  0  0  0  0  0  0
  -24.3777  -32.4208   18.8495 N   0  0  0  0  0  0  0  0  0  0  0  0
  -24.2920  -31.2584   25.5654 N   0  0  0  0  0  0  0  0  0  0  0  0
  -30.8581  -20.0478   22.0990 N   0  0  0  0  0  0  0  0  0  0  0  0
  -23.1862  -28.2414   27.2216 N   0  3  0  0  0  0  0  0  0  0  0  0
  -30.7415  -12.5547   17.8875 O   0  0  0  0  0  0  0  0  0  0  0  0
  -25.9690  -32.4750   20.5487 O   0  0  0  0  0  0  0  0  0  0  0  0
  -23.3445  -32.6485   23.2463 O   0  0  0  0  0  0  0  0  0  0  0  0
  -25.4139  -29.2459   25.8270 O   0  0  0  0  0  0  0  0  0  0  0  0
  -32.1882  -20.1737   23.9622 O   0  0  0  0  0  0  0  0  0  0  0  0
  -23.3826  -12.3906   20.4166 O   0  0  0  0  0  0  0  0  0  0  0  0
  -28.0132  -26.2083   20.3163 O   0  0  0  0  0  0  0  0  0  1  0  0
  -22.2791   -7.2972   22.2177 F   0  0  0  0  0  0  0  0  0  0  0  0
  -21.6654  -11.9794   22.5438 F   0  0  0  0  0  0  0  0  0  0  0  0
  1  2  1  0  0  0  0
  1  5  2  0  0  0  0
  2  6  2  0  0  0  0
  3  8  2  0  0  0  0
  3 15  1  0  0  0  0
  4  9  1  0  0  0  0
  4 15  2  0  0  0  0
  5 17  1  0  0  0  0
  6 19  1  0  0  0  0
  7 10  2  0  0  0  0
  7 18  1  0  0  0  0
  8 21  1  0  0  0  0
  9 21  2  0  0  0  0
 10 22  1  0  0  0  0
 11 12  2  0  0  0  0
 11 23  1  0  0  0  0
 12 24  1  0  0  0  0
 13 20  1  0  0  0  0
 13 22  2  0  0  0  0
 14 24  2  0  0  0  0
 14 25  1  0  0  0  0
 15 26  1  0  0  0  0
 16 26  1  0  0  0  0
 16 27  2  0  0  0  0
 16 29  1  0  0  0  0
 17 19  2  0  0  0  0
 17 34  1  0  0  0  0
 18 20  2  0  0  0  0
 18 35  1  0  0  0  0
 19 47  1  0  0  0  0
 20 36  1  0  0  0  0
 21 79  1  0  0  0  0
 22 80  1  0  0  0  0
 23 25  2  0  0  0  0
 23 79  1  0  0  0  0
 24 81  1  0  0  0  0
 25 82  1  0  0  0  0
 26 63  2  0  0  0  0
 27 65  1  0  0  0  0
 27 68  1  0  0  0  0
 28 48  1  0  0  0  0
 28 49  1  0  0  0  0
 28 64  2  0  0  0  0
 29 69  1  0  0  0  0
 29 74  2  0  0  0  0
 30 50  1  0  0  0  0
 30 70  1  0  0  0  0
 30 75  2  0  0  0  0
 31 60  1  0  0  0  0
 31 66  1  0  0  0  0
 31 76  2  0  0  0  0
 32 61  1  0  0  0  0
 32 71  1  0  0  0  0
 32 77  2  0  0  0  0
 33 67  1  0  0  0  0
 33 72  1  0  0  0  0
 33 78  2  0  0  0  0
 34 37  1  0  0  0  0
 35 50  1  0  0  0  0
 36 66  1  0  0  0  0
 37 39  1  0  0  0  0
 38 41  1  0  0  0  0
 38 45  1  0  0  0  0
 39 47  1  0  0  0  0
 40 42  1  0  0  0  0
 40 49  1  0  0  0  0
 41 51  1  0  0  0  0
 42 52  1  0  0  0  0
 43 44  1  0  0  0  0
 43 48  1  0  0  0  0
 44 64  1  0  0  0  0
 45 67  1  0  0  0  0
 46 51  1  0  0  0  0
 46 67  1  0  0  0  0
 47 70  1  0  0  0  0
 48 52  1  0  0  0  0
 49 58  1  0  0  0  0
 50 66  1  0  0  0  0
 51 65  1  0  0  0  0
 52 80  1  0  0  0  0
 53 61  1  0  0  0  0
 54 62  1  0  0  0  0
 55 62  1  0  0  0  0
 56 62  1  0  0  0  0
 57 73  1  0  0  0  0
 58 59  1  0  0  0  0
 59 72  1  0  0  0  0
 60 62  1  0  0  0  0
 60 71  1  0  0  0  0
 61 73  1  0  0  0  0
 63 65  1  0  0  0  0
M  CHG  1  73   1
M  ISO  4  33 100  52 101  72 100  80 101
M  END
> <Batch ID>
0131

> <Smiles>
CNC(C)C(=O)NC(C(=O)N1Cc2cc([101O:1][101CH:1]3CCC(CC[100NH:0][100C:0](=O)N4CCCC(n5nc(-c6ccc(Oc7ccc(F)cc7F)cc6)c(C(N)=O)c5N)C4)C4=C3CCN4)ccc2CC1C(=O)NC1CCCc2ccccc21)C(C)(C)C

> <Shape>
0.291

> <Color>
0.096

> <Negative vol penalty>
0.000

$$$$

  -OEChem-04052320503D

 81 89  0     1  0  0  0  0  0999 V2000
  -21.9345  -25.2005   13.0581 C   0  0  0  0  0  0  0  0  0  0  0  0
  -21.5616  -23.8702   13.2215 C   0  0  0  0  0  0  0  0  0  0  0  0
  -29.1263  -26.4607   18.4113 C   0  0  0  0  0  0  0  0  0  0  0  0
  -28.4365  -25.7834   20.6254 C   0  0  0  0  0  0  0  0  0  0  0  0
  -22.9120  -25.7556   13.8829 C   0  0  0  0  0  0  0  0  0  0  0  0
  -22.1669  -23.0938   14.2091 C   0  0  0  0  0  0  0  0  0  0  0  0
  -20.7585  -17.7168   18.7280 C   0  0  0  0  0  0  0  0  0  0  0  0
  -28.5163  -27.7008   18.6006 C   0  0  0  0  0  0  0  0  0  0  0  0
  -27.8265  -27.0235   20.8148 C   0  0  0  0  0  0  0  0  0  0  0  0
  -21.2563  -16.4714   19.1086 C   0  0  0  0  0  0  0  0  0  0  0  0
  -24.9532  -28.5522   19.8994 C   0  0  0  0  0  0  0  0  0  0  0  0
  -23.6750  -28.5672   20.4574 C   0  0  0  0  0  0  0  0  0  0  0  0
  -22.8763  -17.5591   20.5269 C   0  0  0  0  0  0  0  0  0  0  0  0
  -24.4962  -29.8926   22.3029 C   0  0  0  0  0  0  0  0  0  0  0  0
  -29.0863  -25.5020   19.4237 C   0  0  0  0  0  0  0  0  0  0  0  0
  -31.0443  -23.8706   19.5356 C   0  0  0  0  0  0  0  0  0  0  0  0
  -23.5227  -24.9884   14.8875 C   0  0  0  0  0  0  0  0  0  0  0  0
  -21.3239  -18.8950   19.2365 C   0  0  0  0  0  0  0  0  0  0  0  0
  -23.1544  -23.6388   15.0472 C   0  0  0  0  0  0  0  0  0  0  0  0
  -22.3822  -18.8181   20.1532 C   0  0  0  0  0  0  0  0  0  0  0  0
  -27.8665  -27.9822   19.8023 C   0  0  0  0  0  0  0  0  0  0  0  0
  -22.3172  -16.3924   20.0060 C   0  0  0  0  0  0  0  0  0  0  0  0
  -26.0030  -29.2073   20.5431 C   0  0  0  0  0  0  0  0  0  0  0  0
  -23.4464  -29.2374   21.6591 C   0  0  0  0  0  0  0  0  0  0  0  0
  -25.7745  -29.8776   21.7449 C   0  0  0  0  0  0  0  0  0  0  0  0
  -29.7157  -24.2207   19.2286 C   0  0  0  0  0  0  0  0  0  0  0  0
  -31.1463  -22.5520   19.1649 C   0  0  0  0  0  0  0  0  0  0  0  0
  -32.0924  -24.6661   20.1050 C   0  0  0  0  0  0  0  0  0  0  0  0
  -22.8156  -21.3975   17.9652 C   0  0  0  0  0  0  0  0  0  0  0  0
  -22.6592  -22.5381   20.9979 C   0  0  0  0  0  0  0  0  0  0  0  0
  -22.3918  -21.8708   24.3340 C   0  0  0  0  0  0  0  0  0  0  0  0
  -29.1689  -17.4494   19.1466 C   0  0  0  0  0  0  0  0  0  0  0  0
  -24.6081  -25.6188   15.7235 C   0  0  0  0  0  0  0  0  0  0  0  0
  -20.7580  -20.2300   18.8366 C   0  0  0  0  0  0  0  0  0  0  0  0
  -23.0111  -20.0528   20.7437 C   0  0  0  0  0  0  0  0  0  0  0  0
  -24.9331  -24.8342   16.9920 C   0  0  0  0  0  0  0  0  0  0  0  0
  -27.9938  -19.6244   16.5036 C   0  0  0  0  0  0  0  0  0  0  0  0
  -25.0782  -23.3485   16.6783 C   0  0  0  0  0  0  0  0  0  0  0  0
  -28.4522  -20.9933   17.0098 C   0  0  0  0  0  0  0  0  0  0  0  0
  -26.3463  -12.0223   20.7619 C   0  0  0  0  0  0  0  0  0  0  0  0
  -27.5249  -18.7383   17.6538 C   0  0  0  0  0  0  0  0  0  0  0  0
  -28.9897  -19.9194   19.2453 C   0  0  0  0  0  0  0  0  0  0  0  0
  -23.7703  -22.7714   16.1236 C   0  0  1  0  0  0  0  0  0  0  0  0
  -21.7464  -21.3774   19.0207 C   0  0  1  0  0  0  0  0  0  0  0  0
  -29.4973  -20.8543   18.1326 C   0  0  2  0  0  0  0  0  0  0  0  0
  -26.1834  -13.5333   20.7069 C   0  0  2  0  0  0  0  0  0  0  0  0
  -24.9511  -11.5137   21.1484 C   0  0  1  0  0  0  0  0  0  0  0  0
  -24.7093  -13.7255   20.3975 C   0  0  2  0  0  0  0  0  0  0  0  0
  -24.9462  -10.7283   22.4506 C   0  0  0  0  0  0  0  0  0  0  0  0
  -22.3305  -23.0058   26.5713 C   0  0  0  0  0  0  0  0  0  0  0  0
  -25.6750  -22.9788   20.8543 C   0  0  0  0  0  0  0  0  0  0  0  0
  -25.6921  -23.1938   23.3486 C   0  0  0  0  0  0  0  0  0  0  0  0
  -24.4032  -24.8224   21.9669 C   0  0  0  0  0  0  0  0  0  0  0  0
  -19.6796  -20.8377   24.9134 C   0  0  0  0  0  0  0  0  0  0  0  0
  -24.1900  -15.1109   20.7175 C   0  0  0  0  0  0  0  0  0  1  0  0
  -29.2354  -14.9778   18.9374 C   0  0  0  0  0  0  0  0  0  0  0  0
  -28.4585  -14.3522   20.0808 C   0  0  0  0  0  0  0  0  0  0  0  0
  -23.5453  -22.4574   22.2174 C   0  0  1  0  0  0  0  0  0  0  0  0
  -21.5057  -22.4671   25.4127 C   0  0  2  0  0  0  0  0  0  0  0  0
  -24.8185  -23.3397   22.0844 C   0  0  0  0  0  0  0  0  0  0  0  0
  -29.0235  -23.2064   18.7032 N   0  0  0  0  0  0  0  0  0  0  0  0
  -29.9205  -22.2060   18.6771 N   0  0  0  0  0  0  0  0  0  0  0  0
  -24.1117  -12.7140   21.2756 N   0  0  0  0  0  0  0  0  0  0  0  0
  -22.4266  -21.3348   20.3168 N   0  0  0  0  0  0  0  0  0  0  0  0
  -28.5723  -18.6323   18.6793 N   0  0  0  0  0  0  0  0  0  0  0  0
  -32.1641  -21.6664   19.2118 N   0  0  0  0  0  0  0  0  0  0  0  0
  -31.8173  -26.0021   20.4271 N   0  0  0  0  0  0  0  0  0  0  0  0
  -22.8237  -22.5444   17.1945 N   0  0  0  0  0  0  0  0  0  0  0  0
  -22.7010  -22.7948   23.3584 N   0  0  0  0  0  0  0  0  0  0  0  0
  -28.7125  -16.2733   18.5642 N   0  0  0  0  0  0  0  0  0  0  0  0
  -27.0437  -14.1253   19.6652 N   0  3  0  0  0  0  0  0  0  0  0  0
  -20.5689  -21.4360   25.9421 N   0  3  0  0  0  0  0  0  0  0  0  0
  -33.2437  -24.2106   20.3064 O   0  0  0  0  0  0  0  0  0  0  0  0
  -23.5777  -20.4438   17.8589 O   0  0  0  0  0  0  0  0  0  0  0  0
  -22.1849  -23.6274   20.6660 O   0  0  0  0  0  0  0  0  0  0  0  0
  -22.7747  -20.7031   24.3567 O   0  0  0  0  0  0  0  0  0  0  0  0
  -30.0476  -17.4421   20.0155 O   0  0  0  0  0  0  0  0  0  0  0  0
  -27.2713  -29.1922   19.9874 O   0  0  0  0  0  0  0  0  0  0  0  0
  -22.8055  -15.1781   20.3786 O   0  0  0  0  0  0  0  0  0  1  0  0
  -22.2185  -29.2531   22.1941 F   0  0  0  0  0  0  0  0  0  0  0  0
  -26.7788  -30.5098   22.3673 F   0  0  0  0  0  0  0  0  0  0  0  0
  1  2  1  0  0  0  0
  1  5  2  0  0  0  0
  2  6  2  0  0  0  0
  3  8  2  0  0  0  0
  3 15  1  0  0  0  0
  4  9  1  0  0  0  0
  4 15  2  0  0  0  0
  5 17  1  0  0  0  0
  6 19  1  0  0  0  0
  7 10  2  0  0  0  0
  7 18  1  0  0  0  0
  8 21  1  0  0  0  0
  9 21  2  0  0  0  0
 10 22  1  0  0  0  0
 11 12  2  0  0  0  0
 11 23  1  0  0  0  0
 12 24  1  0  0  0  0
 13 20  1  0  0  0  0
 13 22  2  0  0  0  0
 14 24  2  0  0  0  0
 14 25  1  0  0  0  0
 15 26  1  0  0  0  0
 16 26  1  0  0  0  0
 16 27  2  0  0  0  0
 16 28  1  0  0  0  0
 17 19  2  0  0  0  0
 17 33  1  0  0  0  0
 18 20  2  0  0  0  0
 18 34  1  0  0  0  0
 19 43  1  0  0  0  0
 20 35  1  0  0  0  0
 21 78  1  0  0  0  0
 22 79  1  0  0  0  0
 23 25  2  0  0  0  0
 23 78  1  0  0  0  0
 24 80  1  0  0  0  0
 25 81  1  0  0  0  0
 26 61  2  0  0  0  0
 27 62  1  0  0  0  0
 27 66  1  0  0  0  0
 28 67  1  0  0  0  0
 28 73  2  0  0  0  0
 29 44  1  0  0  0  0
 29 68  1  0  0  0  0
 29 74  2  0  0  0  0
 30 58  1  0  0  0  0
 30 64  1  0  0  0  0
 30 75  2  0  0  0  0
 31 59  1  0  0  0  0
 31 69  1  0  0  0  0
 31 76  2  0  0  0  0
 32 65  1  0  0  0  0
 32 70  1  0  0  0  0
 32 77  2  0  0  0  0
 33 36  1  0  0  0  0
 34 44  1  0  0  0  0
 35 64  1  0  0  0  0
 36 38  1  0  0  0  0
 37 39  1  0  0  0  0
 37 41  1  0  0  0  0
 38 43  1  0  0  0  0
 39 45  1  0  0  0  0
 40 46  1  0  0  0  0
 40 47  1  0  0  0  0
 41 65  1  0  0  0  0
 42 45  1  0  0  0  0
 42 65  1  0  0  0  0
 43 68  1  0  0  0  0
 44 64  1  0  0  0  0
 45 62  1  0  0  0  0
 46 48  1  0  0  0  0
 46 71  1  0  0  0  0
 47 49  1  0  0  0  0
 47 63  1  0  0  0  0
 48 55  1  0  0  0  0
 48 63  1  0  0  0  0
 50 59  1  0  0  0  0
 51 60  1  0  0  0  0
 52 60  1  0  0  0  0
 53 60  1  0  0  0  0
 54 72  1  0  0  0  0
 55 79  1  0  0  0  0
 56 57  1  0  0  0  0
 56 70  1  0  0  0  0
 57 71  1  0  0  0  0
 58 60  1  0  0  0  0
 58 69  1  0  0  0  0
 59 72  1  0  0  0  0
 61 62  1  0  0  0  0
M  CHG  2  71   1  72   1
M  ISO  4  32 100  55 101  70 100  79 101
M  END
> <Batch ID>
0131

> <Smiles>
CNC(C)C(=O)NC(C(=O)N1Cc2cc([101O:1][101CH2:1]C3NC(C)CC3NCC[100NH:0][100C:0](=O)N3CCCC(n4nc(-c5ccc(Oc6ccc(F)cc6F)cc5)c(C(N)=O)c4N)C3)ccc2CC1C(=O)NC1CCCc2ccccc21)C(C)(C)C

> <Shape>
0.176

> <Color>
0.070

> <Negative vol penalty>
0.000

$$$$

  -OEChem-04052320503D

 85 93  0     1  0  0  0  0  0999 V2000
  -23.8405  -30.4827   21.6926 C   0  0  0  0  0  0  0  0  0  0  0  0
  -23.0513  -29.6897   20.8656 C   0  0  0  0  0  0  0  0  0  0  0  0
  -21.2304  -23.5689   24.0920 C   0  0  0  0  0  0  0  0  0  0  0  0
  -22.7594  -23.5413   22.2216 C   0  0  0  0  0  0  0  0  0  0  0  0
  -25.2301  -30.4217   21.5958 C   0  0  0  0  0  0  0  0  0  0  0  0
  -23.6513  -28.8361   19.9405 C   0  0  0  0  0  0  0  0  0  0  0  0
  -22.8580  -21.1209   19.0062 C   0  0  0  0  0  0  0  0  0  0  0  0
  -21.1161  -24.9543   23.9781 C   0  0  0  0  0  0  0  0  0  0  0  0
  -22.6450  -24.9268   22.1076 C   0  0  0  0  0  0  0  0  0  0  0  0
  -22.9214  -19.7367   18.8441 C   0  0  0  0  0  0  0  0  0  0  0  0
  -20.1409  -28.4562   23.9511 C   0  0  0  0  0  0  0  0  0  0  0  0
  -18.8629  -29.0099   24.0276 C   0  0  0  0  0  0  0  0  0  0  0  0
  -25.1476  -19.9360   17.9208 C   0  0  0  0  0  0  0  0  0  0  0  0
  -18.1887  -27.7202   22.0991 C   0  0  0  0  0  0  0  0  0  0  0  0
  -22.0522  -22.8623   23.2137 C   0  0  0  0  0  0  0  0  0  0  0  0
  -21.1382  -20.4807   23.2252 C   0  0  0  0  0  0  0  0  0  0  0  0
  -25.8475  -29.5598   20.6757 C   0  0  0  0  0  0  0  0  0  0  0  0
  -23.9465  -21.9174   18.6400 C   0  0  0  0  0  0  0  0  0  0  0  0
  -25.0504  -28.7645   19.8304 C   0  0  0  0  0  0  0  0  0  0  0  0
  -25.0947  -21.3219   18.0923 C   0  0  0  0  0  0  0  0  0  0  0  0
  -21.8233  -25.6333   22.9859 C   0  0  0  0  0  0  0  0  0  0  0  0
  -24.0633  -19.1458   18.3025 C   0  0  0  0  0  0  0  0  0  0  0  0
  -20.4428  -27.5346   22.9485 C   0  0  0  0  0  0  0  0  0  0  0  0
  -17.8868  -28.6419   23.1017 C   0  0  0  0  0  0  0  0  0  0  0  0
  -19.4667  -27.1666   22.0225 C   0  0  0  0  0  0  0  0  0  0  0  0
  -22.1712  -21.4312   23.3312 C   0  0  0  0  0  0  0  0  0  0  0  0
  -21.7634  -19.2720   23.4111 C   0  0  0  0  0  0  0  0  0  0  0  0
  -19.7386  -20.6732   22.9805 C   0  0  0  0  0  0  0  0  0  0  0  0
  -23.6099  -13.9757   18.6920 C   0  0  0  0  0  0  0  0  0  0  0  0
  -25.4012  -25.3685   18.4172 C   0  0  0  0  0  0  0  0  0  0  0  0
  -27.6584  -23.5080   19.3414 C   0  0  0  0  0  0  0  0  0  0  0  0
  -29.7493  -21.2066   20.7445 C   0  0  0  0  0  0  0  0  0  0  0  0
  -27.3301  -17.5389   22.4822 C   0  0  0  0  0  0  0  0  0  0  0  0
  -27.3523  -29.5632   20.5748 C   0  0  0  0  0  0  0  0  0  0  0  0
  -23.8986  -23.4179   18.7396 C   0  0  0  0  0  0  0  0  0  0  0  0
  -26.2279  -22.2214   17.6805 C   0  0  0  0  0  0  0  0  0  0  0  0
  -27.9155  -28.3568   19.8279 C   0  0  0  0  0  0  0  0  0  0  0  0
  -25.5297  -17.3034   25.6128 C   0  0  0  0  0  0  0  0  0  0  0  0
  -27.1375  -28.1168   18.5380 C   0  0  0  0  0  0  0  0  0  0  0  0
  -24.3584  -18.2550   25.3623 C   0  0  0  0  0  0  0  0  0  0  0  0
  -25.6802  -14.0740   20.0577 C   0  0  0  0  0  0  0  0  0  0  0  0
  -26.8147  -17.8301   24.9806 C   0  0  0  0  0  0  0  0  0  0  0  0
  -24.1277  -12.0894   20.2227 C   0  0  0  0  0  0  0  0  0  0  0  0
  -25.5422  -19.0644   23.2687 C   0  0  0  0  0  0  0  0  0  0  0  0
  -26.0599  -12.1734   21.6792 C   0  0  0  0  0  0  0  0  0  0  0  0
  -25.6645  -27.8078   18.8316 C   0  0  1  0  0  0  0  0  0  0  0  0
  -24.7139  -13.1614   19.2981 C   0  0  1  0  0  0  0  0  0  0  0  0
  -25.2574  -24.0423   19.1041 C   0  0  1  0  0  0  0  0  0  0  0  0
  -24.2086  -18.5770   23.8636 C   0  0  2  0  0  0  0  0  0  0  0  0
  -26.7170  -13.2308   20.7949 C   0  0  2  0  0  0  0  0  0  0  0  0
  -31.8048  -20.3088   21.8698 C   0  0  0  0  0  0  0  0  0  0  0  0
  -28.7506  -23.4539   16.4939 C   0  0  0  0  0  0  0  0  0  0  0  0
  -30.7843  -22.2870   17.3718 C   0  0  0  0  0  0  0  0  0  0  0  0
  -30.2322  -24.5890   18.1585 C   0  0  0  0  0  0  0  0  0  0  0  0
  -28.6648  -21.7770   23.4385 C   0  0  0  0  0  0  0  0  0  0  0  0
  -29.1502  -15.9769   21.8460 C   0  0  0  0  0  0  0  0  0  0  0  0
  -23.1501  -15.8489   17.1228 C   0  0  0  0  0  0  0  0  0  0  0  0
  -28.3291  -15.1367   20.8857 C   0  0  0  0  0  0  0  0  0  0  0  0
  -22.8869  -17.1144   17.9192 C   0  0  0  0  0  0  0  0  0  1  0  0
  -28.8254  -22.6403   18.9431 C   0  0  1  0  0  0  0  0  0  0  0  0
  -30.6278  -21.2653   21.9812 C   0  0  2  0  0  0  0  0  0  0  0  0
  -29.6222  -23.2316   17.7460 C   0  0  0  0  0  0  0  0  0  0  0  0
  -23.3622  -20.8742   23.5665 N   0  0  0  0  0  0  0  0  0  0  0  0
  -23.0814  -19.5607   23.6099 N   0  0  0  0  0  0  0  0  0  0  0  0
  -25.1778  -11.3138   20.8856 N   0  0  0  0  0  0  0  0  0  0  0  0
  -26.4389  -23.2620   18.6989 N   0  0  0  0  0  0  0  0  0  0  0  0
  -26.6097  -18.0988   23.5503 N   0  0  0  0  0  0  0  0  0  0  0  0
  -21.3087  -18.0009   23.4225 N   0  0  0  0  0  0  0  0  0  0  0  0
  -19.2872  -20.6800   21.6536 N   0  0  0  0  0  0  0  0  0  0  0  0
  -25.5149  -26.4405   19.2817 N   0  0  0  0  0  0  0  0  0  0  0  0
  -24.0423  -14.9572   17.8151 N   0  0  0  0  0  0  0  0  0  0  0  0
  -29.6195  -22.4445   20.1511 N   0  0  0  0  0  0  0  0  0  0  0  0
  -28.3285  -16.6390   22.8346 N   0  0  0  0  0  0  0  0  0  0  0  0
  -27.5482  -14.1238   21.6446 N   0  3  0  0  0  0  0  0  0  0  0  0
  -29.8405  -20.9025   23.1934 N   0  3  0  0  0  0  0  0  0  0  0  0
  -18.9153  -20.8507   23.9100 O   0  0  0  0  0  0  0  0  0  0  0  0
  -22.4466  -13.7351   18.9928 O   0  0  0  0  0  0  0  0  0  0  0  0
  -25.4101  -25.4169   17.1928 O   0  0  0  0  0  0  0  0  0  0  0  0
  -27.8222  -24.3847   20.1945 O   0  0  0  0  0  0  0  0  0  0  0  0
  -29.2332  -20.1661   20.3428 O   0  0  0  0  0  0  0  0  0  0  0  0
  -27.0972  -17.8162   21.3007 O   0  0  0  0  0  0  0  0  0  0  0  0
  -21.7118  -26.9852   22.8743 O   0  0  0  0  0  0  0  0  0  0  0  0
  -24.1203  -17.7936   18.1512 O   0  0  0  0  0  0  0  0  0  1  0  0
  -16.6592  -29.1725   23.1762 F   0  0  0  0  0  0  0  0  0  0  0  0
  -19.7504  -26.2808   21.0578 F   0  0  0  0  0  0  0  0  0  0  0  0
  1  2  1  0  0  0  0
  1  5  2  0  0  0  0
  2  6  2  0  0  0  0
  3  8  2  0  0  0  0
  3 15  1  0  0  0  0
  4  9  1  0  0  0  0
  4 15  2  0  0  0  0
  5 17  1  0  0  0  0
  6 19  1  0  0  0  0
  7 10  2  0  0  0  0
  7 18  1  0  0  0  0
  8 21  1  0  0  0  0
  9 21  2  0  0  0  0
 10 22  1  0  0  0  0
 11 12  2  0  0  0  0
 11 23  1  0  0  0  0
 12 24  1  0  0  0  0
 13 20  1  0  0  0  0
 13 22  2  0  0  0  0
 14 24  2  0  0  0  0
 14 25  1  0  0  0  0
 15 26  1  0  0  0  0
 16 26  1  0  0  0  0
 16 27  2  0  0  0  0
 16 28  1  0  0  0  0
 17 19  2  0  0  0  0
 17 34  1  0  0  0  0
 18 20  2  0  0  0  0
 18 35  1  0  0  0  0
 19 46  1  0  0  0  0
 20 36  1  0  0  0  0
 21 82  1  0  0  0  0
 22 83  1  0  0  0  0
 23 25  2  0  0  0  0
 23 82  1  0  0  0  0
 24 84  1  0  0  0  0
 25 85  1  0  0  0  0
 26 63  2  0  0  0  0
 27 64  1  0  0  0  0
 27 68  1  0  0  0  0
 28 69  1  0  0  0  0
 28 76  2  0  0  0  0
 29 47  1  0  0  0  0
 29 71  1  0  0  0  0
 29 77  2  0  0  0  0
 30 48  1  0  0  0  0
 30 70  1  0  0  0  0
 30 78  2  0  0  0  0
 31 60  1  0  0  0  0
 31 66  1  0  0  0  0
 31 79  2  0  0  0  0
 32 61  1  0  0  0  0
 32 72  1  0  0  0  0
 32 80  2  0  0  0  0
 33 67  1  0  0  0  0
 33 73  1  0  0  0  0
 33 81  2  0  0  0  0
 34 37  1  0  0  0  0
 35 48  1  0  0  0  0
 36 66  1  0  0  0  0
 37 39  1  0  0  0  0
 38 40  1  0  0  0  0
 38 42  1  0  0  0  0
 39 46  1  0  0  0  0
 40 49  1  0  0  0  0
 41 47  1  0  0  0  0
 41 50  1  0  0  0  0
 42 67  1  0  0  0  0
 43 47  1  0  0  0  0
 43 65  1  0  0  0  0
 44 49  1  0  0  0  0
 44 67  1  0  0  0  0
 45 50  1  0  0  0  0
 45 65  1  0  0  0  0
 46 70  1  0  0  0  0
 48 66  1  0  0  0  0
 49 64  1  0  0  0  0
 50 74  1  0  0  0  0
 51 61  1  0  0  0  0
 52 62  1  0  0  0  0
 53 62  1  0  0  0  0
 54 62  1  0  0  0  0
 55 75  1  0  0  0  0
 56 58  1  0  0  0  0
 56 73  1  0  0  0  0
 57 59  1  0  0  0  0
 57 71  1  0  0  0  0
 58 74  1  0  0  0  0
 59 83  1  0  0  0  0
 60 62  1  0  0  0  0
 60 72  1  0  0  0  0
 61 75  1  0  0  0  0
 63 64  1  0  0  0  0
M  CHG  2  74   1  75   1
M  ISO  4  33 100  59 101  73 100  83 101
M  END
> <Batch ID>
0131

> <Smiles>
CNC(C)C(=O)NC(C(=O)N1Cc2cc([101O:1][101CH2:1]CNC(=O)C3CNCC(NCC[100NH:0][100C:0](=O)N4CCCC(n5nc(-c6ccc(Oc7ccc(F)cc7F)cc6)c(C(N)=O)c5N)C4)C3)ccc2CC1C(=O)NC1CCCc2ccccc21)C(C)(C)C

> <Shape>
0.203

> <Color>
0.066

> <Negative vol penalty>
0.000

$$$$

  -OEChem-04052320503D

 86 95  0     1  0  0  0  0  0999 V2000
  -37.5543  -13.2619   23.3014 C   0  0  0  0  0  0  0  0  0  0  0  0
  -36.8987  -14.4641   23.0557 C   0  0  0  0  0  0  0  0  0  0  0  0
  -17.8669  -28.1859   22.3668 C   0  0  0  0  0  0  0  0  0  0  0  0
  -18.8427  -26.1621   21.4784 C   0  0  0  0  0  0  0  0  0  0  0  0
  -37.1174  -12.0917   22.6819 C   0  0  0  0  0  0  0  0  0  0  0  0
  -35.8065  -14.4970   22.1895 C   0  0  0  0  0  0  0  0  0  0  0  0
  -30.8453  -18.0574   22.6539 C   0  0  0  0  0  0  0  0  0  0  0  0
  -29.9572  -28.1681   18.3670 C   0  0  0  0  0  0  0  0  0  0  0  0
  -29.6589  -27.2101   20.5648 C   0  0  0  0  0  0  0  0  0  0  0  0
  -28.7030  -28.7713   18.4597 C   0  0  0  0  0  0  0  0  0  0  0  0
  -28.4047  -27.8134   20.6576 C   0  0  0  0  0  0  0  0  0  0  0  0
  -16.6010  -27.6038   22.3026 C   0  0  0  0  0  0  0  0  0  0  0  0
  -17.5768  -25.5799   21.4143 C   0  0  0  0  0  0  0  0  0  0  0  0
  -30.4915  -19.2579   22.0397 C   0  0  0  0  0  0  0  0  0  0  0  0
  -14.7789  -25.3989   24.1057 C   0  0  0  0  0  0  0  0  0  0  0  0
  -13.9390  -25.5505   25.2090 C   0  0  0  0  0  0  0  0  0  0  0  0
  -29.2344  -18.0337   20.3844 C   0  0  0  0  0  0  0  0  0  0  0  0
  -12.3136  -26.6724   23.8175 C   0  0  0  0  0  0  0  0  0  0  0  0
  -18.9878  -27.4651   21.9546 C   0  0  0  0  0  0  0  0  0  0  0  0
  -21.1966  -28.0258   23.1012 C   0  0  0  0  0  0  0  0  0  0  0  0
  -36.0133  -12.1086   21.8152 C   0  0  0  0  0  0  0  0  0  0  0  0
  -30.4045  -16.8333   22.1307 C   0  0  0  0  0  0  0  0  0  0  0  0
  -35.3553  -13.3262   21.5568 C   0  0  0  0  0  0  0  0  0  0  0  0
  -29.5818  -16.8191   20.9953 C   0  0  0  0  0  0  0  0  0  0  0  0
  -30.4351  -27.3874   19.4195 C   0  0  0  0  0  0  0  0  0  0  0  0
  -27.9267  -28.5941   19.6050 C   0  0  0  0  0  0  0  0  0  0  0  0
  -16.4559  -26.3008   21.8264 C   0  0  0  0  0  0  0  0  0  0  0  0
  -29.6883  -19.2461   20.9031 C   0  0  0  0  0  0  0  0  0  0  0  0
  -14.3862  -25.8842   22.8583 C   0  0  0  0  0  0  0  0  0  0  0  0
  -12.7064  -26.1872   25.0649 C   0  0  0  0  0  0  0  0  0  0  0  0
  -13.1535  -26.5209   22.7142 C   0  0  0  0  0  0  0  0  0  0  0  0
  -20.2957  -28.0661   22.0202 C   0  0  0  0  0  0  0  0  0  0  0  0
  -22.2861  -28.7407   22.6670 C   0  0  0  0  0  0  0  0  0  0  0  0
  -21.0608  -27.3982   24.3831 C   0  0  0  0  0  0  0  0  0  0  0  0
  -31.8356  -14.2608   20.9314 C   0  0  0  0  0  0  0  0  0  0  0  0
  -28.8174  -13.0726   20.9075 C   0  0  0  0  0  0  0  0  0  0  0  0
  -25.4614  -13.6892   20.8419 C   0  0  0  0  0  0  0  0  0  0  0  0
  -26.0299  -30.0125   18.7467 C   0  0  0  0  0  0  0  0  0  0  0  0
  -35.6071  -10.8268   21.1320 C   0  0  0  0  0  0  0  0  0  0  0  0
  -30.7729  -15.5484   22.8206 C   0  0  0  0  0  0  0  0  0  0  0  0
  -29.0657  -15.5327   20.4060 C   0  0  0  0  0  0  0  0  0  0  0  0
  -34.2101  -10.8795   20.5191 C   0  0  0  0  0  0  0  0  0  0  0  0
  -22.8865  -31.6771   18.5879 C   0  0  0  0  0  0  0  0  0  0  0  0
  -34.0212  -12.1718   19.7310 C   0  0  0  0  0  0  0  0  0  0  0  0
  -22.0064  -30.8827   19.5557 C   0  0  0  0  0  0  0  0  0  0  0  0
  -32.7763  -23.4956   17.9125 C   0  0  0  0  0  0  0  0  0  0  0  0
  -23.8508  -30.7711   17.8243 C   0  0  0  0  0  0  0  0  0  0  0  0
  -33.0809  -24.9343   18.3320 C   0  0  0  0  0  0  0  0  0  0  0  0
  -23.7948  -29.0987   19.6325 C   0  0  0  0  0  0  0  0  0  0  0  0
  -30.8486  -24.5361   18.8996 C   0  0  0  0  0  0  0  0  0  0  0  0
  -34.1514  -13.3979   20.6427 C   0  0  1  0  0  0  0  0  0  0  0  0
  -30.6913  -14.3327   21.9026 C   0  0  1  0  0  0  0  0  0  0  0  0
  -22.8518  -29.9762   20.4717 C   0  0  2  0  0  0  0  0  0  0  0  0
  -31.2604  -23.3903   17.9971 C   0  0  2  0  0  0  0  0  0  0  0  0
  -23.2436  -12.5160   20.7911 C   0  0  0  0  0  0  0  0  0  0  0  0
  -29.2277  -12.4299   17.9531 C   0  0  0  0  0  0  0  0  0  0  0  0
  -26.7476  -12.1639   17.7382 C   0  0  0  0  0  0  0  0  0  0  0  0
  -28.0355  -10.6554   19.2509 C   0  0  0  0  0  0  0  0  0  0  0  0
  -24.6347  -14.8932   23.4159 C   0  0  0  0  0  0  0  0  0  0  0  0
  -31.7851  -26.7380   19.3196 C   0  0  0  0  0  0  0  0  0  0  0  0
  -29.4209  -21.7450   18.2985 C   0  0  0  0  0  0  0  0  0  0  0  0
  -29.1234  -20.3820   18.8915 C   0  0  0  0  0  0  0  0  0  1  0  0
  -27.6780  -13.0680   19.9171 C   0  0  1  0  0  0  0  0  0  0  0  0
  -24.3187  -13.1331   21.6722 C   0  0  2  0  0  0  0  0  0  0  0  0
  -27.9334  -12.1036   18.7246 C   0  0  0  0  0  0  0  0  0  0  0  0
  -20.7715  -28.7525   20.9778 N   0  0  0  0  0  0  0  0  0  0  0  0
  -21.9832  -29.1501   21.4018 N   0  0  0  0  0  0  0  0  0  0  0  0
  -29.4586  -14.3025   21.1128 N   0  0  0  0  0  0  0  0  0  0  0  0
  -24.6207  -29.9450   18.7569 N   0  0  0  0  0  0  0  0  0  0  0  0
  -31.7683  -25.5795   18.4397 N   0  0  1  0  0  0  0  0  0  0  0  0
  -23.4640  -29.0528   23.2479 N   0  0  0  0  0  0  0  0  0  0  0  0
  -19.8763  -26.7042   24.6651 N   0  0  0  0  0  0  0  0  0  0  0  0
  -26.6527  -29.2070   19.6996 N   0  0  0  0  0  0  0  0  0  0  0  0
  -32.9408  -13.5856   21.4132 N   0  0  0  0  0  0  0  0  0  0  0  0
  -26.4732  -12.7661   20.6824 N   0  0  0  0  0  0  0  0  0  0  0  0
  -30.8416  -22.0916   18.5550 N   0  3  0  0  0  0  0  0  0  0  0  0
  -23.6955  -14.2149   22.4861 N   0  3  0  0  0  0  0  0  0  0  0  0
  -21.9565  -27.4651   25.2588 O   0  0  0  0  0  0  0  0  0  0  0  0
  -31.7236  -14.7784   19.8263 O   0  0  0  0  0  0  0  0  0  0  0  0
  -29.1224  -12.0252   21.4833 O   0  0  0  0  0  0  0  0  0  0  0  0
  -25.4554  -14.8273   20.3779 O   0  0  0  0  0  0  0  0  0  0  0  0
  -26.6386  -30.7525   17.9695 O   0  0  0  0  0  0  0  0  0  0  0  0
  -15.2208  -25.7323   21.7638 O   0  0  0  0  0  0  0  0  0  0  0  0
  -29.3421  -20.4164   20.3013 O   0  0  0  0  0  0  0  0  0  1  0  0
  -11.8993  -26.3313   26.1241 F   0  0  0  0  0  0  0  0  0  0  0  0
  -12.7703  -26.9882   21.5181 F   0  0  0  0  0  0  0  0  0  0  0  0
  1  2  1  0  0  0  0
  1  5  2  0  0  0  0
  2  6  2  0  0  0  0
  3 12  2  0  0  0  0
  3 19  1  0  0  0  0
  4 13  1  0  0  0  0
  4 19  2  0  0  0  0
  5 21  1  0  0  0  0
  6 23  1  0  0  0  0
  7 14  2  0  0  0  0
  7 22  1  0  0  0  0
  8 10  2  0  0  0  0
  8 25  1  0  0  0  0
  9 11  1  0  0  0  0
  9 25  2  0  0  0  0
 10 26  1  0  0  0  0
 11 26  2  0  0  0  0
 12 27  1  0  0  0  0
 13 27  2  0  0  0  0
 14 28  1  0  0  0  0
 15 16  2  0  0  0  0
 15 29  1  0  0  0  0
 16 30  1  0  0  0  0
 17 24  1  0  0  0  0
 17 28  2  0  0  0  0
 18 30  2  0  0  0  0
 18 31  1  0  0  0  0
 19 32  1  0  0  0  0
 20 32  1  0  0  0  0
 20 33  2  0  0  0  0
 20 34  1  0  0  0  0
 21 23  2  0  0  0  0
 21 39  1  0  0  0  0
 22 24  2  0  0  0  0
 22 40  1  0  0  0  0
 23 51  1  0  0  0  0
 24 41  1  0  0  0  0
 25 60  1  0  0  0  0
 26 73  1  0  0  0  0
 27 83  1  0  0  0  0
 28 84  1  0  0  0  0
 29 31  2  0  0  0  0
 29 83  1  0  0  0  0
 30 85  1  0  0  0  0
 31 86  1  0  0  0  0
 32 66  2  0  0  0  0
 33 67  1  0  0  0  0
 33 71  1  0  0  0  0
 34 72  1  0  0  0  0
 34 78  2  0  0  0  0
 35 52  1  0  0  0  0
 35 74  1  0  0  0  0
 35 79  2  0  0  0  0
 36 63  1  0  0  0  0
 36 68  1  0  0  0  0
 36 80  2  0  0  0  0
 37 64  1  0  0  0  0
 37 75  1  0  0  0  0
 37 81  2  0  0  0  0
 38 69  1  0  0  0  0
 38 73  1  0  0  0  0
 38 82  2  0  0  0  0
 39 42  1  0  0  0  0
 40 52  1  0  0  0  0
 41 68  1  0  0  0  0
 42 44  1  0  0  0  0
 43 45  1  0  0  0  0
 43 47  1  0  0  0  0
 44 51  1  0  0  0  0
 45 53  1  0  0  0  0
 46 48  1  0  0  0  0
 46 54  1  0  0  0  0
 47 69  1  0  0  0  0
 48 70  1  0  0  0  0
 49 53  1  0  0  0  0
 49 69  1  0  0  0  0
 50 54  1  0  0  0  0
 50 70  1  0  0  0  0
 51 74  1  0  0  0  0
 52 68  1  0  0  0  0
 53 67  1  0  0  0  0
 54 76  1  0  0  0  0
 55 64  1  0  0  0  0
 56 65  1  0  0  0  0
 57 65  1  0  0  0  0
 58 65  1  0  0  0  0
 59 77  1  0  0  0  0
 60 70  1  0  0  0  0
 61 62  1  0  0  0  0
 61 76  1  0  0  0  0
 62 84  1  0  0  0  0
 63 65  1  0  0  0  0
 63 75  1  0  0  0  0
 64 77  1  0  0  0  0
 66 67  1  0  0  0  0
M  CHG  2  76   1  77   1
M  ISO  4  38 100  62 101  73 100  84 101
M  END
> <Batch ID>
0131

> <Smiles>
CNC(C)C(=O)NC(C(=O)N1Cc2cc([101O:1][101CH2:1]CNC3CCN(Cc4ccc([100NH:0][100C:0](=O)N5CCCC(n6nc(-c7ccc(Oc8ccc(F)cc8F)cc7)c(C(N)=O)c6N)C5)cc4)C3)ccc2CC1C(=O)NC1CCCc2ccccc21)C(C)(C)C

> <Shape>
0.280

> <Color>
0.068

> <Negative vol penalty>
0.000

$$$$

  -OEChem-04052320503D

 88 97  0     1  0  0  0  0  0999 V2000
  -23.4651  -18.2055   23.6656 C   0  0  0  0  0  0  0  0  0  0  0  0
  -24.6006  -18.8850   23.2363 C   0  0  0  0  0  0  0  0  0  0  0  0
  -23.2806  -10.2974   22.2546 C   0  0  0  0  0  0  0  0  0  0  0  0
  -23.5870   -9.5685   19.9717 C   0  0  0  0  0  0  0  0  0  0  0  0
  -22.2104  -18.8015   23.5454 C   0  0  0  0  0  0  0  0  0  0  0  0
  -24.4820  -20.1606   22.6855 C   0  0  0  0  0  0  0  0  0  0  0  0
  -27.9496  -23.3835   24.4836 C   0  0  0  0  0  0  0  0  0  0  0  0
  -22.5252   -9.1549   22.5181 C   0  0  0  0  0  0  0  0  0  0  0  0
  -22.8316   -8.4258   20.2352 C   0  0  0  0  0  0  0  0  0  0  0  0
  -29.2394  -23.2866   23.9631 C   0  0  0  0  0  0  0  0  0  0  0  0
  -19.3707   -8.0732   21.9676 C   0  0  0  0  0  0  0  0  0  0  0  0
  -18.1828   -8.2328   22.6810 C   0  0  0  0  0  0  0  0  0  0  0  0
  -28.7881  -25.1604   22.5124 C   0  0  0  0  0  0  0  0  0  0  0  0
  -19.0232   -6.7674   24.4082 C   0  0  0  0  0  0  0  0  0  0  0  0
  -23.8114  -10.5043   20.9814 C   0  0  0  0  0  0  0  0  0  0  0  0
  -24.1726  -13.0243   20.8176 C   0  0  0  0  0  0  0  0  0  0  0  0
  -22.0773  -20.0889   23.0018 C   0  0  0  0  0  0  0  0  0  0  0  0
  -27.0643  -24.3643   24.0138 C   0  0  0  0  0  0  0  0  0  0  0  0
  -23.2241  -20.7738   22.5567 C   0  0  0  0  0  0  0  0  0  0  0  0
  -27.4885  -25.2692   23.0304 C   0  0  0  0  0  0  0  0  0  0  0  0
  -22.3008   -8.2190   21.5084 C   0  0  0  0  0  0  0  0  0  0  0  0
  -29.6579  -24.1733   22.9753 C   0  0  0  0  0  0  0  0  0  0  0  0
  -20.3848   -7.2606   22.4744 C   0  0  0  0  0  0  0  0  0  0  0  0
  -18.0090   -7.5800   23.9013 C   0  0  0  0  0  0  0  0  0  0  0  0
  -20.2111   -6.6078   23.6947 C   0  0  0  0  0  0  0  0  0  0  0  0
  -24.5913  -11.6847   20.7084 C   0  0  0  0  0  0  0  0  0  0  0  0
  -25.2733  -13.7592   20.4501 C   0  0  0  0  0  0  0  0  0  0  0  0
  -22.9023  -13.5568   21.2157 C   0  0  0  0  0  0  0  0  0  0  0  0
  -24.2495  -24.3236   22.5376 C   0  0  0  0  0  0  0  0  0  0  0  0
  -24.4054  -27.5322   22.9878 C   0  0  0  0  0  0  0  0  0  0  0  0
  -26.3425  -30.2962   23.4927 C   0  0  0  0  0  0  0  0  0  0  0  0
  -30.7624  -14.7426   20.6678 C   0  0  0  0  0  0  0  0  0  0  0  0
  -20.6952  -20.6729   22.8487 C   0  0  0  0  0  0  0  0  0  0  0  0
  -25.6853  -24.4725   24.6046 C   0  0  0  0  0  0  0  0  0  0  0  0
  -26.5833  -26.3530   22.5065 C   0  0  0  0  0  0  0  0  0  0  0  0
  -20.6945  -22.1788   22.5988 C   0  0  0  0  0  0  0  0  0  0  0  0
  -36.9644  -15.5010   21.5541 C   0  0  0  0  0  0  0  0  0  0  0  0
  -29.6283  -12.3223   18.3157 C   0  0  0  0  0  0  0  0  0  0  0  0
  -21.7203  -22.5431   21.5302 C   0  0  0  0  0  0  0  0  0  0  0  0
  -28.1850  -12.0469   18.7413 C   0  0  0  0  0  0  0  0  0  0  0  0
  -35.5634  -16.0989   21.3043 C   0  0  0  0  0  0  0  0  0  0  0  0
  -36.8119  -15.9425   23.0252 C   0  0  0  0  0  0  0  0  0  0  0  0
  -32.5183  -17.7489   25.1073 C   0  0  0  0  0  0  0  0  0  0  0  0
  -30.5365  -12.5589   19.5203 C   0  0  0  0  0  0  0  0  0  0  0  0
  -28.6282  -13.3291   20.8764 C   0  0  0  0  0  0  0  0  0  0  0  0
  -31.1681  -17.1861   25.5082 C   0  0  0  0  0  0  0  0  0  0  0  0
  -23.1388  -22.1689   21.9767 C   0  0  1  0  0  0  0  0  0  0  0  0
  -24.6959  -25.1833   23.6862 C   0  0  1  0  0  0  0  0  0  0  0  0
  -32.3605  -18.0024   23.6126 C   0  0  2  0  0  0  0  0  0  0  0  0
  -27.6630  -13.1395   19.6936 C   0  0  2  0  0  0  0  0  0  0  0  0
  -35.8242  -17.0171   22.5191 C   0  0  0  0  0  0  0  0  0  0  0  0
  -31.6266  -16.7458   23.1469 C   0  0  2  0  0  0  0  0  0  0  0  0
  -26.1874  -32.7839   23.7841 C   0  0  0  0  0  0  0  0  0  0  0  0
  -23.9168  -27.8502   19.9928 C   0  0  0  0  0  0  0  0  0  0  0  0
  -24.7076  -30.2178   20.1859 C   0  0  0  0  0  0  0  0  0  0  0  0
  -22.6765  -29.4776   21.4308 C   0  0  0  0  0  0  0  0  0  0  0  0
  -27.5449  -30.1713   26.1940 C   0  0  0  0  0  0  0  0  0  0  0  0
  -30.8331  -16.9153   21.8652 C   0  0  0  0  0  0  0  0  0  0  0  0
  -33.0994  -23.0660   22.2718 C   0  0  0  0  0  0  0  0  0  0  0  0
  -34.0255  -21.9747   22.7989 C   0  0  0  0  0  0  0  0  0  0  0  0
  -34.2845  -19.6114   23.1289 C   0  0  0  0  0  0  0  0  0  0  0  0
  -31.7546  -23.0511   22.9879 C   0  0  0  0  0  0  0  0  0  1  0  0
  -24.9548  -28.6969   22.2000 C   0  0  1  0  0  0  0  0  0  0  0  0
  -26.2304  -31.4366   24.4883 C   0  0  2  0  0  0  0  0  0  0  0  0
  -33.6899  -18.2213   22.9082 C   0  0  1  0  0  0  0  0  0  0  0  0
  -24.0806  -29.0391   20.9607 C   0  0  0  0  0  0  0  0  0  0  0  0
  -25.8590  -11.5722   20.3031 N   0  0  0  0  0  0  0  0  0  0  0  0
  -26.2463  -12.8504   20.1543 N   0  0  0  0  0  0  0  0  0  0  0  0
  -25.2424  -26.4141   23.1111 N   0  0  0  0  0  0  0  0  0  0  0  0
  -29.9858  -13.6076   20.3822 N   0  0  0  0  0  0  0  0  0  0  0  0
  -25.4939  -15.0875   20.3543 N   0  0  0  0  0  0  0  0  0  0  0  0
  -21.9335  -13.7828   20.2284 N   0  0  0  0  0  0  0  0  0  0  0  0
  -23.6445  -23.1419   22.9212 N   0  0  0  0  0  0  0  0  0  0  0  0
  -25.1048  -29.7961   23.1474 N   0  0  0  0  0  0  0  0  0  0  0  0
  -30.1627  -15.6912   21.4872 N   0  0  0  0  0  0  0  0  0  0  0  0
  -33.4151  -20.6627   22.6199 N   0  0  0  0  0  0  0  0  0  0  0  0
  -30.6903  -16.4456   24.2908 N   0  3  0  0  0  0  0  0  0  0  0  0
  -34.6534  -17.1897   23.3845 N   0  3  0  0  0  0  0  0  0  0  0  0
  -27.3952  -31.4291   25.4179 N   0  3  0  0  0  0  0  0  0  0  0  0
  -22.6401  -13.8397   22.4093 O   0  0  0  0  0  0  0  0  0  0  0  0
  -24.4387  -24.7048   21.3884 O   0  0  0  0  0  0  0  0  0  0  0  0
  -23.2781  -27.6143   23.4819 O   0  0  0  0  0  0  0  0  0  0  0  0
  -27.4200  -29.8921   23.0613 O   0  0  0  0  0  0  0  0  0  0  0  0
  -31.9035  -14.9016   20.2211 O   0  0  0  0  0  0  0  0  0  0  0  0
  -21.5639   -7.1038   21.7652 O   0  0  0  0  0  0  0  0  0  0  0  0
  -30.9160  -24.0805   22.4651 O   0  0  0  0  0  0  0  0  0  1  0  0
  -16.8689   -7.7345   24.5871 F   0  0  0  0  0  0  0  0  0  0  0  0
  -21.1823   -5.8268   24.1873 F   0  0  0  0  0  0  0  0  0  0  0  0
  1  2  1  0  0  0  0
  1  5  2  0  0  0  0
  2  6  2  0  0  0  0
  3  8  2  0  0  0  0
  3 15  1  0  0  0  0
  4  9  1  0  0  0  0
  4 15  2  0  0  0  0
  5 17  1  0  0  0  0
  6 19  1  0  0  0  0
  7 10  2  0  0  0  0
  7 18  1  0  0  0  0
  8 21  1  0  0  0  0
  9 21  2  0  0  0  0
 10 22  1  0  0  0  0
 11 12  2  0  0  0  0
 11 23  1  0  0  0  0
 12 24  1  0  0  0  0
 13 20  1  0  0  0  0
 13 22  2  0  0  0  0
 14 24  2  0  0  0  0
 14 25  1  0  0  0  0
 15 26  1  0  0  0  0
 16 26  1  0  0  0  0
 16 27  2  0  0  0  0
 16 28  1  0  0  0  0
 17 19  2  0  0  0  0
 17 33  1  0  0  0  0
 18 20  2  0  0  0  0
 18 34  1  0  0  0  0
 19 47  1  0  0  0  0
 20 35  1  0  0  0  0
 21 85  1  0  0  0  0
 22 86  1  0  0  0  0
 23 25  2  0  0  0  0
 23 85  1  0  0  0  0
 24 87  1  0  0  0  0
 25 88  1  0  0  0  0
 26 67  2  0  0  0  0
 27 68  1  0  0  0  0
 27 71  1  0  0  0  0
 28 72  1  0  0  0  0
 28 80  2  0  0  0  0
 29 48  1  0  0  0  0
 29 73  1  0  0  0  0
 29 81  2  0  0  0  0
 30 63  1  0  0  0  0
 30 69  1  0  0  0  0
 30 82  2  0  0  0  0
 31 64  1  0  0  0  0
 31 74  1  0  0  0  0
 31 83  2  0  0  0  0
 32 70  1  0  0  0  0
 32 75  1  0  0  0  0
 32 84  2  0  0  0  0
 33 36  1  0  0  0  0
 34 48  1  0  0  0  0
 35 69  1  0  0  0  0
 36 39  1  0  0  0  0
 37 41  1  0  0  0  0
 37 42  1  0  0  0  0
 38 40  1  0  0  0  0
 38 44  1  0  0  0  0
 39 47  1  0  0  0  0
 40 50  1  0  0  0  0
 41 51  1  0  0  0  0
 42 51  1  0  0  0  0
 43 46  1  0  0  0  0
 43 49  1  0  0  0  0
 44 70  1  0  0  0  0
 45 50  1  0  0  0  0
 45 70  1  0  0  0  0
 46 77  1  0  0  0  0
 47 73  1  0  0  0  0
 48 69  1  0  0  0  0
 49 52  1  0  0  0  0
 49 65  1  0  0  0  0
 50 68  1  0  0  0  0
 51 78  1  0  0  0  0
 52 58  1  0  0  0  0
 52 77  1  0  0  0  0
 53 64  1  0  0  0  0
 54 66  1  0  0  0  0
 55 66  1  0  0  0  0
 56 66  1  0  0  0  0
 57 79  1  0  0  0  0
 58 75  1  0  0  0  0
 59 60  1  0  0  0  0
 59 62  1  0  0  0  0
 60 76  1  0  0  0  0
 61 65  1  0  0  0  0
 61 76  1  0  0  0  0
 62 86  1  0  0  0  0
 63 66  1  0  0  0  0
 63 74  1  0  0  0  0
 64 79  1  0  0  0  0
 65 78  1  0  0  0  0
 67 68  1  0  0  0  0
M  CHG  3  77   1  78   1  79   1
M  ISO  4  32 100  62 101  75 100  86 101
M  END
> <Batch ID>
0131

> <Smiles>
CNC(C)C(=O)NC(C(=O)N1Cc2cc([101O:1][101CH2:1]CCNCC(NC3CCC3)C3CCNC3C[100NH:0][100C:0](=O)N3CCCC(n4nc(-c5ccc(Oc6ccc(F)cc6F)cc5)c(C(N)=O)c4N)C3)ccc2CC1C(=O)NC1CCCc2ccccc21)C(C)(C)C

> <Shape>
0.220

> <Color>
0.147

> <Negative vol penalty>
0.000

$$$$

  -OEChem-04052320503D

 83 91  0     1  0  0  0  0  0999 V2000
  -21.6209  -12.6607   19.1743 C   0  0  0  0  0  0  0  0  0  0  0  0
  -21.6251  -13.8757   19.8519 C   0  0  0  0  0  0  0  0  0  0  0  0
  -17.8294  -28.2190   24.5787 C   0  0  0  0  0  0  0  0  0  0  0  0
  -17.6432  -29.1049   23.5176 C   0  0  0  0  0  0  0  0  0  0  0  0
  -28.0860  -26.0963   17.7869 C   0  0  0  0  0  0  0  0  0  0  0  0
  -28.1639  -26.2183   20.1986 C   0  0  0  0  0  0  0  0  0  0  0  0
  -22.7699  -11.8712   19.1541 C   0  0  0  0  0  0  0  0  0  0  0  0
  -22.7780  -14.3014   20.5107 C   0  0  0  0  0  0  0  0  0  0  0  0
  -23.8146  -19.1836   19.6538 C   0  0  0  0  0  0  0  0  0  0  0  0
  -19.1075  -27.7466   24.8767 C   0  0  0  0  0  0  0  0  0  0  0  0
  -18.7350  -29.5183   22.7543 C   0  0  0  0  0  0  0  0  0  0  0  0
  -29.4794  -26.0489   17.7442 C   0  0  0  0  0  0  0  0  0  0  0  0
  -29.5573  -26.1709   20.1559 C   0  0  0  0  0  0  0  0  0  0  0  0
  -23.0706  -20.1263   20.3619 C   0  0  0  0  0  0  0  0  0  0  0  0
  -33.1456  -26.4450   20.6650 C   0  0  0  0  0  0  0  0  0  0  0  0
  -33.8497  -27.3374   21.4733 C   0  0  0  0  0  0  0  0  0  0  0  0
  -24.8975  -20.3931   21.9145 C   0  0  0  0  0  0  0  0  0  0  0  0
  -32.8097  -29.1940   20.3294 C   0  0  0  0  0  0  0  0  0  0  0  0
  -27.4282  -26.1810   19.0141 C   0  0  0  0  0  0  0  0  0  0  0  0
  -25.1030  -25.1398   19.1427 C   0  0  0  0  0  0  0  0  0  0  0  0
  -23.9405  -12.2919   19.8049 C   0  0  0  0  0  0  0  0  0  0  0  0
  -25.1037  -18.8299   20.0777 C   0  0  0  0  0  0  0  0  0  0  0  0
  -23.9433  -13.5161   20.5003 C   0  0  0  0  0  0  0  0  0  0  0  0
  -25.6568  -19.4475   21.2085 C   0  0  0  0  0  0  0  0  0  0  0  0
  -20.1994  -28.1599   24.1135 C   0  0  0  0  0  0  0  0  0  0  0  0
  -20.0132  -29.0458   23.0523 C   0  0  0  0  0  0  0  0  0  0  0  0
  -30.2150  -26.0862   18.9287 C   0  0  0  0  0  0  0  0  0  0  0  0
  -23.6108  -20.7291   21.4941 C   0  0  0  0  0  0  0  0  0  0  0  0
  -32.2736  -26.9271   19.6887 C   0  0  0  0  0  0  0  0  0  0  0  0
  -33.6817  -28.7119   21.3055 C   0  0  0  0  0  0  0  0  0  0  0  0
  -32.1057  -28.3016   19.5210 C   0  0  0  0  0  0  0  0  0  0  0  0
  -25.9889  -26.2306   19.0587 C   0  0  0  0  0  0  0  0  0  0  0  0
  -23.8543  -25.7117   19.1550 C   0  0  0  0  0  0  0  0  0  0  0  0
  -25.3836  -23.7351   19.2043 C   0  0  0  0  0  0  0  0  0  0  0  0
  -26.4807  -16.1415   21.0675 C   0  0  0  0  0  0  0  0  0  0  0  0
  -29.1709  -17.9527   20.9971 C   0  0  0  0  0  0  0  0  0  0  0  0
  -30.5746  -21.0613   21.1124 C   0  0  0  0  0  0  0  0  0  0  0  0
  -21.0776  -30.3536   21.1806 C   0  0  0  0  0  0  0  0  0  0  0  0
  -25.1434  -11.3823   19.7952 C   0  0  0  0  0  0  0  0  0  0  0  0
  -25.9036  -17.8310   19.2874 C   0  0  0  0  0  0  0  0  0  0  0  0
  -27.0441  -19.1176   21.6933 C   0  0  0  0  0  0  0  0  0  0  0  0
  -26.4383  -12.0805   20.2027 C   0  0  0  0  0  0  0  0  0  0  0  0
  -22.0105  -30.0849   17.7551 C   0  0  0  0  0  0  0  0  0  0  0  0
  -26.2194  -12.9223   21.4557 C   0  0  0  0  0  0  0  0  0  0  0  0
  -23.0450  -28.9571   17.7484 C   0  0  0  0  0  0  0  0  0  0  0  0
  -22.1245  -30.9517   19.0078 C   0  0  0  0  0  0  0  0  0  0  0  0
  -23.1234  -29.0874   20.2711 C   0  0  0  0  0  0  0  0  0  0  0  0
  -25.1820  -14.0238   21.2061 C   0  0  1  0  0  0  0  0  0  0  0  0
  -27.0078  -17.1684   20.1054 C   0  0  1  0  0  0  0  0  0  0  0  0
  -23.0052  -28.1481   19.0598 C   0  0  2  0  0  0  0  0  0  0  0  0
  -32.3700  -22.8110   21.0015 C   0  0  0  0  0  0  0  0  0  0  0  0
  -29.6591  -17.1167   23.8907 C   0  0  0  0  0  0  0  0  0  0  0  0
  -31.2996  -18.9981   24.0842 C   0  0  0  0  0  0  0  0  0  0  0  0
  -31.7070  -17.1530   22.4556 C   0  0  0  0  0  0  0  0  0  0  0  0
  -30.2417  -21.3832   18.1893 C   0  0  0  0  0  0  0  0  0  0  0  0
  -21.5693  -27.6328   24.4587 C   0  0  0  0  0  0  0  0  0  0  0  0
  -22.0378  -26.4832   23.5569 C   0  0  0  0  0  0  0  0  0  0  0  0
  -21.1248  -25.2613   23.5262 C   0  0  0  0  0  0  0  0  0  0  0  0
  -20.9067  -22.9413   22.6267 C   0  0  0  0  0  0  0  0  0  0  0  0
  -21.5798  -21.9493   21.6989 C   0  0  0  0  0  0  0  0  0  1  0  0
  -29.8865  -18.8429   21.9842 C   0  0  1  0  0  0  0  0  0  0  0  0
  -31.6252  -21.7251   20.2407 C   0  0  2  0  0  0  0  0  0  0  0  0
  -30.6112  -18.0327   23.0959 C   0  0  0  0  0  0  0  0  0  0  0  0
  -25.3567  -27.4065   19.0201 N   0  0  0  0  0  0  0  0  0  0  0  0
  -24.0602  -27.0579   19.0801 N   0  0  0  0  0  0  0  0  0  0  0  0
  -27.7842  -18.1301   20.8905 N   0  0  0  0  0  0  0  0  0  0  0  0
  -22.0749  -30.1179   20.2108 N   0  0  0  0  0  0  0  0  0  0  0  0
  -22.6113  -25.1895   19.2223 N   0  0  0  0  0  0  0  0  0  0  0  0
  -26.7220  -23.3195   19.1813 N   0  0  0  0  0  0  0  0  0  0  0  0
  -21.1094  -29.4775   22.2651 N   0  0  0  0  0  0  0  0  0  0  0  0
  -25.7742  -15.1175   20.4661 N   0  0  0  0  0  0  0  0  0  0  0  0
  -30.7681  -19.6987   21.1976 N   0  0  0  0  0  0  0  0  0  0  0  0
  -30.9894  -22.3424   19.0425 N   0  3  0  0  0  0  0  0  0  0  0  0
  -21.7032  -24.1936   22.6663 N   0  3  0  0  0  0  0  0  0  0  0  0
  -24.4741  -22.8731   19.2609 O   0  0  0  0  0  0  0  0  0  0  0  0
  -26.7002  -16.2681   22.2664 O   0  0  0  0  0  0  0  0  0  0  0  0
  -29.8195  -17.1350   20.3395 O   0  0  0  0  0  0  0  0  0  0  0  0
  -29.6746  -21.6892   21.6658 O   0  0  0  0  0  0  0  0  0  0  0  0
  -20.2390  -31.2482   21.0450 O   0  0  0  0  0  0  0  0  0  0  0  0
  -31.5747  -26.0398   18.8875 O   0  0  0  0  0  0  0  0  0  0  0  0
  -22.8865  -21.6491   22.1875 O   0  0  0  0  0  0  0  0  0  1  0  0
  -34.3568  -29.5688   22.0829 F   0  0  0  0  0  0  0  0  0  0  0  0
  -31.2684  -28.7707   18.5856 F   0  0  0  0  0  0  0  0  0  0  0  0
  1  2  1  0  0  0  0
  1  7  2  0  0  0  0
  2  8  2  0  0  0  0
  3  4  1  0  0  0  0
  3 10  2  0  0  0  0
  4 11  2  0  0  0  0
  5 12  2  0  0  0  0
  5 19  1  0  0  0  0
  6 13  1  0  0  0  0
  6 19  2  0  0  0  0
  7 21  1  0  0  0  0
  8 23  1  0  0  0  0
  9 14  2  0  0  0  0
  9 22  1  0  0  0  0
 10 25  1  0  0  0  0
 11 26  1  0  0  0  0
 12 27  1  0  0  0  0
 13 27  2  0  0  0  0
 14 28  1  0  0  0  0
 15 16  2  0  0  0  0
 15 29  1  0  0  0  0
 16 30  1  0  0  0  0
 17 24  1  0  0  0  0
 17 28  2  0  0  0  0
 18 30  2  0  0  0  0
 18 31  1  0  0  0  0
 19 32  1  0  0  0  0
 20 32  1  0  0  0  0
 20 33  2  0  0  0  0
 20 34  1  0  0  0  0
 21 23  2  0  0  0  0
 21 39  1  0  0  0  0
 22 24  2  0  0  0  0
 22 40  1  0  0  0  0
 23 48  1  0  0  0  0
 24 41  1  0  0  0  0
 25 26  2  0  0  0  0
 25 56  1  0  0  0  0
 26 70  1  0  0  0  0
 27 80  1  0  0  0  0
 28 81  1  0  0  0  0
 29 31  2  0  0  0  0
 29 80  1  0  0  0  0
 30 82  1  0  0  0  0
 31 83  1  0  0  0  0
 32 64  2  0  0  0  0
 33 65  1  0  0  0  0
 33 68  1  0  0  0  0
 34 69  1  0  0  0  0
 34 75  2  0  0  0  0
 35 49  1  0  0  0  0
 35 71  1  0  0  0  0
 35 76  2  0  0  0  0
 36 61  1  0  0  0  0
 36 66  1  0  0  0  0
 36 77  2  0  0  0  0
 37 62  1  0  0  0  0
 37 72  1  0  0  0  0
 37 78  2  0  0  0  0
 38 67  1  0  0  0  0
 38 70  1  0  0  0  0
 38 79  2  0  0  0  0
 39 42  1  0  0  0  0
 40 49  1  0  0  0  0
 41 66  1  0  0  0  0
 42 44  1  0  0  0  0
 43 45  1  0  0  0  0
 43 46  1  0  0  0  0
 44 48  1  0  0  0  0
 45 50  1  0  0  0  0
 46 67  1  0  0  0  0
 47 50  1  0  0  0  0
 47 67  1  0  0  0  0
 48 71  1  0  0  0  0
 49 66  1  0  0  0  0
 50 65  1  0  0  0  0
 51 62  1  0  0  0  0
 52 63  1  0  0  0  0
 53 63  1  0  0  0  0
 54 63  1  0  0  0  0
 55 73  1  0  0  0  0
 56 57  1  0  0  0  0
 57 58  1  0  0  0  0
 58 74  1  0  0  0  0
 59 60  1  0  0  0  0
 59 74  1  0  0  0  0
 60 81  1  0  0  0  0
 61 63  1  0  0  0  0
 61 72  1  0  0  0  0
 62 73  1  0  0  0  0
 64 65  1  0  0  0  0
M  CHG  2  73   1  74   1
M  ISO  4  38 100  60 101  70 100  81 101
M  END
> <Batch ID>
0131

> <Smiles>
CNC(C)C(=O)NC(C(=O)N1Cc2cc([101O:1][101CH2:1]CNCCCc3ccccc3[100NH:0][100C:0](=O)N3CCCC(n4nc(-c5ccc(Oc6ccc(F)cc6F)cc5)c(C(N)=O)c4N)C3)ccc2CC1C(=O)NC1CCCc2ccccc21)C(C)(C)C

> <Shape>
0.203

> <Color>
0.070

> <Negative vol penalty>
0.000

$$$$

  -OEChem-04052320503D

 83 92  0     1  0  0  0  0  0999 V2000
  -27.8408  -24.3492   16.8878 C   0  0  0  0  0  0  0  0  0  0  0  0
  -26.6782  -24.5727   17.6185 C   0  0  0  0  0  0  0  0  0  0  0  0
  -27.1993  -13.1452   20.8802 C   0  0  0  0  0  0  0  0  0  0  0  0
  -25.1473  -13.5437   19.6688 C   0  0  0  0  0  0  0  0  0  0  0  0
  -29.0546  -24.8693   17.3350 C   0  0  0  0  0  0  0  0  0  0  0  0
  -26.7290  -25.3157   18.7974 C   0  0  0  0  0  0  0  0  0  0  0  0
  -22.9780  -28.7023   19.1225 C   0  0  0  0  0  0  0  0  0  0  0  0
  -19.9802  -21.4211   19.9901 C   0  0  0  0  0  0  0  0  0  0  0  0
  -26.8712  -11.7942   20.9916 C   0  0  0  0  0  0  0  0  0  0  0  0
  -24.8191  -12.1926   19.7803 C   0  0  0  0  0  0  0  0  0  0  0  0
  -21.7193  -28.2254   19.4858 C   0  0  0  0  0  0  0  0  0  0  0  0
  -23.2684   -8.9172   20.0581 C   0  0  0  0  0  0  0  0  0  0  0  0
  -21.9610   -8.5955   20.4226 C   0  0  0  0  0  0  0  0  0  0  0  0
  -21.1048  -20.7042   20.3799 C   0  0  0  0  0  0  0  0  0  0  0  0
  -22.0948  -28.9751   21.7477 C   0  0  0  0  0  0  0  0  0  0  0  0
  -22.2432   -9.7997   22.4980 C   0  0  0  0  0  0  0  0  0  0  0  0
  -26.3373  -14.0201   20.2188 C   0  0  0  0  0  0  0  0  0  0  0  0
  -27.4054  -16.0314   19.0693 C   0  0  0  0  0  0  0  0  0  0  0  0
  -29.1187  -25.6272   18.5148 C   0  0  0  0  0  0  0  0  0  0  0  0
  -23.8104  -29.3105   20.0732 C   0  0  0  0  0  0  0  0  0  0  0  0
  -27.9451  -25.8454   19.2614 C   0  0  0  0  0  0  0  0  0  0  0  0
  -19.6530  -22.6162   20.6352 C   0  0  0  0  0  0  0  0  0  0  0  0
  -23.3626  -29.4612   21.3933 C   0  0  0  0  0  0  0  0  0  0  0  0
  -25.6811  -11.3178   20.4417 C   0  0  0  0  0  0  0  0  0  0  0  0
  -21.2787  -28.3592   20.7993 C   0  0  0  0  0  0  0  0  0  0  0  0
  -24.0632   -9.6802   20.9137 C   0  0  0  0  0  0  0  0  0  0  0  0
  -21.4484   -9.0367   21.6425 C   0  0  0  0  0  0  0  0  0  0  0  0
  -23.5506  -10.1214   22.1336 C   0  0  0  0  0  0  0  0  0  0  0  0
  -26.6755  -15.4160   20.1038 C   0  0  0  0  0  0  0  0  0  0  0  0
  -20.5036  -23.0613   21.6502 C   0  0  0  0  0  0  0  0  0  0  0  0
  -21.8750  -21.2186   21.4069 C   0  0  0  0  0  0  0  0  0  0  0  0
  -27.4524  -17.3574   19.4241 C   0  0  0  0  0  0  0  0  0  0  0  0
  -27.9887  -15.4559   17.8927 C   0  0  0  0  0  0  0  0  0  0  0  0
  -26.6763  -28.6637   21.2863 C   0  0  0  0  0  0  0  0  0  0  0  0
  -26.2798  -31.5374   22.7378 C   0  0  0  0  0  0  0  0  0  0  0  0
  -24.1367  -33.9361   23.8781 C   0  0  0  0  0  0  0  0  0  0  0  0
  -23.9316  -20.8067   22.8023 C   0  0  0  0  0  0  0  0  0  0  0  0
  -30.4617  -26.1290   18.9833 C   0  0  0  0  0  0  0  0  0  0  0  0
  -25.1545  -29.8437   19.6591 C   0  0  0  0  0  0  0  0  0  0  0  0
  -18.4638  -23.4230   20.1925 C   0  0  0  0  0  0  0  0  0  0  0  0
  -24.2097  -30.1248   22.4472 C   0  0  0  0  0  0  0  0  0  0  0  0
  -20.1987  -24.3276   22.3993 C   0  0  0  0  0  0  0  0  0  0  0  0
  -30.3671  -27.2222   20.0446 C   0  0  0  0  0  0  0  0  0  0  0  0
  -27.4099  -20.2081   23.2720 C   0  0  0  0  0  0  0  0  0  0  0  0
  -29.3607  -26.8335   21.1230 C   0  0  0  0  0  0  0  0  0  0  0  0
  -27.6839  -18.9709   22.4139 C   0  0  0  0  0  0  0  0  0  0  0  0
  -26.0380  -20.1418   23.9408 C   0  0  0  0  0  0  0  0  0  0  0  0
  -25.1885  -18.6532   22.1712 C   0  0  0  0  0  0  0  0  0  0  0  0
  -18.0003  -24.4334   21.2368 C   0  0  0  0  0  0  0  0  0  0  0  0
  -27.9555  -26.6673   20.5321 C   0  0  1  0  0  0  0  0  0  0  0  0
  -26.1268  -29.9843   20.8263 C   0  0  1  0  0  0  0  0  0  0  0  0
  -26.5319  -18.7042   21.4253 C   0  0  2  0  0  0  0  0  0  0  0  0
  -24.1066  -36.1533   25.0530 C   0  0  0  0  0  0  0  0  0  0  0  0
  -26.8610  -30.1390   25.3867 C   0  0  0  0  0  0  0  0  0  0  0  0
  -25.9003  -32.1269   26.5671 C   0  0  0  0  0  0  0  0  0  0  0  0
  -27.9281  -32.3871   25.1377 C   0  0  0  0  0  0  0  0  0  0  0  0
  -22.8419  -35.2697   21.5751 C   0  0  0  0  0  0  0  0  0  0  0  0
  -18.8022  -26.3957   22.5634 C   0  0  0  0  0  0  0  0  0  0  0  0
  -19.8920  -27.4478   22.5028 C   0  0  0  0  0  0  0  0  0  1  0  0
  -25.6816  -32.0021   24.0436 C   0  0  1  0  0  0  0  0  0  0  0  0
  -24.1303  -35.4445   23.7077 C   0  0  2  0  0  0  0  0  0  0  0  0
  -26.5773  -31.6495   25.2646 C   0  0  0  0  0  0  0  0  0  0  0  0
  -26.2869  -16.2800   21.0453 N   0  0  0  0  0  0  0  0  0  0  0  0
  -21.6024  -22.3747   22.0509 N   0  0  0  0  0  0  0  0  0  0  0  0
  -26.7745  -17.4519   20.6038 N   0  0  0  0  0  0  0  0  0  0  0  0
  -25.5187  -30.6241   21.9946 N   0  0  0  0  0  0  0  0  0  0  0  0
  -24.9959  -19.8911   22.9427 N   0  0  0  0  0  0  0  0  0  0  0  0
  -28.0072  -18.4402   18.8390 N   0  0  0  0  0  0  0  0  0  0  0  0
  -27.8463  -14.0776   17.6821 N   0  0  0  0  0  0  0  0  0  0  0  0
  -23.0192  -20.4806   21.7994 N   0  0  0  0  0  0  0  0  0  0  0  0
  -27.3469  -27.9604   20.3039 N   0  0  0  0  0  0  0  0  0  0  0  0
  -25.4187  -33.4286   23.8875 N   0  0  0  0  0  0  0  0  0  0  0  0
  -19.1947  -25.2255   21.7076 N   0  3  1  0  0  0  0  0  0  0  0  0
  -22.9336  -35.8729   22.9296 N   0  3  0  0  0  0  0  0  0  0  0  0
  -28.6316  -16.1408   17.0614 O   0  0  0  0  0  0  0  0  0  0  0  0
  -26.5059  -28.3097   22.4471 O   0  0  0  0  0  0  0  0  0  0  0  0
  -27.3786  -31.9744   22.3866 O   0  0  0  0  0  0  0  0  0  0  0  0
  -23.1075  -33.2746   23.9952 O   0  0  0  0  0  0  0  0  0  0  0  0
  -23.8513  -21.8206   23.5005 O   0  0  0  0  0  0  0  0  0  0  0  0
  -25.3607   -9.9994   20.5501 O   0  0  0  0  0  0  0  0  0  0  0  0
  -20.0508  -27.8940   21.1567 O   0  0  0  0  0  0  0  0  0  1  0  0
  -20.1923   -8.7290   21.9916 F   0  0  0  0  0  0  0  0  0  0  0  0
  -24.3090  -10.8557   22.9591 F   0  0  0  0  0  0  0  0  0  0  0  0
  1  2  1  0  0  0  0
  1  5  2  0  0  0  0
  2  6  2  0  0  0  0
  3  9  2  0  0  0  0
  3 17  1  0  0  0  0
  4 10  1  0  0  0  0
  4 17  2  0  0  0  0
  5 19  1  0  0  0  0
  6 21  1  0  0  0  0
  7 11  2  0  0  0  0
  7 20  1  0  0  0  0
  8 14  2  0  0  0  0
  8 22  1  0  0  0  0
  9 24  1  0  0  0  0
 10 24  2  0  0  0  0
 11 25  1  0  0  0  0
 12 13  2  0  0  0  0
 12 26  1  0  0  0  0
 13 27  1  0  0  0  0
 14 31  1  0  0  0  0
 15 23  1  0  0  0  0
 15 25  2  0  0  0  0
 16 27  2  0  0  0  0
 16 28  1  0  0  0  0
 17 29  1  0  0  0  0
 18 29  1  0  0  0  0
 18 32  2  0  0  0  0
 18 33  1  0  0  0  0
 19 21  2  0  0  0  0
 19 38  1  0  0  0  0
 20 23  2  0  0  0  0
 20 39  1  0  0  0  0
 21 50  1  0  0  0  0
 22 30  2  0  0  0  0
 22 40  1  0  0  0  0
 23 41  1  0  0  0  0
 24 80  1  0  0  0  0
 25 81  1  0  0  0  0
 26 28  2  0  0  0  0
 26 80  1  0  0  0  0
 27 82  1  0  0  0  0
 28 83  1  0  0  0  0
 29 63  2  0  0  0  0
 30 42  1  0  0  0  0
 30 64  1  0  0  0  0
 31 64  2  0  0  0  0
 31 70  1  0  0  0  0
 32 65  1  0  0  0  0
 32 68  1  0  0  0  0
 33 69  1  0  0  0  0
 33 75  2  0  0  0  0
 34 51  1  0  0  0  0
 34 71  1  0  0  0  0
 34 76  2  0  0  0  0
 35 60  1  0  0  0  0
 35 66  1  0  0  0  0
 35 77  2  0  0  0  0
 36 61  1  0  0  0  0
 36 72  1  0  0  0  0
 36 78  2  0  0  0  0
 37 67  1  0  0  0  0
 37 70  1  0  0  0  0
 37 79  2  0  0  0  0
 38 43  1  0  0  0  0
 39 51  1  0  0  0  0
 40 49  1  0  0  0  0
 41 66  1  0  0  0  0
 42 73  1  0  0  0  0
 43 45  1  0  0  0  0
 44 46  1  0  0  0  0
 44 47  1  0  0  0  0
 45 50  1  0  0  0  0
 46 52  1  0  0  0  0
 47 67  1  0  0  0  0
 48 52  1  0  0  0  0
 48 67  1  0  0  0  0
 49 73  1  0  0  0  0
 50 71  1  0  0  0  0
 51 66  1  0  0  0  0
 52 65  1  0  0  0  0
 53 61  1  0  0  0  0
 54 62  1  0  0  0  0
 55 62  1  0  0  0  0
 56 62  1  0  0  0  0
 57 74  1  0  0  0  0
 58 59  1  0  0  0  0
 58 73  1  0  0  0  0
 59 81  1  0  0  0  0
 60 62  1  0  0  0  0
 60 72  1  0  0  0  0
 61 74  1  0  0  0  0
 63 65  1  0  0  0  0
M  CHG  2  73   1  74   1
M  ISO  4  37 100  59 101  70 100  81 101
M  END
> <Batch ID>
0131

> <Smiles>
CNC(C)C(=O)NC(C(=O)N1Cc2cc([101O:1][101CH2:1]CN3CCc4ccc([100NH:0][100C:0](=O)N5CCCC(n6nc(-c7ccc(Oc8ccc(F)cc8F)cc7)c(C(N)=O)c6N)C5)nc4C3)ccc2CC1C(=O)NC1CCCc2ccccc21)C(C)(C)C

> <Shape>
0.286

> <Color>
0.079

> <Negative vol penalty>
0.000

$$$$

  -OEChem-04052320503D

 82 90  0     1  0  0  0  0  0999 V2000
  -28.0683  -33.3347   14.0971 C   0  0  0  0  0  0  0  0  0  0  0  0
  -28.2411  -31.9945   14.4279 C   0  0  0  0  0  0  0  0  0  0  0  0
  -22.8926  -10.1542   19.9601 C   0  0  0  0  0  0  0  0  0  0  0  0
  -23.8210   -9.8616   22.1713 C   0  0  0  0  0  0  0  0  0  0  0  0
  -27.5954  -34.2322   15.0534 C   0  0  0  0  0  0  0  0  0  0  0  0
  -27.9420  -31.5512   15.7157 C   0  0  0  0  0  0  0  0  0  0  0  0
  -25.6240  -26.1055   17.2894 C   0  0  0  0  0  0  0  0  0  0  0  0
  -29.2903  -21.1397   19.2261 C   0  0  0  0  0  0  0  0  0  0  0  0
  -29.8107  -20.0254   19.8841 C   0  0  0  0  0  0  0  0  0  0  0  0
  -22.0979   -9.0227   20.1439 C   0  0  0  0  0  0  0  0  0  0  0  0
  -23.0263   -8.7301   22.3552 C   0  0  0  0  0  0  0  0  0  0  0  0
  -26.2153  -24.9374   17.7685 C   0  0  0  0  0  0  0  0  0  0  0  0
  -23.0635   -5.4809   21.4210 C   0  0  0  0  0  0  0  0  0  0  0  0
  -23.6649   -4.3493   21.9717 C   0  0  0  0  0  0  0  0  0  0  0  0
  -25.6953  -25.6076   20.0267 C   0  0  0  0  0  0  0  0  0  0  0  0
  -27.1042  -20.6543   20.1331 C   0  0  0  0  0  0  0  0  0  0  0  0
  -22.1104   -4.4226   23.8198 C   0  0  0  0  0  0  0  0  0  0  0  0
  -23.7542  -10.5736   20.9737 C   0  0  0  0  0  0  0  0  0  0  0  0
  -24.2454  -13.0737   21.0993 C   0  0  0  0  0  0  0  0  0  0  0  0
  -27.2812  -33.7979   16.3509 C   0  0  0  0  0  0  0  0  0  0  0  0
  -25.0726  -27.0402   18.1775 C   0  0  0  0  0  0  0  0  0  0  0  0
  -27.4657  -32.4441   16.6908 C   0  0  0  0  0  0  0  0  0  0  0  0
  -25.0952  -26.7856   19.5562 C   0  0  0  0  0  0  0  0  0  0  0  0
  -27.9370  -21.4543   19.3506 C   0  0  0  0  0  0  0  0  0  0  0  0
  -27.6246  -19.5399   20.7911 C   0  0  0  0  0  0  0  0  0  0  0  0
  -28.9779  -19.2255   20.6666 C   0  0  0  0  0  0  0  0  0  0  0  0
  -22.1648   -8.3106   21.3415 C   0  0  0  0  0  0  0  0  0  0  0  0
  -26.2536  -24.6897   19.1376 C   0  0  0  0  0  0  0  0  0  0  0  0
  -21.9857   -6.0836   22.0698 C   0  0  0  0  0  0  0  0  0  0  0  0
  -23.1883   -3.8201   23.1711 C   0  0  0  0  0  0  0  0  0  0  0  0
  -21.5091   -5.5544   23.2691 C   0  0  0  0  0  0  0  0  0  0  0  0
  -24.5757  -11.7421   20.7842 C   0  0  0  0  0  0  0  0  0  0  0  0
  -25.3526  -13.7984   20.7313 C   0  0  0  0  0  0  0  0  0  0  0  0
  -23.0451  -13.6079   21.6734 C   0  0  0  0  0  0  0  0  0  0  0  0
  -25.6679  -30.0803   18.8893 C   0  0  0  0  0  0  0  0  0  0  0  0
  -23.0003  -29.7708   20.7088 C   0  0  0  0  0  0  0  0  0  0  0  0
  -20.8790  -27.7115   22.4135 C   0  0  0  0  0  0  0  0  0  0  0  0
  -30.8885  -14.4882   20.5813 C   0  0  0  0  0  0  0  0  0  0  0  0
  -26.8179  -34.8142   17.3643 C   0  0  0  0  0  0  0  0  0  0  0  0
  -24.4145  -28.2826   17.6430 C   0  0  0  0  0  0  0  0  0  0  0  0
  -24.4992  -27.7475   20.5501 C   0  0  0  0  0  0  0  0  0  0  0  0
  -26.1687  -34.1920   18.5979 C   0  0  0  0  0  0  0  0  0  0  0  0
  -29.4266  -12.4532   18.0519 C   0  0  0  0  0  0  0  0  0  0  0  0
  -27.0132  -33.0333   19.1185 C   0  0  0  0  0  0  0  0  0  0  0  0
  -28.0099  -12.1917   18.5662 C   0  0  0  0  0  0  0  0  0  0  0  0
  -30.4432  -12.4870   19.1910 C   0  0  0  0  0  0  0  0  0  0  0  0
  -28.7008  -13.1604   20.7985 C   0  0  0  0  0  0  0  0  0  0  0  0
  -27.1288  -31.9203   18.0700 C   0  0  1  0  0  0  0  0  0  0  0  0
  -24.3418  -29.4090   18.6694 C   0  0  1  0  0  0  0  0  0  0  0  0
  -27.6321  -13.1730   19.6922 C   0  0  2  0  0  0  0  0  0  0  0  0
  -26.7101  -18.7005   21.6226 C   0  0  0  0  0  0  0  0  0  0  0  0
  -18.8096  -27.7532   23.8324 C   0  0  0  0  0  0  0  0  0  0  0  0
  -24.6408  -30.7999   23.0667 C   0  0  0  0  0  0  0  0  0  0  0  0
  -22.8575  -29.9335   24.5956 C   0  0  0  0  0  0  0  0  0  0  0  0
  -22.3168  -31.7142   22.9345 C   0  0  0  0  0  0  0  0  0  0  0  0
  -19.3853  -26.0313   20.4888 C   0  0  0  0  0  0  0  0  0  0  0  0
  -27.3776  -22.6531   18.6427 C   0  0  0  0  0  0  0  0  0  1  0  0
  -30.9012  -17.7386   21.2285 C   0  0  0  0  0  0  0  0  0  0  0  0
  -31.1830  -16.4792   22.0335 C   0  0  0  0  0  0  0  0  0  0  0  0
  -22.7193  -29.3510   22.1314 C   0  0  1  0  0  0  0  0  0  0  0  0
  -19.3644  -27.6108   22.4236 C   0  0  2  0  0  0  0  0  0  0  0  0
  -23.1466  -30.4323   23.1637 C   0  0  0  0  0  0  0  0  0  0  0  0
  -25.7971  -11.6248   20.2564 N   0  0  0  0  0  0  0  0  0  0  0  0
  -26.2439  -12.8921   20.2370 N   0  0  0  0  0  0  0  0  0  0  0  0
  -23.8727  -28.9511   19.9788 N   0  0  0  0  0  0  0  0  0  0  0  0
  -30.0268  -13.4379   20.2246 N   0  0  0  0  0  0  0  0  0  0  0  0
  -25.6409  -15.1161   20.7854 N   0  0  0  0  0  0  0  0  0  0  0  0
  -22.0057  -12.7233   21.9920 N   0  0  0  0  0  0  0  0  0  0  0  0
  -29.5222  -18.1012   21.3254 N   0  0  0  0  0  0  0  0  0  0  0  0
  -25.9140  -31.1347   18.0307 N   0  0  0  0  0  0  0  0  0  0  0  0
  -21.3035  -29.0028   22.1821 N   0  0  0  0  0  0  0  0  0  0  0  0
  -30.4142  -15.3478   21.5646 N   0  0  0  0  0  0  0  0  0  0  0  0
  -18.9291  -26.2940   21.8780 N   0  3  0  0  0  0  0  0  0  0  0  0
  -22.8922  -14.8353   21.8822 O   0  0  0  0  0  0  0  0  0  0  0  0
  -26.4121  -29.6729   19.7735 O   0  0  0  0  0  0  0  0  0  0  0  0
  -22.4599  -30.7845   20.2594 O   0  0  0  0  0  0  0  0  0  0  0  0
  -21.6123  -26.7423   22.5965 O   0  0  0  0  0  0  0  0  0  0  0  0
  -31.9962  -14.6512   20.0583 O   0  0  0  0  0  0  0  0  0  0  0  0
  -21.3893   -7.2066   21.5214 O   0  0  0  0  0  0  0  0  0  0  0  0
  -26.8308  -23.5506   19.6080 O   0  0  0  0  0  0  0  0  0  1  0  0
  -23.7648   -2.7324   23.6990 F   0  0  0  0  0  0  0  0  0  0  0  0
  -20.4732   -6.1282   23.8964 F   0  0  0  0  0  0  0  0  0  0  0  0
  1  2  1  0  0  0  0
  1  5  2  0  0  0  0
  2  6  2  0  0  0  0
  3 10  2  0  0  0  0
  3 18  1  0  0  0  0
  4 11  1  0  0  0  0
  4 18  2  0  0  0  0
  5 20  1  0  0  0  0
  6 22  1  0  0  0  0
  7 12  2  0  0  0  0
  7 21  1  0  0  0  0
  8  9  2  0  0  0  0
  8 24  1  0  0  0  0
  9 26  1  0  0  0  0
 10 27  1  0  0  0  0
 11 27  2  0  0  0  0
 12 28  1  0  0  0  0
 13 14  2  0  0  0  0
 13 29  1  0  0  0  0
 14 30  1  0  0  0  0
 15 23  1  0  0  0  0
 15 28  2  0  0  0  0
 16 24  2  0  0  0  0
 16 25  1  0  0  0  0
 17 30  2  0  0  0  0
 17 31  1  0  0  0  0
 18 32  1  0  0  0  0
 19 32  1  0  0  0  0
 19 33  2  0  0  0  0
 19 34  1  0  0  0  0
 20 22  2  0  0  0  0
 20 39  1  0  0  0  0
 21 23  2  0  0  0  0
 21 40  1  0  0  0  0
 22 48  1  0  0  0  0
 23 41  1  0  0  0  0
 24 57  1  0  0  0  0
 25 26  2  0  0  0  0
 25 51  1  0  0  0  0
 26 69  1  0  0  0  0
 27 79  1  0  0  0  0
 28 80  1  0  0  0  0
 29 31  2  0  0  0  0
 29 79  1  0  0  0  0
 30 81  1  0  0  0  0
 31 82  1  0  0  0  0
 32 63  2  0  0  0  0
 33 64  1  0  0  0  0
 33 67  1  0  0  0  0
 34 68  1  0  0  0  0
 34 74  2  0  0  0  0
 35 49  1  0  0  0  0
 35 70  1  0  0  0  0
 35 75  2  0  0  0  0
 36 60  1  0  0  0  0
 36 65  1  0  0  0  0
 36 76  2  0  0  0  0
 37 61  1  0  0  0  0
 37 71  1  0  0  0  0
 37 77  2  0  0  0  0
 38 66  1  0  0  0  0
 38 72  1  0  0  0  0
 38 78  2  0  0  0  0
 39 42  1  0  0  0  0
 40 49  1  0  0  0  0
 41 65  1  0  0  0  0
 42 44  1  0  0  0  0
 43 45  1  0  0  0  0
 43 46  1  0  0  0  0
 44 48  1  0  0  0  0
 45 50  1  0  0  0  0
 46 66  1  0  0  0  0
 47 50  1  0  0  0  0
 47 66  1  0  0  0  0
 48 70  1  0  0  0  0
 49 65  1  0  0  0  0
 50 64  1  0  0  0  0
 52 61  1  0  0  0  0
 53 62  1  0  0  0  0
 54 62  1  0  0  0  0
 55 62  1  0  0  0  0
 56 73  1  0  0  0  0
 57 80  1  0  0  0  0
 58 59  1  0  0  0  0
 58 69  1  0  0  0  0
 59 72  1  0  0  0  0
 60 62  1  0  0  0  0
 60 71  1  0  0  0  0
 61 73  1  0  0  0  0
 63 64  1  0  0  0  0
M  CHG  1  73   1
M  ISO  4  38 100  57 101  72 100  80 101
M  END
> <Batch ID>
0131

> <Smiles>
CNC(C)C(=O)NC(C(=O)N1Cc2cc([101O:1][101CH2:1]c3ccc(NCC[100NH:0][100C:0](=O)N4CCCC(n5nc(-c6ccc(Oc7ccc(F)cc7F)cc6)c(C(N)=O)c5N)C4)c(C)c3)ccc2CC1C(=O)NC1CCCc2ccccc21)C(C)(C)C

> <Shape>
0.350

> <Color>
0.205

> <Negative vol penalty>
0.000

$$$$

  -OEChem-04052320503D

 85 94  0     1  0  0  0  0  0999 V2000
  -33.0789  -23.9232   17.2528 C   0  0  0  0  0  0  0  0  0  0  0  0
  -32.3535  -23.6593   18.4102 C   0  0  0  0  0  0  0  0  0  0  0  0
  -31.3127  -18.7628   23.9507 C   0  0  0  0  0  0  0  0  0  0  0  0
  -23.5134   -9.5375   19.9277 C   0  0  0  0  0  0  0  0  0  0  0  0
  -23.9154   -9.8344   22.2915 C   0  0  0  0  0  0  0  0  0  0  0  0
  -33.3399  -25.2412   16.8804 C   0  0  0  0  0  0  0  0  0  0  0  0
  -31.8897  -24.7134   19.1966 C   0  0  0  0  0  0  0  0  0  0  0  0
  -27.0866  -24.0726   20.6676 C   0  0  0  0  0  0  0  0  0  0  0  0
  -30.9921  -17.7339   23.0647 C   0  0  0  0  0  0  0  0  0  0  0  0
  -22.9070   -8.3080   20.1852 C   0  0  0  0  0  0  0  0  0  0  0  0
  -23.3089   -8.6049   22.5490 C   0  0  0  0  0  0  0  0  0  0  0  0
  -26.8562  -23.1925   21.7241 C   0  0  0  0  0  0  0  0  0  0  0  0
  -20.1684   -7.3786   22.7815 C   0  0  0  0  0  0  0  0  0  0  0  0
  -19.2585   -7.3149   23.8368 C   0  0  0  0  0  0  0  0  0  0  0  0
  -27.9490  -20.1334   24.7168 C   0  0  0  0  0  0  0  0  0  0  0  0
  -28.6511  -18.2874   23.2670 C   0  0  0  0  0  0  0  0  0  0  0  0
  -26.6814  -25.0636   23.2366 C   0  0  0  0  0  0  0  0  0  0  0  0
  -29.5978  -21.3996   25.9440 C   0  0  0  0  0  0  0  0  0  0  0  0
  -20.6320   -5.6486   24.9204 C   0  0  0  0  0  0  0  0  0  0  0  0
  -30.3062  -19.5687   24.5073 C   0  0  0  0  0  0  0  0  0  0  0  0
  -28.9555  -19.3275   24.1603 C   0  0  0  0  0  0  0  0  0  0  0  0
  -24.0177  -10.3006   20.9809 C   0  0  0  0  0  0  0  0  0  0  0  0
  -24.0217  -12.8318   20.6632 C   0  0  0  0  0  0  0  0  0  0  0  0
  -32.8708  -26.3121   17.6574 C   0  0  0  0  0  0  0  0  0  0  0  0
  -27.1269  -25.4565   20.8900 C   0  0  0  0  0  0  0  0  0  0  0  0
  -32.1459  -26.0469   18.8350 C   0  0  0  0  0  0  0  0  0  0  0  0
  -26.9099  -25.9592   22.1808 C   0  0  0  0  0  0  0  0  0  0  0  0
  -28.2696  -21.1624   25.6028 C   0  0  0  0  0  0  0  0  0  0  0  0
  -29.6639  -17.4966   22.7235 C   0  0  0  0  0  0  0  0  0  0  0  0
  -22.8047   -7.8417   21.4959 C   0  0  0  0  0  0  0  0  0  0  0  0
  -26.6565  -23.6878   23.0094 C   0  0  0  0  0  0  0  0  0  0  0  0
  -21.3101   -6.5772   22.7956 C   0  0  0  0  0  0  0  0  0  0  0  0
  -30.6105  -20.6087   25.4007 C   0  0  0  0  0  0  0  0  0  0  0  0
  -19.4903   -6.4499   24.9062 C   0  0  0  0  0  0  0  0  0  0  0  0
  -21.5419   -5.7123   23.8650 C   0  0  0  0  0  0  0  0  0  0  0  0
  -24.6447  -11.5705   20.7155 C   0  0  0  0  0  0  0  0  0  0  0  0
  -25.0417  -13.7071   20.3807 C   0  0  0  0  0  0  0  0  0  0  0  0
  -22.6441  -13.1810   20.8531 C   0  0  0  0  0  0  0  0  0  0  0  0
  -29.3332  -27.7195   20.5508 C   0  0  0  0  0  0  0  0  0  0  0  0
  -26.8747  -29.6876   21.3285 C   0  0  0  0  0  0  0  0  0  0  0  0
  -23.8486  -30.0786   22.8571 C   0  0  0  0  0  0  0  0  0  0  0  0
  -30.2238  -15.5741   21.1948 C   0  0  0  0  0  0  0  0  0  0  0  0
  -33.2185  -27.7190   17.2398 C   0  0  0  0  0  0  0  0  0  0  0  0
  -27.3500  -26.3939   19.7350 C   0  0  0  0  0  0  0  0  0  0  0  0
  -26.9232  -27.4375   22.4688 C   0  0  0  0  0  0  0  0  0  0  0  0
  -32.3704  -28.7857   17.9277 C   0  0  0  0  0  0  0  0  0  0  0  0
  -29.8181  -12.8459   18.9433 C   0  0  0  0  0  0  0  0  0  0  0  0
  -32.2807  -28.5124   19.4257 C   0  0  0  0  0  0  0  0  0  0  0  0
  -28.3848  -12.3746   19.1994 C   0  0  0  0  0  0  0  0  0  0  0  0
  -30.5038  -13.3012   20.2303 C   0  0  0  0  0  0  0  0  0  0  0  0
  -28.3311  -13.8339   21.2621 C   0  0  0  0  0  0  0  0  0  0  0  0
  -31.6047  -27.1637   19.7009 C   0  0  1  0  0  0  0  0  0  0  0  0
  -27.8812  -27.7575   20.1661 C   0  0  1  0  0  0  0  0  0  0  0  0
  -27.5776  -13.4264   19.9854 C   0  0  2  0  0  0  0  0  0  0  0  0
  -22.1050  -31.8119   23.3598 C   0  0  0  0  0  0  0  0  0  0  0  0
  -28.6543  -30.8375   23.5241 C   0  0  0  0  0  0  0  0  0  0  0  0
  -26.6074  -31.8367   24.5634 C   0  0  0  0  0  0  0  0  0  0  0  0
  -27.3101  -32.5361   22.2743 C   0  0  0  0  0  0  0  0  0  0  0  0
  -21.7818  -28.6093   21.3312 C   0  0  0  0  0  0  0  0  0  0  0  0
  -32.6154  -21.8108   24.9632 C   0  0  0  0  0  0  0  0  0  0  0  0
  -27.1749  -22.0185   26.1920 C   0  0  0  0  0  0  0  0  0  0  0  0
  -26.8725  -23.2434   25.3357 C   0  0  0  0  0  0  0  0  0  1  0  0
  -26.3126  -30.2384   22.6168 C   0  0  1  0  0  0  0  0  0  0  0  0
  -22.5612  -30.7332   22.3897 C   0  0  2  0  0  0  0  0  0  0  0  0
  -27.2227  -31.3342   23.2399 C   0  0  0  0  0  0  0  0  0  0  0  0
  -25.9587  -11.6344   20.4845 N   0  0  0  0  0  0  0  0  0  0  0  0
  -26.1697  -12.9465   20.2843 N   0  0  0  0  0  0  0  0  0  0  0  0
  -27.1515  -28.3133   21.3076 N   0  0  0  0  0  0  0  0  0  0  0  0
  -29.6837  -14.3002   20.9189 N   0  0  0  0  0  0  0  0  0  0  0  0
  -25.0748  -15.0456   20.2077 N   0  0  0  0  0  0  0  0  0  0  0  0
  -21.7286  -12.1583   21.1365 N   0  0  0  0  0  0  0  0  0  0  0  0
  -29.3405  -16.4511   21.8236 N   0  0  0  0  0  0  0  0  0  0  0  0
  -30.1703  -27.2762   19.5447 N   0  0  0  0  0  0  0  0  0  0  0  0
  -24.9587  -30.6883   22.3119 N   0  0  0  0  0  0  0  0  0  0  0  0
  -21.4768  -29.7177   22.2722 N   0  3  0  0  0  0  0  0  0  0  0  0
  -22.2344  -14.3627   20.7577 O   0  0  0  0  0  0  0  0  0  0  0  0
  -29.6693  -28.0681   21.6765 O   0  0  0  0  0  0  0  0  0  0  0  0
  -27.0547  -30.4474   20.3736 O   0  0  0  0  0  0  0  0  0  0  0  0
  -23.8678  -29.1244   23.6314 O   0  0  0  0  0  0  0  0  0  0  0  0
  -31.3757  -15.8746   20.8710 O   0  0  0  0  0  0  0  0  0  0  0  0
  -22.2128   -6.6422   21.7475 O   0  0  0  0  0  0  0  0  0  0  0  0
  -31.8988  -20.8776   25.7664 O   0  0  0  0  0  0  0  0  0  0  0  0
  -26.4321  -22.8310   24.0425 O   0  0  0  0  0  0  0  0  0  1  0  0
  -18.6173   -6.3900   25.9203 F   0  0  0  0  0  0  0  0  0  0  0  0
  -22.6375   -4.9409   23.8847 F   0  0  0  0  0  0  0  0  0  0  0  0
  1  2  1  0  0  0  0
  1  6  2  0  0  0  0
  2  7  2  0  0  0  0
  3  9  2  0  0  0  0
  3 20  1  0  0  0  0
  4 10  2  0  0  0  0
  4 22  1  0  0  0  0
  5 11  1  0  0  0  0
  5 22  2  0  0  0  0
  6 24  1  0  0  0  0
  7 26  1  0  0  0  0
  8 12  2  0  0  0  0
  8 25  1  0  0  0  0
  9 29  1  0  0  0  0
 10 30  1  0  0  0  0
 11 30  2  0  0  0  0
 12 31  1  0  0  0  0
 13 14  2  0  0  0  0
 13 32  1  0  0  0  0
 14 34  1  0  0  0  0
 15 21  1  0  0  0  0
 15 28  2  0  0  0  0
 16 21  1  0  0  0  0
 16 29  2  0  0  0  0
 17 27  1  0  0  0  0
 17 31  2  0  0  0  0
 18 28  1  0  0  0  0
 18 33  2  0  0  0  0
 19 34  2  0  0  0  0
 19 35  1  0  0  0  0
 20 21  2  0  0  0  0
 20 33  1  0  0  0  0
 22 36  1  0  0  0  0
 23 36  1  0  0  0  0
 23 37  2  0  0  0  0
 23 38  1  0  0  0  0
 24 26  2  0  0  0  0
 24 43  1  0  0  0  0
 25 27  2  0  0  0  0
 25 44  1  0  0  0  0
 26 52  1  0  0  0  0
 27 45  1  0  0  0  0
 28 61  1  0  0  0  0
 29 72  1  0  0  0  0
 30 81  1  0  0  0  0
 31 83  1  0  0  0  0
 32 35  2  0  0  0  0
 32 81  1  0  0  0  0
 33 82  1  0  0  0  0
 34 84  1  0  0  0  0
 35 85  1  0  0  0  0
 36 66  2  0  0  0  0
 37 67  1  0  0  0  0
 37 70  1  0  0  0  0
 38 71  1  0  0  0  0
 38 76  2  0  0  0  0
 39 53  1  0  0  0  0
 39 73  1  0  0  0  0
 39 77  2  0  0  0  0
 40 63  1  0  0  0  0
 40 68  1  0  0  0  0
 40 78  2  0  0  0  0
 41 64  1  0  0  0  0
 41 74  1  0  0  0  0
 41 79  2  0  0  0  0
 42 69  1  0  0  0  0
 42 72  1  0  0  0  0
 42 80  2  0  0  0  0
 43 46  1  0  0  0  0
 44 53  1  0  0  0  0
 45 68  1  0  0  0  0
 46 48  1  0  0  0  0
 47 49  1  0  0  0  0
 47 50  1  0  0  0  0
 48 52  1  0  0  0  0
 49 54  1  0  0  0  0
 50 69  1  0  0  0  0
 51 54  1  0  0  0  0
 51 69  1  0  0  0  0
 52 73  1  0  0  0  0
 53 68  1  0  0  0  0
 54 67  1  0  0  0  0
 55 64  1  0  0  0  0
 56 65  1  0  0  0  0
 57 65  1  0  0  0  0
 58 65  1  0  0  0  0
 59 75  1  0  0  0  0
 60 82  1  0  0  0  0
 61 62  1  0  0  0  0
 62 83  1  0  0  0  0
 63 65  1  0  0  0  0
 63 74  1  0  0  0  0
 64 75  1  0  0  0  0
 66 67  1  0  0  0  0
M  CHG  1  75   1
M  ISO  4  42 100  62 101  72 100  83 101
M  END
> <Batch ID>
0131

> <Smiles>
CNC(C)C(=O)NC(C(=O)N1Cc2cc([101O:1][101CH2:1]Cc3cc(OC)c4ccc([100NH:0][100C:0](=O)N5CCCC(n6nc(-c7ccc(Oc8ccc(F)cc8F)cc7)c(C(N)=O)c6N)C5)cc4c3)ccc2CC1C(=O)NC1CCCc2ccccc21)C(C)(C)C

> <Shape>
0.292

> <Color>
0.182

> <Negative vol penalty>
0.000

$$$$

  -OEChem-04052320503D

 84 93  0     1  0  0  0  0  0999 V2000
  -18.5529  -21.4546   22.4275 C   0  0  0  0  0  0  0  0  0  0  0  0
  -19.8125  -21.1061   22.9042 C   0  0  0  0  0  0  0  0  0  0  0  0
  -23.2233   -9.6950   20.5132 C   0  0  0  0  0  0  0  0  0  0  0  0
  -23.8440  -10.2483   22.7817 C   0  0  0  0  0  0  0  0  0  0  0  0
  -18.4011  -22.5828   21.6224 C   0  0  0  0  0  0  0  0  0  0  0  0
  -20.9214  -21.8849   22.5752 C   0  0  0  0  0  0  0  0  0  0  0  0
  -25.7923  -23.0325   26.1055 C   0  0  0  0  0  0  0  0  0  0  0  0
  -29.6962  -19.6850   21.9750 C   0  0  0  0  0  0  0  0  0  0  0  0
  -22.5259   -8.5793   20.9761 C   0  0  0  0  0  0  0  0  0  0  0  0
  -23.1465   -9.1325   23.2446 C   0  0  0  0  0  0  0  0  0  0  0  0
  -27.0668  -22.4697   26.1571 C   0  0  0  0  0  0  0  0  0  0  0  0
  -19.9333   -8.2830   23.8562 C   0  0  0  0  0  0  0  0  0  0  0  0
  -19.1110   -8.4510   24.9703 C   0  0  0  0  0  0  0  0  0  0  0  0
  -29.3122  -18.3593   21.8057 C   0  0  0  0  0  0  0  0  0  0  0  0
  -27.8994  -24.2410   24.7468 C   0  0  0  0  0  0  0  0  0  0  0  0
  -20.4039   -6.8021   26.1732 C   0  0  0  0  0  0  0  0  0  0  0  0
  -31.7890  -19.1516   20.9789 C   0  0  0  0  0  0  0  0  0  0  0  0
  -23.8824  -10.5295   21.4160 C   0  0  0  0  0  0  0  0  0  0  0  0
  -24.1010  -12.9846   20.7583 C   0  0  0  0  0  0  0  0  0  0  0  0
  -19.5072  -23.3813   21.2913 C   0  0  0  0  0  0  0  0  0  0  0  0
  -25.5590  -24.1997   25.3640 C   0  0  0  0  0  0  0  0  0  0  0  0
  -20.7845  -23.0241   21.7639 C   0  0  0  0  0  0  0  0  0  0  0  0
  -26.6215  -24.8180   24.6895 C   0  0  0  0  0  0  0  0  0  0  0  0
  -30.9565  -20.0967   21.5564 C   0  0  0  0  0  0  0  0  0  0  0  0
  -22.4874   -8.2980   22.3418 C   0  0  0  0  0  0  0  0  0  0  0  0
  -28.1200  -23.0723   25.4753 C   0  0  0  0  0  0  0  0  0  0  0  0
  -20.9909   -7.3745   23.9005 C   0  0  0  0  0  0  0  0  0  0  0  0
  -19.3463   -7.7106   26.1288 C   0  0  0  0  0  0  0  0  0  0  0  0
  -21.2262   -6.6341   25.0590 C   0  0  0  0  0  0  0  0  0  0  0  0
  -24.6035  -11.6819   20.9384 C   0  0  0  0  0  0  0  0  0  0  0  0
  -30.2182  -17.4920   21.2169 C   0  0  0  0  0  0  0  0  0  0  0  0
  -25.1731  -13.7044   20.2903 C   0  0  0  0  0  0  0  0  0  0  0  0
  -22.7831  -13.4980   20.9932 C   0  0  0  0  0  0  0  0  0  0  0  0
  -23.7458  -24.9423   22.8612 C   0  0  0  0  0  0  0  0  0  0  0  0
  -24.7783  -27.9505   23.4988 C   0  0  0  0  0  0  0  0  0  0  0  0
  -27.1543  -29.9630   24.8957 C   0  0  0  0  0  0  0  0  0  0  0  0
  -30.5584  -15.1053   20.4861 C   0  0  0  0  0  0  0  0  0  0  0  0
  -19.3012  -24.5647   20.3792 C   0  0  0  0  0  0  0  0  0  0  0  0
  -24.1841  -24.8090   25.3403 C   0  0  0  0  0  0  0  0  0  0  0  0
  -26.4279  -26.0833   23.8959 C   0  0  0  0  0  0  0  0  0  0  0  0
  -20.4682  -25.5487   20.3850 C   0  0  0  0  0  0  0  0  0  0  0  0
  -29.7121  -12.1690   18.6588 C   0  0  0  0  0  0  0  0  0  0  0  0
  -21.7943  -24.8048   20.2622 C   0  0  0  0  0  0  0  0  0  0  0  0
  -28.2662  -11.8877   19.0741 C   0  0  0  0  0  0  0  0  0  0  0  0
  -32.9951  -22.9952   23.1486 C   0  0  0  0  0  0  0  0  0  0  0  0
  -30.5411  -12.7108   19.8219 C   0  0  0  0  0  0  0  0  0  0  0  0
  -28.5207  -13.5966   20.9186 C   0  0  0  0  0  0  0  0  0  0  0  0
  -34.1629  -22.0610   22.8198 C   0  0  0  0  0  0  0  0  0  0  0  0
  -22.0076  -23.8578   21.4493 C   0  0  1  0  0  0  0  0  0  0  0  0
  -23.9522  -25.7137   24.1340 C   0  0  1  0  0  0  0  0  0  0  0  0
  -27.6299  -13.1105   19.7637 C   0  0  2  0  0  0  0  0  0  0  0  0
  -32.0949  -21.7435   23.0660 C   0  0  2  0  0  0  0  0  0  0  0  0
  -27.7433  -32.3801   25.2242 C   0  0  0  0  0  0  0  0  0  0  0  0
  -25.6773  -28.1245   20.5883 C   0  0  0  0  0  0  0  0  0  0  0  0
  -27.0702  -30.1098   21.2099 C   0  0  0  0  0  0  0  0  0  0  0  0
  -24.5909  -30.1972   21.4702 C   0  0  0  0  0  0  0  0  0  0  0  0
  -27.0461  -29.7089   27.8424 C   0  0  0  0  0  0  0  0  0  0  0  0
  -31.4004  -21.5242   21.7251 C   0  0  0  0  0  0  0  0  0  0  0  0
  -31.1584  -21.5429   24.2493 C   0  0  0  0  0  0  0  0  0  0  0  0
  -30.2053  -22.7214   24.3871 C   0  0  0  0  0  0  0  0  0  1  0  0
  -25.9559  -28.7907   23.0671 C   0  0  1  0  0  0  0  0  0  0  0  0
  -27.0419  -31.1665   25.8140 C   0  0  2  0  0  0  0  0  0  0  0  0
  -25.8272  -29.2807   21.5971 C   0  0  0  0  0  0  0  0  0  0  0  0
  -31.4511  -17.8552   20.7978 N   0  0  0  0  0  0  0  0  0  0  0  0
  -25.8942  -11.5773   20.6112 N   0  0  0  0  0  0  0  0  0  0  0  0
  -26.2119  -12.8234   20.2209 N   0  0  0  0  0  0  0  0  0  0  0  0
  -25.0638  -26.6372   23.8981 N   0  0  0  0  0  0  0  0  0  0  0  0
  -29.8788  -13.8704   20.4233 N   0  0  0  0  0  0  0  0  0  0  0  0
  -25.3190  -14.9987   19.9355 N   0  0  0  0  0  0  0  0  0  0  0  0
  -21.8008  -12.6220   21.4748 N   0  0  0  0  0  0  0  0  0  0  0  0
  -29.8170  -16.1434   21.0492 N   0  0  0  0  0  0  0  0  0  0  0  0
  -22.4294  -24.5996   22.6181 N   0  0  0  0  0  0  0  0  0  0  0  0
  -26.0719  -29.8651   24.0471 N   0  0  0  0  0  0  0  0  0  0  0  0
  -33.3179  -20.9139   23.1928 N   0  3  0  0  0  0  0  0  0  0  0  0
  -27.6555  -30.8666   27.1386 N   0  3  0  0  0  0  0  0  0  0  0  0
  -22.4812  -14.6943   20.7667 O   0  0  0  0  0  0  0  0  0  0  0  0
  -24.7093  -24.6788   22.1513 O   0  0  0  0  0  0  0  0  0  0  0  0
  -23.6477  -28.4437   23.4892 O   0  0  0  0  0  0  0  0  0  0  0  0
  -28.1088  -29.1893   24.9255 O   0  0  0  0  0  0  0  0  0  0  0  0
  -31.7033  -15.2391   20.0463 O   0  0  0  0  0  0  0  0  0  0  0  0
  -21.8068   -7.2095   22.7939 O   0  0  0  0  0  0  0  0  0  0  0  0
  -29.3649  -22.5248   25.5235 O   0  0  0  0  0  0  0  0  0  1  0  0
  -18.5576   -7.8731   27.1991 F   0  0  0  0  0  0  0  0  0  0  0  0
  -22.2414   -5.7607   25.1080 F   0  0  0  0  0  0  0  0  0  0  0  0
  1  2  1  0  0  0  0
  1  5  2  0  0  0  0
  2  6  2  0  0  0  0
  3  9  2  0  0  0  0
  3 18  1  0  0  0  0
  4 10  1  0  0  0  0
  4 18  2  0  0  0  0
  5 20  1  0  0  0  0
  6 22  1  0  0  0  0
  7 11  2  0  0  0  0
  7 21  1  0  0  0  0
  8 14  2  0  0  0  0
  8 24  1  0  0  0  0
  9 25  1  0  0  0  0
 10 25  2  0  0  0  0
 11 26  1  0  0  0  0
 12 13  2  0  0  0  0
 12 27  1  0  0  0  0
 13 28  1  0  0  0  0
 14 31  1  0  0  0  0
 15 23  1  0  0  0  0
 15 26  2  0  0  0  0
 16 28  2  0  0  0  0
 16 29  1  0  0  0  0
 17 24  2  0  0  0  0
 17 64  1  0  0  0  0
 18 30  1  0  0  0  0
 19 30  1  0  0  0  0
 19 32  2  0  0  0  0
 19 33  1  0  0  0  0
 20 22  2  0  0  0  0
 20 38  1  0  0  0  0
 21 23  2  0  0  0  0
 21 39  1  0  0  0  0
 22 49  1  0  0  0  0
 23 40  1  0  0  0  0
 24 58  1  0  0  0  0
 25 81  1  0  0  0  0
 26 82  1  0  0  0  0
 27 29  2  0  0  0  0
 27 81  1  0  0  0  0
 28 83  1  0  0  0  0
 29 84  1  0  0  0  0
 30 65  2  0  0  0  0
 31 64  2  0  0  0  0
 31 71  1  0  0  0  0
 32 66  1  0  0  0  0
 32 69  1  0  0  0  0
 33 70  1  0  0  0  0
 33 76  2  0  0  0  0
 34 50  1  0  0  0  0
 34 72  1  0  0  0  0
 34 77  2  0  0  0  0
 35 61  1  0  0  0  0
 35 67  1  0  0  0  0
 35 78  2  0  0  0  0
 36 62  1  0  0  0  0
 36 73  1  0  0  0  0
 36 79  2  0  0  0  0
 37 68  1  0  0  0  0
 37 71  1  0  0  0  0
 37 80  2  0  0  0  0
 38 41  1  0  0  0  0
 39 50  1  0  0  0  0
 40 67  1  0  0  0  0
 41 43  1  0  0  0  0
 42 44  1  0  0  0  0
 42 46  1  0  0  0  0
 43 49  1  0  0  0  0
 44 51  1  0  0  0  0
 45 48  1  0  0  0  0
 45 52  1  0  0  0  0
 46 68  1  0  0  0  0
 47 51  1  0  0  0  0
 47 68  1  0  0  0  0
 48 74  1  0  0  0  0
 49 72  1  0  0  0  0
 50 67  1  0  0  0  0
 51 66  1  0  0  0  0
 52 58  1  0  0  0  0
 52 59  1  0  0  0  0
 52 74  1  0  0  0  0
 53 62  1  0  0  0  0
 54 63  1  0  0  0  0
 55 63  1  0  0  0  0
 56 63  1  0  0  0  0
 57 75  1  0  0  0  0
 59 60  1  0  0  0  0
 60 82  1  0  0  0  0
 61 63  1  0  0  0  0
 61 73  1  0  0  0  0
 62 75  1  0  0  0  0
 65 66  1  0  0  0  0
M  CHG  2  74   1  75   1
M  ISO  4  37 100  60 101  71 100  82 101
M  END
> <Batch ID>
0131

> <Smiles>
CNC(C)C(=O)NC(C(=O)N1Cc2cc([101O:1][101CH2:1]CC3(Cc4ccc([100NH:0][100C:0](=O)N5CCCC(n6nc(-c7ccc(Oc8ccc(F)cc8F)cc7)c(C(N)=O)c6N)C5)nc4)CCN3)ccc2CC1C(=O)NC1CCCc2ccccc21)C(C)(C)C

> <Shape>
0.233

> <Color>
0.172

> <Negative vol penalty>
0.000

$$$$

  -OEChem-04052320503D

 98109  0     1  0  0  0  0  0999 V2000
  -27.3840  -33.2188   27.1873 C   0  0  0  0  0  0  0  0  0  0  0  0
  -27.6514  -32.1166   26.3816 C   0  0  0  0  0  0  0  0  0  0  0  0
  -24.6857  -13.4544   23.4879 C   0  0  0  0  0  0  0  0  0  0  0  0
  -22.7708  -13.7476   22.0443 C   0  0  0  0  0  0  0  0  0  0  0  0
  -26.0649  -33.5979   27.4326 C   0  0  0  0  0  0  0  0  0  0  0  0
  -26.5997  -31.3921   25.8217 C   0  0  0  0  0  0  0  0  0  0  0  0
  -27.3814  -30.2903   20.9412 C   0  0  0  0  0  0  0  0  0  0  0  0
  -23.8403  -13.3846   24.5952 C   0  0  0  0  0  0  0  0  0  0  0  0
  -21.9254  -13.6778   23.1515 C   0  0  0  0  0  0  0  0  0  0  0  0
  -28.2490  -29.2364   20.6574 C   0  0  0  0  0  0  0  0  0  0  0  0
  -19.2383  -13.2157   25.5565 C   0  0  0  0  0  0  0  0  0  0  0  0
  -18.0943  -12.4247   25.4510 C   0  0  0  0  0  0  0  0  0  0  0  0
  -26.3570  -27.7831   20.3002 C   0  0  0  0  0  0  0  0  0  0  0  0
  -19.4736  -10.4852   25.0353 C   0  0  0  0  0  0  0  0  0  0  0  0
  -24.1510  -13.6360   22.2125 C   0  0  0  0  0  0  0  0  0  0  0  0
  -25.4647  -12.6393   20.2661 C   0  0  0  0  0  0  0  0  0  0  0  0
  -24.9967  -32.8834   26.8676 C   0  0  0  0  0  0  0  0  0  0  0  0
  -25.9929  -30.0953   20.9172 C   0  0  0  0  0  0  0  0  0  0  0  0
  -25.2651  -31.7612   26.0608 C   0  0  0  0  0  0  0  0  0  0  0  0
  -25.4740  -28.8367   20.5815 C   0  0  0  0  0  0  0  0  0  0  0  0
  -22.4601  -13.4963   24.4270 C   0  0  0  0  0  0  0  0  0  0  0  0
  -27.7369  -27.9819   20.3396 C   0  0  0  0  0  0  0  0  0  0  0  0
  -20.5000  -12.6415   25.4014 C   0  0  0  0  0  0  0  0  0  0  0  0
  -18.2119  -11.0595   25.1905 C   0  0  0  0  0  0  0  0  0  0  0  0
  -20.6176  -11.2762   25.1408 C   0  0  0  0  0  0  0  0  0  0  0  0
  -25.0238  -13.7087   21.0684 C   0  0  0  0  0  0  0  0  0  0  0  0
  -26.2673  -13.2281   19.3197 C   0  0  0  0  0  0  0  0  0  0  0  0
  -25.1746  -11.2388   20.3672 C   0  0  0  0  0  0  0  0  0  0  0  0
  -23.6605  -30.3085   23.0661 C   0  0  0  0  0  0  0  0  0  0  0  0
  -33.3763  -19.0367   21.9902 C   0  0  0  0  0  0  0  0  0  0  0  0
  -21.7659  -29.7694   20.4889 C   0  0  0  0  0  0  0  0  0  0  0  0
  -20.3753  -28.8913   17.4986 C   0  0  0  0  0  0  0  0  0  0  0  0
  -29.1148  -18.6548   19.6425 C   0  0  0  0  0  0  0  0  0  0  0  0
  -23.5866  -33.3027   27.1998 C   0  0  0  0  0  0  0  0  0  0  0  0
  -25.0702  -31.2491   21.1996 C   0  0  0  0  0  0  0  0  0  0  0  0
  -23.9910  -28.5806   20.5223 C   0  0  0  0  0  0  0  0  0  0  0  0
  -22.5376  -32.7068   26.2644 C   0  0  0  0  0  0  0  0  0  0  0  0
  -30.5959  -18.7752   25.1098 C   0  0  0  0  0  0  0  0  0  0  0  0
  -29.3469  -19.6472   25.1885 C   0  0  0  0  0  0  0  0  0  0  0  0
  -26.9052  -17.3361   16.9659 C   0  0  0  0  0  0  0  0  0  0  0  0
  -22.7857  -31.2150   26.0653 C   0  0  0  0  0  0  0  0  0  0  0  0
  -31.2767  -18.8688   23.7460 C   0  0  0  0  0  0  0  0  0  0  0  0
  -28.8235  -23.2083   20.3811 C   0  0  0  0  0  0  0  0  0  0  0  0
  -27.4641  -24.1324   22.3031 C   0  0  0  0  0  0  0  0  0  0  0  0
  -26.1573  -16.2144   17.6846 C   0  0  0  0  0  0  0  0  0  0  0  0
  -28.3713  -19.3386   24.0535 C   0  0  0  0  0  0  0  0  0  0  0  0
  -29.1955  -24.6286   19.9663 C   0  0  0  0  0  0  0  0  0  0  0  0
  -27.8394  -25.5503   21.8825 C   0  0  0  0  0  0  0  0  0  0  0  0
  -35.2189  -19.3245   24.7518 C   0  0  0  0  0  0  0  0  0  0  0  0
  -27.3529  -18.4277   17.9325 C   0  0  0  0  0  0  0  0  0  0  0  0
  -30.6941  -16.6681   19.7440 C   0  0  0  0  0  0  0  0  0  0  0  0
  -27.4176  -16.8010   19.7940 C   0  0  0  0  0  0  0  0  0  0  0  0
  -35.6723  -17.9968   25.3315 C   0  0  0  0  0  0  0  0  0  0  0  0
  -32.1355  -16.7322   19.2477 C   0  0  0  0  0  0  0  0  0  0  0  0
  -36.8388  -18.4671   23.2353 C   0  0  0  0  0  0  0  0  0  0  0  0
  -24.1518  -30.9648   25.4153 C   0  0  1  0  0  0  0  0  0  0  0  0
  -23.6809  -30.8070   21.6488 C   0  0  1  0  0  0  0  0  0  0  0  0
  -32.4346  -18.0689   21.3466 C   0  0  1  0  0  0  0  0  0  0  0  0
  -30.3020  -18.5505   22.6007 C   0  0  2  0  0  0  0  0  0  0  0  0
  -28.5363  -23.1162   21.8862 C   0  0  0  0  0  0  0  0  0  0  0  0
  -26.9894  -15.6631   18.8554 C   0  0  1  0  0  0  0  0  0  0  0  0
  -31.0128  -18.6430   21.2490 C   0  0  2  0  0  0  0  0  0  0  0  0
  -35.5036  -19.1912   23.2636 C   0  0  1  0  0  0  0  0  0  0  0  0
  -29.0228  -19.4073   22.6693 C   0  0  2  0  0  0  0  0  0  0  0  0
  -28.1288  -25.6366   20.3854 C   0  0  0  0  0  0  0  0  0  1  0  0
  -18.1634  -28.3806   16.4290 C   0  0  0  0  0  0  0  0  0  0  0  0
  -21.7543  -27.0275   21.8276 C   0  0  0  0  0  0  0  0  0  0  0  0
  -20.1518  -26.2520   20.0673 C   0  0  0  0  0  0  0  0  0  0  0  0
  -19.5026  -28.0954   21.6175 C   0  0  0  0  0  0  0  0  0  0  0  0
  -20.6467  -31.1392   15.5928 C   0  0  0  0  0  0  0  0  0  0  0  0
  -28.1138  -21.6989   22.2687 C   0  0  0  0  0  0  0  0  0  0  0  0
  -21.2111  -28.5415   19.8081 C   0  0  1  0  0  0  0  0  0  0  0  0
  -19.1935  -29.4575   16.7323 C   0  0  2  0  0  0  0  0  0  0  0  0
  -20.6802  -27.4900   20.8229 C   0  0  0  0  0  0  0  0  0  0  0  0
  -25.5065  -14.8876   20.6668 N   0  0  0  0  0  0  0  0  0  0  0  0
  -26.2590  -14.5624   19.6019 N   0  0  0  0  0  0  0  0  0  0  0  0
  -23.1298  -29.7388   20.8125 N   0  0  0  0  0  0  0  0  0  0  0  0
  -28.1040  -17.8739   19.0588 N   0  0  0  0  0  0  0  0  0  0  0  0
  -30.2017  -17.9690   20.2129 N   0  0  0  0  0  0  0  0  0  0  0  0
  -26.9723  -12.7294   18.2821 N   0  0  0  0  0  0  0  0  0  0  0  0
  -24.3312  -10.8040   21.3987 N   0  0  0  0  0  0  0  0  0  0  0  0
  -24.0930  -31.2358   23.9949 N   0  0  0  0  0  0  0  0  0  0  0  0
  -34.4716  -18.4430   22.5879 N   0  0  0  0  0  0  0  0  0  0  0  0
  -20.2083  -29.0177   18.8614 N   0  0  0  0  0  0  0  0  0  0  0  0
  -36.7968  -17.5626   24.4363 N   0  3  0  0  0  0  0  0  0  0  0  0
  -32.9120  -17.7924   19.9564 N   0  3  0  0  0  0  0  0  0  0  0  0
  -29.3184  -20.8347   22.3500 N   0  3  0  0  0  0  0  0  0  0  0  0
  -19.6481  -30.0496   15.4425 N   0  3  0  0  0  0  0  0  0  0  0  0
  -25.6622  -10.3959   19.5764 O   0  0  0  0  0  0  0  0  0  0  0  0
  -23.2791  -29.1677   23.2999 O   0  0  0  0  0  0  0  0  0  0  0  0
  -33.1313  -20.2367   21.9484 O   0  0  0  0  0  0  0  0  0  0  0  0
  -21.0183  -30.7234   20.7185 O   0  0  0  0  0  0  0  0  0  0  0  0
  -21.3476  -28.3840   16.9438 O   0  0  0  0  0  0  0  0  0  0  0  0
  -29.0489  -19.8904   19.6501 O   0  0  0  0  0  0  0  0  0  0  0  0
  -21.6348  -13.4280   25.5072 O   0  0  0  0  0  0  0  0  0  0  0  0
  -28.5870  -26.9446   20.0611 O   0  0  0  0  0  0  0  0  0  1  0  0
  -17.1133  -10.2997   25.0907 F   0  0  0  0  0  0  0  0  0  0  0  0
  -21.8271  -10.7187   24.9920 F   0  0  0  0  0  0  0  0  0  0  0  0
  1  2  1  0  0  0  0
  1  5  2  0  0  0  0
  2  6  2  0  0  0  0
  3  8  2  0  0  0  0
  3 15  1  0  0  0  0
  4  9  1  0  0  0  0
  4 15  2  0  0  0  0
  5 17  1  0  0  0  0
  6 19  1  0  0  0  0
  7 10  2  0  0  0  0
  7 18  1  0  0  0  0
  8 21  1  0  0  0  0
  9 21  2  0  0  0  0
 10 22  1  0  0  0  0
 11 12  2  0  0  0  0
 11 23  1  0  0  0  0
 12 24  1  0  0  0  0
 13 20  1  0  0  0  0
 13 22  2  0  0  0  0
 14 24  2  0  0  0  0
 14 25  1  0  0  0  0
 15 26  1  0  0  0  0
 16 26  1  0  0  0  0
 16 27  2  0  0  0  0
 16 28  1  0  0  0  0
 17 19  2  0  0  0  0
 17 34  1  0  0  0  0
 18 20  2  0  0  0  0
 18 35  1  0  0  0  0
 19 56  1  0  0  0  0
 20 36  1  0  0  0  0
 21 95  1  0  0  0  0
 22 96  1  0  0  0  0
 23 25  2  0  0  0  0
 23 95  1  0  0  0  0
 24 97  1  0  0  0  0
 25 98  1  0  0  0  0
 26 75  2  0  0  0  0
 27 76  1  0  0  0  0
 27 80  1  0  0  0  0
 28 81  1  0  0  0  0
 28 89  2  0  0  0  0
 29 57  1  0  0  0  0
 29 82  1  0  0  0  0
 29 90  2  0  0  0  0
 30 58  1  0  0  0  0
 30 83  1  0  0  0  0
 30 91  2  0  0  0  0
 31 72  1  0  0  0  0
 31 77  1  0  0  0  0
 31 92  2  0  0  0  0
 32 73  1  0  0  0  0
 32 84  1  0  0  0  0
 32 93  2  0  0  0  0
 33 78  1  0  0  0  0
 33 79  1  0  0  0  0
 33 94  2  0  0  0  0
 34 37  1  0  0  0  0
 35 57  1  0  0  0  0
 36 77  1  0  0  0  0
 37 41  1  0  0  0  0
 38 39  1  0  0  0  0
 38 42  1  0  0  0  0
 39 46  1  0  0  0  0
 40 45  1  0  0  0  0
 40 50  1  0  0  0  0
 41 56  1  0  0  0  0
 42 59  1  0  0  0  0
 43 47  1  0  0  0  0
 43 60  1  0  0  0  0
 44 48  1  0  0  0  0
 44 60  1  0  0  0  0
 45 61  1  0  0  0  0
 46 64  1  0  0  0  0
 47 65  1  0  0  0  0
 48 65  1  0  0  0  0
 49 53  1  0  0  0  0
 49 63  1  0  0  0  0
 50 78  1  0  0  0  0
 51 54  1  0  0  0  0
 51 79  1  0  0  0  0
 52 61  1  0  0  0  0
 52 78  1  0  0  0  0
 53 85  1  0  0  0  0
 54 86  1  0  0  0  0
 55 63  1  0  0  0  0
 55 85  1  0  0  0  0
 56 82  1  0  0  0  0
 57 77  1  0  0  0  0
 58 62  1  0  0  0  0
 58 86  1  0  0  0  0
 59 62  1  0  0  0  0
 59 64  1  0  0  0  0
 60 71  1  0  0  0  0
 61 76  1  0  0  0  0
 62 79  1  0  0  0  0
 63 83  1  0  0  0  0
 64 87  1  0  0  0  0
 65 96  1  0  0  0  0
 66 73  1  0  0  0  0
 67 74  1  0  0  0  0
 68 74  1  0  0  0  0
 69 74  1  0  0  0  0
 70 88  1  0  0  0  0
 71 87  1  0  0  0  0
 72 74  1  0  0  0  0
 72 84  1  0  0  0  0
 73 88  1  0  0  0  0
 75 76  1  0  0  0  0
M  CHG  4  85   1  86   1  87   1  88   1
M  ISO  4  33 100  65 101  79 100  96 101
M  END
> <Batch ID>
0131

> <Smiles>
CNC(C)C(=O)NC(C(=O)N1Cc2cc([101O:1][101CH:1]3CCC(CNC4CCCCC4C4C(C(=O)NC5CCNC5)NCC[100N:0]4[100C:0](=O)N4CCCC(n5nc(-c6ccc(Oc7ccc(F)cc7F)cc6)c(C(N)=O)c5N)C4)CC3)ccc2CC1C(=O)NC1CCCc2ccccc21)C(C)(C)C

> <Shape>
0.243

> <Color>
0.078

> <Negative vol penalty>
0.000

$$$$

  -OEChem-04052320503D

 87 96  0     1  0  0  0  0  0999 V2000
  -29.7924  -12.7034   20.1694 C   0  0  0  0  0  0  0  0  0  0  0  0
  -29.7077  -14.0865   20.0461 C   0  0  0  0  0  0  0  0  0  0  0  0
  -22.8439  -28.2234   22.2525 C   0  0  0  0  0  0  0  0  0  0  0  0
  -23.3408  -30.3548   21.2291 C   0  0  0  0  0  0  0  0  0  0  0  0
  -28.6580  -11.9166   19.9747 C   0  0  0  0  0  0  0  0  0  0  0  0
  -28.4887  -14.6836   19.7270 C   0  0  0  0  0  0  0  0  0  0  0  0
  -27.5107  -18.7502   22.5820 C   0  0  0  0  0  0  0  0  0  0  0  0
  -21.7675  -28.7986   22.9278 C   0  0  0  0  0  0  0  0  0  0  0  0
  -22.2643  -30.9300   21.9043 C   0  0  0  0  0  0  0  0  0  0  0  0
  -28.1688  -19.9338   22.2509 C   0  0  0  0  0  0  0  0  0  0  0  0
  -18.5880  -29.7113   22.2272 C   0  0  0  0  0  0  0  0  0  0  0  0
  -17.3820  -29.0106   22.2405 C   0  0  0  0  0  0  0  0  0  0  0  0
  -26.1867  -20.7118   21.1173 C   0  0  0  0  0  0  0  0  0  0  0  0
  -30.4728  -24.7853   17.7628 C   0  0  0  0  0  0  0  0  0  0  0  0
  -17.4604  -28.9214   24.6536 C   0  0  0  0  0  0  0  0  0  0  0  0
  -23.6306  -29.0015   21.4032 C   0  0  0  0  0  0  0  0  0  0  0  0
  -24.7245  -27.8025   19.4350 C   0  0  0  0  0  0  0  0  0  0  0  0
  -27.4223  -12.5050   19.6624 C   0  0  0  0  0  0  0  0  0  0  0  0
  -26.1869  -18.5335   22.1732 C   0  0  0  0  0  0  0  0  0  0  0  0
  -27.3369  -13.9038   19.5266 C   0  0  0  0  0  0  0  0  0  0  0  0
  -25.5132  -19.5256   21.4467 C   0  0  0  0  0  0  0  0  0  0  0  0
  -21.4776  -30.1518   22.7537 C   0  0  0  0  0  0  0  0  0  0  0  0
  -27.5078  -20.9136   21.5160 C   0  0  0  0  0  0  0  0  0  0  0  0
  -19.2303  -30.0170   23.4271 C   0  0  0  0  0  0  0  0  0  0  0  0
  -29.5902  -23.6772   17.7489 C   0  0  0  0  0  0  0  0  0  0  0  0
  -16.8182  -28.6157   23.4537 C   0  0  0  0  0  0  0  0  0  0  0  0
  -18.6665  -29.6221   24.6403 C   0  0  0  0  0  0  0  0  0  0  0  0
  -24.7431  -28.4081   20.7058 C   0  0  0  0  0  0  0  0  0  0  0  0
  -29.0377  -23.6071   16.4890 C   0  0  0  0  0  0  0  0  0  0  0  0
  -30.4326  -25.3588   16.5110 C   0  0  0  0  0  0  0  0  0  0  0  0
  -26.0215  -27.4012   19.2269 C   0  0  0  0  0  0  0  0  0  0  0  0
  -23.6325  -27.6192   18.5242 C   0  0  0  0  0  0  0  0  0  0  0  0
  -24.7339  -16.4060   20.3114 C   0  0  0  0  0  0  0  0  0  0  0  0
  -22.0523  -17.8998   21.3601 C   0  0  0  0  0  0  0  0  0  0  0  0
  -20.6206  -20.7182   22.6461 C   0  0  0  0  0  0  0  0  0  0  0  0
  -31.5117  -28.3813   19.4328 C   0  0  0  0  0  0  0  0  0  0  0  0
  -26.2340  -11.6099   19.4145 C   0  0  0  0  0  0  0  0  0  0  0  0
  -25.4822  -17.2626   22.5614 C   0  0  0  0  0  0  0  0  0  0  0  0
  -24.0851  -19.3504   21.0013 C   0  0  0  0  0  0  0  0  0  0  0  0
  -24.8982  -12.3479   19.4475 C   0  0  0  0  0  0  0  0  0  0  0  0
  -29.9522  -27.1897   22.4035 C   0  0  0  0  0  0  0  0  0  0  0  0
  -24.9776  -13.6326   18.6290 C   0  0  0  0  0  0  0  0  0  0  0  0
  -26.7096  -23.0423   15.4248 C   0  0  0  0  0  0  0  0  0  0  0  0
  -26.7299  -22.3962   16.7748 C   0  0  0  0  0  0  0  0  0  0  0  0
  -28.4576  -27.3563   22.1241 C   0  0  0  0  0  0  0  0  0  0  0  0
  -30.7702  -28.3270   21.7958 C   0  0  0  0  0  0  0  0  0  0  0  0
  -29.0484  -28.7194   20.0767 C   0  0  0  0  0  0  0  0  0  0  0  0
  -26.0270  -14.5903   19.2059 C   0  0  1  0  0  0  0  0  0  0  0  0
  -28.0239  -22.5661   16.0068 C   0  0  0  0  0  0  0  0  0  0  0  0
  -24.3032  -16.9314   21.6516 C   0  0  1  0  0  0  0  0  0  0  0  0
  -28.1879  -27.5668   20.6220 C   0  0  2  0  0  0  0  0  0  0  0  0
  -18.4035  -21.6506   23.3621 C   0  0  0  0  0  0  0  0  0  0  0  0
  -31.6911  -29.3772   15.8819 C   0  0  0  0  0  0  0  0  0  0  0  0
  -21.2687  -18.2759   18.4353 C   0  0  0  0  0  0  0  0  0  0  0  0
  -19.6027  -19.9922   19.1748 C   0  0  0  0  0  0  0  0  0  0  0  0
  -19.3830  -17.6300   19.9457 C   0  0  0  0  0  0  0  0  0  0  0  0
  -29.2193  -24.9007   14.3626 C   0  0  0  0  0  0  0  0  0  0  0  0
  -21.5529  -21.1104   25.4275 C   0  0  0  0  0  0  0  0  0  0  0  0
  -32.3088  -27.0028   16.5643 C   0  0  0  0  0  0  0  0  0  0  0  0
  -29.5627  -22.0014   21.0158 C   0  0  0  0  0  0  0  0  0  1  0  0
  -29.9882  -23.0521   20.0086 C   0  0  0  0  0  0  0  0  0  0  0  0
  -21.2300  -19.0753   20.8900 C   0  0  1  0  0  0  0  0  0  0  0  0
  -19.6625  -20.9220   23.8059 C   0  0  2  0  0  0  0  0  0  0  0  0
  -32.0974  -28.4486   17.0221 C   0  0  2  0  0  0  0  0  0  0  0  0
  -20.3987  -18.7461   19.6180 C   0  0  0  0  0  0  0  0  0  0  0  0
  -25.9557  -28.3948   21.2656 N   0  0  0  0  0  0  0  0  0  0  0  0
  -29.5568  -24.6345   15.7452 N   0  0  0  0  0  0  0  0  0  0  0  0
  -26.7111  -27.7759   20.3423 N   0  0  0  0  0  0  0  0  0  0  0  0
  -23.4411  -18.0879   21.3999 N   0  0  0  0  0  0  0  0  0  0  0  0
  -30.4691  -28.4729   20.3697 N   0  0  0  0  0  0  0  0  0  0  0  0
  -26.6278  -26.7678   18.2005 N   0  0  0  0  0  0  0  0  0  0  0  0
  -22.3663  -28.0918   18.8954 N   0  0  0  0  0  0  0  0  0  0  0  0
  -31.0834  -26.4296   16.0064 N   0  0  0  0  0  0  0  0  0  0  0  0
  -25.5076  -15.2630   20.3773 N   0  0  0  0  0  0  0  0  0  0  0  0
  -20.4296  -19.4973   22.0344 N   0  0  0  0  0  0  0  0  0  0  0  0
  -31.1388  -28.5247   18.1020 N   0  0  0  0  0  0  0  0  0  0  0  0
  -20.3139  -21.7218   24.8815 N   0  3  0  0  0  0  0  0  0  0  0  0
  -23.7719  -27.0386   17.4211 O   0  0  0  0  0  0  0  0  0  0  0  0
  -24.3886  -16.9933   19.2928 O   0  0  0  0  0  0  0  0  0  0  0  0
  -21.4828  -16.8556   21.6870 O   0  0  0  0  0  0  0  0  0  0  0  0
  -21.4526  -21.5595   22.3137 O   0  0  0  0  0  0  0  0  0  0  0  0
  -32.6869  -28.1809   19.7580 O   0  0  0  0  0  0  0  0  0  0  0  0
  -20.4272  -30.7134   23.4123 O   0  0  0  0  0  0  0  0  0  0  0  0
  -28.1481  -22.0696   21.1910 O   0  0  0  0  0  0  0  0  0  1  0  0
  -29.3150  -22.8158   18.7781 O   0  0  0  0  0  0  0  0  0  0  0  0
  -15.6593  -27.9441   23.4664 F   0  0  0  0  0  0  0  0  0  0  0  0
  -19.2783  -29.9139   25.7963 F   0  0  0  0  0  0  0  0  0  0  0  0
  1  2  1  0  0  0  0
  1  5  2  0  0  0  0
  2  6  2  0  0  0  0
  3  8  2  0  0  0  0
  3 16  1  0  0  0  0
  4  9  1  0  0  0  0
  4 16  2  0  0  0  0
  5 18  1  0  0  0  0
  6 20  1  0  0  0  0
  7 10  2  0  0  0  0
  7 19  1  0  0  0  0
  8 22  1  0  0  0  0
  9 22  2  0  0  0  0
 10 23  1  0  0  0  0
 11 12  2  0  0  0  0
 11 24  1  0  0  0  0
 12 26  1  0  0  0  0
 13 21  1  0  0  0  0
 13 23  2  0  0  0  0
 14 25  1  0  0  0  0
 14 30  2  0  0  0  0
 15 26  2  0  0  0  0
 15 27  1  0  0  0  0
 16 28  1  0  0  0  0
 17 28  1  0  0  0  0
 17 31  2  0  0  0  0
 17 32  1  0  0  0  0
 18 20  2  0  0  0  0
 18 37  1  0  0  0  0
 19 21  2  0  0  0  0
 19 38  1  0  0  0  0
 20 48  1  0  0  0  0
 21 39  1  0  0  0  0
 22 83  1  0  0  0  0
 23 84  1  0  0  0  0
 24 27  2  0  0  0  0
 24 83  1  0  0  0  0
 25 29  2  0  0  0  0
 25 85  1  0  0  0  0
 26 86  1  0  0  0  0
 27 87  1  0  0  0  0
 28 66  2  0  0  0  0
 29 49  1  0  0  0  0
 29 67  1  0  0  0  0
 30 67  1  0  0  0  0
 30 73  1  0  0  0  0
 31 68  1  0  0  0  0
 31 71  1  0  0  0  0
 32 72  1  0  0  0  0
 32 78  2  0  0  0  0
 33 50  1  0  0  0  0
 33 74  1  0  0  0  0
 33 79  2  0  0  0  0
 34 62  1  0  0  0  0
 34 69  1  0  0  0  0
 34 80  2  0  0  0  0
 35 63  1  0  0  0  0
 35 75  1  0  0  0  0
 35 81  2  0  0  0  0
 36 70  1  0  0  0  0
 36 76  1  0  0  0  0
 36 82  2  0  0  0  0
 37 40  1  0  0  0  0
 38 50  1  0  0  0  0
 39 69  1  0  0  0  0
 40 42  1  0  0  0  0
 41 45  1  0  0  0  0
 41 46  1  0  0  0  0
 42 48  1  0  0  0  0
 43 44  1  0  0  0  0
 43 49  1  0  0  0  0
 44 49  1  0  0  0  0
 45 51  1  0  0  0  0
 46 70  1  0  0  0  0
 47 51  1  0  0  0  0
 47 70  1  0  0  0  0
 48 74  1  0  0  0  0
 50 69  1  0  0  0  0
 51 68  1  0  0  0  0
 52 63  1  0  0  0  0
 53 64  1  0  0  0  0
 54 65  1  0  0  0  0
 55 65  1  0  0  0  0
 56 65  1  0  0  0  0
 57 67  1  0  0  0  0
 58 77  1  0  0  0  0
 59 64  1  0  0  0  0
 59 73  1  0  0  0  0
 60 61  1  0  0  0  0
 60 84  1  0  0  0  0
 61 85  1  0  0  0  0
 62 65  1  0  0  0  0
 62 75  1  0  0  0  0
 63 77  1  0  0  0  0
 64 76  1  0  0  0  0
 66 68  1  0  0  0  0
M  CHG  1  77   1
M  ISO  4  36 100  60 101  76 100  84 101
M  END
> <Batch ID>
0131

> <Smiles>
CNC(C)C(=O)NC(C(=O)N1Cc2cc([101O:1][101CH2:1]COc3cc(NCC(C)[100NH:0][100C:0](=O)N4CCCC(n5nc(-c6ccc(Oc7ccc(F)cc7F)cc6)c(C(N)=O)c5N)C4)n(C)c3C3CC3)ccc2CC1C(=O)NC1CCCc2ccccc21)C(C)(C)C

> <Shape>
0.226

> <Color>
0.081

> <Negative vol penalty>
0.000

$$$$

  -OEChem-04052320503D

 86 95  0     1  0  0  0  0  0999 V2000
  -23.6331  -33.4949   22.5493 C   0  0  0  0  0  0  0  0  0  0  0  0
  -24.7645  -32.7101   22.7478 C   0  0  0  0  0  0  0  0  0  0  0  0
  -23.1837   -9.7383   20.0188 C   0  0  0  0  0  0  0  0  0  0  0  0
  -23.7825   -9.9990   22.3448 C   0  0  0  0  0  0  0  0  0  0  0  0
  -22.3747  -33.0005   22.8897 C   0  0  0  0  0  0  0  0  0  0  0  0
  -24.6382  -31.4307   23.2878 C   0  0  0  0  0  0  0  0  0  0  0  0
  -28.0205  -26.5099   21.9268 C   0  0  0  0  0  0  0  0  0  0  0  0
  -31.7285  -17.0542   22.5128 C   0  0  0  0  0  0  0  0  0  0  0  0
  -22.4655   -8.5846   20.3329 C   0  0  0  0  0  0  0  0  0  0  0  0
  -23.0642   -8.8453   22.6590 C   0  0  0  0  0  0  0  0  0  0  0  0
  -29.1143  -25.9197   22.5584 C   0  0  0  0  0  0  0  0  0  0  0  0
  -32.2414  -18.0394   23.3565 C   0  0  0  0  0  0  0  0  0  0  0  0
  -19.8324   -7.9748   23.1256 C   0  0  0  0  0  0  0  0  0  0  0  0
  -18.9982   -8.0166   24.2427 C   0  0  0  0  0  0  0  0  0  0  0  0
  -27.6324  -24.3700   23.6637 C   0  0  0  0  0  0  0  0  0  0  0  0
  -30.0073  -18.8772   23.7362 C   0  0  0  0  0  0  0  0  0  0  0  0
  -20.2534   -6.2133   25.2475 C   0  0  0  0  0  0  0  0  0  0  0  0
  -23.8422  -10.4455   21.0247 C   0  0  0  0  0  0  0  0  0  0  0  0
  -24.1021  -12.9593   20.6770 C   0  0  0  0  0  0  0  0  0  0  0  0
  -22.2319  -31.7107   23.4251 C   0  0  0  0  0  0  0  0  0  0  0  0
  -26.7211  -26.0408   22.1678 C   0  0  0  0  0  0  0  0  0  0  0  0
  -23.3768  -30.9190   23.6369 C   0  0  0  0  0  0  0  0  0  0  0  0
  -26.5240  -24.9543   23.0320 C   0  0  0  0  0  0  0  0  0  0  0  0
  -29.4945  -17.8919   22.8924 C   0  0  0  0  0  0  0  0  0  0  0  0
  -30.3551  -16.9804   22.2807 C   0  0  0  0  0  0  0  0  0  0  0  0
  -22.4058   -8.1381   21.6530 C   0  0  0  0  0  0  0  0  0  0  0  0
  -28.9202  -24.8515   23.4292 C   0  0  0  0  0  0  0  0  0  0  0  0
  -31.3808  -18.9509   23.9682 C   0  0  0  0  0  0  0  0  0  0  0  0
  -20.8771   -7.0521   23.0694 C   0  0  0  0  0  0  0  0  0  0  0  0
  -19.2086   -7.1359   25.3037 C   0  0  0  0  0  0  0  0  0  0  0  0
  -21.0876   -6.1714   24.1304 C   0  0  0  0  0  0  0  0  0  0  0  0
  -24.5847  -11.6371   20.7007 C   0  0  0  0  0  0  0  0  0  0  0  0
  -25.1896  -13.7153   20.3132 C   0  0  0  0  0  0  0  0  0  0  0  0
  -22.7882  -13.4595   20.9587 C   0  0  0  0  0  0  0  0  0  0  0  0
  -24.0749  -27.2983   23.4008 C   0  0  0  0  0  0  0  0  0  0  0  0
  -22.7700  -24.4755   22.4782 C   0  0  0  0  0  0  0  0  0  0  0  0
  -23.2333  -21.1818   21.7139 C   0  0  0  0  0  0  0  0  0  0  0  0
  -30.5902  -15.0013   20.7399 C   0  0  0  0  0  0  0  0  0  0  0  0
  -20.8559  -31.2376   23.8217 C   0  0  0  0  0  0  0  0  0  0  0  0
  -25.5543  -26.6710   21.4581 C   0  0  0  0  0  0  0  0  0  0  0  0
  -25.1512  -24.4001   23.3088 C   0  0  0  0  0  0  0  0  0  0  0  0
  -20.7698  -29.7292   24.0400 C   0  0  0  0  0  0  0  0  0  0  0  0
  -29.7283  -12.3250   18.5555 C   0  0  0  0  0  0  0  0  0  0  0  0
  -27.5011  -17.8880   21.2491 C   0  0  0  0  0  0  0  0  0  0  0  0
  -27.3125  -19.0641   22.1554 C   0  0  0  0  0  0  0  0  0  0  0  0
  -21.9386  -29.2457   24.8927 C   0  0  0  0  0  0  0  0  0  0  0  0
  -28.2735  -12.0163   18.9169 C   0  0  0  0  0  0  0  0  0  0  0  0
  -30.5494  -12.7072   19.7857 C   0  0  0  0  0  0  0  0  0  0  0  0
  -28.5271  -13.4813   20.9605 C   0  0  0  0  0  0  0  0  0  0  0  0
  -28.0198  -17.8356   22.6609 C   0  0  0  0  0  0  0  0  0  0  0  0
  -23.2781  -29.5168   24.1972 C   0  0  1  0  0  0  0  0  0  0  0  0
  -24.2262  -26.4443   22.1738 C   0  0  1  0  0  0  0  0  0  0  0  0
  -27.6448  -13.1542   19.7447 C   0  0  2  0  0  0  0  0  0  0  0  0
  -21.9729  -19.1214   21.0331 C   0  0  0  0  0  0  0  0  0  0  0  0
  -21.7626  -24.1492   25.3398 C   0  0  0  0  0  0  0  0  0  0  0  0
  -21.3683  -21.7257   24.8507 C   0  0  0  0  0  0  0  0  0  0  0  0
  -20.1260  -23.4721   23.5741 C   0  0  0  0  0  0  0  0  0  0  0  0
  -24.7295  -20.9664   19.1695 C   0  0  0  0  0  0  0  0  0  0  0  0
  -32.3241  -24.0884   24.5782 C   0  0  0  0  0  0  0  0  0  0  0  0
  -33.3285  -21.8308   24.9435 C   0  0  0  0  0  0  0  0  0  0  0  0
  -31.2752  -24.8131   23.7581 C   0  0  0  0  0  0  0  0  0  1  0  0
  -33.1993  -20.3817   24.5174 C   0  0  0  0  0  0  0  0  0  0  0  0
  -22.5883  -23.1212   23.1200 C   0  0  1  0  0  0  0  0  0  0  0  0
  -22.7442  -20.3396   20.5495 C   0  0  2  0  0  0  0  0  0  0  0  0
  -21.4871  -23.1285   24.2177 C   0  0  0  0  0  0  0  0  0  0  0  0
  -25.8781  -11.5544   20.3776 N   0  0  0  0  0  0  0  0  0  0  0  0
  -26.2174  -12.8342   20.1473 N   0  0  0  0  0  0  0  0  0  0  0  0
  -24.0416  -25.0543   22.5957 N   0  0  0  0  0  0  0  0  0  0  0  0
  -29.8950  -13.7937   20.5179 N   0  0  0  0  0  0  0  0  0  0  0  0
  -25.3574  -15.0411   20.1221 N   0  0  0  0  0  0  0  0  0  0  0  0
  -21.7882  -12.5456   21.3177 N   0  0  0  0  0  0  0  0  0  0  0  0
  -29.8555  -15.9732   21.4183 N   0  0  0  0  0  0  0  0  0  0  0  0
  -23.5151  -28.5381   23.1578 N   0  0  0  0  0  0  0  0  0  0  0  0
  -22.3399  -22.1832   22.0306 N   0  0  0  0  0  0  0  0  0  0  0  0
  -23.8967  -19.8708   19.7291 N   0  3  0  0  0  0  0  0  0  0  0  0
  -32.3158  -22.6473   24.2212 N   0  3  0  0  0  0  0  0  0  0  0  0
  -22.5053  -14.6789   20.8779 O   0  0  0  0  0  0  0  0  0  0  0  0
  -24.4378  -26.8640   24.4877 O   0  0  0  0  0  0  0  0  0  0  0  0
  -21.8207  -24.9973   21.8881 O   0  0  0  0  0  0  0  0  0  0  0  0
  -24.2994  -20.9702   22.2876 O   0  0  0  0  0  0  0  0  0  0  0  0
  -31.7423  -15.1712   20.3327 O   0  0  0  0  0  0  0  0  0  0  0  0
  -21.7049   -7.0124   21.9600 O   0  0  0  0  0  0  0  0  0  0  0  0
  -29.9861  -24.2740   24.0475 O   0  0  0  0  0  0  0  0  0  1  0  0
  -31.8849  -19.9187   24.7974 O   0  0  0  0  0  0  0  0  0  0  0  0
  -18.4084   -7.1772   26.3770 F   0  0  0  0  0  0  0  0  0  0  0  0
  -22.0903   -5.2837   24.0826 F   0  0  0  0  0  0  0  0  0  0  0  0
  1  2  1  0  0  0  0
  1  5  2  0  0  0  0
  2  6  2  0  0  0  0
  3  9  2  0  0  0  0
  3 18  1  0  0  0  0
  4 10  1  0  0  0  0
  4 18  2  0  0  0  0
  5 20  1  0  0  0  0
  6 22  1  0  0  0  0
  7 11  2  0  0  0  0
  7 21  1  0  0  0  0
  8 12  2  0  0  0  0
  8 25  1  0  0  0  0
  9 26  1  0  0  0  0
 10 26  2  0  0  0  0
 11 27  1  0  0  0  0
 12 28  1  0  0  0  0
 13 14  2  0  0  0  0
 13 29  1  0  0  0  0
 14 30  1  0  0  0  0
 15 23  1  0  0  0  0
 15 27  2  0  0  0  0
 16 24  1  0  0  0  0
 16 28  2  0  0  0  0
 17 30  2  0  0  0  0
 17 31  1  0  0  0  0
 18 32  1  0  0  0  0
 19 32  1  0  0  0  0
 19 33  2  0  0  0  0
 19 34  1  0  0  0  0
 20 22  2  0  0  0  0
 20 39  1  0  0  0  0
 21 23  2  0  0  0  0
 21 40  1  0  0  0  0
 22 51  1  0  0  0  0
 23 41  1  0  0  0  0
 24 25  2  0  0  0  0
 24 50  1  0  0  0  0
 25 72  1  0  0  0  0
 26 82  1  0  0  0  0
 27 83  1  0  0  0  0
 28 84  1  0  0  0  0
 29 31  2  0  0  0  0
 29 82  1  0  0  0  0
 30 85  1  0  0  0  0
 31 86  1  0  0  0  0
 32 66  2  0  0  0  0
 33 67  1  0  0  0  0
 33 70  1  0  0  0  0
 34 71  1  0  0  0  0
 34 77  2  0  0  0  0
 35 52  1  0  0  0  0
 35 73  1  0  0  0  0
 35 78  2  0  0  0  0
 36 63  1  0  0  0  0
 36 68  1  0  0  0  0
 36 79  2  0  0  0  0
 37 64  1  0  0  0  0
 37 74  1  0  0  0  0
 37 80  2  0  0  0  0
 38 69  1  0  0  0  0
 38 72  1  0  0  0  0
 38 81  2  0  0  0  0
 39 42  1  0  0  0  0
 40 52  1  0  0  0  0
 41 68  1  0  0  0  0
 42 46  1  0  0  0  0
 43 47  1  0  0  0  0
 43 48  1  0  0  0  0
 44 45  1  0  0  0  0
 44 50  1  0  0  0  0
 45 50  1  0  0  0  0
 46 51  1  0  0  0  0
 47 53  1  0  0  0  0
 48 69  1  0  0  0  0
 49 53  1  0  0  0  0
 49 69  1  0  0  0  0
 51 73  1  0  0  0  0
 52 68  1  0  0  0  0
 53 67  1  0  0  0  0
 54 64  1  0  0  0  0
 55 65  1  0  0  0  0
 56 65  1  0  0  0  0
 57 65  1  0  0  0  0
 58 75  1  0  0  0  0
 59 61  1  0  0  0  0
 59 76  1  0  0  0  0
 60 62  1  0  0  0  0
 60 76  1  0  0  0  0
 61 83  1  0  0  0  0
 62 84  1  0  0  0  0
 63 65  1  0  0  0  0
 63 74  1  0  0  0  0
 64 75  1  0  0  0  0
 66 67  1  0  0  0  0
M  CHG  2  75   1  76   1
M  ISO  4  38 100  61 101  72 100  83 101
M  END
> <Batch ID>
0131

> <Smiles>
CNC(C)C(=O)NC(C(=O)N1Cc2cc([101O:1][101CH2:1]CNCCOc3ccc([100NH:0][100C:0](=O)N4CCCC(n5nc(-c6ccc(Oc7ccc(F)cc7F)cc6)c(C(N)=O)c5N)C4)c(C4CC4)c3)ccc2CC1C(=O)NC1CCCc2ccccc21)C(C)(C)C

> <Shape>
0.212

> <Color>
0.177

> <Negative vol penalty>
0.000

$$$$

  -OEChem-04052320503D

 80 88  0     1  0  0  0  0  0999 V2000
  -21.2480  -25.1176   13.2075 C   0  0  0  0  0  0  0  0  0  0  0  0
  -20.9343  -23.7718   13.3684 C   0  0  0  0  0  0  0  0  0  0  0  0
  -29.1322  -26.4700   18.4172 C   0  0  0  0  0  0  0  0  0  0  0  0
  -28.4393  -25.7893   20.6293 C   0  0  0  0  0  0  0  0  0  0  0  0
  -22.2258  -25.7050   14.0092 C   0  0  0  0  0  0  0  0  0  0  0  0
  -21.5991  -23.0123   14.3305 C   0  0  0  0  0  0  0  0  0  0  0  0
  -20.5423  -17.5432   18.8348 C   0  0  0  0  0  0  0  0  0  0  0  0
  -28.5233  -27.7103   18.6081 C   0  0  0  0  0  0  0  0  0  0  0  0
  -27.8304  -27.0296   20.8203 C   0  0  0  0  0  0  0  0  0  0  0  0
  -21.1011  -16.3159   19.1886 C   0  0  0  0  0  0  0  0  0  0  0  0
  -24.9597  -28.5630   19.9046 C   0  0  0  0  0  0  0  0  0  0  0  0
  -23.6808  -28.5783   20.4612 C   0  0  0  0  0  0  0  0  0  0  0  0
  -22.7164  -17.4565   20.5704 C   0  0  0  0  0  0  0  0  0  0  0  0
  -24.5014  -29.8995   22.3101 C   0  0  0  0  0  0  0  0  0  0  0  0
  -29.0901  -25.5094   19.4277 C   0  0  0  0  0  0  0  0  0  0  0  0
  -31.0463  -23.8758   19.5387 C   0  0  0  0  0  0  0  0  0  0  0  0
  -22.8961  -24.9546   14.9882 C   0  0  0  0  0  0  0  0  0  0  0  0
  -21.0741  -18.7391   19.3384 C   0  0  0  0  0  0  0  0  0  0  0  0
  -22.5878  -23.5899   15.1451 C   0  0  0  0  0  0  0  0  0  0  0  0
  -22.1609  -18.6975   20.2234 C   0  0  0  0  0  0  0  0  0  0  0  0
  -27.8724  -27.9901   19.8096 C   0  0  0  0  0  0  0  0  0  0  0  0
  -22.1901  -16.2725   20.0542 C   0  0  0  0  0  0  0  0  0  0  0  0
  -26.0095  -29.2159   20.5507 C   0  0  0  0  0  0  0  0  0  0  0  0
  -23.4517  -29.2465   21.6640 C   0  0  0  0  0  0  0  0  0  0  0  0
  -25.7803  -29.8841   21.7535 C   0  0  0  0  0  0  0  0  0  0  0  0
  -29.7185  -24.2278   19.2309 C   0  0  0  0  0  0  0  0  0  0  0  0
  -31.1473  -22.5578   19.1657 C   0  0  0  0  0  0  0  0  0  0  0  0
  -32.0946  -24.6692   20.1107 C   0  0  0  0  0  0  0  0  0  0  0  0
  -22.4253  -21.3113   18.0494 C   0  0  0  0  0  0  0  0  0  0  0  0
  -22.3113  -22.4182   21.0964 C   0  0  0  0  0  0  0  0  0  0  0  0
  -22.1686  -21.7116   24.4322 C   0  0  0  0  0  0  0  0  0  0  0  0
  -29.1646  -17.4573   19.1357 C   0  0  0  0  0  0  0  0  0  0  0  0
  -23.9790  -25.6216   15.7988 C   0  0  0  0  0  0  0  0  0  0  0  0
  -20.4431  -20.0532   18.9681 C   0  0  0  0  0  0  0  0  0  0  0  0
  -22.7561  -19.9516   20.8077 C   0  0  0  0  0  0  0  0  0  0  0  0
  -24.3724  -24.8400   17.0497 C   0  0  0  0  0  0  0  0  0  0  0  0
  -27.9947  -19.6385   16.4954 C   0  0  0  0  0  0  0  0  0  0  0  0
  -24.5685  -23.3642   16.7173 C   0  0  0  0  0  0  0  0  0  0  0  0
  -28.4539  -21.0059   17.0047 C   0  0  0  0  0  0  0  0  0  0  0  0
  -27.5236  -18.7507   17.6435 C   0  0  0  0  0  0  0  0  0  0  0  0
  -24.0533  -12.5549   21.1334 C   0  0  0  0  0  0  0  0  0  0  0  0
  -28.9879  -19.9272   19.2388 C   0  0  0  0  0  0  0  0  0  0  0  0
  -26.3323  -12.0378   20.7379 C   0  0  0  0  0  0  0  0  0  0  0  0
  -23.2694  -22.7390   16.1947 C   0  0  1  0  0  0  0  0  0  0  0  0
  -21.3891  -21.2384   19.1351 C   0  0  1  0  0  0  0  0  0  0  0  0
  -24.6988  -13.7022   20.3505 C   0  0  2  0  0  0  0  0  0  0  0  0
  -29.4977  -20.8638   18.1284 C   0  0  2  0  0  0  0  0  0  0  0  0
  -26.1731  -13.5415   20.6847 C   0  0  2  0  0  0  0  0  0  0  0  0
  -22.1265  -22.8237   26.6813 C   0  0  0  0  0  0  0  0  0  0  0  0
  -25.3013  -22.9829   20.8705 C   0  0  0  0  0  0  0  0  0  0  0  0
  -25.3824  -23.1768   23.3653 C   0  0  0  0  0  0  0  0  0  0  0  0
  -23.9887  -24.7633   22.0374 C   0  0  0  0  0  0  0  0  0  0  0  0
  -19.5186  -20.5636   25.0792 C   0  0  0  0  0  0  0  0  0  0  0  0
  -24.1333  -15.0625   20.6989 C   0  0  0  0  0  0  0  0  0  1  0  0
  -29.2288  -14.9860   18.9219 C   0  0  0  0  0  0  0  0  0  0  0  0
  -28.4500  -14.3590   20.0633 C   0  0  0  0  0  0  0  0  0  0  0  0
  -23.2351  -22.3631   22.2892 C   0  0  1  0  0  0  0  0  0  0  0  0
  -21.2908  -22.2618   25.5417 C   0  0  2  0  0  0  0  0  0  0  0  0
  -24.4671  -23.2978   22.1282 C   0  0  0  0  0  0  0  0  0  0  0  0
  -29.0257  -23.2152   18.7028 N   0  0  0  0  0  0  0  0  0  0  0  0
  -29.9217  -22.2140   18.6759 N   0  0  0  0  0  0  0  0  0  0  0  0
  -25.1367  -11.6222   21.4753 N   0  0  0  0  0  0  0  0  0  0  0  0
  -22.1080  -21.2124   20.4105 N   0  0  0  0  0  0  0  0  0  0  0  0
  -28.5699  -18.6416   18.6699 N   0  0  0  0  0  0  0  0  0  0  0  0
  -32.1641  -21.6710   19.2120 N   0  0  0  0  0  0  0  0  0  0  0  0
  -31.8205  -26.0048   20.4351 N   0  0  0  0  0  0  0  0  0  0  0  0
  -22.3644  -22.4643   17.2901 N   0  0  0  0  0  0  0  0  0  0  0  0
  -22.4115  -22.6559   23.4572 N   0  0  0  0  0  0  0  0  0  0  0  0
  -28.7077  -16.2827   18.5506 N   0  0  0  0  0  0  0  0  0  0  0  0
  -27.0352  -14.1344   19.6457 N   0  3  0  0  0  0  0  0  0  0  0  0
  -20.4125  -21.1888   26.0877 N   0  3  0  0  0  0  0  0  0  0  0  0
  -33.2452  -24.2120   20.3126 O   0  0  0  0  0  0  0  0  0  0  0  0
  -23.2221  -20.3905   17.9119 O   0  0  0  0  0  0  0  0  0  0  0  0
  -21.7838  -23.4901   20.7891 O   0  0  0  0  0  0  0  0  0  0  0  0
  -22.5991  -20.5604   24.4323 O   0  0  0  0  0  0  0  0  0  0  0  0
  -30.0424  -17.4475   20.0055 O   0  0  0  0  0  0  0  0  0  0  0  0
  -27.2784  -29.2004   19.9964 O   0  0  0  0  0  0  0  0  0  0  0  0
  -22.7379  -15.0760   20.4007 O   0  0  0  0  0  0  0  0  0  1  0  0
  -22.2232  -29.2625   22.1976 F   0  0  0  0  0  0  0  0  0  0  0  0
  -26.7846  -30.5141   22.3782 F   0  0  0  0  0  0  0  0  0  0  0  0
  1  2  1  0  0  0  0
  1  5  2  0  0  0  0
  2  6  2  0  0  0  0
  3  8  2  0  0  0  0
  3 15  1  0  0  0  0
  4  9  1  0  0  0  0
  4 15  2  0  0  0  0
  5 17  1  0  0  0  0
  6 19  1  0  0  0  0
  7 10  2  0  0  0  0
  7 18  1  0  0  0  0
  8 21  1  0  0  0  0
  9 21  2  0  0  0  0
 10 22  1  0  0  0  0
 11 12  2  0  0  0  0
 11 23  1  0  0  0  0
 12 24  1  0  0  0  0
 13 20  1  0  0  0  0
 13 22  2  0  0  0  0
 14 24  2  0  0  0  0
 14 25  1  0  0  0  0
 15 26  1  0  0  0  0
 16 26  1  0  0  0  0
 16 27  2  0  0  0  0
 16 28  1  0  0  0  0
 17 19  2  0  0  0  0
 17 33  1  0  0  0  0
 18 20  2  0  0  0  0
 18 34  1  0  0  0  0
 19 44  1  0  0  0  0
 20 35  1  0  0  0  0
 21 77  1  0  0  0  0
 22 78  1  0  0  0  0
 23 25  2  0  0  0  0
 23 77  1  0  0  0  0
 24 79  1  0  0  0  0
 25 80  1  0  0  0  0
 26 60  2  0  0  0  0
 27 61  1  0  0  0  0
 27 65  1  0  0  0  0
 28 66  1  0  0  0  0
 28 72  2  0  0  0  0
 29 45  1  0  0  0  0
 29 67  1  0  0  0  0
 29 73  2  0  0  0  0
 30 57  1  0  0  0  0
 30 63  1  0  0  0  0
 30 74  2  0  0  0  0
 31 58  1  0  0  0  0
 31 68  1  0  0  0  0
 31 75  2  0  0  0  0
 32 64  1  0  0  0  0
 32 69  1  0  0  0  0
 32 76  2  0  0  0  0
 33 36  1  0  0  0  0
 34 45  1  0  0  0  0
 35 63  1  0  0  0  0
 36 38  1  0  0  0  0
 37 39  1  0  0  0  0
 37 40  1  0  0  0  0
 38 44  1  0  0  0  0
 39 47  1  0  0  0  0
 40 64  1  0  0  0  0
 41 46  1  0  0  0  0
 41 62  1  0  0  0  0
 42 47  1  0  0  0  0
 42 64  1  0  0  0  0
 43 48  1  0  0  0  0
 43 62  1  0  0  0  0
 44 67  1  0  0  0  0
 45 63  1  0  0  0  0
 46 48  1  0  0  0  0
 46 54  1  0  0  0  0
 47 61  1  0  0  0  0
 48 70  1  0  0  0  0
 49 58  1  0  0  0  0
 50 59  1  0  0  0  0
 51 59  1  0  0  0  0
 52 59  1  0  0  0  0
 53 71  1  0  0  0  0
 54 78  1  0  0  0  0
 55 56  1  0  0  0  0
 55 69  1  0  0  0  0
 56 70  1  0  0  0  0
 57 59  1  0  0  0  0
 57 68  1  0  0  0  0
 58 71  1  0  0  0  0
 60 61  1  0  0  0  0
M  CHG  2  70   1  71   1
M  ISO  4  32 100  54 101  69 100  78 101
M  END
> <Batch ID>
0131

> <Smiles>
CNC(C)C(=O)NC(C(=O)N1Cc2cc([101O:1][101CH2:1]C3CNCC3NCC[100NH:0][100C:0](=O)N3CCCC(n4nc(-c5ccc(Oc6ccc(F)cc6F)cc5)c(C(N)=O)c4N)C3)ccc2CC1C(=O)NC1CCCc2ccccc21)C(C)(C)C

> <Shape>
0.172

> <Color>
0.071

> <Negative vol penalty>
0.000

$$$$

  -OEChem-04052320503D

 88 97  0     1  0  0  0  0  0999 V2000
  -23.6156  -35.3207   23.0670 C   0  0  0  0  0  0  0  0  0  0  0  0
  -24.4265  -34.3395   23.6283 C   0  0  0  0  0  0  0  0  0  0  0  0
  -22.6529  -11.7015   22.3908 C   0  0  0  0  0  0  0  0  0  0  0  0
  -21.3189  -12.0111   20.4004 C   0  0  0  0  0  0  0  0  0  0  0  0
  -22.5076  -34.9551   22.3038 C   0  0  0  0  0  0  0  0  0  0  0  0
  -24.1291  -32.9920   23.4276 C   0  0  0  0  0  0  0  0  0  0  0  0
  -28.8862  -28.5682   20.3145 C   0  0  0  0  0  0  0  0  0  0  0  0
  -22.6098  -10.3198   22.2048 C   0  0  0  0  0  0  0  0  0  0  0  0
  -21.2758  -10.6293   20.2144 C   0  0  0  0  0  0  0  0  0  0  0  0
  -29.8227  -27.6132   19.9183 C   0  0  0  0  0  0  0  0  0  0  0  0
  -20.4191   -7.8021   22.7396 C   0  0  0  0  0  0  0  0  0  0  0  0
  -20.1526   -7.0069   23.8541 C   0  0  0  0  0  0  0  0  0  0  0  0
  -28.1402  -25.8832   20.0737 C   0  0  0  0  0  0  0  0  0  0  0  0
  -22.2798   -5.8970   23.5708 C   0  0  0  0  0  0  0  0  0  0  0  0
  -22.0074  -12.5472   21.4886 C   0  0  0  0  0  0  0  0  0  0  0  0
  -21.5768  -14.6979   22.7912 C   0  0  0  0  0  0  0  0  0  0  0  0
  -22.2020  -33.6025   22.0857 C   0  0  0  0  0  0  0  0  0  0  0  0
  -27.5677  -28.1863   20.5772 C   0  0  0  0  0  0  0  0  0  0  0  0
  -23.0152  -32.6080   22.6620 C   0  0  0  0  0  0  0  0  0  0  0  0
  -27.1946  -26.8374   20.4589 C   0  0  0  0  0  0  0  0  0  0  0  0
  -21.9213   -9.7837   21.1166 C   0  0  0  0  0  0  0  0  0  0  0  0
  -29.4507  -26.2740   19.7985 C   0  0  0  0  0  0  0  0  0  0  0  0
  -21.6159   -7.6447   22.0405 C   0  0  0  0  0  0  0  0  0  0  0  0
  -21.0829   -6.0544   24.2697 C   0  0  0  0  0  0  0  0  0  0  0  0
  -22.5462   -6.6922   22.4562 C   0  0  0  0  0  0  0  0  0  0  0  0
  -22.0511  -13.9746   21.6805 C   0  0  0  0  0  0  0  0  0  0  0  0
  -21.8512  -16.0094   22.4895 C   0  0  0  0  0  0  0  0  0  0  0  0
  -20.9447  -14.2264   23.9887 C   0  0  0  0  0  0  0  0  0  0  0  0
  -24.1138  -29.2478   21.5872 C   0  0  0  0  0  0  0  0  0  0  0  0
  -23.7899  -27.1656   19.3579 C   0  0  0  0  0  0  0  0  0  0  0  0
  -23.8762  -25.1576   16.6015 C   0  0  0  0  0  0  0  0  0  0  0  0
  -25.9077  -18.6135   18.9377 C   0  0  0  0  0  0  0  0  0  0  0  0
  -20.9666  -33.2560   21.2929 C   0  0  0  0  0  0  0  0  0  0  0  0
  -26.5406  -29.1712   21.0662 C   0  0  0  0  0  0  0  0  0  0  0  0
  -25.7736  -26.4671   20.7852 C   0  0  0  0  0  0  0  0  0  0  0  0
  -20.9354  -31.8062   20.8163 C   0  0  0  0  0  0  0  0  0  0  0  0
  -30.4910  -17.9203   14.2419 C   0  0  0  0  0  0  0  0  0  0  0  0
  -31.3771  -19.1610   14.3374 C   0  0  0  0  0  0  0  0  0  0  0  0
  -22.3689  -18.9651   18.7630 C   0  0  0  0  0  0  0  0  0  0  0  0
  -21.3135  -30.8622   21.9533 C   0  0  0  0  0  0  0  0  0  0  0  0
  -21.8434  -17.7912   19.5911 C   0  0  0  0  0  0  0  0  0  0  0  0
  -29.3653  -17.9412   15.2753 C   0  0  0  0  0  0  0  0  0  0  0  0
  -31.9108  -19.3757   15.7561 C   0  0  0  0  0  0  0  0  0  0  0  0
  -30.5236  -24.2122   17.3008 C   0  0  0  0  0  0  0  0  0  0  0  0
  -30.2054  -22.9402   19.4599 C   0  0  0  0  0  0  0  0  0  0  0  0
  -30.1386  -22.9676   16.5103 C   0  0  0  0  0  0  0  0  0  0  0  0
  -29.8195  -21.6959   18.6694 C   0  0  0  0  0  0  0  0  0  0  0  0
  -23.6236  -18.5859   17.9793 C   0  0  0  0  0  0  0  0  0  0  0  0
  -24.1851  -16.8349   19.6201 C   0  0  0  0  0  0  0  0  0  0  0  0
  -22.7395  -31.1357   22.4463 C   0  0  1  0  0  0  0  0  0  0  0  0
  -25.1239  -28.8760   20.5418 C   0  0  1  0  0  0  0  0  0  0  0  0
  -22.9527  -17.1850   20.4716 C   0  0  2  0  0  0  0  0  0  0  0  0
  -29.9283  -18.1422   16.6820 C   0  0  1  0  0  0  0  0  0  0  0  0
  -29.8832  -24.2193   18.6876 C   0  0  0  0  0  0  0  0  0  1  0  0
  -30.4602  -21.6885   17.2828 C   0  0  0  0  0  0  0  0  0  0  0  0
  -30.7839  -19.4068   16.7929 C   0  0  2  0  0  0  0  0  0  0  0  0
  -22.3718  -23.9885   14.9683 C   0  0  0  0  0  0  0  0  0  0  0  0
  -29.2799  -16.3827   19.1708 C   0  0  0  0  0  0  0  0  0  0  0  0
  -23.1630  -25.0451   21.4589 C   0  0  0  0  0  0  0  0  0  0  0  0
  -22.5106  -23.4988   19.6011 C   0  0  0  0  0  0  0  0  0  0  0  0
  -21.2498  -25.6219   19.9552 C   0  0  0  0  0  0  0  0  0  0  0  0
  -24.9858  -26.6749   14.3156 C   0  0  0  0  0  0  0  0  0  0  0  0
  -28.1505  -18.5185   19.9960 C   0  0  0  0  0  0  0  0  0  0  0  0
  -23.5897  -25.7142   19.0020 C   0  0  1  0  0  0  0  0  0  0  0  0
  -23.1651  -25.2519   15.2636 C   0  0  2  0  0  0  0  0  0  0  0  0
  -29.1690  -17.8959   19.0435 C   0  0  2  0  0  0  0  0  0  0  0  0
  -22.6542  -24.9817   20.0049 C   0  0  0  0  0  0  0  0  0  0  0  0
  -22.5861  -14.7613   20.7431 N   0  0  0  0  0  0  0  0  0  0  0  0
  -22.4496  -15.9926   21.2640 N   0  0  0  0  0  0  0  0  0  0  0  0
  -24.8520  -27.4648   20.2199 N   0  0  0  0  0  0  0  0  0  0  0  0
  -24.6368  -18.0189   18.8725 N   0  0  0  0  0  0  0  0  0  0  0  0
  -21.6366  -17.1638   23.1555 N   0  0  0  0  0  0  0  0  0  0  0  0
  -19.5479  -14.1130   24.0067 N   0  0  0  0  0  0  0  0  0  0  0  0
  -23.7078  -30.5675   21.5330 N   0  0  0  0  0  0  0  0  0  0  0  0
  -23.1187  -25.6936   17.6214 N   0  0  0  0  0  0  0  0  0  0  0  0
  -26.8064  -18.0175   19.8140 N   0  0  0  0  0  0  0  0  0  0  0  0
  -28.7971  -18.2247   17.6447 N   0  3  0  0  0  0  0  0  0  0  0  0
  -24.1521  -25.4545   14.1656 N   0  3  0  0  0  0  0  0  0  0  0  0
  -21.5981  -13.9304   25.0178 O   0  0  0  0  0  0  0  0  0  0  0  0
  -23.7291  -28.4002   22.3842 O   0  0  0  0  0  0  0  0  0  0  0  0
  -23.0235  -28.0126   18.8903 O   0  0  0  0  0  0  0  0  0  0  0  0
  -24.9904  -24.6551   16.7297 O   0  0  0  0  0  0  0  0  0  0  0  0
  -26.2167  -19.6055   18.2689 O   0  0  0  0  0  0  0  0  0  0  0  0
  -21.8793   -8.4355   20.9347 O   0  0  0  0  0  0  0  0  0  0  0  0
  -30.3688  -25.3475   19.4069 O   0  0  0  0  0  0  0  0  0  1  0  0
  -29.9744  -20.5601   16.5637 O   0  0  0  0  0  0  0  0  0  0  0  0
  -20.8275   -5.2919   25.3410 F   0  0  0  0  0  0  0  0  0  0  0  0
  -23.6982   -6.5372   21.7894 F   0  0  0  0  0  0  0  0  0  0  0  0
  1  2  1  0  0  0  0
  1  5  2  0  0  0  0
  2  6  2  0  0  0  0
  3  8  2  0  0  0  0
  3 15  1  0  0  0  0
  4  9  1  0  0  0  0
  4 15  2  0  0  0  0
  5 17  1  0  0  0  0
  6 19  1  0  0  0  0
  7 10  2  0  0  0  0
  7 18  1  0  0  0  0
  8 21  1  0  0  0  0
  9 21  2  0  0  0  0
 10 22  1  0  0  0  0
 11 12  2  0  0  0  0
 11 23  1  0  0  0  0
 12 24  1  0  0  0  0
 13 20  1  0  0  0  0
 13 22  2  0  0  0  0
 14 24  2  0  0  0  0
 14 25  1  0  0  0  0
 15 26  1  0  0  0  0
 16 26  1  0  0  0  0
 16 27  2  0  0  0  0
 16 28  1  0  0  0  0
 17 19  2  0  0  0  0
 17 33  1  0  0  0  0
 18 20  2  0  0  0  0
 18 34  1  0  0  0  0
 19 50  1  0  0  0  0
 20 35  1  0  0  0  0
 21 84  1  0  0  0  0
 22 85  1  0  0  0  0
 23 25  2  0  0  0  0
 23 84  1  0  0  0  0
 24 87  1  0  0  0  0
 25 88  1  0  0  0  0
 26 68  2  0  0  0  0
 27 69  1  0  0  0  0
 27 72  1  0  0  0  0
 28 73  1  0  0  0  0
 28 79  2  0  0  0  0
 29 51  1  0  0  0  0
 29 74  1  0  0  0  0
 29 80  2  0  0  0  0
 30 64  1  0  0  0  0
 30 70  1  0  0  0  0
 30 81  2  0  0  0  0
 31 65  1  0  0  0  0
 31 75  1  0  0  0  0
 31 82  2  0  0  0  0
 32 71  1  0  0  0  0
 32 76  1  0  0  0  0
 32 83  2  0  0  0  0
 33 36  1  0  0  0  0
 34 51  1  0  0  0  0
 35 70  1  0  0  0  0
 36 40  1  0  0  0  0
 37 38  1  0  0  0  0
 37 42  1  0  0  0  0
 38 43  1  0  0  0  0
 39 41  1  0  0  0  0
 39 48  1  0  0  0  0
 40 50  1  0  0  0  0
 41 52  1  0  0  0  0
 42 53  1  0  0  0  0
 43 56  1  0  0  0  0
 44 46  1  0  0  0  0
 44 54  1  0  0  0  0
 45 47  1  0  0  0  0
 45 54  1  0  0  0  0
 46 55  1  0  0  0  0
 47 55  1  0  0  0  0
 48 71  1  0  0  0  0
 49 52  1  0  0  0  0
 49 71  1  0  0  0  0
 50 74  1  0  0  0  0
 51 70  1  0  0  0  0
 52 69  1  0  0  0  0
 53 56  1  0  0  0  0
 53 77  1  0  0  0  0
 54 85  1  0  0  0  0
 55 86  1  0  0  0  0
 56 86  1  0  0  0  0
 57 65  1  0  0  0  0
 58 66  1  0  0  0  0
 59 67  1  0  0  0  0
 60 67  1  0  0  0  0
 61 67  1  0  0  0  0
 62 78  1  0  0  0  0
 63 66  1  0  0  0  0
 63 76  1  0  0  0  0
 64 67  1  0  0  0  0
 64 75  1  0  0  0  0
 65 78  1  0  0  0  0
 66 77  1  0  0  0  0
 68 69  1  0  0  0  0
M  CHG  2  77   1  78   1
M  ISO  4  32 100  54 101  76 100  85 101
M  END
> <Batch ID>
0131

> <Smiles>
CNC(C)C(=O)NC(C(=O)N1Cc2cc([101O:1][101CH:1]3CCC(OC4CCCCC4NC(C)C[100NH:0][100C:0](=O)N4CCCC(n5nc(-c6ccc(Oc7ccc(F)cc7F)cc6)c(C(N)=O)c5N)C4)CC3)ccc2CC1C(=O)NC1CCCc2ccccc21)C(C)(C)C

> <Shape>
0.221

> <Color>
0.052

> <Negative vol penalty>
0.000

$$$$

  -OEChem-04052320503D

 83 91  0     1  0  0  0  0  0999 V2000
  -23.7794  -30.2278   21.8405 C   0  0  0  0  0  0  0  0  0  0  0  0
  -23.1247  -29.0204   22.0617 C   0  0  0  0  0  0  0  0  0  0  0  0
  -28.8778  -12.6162   20.9095 C   0  0  0  0  0  0  0  0  0  0  0  0
  -28.2020  -12.6955   18.5913 C   0  0  0  0  0  0  0  0  0  0  0  0
  -24.9481  -30.2567   21.0808 C   0  0  0  0  0  0  0  0  0  0  0  0
  -23.6378  -27.8413   21.5223 C   0  0  0  0  0  0  0  0  0  0  0  0
  -23.4513  -22.2581   24.0322 C   0  0  0  0  0  0  0  0  0  0  0  0
  -18.1924  -16.7567   22.2693 C   0  0  0  0  0  0  0  0  0  0  0  0
  -18.9059  -17.9137   22.5822 C   0  0  0  0  0  0  0  0  0  0  0  0
  -30.2142  -12.5405   20.5174 C   0  0  0  0  0  0  0  0  0  0  0  0
  -29.5385  -12.6198   18.1991 C   0  0  0  0  0  0  0  0  0  0  0  0
  -22.6049  -21.1682   23.8335 C   0  0  0  0  0  0  0  0  0  0  0  0
  -31.9133  -10.2330   17.8913 C   0  0  0  0  0  0  0  0  0  0  0  0
  -32.2367   -9.3537   16.8580 C   0  0  0  0  0  0  0  0  0  0  0  0
  -24.1968  -20.2215   22.2879 C   0  0  0  0  0  0  0  0  0  0  0  0
  -20.0119  -15.4074   23.1095 C   0  0  0  0  0  0  0  0  0  0  0  0
  -33.0730  -11.2024   15.5465 C   0  0  0  0  0  0  0  0  0  0  0  0
  -27.8716  -12.6936   19.9464 C   0  0  0  0  0  0  0  0  0  0  0  0
  -25.7446  -13.9369   20.6080 C   0  0  0  0  0  0  0  0  0  0  0  0
  -25.4811  -29.0761   20.5399 C   0  0  0  0  0  0  0  0  0  0  0  0
  -24.6739  -22.3434   23.3508 C   0  0  0  0  0  0  0  0  0  0  0  0
  -24.8141  -27.8547   20.7535 C   0  0  0  0  0  0  0  0  0  0  0  0
  -25.0580  -21.3123   22.4816 C   0  0  0  0  0  0  0  0  0  0  0  0
  -18.7454  -15.5035   22.5330 C   0  0  0  0  0  0  0  0  0  0  0  0
  -20.1723  -17.8176   23.1587 C   0  0  0  0  0  0  0  0  0  0  0  0
  -20.7254  -16.5644   23.4224 C   0  0  0  0  0  0  0  0  0  0  0  0
  -30.5446  -12.5423   19.1622 C   0  0  0  0  0  0  0  0  0  0  0  0
  -22.9763  -20.1511   22.9591 C   0  0  0  0  0  0  0  0  0  0  0  0
  -32.1696  -11.5971   17.7522 C   0  0  0  0  0  0  0  0  0  0  0  0
  -32.8166   -9.8383   15.6856 C   0  0  0  0  0  0  0  0  0  0  0  0
  -32.7495  -12.0818   16.5798 C   0  0  0  0  0  0  0  0  0  0  0  0
  -26.4909  -12.7712   20.3508 C   0  0  0  0  0  0  0  0  0  0  0  0
  -24.4978  -13.4768   20.9548 C   0  0  0  0  0  0  0  0  0  0  0  0
  -26.1428  -15.3125   20.5395 C   0  0  0  0  0  0  0  0  0  0  0  0
  -25.9350  -24.3691   21.2509 C   0  0  0  0  0  0  0  0  0  0  0  0
  -28.5862  -22.5487   21.6747 C   0  0  0  0  0  0  0  0  0  0  0  0
  -29.3450  -19.0361   21.9952 C   0  0  0  0  0  0  0  0  0  0  0  0
  -20.1619  -10.0650   20.1150 C   0  0  0  0  0  0  0  0  0  0  0  0
  -26.7211  -29.1639   19.6858 C   0  0  0  0  0  0  0  0  0  0  0  0
  -25.5877  -23.5126   23.5964 C   0  0  0  0  0  0  0  0  0  0  0  0
  -26.3692  -21.3463   21.7413 C   0  0  0  0  0  0  0  0  0  0  0  0
  -27.4042  -27.8171   19.4634 C   0  0  0  0  0  0  0  0  0  0  0  0
  -22.8925   -8.7991   22.0170 C   0  0  0  0  0  0  0  0  0  0  0  0
  -26.3781  -26.7542   19.0836 C   0  0  0  0  0  0  0  0  0  0  0  0
  -24.0117   -9.8120   21.7692 C   0  0  0  0  0  0  0  0  0  0  0  0
  -22.0380   -8.5858   20.7695 C   0  0  0  0  0  0  0  0  0  0  0  0
  -22.6060  -10.8323   19.9302 C   0  0  0  0  0  0  0  0  0  0  0  0
  -25.3531  -26.5510   20.2059 C   0  0  1  0  0  0  0  0  0  0  0  0
  -26.5767  -23.7473   22.4588 C   0  0  1  0  0  0  0  0  0  0  0  0
  -23.4606  -11.1226   21.1759 C   0  0  2  0  0  0  0  0  0  0  0  0
  -22.0798  -16.4370   24.0389 C   0  0  0  0  0  0  0  0  0  0  0  0
  -31.2446  -17.8764   23.1545 C   0  0  0  0  0  0  0  0  0  0  0  0
  -29.9191  -22.6133   18.9307 C   0  0  0  0  0  0  0  0  0  0  0  0
  -30.8292  -20.3279   19.3962 C   0  0  0  0  0  0  0  0  0  0  0  0
  -31.4878  -22.2494   20.8441 C   0  0  0  0  0  0  0  0  0  0  0  0
  -27.5001  -17.3907   23.6225 C   0  0  0  0  0  0  0  0  0  0  0  0
  -17.9826  -14.2667   22.1979 C   0  0  0  0  0  0  0  0  0  0  0  0
  -20.9212  -19.0761   23.4854 C   0  0  0  0  0  0  0  0  0  1  0  0
  -18.3918  -11.6657   19.4340 C   0  0  0  0  0  0  0  0  0  0  0  0
  -17.7820  -12.3015   20.6693 C   0  0  0  0  0  0  0  0  0  0  0  0
  -29.1476  -21.3091   21.0211 C   0  0  1  0  0  0  0  0  0  0  0  0
  -29.7915  -18.3139   23.2536 C   0  0  2  0  0  0  0  0  0  0  0  0
  -30.3179  -21.6298   20.0490 C   0  0  0  0  0  0  0  0  0  0  0  0
  -25.7777  -11.6546   20.5200 N   0  0  0  0  0  0  0  0  0  0  0  0
  -24.5703  -12.1165   20.8872 N   0  0  0  0  0  0  0  0  0  0  0  0
  -27.2254  -22.5135   22.0102 N   0  0  0  0  0  0  0  0  0  0  0  0
  -21.5452   -9.8669   20.2579 N   0  0  0  0  0  0  0  0  0  0  0  0
  -23.3575  -14.1072   21.3080 N   0  0  0  0  0  0  0  0  0  0  0  0
  -27.4609  -15.6087   20.1662 N   0  0  0  0  0  0  0  0  0  0  0  0
  -25.9207  -25.7508   21.2699 N   0  0  0  0  0  0  0  0  0  0  0  0
  -29.5038  -20.4012   22.1061 N   0  0  0  0  0  0  0  0  0  0  0  0
  -19.7795  -11.3096   19.6296 N   0  0  0  0  0  0  0  0  0  0  0  0
  -28.9512  -17.1046   23.4826 N   0  3  0  0  0  0  0  0  0  0  0  0
  -18.4934  -13.5671   20.9867 N   0  3  0  0  0  0  0  0  0  0  0  0
  -25.3579  -16.2507   20.8174 O   0  0  0  0  0  0  0  0  0  0  0  0
  -25.4874  -23.6488   20.3663 O   0  0  0  0  0  0  0  0  0  0  0  0
  -29.3295  -23.5102   21.8863 O   0  0  0  0  0  0  0  0  0  0  0  0
  -28.9033  -18.4477   21.0107 O   0  0  0  0  0  0  0  0  0  0  0  0
  -19.3292   -9.1991   20.4040 O   0  0  0  0  0  0  0  0  0  0  0  0
  -31.8486  -12.4688   18.7792 O   0  0  0  0  0  0  0  0  0  0  0  0
  -22.1517  -19.0865   22.7628 O   0  0  0  0  0  0  0  0  0  1  0  0
  -33.1285   -8.9935   14.6941 F   0  0  0  0  0  0  0  0  0  0  0  0
  -32.9992  -13.3910   16.4408 F   0  0  0  0  0  0  0  0  0  0  0  0
  1  2  1  0  0  0  0
  1  5  2  0  0  0  0
  2  6  2  0  0  0  0
  3 10  2  0  0  0  0
  3 18  1  0  0  0  0
  4 11  1  0  0  0  0
  4 18  2  0  0  0  0
  5 20  1  0  0  0  0
  6 22  1  0  0  0  0
  7 12  2  0  0  0  0
  7 21  1  0  0  0  0
  8  9  2  0  0  0  0
  8 24  1  0  0  0  0
  9 25  1  0  0  0  0
 10 27  1  0  0  0  0
 11 27  2  0  0  0  0
 12 28  1  0  0  0  0
 13 14  2  0  0  0  0
 13 29  1  0  0  0  0
 14 30  1  0  0  0  0
 15 23  1  0  0  0  0
 15 28  2  0  0  0  0
 16 24  2  0  0  0  0
 16 26  1  0  0  0  0
 17 30  2  0  0  0  0
 17 31  1  0  0  0  0
 18 32  1  0  0  0  0
 19 32  1  0  0  0  0
 19 33  2  0  0  0  0
 19 34  1  0  0  0  0
 20 22  2  0  0  0  0
 20 39  1  0  0  0  0
 21 23  2  0  0  0  0
 21 40  1  0  0  0  0
 22 48  1  0  0  0  0
 23 41  1  0  0  0  0
 24 57  1  0  0  0  0
 25 26  2  0  0  0  0
 25 58  1  0  0  0  0
 26 51  1  0  0  0  0
 27 80  1  0  0  0  0
 28 81  1  0  0  0  0
 29 31  2  0  0  0  0
 29 80  1  0  0  0  0
 30 82  1  0  0  0  0
 31 83  1  0  0  0  0
 32 64  2  0  0  0  0
 33 65  1  0  0  0  0
 33 68  1  0  0  0  0
 34 69  1  0  0  0  0
 34 75  2  0  0  0  0
 35 49  1  0  0  0  0
 35 70  1  0  0  0  0
 35 76  2  0  0  0  0
 36 61  1  0  0  0  0
 36 66  1  0  0  0  0
 36 77  2  0  0  0  0
 37 62  1  0  0  0  0
 37 71  1  0  0  0  0
 37 78  2  0  0  0  0
 38 67  1  0  0  0  0
 38 72  1  0  0  0  0
 38 79  2  0  0  0  0
 39 42  1  0  0  0  0
 40 49  1  0  0  0  0
 41 66  1  0  0  0  0
 42 44  1  0  0  0  0
 43 45  1  0  0  0  0
 43 46  1  0  0  0  0
 44 48  1  0  0  0  0
 45 50  1  0  0  0  0
 46 67  1  0  0  0  0
 47 50  1  0  0  0  0
 47 67  1  0  0  0  0
 48 70  1  0  0  0  0
 49 66  1  0  0  0  0
 50 65  1  0  0  0  0
 52 62  1  0  0  0  0
 53 63  1  0  0  0  0
 54 63  1  0  0  0  0
 55 63  1  0  0  0  0
 56 73  1  0  0  0  0
 57 74  1  0  0  0  0
 58 81  1  0  0  0  0
 59 60  1  0  0  0  0
 59 72  1  0  0  0  0
 60 74  1  0  0  0  0
 61 63  1  0  0  0  0
 61 71  1  0  0  0  0
 62 73  1  0  0  0  0
 64 65  1  0  0  0  0
M  CHG  2  73   1  74   1
M  ISO  4  38 100  58 101  72 100  81 101
M  END
> <Batch ID>
0131

> <Smiles>
CNC(C)C(=O)NC(C(=O)N1Cc2cc([101O:1][101CH2:1]c3ccc(CNCC[100NH:0][100C:0](=O)N4CCCC(n5nc(-c6ccc(Oc7ccc(F)cc7F)cc6)c(C(N)=O)c5N)C4)cc3C)ccc2CC1C(=O)NC1CCCc2ccccc21)C(C)(C)C

> <Shape>
0.215

> <Color>
0.100

> <Negative vol penalty>
0.000

$$$$

  -OEChem-04052320503D

 84 92  0     1  0  0  0  0  0999 V2000
  -28.0087  -38.9332   23.3479 C   0  0  0  0  0  0  0  0  0  0  0  0
  -28.7478  -37.8173   22.9687 C   0  0  0  0  0  0  0  0  0  0  0  0
  -24.8778   -8.2652   21.2305 C   0  0  0  0  0  0  0  0  0  0  0  0
  -23.7867  -10.3831   21.6317 C   0  0  0  0  0  0  0  0  0  0  0  0
  -26.9670  -38.7993   24.2649 C   0  0  0  0  0  0  0  0  0  0  0  0
  -28.4464  -36.5669   23.5072 C   0  0  0  0  0  0  0  0  0  0  0  0
  -28.8528  -31.1477   20.6836 C   0  0  0  0  0  0  0  0  0  0  0  0
  -24.1340   -7.6871   22.2591 C   0  0  0  0  0  0  0  0  0  0  0  0
  -23.0428   -9.8050   22.6603 C   0  0  0  0  0  0  0  0  0  0  0  0
  -29.8295  -30.1528   20.6991 C   0  0  0  0  0  0  0  0  0  0  0  0
  -20.9995   -6.4993   22.7027 C   0  0  0  0  0  0  0  0  0  0  0  0
  -27.6841  -18.8997   20.5746 C   0  0  0  0  0  0  0  0  0  0  0  0
  -20.4218   -5.2525   22.4633 C   0  0  0  0  0  0  0  0  0  0  0  0
  -27.7784  -17.5150   20.4899 C   0  0  0  0  0  0  0  0  0  0  0  0
  -28.5894  -28.9704   22.3971 C   0  0  0  0  0  0  0  0  0  0  0  0
  -21.6814   -4.3161   24.3000 C   0  0  0  0  0  0  0  0  0  0  0  0
  -30.0332  -19.0290   20.2263 C   0  0  0  0  0  0  0  0  0  0  0  0
  -24.7042   -9.6132   20.9168 C   0  0  0  0  0  0  0  0  0  0  0  0
  -25.1237  -10.2895   18.4931 C   0  0  0  0  0  0  0  0  0  0  0  0
  -26.6464  -37.5449   24.8075 C   0  0  0  0  0  0  0  0  0  0  0  0
  -27.7407  -31.0667   21.5339 C   0  0  0  0  0  0  0  0  0  0  0  0
  -27.4003  -36.4162   24.4333 C   0  0  0  0  0  0  0  0  0  0  0  0
  -27.5988  -29.9642   22.3886 C   0  0  0  0  0  0  0  0  0  0  0  0
  -23.2165   -8.4570   22.9740 C   0  0  0  0  0  0  0  0  0  0  0  0
  -29.6993  -29.0654   21.5580 C   0  0  0  0  0  0  0  0  0  0  0  0
  -28.8283  -19.6783   20.4414 C   0  0  0  0  0  0  0  0  0  0  0  0
  -21.9183   -6.6545   23.7408 C   0  0  0  0  0  0  0  0  0  0  0  0
  -20.7627   -4.1609   23.2619 C   0  0  0  0  0  0  0  0  0  0  0  0
  -22.2592   -5.5629   24.5394 C   0  0  0  0  0  0  0  0  0  0  0  0
  -25.4727  -10.2111   19.8546 C   0  0  0  0  0  0  0  0  0  0  0  0
  -29.0303  -16.9625   20.2724 C   0  0  0  0  0  0  0  0  0  0  0  0
  -26.1781  -10.9450   17.9056 C   0  0  0  0  0  0  0  0  0  0  0  0
  -23.9513   -9.8126   17.8196 C   0  0  0  0  0  0  0  0  0  0  0  0
  -26.5931  -32.8499   23.9018 C   0  0  0  0  0  0  0  0  0  0  0  0
  -24.1156  -30.7613   23.7527 C   0  0  0  0  0  0  0  0  0  0  0  0
  -22.9876  -27.6623   22.8749 C   0  0  0  0  0  0  0  0  0  0  0  0
  -30.2617  -14.7850   19.9752 C   0  0  0  0  0  0  0  0  0  0  0  0
  -25.5422  -37.4576   25.8312 C   0  0  0  0  0  0  0  0  0  0  0  0
  -26.6826  -32.1346   21.4860 C   0  0  0  0  0  0  0  0  0  0  0  0
  -26.4135  -29.8200   23.3067 C   0  0  0  0  0  0  0  0  0  0  0  0
  -25.0449  -36.0343   26.0707 C   0  0  0  0  0  0  0  0  0  0  0  0
  -30.8885  -11.6554   18.3972 C   0  0  0  0  0  0  0  0  0  0  0  0
  -26.2220  -35.0792   26.2415 C   0  0  0  0  0  0  0  0  0  0  0  0
  -29.5375  -10.9394   18.4626 C   0  0  0  0  0  0  0  0  0  0  0  0
  -31.1508  -12.4872   19.6515 C   0  0  0  0  0  0  0  0  0  0  0  0
  -28.7336  -12.7181   20.0679 C   0  0  0  0  0  0  0  0  0  0  0  0
  -27.0877  -35.0388   24.9765 C   0  0  1  0  0  0  0  0  0  0  0  0
  -25.8511  -32.2096   22.7629 C   0  0  1  0  0  0  0  0  0  0  0  0
  -28.3961  -11.9192   18.7985 C   0  0  2  0  0  0  0  0  0  0  0  0
  -20.9249  -26.2336   22.9109 C   0  0  0  0  0  0  0  0  0  0  0  0
  -24.5012  -30.2840   26.7416 C   0  0  0  0  0  0  0  0  0  0  0  0
  -23.1058  -28.2171   26.5207 C   0  0  0  0  0  0  0  0  0  0  0  0
  -22.1152  -30.4490   26.0108 C   0  0  0  0  0  0  0  0  0  0  0  0
  -22.9574  -27.4287   19.9248 C   0  0  0  0  0  0  0  0  0  0  0  0
  -29.7093  -23.2458   20.4679 C   0  0  0  0  0  0  0  0  0  0  0  0
  -30.9856  -24.0581   20.3310 C   0  0  0  0  0  0  0  0  0  0  0  0
  -31.8265  -26.4101   20.3233 C   0  0  0  0  0  0  0  0  0  0  0  0
  -29.9888  -21.7529   20.3713 C   0  0  0  0  0  0  0  0  0  0  0  0
  -31.3539  -27.8501   20.3576 C   0  0  0  0  0  0  0  0  0  1  0  0
  -23.7898  -29.4406   24.4074 C   0  0  1  0  0  0  0  0  0  0  0  0
  -21.7567  -27.2191   22.1049 C   0  0  2  0  0  0  0  0  0  0  0  0
  -23.4014  -29.6011   25.9043 C   0  0  0  0  0  0  0  0  0  0  0  0
  -30.1642  -17.6864   20.1380 N   0  0  0  0  0  0  0  0  0  0  0  0
  -26.6563  -10.7718   20.1167 N   0  0  0  0  0  0  0  0  0  0  0  0
  -27.0603  -11.2087   18.9117 N   0  0  0  0  0  0  0  0  0  0  0  0
  -25.4089  -30.8933   23.2276 N   0  0  0  0  0  0  0  0  0  0  0  0
  -30.0298  -13.3950   19.9046 N   0  0  0  0  0  0  0  0  0  0  0  0
  -26.4274  -11.3156   16.6317 N   0  0  0  0  0  0  0  0  0  0  0  0
  -22.9659   -9.1612   18.5739 N   0  0  0  0  0  0  0  0  0  0  0  0
  -29.1158  -15.5507   20.1876 N   0  0  0  0  0  0  0  0  0  0  0  0
  -26.4585  -34.2239   23.9593 N   0  0  0  0  0  0  0  0  0  0  0  0
  -22.7561  -28.8214   23.5850 N   0  0  0  0  0  0  0  0  0  0  0  0
  -22.1534  -26.5641   20.8265 N   0  3  0  0  0  0  0  0  0  0  0  0
  -30.6501  -25.5066   20.3869 N   0  3  0  0  0  0  0  0  0  0  0  0
  -23.7899   -9.9452   16.5827 O   0  0  0  0  0  0  0  0  0  0  0  0
  -27.2386  -32.1490   24.6723 O   0  0  0  0  0  0  0  0  0  0  0  0
  -23.2520  -31.6407   23.7025 O   0  0  0  0  0  0  0  0  0  0  0  0
  -24.0474  -27.0402   22.8520 O   0  0  0  0  0  0  0  0  0  0  0  0
  -31.3896  -15.2630   19.8290 O   0  0  0  0  0  0  0  0  0  0  0  0
  -22.4904   -7.8931   23.9777 O   0  0  0  0  0  0  0  0  0  0  0  0
  -30.6514  -28.0933   21.5756 O   0  0  0  0  0  0  0  0  0  1  0  0
  -28.7656  -21.0454   20.5201 O   0  0  0  0  0  0  0  0  0  0  0  0
  -20.2067   -2.9640   23.0329 F   0  0  0  0  0  0  0  0  0  0  0  0
  -23.1403   -5.7061   25.5389 F   0  0  0  0  0  0  0  0  0  0  0  0
  1  2  1  0  0  0  0
  1  5  2  0  0  0  0
  2  6  2  0  0  0  0
  3  8  2  0  0  0  0
  3 18  1  0  0  0  0
  4  9  1  0  0  0  0
  4 18  2  0  0  0  0
  5 20  1  0  0  0  0
  6 22  1  0  0  0  0
  7 10  2  0  0  0  0
  7 21  1  0  0  0  0
  8 24  1  0  0  0  0
  9 24  2  0  0  0  0
 10 25  1  0  0  0  0
 11 13  2  0  0  0  0
 11 27  1  0  0  0  0
 12 14  2  0  0  0  0
 12 26  1  0  0  0  0
 13 28  1  0  0  0  0
 14 31  1  0  0  0  0
 15 23  1  0  0  0  0
 15 25  2  0  0  0  0
 16 28  2  0  0  0  0
 16 29  1  0  0  0  0
 17 26  2  0  0  0  0
 17 63  1  0  0  0  0
 18 30  1  0  0  0  0
 19 30  1  0  0  0  0
 19 32  2  0  0  0  0
 19 33  1  0  0  0  0
 20 22  2  0  0  0  0
 20 38  1  0  0  0  0
 21 23  2  0  0  0  0
 21 39  1  0  0  0  0
 22 47  1  0  0  0  0
 23 40  1  0  0  0  0
 24 80  1  0  0  0  0
 25 81  1  0  0  0  0
 26 82  1  0  0  0  0
 27 29  2  0  0  0  0
 27 80  1  0  0  0  0
 28 83  1  0  0  0  0
 29 84  1  0  0  0  0
 30 64  2  0  0  0  0
 31 63  2  0  0  0  0
 31 70  1  0  0  0  0
 32 65  1  0  0  0  0
 32 68  1  0  0  0  0
 33 69  1  0  0  0  0
 33 75  2  0  0  0  0
 34 48  1  0  0  0  0
 34 71  1  0  0  0  0
 34 76  2  0  0  0  0
 35 60  1  0  0  0  0
 35 66  1  0  0  0  0
 35 77  2  0  0  0  0
 36 61  1  0  0  0  0
 36 72  1  0  0  0  0
 36 78  2  0  0  0  0
 37 67  1  0  0  0  0
 37 70  1  0  0  0  0
 37 79  2  0  0  0  0
 38 41  1  0  0  0  0
 39 48  1  0  0  0  0
 40 66  1  0  0  0  0
 41 43  1  0  0  0  0
 42 44  1  0  0  0  0
 42 45  1  0  0  0  0
 43 47  1  0  0  0  0
 44 49  1  0  0  0  0
 45 67  1  0  0  0  0
 46 49  1  0  0  0  0
 46 67  1  0  0  0  0
 47 71  1  0  0  0  0
 48 66  1  0  0  0  0
 49 65  1  0  0  0  0
 50 61  1  0  0  0  0
 51 62  1  0  0  0  0
 52 62  1  0  0  0  0
 53 62  1  0  0  0  0
 54 73  1  0  0  0  0
 55 56  1  0  0  0  0
 55 58  1  0  0  0  0
 56 74  1  0  0  0  0
 57 59  1  0  0  0  0
 57 74  1  0  0  0  0
 58 82  1  0  0  0  0
 59 81  1  0  0  0  0
 60 62  1  0  0  0  0
 60 72  1  0  0  0  0
 61 73  1  0  0  0  0
 64 65  1  0  0  0  0
M  CHG  2  73   1  74   1
M  ISO  4  37 100  59 101  70 100  81 101
M  END
> <Batch ID>
0131

> <Smiles>
CNC(C)C(=O)NC(C(=O)N1Cc2cc([101O:1][101CH2:1]CNCCCOc3ccc([100NH:0][100C:0](=O)N4CCCC(n5nc(-c6ccc(Oc7ccc(F)cc7F)cc6)c(C(N)=O)c5N)C4)nc3)ccc2CC1C(=O)NC1CCCc2ccccc21)C(C)(C)C

> <Shape>
0.315

> <Color>
0.089

> <Negative vol penalty>
0.000

$$$$

  -OEChem-04052320503D

 87 96  0     1  0  0  0  0  0999 V2000
  -18.2480  -24.3038   23.5514 C   0  0  0  0  0  0  0  0  0  0  0  0
  -19.5923  -24.0622   23.2874 C   0  0  0  0  0  0  0  0  0  0  0  0
  -23.8956   -9.3066   20.9699 C   0  0  0  0  0  0  0  0  0  0  0  0
  -25.6561   -9.6653   22.5851 C   0  0  0  0  0  0  0  0  0  0  0  0
  -17.7118  -25.5713   23.3281 C   0  0  0  0  0  0  0  0  0  0  0  0
  -20.4010  -25.0876   22.7987 C   0  0  0  0  0  0  0  0  0  0  0  0
  -24.8850  -25.3096   25.1417 C   0  0  0  0  0  0  0  0  0  0  0  0
  -23.7335   -8.0021   21.4363 C   0  0  0  0  0  0  0  0  0  0  0  0
  -25.4940   -8.3608   23.0516 C   0  0  0  0  0  0  0  0  0  0  0  0
  -25.8492  -24.3775   24.7609 C   0  0  0  0  0  0  0  0  0  0  0  0
  -22.2571   -6.4595   24.0581 C   0  0  0  0  0  0  0  0  0  0  0  0
  -20.9561   -6.0050   24.2731 C   0  0  0  0  0  0  0  0  0  0  0  0
  -26.9064  -26.0459   23.3760 C   0  0  0  0  0  0  0  0  0  0  0  0
  -21.3063   -4.2400   22.6609 C   0  0  0  0  0  0  0  0  0  0  0  0
  -24.8570  -10.1382   21.5442 C   0  0  0  0  0  0  0  0  0  0  0  0
  -24.0600  -12.5102   21.0482 C   0  0  0  0  0  0  0  0  0  0  0  0
  -18.5166  -26.6154   22.8456 C   0  0  0  0  0  0  0  0  0  0  0  0
  -24.9179  -26.6161   24.6332 C   0  0  0  0  0  0  0  0  0  0  0  0
  -19.8748  -26.3699   22.5674 C   0  0  0  0  0  0  0  0  0  0  0  0
  -25.9429  -26.9935   23.7539 C   0  0  0  0  0  0  0  0  0  0  0  0
  -24.5326   -7.5292   22.4771 C   0  0  0  0  0  0  0  0  0  0  0  0
  -26.8585  -24.7447   23.8756 C   0  0  0  0  0  0  0  0  0  0  0  0
  -23.0828   -5.8044   23.1445 C   0  0  0  0  0  0  0  0  0  0  0  0
  -20.4807   -4.8952   23.5745 C   0  0  0  0  0  0  0  0  0  0  0  0
  -22.6074   -4.6946   22.4459 C   0  0  0  0  0  0  0  0  0  0  0  0
  -25.0254  -11.4857   21.0625 C   0  0  0  0  0  0  0  0  0  0  0  0
  -24.7104  -13.5872   20.4972 C   0  0  0  0  0  0  0  0  0  0  0  0
  -22.6972  -12.4902   21.4933 C   0  0  0  0  0  0  0  0  0  0  0  0
  -22.9601  -28.3822   22.8580 C   0  0  0  0  0  0  0  0  0  0  0  0
  -25.1161  -30.7191   23.5004 C   0  0  0  0  0  0  0  0  0  0  0  0
  -28.3089  -31.5568   24.3670 C   0  0  0  0  0  0  0  0  0  0  0  0
  -30.4247  -15.0601   20.3168 C   0  0  0  0  0  0  0  0  0  0  0  0
  -17.8811  -27.9562   22.5750 C   0  0  0  0  0  0  0  0  0  0  0  0
  -23.8859  -27.6173   25.0747 C   0  0  0  0  0  0  0  0  0  0  0  0
  -26.0346  -28.3892   23.1953 C   0  0  0  0  0  0  0  0  0  0  0  0
  -18.8927  -29.0876   22.4106 C   0  0  0  0  0  0  0  0  0  0  0  0
  -28.2425  -14.6738   17.4556 C   0  0  0  0  0  0  0  0  0  0  0  0
  -31.1662  -18.3100   17.7856 C   0  0  0  0  0  0  0  0  0  0  0  0
  -20.0253  -28.6604   21.4825 C   0  0  0  0  0  0  0  0  0  0  0  0
  -27.0715  -13.9031   18.0681 C   0  0  0  0  0  0  0  0  0  0  0  0
  -27.2103  -21.6150   24.2667 C   0  0  0  0  0  0  0  0  0  0  0  0
  -32.5497  -18.2429   18.4043 C   0  0  0  0  0  0  0  0  0  0  0  0
  -27.4776  -20.8778   22.9539 C   0  0  0  0  0  0  0  0  0  0  0  0
  -29.5736  -14.2174   18.0456 C   0  0  0  0  0  0  0  0  0  0  0  0
  -28.4809  -13.5321   20.1456 C   0  0  0  0  0  0  0  0  0  0  0  0
  -30.3827  -19.1019   18.8085 C   0  0  0  0  0  0  0  0  0  0  0  0
  -29.5992  -22.4503   24.2653 C   0  0  0  0  0  0  0  0  0  0  0  0
  -20.7900  -27.4632   22.0601 C   0  0  1  0  0  0  0  0  0  0  0  0
  -23.7183  -28.7743   24.0946 C   0  0  1  0  0  0  0  0  0  0  0  0
  -27.1047  -13.9632   19.6068 C   0  0  2  0  0  0  0  0  0  0  0  0
  -28.1335  -22.8206   24.4457 C   0  0  1  0  0  0  0  0  0  1  0  0
  -32.3016  -18.0419   19.8991 C   0  0  2  0  0  0  0  0  0  0  0  0
  -28.9511  -20.4987   22.8129 C   0  0  1  0  0  0  0  0  0  0  0  0
  -29.7808  -33.5474   24.7777 C   0  0  0  0  0  0  0  0  0  0  0  0
  -31.3277  -18.8189   22.5041 C   0  0  0  0  0  0  0  0  0  0  0  0
  -25.3143  -31.1901   20.4922 C   0  0  0  0  0  0  0  0  0  0  0  0
  -27.4276  -32.4685   20.9021 C   0  0  0  0  0  0  0  0  0  0  0  0
  -25.2762  -33.2742   21.8742 C   0  0  0  0  0  0  0  0  0  0  0  0
  -28.8060  -30.7562   27.1725 C   0  0  0  0  0  0  0  0  0  0  0  0
  -32.3824  -16.5847   20.3307 C   0  0  0  0  0  0  0  0  0  0  0  0
  -26.3809  -31.2169   22.8434 C   0  0  1  0  0  0  0  0  0  0  0  0
  -28.8503  -32.5218   25.4063 C   0  0  2  0  0  0  0  0  0  0  0  0
  -29.2553  -19.8756   21.4584 C   0  0  2  0  0  0  0  0  0  0  0  0
  -30.7315  -19.4907   21.2718 C   0  0  2  0  0  0  0  0  0  0  0  0
  -26.0972  -32.0105   21.5368 C   0  0  0  0  0  0  0  0  0  0  0  0
  -26.1997  -11.8766   20.5603 N   0  0  0  0  0  0  0  0  0  0  0  0
  -25.9764  -13.1588   20.2252 N   0  0  0  0  0  0  0  0  0  0  0  0
  -24.9986  -29.3303   23.6521 N   0  0  0  0  0  0  0  0  0  0  0  0
  -29.5456  -14.3168   19.5117 N   0  0  0  0  0  0  0  0  0  0  0  0
  -24.3172  -14.8493   20.2237 N   0  0  0  0  0  0  0  0  0  0  0  0
  -22.4236  -12.8371   22.8234 N   0  0  0  0  0  0  0  0  0  0  0  0
  -21.6908  -27.8960   23.1068 N   0  0  0  0  0  0  0  0  0  0  0  0
  -27.0973  -31.9779   23.8612 N   0  0  0  0  0  0  0  0  0  0  0  0
  -31.4087  -15.7695   19.6391 N   0  0  0  0  0  0  0  0  0  0  0  0
  -29.7808  -21.7402   22.9600 N   0  3  0  0  0  0  0  0  0  0  0  0
  -30.8764  -18.5433   20.1233 N   0  3  1  0  0  0  0  0  0  0  0  0
  -29.6067  -31.7819   26.4558 N   0  3  0  0  0  0  0  0  0  0  0  0
  -21.7519  -12.1582   20.7385 O   0  0  0  0  0  0  0  0  0  0  0  0
  -23.4871  -28.5125   21.7594 O   0  0  0  0  0  0  0  0  0  0  0  0
  -24.2670  -31.5331   23.8719 O   0  0  0  0  0  0  0  0  0  0  0  0
  -28.9033  -30.5338   24.0343 O   0  0  0  0  0  0  0  0  0  0  0  0
  -30.3361  -15.0935   21.5489 O   0  0  0  0  0  0  0  0  0  0  0  0
  -28.8538  -20.7756   20.4264 O   0  0  0  0  0  0  0  0  0  0  0  0
  -24.3745   -6.2564   22.9327 O   0  0  0  0  0  0  0  0  0  0  0  0
  -27.8005  -23.8367   23.5017 O   0  0  0  0  0  0  0  0  0  1  0  0
  -19.2318   -4.4579   23.7822 F   0  0  0  0  0  0  0  0  0  0  0  0
  -23.3963   -4.0603   21.5678 F   0  0  0  0  0  0  0  0  0  0  0  0
  1  2  1  0  0  0  0
  1  5  2  0  0  0  0
  2  6  2  0  0  0  0
  3  8  2  0  0  0  0
  3 15  1  0  0  0  0
  4  9  1  0  0  0  0
  4 15  2  0  0  0  0
  5 17  1  0  0  0  0
  6 19  1  0  0  0  0
  7 10  2  0  0  0  0
  7 18  1  0  0  0  0
  8 21  1  0  0  0  0
  9 21  2  0  0  0  0
 10 22  1  0  0  0  0
 11 12  2  0  0  0  0
 11 23  1  0  0  0  0
 12 24  1  0  0  0  0
 13 20  1  0  0  0  0
 13 22  2  0  0  0  0
 14 24  2  0  0  0  0
 14 25  1  0  0  0  0
 15 26  1  0  0  0  0
 16 26  1  0  0  0  0
 16 27  2  0  0  0  0
 16 28  1  0  0  0  0
 17 19  2  0  0  0  0
 17 33  1  0  0  0  0
 18 20  2  0  0  0  0
 18 34  1  0  0  0  0
 19 48  1  0  0  0  0
 20 35  1  0  0  0  0
 21 84  1  0  0  0  0
 22 85  1  0  0  0  0
 23 25  2  0  0  0  0
 23 84  1  0  0  0  0
 24 86  1  0  0  0  0
 25 87  1  0  0  0  0
 26 66  2  0  0  0  0
 27 67  1  0  0  0  0
 27 70  1  0  0  0  0
 28 71  1  0  0  0  0
 28 78  2  0  0  0  0
 29 49  1  0  0  0  0
 29 72  1  0  0  0  0
 29 79  2  0  0  0  0
 30 61  1  0  0  0  0
 30 68  1  0  0  0  0
 30 80  2  0  0  0  0
 31 62  1  0  0  0  0
 31 73  1  0  0  0  0
 31 81  2  0  0  0  0
 32 69  1  0  0  0  0
 32 74  1  0  0  0  0
 32 82  2  0  0  0  0
 33 36  1  0  0  0  0
 34 49  1  0  0  0  0
 35 68  1  0  0  0  0
 36 39  1  0  0  0  0
 37 40  1  0  0  0  0
 37 44  1  0  0  0  0
 38 42  1  0  0  0  0
 38 46  1  0  0  0  0
 39 48  1  0  0  0  0
 40 50  1  0  0  0  0
 41 43  1  0  0  0  0
 41 51  1  0  0  0  0
 42 52  1  0  0  0  0
 43 53  1  0  0  0  0
 44 69  1  0  0  0  0
 45 50  1  0  0  0  0
 45 69  1  0  0  0  0
 46 76  1  0  0  0  0
 47 51  1  0  0  0  0
 47 75  1  0  0  0  0
 48 72  1  0  0  0  0
 49 68  1  0  0  0  0
 50 67  1  0  0  0  0
 51 85  1  0  0  0  0
 52 60  1  0  0  0  0
 52 76  1  0  0  0  0
 53 63  1  0  0  0  0
 53 75  1  0  0  0  0
 54 62  1  0  0  0  0
 55 64  1  0  0  0  0
 56 65  1  0  0  0  0
 57 65  1  0  0  0  0
 58 65  1  0  0  0  0
 59 77  1  0  0  0  0
 60 74  1  0  0  0  0
 61 65  1  0  0  0  0
 61 73  1  0  0  0  0
 62 77  1  0  0  0  0
 63 64  1  0  0  0  0
 63 83  1  0  0  0  0
 64 76  1  0  0  0  0
 66 67  1  0  0  0  0
M  CHG  3  75   1  76   1  77   1
M  ISO  4  32 100  51 101  74 100  85 101
M  END
> <Batch ID>
0131

> <Smiles>
CNC(C)C(=O)NC(C(=O)N1Cc2cc([101O:1][101CH:1]3CCC(C(O)C(C)N4CCCC4C[100NH:0][100C:0](=O)N4CCCC(n5nc(-c6ccc(Oc7ccc(F)cc7F)cc6)c(C(N)=O)c5N)C4)NC3)ccc2CC1C(=O)NC1CCCc2ccccc21)C(C)(C)C

> <Shape>
0.283

> <Color>
0.107

> <Negative vol penalty>
0.000

$$$$

  -OEChem-04052320503D

 84 92  0     1  0  0  0  0  0999 V2000
  -17.4742  -25.8995   22.6141 C   0  0  0  0  0  0  0  0  0  0  0  0
  -18.7749  -25.4321   22.4562 C   0  0  0  0  0  0  0  0  0  0  0  0
  -24.6275  -14.6394   24.0694 C   0  0  0  0  0  0  0  0  0  0  0  0
  -24.0930  -16.3137   22.4117 C   0  0  0  0  0  0  0  0  0  0  0  0
  -17.1745  -27.2318   22.3329 C   0  0  0  0  0  0  0  0  0  0  0  0
  -19.7766  -26.2965   22.0158 C   0  0  0  0  0  0  0  0  0  0  0  0
  -25.6688  -26.2580   23.6850 C   0  0  0  0  0  0  0  0  0  0  0  0
  -24.2232  -15.5112   25.0804 C   0  0  0  0  0  0  0  0  0  0  0  0
  -23.6886  -17.1856   23.4227 C   0  0  0  0  0  0  0  0  0  0  0  0
  -26.8113  -25.7347   23.0813 C   0  0  0  0  0  0  0  0  0  0  0  0
  -25.1525  -19.2381   25.6755 C   0  0  0  0  0  0  0  0  0  0  0  0
  -25.5860  -20.5617   25.6016 C   0  0  0  0  0  0  0  0  0  0  0  0
  -27.2860  -27.8958   22.1202 C   0  0  0  0  0  0  0  0  0  0  0  0
  -23.2901  -21.3089   25.5149 C   0  0  0  0  0  0  0  0  0  0  0  0
  -24.5625  -15.0407   22.7351 C   0  0  0  0  0  0  0  0  0  0  0  0
  -24.1825  -13.2063   21.0035 C   0  0  0  0  0  0  0  0  0  0  0  0
  -18.1750  -28.1154   21.8981 C   0  0  0  0  0  0  0  0  0  0  0  0
  -25.3197  -27.6037   23.5017 C   0  0  0  0  0  0  0  0  0  0  0  0
  -19.4897  -27.6415   21.7272 C   0  0  0  0  0  0  0  0  0  0  0  0
  -26.1399  -28.4343   22.7248 C   0  0  0  0  0  0  0  0  0  0  0  0
  -23.7537  -16.7843   24.7571 C   0  0  0  0  0  0  0  0  0  0  0  0
  -27.6185  -26.5529   22.2964 C   0  0  0  0  0  0  0  0  0  0  0  0
  -23.7877  -18.9498   25.6691 C   0  0  0  0  0  0  0  0  0  0  0  0
  -24.6549  -21.5972   25.5213 C   0  0  0  0  0  0  0  0  0  0  0  0
  -22.8566  -19.9852   25.5888 C   0  0  0  0  0  0  0  0  0  0  0  0
  -24.9805  -14.1408   21.6903 C   0  0  0  0  0  0  0  0  0  0  0  0
  -25.0430  -12.6053   20.1177 C   0  0  0  0  0  0  0  0  0  0  0  0
  -22.7880  -12.9083   21.1528 C   0  0  0  0  0  0  0  0  0  0  0  0
  -22.8382  -29.1232   22.2223 C   0  0  0  0  0  0  0  0  0  0  0  0
  -24.3501  -31.7512   23.3756 C   0  0  0  0  0  0  0  0  0  0  0  0
  -27.2691  -33.2086   24.3769 C   0  0  0  0  0  0  0  0  0  0  0  0
  -30.1594  -14.3786   17.5626 C   0  0  0  0  0  0  0  0  0  0  0  0
  -17.7933  -29.5350   21.5611 C   0  0  0  0  0  0  0  0  0  0  0  0
  -24.0986  -28.1595   24.1816 C   0  0  0  0  0  0  0  0  0  0  0  0
  -25.8202  -29.8909   22.5133 C   0  0  0  0  0  0  0  0  0  0  0  0
  -18.9886  -30.4790   21.4580 C   0  0  0  0  0  0  0  0  0  0  0  0
  -29.6590  -11.4757   19.5624 C   0  0  0  0  0  0  0  0  0  0  0  0
  -20.0983  -29.8460   20.6246 C   0  0  0  0  0  0  0  0  0  0  0  0
  -28.3312  -11.7453   20.2726 C   0  0  0  0  0  0  0  0  0  0  0  0
  -31.1375  -21.3846   18.6175 C   0  0  0  0  0  0  0  0  0  0  0  0
  -29.0988  -21.3758   17.1103 C   0  0  0  0  0  0  0  0  0  0  0  0
  -30.5529  -22.5595   19.4014 C   0  0  0  0  0  0  0  0  0  0  0  0
  -28.5140  -22.5504   17.8944 C   0  0  0  0  0  0  0  0  0  0  0  0
  -30.4826  -12.7517   19.4024 C   0  0  0  0  0  0  0  0  0  0  0  0
  -28.4459  -14.1382   19.4606 C   0  0  0  0  0  0  0  0  0  0  0  0
  -20.6087  -28.5546   21.2753 C   0  0  1  0  0  0  0  0  0  0  0  0
  -23.5596  -29.4173   23.5072 C   0  0  1  0  0  0  0  0  0  0  0  0
  -27.5555  -12.8911   19.5953 C   0  0  2  0  0  0  0  0  0  0  0  0
  -30.0300  -20.5412   17.9880 C   0  0  0  0  0  0  0  0  0  0  0  0
  -29.6216  -23.3938   18.5235 C   0  0  0  0  0  0  0  0  0  0  0  0
  -28.1957  -35.3786   25.2311 C   0  0  0  0  0  0  0  0  0  0  0  0
  -24.1876  -32.9248   20.5637 C   0  0  0  0  0  0  0  0  0  0  0  0
  -25.9177  -34.6035   21.2397 C   0  0  0  0  0  0  0  0  0  0  0  0
  -23.7113  -34.5518   22.4023 C   0  0  0  0  0  0  0  0  0  0  0  0
  -28.1713  -31.9618   26.9048 C   0  0  0  0  0  0  0  0  0  0  0  0
  -30.5080  -17.3044   16.0327 C   0  0  0  0  0  0  0  0  0  0  0  0
  -29.6889  -16.0428   15.7826 C   0  0  0  0  0  0  0  0  0  0  0  0
  -29.7738  -18.3033   16.9181 C   0  0  0  0  0  0  0  0  0  0  0  0
  -29.8936  -25.6087   19.6443 C   0  0  0  0  0  0  0  0  0  0  0  0
  -29.1399  -26.6325   20.4702 C   0  0  0  0  0  0  0  0  0  1  0  0
  -25.3865  -32.7095   22.8402 C   0  0  1  0  0  0  0  0  0  0  0  0
  -27.6169  -34.0240   25.6091 C   0  0  2  0  0  0  0  0  0  0  0  0
  -24.8060  -33.6695   21.7637 C   0  0  0  0  0  0  0  0  0  0  0  0
  -26.2505  -14.1372   21.2765 N   0  0  0  0  0  0  0  0  0  0  0  0
  -26.2570  -13.1931   20.3201 N   0  0  0  0  0  0  0  0  0  0  0  0
  -24.6121  -30.3859   23.1938 N   0  0  0  0  0  0  0  0  0  0  0  0
  -29.6898  -13.7980   18.7523 N   0  0  0  0  0  0  0  0  0  0  0  0
  -24.8722  -11.6365   19.1932 N   0  0  0  0  0  0  0  0  0  0  0  0
  -22.0515  -13.6196   22.1099 N   0  0  0  0  0  0  0  0  0  0  0  0
  -21.4909  -28.8603   22.3810 N   0  0  0  0  0  0  0  0  0  0  0  0
  -25.9545  -33.3867   24.0009 N   0  0  0  0  0  0  0  0  0  0  0  0
  -29.3442  -15.3580   17.0085 N   0  0  0  0  0  0  0  0  0  0  0  0
  -30.6512  -19.4778   17.1543 N   0  3  0  0  0  0  0  0  0  0  0  0
  -29.0009  -24.4577   19.3570 N   0  3  0  0  0  0  0  0  0  0  0  0
  -28.6185  -33.3011   26.4429 N   0  3  0  0  0  0  0  0  0  0  0  0
  -22.2158  -12.0256   20.4695 O   0  0  0  0  0  0  0  0  0  0  0  0
  -23.4577  -29.1355   21.1651 O   0  0  0  0  0  0  0  0  0  0  0  0
  -23.3486  -32.1975   23.9407 O   0  0  0  0  0  0  0  0  0  0  0  0
  -28.0832  -32.4887   23.8028 O   0  0  0  0  0  0  0  0  0  0  0  0
  -31.2236  -14.0449   17.0305 O   0  0  0  0  0  0  0  0  0  0  0  0
  -23.3589  -17.6351   25.7433 O   0  0  0  0  0  0  0  0  0  0  0  0
  -28.7340  -26.0445   21.7054 O   0  0  0  0  0  0  0  0  0  1  0  0
  -25.0713  -22.8683   25.4519 F   0  0  0  0  0  0  0  0  0  0  0  0
  -21.5441  -19.7145   25.5833 F   0  0  0  0  0  0  0  0  0  0  0  0
  1  2  1  0  0  0  0
  1  5  2  0  0  0  0
  2  6  2  0  0  0  0
  3  8  2  0  0  0  0
  3 15  1  0  0  0  0
  4  9  1  0  0  0  0
  4 15  2  0  0  0  0
  5 17  1  0  0  0  0
  6 19  1  0  0  0  0
  7 10  2  0  0  0  0
  7 18  1  0  0  0  0
  8 21  1  0  0  0  0
  9 21  2  0  0  0  0
 10 22  1  0  0  0  0
 11 12  2  0  0  0  0
 11 23  1  0  0  0  0
 12 24  1  0  0  0  0
 13 20  1  0  0  0  0
 13 22  2  0  0  0  0
 14 24  2  0  0  0  0
 14 25  1  0  0  0  0
 15 26  1  0  0  0  0
 16 26  1  0  0  0  0
 16 27  2  0  0  0  0
 16 28  1  0  0  0  0
 17 19  2  0  0  0  0
 17 33  1  0  0  0  0
 18 20  2  0  0  0  0
 18 34  1  0  0  0  0
 19 46  1  0  0  0  0
 20 35  1  0  0  0  0
 21 81  1  0  0  0  0
 22 82  1  0  0  0  0
 23 25  2  0  0  0  0
 23 81  1  0  0  0  0
 24 83  1  0  0  0  0
 25 84  1  0  0  0  0
 26 64  2  0  0  0  0
 27 65  1  0  0  0  0
 27 68  1  0  0  0  0
 28 69  1  0  0  0  0
 28 76  2  0  0  0  0
 29 47  1  0  0  0  0
 29 70  1  0  0  0  0
 29 77  2  0  0  0  0
 30 61  1  0  0  0  0
 30 66  1  0  0  0  0
 30 78  2  0  0  0  0
 31 62  1  0  0  0  0
 31 71  1  0  0  0  0
 31 79  2  0  0  0  0
 32 67  1  0  0  0  0
 32 72  1  0  0  0  0
 32 80  2  0  0  0  0
 33 36  1  0  0  0  0
 34 47  1  0  0  0  0
 35 66  1  0  0  0  0
 36 38  1  0  0  0  0
 37 39  1  0  0  0  0
 37 44  1  0  0  0  0
 38 46  1  0  0  0  0
 39 48  1  0  0  0  0
 40 42  1  0  0  0  0
 40 49  1  0  0  0  0
 41 43  1  0  0  0  0
 41 49  1  0  0  0  0
 42 50  1  0  0  0  0
 43 50  1  0  0  0  0
 44 67  1  0  0  0  0
 45 48  1  0  0  0  0
 45 67  1  0  0  0  0
 46 70  1  0  0  0  0
 47 66  1  0  0  0  0
 48 65  1  0  0  0  0
 49 73  1  0  0  0  0
 50 74  1  0  0  0  0
 51 62  1  0  0  0  0
 52 63  1  0  0  0  0
 53 63  1  0  0  0  0
 54 63  1  0  0  0  0
 55 75  1  0  0  0  0
 56 57  1  0  0  0  0
 56 58  1  0  0  0  0
 57 72  1  0  0  0  0
 58 73  1  0  0  0  0
 59 60  1  0  0  0  0
 59 74  1  0  0  0  0
 60 82  1  0  0  0  0
 61 63  1  0  0  0  0
 61 71  1  0  0  0  0
 62 75  1  0  0  0  0
 64 65  1  0  0  0  0
M  CHG  3  73   1  74   1  75   1
M  ISO  4  32 100  60 101  72 100  82 101
M  END
> <Batch ID>
0131

> <Smiles>
CNC(C)C(=O)NC(C(=O)N1Cc2cc([101O:1][101CH2:1]CNC3CCC(NCCC[100NH:0][100C:0](=O)N4CCCC(n5nc(-c6ccc(Oc7ccc(F)cc7F)cc6)c(C(N)=O)c5N)C4)CC3)ccc2CC1C(=O)NC1CCCc2ccccc21)C(C)(C)C

> <Shape>
0.249

> <Color>
0.089

> <Negative vol penalty>
0.000

$$$$
