
  -OEChem-04052320523D

 83 92  0     1  0  0  0  0  0999 V2000
  -22.2703  -30.8462   23.3515 C   0  0  0  0  0  0  0  0  0  0  0  0
  -21.7088  -29.6193   23.0125 C   0  0  0  0  0  0  0  0  0  0  0  0
  -17.9498  -15.7978   16.8703 C   0  0  0  0  0  0  0  0  0  0  0  0
  -18.5530  -18.1411   17.2548 C   0  0  0  0  0  0  0  0  0  0  0  0
  -28.8725  -12.3592   21.0289 C   0  0  0  0  0  0  0  0  0  0  0  0
  -28.3385  -12.6312   18.6884 C   0  0  0  0  0  0  0  0  0  0  0  0
  -23.4814  -31.2383   22.7828 C   0  0  0  0  0  0  0  0  0  0  0  0
  -22.3577  -28.7842   22.1036 C   0  0  0  0  0  0  0  0  0  0  0  0
  -22.4832  -22.6617   22.1705 C   0  0  0  0  0  0  0  0  0  0  0  0
  -17.9258  -14.4707   17.3002 C   0  0  0  0  0  0  0  0  0  0  0  0
  -19.1236  -19.1242   18.0638 C   0  0  0  0  0  0  0  0  0  0  0  0
  -30.2112  -12.1481   20.6989 C   0  0  0  0  0  0  0  0  0  0  0  0
  -29.6772  -12.4201   18.3584 C   0  0  0  0  0  0  0  0  0  0  0  0
  -21.7499  -21.7008   21.4757 C   0  0  0  0  0  0  0  0  0  0  0  0
  -33.8322  -11.8956   20.5002 C   0  0  0  0  0  0  0  0  0  0  0  0
  -34.7989  -12.5555   21.2589 C   0  0  0  0  0  0  0  0  0  0  0  0
  -19.0410  -15.1111   19.3432 C   0  0  0  0  0  0  0  0  0  0  0  0
  -19.6441  -17.4544   19.7278 C   0  0  0  0  0  0  0  0  0  0  0  0
  -23.5197  -21.5381   19.8446 C   0  0  0  0  0  0  0  0  0  0  0  0
  -33.8601  -14.6833   20.6044 C   0  0  0  0  0  0  0  0  0  0  0  0
  -18.5201  -16.8004   17.6716 C   0  0  0  0  0  0  0  0  0  0  0  0
  -19.0738  -16.4519   18.9265 C   0  0  0  0  0  0  0  0  0  0  0  0
  -27.9361  -12.6007   20.0236 C   0  0  0  0  0  0  0  0  0  0  0  0
  -25.9309  -14.0486   20.6484 C   0  0  0  0  0  0  0  0  0  0  0  0
  -24.1502  -30.4034   21.8739 C   0  0  0  0  0  0  0  0  0  0  0  0
  -23.7377  -23.0766   21.7008 C   0  0  0  0  0  0  0  0  0  0  0  0
  -23.5782  -29.1661   21.5212 C   0  0  0  0  0  0  0  0  0  0  0  0
  -24.2681  -22.5025   20.5366 C   0  0  0  0  0  0  0  0  0  0  0  0
  -18.4703  -14.1280   18.5342 C   0  0  0  0  0  0  0  0  0  0  0  0
  -19.6681  -18.7815   19.2979 C   0  0  0  0  0  0  0  0  0  0  0  0
  -30.6136  -12.1786   19.3637 C   0  0  0  0  0  0  0  0  0  0  0  0
  -22.2668  -21.1410   20.3110 C   0  0  0  0  0  0  0  0  0  0  0  0
  -32.8795  -12.6296   19.7935 C   0  0  0  0  0  0  0  0  0  0  0  0
  -34.8129  -13.9493   21.3110 C   0  0  0  0  0  0  0  0  0  0  0  0
  -32.8934  -14.0234   19.8457 C   0  0  0  0  0  0  0  0  0  0  0  0
  -26.5530  -12.8183   20.3637 C   0  0  0  0  0  0  0  0  0  0  0  0
  -24.6228  -13.7201   20.9078 C   0  0  0  0  0  0  0  0  0  0  0  0
  -26.4860  -15.3703   20.6758 C   0  0  0  0  0  0  0  0  0  0  0  0
  -24.9597  -25.8374   20.7064 C   0  0  0  0  0  0  0  0  0  0  0  0
  -27.7231  -24.1403   20.6318 C   0  0  0  0  0  0  0  0  0  0  0  0
  -29.2482  -21.0960   20.3998 C   0  0  0  0  0  0  0  0  0  0  0  0
  -19.9802  -10.8815   19.6691 C   0  0  0  0  0  0  0  0  0  0  0  0
  -25.4335  -30.8909   21.2492 C   0  0  0  0  0  0  0  0  0  0  0  0
  -24.5280  -24.0947   22.4763 C   0  0  0  0  0  0  0  0  0  0  0  0
  -25.6191  -22.8989   20.0016 C   0  0  0  0  0  0  0  0  0  0  0  0
  -26.2442  -29.7840   20.5800 C   0  0  0  0  0  0  0  0  0  0  0  0
  -22.4408   -9.2140   21.6292 C   0  0  0  0  0  0  0  0  0  0  0  0
  -25.3422  -28.9113   19.7131 C   0  0  0  0  0  0  0  0  0  0  0  0
  -23.6796  -10.1010   21.4930 C   0  0  0  0  0  0  0  0  0  0  0  0
  -21.6374   -9.1635   20.3315 C   0  0  0  0  0  0  0  0  0  0  0  0
  -22.5021  -11.3675   19.6469 C   0  0  0  0  0  0  0  0  0  0  0  0
  -24.2642  -28.2217   20.5581 C   0  0  1  0  0  0  0  0  0  0  0  0
  -25.5686  -24.8172   21.6263 C   0  0  1  0  0  0  0  0  0  0  0  0
  -23.3143  -11.4944   20.9470 C   0  0  2  0  0  0  0  0  0  0  0  0
  -31.5192  -20.0308   20.3289 C   0  0  0  0  0  0  0  0  0  0  0  0
  -28.0548  -25.0458   17.7370 C   0  0  0  0  0  0  0  0  0  0  0  0
  -29.7622  -23.2389   17.4405 C   0  0  0  0  0  0  0  0  0  0  0  0
  -30.1606  -25.0711   19.0857 C   0  0  0  0  0  0  0  0  0  0  0  0
  -28.7264  -19.5470   22.8670 C   0  0  0  0  0  0  0  0  0  0  0  0
  -18.4434  -12.7090   18.9923 C   0  0  0  0  0  0  0  0  0  0  0  0
  -20.2812  -19.8400   20.1667 C   0  0  0  0  0  0  0  0  0  1  0  0
  -28.4330  -23.2981   19.5994 C   0  0  1  0  0  0  0  0  0  0  0  0
  -30.3609  -20.4621   21.2149 C   0  0  2  0  0  0  0  0  0  0  0  0
  -29.0763  -24.1572   18.4744 C   0  0  0  0  0  0  0  0  0  0  0  0
  -25.7094  -11.7852   20.4356 N   0  0  0  0  0  0  0  0  0  0  0  0
  -24.5439  -12.3657   20.7685 N   0  0  0  0  0  0  0  0  0  0  0  0
  -26.3506  -23.9027   20.7919 N   0  0  0  0  0  0  0  0  0  0  0  0
  -21.3220  -10.5170   19.8682 N   0  0  0  0  0  0  0  0  0  0  0  0
  -23.5438  -14.4606   21.2393 N   0  0  0  0  0  0  0  0  0  0  0  0
  -27.8476  -15.5294   20.3844 N   0  0  0  0  0  0  0  0  0  0  0  0
  -24.8247  -27.0924   21.2687 N   0  0  0  0  0  0  0  0  0  0  0  0
  -29.3814  -22.4668   20.3327 N   0  0  0  0  0  0  0  0  0  0  0  0
  -19.7689  -12.1846   19.2355 N   0  0  0  0  0  0  0  0  0  0  0  0
  -29.8531  -19.2639   21.9411 N   0  3  0  0  0  0  0  0  0  0  0  0
  -25.7985  -16.3785   20.9666 O   0  0  0  0  0  0  0  0  0  0  0  0
  -24.6377  -25.5105   19.5702 O   0  0  0  0  0  0  0  0  0  0  0  0
  -28.3643  -24.9731   21.2776 O   0  0  0  0  0  0  0  0  0  0  0  0
  -28.3525  -20.4404   19.8721 O   0  0  0  0  0  0  0  0  0  0  0  0
  -19.0399  -10.1050   19.8686 O   0  0  0  0  0  0  0  0  0  0  0  0
  -31.9199  -11.9729   19.0414 O   0  0  0  0  0  0  0  0  0  0  0  0
  -21.5528  -20.2034   19.6306 O   0  0  0  0  0  0  0  0  0  1  0  0
  -35.7403  -14.5829   22.0408 F   0  0  0  0  0  0  0  0  0  0  0  0
  -31.9800  -14.7338   19.1699 F   0  0  0  0  0  0  0  0  0  0  0  0
  1  2  1  0  0  0  0
  1  7  2  0  0  0  0
  2  8  2  0  0  0  0
  3 10  2  0  0  0  0
  3 21  1  0  0  0  0
  4 11  2  0  0  0  0
  4 21  1  0  0  0  0
  5 12  2  0  0  0  0
  5 23  1  0  0  0  0
  6 13  1  0  0  0  0
  6 23  2  0  0  0  0
  7 25  1  0  0  0  0
  8 27  1  0  0  0  0
  9 14  2  0  0  0  0
  9 26  1  0  0  0  0
 10 29  1  0  0  0  0
 11 30  1  0  0  0  0
 12 31  1  0  0  0  0
 13 31  2  0  0  0  0
 14 32  1  0  0  0  0
 15 16  2  0  0  0  0
 15 33  1  0  0  0  0
 16 34  1  0  0  0  0
 17 22  1  0  0  0  0
 17 29  2  0  0  0  0
 18 22  1  0  0  0  0
 18 30  2  0  0  0  0
 19 28  1  0  0  0  0
 19 32  2  0  0  0  0
 20 34  2  0  0  0  0
 20 35  1  0  0  0  0
 21 22  2  0  0  0  0
 23 36  1  0  0  0  0
 24 36  1  0  0  0  0
 24 37  2  0  0  0  0
 24 38  1  0  0  0  0
 25 27  2  0  0  0  0
 25 43  1  0  0  0  0
 26 28  2  0  0  0  0
 26 44  1  0  0  0  0
 27 52  1  0  0  0  0
 28 45  1  0  0  0  0
 29 60  1  0  0  0  0
 30 61  1  0  0  0  0
 31 80  1  0  0  0  0
 32 81  1  0  0  0  0
 33 35  2  0  0  0  0
 33 80  1  0  0  0  0
 34 82  1  0  0  0  0
 35 83  1  0  0  0  0
 36 65  2  0  0  0  0
 37 66  1  0  0  0  0
 37 69  1  0  0  0  0
 38 70  1  0  0  0  0
 38 75  2  0  0  0  0
 39 53  1  0  0  0  0
 39 71  1  0  0  0  0
 39 76  2  0  0  0  0
 40 62  1  0  0  0  0
 40 67  1  0  0  0  0
 40 77  2  0  0  0  0
 41 63  1  0  0  0  0
 41 72  1  0  0  0  0
 41 78  2  0  0  0  0
 42 68  1  0  0  0  0
 42 73  1  0  0  0  0
 42 79  2  0  0  0  0
 43 46  1  0  0  0  0
 44 53  1  0  0  0  0
 45 67  1  0  0  0  0
 46 48  1  0  0  0  0
 47 49  1  0  0  0  0
 47 50  1  0  0  0  0
 48 52  1  0  0  0  0
 49 54  1  0  0  0  0
 50 68  1  0  0  0  0
 51 54  1  0  0  0  0
 51 68  1  0  0  0  0
 52 71  1  0  0  0  0
 53 67  1  0  0  0  0
 54 66  1  0  0  0  0
 55 63  1  0  0  0  0
 56 64  1  0  0  0  0
 57 64  1  0  0  0  0
 58 64  1  0  0  0  0
 59 74  1  0  0  0  0
 60 73  1  0  0  0  0
 61 81  1  0  0  0  0
 62 64  1  0  0  0  0
 62 72  1  0  0  0  0
 63 74  1  0  0  0  0
 65 66  1  0  0  0  0
M  CHG  1  74   1
M  ISO  4  42 100  61 101  73 100  81 101
M  END
> <Batch ID>
0132

> <Smiles>
CNC(C)C(=O)NC(C(=O)N1Cc2cc([101O:1][101CH2:1]c3ccc4ccc(C[100NH:0][100C:0](=O)N5CCCC(n6nc(-c7ccc(Oc8ccc(F)cc8F)cc7)c(C(N)=O)c6N)C5)cc4c3)ccc2CC1C(=O)NC1CCCc2ccccc21)C(C)(C)C

> <Shape>
0.232

> <Color>
0.083

> <Negative vol penalty>
0.000

$$$$

  -OEChem-04052320523D

 87 95  0     1  0  0  0  0  0999 V2000
  -16.6213  -30.0206   23.6108 C   0  0  0  0  0  0  0  0  0  0  0  0
  -17.7252  -30.7147   24.0957 C   0  0  0  0  0  0  0  0  0  0  0  0
  -26.1218  -26.7527   30.7664 C   0  0  0  0  0  0  0  0  0  0  0  0
  -28.3387  -27.1198   29.8790 C   0  0  0  0  0  0  0  0  0  0  0  0
  -16.7944  -28.7847   22.9891 C   0  0  0  0  0  0  0  0  0  0  0  0
  -19.0028  -30.1727   23.9600 C   0  0  0  0  0  0  0  0  0  0  0  0
  -25.8237  -32.1321   22.9842 C   0  0  0  0  0  0  0  0  0  0  0  0
  -26.6723  -26.4206   32.0042 C   0  0  0  0  0  0  0  0  0  0  0  0
  -28.8892  -26.7877   31.1169 C   0  0  0  0  0  0  0  0  0  0  0  0
  -27.0888  -31.9420   23.5385 C   0  0  0  0  0  0  0  0  0  0  0  0
  -27.5125  -25.1275   35.2975 C   0  0  0  0  0  0  0  0  0  0  0  0
  -27.0089  -24.0036   35.9524 C   0  0  0  0  0  0  0  0  0  0  0  0
  -27.2751  -29.8364   22.3762 C   0  0  0  0  0  0  0  0  0  0  0  0
  -30.5934  -26.5249   21.3016 C   0  0  0  0  0  0  0  0  0  0  0  0
  -27.6668  -22.6201   34.0842 C   0  0  0  0  0  0  0  0  0  0  0  0
  -32.1301  -25.6867   22.7178 C   0  0  0  0  0  0  0  0  0  0  0  0
  -26.9550  -27.1023   29.7037 C   0  0  0  0  0  0  0  0  0  0  0  0
  -25.9984  -28.7236   27.9821 C   0  0  0  0  0  0  0  0  0  0  0  0
  -18.0757  -28.2318   22.8371 C   0  0  0  0  0  0  0  0  0  0  0  0
  -25.2693  -31.1690   22.1289 C   0  0  0  0  0  0  0  0  0  0  0  0
  -19.1930  -28.9276   23.3368 C   0  0  0  0  0  0  0  0  0  0  0  0
  -26.0038  -30.0179   21.8103 C   0  0  0  0  0  0  0  0  0  0  0  0
  -31.8735  -26.7407   21.8690 C   0  0  0  0  0  0  0  0  0  0  0  0
  -28.0560  -26.4381   32.1795 C   0  0  0  0  0  0  0  0  0  0  0  0
  -27.8134  -30.7927   23.2368 C   0  0  0  0  0  0  0  0  0  0  0  0
  -28.0932  -24.9977   34.0359 C   0  0  0  0  0  0  0  0  0  0  0  0
  -27.0861  -22.7500   35.3458 C   0  0  0  0  0  0  0  0  0  0  0  0
  -28.1704  -23.7441   33.4292 C   0  0  0  0  0  0  0  0  0  0  0  0
  -26.3870  -27.4449   28.4247 C   0  0  0  0  0  0  0  0  0  0  0  0
  -30.1067  -25.3457   21.8211 C   0  0  0  0  0  0  0  0  0  0  0  0
  -25.5242  -28.5171   26.7098 C   0  0  0  0  0  0  0  0  0  0  0  0
  -26.0605  -29.9852   28.6606 C   0  0  0  0  0  0  0  0  0  0  0  0
  -22.6929  -29.3093   22.2152 C   0  0  0  0  0  0  0  0  0  0  0  0
  -23.6248  -28.5421   19.2044 C   0  0  0  0  0  0  0  0  0  0  0  0
  -26.1501  -28.3305   16.9185 C   0  0  0  0  0  0  0  0  0  0  0  0
  -26.5915  -24.3006   22.5948 C   0  0  0  0  0  0  0  0  0  0  0  0
  -18.2083  -26.8710   22.2003 C   0  0  0  0  0  0  0  0  0  0  0  0
  -23.9146  -31.4015   21.5180 C   0  0  0  0  0  0  0  0  0  0  0  0
  -25.4620  -28.9632   20.8815 C   0  0  0  0  0  0  0  0  0  0  0  0
  -19.6325  -26.5398   21.7620 C   0  0  0  0  0  0  0  0  0  0  0  0
  -23.4357  -25.1829   23.9872 C   0  0  0  0  0  0  0  0  0  0  0  0
  -20.6251  -26.8844   22.8678 C   0  0  0  0  0  0  0  0  0  0  0  0
  -23.7991  -25.9781   25.2424 C   0  0  0  0  0  0  0  0  0  0  0  0
  -24.4129  -24.0351   23.7436 C   0  0  0  0  0  0  0  0  0  0  0  0
  -26.1971  -25.2244   24.9586 C   0  0  0  0  0  0  0  0  0  0  0  0
  -20.5973  -28.3841   23.1865 C   0  0  1  0  0  0  0  0  0  0  0  0
  -23.2336  -30.1132   21.0666 C   0  0  1  0  0  0  0  0  0  0  0  0
  -25.2726  -26.4269   25.2148 C   0  0  2  0  0  0  0  0  0  0  0  0
  -26.6128  -27.6308   14.5534 C   0  0  0  0  0  0  0  0  0  0  0  0
  -30.9439  -23.8779   24.9485 C   0  0  0  0  0  0  0  0  0  0  0  0
  -32.0049  -22.5987   23.0395 C   0  0  0  0  0  0  0  0  0  0  0  0
  -23.5225  -25.6131   20.0534 C   0  0  0  0  0  0  0  0  0  0  0  0
  -24.8733  -25.0494   18.0222 C   0  0  0  0  0  0  0  0  0  0  0  0
  -22.6110  -26.0698   17.7697 C   0  0  0  0  0  0  0  0  0  0  0  0
  -27.0166  -31.0565   16.1589 C   0  0  0  0  0  0  0  0  0  0  0  0
  -28.8234  -24.6580   21.5701 C   0  0  0  0  0  0  0  0  0  0  0  0
  -33.2568  -30.1188   21.0063 C   0  0  0  0  0  0  0  0  0  0  0  0
  -32.3959  -28.8918   20.7176 C   0  0  0  0  0  0  0  0  0  0  0  0
  -33.0623  -30.6407   22.4244 C   0  0  0  0  0  0  0  0  0  0  0  0
  -31.2929  -31.4386   23.9964 C   0  0  0  0  0  0  0  0  0  0  0  0
  -29.8157  -31.7722   24.0659 C   0  0  0  0  0  0  0  0  0  1  0  0
  -24.5278  -27.4946   18.5990 C   0  0  1  0  0  0  0  0  0  0  0  0
  -26.2405  -28.7838   15.4726 C   0  0  2  0  0  0  0  0  0  0  0  0
  -30.9381  -23.6193   23.4406 C   0  0  0  0  0  0  0  0  0  0  0  0
  -23.8933  -26.0755   18.6301 C   0  0  0  0  0  0  0  0  0  0  0  0
  -26.1777  -26.4963   27.5079 N   0  0  0  0  0  0  0  0  0  0  0  0
  -31.0491  -24.8451   22.6810 N   0  0  0  0  0  0  0  0  0  0  0  0
  -25.6523  -27.1794   26.4767 N   0  0  0  0  0  0  0  0  0  0  0  0
  -24.1305  -29.2333   20.3145 N   0  0  0  0  0  0  0  0  0  0  0  0
  -25.7923  -24.5280   23.7273 N   0  0  0  0  0  0  0  0  0  0  0  0
  -25.0142  -29.3511   25.7788 N   0  0  0  0  0  0  0  0  0  0  0  0
  -26.5758  -30.0184   29.9635 N   0  0  0  0  0  0  0  0  0  0  0  0
  -32.7169  -27.8117   21.6202 N   0  0  0  0  0  0  0  0  0  0  0  0
  -21.3234  -29.1282   22.1798 N   0  0  0  0  0  0  0  0  0  0  0  0
  -24.8642  -27.9695   17.2612 N   0  0  0  0  0  0  0  0  0  0  0  0
  -27.8840  -24.8065   22.6592 N   0  0  0  0  0  0  0  0  0  0  0  0
  -27.2701  -29.8515   15.3278 N   0  3  0  0  0  0  0  0  0  0  0  0
  -31.6261  -30.9726   22.6267 N   0  3  0  0  0  0  0  0  0  0  0  0
  -25.6555  -31.0488   28.1332 O   0  0  0  0  0  0  0  0  0  0  0  0
  -23.4615  -28.8836   23.0695 O   0  0  0  0  0  0  0  0  0  0  0  0
  -22.5147  -28.7446   18.7061 O   0  0  0  0  0  0  0  0  0  0  0  0
  -27.1236  -28.2962   17.6680 O   0  0  0  0  0  0  0  0  0  0  0  0
  -26.1817  -23.6965   21.5977 O   0  0  0  0  0  0  0  0  0  0  0  0
  -28.5934  -26.1143   33.3873 O   0  0  0  0  0  0  0  0  0  0  0  0
  -29.0482  -30.6044   23.7770 O   0  0  0  0  0  0  0  0  0  1  0  0
  -26.6038  -21.6706   35.9754 F   0  0  0  0  0  0  0  0  0  0  0  0
  -28.7282  -23.6130   32.2179 F   0  0  0  0  0  0  0  0  0  0  0  0
  1  2  1  0  0  0  0
  1  5  2  0  0  0  0
  2  6  2  0  0  0  0
  3  8  2  0  0  0  0
  3 17  1  0  0  0  0
  4  9  1  0  0  0  0
  4 17  2  0  0  0  0
  5 19  1  0  0  0  0
  6 21  1  0  0  0  0
  7 10  2  0  0  0  0
  7 20  1  0  0  0  0
  8 24  1  0  0  0  0
  9 24  2  0  0  0  0
 10 25  1  0  0  0  0
 11 12  2  0  0  0  0
 11 26  1  0  0  0  0
 12 27  1  0  0  0  0
 13 22  1  0  0  0  0
 13 25  2  0  0  0  0
 14 23  1  0  0  0  0
 14 30  2  0  0  0  0
 15 27  2  0  0  0  0
 15 28  1  0  0  0  0
 16 23  2  0  0  0  0
 16 67  1  0  0  0  0
 17 29  1  0  0  0  0
 18 29  1  0  0  0  0
 18 31  2  0  0  0  0
 18 32  1  0  0  0  0
 19 21  2  0  0  0  0
 19 37  1  0  0  0  0
 20 22  2  0  0  0  0
 20 38  1  0  0  0  0
 21 46  1  0  0  0  0
 22 39  1  0  0  0  0
 23 73  1  0  0  0  0
 24 84  1  0  0  0  0
 25 85  1  0  0  0  0
 26 28  2  0  0  0  0
 26 84  1  0  0  0  0
 27 86  1  0  0  0  0
 28 87  1  0  0  0  0
 29 66  2  0  0  0  0
 30 56  1  0  0  0  0
 30 67  1  0  0  0  0
 31 68  1  0  0  0  0
 31 71  1  0  0  0  0
 32 72  1  0  0  0  0
 32 79  2  0  0  0  0
 33 47  1  0  0  0  0
 33 74  1  0  0  0  0
 33 80  2  0  0  0  0
 34 62  1  0  0  0  0
 34 69  1  0  0  0  0
 34 81  2  0  0  0  0
 35 63  1  0  0  0  0
 35 75  1  0  0  0  0
 35 82  2  0  0  0  0
 36 70  1  0  0  0  0
 36 76  1  0  0  0  0
 36 83  2  0  0  0  0
 37 40  1  0  0  0  0
 38 47  1  0  0  0  0
 39 69  1  0  0  0  0
 40 42  1  0  0  0  0
 41 43  1  0  0  0  0
 41 44  1  0  0  0  0
 42 46  1  0  0  0  0
 43 48  1  0  0  0  0
 44 70  1  0  0  0  0
 45 48  1  0  0  0  0
 45 70  1  0  0  0  0
 46 74  1  0  0  0  0
 47 69  1  0  0  0  0
 48 68  1  0  0  0  0
 49 63  1  0  0  0  0
 50 64  1  0  0  0  0
 51 64  1  0  0  0  0
 52 65  1  0  0  0  0
 53 65  1  0  0  0  0
 54 65  1  0  0  0  0
 55 77  1  0  0  0  0
 56 76  1  0  0  0  0
 57 58  1  0  0  0  0
 57 59  1  0  0  0  0
 58 73  1  0  0  0  0
 59 78  1  0  0  0  0
 60 61  1  0  0  0  0
 60 78  1  0  0  0  0
 61 85  1  0  0  0  0
 62 65  1  0  0  0  0
 62 75  1  0  0  0  0
 63 77  1  0  0  0  0
 64 67  1  0  0  0  0
 66 68  1  0  0  0  0
M  CHG  2  77   1  78   1
M  ISO  4  36 100  61 101  76 100  85 101
M  END
> <Batch ID>
0132

> <Smiles>
CNC(C)C(=O)NC(C(=O)N1Cc2cc([101O:1][101CH2:1]CNCCCNc3cc(C[100NH:0][100C:0](=O)N4CCCC(n5nc(-c6ccc(Oc7ccc(F)cc7F)cc6)c(C(N)=O)c5N)C4)n(C(C)C)c3)ccc2CC1C(=O)NC1CCCc2ccccc21)C(C)(C)C

> <Shape>
0.159

> <Color>
0.089

> <Negative vol penalty>
0.000

$$$$

  -OEChem-04052320523D

 81 89  0     1  0  0  0  0  0999 V2000
  -27.9274  -33.2914   14.0197 C   0  0  0  0  0  0  0  0  0  0  0  0
  -28.1144  -31.9540   14.3538 C   0  0  0  0  0  0  0  0  0  0  0  0
  -22.8809  -10.1682   19.9718 C   0  0  0  0  0  0  0  0  0  0  0  0
  -23.8052   -9.8848   22.1859 C   0  0  0  0  0  0  0  0  0  0  0  0
  -27.4531  -34.1880   14.9763 C   0  0  0  0  0  0  0  0  0  0  0  0
  -27.8282  -31.5125   15.6452 C   0  0  0  0  0  0  0  0  0  0  0  0
  -25.5700  -26.0518   17.2533 C   0  0  0  0  0  0  0  0  0  0  0  0
  -29.2937  -21.1245   19.1821 C   0  0  0  0  0  0  0  0  0  0  0  0
  -27.1176  -20.6249   20.1050 C   0  0  0  0  0  0  0  0  0  0  0  0
  -29.8275  -20.0170   19.8410 C   0  0  0  0  0  0  0  0  0  0  0  0
  -27.6513  -19.5174   20.7640 C   0  0  0  0  0  0  0  0  0  0  0  0
  -22.0807   -9.0416   20.1616 C   0  0  0  0  0  0  0  0  0  0  0  0
  -23.0050   -8.7582   22.3757 C   0  0  0  0  0  0  0  0  0  0  0  0
  -26.1751  -24.8906   17.7323 C   0  0  0  0  0  0  0  0  0  0  0  0
  -23.0281   -5.5032   21.4615 C   0  0  0  0  0  0  0  0  0  0  0  0
  -23.6234   -4.3721   22.0198 C   0  0  0  0  0  0  0  0  0  0  0  0
  -25.6647  -25.5639   19.9918 C   0  0  0  0  0  0  0  0  0  0  0  0
  -22.0671   -4.4641   23.8655 C   0  0  0  0  0  0  0  0  0  0  0  0
  -23.7432  -10.5898   20.9839 C   0  0  0  0  0  0  0  0  0  0  0  0
  -24.2460  -13.0883   21.0948 C   0  0  0  0  0  0  0  0  0  0  0  0
  -27.1518  -33.7554   16.2773 C   0  0  0  0  0  0  0  0  0  0  0  0
  -25.0164  -26.9845   18.1421 C   0  0  0  0  0  0  0  0  0  0  0  0
  -27.3507  -32.4044   16.6205 C   0  0  0  0  0  0  0  0  0  0  0  0
  -25.0509  -26.7349   19.5214 C   0  0  0  0  0  0  0  0  0  0  0  0
  -27.9388  -21.4285   19.3141 C   0  0  0  0  0  0  0  0  0  0  0  0
  -29.0063  -19.2134   20.6319 C   0  0  0  0  0  0  0  0  0  0  0  0
  -22.1428   -8.3366   21.3635 C   0  0  0  0  0  0  0  0  0  0  0  0
  -26.2251  -24.6480   19.1019 C   0  0  0  0  0  0  0  0  0  0  0  0
  -21.9524   -6.1149   22.1052 C   0  0  0  0  0  0  0  0  0  0  0  0
  -23.1429   -3.8526   23.2218 C   0  0  0  0  0  0  0  0  0  0  0  0
  -21.4719   -5.5953   23.3072 C   0  0  0  0  0  0  0  0  0  0  0  0
  -24.5705  -11.7532   20.7882 C   0  0  0  0  0  0  0  0  0  0  0  0
  -25.3571  -13.8055   20.7237 C   0  0  0  0  0  0  0  0  0  0  0  0
  -23.0476  -13.6316   21.6642 C   0  0  0  0  0  0  0  0  0  0  0  0
  -25.5895  -30.0323   18.8395 C   0  0  0  0  0  0  0  0  0  0  0  0
  -22.9375  -29.7052   20.6785 C   0  0  0  0  0  0  0  0  0  0  0  0
  -20.8465  -27.6329   22.4050 C   0  0  0  0  0  0  0  0  0  0  0  0
  -30.8964  -14.4684   20.5765 C   0  0  0  0  0  0  0  0  0  0  0  0
  -26.6864  -34.7710   17.2906 C   0  0  0  0  0  0  0  0  0  0  0  0
  -24.3436  -28.2192   17.6080 C   0  0  0  0  0  0  0  0  0  0  0  0
  -24.4532  -27.6949   20.5163 C   0  0  0  0  0  0  0  0  0  0  0  0
  -26.0514  -34.1473   18.5307 C   0  0  0  0  0  0  0  0  0  0  0  0
  -29.4280  -12.4248   18.0577 C   0  0  0  0  0  0  0  0  0  0  0  0
  -26.9098  -32.9979   19.0493 C   0  0  0  0  0  0  0  0  0  0  0  0
  -28.0094  -12.1731   18.5719 C   0  0  0  0  0  0  0  0  0  0  0  0
  -30.4434  -12.4608   19.1978 C   0  0  0  0  0  0  0  0  0  0  0  0
  -28.7022  -13.1522   20.7990 C   0  0  0  0  0  0  0  0  0  0  0  0
  -27.0281  -31.8824   18.0038 C   0  0  1  0  0  0  0  0  0  0  0  0
  -24.2679  -29.3484   18.6311 C   0  0  1  0  0  0  0  0  0  0  0  0
  -27.6349  -13.1630   19.6913 C   0  0  2  0  0  0  0  0  0  0  0  0
  -18.7867  -27.6611   23.8381 C   0  0  0  0  0  0  0  0  0  0  0  0
  -24.5849  -30.7570   23.0215 C   0  0  0  0  0  0  0  0  0  0  0  0
  -22.8202  -29.8800   24.5657 C   0  0  0  0  0  0  0  0  0  0  0  0
  -22.2520  -31.6501   22.9024 C   0  0  0  0  0  0  0  0  0  0  0  0
  -19.3545  -25.9329   20.4964 C   0  0  0  0  0  0  0  0  0  0  0  0
  -27.3638  -22.6198   18.6060 C   0  0  0  0  0  0  0  0  0  1  0  0
  -30.9236  -17.7226   21.2037 C   0  0  0  0  0  0  0  0  0  0  0  0
  -31.1984  -16.4668   22.0168 C   0  0  0  0  0  0  0  0  0  0  0  0
  -22.6701  -29.2878   22.1045 C   0  0  1  0  0  0  0  0  0  0  0  0
  -19.3329  -27.5188   22.4259 C   0  0  2  0  0  0  0  0  0  0  0  0
  -23.0949  -30.3764   23.1302 C   0  0  0  0  0  0  0  0  0  0  0  0
  -25.7919  -11.6270   20.2627 N   0  0  0  0  0  0  0  0  0  0  0  0
  -26.2447  -12.8920   20.2361 N   0  0  0  0  0  0  0  0  0  0  0  0
  -23.8120  -28.8908   19.9453 N   0  0  0  0  0  0  0  0  0  0  0  0
  -30.0302  -13.4200   20.2250 N   0  0  0  0  0  0  0  0  0  0  0  0
  -25.6515  -15.1222   20.7702 N   0  0  0  0  0  0  0  0  0  0  0  0
  -22.0036  -12.7538   21.9868 N   0  0  0  0  0  0  0  0  0  0  0  0
  -29.5452  -18.0925   21.2968 N   0  0  0  0  0  0  0  0  0  0  0  0
  -25.8201  -31.0859   17.9756 N   0  0  0  0  0  0  0  0  0  0  0  0
  -21.2578  -28.9272   22.1663 N   0  0  0  0  0  0  0  0  0  0  0  0
  -30.4249  -15.3362   21.5539 N   0  0  0  0  0  0  0  0  0  0  0  0
  -18.9057  -26.1963   21.8878 N   0  3  0  0  0  0  0  0  0  0  0  0
  -22.9003  -14.8610   21.8653 O   0  0  0  0  0  0  0  0  0  0  0  0
  -26.3434  -29.6346   19.7199 O   0  0  0  0  0  0  0  0  0  0  0  0
  -22.3849  -30.7126   20.2296 O   0  0  0  0  0  0  0  0  0  0  0  0
  -21.5896  -26.6709   22.5861 O   0  0  0  0  0  0  0  0  0  0  0  0
  -32.0054  -14.6230   20.0538 O   0  0  0  0  0  0  0  0  0  0  0  0
  -21.3619   -7.2373   21.5492 O   0  0  0  0  0  0  0  0  0  0  0  0
  -26.8157  -23.5157   19.5721 O   0  0  0  0  0  0  0  0  0  1  0  0
  -23.7137   -2.7654   23.7571 F   0  0  0  0  0  0  0  0  0  0  0  0
  -20.4379   -6.1778   23.9296 F   0  0  0  0  0  0  0  0  0  0  0  0
  1  2  1  0  0  0  0
  1  5  2  0  0  0  0
  2  6  2  0  0  0  0
  3 12  2  0  0  0  0
  3 19  1  0  0  0  0
  4 13  1  0  0  0  0
  4 19  2  0  0  0  0
  5 21  1  0  0  0  0
  6 23  1  0  0  0  0
  7 14  2  0  0  0  0
  7 22  1  0  0  0  0
  8 10  2  0  0  0  0
  8 25  1  0  0  0  0
  9 11  1  0  0  0  0
  9 25  2  0  0  0  0
 10 26  1  0  0  0  0
 11 26  2  0  0  0  0
 12 27  1  0  0  0  0
 13 27  2  0  0  0  0
 14 28  1  0  0  0  0
 15 16  2  0  0  0  0
 15 29  1  0  0  0  0
 16 30  1  0  0  0  0
 17 24  1  0  0  0  0
 17 28  2  0  0  0  0
 18 30  2  0  0  0  0
 18 31  1  0  0  0  0
 19 32  1  0  0  0  0
 20 32  1  0  0  0  0
 20 33  2  0  0  0  0
 20 34  1  0  0  0  0
 21 23  2  0  0  0  0
 21 39  1  0  0  0  0
 22 24  2  0  0  0  0
 22 40  1  0  0  0  0
 23 48  1  0  0  0  0
 24 41  1  0  0  0  0
 25 56  1  0  0  0  0
 26 68  1  0  0  0  0
 27 78  1  0  0  0  0
 28 79  1  0  0  0  0
 29 31  2  0  0  0  0
 29 78  1  0  0  0  0
 30 80  1  0  0  0  0
 31 81  1  0  0  0  0
 32 62  2  0  0  0  0
 33 63  1  0  0  0  0
 33 66  1  0  0  0  0
 34 67  1  0  0  0  0
 34 73  2  0  0  0  0
 35 49  1  0  0  0  0
 35 69  1  0  0  0  0
 35 74  2  0  0  0  0
 36 59  1  0  0  0  0
 36 64  1  0  0  0  0
 36 75  2  0  0  0  0
 37 60  1  0  0  0  0
 37 70  1  0  0  0  0
 37 76  2  0  0  0  0
 38 65  1  0  0  0  0
 38 71  1  0  0  0  0
 38 77  2  0  0  0  0
 39 42  1  0  0  0  0
 40 49  1  0  0  0  0
 41 64  1  0  0  0  0
 42 44  1  0  0  0  0
 43 45  1  0  0  0  0
 43 46  1  0  0  0  0
 44 48  1  0  0  0  0
 45 50  1  0  0  0  0
 46 65  1  0  0  0  0
 47 50  1  0  0  0  0
 47 65  1  0  0  0  0
 48 69  1  0  0  0  0
 49 64  1  0  0  0  0
 50 63  1  0  0  0  0
 51 60  1  0  0  0  0
 52 61  1  0  0  0  0
 53 61  1  0  0  0  0
 54 61  1  0  0  0  0
 55 72  1  0  0  0  0
 56 79  1  0  0  0  0
 57 58  1  0  0  0  0
 57 68  1  0  0  0  0
 58 71  1  0  0  0  0
 59 61  1  0  0  0  0
 59 70  1  0  0  0  0
 60 72  1  0  0  0  0
 62 63  1  0  0  0  0
M  CHG  1  72   1
M  ISO  4  38 100  56 101  71 100  79 101
M  END
> <Batch ID>
0132

> <Smiles>
CNC(C)C(=O)NC(C(=O)N1Cc2cc([101O:1][101CH2:1]c3ccc(NCC[100NH:0][100C:0](=O)N4CCCC(n5nc(-c6ccc(Oc7ccc(F)cc7F)cc6)c(C(N)=O)c5N)C4)cc3)ccc2CC1C(=O)NC1CCCc2ccccc21)C(C)(C)C

> <Shape>
0.349

> <Color>
0.203

> <Negative vol penalty>
0.000

$$$$

  -OEChem-04052320523D

 82 90  0     1  0  0  0  0  0999 V2000
  -22.7730  -20.0934   23.6789 C   0  0  0  0  0  0  0  0  0  0  0  0
  -23.5698  -20.9006   22.8733 C   0  0  0  0  0  0  0  0  0  0  0  0
  -25.2674  -13.2766   21.7672 C   0  0  0  0  0  0  0  0  0  0  0  0
  -25.9397  -12.7905   19.4981 C   0  0  0  0  0  0  0  0  0  0  0  0
  -21.5083  -20.5319   24.0689 C   0  0  0  0  0  0  0  0  0  0  0  0
  -23.1019  -22.1462   22.4564 C   0  0  0  0  0  0  0  0  0  0  0  0
  -26.5951  -25.7846   22.9089 C   0  0  0  0  0  0  0  0  0  0  0  0
  -24.8923  -11.9445   21.9415 C   0  0  0  0  0  0  0  0  0  0  0  0
  -25.5646  -11.4583   19.6724 C   0  0  0  0  0  0  0  0  0  0  0  0
  -27.5883  -25.8388   21.9320 C   0  0  0  0  0  0  0  0  0  0  0  0
  -23.4227   -8.7495   22.8668 C   0  0  0  0  0  0  0  0  0  0  0  0
  -22.2010   -8.4944   23.4895 C   0  0  0  0  0  0  0  0  0  0  0  0
  -30.8579  -24.2834   21.0147 C   0  0  0  0  0  0  0  0  0  0  0  0
  -26.4011  -27.6281   20.8329 C   0  0  0  0  0  0  0  0  0  0  0  0
  -29.3859  -24.2853   19.1126 C   0  0  0  0  0  0  0  0  0  0  0  0
  -21.0566   -9.7071   21.7410 C   0  0  0  0  0  0  0  0  0  0  0  0
  -31.0399  -22.9260   20.8045 C   0  0  0  0  0  0  0  0  0  0  0  0
  -25.7911  -13.6996   20.5455 C   0  0  0  0  0  0  0  0  0  0  0  0
  -27.4414  -15.6436   20.6170 C   0  0  0  0  0  0  0  0  0  0  0  0
  -21.0285  -21.7876   23.6646 C   0  0  0  0  0  0  0  0  0  0  0  0
  -25.4901  -26.6458   22.8490 C   0  0  0  0  0  0  0  0  0  0  0  0
  -21.8290  -22.6013   22.8403 C   0  0  0  0  0  0  0  0  0  0  0  0
  -25.3965  -27.5846   21.8117 C   0  0  0  0  0  0  0  0  0  0  0  0
  -30.0135  -24.9686   20.1482 C   0  0  0  0  0  0  0  0  0  0  0  0
  -25.0409  -11.0354   20.8941 C   0  0  0  0  0  0  0  0  0  0  0  0
  -27.4899  -26.7587   20.8922 C   0  0  0  0  0  0  0  0  0  0  0  0
  -23.4615   -9.4836   21.6813 C   0  0  0  0  0  0  0  0  0  0  0  0
  -21.0179   -8.9731   22.9266 C   0  0  0  0  0  0  0  0  0  0  0  0
  -22.2785   -9.9623   21.1184 C   0  0  0  0  0  0  0  0  0  0  0  0
  -26.1782  -15.0757   20.3646 C   0  0  0  0  0  0  0  0  0  0  0  0
  -29.6340  -22.9279   18.9874 C   0  0  0  0  0  0  0  0  0  0  0  0
  -27.2938  -16.9690   20.2884 C   0  0  0  0  0  0  0  0  0  0  0  0
  -28.6409  -15.0280   21.1047 C   0  0  0  0  0  0  0  0  0  0  0  0
  -22.3496  -26.2486   22.5598 C   0  0  0  0  0  0  0  0  0  0  0  0
  -22.2932  -29.4573   23.0326 C   0  0  0  0  0  0  0  0  0  0  0  0
  -23.9412  -32.4408   22.8591 C   0  0  0  0  0  0  0  0  0  0  0  0
  -25.4309  -20.9531   16.8530 C   0  0  0  0  0  0  0  0  0  0  0  0
  -19.6358  -22.1984   24.0725 C   0  0  0  0  0  0  0  0  0  0  0  0
  -24.4407  -26.5930   23.9254 C   0  0  0  0  0  0  0  0  0  0  0  0
  -24.2406  -28.5451   21.7132 C   0  0  0  0  0  0  0  0  0  0  0  0
  -19.3647  -23.6903   23.8967 C   0  0  0  0  0  0  0  0  0  0  0  0
  -23.1387  -19.6609   19.2514 C   0  0  0  0  0  0  0  0  0  0  0  0
  -19.8523  -24.1642   22.5312 C   0  0  0  0  0  0  0  0  0  0  0  0
  -23.8263  -18.3969   19.7706 C   0  0  0  0  0  0  0  0  0  0  0  0
  -23.3957  -19.8714   17.7609 C   0  0  0  0  0  0  0  0  0  0  0  0
  -25.5059  -18.6049   17.8906 C   0  0  0  0  0  0  0  0  0  0  0  0
  -21.3666  -23.9694   22.3880 C   0  0  1  0  0  0  0  0  0  0  0  0
  -23.0996  -27.1686   23.4812 C   0  0  1  0  0  0  0  0  0  0  0  0
  -25.3218  -18.3802   19.4012 C   0  0  2  0  0  0  0  0  0  0  0  0
  -30.7701  -27.2910   19.5338 C   0  0  0  0  0  0  0  0  0  0  0  0
  -23.6225  -34.8944   23.2779 C   0  0  0  0  0  0  0  0  0  0  0  0
  -20.6597  -29.6809   20.4652 C   0  0  0  0  0  0  0  0  0  0  0  0
  -21.1838  -32.1288   20.4274 C   0  0  0  0  0  0  0  0  0  0  0  0
  -19.8864  -31.1620   22.3261 C   0  0  0  0  0  0  0  0  0  0  0  0
  -26.0937  -32.4920   24.8896 C   0  0  0  0  0  0  0  0  0  0  0  0
  -28.1089  -22.8991   17.0129 C   0  0  0  0  0  0  0  0  0  0  0  0
  -27.5559  -21.9094   15.9989 C   0  0  0  0  0  0  0  0  0  0  0  0
  -29.7804  -26.4509   20.3310 C   0  0  1  0  0  0  0  0  0  1  0  0
  -22.3593  -30.6712   22.1375 C   0  0  1  0  0  0  0  0  0  0  0  0
  -24.0882  -33.5701   23.8628 C   0  0  2  0  0  0  0  0  0  0  0  0
  -21.0432  -30.8914   21.3396 C   0  0  0  0  0  0  0  0  0  0  0  0
  -30.4476  -22.2281   19.8096 N   0  0  0  0  0  0  0  0  0  0  0  0
  -25.2933  -15.9673   19.9109 N   0  0  0  0  0  0  0  0  0  0  0  0
  -26.0014  -17.1090   19.8756 N   0  0  0  0  0  0  0  0  0  0  0  0
  -23.2369  -28.4501   22.7861 N   0  0  0  0  0  0  0  0  0  0  0  0
  -24.8328  -19.8464   17.4777 N   0  0  0  0  0  0  0  0  0  0  0  0
  -28.1447  -18.0167   20.3153 N   0  0  0  0  0  0  0  0  0  0  0  0
  -28.6187  -13.6566   21.3927 N   0  0  0  0  0  0  0  0  0  0  0  0
  -28.9858  -22.2449   17.9284 N   0  0  0  0  0  0  0  0  0  0  0  0
  -22.0794  -25.0068   23.1023 N   0  0  0  0  0  0  0  0  0  0  0  0
  -22.7327  -31.7908   22.9951 N   0  0  0  0  0  0  0  0  0  0  0  0
  -26.7980  -20.8500   16.6269 N   0  0  0  0  0  0  0  0  0  0  0  0
  -25.5129  -33.7138   24.2758 N   0  3  0  0  0  0  0  0  0  0  0  0
  -29.6965  -15.6784   21.2955 O   0  0  0  0  0  0  0  0  0  0  0  0
  -22.0378  -26.6373   21.4402 O   0  0  0  0  0  0  0  0  0  0  0  0
  -21.4404  -29.4079   23.9225 O   0  0  0  0  0  0  0  0  0  0  0  0
  -24.8097  -32.1653   22.0344 O   0  0  0  0  0  0  0  0  0  0  0  0
  -24.7948  -21.9609   16.5262 O   0  0  0  0  0  0  0  0  0  0  0  0
  -24.6752   -9.7354   21.0639 O   0  0  0  0  0  0  0  0  0  0  0  0
  -28.4576  -26.8132   19.9369 O   0  0  0  0  0  0  0  0  0  1  0  0
  -19.8445   -8.7267   23.5238 F   0  0  0  0  0  0  0  0  0  0  0  0
  -22.3093  -10.6670   19.9790 F   0  0  0  0  0  0  0  0  0  0  0  0
  1  2  1  0  0  0  0
  1  5  2  0  0  0  0
  2  6  2  0  0  0  0
  3  8  2  0  0  0  0
  3 18  1  0  0  0  0
  4  9  1  0  0  0  0
  4 18  2  0  0  0  0
  5 20  1  0  0  0  0
  6 22  1  0  0  0  0
  7 10  2  0  0  0  0
  7 21  1  0  0  0  0
  8 25  1  0  0  0  0
  9 25  2  0  0  0  0
 10 26  1  0  0  0  0
 11 12  2  0  0  0  0
 11 27  1  0  0  0  0
 12 28  1  0  0  0  0
 13 17  2  0  0  0  0
 13 24  1  0  0  0  0
 14 23  1  0  0  0  0
 14 26  2  0  0  0  0
 15 24  2  0  0  0  0
 15 31  1  0  0  0  0
 16 28  2  0  0  0  0
 16 29  1  0  0  0  0
 17 62  1  0  0  0  0
 18 30  1  0  0  0  0
 19 30  1  0  0  0  0
 19 32  2  0  0  0  0
 19 33  1  0  0  0  0
 20 22  2  0  0  0  0
 20 38  1  0  0  0  0
 21 23  2  0  0  0  0
 21 39  1  0  0  0  0
 22 47  1  0  0  0  0
 23 40  1  0  0  0  0
 24 58  1  0  0  0  0
 25 79  1  0  0  0  0
 26 80  1  0  0  0  0
 27 29  2  0  0  0  0
 27 79  1  0  0  0  0
 28 81  1  0  0  0  0
 29 82  1  0  0  0  0
 30 63  2  0  0  0  0
 31 62  2  0  0  0  0
 31 69  1  0  0  0  0
 32 64  1  0  0  0  0
 32 67  1  0  0  0  0
 33 68  1  0  0  0  0
 33 74  2  0  0  0  0
 34 48  1  0  0  0  0
 34 70  1  0  0  0  0
 34 75  2  0  0  0  0
 35 59  1  0  0  0  0
 35 65  1  0  0  0  0
 35 76  2  0  0  0  0
 36 60  1  0  0  0  0
 36 71  1  0  0  0  0
 36 77  2  0  0  0  0
 37 66  1  0  0  0  0
 37 72  1  0  0  0  0
 37 78  2  0  0  0  0
 38 41  1  0  0  0  0
 39 48  1  0  0  0  0
 40 65  1  0  0  0  0
 41 43  1  0  0  0  0
 42 44  1  0  0  0  0
 42 45  1  0  0  0  0
 43 47  1  0  0  0  0
 44 49  1  0  0  0  0
 45 66  1  0  0  0  0
 46 49  1  0  0  0  0
 46 66  1  0  0  0  0
 47 70  1  0  0  0  0
 48 65  1  0  0  0  0
 49 64  1  0  0  0  0
 50 58  1  0  0  0  0
 51 60  1  0  0  0  0
 52 61  1  0  0  0  0
 53 61  1  0  0  0  0
 54 61  1  0  0  0  0
 55 73  1  0  0  0  0
 56 57  1  0  0  0  0
 56 69  1  0  0  0  0
 57 72  1  0  0  0  0
 58 80  1  0  0  0  0
 59 61  1  0  0  0  0
 59 71  1  0  0  0  0
 60 73  1  0  0  0  0
 63 64  1  0  0  0  0
M  CHG  1  73   1
M  ISO  4  37 100  58 101  72 100  80 101
M  END
> <Batch ID>
0132

> <Smiles>
CNC(C)C(=O)NC(C(=O)N1Cc2cc([101O:1][101CH:1](C)c3ccnc(NCC[100NH:0][100C:0](=O)N4CCCC(n5nc(-c6ccc(Oc7ccc(F)cc7F)cc6)c(C(N)=O)c5N)C4)c3)ccc2CC1C(=O)NC1CCCc2ccccc21)C(C)(C)C

> <Shape>
0.220

> <Color>
0.066

> <Negative vol penalty>
0.000

$$$$

  -OEChem-04052320523D

 87 96  0     1  0  0  0  0  0999 V2000
  -31.9770  -13.5442   21.8877 C   0  0  0  0  0  0  0  0  0  0  0  0
  -31.2167  -14.6739   22.1722 C   0  0  0  0  0  0  0  0  0  0  0  0
  -29.7463  -25.7960   20.0682 C   0  0  0  0  0  0  0  0  0  0  0  0
  -28.2055  -24.8720   18.4529 C   0  0  0  0  0  0  0  0  0  0  0  0
  -31.4831  -12.5742   21.0165 C   0  0  0  0  0  0  0  0  0  0  0  0
  -29.9624  -14.8349   21.5846 C   0  0  0  0  0  0  0  0  0  0  0  0
  -22.7359  -24.8261   22.8680 C   0  0  0  0  0  0  0  0  0  0  0  0
  -20.6650  -23.7728   23.5306 C   0  0  0  0  0  0  0  0  0  0  0  0
  -25.0266  -17.4464   24.0995 C   0  0  0  0  0  0  0  0  0  0  0  0
  -23.4183  -23.6326   23.1036 C   0  0  0  0  0  0  0  0  0  0  0  0
  -21.3474  -22.5793   23.7662 C   0  0  0  0  0  0  0  0  0  0  0  0
  -30.2708  -24.5237   20.2958 C   0  0  0  0  0  0  0  0  0  0  0  0
  -28.7300  -23.5996   18.6805 C   0  0  0  0  0  0  0  0  0  0  0  0
  -24.4805  -18.7241   23.9850 C   0  0  0  0  0  0  0  0  0  0  0  0
  -29.4174  -20.0553   19.0986 C   0  0  0  0  0  0  0  0  0  0  0  0
  -28.5173  -19.0009   19.2522 C   0  0  0  0  0  0  0  0  0  0  0  0
  -22.9654  -17.9180   22.2897 C   0  0  0  0  0  0  0  0  0  0  0  0
  -27.5431  -20.1111   21.1642 C   0  0  0  0  0  0  0  0  0  0  0  0
  -28.7136  -25.9701   19.1468 C   0  0  0  0  0  0  0  0  0  0  0  0
  -28.6052  -28.2251   17.9589 C   0  0  0  0  0  0  0  0  0  0  0  0
  -21.3592  -24.8962   23.0816 C   0  0  0  0  0  0  0  0  0  0  0  0
  -30.2180  -12.7187   20.4254 C   0  0  0  0  0  0  0  0  0  0  0  0
  -24.5529  -16.3957   23.3008 C   0  0  0  0  0  0  0  0  0  0  0  0
  -29.4517  -13.8666   20.7036 C   0  0  0  0  0  0  0  0  0  0  0  0
  -23.5055  -16.6273   22.3978 C   0  0  0  0  0  0  0  0  0  0  0  0
  -22.7241  -22.5092   23.5527 C   0  0  0  0  0  0  0  0  0  0  0  0
  -29.7626  -23.4256   19.6019 C   0  0  0  0  0  0  0  0  0  0  0  0
  -23.4517  -18.9607   23.0780 C   0  0  0  0  0  0  0  0  0  0  0  0
  -29.3805  -21.1376   19.9779 C   0  0  0  0  0  0  0  0  0  0  0  0
  -27.5801  -19.0288   20.2850 C   0  0  0  0  0  0  0  0  0  0  0  0
  -28.4433  -21.1655   21.0106 C   0  0  0  0  0  0  0  0  0  0  0  0
  -28.1710  -27.2841   18.9117 C   0  0  0  0  0  0  0  0  0  0  0  0
  -27.7720  -29.3025   18.1360 C   0  0  0  0  0  0  0  0  0  0  0  0
  -29.6667  -28.1334   16.9994 C   0  0  0  0  0  0  0  0  0  0  0  0
  -25.8330  -14.5076   21.0871 C   0  0  0  0  0  0  0  0  0  0  0  0
  -22.9538  -13.0218   21.2470 C   0  0  0  0  0  0  0  0  0  0  0  0
  -19.6343  -13.2119   22.0158 C   0  0  0  0  0  0  0  0  0  0  0  0
  -22.2316  -29.8538   20.3385 C   0  0  0  0  0  0  0  0  0  0  0  0
  -29.7465  -11.6665   19.4532 C   0  0  0  0  0  0  0  0  0  0  0  0
  -25.1345  -15.0171   23.4553 C   0  0  0  0  0  0  0  0  0  0  0  0
  -22.9475  -15.5287   21.5318 C   0  0  0  0  0  0  0  0  0  0  0  0
  -28.2490  -11.7314   19.1642 C   0  0  0  0  0  0  0  0  0  0  0  0
  -25.1666  -31.5101   21.4870 C   0  0  0  0  0  0  0  0  0  0  0  0
  -27.8206  -13.1690   18.8873 C   0  0  0  0  0  0  0  0  0  0  0  0
  -26.3086  -30.6997   20.8713 C   0  0  0  0  0  0  0  0  0  0  0  0
  -18.2245  -27.9391   22.8615 C   0  0  0  0  0  0  0  0  0  0  0  0
  -19.4967  -26.0232   21.7859 C   0  0  0  0  0  0  0  0  0  0  0  0
  -23.9984  -30.6166   21.8983 C   0  0  0  0  0  0  0  0  0  0  0  0
  -24.6249  -28.9300   20.2140 C   0  0  0  0  0  0  0  0  0  0  0  0
  -19.3437  -28.0955   23.8813 C   0  0  0  0  0  0  0  0  0  0  0  0
  -28.0759  -14.0651   20.1052 C   0  0  1  0  0  0  0  0  0  0  0  0
  -20.6174  -26.1918   22.8260 C   0  0  1  0  0  0  0  0  0  0  0  0
  -24.9246  -14.1388   22.2258 C   0  0  1  0  0  0  0  0  0  0  0  0
  -25.8029  -29.7940   19.7323 C   0  0  2  0  0  0  0  0  0  0  0  0
  -18.6913  -27.3042   21.5511 C   0  0  2  0  0  0  0  0  0  0  0  0
  -17.5285  -11.8470   22.0053 C   0  0  0  0  0  0  0  0  0  0  0  0
  -22.7488  -13.3659   18.2222 C   0  0  0  0  0  0  0  0  0  0  0  0
  -20.3003  -12.8755   18.4024 C   0  0  0  0  0  0  0  0  0  0  0  0
  -21.9693  -11.1479   19.0750 C   0  0  0  0  0  0  0  0  0  0  0  0
  -19.3192  -13.4628   24.9478 C   0  0  0  0  0  0  0  0  0  0  0  0
  -23.4586  -21.2253   23.8042 C   0  0  0  0  0  0  0  0  0  1  0  0
  -20.5756  -29.0022   18.6979 C   0  0  0  0  0  0  0  0  0  0  0  0
  -19.6974  -27.9576   19.3610 C   0  0  0  0  0  0  0  0  0  0  0  0
  -21.6288  -13.1794   20.5410 C   0  0  1  0  0  0  0  0  0  0  0  0
  -18.7324  -12.2932   22.8203 C   0  0  2  0  0  0  0  0  0  0  0  0
  -21.6734  -12.6636   19.0749 C   0  0  0  0  0  0  0  0  0  0  0  0
  -27.1421  -27.7251   19.6402 N   0  0  0  0  0  0  0  0  0  0  0  0
  -26.9228  -28.9551   19.1451 N   0  0  0  0  0  0  0  0  0  0  0  0
  -23.5535  -14.1996   21.7151 N   0  0  0  0  0  0  0  0  0  0  0  0
  -23.5656  -29.7847   20.7729 N   0  0  0  0  0  0  0  0  0  0  0  0
  -27.6904  -30.5038   17.5256 N   0  0  0  0  0  0  0  0  0  0  0  0
  -30.4243  -26.9553   16.9518 N   0  0  0  0  0  0  0  0  0  0  0  0
  -27.0528  -13.8588   21.1078 N   0  0  0  0  0  0  0  0  0  0  0  0
  -20.6379  -12.5130   21.3791 N   0  0  0  0  0  0  0  0  0  0  0  0
  -21.9064  -29.0373   19.2623 N   0  0  0  0  0  0  0  0  0  0  0  0
  -20.0163  -26.7766   24.0809 N   0  3  0  0  0  0  0  0  0  0  0  0
  -19.5281  -28.2836   20.7998 N   0  3  0  0  0  0  0  0  0  0  0  0
  -18.2405  -12.9902   24.0423 N   0  3  0  0  0  0  0  0  0  0  0  0
  -29.9459  -29.0748   16.2189 O   0  0  0  0  0  0  0  0  0  0  0  0
  -25.4545  -15.3195   20.2509 O   0  0  0  0  0  0  0  0  0  0  0  0
  -23.4354  -11.8946   21.3845 O   0  0  0  0  0  0  0  0  0  0  0  0
  -19.4631  -14.4275   21.9551 O   0  0  0  0  0  0  0  0  0  0  0  0
  -21.3939  -30.5926   20.8670 O   0  0  0  0  0  0  0  0  0  0  0  0
  -30.2743  -22.1839   19.8236 O   0  0  0  0  0  0  0  0  0  0  0  0
  -22.9173  -20.2070   22.9638 O   0  0  0  0  0  0  0  0  0  1  0  0
  -26.7147  -18.0170   20.4314 F   0  0  0  0  0  0  0  0  0  0  0  0
  -28.4023  -22.2031   21.8577 F   0  0  0  0  0  0  0  0  0  0  0  0
  1  2  1  0  0  0  0
  1  5  2  0  0  0  0
  2  6  2  0  0  0  0
  3 12  2  0  0  0  0
  3 19  1  0  0  0  0
  4 13  1  0  0  0  0
  4 19  2  0  0  0  0
  5 22  1  0  0  0  0
  6 24  1  0  0  0  0
  7 10  2  0  0  0  0
  7 21  1  0  0  0  0
  8 11  1  0  0  0  0
  8 21  2  0  0  0  0
  9 14  2  0  0  0  0
  9 23  1  0  0  0  0
 10 26  1  0  0  0  0
 11 26  2  0  0  0  0
 12 27  1  0  0  0  0
 13 27  2  0  0  0  0
 14 28  1  0  0  0  0
 15 16  2  0  0  0  0
 15 29  1  0  0  0  0
 16 30  1  0  0  0  0
 17 25  1  0  0  0  0
 17 28  2  0  0  0  0
 18 30  2  0  0  0  0
 18 31  1  0  0  0  0
 19 32  1  0  0  0  0
 20 32  1  0  0  0  0
 20 33  2  0  0  0  0
 20 34  1  0  0  0  0
 21 52  1  0  0  0  0
 22 24  2  0  0  0  0
 22 39  1  0  0  0  0
 23 25  2  0  0  0  0
 23 40  1  0  0  0  0
 24 51  1  0  0  0  0
 25 41  1  0  0  0  0
 26 61  1  0  0  0  0
 27 84  1  0  0  0  0
 28 85  1  0  0  0  0
 29 31  2  0  0  0  0
 29 84  1  0  0  0  0
 30 86  1  0  0  0  0
 31 87  1  0  0  0  0
 32 67  2  0  0  0  0
 33 68  1  0  0  0  0
 33 71  1  0  0  0  0
 34 72  1  0  0  0  0
 34 79  2  0  0  0  0
 35 53  1  0  0  0  0
 35 73  1  0  0  0  0
 35 80  2  0  0  0  0
 36 64  1  0  0  0  0
 36 69  1  0  0  0  0
 36 81  2  0  0  0  0
 37 65  1  0  0  0  0
 37 74  1  0  0  0  0
 37 82  2  0  0  0  0
 38 70  1  0  0  0  0
 38 75  1  0  0  0  0
 38 83  2  0  0  0  0
 39 42  1  0  0  0  0
 40 53  1  0  0  0  0
 41 69  1  0  0  0  0
 42 44  1  0  0  0  0
 43 45  1  0  0  0  0
 43 48  1  0  0  0  0
 44 51  1  0  0  0  0
 45 54  1  0  0  0  0
 46 50  1  0  0  0  0
 46 55  1  0  0  0  0
 47 52  1  0  0  0  0
 47 55  1  0  0  0  0
 48 70  1  0  0  0  0
 49 54  1  0  0  0  0
 49 70  1  0  0  0  0
 50 76  1  0  0  0  0
 51 73  1  0  0  0  0
 52 76  1  0  0  0  0
 53 69  1  0  0  0  0
 54 68  1  0  0  0  0
 55 77  1  0  0  0  0
 56 65  1  0  0  0  0
 57 66  1  0  0  0  0
 58 66  1  0  0  0  0
 59 66  1  0  0  0  0
 60 78  1  0  0  0  0
 61 85  1  0  0  0  0
 62 63  1  0  0  0  0
 62 75  1  0  0  0  0
 63 77  1  0  0  0  0
 64 66  1  0  0  0  0
 64 74  1  0  0  0  0
 65 78  1  0  0  0  0
 67 68  1  0  0  0  0
M  CHG  3  76   1  77   1  78   1
M  ISO  4  38 100  61 101  75 100  85 101
M  END
> <Batch ID>
0132

> <Smiles>
CNC(C)C(=O)NC(C(=O)N1Cc2cc([101O:1][101CH2:1]c3ccc(C4CC(NCC[100NH:0][100C:0](=O)N5CCCC(n6nc(-c7ccc(Oc8ccc(F)cc8F)cc7)c(C(N)=O)c6N)C5)CCN4)cc3)ccc2CC1C(=O)NC1CCCc2ccccc21)C(C)(C)C

> <Shape>
0.266

> <Color>
0.067

> <Negative vol penalty>
0.000

$$$$

  -OEChem-04052320523D

 86 94  0     1  0  0  0  0  0999 V2000
  -19.7682  -22.3400   18.5217 C   0  0  0  0  0  0  0  0  0  0  0  0
  -21.1442  -22.1617   18.4195 C   0  0  0  0  0  0  0  0  0  0  0  0
  -23.1323  -27.8065   20.4505 C   0  0  0  0  0  0  0  0  0  0  0  0
  -24.4312  -27.2062   22.3972 C   0  0  0  0  0  0  0  0  0  0  0  0
  -19.0360  -21.5923   19.4429 C   0  0  0  0  0  0  0  0  0  0  0  0
  -21.7889  -21.2362   19.2394 C   0  0  0  0  0  0  0  0  0  0  0  0
  -26.6232  -17.7689   17.7856 C   0  0  0  0  0  0  0  0  0  0  0  0
  -32.1963  -20.1455   18.5514 C   0  0  0  0  0  0  0  0  0  0  0  0
  -21.9898  -27.2755   21.0490 C   0  0  0  0  0  0  0  0  0  0  0  0
  -23.2886  -26.6752   22.9957 C   0  0  0  0  0  0  0  0  0  0  0  0
  -27.9872  -17.9080   18.0384 C   0  0  0  0  0  0  0  0  0  0  0  0
  -31.6459  -18.8664   18.6324 C   0  0  0  0  0  0  0  0  0  0  0  0
  -19.7416  -28.2129   23.3941 C   0  0  0  0  0  0  0  0  0  0  0  0
  -18.5669  -28.9619   23.3269 C   0  0  0  0  0  0  0  0  0  0  0  0
  -27.7695  -16.4757   19.9673 C   0  0  0  0  0  0  0  0  0  0  0  0
  -29.7772  -19.7498   19.8832 C   0  0  0  0  0  0  0  0  0  0  0  0
  -17.4817  -27.1542   22.1473 C   0  0  0  0  0  0  0  0  0  0  0  0
  -24.3531  -27.7718   21.1245 C   0  0  0  0  0  0  0  0  0  0  0  0
  -26.0060  -29.6426   20.5996 C   0  0  0  0  0  0  0  0  0  0  0  0
  -19.6707  -20.6502   20.2678 C   0  0  0  0  0  0  0  0  0  0  0  0
  -25.8187  -16.9897   18.6295 C   0  0  0  0  0  0  0  0  0  0  0  0
  -21.0646  -20.4761   20.1735 C   0  0  0  0  0  0  0  0  0  0  0  0
  -26.3961  -16.3263   19.7215 C   0  0  0  0  0  0  0  0  0  0  0  0
  -30.3276  -21.0289   19.8022 C   0  0  0  0  0  0  0  0  0  0  0  0
  -31.5372  -21.2267   19.1363 C   0  0  0  0  0  0  0  0  0  0  0  0
  -22.0679  -26.7099   22.3216 C   0  0  0  0  0  0  0  0  0  0  0  0
  -28.5600  -17.2637   19.1311 C   0  0  0  0  0  0  0  0  0  0  0  0
  -30.4364  -18.6686   19.2984 C   0  0  0  0  0  0  0  0  0  1  0  0
  -19.7864  -26.9345   22.8379 C   0  0  0  0  0  0  0  0  0  0  0  0
  -17.4369  -28.4326   22.7036 C   0  0  0  0  0  0  0  0  0  0  0  0
  -18.6565  -26.4051   22.2145 C   0  0  0  0  0  0  0  0  0  0  0  0
  -25.5338  -28.3197   20.5065 C   0  0  0  0  0  0  0  0  0  0  0  0
  -27.1505  -29.6528   19.8402 C   0  0  0  0  0  0  0  0  0  0  0  0
  -25.4592  -30.7621   21.3091 C   0  0  0  0  0  0  0  0  0  0  0  0
  -23.3172  -17.5658   20.5041 C   0  0  0  0  0  0  0  0  0  0  0  0
  -23.3290  -14.3408   20.8526 C   0  0  0  0  0  0  0  0  0  0  0  0
  -25.0912  -11.4205   20.7354 C   0  0  0  0  0  0  0  0  0  0  0  0
  -30.9491  -25.3713   18.3930 C   0  0  0  0  0  0  0  0  0  0  0  0
  -18.8441  -19.8993   21.2814 C   0  0  0  0  0  0  0  0  0  0  0  0
  -24.3540  -16.8282   18.3277 C   0  0  0  0  0  0  0  0  0  0  0  0
  -25.5798  -15.4619   20.6461 C   0  0  0  0  0  0  0  0  0  0  0  0
  -19.5483  -18.6709   21.8518 C   0  0  0  0  0  0  0  0  0  0  0  0
  -29.1631  -27.4964   16.0711 C   0  0  0  0  0  0  0  0  0  0  0  0
  -20.9817  -19.0124   22.2463 C   0  0  0  0  0  0  0  0  0  0  0  0
  -28.0681  -28.0752   16.9689 C   0  0  0  0  0  0  0  0  0  0  0  0
  -29.4496  -26.0385   16.4184 C   0  0  0  0  0  0  0  0  0  0  0  0
  -28.7135  -26.3816   18.7452 C   0  0  0  0  0  0  0  0  0  0  0  0
  -21.7964  -19.4641   21.0282 C   0  0  1  0  0  0  0  0  0  0  0  0
  -23.5331  -16.4261   19.5490 C   0  0  1  0  0  0  0  0  0  0  0  0
  -28.3933  -27.8600   18.4589 C   0  0  2  0  0  0  0  0  0  0  0  0
  -30.7887  -21.9276   22.6998 C   0  0  0  0  0  0  0  0  0  0  0  0
  -24.8394   -8.9516   21.1073 C   0  0  0  0  0  0  0  0  0  0  0  0
  -23.3820  -14.7924   23.8698 C   0  0  0  0  0  0  0  0  0  0  0  0
  -24.0804  -12.4040   24.1449 C   0  0  0  0  0  0  0  0  0  0  0  0
  -21.8726  -12.9456   23.1177 C   0  0  0  0  0  0  0  0  0  0  0  0
  -27.0180  -22.9790   17.7034 C   0  0  0  0  0  0  0  0  0  0  0  0
  -25.7895  -10.8084   17.9253 C   0  0  0  0  0  0  0  0  0  0  0  0
  -29.4485  -22.0096   21.9782 C   0  0  0  0  0  0  0  0  0  0  0  0
  -33.0853  -22.8601   18.0587 C   0  0  0  0  0  0  0  0  0  0  0  0
  -33.1615  -24.3693   17.8849 C   0  0  0  0  0  0  0  0  0  0  0  0
  -28.1949  -22.4056   19.8306 C   0  0  0  0  0  0  0  0  0  0  0  0
  -29.6002  -22.1688   20.4378 C   0  0  2  0  0  0  0  0  0  0  0  0
  -23.9894  -13.3705   21.8021 C   0  0  1  0  0  0  0  0  0  0  0  0
  -24.7801  -10.0815   20.0913 C   0  0  2  0  0  0  0  0  0  0  0  0
  -23.3464  -13.3959   23.2175 C   0  0  0  0  0  0  0  0  0  0  0  0
  -26.3143  -27.5457   19.7477 N   0  0  0  0  0  0  0  0  0  0  0  0
  -27.2885  -28.3849   19.3570 N   0  0  0  0  0  0  0  0  0  0  0  0
  -24.1510  -15.3402   20.3128 N   0  0  0  0  0  0  0  0  0  0  0  0
  -29.7702  -25.9052   17.8465 N   0  0  0  0  0  0  0  0  0  0  0  0
  -28.0420  -30.6227   19.5453 N   0  0  0  0  0  0  0  0  0  0  0  0
  -24.2775  -30.5775   22.0397 N   0  0  0  0  0  0  0  0  0  0  0  0
  -32.1089  -22.5146   19.0437 N   0  0  0  0  0  0  0  0  0  0  0  0
  -22.1925  -18.3215   20.2331 N   0  0  0  0  0  0  0  0  0  0  0  0
  -23.9455  -12.0666   21.1492 N   0  0  0  0  0  0  0  0  0  0  0  0
  -31.8964  -24.9365   17.4742 N   0  0  0  0  0  0  0  0  0  0  0  0
  -28.3178  -22.7631   18.3936 N   0  3  0  0  0  0  0  0  0  0  0  0
  -25.7584   -9.7892   19.0057 N   0  3  0  0  0  0  0  0  0  0  0  0
  -25.9935  -31.8967   21.2823 O   0  0  0  0  0  0  0  0  0  0  0  0
  -24.1113  -17.7453   21.4200 O   0  0  0  0  0  0  0  0  0  0  0  0
  -22.1298  -14.2122   20.5938 O   0  0  0  0  0  0  0  0  0  0  0  0
  -26.2362  -11.8486   20.8623 O   0  0  0  0  0  0  0  0  0  0  0  0
  -31.1455  -25.2928   19.6106 O   0  0  0  0  0  0  0  0  0  0  0  0
  -20.9532  -26.1918   22.9061 O   0  0  0  0  0  0  0  0  0  0  0  0
  -29.8910  -17.3982   19.3805 O   0  0  0  0  0  0  0  0  0  1  0  0
  -16.3084  -29.1514   22.6405 F   0  0  0  0  0  0  0  0  0  0  0  0
  -18.6931  -25.1771   21.6793 F   0  0  0  0  0  0  0  0  0  0  0  0
  1  2  1  0  0  0  0
  1  5  2  0  0  0  0
  2  6  2  0  0  0  0
  3  9  2  0  0  0  0
  3 18  1  0  0  0  0
  4 10  1  0  0  0  0
  4 18  2  0  0  0  0
  5 20  1  0  0  0  0
  6 22  1  0  0  0  0
  7 11  2  0  0  0  0
  7 21  1  0  0  0  0
  8 12  2  0  0  0  0
  8 25  1  0  0  0  0
  9 26  1  0  0  0  0
 10 26  2  0  0  0  0
 11 27  1  0  0  0  0
 12 28  1  0  0  0  0
 13 14  2  0  0  0  0
 13 29  1  0  0  0  0
 14 30  1  0  0  0  0
 15 23  1  0  0  0  0
 15 27  2  0  0  0  0
 16 24  1  0  0  0  0
 16 28  2  0  0  0  0
 17 30  2  0  0  0  0
 17 31  1  0  0  0  0
 18 32  1  0  0  0  0
 19 32  1  0  0  0  0
 19 33  2  0  0  0  0
 19 34  1  0  0  0  0
 20 22  2  0  0  0  0
 20 39  1  0  0  0  0
 21 23  2  0  0  0  0
 21 40  1  0  0  0  0
 22 48  1  0  0  0  0
 23 41  1  0  0  0  0
 24 25  2  0  0  0  0
 24 62  1  0  0  0  0
 25 72  1  0  0  0  0
 26 83  1  0  0  0  0
 27 84  1  0  0  0  0
 28 84  1  0  0  0  0
 29 31  2  0  0  0  0
 29 83  1  0  0  0  0
 30 85  1  0  0  0  0
 31 86  1  0  0  0  0
 32 66  2  0  0  0  0
 33 67  1  0  0  0  0
 33 70  1  0  0  0  0
 34 71  1  0  0  0  0
 34 78  2  0  0  0  0
 35 49  1  0  0  0  0
 35 73  1  0  0  0  0
 35 79  2  0  0  0  0
 36 63  1  0  0  0  0
 36 68  1  0  0  0  0
 36 80  2  0  0  0  0
 37 64  1  0  0  0  0
 37 74  1  0  0  0  0
 37 81  2  0  0  0  0
 38 69  1  0  0  0  0
 38 75  1  0  0  0  0
 38 82  2  0  0  0  0
 39 42  1  0  0  0  0
 40 49  1  0  0  0  0
 41 68  1  0  0  0  0
 42 44  1  0  0  0  0
 43 45  1  0  0  0  0
 43 46  1  0  0  0  0
 44 48  1  0  0  0  0
 45 50  1  0  0  0  0
 46 69  1  0  0  0  0
 47 50  1  0  0  0  0
 47 69  1  0  0  0  0
 48 73  1  0  0  0  0
 49 68  1  0  0  0  0
 50 67  1  0  0  0  0
 51 58  1  0  0  0  0
 52 64  1  0  0  0  0
 53 65  1  0  0  0  0
 54 65  1  0  0  0  0
 55 65  1  0  0  0  0
 56 76  1  0  0  0  0
 57 77  1  0  0  0  0
 58 62  1  0  0  0  0
 59 60  1  0  0  0  0
 59 72  1  0  0  0  0
 60 75  1  0  0  0  0
 61 62  1  0  0  0  0
 61 76  1  0  0  0  0
 63 65  1  0  0  0  0
 63 74  1  0  0  0  0
 64 77  1  0  0  0  0
 66 67  1  0  0  0  0
M  CHG  2  76   1  77   1
M  ISO  4  28 101  38 100  75 100  84 101
M  END
> <Batch ID>
0132

> <Smiles>
CCC(CNC)c1c[101c:1]([101O:1]c2ccc3c(c2)CN(C(=O)C(NC(=O)C(C)NC)C(C)(C)C)C(C(=O)NC2CCCc4ccccc42)C3)ccc1NCC[100NH:0][100C:0](=O)N1CCCC(n2nc(-c3ccc(Oc4ccc(F)cc4F)cc3)c(C(N)=O)c2N)C1

> <Shape>
0.239

> <Color>
0.080

> <Negative vol penalty>
0.000

$$$$

  -OEChem-04052320523D

 85 94  0     1  0  0  0  0  0999 V2000
  -29.1445  -19.7856   28.4159 C   0  0  0  0  0  0  0  0  0  0  0  0
  -28.0819  -20.1879   27.6132 C   0  0  0  0  0  0  0  0  0  0  0  0
  -28.9390  -25.8400   20.7829 C   0  0  0  0  0  0  0  0  0  0  0  0
  -26.8965  -24.5833   20.4898 C   0  0  0  0  0  0  0  0  0  0  0  0
  -29.8398  -18.6152   28.1149 C   0  0  0  0  0  0  0  0  0  0  0  0
  -27.7146  -19.4206   26.5084 C   0  0  0  0  0  0  0  0  0  0  0  0
  -22.7016  -18.7935   26.1585 C   0  0  0  0  0  0  0  0  0  0  0  0
  -18.3995  -26.0845   21.5562 C   0  0  0  0  0  0  0  0  0  0  0  0
  -18.8584  -27.3998   21.4848 C   0  0  0  0  0  0  0  0  0  0  0  0
  -29.5881  -24.6840   21.2164 C   0  0  0  0  0  0  0  0  0  0  0  0
  -27.5456  -23.4272   20.9233 C   0  0  0  0  0  0  0  0  0  0  0  0
  -21.9601  -19.8611   25.6545 C   0  0  0  0  0  0  0  0  0  0  0  0
  -28.7600  -20.0698   21.6094 C   0  0  0  0  0  0  0  0  0  0  0  0
  -28.5521  -18.8973   20.8831 C   0  0  0  0  0  0  0  0  0  0  0  0
  -19.1703  -25.9395   23.8413 C   0  0  0  0  0  0  0  0  0  0  0  0
  -21.8738  -18.7769   23.5013 C   0  0  0  0  0  0  0  0  0  0  0  0
  -29.4604  -19.9576   18.9114 C   0  0  0  0  0  0  0  0  0  0  0  0
  -27.5932  -25.7897   20.4196 C   0  0  0  0  0  0  0  0  0  0  0  0
  -26.8202  -27.4569   18.6503 C   0  0  0  0  0  0  0  0  0  0  0  0
  -29.4747  -17.8280   27.0114 C   0  0  0  0  0  0  0  0  0  0  0  0
  -23.0448  -17.7128   25.3334 C   0  0  0  0  0  0  0  0  0  0  0  0
  -28.4065  -18.2393   26.1915 C   0  0  0  0  0  0  0  0  0  0  0  0
  -19.6293  -27.2548   23.7700 C   0  0  0  0  0  0  0  0  0  0  0  0
  -22.6176  -17.6956   23.9980 C   0  0  0  0  0  0  0  0  0  0  0  0
  -18.5554  -25.3544   22.7345 C   0  0  0  0  0  0  0  0  0  0  0  0
  -19.4734  -27.9849   22.5917 C   0  0  0  0  0  0  0  0  0  0  0  0
  -28.8914  -23.4776   21.2866 C   0  0  0  0  0  0  0  0  0  0  0  0
  -21.5485  -19.8543   24.3250 C   0  0  0  0  0  0  0  0  0  0  0  0
  -29.3180  -21.1863   20.9867 C   0  0  0  0  0  0  0  0  0  0  0  0
  -28.9023  -18.8411   19.5341 C   0  0  0  0  0  0  0  0  0  0  0  0
  -29.6683  -21.1302   19.6377 C   0  0  0  0  0  0  0  0  0  0  0  0
  -26.9220  -26.9836   19.9722 C   0  0  0  0  0  0  0  0  0  0  0  0
  -26.0909  -28.6160   18.7559 C   0  0  0  0  0  0  0  0  0  0  0  0
  -27.3385  -26.8988   17.4356 C   0  0  0  0  0  0  0  0  0  0  0  0
  -25.7768  -16.4506   24.3104 C   0  0  0  0  0  0  0  0  0  0  0  0
  -23.8145  -14.1821   23.0752 C   0  0  0  0  0  0  0  0  0  0  0  0
  -20.6995  -13.3379   21.9659 C   0  0  0  0  0  0  0  0  0  0  0  0
  -22.1163  -30.5803   22.7802 C   0  0  0  0  0  0  0  0  0  0  0  0
  -30.2862  -16.5959   26.6983 C   0  0  0  0  0  0  0  0  0  0  0  0
  -23.8223  -16.5564   25.8994 C   0  0  0  0  0  0  0  0  0  0  0  0
  -22.9425  -16.5496   23.0762 C   0  0  0  0  0  0  0  0  0  0  0  0
  -29.5952  -15.6419   25.7274 C   0  0  0  0  0  0  0  0  0  0  0  0
  -25.1440  -32.1797   21.8046 C   0  0  0  0  0  0  0  0  0  0  0  0
  -21.7843  -27.8193   25.0780 C   0  0  0  0  0  0  0  0  0  0  0  0
  -20.9475  -26.9599   25.9731 C   0  0  0  0  0  0  0  0  0  0  0  0
  -29.0214  -16.4105   24.5413 C   0  0  0  0  0  0  0  0  0  0  0  0
  -25.9338  -31.0720   21.1051 C   0  0  0  0  0  0  0  0  0  0  0  0
  -24.3451  -31.6411   22.9894 C   0  0  0  0  0  0  0  0  0  0  0  0
  -24.2488  -29.3975   21.9742 C   0  0  0  0  0  0  0  0  0  0  0  0
  -20.2837  -27.8616   24.9669 C   0  0  0  0  0  0  0  0  0  0  0  0
  -27.9622  -17.4206   24.9988 C   0  0  1  0  0  0  0  0  0  0  0  0
  -24.5547  -15.7492   24.8320 C   0  0  1  0  0  0  0  0  0  0  0  0
  -25.0266  -29.8821   20.7387 C   0  0  2  0  0  0  0  0  0  0  0  0
  -19.4111  -11.4229   20.9810 C   0  0  0  0  0  0  0  0  0  0  0  0
  -25.1490  -14.6758   20.3760 C   0  0  0  0  0  0  0  0  0  0  0  0
  -23.2358  -13.4805   19.2900 C   0  0  0  0  0  0  0  0  0  0  0  0
  -24.7094  -12.2698   20.8979 C   0  0  0  0  0  0  0  0  0  0  0  0
  -18.8280  -13.2668   24.2575 C   0  0  0  0  0  0  0  0  0  0  0  0
  -19.9553  -29.3951   22.4897 C   0  0  0  0  0  0  0  0  0  0  0  0
  -18.0617  -23.9397   22.8108 C   0  0  0  0  0  0  0  0  0  0  0  0
  -18.7062  -21.5277   22.8853 C   0  0  0  0  0  0  0  0  0  0  0  0
  -19.9045  -20.6053   22.7792 C   0  0  0  0  0  0  0  0  0  1  0  0
  -23.0825  -13.9986   21.7678 C   0  0  1  0  0  0  0  0  0  0  0  0
  -19.8162  -12.1388   22.2601 C   0  0  2  0  0  0  0  0  0  0  0  0
  -24.0395  -13.6288   20.5995 C   0  0  0  0  0  0  0  0  0  0  0  0
  -26.3067  -27.7772   20.8529 N   0  0  0  0  0  0  0  0  0  0  0  0
  -25.8114  -28.7610   20.0829 N   0  0  0  0  0  0  0  0  0  0  0  0
  -23.7104  -15.4453   23.6748 N   0  0  0  0  0  0  0  0  0  0  0  0
  -23.5043  -30.5156   22.5743 N   0  0  0  0  0  0  0  0  0  0  0  0
  -25.6679  -29.5152   17.8421 N   0  0  0  0  0  0  0  0  0  0  0  0
  -28.0652  -25.7025   17.5067 N   0  0  0  0  0  0  0  0  0  0  0  0
  -26.7123  -16.7487   25.2828 N   0  0  0  0  0  0  0  0  0  0  0  0
  -22.0381  -13.0116   22.0198 N   0  0  0  0  0  0  0  0  0  0  0  0
  -21.3925  -29.4742   22.3521 N   0  0  0  0  0  0  0  0  0  0  0  0
  -18.5785  -12.5690   22.9700 N   0  3  0  0  0  0  0  0  0  0  0  0
  -19.1581  -22.9356   22.7520 N   0  3  0  0  0  0  0  0  0  0  0  0
  -27.1763  -27.4533   16.3222 O   0  0  0  0  0  0  0  0  0  0  0  0
  -25.8652  -16.7014   23.1142 O   0  0  0  0  0  0  0  0  0  0  0  0
  -24.4493  -13.2374   23.5507 O   0  0  0  0  0  0  0  0  0  0  0  0
  -20.2472  -14.4516   21.7100 O   0  0  0  0  0  0  0  0  0  0  0  0
  -21.5625  -31.5542   23.3017 O   0  0  0  0  0  0  0  0  0  0  0  0
  -29.5245  -22.3494   21.7094 O   0  0  0  0  0  0  0  0  0  0  0  0
  -20.8251  -20.8954   23.8303 O   0  0  0  0  0  0  0  0  0  1  0  0
  -28.7041  -17.7146   18.8371 F   0  0  0  0  0  0  0  0  0  0  0  0
  -30.2059  -22.1992   19.0344 F   0  0  0  0  0  0  0  0  0  0  0  0
  1  2  1  0  0  0  0
  1  5  2  0  0  0  0
  2  6  2  0  0  0  0
  3 10  2  0  0  0  0
  3 18  1  0  0  0  0
  4 11  1  0  0  0  0
  4 18  2  0  0  0  0
  5 20  1  0  0  0  0
  6 22  1  0  0  0  0
  7 12  2  0  0  0  0
  7 21  1  0  0  0  0
  8  9  2  0  0  0  0
  8 25  1  0  0  0  0
  9 26  1  0  0  0  0
 10 27  1  0  0  0  0
 11 27  2  0  0  0  0
 12 28  1  0  0  0  0
 13 14  2  0  0  0  0
 13 29  1  0  0  0  0
 14 30  1  0  0  0  0
 15 23  1  0  0  0  0
 15 25  2  0  0  0  0
 16 24  1  0  0  0  0
 16 28  2  0  0  0  0
 17 30  2  0  0  0  0
 17 31  1  0  0  0  0
 18 32  1  0  0  0  0
 19 32  1  0  0  0  0
 19 33  2  0  0  0  0
 19 34  1  0  0  0  0
 20 22  2  0  0  0  0
 20 39  1  0  0  0  0
 21 24  2  0  0  0  0
 21 40  1  0  0  0  0
 22 51  1  0  0  0  0
 23 26  2  0  0  0  0
 23 50  1  0  0  0  0
 24 41  1  0  0  0  0
 25 60  1  0  0  0  0
 26 59  1  0  0  0  0
 27 82  1  0  0  0  0
 28 83  1  0  0  0  0
 29 31  2  0  0  0  0
 29 82  1  0  0  0  0
 30 84  1  0  0  0  0
 31 85  1  0  0  0  0
 32 66  2  0  0  0  0
 33 67  1  0  0  0  0
 33 70  1  0  0  0  0
 34 71  1  0  0  0  0
 34 77  2  0  0  0  0
 35 52  1  0  0  0  0
 35 72  1  0  0  0  0
 35 78  2  0  0  0  0
 36 63  1  0  0  0  0
 36 68  1  0  0  0  0
 36 79  2  0  0  0  0
 37 64  1  0  0  0  0
 37 73  1  0  0  0  0
 37 80  2  0  0  0  0
 38 69  1  0  0  0  0
 38 74  1  0  0  0  0
 38 81  2  0  0  0  0
 39 42  1  0  0  0  0
 40 52  1  0  0  0  0
 41 68  1  0  0  0  0
 42 46  1  0  0  0  0
 43 47  1  0  0  0  0
 43 48  1  0  0  0  0
 44 45  1  0  0  0  0
 44 50  1  0  0  0  0
 45 50  1  0  0  0  0
 46 51  1  0  0  0  0
 47 53  1  0  0  0  0
 48 69  1  0  0  0  0
 49 53  1  0  0  0  0
 49 69  1  0  0  0  0
 51 72  1  0  0  0  0
 52 68  1  0  0  0  0
 53 67  1  0  0  0  0
 54 64  1  0  0  0  0
 55 65  1  0  0  0  0
 56 65  1  0  0  0  0
 57 65  1  0  0  0  0
 58 75  1  0  0  0  0
 59 74  1  0  0  0  0
 60 76  1  0  0  0  0
 61 62  1  0  0  0  0
 61 76  1  0  0  0  0
 62 83  1  0  0  0  0
 63 65  1  0  0  0  0
 63 73  1  0  0  0  0
 64 75  1  0  0  0  0
 66 67  1  0  0  0  0
M  CHG  2  75   1  76   1
M  ISO  4  38 100  62 101  74 100  83 101
M  END
> <Batch ID>
0132

> <Smiles>
CNC(C)C(=O)NC(C(=O)N1Cc2cc([101O:1][101CH2:1]CNCc3ccc(C[100NH:0][100C:0](=O)N4CCCC(n5nc(-c6ccc(Oc7ccc(F)cc7F)cc6)c(C(N)=O)c5N)C4)c(C4CC4)c3)ccc2CC1C(=O)NC1CCCc2ccccc21)C(C)(C)C

> <Shape>
0.201

> <Color>
0.062

> <Negative vol penalty>
0.000

$$$$

  -OEChem-04052320523D

 85 94  0     1  0  0  0  0  0999 V2000
  -34.3271  -24.9383   13.2462 C   0  0  0  0  0  0  0  0  0  0  0  0
  -33.9188  -23.8937   14.0693 C   0  0  0  0  0  0  0  0  0  0  0  0
  -18.4886  -22.8069   22.0015 C   0  0  0  0  0  0  0  0  0  0  0  0
  -19.5406  -22.7274   19.8280 C   0  0  0  0  0  0  0  0  0  0  0  0
  -34.2231  -26.2558   13.6903 C   0  0  0  0  0  0  0  0  0  0  0  0
  -33.4071  -24.1660   15.3375 C   0  0  0  0  0  0  0  0  0  0  0  0
  -29.2391  -21.4809   16.3686 C   0  0  0  0  0  0  0  0  0  0  0  0
  -30.9582  -16.2644   20.5060 C   0  0  0  0  0  0  0  0  0  0  0  0
  -31.1796  -14.9001   20.6865 C   0  0  0  0  0  0  0  0  0  0  0  0
  -18.3713  -24.1926   21.8941 C   0  0  0  0  0  0  0  0  0  0  0  0
  -19.4233  -24.1132   19.7206 C   0  0  0  0  0  0  0  0  0  0  0  0
  -29.4152  -20.1470   16.7339 C   0  0  0  0  0  0  0  0  0  0  0  0
  -18.1208  -27.7920   22.3473 C   0  0  0  0  0  0  0  0  0  0  0  0
  -18.4672  -28.5617   23.4578 C   0  0  0  0  0  0  0  0  0  0  0  0
  -28.7258  -15.7954   19.7145 C   0  0  0  0  0  0  0  0  0  0  0  0
  -29.1506  -20.7537   19.0536 C   0  0  0  0  0  0  0  0  0  0  0  0
  -20.7110  -27.6694   23.3762 C   0  0  0  0  0  0  0  0  0  0  0  0
  -19.0734  -22.0743   20.9685 C   0  0  0  0  0  0  0  0  0  0  0  0
  -18.2615  -19.6753   20.6623 C   0  0  0  0  0  0  0  0  0  0  0  0
  -33.7010  -26.5449   14.9609 C   0  0  0  0  0  0  0  0  0  0  0  0
  -29.0279  -22.4645   17.3455 C   0  0  0  0  0  0  0  0  0  0  0  0
  -33.2973  -25.4885   15.7996 C   0  0  0  0  0  0  0  0  0  0  0  0
  -28.9372  -14.4199   19.8883 C   0  0  0  0  0  0  0  0  0  0  0  0
  -28.9695  -22.0990   18.6979 C   0  0  0  0  0  0  0  0  0  0  0  0
  -29.7312  -16.7123   20.0227 C   0  0  0  0  0  0  0  0  0  0  0  0
  -30.1701  -13.9798   20.3904 C   0  0  0  0  0  0  0  0  0  0  0  0
  -18.8386  -24.8458   20.7537 C   0  0  0  0  0  0  0  0  0  0  0  0
  -29.3739  -19.7836   18.0768 C   0  0  0  0  0  0  0  0  0  0  0  0
  -19.0694  -26.9609   21.7513 C   0  0  0  0  0  0  0  0  0  0  0  0
  -19.7623  -28.5004   23.9722 C   0  0  0  0  0  0  0  0  0  0  0  0
  -20.3645  -26.8997   22.2657 C   0  0  0  0  0  0  0  0  0  0  0  0
  -19.1953  -20.6428   21.0791 C   0  0  0  0  0  0  0  0  0  0  0  0
  -18.8434  -18.4743   20.9868 C   0  0  0  0  0  0  0  0  0  0  0  0
  -16.9825  -19.8470   20.0374 C   0  0  0  0  0  0  0  0  0  0  0  0
  -30.5911  -25.0696   18.2803 C   0  0  0  0  0  0  0  0  0  0  0  0
  -27.9750  -25.4944   20.1506 C   0  0  0  0  0  0  0  0  0  0  0  0
  -25.2997  -24.1038   21.7492 C   0  0  0  0  0  0  0  0  0  0  0  0
  -23.1871  -15.1458   21.0117 C   0  0  0  0  0  0  0  0  0  0  0  0
  -33.6520  -27.9821   15.4158 C   0  0  0  0  0  0  0  0  0  0  0  0
  -28.8131  -23.8950   16.9331 C   0  0  0  0  0  0  0  0  0  0  0  0
  -28.7255  -23.1137   19.7838 C   0  0  0  0  0  0  0  0  0  0  0  0
  -32.7504  -28.2073   16.6268 C   0  0  0  0  0  0  0  0  0  0  0  0
  -22.9214  -17.4417   23.7967 C   0  0  0  0  0  0  0  0  0  0  0  0
  -33.0198  -27.1534   17.6962 C   0  0  0  0  0  0  0  0  0  0  0  0
  -21.8428  -18.4039   23.2958 C   0  0  0  0  0  0  0  0  0  0  0  0
  -28.4164  -12.0294   19.4347 C   0  0  0  0  0  0  0  0  0  0  0  0
  -23.8406  -17.0021   22.6609 C   0  0  0  0  0  0  0  0  0  0  0  0
  -22.0570  -17.3515   20.9965 C   0  0  0  0  0  0  0  0  0  0  0  0
  -29.3734  -11.7602   20.5875 C   0  0  0  0  0  0  0  0  0  0  0  0
  -32.7140  -25.7450   17.1723 C   0  0  1  0  0  0  0  0  0  0  0  0
  -27.8465  -13.4424   19.5444 C   0  0  1  0  0  0  0  0  0  0  0  0
  -29.1174  -24.8905   18.0483 C   0  0  1  0  0  0  0  0  0  0  0  0
  -21.0813  -17.8152   22.0933 C   0  0  2  0  0  0  0  0  0  0  0  0
  -23.1693  -24.0086   23.0720 C   0  0  0  0  0  0  0  0  0  0  0  0
  -29.8691  -25.7235   22.5318 C   0  0  0  0  0  0  0  0  0  0  0  0
  -27.9045  -25.3601   24.0406 C   0  0  0  0  0  0  0  0  0  0  0  0
  -27.9742  -27.3556   22.5453 C   0  0  0  0  0  0  0  0  0  0  0  0
  -23.6392  -24.3558   19.3124 C   0  0  0  0  0  0  0  0  0  0  0  0
  -29.4916  -18.1809   19.8299 C   0  0  0  0  0  0  0  0  0  1  0  0
  -24.4084  -12.9900   21.1457 C   0  0  0  0  0  0  0  0  0  0  0  0
  -25.4538  -12.9317   20.0475 C   0  0  0  0  0  0  0  0  0  0  0  0
  -27.5757  -25.0689   21.5429 C   0  0  1  0  0  0  0  0  0  0  0  0
  -23.8360  -24.5036   21.7980 C   0  0  2  0  0  0  0  0  0  0  0  0
  -28.3374  -25.8580   22.6451 C   0  0  0  0  0  0  0  0  0  0  0  0
  -20.2874  -20.1031   21.6268 N   0  0  0  0  0  0  0  0  0  0  0  0
  -20.0435  -18.7833   21.5565 N   0  0  0  0  0  0  0  0  0  0  0  0
  -28.5276  -24.5004   19.3306 N   0  0  0  0  0  0  0  0  0  0  0  0
  -23.0551  -16.4340   21.5562 N   0  0  0  0  0  0  0  0  0  0  0  0
  -18.4404  -17.1945   20.8378 N   0  0  0  0  0  0  0  0  0  0  0  0
  -16.5366  -21.1495   19.7748 N   0  0  0  0  0  0  0  0  0  0  0  0
  -31.2867  -25.5059   17.1689 N   0  0  0  0  0  0  0  0  0  0  0  0
  -26.1242  -25.2001   21.6093 N   0  0  0  0  0  0  0  0  0  0  0  0
  -24.1597  -14.3421   21.5939 N   0  0  0  0  0  0  0  0  0  0  0  0
  -26.7492  -13.4421   20.5600 N   0  3  0  0  0  0  0  0  0  0  0  0
  -23.1040  -23.9328   20.6321 N   0  3  0  0  0  0  0  0  0  0  0  0
  -16.2494  -18.8747   19.7363 O   0  0  0  0  0  0  0  0  0  0  0  0
  -31.0620  -24.8310   19.3863 O   0  0  0  0  0  0  0  0  0  0  0  0
  -27.7964  -26.6638   19.8011 O   0  0  0  0  0  0  0  0  0  0  0  0
  -25.6743  -22.9361   21.8311 O   0  0  0  0  0  0  0  0  0  0  0  0
  -22.4859  -14.7395   20.0788 O   0  0  0  0  0  0  0  0  0  0  0  0
  -30.4860  -12.6598   20.5861 O   0  0  0  0  0  0  0  0  0  0  0  0
  -18.7241  -26.1979   20.6484 O   0  0  0  0  0  0  0  0  0  0  0  0
  -29.5461  -18.4825   18.4362 O   0  0  0  0  0  0  0  0  0  1  0  0
  -20.0953  -29.2408   25.0376 F   0  0  0  0  0  0  0  0  0  0  0  0
  -21.2804  -26.1040   21.6967 F   0  0  0  0  0  0  0  0  0  0  0  0
  1  2  1  0  0  0  0
  1  5  2  0  0  0  0
  2  6  2  0  0  0  0
  3 10  2  0  0  0  0
  3 18  1  0  0  0  0
  4 11  1  0  0  0  0
  4 18  2  0  0  0  0
  5 20  1  0  0  0  0
  6 22  1  0  0  0  0
  7 12  2  0  0  0  0
  7 21  1  0  0  0  0
  8  9  2  0  0  0  0
  8 25  1  0  0  0  0
  9 26  1  0  0  0  0
 10 27  1  0  0  0  0
 11 27  2  0  0  0  0
 12 28  1  0  0  0  0
 13 14  2  0  0  0  0
 13 29  1  0  0  0  0
 14 30  1  0  0  0  0
 15 23  1  0  0  0  0
 15 25  2  0  0  0  0
 16 24  1  0  0  0  0
 16 28  2  0  0  0  0
 17 30  2  0  0  0  0
 17 31  1  0  0  0  0
 18 32  1  0  0  0  0
 19 32  1  0  0  0  0
 19 33  2  0  0  0  0
 19 34  1  0  0  0  0
 20 22  2  0  0  0  0
 20 39  1  0  0  0  0
 21 24  2  0  0  0  0
 21 40  1  0  0  0  0
 22 50  1  0  0  0  0
 23 26  2  0  0  0  0
 23 51  1  0  0  0  0
 24 41  1  0  0  0  0
 25 59  1  0  0  0  0
 26 81  1  0  0  0  0
 27 82  1  0  0  0  0
 28 83  1  0  0  0  0
 29 31  2  0  0  0  0
 29 82  1  0  0  0  0
 30 84  1  0  0  0  0
 31 85  1  0  0  0  0
 32 65  2  0  0  0  0
 33 66  1  0  0  0  0
 33 69  1  0  0  0  0
 34 70  1  0  0  0  0
 34 76  2  0  0  0  0
 35 52  1  0  0  0  0
 35 71  1  0  0  0  0
 35 77  2  0  0  0  0
 36 62  1  0  0  0  0
 36 67  1  0  0  0  0
 36 78  2  0  0  0  0
 37 63  1  0  0  0  0
 37 72  1  0  0  0  0
 37 79  2  0  0  0  0
 38 68  1  0  0  0  0
 38 73  1  0  0  0  0
 38 80  2  0  0  0  0
 39 42  1  0  0  0  0
 40 52  1  0  0  0  0
 41 67  1  0  0  0  0
 42 44  1  0  0  0  0
 43 45  1  0  0  0  0
 43 47  1  0  0  0  0
 44 50  1  0  0  0  0
 45 53  1  0  0  0  0
 46 49  1  0  0  0  0
 46 51  1  0  0  0  0
 47 68  1  0  0  0  0
 48 53  1  0  0  0  0
 48 68  1  0  0  0  0
 49 81  1  0  0  0  0
 50 71  1  0  0  0  0
 51 74  1  0  0  0  0
 52 67  1  0  0  0  0
 53 66  1  0  0  0  0
 54 63  1  0  0  0  0
 55 64  1  0  0  0  0
 56 64  1  0  0  0  0
 57 64  1  0  0  0  0
 58 75  1  0  0  0  0
 59 83  1  0  0  0  0
 60 61  1  0  0  0  0
 60 73  1  0  0  0  0
 61 74  1  0  0  0  0
 62 64  1  0  0  0  0
 62 72  1  0  0  0  0
 63 75  1  0  0  0  0
 65 66  1  0  0  0  0
M  CHG  2  74   1  75   1
M  ISO  4  38 100  59 101  73 100  83 101
M  END
> <Batch ID>
0132

> <Smiles>
CNC(C)C(=O)NC(C(=O)N1Cc2cc([101O:1][101CH2:1]c3ccc4c(c3)C(NCC[100NH:0][100C:0](=O)N3CCCC(n5nc(-c6ccc(Oc7ccc(F)cc7F)cc6)c(C(N)=O)c5N)C3)CCO4)ccc2CC1C(=O)NC1CCCc2ccccc21)C(C)(C)C

> <Shape>
0.196

> <Color>
0.070

> <Negative vol penalty>
0.000

$$$$

  -OEChem-04052320523D

 89 98  0     1  0  0  0  0  0999 V2000
  -16.8951  -29.6276   24.5325 C   0  0  0  0  0  0  0  0  0  0  0  0
  -17.3954  -28.3950   24.1253 C   0  0  0  0  0  0  0  0  0  0  0  0
  -23.4859   -9.2685   22.6768 C   0  0  0  0  0  0  0  0  0  0  0  0
  -22.8709  -10.3553   23.2982 C   0  0  0  0  0  0  0  0  0  0  0  0
  -30.7813  -18.8683   20.5789 C   0  0  0  0  0  0  0  0  0  0  0  0
  -29.0574  -18.5721   18.9123 C   0  0  0  0  0  0  0  0  0  0  0  0
  -17.3889  -30.8012   23.9642 C   0  0  0  0  0  0  0  0  0  0  0  0
  -18.3890  -28.3351   23.1488 C   0  0  0  0  0  0  0  0  0  0  0  0
  -22.9753  -24.2911   22.8064 C   0  0  0  0  0  0  0  0  0  0  0  0
  -23.9744   -9.3935   21.3762 C   0  0  0  0  0  0  0  0  0  0  0  0
  -22.7441  -11.5670   22.6190 C   0  0  0  0  0  0  0  0  0  0  0  0
  -31.1418  -20.0805   19.9907 C   0  0  0  0  0  0  0  0  0  0  0  0
  -29.4179  -19.7845   18.3241 C   0  0  0  0  0  0  0  0  0  0  0  0
  -23.1413  -23.1215   22.0659 C   0  0  0  0  0  0  0  0  0  0  0  0
  -29.6466  -22.9759   16.5976 C   0  0  0  0  0  0  0  0  0  0  0  0
  -28.6230  -23.8509   16.2342 C   0  0  0  0  0  0  0  0  0  0  0  0
  -24.3521  -24.3625   20.3886 C   0  0  0  0  0  0  0  0  0  0  0  0
  -27.8945  -23.9543   18.5355 C   0  0  0  0  0  0  0  0  0  0  0  0
  -29.7392  -18.1140   20.0397 C   0  0  0  0  0  0  0  0  0  0  0  0
  -28.9145  -16.6562   21.9639 C   0  0  0  0  0  0  0  0  0  0  0  0
  -18.3959  -30.7562   22.9872 C   0  0  0  0  0  0  0  0  0  0  0  0
  -23.4880  -25.5092   22.3375 C   0  0  0  0  0  0  0  0  0  0  0  0
  -18.8958  -29.5091   22.5660 C   0  0  0  0  0  0  0  0  0  0  0  0
  -24.1935  -25.5456   21.1263 C   0  0  0  0  0  0  0  0  0  0  0  0
  -23.8476  -10.6052   20.6970 C   0  0  0  0  0  0  0  0  0  0  0  0
  -23.2325  -11.6920   21.3184 C   0  0  0  0  0  0  0  0  0  0  0  0
  -30.4601  -20.5387   18.8633 C   0  0  0  0  0  0  0  0  0  0  0  0
  -23.8272  -23.1576   20.8554 C   0  0  0  0  0  0  0  0  0  0  0  0
  -29.7942  -22.5899   17.9299 C   0  0  0  0  0  0  0  0  0  0  0  0
  -27.7470  -24.3402   17.2032 C   0  0  0  0  0  0  0  0  0  0  0  0
  -28.9181  -23.0792   18.8988 C   0  0  0  0  0  0  0  0  0  0  0  0
  -29.3667  -16.8614   20.6466 C   0  0  0  0  0  0  0  0  0  0  0  0
  -28.6964  -15.3026   22.0451 C   0  0  0  0  0  0  0  0  0  0  0  0
  -28.7098  -17.6044   23.0196 C   0  0  0  0  0  0  0  0  0  0  0  0
  -22.2220  -28.3025   21.5016 C   0  0  0  0  0  0  0  0  0  0  0  0
  -25.3307  -29.1951   21.2530 C   0  0  0  0  0  0  0  0  0  0  0  0
  -28.5822  -28.2698   20.7856 C   0  0  0  0  0  0  0  0  0  0  0  0
  -26.8082  -10.8786   18.8237 C   0  0  0  0  0  0  0  0  0  0  0  0
  -18.8648  -32.0489   22.3679 C   0  0  0  0  0  0  0  0  0  0  0  0
  -23.3237  -26.7570   23.1611 C   0  0  0  0  0  0  0  0  0  0  0  0
  -24.7808  -26.8241   20.5887 C   0  0  0  0  0  0  0  0  0  0  0  0
  -20.1827  -31.9179   21.6089 C   0  0  0  0  0  0  0  0  0  0  0  0
  -30.2688  -11.3617   19.5075 C   0  0  0  0  0  0  0  0  0  0  0  0
  -20.1590  -30.6885   20.7062 C   0  0  0  0  0  0  0  0  0  0  0  0
  -25.5077  -18.7446   21.2078 C   0  0  0  0  0  0  0  0  0  0  0  0
  -30.3469  -12.8101   19.9934 C   0  0  0  0  0  0  0  0  0  0  0  0
  -25.4145  -20.1338   20.5863 C   0  0  0  0  0  0  0  0  0  0  0  0
  -23.0040  -18.4988   21.0298 C   0  0  0  0  0  0  0  0  0  0  0  0
  -29.2289  -11.1926   18.4020 C   0  0  0  0  0  0  0  0  0  0  0  0
  -27.9600  -13.1391   19.2233 C   0  0  0  0  0  0  0  0  0  0  0  0
  -19.9913  -29.4044   21.5273 C   0  0  1  0  0  0  0  0  0  0  0  0
  -23.4415  -28.0361   22.3380 C   0  0  1  0  0  0  0  0  0  0  0  0
  -24.3582  -17.8424   20.7406 C   0  0  2  0  0  0  0  0  0  0  0  0
  -28.9555  -13.3486   20.3771 C   0  0  2  0  0  0  0  0  0  0  0  0
  -24.0623  -20.7911   20.8560 C   0  0  2  0  0  0  0  0  0  1  0  0
  -22.9029  -19.8959   20.4170 C   0  0  2  0  0  0  0  0  0  0  0  0
  -30.8943  -29.2262   20.5936 C   0  0  0  0  0  0  0  0  0  0  0  0
  -24.7045  -30.1336   18.4180 C   0  0  0  0  0  0  0  0  0  0  0  0
  -27.1662  -30.1801   17.9643 C   0  0  0  0  0  0  0  0  0  0  0  0
  -26.1948  -31.6642   19.7183 C   0  0  0  0  0  0  0  0  0  0  0  0
  -29.5253  -26.7689   23.1556 C   0  0  0  0  0  0  0  0  0  0  0  0
  -24.3791  -10.7162   19.3056 C   0  0  0  0  0  0  0  0  0  0  0  0
  -23.0841  -13.0050   20.6078 C   0  0  0  0  0  0  0  0  0  0  0  0
  -24.4458  -16.4697   21.4050 C   0  0  0  0  0  0  0  0  0  0  0  0
  -23.6893  -15.4283   20.6008 C   0  0  0  0  0  0  0  0  0  0  0  0
  -26.3628  -29.1790   20.1514 C   0  0  1  0  0  0  0  0  0  0  0  0
  -29.8516  -28.6386   21.5319 C   0  0  2  0  0  0  0  0  0  0  0  0
  -26.0944  -30.2653   19.0719 C   0  0  0  0  0  0  0  0  0  0  0  0
  -29.4326  -15.7288   19.9417 N   0  0  0  0  0  0  0  0  0  0  0  0
  -29.0190  -14.7988   20.8194 N   0  0  0  0  0  0  0  0  0  0  0  0
  -24.5882  -28.0186   21.4275 N   0  0  0  0  0  0  0  0  0  0  0  0
  -27.9317  -11.7216   18.8302 N   0  0  0  0  0  0  0  0  0  0  0  0
  -28.2621  -14.5060   23.0447 N   0  0  0  0  0  0  0  0  0  0  0  0
  -28.9827  -18.9556   22.7664 N   0  0  0  0  0  0  0  0  0  0  0  0
  -21.2449  -29.0345   22.1487 N   0  0  0  0  0  0  0  0  0  0  0  0
  -27.6610  -29.2957   20.8067 N   0  0  0  0  0  0  0  0  0  0  0  0
  -25.6193  -11.4576   19.2503 N   0  0  0  0  0  0  0  0  0  0  0  0
  -30.4352  -27.4345   22.1880 N   0  3  0  0  0  0  0  0  0  0  0  0
  -23.7642  -14.1282   21.3094 N   0  3  0  0  0  0  0  0  0  0  0  0
  -28.3127  -17.2614   24.1590 O   0  0  0  0  0  0  0  0  0  0  0  0
  -22.1720  -27.8768   20.3536 O   0  0  0  0  0  0  0  0  0  0  0  0
  -25.1934  -30.2116   21.9382 O   0  0  0  0  0  0  0  0  0  0  0  0
  -28.4250  -27.1820   20.2356 O   0  0  0  0  0  0  0  0  0  0  0  0
  -26.8618   -9.6960   18.4695 O   0  0  0  0  0  0  0  0  0  0  0  0
  -21.6795  -20.4985   20.8371 O   0  0  0  0  0  0  0  0  0  0  0  0
  -30.8114  -21.7217   18.2891 O   0  0  0  0  0  0  0  0  0  0  0  0
  -23.9901  -22.0176   20.1303 O   0  0  0  0  0  0  0  0  0  1  0  0
  -26.7650  -25.1817   16.8544 F   0  0  0  0  0  0  0  0  0  0  0  0
  -29.0556  -22.7129   20.1805 F   0  0  0  0  0  0  0  0  0  0  0  0
  1  2  1  0  0  0  0
  1  7  2  0  0  0  0
  2  8  2  0  0  0  0
  3  4  1  0  0  0  0
  3 10  2  0  0  0  0
  4 11  2  0  0  0  0
  5 12  2  0  0  0  0
  5 19  1  0  0  0  0
  6 13  1  0  0  0  0
  6 19  2  0  0  0  0
  7 21  1  0  0  0  0
  8 23  1  0  0  0  0
  9 14  2  0  0  0  0
  9 22  1  0  0  0  0
 10 25  1  0  0  0  0
 11 26  1  0  0  0  0
 12 27  1  0  0  0  0
 13 27  2  0  0  0  0
 14 28  1  0  0  0  0
 15 16  2  0  0  0  0
 15 29  1  0  0  0  0
 16 30  1  0  0  0  0
 17 24  1  0  0  0  0
 17 28  2  0  0  0  0
 18 30  2  0  0  0  0
 18 31  1  0  0  0  0
 19 32  1  0  0  0  0
 20 32  1  0  0  0  0
 20 33  2  0  0  0  0
 20 34  1  0  0  0  0
 21 23  2  0  0  0  0
 21 39  1  0  0  0  0
 22 24  2  0  0  0  0
 22 40  1  0  0  0  0
 23 51  1  0  0  0  0
 24 41  1  0  0  0  0
 25 26  2  0  0  0  0
 25 62  1  0  0  0  0
 26 63  1  0  0  0  0
 27 86  1  0  0  0  0
 28 87  1  0  0  0  0
 29 31  2  0  0  0  0
 29 86  1  0  0  0  0
 30 88  1  0  0  0  0
 31 89  1  0  0  0  0
 32 69  2  0  0  0  0
 33 70  1  0  0  0  0
 33 73  1  0  0  0  0
 34 74  1  0  0  0  0
 34 80  2  0  0  0  0
 35 52  1  0  0  0  0
 35 75  1  0  0  0  0
 35 81  2  0  0  0  0
 36 66  1  0  0  0  0
 36 71  1  0  0  0  0
 36 82  2  0  0  0  0
 37 67  1  0  0  0  0
 37 76  1  0  0  0  0
 37 83  2  0  0  0  0
 38 72  1  0  0  0  0
 38 77  1  0  0  0  0
 38 84  2  0  0  0  0
 39 42  1  0  0  0  0
 40 52  1  0  0  0  0
 41 71  1  0  0  0  0
 42 44  1  0  0  0  0
 43 46  1  0  0  0  0
 43 49  1  0  0  0  0
 44 51  1  0  0  0  0
 45 47  1  0  0  0  0
 45 53  1  0  0  0  0
 46 54  1  0  0  0  0
 47 55  1  0  0  0  0
 48 53  1  0  0  0  0
 48 56  1  0  0  0  0
 49 72  1  0  0  0  0
 50 54  1  0  0  0  0
 50 72  1  0  0  0  0
 51 75  1  0  0  0  0
 52 71  1  0  0  0  0
 53 64  1  0  0  0  0
 54 70  1  0  0  0  0
 55 56  1  0  0  0  0
 55 87  1  0  0  0  0
 56 85  1  0  0  0  0
 57 67  1  0  0  0  0
 58 68  1  0  0  0  0
 59 68  1  0  0  0  0
 60 68  1  0  0  0  0
 61 78  1  0  0  0  0
 62 77  1  0  0  0  0
 63 79  1  0  0  0  0
 64 65  1  0  0  0  0
 65 79  1  0  0  0  0
 66 68  1  0  0  0  0
 66 76  1  0  0  0  0
 67 78  1  0  0  0  0
 69 70  1  0  0  0  0
M  CHG  2  78   1  79   1
M  ISO  4  38 100  55 101  77 100  87 101
M  END
> <Batch ID>
0132

> <Smiles>
CNC(C)C(=O)NC(C(=O)N1Cc2cc([101O:1][101CH:1]3CCC(CCNCc4ccccc4C[100NH:0][100C:0](=O)N4CCCC(n5nc(-c6ccc(Oc7ccc(F)cc7F)cc6)c(C(N)=O)c5N)C4)CC3O)ccc2CC1C(=O)NC1CCCc2ccccc21)C(C)(C)C

> <Shape>
0.264

> <Color>
0.062

> <Negative vol penalty>
0.000

$$$$

  -OEChem-04052320523D

 88 98  0     1  0  0  0  0  0999 V2000
  -21.5710  -14.5012   17.1624 C   0  0  0  0  0  0  0  0  0  0  0  0
  -22.4161  -15.5176   17.5961 C   0  0  0  0  0  0  0  0  0  0  0  0
  -32.0595  -23.1038   23.3011 C   0  0  0  0  0  0  0  0  0  0  0  0
  -31.1332  -24.1445   23.2282 C   0  0  0  0  0  0  0  0  0  0  0  0
  -28.9941  -25.0273   22.4236 C   0  0  0  0  0  0  0  0  0  0  0  0
  -23.0735   -9.8685   19.9428 C   0  0  0  0  0  0  0  0  0  0  0  0
  -23.8383   -9.8750   22.2345 C   0  0  0  0  0  0  0  0  0  0  0  0
  -20.7348  -14.7114   16.0667 C   0  0  0  0  0  0  0  0  0  0  0  0
  -22.4264  -16.7445   16.9335 C   0  0  0  0  0  0  0  0  0  0  0  0
  -22.3972  -20.6762   20.1251 C   0  0  0  0  0  0  0  0  0  0  0  0
  -27.8116  -24.8570   21.7031 C   0  0  0  0  0  0  0  0  0  0  0  0
  -31.8043  -21.8973   22.6559 C   0  0  0  0  0  0  0  0  0  0  0  0
  -22.3308   -8.7149   20.1939 C   0  0  0  0  0  0  0  0  0  0  0  0
  -23.0956   -8.7214   22.4856 C   0  0  0  0  0  0  0  0  0  0  0  0
  -23.6042  -21.0063   20.7398 C   0  0  0  0  0  0  0  0  0  0  0  0
  -19.8691   -7.9216   23.0948 C   0  0  0  0  0  0  0  0  0  0  0  0
  -19.1148   -7.8808   24.2673 C   0  0  0  0  0  0  0  0  0  0  0  0
  -28.4827  -22.6098   21.1307 C   0  0  0  0  0  0  0  0  0  0  0  0
  -23.9267  -22.7823   19.1395 C   0  0  0  0  0  0  0  0  0  0  0  0
  -20.3588   -5.9437   25.0003 C   0  0  0  0  0  0  0  0  0  0  0  0
  -29.9377  -23.9906   22.5075 C   0  0  0  0  0  0  0  0  0  0  0  0
  -29.6781  -22.7637   21.8514 C   0  0  0  0  0  0  0  0  0  0  0  0
  -23.8273  -10.4486   20.9631 C   0  0  0  0  0  0  0  0  0  0  0  0
  -24.1676  -12.9739   20.8433 C   0  0  0  0  0  0  0  0  0  0  0  0
  -20.7278  -15.9448   15.3963 C   0  0  0  0  0  0  0  0  0  0  0  0
  -21.9504  -21.3909   19.0044 C   0  0  0  0  0  0  0  0  0  0  0  0
  -21.5903  -16.9710   15.8270 C   0  0  0  0  0  0  0  0  0  0  0  0
  -22.7124  -22.4610   18.5139 C   0  0  0  0  0  0  0  0  0  0  0  0
  -27.5564  -23.6506   21.0579 C   0  0  0  0  0  0  0  0  0  0  0  0
  -30.6217  -21.7269   21.9355 C   0  0  0  0  0  0  0  0  0  0  0  0
  -22.3418   -8.1413   21.4653 C   0  0  0  0  0  0  0  0  0  0  0  0
  -24.3706  -22.0576   20.2453 C   0  0  0  0  0  0  0  0  0  0  0  0
  -20.8683   -6.9734   22.8750 C   0  0  0  0  0  0  0  0  0  0  0  0
  -19.3596   -6.8919   25.2201 C   0  0  0  0  0  0  0  0  0  0  0  0
  -21.1131   -5.9845   23.8277 C   0  0  0  0  0  0  0  0  0  0  0  0
  -24.5952  -11.6400   20.7041 C   0  0  0  0  0  0  0  0  0  0  0  0
  -25.2585  -13.7241   20.4780 C   0  0  0  0  0  0  0  0  0  0  0  0
  -22.8977  -13.4889   21.2652 C   0  0  0  0  0  0  0  0  0  0  0  0
  -21.3265  -20.6535   15.9760 C   0  0  0  0  0  0  0  0  0  0  0  0
  -20.2649  -23.7163   15.8565 C   0  0  0  0  0  0  0  0  0  0  0  0
  -20.3737  -26.8729   17.1490 C   0  0  0  0  0  0  0  0  0  0  0  0
  -30.7421  -14.7460   20.6549 C   0  0  0  0  0  0  0  0  0  0  0  0
  -19.8408  -16.1091   14.1877 C   0  0  0  0  0  0  0  0  0  0  0  0
  -20.6331  -21.0396   18.3690 C   0  0  0  0  0  0  0  0  0  0  0  0
  -22.2672  -23.2726   17.3258 C   0  0  0  0  0  0  0  0  0  0  0  0
  -19.6406  -17.5643   13.7724 C   0  0  0  0  0  0  0  0  0  0  0  0
  -29.6006  -12.3618   18.2696 C   0  0  0  0  0  0  0  0  0  0  0  0
  -20.9752  -18.3029   13.7549 C   0  0  0  0  0  0  0  0  0  0  0  0
  -28.1643  -12.0672   18.7055 C   0  0  0  0  0  0  0  0  0  0  0  0
  -30.3910  -18.9240   23.1914 C   0  0  0  0  0  0  0  0  0  0  0  0
  -30.3761  -17.3929   23.2729 C   0  0  0  0  0  0  0  0  0  0  0  0
  -30.5210  -18.0648   20.9565 C   0  0  0  0  0  0  0  0  0  0  0  0
  -30.5202  -12.5827   19.4686 C   0  0  0  0  0  0  0  0  0  0  0  0
  -28.6211  -13.3122   20.8596 C   0  0  0  0  0  0  0  0  0  0  0  0
  -21.6122  -18.3241   15.1496 C   0  0  1  0  0  0  0  0  0  0  0  0
  -20.5256  -21.5050   16.9201 C   0  0  1  0  0  0  0  0  0  0  0  0
  -27.6445  -13.1376   19.6840 C   0  0  2  0  0  0  0  0  0  0  0  0
  -30.9422  -19.2558   21.8070 C   0  0  1  0  0  0  0  0  0  0  0  0
  -30.8095  -16.8961   21.8925 C   0  0  2  0  0  0  0  0  0  0  0  0
  -19.4236  -29.1716   16.8165 C   0  0  0  0  0  0  0  0  0  0  0  0
  -22.1133  -24.1316   13.4646 C   0  0  0  0  0  0  0  0  0  0  0  0
  -21.8498  -26.6015   13.7784 C   0  0  0  0  0  0  0  0  0  0  0  0
  -19.8611  -25.1953   13.2396 C   0  0  0  0  0  0  0  0  0  0  0  0
  -19.1343  -26.8757   19.8366 C   0  0  0  0  0  0  0  0  0  0  0  0
  -26.2837  -23.4698   20.2839 C   0  0  0  0  0  0  0  0  0  1  0  0
  -20.8917  -25.0537   15.5439 C   0  0  1  0  0  0  0  0  0  0  0  0
  -19.2708  -27.8411   17.5370 C   0  0  2  0  0  0  0  0  0  0  0  0
  -21.1886  -25.2292   14.0279 C   0  0  0  0  0  0  0  0  0  0  0  0
  -25.8592  -11.5449   20.2831 N   0  0  0  0  0  0  0  0  0  0  0  0
  -26.2352  -12.8288   20.1544 N   0  0  0  0  0  0  0  0  0  0  0  0
  -20.9751  -22.8862   16.7353 N   0  0  0  0  0  0  0  0  0  0  0  0
  -29.9711  -13.6105   20.3562 N   0  0  0  0  0  0  0  0  0  0  0  0
  -25.4681  -15.0558   20.4050 N   0  0  0  0  0  0  0  0  0  0  0  0
  -21.8870  -12.5791   21.6043 N   0  0  0  0  0  0  0  0  0  0  0  0
  -30.4123  -20.4791   21.2985 N   0  0  0  0  0  0  0  0  0  0  0  0
  -20.9709  -19.3182   15.9832 N   0  0  0  0  0  0  0  0  0  0  0  0
  -19.9966  -26.0635   16.0984 N   0  0  0  0  0  0  0  0  0  0  0  0
  -30.1443  -15.6742   21.4986 N   0  0  0  0  0  0  0  0  0  0  0  0
  -19.2979  -28.0959   19.0051 N   0  3  0  0  0  0  0  0  0  0  0  0
  -22.6610  -14.7194   21.3235 O   0  0  0  0  0  0  0  0  0  0  0  0
  -22.2013  -21.1700   15.2907 O   0  0  0  0  0  0  0  0  0  0  0  0
  -19.1814  -23.4221   15.3454 O   0  0  0  0  0  0  0  0  0  0  0  0
  -21.4624  -26.8406   17.7185 O   0  0  0  0  0  0  0  0  0  0  0  0
  -31.8770  -14.9222   20.1988 O   0  0  0  0  0  0  0  0  0  0  0  0
  -21.6169   -7.0157   21.7107 O   0  0  0  0  0  0  0  0  0  0  0  0
  -25.5495  -22.3814   20.8430 O   0  0  0  0  0  0  0  0  0  1  0  0
  -18.6361   -6.8538   26.3467 F   0  0  0  0  0  0  0  0  0  0  0  0
  -22.0725   -5.0716   23.6227 F   0  0  0  0  0  0  0  0  0  0  0  0
  1  2  1  0  0  0  0
  1  8  2  0  0  0  0
  2  9  2  0  0  0  0
  3  4  2  0  0  0  0
  3 12  1  0  0  0  0
  4 21  1  0  0  0  0
  5 11  2  0  0  0  0
  5 21  1  0  0  0  0
  6 13  2  0  0  0  0
  6 23  1  0  0  0  0
  7 14  1  0  0  0  0
  7 23  2  0  0  0  0
  8 25  1  0  0  0  0
  9 27  1  0  0  0  0
 10 15  2  0  0  0  0
 10 26  1  0  0  0  0
 11 29  1  0  0  0  0
 12 30  2  0  0  0  0
 13 31  1  0  0  0  0
 14 31  2  0  0  0  0
 15 32  1  0  0  0  0
 16 17  2  0  0  0  0
 16 33  1  0  0  0  0
 17 34  1  0  0  0  0
 18 22  1  0  0  0  0
 18 29  2  0  0  0  0
 19 28  1  0  0  0  0
 19 32  2  0  0  0  0
 20 34  2  0  0  0  0
 20 35  1  0  0  0  0
 21 22  2  0  0  0  0
 22 30  1  0  0  0  0
 23 36  1  0  0  0  0
 24 36  1  0  0  0  0
 24 37  2  0  0  0  0
 24 38  1  0  0  0  0
 25 27  2  0  0  0  0
 25 43  1  0  0  0  0
 26 28  2  0  0  0  0
 26 44  1  0  0  0  0
 27 55  1  0  0  0  0
 28 45  1  0  0  0  0
 29 65  1  0  0  0  0
 30 75  1  0  0  0  0
 31 85  1  0  0  0  0
 32 86  1  0  0  0  0
 33 35  2  0  0  0  0
 33 85  1  0  0  0  0
 34 87  1  0  0  0  0
 35 88  1  0  0  0  0
 36 69  2  0  0  0  0
 37 70  1  0  0  0  0
 37 73  1  0  0  0  0
 38 74  1  0  0  0  0
 38 80  2  0  0  0  0
 39 56  1  0  0  0  0
 39 76  1  0  0  0  0
 39 81  2  0  0  0  0
 40 66  1  0  0  0  0
 40 71  1  0  0  0  0
 40 82  2  0  0  0  0
 41 67  1  0  0  0  0
 41 77  1  0  0  0  0
 41 83  2  0  0  0  0
 42 72  1  0  0  0  0
 42 78  1  0  0  0  0
 42 84  2  0  0  0  0
 43 46  1  0  0  0  0
 44 56  1  0  0  0  0
 45 71  1  0  0  0  0
 46 48  1  0  0  0  0
 47 49  1  0  0  0  0
 47 53  1  0  0  0  0
 48 55  1  0  0  0  0
 49 57  1  0  0  0  0
 50 51  1  0  0  0  0
 50 58  1  0  0  0  0
 51 59  1  0  0  0  0
 52 58  1  0  0  0  0
 52 59  1  0  0  0  0
 53 72  1  0  0  0  0
 54 57  1  0  0  0  0
 54 72  1  0  0  0  0
 55 76  1  0  0  0  0
 56 71  1  0  0  0  0
 57 70  1  0  0  0  0
 58 75  1  0  0  0  0
 59 78  1  0  0  0  0
 60 67  1  0  0  0  0
 61 68  1  0  0  0  0
 62 68  1  0  0  0  0
 63 68  1  0  0  0  0
 64 79  1  0  0  0  0
 65 86  1  0  0  0  0
 66 68  1  0  0  0  0
 66 77  1  0  0  0  0
 67 79  1  0  0  0  0
 69 70  1  0  0  0  0
M  CHG  1  79   1
M  ISO  4  42 100  65 101  78 100  86 101
M  END
> <Batch ID>
0132

> <Smiles>
CNC(C)C(=O)NC(C(=O)N1Cc2cc([101O:1][101CH2:1]c3ccc4cccc(NC5CCC([100NH:0][100C:0](=O)N6CCCC(n7nc(-c8ccc(Oc9ccc(F)cc9F)cc8)c(C(N)=O)c7N)C6)C5)c4c3)ccc2CC1C(=O)NC1CCCc2ccccc21)C(C)(C)C

> <Shape>
0.191

> <Color>
0.187

> <Negative vol penalty>
0.000

$$$$

  -OEChem-04052320523D

 85 94  0     1  0  0  0  0  0999 V2000
  -16.9406  -29.4952   24.5912 C   0  0  0  0  0  0  0  0  0  0  0  0
  -17.3399  -28.3032   23.9953 C   0  0  0  0  0  0  0  0  0  0  0  0
  -29.3503  -16.1337   17.4697 C   0  0  0  0  0  0  0  0  0  0  0  0
  -23.7056  -18.4095   21.2494 C   0  0  0  0  0  0  0  0  0  0  0  0
  -25.1794  -17.2653   22.7843 C   0  0  0  0  0  0  0  0  0  0  0  0
  -17.5391  -30.6966   24.2139 C   0  0  0  0  0  0  0  0  0  0  0  0
  -18.3372  -28.3120   23.0208 C   0  0  0  0  0  0  0  0  0  0  0  0
  -22.5688  -23.9938   22.0447 C   0  0  0  0  0  0  0  0  0  0  0  0
  -23.1874  -17.1833   20.8328 C   0  0  0  0  0  0  0  0  0  0  0  0
  -24.6612  -16.0391   22.3677 C   0  0  0  0  0  0  0  0  0  0  0  0
  -22.6446  -22.9446   21.1297 C   0  0  0  0  0  0  0  0  0  0  0  0
  -23.9823  -12.5882   21.4509 C   0  0  0  0  0  0  0  0  0  0  0  0
  -24.8852  -11.5571   21.1920 C   0  0  0  0  0  0  0  0  0  0  0  0
  -29.5250  -17.1367   18.4548 C   0  0  0  0  0  0  0  0  0  0  0  0
  -23.9774  -24.3244   19.6671 C   0  0  0  0  0  0  0  0  0  0  0  0
  -25.9366  -12.9063   19.4856 C   0  0  0  0  0  0  0  0  0  0  0  0
  -28.4659  -16.6248   16.5349 C   0  0  0  0  0  0  0  0  0  0  0  0
  -24.7016  -18.4505   22.2251 C   0  0  0  0  0  0  0  0  0  0  0  0
  -24.7686  -20.5248   23.7085 C   0  0  0  0  0  0  0  0  0  0  0  0
  -18.5511  -30.7189   23.2412 C   0  0  0  0  0  0  0  0  0  0  0  0
  -23.1886  -25.2219   21.7724 C   0  0  0  0  0  0  0  0  0  0  0  0
  -18.9489  -29.5150   22.6291 C   0  0  0  0  0  0  0  0  0  0  0  0
  -23.9101  -25.3868   20.5814 C   0  0  0  0  0  0  0  0  0  0  0  0
  -23.6652  -15.9981   21.3920 C   0  0  0  0  0  0  0  0  0  0  0  0
  -23.3465  -23.1108   19.9394 C   0  0  0  0  0  0  0  0  0  0  0  0
  -24.0564  -13.7784   20.7271 C   0  0  0  0  0  0  0  0  0  0  0  0
  -25.8624  -11.7161   20.2094 C   0  0  0  0  0  0  0  0  0  0  0  0
  -25.0335  -13.9374   19.7445 C   0  0  0  0  0  0  0  0  0  0  0  0
  -25.2376  -19.7168   22.6555 C   0  0  0  0  0  0  0  0  0  0  0  0
  -28.7417  -18.2102   18.0921 C   0  0  0  0  0  0  0  0  0  0  0  0
  -25.6107  -21.6098   23.7102 C   0  0  0  0  0  0  0  0  0  0  0  0
  -23.6699  -20.3133   24.6052 C   0  0  0  0  0  0  0  0  0  0  0  0
  -22.1744  -28.2095   21.3862 C   0  0  0  0  0  0  0  0  0  0  0  0
  -25.3504  -28.8607   21.2786 C   0  0  0  0  0  0  0  0  0  0  0  0
  -28.5176  -27.7450   20.6695 C   0  0  0  0  0  0  0  0  0  0  0  0
  -29.1630  -19.8870   19.9236 C   0  0  0  0  0  0  0  0  0  0  0  0
  -19.1355  -32.0477   22.8321 C   0  0  0  0  0  0  0  0  0  0  0  0
  -23.1200  -26.3349   22.7818 C   0  0  0  0  0  0  0  0  0  0  0  0
  -24.6103  -26.6786   20.2508 C   0  0  0  0  0  0  0  0  0  0  0  0
  -20.4472  -31.9248   22.0610 C   0  0  0  0  0  0  0  0  0  0  0  0
  -27.1319  -22.9469   19.8436 C   0  0  0  0  0  0  0  0  0  0  0  0
  -23.5897  -17.5794   17.0989 C   0  0  0  0  0  0  0  0  0  0  0  0
  -20.3310  -30.8583   20.9766 C   0  0  0  0  0  0  0  0  0  0  0  0
  -24.9927  -17.5221   16.5025 C   0  0  0  0  0  0  0  0  0  0  0  0
  -27.1793  -23.4011   21.3016 C   0  0  0  0  0  0  0  0  0  0  0  0
  -28.4465  -22.2999   19.4282 C   0  0  0  0  0  0  0  0  0  0  0  0
  -28.8894  -21.5528   21.7436 C   0  0  0  0  0  0  0  0  0  0  0  0
  -22.8555  -18.8472   16.6897 C   0  0  0  0  0  0  0  0  0  0  0  0
  -25.0456  -20.0448   16.4398 C   0  0  0  0  0  0  0  0  0  0  0  0
  -20.0448  -29.4806   21.5861 C   0  0  1  0  0  0  0  0  0  0  0  0
  -23.3562  -27.7122   22.1695 C   0  0  1  0  0  0  0  0  0  0  0  0
  -25.7980  -18.7786   16.8538 C   0  0  2  0  0  0  0  0  0  0  0  0
  -27.6464  -22.2992   22.2703 C   0  0  2  0  0  0  0  0  0  0  0  0
  -31.0241  -27.7981   20.5595 C   0  0  0  0  0  0  0  0  0  0  0  0
  -24.8420  -30.2812   18.6265 C   0  0  0  0  0  0  0  0  0  0  0  0
  -27.3044  -30.1872   18.1840 C   0  0  0  0  0  0  0  0  0  0  0  0
  -26.4398  -31.4563   20.1498 C   0  0  0  0  0  0  0  0  0  0  0  0
  -28.7760  -26.7814   23.4558 C   0  0  0  0  0  0  0  0  0  0  0  0
  -27.1746  -18.7374   16.1935 C   0  0  0  0  0  0  0  0  0  0  0  0
  -22.9433  -21.3353   16.8112 C   0  0  0  0  0  0  0  0  0  0  0  0
  -23.5342  -22.4394   17.6656 C   0  0  0  0  0  0  0  0  0  1  0  0
  -26.3914  -28.9288   20.1874 C   0  0  1  0  0  0  0  0  0  0  0  0
  -29.8041  -27.8825   21.4635 C   0  0  2  0  0  0  0  0  0  0  0  0
  -26.2297  -30.1895   19.2920 C   0  0  0  0  0  0  0  0  0  0  0  0
  -26.2956  -20.2437   22.0332 N   0  0  0  0  0  0  0  0  0  0  0  0
  -28.1023  -17.8877   16.9236 N   0  0  0  0  0  0  0  0  0  0  0  0
  -26.4982  -21.3944   22.6972 N   0  0  0  0  0  0  0  0  0  0  0  0
  -24.5088  -27.7393   21.2668 N   0  0  0  0  0  0  0  0  0  0  0  0
  -28.7909  -21.1899   20.3267 N   0  0  0  0  0  0  0  0  0  0  0  0
  -25.6711  -22.7177   24.4792 N   0  0  0  0  0  0  0  0  0  0  0  0
  -22.9081  -19.1453   24.4647 N   0  0  0  0  0  0  0  0  0  0  0  0
  -28.5645  -19.4580   18.7395 N   0  0  0  0  0  0  0  0  0  0  0  0
  -21.2546  -28.9122   22.1409 N   0  0  0  0  0  0  0  0  0  0  0  0
  -27.6864  -28.8300   20.8519 N   0  0  0  0  0  0  0  0  0  0  0  0
  -23.6681  -20.0675   17.0787 N   0  3  1  0  0  0  0  0  0  0  0  0
  -29.9003  -26.8017   22.4850 N   0  3  0  0  0  0  0  0  0  0  0  0
  -23.3624  -21.1437   25.4937 O   0  0  0  0  0  0  0  0  0  0  0  0
  -22.1031  -27.9745   20.1856 O   0  0  0  0  0  0  0  0  0  0  0  0
  -25.2909  -29.7654   22.1149 O   0  0  0  0  0  0  0  0  0  0  0  0
  -28.2759  -26.7742   19.9556 O   0  0  0  0  0  0  0  0  0  0  0  0
  -29.9276  -19.1921   20.5977 O   0  0  0  0  0  0  0  0  0  0  0  0
  -23.1597  -14.8014   20.9859 O   0  0  0  0  0  0  0  0  0  0  0  0
  -23.4215  -22.0885   19.0442 O   0  0  0  0  0  0  0  0  0  1  0  0
  -26.7304  -10.7265   19.9619 F   0  0  0  0  0  0  0  0  0  0  0  0
  -25.1104  -15.0789   19.0468 F   0  0  0  0  0  0  0  0  0  0  0  0
  1  2  1  0  0  0  0
  1  6  2  0  0  0  0
  2  7  2  0  0  0  0
  3 14  1  0  0  0  0
  3 17  2  0  0  0  0
  4  9  2  0  0  0  0
  4 18  1  0  0  0  0
  5 10  1  0  0  0  0
  5 18  2  0  0  0  0
  6 20  1  0  0  0  0
  7 22  1  0  0  0  0
  8 11  2  0  0  0  0
  8 21  1  0  0  0  0
  9 24  1  0  0  0  0
 10 24  2  0  0  0  0
 11 25  1  0  0  0  0
 12 13  2  0  0  0  0
 12 26  1  0  0  0  0
 13 27  1  0  0  0  0
 14 30  2  0  0  0  0
 15 23  1  0  0  0  0
 15 25  2  0  0  0  0
 16 27  2  0  0  0  0
 16 28  1  0  0  0  0
 17 66  1  0  0  0  0
 18 29  1  0  0  0  0
 19 29  1  0  0  0  0
 19 31  2  0  0  0  0
 19 32  1  0  0  0  0
 20 22  2  0  0  0  0
 20 37  1  0  0  0  0
 21 23  2  0  0  0  0
 21 38  1  0  0  0  0
 22 50  1  0  0  0  0
 23 39  1  0  0  0  0
 24 82  1  0  0  0  0
 25 83  1  0  0  0  0
 26 28  2  0  0  0  0
 26 82  1  0  0  0  0
 27 84  1  0  0  0  0
 28 85  1  0  0  0  0
 29 65  2  0  0  0  0
 30 66  1  0  0  0  0
 30 72  1  0  0  0  0
 31 67  1  0  0  0  0
 31 70  1  0  0  0  0
 32 71  1  0  0  0  0
 32 77  2  0  0  0  0
 33 51  1  0  0  0  0
 33 73  1  0  0  0  0
 33 78  2  0  0  0  0
 34 62  1  0  0  0  0
 34 68  1  0  0  0  0
 34 79  2  0  0  0  0
 35 63  1  0  0  0  0
 35 74  1  0  0  0  0
 35 80  2  0  0  0  0
 36 69  1  0  0  0  0
 36 72  1  0  0  0  0
 36 81  2  0  0  0  0
 37 40  1  0  0  0  0
 38 51  1  0  0  0  0
 39 68  1  0  0  0  0
 40 43  1  0  0  0  0
 41 45  1  0  0  0  0
 41 46  1  0  0  0  0
 42 44  1  0  0  0  0
 42 48  1  0  0  0  0
 43 50  1  0  0  0  0
 44 52  1  0  0  0  0
 45 53  1  0  0  0  0
 46 69  1  0  0  0  0
 47 53  1  0  0  0  0
 47 69  1  0  0  0  0
 48 75  1  0  0  0  0
 49 52  1  0  0  0  0
 49 75  1  0  0  0  0
 50 73  1  0  0  0  0
 51 68  1  0  0  0  0
 52 59  1  0  0  0  0
 53 67  1  0  0  0  0
 54 63  1  0  0  0  0
 55 64  1  0  0  0  0
 56 64  1  0  0  0  0
 57 64  1  0  0  0  0
 58 76  1  0  0  0  0
 59 66  1  0  0  0  0
 60 61  1  0  0  0  0
 60 75  1  0  0  0  0
 61 83  1  0  0  0  0
 62 64  1  0  0  0  0
 62 74  1  0  0  0  0
 63 76  1  0  0  0  0
 65 67  1  0  0  0  0
M  CHG  2  75   1  76   1
M  ISO  4  36 100  61 101  72 100  83 101
M  END
> <Batch ID>
0132

> <Smiles>
CNC(C)C(=O)NC(C(=O)N1Cc2cc([101O:1][101CH2:1]CN3CCCC(Cn4cccc4[100NH:0][100C:0](=O)N4CCCC(n5nc(-c6ccc(Oc7ccc(F)cc7F)cc6)c(C(N)=O)c5N)C4)C3)ccc2CC1C(=O)NC1CCCc2ccccc21)C(C)(C)C

> <Shape>
0.192

> <Color>
0.080

> <Negative vol penalty>
0.000

$$$$

  -OEChem-04052320523D

 88 97  0     1  0  0  0  0  0999 V2000
  -24.5910  -30.6817   17.3370 C   0  0  0  0  0  0  0  0  0  0  0  0
  -23.8368  -29.5130   17.3619 C   0  0  0  0  0  0  0  0  0  0  0  0
  -28.2263  -13.8792   21.5900 C   0  0  0  0  0  0  0  0  0  0  0  0
  -27.9673  -13.6081   19.2033 C   0  0  0  0  0  0  0  0  0  0  0  0
  -25.1324  -31.1860   18.5188 C   0  0  0  0  0  0  0  0  0  0  0  0
  -23.6245  -28.8472   18.5686 C   0  0  0  0  0  0  0  0  0  0  0  0
  -16.2855  -18.4676   22.0919 C   0  0  0  0  0  0  0  0  0  0  0  0
  -18.6273  -17.8753   22.0448 C   0  0  0  0  0  0  0  0  0  0  0  0
  -18.5956  -25.7807   20.2458 C   0  0  0  0  0  0  0  0  0  0  0  0
  -16.6276  -19.8043   22.2965 C   0  0  0  0  0  0  0  0  0  0  0  0
  -18.9695  -19.2120   22.2494 C   0  0  0  0  0  0  0  0  0  0  0  0
  -29.5587  -14.2473   21.4037 C   0  0  0  0  0  0  0  0  0  0  0  0
  -29.2998  -13.9763   19.0169 C   0  0  0  0  0  0  0  0  0  0  0  0
  -18.2773  -24.4234   20.2347 C   0  0  0  0  0  0  0  0  0  0  0  0
  -31.2720  -17.0024   20.4513 C   0  0  0  0  0  0  0  0  0  0  0  0
  -31.7435  -18.1094   21.1569 C   0  0  0  0  0  0  0  0  0  0  0  0
  -18.9304  -24.2575   22.5510 C   0  0  0  0  0  0  0  0  0  0  0  0
  -33.3996  -16.7180   22.2332 C   0  0  0  0  0  0  0  0  0  0  0  0
  -27.4306  -13.5596   20.4899 C   0  0  0  0  0  0  0  0  0  0  0  0
  -24.9325  -14.0289   20.7068 C   0  0  0  0  0  0  0  0  0  0  0  0
  -17.2853  -17.5031   21.9661 C   0  0  0  0  0  0  0  0  0  0  0  0
  -24.9185  -30.5313   19.7420 C   0  0  0  0  0  0  0  0  0  0  0  0
  -19.0948  -26.3853   21.4084 C   0  0  0  0  0  0  0  0  0  0  0  0
  -24.1646  -29.3424   19.7676 C   0  0  0  0  0  0  0  0  0  0  0  0
  -19.2518  -25.6232   22.5750 C   0  0  0  0  0  0  0  0  0  0  0  0
  -17.9696  -20.1765   22.3753 C   0  0  0  0  0  0  0  0  0  0  0  0
  -30.0955  -14.2959   20.1171 C   0  0  0  0  0  0  0  0  0  0  0  0
  -18.4474  -23.6609   21.3866 C   0  0  0  0  0  0  0  0  0  0  0  0
  -31.8643  -15.7532   20.6367 C   0  0  0  0  0  0  0  0  0  0  0  0
  -32.8073  -17.9672   22.0478 C   0  0  0  0  0  0  0  0  0  0  0  0
  -32.9280  -15.6110   21.5276 C   0  0  0  0  0  0  0  0  0  0  0  0
  -26.0543  -13.1787   20.6818 C   0  0  0  0  0  0  0  0  0  0  0  0
  -23.8681  -13.1867   20.9171 C   0  0  0  0  0  0  0  0  0  0  0  0
  -24.8593  -15.4525   20.5534 C   0  0  0  0  0  0  0  0  0  0  0  0
  -21.8066  -27.8486   22.1886 C   0  0  0  0  0  0  0  0  0  0  0  0
  -20.2303  -28.4492   24.9593 C   0  0  0  0  0  0  0  0  0  0  0  0
  -17.7560  -27.5619   27.1359 C   0  0  0  0  0  0  0  0  0  0  0  0
  -21.1134   -8.4580   19.8232 C   0  0  0  0  0  0  0  0  0  0  0  0
  -25.5635  -31.0886   20.9862 C   0  0  0  0  0  0  0  0  0  0  0  0
  -19.4082  -27.8564   21.4116 C   0  0  0  0  0  0  0  0  0  0  0  0
  -19.7652  -26.2290   23.8548 C   0  0  0  0  0  0  0  0  0  0  0  0
  -24.9781  -30.5272   22.2794 C   0  0  0  0  0  0  0  0  0  0  0  0
  -23.7430   -8.3003   22.2184 C   0  0  0  0  0  0  0  0  0  0  0  0
  -17.4392  -15.2076   22.9089 C   0  0  0  0  0  0  0  0  0  0  0  0
  -17.4849  -15.5797   20.4034 C   0  0  0  0  0  0  0  0  0  0  0  0
  -24.8451  -29.0102   22.1909 C   0  0  0  0  0  0  0  0  0  0  0  0
  -17.1444  -13.7254   22.6804 C   0  0  0  0  0  0  0  0  0  0  0  0
  -17.1899  -14.0966   20.1808 C   0  0  0  0  0  0  0  0  0  0  0  0
  -24.4894   -9.6221   22.0298 C   0  0  0  0  0  0  0  0  0  0  0  0
  -23.2325   -7.7459   20.8902 C   0  0  0  0  0  0  0  0  0  0  0  0
  -23.1602  -10.0069   19.9122 C   0  0  0  0  0  0  0  0  0  0  0  0
  -16.9203  -16.0739   21.7472 C   0  0  0  0  0  0  0  0  0  0  0  0
  -23.8913  -28.6051   21.0606 C   0  0  1  0  0  0  0  0  0  0  0  0
  -20.3950  -28.2547   22.5048 C   0  0  1  0  0  0  0  0  0  0  0  0
  -17.7075  -13.2351   21.3400 C   0  0  0  0  0  0  0  0  0  0  0  0
  -23.6456  -10.6334   21.2306 C   0  0  2  0  0  0  0  0  0  0  0  0
  -16.7340  -28.2203   29.3312 C   0  0  0  0  0  0  0  0  0  0  0  0
  -22.6037  -27.2191   26.4303 C   0  0  0  0  0  0  0  0  0  0  0  0
  -21.1570  -27.0333   28.4652 C   0  0  0  0  0  0  0  0  0  0  0  0
  -21.6661  -29.2763   27.4995 C   0  0  0  0  0  0  0  0  0  0  0  0
  -15.1217  -28.0742   25.8881 C   0  0  0  0  0  0  0  0  0  0  0  0
  -18.3369  -21.6148   22.5937 C   0  0  0  0  0  0  0  0  0  1  0  0
  -17.3598  -11.7647   21.1152 C   0  0  0  0  0  0  0  0  0  0  0  0
  -19.0570   -9.3191   18.7328 C   0  0  0  0  0  0  0  0  0  0  0  0
  -18.0705   -9.7670   19.7951 C   0  0  0  0  0  0  0  0  0  0  0  0
  -20.0780  -27.7331   26.2796 C   0  0  1  0  0  0  0  0  0  0  0  0
  -16.6752  -28.3795   27.8200 C   0  0  2  0  0  0  0  0  0  0  0  0
  -21.3683  -27.8033   27.1441 C   0  0  0  0  0  0  0  0  0  0  0  0
  -25.7325  -11.8949   20.8620 N   0  0  0  0  0  0  0  0  0  0  0  0
  -24.3965  -11.9322   21.0023 N   0  0  0  0  0  0  0  0  0  0  0  0
  -20.0636  -27.6699   23.8058 N   0  0  0  0  0  0  0  0  0  0  0  0
  -22.4387   -8.7535   20.1828 N   0  0  0  0  0  0  0  0  0  0  0  0
  -22.5411  -13.4043   21.0356 N   0  0  0  0  0  0  0  0  0  0  0  0
  -26.0485  -16.1641   20.3443 N   0  0  0  0  0  0  0  0  0  0  0  0
  -22.5155  -28.7915   21.4690 N   0  0  0  0  0  0  0  0  0  0  0  0
  -18.8979  -28.3039   26.9198 N   0  0  0  0  0  0  0  0  0  0  0  0
  -20.4297   -9.4706   19.1614 N   0  0  0  0  0  0  0  0  0  0  0  0
  -15.3268  -27.9486   27.3541 N   0  3  0  0  0  0  0  0  0  0  0  0
  -18.2593  -11.2187   20.0790 N   0  3  0  0  0  0  0  0  0  0  0  0
  -23.7732  -16.0770   20.6169 O   0  0  0  0  0  0  0  0  0  0  0  0
  -22.2223  -26.7609   22.5705 O   0  0  0  0  0  0  0  0  0  0  0  0
  -20.4806  -29.6570   24.9519 O   0  0  0  0  0  0  0  0  0  0  0  0
  -17.6038  -26.3819   26.8276 O   0  0  0  0  0  0  0  0  0  0  0  0
  -20.5773   -7.3743   20.0782 O   0  0  0  0  0  0  0  0  0  0  0  0
  -31.3955  -14.6553   19.9349 O   0  0  0  0  0  0  0  0  0  0  0  0
  -18.1381  -22.3357   21.3784 O   0  0  0  0  0  0  0  0  0  1  0  0
  -33.2609  -19.0307   22.7242 F   0  0  0  0  0  0  0  0  0  0  0  0
  -33.5018  -14.4136   21.7091 F   0  0  0  0  0  0  0  0  0  0  0  0
  1  2  1  0  0  0  0
  1  5  2  0  0  0  0
  2  6  2  0  0  0  0
  3 12  2  0  0  0  0
  3 19  1  0  0  0  0
  4 13  1  0  0  0  0
  4 19  2  0  0  0  0
  5 22  1  0  0  0  0
  6 24  1  0  0  0  0
  7 10  2  0  0  0  0
  7 21  1  0  0  0  0
  8 11  1  0  0  0  0
  8 21  2  0  0  0  0
  9 14  2  0  0  0  0
  9 23  1  0  0  0  0
 10 26  1  0  0  0  0
 11 26  2  0  0  0  0
 12 27  1  0  0  0  0
 13 27  2  0  0  0  0
 14 28  1  0  0  0  0
 15 16  2  0  0  0  0
 15 29  1  0  0  0  0
 16 30  1  0  0  0  0
 17 25  1  0  0  0  0
 17 28  2  0  0  0  0
 18 30  2  0  0  0  0
 18 31  1  0  0  0  0
 19 32  1  0  0  0  0
 20 32  1  0  0  0  0
 20 33  2  0  0  0  0
 20 34  1  0  0  0  0
 21 52  1  0  0  0  0
 22 24  2  0  0  0  0
 22 39  1  0  0  0  0
 23 25  2  0  0  0  0
 23 40  1  0  0  0  0
 24 53  1  0  0  0  0
 25 41  1  0  0  0  0
 26 62  1  0  0  0  0
 27 85  1  0  0  0  0
 28 86  1  0  0  0  0
 29 31  2  0  0  0  0
 29 85  1  0  0  0  0
 30 87  1  0  0  0  0
 31 88  1  0  0  0  0
 32 69  2  0  0  0  0
 33 70  1  0  0  0  0
 33 73  1  0  0  0  0
 34 74  1  0  0  0  0
 34 80  2  0  0  0  0
 35 54  1  0  0  0  0
 35 75  1  0  0  0  0
 35 81  2  0  0  0  0
 36 66  1  0  0  0  0
 36 71  1  0  0  0  0
 36 82  2  0  0  0  0
 37 67  1  0  0  0  0
 37 76  1  0  0  0  0
 37 83  2  0  0  0  0
 38 72  1  0  0  0  0
 38 77  1  0  0  0  0
 38 84  2  0  0  0  0
 39 42  1  0  0  0  0
 40 54  1  0  0  0  0
 41 71  1  0  0  0  0
 42 46  1  0  0  0  0
 43 49  1  0  0  0  0
 43 50  1  0  0  0  0
 44 47  1  0  0  0  0
 44 52  1  0  0  0  0
 45 48  1  0  0  0  0
 45 52  1  0  0  0  0
 46 53  1  0  0  0  0
 47 55  1  0  0  0  0
 48 55  1  0  0  0  0
 49 56  1  0  0  0  0
 50 72  1  0  0  0  0
 51 56  1  0  0  0  0
 51 72  1  0  0  0  0
 53 75  1  0  0  0  0
 54 71  1  0  0  0  0
 55 63  1  0  0  0  0
 56 70  1  0  0  0  0
 57 67  1  0  0  0  0
 58 68  1  0  0  0  0
 59 68  1  0  0  0  0
 60 68  1  0  0  0  0
 61 78  1  0  0  0  0
 62 86  1  0  0  0  0
 63 79  1  0  0  0  0
 64 65  1  0  0  0  0
 64 77  1  0  0  0  0
 65 79  1  0  0  0  0
 66 68  1  0  0  0  0
 66 76  1  0  0  0  0
 67 78  1  0  0  0  0
 69 70  1  0  0  0  0
M  CHG  2  78   1  79   1
M  ISO  4  38 100  62 101  77 100  86 101
M  END
> <Batch ID>
0132

> <Smiles>
CNC(C)C(=O)NC(C(=O)N1Cc2cc([101O:1][101CH2:1]c3ccc(C4CCC(CNCC[100NH:0][100C:0](=O)N5CCCC(n6nc(-c7ccc(Oc8ccc(F)cc8F)cc7)c(C(N)=O)c6N)C5)CC4)cc3)ccc2CC1C(=O)NC1CCCc2ccccc21)C(C)(C)C

> <Shape>
0.216

> <Color>
0.119

> <Negative vol penalty>
0.000

$$$$

  -OEChem-04052320523D

 84 92  0     1  0  0  0  0  0999 V2000
  -23.1009   -7.8497   21.3003 C   0  0  0  0  0  0  0  0  0  0  0  0
  -22.7062   -8.6149   20.2076 C   0  0  0  0  0  0  0  0  0  0  0  0
  -28.1470  -27.5060   21.4012 C   0  0  0  0  0  0  0  0  0  0  0  0
  -27.3855  -27.4290   19.1096 C   0  0  0  0  0  0  0  0  0  0  0  0
  -23.3794   -8.4679   22.5186 C   0  0  0  0  0  0  0  0  0  0  0  0
  -22.5886   -9.9987   20.3329 C   0  0  0  0  0  0  0  0  0  0  0  0
  -23.4049  -16.0350   16.5628 C   0  0  0  0  0  0  0  0  0  0  0  0
  -21.6314  -23.9445   17.8300 C   0  0  0  0  0  0  0  0  0  0  0  0
  -29.2325  -26.6960   21.0677 C   0  0  0  0  0  0  0  0  0  0  0  0
  -28.4710  -26.6190   18.7761 C   0  0  0  0  0  0  0  0  0  0  0  0
  -22.7099  -17.1949   16.2229 C   0  0  0  0  0  0  0  0  0  0  0  0
  -30.8427  -24.2359   17.3957 C   0  0  0  0  0  0  0  0  0  0  0  0
  -30.5980  -23.1223   16.5922 C   0  0  0  0  0  0  0  0  0  0  0  0
  -20.5445  -24.5486   18.4522 C   0  0  0  0  0  0  0  0  0  0  0  0
  -23.2935  -18.1621   18.3543 C   0  0  0  0  0  0  0  0  0  0  0  0
  -29.0882  -22.2482   18.2637 C   0  0  0  0  0  0  0  0  0  0  0  0
  -20.8070  -24.7309   15.7423 C   0  0  0  0  0  0  0  0  0  0  0  0
  -27.2235  -27.8725   20.4222 C   0  0  0  0  0  0  0  0  0  0  0  0
  -26.0490  -30.1152   20.7362 C   0  0  0  0  0  0  0  0  0  0  0  0
  -23.2746   -9.8610   22.6562 C   0  0  0  0  0  0  0  0  0  0  0  0
  -24.0413  -15.9256   17.8076 C   0  0  0  0  0  0  0  0  0  0  0  0
  -22.8647  -10.6360   21.5545 C   0  0  0  0  0  0  0  0  0  0  0  0
  -23.9981  -17.0008   18.7066 C   0  0  0  0  0  0  0  0  0  0  0  0
  -21.7725  -24.0327   16.4496 C   0  0  0  0  0  0  0  0  0  0  0  0
  -29.3945  -26.2525   19.7552 C   0  0  0  0  0  0  0  0  0  0  0  0
  -22.6517  -18.2575   17.1198 C   0  0  0  0  0  0  0  0  0  0  0  0
  -30.2103  -24.3557   18.6332 C   0  0  0  0  0  0  0  0  0  0  0  0
  -29.7207  -22.1284   17.0262 C   0  0  0  0  0  0  0  0  0  0  0  0
  -29.3330  -23.3619   19.0672 C   0  0  0  0  0  0  0  0  0  0  0  0
  -26.1017  -28.7087   20.7662 C   0  0  0  0  0  0  0  0  0  0  0  0
  -19.6342  -25.2239   17.6553 C   0  0  0  0  0  0  0  0  0  0  0  0
  -24.7748  -30.4200   21.1485 C   0  0  0  0  0  0  0  0  0  0  0  0
  -27.0614  -31.0615   20.3684 C   0  0  0  0  0  0  0  0  0  0  0  0
  -23.7283  -14.0122   20.3264 C   0  0  0  0  0  0  0  0  0  0  0  0
  -26.3598  -15.5975   21.3677 C   0  0  0  0  0  0  0  0  0  0  0  0
  -28.2868  -18.4112   21.2394 C   0  0  0  0  0  0  0  0  0  0  0  0
  -19.6120  -27.3904   21.0155 C   0  0  0  0  0  0  0  0  0  0  0  0
  -23.5404  -10.4791   24.0060 C   0  0  0  0  0  0  0  0  0  0  0  0
  -24.8093  -14.6781   18.1484 C   0  0  0  0  0  0  0  0  0  0  0  0
  -24.6816  -16.9413   20.0474 C   0  0  0  0  0  0  0  0  0  0  0  0
  -23.7539  -11.9897   23.9528 C   0  0  0  0  0  0  0  0  0  0  0  0
  -21.2242  -28.7480   23.8851 C   0  0  0  0  0  0  0  0  0  0  0  0
  -22.6836  -12.6500   23.0896 C   0  0  0  0  0  0  0  0  0  0  0  0
  -22.6523  -29.0188   23.4084 C   0  0  0  0  0  0  0  0  0  0  0  0
  -20.6528  -27.4764   23.2618 C   0  0  0  0  0  0  0  0  0  0  0  0
  -22.1447  -27.6966   21.3125 C   0  0  0  0  0  0  0  0  0  0  0  0
  -22.7497  -12.1422   21.6442 C   0  0  1  0  0  0  0  0  0  0  0  0
  -24.9869  -14.4773   19.6502 C   0  0  1  0  0  0  0  0  0  0  0  0
  -22.7435  -28.9989   21.8707 C   0  0  2  0  0  0  0  0  0  0  0  0
  -24.2889  -23.9079   16.2382 C   0  0  0  0  0  0  0  0  0  0  0  0
  -30.2401  -19.9185   21.6977 C   0  0  0  0  0  0  0  0  0  0  0  0
  -24.8251  -16.2042   23.9341 C   0  0  0  0  0  0  0  0  0  0  0  0
  -26.5244  -17.9688   24.4506 C   0  0  0  0  0  0  0  0  0  0  0  0
  -27.2228  -15.5805   24.2752 C   0  0  0  0  0  0  0  0  0  0  0  0
  -29.8048  -17.3364   18.9373 C   0  0  0  0  0  0  0  0  0  0  0  0
  -18.4560  -25.8845   18.2895 C   0  0  0  0  0  0  0  0  0  0  0  0
  -18.7160  -27.3381   18.7017 C   0  0  0  0  0  0  0  0  0  0  0  0
  -21.7675  -21.2355   15.2624 C   0  0  0  0  0  0  0  0  0  0  0  0
  -21.9151  -19.7337   15.4069 C   0  0  0  0  0  0  0  0  0  1  0  0
  -22.9420  -23.3868   15.7432 C   0  0  1  0  0  0  0  0  0  0  0  0
  -26.6039  -16.8482   22.1771 C   0  0  1  0  0  0  0  0  0  0  0  0
  -29.7859  -18.5995   21.0921 C   0  0  2  0  0  0  0  0  0  0  0  0
  -26.2794  -16.6511   23.6849 C   0  0  0  0  0  0  0  0  0  0  0  0
  -19.7377  -25.3310   16.3116 N   0  0  0  0  0  0  0  0  0  0  0  0
  -24.9524  -28.1581   21.1661 N   0  0  0  0  0  0  0  0  0  0  0  0
  -24.1656  -29.2241   21.3913 N   0  0  0  0  0  0  0  0  0  0  0  0
  -25.4146  -15.6978   20.3370 N   0  0  0  0  0  0  0  0  0  0  0  0
  -20.7683  -27.5217   21.8021 N   0  0  0  0  0  0  0  0  0  0  0  0
  -24.1274  -31.5915   21.3236 N   0  0  0  0  0  0  0  0  0  0  0  0
  -28.3147  -30.5778   19.9689 N   0  0  0  0  0  0  0  0  0  0  0  0
  -23.8401  -12.7766   20.9350 N   0  0  0  0  0  0  0  0  0  0  0  0
  -27.9820  -17.2452   21.9094 N   0  0  0  0  0  0  0  0  0  0  0  0
  -19.8092  -27.4509   19.6414 N   0  0  0  0  0  0  0  0  0  0  0  0
  -30.1706  -18.5861   19.6524 N   0  3  0  0  0  0  0  0  0  0  0  0
  -22.9438  -21.9046   15.8730 N   0  3  0  0  0  0  0  0  0  0  0  0
  -26.8658  -32.2999   20.4090 O   0  0  0  0  0  0  0  0  0  0  0  0
  -22.7300  -14.7224   20.2993 O   0  0  0  0  0  0  0  0  0  0  0  0
  -26.9899  -14.5714   21.6354 O   0  0  0  0  0  0  0  0  0  0  0  0
  -27.4682  -19.2195   20.8070 O   0  0  0  0  0  0  0  0  0  0  0  0
  -18.4865  -27.2364   21.5019 O   0  0  0  0  0  0  0  0  0  0  0  0
  -30.4537  -25.4623   19.4293 O   0  0  0  0  0  0  0  0  0  0  0  0
  -21.9735  -19.3905   16.7908 O   0  0  0  0  0  0  0  0  0  1  0  0
  -29.4846  -21.0598   16.2539 F   0  0  0  0  0  0  0  0  0  0  0  0
  -28.7216  -23.4720   20.2545 F   0  0  0  0  0  0  0  0  0  0  0  0
  1  2  1  0  0  0  0
  1  5  2  0  0  0  0
  2  6  2  0  0  0  0
  3  9  2  0  0  0  0
  3 18  1  0  0  0  0
  4 10  1  0  0  0  0
  4 18  2  0  0  0  0
  5 20  1  0  0  0  0
  6 22  1  0  0  0  0
  7 11  2  0  0  0  0
  7 21  1  0  0  0  0
  8 14  2  0  0  0  0
  8 24  1  0  0  0  0
  9 25  1  0  0  0  0
 10 25  2  0  0  0  0
 11 26  1  0  0  0  0
 12 13  2  0  0  0  0
 12 27  1  0  0  0  0
 13 28  1  0  0  0  0
 14 31  1  0  0  0  0
 15 23  1  0  0  0  0
 15 26  2  0  0  0  0
 16 28  2  0  0  0  0
 16 29  1  0  0  0  0
 17 24  2  0  0  0  0
 17 64  1  0  0  0  0
 18 30  1  0  0  0  0
 19 30  1  0  0  0  0
 19 32  2  0  0  0  0
 19 33  1  0  0  0  0
 20 22  2  0  0  0  0
 20 38  1  0  0  0  0
 21 23  2  0  0  0  0
 21 39  1  0  0  0  0
 22 47  1  0  0  0  0
 23 40  1  0  0  0  0
 24 60  1  0  0  0  0
 25 81  1  0  0  0  0
 26 82  1  0  0  0  0
 27 29  2  0  0  0  0
 27 81  1  0  0  0  0
 28 83  1  0  0  0  0
 29 84  1  0  0  0  0
 30 65  2  0  0  0  0
 31 56  1  0  0  0  0
 31 64  2  0  0  0  0
 32 66  1  0  0  0  0
 32 69  1  0  0  0  0
 33 70  1  0  0  0  0
 33 76  2  0  0  0  0
 34 48  1  0  0  0  0
 34 71  1  0  0  0  0
 34 77  2  0  0  0  0
 35 61  1  0  0  0  0
 35 67  1  0  0  0  0
 35 78  2  0  0  0  0
 36 62  1  0  0  0  0
 36 72  1  0  0  0  0
 36 79  2  0  0  0  0
 37 68  1  0  0  0  0
 37 73  1  0  0  0  0
 37 80  2  0  0  0  0
 38 41  1  0  0  0  0
 39 48  1  0  0  0  0
 40 67  1  0  0  0  0
 41 43  1  0  0  0  0
 42 44  1  0  0  0  0
 42 45  1  0  0  0  0
 43 47  1  0  0  0  0
 44 49  1  0  0  0  0
 45 68  1  0  0  0  0
 46 49  1  0  0  0  0
 46 68  1  0  0  0  0
 47 71  1  0  0  0  0
 48 67  1  0  0  0  0
 49 66  1  0  0  0  0
 50 60  1  0  0  0  0
 51 62  1  0  0  0  0
 52 63  1  0  0  0  0
 53 63  1  0  0  0  0
 54 63  1  0  0  0  0
 55 74  1  0  0  0  0
 56 57  1  0  0  0  0
 57 73  1  0  0  0  0
 58 59  1  0  0  0  0
 58 75  1  0  0  0  0
 59 82  1  0  0  0  0
 60 75  1  0  0  0  0
 61 63  1  0  0  0  0
 61 72  1  0  0  0  0
 62 74  1  0  0  0  0
 65 66  1  0  0  0  0
M  CHG  2  74   1  75   1
M  ISO  4  37 100  59 101  73 100  82 101
M  END
> <Batch ID>
0132

> <Smiles>
CNC(C)C(=O)NC(C(=O)N1Cc2cc([101O:1][101CH2:1]CNC(C)c3ccc(CC[100NH:0][100C:0](=O)N4CCCC(n5nc(-c6ccc(Oc7ccc(F)cc7F)cc6)c(C(N)=O)c5N)C4)nc3)ccc2CC1C(=O)NC1CCCc2ccccc21)C(C)(C)C

> <Shape>
0.255

> <Color>
0.057

> <Negative vol penalty>
0.000

$$$$

  -OEChem-04052320523D

 91100  0     1  0  0  0  0  0999 V2000
  -14.5813  -26.8201   24.0861 C   0  0  0  0  0  0  0  0  0  0  0  0
  -15.3958  -25.9084   23.4223 C   0  0  0  0  0  0  0  0  0  0  0  0
  -22.5836  -10.3474   20.3163 C   0  0  0  0  0  0  0  0  0  0  0  0
  -24.1471   -9.6835   22.0344 C   0  0  0  0  0  0  0  0  0  0  0  0
  -15.0484  -28.1069   24.3506 C   0  0  0  0  0  0  0  0  0  0  0  0
  -16.6777  -26.2833   23.0215 C   0  0  0  0  0  0  0  0  0  0  0  0
  -21.6644  -22.7327   22.8416 C   0  0  0  0  0  0  0  0  0  0  0  0
  -32.5853  -18.4060   21.8407 C   0  0  0  0  0  0  0  0  0  0  0  0
  -32.0481  -17.1838   21.4369 C   0  0  0  0  0  0  0  0  0  0  0  0
  -21.7942   -9.2342   20.6045 C   0  0  0  0  0  0  0  0  0  0  0  0
  -23.3576   -8.5702   22.3226 C   0  0  0  0  0  0  0  0  0  0  0  0
  -22.2883  -22.0438   21.8024 C   0  0  0  0  0  0  0  0  0  0  0  0
  -20.5153   -7.9080   24.0265 C   0  0  0  0  0  0  0  0  0  0  0  0
  -20.2677   -7.6209   25.3688 C   0  0  0  0  0  0  0  0  0  0  0  0
  -29.9875  -17.7109   22.5830 C   0  0  0  0  0  0  0  0  0  0  0  0
  -23.8135  -23.8886   21.5031 C   0  0  0  0  0  0  0  0  0  0  0  0
  -21.3202   -5.4627   25.1013 C   0  0  0  0  0  0  0  0  0  0  0  0
  -23.7601  -10.5721   21.0313 C   0  0  0  0  0  0  0  0  0  0  0  0
  -24.1987  -13.0755   20.8119 C   0  0  0  0  0  0  0  0  0  0  0  0
  -16.3403  -28.4947   23.9614 C   0  0  0  0  0  0  0  0  0  0  0  0
  -22.1041  -24.0115   23.2127 C   0  0  0  0  0  0  0  0  0  0  0  0
  -17.1621  -27.5768   23.2799 C   0  0  0  0  0  0  0  0  0  0  0  0
  -30.5249  -18.9332   22.9868 C   0  0  0  0  0  0  0  0  0  0  0  0
  -23.1951  -24.5906   22.5490 C   0  0  0  0  0  0  0  0  0  0  0  0
  -31.8238  -19.2807   22.6157 C   0  0  0  0  0  0  0  0  0  0  0  0
  -30.7492  -16.8362   21.8081 C   0  0  0  0  0  0  0  0  0  0  0  0
  -22.1811   -8.3456   21.6076 C   0  0  0  0  0  0  0  0  0  0  0  0
  -23.3612  -22.6229   21.1311 C   0  0  0  0  0  0  0  0  0  0  0  0
  -21.1652   -6.9724   23.2215 C   0  0  0  0  0  0  0  0  0  0  0  0
  -20.6702   -6.3983   25.9062 C   0  0  0  0  0  0  0  0  0  0  0  0
  -21.5677   -5.7498   23.7589 C   0  0  0  0  0  0  0  0  0  0  0  0
  -24.5763  -11.7216   20.7337 C   0  0  0  0  0  0  0  0  0  0  0  0
  -25.3220  -13.7678   20.4306 C   0  0  0  0  0  0  0  0  0  0  0  0
  -22.9447  -13.6555   21.1951 C   0  0  0  0  0  0  0  0  0  0  0  0
  -20.7960  -26.9081   23.2573 C   0  0  0  0  0  0  0  0  0  0  0  0
  -23.5754  -27.7147   24.7224 C   0  0  0  0  0  0  0  0  0  0  0  0
  -27.0784  -26.9441   24.3315 C   0  0  0  0  0  0  0  0  0  0  0  0
  -30.8220  -14.6139   20.6240 C   0  0  0  0  0  0  0  0  0  0  0  0
  -16.7839  -29.9114   24.2273 C   0  0  0  0  0  0  0  0  0  0  0  0
  -21.4375  -24.7304   24.3535 C   0  0  0  0  0  0  0  0  0  0  0  0
  -23.7186  -25.9526   22.9225 C   0  0  0  0  0  0  0  0  0  0  0  0
  -18.2921  -30.1111   24.1016 C   0  0  0  0  0  0  0  0  0  0  0  0
  -29.6398  -12.1478   18.3440 C   0  0  0  0  0  0  0  0  0  0  0  0
  -18.8137  -29.4516   22.8289 C   0  0  0  0  0  0  0  0  0  0  0  0
  -28.1860  -11.9285   18.7689 C   0  0  0  0  0  0  0  0  0  0  0  0
  -26.9672  -19.2421   25.5654 C   0  0  0  0  0  0  0  0  0  0  0  0
  -30.5512  -12.3915   19.5455 C   0  0  0  0  0  0  0  0  0  0  0  0
  -27.3196  -20.3048   24.5209 C   0  0  0  0  0  0  0  0  0  0  0  0
  -28.6598  -13.2435   20.8744 C   0  0  0  0  0  0  0  0  0  0  0  0
  -28.0356  -18.9609   26.6061 C   0  0  0  0  0  0  0  0  0  0  0  0
  -30.0599  -19.7086   25.3176 C   0  0  0  0  0  0  0  0  0  0  0  0
  -29.6690  -19.8781   23.8355 C   0  0  2  0  0  0  0  0  0  0  0  0
  -18.5678  -27.9381   22.8512 C   0  0  1  0  0  0  0  0  0  0  0  0
  -21.6396  -26.2418   24.3070 C   0  0  1  0  0  0  0  0  0  0  0  0
  -27.6926  -13.0584   19.6938 C   0  0  2  0  0  0  0  0  0  0  0  0
  -32.4208  -20.5834   23.0366 C   0  0  0  0  0  0  0  0  0  0  0  0
  -28.9444  -26.9365   26.0095 C   0  0  0  0  0  0  0  0  0  0  0  0
  -25.3748  -20.3422   18.0929 C   0  0  0  0  0  0  0  0  0  0  0  0
  -24.0679  -30.5667   23.7560 C   0  0  0  0  0  0  0  0  0  0  0  0
  -26.5261  -30.1343   23.9518 C   0  0  0  0  0  0  0  0  0  0  0  0
  -25.0777  -30.0298   25.9801 C   0  0  0  0  0  0  0  0  0  0  0  0
  -27.7906  -24.1419   23.6997 C   0  0  0  0  0  0  0  0  0  0  0  0
  -27.9535  -20.4212   22.2040 C   0  0  0  0  0  0  0  0  0  0  0  0
  -26.7140  -19.8188   21.5700 C   0  0  0  0  0  0  0  0  0  0  0  0
  -23.9705  -20.5275   20.1854 C   0  0  0  0  0  0  0  0  0  1  0  0
  -24.9320  -28.1858   24.2566 C   0  0  1  0  0  0  0  0  0  0  0  0
  -27.9299  -26.0915   25.2548 C   0  0  2  0  0  0  0  0  0  0  0  0
  -25.2401  -19.9624   19.5586 C   0  0  2  0  0  0  0  0  0  0  0  0
  -25.1346  -29.7125   24.4698 C   0  0  0  0  0  0  0  0  0  0  0  0
  -25.8406  -11.5611   20.3340 N   0  0  0  0  0  0  0  0  0  0  0  0
  -26.2672  -12.8233   20.1575 N   0  0  0  0  0  0  0  0  0  0  0  0
  -23.0294  -26.6182   24.0403 N   0  0  0  0  0  0  0  0  0  0  0  0
  -30.0233  -13.4780   20.3736 N   0  0  0  0  0  0  0  0  0  0  0  0
  -28.2290  -19.7766   23.4964 N   0  0  2  0  0  0  0  0  0  0  0  0
  -25.5835  -15.0863   20.3056 N   0  0  0  0  0  0  0  0  0  0  0  0
  -21.8958  -12.7996   21.5578 N   0  0  0  0  0  0  0  0  0  0  0  0
  -30.2023  -15.5956   21.3965 N   0  0  0  0  0  0  0  0  0  0  0  0
  -19.5402  -27.2805   23.6975 N   0  0  0  0  0  0  0  0  0  0  0  0
  -25.9118  -27.3513   24.9436 N   0  0  0  0  0  0  0  0  0  0  0  0
  -29.3316  -18.5875   25.9792 N   0  3  0  0  0  0  0  0  0  0  0  0
  -28.6670  -25.0588   24.4731 N   0  3  0  0  0  0  0  0  0  0  0  0
  -26.4161  -20.5139   20.2919 N   0  3  0  0  0  0  0  0  0  0  0  0
  -22.7548  -14.8954   21.1993 O   0  0  0  0  0  0  0  0  0  0  0  0
  -21.2513  -27.0737   22.1316 O   0  0  0  0  0  0  0  0  0  0  0  0
  -23.0239  -28.2937   25.6616 O   0  0  0  0  0  0  0  0  0  0  0  0
  -27.4162  -27.2242   23.1835 O   0  0  0  0  0  0  0  0  0  0  0  0
  -31.9611  -14.7206   20.1626 O   0  0  0  0  0  0  0  0  0  0  0  0
  -21.4109   -7.2593   21.8892 O   0  0  0  0  0  0  0  0  0  0  0  0
  -23.9715  -21.9529   20.1160 O   0  0  0  0  0  0  0  0  0  1  0  0
  -20.4338   -6.1233   27.1957 F   0  0  0  0  0  0  0  0  0  0  0  0
  -22.1935   -4.8475   22.9908 F   0  0  0  0  0  0  0  0  0  0  0  0
  1  2  1  0  0  0  0
  1  5  2  0  0  0  0
  2  6  2  0  0  0  0
  3 10  2  0  0  0  0
  3 18  1  0  0  0  0
  4 11  1  0  0  0  0
  4 18  2  0  0  0  0
  5 20  1  0  0  0  0
  6 22  1  0  0  0  0
  7 12  2  0  0  0  0
  7 21  1  0  0  0  0
  8  9  2  0  0  0  0
  8 25  1  0  0  0  0
  9 26  1  0  0  0  0
 10 27  1  0  0  0  0
 11 27  2  0  0  0  0
 12 28  1  0  0  0  0
 13 14  2  0  0  0  0
 13 29  1  0  0  0  0
 14 30  1  0  0  0  0
 15 23  1  0  0  0  0
 15 26  2  0  0  0  0
 16 24  1  0  0  0  0
 16 28  2  0  0  0  0
 17 30  2  0  0  0  0
 17 31  1  0  0  0  0
 18 32  1  0  0  0  0
 19 32  1  0  0  0  0
 19 33  2  0  0  0  0
 19 34  1  0  0  0  0
 20 22  2  0  0  0  0
 20 39  1  0  0  0  0
 21 24  2  0  0  0  0
 21 40  1  0  0  0  0
 22 53  1  0  0  0  0
 23 25  2  0  0  0  0
 23 52  1  0  0  0  0
 24 41  1  0  0  0  0
 25 56  1  0  0  0  0
 26 77  1  0  0  0  0
 27 88  1  0  0  0  0
 28 89  1  0  0  0  0
 29 31  2  0  0  0  0
 29 88  1  0  0  0  0
 30 90  1  0  0  0  0
 31 91  1  0  0  0  0
 32 70  2  0  0  0  0
 33 71  1  0  0  0  0
 33 75  1  0  0  0  0
 34 76  1  0  0  0  0
 34 83  2  0  0  0  0
 35 54  1  0  0  0  0
 35 78  1  0  0  0  0
 35 84  2  0  0  0  0
 36 66  1  0  0  0  0
 36 72  1  0  0  0  0
 36 85  2  0  0  0  0
 37 67  1  0  0  0  0
 37 79  1  0  0  0  0
 37 86  2  0  0  0  0
 38 73  1  0  0  0  0
 38 77  1  0  0  0  0
 38 87  2  0  0  0  0
 39 42  1  0  0  0  0
 40 54  1  0  0  0  0
 41 72  1  0  0  0  0
 42 44  1  0  0  0  0
 43 45  1  0  0  0  0
 43 47  1  0  0  0  0
 44 53  1  0  0  0  0
 45 55  1  0  0  0  0
 46 48  1  0  0  0  0
 46 50  1  0  0  0  0
 47 73  1  0  0  0  0
 48 74  1  0  0  0  0
 49 55  1  0  0  0  0
 49 73  1  0  0  0  0
 50 80  1  0  0  0  0
 51 52  1  0  0  0  0
 51 80  1  0  0  0  0
 52 74  1  0  0  0  0
 53 78  1  0  0  0  0
 54 72  1  0  0  0  0
 55 71  1  0  0  0  0
 57 67  1  0  0  0  0
 58 68  1  0  0  0  0
 59 69  1  0  0  0  0
 60 69  1  0  0  0  0
 61 69  1  0  0  0  0
 62 81  1  0  0  0  0
 63 64  1  0  0  0  0
 63 74  1  0  0  0  0
 64 82  1  0  0  0  0
 65 68  1  0  0  0  0
 65 89  1  0  0  0  0
 66 69  1  0  0  0  0
 66 79  1  0  0  0  0
 67 81  1  0  0  0  0
 68 82  1  0  0  0  0
 70 71  1  0  0  0  0
M  CHG  3  80   1  81   1  82   1
M  ISO  4  38 100  65 101  77 100  89 101
M  END
> <Batch ID>
0132

> <Smiles>
CNC(C)C(=O)NC(C(=O)N1Cc2cc([101O:1][101CH2:1]C(C)NCCN3CCCNCC3c3cc([100NH:0][100C:0](=O)N4CCCC(n5nc(-c6ccc(Oc7ccc(F)cc7F)cc6)c(C(N)=O)c5N)C4)ccc3C)ccc2CC1C(=O)NC1CCCc2ccccc21)C(C)(C)C

> <Shape>
0.272

> <Color>
0.188

> <Negative vol penalty>
0.000

$$$$

  -OEChem-04052320523D

 93103  0     1  0  0  0  0  0999 V2000
  -23.3782   -7.7818   21.2391 C   0  0  0  0  0  0  0  0  0  0  0  0
  -22.8879   -8.5371   20.1799 C   0  0  0  0  0  0  0  0  0  0  0  0
  -29.8177  -24.6070   20.4470 C   0  0  0  0  0  0  0  0  0  0  0  0
  -27.4244  -24.6917   20.1277 C   0  0  0  0  0  0  0  0  0  0  0  0
  -23.7984   -8.4157   22.4065 C   0  0  0  0  0  0  0  0  0  0  0  0
  -22.8287   -9.9273   20.2831 C   0  0  0  0  0  0  0  0  0  0  0  0
  -21.3202  -17.4108   18.0593 C   0  0  0  0  0  0  0  0  0  0  0  0
  -19.2885  -28.7594   23.1707 C   0  0  0  0  0  0  0  0  0  0  0  0
  -18.3017  -27.8584   23.5706 C   0  0  0  0  0  0  0  0  0  0  0  0
  -29.7784  -23.2147   20.3722 C   0  0  0  0  0  0  0  0  0  0  0  0
  -27.3851  -23.2994   20.0529 C   0  0  0  0  0  0  0  0  0  0  0  0
  -21.1269  -18.7005   18.5524 C   0  0  0  0  0  0  0  0  0  0  0  0
  -28.9660  -20.6339   22.3980 C   0  0  0  0  0  0  0  0  0  0  0  0
  -29.6955  -19.9140   23.3441 C   0  0  0  0  0  0  0  0  0  0  0  0
  -20.3134  -27.0378   21.8206 C   0  0  0  0  0  0  0  0  0  0  0  0
  -23.2594  -18.5849   19.6741 C   0  0  0  0  0  0  0  0  0  0  0  0
  -30.9893  -18.8990   21.5741 C   0  0  0  0  0  0  0  0  0  0  0  0
  -28.6406  -25.3455   20.3248 C   0  0  0  0  0  0  0  0  0  0  0  0
  -29.3900  -27.6612   19.5608 C   0  0  0  0  0  0  0  0  0  0  0  0
  -23.7324   -9.8135   22.5279 C   0  0  0  0  0  0  0  0  0  0  0  0
  -22.4816  -16.6931   18.3794 C   0  0  0  0  0  0  0  0  0  0  0  0
  -23.2704  -10.5875   21.4440 C   0  0  0  0  0  0  0  0  0  0  0  0
  -19.3266  -26.1367   22.2205 C   0  0  0  0  0  0  0  0  0  0  0  0
  -23.4662  -17.2872   19.1817 C   0  0  0  0  0  0  0  0  0  0  0  0
  -20.2944  -28.3492   22.2956 C   0  0  0  0  0  0  0  0  0  0  0  0
  -18.3208  -26.5470   23.0955 C   0  0  0  0  0  0  0  0  0  0  0  0
  -28.5621  -22.5609   20.1751 C   0  0  0  0  0  0  0  0  0  0  0  0
  -22.0952  -19.2866   19.3623 C   0  0  0  0  0  0  0  0  0  0  0  0
  -29.2481  -20.4863   21.0399 C   0  0  0  0  0  0  0  0  0  0  0  0
  -30.7072  -19.0466   22.9322 C   0  0  0  0  0  0  0  0  0  0  0  0
  -30.2598  -19.6189   20.6280 C   0  0  0  0  0  0  0  0  0  0  0  0
  -28.6805  -26.7837   20.4025 C   0  0  0  0  0  0  0  0  0  0  0  0
  -29.1013  -28.9126   20.0478 C   0  0  0  0  0  0  0  0  0  0  0  0
  -30.2344  -27.3711   18.4390 C   0  0  0  0  0  0  0  0  0  0  0  0
  -23.0887  -13.9794   19.9192 C   0  0  0  0  0  0  0  0  0  0  0  0
  -26.1231  -14.5481   18.9237 C   0  0  0  0  0  0  0  0  0  0  0  0
  -29.0917  -15.8442   17.8491 C   0  0  0  0  0  0  0  0  0  0  0  0
  -24.4975  -31.1042   23.1867 C   0  0  0  0  0  0  0  0  0  0  0  0
  -24.2078  -10.4483   23.8110 C   0  0  0  0  0  0  0  0  0  0  0  0
  -22.6873  -15.3130   17.8177 C   0  0  0  0  0  0  0  0  0  0  0  0
  -24.7400  -16.5667   19.5381 C   0  0  0  0  0  0  0  0  0  0  0  0
  -23.6957  -11.8733   23.9946 C   0  0  0  0  0  0  0  0  0  0  0  0
  -15.4295  -24.6408   26.5421 C   0  0  0  0  0  0  0  0  0  0  0  0
  -16.7045  -25.2366   27.1454 C   0  0  0  0  0  0  0  0  0  0  0  0
  -27.9384  -31.1778   24.0984 C   0  0  0  0  0  0  0  0  0  0  0  0
  -23.9465  -12.6826   22.7310 C   0  0  0  0  0  0  0  0  0  0  0  0
  -28.5828  -30.1391   23.1786 C   0  0  0  0  0  0  0  0  0  0  0  0
  -15.6448  -24.6266   25.0311 C   0  0  0  0  0  0  0  0  0  0  0  0
  -17.6215  -25.5517   25.9664 C   0  0  0  0  0  0  0  0  0  0  0  0
  -19.2145  -24.6712   20.1586 C   0  0  0  0  0  0  0  0  0  0  0  0
  -20.6449  -23.9773   22.1246 C   0  0  0  0  0  0  0  0  0  0  0  0
  -26.5410  -30.7498   24.5413 C   0  0  0  0  0  0  0  0  0  0  0  0
  -26.2661  -29.3647   22.5214 C   0  0  0  0  0  0  0  0  0  0  0  0
  -19.2611  -23.2424   19.6327 C   0  0  0  0  0  0  0  0  0  0  0  0
  -20.6810  -22.5539   21.5838 C   0  0  0  0  0  0  0  0  0  0  0  0
  -19.3708  -24.7168   21.6868 C   0  0  0  0  0  0  0  0  0  0  0  0
  -23.1682  -12.0987   21.5451 C   0  0  1  0  0  0  0  0  0  0  0  0
  -23.6741  -14.4788   18.6286 C   0  0  1  0  0  0  0  0  0  0  0  0
  -27.6544  -29.7779   22.0035 C   0  0  2  0  0  0  0  0  0  0  0  0
  -16.6574  -25.7421   24.8017 C   0  0  0  0  0  0  0  0  0  0  0  0
  -31.5578  -15.3799   17.8457 C   0  0  0  0  0  0  0  0  0  0  0  0
  -26.2832  -15.3907   21.8519 C   0  0  0  0  0  0  0  0  0  0  0  0
  -28.7262  -15.8268   21.5205 C   0  0  0  0  0  0  0  0  0  0  0  0
  -27.8202  -13.5223   21.2185 C   0  0  0  0  0  0  0  0  0  0  0  0
  -29.1884  -15.7541   14.8925 C   0  0  0  0  0  0  0  0  0  0  0  0
  -21.3307  -30.6185   22.3384 C   0  0  0  0  0  0  0  0  0  0  0  0
  -22.5106  -31.3535   21.7208 C   0  0  0  0  0  0  0  0  0  0  0  0
  -20.6973  -21.2106   19.4842 C   0  0  0  0  0  0  0  0  0  1  0  0
  -27.3110  -15.2914   19.4855 C   0  0  1  0  0  0  0  0  0  0  0  0
  -30.2480  -15.2187   17.0900 C   0  0  2  0  0  0  0  0  0  0  0  0
  -27.5158  -15.0208   21.0028 C   0  0  0  0  0  0  0  0  0  0  0  0
  -27.9929  -27.4234   21.3523 N   0  0  0  0  0  0  0  0  0  0  0  0
  -28.2691  -28.7162   21.1104 N   0  0  0  0  0  0  0  0  0  0  0  0
  -24.8918  -15.2171   18.9697 N   0  0  0  0  0  0  0  0  0  0  0  0
  -25.7105  -30.4228   23.3797 N   0  0  0  0  0  0  0  0  0  0  0  0
  -29.4807  -30.1508   19.6665 N   0  0  0  0  0  0  0  0  0  0  0  0
  -29.6535  -27.3034   17.1653 N   0  0  0  0  0  0  0  0  0  0  0  0
  -17.3126  -25.6490   23.5094 N   0  0  0  0  0  0  0  0  0  0  0  0
  -21.2915  -29.2608   21.8906 N   0  0  0  0  0  0  0  0  0  0  0  0
  -23.5920  -12.7600   20.3307 N   0  0  0  0  0  0  0  0  0  0  0  0
  -28.4523  -14.9251   18.6538 N   0  0  0  0  0  0  0  0  0  0  0  0
  -23.7748  -30.7379   22.0579 N   0  0  0  0  0  0  0  0  0  0  0  0
  -20.5428  -22.5827   20.0807 N   0  3  0  0  0  0  0  0  0  0  0  0
  -30.3956  -15.8581   15.7520 N   0  3  0  0  0  0  0  0  0  0  0  0
  -31.4648  -27.1613   18.5645 O   0  0  0  0  0  0  0  0  0  0  0  0
  -22.2440  -14.6512   20.4994 O   0  0  0  0  0  0  0  0  0  0  0  0
  -26.2832  -13.4185   18.4547 O   0  0  0  0  0  0  0  0  0  0  0  0
  -28.7885  -17.0304   17.7418 O   0  0  0  0  0  0  0  0  0  0  0  0
  -24.0914  -31.9783   23.9600 O   0  0  0  0  0  0  0  0  0  0  0  0
  -28.5234  -21.2023   20.1019 O   0  0  0  0  0  0  0  0  0  0  0  0
  -21.9086  -20.5450   19.8454 O   0  0  0  0  0  0  0  0  0  1  0  0
  -31.4087  -18.3565   23.8409 F   0  0  0  0  0  0  0  0  0  0  0  0
  -30.5361  -19.4738   19.3247 F   0  0  0  0  0  0  0  0  0  0  0  0
  1  2  1  0  0  0  0
  1  5  2  0  0  0  0
  2  6  2  0  0  0  0
  3 10  2  0  0  0  0
  3 18  1  0  0  0  0
  4 11  1  0  0  0  0
  4 18  2  0  0  0  0
  5 20  1  0  0  0  0
  6 22  1  0  0  0  0
  7 12  2  0  0  0  0
  7 21  1  0  0  0  0
  8  9  2  0  0  0  0
  8 25  1  0  0  0  0
  9 26  1  0  0  0  0
 10 27  1  0  0  0  0
 11 27  2  0  0  0  0
 12 28  1  0  0  0  0
 13 14  2  0  0  0  0
 13 29  1  0  0  0  0
 14 30  1  0  0  0  0
 15 23  1  0  0  0  0
 15 25  2  0  0  0  0
 16 24  1  0  0  0  0
 16 28  2  0  0  0  0
 17 30  2  0  0  0  0
 17 31  1  0  0  0  0
 18 32  1  0  0  0  0
 19 32  1  0  0  0  0
 19 33  2  0  0  0  0
 19 34  1  0  0  0  0
 20 22  2  0  0  0  0
 20 39  1  0  0  0  0
 21 24  2  0  0  0  0
 21 40  1  0  0  0  0
 22 57  1  0  0  0  0
 23 26  2  0  0  0  0
 23 56  1  0  0  0  0
 24 41  1  0  0  0  0
 25 79  1  0  0  0  0
 26 78  1  0  0  0  0
 27 90  1  0  0  0  0
 28 91  1  0  0  0  0
 29 31  2  0  0  0  0
 29 90  1  0  0  0  0
 30 92  1  0  0  0  0
 31 93  1  0  0  0  0
 32 72  2  0  0  0  0
 33 73  1  0  0  0  0
 33 76  1  0  0  0  0
 34 77  1  0  0  0  0
 34 85  2  0  0  0  0
 35 58  1  0  0  0  0
 35 80  1  0  0  0  0
 35 86  2  0  0  0  0
 36 69  1  0  0  0  0
 36 74  1  0  0  0  0
 36 87  2  0  0  0  0
 37 70  1  0  0  0  0
 37 81  1  0  0  0  0
 37 88  2  0  0  0  0
 38 75  1  0  0  0  0
 38 82  1  0  0  0  0
 38 89  2  0  0  0  0
 39 42  1  0  0  0  0
 40 58  1  0  0  0  0
 41 74  1  0  0  0  0
 42 46  1  0  0  0  0
 43 44  1  0  0  0  0
 43 48  1  0  0  0  0
 44 49  1  0  0  0  0
 45 47  1  0  0  0  0
 45 52  1  0  0  0  0
 46 57  1  0  0  0  0
 47 59  1  0  0  0  0
 48 60  1  0  0  0  0
 49 60  1  0  0  0  0
 50 54  1  0  0  0  0
 50 56  1  0  0  0  0
 51 55  1  0  0  0  0
 51 56  1  0  0  0  0
 52 75  1  0  0  0  0
 53 59  1  0  0  0  0
 53 75  1  0  0  0  0
 54 83  1  0  0  0  0
 55 83  1  0  0  0  0
 57 80  1  0  0  0  0
 58 74  1  0  0  0  0
 59 73  1  0  0  0  0
 60 78  1  0  0  0  0
 61 70  1  0  0  0  0
 62 71  1  0  0  0  0
 63 71  1  0  0  0  0
 64 71  1  0  0  0  0
 65 84  1  0  0  0  0
 66 67  1  0  0  0  0
 66 79  1  0  0  0  0
 67 82  1  0  0  0  0
 68 83  1  0  0  0  0
 68 91  1  0  0  0  0
 69 71  1  0  0  0  0
 69 81  1  0  0  0  0
 70 84  1  0  0  0  0
 72 73  1  0  0  0  0
M  CHG  2  83   1  84   1
M  ISO  4  38 100  68 101  82 100  91 101
M  END
> <Batch ID>
0132

> <Smiles>
CNC(C)C(=O)NC(C(=O)N1Cc2cc([101O:1][101CH2:1]N3CCC(c4cc(NCC[100NH:0][100C:0](=O)N5CCCC(n6nc(-c7ccc(Oc8ccc(F)cc8F)cc7)c(C(N)=O)c6N)C5)ccc4NC4CCCC4)CC3)ccc2CC1C(=O)NC1CCCc2ccccc21)C(C)(C)C

> <Shape>
0.264

> <Color>
0.085

> <Negative vol penalty>
0.000

$$$$

  -OEChem-04052320523D

 85 94  0     1  0  0  0  0  0999 V2000
  -30.1149  -32.7257   24.8259 C   0  0  0  0  0  0  0  0  0  0  0  0
  -29.7461  -31.4784   24.3324 C   0  0  0  0  0  0  0  0  0  0  0  0
  -24.5673   -9.9367   22.8072 C   0  0  0  0  0  0  0  0  0  0  0  0
  -25.4467  -11.7222   24.1768 C   0  0  0  0  0  0  0  0  0  0  0  0
  -29.1430  -33.5915   25.3258 C   0  0  0  0  0  0  0  0  0  0  0  0
  -28.4052  -31.0956   24.3394 C   0  0  0  0  0  0  0  0  0  0  0  0
  -26.9746  -28.9494   19.9814 C   0  0  0  0  0  0  0  0  0  0  0  0
  -28.6595  -20.3051   22.7707 C   0  0  0  0  0  0  0  0  0  0  0  0
  -24.4502   -9.1275   23.9373 C   0  0  0  0  0  0  0  0  0  0  0  0
  -25.3296  -10.9130   25.3069 C   0  0  0  0  0  0  0  0  0  0  0  0
  -27.3451  -27.6214   19.7740 C   0  0  0  0  0  0  0  0  0  0  0  0
  -22.3244   -8.7814   26.5439 C   0  0  0  0  0  0  0  0  0  0  0  0
  -21.1412   -8.0607   26.7053 C   0  0  0  0  0  0  0  0  0  0  0  0
  -28.4879  -18.9831   22.3753 C   0  0  0  0  0  0  0  0  0  0  0  0
  -25.1334  -26.9094   20.4225 C   0  0  0  0  0  0  0  0  0  0  0  0
  -22.3953   -5.9958   26.6785 C   0  0  0  0  0  0  0  0  0  0  0  0
  -30.4026  -20.5046   21.1650 C   0  0  0  0  0  0  0  0  0  0  0  0
  -25.0655  -11.2341   22.9270 C   0  0  0  0  0  0  0  0  0  0  0  0
  -24.1534  -12.4820   20.8976 C   0  0  0  0  0  0  0  0  0  0  0  0
  -29.6329  -21.0871   22.1590 C   0  0  0  0  0  0  0  0  0  0  0  0
  -27.7885  -33.2230   25.3301 C   0  0  0  0  0  0  0  0  0  0  0  0
  -25.6819  -29.2671   20.4223 C   0  0  0  0  0  0  0  0  0  0  0  0
  -27.4145  -31.9568   24.8410 C   0  0  0  0  0  0  0  0  0  0  0  0
  -24.7482  -28.2423   20.6324 C   0  0  0  0  0  0  0  0  0  0  0  0
  -24.8314   -9.6157   25.1871 C   0  0  0  0  0  0  0  0  0  0  0  0
  -26.4253  -26.6010   19.9973 C   0  0  0  0  0  0  0  0  0  0  0  0
  -23.5431   -8.1094   26.4496 C   0  0  0  0  0  0  0  0  0  0  0  0
  -21.1767   -6.6679   26.7727 C   0  0  0  0  0  0  0  0  0  0  0  0
  -23.5786   -6.7166   26.5170 C   0  0  0  0  0  0  0  0  0  0  0  0
  -25.1872  -12.0703   21.7599 C   0  0  0  0  0  0  0  0  0  0  0  0
  -29.3088  -18.4949   21.3715 C   0  0  0  0  0  0  0  0  0  0  0  0
  -24.7820  -13.2561   19.9531 C   0  0  0  0  0  0  0  0  0  0  0  0
  -22.7504  -12.1908   20.9460 C   0  0  0  0  0  0  0  0  0  0  0  0
  -24.4754  -30.6798   23.0015 C   0  0  0  0  0  0  0  0  0  0  0  0
  -21.6882  -30.4173   21.3630 C   0  0  0  0  0  0  0  0  0  0  0  0
  -19.8842  -28.8087   18.9537 C   0  0  0  0  0  0  0  0  0  0  0  0
  -29.8317  -16.4504   19.9956 C   0  0  0  0  0  0  0  0  0  0  0  0
  -26.7795  -34.1737   25.9241 C   0  0  0  0  0  0  0  0  0  0  0  0
  -25.2897  -30.7063   20.6157 C   0  0  0  0  0  0  0  0  0  0  0  0
  -23.3417  -28.5319   21.0864 C   0  0  0  0  0  0  0  0  0  0  0  0
  -25.3369  -33.8421   25.5509 C   0  0  0  0  0  0  0  0  0  0  0  0
  -29.0072  -13.8003   17.7654 C   0  0  0  0  0  0  0  0  0  0  0  0
  -25.0688  -32.3510   25.7286 C   0  0  0  0  0  0  0  0  0  0  0  0
  -27.8360  -13.0971   18.4552 C   0  0  0  0  0  0  0  0  0  0  0  0
  -31.2492  -22.8269   23.0853 C   0  0  0  0  0  0  0  0  0  0  0  0
  -30.0427  -14.2977   18.7723 C   0  0  0  0  0  0  0  0  0  0  0  0
  -28.3346  -14.4318   20.5425 C   0  0  0  0  0  0  0  0  0  0  0  0
  -31.2968  -24.3428   23.0936 C   0  0  0  0  0  0  0  0  0  0  0  0
  -29.8426  -22.5266   22.5659 C   0  0  1  0  0  0  0  0  0  0  0  0
  -25.9673  -31.5154   24.8089 C   0  0  1  0  0  0  0  0  0  0  0  0
  -24.1040  -30.8808   21.5595 C   0  0  1  0  0  0  0  0  0  0  0  0
  -27.2339  -13.9704   19.5734 C   0  0  2  0  0  0  0  0  0  0  0  0
  -29.6893  -23.5422   21.4274 C   0  0  1  0  0  0  0  0  0  0  0  0
  -17.6223  -28.7937   17.8670 C   0  0  0  0  0  0  0  0  0  0  0  0
  -28.7404  -24.4472   18.7010 C   0  0  0  0  0  0  0  0  0  0  0  0
  -20.5205  -29.0319   23.8180 C   0  0  0  0  0  0  0  0  0  0  0  0
  -18.6435  -28.2137   22.3772 C   0  0  0  0  0  0  0  0  0  0  0  0
  -18.9819  -30.6627   22.7099 C   0  0  0  0  0  0  0  0  0  0  0  0
  -21.0292  -29.4252   16.2952 C   0  0  0  0  0  0  0  0  0  0  0  0
  -28.2521  -23.9200   21.1158 C   0  0  0  0  0  0  0  0  0  0  0  0
  -20.6028  -29.3732   21.2601 C   0  0  1  0  0  0  0  0  0  0  0  0
  -19.0420  -29.3354   17.8058 C   0  0  2  0  0  0  0  0  0  0  0  0
  -28.1558  -24.9696   20.0064 C   0  0  2  0  0  0  0  0  0  1  0  0
  -19.7142  -29.3145   22.5346 C   0  0  0  0  0  0  0  0  0  0  0  0
  -30.2652  -19.2240   20.7541 N   0  0  0  0  0  0  0  0  0  0  0  0
  -26.3819  -12.5436   21.3954 N   0  0  0  0  0  0  0  0  0  0  0  0
  -26.1027  -13.2606   20.2936 N   0  0  0  0  0  0  0  0  0  0  0  0
  -23.0082  -29.9544   21.2677 N   0  0  0  0  0  0  0  0  0  0  0  0
  -29.4006  -15.1214   19.7990 N   0  0  0  0  0  0  0  0  0  0  0  0
  -24.3284  -13.9266   18.8728 N   0  0  0  0  0  0  0  0  0  0  0  0
  -21.9132  -13.0544   21.6656 N   0  0  0  0  0  0  0  0  0  0  0  0
  -29.1258  -17.1465   20.9762 N   0  0  0  0  0  0  0  0  0  0  0  0
  -25.4614  -31.5361   23.4532 N   0  0  0  0  0  0  0  0  0  0  0  0
  -19.8694  -29.6662   20.0334 N   0  0  0  0  0  0  0  0  0  0  0  0
  -30.4346  -24.7541   21.9342 N   0  3  0  0  0  0  0  0  0  0  0  0
  -19.6404  -28.9388   16.4998 N   0  3  0  0  0  0  0  0  0  0  0  0
  -22.2561  -11.1852   20.3821 O   0  0  0  0  0  0  0  0  0  0  0  0
  -23.9083  -29.8130   23.6563 O   0  0  0  0  0  0  0  0  0  0  0  0
  -21.3761  -31.6010   21.5149 O   0  0  0  0  0  0  0  0  0  0  0  0
  -20.4911  -27.7413   18.8996 O   0  0  0  0  0  0  0  0  0  0  0  0
  -30.7409  -16.9439   19.3233 O   0  0  0  0  0  0  0  0  0  0  0  0
  -24.7171   -8.8264   26.2901 O   0  0  0  0  0  0  0  0  0  0  0  0
  -26.7845  -25.3039   19.7961 O   0  0  0  0  0  0  0  0  0  1  0  0
  -20.0405   -5.9760   26.9293 F   0  0  0  0  0  0  0  0  0  0  0  0
  -24.7465   -6.0655   26.4283 F   0  0  0  0  0  0  0  0  0  0  0  0
  1  2  1  0  0  0  0
  1  5  2  0  0  0  0
  2  6  2  0  0  0  0
  3  9  2  0  0  0  0
  3 18  1  0  0  0  0
  4 10  1  0  0  0  0
  4 18  2  0  0  0  0
  5 21  1  0  0  0  0
  6 23  1  0  0  0  0
  7 11  2  0  0  0  0
  7 22  1  0  0  0  0
  8 14  2  0  0  0  0
  8 20  1  0  0  0  0
  9 25  1  0  0  0  0
 10 25  2  0  0  0  0
 11 26  1  0  0  0  0
 12 13  2  0  0  0  0
 12 27  1  0  0  0  0
 13 28  1  0  0  0  0
 14 31  1  0  0  0  0
 15 24  1  0  0  0  0
 15 26  2  0  0  0  0
 16 28  2  0  0  0  0
 16 29  1  0  0  0  0
 17 20  2  0  0  0  0
 17 65  1  0  0  0  0
 18 30  1  0  0  0  0
 19 30  1  0  0  0  0
 19 32  2  0  0  0  0
 19 33  1  0  0  0  0
 20 49  1  0  0  0  0
 21 23  2  0  0  0  0
 21 38  1  0  0  0  0
 22 24  2  0  0  0  0
 22 39  1  0  0  0  0
 23 50  1  0  0  0  0
 24 40  1  0  0  0  0
 25 82  1  0  0  0  0
 26 83  1  0  0  0  0
 27 29  2  0  0  0  0
 27 82  1  0  0  0  0
 28 84  1  0  0  0  0
 29 85  1  0  0  0  0
 30 66  2  0  0  0  0
 31 65  2  0  0  0  0
 31 72  1  0  0  0  0
 32 67  1  0  0  0  0
 32 70  1  0  0  0  0
 33 71  1  0  0  0  0
 33 77  2  0  0  0  0
 34 51  1  0  0  0  0
 34 73  1  0  0  0  0
 34 78  2  0  0  0  0
 35 61  1  0  0  0  0
 35 68  1  0  0  0  0
 35 79  2  0  0  0  0
 36 62  1  0  0  0  0
 36 74  1  0  0  0  0
 36 80  2  0  0  0  0
 37 69  1  0  0  0  0
 37 72  1  0  0  0  0
 37 81  2  0  0  0  0
 38 41  1  0  0  0  0
 39 51  1  0  0  0  0
 40 68  1  0  0  0  0
 41 43  1  0  0  0  0
 42 44  1  0  0  0  0
 42 46  1  0  0  0  0
 43 50  1  0  0  0  0
 44 52  1  0  0  0  0
 45 48  1  0  0  0  0
 45 49  1  0  0  0  0
 46 69  1  0  0  0  0
 47 52  1  0  0  0  0
 47 69  1  0  0  0  0
 48 75  1  0  0  0  0
 49 53  1  0  0  0  0
 50 73  1  0  0  0  0
 51 68  1  0  0  0  0
 52 67  1  0  0  0  0
 53 60  1  0  0  0  0
 53 75  1  0  0  0  0
 54 62  1  0  0  0  0
 55 63  1  0  0  0  0
 56 64  1  0  0  0  0
 57 64  1  0  0  0  0
 58 64  1  0  0  0  0
 59 76  1  0  0  0  0
 60 63  1  0  0  0  0
 61 64  1  0  0  0  0
 61 74  1  0  0  0  0
 62 76  1  0  0  0  0
 63 83  1  0  0  0  0
 66 67  1  0  0  0  0
M  CHG  2  75   1  76   1
M  ISO  4  37 100  63 101  72 100  83 101
M  END
> <Batch ID>
0132

> <Smiles>
CNC(C)C(=O)NC(C(=O)N1Cc2cc([101O:1][101CH:1](C)CC3NCCC3c3ccc([100NH:0][100C:0](=O)N4CCCC(n5nc(-c6ccc(Oc7ccc(F)cc7F)cc6)c(C(N)=O)c5N)C4)nc3)ccc2CC1C(=O)NC1CCCc2ccccc21)C(C)(C)C

> <Shape>
0.275

> <Color>
0.081

> <Negative vol penalty>
0.000

$$$$

  -OEChem-04052320523D

 86 94  0     1  0  0  0  0  0999 V2000
  -29.2432  -25.3081   15.3875 C   0  0  0  0  0  0  0  0  0  0  0  0
  -28.5157  -24.3979   16.1476 C   0  0  0  0  0  0  0  0  0  0  0  0
  -27.7081  -16.9814   18.9794 C   0  0  0  0  0  0  0  0  0  0  0  0
  -27.7309  -17.1648   21.3883 C   0  0  0  0  0  0  0  0  0  0  0  0
  -29.4613  -26.5987   15.8678 C   0  0  0  0  0  0  0  0  0  0  0  0
  -28.0068  -24.7775   17.3891 C   0  0  0  0  0  0  0  0  0  0  0  0
  -22.7376  -22.9536   19.9218 C   0  0  0  0  0  0  0  0  0  0  0  0
  -28.3892  -18.1947   18.8806 C   0  0  0  0  0  0  0  0  0  0  0  0
  -28.4120  -18.3780   21.2896 C   0  0  0  0  0  0  0  0  0  0  0  0
  -22.4420  -21.9763   20.8711 C   0  0  0  0  0  0  0  0  0  0  0  0
  -29.8391  -21.6998   21.6628 C   0  0  0  0  0  0  0  0  0  0  0  0
  -29.4031  -22.7552   22.4638 C   0  0  0  0  0  0  0  0  0  0  0  0
  -22.4830  -23.6548   22.6032 C   0  0  0  0  0  0  0  0  0  0  0  0
  -20.5896  -16.3435   25.5027 C   0  0  0  0  0  0  0  0  0  0  0  0
  -18.5866  -17.5204   26.1250 C   0  0  0  0  0  0  0  0  0  0  0  0
  -27.2327  -22.6609   21.4067 C   0  0  0  0  0  0  0  0  0  0  0  0
  -27.3789  -16.4665   20.2333 C   0  0  0  0  0  0  0  0  0  0  0  0
  -27.2384  -13.9269   20.4288 C   0  0  0  0  0  0  0  0  0  0  0  0
  -28.9466  -26.9973   17.1115 C   0  0  0  0  0  0  0  0  0  0  0  0
  -22.9192  -24.2893   20.3082 C   0  0  0  0  0  0  0  0  0  0  0  0
  -28.2194  -26.0742   17.8871 C   0  0  0  0  0  0  0  0  0  0  0  0
  -22.7783  -24.6476   21.6565 C   0  0  0  0  0  0  0  0  0  0  0  0
  -19.9630  -17.5094   25.9286 C   0  0  0  0  0  0  0  0  0  0  0  0
  -28.7412  -18.8930   20.0357 C   0  0  0  0  0  0  0  0  0  0  0  0
  -22.3175  -22.3263   22.2124 C   0  0  0  0  0  0  0  0  0  0  0  0
  -28.9719  -21.1250   20.7336 C   0  0  0  0  0  0  0  0  0  0  0  0
  -28.0999  -23.2357   22.3358 C   0  0  0  0  0  0  0  0  0  0  0  0
  -27.6687  -21.6055   20.6056 C   0  0  0  0  0  0  0  0  0  0  0  0
  -26.6748  -15.2136   20.3360 C   0  0  0  0  0  0  0  0  0  0  0  0
  -19.8011  -15.2244   25.2891 C   0  0  0  0  0  0  0  0  0  0  0  0
  -17.8877  -16.3487   25.8833 C   0  0  0  0  0  0  0  0  0  0  0  0
  -26.1572  -13.0831   20.5041 C   0  0  0  0  0  0  0  0  0  0  0  0
  -28.6160  -13.5299   20.4456 C   0  0  0  0  0  0  0  0  0  0  0  0
  -25.3316  -26.3548   20.1752 C   0  0  0  0  0  0  0  0  0  0  0  0
  -23.0959  -28.4386   21.2621 C   0  0  0  0  0  0  0  0  0  0  0  0
  -20.1540  -28.9267   22.9215 C   0  0  0  0  0  0  0  0  0  0  0  0
  -20.5138  -13.8421   22.3552 C   0  0  0  0  0  0  0  0  0  0  0  0
  -29.2486  -28.3883   17.6101 C   0  0  0  0  0  0  0  0  0  0  0  0
  -23.2112  -25.3362   19.2684 C   0  0  0  0  0  0  0  0  0  0  0  0
  -22.9436  -26.0710   22.1203 C   0  0  0  0  0  0  0  0  0  0  0  0
  -28.3562  -28.8274   18.7682 C   0  0  0  0  0  0  0  0  0  0  0  0
  -21.5830  -12.7279   19.1471 C   0  0  0  0  0  0  0  0  0  0  0  0
  -28.2607  -27.7237   19.8167 C   0  0  0  0  0  0  0  0  0  0  0  0
  -23.0601  -13.1225   19.0964 C   0  0  0  0  0  0  0  0  0  0  0  0
  -20.7464  -13.7671   19.8901 C   0  0  0  0  0  0  0  0  0  0  0  0
  -22.7084  -14.4953   21.1918 C   0  0  0  0  0  0  0  0  0  0  0  0
  -27.6301  -26.4561   19.2277 C   0  0  1  0  0  0  0  0  0  0  0  0
  -23.8833  -26.5789   19.8440 C   0  0  1  0  0  0  0  0  0  0  0  0
  -23.6014  -13.4505   20.5009 C   0  0  2  0  0  0  0  0  0  0  0  0
  -21.8586  -18.5561   27.2340 C   0  0  0  0  0  0  0  0  0  0  0  0
  -15.9788  -15.3328   27.1786 C   0  0  0  0  0  0  0  0  0  0  0  0
  -15.6450  -16.0273   24.7783 C   0  0  0  0  0  0  0  0  0  0  0  0
  -18.6007  -30.7440   23.6846 C   0  0  0  0  0  0  0  0  0  0  0  0
  -25.0234  -29.1332   23.5231 C   0  0  0  0  0  0  0  0  0  0  0  0
  -23.1063  -30.1884   24.7396 C   0  0  0  0  0  0  0  0  0  0  0  0
  -23.8297  -31.0939   22.5306 C   0  0  0  0  0  0  0  0  0  0  0  0
  -17.9222  -27.8617   21.2954 C   0  0  0  0  0  0  0  0  0  0  0  0
  -20.4395  -13.9550   24.8333 C   0  0  0  0  0  0  0  0  0  0  0  0
  -20.4737  -19.6975   23.8828 C   0  0  0  0  0  0  0  0  0  0  0  0
  -21.2506  -20.2595   22.7087 C   0  0  0  0  0  0  0  0  0  1  0  0
  -20.7750  -18.7594   26.1780 C   0  0  1  0  0  0  0  0  0  0  0  0
  -16.4090  -16.3251   26.0820 C   0  0  0  0  0  0  0  0  0  0  0  0
  -22.6164  -28.8778   22.6245 C   0  0  1  0  0  0  0  0  0  0  0  0
  -18.9287  -29.7543   22.5775 C   0  0  2  0  0  0  0  0  0  0  0  0
  -23.6427  -29.7961   23.3463 C   0  0  0  0  0  0  0  0  0  0  0  0
  -25.3394  -15.1939   20.3506 N   0  0  0  0  0  0  0  0  0  0  0  0
  -18.4615  -15.1968   25.4690 N   0  0  0  0  0  0  0  0  0  0  0  0
  -25.0548  -13.8845   20.4534 N   0  0  0  0  0  0  0  0  0  0  0  0
  -23.2348  -27.0572   21.0666 N   0  0  0  0  0  0  0  0  0  0  0  0
  -21.3122  -14.0317   21.2152 N   0  0  0  0  0  0  0  0  0  0  0  0
  -26.0516  -11.7413   20.6080 N   0  0  0  0  0  0  0  0  0  0  0  0
  -29.5992  -14.5250   20.3598 N   0  0  0  0  0  0  0  0  0  0  0  0
  -26.1943  -26.6066   19.1255 N   0  0  0  0  0  0  0  0  0  0  0  0
  -21.3081  -29.4897   22.4192 N   0  0  0  0  0  0  0  0  0  0  0  0
  -21.1294  -14.1094   23.5719 N   0  0  0  0  0  0  0  0  0  0  0  0
  -17.7470  -28.8697   22.3725 N   0  3  0  0  0  0  0  0  0  0  0  0
  -21.4240  -19.2783   24.9437 N   0  3  0  0  0  0  0  0  0  0  0  0
  -28.9646  -12.3270   20.5175 O   0  0  0  0  0  0  0  0  0  0  0  0
  -25.6435  -25.9825   21.3003 O   0  0  0  0  0  0  0  0  0  0  0  0
  -23.3315  -29.2895   20.4006 O   0  0  0  0  0  0  0  0  0  0  0  0
  -20.0937  -27.8869   23.5740 O   0  0  0  0  0  0  0  0  0  0  0  0
  -19.3411  -13.4576   22.2936 O   0  0  0  0  0  0  0  0  0  0  0  0
  -29.4060  -20.0767   19.9396 O   0  0  0  0  0  0  0  0  0  0  0  0
  -22.0297  -21.3741   23.1411 O   0  0  0  0  0  0  0  0  0  1  0  0
  -27.6809  -24.2482   23.1061 F   0  0  0  0  0  0  0  0  0  0  0  0
  -26.8307  -21.0565   19.7156 F   0  0  0  0  0  0  0  0  0  0  0  0
  1  2  1  0  0  0  0
  1  5  2  0  0  0  0
  2  6  2  0  0  0  0
  3  8  2  0  0  0  0
  3 17  1  0  0  0  0
  4  9  1  0  0  0  0
  4 17  2  0  0  0  0
  5 19  1  0  0  0  0
  6 21  1  0  0  0  0
  7 10  2  0  0  0  0
  7 20  1  0  0  0  0
  8 24  1  0  0  0  0
  9 24  2  0  0  0  0
 10 25  1  0  0  0  0
 11 12  2  0  0  0  0
 11 26  1  0  0  0  0
 12 27  1  0  0  0  0
 13 22  1  0  0  0  0
 13 25  2  0  0  0  0
 14 23  1  0  0  0  0
 14 30  2  0  0  0  0
 15 23  2  0  0  0  0
 15 31  1  0  0  0  0
 16 27  2  0  0  0  0
 16 28  1  0  0  0  0
 17 29  1  0  0  0  0
 18 29  1  0  0  0  0
 18 32  2  0  0  0  0
 18 33  1  0  0  0  0
 19 21  2  0  0  0  0
 19 38  1  0  0  0  0
 20 22  2  0  0  0  0
 20 39  1  0  0  0  0
 21 47  1  0  0  0  0
 22 40  1  0  0  0  0
 23 61  1  0  0  0  0
 24 83  1  0  0  0  0
 25 84  1  0  0  0  0
 26 28  2  0  0  0  0
 26 83  1  0  0  0  0
 27 85  1  0  0  0  0
 28 86  1  0  0  0  0
 29 66  2  0  0  0  0
 30 58  1  0  0  0  0
 30 67  1  0  0  0  0
 31 62  1  0  0  0  0
 31 67  2  0  0  0  0
 32 68  1  0  0  0  0
 32 71  1  0  0  0  0
 33 72  1  0  0  0  0
 33 78  2  0  0  0  0
 34 48  1  0  0  0  0
 34 73  1  0  0  0  0
 34 79  2  0  0  0  0
 35 63  1  0  0  0  0
 35 69  1  0  0  0  0
 35 80  2  0  0  0  0
 36 64  1  0  0  0  0
 36 74  1  0  0  0  0
 36 81  2  0  0  0  0
 37 70  1  0  0  0  0
 37 75  1  0  0  0  0
 37 82  2  0  0  0  0
 38 41  1  0  0  0  0
 39 48  1  0  0  0  0
 40 69  1  0  0  0  0
 41 43  1  0  0  0  0
 42 44  1  0  0  0  0
 42 45  1  0  0  0  0
 43 47  1  0  0  0  0
 44 49  1  0  0  0  0
 45 70  1  0  0  0  0
 46 49  1  0  0  0  0
 46 70  1  0  0  0  0
 47 73  1  0  0  0  0
 48 69  1  0  0  0  0
 49 68  1  0  0  0  0
 50 61  1  0  0  0  0
 51 62  1  0  0  0  0
 52 62  1  0  0  0  0
 53 64  1  0  0  0  0
 54 65  1  0  0  0  0
 55 65  1  0  0  0  0
 56 65  1  0  0  0  0
 57 76  1  0  0  0  0
 58 75  1  0  0  0  0
 59 60  1  0  0  0  0
 59 77  1  0  0  0  0
 60 84  1  0  0  0  0
 61 77  1  0  0  0  0
 63 65  1  0  0  0  0
 63 74  1  0  0  0  0
 64 76  1  0  0  0  0
 66 68  1  0  0  0  0
M  CHG  2  76   1  77   1
M  ISO  4  37 100  60 101  75 100  84 101
M  END
> <Batch ID>
0132

> <Smiles>
CNC(C)C(=O)NC(C(=O)N1Cc2cc([101O:1][101CH2:1]CNC(C)c3cc(C[100NH:0][100C:0](=O)N4CCCC(n5nc(-c6ccc(Oc7ccc(F)cc7F)cc6)c(C(N)=O)c5N)C4)nc(C(C)C)c3)ccc2CC1C(=O)NC1CCCc2ccccc21)C(C)(C)C

> <Shape>
0.215

> <Color>
0.071

> <Negative vol penalty>
0.000

$$$$

  -OEChem-04052320523D

 84 93  0     1  0  0  0  0  0999 V2000
  -22.9511   -8.2117   20.4901 C   0  0  0  0  0  0  0  0  0  0  0  0
  -22.2945   -9.3330   19.9931 C   0  0  0  0  0  0  0  0  0  0  0  0
  -29.1260  -25.3003   19.1406 C   0  0  0  0  0  0  0  0  0  0  0  0
  -28.1754  -24.3699   21.1575 C   0  0  0  0  0  0  0  0  0  0  0  0
  -23.7620   -8.3234   21.6188 C   0  0  0  0  0  0  0  0  0  0  0  0
  -22.4474  -10.5664   20.6252 C   0  0  0  0  0  0  0  0  0  0  0  0
  -18.6935  -23.7669   21.8351 C   0  0  0  0  0  0  0  0  0  0  0  0
  -20.9081  -24.6932   21.5622 C   0  0  0  0  0  0  0  0  0  0  0  0
  -22.6916  -17.5812   19.1937 C   0  0  0  0  0  0  0  0  0  0  0  0
  -19.1334  -22.5570   21.2982 C   0  0  0  0  0  0  0  0  0  0  0  0
  -21.3480  -23.4833   21.0254 C   0  0  0  0  0  0  0  0  0  0  0  0
  -30.3048  -24.5904   19.3687 C   0  0  0  0  0  0  0  0  0  0  0  0
  -29.3542  -23.6599   21.3856 C   0  0  0  0  0  0  0  0  0  0  0  0
  -22.1068  -18.7827   19.5916 C   0  0  0  0  0  0  0  0  0  0  0  0
  -33.6965  -23.3017   19.6119 C   0  0  0  0  0  0  0  0  0  0  0  0
  -34.9050  -23.9784   19.4474 C   0  0  0  0  0  0  0  0  0  0  0  0
  -23.5958  -18.8724   21.4874 C   0  0  0  0  0  0  0  0  0  0  0  0
  -34.2567  -25.5528   21.1615 C   0  0  0  0  0  0  0  0  0  0  0  0
  -28.0613  -25.1901   20.0351 C   0  0  0  0  0  0  0  0  0  0  0  0
  -25.7186  -25.4928   19.0717 C   0  0  0  0  0  0  0  0  0  0  0  0
  -19.5808  -24.8351   21.9670 C   0  0  0  0  0  0  0  0  0  0  0  0
  -23.9326   -9.5608   22.2594 C   0  0  0  0  0  0  0  0  0  0  0  0
  -23.7272  -17.0098   19.9469 C   0  0  0  0  0  0  0  0  0  0  0  0
  -23.2603  -10.6945   21.7644 C   0  0  0  0  0  0  0  0  0  0  0  0
  -24.1937  -17.6650   21.0955 C   0  0  0  0  0  0  0  0  0  0  0  0
  -20.4607  -22.4152   20.8934 C   0  0  0  0  0  0  0  0  0  0  0  0
  -30.4189  -23.7702   20.4912 C   0  0  0  0  0  0  0  0  0  0  0  0
  -22.5570  -19.4270   20.7402 C   0  0  0  0  0  0  0  0  0  0  0  0
  -32.7680  -23.7505   20.5512 C   0  0  0  0  0  0  0  0  0  0  0  0
  -35.1852  -25.1039   20.2222 C   0  0  0  0  0  0  0  0  0  0  0  0
  -33.0482  -24.8761   21.3260 C   0  0  0  0  0  0  0  0  0  0  0  0
  -26.8435  -25.9236   19.8003 C   0  0  0  0  0  0  0  0  0  0  0  0
  -24.8392  -26.5454   19.1437 C   0  0  0  0  0  0  0  0  0  0  0  0
  -25.4892  -24.2522   18.3907 C   0  0  0  0  0  0  0  0  0  0  0  0
  -24.1019  -14.2854   21.5409 C   0  0  0  0  0  0  0  0  0  0  0  0
  -27.1416  -15.3620   21.8923 C   0  0  0  0  0  0  0  0  0  0  0  0
  -29.2841  -18.0173   21.9684 C   0  0  0  0  0  0  0  0  0  0  0  0
  -22.2675  -30.5476   22.0616 C   0  0  0  0  0  0  0  0  0  0  0  0
  -24.7817   -9.6227   23.5043 C   0  0  0  0  0  0  0  0  0  0  0  0
  -24.3655  -15.7269   19.4895 C   0  0  0  0  0  0  0  0  0  0  0  0
  -25.3164  -17.1035   21.9279 C   0  0  0  0  0  0  0  0  0  0  0  0
  -25.1886  -11.0414   23.8941 C   0  0  0  0  0  0  0  0  0  0  0  0
  -25.5051  -31.2861   20.7774 C   0  0  0  0  0  0  0  0  0  0  0  0
  -23.9862  -11.9780   23.8311 C   0  0  0  0  0  0  0  0  0  0  0  0
  -26.0510  -29.9211   20.3547 C   0  0  0  0  0  0  0  0  0  0  0  0
  -19.3382  -27.3108   21.5956 C   0  0  0  0  0  0  0  0  0  0  0  0
  -24.6604  -31.1879   22.0458 C   0  0  0  0  0  0  0  0  0  0  0  0
  -24.1144  -28.8333   21.5650 C   0  0  0  0  0  0  0  0  0  0  0  0
  -19.9215  -26.5512   23.7661 C   0  0  0  0  0  0  0  0  0  0  0  0
  -19.1113  -26.1290   22.5408 C   0  0  2  0  0  0  0  0  0  0  0  0
  -23.4208  -12.0548   22.4077 C   0  0  1  0  0  0  0  0  0  0  0  0
  -25.0657  -14.9731   20.6159 C   0  0  1  0  0  0  0  0  0  0  0  0
  -24.9265  -28.8725   20.2591 C   0  0  2  0  0  0  0  0  0  0  0  0
  -19.1947  -28.5160   22.5137 C   0  0  2  0  0  0  0  0  0  0  0  0
  -31.7035  -18.5871   22.3138 C   0  0  0  0  0  0  0  0  0  0  0  0
  -26.8068  -14.9511   24.8971 C   0  0  0  0  0  0  0  0  0  0  0  0
  -28.8246  -16.3911   25.2483 C   0  0  0  0  0  0  0  0  0  0  0  0
  -29.0283  -14.2474   23.9890 C   0  0  0  0  0  0  0  0  0  0  0  0
  -29.5220  -19.1640   19.2504 C   0  0  0  0  0  0  0  0  0  0  0  0
  -20.9335  -21.1128   20.3177 C   0  0  0  0  0  0  0  0  0  1  0  0
  -19.9152  -29.7573   22.0271 C   0  0  0  0  0  0  0  0  0  0  0  0
  -27.8633  -16.2139   22.9083 C   0  0  1  0  0  0  0  0  0  0  0  0
  -30.6252  -18.2491   21.2960 C   0  0  2  0  0  0  0  0  0  0  0  0
  -28.1083  -15.4607   24.2463 C   0  0  0  0  0  0  0  0  0  0  0  0
  -26.6950  -27.1540   20.2985 N   0  0  0  0  0  0  0  0  0  0  0  0
  -25.4665  -27.5054   19.8821 N   0  0  0  0  0  0  0  0  0  0  0  0
  -25.9039  -15.8437   21.4429 N   0  0  0  0  0  0  0  0  0  0  0  0
  -23.6115  -30.1775   21.8889 N   0  0  0  0  0  0  0  0  0  0  0  0
  -23.5983  -26.7342   18.6468 N   0  0  0  0  0  0  0  0  0  0  0  0
  -26.4978  -23.2794   18.4165 N   0  0  0  0  0  0  0  0  0  0  0  0
  -24.2447  -12.9116   21.5822 N   0  0  0  0  0  0  0  0  0  0  0  0
  -29.0805  -16.6842   22.2559 N   0  0  0  0  0  0  0  0  0  0  0  0
  -21.3366  -29.5306   21.8887 N   0  0  0  0  0  0  0  0  0  0  0  0
  -19.7872  -28.0469   23.8132 N   0  3  0  0  0  0  0  0  0  0  0  0
  -30.5291  -19.3732   20.3223 N   0  3  0  0  0  0  0  0  0  0  0  0
  -24.4279  -24.0197   17.7637 O   0  0  0  0  0  0  0  0  0  0  0  0
  -23.2898  -14.9519   22.1718 O   0  0  0  0  0  0  0  0  0  0  0  0
  -27.6603  -14.3116   21.5060 O   0  0  0  0  0  0  0  0  0  0  0  0
  -28.4975  -18.9283   22.2173 O   0  0  0  0  0  0  0  0  0  0  0  0
  -21.9224  -31.7002   22.3435 O   0  0  0  0  0  0  0  0  0  0  0  0
  -31.5689  -23.0771   20.7139 O   0  0  0  0  0  0  0  0  0  0  0  0
  -21.9876  -20.5995   21.1313 O   0  0  0  0  0  0  0  0  0  1  0  0
  -36.3464  -25.7527   20.0652 F   0  0  0  0  0  0  0  0  0  0  0  0
  -32.1606  -25.3113   22.2308 F   0  0  0  0  0  0  0  0  0  0  0  0
  1  2  1  0  0  0  0
  1  5  2  0  0  0  0
  2  6  2  0  0  0  0
  3 12  2  0  0  0  0
  3 19  1  0  0  0  0
  4 13  1  0  0  0  0
  4 19  2  0  0  0  0
  5 22  1  0  0  0  0
  6 24  1  0  0  0  0
  7 10  2  0  0  0  0
  7 21  1  0  0  0  0
  8 11  1  0  0  0  0
  8 21  2  0  0  0  0
  9 14  2  0  0  0  0
  9 23  1  0  0  0  0
 10 26  1  0  0  0  0
 11 26  2  0  0  0  0
 12 27  1  0  0  0  0
 13 27  2  0  0  0  0
 14 28  1  0  0  0  0
 15 16  2  0  0  0  0
 15 29  1  0  0  0  0
 16 30  1  0  0  0  0
 17 25  1  0  0  0  0
 17 28  2  0  0  0  0
 18 30  2  0  0  0  0
 18 31  1  0  0  0  0
 19 32  1  0  0  0  0
 20 32  1  0  0  0  0
 20 33  2  0  0  0  0
 20 34  1  0  0  0  0
 21 50  1  0  0  0  0
 22 24  2  0  0  0  0
 22 39  1  0  0  0  0
 23 25  2  0  0  0  0
 23 40  1  0  0  0  0
 24 51  1  0  0  0  0
 25 41  1  0  0  0  0
 26 60  1  0  0  0  0
 27 81  1  0  0  0  0
 28 82  1  0  0  0  0
 29 31  2  0  0  0  0
 29 81  1  0  0  0  0
 30 83  1  0  0  0  0
 31 84  1  0  0  0  0
 32 65  2  0  0  0  0
 33 66  1  0  0  0  0
 33 69  1  0  0  0  0
 34 70  1  0  0  0  0
 34 76  2  0  0  0  0
 35 52  1  0  0  0  0
 35 71  1  0  0  0  0
 35 77  2  0  0  0  0
 36 62  1  0  0  0  0
 36 67  1  0  0  0  0
 36 78  2  0  0  0  0
 37 63  1  0  0  0  0
 37 72  1  0  0  0  0
 37 79  2  0  0  0  0
 38 68  1  0  0  0  0
 38 73  1  0  0  0  0
 38 80  2  0  0  0  0
 39 42  1  0  0  0  0
 40 52  1  0  0  0  0
 41 67  1  0  0  0  0
 42 44  1  0  0  0  0
 43 45  1  0  0  0  0
 43 47  1  0  0  0  0
 44 51  1  0  0  0  0
 45 53  1  0  0  0  0
 46 50  1  0  0  0  0
 46 54  1  0  0  0  0
 47 68  1  0  0  0  0
 48 53  1  0  0  0  0
 48 68  1  0  0  0  0
 49 50  1  0  0  0  0
 49 74  1  0  0  0  0
 51 71  1  0  0  0  0
 52 67  1  0  0  0  0
 53 66  1  0  0  0  0
 54 61  1  0  0  0  0
 54 74  1  0  0  0  0
 55 63  1  0  0  0  0
 56 64  1  0  0  0  0
 57 64  1  0  0  0  0
 58 64  1  0  0  0  0
 59 75  1  0  0  0  0
 60 82  1  0  0  0  0
 61 73  1  0  0  0  0
 62 64  1  0  0  0  0
 62 72  1  0  0  0  0
 63 75  1  0  0  0  0
 65 66  1  0  0  0  0
M  CHG  2  74   1  75   1
M  ISO  4  38 100  60 101  73 100  82 101
M  END
> <Batch ID>
0132

> <Smiles>
CNC(C)C(=O)NC(C(=O)N1Cc2cc([101O:1][101CH2:1]c3ccc(C4CNC(C[100NH:0][100C:0](=O)N5CCCC(n6nc(-c7ccc(Oc8ccc(F)cc8F)cc7)c(C(N)=O)c6N)C5)C4)cc3)ccc2CC1C(=O)NC1CCCc2ccccc21)C(C)(C)C

> <Shape>
0.227

> <Color>
0.068

> <Negative vol penalty>
0.000

$$$$

  -OEChem-04052320523D

 86 94  0     1  0  0  0  0  0999 V2000
  -32.3542  -13.5990   20.7681 C   0  0  0  0  0  0  0  0  0  0  0  0
  -31.7177  -14.7651   21.1809 C   0  0  0  0  0  0  0  0  0  0  0  0
  -29.1050  -25.7344   19.9516 C   0  0  0  0  0  0  0  0  0  0  0  0
  -27.0994  -24.5028   19.4060 C   0  0  0  0  0  0  0  0  0  0  0  0
  -31.6508  -12.6445   20.0346 C   0  0  0  0  0  0  0  0  0  0  0  0
  -30.3777  -14.9779   20.8594 C   0  0  0  0  0  0  0  0  0  0  0  0
  -26.1800  -17.8372   24.2814 C   0  0  0  0  0  0  0  0  0  0  0  0
  -21.0733  -24.4832   24.6934 C   0  0  0  0  0  0  0  0  0  0  0  0
  -29.8536  -24.5622   19.8465 C   0  0  0  0  0  0  0  0  0  0  0  0
  -27.8480  -23.3305   19.3008 C   0  0  0  0  0  0  0  0  0  0  0  0
  -25.6774  -19.1374   24.2572 C   0  0  0  0  0  0  0  0  0  0  0  0
  -29.1739  -19.9469   19.2415 C   0  0  0  0  0  0  0  0  0  0  0  0
  -28.6638  -18.7959   19.8419 C   0  0  0  0  0  0  0  0  0  0  0  0
  -20.0840  -25.4541   24.5842 C   0  0  0  0  0  0  0  0  0  0  0  0
  -23.8135  -18.3857   22.9230 C   0  0  0  0  0  0  0  0  0  0  0  0
  -28.7047  -19.8989   21.9911 C   0  0  0  0  0  0  0  0  0  0  0  0
  -27.7279  -25.7047   19.7314 C   0  0  0  0  0  0  0  0  0  0  0  0
  -26.6673  -27.8361   18.8149 C   0  0  0  0  0  0  0  0  0  0  0  0
  -30.2988  -12.8413   19.7122 C   0  0  0  0  0  0  0  0  0  0  0  0
  -25.5077  -16.8017   23.6163 C   0  0  0  0  0  0  0  0  0  0  0  0
  -29.6559  -14.0258   20.1197 C   0  0  0  0  0  0  0  0  0  0  0  0
  -24.3083  -17.0727   22.9425 C   0  0  0  0  0  0  0  0  0  0  0  0
  -21.9591  -24.2799   23.6411 C   0  0  0  0  0  0  0  0  0  0  0  0
  -29.2251  -23.3602   19.5211 C   0  0  0  0  0  0  0  0  0  0  0  0
  -24.4955  -19.4124   23.5755 C   0  0  0  0  0  0  0  0  0  0  0  0
  -29.4495  -21.0739   20.0159 C   0  0  0  0  0  0  0  0  0  0  0  0
  -28.4291  -18.7719   21.2167 C   0  0  0  0  0  0  0  0  0  0  0  0
  -29.2149  -21.0499   21.3906 C   0  0  0  0  0  0  0  0  0  0  0  0
  -26.9541  -26.9152   19.8404 C   0  0  0  0  0  0  0  0  0  0  0  0
  -21.8145  -25.0673   22.5103 C   0  0  0  0  0  0  0  0  0  0  0  0
  -20.0234  -26.1891   23.4112 C   0  0  0  0  0  0  0  0  0  0  0  0
  -25.9063  -28.8033   19.4249 C   0  0  0  0  0  0  0  0  0  0  0  0
  -27.0540  -27.8187   17.4344 C   0  0  0  0  0  0  0  0  0  0  0  0
  -22.6992  -24.9189   21.3632 C   0  0  0  0  0  0  0  0  0  0  0  0
  -26.2239  -14.8359   21.2234 C   0  0  0  0  0  0  0  0  0  0  0  0
  -23.3777  -13.4855   21.9966 C   0  0  0  0  0  0  0  0  0  0  0  0
  -20.2978  -13.8351   23.4245 C   0  0  0  0  0  0  0  0  0  0  0  0
  -21.8336  -29.3767   23.4989 C   0  0  0  0  0  0  0  0  0  0  0  0
  -29.5930  -11.8026   18.8769 C   0  0  0  0  0  0  0  0  0  0  0  0
  -26.0488  -15.3995   23.6744 C   0  0  0  0  0  0  0  0  0  0  0  0
  -23.5377  -15.9926   22.2297 C   0  0  0  0  0  0  0  0  0  0  0  0
  -28.0723  -11.9336   18.8992 C   0  0  0  0  0  0  0  0  0  0  0  0
  -25.2276  -30.2707   24.0970 C   0  0  0  0  0  0  0  0  0  0  0  0
  -27.6584  -13.3866   18.6889 C   0  0  0  0  0  0  0  0  0  0  0  0
  -25.9921  -29.5822   22.9650 C   0  0  0  0  0  0  0  0  0  0  0  0
  -24.0583  -29.4197   24.5875 C   0  0  0  0  0  0  0  0  0  0  0  0
  -23.8884  -28.2959   22.4007 C   0  0  0  0  0  0  0  0  0  0  0  0
  -28.1965  -14.2816   19.8118 C   0  0  1  0  0  0  0  0  0  0  0  0
  -25.5535  -14.5200   22.5305 C   0  0  1  0  0  0  0  0  0  0  0  0
  -25.0429  -29.1404   21.8349 C   0  0  2  0  0  0  0  0  0  0  0  0
  -22.1358  -25.2373   20.0096 C   0  0  0  0  0  0  0  0  0  0  0  0
  -18.1780  -12.5683   23.8706 C   0  0  0  0  0  0  0  0  0  0  0  0
  -22.5713  -13.8099   19.0718 C   0  0  0  0  0  0  0  0  0  0  0  0
  -20.1931  -13.4342   19.7582 C   0  0  0  0  0  0  0  0  0  0  0  0
  -21.8888  -11.6382   20.1074 C   0  0  0  0  0  0  0  0  0  0  0  0
  -20.6022  -14.1281   26.3538 C   0  0  0  0  0  0  0  0  0  0  0  0
  -18.8429  -27.9965   22.1601 C   0  0  0  0  0  0  0  0  0  0  0  0
  -19.6755  -29.2640   22.2786 C   0  0  0  0  0  0  0  0  0  0  0  0
  -23.1293  -22.4709   24.8996 C   0  0  0  0  0  0  0  0  0  0  0  0
  -24.2850  -21.5099   24.6764 C   0  0  0  0  0  0  0  0  0  1  0  0
  -21.9440  -13.6971   21.5737 C   0  0  1  0  0  0  0  0  0  0  0  0
  -19.5416  -12.9665   24.4135 C   0  0  2  0  0  0  0  0  0  0  0  0
  -21.6646  -13.1658   20.1395 C   0  0  0  0  0  0  0  0  0  0  0  0
  -26.4191  -27.2660   21.0129 N   0  0  0  0  0  0  0  0  0  0  0  0
  -20.8661  -26.0201   22.3677 N   0  0  0  0  0  0  0  0  0  0  0  0
  -25.7885  -28.4181   20.7279 N   0  0  0  0  0  0  0  0  0  0  0  0
  -24.1108  -14.6388   22.3100 N   0  0  0  0  0  0  0  0  0  0  0  0
  -23.1958  -29.0355   23.4675 N   0  0  0  0  0  0  0  0  0  0  0  0
  -25.3333  -29.9372   18.9684 N   0  0  0  0  0  0  0  0  0  0  0  0
  -27.8361  -26.7511   16.9730 N   0  0  0  0  0  0  0  0  0  0  0  0
  -22.9464  -23.3136   23.7401 N   0  0  0  0  0  0  0  0  0  0  0  0
  -19.0099  -27.1748   23.3142 N   0  0  0  0  0  0  0  0  0  0  0  0
  -27.3930  -14.1320   21.0062 N   0  0  0  0  0  0  0  0  0  0  0  0
  -21.1184  -13.0848   22.6091 N   0  0  0  0  0  0  0  0  0  0  0  0
  -21.0886  -28.9804   22.3950 N   0  0  0  0  0  0  0  0  0  0  0  0
  -19.3413  -13.6970   25.6970 N   0  3  0  0  0  0  0  0  0  0  0  0
  -26.7299  -28.7316   16.6375 O   0  0  0  0  0  0  0  0  0  0  0  0
  -23.8721  -24.5475   21.4214 O   0  0  0  0  0  0  0  0  0  0  0  0
  -25.7172  -15.6563   20.4672 O   0  0  0  0  0  0  0  0  0  0  0  0
  -23.8283  -12.3387   22.0538 O   0  0  0  0  0  0  0  0  0  0  0  0
  -20.1703  -15.0566   23.3774 O   0  0  0  0  0  0  0  0  0  0  0  0
  -21.3204  -29.9937   24.4386 O   0  0  0  0  0  0  0  0  0  0  0  0
  -29.9552  -22.2161   19.4182 O   0  0  0  0  0  0  0  0  0  0  0  0
  -24.0031  -20.6807   23.5498 O   0  0  0  0  0  0  0  0  0  1  0  0
  -27.9378  -17.6670   21.7929 F   0  0  0  0  0  0  0  0  0  0  0  0
  -29.4766  -22.1299   22.1396 F   0  0  0  0  0  0  0  0  0  0  0  0
  1  2  1  0  0  0  0
  1  5  2  0  0  0  0
  2  6  2  0  0  0  0
  3  9  2  0  0  0  0
  3 17  1  0  0  0  0
  4 10  1  0  0  0  0
  4 17  2  0  0  0  0
  5 19  1  0  0  0  0
  6 21  1  0  0  0  0
  7 11  2  0  0  0  0
  7 20  1  0  0  0  0
  8 14  2  0  0  0  0
  8 23  1  0  0  0  0
  9 24  1  0  0  0  0
 10 24  2  0  0  0  0
 11 25  1  0  0  0  0
 12 13  2  0  0  0  0
 12 26  1  0  0  0  0
 13 27  1  0  0  0  0
 14 31  1  0  0  0  0
 15 22  1  0  0  0  0
 15 25  2  0  0  0  0
 16 27  2  0  0  0  0
 16 28  1  0  0  0  0
 17 29  1  0  0  0  0
 18 29  1  0  0  0  0
 18 32  2  0  0  0  0
 18 33  1  0  0  0  0
 19 21  2  0  0  0  0
 19 39  1  0  0  0  0
 20 22  2  0  0  0  0
 20 40  1  0  0  0  0
 21 48  1  0  0  0  0
 22 41  1  0  0  0  0
 23 30  2  0  0  0  0
 23 71  1  0  0  0  0
 24 83  1  0  0  0  0
 25 84  1  0  0  0  0
 26 28  2  0  0  0  0
 26 83  1  0  0  0  0
 27 85  1  0  0  0  0
 28 86  1  0  0  0  0
 29 64  2  0  0  0  0
 30 34  1  0  0  0  0
 30 65  1  0  0  0  0
 31 65  2  0  0  0  0
 31 72  1  0  0  0  0
 32 66  1  0  0  0  0
 32 69  1  0  0  0  0
 33 70  1  0  0  0  0
 33 77  2  0  0  0  0
 34 51  1  0  0  0  0
 34 78  2  0  0  0  0
 35 49  1  0  0  0  0
 35 73  1  0  0  0  0
 35 79  2  0  0  0  0
 36 61  1  0  0  0  0
 36 67  1  0  0  0  0
 36 80  2  0  0  0  0
 37 62  1  0  0  0  0
 37 74  1  0  0  0  0
 37 81  2  0  0  0  0
 38 68  1  0  0  0  0
 38 75  1  0  0  0  0
 38 82  2  0  0  0  0
 39 42  1  0  0  0  0
 40 49  1  0  0  0  0
 41 67  1  0  0  0  0
 42 44  1  0  0  0  0
 43 45  1  0  0  0  0
 43 46  1  0  0  0  0
 44 48  1  0  0  0  0
 45 50  1  0  0  0  0
 46 68  1  0  0  0  0
 47 50  1  0  0  0  0
 47 68  1  0  0  0  0
 48 73  1  0  0  0  0
 49 67  1  0  0  0  0
 50 66  1  0  0  0  0
 52 62  1  0  0  0  0
 53 63  1  0  0  0  0
 54 63  1  0  0  0  0
 55 63  1  0  0  0  0
 56 76  1  0  0  0  0
 57 58  1  0  0  0  0
 57 72  1  0  0  0  0
 58 75  1  0  0  0  0
 59 60  1  0  0  0  0
 59 71  1  0  0  0  0
 60 84  1  0  0  0  0
 61 63  1  0  0  0  0
 61 74  1  0  0  0  0
 62 76  1  0  0  0  0
 64 66  1  0  0  0  0
M  CHG  1  76   1
M  ISO  4  38 100  60 101  75 100  84 101
M  END
> <Batch ID>
0132

> <Smiles>
CNC(C)C(=O)NC(C(=O)N1Cc2cc([101O:1][101CH2:1]CNc3ccc(NCC[100NH:0][100C:0](=O)N4CCCC(n5nc(-c6ccc(Oc7ccc(F)cc7F)cc6)c(C(N)=O)c5N)C4)nc3C(C)=O)ccc2CC1C(=O)NC1CCCc2ccccc21)C(C)(C)C

> <Shape>
0.248

> <Color>
0.066

> <Negative vol penalty>
0.000

$$$$

  -OEChem-04052320523D

 86 95  0     1  0  0  0  0  0999 V2000
  -30.2875  -28.6301   33.9531 C   0  0  0  0  0  0  0  0  0  0  0  0
  -29.8906  -27.9102   32.8308 C   0  0  0  0  0  0  0  0  0  0  0  0
  -23.0153   -9.8927   19.9608 C   0  0  0  0  0  0  0  0  0  0  0  0
  -23.6794   -9.9416   22.2833 C   0  0  0  0  0  0  0  0  0  0  0  0
  -30.0243  -29.9971   34.0320 C   0  0  0  0  0  0  0  0  0  0  0  0
  -29.2294  -28.5566   31.7871 C   0  0  0  0  0  0  0  0  0  0  0  0
  -31.0127  -27.2264   27.2379 C   0  0  0  0  0  0  0  0  0  0  0  0
  -22.2329   -8.7648   20.2083 C   0  0  0  0  0  0  0  0  0  0  0  0
  -22.8969   -8.8137   22.5307 C   0  0  0  0  0  0  0  0  0  0  0  0
  -30.6008  -25.9962   26.7273 C   0  0  0  0  0  0  0  0  0  0  0  0
  -23.1268   -5.4722   22.0702 C   0  0  0  0  0  0  0  0  0  0  0  0
  -23.6859   -4.4515   22.8391 C   0  0  0  0  0  0  0  0  0  0  0  0
  -28.9709  -27.1206   25.3495 C   0  0  0  0  0  0  0  0  0  0  0  0
  -28.8532  -21.0911   23.0843 C   0  0  0  0  0  0  0  0  0  0  0  0
  -28.7037  -21.3651   25.8565 C   0  0  0  0  0  0  0  0  0  0  0  0
  -21.9201   -4.7110   24.4675 C   0  0  0  0  0  0  0  0  0  0  0  0
  -23.7387  -10.4811   20.9983 C   0  0  0  0  0  0  0  0  0  0  0  0
  -24.1488  -12.9932   20.8291 C   0  0  0  0  0  0  0  0  0  0  0  0
  -29.3681  -30.6624   32.9845 C   0  0  0  0  0  0  0  0  0  0  0  0
  -30.3983  -28.4141   26.8154 C   0  0  0  0  0  0  0  0  0  0  0  0
  -28.9560  -29.9334   31.8526 C   0  0  0  0  0  0  0  0  0  0  0  0
  -29.3786  -28.3648   25.8543 C   0  0  0  0  0  0  0  0  0  0  0  0
  -29.3686  -22.2310   23.7012 C   0  0  0  0  0  0  0  0  0  0  0  0
  -28.1883  -20.2252   25.2396 C   0  0  0  0  0  0  0  0  0  0  0  0
  -28.2630  -20.0882   23.8534 C   0  0  0  0  0  0  0  0  0  0  0  0
  -29.2939  -22.3680   25.0873 C   0  0  0  0  0  0  0  0  0  0  0  0
  -22.1736   -8.2253   21.4932 C   0  0  0  0  0  0  0  0  0  0  0  0
  -29.5778  -25.9429   25.7852 C   0  0  0  0  0  0  0  0  0  0  0  0
  -21.9643   -6.1123   22.5000 C   0  0  0  0  0  0  0  0  0  0  0  0
  -23.0826   -4.0709   24.0378 C   0  0  0  0  0  0  0  0  0  0  0  0
  -21.3610   -5.7317   23.6986 C   0  0  0  0  0  0  0  0  0  0  0  0
  -24.5476  -11.6458   20.7432 C   0  0  0  0  0  0  0  0  0  0  0  0
  -25.2736  -13.7063   20.4933 C   0  0  0  0  0  0  0  0  0  0  0  0
  -22.8754  -13.5504   21.1809 C   0  0  0  0  0  0  0  0  0  0  0  0
  -28.7222  -30.7046   28.2466 C   0  0  0  0  0  0  0  0  0  0  0  0
  -28.9174  -32.1262   25.3374 C   0  0  0  0  0  0  0  0  0  0  0  0
  -29.3378  -31.7842   21.9680 C   0  0  0  0  0  0  0  0  0  0  0  0
  -30.6570  -14.6759   20.7156 C   0  0  0  0  0  0  0  0  0  0  0  0
  -29.0636  -32.1318   33.1357 C   0  0  0  0  0  0  0  0  0  0  0  0
  -30.8724  -29.7353   27.3560 C   0  0  0  0  0  0  0  0  0  0  0  0
  -28.7005  -29.6127   25.3528 C   0  0  0  0  0  0  0  0  0  0  0  0
  -28.6913  -32.8151   31.8224 C   0  0  0  0  0  0  0  0  0  0  0  0
  -29.6696  -12.2038   18.5093 C   0  0  0  0  0  0  0  0  0  0  0  0
  -27.6768  -31.9753   31.0527 C   0  0  0  0  0  0  0  0  0  0  0  0
  -28.2129  -11.9391   18.8893 C   0  0  0  0  0  0  0  0  0  0  0  0
  -29.7302  -18.0677   21.8832 C   0  0  0  0  0  0  0  0  0  0  0  0
  -28.1062  -16.3993   22.8466 C   0  0  0  0  0  0  0  0  0  0  0  0
  -30.5313  -12.3981   19.7518 C   0  0  0  0  0  0  0  0  0  0  0  0
  -30.7422  -16.9421   21.6881 C   0  0  0  0  0  0  0  0  0  0  0  0
  -29.1501  -15.3069   22.6387 C   0  0  0  0  0  0  0  0  0  0  0  0
  -28.5960  -13.2369   21.0428 C   0  0  0  0  0  0  0  0  0  0  0  0
  -28.2584  -30.6039   30.6890 C   0  0  1  0  0  0  0  0  0  0  0  0
  -29.8266  -30.8396   27.2367 C   0  0  1  0  0  0  0  0  0  0  0  0
  -28.7671  -17.7708   23.0399 C   0  0  0  0  0  0  0  0  0  0  0  0
  -27.6761  -13.0401   19.8211 C   0  0  2  0  0  0  0  0  0  0  0  0
  -29.9965  -23.2912   22.8573 C   0  0  0  0  0  0  0  0  0  0  0  0
  -27.5603  -19.1651   26.0835 C   0  0  0  0  0  0  0  0  0  0  0  0
  -29.4110  -33.1220   19.8461 C   0  0  0  0  0  0  0  0  0  0  0  0
  -25.8781  -32.3879   25.4004 C   0  0  0  0  0  0  0  0  0  0  0  0
  -25.9348  -32.8304   22.9368 C   0  0  0  0  0  0  0  0  0  0  0  0
  -27.0795  -34.3922   24.5094 C   0  0  0  0  0  0  0  0  0  0  0  0
  -32.1233  -30.9572   21.4059 C   0  0  0  0  0  0  0  0  0  0  0  0
  -27.7134  -18.8686   23.1659 C   0  0  0  0  0  0  0  0  0  0  0  0
  -29.8394  -23.5792   25.7699 C   0  0  0  0  0  0  0  0  0  1  0  0
  -28.0801  -32.1102   24.0814 C   0  0  1  0  0  0  0  0  0  0  0  0
  -30.2249  -32.5244   20.9833 C   0  0  2  0  0  0  0  0  0  0  0  0
  -26.7544  -32.9064   24.2427 C   0  0  0  0  0  0  0  0  0  0  0  0
  -25.8259  -11.5085   20.3811 N   0  0  0  0  0  0  0  0  0  0  0  0
  -26.2400  -12.7788   20.2364 N   0  0  0  0  0  0  0  0  0  0  0  0
  -29.1951  -30.8797   25.9162 N   0  0  0  0  0  0  0  0  0  0  0  0
  -29.9861  -13.4480   20.6122 N   0  0  0  0  0  0  0  0  0  0  0  0
  -30.0807  -15.6450   21.5535 N   0  0  0  0  0  0  0  0  0  0  0  0
  -25.5204  -15.0299   20.3956 N   0  0  0  0  0  0  0  0  0  0  0  0
  -21.8278  -12.6751   21.4981 N   0  0  0  0  0  0  0  0  0  0  0  0
  -29.1550  -30.7187   29.5588 N   0  0  0  0  0  0  0  0  0  0  0  0
  -28.9425  -32.5965   23.0097 N   0  0  0  0  0  0  0  0  0  0  0  0
  -31.2372  -31.5987   20.4008 N   0  3  0  0  0  0  0  0  0  0  0  0
  -22.6681  -14.7874   21.1972 O   0  0  0  0  0  0  0  0  0  0  0  0
  -27.5631  -30.5972   27.8636 O   0  0  0  0  0  0  0  0  0  0  0  0
  -29.3165  -33.2044   25.7845 O   0  0  0  0  0  0  0  0  0  0  0  0
  -29.0237  -30.6046   21.8252 O   0  0  0  0  0  0  0  0  0  0  0  0
  -31.7044  -14.8973   20.0951 O   0  0  0  0  0  0  0  0  0  0  0  0
  -21.4100   -7.1249   21.7351 O   0  0  0  0  0  0  0  0  0  0  0  0
  -29.1705  -24.7349   25.2821 O   0  0  0  0  0  0  0  0  0  1  0  0
  -23.6187   -3.0897   24.7753 F   0  0  0  0  0  0  0  0  0  0  0  0
  -20.2435   -6.3422   24.1161 F   0  0  0  0  0  0  0  0  0  0  0  0
  1  2  1  0  0  0  0
  1  5  2  0  0  0  0
  2  6  2  0  0  0  0
  3  8  2  0  0  0  0
  3 17  1  0  0  0  0
  4  9  1  0  0  0  0
  4 17  2  0  0  0  0
  5 19  1  0  0  0  0
  6 21  1  0  0  0  0
  7 10  2  0  0  0  0
  7 20  1  0  0  0  0
  8 27  1  0  0  0  0
  9 27  2  0  0  0  0
 10 28  1  0  0  0  0
 11 12  2  0  0  0  0
 11 29  1  0  0  0  0
 12 30  1  0  0  0  0
 13 22  1  0  0  0  0
 13 28  2  0  0  0  0
 14 23  1  0  0  0  0
 14 25  2  0  0  0  0
 15 24  2  0  0  0  0
 15 26  1  0  0  0  0
 16 30  2  0  0  0  0
 16 31  1  0  0  0  0
 17 32  1  0  0  0  0
 18 32  1  0  0  0  0
 18 33  2  0  0  0  0
 18 34  1  0  0  0  0
 19 21  2  0  0  0  0
 19 39  1  0  0  0  0
 20 22  2  0  0  0  0
 20 40  1  0  0  0  0
 21 52  1  0  0  0  0
 22 41  1  0  0  0  0
 23 26  2  0  0  0  0
 23 56  1  0  0  0  0
 24 25  1  0  0  0  0
 24 57  1  0  0  0  0
 25 63  1  0  0  0  0
 26 64  1  0  0  0  0
 27 83  1  0  0  0  0
 28 84  1  0  0  0  0
 29 31  2  0  0  0  0
 29 83  1  0  0  0  0
 30 85  1  0  0  0  0
 31 86  1  0  0  0  0
 32 68  2  0  0  0  0
 33 69  1  0  0  0  0
 33 73  1  0  0  0  0
 34 74  1  0  0  0  0
 34 78  2  0  0  0  0
 35 53  1  0  0  0  0
 35 75  1  0  0  0  0
 35 79  2  0  0  0  0
 36 65  1  0  0  0  0
 36 70  1  0  0  0  0
 36 80  2  0  0  0  0
 37 66  1  0  0  0  0
 37 76  1  0  0  0  0
 37 81  2  0  0  0  0
 38 71  1  0  0  0  0
 38 72  1  0  0  0  0
 38 82  2  0  0  0  0
 39 42  1  0  0  0  0
 40 53  1  0  0  0  0
 41 70  1  0  0  0  0
 42 44  1  0  0  0  0
 43 45  1  0  0  0  0
 43 48  1  0  0  0  0
 44 52  1  0  0  0  0
 45 55  1  0  0  0  0
 46 49  1  0  0  0  0
 46 54  1  0  0  0  0
 47 50  1  0  0  0  0
 47 54  1  0  0  0  0
 48 71  1  0  0  0  0
 49 72  1  0  0  0  0
 50 72  1  0  0  0  0
 51 55  1  0  0  0  0
 51 71  1  0  0  0  0
 52 75  1  0  0  0  0
 53 70  1  0  0  0  0
 54 63  1  0  0  0  0
 55 69  1  0  0  0  0
 58 66  1  0  0  0  0
 59 67  1  0  0  0  0
 60 67  1  0  0  0  0
 61 67  1  0  0  0  0
 62 77  1  0  0  0  0
 64 84  1  0  0  0  0
 65 67  1  0  0  0  0
 65 76  1  0  0  0  0
 66 77  1  0  0  0  0
 68 69  1  0  0  0  0
M  CHG  1  77   1
M  ISO  4  38 100  64 101  72 100  84 101
M  END
> <Batch ID>
0132

> <Smiles>
CNC(C)C(=O)NC(C(=O)N1Cc2cc([101O:1][101CH2:1]c3cc(C)c(CC4CC[100N:0]([100C:0](=O)N5CCCC(n6nc(-c7ccc(Oc8ccc(F)cc8F)cc7)c(C(N)=O)c6N)C5)CC4)cc3C)ccc2CC1C(=O)NC1CCCc2ccccc21)C(C)(C)C

> <Shape>
0.224

> <Color>
0.207

> <Negative vol penalty>
0.000

$$$$

  -OEChem-04052320523D

 83 91  0     1  0  0  0  0  0999 V2000
  -26.3879  -23.3460   14.6044 C   0  0  0  0  0  0  0  0  0  0  0  0
  -25.5676  -23.7908   15.6362 C   0  0  0  0  0  0  0  0  0  0  0  0
  -24.8492  -14.2410   21.7004 C   0  0  0  0  0  0  0  0  0  0  0  0
  -25.3762  -14.4928   19.3560 C   0  0  0  0  0  0  0  0  0  0  0  0
  -27.7732  -23.3597   14.7615 C   0  0  0  0  0  0  0  0  0  0  0  0
  -26.1321  -24.2484   16.8263 C   0  0  0  0  0  0  0  0  0  0  0  0
  -23.9934  -28.5348   18.4688 C   0  0  0  0  0  0  0  0  0  0  0  0
  -24.9759  -12.8572   21.5803 C   0  0  0  0  0  0  0  0  0  0  0  0
  -25.5030  -13.1089   19.2359 C   0  0  0  0  0  0  0  0  0  0  0  0
  -22.7576  -28.4267   19.1050 C   0  0  0  0  0  0  0  0  0  0  0  0
  -23.1218  -10.2775   20.4262 C   0  0  0  0  0  0  0  0  0  0  0  0
  -22.1406   -9.4836   21.0199 C   0  0  0  0  0  0  0  0  0  0  0  0
  -23.8535  -28.5877   21.2479 C   0  0  0  0  0  0  0  0  0  0  0  0
  -23.8234   -8.4376   22.4024 C   0  0  0  0  0  0  0  0  0  0  0  0
  -25.0493  -15.0589   20.5882 C   0  0  0  0  0  0  0  0  0  0  0  0
  -23.7738  -17.2059   21.1090 C   0  0  0  0  0  0  0  0  0  0  0  0
  -28.3553  -23.8268   15.9505 C   0  0  0  0  0  0  0  0  0  0  0  0
  -25.1716  -28.6595   19.2188 C   0  0  0  0  0  0  0  0  0  0  0  0
  -27.5264  -24.2671   17.0000 C   0  0  0  0  0  0  0  0  0  0  0  0
  -25.1028  -28.6998   20.6188 C   0  0  0  0  0  0  0  0  0  0  0  0
  -25.3028  -12.2911   20.3481 C   0  0  0  0  0  0  0  0  0  0  0  0
  -22.6878  -28.4501   20.4949 C   0  0  0  0  0  0  0  0  0  0  0  0
  -24.4539  -10.1514   20.8204 C   0  0  0  0  0  0  0  0  0  0  0  0
  -22.4914   -8.5637   22.0080 C   0  0  0  0  0  0  0  0  0  0  0  0
  -24.8047   -9.2315   21.8086 C   0  0  0  0  0  0  0  0  0  0  0  0
  -24.9179  -16.4885   20.7116 C   0  0  0  0  0  0  0  0  0  0  0  0
  -24.1615  -18.5227   21.0644 C   0  0  0  0  0  0  0  0  0  0  0  0
  -22.4764  -16.7249   21.4850 C   0  0  0  0  0  0  0  0  0  0  0  0
  -27.8104  -26.9198   19.5565 C   0  0  0  0  0  0  0  0  0  0  0  0
  -28.7837  -29.4509   21.3365 C   0  0  0  0  0  0  0  0  0  0  0  0
  -27.3315  -31.6530   23.7981 C   0  0  0  0  0  0  0  0  0  0  0  0
  -27.8872  -22.5379   22.1338 C   0  0  0  0  0  0  0  0  0  0  0  0
  -29.8561  -23.7782   16.0919 C   0  0  0  0  0  0  0  0  0  0  0  0
  -26.4942  -28.8020   18.5168 C   0  0  0  0  0  0  0  0  0  0  0  0
  -26.3364  -28.8523   21.4693 C   0  0  0  0  0  0  0  0  0  0  0  0
  -30.3874  -24.6294   17.2423 C   0  0  0  0  0  0  0  0  0  0  0  0
  -28.3160  -20.6679   19.1344 C   0  0  0  0  0  0  0  0  0  0  0  0
  -20.9068  -22.7303   20.7444 C   0  0  0  0  0  0  0  0  0  0  0  0
  -29.5667  -24.3912   18.5059 C   0  0  0  0  0  0  0  0  0  0  0  0
  -27.3809  -19.4705   19.3130 C   0  0  0  0  0  0  0  0  0  0  0  0
  -22.2404  -22.9360   21.4547 C   0  0  0  0  0  0  0  0  0  0  0  0
  -28.9698  -21.0751   20.4531 C   0  0  0  0  0  0  0  0  0  0  0  0
  -20.0236  -23.8715   21.2198 C   0  0  0  0  0  0  0  0  0  0  0  0
  -27.0927  -20.1276   21.7387 C   0  0  0  0  0  0  0  0  0  0  0  0
  -28.1020  -24.7941   18.2966 C   0  0  1  0  0  0  0  0  0  0  0  0
  -27.6804  -28.4076   19.3913 C   0  0  1  0  0  0  0  0  0  0  0  0
  -26.3669  -19.7152   20.4467 C   0  0  2  0  0  0  0  0  0  0  0  0
  -22.0632  -24.2071   22.2885 C   0  0  1  0  0  0  0  0  0  0  0  0
  -27.9062  -34.0169   24.4137 C   0  0  0  0  0  0  0  0  0  0  0  0
  -30.5294  -28.1615   23.4812 C   0  0  0  0  0  0  0  0  0  0  0  0
  -29.8530  -30.0010   25.0390 C   0  0  0  0  0  0  0  0  0  0  0  0
  -31.1101  -30.5358   22.9518 C   0  0  0  0  0  0  0  0  0  0  0  0
  -24.5574  -32.5719   23.3305 C   0  0  0  0  0  0  0  0  0  0  0  0
  -23.3557  -25.0083   22.3792 C   0  0  0  0  0  0  0  0  0  0  0  0
  -19.5728  -26.9103   21.4780 C   0  0  0  0  0  0  0  0  0  0  0  0
  -20.3654  -25.9653   22.3754 C   0  0  0  0  0  0  0  0  0  0  0  0
  -26.6930  -23.8847   23.8423 C   0  0  0  0  0  0  0  0  0  0  0  0
  -25.7228  -24.8278   23.1558 C   0  0  0  0  0  0  0  0  0  0  0  0
  -20.4708  -27.5904   20.4521 C   0  0  0  0  0  0  0  0  0  1  0  0
  -28.6864  -29.8338   22.7935 C   0  0  1  0  0  0  0  0  0  0  0  0
  -26.9785  -33.1176   23.6116 C   0  0  2  0  0  0  0  0  0  0  0  0
  -30.0251  -29.6166   23.5540 C   0  0  0  0  0  0  0  0  0  0  0  0
  -25.9548  -17.2836   20.4347 N   0  0  0  0  0  0  0  0  0  0  0  0
  -25.4636  -18.5144   20.6585 N   0  0  0  0  0  0  0  0  0  0  0  0
  -27.6066  -28.9817   20.7364 N   0  0  0  0  0  0  0  0  0  0  0  0
  -27.9538  -21.2935   21.4855 N   0  0  0  0  0  0  0  0  0  0  0  0
  -20.9877  -24.9142   21.5793 N   0  0  2  0  0  0  0  0  0  0  0  0
  -23.5123  -19.6754   21.3332 N   0  0  0  0  0  0  0  0  0  0  0  0
  -21.5064  -16.5686   20.4855 N   0  0  0  0  0  0  0  0  0  0  0  0
  -27.9585  -26.2325   18.3669 N   0  0  0  0  0  0  0  0  0  0  0  0
  -28.1988  -31.2085   22.8227 N   0  0  0  0  0  0  0  0  0  0  0  0
  -26.8912  -22.6631   23.0945 N   0  0  0  0  0  0  0  0  0  0  0  0
  -25.5783  -33.3732   24.0534 N   0  3  0  0  0  0  0  0  0  0  0  0
  -24.3827  -24.1836   23.0501 N   0  3  0  0  0  0  0  0  0  0  0  0
  -22.1810  -16.4578   22.6744 O   0  0  0  0  0  0  0  0  0  0  0  0
  -27.7801  -26.4317   20.6801 O   0  0  0  0  0  0  0  0  0  0  0  0
  -29.8625  -29.5707   20.7505 O   0  0  0  0  0  0  0  0  0  0  0  0
  -26.8856  -30.9723   24.7192 O   0  0  0  0  0  0  0  0  0  0  0  0
  -28.6548  -23.4701   21.8717 O   0  0  0  0  0  0  0  0  0  0  0  0
  -25.4268  -10.9408   20.2305 O   0  0  0  0  0  0  0  0  0  0  0  0
  -21.4829  -28.3441   21.1184 O   0  0  0  0  0  0  0  0  0  1  0  0
  -21.5488   -7.8025   22.5792 F   0  0  0  0  0  0  0  0  0  0  0  0
  -26.0825   -9.1067   22.1923 F   0  0  0  0  0  0  0  0  0  0  0  0
  1  2  1  0  0  0  0
  1  5  2  0  0  0  0
  2  6  2  0  0  0  0
  3  8  2  0  0  0  0
  3 15  1  0  0  0  0
  4  9  1  0  0  0  0
  4 15  2  0  0  0  0
  5 17  1  0  0  0  0
  6 19  1  0  0  0  0
  7 10  2  0  0  0  0
  7 18  1  0  0  0  0
  8 21  1  0  0  0  0
  9 21  2  0  0  0  0
 10 22  1  0  0  0  0
 11 12  2  0  0  0  0
 11 23  1  0  0  0  0
 12 24  1  0  0  0  0
 13 20  1  0  0  0  0
 13 22  2  0  0  0  0
 14 24  2  0  0  0  0
 14 25  1  0  0  0  0
 15 26  1  0  0  0  0
 16 26  1  0  0  0  0
 16 27  2  0  0  0  0
 16 28  1  0  0  0  0
 17 19  2  0  0  0  0
 17 33  1  0  0  0  0
 18 20  2  0  0  0  0
 18 34  1  0  0  0  0
 19 45  1  0  0  0  0
 20 35  1  0  0  0  0
 21 80  1  0  0  0  0
 22 81  1  0  0  0  0
 23 25  2  0  0  0  0
 23 80  1  0  0  0  0
 24 82  1  0  0  0  0
 25 83  1  0  0  0  0
 26 63  2  0  0  0  0
 27 64  1  0  0  0  0
 27 68  1  0  0  0  0
 28 69  1  0  0  0  0
 28 75  2  0  0  0  0
 29 46  1  0  0  0  0
 29 70  1  0  0  0  0
 29 76  2  0  0  0  0
 30 60  1  0  0  0  0
 30 65  1  0  0  0  0
 30 77  2  0  0  0  0
 31 61  1  0  0  0  0
 31 71  1  0  0  0  0
 31 78  2  0  0  0  0
 32 66  1  0  0  0  0
 32 72  1  0  0  0  0
 32 79  2  0  0  0  0
 33 36  1  0  0  0  0
 34 46  1  0  0  0  0
 35 65  1  0  0  0  0
 36 39  1  0  0  0  0
 37 40  1  0  0  0  0
 37 42  1  0  0  0  0
 38 41  1  0  0  0  0
 38 43  1  0  0  0  0
 39 45  1  0  0  0  0
 40 47  1  0  0  0  0
 41 48  1  0  0  0  0
 42 66  1  0  0  0  0
 43 67  1  0  0  0  0
 44 47  1  0  0  0  0
 44 66  1  0  0  0  0
 45 70  1  0  0  0  0
 46 65  1  0  0  0  0
 47 64  1  0  0  0  0
 48 54  1  0  0  0  0
 48 67  1  0  0  0  0
 49 61  1  0  0  0  0
 50 62  1  0  0  0  0
 51 62  1  0  0  0  0
 52 62  1  0  0  0  0
 53 73  1  0  0  0  0
 54 74  1  0  0  0  0
 55 56  1  0  0  0  0
 55 59  1  0  0  0  0
 56 67  1  0  0  0  0
 57 58  1  0  0  0  0
 57 72  1  0  0  0  0
 58 74  1  0  0  0  0
 59 81  1  0  0  0  0
 60 62  1  0  0  0  0
 60 71  1  0  0  0  0
 61 73  1  0  0  0  0
 63 64  1  0  0  0  0
M  CHG  2  73   1  74   1
M  ISO  4  32 100  59 101  72 100  81 101
M  END
> <Batch ID>
0132

> <Smiles>
CNC(C)C(=O)NC(C(=O)N1Cc2cc([101O:1][101CH2:1]CCN3CCCC3CNCC[100NH:0][100C:0](=O)N3CCCC(n4nc(-c5ccc(Oc6ccc(F)cc6F)cc5)c(C(N)=O)c4N)C3)ccc2CC1C(=O)NC1CCCc2ccccc21)C(C)(C)C

> <Shape>
0.238

> <Color>
0.064

> <Negative vol penalty>
0.000

$$$$

  -OEChem-04052320523D

 82 90  0     1  0  0  0  0  0999 V2000
  -19.6469  -14.6484   17.1169 C   0  0  0  0  0  0  0  0  0  0  0  0
  -20.4821  -15.7500   17.2727 C   0  0  0  0  0  0  0  0  0  0  0  0
  -20.2366  -26.7166   23.2675 C   0  0  0  0  0  0  0  0  0  0  0  0
  -20.4919  -28.5543   21.7201 C   0  0  0  0  0  0  0  0  0  0  0  0
  -19.8885  -13.4835   17.8439 C   0  0  0  0  0  0  0  0  0  0  0  0
  -21.5587  -15.6878   18.1566 C   0  0  0  0  0  0  0  0  0  0  0  0
  -27.0236  -18.3722   17.4968 C   0  0  0  0  0  0  0  0  0  0  0  0
  -29.3771  -24.5708   21.5096 C   0  0  0  0  0  0  0  0  0  0  0  0
  -31.0315  -24.6479   19.7506 C   0  0  0  0  0  0  0  0  0  0  0  0
  -28.7415  -23.5094   20.8654 C   0  0  0  0  0  0  0  0  0  0  0  0
  -30.3959  -23.5865   19.1063 C   0  0  0  0  0  0  0  0  0  0  0  0
  -18.8512  -26.8729   23.2246 C   0  0  0  0  0  0  0  0  0  0  0  0
  -19.1064  -28.7106   21.6771 C   0  0  0  0  0  0  0  0  0  0  0  0
  -27.5575  -19.5520   18.0132 C   0  0  0  0  0  0  0  0  0  0  0  0
  -16.6932  -30.0829   23.6068 C   0  0  0  0  0  0  0  0  0  0  0  0
  -16.1840  -31.3782   23.6994 C   0  0  0  0  0  0  0  0  0  0  0  0
  -28.5922  -18.2969   19.7946 C   0  0  0  0  0  0  0  0  0  0  0  0
  -15.1455  -31.1248   21.5327 C   0  0  0  0  0  0  0  0  0  0  0  0
  -21.0569  -27.5573   22.5153 C   0  0  0  0  0  0  0  0  0  0  0  0
  -23.2787  -26.5843   21.7249 C   0  0  0  0  0  0  0  0  0  0  0  0
  -20.9743  -13.4037   18.7300 C   0  0  0  0  0  0  0  0  0  0  0  0
  -27.2613  -17.1452   18.1326 C   0  0  0  0  0  0  0  0  0  0  0  0
  -21.8143  -14.5212   18.8972 C   0  0  0  0  0  0  0  0  0  0  0  0
  -28.0622  -17.1026   19.2828 C   0  0  0  0  0  0  0  0  0  0  0  0
  -30.5221  -25.1401   20.9522 C   0  0  0  0  0  0  0  0  0  0  0  0
  -29.2509  -23.0172   19.6637 C   0  0  0  0  0  0  0  0  0  0  0  0
  -18.2861  -27.8699   22.4294 C   0  0  0  0  0  0  0  0  0  0  0  0
  -28.3396  -19.5149   19.1639 C   0  0  0  0  0  0  0  0  0  0  0  0
  -16.4287  -29.3086   22.4772 C   0  0  0  0  0  0  0  0  0  0  0  0
  -15.4101  -31.8991   22.6623 C   0  0  0  0  0  0  0  0  0  0  0  0
  -15.6548  -29.8295   21.4401 C   0  0  0  0  0  0  0  0  0  0  0  0
  -22.4881  -27.3967   22.5596 C   0  0  0  0  0  0  0  0  0  0  0  0
  -24.5630  -26.7817   22.1700 C   0  0  0  0  0  0  0  0  0  0  0  0
  -22.8871  -25.7277   20.6438 C   0  0  0  0  0  0  0  0  0  0  0  0
  -25.4323  -14.9446   19.5168 C   0  0  0  0  0  0  0  0  0  0  0  0
  -28.2247  -13.3052   19.7086 C   0  0  0  0  0  0  0  0  0  0  0  0
  -31.6353  -13.3919   19.7944 C   0  0  0  0  0  0  0  0  0  0  0  0
  -28.6506  -30.1693   23.8908 C   0  0  0  0  0  0  0  0  0  0  0  0
  -21.1675  -12.1394   19.5294 C   0  0  0  0  0  0  0  0  0  0  0  0
  -26.7002  -15.8781   17.5478 C   0  0  0  0  0  0  0  0  0  0  0  0
  -28.3640  -15.8083   19.9915 C   0  0  0  0  0  0  0  0  0  0  0  0
  -22.5504  -12.0265   20.1659 C   0  0  0  0  0  0  0  0  0  0  0  0
  -26.2885  -29.0906   26.3267 C   0  0  0  0  0  0  0  0  0  0  0  0
  -22.9346  -13.3378   20.8441 C   0  0  0  0  0  0  0  0  0  0  0  0
  -25.1523  -28.4928   25.4949 C   0  0  0  0  0  0  0  0  0  0  0  0
  -26.9066  -30.3090   25.6445 C   0  0  0  0  0  0  0  0  0  0  0  0
  -26.2194  -29.4835   23.4264 C   0  0  0  0  0  0  0  0  0  0  0  0
  -23.0070  -14.4839   19.8279 C   0  0  1  0  0  0  0  0  0  0  0  0
  -26.5813  -14.7504   18.5683 C   0  0  1  0  0  0  0  0  0  0  0  0
  -25.6016  -28.2188   24.0470 C   0  0  2  0  0  0  0  0  0  0  0  0
  -33.6395  -11.8951   19.9943 C   0  0  0  0  0  0  0  0  0  0  0  0
  -27.6942  -12.9979   22.6976 C   0  0  0  0  0  0  0  0  0  0  0  0
  -30.0994  -12.3667   22.9888 C   0  0  0  0  0  0  0  0  0  0  0  0
  -28.6016  -10.9511   21.5833 C   0  0  0  0  0  0  0  0  0  0  0  0
  -32.6624  -14.2198   17.1452 C   0  0  0  0  0  0  0  0  0  0  0  0
  -31.2023  -26.2749   21.6404 C   0  0  0  0  0  0  0  0  0  0  0  0
  -28.5676  -21.8743   18.9722 C   0  0  0  0  0  0  0  0  0  1  0  0
  -30.2866  -29.9595   22.0364 C   0  0  0  0  0  0  0  0  0  0  0  0
  -31.1112  -28.7005   22.2291 C   0  0  0  0  0  0  0  0  0  0  0  0
  -29.3410  -13.2096   20.7204 C   0  0  1  0  0  0  0  0  0  0  0  0
  -32.6825  -12.5927   19.0402 C   0  0  2  0  0  0  0  0  0  0  0  0
  -28.9269  -12.4061   21.9855 C   0  0  0  0  0  0  0  0  0  0  0  0
  -23.2098  -28.0607   23.4664 N   0  0  0  0  0  0  0  0  0  0  0  0
  -24.4673  -27.6657   23.2042 N   0  0  0  0  0  0  0  0  0  0  0  0
  -27.7874  -14.5973   19.3845 N   0  0  0  0  0  0  0  0  0  0  0  0
  -27.3127  -29.9818   24.2756 N   0  0  0  0  0  0  0  0  0  0  0  0
  -25.7534  -26.2836   21.7737 N   0  0  0  0  0  0  0  0  0  0  0  0
  -21.5265  -25.6419   20.3185 N   0  0  0  0  0  0  0  0  0  0  0  0
  -24.2382  -14.4110   19.0707 N   0  0  0  0  0  0  0  0  0  0  0  0
  -30.4892  -12.6564   20.0105 N   0  0  0  0  0  0  0  0  0  0  0  0
  -28.9523  -29.8285   22.5779 N   0  0  0  0  0  0  0  0  0  0  0  0
  -33.4752  -13.4874   18.1502 N   0  3  0  0  0  0  0  0  0  0  0  0
  -30.4788  -27.5690   21.5023 N   0  3  0  0  0  0  0  0  0  0  0  0
  -23.7173  -25.0458   19.9964 O   0  0  0  0  0  0  0  0  0  0  0  0
  -25.6157  -15.5337   20.5756 O   0  0  0  0  0  0  0  0  0  0  0  0
  -27.7627  -12.2718   19.2184 O   0  0  0  0  0  0  0  0  0  0  0  0
  -31.8172  -14.5514   20.1590 O   0  0  0  0  0  0  0  0  0  0  0  0
  -29.5134  -30.6029   24.6617 O   0  0  0  0  0  0  0  0  0  0  0  0
  -16.9343  -28.0225   22.3871 O   0  0  0  0  0  0  0  0  0  0  0  0
  -28.8615  -20.6650   19.6705 O   0  0  0  0  0  0  0  0  0  1  0  0
  -14.9199  -33.1424   22.7520 F   0  0  0  0  0  0  0  0  0  0  0  0
  -15.3963  -29.0899   20.3529 F   0  0  0  0  0  0  0  0  0  0  0  0
  1  2  1  0  0  0  0
  1  5  2  0  0  0  0
  2  6  2  0  0  0  0
  3 12  2  0  0  0  0
  3 19  1  0  0  0  0
  4 13  1  0  0  0  0
  4 19  2  0  0  0  0
  5 21  1  0  0  0  0
  6 23  1  0  0  0  0
  7 14  2  0  0  0  0
  7 22  1  0  0  0  0
  8 10  2  0  0  0  0
  8 25  1  0  0  0  0
  9 11  1  0  0  0  0
  9 25  2  0  0  0  0
 10 26  1  0  0  0  0
 11 26  2  0  0  0  0
 12 27  1  0  0  0  0
 13 27  2  0  0  0  0
 14 28  1  0  0  0  0
 15 16  2  0  0  0  0
 15 29  1  0  0  0  0
 16 30  1  0  0  0  0
 17 24  1  0  0  0  0
 17 28  2  0  0  0  0
 18 30  2  0  0  0  0
 18 31  1  0  0  0  0
 19 32  1  0  0  0  0
 20 32  1  0  0  0  0
 20 33  2  0  0  0  0
 20 34  1  0  0  0  0
 21 23  2  0  0  0  0
 21 39  1  0  0  0  0
 22 24  2  0  0  0  0
 22 40  1  0  0  0  0
 23 48  1  0  0  0  0
 24 41  1  0  0  0  0
 25 56  1  0  0  0  0
 26 57  1  0  0  0  0
 27 79  1  0  0  0  0
 28 80  1  0  0  0  0
 29 31  2  0  0  0  0
 29 79  1  0  0  0  0
 30 81  1  0  0  0  0
 31 82  1  0  0  0  0
 32 63  2  0  0  0  0
 33 64  1  0  0  0  0
 33 67  1  0  0  0  0
 34 68  1  0  0  0  0
 34 74  2  0  0  0  0
 35 49  1  0  0  0  0
 35 69  1  0  0  0  0
 35 75  2  0  0  0  0
 36 60  1  0  0  0  0
 36 65  1  0  0  0  0
 36 76  2  0  0  0  0
 37 61  1  0  0  0  0
 37 70  1  0  0  0  0
 37 77  2  0  0  0  0
 38 66  1  0  0  0  0
 38 71  1  0  0  0  0
 38 78  2  0  0  0  0
 39 42  1  0  0  0  0
 40 49  1  0  0  0  0
 41 65  1  0  0  0  0
 42 44  1  0  0  0  0
 43 45  1  0  0  0  0
 43 46  1  0  0  0  0
 44 48  1  0  0  0  0
 45 50  1  0  0  0  0
 46 66  1  0  0  0  0
 47 50  1  0  0  0  0
 47 66  1  0  0  0  0
 48 69  1  0  0  0  0
 49 65  1  0  0  0  0
 50 64  1  0  0  0  0
 51 61  1  0  0  0  0
 52 62  1  0  0  0  0
 53 62  1  0  0  0  0
 54 62  1  0  0  0  0
 55 72  1  0  0  0  0
 56 73  1  0  0  0  0
 57 80  1  0  0  0  0
 58 59  1  0  0  0  0
 58 71  1  0  0  0  0
 59 73  1  0  0  0  0
 60 62  1  0  0  0  0
 60 70  1  0  0  0  0
 61 72  1  0  0  0  0
 63 64  1  0  0  0  0
M  CHG  2  72   1  73   1
M  ISO  4  38 100  57 101  71 100  80 101
M  END
> <Batch ID>
0132

> <Smiles>
CNC(C)C(=O)NC(C(=O)N1Cc2cc([101O:1][101CH2:1]c3ccc(CNCC[100NH:0][100C:0](=O)N4CCCC(n5nc(-c6ccc(Oc7ccc(F)cc7F)cc6)c(C(N)=O)c5N)C4)cc3)ccc2CC1C(=O)NC1CCCc2ccccc21)C(C)(C)C

> <Shape>
0.238

> <Color>
0.075

> <Negative vol penalty>
0.000

$$$$

  -OEChem-04052320523D

 85 93  0     1  0  0  0  0  0999 V2000
  -16.5854  -28.7424   23.3776 C   0  0  0  0  0  0  0  0  0  0  0  0
  -17.5013  -28.2485   22.4542 C   0  0  0  0  0  0  0  0  0  0  0  0
  -24.4916  -14.1897   22.4130 C   0  0  0  0  0  0  0  0  0  0  0  0
  -26.8782  -13.9162   22.6714 C   0  0  0  0  0  0  0  0  0  0  0  0
  -16.9567  -29.7684   24.2456 C   0  0  0  0  0  0  0  0  0  0  0  0
  -18.7888  -28.7810   22.3977 C   0  0  0  0  0  0  0  0  0  0  0  0
  -23.9641  -25.7717   21.1067 C   0  0  0  0  0  0  0  0  0  0  0  0
  -24.4489  -13.0537   21.6047 C   0  0  0  0  0  0  0  0  0  0  0  0
  -26.8355  -12.7802   21.8631 C   0  0  0  0  0  0  0  0  0  0  0  0
  -24.7087  -25.6461   19.9347 C   0  0  0  0  0  0  0  0  0  0  0  0
  -23.6559  -10.0186   19.7679 C   0  0  0  0  0  0  0  0  0  0  0  0
  -22.6392   -9.0931   20.0032 C   0  0  0  0  0  0  0  0  0  0  0  0
  -26.1478  -27.4396   20.6639 C   0  0  0  0  0  0  0  0  0  0  0  0
  -29.0452  -22.4417   18.9012 C   0  0  0  0  0  0  0  0  0  0  0  0
  -23.4531   -8.7717   22.2552 C   0  0  0  0  0  0  0  0  0  0  0  0
  -25.7063  -14.6210   22.9463 C   0  0  0  0  0  0  0  0  0  0  0  0
  -25.6061  -15.8489   25.1801 C   0  0  0  0  0  0  0  0  0  0  0  0
  -18.2524  -30.3071   24.2062 C   0  0  0  0  0  0  0  0  0  0  0  0
  -24.2997  -26.7412   22.0627 C   0  0  0  0  0  0  0  0  0  0  0  0
  -19.1774  -29.8161   23.2652 C   0  0  0  0  0  0  0  0  0  0  0  0
  -25.4074  -27.5738   21.8483 C   0  0  0  0  0  0  0  0  0  0  0  0
  -29.7835  -21.7316   19.8415 C   0  0  0  0  0  0  0  0  0  0  0  0
  -30.7267  -22.3929   20.6202 C   0  0  0  0  0  0  0  0  0  0  0  0
  -25.6208  -12.3490   21.3298 C   0  0  0  0  0  0  0  0  0  0  0  0
  -25.7989  -26.4820   19.7118 C   0  0  0  0  0  0  0  0  0  0  0  0
  -24.5712  -10.3207   20.7762 C   0  0  0  0  0  0  0  0  0  0  0  0
  -22.5378   -8.4696   21.2469 C   0  0  0  0  0  0  0  0  0  0  0  0
  -24.4698   -9.6972   22.0199 C   0  0  0  0  0  0  0  0  0  0  0  0
  -25.7511  -15.7947   23.7809 C   0  0  0  0  0  0  0  0  0  0  0  0
  -30.8923  -23.7541   20.4216 C   0  0  0  0  0  0  0  0  0  0  0  0
  -29.2860  -23.8008   18.7797 C   0  0  0  0  0  0  0  0  0  0  0  0
  -25.7266  -17.1824   25.4864 C   0  0  0  0  0  0  0  0  0  0  0  0
  -25.3825  -14.7886   26.1191 C   0  0  0  0  0  0  0  0  0  0  0  0
  -22.8326  -29.2762   23.2975 C   0  0  0  0  0  0  0  0  0  0  0  0
  -25.4330  -29.3506   25.2351 C   0  0  0  0  0  0  0  0  0  0  0  0
  -28.7060  -28.5173   25.7247 C   0  0  0  0  0  0  0  0  0  0  0  0
  -28.4225  -21.7693   22.7400 C   0  0  0  0  0  0  0  0  0  0  0  0
  -18.5928  -31.4475   25.1327 C   0  0  0  0  0  0  0  0  0  0  0  0
  -23.5027  -26.8461   23.3340 C   0  0  0  0  0  0  0  0  0  0  0  0
  -25.8215  -28.6170   22.8527 C   0  0  0  0  0  0  0  0  0  0  0  0
  -20.0927  -31.7006   25.2615 C   0  0  0  0  0  0  0  0  0  0  0  0
  -24.9847  -21.5314   23.6353 C   0  0  0  0  0  0  0  0  0  0  0  0
  -20.7530  -31.7074   23.8864 C   0  0  0  0  0  0  0  0  0  0  0  0
  -24.7782  -20.0390   23.9004 C   0  0  0  0  0  0  0  0  0  0  0  0
  -25.9586  -21.7705   22.4837 C   0  0  0  0  0  0  0  0  0  0  0  0
  -27.0546  -19.6006   22.8883 C   0  0  0  0  0  0  0  0  0  0  0  0
  -20.5910  -30.3508   23.1900 C   0  0  1  0  0  0  0  0  0  0  0  0
  -23.6232  -28.2114   24.0038 C   0  0  1  0  0  0  0  0  0  0  0  0
  -26.1235  -19.3096   24.0777 C   0  0  2  0  0  0  0  0  0  0  0  0
  -29.5470  -20.2656   19.9958 C   0  0  0  0  0  0  0  0  0  0  0  0
  -31.8912  -24.5174   21.2284 C   0  0  0  0  0  0  0  0  0  0  0  0
  -30.5696  -28.7474   27.3896 C   0  0  0  0  0  0  0  0  0  0  0  0
  -31.7475  -20.8385   24.0238 C   0  0  0  0  0  0  0  0  0  0  0  0
  -25.8161  -32.2604   24.4006 C   0  0  0  0  0  0  0  0  0  0  0  0
  -28.1473  -32.1403   25.3056 C   0  0  0  0  0  0  0  0  0  0  0  0
  -26.2007  -31.8129   26.8308 C   0  0  0  0  0  0  0  0  0  0  0  0
  -28.9335  -25.5845   26.0497 C   0  0  0  0  0  0  0  0  0  0  0  0
  -31.5356  -21.6553   21.6337 C   0  0  0  0  0  0  0  0  0  0  0  0
  -28.6825  -25.9135   17.5974 C   0  0  0  0  0  0  0  0  0  0  0  0
  -27.9105  -26.7041   18.6404 C   0  0  0  0  0  0  0  0  0  1  0  0
  -26.7947  -29.9993   25.1725 C   0  0  1  0  0  0  0  0  0  0  0  0
  -29.4177  -27.8808   26.9049 C   0  0  2  0  0  0  0  0  0  0  0  0
  -30.8818  -21.6088   23.0318 C   0  0  1  0  0  0  0  0  0  0  0  0
  -26.7310  -31.5350   25.4074 C   0  0  0  0  0  0  0  0  0  0  0  0
  -25.9485  -16.9981   23.2360 N   0  0  0  0  0  0  0  0  0  0  0  0
  -30.1938  -24.4777   19.5182 N   0  0  0  0  0  0  0  0  0  0  0  0
  -25.9283  -17.8210   24.2983 N   0  0  0  0  0  0  0  0  0  0  0  0
  -25.0069  -28.6849   24.0771 N   0  0  0  0  0  0  0  0  0  0  0  0
  -27.2146  -21.0528   22.7142 N   0  0  0  0  0  0  0  0  0  0  0  0
  -25.6786  -17.8592   26.6534 N   0  0  0  0  0  0  0  0  0  0  0  0
  -25.2839  -13.4771   25.6349 N   0  0  0  0  0  0  0  0  0  0  0  0
  -28.5441  -24.4955   17.8388 N   0  0  0  0  0  0  0  0  0  0  0  0
  -21.5261  -29.3890   23.7332 N   0  0  0  0  0  0  0  0  0  0  0  0
  -27.6325  -29.2829   26.1281 N   0  0  0  0  0  0  0  0  0  0  0  0
  -29.5654  -21.0136   22.9706 N   0  0  0  0  0  0  0  0  0  0  0  0
  -29.9615  -26.5466   26.5236 N   0  3  0  0  0  0  0  0  0  0  0  0
  -25.2571  -15.0000   27.3491 O   0  0  0  0  0  0  0  0  0  0  0  0
  -23.3686  -29.9468   22.4231 O   0  0  0  0  0  0  0  0  0  0  0  0
  -24.7748  -29.4255   26.2757 O   0  0  0  0  0  0  0  0  0  0  0  0
  -29.0686  -28.3549   24.5617 O   0  0  0  0  0  0  0  0  0  0  0  0
  -28.4776  -22.9928   22.5754 O   0  0  0  0  0  0  0  0  0  0  0  0
  -25.5795  -11.2403   20.5413 O   0  0  0  0  0  0  0  0  0  0  0  0
  -26.5270  -26.3620   18.5684 O   0  0  0  0  0  0  0  0  0  1  0  0
  -21.5605   -7.5820   21.4732 F   0  0  0  0  0  0  0  0  0  0  0  0
  -25.3454   -9.9842   22.9928 F   0  0  0  0  0  0  0  0  0  0  0  0
  1  2  1  0  0  0  0
  1  5  2  0  0  0  0
  2  6  2  0  0  0  0
  3  8  2  0  0  0  0
  3 16  1  0  0  0  0
  4  9  1  0  0  0  0
  4 16  2  0  0  0  0
  5 18  1  0  0  0  0
  6 20  1  0  0  0  0
  7 10  2  0  0  0  0
  7 19  1  0  0  0  0
  8 24  1  0  0  0  0
  9 24  2  0  0  0  0
 10 25  1  0  0  0  0
 11 12  2  0  0  0  0
 11 26  1  0  0  0  0
 12 27  1  0  0  0  0
 13 21  1  0  0  0  0
 13 25  2  0  0  0  0
 14 22  2  0  0  0  0
 14 31  1  0  0  0  0
 15 27  2  0  0  0  0
 15 28  1  0  0  0  0
 16 29  1  0  0  0  0
 17 29  1  0  0  0  0
 17 32  2  0  0  0  0
 17 33  1  0  0  0  0
 18 20  2  0  0  0  0
 18 38  1  0  0  0  0
 19 21  2  0  0  0  0
 19 39  1  0  0  0  0
 20 47  1  0  0  0  0
 21 40  1  0  0  0  0
 22 23  1  0  0  0  0
 22 50  1  0  0  0  0
 23 30  2  0  0  0  0
 23 58  1  0  0  0  0
 24 82  1  0  0  0  0
 25 83  1  0  0  0  0
 26 28  2  0  0  0  0
 26 82  1  0  0  0  0
 27 84  1  0  0  0  0
 28 85  1  0  0  0  0
 29 65  2  0  0  0  0
 30 51  1  0  0  0  0
 30 66  1  0  0  0  0
 31 66  2  0  0  0  0
 31 72  1  0  0  0  0
 32 67  1  0  0  0  0
 32 70  1  0  0  0  0
 33 71  1  0  0  0  0
 33 77  2  0  0  0  0
 34 48  1  0  0  0  0
 34 73  1  0  0  0  0
 34 78  2  0  0  0  0
 35 61  1  0  0  0  0
 35 68  1  0  0  0  0
 35 79  2  0  0  0  0
 36 62  1  0  0  0  0
 36 74  1  0  0  0  0
 36 80  2  0  0  0  0
 37 69  1  0  0  0  0
 37 75  1  0  0  0  0
 37 81  2  0  0  0  0
 38 41  1  0  0  0  0
 39 48  1  0  0  0  0
 40 68  1  0  0  0  0
 41 43  1  0  0  0  0
 42 44  1  0  0  0  0
 42 45  1  0  0  0  0
 43 47  1  0  0  0  0
 44 49  1  0  0  0  0
 45 69  1  0  0  0  0
 46 49  1  0  0  0  0
 46 69  1  0  0  0  0
 47 73  1  0  0  0  0
 48 68  1  0  0  0  0
 49 67  1  0  0  0  0
 52 62  1  0  0  0  0
 53 63  1  0  0  0  0
 54 64  1  0  0  0  0
 55 64  1  0  0  0  0
 56 64  1  0  0  0  0
 57 76  1  0  0  0  0
 58 63  1  0  0  0  0
 59 60  1  0  0  0  0
 59 72  1  0  0  0  0
 60 83  1  0  0  0  0
 61 64  1  0  0  0  0
 61 74  1  0  0  0  0
 62 76  1  0  0  0  0
 63 75  1  0  0  0  0
 65 67  1  0  0  0  0
M  CHG  1  76   1
M  ISO  4  37 100  60 101  75 100  83 101
M  END
> <Batch ID>
0132

> <Smiles>
CNC(C)C(=O)NC(C(=O)N1Cc2cc([101O:1][101CH2:1]CNc3cc(C)c(CC(C)[100NH:0][100C:0](=O)N4CCCC(n5nc(-c6ccc(Oc7ccc(F)cc7F)cc6)c(C(N)=O)c5N)C4)c(C)n3)ccc2CC1C(=O)NC1CCCc2ccccc21)C(C)(C)C

> <Shape>
0.227

> <Color>
0.077

> <Negative vol penalty>
0.000

$$$$

  -OEChem-04052320523D

 86 95  0     1  0  0  0  0  0999 V2000
  -26.3342  -35.7127   22.4601 C   0  0  0  0  0  0  0  0  0  0  0  0
  -26.8334  -34.4192   22.3448 C   0  0  0  0  0  0  0  0  0  0  0  0
  -25.2504  -11.5987   20.5088 C   0  0  0  0  0  0  0  0  0  0  0  0
  -26.1711  -12.3251   18.3965 C   0  0  0  0  0  0  0  0  0  0  0  0
  -25.0591  -35.9224   22.9836 C   0  0  0  0  0  0  0  0  0  0  0  0
  -26.0581  -33.3348   22.7541 C   0  0  0  0  0  0  0  0  0  0  0  0
  -26.1383  -29.5220   19.4222 C   0  0  0  0  0  0  0  0  0  0  0  0
  -24.8586  -10.3946   19.9240 C   0  0  0  0  0  0  0  0  0  0  0  0
  -25.7793  -11.1208   17.8117 C   0  0  0  0  0  0  0  0  0  0  0  0
  -27.2672  -28.7040   19.4177 C   0  0  0  0  0  0  0  0  0  0  0  0
  -23.2960   -7.2757   18.8970 C   0  0  0  0  0  0  0  0  0  0  0  0
  -22.0126   -6.8054   19.1749 C   0  0  0  0  0  0  0  0  0  0  0  0
  -26.0718  -27.0573   20.7134 C   0  0  0  0  0  0  0  0  0  0  0  0
  -21.0696   -8.8143   18.2197 C   0  0  0  0  0  0  0  0  0  0  0  0
  -25.9066  -12.5640   19.7450 C   0  0  0  0  0  0  0  0  0  0  0  0
  -27.5382  -14.0880   20.9792 C   0  0  0  0  0  0  0  0  0  0  0  0
  -24.2640  -34.8394   23.3905 C   0  0  0  0  0  0  0  0  0  0  0  0
  -24.9691  -29.1180   20.0827 C   0  0  0  0  0  0  0  0  0  0  0  0
  -24.7717  -33.5304   23.2848 C   0  0  0  0  0  0  0  0  0  0  0  0
  -24.9285  -27.8710   20.7226 C   0  0  0  0  0  0  0  0  0  0  0  0
  -25.1230  -10.1556   18.5755 C   0  0  0  0  0  0  0  0  0  0  0  0
  -27.2350  -27.4727   20.0658 C   0  0  0  0  0  0  0  0  0  0  0  0
  -23.4663   -8.5154   18.2805 C   0  0  0  0  0  0  0  0  0  0  0  0
  -20.8994   -7.5746   18.8362 C   0  0  0  0  0  0  0  0  0  0  0  0
  -22.3531   -9.2846   17.9418 C   0  0  0  0  0  0  0  0  0  0  0  0
  -26.3111  -13.8084   20.3484 C   0  0  0  0  0  0  0  0  0  0  0  0
  -27.4278  -15.3970   21.3801 C   0  0  0  0  0  0  0  0  0  0  0  0
  -28.6762  -13.2403   21.1842 C   0  0  0  0  0  0  0  0  0  0  0  0
  -23.2642  -30.2455   22.5170 C   0  0  0  0  0  0  0  0  0  0  0  0
  -21.2278  -27.8603   21.6885 C   0  0  0  0  0  0  0  0  0  0  0  0
  -20.7718  -24.8338   20.1788 C   0  0  0  0  0  0  0  0  0  0  0  0
  -25.9475  -20.6640   19.9523 C   0  0  0  0  0  0  0  0  0  0  0  0
  -22.9105  -35.1189   23.9942 C   0  0  0  0  0  0  0  0  0  0  0  0
  -23.7512  -30.0002   20.0555 C   0  0  0  0  0  0  0  0  0  0  0  0
  -23.6914  -27.3820   21.4288 C   0  0  0  0  0  0  0  0  0  0  0  0
  -22.0061  -33.8908   24.0568 C   0  0  0  0  0  0  0  0  0  0  0  0
  -27.8146  -21.7262   16.1987 C   0  0  0  0  0  0  0  0  0  0  0  0
  -28.7681  -22.8538   15.8169 C   0  0  0  0  0  0  0  0  0  0  0  0
  -23.4305  -18.4877   21.5199 C   0  0  0  0  0  0  0  0  0  0  0  0
  -22.7722  -32.6910   24.6049 C   0  0  0  0  0  0  0  0  0  0  0  0
  -27.3533  -21.8311   17.6507 C   0  0  0  0  0  0  0  0  0  0  0  0
  -24.0389  -17.0947   21.3549 C   0  0  0  0  0  0  0  0  0  0  0  0
  -29.9546  -22.9383   16.7763 C   0  0  0  0  0  0  0  0  0  0  0  0
  -28.6420  -21.3171   22.2828 C   0  0  0  0  0  0  0  0  0  0  0  0
  -23.8538  -19.4318   20.3973 C   0  0  0  0  0  0  0  0  0  0  0  0
  -27.7760  -20.2300   21.6692 C   0  0  0  0  0  0  0  0  0  0  0  0
  -25.9205  -18.1337   20.0339 C   0  0  0  0  0  0  0  0  0  0  0  0
  -23.9513  -32.3267   23.6948 C   0  0  1  0  0  0  0  0  0  0  0  0
  -22.7806  -29.7142   21.1973 C   0  0  1  0  0  0  0  0  0  0  0  0
  -28.5430  -21.9073   18.6214 C   0  0  2  0  0  0  0  0  0  0  0  0
  -25.5665  -17.1750   21.1795 C   0  0  2  0  0  0  0  0  0  0  0  0
  -28.0531  -22.0022   20.0626 C   0  0  2  0  0  0  0  0  0  0  0  0
  -29.5308  -23.0288   18.2451 C   0  0  2  0  0  0  0  0  0  0  0  0
  -29.2203  -22.0139   21.0574 C   0  0  1  0  0  0  0  0  0  0  0  0
  -19.0034  -23.1203   19.6948 C   0  0  0  0  0  0  0  0  0  0  0  0
  -21.3513  -26.9174   24.5877 C   0  0  0  0  0  0  0  0  0  0  0  0
  -20.3772  -24.7335   23.8460 C   0  0  0  0  0  0  0  0  0  0  0  0
  -19.0718  -26.8402   23.5619 C   0  0  0  0  0  0  0  0  0  0  0  0
  -21.1170  -25.1342   17.2549 C   0  0  0  0  0  0  0  0  0  0  0  0
  -30.8814  -23.3558   22.0388 C   0  0  0  0  0  0  0  0  0  0  0  0
  -29.9264  -25.4459   18.7349 C   0  0  0  0  0  0  0  0  0  0  0  0
  -29.2038  -26.7633   18.9360 C   0  0  0  0  0  0  0  0  0  1  0  0
  -21.0686  -26.4090   22.0723 C   0  0  1  0  0  0  0  0  0  0  0  0
  -19.7336  -24.3517   19.1817 C   0  0  2  0  0  0  0  0  0  0  0  0
  -20.4913  -26.2348   23.5054 C   0  0  0  0  0  0  0  0  0  0  0  0
  -25.4820  -14.8555   20.3465 N   0  0  0  0  0  0  0  0  0  0  0  0
  -26.1893  -15.8058   20.9811 N   0  0  0  0  0  0  0  0  0  0  0  0
  -22.5283  -28.2833   21.3796 N   0  0  0  0  0  0  0  0  0  0  0  0
  -25.3089  -19.4514   20.2443 N   0  0  0  0  0  0  0  0  0  0  0  0
  -27.2393  -20.8443   20.4535 N   0  0  0  0  0  0  0  0  0  0  0  0
  -28.2701  -16.2266   22.0317 N   0  0  0  0  0  0  0  0  0  0  0  0
  -28.6224  -11.9230   20.7087 N   0  0  0  0  0  0  0  0  0  0  0  0
  -23.4858  -31.6094   22.5272 N   0  0  0  0  0  0  0  0  0  0  0  0
  -20.2603  -25.7958   21.0239 N   0  0  0  0  0  0  0  0  0  0  0  0
  -28.9301  -24.3731   18.4877 N   0  3  0  0  0  0  0  0  0  0  0  0
  -20.3818  -24.0074   17.8847 N   0  3  0  0  0  0  0  0  0  0  0  0
  -29.7038  -13.6342   21.7862 O   0  0  0  0  0  0  0  0  0  0  0  0
  -23.4229  -29.4753   23.4568 O   0  0  0  0  0  0  0  0  0  0  0  0
  -20.2337  -28.5900   21.6568 O   0  0  0  0  0  0  0  0  0  0  0  0
  -21.9205  -24.3977   20.2077 O   0  0  0  0  0  0  0  0  0  0  0  0
  -25.3796  -21.5527   19.3045 O   0  0  0  0  0  0  0  0  0  0  0  0
  -24.7411   -8.9806   18.0045 O   0  0  0  0  0  0  0  0  0  0  0  0
  -28.3437  -26.6668   20.0635 O   0  0  0  0  0  0  0  0  0  1  0  0
  -29.6163  -23.3321   21.3868 O   0  0  0  0  0  0  0  0  0  0  0  0
  -19.6669   -7.1222   19.1017 F   0  0  0  0  0  0  0  0  0  0  0  0
  -22.5103  -10.4757   17.3483 F   0  0  0  0  0  0  0  0  0  0  0  0
  1  2  1  0  0  0  0
  1  5  2  0  0  0  0
  2  6  2  0  0  0  0
  3  8  2  0  0  0  0
  3 15  1  0  0  0  0
  4  9  1  0  0  0  0
  4 15  2  0  0  0  0
  5 17  1  0  0  0  0
  6 19  1  0  0  0  0
  7 10  2  0  0  0  0
  7 18  1  0  0  0  0
  8 21  1  0  0  0  0
  9 21  2  0  0  0  0
 10 22  1  0  0  0  0
 11 12  2  0  0  0  0
 11 23  1  0  0  0  0
 12 24  1  0  0  0  0
 13 20  1  0  0  0  0
 13 22  2  0  0  0  0
 14 24  2  0  0  0  0
 14 25  1  0  0  0  0
 15 26  1  0  0  0  0
 16 26  1  0  0  0  0
 16 27  2  0  0  0  0
 16 28  1  0  0  0  0
 17 19  2  0  0  0  0
 17 33  1  0  0  0  0
 18 20  2  0  0  0  0
 18 34  1  0  0  0  0
 19 48  1  0  0  0  0
 20 35  1  0  0  0  0
 21 82  1  0  0  0  0
 22 83  1  0  0  0  0
 23 25  2  0  0  0  0
 23 82  1  0  0  0  0
 24 85  1  0  0  0  0
 25 86  1  0  0  0  0
 26 66  2  0  0  0  0
 27 67  1  0  0  0  0
 27 71  1  0  0  0  0
 28 72  1  0  0  0  0
 28 77  2  0  0  0  0
 29 49  1  0  0  0  0
 29 73  1  0  0  0  0
 29 78  2  0  0  0  0
 30 63  1  0  0  0  0
 30 68  1  0  0  0  0
 30 79  2  0  0  0  0
 31 64  1  0  0  0  0
 31 74  1  0  0  0  0
 31 80  2  0  0  0  0
 32 69  1  0  0  0  0
 32 70  1  0  0  0  0
 32 81  2  0  0  0  0
 33 36  1  0  0  0  0
 34 49  1  0  0  0  0
 35 68  1  0  0  0  0
 36 40  1  0  0  0  0
 37 38  1  0  0  0  0
 37 41  1  0  0  0  0
 38 43  1  0  0  0  0
 39 42  1  0  0  0  0
 39 45  1  0  0  0  0
 40 48  1  0  0  0  0
 41 50  1  0  0  0  0
 42 51  1  0  0  0  0
 43 53  1  0  0  0  0
 44 46  1  0  0  0  0
 44 54  1  0  0  0  0
 45 69  1  0  0  0  0
 46 70  1  0  0  0  0
 47 51  1  0  0  0  0
 47 69  1  0  0  0  0
 48 73  1  0  0  0  0
 49 68  1  0  0  0  0
 50 52  1  0  0  0  0
 50 53  1  0  0  0  0
 51 67  1  0  0  0  0
 52 54  1  0  0  0  0
 52 70  1  0  0  0  0
 53 75  1  0  0  0  0
 54 84  1  0  0  0  0
 55 64  1  0  0  0  0
 56 65  1  0  0  0  0
 57 65  1  0  0  0  0
 58 65  1  0  0  0  0
 59 76  1  0  0  0  0
 60 84  1  0  0  0  0
 61 62  1  0  0  0  0
 61 75  1  0  0  0  0
 62 83  1  0  0  0  0
 63 65  1  0  0  0  0
 63 74  1  0  0  0  0
 64 76  1  0  0  0  0
 66 67  1  0  0  0  0
M  CHG  2  75   1  76   1
M  ISO  4  32 100  62 101  70 100  83 101
M  END
> <Batch ID>
0132

> <Smiles>
CNC(C)C(=O)NC(C(=O)N1Cc2cc([101O:1][101CH2:1]CNC3CCCCC3C3C(OC)CC[100N:0]3[100C:0](=O)N3CCCC(n4nc(-c5ccc(Oc6ccc(F)cc6F)cc5)c(C(N)=O)c4N)C3)ccc2CC1C(=O)NC1CCCc2ccccc21)C(C)(C)C

> <Shape>
0.260

> <Color>
0.067

> <Negative vol penalty>
0.000

$$$$

  -OEChem-04052320523D

 82 90  0     1  0  0  0  0  0999 V2000
  -28.0683  -33.3347   14.0971 C   0  0  0  0  0  0  0  0  0  0  0  0
  -28.2411  -31.9945   14.4279 C   0  0  0  0  0  0  0  0  0  0  0  0
  -22.8926  -10.1542   19.9601 C   0  0  0  0  0  0  0  0  0  0  0  0
  -23.8210   -9.8616   22.1713 C   0  0  0  0  0  0  0  0  0  0  0  0
  -27.5954  -34.2322   15.0534 C   0  0  0  0  0  0  0  0  0  0  0  0
  -27.9420  -31.5512   15.7157 C   0  0  0  0  0  0  0  0  0  0  0  0
  -25.6240  -26.1055   17.2894 C   0  0  0  0  0  0  0  0  0  0  0  0
  -29.2903  -21.1397   19.2261 C   0  0  0  0  0  0  0  0  0  0  0  0
  -29.8107  -20.0254   19.8841 C   0  0  0  0  0  0  0  0  0  0  0  0
  -22.0979   -9.0227   20.1439 C   0  0  0  0  0  0  0  0  0  0  0  0
  -23.0263   -8.7301   22.3552 C   0  0  0  0  0  0  0  0  0  0  0  0
  -26.2153  -24.9374   17.7685 C   0  0  0  0  0  0  0  0  0  0  0  0
  -23.0635   -5.4809   21.4210 C   0  0  0  0  0  0  0  0  0  0  0  0
  -23.6649   -4.3493   21.9717 C   0  0  0  0  0  0  0  0  0  0  0  0
  -25.6953  -25.6076   20.0267 C   0  0  0  0  0  0  0  0  0  0  0  0
  -27.1042  -20.6543   20.1331 C   0  0  0  0  0  0  0  0  0  0  0  0
  -22.1104   -4.4226   23.8198 C   0  0  0  0  0  0  0  0  0  0  0  0
  -23.7542  -10.5736   20.9737 C   0  0  0  0  0  0  0  0  0  0  0  0
  -24.2454  -13.0737   21.0993 C   0  0  0  0  0  0  0  0  0  0  0  0
  -27.2812  -33.7979   16.3509 C   0  0  0  0  0  0  0  0  0  0  0  0
  -25.0726  -27.0402   18.1775 C   0  0  0  0  0  0  0  0  0  0  0  0
  -27.4657  -32.4441   16.6908 C   0  0  0  0  0  0  0  0  0  0  0  0
  -25.0952  -26.7856   19.5562 C   0  0  0  0  0  0  0  0  0  0  0  0
  -27.9370  -21.4543   19.3506 C   0  0  0  0  0  0  0  0  0  0  0  0
  -27.6246  -19.5399   20.7911 C   0  0  0  0  0  0  0  0  0  0  0  0
  -28.9779  -19.2255   20.6666 C   0  0  0  0  0  0  0  0  0  0  0  0
  -22.1648   -8.3106   21.3415 C   0  0  0  0  0  0  0  0  0  0  0  0
  -26.2536  -24.6897   19.1376 C   0  0  0  0  0  0  0  0  0  0  0  0
  -21.9857   -6.0836   22.0698 C   0  0  0  0  0  0  0  0  0  0  0  0
  -23.1883   -3.8201   23.1711 C   0  0  0  0  0  0  0  0  0  0  0  0
  -21.5091   -5.5544   23.2691 C   0  0  0  0  0  0  0  0  0  0  0  0
  -24.5757  -11.7421   20.7842 C   0  0  0  0  0  0  0  0  0  0  0  0
  -25.3526  -13.7984   20.7313 C   0  0  0  0  0  0  0  0  0  0  0  0
  -23.0451  -13.6079   21.6734 C   0  0  0  0  0  0  0  0  0  0  0  0
  -25.6679  -30.0803   18.8893 C   0  0  0  0  0  0  0  0  0  0  0  0
  -23.0003  -29.7708   20.7088 C   0  0  0  0  0  0  0  0  0  0  0  0
  -20.8790  -27.7115   22.4135 C   0  0  0  0  0  0  0  0  0  0  0  0
  -30.8885  -14.4882   20.5813 C   0  0  0  0  0  0  0  0  0  0  0  0
  -26.8179  -34.8142   17.3643 C   0  0  0  0  0  0  0  0  0  0  0  0
  -24.4145  -28.2826   17.6430 C   0  0  0  0  0  0  0  0  0  0  0  0
  -24.4992  -27.7475   20.5501 C   0  0  0  0  0  0  0  0  0  0  0  0
  -26.1687  -34.1920   18.5979 C   0  0  0  0  0  0  0  0  0  0  0  0
  -29.4266  -12.4532   18.0519 C   0  0  0  0  0  0  0  0  0  0  0  0
  -27.0132  -33.0333   19.1185 C   0  0  0  0  0  0  0  0  0  0  0  0
  -28.0099  -12.1917   18.5662 C   0  0  0  0  0  0  0  0  0  0  0  0
  -30.4432  -12.4870   19.1910 C   0  0  0  0  0  0  0  0  0  0  0  0
  -28.7008  -13.1604   20.7985 C   0  0  0  0  0  0  0  0  0  0  0  0
  -27.1288  -31.9203   18.0700 C   0  0  1  0  0  0  0  0  0  0  0  0
  -24.3418  -29.4090   18.6694 C   0  0  1  0  0  0  0  0  0  0  0  0
  -27.6321  -13.1730   19.6922 C   0  0  2  0  0  0  0  0  0  0  0  0
  -26.7101  -18.7005   21.6226 C   0  0  0  0  0  0  0  0  0  0  0  0
  -18.8096  -27.7532   23.8324 C   0  0  0  0  0  0  0  0  0  0  0  0
  -24.6408  -30.7999   23.0667 C   0  0  0  0  0  0  0  0  0  0  0  0
  -22.8575  -29.9335   24.5956 C   0  0  0  0  0  0  0  0  0  0  0  0
  -22.3168  -31.7142   22.9345 C   0  0  0  0  0  0  0  0  0  0  0  0
  -19.3853  -26.0313   20.4888 C   0  0  0  0  0  0  0  0  0  0  0  0
  -27.3776  -22.6531   18.6427 C   0  0  0  0  0  0  0  0  0  1  0  0
  -30.9012  -17.7386   21.2285 C   0  0  0  0  0  0  0  0  0  0  0  0
  -31.1830  -16.4792   22.0335 C   0  0  0  0  0  0  0  0  0  0  0  0
  -22.7193  -29.3510   22.1314 C   0  0  1  0  0  0  0  0  0  0  0  0
  -19.3644  -27.6108   22.4236 C   0  0  2  0  0  0  0  0  0  0  0  0
  -23.1466  -30.4323   23.1637 C   0  0  0  0  0  0  0  0  0  0  0  0
  -25.7971  -11.6248   20.2564 N   0  0  0  0  0  0  0  0  0  0  0  0
  -26.2439  -12.8921   20.2370 N   0  0  0  0  0  0  0  0  0  0  0  0
  -23.8727  -28.9511   19.9788 N   0  0  0  0  0  0  0  0  0  0  0  0
  -30.0268  -13.4379   20.2246 N   0  0  0  0  0  0  0  0  0  0  0  0
  -25.6409  -15.1161   20.7854 N   0  0  0  0  0  0  0  0  0  0  0  0
  -22.0057  -12.7233   21.9920 N   0  0  0  0  0  0  0  0  0  0  0  0
  -29.5222  -18.1012   21.3254 N   0  0  0  0  0  0  0  0  0  0  0  0
  -25.9140  -31.1347   18.0307 N   0  0  0  0  0  0  0  0  0  0  0  0
  -21.3035  -29.0028   22.1821 N   0  0  0  0  0  0  0  0  0  0  0  0
  -30.4142  -15.3478   21.5646 N   0  0  0  0  0  0  0  0  0  0  0  0
  -18.9291  -26.2940   21.8780 N   0  3  0  0  0  0  0  0  0  0  0  0
  -22.8922  -14.8353   21.8822 O   0  0  0  0  0  0  0  0  0  0  0  0
  -26.4121  -29.6729   19.7735 O   0  0  0  0  0  0  0  0  0  0  0  0
  -22.4599  -30.7845   20.2594 O   0  0  0  0  0  0  0  0  0  0  0  0
  -21.6123  -26.7423   22.5965 O   0  0  0  0  0  0  0  0  0  0  0  0
  -31.9962  -14.6512   20.0583 O   0  0  0  0  0  0  0  0  0  0  0  0
  -21.3893   -7.2066   21.5214 O   0  0  0  0  0  0  0  0  0  0  0  0
  -26.8308  -23.5506   19.6080 O   0  0  0  0  0  0  0  0  0  1  0  0
  -23.7648   -2.7324   23.6990 F   0  0  0  0  0  0  0  0  0  0  0  0
  -20.4732   -6.1282   23.8964 F   0  0  0  0  0  0  0  0  0  0  0  0
  1  2  1  0  0  0  0
  1  5  2  0  0  0  0
  2  6  2  0  0  0  0
  3 10  2  0  0  0  0
  3 18  1  0  0  0  0
  4 11  1  0  0  0  0
  4 18  2  0  0  0  0
  5 20  1  0  0  0  0
  6 22  1  0  0  0  0
  7 12  2  0  0  0  0
  7 21  1  0  0  0  0
  8  9  2  0  0  0  0
  8 24  1  0  0  0  0
  9 26  1  0  0  0  0
 10 27  1  0  0  0  0
 11 27  2  0  0  0  0
 12 28  1  0  0  0  0
 13 14  2  0  0  0  0
 13 29  1  0  0  0  0
 14 30  1  0  0  0  0
 15 23  1  0  0  0  0
 15 28  2  0  0  0  0
 16 24  2  0  0  0  0
 16 25  1  0  0  0  0
 17 30  2  0  0  0  0
 17 31  1  0  0  0  0
 18 32  1  0  0  0  0
 19 32  1  0  0  0  0
 19 33  2  0  0  0  0
 19 34  1  0  0  0  0
 20 22  2  0  0  0  0
 20 39  1  0  0  0  0
 21 23  2  0  0  0  0
 21 40  1  0  0  0  0
 22 48  1  0  0  0  0
 23 41  1  0  0  0  0
 24 57  1  0  0  0  0
 25 26  2  0  0  0  0
 25 51  1  0  0  0  0
 26 69  1  0  0  0  0
 27 79  1  0  0  0  0
 28 80  1  0  0  0  0
 29 31  2  0  0  0  0
 29 79  1  0  0  0  0
 30 81  1  0  0  0  0
 31 82  1  0  0  0  0
 32 63  2  0  0  0  0
 33 64  1  0  0  0  0
 33 67  1  0  0  0  0
 34 68  1  0  0  0  0
 34 74  2  0  0  0  0
 35 49  1  0  0  0  0
 35 70  1  0  0  0  0
 35 75  2  0  0  0  0
 36 60  1  0  0  0  0
 36 65  1  0  0  0  0
 36 76  2  0  0  0  0
 37 61  1  0  0  0  0
 37 71  1  0  0  0  0
 37 77  2  0  0  0  0
 38 66  1  0  0  0  0
 38 72  1  0  0  0  0
 38 78  2  0  0  0  0
 39 42  1  0  0  0  0
 40 49  1  0  0  0  0
 41 65  1  0  0  0  0
 42 44  1  0  0  0  0
 43 45  1  0  0  0  0
 43 46  1  0  0  0  0
 44 48  1  0  0  0  0
 45 50  1  0  0  0  0
 46 66  1  0  0  0  0
 47 50  1  0  0  0  0
 47 66  1  0  0  0  0
 48 70  1  0  0  0  0
 49 65  1  0  0  0  0
 50 64  1  0  0  0  0
 52 61  1  0  0  0  0
 53 62  1  0  0  0  0
 54 62  1  0  0  0  0
 55 62  1  0  0  0  0
 56 73  1  0  0  0  0
 57 80  1  0  0  0  0
 58 59  1  0  0  0  0
 58 69  1  0  0  0  0
 59 72  1  0  0  0  0
 60 62  1  0  0  0  0
 60 71  1  0  0  0  0
 61 73  1  0  0  0  0
 63 64  1  0  0  0  0
M  CHG  1  73   1
M  ISO  4  38 100  57 101  72 100  80 101
M  END
> <Batch ID>
0132

> <Smiles>
CNC(C)C(=O)NC(C(=O)N1Cc2cc([101O:1][101CH2:1]c3ccc(NCC[100NH:0][100C:0](=O)N4CCCC(n5nc(-c6ccc(Oc7ccc(F)cc7F)cc6)c(C(N)=O)c5N)C4)c(C)c3)ccc2CC1C(=O)NC1CCCc2ccccc21)C(C)(C)C

> <Shape>
0.350

> <Color>
0.205

> <Negative vol penalty>
0.000

$$$$

  -OEChem-04052320523D

 91101  0     1  0  0  0  0  0999 V2000
  -35.3006  -19.7650   13.5824 C   0  0  0  0  0  0  0  0  0  0  0  0
  -34.4190  -20.1481   14.5880 C   0  0  0  0  0  0  0  0  0  0  0  0
  -32.7186  -17.3082   26.4806 C   0  0  0  0  0  0  0  0  0  0  0  0
  -32.6652  -18.6669   26.7916 C   0  0  0  0  0  0  0  0  0  0  0  0
  -22.6777  -10.2003   20.1570 C   0  0  0  0  0  0  0  0  0  0  0  0
  -24.3267   -9.4129   21.7375 C   0  0  0  0  0  0  0  0  0  0  0  0
  -35.8834  -20.7306   12.7627 C   0  0  0  0  0  0  0  0  0  0  0  0
  -34.1205  -21.4973   14.7753 C   0  0  0  0  0  0  0  0  0  0  0  0
  -31.9682  -16.8061   25.4174 C   0  0  0  0  0  0  0  0  0  0  0  0
  -29.1686  -22.3165   15.4476 C   0  0  0  0  0  0  0  0  0  0  0  0
  -31.8613  -19.5234   26.0396 C   0  0  0  0  0  0  0  0  0  0  0  0
  -21.9427   -9.0291   20.3403 C   0  0  0  0  0  0  0  0  0  0  0  0
  -23.5916   -8.2417   21.9209 C   0  0  0  0  0  0  0  0  0  0  0  0
  -28.6414  -22.0325   16.7067 C   0  0  0  0  0  0  0  0  0  0  0  0
  -21.9652   -5.2025   23.0768 C   0  0  0  0  0  0  0  0  0  0  0  0
  -21.7778   -4.7514   24.3833 C   0  0  0  0  0  0  0  0  0  0  0  0
  -28.7284  -24.3776   17.2653 C   0  0  0  0  0  0  0  0  0  0  0  0
  -20.6525   -6.8170   24.9350 C   0  0  0  0  0  0  0  0  0  0  0  0
  -23.8697  -10.3922   20.8556 C   0  0  0  0  0  0  0  0  0  0  0  0
  -24.2033  -12.9207   20.9109 C   0  0  0  0  0  0  0  0  0  0  0  0
  -35.5845  -22.0914   12.9338 C   0  0  0  0  0  0  0  0  0  0  0  0
  -29.4903  -23.6340   15.0913 C   0  0  0  0  0  0  0  0  0  0  0  0
  -34.7009  -22.4821   13.9580 C   0  0  0  0  0  0  0  0  0  0  0  0
  -31.1642  -17.6626   24.6653 C   0  0  0  0  0  0  0  0  0  0  0  0
  -29.2571  -24.6760   16.0002 C   0  0  0  0  0  0  0  0  0  0  0  0
  -31.1108  -19.0213   24.9764 C   0  0  0  0  0  0  0  0  0  0  0  0
  -22.3996   -8.0498   21.2223 C   0  0  0  0  0  0  0  0  0  0  0  0
  -28.4239  -23.0628   17.6168 C   0  0  0  0  0  0  0  0  0  0  0  0
  -21.4964   -6.4608   22.6993 C   0  0  0  0  0  0  0  0  0  0  0  0
  -21.1214   -5.5586   25.3124 C   0  0  0  0  0  0  0  0  0  0  0  0
  -20.8400   -7.2681   23.6284 C   0  0  0  0  0  0  0  0  0  0  0  0
  -24.6297  -11.6016   20.6662 C   0  0  0  0  0  0  0  0  0  0  0  0
  -25.2845  -13.6987   20.5763 C   0  0  0  0  0  0  0  0  0  0  0  0
  -22.9425  -13.3998   21.3974 C   0  0  0  0  0  0  0  0  0  0  0  0
  -32.1649  -25.1497   14.2830 C   0  0  0  0  0  0  0  0  0  0  0  0
  -30.1348  -27.6153   13.7158 C   0  0  0  0  0  0  0  0  0  0  0  0
  -27.2414  -29.0644   15.3113 C   0  0  0  0  0  0  0  0  0  0  0  0
  -30.7727  -14.6768   20.7225 C   0  0  0  0  0  0  0  0  0  0  0  0
  -36.2756  -23.1027   12.0538 C   0  0  0  0  0  0  0  0  0  0  0  0
  -30.0333  -23.9271   13.7196 C   0  0  0  0  0  0  0  0  0  0  0  0
  -29.5668  -26.1100   15.6592 C   0  0  0  0  0  0  0  0  0  0  0  0
  -35.6175  -24.4799   12.0756 C   0  0  0  0  0  0  0  0  0  0  0  0
  -29.5622  -12.5582   18.1672 C   0  0  0  0  0  0  0  0  0  0  0  0
  -35.3150  -24.9043   13.5092 C   0  0  0  0  0  0  0  0  0  0  0  0
  -28.1494  -12.1959   18.6166 C   0  0  0  0  0  0  0  0  0  0  0  0
  -29.3667  -15.9719   23.8530 C   0  0  0  0  0  0  0  0  0  0  0  0
  -28.8185  -20.3832   21.5166 C   0  0  0  0  0  0  0  0  0  0  0  0
  -30.5063  -12.6343   19.3596 C   0  0  0  0  0  0  0  0  0  0  0  0
  -29.0522  -15.3724   22.4889 C   0  0  0  0  0  0  0  0  0  0  0  0
  -27.9639  -21.2729   20.6103 C   0  0  0  0  0  0  0  0  0  0  0  0
  -31.2003  -16.4319   22.4161 C   0  0  0  0  0  0  0  0  0  0  0  0
  -28.6466  -13.2901   20.8634 C   0  0  0  0  0  0  0  0  0  0  0  0
  -29.8327  -22.7348   20.1422 C   0  0  0  0  0  0  0  0  0  0  0  0
  -30.3601  -17.0958   23.5162 C   0  0  2  0  0  0  0  0  0  0  0  0
  -34.3331  -23.9337   14.1764 C   0  0  1  0  0  0  0  0  0  0  0  0
  -30.8050  -25.2413   13.6506 C   0  0  1  0  0  0  0  0  0  0  0  0
  -27.6532  -13.1787   19.6884 C   0  0  2  0  0  0  0  0  0  0  0  0
  -29.9779  -21.1772   22.1375 C   0  0  2  0  0  0  0  0  0  0  0  0
  -30.7613  -21.8967   21.0276 C   0  0  2  0  0  0  0  0  0  0  0  0
  -25.3221  -30.3596   14.3437 C   0  0  0  0  0  0  0  0  0  0  0  0
  -31.7982  -30.0667   14.4462 C   0  0  0  0  0  0  0  0  0  0  0  0
  -29.6783  -31.2204   15.1120 C   0  0  0  0  0  0  0  0  0  0  0  0
  -30.0089  -30.4877   12.7505 C   0  0  0  0  0  0  0  0  0  0  0  0
  -32.5888  -23.5542   20.6381 C   0  0  0  0  0  0  0  0  0  0  0  0
  -25.2517  -27.2026   16.4660 C   0  0  0  0  0  0  0  0  0  0  0  0
  -30.2568  -19.9576   24.1859 C   0  0  0  0  0  0  0  0  0  0  0  0
  -29.5779  -28.7523   14.5379 C   0  0  1  0  0  0  0  0  0  0  0  0
  -25.8059  -28.9995   14.8220 C   0  0  2  0  0  0  0  0  0  0  0  0
  -30.2732  -30.1070   14.2236 C   0  0  0  0  0  0  0  0  0  0  0  0
  -25.8840  -11.5412   20.2110 N   0  0  0  0  0  0  0  0  0  0  0  0
  -26.2550  -12.8322   20.1671 N   0  0  0  0  0  0  0  0  0  0  0  0
  -30.1019  -26.3448   14.3079 N   0  0  0  0  0  0  0  0  0  0  0  0
  -30.0113  -13.5516   20.3877 N   0  0  0  0  0  0  0  0  0  0  0  0
  -30.2984  -15.5068   21.7374 N   0  0  0  0  0  0  0  0  0  0  0  0
  -28.7921  -21.8780   19.5643 N   0  0  2  0  0  0  0  0  0  1  0  0
  -25.4903  -15.0328   20.5951 N   0  0  0  0  0  0  0  0  0  0  0  0
  -22.7709  -13.5429   22.7810 N   0  0  0  0  0  0  0  0  0  0  0  0
  -32.9830  -24.1881   13.7212 N   0  0  0  0  0  0  0  0  0  0  0  0
  -28.1369  -28.7533   14.3100 N   0  0  0  0  0  0  0  0  0  0  0  0
  -30.8311  -20.2681   22.9023 N   0  0  0  0  0  0  0  0  0  0  0  0
  -31.7752  -22.8066   21.6313 N   0  3  0  0  0  0  0  0  0  0  0  0
  -24.9058  -28.5389   15.9168 N   0  3  0  0  0  0  0  0  0  0  0  0
  -21.9907  -13.6769   20.6288 O   0  0  0  0  0  0  0  0  0  0  0  0
  -32.4513  -25.8971   15.2109 O   0  0  0  0  0  0  0  0  0  0  0  0
  -30.5761  -27.8447   12.5870 O   0  0  0  0  0  0  0  0  0  0  0  0
  -27.5389  -29.3651   16.4652 O   0  0  0  0  0  0  0  0  0  0  0  0
  -31.8544  -14.9096   20.1662 O   0  0  0  0  0  0  0  0  0  0  0  0
  -21.6825   -6.9069   21.4016 O   0  0  0  0  0  0  0  0  0  0  0  0
  -27.9049  -22.7855   18.8591 O   0  0  0  0  0  0  0  0  0  1  0  0
  -20.9401   -5.1247   26.5666 F   0  0  0  0  0  0  0  0  0  0  0  0
  -20.3863   -8.4774   23.2714 F   0  0  0  0  0  0  0  0  0  0  0  0
  1  2  1  0  0  0  0
  1  7  2  0  0  0  0
  2  8  2  0  0  0  0
  3  4  1  0  0  0  0
  3  9  2  0  0  0  0
  4 11  2  0  0  0  0
  5 12  2  0  0  0  0
  5 19  1  0  0  0  0
  6 13  1  0  0  0  0
  6 19  2  0  0  0  0
  7 21  1  0  0  0  0
  8 23  1  0  0  0  0
  9 24  1  0  0  0  0
 10 14  2  0  0  0  0
 10 22  1  0  0  0  0
 11 26  1  0  0  0  0
 12 27  1  0  0  0  0
 13 27  2  0  0  0  0
 14 28  1  0  0  0  0
 15 16  2  0  0  0  0
 15 29  1  0  0  0  0
 16 30  1  0  0  0  0
 17 25  1  0  0  0  0
 17 28  2  0  0  0  0
 18 30  2  0  0  0  0
 18 31  1  0  0  0  0
 19 32  1  0  0  0  0
 20 32  1  0  0  0  0
 20 33  2  0  0  0  0
 20 34  1  0  0  0  0
 21 23  2  0  0  0  0
 21 39  1  0  0  0  0
 22 25  2  0  0  0  0
 22 40  1  0  0  0  0
 23 55  1  0  0  0  0
 24 26  2  0  0  0  0
 24 54  1  0  0  0  0
 25 41  1  0  0  0  0
 26 66  1  0  0  0  0
 27 88  1  0  0  0  0
 28 89  1  0  0  0  0
 29 31  2  0  0  0  0
 29 88  1  0  0  0  0
 30 90  1  0  0  0  0
 31 91  1  0  0  0  0
 32 70  2  0  0  0  0
 33 71  1  0  0  0  0
 33 76  1  0  0  0  0
 34 77  1  0  0  0  0
 34 83  2  0  0  0  0
 35 56  1  0  0  0  0
 35 78  1  0  0  0  0
 35 84  2  0  0  0  0
 36 67  1  0  0  0  0
 36 72  1  0  0  0  0
 36 85  2  0  0  0  0
 37 68  1  0  0  0  0
 37 79  1  0  0  0  0
 37 86  2  0  0  0  0
 38 73  1  0  0  0  0
 38 74  1  0  0  0  0
 38 87  2  0  0  0  0
 39 42  1  0  0  0  0
 40 56  1  0  0  0  0
 41 72  1  0  0  0  0
 42 44  1  0  0  0  0
 43 45  1  0  0  0  0
 43 48  1  0  0  0  0
 44 55  1  0  0  0  0
 45 57  1  0  0  0  0
 46 49  1  0  0  0  0
 46 54  1  0  0  0  0
 47 50  1  0  0  0  0
 47 58  1  0  0  0  0
 48 73  1  0  0  0  0
 49 74  1  0  0  0  0
 50 75  1  0  0  0  0
 51 54  1  0  0  0  0
 51 74  1  0  0  0  0
 52 57  1  0  0  0  0
 52 73  1  0  0  0  0
 53 59  1  0  0  0  0
 53 75  1  0  0  0  0
 55 78  1  0  0  0  0
 56 72  1  0  0  0  0
 57 71  1  0  0  0  0
 58 59  1  0  0  0  0
 58 80  1  0  0  0  0
 59 81  1  0  0  0  0
 60 68  1  0  0  0  0
 61 69  1  0  0  0  0
 62 69  1  0  0  0  0
 63 69  1  0  0  0  0
 64 81  1  0  0  0  0
 65 82  1  0  0  0  0
 66 80  1  0  0  0  0
 67 69  1  0  0  0  0
 67 79  1  0  0  0  0
 68 82  1  0  0  0  0
 70 71  1  0  0  0  0
 75 89  1  0  0  0  0
M  CHG  2  81   1  82   1
M  ISO  4  38 100  74 100  75 101  89 101
M  END
> <Batch ID>
0132

> <Smiles>
CNC(C)C(=O)NC(C(=O)N1Cc2cc([101O:1][101N:1]3CCC(NCc4ccccc4C4CC[100N:0]([100C:0](=O)N5CCCC(n6nc(-c7ccc(Oc8ccc(F)cc8F)cc7)c(C(N)=O)c6N)C5)C4)C(NC)C3)ccc2CC1C(=O)NC1CCCc2ccccc21)C(C)(C)C

> <Shape>
0.220

> <Color>
0.173

> <Negative vol penalty>
0.000

$$$$

  -OEChem-04052320523D

 87 96  0     1  0  0  0  0  0999 V2000
  -20.0190  -30.2872   13.8016 C   0  0  0  0  0  0  0  0  0  0  0  0
  -21.2954  -29.8400   14.1276 C   0  0  0  0  0  0  0  0  0  0  0  0
  -23.1891   -9.8674   21.4844 C   0  0  0  0  0  0  0  0  0  0  0  0
  -24.0183  -10.8382   23.5354 C   0  0  0  0  0  0  0  0  0  0  0  0
  -19.1887  -30.8060   14.7942 C   0  0  0  0  0  0  0  0  0  0  0  0
  -21.7426  -29.9123   15.4464 C   0  0  0  0  0  0  0  0  0  0  0  0
  -25.4369  -25.9508   18.3037 C   0  0  0  0  0  0  0  0  0  0  0  0
  -22.5385   -8.8748   22.2171 C   0  0  0  0  0  0  0  0  0  0  0  0
  -23.3677   -9.8456   24.2683 C   0  0  0  0  0  0  0  0  0  0  0  0
  -26.8063  -25.9662   18.5649 C   0  0  0  0  0  0  0  0  0  0  0  0
  -23.3576   -5.9904   23.7772 C   0  0  0  0  0  0  0  0  0  0  0  0
  -23.4689   -4.6751   23.3265 C   0  0  0  0  0  0  0  0  0  0  0  0
  -26.3712  -26.8644   20.7611 C   0  0  0  0  0  0  0  0  0  0  0  0
  -21.0688   -4.5576   23.0764 C   0  0  0  0  0  0  0  0  0  0  0  0
  -23.9290  -10.8492   22.1435 C   0  0  0  0  0  0  0  0  0  0  0  0
  -24.0839  -13.1263   21.0041 C   0  0  0  0  0  0  0  0  0  0  0  0
  -19.6223  -30.8758   16.1275 C   0  0  0  0  0  0  0  0  0  0  0  0
  -24.5235  -26.4031   19.2668 C   0  0  0  0  0  0  0  0  0  0  0  0
  -20.9177  -30.4338   16.4576 C   0  0  0  0  0  0  0  0  0  0  0  0
  -24.9906  -26.8513   20.5106 C   0  0  0  0  0  0  0  0  0  0  0  0
  -22.6278   -8.8638   23.6091 C   0  0  0  0  0  0  0  0  0  0  0  0
  -27.2739  -26.4257   19.7926 C   0  0  0  0  0  0  0  0  0  0  0  0
  -22.1018   -6.5893   23.8776 C   0  0  0  0  0  0  0  0  0  0  0  0
  -22.3246   -3.9587   22.9761 C   0  0  0  0  0  0  0  0  0  0  0  0
  -20.9574   -5.8729   23.5272 C   0  0  0  0  0  0  0  0  0  0  0  0
  -24.6017  -11.8745   21.3870 C   0  0  0  0  0  0  0  0  0  0  0  0
  -25.1071  -13.7231   20.3089 C   0  0  0  0  0  0  0  0  0  0  0  0
  -22.7933  -13.6986   21.2545 C   0  0  0  0  0  0  0  0  0  0  0  0
  -22.3843  -28.7503   19.4017 C   0  0  0  0  0  0  0  0  0  0  0  0
  -21.6099  -27.3564   22.2266 C   0  0  0  0  0  0  0  0  0  0  0  0
  -22.5692  -25.3917   24.8470 C   0  0  0  0  0  0  0  0  0  0  0  0
  -30.6701  -14.9120   20.2887 C   0  0  0  0  0  0  0  0  0  0  0  0
  -18.7066  -31.4882   17.1576 C   0  0  0  0  0  0  0  0  0  0  0  0
  -23.0478  -26.3550   18.9796 C   0  0  0  0  0  0  0  0  0  0  0  0
  -24.0500  -27.3285   21.5858 C   0  0  0  0  0  0  0  0  0  0  0  0
  -19.1177  -31.1838   18.5959 C   0  0  0  0  0  0  0  0  0  0  0  0
  -29.4638  -11.8543   18.5751 C   0  0  0  0  0  0  0  0  0  0  0  0
  -20.6149  -31.4087   18.7821 C   0  0  0  0  0  0  0  0  0  0  0  0
  -28.0783  -11.6575   19.1876 C   0  0  0  0  0  0  0  0  0  0  0  0
  -31.1787  -18.2827   20.9336 C   0  0  0  0  0  0  0  0  0  0  0  0
  -29.1442  -17.9794   19.4670 C   0  0  0  0  0  0  0  0  0  0  0  0
  -31.3310  -22.3650   19.5743 C   0  0  0  0  0  0  0  0  0  0  0  0
  -30.4079  -12.5781   19.5300 C   0  0  0  0  0  0  0  0  0  0  0  0
  -30.8205  -16.9800   21.6437 C   0  0  0  0  0  0  0  0  0  0  0  0
  -28.8402  -16.6644   20.1910 C   0  0  0  0  0  0  0  0  0  0  0  0
  -28.4921  -13.6828   20.6398 C   0  0  0  0  0  0  0  0  0  0  0  0
  -31.5375  -23.6576   20.3541 C   0  0  0  0  0  0  0  0  0  0  0  0
  -29.4186  -23.2298   21.6519 C   0  0  0  0  0  0  0  0  0  0  0  0
  -21.4297  -30.4729   17.8812 C   0  0  1  0  0  0  0  0  0  0  0  0
  -22.2397  -27.3206   19.8408 C   0  0  1  0  0  0  0  0  0  0  0  0
  -27.5046  -12.9955   19.6848 C   0  0  2  0  0  0  0  0  0  0  0  0
  -29.9199  -18.9374   20.3685 C   0  0  0  0  0  0  0  0  0  0  0  0
  -30.5374  -21.3574   20.4014 C   0  0  1  0  0  0  0  0  0  0  0  0
  -29.2033  -21.9285   20.8822 C   0  0  2  0  0  0  0  0  0  0  0  0
  -21.7319  -24.4630   27.0227 C   0  0  0  0  0  0  0  0  0  0  0  0
  -21.9855  -30.0875   23.5341 C   0  0  0  0  0  0  0  0  0  0  0  0
  -22.0789  -28.9342   25.7543 C   0  0  0  0  0  0  0  0  0  0  0  0
  -20.0118  -28.7957   24.3649 C   0  0  0  0  0  0  0  0  0  0  0  0
  -22.8931  -22.6017   23.9141 C   0  0  0  0  0  0  0  0  0  0  0  0
  -26.9769  -22.2651   20.2093 C   0  0  0  0  0  0  0  0  0  0  0  0
  -30.3406  -25.5429   21.4624 C   0  0  0  0  0  0  0  0  0  0  0  0
  -29.0135  -26.2735   21.4070 C   0  0  0  0  0  0  0  0  0  1  0  0
  -22.0700  -27.5099   23.6561 C   0  0  1  0  0  0  0  0  0  0  0  0
  -21.8875  -24.2196   25.5296 C   0  0  2  0  0  0  0  0  0  0  0  0
  -21.5546  -28.8248   24.3066 C   0  0  0  0  0  0  0  0  0  0  0  0
  -25.8564  -11.6860   20.9696 N   0  0  0  0  0  0  0  0  0  0  0  0
  -26.1355  -12.8272   20.3171 N   0  0  0  0  0  0  0  0  0  0  0  0
  -22.6167  -27.2680   21.2548 N   0  0  0  0  0  0  0  0  0  0  0  0
  -29.8217  -13.8232   20.0264 N   0  0  0  0  0  0  0  0  0  0  0  0
  -30.0668  -16.0874   20.7610 N   0  0  0  0  0  0  0  0  0  0  0  0
  -25.2186  -14.9215   19.6975 N   0  0  0  0  0  0  0  0  0  0  0  0
  -21.8607  -12.9497   21.9851 N   0  0  0  0  0  0  0  0  0  0  0  0
  -21.4694  -29.1394   18.4420 N   0  0  0  0  0  0  0  0  0  0  0  0
  -21.6544  -26.2965   24.3513 N   0  0  0  0  0  0  0  0  0  0  0  0
  -30.1986  -24.2041   20.7917 N   0  3  1  0  0  0  0  0  0  0  0  0
  -30.3079  -20.1371   19.5825 N   0  3  0  0  0  0  0  0  0  0  0  0
  -22.6826  -22.9740   25.3368 N   0  3  0  0  0  0  0  0  0  0  0  0
  -22.4708  -14.8335   20.8285 O   0  0  0  0  0  0  0  0  0  0  0  0
  -23.2601  -29.4491   19.8980 O   0  0  0  0  0  0  0  0  0  0  0  0
  -20.4018  -27.3091   21.9819 O   0  0  0  0  0  0  0  0  0  0  0  0
  -23.7910  -25.4960   24.7651 O   0  0  0  0  0  0  0  0  0  0  0  0
  -31.8921  -14.8373   20.1092 O   0  0  0  0  0  0  0  0  0  0  0  0
  -21.9930   -7.8955   24.3245 O   0  0  0  0  0  0  0  0  0  0  0  0
  -28.6196  -26.4425   20.0518 O   0  0  0  0  0  0  0  0  0  1  0  0
  -28.3314  -22.2149   19.7892 O   0  0  0  0  0  0  0  0  0  0  0  0
  -22.4318   -2.6961   22.5418 F   0  0  0  0  0  0  0  0  0  0  0  0
  -19.7484   -6.4434   23.6204 F   0  0  0  0  0  0  0  0  0  0  0  0
  1  2  1  0  0  0  0
  1  5  2  0  0  0  0
  2  6  2  0  0  0  0
  3  8  2  0  0  0  0
  3 15  1  0  0  0  0
  4  9  1  0  0  0  0
  4 15  2  0  0  0  0
  5 17  1  0  0  0  0
  6 19  1  0  0  0  0
  7 10  2  0  0  0  0
  7 18  1  0  0  0  0
  8 21  1  0  0  0  0
  9 21  2  0  0  0  0
 10 22  1  0  0  0  0
 11 12  2  0  0  0  0
 11 23  1  0  0  0  0
 12 24  1  0  0  0  0
 13 20  1  0  0  0  0
 13 22  2  0  0  0  0
 14 24  2  0  0  0  0
 14 25  1  0  0  0  0
 15 26  1  0  0  0  0
 16 26  1  0  0  0  0
 16 27  2  0  0  0  0
 16 28  1  0  0  0  0
 17 19  2  0  0  0  0
 17 33  1  0  0  0  0
 18 20  2  0  0  0  0
 18 34  1  0  0  0  0
 19 49  1  0  0  0  0
 20 35  1  0  0  0  0
 21 83  1  0  0  0  0
 22 84  1  0  0  0  0
 23 25  2  0  0  0  0
 23 83  1  0  0  0  0
 24 86  1  0  0  0  0
 25 87  1  0  0  0  0
 26 66  2  0  0  0  0
 27 67  1  0  0  0  0
 27 71  1  0  0  0  0
 28 72  1  0  0  0  0
 28 78  2  0  0  0  0
 29 50  1  0  0  0  0
 29 73  1  0  0  0  0
 29 79  2  0  0  0  0
 30 63  1  0  0  0  0
 30 68  1  0  0  0  0
 30 80  2  0  0  0  0
 31 64  1  0  0  0  0
 31 74  1  0  0  0  0
 31 81  2  0  0  0  0
 32 69  1  0  0  0  0
 32 70  1  0  0  0  0
 32 82  2  0  0  0  0
 33 36  1  0  0  0  0
 34 50  1  0  0  0  0
 35 68  1  0  0  0  0
 36 38  1  0  0  0  0
 37 39  1  0  0  0  0
 37 43  1  0  0  0  0
 38 49  1  0  0  0  0
 39 51  1  0  0  0  0
 40 44  1  0  0  0  0
 40 52  1  0  0  0  0
 41 45  1  0  0  0  0
 41 52  1  0  0  0  0
 42 47  1  0  0  0  0
 42 53  1  0  0  0  0
 43 69  1  0  0  0  0
 44 70  1  0  0  0  0
 45 70  1  0  0  0  0
 46 51  1  0  0  0  0
 46 69  1  0  0  0  0
 47 75  1  0  0  0  0
 48 54  1  0  0  0  0
 48 75  1  0  0  0  0
 49 73  1  0  0  0  0
 50 68  1  0  0  0  0
 51 67  1  0  0  0  0
 52 76  1  0  0  0  0
 53 54  1  0  0  0  0
 53 76  1  0  0  0  0
 54 85  1  0  0  0  0
 55 64  1  0  0  0  0
 56 65  1  0  0  0  0
 57 65  1  0  0  0  0
 58 65  1  0  0  0  0
 59 77  1  0  0  0  0
 60 85  1  0  0  0  0
 61 62  1  0  0  0  0
 61 75  1  0  0  0  0
 62 84  1  0  0  0  0
 63 65  1  0  0  0  0
 63 74  1  0  0  0  0
 64 77  1  0  0  0  0
 66 67  1  0  0  0  0
M  CHG  3  75   1  76   1  77   1
M  ISO  4  32 100  62 101  70 100  84 101
M  END
> <Batch ID>
0132

> <Smiles>
CNC(C)C(=O)NC(C(=O)N1Cc2cc([101O:1][101CH2:1]CN3CCC(NC4CC[100N:0]([100C:0](=O)N5CCCC(n6nc(-c7ccc(Oc8ccc(F)cc8F)cc7)c(C(N)=O)c6N)C5)CC4)C(OC)C3)ccc2CC1C(=O)NC1CCCc2ccccc21)C(C)(C)C

> <Shape>
0.292

> <Color>
0.168

> <Negative vol penalty>
0.000

$$$$

  -OEChem-04052320523D

 84 93  0     1  0  0  0  0  0999 V2000
  -34.2512  -30.8704    9.6987 C   0  0  0  0  0  0  0  0  0  0  0  0
  -34.4400  -29.6636   10.3647 C   0  0  0  0  0  0  0  0  0  0  0  0
  -22.9992   -9.8996   19.9772 C   0  0  0  0  0  0  0  0  0  0  0  0
  -23.7353   -9.9363   22.2780 C   0  0  0  0  0  0  0  0  0  0  0  0
  -33.5649  -31.9105   10.3241 C   0  0  0  0  0  0  0  0  0  0  0  0
  -33.9436  -29.4967   11.6571 C   0  0  0  0  0  0  0  0  0  0  0  0
  -31.7031  -24.3489   14.1039 C   0  0  0  0  0  0  0  0  0  0  0  0
  -22.2345   -8.7631   20.2399 C   0  0  0  0  0  0  0  0  0  0  0  0
  -22.9706   -8.7997   22.5408 C   0  0  0  0  0  0  0  0  0  0  0  0
  -32.2669  -23.3837   14.9370 C   0  0  0  0  0  0  0  0  0  0  0  0
  -23.2144   -5.4640   22.0463 C   0  0  0  0  0  0  0  0  0  0  0  0
  -23.8061   -4.4423   22.7891 C   0  0  0  0  0  0  0  0  0  0  0  0
  -31.3167  -24.4940   16.8563 C   0  0  0  0  0  0  0  0  0  0  0  0
  -31.5012  -18.4361   19.9876 C   0  0  0  0  0  0  0  0  0  0  0  0
  -22.0900   -4.6736   24.4740 C   0  0  0  0  0  0  0  0  0  0  0  0
  -29.4366  -18.6940   20.8483 C   0  0  0  0  0  0  0  0  0  0  0  0
  -23.7496  -10.4863   20.9962 C   0  0  0  0  0  0  0  0  0  0  0  0
  -24.1328  -13.0031   20.8345 C   0  0  0  0  0  0  0  0  0  0  0  0
  -33.0514  -31.7529   11.6211 C   0  0  0  0  0  0  0  0  0  0  0  0
  -30.9497  -25.4019   14.6425 C   0  0  0  0  0  0  0  0  0  0  0  0
  -33.2509  -30.5362   12.3009 C   0  0  0  0  0  0  0  0  0  0  0  0
  -30.7423  -25.4699   16.0276 C   0  0  0  0  0  0  0  0  0  0  0  0
  -30.5878  -17.9450   20.9528 C   0  0  0  0  0  0  0  0  0  0  0  0
  -22.2202   -8.2131   21.5217 C   0  0  0  0  0  0  0  0  0  0  0  0
  -32.0762  -23.4577   16.3137 C   0  0  0  0  0  0  0  0  0  0  0  0
  -22.0606   -6.0905   22.5174 C   0  0  0  0  0  0  0  0  0  0  0  0
  -23.2439   -4.0471   24.0030 C   0  0  0  0  0  0  0  0  0  0  0  0
  -21.4984   -5.6953   23.7312 C   0  0  0  0  0  0  0  0  0  0  0  0
  -24.5402  -11.6600   20.7253 C   0  0  0  0  0  0  0  0  0  0  0  0
  -30.8803  -19.4704   19.3226 C   0  0  0  0  0  0  0  0  0  0  0  0
  -25.2404  -13.7286   20.4694 C   0  0  0  0  0  0  0  0  0  0  0  0
  -22.8664  -13.5464   21.2305 C   0  0  0  0  0  0  0  0  0  0  0  0
  -31.2321  -28.5676   14.6887 C   0  0  0  0  0  0  0  0  0  0  0  0
  -28.3067  -28.4183   16.0824 C   0  0  0  0  0  0  0  0  0  0  0  0
  -26.0398  -26.6011   17.8728 C   0  0  0  0  0  0  0  0  0  0  0  0
  -30.7374  -14.6647   20.6978 C   0  0  0  0  0  0  0  0  0  0  0  0
  -32.3576  -32.9220   12.2742 C   0  0  0  0  0  0  0  0  0  0  0  0
  -30.3259  -26.4201   13.7279 C   0  0  0  0  0  0  0  0  0  0  0  0
  -29.9247  -26.5688   16.6540 C   0  0  0  0  0  0  0  0  0  0  0  0
  -31.5372  -32.5350   13.5019 C   0  0  0  0  0  0  0  0  0  0  0  0
  -29.5869  -12.2554   18.3423 C   0  0  0  0  0  0  0  0  0  0  0  0
  -32.3417  -31.6130   14.4127 C   0  0  0  0  0  0  0  0  0  0  0  0
  -27.8388  -23.0045   20.0913 C   0  0  0  0  0  0  0  0  0  0  0  0
  -28.4083  -22.3905   21.3397 C   0  0  0  0  0  0  0  0  0  0  0  0
  -28.1405  -11.9922   18.7651 C   0  0  0  0  0  0  0  0  0  0  0  0
  -30.4949  -12.4836   19.5487 C   0  0  0  0  0  0  0  0  0  0  0  0
  -28.5907  -13.2694   20.9016 C   0  0  0  0  0  0  0  0  0  0  0  0
  -32.7058  -30.3082   13.6941 C   0  0  1  0  0  0  0  0  0  0  0  0
  -30.0071  -27.7371   14.4289 C   0  0  1  0  0  0  0  0  0  0  0  0
  -28.9329  -21.9779   19.9924 C   0  0  0  0  0  0  0  0  0  0  0  0
  -27.6262  -13.0888   19.7170 C   0  0  2  0  0  0  0  0  0  0  0  0
  -23.7528  -26.7601   18.8934 C   0  0  0  0  0  0  0  0  0  0  0  0
  -29.4405  -30.1110   18.3537 C   0  0  0  0  0  0  0  0  0  0  0  0
  -27.4678  -29.4430   19.7431 C   0  0  0  0  0  0  0  0  0  0  0  0
  -27.1277  -30.7390   17.6389 C   0  0  0  0  0  0  0  0  0  0  0  0
  -25.0110  -24.3901   16.1959 C   0  0  0  0  0  0  0  0  0  0  0  0
  -30.8247  -16.8360   21.8965 C   0  0  0  0  0  0  0  0  0  0  0  0
  -28.6348  -20.5915   19.4477 C   0  0  0  0  0  0  0  0  0  0  0  0
  -32.6345  -20.1785   17.6956 C   0  0  0  0  0  0  0  0  0  0  0  0
  -32.7945  -21.2073   16.5888 C   0  0  0  0  0  0  0  0  0  1  0  0
  -27.8027  -28.3064   17.5010 C   0  0  1  0  0  0  0  0  0  0  0  0
  -24.5558  -26.3571   17.6663 C   0  0  2  0  0  0  0  0  0  0  0  0
  -27.9768  -29.6301   18.2978 C   0  0  0  0  0  0  0  0  0  0  0  0
  -25.8076  -11.5368   20.3223 N   0  0  0  0  0  0  0  0  0  0  0  0
  -29.6259  -19.6184   19.8543 N   0  0  0  0  0  0  0  0  0  0  0  0
  -26.2062  -12.8117   20.1749 N   0  0  0  0  0  0  0  0  0  0  0  0
  -29.3407  -27.5441   15.7184 N   0  0  0  0  0  0  0  0  0  0  0  0
  -29.9516  -13.5365   20.4102 N   0  0  0  0  0  0  0  0  0  0  0  0
  -25.4727  -15.0551   20.3747 N   0  0  0  0  0  0  0  0  0  0  0  0
  -21.8367  -12.6595   21.5733 N   0  0  0  0  0  0  0  0  0  0  0  0
  -31.3244  -20.2867   18.2956 N   0  0  0  0  0  0  0  0  0  0  0  0
  -31.5648  -29.4188   13.6524 N   0  0  0  0  0  0  0  0  0  0  0  0
  -26.4229  -27.8416   17.4086 N   0  0  0  0  0  0  0  0  0  0  0  0
  -30.1444  -15.6179   21.5166 N   0  0  0  0  0  0  0  0  0  0  0  0
  -24.3013  -24.9148   17.3909 N   0  3  0  0  0  0  0  0  0  0  0  0
  -22.6492  -14.7814   21.2632 O   0  0  0  0  0  0  0  0  0  0  0  0
  -31.8301  -28.4462   15.7514 O   0  0  0  0  0  0  0  0  0  0  0  0
  -27.7966  -29.2458   15.3229 O   0  0  0  0  0  0  0  0  0  0  0  0
  -26.7839  -25.7753   18.3972 O   0  0  0  0  0  0  0  0  0  0  0  0
  -31.8807  -14.8140   20.2532 O   0  0  0  0  0  0  0  0  0  0  0  0
  -21.4740   -7.1041   21.7784 O   0  0  0  0  0  0  0  0  0  0  0  0
  -32.6259  -22.5172   17.1293 O   0  0  0  0  0  0  0  0  0  1  0  0
  -23.8113   -3.0649   24.7154 F   0  0  0  0  0  0  0  0  0  0  0  0
  -20.3894   -6.2927   24.1884 F   0  0  0  0  0  0  0  0  0  0  0  0
  1  2  1  0  0  0  0
  1  5  2  0  0  0  0
  2  6  2  0  0  0  0
  3  8  2  0  0  0  0
  3 17  1  0  0  0  0
  4  9  1  0  0  0  0
  4 17  2  0  0  0  0
  5 19  1  0  0  0  0
  6 21  1  0  0  0  0
  7 10  2  0  0  0  0
  7 20  1  0  0  0  0
  8 24  1  0  0  0  0
  9 24  2  0  0  0  0
 10 25  1  0  0  0  0
 11 12  2  0  0  0  0
 11 26  1  0  0  0  0
 12 27  1  0  0  0  0
 13 22  1  0  0  0  0
 13 25  2  0  0  0  0
 14 23  1  0  0  0  0
 14 30  2  0  0  0  0
 15 27  2  0  0  0  0
 15 28  1  0  0  0  0
 16 23  2  0  0  0  0
 16 65  1  0  0  0  0
 17 29  1  0  0  0  0
 18 29  1  0  0  0  0
 18 31  2  0  0  0  0
 18 32  1  0  0  0  0
 19 21  2  0  0  0  0
 19 37  1  0  0  0  0
 20 22  2  0  0  0  0
 20 38  1  0  0  0  0
 21 48  1  0  0  0  0
 22 39  1  0  0  0  0
 23 57  1  0  0  0  0
 24 81  1  0  0  0  0
 25 82  1  0  0  0  0
 26 28  2  0  0  0  0
 26 81  1  0  0  0  0
 27 83  1  0  0  0  0
 28 84  1  0  0  0  0
 29 64  2  0  0  0  0
 30 65  1  0  0  0  0
 30 71  1  0  0  0  0
 31 66  1  0  0  0  0
 31 69  1  0  0  0  0
 32 70  1  0  0  0  0
 32 76  2  0  0  0  0
 33 49  1  0  0  0  0
 33 72  1  0  0  0  0
 33 77  2  0  0  0  0
 34 61  1  0  0  0  0
 34 67  1  0  0  0  0
 34 78  2  0  0  0  0
 35 62  1  0  0  0  0
 35 73  1  0  0  0  0
 35 79  2  0  0  0  0
 36 68  1  0  0  0  0
 36 74  1  0  0  0  0
 36 80  2  0  0  0  0
 37 40  1  0  0  0  0
 38 49  1  0  0  0  0
 39 67  1  0  0  0  0
 40 42  1  0  0  0  0
 41 45  1  0  0  0  0
 41 46  1  0  0  0  0
 42 48  1  0  0  0  0
 43 44  1  0  0  0  0
 43 50  1  0  0  0  0
 44 50  1  0  0  0  0
 45 51  1  0  0  0  0
 46 68  1  0  0  0  0
 47 51  1  0  0  0  0
 47 68  1  0  0  0  0
 48 72  1  0  0  0  0
 49 67  1  0  0  0  0
 50 58  1  0  0  0  0
 51 66  1  0  0  0  0
 52 62  1  0  0  0  0
 53 63  1  0  0  0  0
 54 63  1  0  0  0  0
 55 63  1  0  0  0  0
 56 75  1  0  0  0  0
 57 74  1  0  0  0  0
 58 65  1  0  0  0  0
 59 60  1  0  0  0  0
 59 71  1  0  0  0  0
 60 82  1  0  0  0  0
 61 63  1  0  0  0  0
 61 73  1  0  0  0  0
 62 75  1  0  0  0  0
 64 66  1  0  0  0  0
M  CHG  1  75   1
M  ISO  4  36 100  60 101  74 100  82 101
M  END
> <Batch ID>
0132

> <Smiles>
CNC(C)C(=O)NC(C(=O)N1Cc2cc([101O:1][101CH2:1]CNc3cc(C[100NH:0][100C:0](=O)N4CCCC(n5nc(-c6ccc(Oc7ccc(F)cc7F)cc6)c(C(N)=O)c5N)C4)cn3CC3CC3)ccc2CC1C(=O)NC1CCCc2ccccc21)C(C)(C)C

> <Shape>
0.236

> <Color>
0.202

> <Negative vol penalty>
0.000

$$$$

  -OEChem-04052320523D

 87 96  0     1  0  0  0  0  0999 V2000
  -30.6873  -13.4273   21.4523 C   0  0  0  0  0  0  0  0  0  0  0  0
  -30.2798  -14.7302   21.7208 C   0  0  0  0  0  0  0  0  0  0  0  0
  -28.5635  -26.2375   19.3003 C   0  0  0  0  0  0  0  0  0  0  0  0
  -26.4250  -25.2844   18.7041 C   0  0  0  0  0  0  0  0  0  0  0  0
  -29.9714  -12.6472   20.5452 C   0  0  0  0  0  0  0  0  0  0  0  0
  -29.1568  -15.2540   21.0814 C   0  0  0  0  0  0  0  0  0  0  0  0
  -25.0940  -19.1960   23.4179 C   0  0  0  0  0  0  0  0  0  0  0  0
  -29.1382  -24.9669   19.2703 C   0  0  0  0  0  0  0  0  0  0  0  0
  -26.9997  -24.0138   18.6741 C   0  0  0  0  0  0  0  0  0  0  0  0
  -24.9529  -20.5780   23.2996 C   0  0  0  0  0  0  0  0  0  0  0  0
  -31.0893  -21.9288   19.7024 C   0  0  0  0  0  0  0  0  0  0  0  0
  -31.9417  -21.5760   20.7486 C   0  0  0  0  0  0  0  0  0  0  0  0
  -23.3485  -20.2564   21.5272 C   0  0  0  0  0  0  0  0  0  0  0  0
  -21.0815  -26.4077   23.7069 C   0  0  0  0  0  0  0  0  0  0  0  0
  -30.1393  -21.8970   22.3252 C   0  0  0  0  0  0  0  0  0  0  0  0
  -27.2069  -26.3963   19.0173 C   0  0  0  0  0  0  0  0  0  0  0  0
  -26.5046  -28.6186   17.9801 C   0  0  0  0  0  0  0  0  0  0  0  0
  -28.8334  -13.1584   19.9016 C   0  0  0  0  0  0  0  0  0  0  0  0
  -24.3703  -18.3326   22.5830 C   0  0  0  0  0  0  0  0  0  0  0  0
  -28.4258  -14.4804   20.1638 C   0  0  0  0  0  0  0  0  0  0  0  0
  -23.4802  -18.8638   21.6387 C   0  0  0  0  0  0  0  0  0  0  0  0
  -28.3563  -23.8551   18.9572 C   0  0  0  0  0  0  0  0  0  0  0  0
  -24.0823  -21.1085   22.3522 C   0  0  0  0  0  0  0  0  0  0  0  0
  -29.7620  -22.2658   19.9675 C   0  0  0  0  0  0  0  0  0  0  0  0
  -20.9828  -25.1007   23.1691 C   0  0  0  0  0  0  0  0  0  0  0  0
  -31.4667  -21.5601   22.0600 C   0  0  0  0  0  0  0  0  0  0  0  0
  -29.2870  -22.2499   21.2789 C   0  0  0  0  0  0  0  0  0  0  0  0
  -26.6126  -27.7085   19.0486 C   0  0  0  0  0  0  0  0  0  0  0  0
  -19.7674  -25.0108   22.5273 C   0  0  0  0  0  0  0  0  0  0  0  0
  -19.9233  -27.0766   23.3775 C   0  0  0  0  0  0  0  0  0  0  0  0
  -25.8672  -29.7086   18.5205 C   0  0  0  0  0  0  0  0  0  0  0  0
  -26.9414  -28.4901   16.6205 C   0  0  0  0  0  0  0  0  0  0  0  0
  -25.1410  -16.1561   20.3984 C   0  0  0  0  0  0  0  0  0  0  0  0
  -21.9484  -15.5822   20.4087 C   0  0  0  0  0  0  0  0  0  0  0  0
  -18.7989  -16.7382   21.0342 C   0  0  0  0  0  0  0  0  0  0  0  0
  -22.1785  -30.3744   23.1897 C   0  0  0  0  0  0  0  0  0  0  0  0
  -28.1195  -12.2933   18.8934 C   0  0  0  0  0  0  0  0  0  0  0  0
  -24.5137  -16.8437   22.7414 C   0  0  0  0  0  0  0  0  0  0  0  0
  -22.6651  -17.9795   20.7320 C   0  0  0  0  0  0  0  0  0  0  0  0
  -26.7222  -12.7963   18.5401 C   0  0  0  0  0  0  0  0  0  0  0  0
  -25.2845  -32.0330   22.6616 C   0  0  0  0  0  0  0  0  0  0  0  0
  -26.7481  -14.2968   18.2671 C   0  0  0  0  0  0  0  0  0  0  0  0
  -19.5609  -22.4047   22.3325 C   0  0  0  0  0  0  0  0  0  0  0  0
  -20.1966  -22.8786   21.0630 C   0  0  0  0  0  0  0  0  0  0  0  0
  -25.9673  -31.1948   21.5793 C   0  0  0  0  0  0  0  0  0  0  0  0
  -24.4855  -31.1626   23.6291 C   0  0  0  0  0  0  0  0  0  0  0  0
  -24.1907  -29.4242   21.9072 C   0  0  0  0  0  0  0  0  0  0  0  0
  -27.1983  -15.0758   19.5089 C   0  0  1  0  0  0  0  0  0  0  0  0
  -19.2251  -23.7804   21.7956 C   0  0  0  0  0  0  0  0  0  0  0  0
  -24.1125  -16.0684   21.4902 C   0  0  1  0  0  0  0  0  0  0  0  0
  -24.9630  -30.2631   20.8747 C   0  0  2  0  0  0  0  0  0  0  0  0
  -16.3881  -16.0527   20.9102 C   0  0  0  0  0  0  0  0  0  0  0  0
  -16.7298  -25.6571   22.7424 C   0  0  0  0  0  0  0  0  0  0  0  0
  -17.8031  -26.4598   20.5953 C   0  0  0  0  0  0  0  0  0  0  0  0
  -21.9942  -15.9774   17.3836 C   0  0  0  0  0  0  0  0  0  0  0  0
  -19.5040  -16.2282   17.4486 C   0  0  0  0  0  0  0  0  0  0  0  0
  -20.5591  -14.0849   18.1668 C   0  0  0  0  0  0  0  0  0  0  0  0
  -18.4356  -17.0647   23.9532 C   0  0  0  0  0  0  0  0  0  0  0  0
  -19.5081  -28.4603   23.6874 C   0  0  0  0  0  0  0  0  0  0  0  0
  -19.9273  -29.4942   22.6273 C   0  0  0  0  0  0  0  0  0  0  0  0
  -24.1362  -23.2357   23.4143 C   0  0  0  0  0  0  0  0  0  1  0  0
  -23.2725  -24.4795   23.3336 C   0  0  0  0  0  0  0  0  0  0  0  0
  -20.7623  -16.1238   19.6479 C   0  0  1  0  0  0  0  0  0  0  0  0
  -17.6308  -16.1237   21.7840 C   0  0  2  0  0  0  0  0  0  0  0  0
  -17.8248  -26.5281   22.1234 C   0  0  0  0  0  0  0  0  0  0  0  0
  -20.7216  -15.6206   18.1773 C   0  0  0  0  0  0  0  0  0  0  0  0
  -26.0861  -28.1794   20.1822 N   0  0  0  0  0  0  0  0  0  0  0  0
  -19.1318  -26.2176   22.6607 N   0  0  0  0  0  0  0  0  0  0  0  0
  -25.6412  -29.3974   19.8290 N   0  0  0  0  0  0  0  0  0  0  0  0
  -22.8450  -16.5306   20.9210 N   0  0  0  0  0  0  0  0  0  0  0  0
  -23.5507  -30.3042   22.8975 N   0  0  0  0  0  0  0  0  0  0  0  0
  -25.4836  -30.8933   17.9993 N   0  0  0  0  0  0  0  0  0  0  0  0
  -27.5791  -27.3038   16.2328 N   0  0  0  0  0  0  0  0  0  0  0  0
  -26.1143  -15.1773   20.4623 N   0  0  0  0  0  0  0  0  0  0  0  0
  -19.5816  -15.7764   20.4312 N   0  0  0  0  0  0  0  0  0  0  0  0
  -21.3613  -29.5318   22.4461 N   0  0  0  0  0  0  0  0  0  0  0  0
  -17.3090  -16.9320   22.9939 N   0  3  0  0  0  0  0  0  0  0  0  0
  -26.7859  -29.4069   15.7786 O   0  0  0  0  0  0  0  0  0  0  0  0
  -25.0569  -17.0451   19.5591 O   0  0  0  0  0  0  0  0  0  0  0  0
  -22.0709  -14.3628   20.5496 O   0  0  0  0  0  0  0  0  0  0  0  0
  -18.9952  -17.9505   20.9850 O   0  0  0  0  0  0  0  0  0  0  0  0
  -21.7154  -31.1357   24.0458 O   0  0  0  0  0  0  0  0  0  0  0  0
  -28.9168  -22.6151   18.9276 O   0  0  0  0  0  0  0  0  0  0  0  0
  -23.9432  -22.4570   22.2341 O   0  0  0  0  0  0  0  0  0  1  0  0
  -21.9062  -24.0921   23.2540 O   0  0  0  0  0  0  0  0  0  0  0  0
  -32.2848  -21.2198   23.0645 F   0  0  0  0  0  0  0  0  0  0  0  0
  -28.0124  -22.5715   21.5397 F   0  0  0  0  0  0  0  0  0  0  0  0
  1  2  1  0  0  0  0
  1  5  2  0  0  0  0
  2  6  2  0  0  0  0
  3  8  2  0  0  0  0
  3 16  1  0  0  0  0
  4  9  1  0  0  0  0
  4 16  2  0  0  0  0
  5 18  1  0  0  0  0
  6 20  1  0  0  0  0
  7 10  2  0  0  0  0
  7 19  1  0  0  0  0
  8 22  1  0  0  0  0
  9 22  2  0  0  0  0
 10 23  1  0  0  0  0
 11 12  2  0  0  0  0
 11 24  1  0  0  0  0
 12 26  1  0  0  0  0
 13 21  1  0  0  0  0
 13 23  2  0  0  0  0
 14 25  1  0  0  0  0
 14 30  2  0  0  0  0
 15 26  2  0  0  0  0
 15 27  1  0  0  0  0
 16 28  1  0  0  0  0
 17 28  1  0  0  0  0
 17 31  2  0  0  0  0
 17 32  1  0  0  0  0
 18 20  2  0  0  0  0
 18 37  1  0  0  0  0
 19 21  2  0  0  0  0
 19 38  1  0  0  0  0
 20 48  1  0  0  0  0
 21 39  1  0  0  0  0
 22 83  1  0  0  0  0
 23 84  1  0  0  0  0
 24 27  2  0  0  0  0
 24 83  1  0  0  0  0
 25 29  2  0  0  0  0
 25 85  1  0  0  0  0
 26 86  1  0  0  0  0
 27 87  1  0  0  0  0
 28 67  2  0  0  0  0
 29 49  1  0  0  0  0
 29 68  1  0  0  0  0
 30 59  1  0  0  0  0
 30 68  1  0  0  0  0
 31 69  1  0  0  0  0
 31 72  1  0  0  0  0
 32 73  1  0  0  0  0
 32 78  2  0  0  0  0
 33 50  1  0  0  0  0
 33 74  1  0  0  0  0
 33 79  2  0  0  0  0
 34 63  1  0  0  0  0
 34 70  1  0  0  0  0
 34 80  2  0  0  0  0
 35 64  1  0  0  0  0
 35 75  1  0  0  0  0
 35 81  2  0  0  0  0
 36 71  1  0  0  0  0
 36 76  1  0  0  0  0
 36 82  2  0  0  0  0
 37 40  1  0  0  0  0
 38 50  1  0  0  0  0
 39 70  1  0  0  0  0
 40 42  1  0  0  0  0
 41 45  1  0  0  0  0
 41 46  1  0  0  0  0
 42 48  1  0  0  0  0
 43 44  1  0  0  0  0
 43 49  1  0  0  0  0
 44 49  1  0  0  0  0
 45 51  1  0  0  0  0
 46 71  1  0  0  0  0
 47 51  1  0  0  0  0
 47 71  1  0  0  0  0
 48 74  1  0  0  0  0
 50 70  1  0  0  0  0
 51 69  1  0  0  0  0
 52 64  1  0  0  0  0
 53 65  1  0  0  0  0
 54 65  1  0  0  0  0
 55 66  1  0  0  0  0
 56 66  1  0  0  0  0
 57 66  1  0  0  0  0
 58 77  1  0  0  0  0
 59 60  1  0  0  0  0
 60 76  1  0  0  0  0
 61 62  1  0  0  0  0
 61 84  1  0  0  0  0
 62 85  1  0  0  0  0
 63 66  1  0  0  0  0
 63 75  1  0  0  0  0
 64 77  1  0  0  0  0
 65 68  1  0  0  0  0
 67 69  1  0  0  0  0
M  CHG  1  77   1
M  ISO  4  36 100  61 101  76 100  84 101
M  END
> <Batch ID>
0132

> <Smiles>
CNC(C)C(=O)NC(C(=O)N1Cc2cc([101O:1][101CH2:1]COc3cc(CC[100NH:0][100C:0](=O)N4CCCC(n5nc(-c6ccc(Oc7ccc(F)cc7F)cc6)c(C(N)=O)c5N)C4)n(C(C)C)c3C3CC3)ccc2CC1C(=O)NC1CCCc2ccccc21)C(C)(C)C

> <Shape>
0.211

> <Color>
0.074

> <Negative vol penalty>
0.000

$$$$

  -OEChem-04052320523D

 85 94  0     1  0  0  0  0  0999 V2000
  -30.9117  -33.2007   13.3559 C   0  0  0  0  0  0  0  0  0  0  0  0
  -30.7849  -31.8827   13.7828 C   0  0  0  0  0  0  0  0  0  0  0  0
  -22.9974   -9.9993   19.8741 C   0  0  0  0  0  0  0  0  0  0  0  0
  -23.9435   -9.6730   22.0731 C   0  0  0  0  0  0  0  0  0  0  0  0
  -30.7728  -34.2446   14.2697 C   0  0  0  0  0  0  0  0  0  0  0  0
  -30.5201  -31.6078   15.1240 C   0  0  0  0  0  0  0  0  0  0  0  0
  -27.1161  -27.0244   17.3401 C   0  0  0  0  0  0  0  0  0  0  0  0
  -22.2624   -8.8223   20.0157 C   0  0  0  0  0  0  0  0  0  0  0  0
  -23.2084   -8.4960   22.2147 C   0  0  0  0  0  0  0  0  0  0  0  0
  -27.4502  -25.7765   17.8645 C   0  0  0  0  0  0  0  0  0  0  0  0
  -20.0312   -7.6203   22.9621 C   0  0  0  0  0  0  0  0  0  0  0  0
  -19.3727   -7.4110   24.1738 C   0  0  0  0  0  0  0  0  0  0  0  0
  -29.3950  -18.5460   21.6685 C   0  0  0  0  0  0  0  0  0  0  0  0
  -27.8356  -20.3754   21.1946 C   0  0  0  0  0  0  0  0  0  0  0  0
  -29.6433  -21.4404   19.3574 C   0  0  0  0  0  0  0  0  0  0  0  0
  -27.3436  -26.6917   20.0939 C   0  0  0  0  0  0  0  0  0  0  0  0
  -31.5185  -18.4425   20.5250 C   0  0  0  0  0  0  0  0  0  0  0  0
  -20.6464   -5.3868   24.5163 C   0  0  0  0  0  0  0  0  0  0  0  0
  -29.0604  -19.7230   20.9791 C   0  0  0  0  0  0  0  0  0  0  0  0
  -29.9778  -20.2635   20.0468 C   0  0  0  0  0  0  0  0  0  0  0  0
  -23.8380  -10.4246   20.9028 C   0  0  0  0  0  0  0  0  0  0  0  0
  -24.2001  -12.9403   21.1213 C   0  0  0  0  0  0  0  0  0  0  0  0
  -30.4966  -33.9827   15.6209 C   0  0  0  0  0  0  0  0  0  0  0  0
  -26.9036  -28.1197   18.1895 C   0  0  0  0  0  0  0  0  0  0  0  0
  -30.3787  -32.6491   16.0569 C   0  0  0  0  0  0  0  0  0  0  0  0
  -27.0044  -27.9518   19.5779 C   0  0  0  0  0  0  0  0  0  0  0  0
  -30.6164  -17.9111   21.4418 C   0  0  0  0  0  0  0  0  0  0  0  0
  -27.5197  -21.5439   20.5009 C   0  0  0  0  0  0  0  0  0  0  0  0
  -28.4218  -22.0754   19.5840 C   0  0  0  0  0  0  0  0  0  0  0  0
  -31.2026  -19.6110   19.8312 C   0  0  0  0  0  0  0  0  0  0  0  0
  -22.3679   -8.0707   21.1860 C   0  0  0  0  0  0  0  0  0  0  0  0
  -27.5668  -25.6107   19.2414 C   0  0  0  0  0  0  0  0  0  0  0  0
  -20.9972   -6.7127   22.5274 C   0  0  0  0  0  0  0  0  0  0  0  0
  -19.6803   -6.2943   24.9509 C   0  0  0  0  0  0  0  0  0  0  0  0
  -21.3048   -5.5960   23.3046 C   0  0  0  0  0  0  0  0  0  0  0  0
  -24.5980  -11.6400   20.7570 C   0  0  0  0  0  0  0  0  0  0  0  0
  -25.2679  -13.7342   20.7806 C   0  0  0  0  0  0  0  0  0  0  0  0
  -22.9749  -13.3903   21.7147 C   0  0  0  0  0  0  0  0  0  0  0  0
  -28.2930  -30.9504   18.5901 C   0  0  0  0  0  0  0  0  0  0  0  0
  -25.8313  -31.4316   20.6470 C   0  0  0  0  0  0  0  0  0  0  0  0
  -23.4574  -30.0783   22.6915 C   0  0  0  0  0  0  0  0  0  0  0  0
  -30.7608  -14.7133   20.6574 C   0  0  0  0  0  0  0  0  0  0  0  0
  -30.4017  -35.1423   16.5805 C   0  0  0  0  0  0  0  0  0  0  0  0
  -26.5177  -29.4528   17.6095 C   0  0  0  0  0  0  0  0  0  0  0  0
  -26.7663  -29.0910   20.5339 C   0  0  0  0  0  0  0  0  0  0  0  0
  -29.7501  -34.7791   17.9123 C   0  0  0  0  0  0  0  0  0  0  0  0
  -29.4011  -12.7010   18.0538 C   0  0  0  0  0  0  0  0  0  0  0  0
  -30.3348  -33.4793   18.4558 C   0  0  0  0  0  0  0  0  0  0  0  0
  -28.0006  -12.3480   18.5578 C   0  0  0  0  0  0  0  0  0  0  0  0
  -30.4166  -12.7448   19.1935 C   0  0  0  0  0  0  0  0  0  0  0  0
  -28.6446  -13.2675   20.8247 C   0  0  0  0  0  0  0  0  0  0  0  0
  -30.0671  -32.3114   17.4988 C   0  0  1  0  0  0  0  0  0  0  0  0
  -26.8277  -30.6215   18.5398 C   0  0  1  0  0  0  0  0  0  0  0  0
  -27.5748  -13.2660   19.7194 C   0  0  2  0  0  0  0  0  0  0  0  0
  -26.2065  -22.2066   20.7595 C   0  0  0  0  0  0  0  0  0  0  0  0
  -32.2182  -20.1288   18.8601 C   0  0  0  0  0  0  0  0  0  0  0  0
  -21.6173  -30.7243   24.2708 C   0  0  0  0  0  0  0  0  0  0  0  0
  -27.9059  -32.1570   22.7636 C   0  0  0  0  0  0  0  0  0  0  0  0
  -26.1313  -31.8606   24.5046 C   0  0  0  0  0  0  0  0  0  0  0  0
  -25.8746  -33.6158   22.7507 C   0  0  0  0  0  0  0  0  0  0  0  0
  -21.4096  -28.7134   21.0476 C   0  0  0  0  0  0  0  0  0  0  0  0
  -30.9549  -16.6615   22.1825 C   0  0  0  0  0  0  0  0  0  0  0  0
  -28.1027  -23.3310   18.8271 C   0  0  0  0  0  0  0  0  0  1  0  0
  -25.6035  -31.1829   22.1185 C   0  0  1  0  0  0  0  0  0  0  0  0
  -21.9732  -30.3619   22.8374 C   0  0  2  0  0  0  0  0  0  0  0  0
  -26.3853  -32.1829   23.0165 C   0  0  0  0  0  0  0  0  0  0  0  0
  -25.8229  -11.6055   20.2254 N   0  0  0  0  0  0  0  0  0  0  0  0
  -26.2038  -12.8940   20.2532 N   0  0  0  0  0  0  0  0  0  0  0  0
  -26.3976  -30.3764   19.9179 N   0  0  0  0  0  0  0  0  0  0  0  0
  -29.9536  -13.6340   20.2616 N   0  0  0  0  0  0  0  0  0  0  0  0
  -25.4881  -15.0621   20.8837 N   0  0  0  0  0  0  0  0  0  0  0  0
  -21.9830  -12.4421   22.0000 N   0  0  0  0  0  0  0  0  0  0  0  0
  -28.6998  -31.8551   17.6281 N   0  0  0  0  0  0  0  0  0  0  0  0
  -24.1584  -31.2052   22.3173 N   0  0  0  0  0  0  0  0  0  0  0  0
  -30.2445  -15.5103   21.6718 N   0  0  0  0  0  0  0  0  0  0  0  0
  -21.1761  -29.1660   22.4432 N   0  3  0  0  0  0  0  0  0  0  0  0
  -22.7595  -14.5996   21.9689 O   0  0  0  0  0  0  0  0  0  0  0  0
  -29.0017  -30.4236   19.4398 O   0  0  0  0  0  0  0  0  0  0  0  0
  -25.5118  -32.5194   20.1610 O   0  0  0  0  0  0  0  0  0  0  0  0
  -23.9465  -28.9690   22.8932 O   0  0  0  0  0  0  0  0  0  0  0  0
  -31.8576  -14.9524   20.1410 O   0  0  0  0  0  0  0  0  0  0  0  0
  -21.6506   -6.9223   21.3246 O   0  0  0  0  0  0  0  0  0  0  0  0
  -27.8934  -24.3939   19.7559 O   0  0  0  0  0  0  0  0  0  1  0  0
  -19.0490   -6.0943   26.1152 F   0  0  0  0  0  0  0  0  0  0  0  0
  -22.2328   -4.7213   22.8928 F   0  0  0  0  0  0  0  0  0  0  0  0
  1  2  1  0  0  0  0
  1  5  2  0  0  0  0
  2  6  2  0  0  0  0
  3  8  2  0  0  0  0
  3 21  1  0  0  0  0
  4  9  1  0  0  0  0
  4 21  2  0  0  0  0
  5 23  1  0  0  0  0
  6 25  1  0  0  0  0
  7 10  2  0  0  0  0
  7 24  1  0  0  0  0
  8 31  1  0  0  0  0
  9 31  2  0  0  0  0
 10 32  1  0  0  0  0
 11 12  2  0  0  0  0
 11 33  1  0  0  0  0
 12 34  1  0  0  0  0
 13 19  1  0  0  0  0
 13 27  2  0  0  0  0
 14 19  2  0  0  0  0
 14 28  1  0  0  0  0
 15 20  2  0  0  0  0
 15 29  1  0  0  0  0
 16 26  1  0  0  0  0
 16 32  2  0  0  0  0
 17 27  1  0  0  0  0
 17 30  2  0  0  0  0
 18 34  2  0  0  0  0
 18 35  1  0  0  0  0
 19 20  1  0  0  0  0
 20 30  1  0  0  0  0
 21 36  1  0  0  0  0
 22 36  1  0  0  0  0
 22 37  2  0  0  0  0
 22 38  1  0  0  0  0
 23 25  2  0  0  0  0
 23 43  1  0  0  0  0
 24 26  2  0  0  0  0
 24 44  1  0  0  0  0
 25 52  1  0  0  0  0
 26 45  1  0  0  0  0
 27 62  1  0  0  0  0
 28 29  2  0  0  0  0
 28 55  1  0  0  0  0
 29 63  1  0  0  0  0
 30 56  1  0  0  0  0
 31 82  1  0  0  0  0
 32 83  1  0  0  0  0
 33 35  2  0  0  0  0
 33 82  1  0  0  0  0
 34 84  1  0  0  0  0
 35 85  1  0  0  0  0
 36 67  2  0  0  0  0
 37 68  1  0  0  0  0
 37 71  1  0  0  0  0
 38 72  1  0  0  0  0
 38 77  2  0  0  0  0
 39 53  1  0  0  0  0
 39 73  1  0  0  0  0
 39 78  2  0  0  0  0
 40 64  1  0  0  0  0
 40 69  1  0  0  0  0
 40 79  2  0  0  0  0
 41 65  1  0  0  0  0
 41 74  1  0  0  0  0
 41 80  2  0  0  0  0
 42 70  1  0  0  0  0
 42 75  1  0  0  0  0
 42 81  2  0  0  0  0
 43 46  1  0  0  0  0
 44 53  1  0  0  0  0
 45 69  1  0  0  0  0
 46 48  1  0  0  0  0
 47 49  1  0  0  0  0
 47 50  1  0  0  0  0
 48 52  1  0  0  0  0
 49 54  1  0  0  0  0
 50 70  1  0  0  0  0
 51 54  1  0  0  0  0
 51 70  1  0  0  0  0
 52 73  1  0  0  0  0
 53 69  1  0  0  0  0
 54 68  1  0  0  0  0
 57 65  1  0  0  0  0
 58 66  1  0  0  0  0
 59 66  1  0  0  0  0
 60 66  1  0  0  0  0
 61 76  1  0  0  0  0
 62 75  1  0  0  0  0
 63 83  1  0  0  0  0
 64 66  1  0  0  0  0
 64 74  1  0  0  0  0
 65 76  1  0  0  0  0
 67 68  1  0  0  0  0
M  CHG  1  76   1
M  ISO  4  42 100  63 101  75 100  83 101
M  END
> <Batch ID>
0132

> <Smiles>
CNC(C)C(=O)NC(C(=O)N1Cc2cc([101O:1][101CH2:1]c3cc4c(C)cc(C[100NH:0][100C:0](=O)N5CCCC(n6nc(-c7ccc(Oc8ccc(F)cc8F)cc7)c(C(N)=O)c6N)C5)cc4cc3C)ccc2CC1C(=O)NC1CCCc2ccccc21)C(C)(C)C

> <Shape>
0.334

> <Color>
0.220

> <Negative vol penalty>
0.000

$$$$

  -OEChem-04052320523D

 86 95  0     1  0  0  0  0  0999 V2000
  -19.5128  -29.5131   26.0672 C   0  0  0  0  0  0  0  0  0  0  0  0
  -20.8368  -29.2225   25.7544 C   0  0  0  0  0  0  0  0  0  0  0  0
  -31.5433  -21.7968   19.5324 C   0  0  0  0  0  0  0  0  0  0  0  0
  -22.0715  -10.1155   23.3709 C   0  0  0  0  0  0  0  0  0  0  0  0
  -23.8039  -10.1333   21.6870 C   0  0  0  0  0  0  0  0  0  0  0  0
  -18.4890  -29.0936   25.2187 C   0  0  0  0  0  0  0  0  0  0  0  0
  -21.1378  -28.5113   24.5934 C   0  0  0  0  0  0  0  0  0  0  0  0
  -30.6648  -21.0025   18.7955 C   0  0  0  0  0  0  0  0  0  0  0  0
  -26.0505  -29.2265   21.0073 C   0  0  0  0  0  0  0  0  0  0  0  0
  -31.0643  -22.9091   20.2247 C   0  0  0  0  0  0  0  0  0  0  0  0
  -21.6663   -8.8521   22.9406 C   0  0  0  0  0  0  0  0  0  0  0  0
  -23.3987   -8.8699   21.2568 C   0  0  0  0  0  0  0  0  0  0  0  0
  -27.2568  -28.5331   20.9198 C   0  0  0  0  0  0  0  0  0  0  0  0
  -22.6845   -5.6492   23.3115 C   0  0  0  0  0  0  0  0  0  0  0  0
  -22.4253   -4.6850   24.2855 C   0  0  0  0  0  0  0  0  0  0  0  0
  -28.8284  -22.4327   19.4430 C   0  0  0  0  0  0  0  0  0  0  0  0
  -26.3578  -27.2091   19.1148 C   0  0  0  0  0  0  0  0  0  0  0  0
  -20.1488   -4.5011   23.4977 C   0  0  0  0  0  0  0  0  0  0  0  0
  -23.1403  -10.7562   22.7440 C   0  0  0  0  0  0  0  0  0  0  0  0
  -24.0194  -12.4165   24.4698 C   0  0  0  0  0  0  0  0  0  0  0  0
  -29.3074  -21.3204   18.7508 C   0  0  0  0  0  0  0  0  0  0  0  0
  -18.7783  -28.3853   24.0418 C   0  0  0  0  0  0  0  0  0  0  0  0
  -24.9832  -28.9085   20.1551 C   0  0  0  0  0  0  0  0  0  0  0  0
  -20.1169  -28.0808   23.7291 C   0  0  0  0  0  0  0  0  0  0  0  0
  -25.1399  -27.9017   19.1918 C   0  0  0  0  0  0  0  0  0  0  0  0
  -22.3299   -8.2292   21.8836 C   0  0  0  0  0  0  0  0  0  0  0  0
  -29.7069  -23.2270   20.1799 C   0  0  0  0  0  0  0  0  0  0  0  0
  -27.4097  -27.5222   19.9754 C   0  0  0  0  0  0  0  0  0  0  0  0
  -21.6758   -6.0394   22.4306 C   0  0  0  0  0  0  0  0  0  0  0  0
  -21.1575   -4.1109   24.3786 C   0  0  0  0  0  0  0  0  0  0  0  0
  -20.4079   -5.4654   22.5237 C   0  0  0  0  0  0  0  0  0  0  0  0
  -23.5590  -12.0616   23.1876 C   0  0  0  0  0  0  0  0  0  0  0  0
  -24.2872  -13.7606   24.3785 C   0  0  0  0  0  0  0  0  0  0  0  0
  -24.1899  -11.6039   25.6387 C   0  0  0  0  0  0  0  0  0  0  0  0
  -22.0234  -27.8280   20.5740 C   0  0  0  0  0  0  0  0  0  0  0  0
  -21.8010  -28.3406   17.3787 C   0  0  0  0  0  0  0  0  0  0  0  0
  -23.3939  -28.6530   14.3768 C   0  0  0  0  0  0  0  0  0  0  0  0
  -25.5246  -17.1138   19.5331 C   0  0  0  0  0  0  0  0  0  0  0  0
  -17.6348  -27.9116   23.1800 C   0  0  0  0  0  0  0  0  0  0  0  0
  -23.6975  -29.6839   20.2444 C   0  0  0  0  0  0  0  0  0  0  0  0
  -24.0316  -27.5356   18.2399 C   0  0  0  0  0  0  0  0  0  0  0  0
  -18.0639  -27.4882   21.7775 C   0  0  0  0  0  0  0  0  0  0  0  0
  -26.7453  -20.3610   15.9932 C   0  0  0  0  0  0  0  0  0  0  0  0
  -22.1716  -16.7678   21.3815 C   0  0  0  0  0  0  0  0  0  0  0  0
  -27.6943  -21.2430   16.8018 C   0  0  0  0  0  0  0  0  0  0  0  0
  -19.2959  -26.5912   21.8441 C   0  0  0  0  0  0  0  0  0  0  0  0
  -22.8300  -16.3479   22.6924 C   0  0  0  0  0  0  0  0  0  0  0  0
  -25.6945  -19.6997   16.8823 C   0  0  0  0  0  0  0  0  0  0  0  0
  -27.2880  -19.7942   18.8443 C   0  0  0  0  0  0  0  0  0  0  0  0
  -23.1812  -17.4351   20.4527 C   0  0  0  0  0  0  0  0  0  0  0  0
  -24.4988  -15.3866   20.9911 C   0  0  0  0  0  0  0  0  0  0  0  0
  -28.3516  -20.4561   17.9484 C   0  0  2  0  0  0  0  0  0  0  0  0
  -20.4852  -27.3329   22.4661 C   0  0  1  0  0  0  0  0  0  0  0  0
  -22.5030  -28.9284   19.6703 C   0  0  1  0  0  0  0  0  0  0  0  0
  -24.0989  -15.4955   22.4732 C   0  0  2  0  0  0  0  0  0  0  0  0
  -26.3406  -18.9107   18.0244 C   0  0  1  0  0  0  0  0  0  0  0  0
  -22.9428  -29.0309   11.9373 C   0  0  0  0  0  0  0  0  0  0  0  0
  -20.8637  -25.4497   17.1067 C   0  0  0  0  0  0  0  0  0  0  0  0
  -21.3432  -25.5983   14.6539 C   0  0  0  0  0  0  0  0  0  0  0  0
  -19.6241  -27.0869   15.6793 C   0  0  0  0  0  0  0  0  0  0  0  0
  -24.9644  -31.1614   14.3560 C   0  0  0  0  0  0  0  0  0  0  0  0
  -30.1362  -25.4088   21.0232 C   0  0  0  0  0  0  0  0  0  0  0  0
  -29.3435  -26.6999   21.0890 C   0  0  0  0  0  0  0  0  0  1  0  0
  -22.0720  -27.5176   16.1425 C   0  0  1  0  0  0  0  0  0  0  0  0
  -23.2662  -29.6856   13.2713 C   0  0  2  0  0  0  0  0  0  0  0  0
  -20.9962  -26.4185   15.9147 C   0  0  0  0  0  0  0  0  0  0  0  0
  -23.5342  -13.0966   22.3438 N   0  0  0  0  0  0  0  0  0  0  0  0
  -23.9824  -14.1152   23.0973 N   0  0  0  0  0  0  0  0  0  0  0  0
  -22.7915  -28.3183   18.3707 N   0  0  0  0  0  0  0  0  0  0  0  0
  -24.4363  -16.6850   20.3176 N   0  0  0  0  0  0  0  0  0  0  0  0
  -24.7511  -14.6618   25.2701 N   0  0  0  0  0  0  0  0  0  0  0  0
  -25.4247  -10.9718   25.8386 N   0  0  0  0  0  0  0  0  0  0  0  0
  -21.0812  -28.2315   21.5008 N   0  0  0  0  0  0  0  0  0  0  0  0
  -22.2002  -28.4656   15.0410 N   0  0  0  0  0  0  0  0  0  0  0  0
  -25.3288  -18.3247   18.8738 N   0  0  0  0  0  0  0  0  0  0  0  0
  -24.5385  -30.4476   13.1247 N   0  3  0  0  0  0  0  0  0  0  0  0
  -23.2690  -11.4299   26.4724 O   0  0  0  0  0  0  0  0  0  0  0  0
  -22.4737  -26.6962   20.4395 O   0  0  0  0  0  0  0  0  0  0  0  0
  -20.7523  -28.9853   17.4581 O   0  0  0  0  0  0  0  0  0  0  0  0
  -24.4463  -28.0683   14.6237 O   0  0  0  0  0  0  0  0  0  0  0  0
  -26.5748  -16.4732   19.4281 O   0  0  0  0  0  0  0  0  0  0  0  0
  -21.9349   -6.9963   21.4637 O   0  0  0  0  0  0  0  0  0  0  0  0
  -29.2364  -24.3191   20.8604 O   0  0  0  0  0  0  0  0  0  0  0  0
  -28.5859  -26.8434   19.8882 O   0  0  0  0  0  0  0  0  0  1  0  0
  -20.9092   -3.1838   25.3130 F   0  0  0  0  0  0  0  0  0  0  0  0
  -19.4352   -5.8354   21.6795 F   0  0  0  0  0  0  0  0  0  0  0  0
  1  2  1  0  0  0  0
  1  6  2  0  0  0  0
  2  7  2  0  0  0  0
  3  8  1  0  0  0  0
  3 10  2  0  0  0  0
  4 11  2  0  0  0  0
  4 19  1  0  0  0  0
  5 12  1  0  0  0  0
  5 19  2  0  0  0  0
  6 22  1  0  0  0  0
  7 24  1  0  0  0  0
  8 21  2  0  0  0  0
  9 13  2  0  0  0  0
  9 23  1  0  0  0  0
 10 27  1  0  0  0  0
 11 26  1  0  0  0  0
 12 26  2  0  0  0  0
 13 28  1  0  0  0  0
 14 15  2  0  0  0  0
 14 29  1  0  0  0  0
 15 30  1  0  0  0  0
 16 21  1  0  0  0  0
 16 27  2  0  0  0  0
 17 25  1  0  0  0  0
 17 28  2  0  0  0  0
 18 30  2  0  0  0  0
 18 31  1  0  0  0  0
 19 32  1  0  0  0  0
 20 32  1  0  0  0  0
 20 33  2  0  0  0  0
 20 34  1  0  0  0  0
 21 52  1  0  0  0  0
 22 24  2  0  0  0  0
 22 39  1  0  0  0  0
 23 25  2  0  0  0  0
 23 40  1  0  0  0  0
 24 53  1  0  0  0  0
 25 41  1  0  0  0  0
 26 82  1  0  0  0  0
 27 83  1  0  0  0  0
 28 84  1  0  0  0  0
 29 31  2  0  0  0  0
 29 82  1  0  0  0  0
 30 85  1  0  0  0  0
 31 86  1  0  0  0  0
 32 67  2  0  0  0  0
 33 68  1  0  0  0  0
 33 71  1  0  0  0  0
 34 72  1  0  0  0  0
 34 77  2  0  0  0  0
 35 54  1  0  0  0  0
 35 73  1  0  0  0  0
 35 78  2  0  0  0  0
 36 64  1  0  0  0  0
 36 69  1  0  0  0  0
 36 79  2  0  0  0  0
 37 65  1  0  0  0  0
 37 74  1  0  0  0  0
 37 80  2  0  0  0  0
 38 70  1  0  0  0  0
 38 75  1  0  0  0  0
 38 81  2  0  0  0  0
 39 42  1  0  0  0  0
 40 54  1  0  0  0  0
 41 69  1  0  0  0  0
 42 46  1  0  0  0  0
 43 45  1  0  0  0  0
 43 48  1  0  0  0  0
 44 47  1  0  0  0  0
 44 50  1  0  0  0  0
 45 52  1  0  0  0  0
 46 53  1  0  0  0  0
 47 55  1  0  0  0  0
 48 56  1  0  0  0  0
 49 52  1  0  0  0  0
 49 56  1  0  0  0  0
 50 70  1  0  0  0  0
 51 55  1  0  0  0  0
 51 70  1  0  0  0  0
 53 73  1  0  0  0  0
 54 69  1  0  0  0  0
 55 68  1  0  0  0  0
 56 75  1  0  0  0  0
 57 65  1  0  0  0  0
 58 66  1  0  0  0  0
 59 66  1  0  0  0  0
 60 66  1  0  0  0  0
 61 76  1  0  0  0  0
 62 63  1  0  0  0  0
 62 83  1  0  0  0  0
 63 84  1  0  0  0  0
 64 66  1  0  0  0  0
 64 74  1  0  0  0  0
 65 76  1  0  0  0  0
 67 68  1  0  0  0  0
M  CHG  1  76   1
M  ISO  4  38 100  63 101  75 100  84 101
M  END
> <Batch ID>
0132

> <Smiles>
CNC(C)C(=O)NC(C(=O)N1Cc2cc([101O:1][101CH2:1]COc3cccc(C4CCCC([100NH:0][100C:0](=O)N5CCCC(n6nc(-c7ccc(Oc8ccc(F)cc8F)cc7)c(C(N)=O)c6N)C5)C4)c3)ccc2CC1C(=O)NC1CCCc2ccccc21)C(C)(C)C

> <Shape>
0.212

> <Color>
0.097

> <Negative vol penalty>
0.000

$$$$

  -OEChem-04052320523D

 88 97  0     1  0  0  0  0  0999 V2000
  -20.3711  -33.0354   21.5673 C   0  0  0  0  0  0  0  0  0  0  0  0
  -20.7098  -31.8448   20.9323 C   0  0  0  0  0  0  0  0  0  0  0  0
  -23.1402   -9.7146   19.9942 C   0  0  0  0  0  0  0  0  0  0  0  0
  -23.7988   -9.8813   22.3127 C   0  0  0  0  0  0  0  0  0  0  0  0
  -21.2715  -34.0999   21.5764 C   0  0  0  0  0  0  0  0  0  0  0  0
  -21.9488  -31.7184   20.3052 C   0  0  0  0  0  0  0  0  0  0  0  0
  -24.2119  -27.3092   21.3455 C   0  0  0  0  0  0  0  0  0  0  0  0
  -22.4143   -8.5592   20.2835 C   0  0  0  0  0  0  0  0  0  0  0  0
  -23.0729   -8.7259   22.6020 C   0  0  0  0  0  0  0  0  0  0  0  0
  -23.7581  -26.1832   20.6600 C   0  0  0  0  0  0  0  0  0  0  0  0
  -19.8418   -7.8796   23.1162 C   0  0  0  0  0  0  0  0  0  0  0  0
  -19.0356   -7.8905   24.2544 C   0  0  0  0  0  0  0  0  0  0  0  0
  -25.6259  -26.3610   19.1437 C   0  0  0  0  0  0  0  0  0  0  0  0
  -27.1702  -19.5439   19.5574 C   0  0  0  0  0  0  0  0  0  0  0  0
  -20.2903   -6.0355   25.1609 C   0  0  0  0  0  0  0  0  0  0  0  0
  -28.9343  -20.7882   17.8885 C   0  0  0  0  0  0  0  0  0  0  0  0
  -23.8325  -10.3757   21.0088 C   0  0  0  0  0  0  0  0  0  0  0  0
  -24.1179  -12.8971   20.7474 C   0  0  0  0  0  0  0  0  0  0  0  0
  -22.5260  -33.9831   20.9574 C   0  0  0  0  0  0  0  0  0  0  0  0
  -25.3721  -27.9771   20.9280 C   0  0  0  0  0  0  0  0  0  0  0  0
  -22.8663  -32.7827   20.3049 C   0  0  0  0  0  0  0  0  0  0  0  0
  -26.0937  -27.4937   19.8273 C   0  0  0  0  0  0  0  0  0  0  0  0
  -27.5861  -21.0766   17.7512 C   0  0  0  0  0  0  0  0  0  0  0  0
  -26.6938  -20.4383   18.6054 C   0  0  0  0  0  0  0  0  0  0  0  0
  -22.3806   -8.0648   21.5873 C   0  0  0  0  0  0  0  0  0  0  0  0
  -24.4635  -25.7106   19.5572 C   0  0  0  0  0  0  0  0  0  0  0  0
  -20.8722   -6.9465   23.0003 C   0  0  0  0  0  0  0  0  0  0  0  0
  -19.2599   -6.9685   25.2768 C   0  0  0  0  0  0  0  0  0  0  0  0
  -21.0965   -6.0245   24.0227 C   0  0  0  0  0  0  0  0  0  0  0  0
  -24.5830  -11.5689   20.7106 C   0  0  0  0  0  0  0  0  0  0  0  0
  -28.5371  -19.3240   19.6137 C   0  0  0  0  0  0  0  0  0  0  0  0
  -25.2063  -13.6523   20.3848 C   0  0  0  0  0  0  0  0  0  0  0  0
  -22.8181  -13.4031   21.0797 C   0  0  0  0  0  0  0  0  0  0  0  0
  -26.0167  -30.9026   19.8652 C   0  0  0  0  0  0  0  0  0  0  0  0
  -29.0859  -29.8668   20.0366 C   0  0  0  0  0  0  0  0  0  0  0  0
  -31.2592  -27.2356   20.0491 C   0  0  0  0  0  0  0  0  0  0  0  0
  -30.6502  -14.8281   20.7405 C   0  0  0  0  0  0  0  0  0  0  0  0
  -23.4472  -35.1773   20.9526 C   0  0  0  0  0  0  0  0  0  0  0  0
  -25.8632  -29.1745   21.6945 C   0  0  0  0  0  0  0  0  0  0  0  0
  -27.3563  -28.1627   19.3510 C   0  0  0  0  0  0  0  0  0  0  0  0
  -24.8890  -34.8330   20.5880 C   0  0  0  0  0  0  0  0  0  0  0  0
  -29.6762  -12.2732   18.4600 C   0  0  0  0  0  0  0  0  0  0  0  0
  -28.0832  -23.1026   16.2274 C   0  0  0  0  0  0  0  0  0  0  0  0
  -26.9246  -23.4867   17.0937 C   0  0  0  0  0  0  0  0  0  0  0  0
  -24.9276  -33.9263   19.3619 C   0  0  0  0  0  0  0  0  0  0  0  0
  -28.2288  -11.9678   18.8493 C   0  0  0  0  0  0  0  0  0  0  0  0
  -30.5344  -12.5912   19.6825 C   0  0  0  0  0  0  0  0  0  0  0  0
  -28.5567  -13.3537   20.9399 C   0  0  0  0  0  0  0  0  0  0  0  0
  -27.1287  -22.0426   16.7138 C   0  0  0  0  0  0  0  0  0  0  0  0
  -24.2107  -32.5985   19.6349 C   0  0  1  0  0  0  0  0  0  0  0  0
  -26.7728  -30.0799   20.8697 C   0  0  1  0  0  0  0  0  0  0  0  0
  -27.6394  -13.0817   19.7353 C   0  0  2  0  0  0  0  0  0  0  0  0
  -33.7092  -26.7048   20.1634 C   0  0  0  0  0  0  0  0  0  0  0  0
  -30.1333  -17.5191   23.2153 C   0  0  0  0  0  0  0  0  0  0  0  0
  -29.4032  -30.7154   17.1230 C   0  0  0  0  0  0  0  0  0  0  0  0
  -31.4844  -29.3276   17.0182 C   0  0  0  0  0  0  0  0  0  0  0  0
  -31.3554  -31.2624   18.5875 C   0  0  0  0  0  0  0  0  0  0  0  0
  -30.9282  -25.7017   22.5584 C   0  0  0  0  0  0  0  0  0  0  0  0
  -25.2182  -20.6964   18.5181 C   0  0  0  0  0  0  0  0  0  0  0  0
  -30.3906  -18.0986   20.7488 C   0  0  0  0  0  0  0  0  0  0  0  0
  -23.3077  -23.6338   19.6397 C   0  0  0  0  0  0  0  0  0  1  0  0
  -23.5458  -22.2666   19.0285 C   0  0  0  0  0  0  0  0  0  0  0  0
  -30.0326  -29.1675   19.0913 C   0  0  1  0  0  0  0  0  0  0  0  0
  -32.4271  -26.8981   20.9582 C   0  0  2  0  0  0  0  0  0  0  0  0
  -30.6098  -17.0508   21.8437 C   0  0  2  0  0  0  0  0  0  0  0  0
  -30.5441  -30.1065   17.9625 C   0  0  0  0  0  0  0  0  0  0  0  0
  -29.4346  -19.9253   18.8010 N   0  0  0  0  0  0  0  0  0  0  0  0
  -25.8668  -11.4819   20.3527 N   0  0  0  0  0  0  0  0  0  0  0  0
  -26.2177  -12.7650   20.1612 N   0  0  0  0  0  0  0  0  0  0  0  0
  -27.7924  -29.3336   20.1296 N   0  0  0  0  0  0  0  0  0  0  0  0
  -29.9208  -13.6564   20.4792 N   0  0  0  0  0  0  0  0  0  0  0  0
  -25.3873  -14.9820   20.2385 N   0  0  0  0  0  0  0  0  0  0  0  0
  -21.8148  -12.4892   21.4297 N   0  0  0  0  0  0  0  0  0  0  0  0
  -29.0077  -18.4106   20.5896 N   0  0  0  0  0  0  0  0  0  0  0  0
  -25.0524  -31.7218   20.4206 N   0  0  0  0  0  0  0  0  0  0  0  0
  -31.0898  -28.5978   19.9195 N   0  0  0  0  0  0  0  0  0  0  0  0
  -29.9925  -15.7899   21.4975 N   0  0  0  0  0  0  0  0  0  0  0  0
  -32.1494  -25.6443   21.7145 N   0  3  0  0  0  0  0  0  0  0  0  0
  -22.5498  -14.6281   21.0508 O   0  0  0  0  0  0  0  0  0  0  0  0
  -26.2890  -30.8027   18.6746 O   0  0  0  0  0  0  0  0  0  0  0  0
  -29.4816  -30.8455   20.6746 O   0  0  0  0  0  0  0  0  0  0  0  0
  -30.5687  -26.3766   19.5051 O   0  0  0  0  0  0  0  0  0  0  0  0
  -31.8003  -15.0061   20.3252 O   0  0  0  0  0  0  0  0  0  0  0  0
  -21.6722   -6.9375   21.8700 O   0  0  0  0  0  0  0  0  0  0  0  0
  -24.0223  -24.6122   18.8858 O   0  0  0  0  0  0  0  0  0  1  0  0
  -24.9355  -21.9684   19.0844 O   0  0  0  0  0  0  0  0  0  0  0  0
  -18.4866   -6.9801   26.3704 F   0  0  0  0  0  0  0  0  0  0  0  0
  -22.0856   -5.1266   23.9175 F   0  0  0  0  0  0  0  0  0  0  0  0
  1  2  1  0  0  0  0
  1  5  2  0  0  0  0
  2  6  2  0  0  0  0
  3  8  2  0  0  0  0
  3 17  1  0  0  0  0
  4  9  1  0  0  0  0
  4 17  2  0  0  0  0
  5 19  1  0  0  0  0
  6 21  1  0  0  0  0
  7 10  2  0  0  0  0
  7 20  1  0  0  0  0
  8 25  1  0  0  0  0
  9 25  2  0  0  0  0
 10 26  1  0  0  0  0
 11 12  2  0  0  0  0
 11 27  1  0  0  0  0
 12 28  1  0  0  0  0
 13 22  1  0  0  0  0
 13 26  2  0  0  0  0
 14 24  1  0  0  0  0
 14 31  2  0  0  0  0
 15 28  2  0  0  0  0
 15 29  1  0  0  0  0
 16 23  1  0  0  0  0
 16 67  2  0  0  0  0
 17 30  1  0  0  0  0
 18 30  1  0  0  0  0
 18 32  2  0  0  0  0
 18 33  1  0  0  0  0
 19 21  2  0  0  0  0
 19 38  1  0  0  0  0
 20 22  2  0  0  0  0
 20 39  1  0  0  0  0
 21 50  1  0  0  0  0
 22 40  1  0  0  0  0
 23 24  2  0  0  0  0
 23 49  1  0  0  0  0
 24 59  1  0  0  0  0
 25 84  1  0  0  0  0
 26 85  1  0  0  0  0
 27 29  2  0  0  0  0
 27 84  1  0  0  0  0
 28 87  1  0  0  0  0
 29 88  1  0  0  0  0
 30 68  2  0  0  0  0
 31 67  1  0  0  0  0
 31 74  1  0  0  0  0
 32 69  1  0  0  0  0
 32 72  1  0  0  0  0
 33 73  1  0  0  0  0
 33 79  2  0  0  0  0
 34 51  1  0  0  0  0
 34 75  1  0  0  0  0
 34 80  2  0  0  0  0
 35 63  1  0  0  0  0
 35 70  1  0  0  0  0
 35 81  2  0  0  0  0
 36 64  1  0  0  0  0
 36 76  1  0  0  0  0
 36 82  2  0  0  0  0
 37 71  1  0  0  0  0
 37 77  1  0  0  0  0
 37 83  2  0  0  0  0
 38 41  1  0  0  0  0
 39 51  1  0  0  0  0
 40 70  1  0  0  0  0
 41 45  1  0  0  0  0
 42 46  1  0  0  0  0
 42 47  1  0  0  0  0
 43 44  1  0  0  0  0
 43 49  1  0  0  0  0
 44 49  1  0  0  0  0
 45 50  1  0  0  0  0
 46 52  1  0  0  0  0
 47 71  1  0  0  0  0
 48 52  1  0  0  0  0
 48 71  1  0  0  0  0
 50 75  1  0  0  0  0
 51 70  1  0  0  0  0
 52 69  1  0  0  0  0
 53 64  1  0  0  0  0
 54 65  1  0  0  0  0
 55 66  1  0  0  0  0
 56 66  1  0  0  0  0
 57 66  1  0  0  0  0
 58 78  1  0  0  0  0
 59 86  1  0  0  0  0
 60 65  1  0  0  0  0
 60 74  1  0  0  0  0
 61 62  1  0  0  0  0
 61 85  1  0  0  0  0
 62 86  1  0  0  0  0
 63 66  1  0  0  0  0
 63 76  1  0  0  0  0
 64 78  1  0  0  0  0
 65 77  1  0  0  0  0
 68 69  1  0  0  0  0
M  CHG  1  78   1
M  ISO  4  37 100  61 101  77 100  85 101
M  END
> <Batch ID>
0132

> <Smiles>
CNC(C)C(=O)NC(C(=O)N1Cc2cc([101O:1][101CH2:1]COCc3cc(NCC(C)[100NH:0][100C:0](=O)N4CCCC(n5nc(-c6ccc(Oc7ccc(F)cc7F)cc6)c(C(N)=O)c5N)C4)ncc3C3CC3)ccc2CC1C(=O)NC1CCCc2ccccc21)C(C)(C)C

> <Shape>
0.282

> <Color>
0.211

> <Negative vol penalty>
0.000

$$$$

  -OEChem-04052320523D

 88 97  0     1  0  0  0  0  0999 V2000
  -29.3889  -12.6935   27.3139 C   0  0  0  0  0  0  0  0  0  0  0  0
  -28.5978  -13.5932   28.0222 C   0  0  0  0  0  0  0  0  0  0  0  0
  -20.9513  -24.2867   33.0027 C   0  0  0  0  0  0  0  0  0  0  0  0
  -22.0311  -24.2032   32.1296 C   0  0  0  0  0  0  0  0  0  0  0  0
  -30.1396  -13.1321   26.2228 C   0  0  0  0  0  0  0  0  0  0  0  0
  -28.5543  -14.9348   27.6420 C   0  0  0  0  0  0  0  0  0  0  0  0
  -23.0740   -9.8683   19.9420 C   0  0  0  0  0  0  0  0  0  0  0  0
  -23.8374   -9.8752   22.2341 C   0  0  0  0  0  0  0  0  0  0  0  0
  -19.9913  -23.2758   33.0210 C   0  0  0  0  0  0  0  0  0  0  0  0
  -22.1521  -23.1081   31.2749 C   0  0  0  0  0  0  0  0  0  0  0  0
  -24.4236  -23.1103   25.5875 C   0  0  0  0  0  0  0  0  0  0  0  0
  -22.3313   -8.7145   20.1928 C   0  0  0  0  0  0  0  0  0  0  0  0
  -23.0947   -8.7214   22.4850 C   0  0  0  0  0  0  0  0  0  0  0  0
  -25.6763  -22.7719   25.0776 C   0  0  0  0  0  0  0  0  0  0  0  0
  -19.8681   -7.9211   23.0923 C   0  0  0  0  0  0  0  0  0  0  0  0
  -19.1130   -7.8803   24.2644 C   0  0  0  0  0  0  0  0  0  0  0  0
  -30.8570  -14.9378   24.7303 C   0  0  0  0  0  0  0  0  0  0  0  0
  -29.2715  -16.7406   26.1495 C   0  0  0  0  0  0  0  0  0  0  0  0
  -24.8604  -20.5625   24.5559 C   0  0  0  0  0  0  0  0  0  0  0  0
  -20.3570   -5.9436   24.9984 C   0  0  0  0  0  0  0  0  0  0  0  0
  -30.1079  -14.4789   25.8260 C   0  0  0  0  0  0  0  0  0  0  0  0
  -29.3033  -15.3938   26.5463 C   0  0  0  0  0  0  0  0  0  0  0  0
  -23.8271  -10.4486   20.9626 C   0  0  0  0  0  0  0  0  0  0  0  0
  -24.1669  -12.9740   20.8428 C   0  0  0  0  0  0  0  0  0  0  0  0
  -20.0954  -22.1725   32.1593 C   0  0  0  0  0  0  0  0  0  0  0  0
  -23.3812  -22.1723   25.5953 C   0  0  0  0  0  0  0  0  0  0  0  0
  -21.1933  -22.0808   31.2825 C   0  0  0  0  0  0  0  0  0  0  0  0
  -23.5946  -20.8923   25.0640 C   0  0  0  0  0  0  0  0  0  0  0  0
  -30.8134  -16.2794   24.3501 C   0  0  0  0  0  0  0  0  0  0  0  0
  -30.0222  -17.1791   25.0583 C   0  0  0  0  0  0  0  0  0  0  0  0
  -22.3417   -8.1411   21.4643 C   0  0  0  0  0  0  0  0  0  0  0  0
  -25.8957  -21.4969   24.5644 C   0  0  0  0  0  0  0  0  0  0  0  0
  -20.8676   -6.9731   22.8732 C   0  0  0  0  0  0  0  0  0  0  0  0
  -19.3575   -6.8916   25.2174 C   0  0  0  0  0  0  0  0  0  0  0  0
  -21.1121   -5.9844   23.8263 C   0  0  0  0  0  0  0  0  0  0  0  0
  -24.5949  -11.6401   20.7040 C   0  0  0  0  0  0  0  0  0  0  0  0
  -25.2579  -13.7244   20.4780 C   0  0  0  0  0  0  0  0  0  0  0  0
  -22.8967  -13.4888   21.2638 C   0  0  0  0  0  0  0  0  0  0  0  0
  -21.6415  -20.7710   27.8567 C   0  0  0  0  0  0  0  0  0  0  0  0
  -20.0116  -19.5787   25.3182 C   0  0  0  0  0  0  0  0  0  0  0  0
  -29.2266  -19.5575   25.2911 C   0  0  0  0  0  0  0  0  0  0  0  0
  -20.0101  -18.7436   22.0092 C   0  0  0  0  0  0  0  0  0  0  0  0
  -30.7412  -14.7474   20.6581 C   0  0  0  0  0  0  0  0  0  0  0  0
  -19.0582  -21.0812   32.2485 C   0  0  0  0  0  0  0  0  0  0  0  0
  -22.0281  -22.5615   26.1244 C   0  0  0  0  0  0  0  0  0  0  0  0
  -22.5028  -19.8553   25.0307 C   0  0  0  0  0  0  0  0  0  0  0  0
  -19.0604  -20.1391   31.0473 C   0  0  0  0  0  0  0  0  0  0  0  0
  -29.6016  -12.3627   18.2724 C   0  0  0  0  0  0  0  0  0  0  0  0
  -20.4845  -19.7119   30.7066 C   0  0  0  0  0  0  0  0  0  0  0  0
  -28.1651  -12.0678   18.7075 C   0  0  0  0  0  0  0  0  0  0  0  0
  -30.5204  -12.5839   19.4720 C   0  0  0  0  0  0  0  0  0  0  0  0
  -28.6203  -13.3132   20.8617 C   0  0  0  0  0  0  0  0  0  0  0  0
  -21.3462  -20.9209   30.3227 C   0  0  1  0  0  0  0  0  0  0  0  0
  -21.1867  -21.3632   26.5528 C   0  0  1  0  0  0  0  0  0  0  0  0
  -27.6445  -13.1382   19.6856 C   0  0  2  0  0  0  0  0  0  0  0  0
  -18.5450  -17.7553   20.2276 C   0  0  0  0  0  0  0  0  0  0  0  0
  -20.4572  -16.7997   26.4967 C   0  0  0  0  0  0  0  0  0  0  0  0
  -19.8411  -15.8332   24.2708 C   0  0  0  0  0  0  0  0  0  0  0  0
  -18.1736  -17.1773   25.5496 C   0  0  0  0  0  0  0  0  0  0  0  0
  -20.1364  -21.2081   20.3755 C   0  0  0  0  0  0  0  0  0  0  0  0
  -31.6276  -16.7223   23.1776 C   0  0  0  0  0  0  0  0  0  0  0  0
  -29.4538  -20.8831   24.5733 C   0  0  0  0  0  0  0  0  0  0  0  0
  -30.8074  -16.8977   21.8954 C   0  0  0  0  0  0  0  0  0  0  0  0
  -28.2516  -21.8127   24.6406 C   0  0  0  0  0  0  0  0  0  1  0  0
  -20.1302  -18.3459   24.4550 C   0  0  1  0  0  0  0  0  0  0  0  0
  -19.0192  -19.0359   20.8970 C   0  0  2  0  0  0  0  0  0  0  0  0
  -19.6718  -17.0577   25.1953 C   0  0  0  0  0  0  0  0  0  0  0  0
  -25.8591  -11.5453   20.2837 N   0  0  0  0  0  0  0  0  0  0  0  0
  -26.2349  -12.8292   20.1552 N   0  0  0  0  0  0  0  0  0  0  0  0
  -21.1991  -20.2819   25.5654 N   0  0  0  0  0  0  0  0  0  0  0  0
  -29.9705  -13.6118   20.3591 N   0  0  0  0  0  0  0  0  0  0  0  0
  -25.4672  -15.0561   20.4050 N   0  0  0  0  0  0  0  0  0  0  0  0
  -21.8859  -12.5788   21.6024 N   0  0  0  0  0  0  0  0  0  0  0  0
  -29.9652  -18.5435   24.6871 N   0  0  0  0  0  0  0  0  0  0  0  0
  -21.0530  -21.3413   28.9693 N   0  0  0  0  0  0  0  0  0  0  0  0
  -19.3854  -18.6299   23.2331 N   0  0  0  0  0  0  0  0  0  0  0  0
  -30.1427  -15.6756   21.5013 N   0  0  0  0  0  0  0  0  0  0  0  0
  -19.6454  -19.9041   19.8602 N   0  3  0  0  0  0  0  0  0  0  0  0
  -22.6596  -14.7192   21.3218 O   0  0  0  0  0  0  0  0  0  0  0  0
  -22.4644  -19.8629   27.8535 O   0  0  0  0  0  0  0  0  0  0  0  0
  -18.9050  -19.9096   25.7511 O   0  0  0  0  0  0  0  0  0  0  0  0
  -28.4830  -19.4596   26.2615 O   0  0  0  0  0  0  0  0  0  0  0  0
  -21.2173  -18.6240   21.8114 O   0  0  0  0  0  0  0  0  0  0  0  0
  -31.8763  -14.9239   20.2027 O   0  0  0  0  0  0  0  0  0  0  0  0
  -21.6170   -7.0154   21.7094 O   0  0  0  0  0  0  0  0  0  0  0  0
  -27.1177  -21.1638   24.0667 O   0  0  0  0  0  0  0  0  0  1  0  0
  -18.6333   -6.8534   26.3436 F   0  0  0  0  0  0  0  0  0  0  0  0
  -22.0717   -5.0716   23.6219 F   0  0  0  0  0  0  0  0  0  0  0  0
  1  2  1  0  0  0  0
  1  5  2  0  0  0  0
  2  6  2  0  0  0  0
  3  4  1  0  0  0  0
  3  9  2  0  0  0  0
  4 10  2  0  0  0  0
  5 21  1  0  0  0  0
  6 22  1  0  0  0  0
  7 12  2  0  0  0  0
  7 23  1  0  0  0  0
  8 13  1  0  0  0  0
  8 23  2  0  0  0  0
  9 25  1  0  0  0  0
 10 27  1  0  0  0  0
 11 14  2  0  0  0  0
 11 26  1  0  0  0  0
 12 31  1  0  0  0  0
 13 31  2  0  0  0  0
 14 32  1  0  0  0  0
 15 16  2  0  0  0  0
 15 33  1  0  0  0  0
 16 34  1  0  0  0  0
 17 21  2  0  0  0  0
 17 29  1  0  0  0  0
 18 22  2  0  0  0  0
 18 30  1  0  0  0  0
 19 28  1  0  0  0  0
 19 32  2  0  0  0  0
 20 34  2  0  0  0  0
 20 35  1  0  0  0  0
 21 22  1  0  0  0  0
 23 36  1  0  0  0  0
 24 36  1  0  0  0  0
 24 37  2  0  0  0  0
 24 38  1  0  0  0  0
 25 27  2  0  0  0  0
 25 44  1  0  0  0  0
 26 28  2  0  0  0  0
 26 45  1  0  0  0  0
 27 53  1  0  0  0  0
 28 46  1  0  0  0  0
 29 30  2  0  0  0  0
 29 61  1  0  0  0  0
 30 74  1  0  0  0  0
 31 85  1  0  0  0  0
 32 86  1  0  0  0  0
 33 35  2  0  0  0  0
 33 85  1  0  0  0  0
 34 87  1  0  0  0  0
 35 88  1  0  0  0  0
 36 68  2  0  0  0  0
 37 69  1  0  0  0  0
 37 72  1  0  0  0  0
 38 73  1  0  0  0  0
 38 79  2  0  0  0  0
 39 54  1  0  0  0  0
 39 75  1  0  0  0  0
 39 80  2  0  0  0  0
 40 65  1  0  0  0  0
 40 70  1  0  0  0  0
 40 81  2  0  0  0  0
 41 62  1  0  0  0  0
 41 74  1  0  0  0  0
 41 82  2  0  0  0  0
 42 66  1  0  0  0  0
 42 76  1  0  0  0  0
 42 83  2  0  0  0  0
 43 71  1  0  0  0  0
 43 77  1  0  0  0  0
 43 84  2  0  0  0  0
 44 47  1  0  0  0  0
 45 54  1  0  0  0  0
 46 70  1  0  0  0  0
 47 49  1  0  0  0  0
 48 50  1  0  0  0  0
 48 51  1  0  0  0  0
 49 53  1  0  0  0  0
 50 55  1  0  0  0  0
 51 71  1  0  0  0  0
 52 55  1  0  0  0  0
 52 71  1  0  0  0  0
 53 75  1  0  0  0  0
 54 70  1  0  0  0  0
 55 69  1  0  0  0  0
 56 66  1  0  0  0  0
 57 67  1  0  0  0  0
 58 67  1  0  0  0  0
 59 67  1  0  0  0  0
 60 78  1  0  0  0  0
 61 63  1  0  0  0  0
 62 64  1  0  0  0  0
 63 77  1  0  0  0  0
 64 86  1  0  0  0  0
 65 67  1  0  0  0  0
 65 76  1  0  0  0  0
 66 78  1  0  0  0  0
 68 69  1  0  0  0  0
M  CHG  1  78   1
M  ISO  4  43 100  64 101  77 100  86 101
M  END
> <Batch ID>
0132

> <Smiles>
CNC(C)C(=O)NC(C(=O)N1Cc2cc([101O:1][101CH2:1]CC(=O)Nc3cc4ccccc4cc3CC[100NH:0][100C:0](=O)N3CCCC(n4nc(-c5ccc(Oc6ccc(F)cc6F)cc5)c(C(N)=O)c4N)C3)ccc2CC1C(=O)NC1CCCc2ccccc21)C(C)(C)C

> <Shape>
0.160

> <Color>
0.187

> <Negative vol penalty>
0.000

$$$$

  -OEChem-04052320523D

 83 91  0     1  0  0  0  0  0999 V2000
  -23.7794  -30.2278   21.8405 C   0  0  0  0  0  0  0  0  0  0  0  0
  -23.1247  -29.0204   22.0617 C   0  0  0  0  0  0  0  0  0  0  0  0
  -28.8778  -12.6162   20.9095 C   0  0  0  0  0  0  0  0  0  0  0  0
  -28.2020  -12.6955   18.5913 C   0  0  0  0  0  0  0  0  0  0  0  0
  -24.9481  -30.2567   21.0808 C   0  0  0  0  0  0  0  0  0  0  0  0
  -23.6378  -27.8413   21.5223 C   0  0  0  0  0  0  0  0  0  0  0  0
  -23.4513  -22.2581   24.0322 C   0  0  0  0  0  0  0  0  0  0  0  0
  -18.1924  -16.7567   22.2693 C   0  0  0  0  0  0  0  0  0  0  0  0
  -18.9059  -17.9137   22.5822 C   0  0  0  0  0  0  0  0  0  0  0  0
  -30.2142  -12.5405   20.5174 C   0  0  0  0  0  0  0  0  0  0  0  0
  -29.5385  -12.6198   18.1991 C   0  0  0  0  0  0  0  0  0  0  0  0
  -22.6049  -21.1682   23.8335 C   0  0  0  0  0  0  0  0  0  0  0  0
  -31.9133  -10.2330   17.8913 C   0  0  0  0  0  0  0  0  0  0  0  0
  -32.2367   -9.3537   16.8580 C   0  0  0  0  0  0  0  0  0  0  0  0
  -24.1968  -20.2215   22.2879 C   0  0  0  0  0  0  0  0  0  0  0  0
  -20.0119  -15.4074   23.1095 C   0  0  0  0  0  0  0  0  0  0  0  0
  -33.0730  -11.2024   15.5465 C   0  0  0  0  0  0  0  0  0  0  0  0
  -27.8716  -12.6936   19.9464 C   0  0  0  0  0  0  0  0  0  0  0  0
  -25.7446  -13.9369   20.6080 C   0  0  0  0  0  0  0  0  0  0  0  0
  -25.4811  -29.0761   20.5399 C   0  0  0  0  0  0  0  0  0  0  0  0
  -24.6739  -22.3434   23.3508 C   0  0  0  0  0  0  0  0  0  0  0  0
  -24.8141  -27.8547   20.7535 C   0  0  0  0  0  0  0  0  0  0  0  0
  -25.0580  -21.3123   22.4816 C   0  0  0  0  0  0  0  0  0  0  0  0
  -18.7454  -15.5035   22.5330 C   0  0  0  0  0  0  0  0  0  0  0  0
  -20.1723  -17.8176   23.1587 C   0  0  0  0  0  0  0  0  0  0  0  0
  -20.7254  -16.5644   23.4224 C   0  0  0  0  0  0  0  0  0  0  0  0
  -30.5446  -12.5423   19.1622 C   0  0  0  0  0  0  0  0  0  0  0  0
  -22.9763  -20.1511   22.9591 C   0  0  0  0  0  0  0  0  0  0  0  0
  -32.1696  -11.5971   17.7522 C   0  0  0  0  0  0  0  0  0  0  0  0
  -32.8166   -9.8383   15.6856 C   0  0  0  0  0  0  0  0  0  0  0  0
  -32.7495  -12.0818   16.5798 C   0  0  0  0  0  0  0  0  0  0  0  0
  -26.4909  -12.7712   20.3508 C   0  0  0  0  0  0  0  0  0  0  0  0
  -24.4978  -13.4768   20.9548 C   0  0  0  0  0  0  0  0  0  0  0  0
  -26.1428  -15.3125   20.5395 C   0  0  0  0  0  0  0  0  0  0  0  0
  -25.9350  -24.3691   21.2509 C   0  0  0  0  0  0  0  0  0  0  0  0
  -28.5862  -22.5487   21.6747 C   0  0  0  0  0  0  0  0  0  0  0  0
  -29.3450  -19.0361   21.9952 C   0  0  0  0  0  0  0  0  0  0  0  0
  -20.1619  -10.0650   20.1150 C   0  0  0  0  0  0  0  0  0  0  0  0
  -26.7211  -29.1639   19.6858 C   0  0  0  0  0  0  0  0  0  0  0  0
  -25.5877  -23.5126   23.5964 C   0  0  0  0  0  0  0  0  0  0  0  0
  -26.3692  -21.3463   21.7413 C   0  0  0  0  0  0  0  0  0  0  0  0
  -27.4042  -27.8171   19.4634 C   0  0  0  0  0  0  0  0  0  0  0  0
  -22.8925   -8.7991   22.0170 C   0  0  0  0  0  0  0  0  0  0  0  0
  -26.3781  -26.7542   19.0836 C   0  0  0  0  0  0  0  0  0  0  0  0
  -24.0117   -9.8120   21.7692 C   0  0  0  0  0  0  0  0  0  0  0  0
  -22.0380   -8.5858   20.7695 C   0  0  0  0  0  0  0  0  0  0  0  0
  -22.6060  -10.8323   19.9302 C   0  0  0  0  0  0  0  0  0  0  0  0
  -25.3531  -26.5510   20.2059 C   0  0  1  0  0  0  0  0  0  0  0  0
  -26.5767  -23.7473   22.4588 C   0  0  1  0  0  0  0  0  0  0  0  0
  -23.4606  -11.1226   21.1759 C   0  0  2  0  0  0  0  0  0  0  0  0
  -22.0798  -16.4370   24.0389 C   0  0  0  0  0  0  0  0  0  0  0  0
  -31.2446  -17.8764   23.1545 C   0  0  0  0  0  0  0  0  0  0  0  0
  -29.9191  -22.6133   18.9307 C   0  0  0  0  0  0  0  0  0  0  0  0
  -30.8292  -20.3279   19.3962 C   0  0  0  0  0  0  0  0  0  0  0  0
  -31.4878  -22.2494   20.8441 C   0  0  0  0  0  0  0  0  0  0  0  0
  -27.5001  -17.3907   23.6225 C   0  0  0  0  0  0  0  0  0  0  0  0
  -17.9826  -14.2667   22.1979 C   0  0  0  0  0  0  0  0  0  0  0  0
  -20.9212  -19.0761   23.4854 C   0  0  0  0  0  0  0  0  0  1  0  0
  -18.3918  -11.6657   19.4340 C   0  0  0  0  0  0  0  0  0  0  0  0
  -17.7820  -12.3015   20.6693 C   0  0  0  0  0  0  0  0  0  0  0  0
  -29.1476  -21.3091   21.0211 C   0  0  1  0  0  0  0  0  0  0  0  0
  -29.7915  -18.3139   23.2536 C   0  0  2  0  0  0  0  0  0  0  0  0
  -30.3179  -21.6298   20.0490 C   0  0  0  0  0  0  0  0  0  0  0  0
  -25.7777  -11.6546   20.5200 N   0  0  0  0  0  0  0  0  0  0  0  0
  -24.5703  -12.1165   20.8872 N   0  0  0  0  0  0  0  0  0  0  0  0
  -27.2254  -22.5135   22.0102 N   0  0  0  0  0  0  0  0  0  0  0  0
  -21.5452   -9.8669   20.2579 N   0  0  0  0  0  0  0  0  0  0  0  0
  -23.3575  -14.1072   21.3080 N   0  0  0  0  0  0  0  0  0  0  0  0
  -27.4609  -15.6087   20.1662 N   0  0  0  0  0  0  0  0  0  0  0  0
  -25.9207  -25.7508   21.2699 N   0  0  0  0  0  0  0  0  0  0  0  0
  -29.5038  -20.4012   22.1061 N   0  0  0  0  0  0  0  0  0  0  0  0
  -19.7795  -11.3096   19.6296 N   0  0  0  0  0  0  0  0  0  0  0  0
  -28.9512  -17.1046   23.4826 N   0  3  0  0  0  0  0  0  0  0  0  0
  -18.4934  -13.5671   20.9867 N   0  3  0  0  0  0  0  0  0  0  0  0
  -25.3579  -16.2507   20.8174 O   0  0  0  0  0  0  0  0  0  0  0  0
  -25.4874  -23.6488   20.3663 O   0  0  0  0  0  0  0  0  0  0  0  0
  -29.3295  -23.5102   21.8863 O   0  0  0  0  0  0  0  0  0  0  0  0
  -28.9033  -18.4477   21.0107 O   0  0  0  0  0  0  0  0  0  0  0  0
  -19.3292   -9.1991   20.4040 O   0  0  0  0  0  0  0  0  0  0  0  0
  -31.8486  -12.4688   18.7792 O   0  0  0  0  0  0  0  0  0  0  0  0
  -22.1517  -19.0865   22.7628 O   0  0  0  0  0  0  0  0  0  1  0  0
  -33.1285   -8.9935   14.6941 F   0  0  0  0  0  0  0  0  0  0  0  0
  -32.9992  -13.3910   16.4408 F   0  0  0  0  0  0  0  0  0  0  0  0
  1  2  1  0  0  0  0
  1  5  2  0  0  0  0
  2  6  2  0  0  0  0
  3 10  2  0  0  0  0
  3 18  1  0  0  0  0
  4 11  1  0  0  0  0
  4 18  2  0  0  0  0
  5 20  1  0  0  0  0
  6 22  1  0  0  0  0
  7 12  2  0  0  0  0
  7 21  1  0  0  0  0
  8  9  2  0  0  0  0
  8 24  1  0  0  0  0
  9 25  1  0  0  0  0
 10 27  1  0  0  0  0
 11 27  2  0  0  0  0
 12 28  1  0  0  0  0
 13 14  2  0  0  0  0
 13 29  1  0  0  0  0
 14 30  1  0  0  0  0
 15 23  1  0  0  0  0
 15 28  2  0  0  0  0
 16 24  2  0  0  0  0
 16 26  1  0  0  0  0
 17 30  2  0  0  0  0
 17 31  1  0  0  0  0
 18 32  1  0  0  0  0
 19 32  1  0  0  0  0
 19 33  2  0  0  0  0
 19 34  1  0  0  0  0
 20 22  2  0  0  0  0
 20 39  1  0  0  0  0
 21 23  2  0  0  0  0
 21 40  1  0  0  0  0
 22 48  1  0  0  0  0
 23 41  1  0  0  0  0
 24 57  1  0  0  0  0
 25 26  2  0  0  0  0
 25 58  1  0  0  0  0
 26 51  1  0  0  0  0
 27 80  1  0  0  0  0
 28 81  1  0  0  0  0
 29 31  2  0  0  0  0
 29 80  1  0  0  0  0
 30 82  1  0  0  0  0
 31 83  1  0  0  0  0
 32 64  2  0  0  0  0
 33 65  1  0  0  0  0
 33 68  1  0  0  0  0
 34 69  1  0  0  0  0
 34 75  2  0  0  0  0
 35 49  1  0  0  0  0
 35 70  1  0  0  0  0
 35 76  2  0  0  0  0
 36 61  1  0  0  0  0
 36 66  1  0  0  0  0
 36 77  2  0  0  0  0
 37 62  1  0  0  0  0
 37 71  1  0  0  0  0
 37 78  2  0  0  0  0
 38 67  1  0  0  0  0
 38 72  1  0  0  0  0
 38 79  2  0  0  0  0
 39 42  1  0  0  0  0
 40 49  1  0  0  0  0
 41 66  1  0  0  0  0
 42 44  1  0  0  0  0
 43 45  1  0  0  0  0
 43 46  1  0  0  0  0
 44 48  1  0  0  0  0
 45 50  1  0  0  0  0
 46 67  1  0  0  0  0
 47 50  1  0  0  0  0
 47 67  1  0  0  0  0
 48 70  1  0  0  0  0
 49 66  1  0  0  0  0
 50 65  1  0  0  0  0
 52 62  1  0  0  0  0
 53 63  1  0  0  0  0
 54 63  1  0  0  0  0
 55 63  1  0  0  0  0
 56 73  1  0  0  0  0
 57 74  1  0  0  0  0
 58 81  1  0  0  0  0
 59 60  1  0  0  0  0
 59 72  1  0  0  0  0
 60 74  1  0  0  0  0
 61 63  1  0  0  0  0
 61 71  1  0  0  0  0
 62 73  1  0  0  0  0
 64 65  1  0  0  0  0
M  CHG  2  73   1  74   1
M  ISO  4  38 100  58 101  72 100  81 101
M  END
> <Batch ID>
0132

> <Smiles>
CNC(C)C(=O)NC(C(=O)N1Cc2cc([101O:1][101CH2:1]c3ccc(CNCC[100NH:0][100C:0](=O)N4CCCC(n5nc(-c6ccc(Oc7ccc(F)cc7F)cc6)c(C(N)=O)c5N)C4)cc3C)ccc2CC1C(=O)NC1CCCc2ccccc21)C(C)(C)C

> <Shape>
0.215

> <Color>
0.100

> <Negative vol penalty>
0.000

$$$$

  -OEChem-04052320523D

 81 89  0     1  0  0  0  0  0999 V2000
  -22.5836  -22.7094   17.6375 C   0  0  0  0  0  0  0  0  0  0  0  0
  -23.7981  -22.0437   17.5061 C   0  0  0  0  0  0  0  0  0  0  0  0
  -31.6648  -18.9729   22.1686 C   0  0  0  0  0  0  0  0  0  0  0  0
  -26.5422  -28.5771   19.0339 C   0  0  0  0  0  0  0  0  0  0  0  0
  -26.1998  -27.3226   21.0701 C   0  0  0  0  0  0  0  0  0  0  0  0
  -21.7172  -22.3776   18.6783 C   0  0  0  0  0  0  0  0  0  0  0  0
  -24.1474  -21.0465   18.4161 C   0  0  0  0  0  0  0  0  0  0  0  0
  -27.3358  -15.9498   17.2486 C   0  0  0  0  0  0  0  0  0  0  0  0
  -25.3983  -29.3281   19.3042 C   0  0  0  0  0  0  0  0  0  0  0  0
  -25.0559  -28.0737   21.3404 C   0  0  0  0  0  0  0  0  0  0  0  0
  -28.6792  -15.6223   17.4268 C   0  0  0  0  0  0  0  0  0  0  0  0
  -21.8334  -28.1597   20.3210 C   0  0  0  0  0  0  0  0  0  0  0  0
  -20.6935  -27.4753   20.7425 C   0  0  0  0  0  0  0  0  0  0  0  0
  -32.3991  -18.0056   21.4916 C   0  0  0  0  0  0  0  0  0  0  0  0
  -30.3990  -19.3229   21.7120 C   0  0  0  0  0  0  0  0  0  0  0  0
  -28.1401  -14.5841   19.5365 C   0  0  0  0  0  0  0  0  0  0  0  0
  -20.7019  -28.7321   22.8058 C   0  0  0  0  0  0  0  0  0  0  0  0
  -26.9429  -27.5743   19.9168 C   0  0  0  0  0  0  0  0  0  0  0  0
  -29.4435  -27.0842   20.0364 C   0  0  0  0  0  0  0  0  0  0  0  0
  -22.0518  -21.3692   19.5958 C   0  0  0  0  0  0  0  0  0  0  0  0
  -26.3845  -15.6059   18.2198 C   0  0  0  0  0  0  0  0  0  0  0  0
  -23.2853  -20.7019   19.4709 C   0  0  0  0  0  0  0  0  0  0  0  0
  -26.7849  -14.9062   19.3671 C   0  0  0  0  0  0  0  0  0  0  0  0
  -24.6552  -29.0765   20.4575 C   0  0  0  0  0  0  0  0  0  0  0  0
  -29.0820  -14.9419   18.5722 C   0  0  0  0  0  0  0  0  0  0  0  0
  -22.4077  -29.1302   21.1419 C   0  0  0  0  0  0  0  0  0  0  0  0
  -20.1277  -27.7615   21.9849 C   0  0  0  0  0  0  0  0  0  0  0  0
  -21.8420  -29.4164   22.3843 C   0  0  0  0  0  0  0  0  0  0  0  0
  -28.1241  -26.7977   19.6378 C   0  0  0  0  0  0  0  0  0  0  0  0
  -31.8273  -17.4227   20.3722 C   0  0  0  0  0  0  0  0  0  0  0  0
  -29.9167  -18.6812   20.5826 C   0  0  0  0  0  0  0  0  0  0  0  0
  -30.1888  -26.0498   19.5254 C   0  0  0  0  0  0  0  0  0  0  0  0
  -29.9502  -28.1867   20.8003 C   0  0  0  0  0  0  0  0  0  0  0  0
  -24.4056  -17.2371   20.0978 C   0  0  0  0  0  0  0  0  0  0  0  0
  -23.3255  -14.2782   20.8726 C   0  0  0  0  0  0  0  0  0  0  0  0
  -23.9467  -10.9287   21.0766 C   0  0  0  0  0  0  0  0  0  0  0  0
  -28.8467  -20.4117   18.0215 C   0  0  0  0  0  0  0  0  0  0  0  0
  -21.1040  -21.0783   20.7323 C   0  0  0  0  0  0  0  0  0  0  0  0
  -24.9352  -15.9428   18.0001 C   0  0  0  0  0  0  0  0  0  0  0  0
  -25.7997  -14.4962   20.4300 C   0  0  0  0  0  0  0  0  0  0  0  0
  -21.3827  -19.7512   21.4333 C   0  0  0  0  0  0  0  0  0  0  0  0
  -30.2580  -22.9112   15.9150 C   0  0  0  0  0  0  0  0  0  0  0  0
  -22.8732  -19.6026   21.7220 C   0  0  0  0  0  0  0  0  0  0  0  0
  -29.9902  -24.2165   16.6662 C   0  0  0  0  0  0  0  0  0  0  0  0
  -29.1060  -21.9215   16.0748 C   0  0  0  0  0  0  0  0  0  0  0  0
  -28.4554  -22.9422   18.2216 C   0  0  0  0  0  0  0  0  0  0  0  0
  -23.6888  -19.5974   20.4235 C   0  0  1  0  0  0  0  0  0  0  0  0
  -24.1312  -15.9967   19.2955 C   0  0  1  0  0  0  0  0  0  0  0  0
  -29.6140  -23.9505   18.1362 C   0  0  2  0  0  0  0  0  0  0  0  0
  -22.8850   -8.7678   21.7841 C   0  0  0  0  0  0  0  0  0  0  0  0
  -23.7849  -15.0131   23.7981 C   0  0  0  0  0  0  0  0  0  0  0  0
  -23.6304  -12.5786   24.3616 C   0  0  0  0  0  0  0  0  0  0  0  0
  -21.6705  -13.7518   23.3590 C   0  0  0  0  0  0  0  0  0  0  0  0
  -24.1506   -9.8009   18.3479 C   0  0  0  0  0  0  0  0  0  0  0  0
  -32.5944  -16.3695   19.6133 C   0  0  0  0  0  0  0  0  0  0  0  0
  -28.5617  -19.0315   20.0643 C   0  0  0  0  0  0  0  0  0  0  0  0
  -32.3413  -14.9448   20.1110 C   0  0  0  0  0  0  0  0  0  0  0  0
  -30.8688  -14.5514   20.0924 C   0  0  0  0  0  0  0  0  0  1  0  0
  -23.6847  -13.2483   21.9162 C   0  0  1  0  0  0  0  0  0  0  0  0
  -23.1370   -9.7250   20.6295 C   0  0  2  0  0  0  0  0  0  0  0  0
  -23.2117  -13.6573   23.3398 C   0  0  0  0  0  0  0  0  0  0  0  0
  -28.0332  -25.6698   18.9282 N   0  0  0  0  0  0  0  0  0  0  0  0
  -30.6006  -17.7367   19.8986 N   0  0  0  0  0  0  0  0  0  0  0  0
  -29.3049  -25.2384   18.8768 N   0  0  0  0  0  0  0  0  0  0  0  0
  -24.3951  -14.8540   20.1724 N   0  0  0  0  0  0  0  0  0  0  0  0
  -28.8003  -21.7119   17.4920 N   0  0  0  0  0  0  0  0  0  0  0  0
  -31.5074  -25.7642   19.5721 N   0  0  0  0  0  0  0  0  0  0  0  0
  -29.0471  -29.1607   21.2476 N   0  0  0  0  0  0  0  0  0  0  0  0
  -23.5951  -18.3081   19.7729 N   0  0  0  0  0  0  0  0  0  0  0  0
  -23.1359  -11.9813   21.4453 N   0  0  0  0  0  0  0  0  0  0  0  0
  -28.5496  -20.3022   19.3744 N   0  0  0  0  0  0  0  0  0  0  0  0
  -23.8580   -8.9857   19.5550 N   0  3  0  0  0  0  0  0  0  0  0  0
  -31.1700  -28.3132   21.0640 O   0  0  0  0  0  0  0  0  0  0  0  0
  -25.2865  -17.2232   20.9496 O   0  0  0  0  0  0  0  0  0  0  0  0
  -22.1391  -14.5562   20.6805 O   0  0  0  0  0  0  0  0  0  0  0  0
  -25.1755  -10.9334   21.1001 O   0  0  0  0  0  0  0  0  0  0  0  0
  -29.1369  -19.4224   17.3402 O   0  0  0  0  0  0  0  0  0  0  0  0
  -23.5391  -29.8093   20.7217 O   0  0  0  0  0  0  0  0  0  0  0  0
  -30.3928  -14.6216   18.7489 O   0  0  0  0  0  0  0  0  0  1  0  0
  -19.0321  -27.1054   22.3889 F   0  0  0  0  0  0  0  0  0  0  0  0
  -22.3885  -30.3486   23.1769 F   0  0  0  0  0  0  0  0  0  0  0  0
  1  2  1  0  0  0  0
  1  6  2  0  0  0  0
  2  7  2  0  0  0  0
  3 14  2  0  0  0  0
  3 15  1  0  0  0  0
  4  9  2  0  0  0  0
  4 18  1  0  0  0  0
  5 10  1  0  0  0  0
  5 18  2  0  0  0  0
  6 20  1  0  0  0  0
  7 22  1  0  0  0  0
  8 11  2  0  0  0  0
  8 21  1  0  0  0  0
  9 24  1  0  0  0  0
 10 24  2  0  0  0  0
 11 25  1  0  0  0  0
 12 13  2  0  0  0  0
 12 26  1  0  0  0  0
 13 27  1  0  0  0  0
 14 30  1  0  0  0  0
 15 31  2  0  0  0  0
 16 23  1  0  0  0  0
 16 25  2  0  0  0  0
 17 27  2  0  0  0  0
 17 28  1  0  0  0  0
 18 29  1  0  0  0  0
 19 29  1  0  0  0  0
 19 32  2  0  0  0  0
 19 33  1  0  0  0  0
 20 22  2  0  0  0  0
 20 38  1  0  0  0  0
 21 23  2  0  0  0  0
 21 39  1  0  0  0  0
 22 47  1  0  0  0  0
 23 40  1  0  0  0  0
 24 78  1  0  0  0  0
 25 79  1  0  0  0  0
 26 28  2  0  0  0  0
 26 78  1  0  0  0  0
 27 80  1  0  0  0  0
 28 81  1  0  0  0  0
 29 62  2  0  0  0  0
 30 55  1  0  0  0  0
 30 63  2  0  0  0  0
 31 56  1  0  0  0  0
 31 63  1  0  0  0  0
 32 64  1  0  0  0  0
 32 67  1  0  0  0  0
 33 68  1  0  0  0  0
 33 73  2  0  0  0  0
 34 48  1  0  0  0  0
 34 69  1  0  0  0  0
 34 74  2  0  0  0  0
 35 59  1  0  0  0  0
 35 65  1  0  0  0  0
 35 75  2  0  0  0  0
 36 60  1  0  0  0  0
 36 70  1  0  0  0  0
 36 76  2  0  0  0  0
 37 66  1  0  0  0  0
 37 71  1  0  0  0  0
 37 77  2  0  0  0  0
 38 41  1  0  0  0  0
 39 48  1  0  0  0  0
 40 65  1  0  0  0  0
 41 43  1  0  0  0  0
 42 44  1  0  0  0  0
 42 45  1  0  0  0  0
 43 47  1  0  0  0  0
 44 49  1  0  0  0  0
 45 66  1  0  0  0  0
 46 49  1  0  0  0  0
 46 66  1  0  0  0  0
 47 69  1  0  0  0  0
 48 65  1  0  0  0  0
 49 64  1  0  0  0  0
 50 60  1  0  0  0  0
 51 61  1  0  0  0  0
 52 61  1  0  0  0  0
 53 61  1  0  0  0  0
 54 72  1  0  0  0  0
 55 57  1  0  0  0  0
 56 71  1  0  0  0  0
 57 58  1  0  0  0  0
 58 79  1  0  0  0  0
 59 61  1  0  0  0  0
 59 70  1  0  0  0  0
 60 72  1  0  0  0  0
 62 64  1  0  0  0  0
M  CHG  1  72   1
M  ISO  4  37 100  58 101  71 100  79 101
M  END
> <Batch ID>
0132

> <Smiles>
CNC(C)C(=O)NC(C(=O)N1Cc2cc([101O:1][101CH2:1]CCc3cccc(C[100NH:0][100C:0](=O)N4CCCC(n5nc(-c6ccc(Oc7ccc(F)cc7F)cc6)c(C(N)=O)c5N)C4)n3)ccc2CC1C(=O)NC1CCCc2ccccc21)C(C)(C)C

> <Shape>
0.258

> <Color>
0.074

> <Negative vol penalty>
0.000

$$$$

  -OEChem-04052320523D

 88 97  0     1  0  0  0  0  0999 V2000
  -30.8752  -24.9377   17.8537 C   0  0  0  0  0  0  0  0  0  0  0  0
  -29.9706  -24.0437   18.4174 C   0  0  0  0  0  0  0  0  0  0  0  0
  -27.7454  -17.0320   18.9826 C   0  0  0  0  0  0  0  0  0  0  0  0
  -27.6915  -17.2716   21.3861 C   0  0  0  0  0  0  0  0  0  0  0  0
  -30.9595  -26.2418   18.3396 C   0  0  0  0  0  0  0  0  0  0  0  0
  -29.1504  -24.4530   19.4682 C   0  0  0  0  0  0  0  0  0  0  0  0
  -23.3950  -22.6657   20.5575 C   0  0  0  0  0  0  0  0  0  0  0  0
  -28.4428  -18.2355   18.8783 C   0  0  0  0  0  0  0  0  0  0  0  0
  -28.3889  -18.4751   21.2818 C   0  0  0  0  0  0  0  0  0  0  0  0
  -22.8563  -21.7121   21.4202 C   0  0  0  0  0  0  0  0  0  0  0  0
  -31.5843  -19.4673   20.8066 C   0  0  0  0  0  0  0  0  0  0  0  0
  -32.6452  -19.6782   21.6872 C   0  0  0  0  0  0  0  0  0  0  0  0
  -22.4375  -23.4362   23.0546 C   0  0  0  0  0  0  0  0  0  0  0  0
  -21.8994  -18.6190   25.2566 C   0  0  0  0  0  0  0  0  0  0  0  0
  -19.8805  -18.4956   23.9353 C   0  0  0  0  0  0  0  0  0  0  0  0
  -31.5339  -21.6395   22.5564 C   0  0  0  0  0  0  0  0  0  0  0  0
  -27.3698  -16.5501   20.2366 C   0  0  0  0  0  0  0  0  0  0  0  0
  -27.1948  -14.0173   20.4860 C   0  0  0  0  0  0  0  0  0  0  0  0
  -30.1331  -26.6702   19.3904 C   0  0  0  0  0  0  0  0  0  0  0  0
  -23.4691  -24.0123   20.9419 C   0  0  0  0  0  0  0  0  0  0  0  0
  -29.2246  -25.7637   19.9695 C   0  0  0  0  0  0  0  0  0  0  0  0
  -22.9752  -24.4053   22.1940 C   0  0  0  0  0  0  0  0  0  0  0  0
  -21.1853  -18.9576   24.1072 C   0  0  0  0  0  0  0  0  0  0  0  0
  -21.3086  -17.8182   26.2341 C   0  0  0  0  0  0  0  0  0  0  0  0
  -20.0037  -17.3562   26.0622 C   0  0  0  0  0  0  0  0  0  0  0  0
  -19.2896  -17.6949   24.9128 C   0  0  0  0  0  0  0  0  0  0  0  0
  -28.7645  -18.9571   20.0279 C   0  0  0  0  0  0  0  0  0  0  0  0
  -22.3801  -22.0968   22.6701 C   0  0  0  0  0  0  0  0  0  0  0  0
  -30.4981  -20.3425   20.8008 C   0  0  0  0  0  0  0  0  0  0  0  0
  -32.6200  -20.7643   22.5621 C   0  0  0  0  0  0  0  0  0  0  0  0
  -30.4730  -21.4286   21.6757 C   0  0  0  0  0  0  0  0  0  0  0  0
  -26.6489  -15.3072   20.3450 C   0  0  0  0  0  0  0  0  0  0  0  0
  -26.1026  -13.1867   20.5451 C   0  0  0  0  0  0  0  0  0  0  0  0
  -28.5667  -13.6067   20.5572 C   0  0  0  0  0  0  0  0  0  0  0  0
  -25.8328  -26.0877   21.3990 C   0  0  0  0  0  0  0  0  0  0  0  0
  -20.6921  -13.1613   22.6601 C   0  0  0  0  0  0  0  0  0  0  0  0
  -23.3913  -28.1864   21.7955 C   0  0  0  0  0  0  0  0  0  0  0  0
  -20.1147  -28.7008   22.5992 C   0  0  0  0  0  0  0  0  0  0  0  0
  -30.2936  -28.0757   19.9134 C   0  0  0  0  0  0  0  0  0  0  0  0
  -24.0285  -25.0329   19.9891 C   0  0  0  0  0  0  0  0  0  0  0  0
  -23.0132  -25.8414   22.6462 C   0  0  0  0  0  0  0  0  0  0  0  0
  -29.1260  -28.5400   20.7802 C   0  0  0  0  0  0  0  0  0  0  0  0
  -21.3769  -13.5257   19.1618 C   0  0  0  0  0  0  0  0  0  0  0  0
  -28.7536  -27.4639   21.7952 C   0  0  0  0  0  0  0  0  0  0  0  0
  -22.8507  -13.9279   19.1245 C   0  0  0  0  0  0  0  0  0  0  0  0
  -20.3754  -10.6911   24.7888 C   0  0  0  0  0  0  0  0  0  0  0  0
  -21.3091  -11.1742   25.8616 C   0  0  0  0  0  0  0  0  0  0  0  0
  -20.6683  -14.1134   20.3781 C   0  0  0  0  0  0  0  0  0  0  0  0
  -22.7919  -14.1783   21.6461 C   0  0  0  0  0  0  0  0  0  0  0  0
  -28.3006  -26.1775   21.0942 C   0  0  1  0  0  0  0  0  0  0  0  0
  -24.5250  -26.2944   20.6887 C   0  0  1  0  0  0  0  0  0  0  0  0
  -23.5523  -13.5802   20.4493 C   0  0  2  0  0  0  0  0  0  0  0  0
  -20.6425  -12.1703   24.9419 C   0  0  0  0  0  0  0  0  0  0  0  0
  -22.0951  -17.4700   27.4553 C   0  0  0  0  0  0  0  0  0  0  0  0
  -18.4169  -30.5284   22.8723 C   0  0  0  0  0  0  0  0  0  0  0  0
  -24.6491  -28.9520   24.4679 C   0  0  0  0  0  0  0  0  0  0  0  0
  -22.4790  -30.0277   25.1018 C   0  0  0  0  0  0  0  0  0  0  0  0
  -23.7649  -30.8787   23.1409 C   0  0  0  0  0  0  0  0  0  0  0  0
  -17.4117  -16.9941   23.4269 C   0  0  0  0  0  0  0  0  0  0  0  0
  -18.3943  -27.5798   20.4678 C   0  0  0  0  0  0  0  0  0  0  0  0
  -19.3740  -16.4967   27.1130 C   0  0  0  0  0  0  0  0  0  0  0  0
  -21.8218  -19.8173   23.0550 C   0  0  0  0  0  0  0  0  0  1  0  0
  -21.4908  -12.8453   23.8995 C   0  0  0  0  0  0  0  0  0  0  0  0
  -19.5347  -13.0392   25.5153 C   0  0  0  0  0  0  0  0  0  0  0  0
  -20.0811  -14.3655   26.0191 C   0  0  0  0  0  0  0  0  0  0  0  0
  -22.5674  -28.6586   22.9690 C   0  0  1  0  0  0  0  0  0  0  0  0
  -19.0262  -29.5117   21.9195 C   0  0  2  0  0  0  0  0  0  0  0  0
  -23.3660  -29.6018   23.9124 C   0  0  0  0  0  0  0  0  0  0  0  0
  -25.3135  -15.3016   20.3161 N   0  0  0  0  0  0  0  0  0  0  0  0
  -25.0112  -13.9980   20.4397 N   0  0  0  0  0  0  0  0  0  0  0  0
  -23.5753  -26.8011   21.6815 N   0  0  0  0  0  0  0  0  0  0  0  0
  -21.3778  -13.7796   21.6144 N   0  0  0  0  0  0  0  0  0  0  0  0
  -25.9787  -11.8489   20.6764 N   0  0  0  0  0  0  0  0  0  0  0  0
  -29.5631  -14.5893   20.4809 N   0  0  0  0  0  0  0  0  0  0  0  0
  -17.9671  -17.2380   24.7210 N   0  0  0  0  0  0  0  0  0  0  0  0
  -26.9439  -26.3167   20.6100 N   0  0  0  0  0  0  0  0  0  0  0  0
  -21.3616  -29.2571   22.4067 N   0  0  0  0  0  0  0  0  0  0  0  0
  -17.9403  -28.6150   21.4318 N   0  3  0  0  0  0  0  0  0  0  0  0
  -18.9695  -15.1573   26.6094 N   0  3  0  0  0  0  0  0  0  0  0  0
  -28.8994  -12.4023   20.6683 O   0  0  0  0  0  0  0  0  0  0  0  0
  -25.8338  -25.7472   22.5762 O   0  0  0  0  0  0  0  0  0  0  0  0
  -19.4952  -12.8641   22.6231 O   0  0  0  0  0  0  0  0  0  0  0  0
  -23.8486  -29.0155   21.0049 O   0  0  0  0  0  0  0  0  0  0  0  0
  -19.8817  -27.6783   23.2401 O   0  0  0  0  0  0  0  0  0  0  0  0
  -29.4452  -20.1313   19.9265 O   0  0  0  0  0  0  0  0  0  0  0  0
  -21.8544  -21.1680   23.5144 O   0  0  0  0  0  0  0  0  0  1  0  0
  -33.6382  -20.9658   23.4088 F   0  0  0  0  0  0  0  0  0  0  0  0
  -29.4317  -22.2722   21.6756 F   0  0  0  0  0  0  0  0  0  0  0  0
  1  2  1  0  0  0  0
  1  5  2  0  0  0  0
  2  6  2  0  0  0  0
  3  8  2  0  0  0  0
  3 17  1  0  0  0  0
  4  9  1  0  0  0  0
  4 17  2  0  0  0  0
  5 19  1  0  0  0  0
  6 21  1  0  0  0  0
  7 10  2  0  0  0  0
  7 20  1  0  0  0  0
  8 27  1  0  0  0  0
  9 27  2  0  0  0  0
 10 28  1  0  0  0  0
 11 12  2  0  0  0  0
 11 29  1  0  0  0  0
 12 30  1  0  0  0  0
 13 22  1  0  0  0  0
 13 28  2  0  0  0  0
 14 23  1  0  0  0  0
 14 24  2  0  0  0  0
 15 23  2  0  0  0  0
 15 26  1  0  0  0  0
 16 30  2  0  0  0  0
 16 31  1  0  0  0  0
 17 32  1  0  0  0  0
 18 32  1  0  0  0  0
 18 33  2  0  0  0  0
 18 34  1  0  0  0  0
 19 21  2  0  0  0  0
 19 39  1  0  0  0  0
 20 22  2  0  0  0  0
 20 40  1  0  0  0  0
 21 50  1  0  0  0  0
 22 41  1  0  0  0  0
 23 62  1  0  0  0  0
 24 25  1  0  0  0  0
 24 54  1  0  0  0  0
 25 26  2  0  0  0  0
 25 61  1  0  0  0  0
 26 75  1  0  0  0  0
 27 85  1  0  0  0  0
 28 86  1  0  0  0  0
 29 31  2  0  0  0  0
 29 85  1  0  0  0  0
 30 87  1  0  0  0  0
 31 88  1  0  0  0  0
 32 69  2  0  0  0  0
 33 70  1  0  0  0  0
 33 73  1  0  0  0  0
 34 74  1  0  0  0  0
 34 80  2  0  0  0  0
 35 51  1  0  0  0  0
 35 76  1  0  0  0  0
 35 81  2  0  0  0  0
 36 63  1  0  0  0  0
 36 72  1  0  0  0  0
 36 82  2  0  0  0  0
 37 66  1  0  0  0  0
 37 71  1  0  0  0  0
 37 83  2  0  0  0  0
 38 67  1  0  0  0  0
 38 77  1  0  0  0  0
 38 84  2  0  0  0  0
 39 42  1  0  0  0  0
 40 51  1  0  0  0  0
 41 71  1  0  0  0  0
 42 44  1  0  0  0  0
 43 45  1  0  0  0  0
 43 48  1  0  0  0  0
 44 50  1  0  0  0  0
 45 52  1  0  0  0  0
 46 47  1  0  0  0  0
 46 53  1  0  0  0  0
 47 53  1  0  0  0  0
 48 72  1  0  0  0  0
 49 52  1  0  0  0  0
 49 72  1  0  0  0  0
 50 76  1  0  0  0  0
 51 71  1  0  0  0  0
 52 70  1  0  0  0  0
 53 63  1  0  0  0  0
 53 64  1  0  0  0  0
 55 67  1  0  0  0  0
 56 68  1  0  0  0  0
 57 68  1  0  0  0  0
 58 68  1  0  0  0  0
 59 75  1  0  0  0  0
 60 78  1  0  0  0  0
 61 79  1  0  0  0  0
 62 86  1  0  0  0  0
 64 65  1  0  0  0  0
 65 79  1  0  0  0  0
 66 68  1  0  0  0  0
 66 77  1  0  0  0  0
 67 78  1  0  0  0  0
 69 70  1  0  0  0  0
M  CHG  2  78   1  79   1
M  ISO  4  36 100  62 101  63 100  86 101
M  END
> <Batch ID>
0132

> <Smiles>
CNc1cc([101CH2:1][101O:1]c2ccc3c(c2)CN(C(=O)C(NC(=O)C(C)NC)C(C)(C)C)C(C(=O)NC2CCCc4ccccc42)C3)cc(C)c1CNCCC1([100CH2:0][100C:0](=O)N2CCCC(n3nc(-c4ccc(Oc5ccc(F)cc5F)cc4)c(C(N)=O)c3N)C2)CC1

> <Shape>
0.219

> <Color>
0.074

> <Negative vol penalty>
0.000

$$$$

  -OEChem-04052320523D

 82 90  0     1  0  0  0  0  0999 V2000
  -16.9476  -25.1431   23.8915 C   0  0  0  0  0  0  0  0  0  0  0  0
  -17.8530  -24.5144   23.0426 C   0  0  0  0  0  0  0  0  0  0  0  0
  -21.9902  -13.4675   18.7811 C   0  0  0  0  0  0  0  0  0  0  0  0
  -30.1630  -22.1010   21.3753 C   0  0  0  0  0  0  0  0  0  0  0  0
  -27.9799  -22.2007   20.3451 C   0  0  0  0  0  0  0  0  0  0  0  0
  -16.9894  -26.5275   24.0513 C   0  0  0  0  0  0  0  0  0  0  0  0
  -18.7999  -25.2700   22.3522 C   0  0  0  0  0  0  0  0  0  0  0  0
  -23.4200  -23.2019   22.5021 C   0  0  0  0  0  0  0  0  0  0  0  0
  -22.7139  -12.7434   19.7285 C   0  0  0  0  0  0  0  0  0  0  0  0
  -22.4540  -14.7104   18.3500 C   0  0  0  0  0  0  0  0  0  0  0  0
  -30.6024  -23.1310   20.5437 C   0  0  0  0  0  0  0  0  0  0  0  0
  -28.4193  -23.2308   19.5136 C   0  0  0  0  0  0  0  0  0  0  0  0
  -23.6648  -22.1277   21.6478 C   0  0  0  0  0  0  0  0  0  0  0  0
  -29.0701  -25.6412   16.8723 C   0  0  0  0  0  0  0  0  0  0  0  0
  -28.7371  -25.5692   15.5197 C   0  0  0  0  0  0  0  0  0  0  0  0
  -24.7833  -23.6128   20.1107 C   0  0  0  0  0  0  0  0  0  0  0  0
  -29.9235  -23.4724   15.3391 C   0  0  0  0  0  0  0  0  0  0  0  0
  -28.8517  -21.6358   21.2759 C   0  0  0  0  0  0  0  0  0  0  0  0
  -27.8035  -20.6983   23.4044 C   0  0  0  0  0  0  0  0  0  0  0  0
  -17.9436  -27.2994   23.3698 C   0  0  0  0  0  0  0  0  0  0  0  0
  -23.8462  -24.4937   22.1615 C   0  0  0  0  0  0  0  0  0  0  0  0
  -18.8536  -26.6662   22.5019 C   0  0  0  0  0  0  0  0  0  0  0  0
  -24.5450  -24.7013   20.9637 C   0  0  0  0  0  0  0  0  0  0  0  0
  -23.9013  -13.2621   20.2448 C   0  0  0  0  0  0  0  0  0  0  0  0
  -23.6414  -15.2291   18.8663 C   0  0  0  0  0  0  0  0  0  0  0  0
  -24.3651  -14.5050   19.8137 C   0  0  0  0  0  0  0  0  0  0  0  0
  -29.7306  -23.6959   19.6129 C   0  0  0  0  0  0  0  0  0  0  0  0
  -24.3440  -22.3335   20.4505 C   0  0  0  0  0  0  0  0  0  0  0  0
  -29.8299  -24.6287   17.4583 C   0  0  0  0  0  0  0  0  0  0  0  0
  -29.1637  -24.4848   14.7531 C   0  0  0  0  0  0  0  0  0  0  0  0
  -30.2566  -23.5443   16.6917 C   0  0  0  0  0  0  0  0  0  0  0  0
  -28.3973  -20.5714   22.1343 C   0  0  0  0  0  0  0  0  0  0  0  0
  -27.5573  -19.4060   23.7990 C   0  0  0  0  0  0  0  0  0  0  0  0
  -27.5015  -21.8789   24.1599 C   0  0  0  0  0  0  0  0  0  0  0  0
  -22.3884  -27.2634   21.6067 C   0  0  0  0  0  0  0  0  0  0  0  0
  -25.4274  -28.3889   21.4649 C   0  0  0  0  0  0  0  0  0  0  0  0
  -28.7341  -27.7423   20.9220 C   0  0  0  0  0  0  0  0  0  0  0  0
  -26.6785  -14.3170   20.7931 C   0  0  0  0  0  0  0  0  0  0  0  0
  -17.9194  -28.7980   23.5381 C   0  0  0  0  0  0  0  0  0  0  0  0
  -23.5979  -25.6373   23.1065 C   0  0  0  0  0  0  0  0  0  0  0  0
  -25.0413  -26.0652   20.5613 C   0  0  0  0  0  0  0  0  0  0  0  0
  -19.1954  -29.4854   23.0589 C   0  0  0  0  0  0  0  0  0  0  0  0
  -29.1950  -14.9414   23.2334 C   0  0  0  0  0  0  0  0  0  0  0  0
  -19.6085  -28.9507   21.6913 C   0  0  0  0  0  0  0  0  0  0  0  0
  -29.2177  -16.4673   23.3485 C   0  0  0  0  0  0  0  0  0  0  0  0
  -28.9454  -14.4847   21.7971 C   0  0  0  0  0  0  0  0  0  0  0  0
  -27.7800  -16.5911   21.2737 C   0  0  0  0  0  0  0  0  0  0  0  0
  -19.9116  -27.4488   21.7548 C   0  0  1  0  0  0  0  0  0  0  0  0
  -23.6252  -26.9983   22.4177 C   0  0  1  0  0  0  0  0  0  0  0  0
  -27.9636  -17.0991   22.7131 C   0  0  2  0  0  0  0  0  0  0  0  0
  -24.6542  -12.4628   21.2586 C   0  0  0  0  0  0  0  0  0  0  0  0
  -30.9741  -28.8704   20.8391 C   0  0  0  0  0  0  0  0  0  0  0  0
  -24.7317  -29.5645   18.7366 C   0  0  0  0  0  0  0  0  0  0  0  0
  -27.1833  -29.8264   18.3019 C   0  0  0  0  0  0  0  0  0  0  0  0
  -26.1154  -31.0545   20.1924 C   0  0  0  0  0  0  0  0  0  0  0  0
  -29.7838  -26.0775   23.1323 C   0  0  0  0  0  0  0  0  0  0  0  0
  -24.1141  -16.5683   18.3823 C   0  0  0  0  0  0  0  0  0  0  0  0
  -24.4136  -18.9823   18.9493 C   0  0  0  0  0  0  0  0  0  0  0  0
  -24.1112  -20.0050   20.0267 C   0  0  0  0  0  0  0  0  0  1  0  0
  -26.4558  -28.5558   20.3724 C   0  0  1  0  0  0  0  0  0  0  0  0
  -29.9766  -28.1202   21.7080 C   0  0  2  0  0  0  0  0  0  0  0  0
  -26.1106  -29.7248   19.4072 C   0  0  0  0  0  0  0  0  0  0  0  0
  -28.5210  -19.2989   21.7477 N   0  0  0  0  0  0  0  0  0  0  0  0
  -28.0016  -18.6144   22.7811 N   0  0  0  0  0  0  0  0  0  0  0  0
  -24.7684  -27.1524   21.5157 N   0  0  0  0  0  0  0  0  0  0  0  0
  -27.7393  -15.1204   21.2624 N   0  0  0  0  0  0  0  0  0  0  0  0
  -27.0064  -18.8809   24.9140 N   0  0  0  0  0  0  0  0  0  0  0  0
  -27.8205  -23.1263   23.6062 N   0  0  0  0  0  0  0  0  0  0  0  0
  -25.5711  -15.0323   20.3385 N   0  0  0  0  0  0  0  0  0  0  0  0
  -21.2165  -27.2208   22.3376 N   0  0  0  0  0  0  0  0  0  0  0  0
  -27.7443  -28.6947   21.0424 N   0  0  0  0  0  0  0  0  0  0  0  0
  -30.6434  -26.8989   22.2416 N   0  3  0  0  0  0  0  0  0  0  0  0
  -23.9016  -17.6555   19.3756 N   0  3  0  0  0  0  0  0  0  0  0  0
  -26.9795  -21.8284   25.2994 O   0  0  0  0  0  0  0  0  0  0  0  0
  -22.4900  -27.4912   20.4069 O   0  0  0  0  0  0  0  0  0  0  0  0
  -25.2217  -29.3188   22.2489 O   0  0  0  0  0  0  0  0  0  0  0  0
  -28.6513  -26.7076   20.2639 O   0  0  0  0  0  0  0  0  0  0  0  0
  -26.7365  -13.0850   20.8198 O   0  0  0  0  0  0  0  0  0  0  0  0
  -30.1591  -24.7012   18.8014 O   0  0  0  0  0  0  0  0  0  0  0  0
  -24.5837  -21.2869   19.6145 O   0  0  0  0  0  0  0  0  0  1  0  0
  -28.8425  -24.4151   13.4546 F   0  0  0  0  0  0  0  0  0  0  0  0
  -30.9857  -22.5680   17.2493 F   0  0  0  0  0  0  0  0  0  0  0  0
  1  2  1  0  0  0  0
  1  6  2  0  0  0  0
  2  7  2  0  0  0  0
  3  9  1  0  0  0  0
  3 10  2  0  0  0  0
  4 11  2  0  0  0  0
  4 18  1  0  0  0  0
  5 12  1  0  0  0  0
  5 18  2  0  0  0  0
  6 20  1  0  0  0  0
  7 22  1  0  0  0  0
  8 13  2  0  0  0  0
  8 21  1  0  0  0  0
  9 24  2  0  0  0  0
 10 25  1  0  0  0  0
 11 27  1  0  0  0  0
 12 27  2  0  0  0  0
 13 28  1  0  0  0  0
 14 15  2  0  0  0  0
 14 29  1  0  0  0  0
 15 30  1  0  0  0  0
 16 23  1  0  0  0  0
 16 28  2  0  0  0  0
 17 30  2  0  0  0  0
 17 31  1  0  0  0  0
 18 32  1  0  0  0  0
 19 32  1  0  0  0  0
 19 33  2  0  0  0  0
 19 34  1  0  0  0  0
 20 22  2  0  0  0  0
 20 39  1  0  0  0  0
 21 23  2  0  0  0  0
 21 40  1  0  0  0  0
 22 48  1  0  0  0  0
 23 41  1  0  0  0  0
 24 26  1  0  0  0  0
 24 51  1  0  0  0  0
 25 26  2  0  0  0  0
 25 57  1  0  0  0  0
 26 69  1  0  0  0  0
 27 79  1  0  0  0  0
 28 80  1  0  0  0  0
 29 31  2  0  0  0  0
 29 79  1  0  0  0  0
 30 81  1  0  0  0  0
 31 82  1  0  0  0  0
 32 63  2  0  0  0  0
 33 64  1  0  0  0  0
 33 67  1  0  0  0  0
 34 68  1  0  0  0  0
 34 74  2  0  0  0  0
 35 49  1  0  0  0  0
 35 70  1  0  0  0  0
 35 75  2  0  0  0  0
 36 60  1  0  0  0  0
 36 65  1  0  0  0  0
 36 76  2  0  0  0  0
 37 61  1  0  0  0  0
 37 71  1  0  0  0  0
 37 77  2  0  0  0  0
 38 66  1  0  0  0  0
 38 69  1  0  0  0  0
 38 78  2  0  0  0  0
 39 42  1  0  0  0  0
 40 49  1  0  0  0  0
 41 65  1  0  0  0  0
 42 44  1  0  0  0  0
 43 45  1  0  0  0  0
 43 46  1  0  0  0  0
 44 48  1  0  0  0  0
 45 50  1  0  0  0  0
 46 66  1  0  0  0  0
 47 50  1  0  0  0  0
 47 66  1  0  0  0  0
 48 70  1  0  0  0  0
 49 65  1  0  0  0  0
 50 64  1  0  0  0  0
 52 61  1  0  0  0  0
 53 62  1  0  0  0  0
 54 62  1  0  0  0  0
 55 62  1  0  0  0  0
 56 72  1  0  0  0  0
 57 73  1  0  0  0  0
 58 59  1  0  0  0  0
 58 73  1  0  0  0  0
 59 80  1  0  0  0  0
 60 62  1  0  0  0  0
 60 71  1  0  0  0  0
 61 72  1  0  0  0  0
 63 64  1  0  0  0  0
M  CHG  2  72   1  73   1
M  ISO  4  38 100  59 101  69 100  80 101
M  END
> <Batch ID>
0132

> <Smiles>
CNC(C)C(=O)NC(C(=O)N1Cc2cc([101O:1][101CH2:1]CNCc3cccc(C)c3[100NH:0][100C:0](=O)N3CCCC(n4nc(-c5ccc(Oc6ccc(F)cc6F)cc5)c(C(N)=O)c4N)C3)ccc2CC1C(=O)NC1CCCc2ccccc21)C(C)(C)C

> <Shape>
0.211

> <Color>
0.055

> <Negative vol penalty>
0.000

$$$$

  -OEChem-04052320523D

 85 94  0     1  0  0  0  0  0999 V2000
  -16.1201  -31.1540   20.7817 C   0  0  0  0  0  0  0  0  0  0  0  0
  -17.3439  -31.7982   20.6310 C   0  0  0  0  0  0  0  0  0  0  0  0
  -23.9624  -12.7753   20.5740 C   0  0  0  0  0  0  0  0  0  0  0  0
  -26.2517  -12.5865   21.3229 C   0  0  0  0  0  0  0  0  0  0  0  0
  -15.9785  -30.1418   21.7300 C   0  0  0  0  0  0  0  0  0  0  0  0
  -18.4266  -31.4312   21.4293 C   0  0  0  0  0  0  0  0  0  0  0  0
  -25.5738  -29.0403   19.3731 C   0  0  0  0  0  0  0  0  0  0  0  0
  -23.9272  -11.4014   20.3356 C   0  0  0  0  0  0  0  0  0  0  0  0
  -26.2164  -11.2126   21.0845 C   0  0  0  0  0  0  0  0  0  0  0  0
  -26.8175  -28.4556   19.1330 C   0  0  0  0  0  0  0  0  0  0  0  0
  -23.1181   -7.8880   19.8706 C   0  0  0  0  0  0  0  0  0  0  0  0
  -21.9954   -7.1831   20.3044 C   0  0  0  0  0  0  0  0  0  0  0  0
  -26.7237  -27.3489   21.2812 C   0  0  0  0  0  0  0  0  0  0  0  0
  -22.4482   -7.8613   22.5786 C   0  0  0  0  0  0  0  0  0  0  0  0
  -25.1247  -13.3679   21.0676 C   0  0  0  0  0  0  0  0  0  0  0  0
  -24.8262  -15.4519   22.5082 C   0  0  0  0  0  0  0  0  0  0  0  0
  -17.0627  -29.7556   22.5337 C   0  0  0  0  0  0  0  0  0  0  0  0
  -24.8926  -28.7689   20.5629 C   0  0  0  0  0  0  0  0  0  0  0  0
  -18.2991  -30.4138   22.3902 C   0  0  0  0  0  0  0  0  0  0  0  0
  -25.4720  -27.9218   21.5217 C   0  0  0  0  0  0  0  0  0  0  0  0
  -25.0541  -10.6201   20.5908 C   0  0  0  0  0  0  0  0  0  0  0  0
  -27.3911  -27.6122   20.0849 C   0  0  0  0  0  0  0  0  0  0  0  0
  -23.9060   -8.5795   20.7908 C   0  0  0  0  0  0  0  0  0  0  0  0
  -21.6604   -7.1698   21.6583 C   0  0  0  0  0  0  0  0  0  0  0  0
  -23.5710   -8.5662   22.1448 C   0  0  0  0  0  0  0  0  0  0  0  0
  -25.1620  -14.7871   21.3136 C   0  0  0  0  0  0  0  0  0  0  0  0
  -25.0279  -16.7816   22.2295 C   0  0  0  0  0  0  0  0  0  0  0  0
  -24.3726  -14.9155   23.7580 C   0  0  0  0  0  0  0  0  0  0  0  0
  -21.8252  -29.3395   22.6465 C   0  0  0  0  0  0  0  0  0  0  0  0
  -22.5469  -26.3703   22.9176 C   0  0  0  0  0  0  0  0  0  0  0  0
  -23.1215  -23.3668   22.1752 C   0  0  0  0  0  0  0  0  0  0  0  0
  -28.5650  -19.4969   18.3601 C   0  0  0  0  0  0  0  0  0  0  0  0
  -16.8486  -28.6884   23.5777 C   0  0  0  0  0  0  0  0  0  0  0  0
  -23.5788  -29.4252   20.8904 C   0  0  0  0  0  0  0  0  0  0  0  0
  -24.7186  -27.6859   22.8022 C   0  0  0  0  0  0  0  0  0  0  0  0
  -18.1475  -28.1026   24.1253 C   0  0  0  0  0  0  0  0  0  0  0  0
  -32.2525  -21.3618   16.2396 C   0  0  0  0  0  0  0  0  0  0  0  0
  -31.5608  -26.8640   20.2146 C   0  0  0  0  0  0  0  0  0  0  0  0
  -24.9757  -19.8959   18.5955 C   0  0  0  0  0  0  0  0  0  0  0  0
  -19.1326  -29.2158   24.4677 C   0  0  0  0  0  0  0  0  0  0  0  0
  -24.5894  -18.6810   19.4410 C   0  0  0  0  0  0  0  0  0  0  0  0
  -30.8958  -20.6720   16.3783 C   0  0  0  0  0  0  0  0  0  0  0  0
  -32.1023  -22.8733   16.0773 C   0  0  0  0  0  0  0  0  0  0  0  0
  -31.9178  -26.0330   18.9840 C   0  0  0  0  0  0  0  0  0  0  0  0
  -30.7488  -28.1079   19.8518 C   0  0  0  0  0  0  0  0  0  0  0  0
  -29.9148  -22.7924   17.3532 C   0  0  0  0  0  0  0  0  0  0  0  0
  -26.1051  -19.5586   17.6266 C   0  0  0  0  0  0  0  0  0  0  0  0
  -26.9417  -17.7848   19.1191 C   0  0  0  0  0  0  0  0  0  0  0  0
  -19.5038  -30.0270   23.2204 C   0  0  1  0  0  0  0  0  0  0  0  0
  -22.6305  -28.5123   21.6881 C   0  0  1  0  0  0  0  0  0  0  0  0
  -29.8512  -26.9365   17.7610 C   0  0  1  0  0  0  0  0  0  0  0  0
  -25.8198  -18.0672   20.1349 C   0  0  2  0  0  0  0  0  0  0  0  0
  -30.0706  -21.2769   17.5183 C   0  0  1  0  0  0  0  0  0  0  0  0
  -31.2813  -23.4639   17.2210 C   0  0  2  0  0  0  0  0  0  0  0  0
  -30.6698  -25.6927   18.1694 C   0  0  1  0  0  0  0  0  0  0  0  0
  -29.5115  -27.7716   19.0146 C   0  0  1  0  0  0  0  0  0  1  0  0
  -30.5324  -27.8122   16.7011 C   0  0  0  0  0  0  0  0  0  0  0  0
  -23.1192  -20.8958   22.6131 C   0  0  0  0  0  0  0  0  0  0  0  0
  -23.8292  -26.9512   25.6236 C   0  0  0  0  0  0  0  0  0  0  0  0
  -24.0250  -24.4810   25.9814 C   0  0  0  0  0  0  0  0  0  0  0  0
  -21.7752  -25.5280   25.7260 C   0  0  0  0  0  0  0  0  0  0  0  0
  -21.4548  -22.8281   19.7897 C   0  0  0  0  0  0  0  0  0  0  0  0
  -23.2791  -25.3133   23.7050 C   0  0  1  0  0  0  0  0  0  0  0  0
  -22.3722  -22.0607   21.9824 C   0  0  2  0  0  0  0  0  0  0  0  0
  -23.2388  -25.5807   25.2362 C   0  0  0  0  0  0  0  0  0  0  0  0
  -25.5476  -15.6253   20.3478 N   0  0  0  0  0  0  0  0  0  0  0  0
  -25.4553  -16.8305   20.9352 N   0  0  0  0  0  0  0  0  0  0  0  0
  -23.2895  -27.4869   22.5148 N   0  0  0  0  0  0  0  0  0  0  0  0
  -27.2526  -18.9960   18.3526 N   0  0  0  0  0  0  0  0  0  0  0  0
  -24.8795  -17.9021   22.9676 N   0  0  0  0  0  0  0  0  0  0  0  0
  -24.2197  -13.5271   23.8731 N   0  0  0  0  0  0  0  0  0  0  0  0
  -20.4635  -29.3035   22.4142 N   0  0  0  0  0  0  0  0  0  0  0  0
  -22.7018  -24.0342   23.3064 N   0  0  0  0  0  0  0  0  0  0  0  0
  -28.7771  -20.6428   17.6034 N   0  0  0  0  0  0  0  0  0  0  0  0
  -31.0817  -24.9160   16.9694 N   0  3  0  0  0  0  0  0  0  0  0  0
  -22.1951  -21.7745   20.5306 N   0  3  0  0  0  0  0  0  0  0  0  0
  -24.0949  -15.6471   24.7385 O   0  0  0  0  0  0  0  0  0  0  0  0
  -22.3959  -29.9639   23.5331 O   0  0  0  0  0  0  0  0  0  0  0  0
  -21.3477  -26.2155   22.6699 O   0  0  0  0  0  0  0  0  0  0  0  0
  -23.9946  -23.7542   21.4018 O   0  0  0  0  0  0  0  0  0  0  0  0
  -29.4796  -18.9652   18.9987 O   0  0  0  0  0  0  0  0  0  0  0  0
  -25.0199   -9.2794   20.3585 O   0  0  0  0  0  0  0  0  0  0  0  0
  -28.6034  -27.0412   19.8422 O   0  0  0  0  0  0  0  0  0  1  0  0
  -20.5813   -6.4942   22.0745 F   0  0  0  0  0  0  0  0  0  0  0  0
  -24.3234   -9.2296   23.0334 F   0  0  0  0  0  0  0  0  0  0  0  0
  1  2  1  0  0  0  0
  1  5  2  0  0  0  0
  2  6  2  0  0  0  0
  3  8  2  0  0  0  0
  3 15  1  0  0  0  0
  4  9  1  0  0  0  0
  4 15  2  0  0  0  0
  5 17  1  0  0  0  0
  6 19  1  0  0  0  0
  7 10  2  0  0  0  0
  7 18  1  0  0  0  0
  8 21  1  0  0  0  0
  9 21  2  0  0  0  0
 10 22  1  0  0  0  0
 11 12  2  0  0  0  0
 11 23  1  0  0  0  0
 12 24  1  0  0  0  0
 13 20  1  0  0  0  0
 13 22  2  0  0  0  0
 14 24  2  0  0  0  0
 14 25  1  0  0  0  0
 15 26  1  0  0  0  0
 16 26  1  0  0  0  0
 16 27  2  0  0  0  0
 16 28  1  0  0  0  0
 17 19  2  0  0  0  0
 17 33  1  0  0  0  0
 18 20  2  0  0  0  0
 18 34  1  0  0  0  0
 19 49  1  0  0  0  0
 20 35  1  0  0  0  0
 21 82  1  0  0  0  0
 22 83  1  0  0  0  0
 23 25  2  0  0  0  0
 23 82  1  0  0  0  0
 24 84  1  0  0  0  0
 25 85  1  0  0  0  0
 26 66  2  0  0  0  0
 27 67  1  0  0  0  0
 27 70  1  0  0  0  0
 28 71  1  0  0  0  0
 28 77  2  0  0  0  0
 29 50  1  0  0  0  0
 29 72  1  0  0  0  0
 29 78  2  0  0  0  0
 30 63  1  0  0  0  0
 30 68  1  0  0  0  0
 30 79  2  0  0  0  0
 31 64  1  0  0  0  0
 31 73  1  0  0  0  0
 31 80  2  0  0  0  0
 32 69  1  0  0  0  0
 32 74  1  0  0  0  0
 32 81  2  0  0  0  0
 33 36  1  0  0  0  0
 34 50  1  0  0  0  0
 35 68  1  0  0  0  0
 36 40  1  0  0  0  0
 37 42  1  0  0  0  0
 37 43  1  0  0  0  0
 38 44  1  0  0  0  0
 38 45  1  0  0  0  0
 39 41  1  0  0  0  0
 39 47  1  0  0  0  0
 40 49  1  0  0  0  0
 41 52  1  0  0  0  0
 42 53  1  0  0  0  0
 43 54  1  0  0  0  0
 44 55  1  0  0  0  0
 45 56  1  0  0  0  0
 46 53  1  0  0  0  0
 46 54  1  0  0  0  0
 47 69  1  0  0  0  0
 48 52  1  0  0  0  0
 48 69  1  0  0  0  0
 49 72  1  0  0  0  0
 50 68  1  0  0  0  0
 51 55  1  0  0  0  0
 51 56  1  0  0  0  0
 51 57  1  0  0  0  0
 52 67  1  0  0  0  0
 53 74  1  0  0  0  0
 54 75  1  0  0  0  0
 55 75  1  0  0  0  0
 56 83  1  0  0  0  0
 58 64  1  0  0  0  0
 59 65  1  0  0  0  0
 60 65  1  0  0  0  0
 61 65  1  0  0  0  0
 62 76  1  0  0  0  0
 63 65  1  0  0  0  0
 63 73  1  0  0  0  0
 64 76  1  0  0  0  0
 66 67  1  0  0  0  0
M  CHG  2  75   1  76   1
M  ISO  4  32 100  56 101  74 100  83 101
M  END
> <Batch ID>
0132

> <Smiles>
CNC(C)C(=O)NC(C(=O)N1Cc2cc([101O:1][101CH:1]3CCCC(NC4CCCC([100NH:0][100C:0](=O)N5CCCC(n6nc(-c7ccc(Oc8ccc(F)cc8F)cc7)c(C(N)=O)c6N)C5)C4)C3C)ccc2CC1C(=O)NC1CCCc2ccccc21)C(C)(C)C

> <Shape>
0.224

> <Color>
0.093

> <Negative vol penalty>
0.000

$$$$

  -OEChem-04052320523D

 83 91  0     1  0  0  0  0  0999 V2000
  -19.0531  -22.3012   32.5973 C   0  0  0  0  0  0  0  0  0  0  0  0
  -19.3284  -22.7499   31.3096 C   0  0  0  0  0  0  0  0  0  0  0  0
  -27.4868  -21.3314   18.4590 C   0  0  0  0  0  0  0  0  0  0  0  0
  -23.0736   -9.8700   19.9415 C   0  0  0  0  0  0  0  0  0  0  0  0
  -23.8378   -9.8747   22.2334 C   0  0  0  0  0  0  0  0  0  0  0  0
  -19.9731  -21.4934   33.2643 C   0  0  0  0  0  0  0  0  0  0  0  0
  -20.5244  -22.3919   30.6885 C   0  0  0  0  0  0  0  0  0  0  0  0
  -23.2369  -20.9272   24.2222 C   0  0  0  0  0  0  0  0  0  0  0  0
  -27.6273  -20.0343   17.9657 C   0  0  0  0  0  0  0  0  0  0  0  0
  -27.8905  -21.6303   19.7603 C   0  0  0  0  0  0  0  0  0  0  0  0
  -22.3305   -8.7164   20.1915 C   0  0  0  0  0  0  0  0  0  0  0  0
  -23.0947   -8.7211   22.4835 C   0  0  0  0  0  0  0  0  0  0  0  0
  -24.2886  -21.2992   23.3859 C   0  0  0  0  0  0  0  0  0  0  0  0
  -19.8679   -7.9217   23.0912 C   0  0  0  0  0  0  0  0  0  0  0  0
  -19.1131   -7.8803   24.2635 C   0  0  0  0  0  0  0  0  0  0  0  0
  -25.7678  -19.8342   24.6044 C   0  0  0  0  0  0  0  0  0  0  0  0
  -20.3564   -5.9424   24.9955 C   0  0  0  0  0  0  0  0  0  0  0  0
  -23.8273  -10.4492   20.9624 C   0  0  0  0  0  0  0  0  0  0  0  0
  -24.1682  -12.9745   20.8444 C   0  0  0  0  0  0  0  0  0  0  0  0
  -21.1767  -21.1174   32.6474 C   0  0  0  0  0  0  0  0  0  0  0  0
  -23.4457  -20.0126   25.2644 C   0  0  0  0  0  0  0  0  0  0  0  0
  -21.4620  -21.5794   31.3484 C   0  0  0  0  0  0  0  0  0  0  0  0
  -24.7166  -19.4503   25.4509 C   0  0  0  0  0  0  0  0  0  0  0  0
  -28.1715  -19.0360   18.7737 C   0  0  0  0  0  0  0  0  0  0  0  0
  -28.4347  -20.6319   20.5683 C   0  0  0  0  0  0  0  0  0  0  0  0
  -28.5751  -19.3348   20.0751 C   0  0  0  0  0  0  0  0  0  0  0  0
  -22.3410   -8.1419   21.4626 C   0  0  0  0  0  0  0  0  0  0  0  0
  -25.5549  -20.7549   23.5787 C   0  0  0  0  0  0  0  0  0  0  0  0
  -20.8669   -6.9734   22.8710 C   0  0  0  0  0  0  0  0  0  0  0  0
  -19.3574   -6.8907   25.2156 C   0  0  0  0  0  0  0  0  0  0  0  0
  -21.1111   -5.9838   23.8232 C   0  0  0  0  0  0  0  0  0  0  0  0
  -24.5956  -11.6405   20.7045 C   0  0  0  0  0  0  0  0  0  0  0  0
  -25.2595  -13.7247   20.4800 C   0  0  0  0  0  0  0  0  0  0  0  0
  -22.8984  -13.4895   21.2663 C   0  0  0  0  0  0  0  0  0  0  0  0
  -23.2059  -20.1283   28.4319 C   0  0  0  0  0  0  0  0  0  0  0  0
  -23.8219  -16.9516   28.2049 C   0  0  0  0  0  0  0  0  0  0  0  0
  -25.1732  -14.3836   26.4089 C   0  0  0  0  0  0  0  0  0  0  0  0
  -30.7433  -14.7450   20.6592 C   0  0  0  0  0  0  0  0  0  0  0  0
  -22.1614  -20.2816   33.4262 C   0  0  0  0  0  0  0  0  0  0  0  0
  -22.2947  -19.6014   26.1411 C   0  0  0  0  0  0  0  0  0  0  0  0
  -24.9882  -18.4489   26.5426 C   0  0  0  0  0  0  0  0  0  0  0  0
  -23.2380  -19.6393   32.5552 C   0  0  0  0  0  0  0  0  0  0  0  0
  -29.6019  -12.3628   18.2720 C   0  0  0  0  0  0  0  0  0  0  0  0
  -23.8174  -20.6612   31.5822 C   0  0  0  0  0  0  0  0  0  0  0  0
  -28.1653  -12.0682   18.7072 C   0  0  0  0  0  0  0  0  0  0  0  0
  -30.5212  -12.5826   19.4714 C   0  0  0  0  0  0  0  0  0  0  0  0
  -28.6219  -13.3116   20.8623 C   0  0  0  0  0  0  0  0  0  0  0  0
  -22.7374  -21.1921   30.6318 C   0  0  1  0  0  0  0  0  0  0  0  0
  -22.7397  -19.0519   27.4929 C   0  0  1  0  0  0  0  0  0  0  0  0
  -27.6455  -13.1381   19.6863 C   0  0  2  0  0  0  0  0  0  0  0  0
  -28.3087  -17.6556   18.2179 C   0  0  0  0  0  0  0  0  0  0  0  0
  -25.7489  -12.0182   25.7997 C   0  0  0  0  0  0  0  0  0  0  0  0
  -26.1012  -17.3792   30.1878 C   0  0  0  0  0  0  0  0  0  0  0  0
  -27.0124  -15.1464   29.5152 C   0  0  0  0  0  0  0  0  0  0  0  0
  -24.7588  -15.3047   30.5731 C   0  0  0  0  0  0  0  0  0  0  0  0
  -22.6515  -14.0359   24.8993 C   0  0  0  0  0  0  0  0  0  0  0  0
  -28.8610  -20.9856   21.9724 C   0  0  0  0  0  0  0  0  0  0  0  0
  -30.5250  -18.0402   20.9397 C   0  0  0  0  0  0  0  0  0  0  0  0
  -30.8109  -16.8943   21.8983 C   0  0  0  0  0  0  0  0  0  0  0  0
  -27.8543  -20.5200   23.0187 C   0  0  0  0  0  0  0  0  0  1  0  0
  -25.0703  -16.1028   28.1944 C   0  0  1  0  0  0  0  0  0  0  0  0
  -24.6268  -13.0166   26.0384 C   0  0  2  0  0  0  0  0  0  0  0  0
  -25.7313  -16.0036   29.5982 C   0  0  0  0  0  0  0  0  0  0  0  0
  -25.8597  -11.5455   20.2837 N   0  0  0  0  0  0  0  0  0  0  0  0
  -26.2360  -12.8293   20.1561 N   0  0  0  0  0  0  0  0  0  0  0  0
  -23.8320  -18.0835   27.3775 N   0  0  0  0  0  0  0  0  0  0  0  0
  -29.9720  -13.6100   20.3595 N   0  0  0  0  0  0  0  0  0  0  0  0
  -25.4694  -15.0563   20.4080 N   0  0  0  0  0  0  0  0  0  0  0  0
  -21.8873  -12.5797   21.6045 N   0  0  0  0  0  0  0  0  0  0  0  0
  -29.1258  -18.3224   20.8946 N   0  0  0  0  0  0  0  0  0  0  0  0
  -22.4602  -20.2253   29.5912 N   0  0  0  0  0  0  0  0  0  0  0  0
  -24.6847  -14.8169   27.6233 N   0  0  0  0  0  0  0  0  0  0  0  0
  -30.1455  -15.6728   21.5034 N   0  0  0  0  0  0  0  0  0  0  0  0
  -23.8054  -13.1058   24.7981 N   0  3  0  0  0  0  0  0  0  0  0  0
  -22.6619  -14.7200   21.3254 O   0  0  0  0  0  0  0  0  0  0  0  0
  -24.1717  -20.8187   28.1279 O   0  0  0  0  0  0  0  0  0  0  0  0
  -22.8702  -16.6187   28.9155 O   0  0  0  0  0  0  0  0  0  0  0  0
  -25.9580  -15.0032   25.6943 O   0  0  0  0  0  0  0  0  0  0  0  0
  -31.8784  -14.9213   20.2036 O   0  0  0  0  0  0  0  0  0  0  0  0
  -21.6158   -7.0164   21.7071 O   0  0  0  0  0  0  0  0  0  0  0  0
  -26.5833  -21.1168   22.7642 O   0  0  0  0  0  0  0  0  0  1  0  0
  -18.6336   -6.8520   26.3420 F   0  0  0  0  0  0  0  0  0  0  0  0
  -22.0703   -5.0708   23.6178 F   0  0  0  0  0  0  0  0  0  0  0  0
  1  2  1  0  0  0  0
  1  6  2  0  0  0  0
  2  7  2  0  0  0  0
  3  9  1  0  0  0  0
  3 10  2  0  0  0  0
  4 11  2  0  0  0  0
  4 18  1  0  0  0  0
  5 12  1  0  0  0  0
  5 18  2  0  0  0  0
  6 20  1  0  0  0  0
  7 22  1  0  0  0  0
  8 13  2  0  0  0  0
  8 21  1  0  0  0  0
  9 24  2  0  0  0  0
 10 25  1  0  0  0  0
 11 27  1  0  0  0  0
 12 27  2  0  0  0  0
 13 28  1  0  0  0  0
 14 15  2  0  0  0  0
 14 29  1  0  0  0  0
 15 30  1  0  0  0  0
 16 23  1  0  0  0  0
 16 28  2  0  0  0  0
 17 30  2  0  0  0  0
 17 31  1  0  0  0  0
 18 32  1  0  0  0  0
 19 32  1  0  0  0  0
 19 33  2  0  0  0  0
 19 34  1  0  0  0  0
 20 22  2  0  0  0  0
 20 39  1  0  0  0  0
 21 23  2  0  0  0  0
 21 40  1  0  0  0  0
 22 48  1  0  0  0  0
 23 41  1  0  0  0  0
 24 26  1  0  0  0  0
 24 51  1  0  0  0  0
 25 26  2  0  0  0  0
 25 57  1  0  0  0  0
 26 70  1  0  0  0  0
 27 80  1  0  0  0  0
 28 81  1  0  0  0  0
 29 31  2  0  0  0  0
 29 80  1  0  0  0  0
 30 82  1  0  0  0  0
 31 83  1  0  0  0  0
 32 64  2  0  0  0  0
 33 65  1  0  0  0  0
 33 68  1  0  0  0  0
 34 69  1  0  0  0  0
 34 75  2  0  0  0  0
 35 49  1  0  0  0  0
 35 71  1  0  0  0  0
 35 76  2  0  0  0  0
 36 61  1  0  0  0  0
 36 66  1  0  0  0  0
 36 77  2  0  0  0  0
 37 62  1  0  0  0  0
 37 72  1  0  0  0  0
 37 78  2  0  0  0  0
 38 67  1  0  0  0  0
 38 73  1  0  0  0  0
 38 79  2  0  0  0  0
 39 42  1  0  0  0  0
 40 49  1  0  0  0  0
 41 66  1  0  0  0  0
 42 44  1  0  0  0  0
 43 45  1  0  0  0  0
 43 46  1  0  0  0  0
 44 48  1  0  0  0  0
 45 50  1  0  0  0  0
 46 67  1  0  0  0  0
 47 50  1  0  0  0  0
 47 67  1  0  0  0  0
 48 71  1  0  0  0  0
 49 66  1  0  0  0  0
 50 65  1  0  0  0  0
 52 62  1  0  0  0  0
 53 63  1  0  0  0  0
 54 63  1  0  0  0  0
 55 63  1  0  0  0  0
 56 74  1  0  0  0  0
 57 60  1  0  0  0  0
 58 59  1  0  0  0  0
 58 70  1  0  0  0  0
 59 73  1  0  0  0  0
 60 81  1  0  0  0  0
 61 63  1  0  0  0  0
 61 72  1  0  0  0  0
 62 74  1  0  0  0  0
 64 65  1  0  0  0  0
M  CHG  1  74   1
M  ISO  4  38 100  60 101  73 100  81 101
M  END
> <Batch ID>
0132

> <Smiles>
CNC(C)C(=O)NC(C(=O)N1Cc2cc([101O:1][101CH2:1]Cc3cccc(C)c3NCC[100NH:0][100C:0](=O)N3CCCC(n4nc(-c5ccc(Oc6ccc(F)cc6F)cc5)c(C(N)=O)c4N)C3)ccc2CC1C(=O)NC1CCCc2ccccc21)C(C)(C)C

> <Shape>
0.212

> <Color>
0.196

> <Negative vol penalty>
0.000

$$$$

  -OEChem-04052320523D

 85 94  0     1  0  0  0  0  0999 V2000
  -29.4969  -36.8901   22.3591 C   0  0  0  0  0  0  0  0  0  0  0  0
  -29.5819  -35.8534   21.4353 C   0  0  0  0  0  0  0  0  0  0  0  0
  -24.7126   -8.8978   21.3584 C   0  0  0  0  0  0  0  0  0  0  0  0
  -23.2131  -10.7819   21.5555 C   0  0  0  0  0  0  0  0  0  0  0  0
  -29.0105  -36.6412   23.6418 C   0  0  0  0  0  0  0  0  0  0  0  0
  -29.1815  -34.5667   21.7941 C   0  0  0  0  0  0  0  0  0  0  0  0
  -26.1987  -28.6719   19.0245 C   0  0  0  0  0  0  0  0  0  0  0  0
  -24.0013   -8.2275   22.3534 C   0  0  0  0  0  0  0  0  0  0  0  0
  -22.5017  -10.1115   22.5505 C   0  0  0  0  0  0  0  0  0  0  0  0
  -26.4175  -27.2985   18.9261 C   0  0  0  0  0  0  0  0  0  0  0  0
  -22.3631   -5.8741   24.5879 C   0  0  0  0  0  0  0  0  0  0  0  0
  -22.0557   -4.5307   24.3722 C   0  0  0  0  0  0  0  0  0  0  0  0
  -26.0991  -22.3506   18.0485 C   0  0  0  0  0  0  0  0  0  0  0  0
  -28.0876  -21.1614   19.5911 C   0  0  0  0  0  0  0  0  0  0  0  0
  -25.5191  -27.0025   21.1452 C   0  0  0  0  0  0  0  0  0  0  0  0
  -20.8111   -5.1337   22.3912 C   0  0  0  0  0  0  0  0  0  0  0  0
  -24.3186  -10.1751   20.9594 C   0  0  0  0  0  0  0  0  0  0  0  0
  -24.8190  -10.8272   18.5444 C   0  0  0  0  0  0  0  0  0  0  0  0
  -28.5949  -35.3529   24.0135 C   0  0  0  0  0  0  0  0  0  0  0  0
  -25.6476  -29.2231   20.1902 C   0  0  0  0  0  0  0  0  0  0  0  0
  -28.6903  -34.3001   23.0834 C   0  0  0  0  0  0  0  0  0  0  0  0
  -26.1945  -20.9511   18.0953 C   0  0  0  0  0  0  0  0  0  0  0  0
  -27.1799  -20.3427   18.8998 C   0  0  0  0  0  0  0  0  0  0  0  0
  -25.2919  -28.3829   21.2549 C   0  0  0  0  0  0  0  0  0  0  0  0
  -27.9917  -22.5521   19.5257 C   0  0  0  0  0  0  0  0  0  0  0  0
  -26.9941  -23.1465   18.7601 C   0  0  0  0  0  0  0  0  0  0  0  0
  -22.8958   -8.8343   22.9495 C   0  0  0  0  0  0  0  0  0  0  0  0
  -26.0805  -26.4639   19.9877 C   0  0  0  0  0  0  0  0  0  0  0  0
  -21.8945   -6.8472   23.7053 C   0  0  0  0  0  0  0  0  0  0  0  0
  -21.2797   -4.1605   23.2739 C   0  0  0  0  0  0  0  0  0  0  0  0
  -21.1185   -6.4770   22.6069 C   0  0  0  0  0  0  0  0  0  0  0  0
  -25.0534  -10.8683   19.9320 C   0  0  0  0  0  0  0  0  0  0  0  0
  -25.7803  -11.6494   18.0093 C   0  0  0  0  0  0  0  0  0  0  0  0
  -23.8214  -10.1099   17.8054 C   0  0  0  0  0  0  0  0  0  0  0  0
  -26.6438  -31.3064   22.3745 C   0  0  0  0  0  0  0  0  0  0  0  0
  -23.6136  -30.9942   23.4894 C   0  0  0  0  0  0  0  0  0  0  0  0
  -20.7857  -29.0955   23.7012 C   0  0  0  0  0  0  0  0  0  0  0  0
  -28.8889  -16.2648   20.2197 C   0  0  0  0  0  0  0  0  0  0  0  0
  -28.1204  -35.1226   25.4264 C   0  0  0  0  0  0  0  0  0  0  0  0
  -25.3930  -30.7034   20.2703 C   0  0  0  0  0  0  0  0  0  0  0  0
  -25.2007  -20.1247   17.3165 C   0  0  0  0  0  0  0  0  0  0  0  0
  -24.6786  -28.9225   22.5203 C   0  0  0  0  0  0  0  0  0  0  0  0
  -27.3655  -33.8084   25.6089 C   0  0  0  0  0  0  0  0  0  0  0  0
  -30.2085  -13.2629   18.8327 C   0  0  0  0  0  0  0  0  0  0  0  0
  -28.1173  -32.6633   24.9377 C   0  0  0  0  0  0  0  0  0  0  0  0
  -29.0158  -12.3051   18.8320 C   0  0  0  0  0  0  0  0  0  0  0  0
  -30.2026  -14.1707   20.0607 C   0  0  0  0  0  0  0  0  0  0  0  0
  -27.7561  -13.9603   20.2714 C   0  0  0  0  0  0  0  0  0  0  0  0
  -25.7028  -18.7180   17.0342 C   0  0  0  0  0  0  0  0  0  0  0  0
  -28.2425  -32.8960   23.4272 C   0  0  1  0  0  0  0  0  0  0  0  0
  -27.3045  -18.8319   18.9572 C   0  0  1  0  0  0  0  0  0  0  0  0
  -25.3022  -31.2174   21.7038 C   0  0  1  0  0  0  0  0  0  0  0  0
  -27.6882  -13.0626   19.0241 C   0  0  2  0  0  0  0  0  0  0  0  0
  -28.9738  -23.3821   20.2858 C   0  0  0  0  0  0  0  0  0  0  0  0
  -18.4888  -29.0886   24.7118 C   0  0  0  0  0  0  0  0  0  0  0  0
  -26.2205  -18.6239   21.2165 C   0  0  0  0  0  0  0  0  0  0  0  0
  -24.8175  -30.3370   26.2149 C   0  0  0  0  0  0  0  0  0  0  0  0
  -22.5878  -29.4299   26.9034 C   0  0  0  0  0  0  0  0  0  0  0  0
  -22.8181  -31.8374   26.2920 C   0  0  0  0  0  0  0  0  0  0  0  0
  -19.4903  -28.9652   21.0433 C   0  0  0  0  0  0  0  0  0  0  0  0
  -26.8660  -24.6393   18.6802 C   0  0  0  0  0  0  0  0  0  1  0  0
  -22.9262  -30.0816   24.4760 C   0  0  1  0  0  0  0  0  0  0  0  0
  -19.3226  -29.4406   23.4897 C   0  0  2  0  0  0  0  0  0  0  0  0
  -27.4371  -18.2717   20.3745 C   0  0  1  0  0  0  0  0  0  0  0  0
  -23.3007  -30.4112   25.9486 C   0  0  0  0  0  0  0  0  0  0  0  0
  -26.0829  -11.6543   20.2579 N   0  0  0  0  0  0  0  0  0  0  0  0
  -26.5041  -12.1146   19.0676 N   0  0  0  0  0  0  0  0  0  0  0  0
  -24.4552  -30.3773   22.5529 N   0  0  0  0  0  0  0  0  0  0  0  0
  -28.9164  -14.8609   20.1844 N   0  0  0  0  0  0  0  0  0  0  0  0
  -26.0687  -12.0125   16.7415 N   0  0  0  0  0  0  0  0  0  0  0  0
  -22.9120   -9.3112   18.5119 N   0  0  0  0  0  0  0  0  0  0  0  0
  -26.9950  -32.5852   22.7628 N   0  0  0  0  0  0  0  0  0  0  0  0
  -21.4987  -30.1705   24.1883 N   0  0  0  0  0  0  0  0  0  0  0  0
  -27.6286  -16.8391   20.3320 N   0  0  0  0  0  0  0  0  0  0  0  0
  -26.1348  -18.1118   18.3249 N   0  3  0  0  0  0  0  0  0  0  0  0
  -18.7787  -28.6956   22.3192 N   0  3  0  0  0  0  0  0  0  0  0  0
  -23.7493  -10.1625   16.5542 O   0  0  0  0  0  0  0  0  0  0  0  0
  -27.3103  -30.2899   22.5298 O   0  0  0  0  0  0  0  0  0  0  0  0
  -23.4058  -32.2089   23.5429 O   0  0  0  0  0  0  0  0  0  0  0  0
  -21.2489  -27.9826   23.4619 O   0  0  0  0  0  0  0  0  0  0  0  0
  -29.9112  -16.9554   20.1504 O   0  0  0  0  0  0  0  0  0  0  0  0
  -22.2012   -8.1804   23.9204 O   0  0  0  0  0  0  0  0  0  0  0  0
  -26.2936  -25.1231   19.8945 O   0  0  0  0  0  0  0  0  0  1  0  0
  -20.9858   -2.8703   23.0660 F   0  0  0  0  0  0  0  0  0  0  0  0
  -20.6664   -7.4073   21.7549 F   0  0  0  0  0  0  0  0  0  0  0  0
  1  2  1  0  0  0  0
  1  5  2  0  0  0  0
  2  6  2  0  0  0  0
  3  8  2  0  0  0  0
  3 17  1  0  0  0  0
  4  9  1  0  0  0  0
  4 17  2  0  0  0  0
  5 19  1  0  0  0  0
  6 21  1  0  0  0  0
  7 10  2  0  0  0  0
  7 20  1  0  0  0  0
  8 27  1  0  0  0  0
  9 27  2  0  0  0  0
 10 28  1  0  0  0  0
 11 12  2  0  0  0  0
 11 29  1  0  0  0  0
 12 30  1  0  0  0  0
 13 22  2  0  0  0  0
 13 26  1  0  0  0  0
 14 23  2  0  0  0  0
 14 25  1  0  0  0  0
 15 24  1  0  0  0  0
 15 28  2  0  0  0  0
 16 30  2  0  0  0  0
 16 31  1  0  0  0  0
 17 32  1  0  0  0  0
 18 32  1  0  0  0  0
 18 33  2  0  0  0  0
 18 34  1  0  0  0  0
 19 21  2  0  0  0  0
 19 39  1  0  0  0  0
 20 24  2  0  0  0  0
 20 40  1  0  0  0  0
 21 50  1  0  0  0  0
 22 23  1  0  0  0  0
 22 41  1  0  0  0  0
 23 51  1  0  0  0  0
 24 42  1  0  0  0  0
 25 26  2  0  0  0  0
 25 54  1  0  0  0  0
 26 61  1  0  0  0  0
 27 82  1  0  0  0  0
 28 83  1  0  0  0  0
 29 31  2  0  0  0  0
 29 82  1  0  0  0  0
 30 84  1  0  0  0  0
 31 85  1  0  0  0  0
 32 66  2  0  0  0  0
 33 67  1  0  0  0  0
 33 70  1  0  0  0  0
 34 71  1  0  0  0  0
 34 77  2  0  0  0  0
 35 52  1  0  0  0  0
 35 72  1  0  0  0  0
 35 78  2  0  0  0  0
 36 62  1  0  0  0  0
 36 68  1  0  0  0  0
 36 79  2  0  0  0  0
 37 63  1  0  0  0  0
 37 73  1  0  0  0  0
 37 80  2  0  0  0  0
 38 69  1  0  0  0  0
 38 74  1  0  0  0  0
 38 81  2  0  0  0  0
 39 43  1  0  0  0  0
 40 52  1  0  0  0  0
 41 49  1  0  0  0  0
 42 68  1  0  0  0  0
 43 45  1  0  0  0  0
 44 46  1  0  0  0  0
 44 47  1  0  0  0  0
 45 50  1  0  0  0  0
 46 53  1  0  0  0  0
 47 69  1  0  0  0  0
 48 53  1  0  0  0  0
 48 69  1  0  0  0  0
 49 75  1  0  0  0  0
 50 72  1  0  0  0  0
 51 64  1  0  0  0  0
 51 75  1  0  0  0  0
 52 68  1  0  0  0  0
 53 67  1  0  0  0  0
 55 63  1  0  0  0  0
 56 64  1  0  0  0  0
 57 65  1  0  0  0  0
 58 65  1  0  0  0  0
 59 65  1  0  0  0  0
 60 76  1  0  0  0  0
 61 83  1  0  0  0  0
 62 65  1  0  0  0  0
 62 73  1  0  0  0  0
 63 76  1  0  0  0  0
 64 74  1  0  0  0  0
 66 67  1  0  0  0  0
M  CHG  2  75   1  76   1
M  ISO  4  38 100  61 101  74 100  83 101
M  END
> <Batch ID>
0132

> <Smiles>
CNC(C)C(=O)NC(C(=O)N1Cc2cc([101O:1][101CH2:1]c3cc4c(cc3C)C(C(C)[100NH:0][100C:0](=O)N3CCCC(n5nc(-c6ccc(Oc7ccc(F)cc7F)cc6)c(C(N)=O)c5N)C3)NCC4)ccc2CC1C(=O)NC1CCCc2ccccc21)C(C)(C)C

> <Shape>
0.290

> <Color>
0.109

> <Negative vol penalty>
0.000

$$$$

  -OEChem-04052320523D

 86 95  0     1  0  0  0  0  0999 V2000
  -21.6718   -8.0945   18.1791 C   0  0  0  0  0  0  0  0  0  0  0  0
  -21.2367   -9.3354   17.7251 C   0  0  0  0  0  0  0  0  0  0  0  0
  -29.7722  -26.2906   19.7901 C   0  0  0  0  0  0  0  0  0  0  0  0
  -27.6860  -26.1415   18.5807 C   0  0  0  0  0  0  0  0  0  0  0  0
  -22.2693   -7.9828   19.4338 C   0  0  0  0  0  0  0  0  0  0  0  0
  -21.3979  -10.4654   18.5262 C   0  0  0  0  0  0  0  0  0  0  0  0
  -19.5445  -23.3835   22.0901 C   0  0  0  0  0  0  0  0  0  0  0  0
  -21.6998  -24.4141   22.4502 C   0  0  0  0  0  0  0  0  0  0  0  0
  -22.6240  -17.5080   18.0636 C   0  0  0  0  0  0  0  0  0  0  0  0
  -20.1718  -22.1699   21.8085 C   0  0  0  0  0  0  0  0  0  0  0  0
  -22.3272  -23.2005   22.1686 C   0  0  0  0  0  0  0  0  0  0  0  0
  -29.9768  -24.9232   19.6060 C   0  0  0  0  0  0  0  0  0  0  0  0
  -27.8906  -24.7740   18.3965 C   0  0  0  0  0  0  0  0  0  0  0  0
  -22.1036  -18.7233   18.5066 C   0  0  0  0  0  0  0  0  0  0  0  0
  -31.0373  -22.8739   17.1345 C   0  0  0  0  0  0  0  0  0  0  0  0
  -32.3073  -22.4562   16.7368 C   0  0  0  0  0  0  0  0  0  0  0  0
  -23.2213  -18.4233   20.6232 C   0  0  0  0  0  0  0  0  0  0  0  0
  -32.4964  -21.1220   18.7421 C   0  0  0  0  0  0  0  0  0  0  0  0
  -28.6268  -26.8998   19.2775 C   0  0  0  0  0  0  0  0  0  0  0  0
  -28.8311  -29.3562   18.6204 C   0  0  0  0  0  0  0  0  0  0  0  0
  -20.3085  -24.5056   22.4109 C   0  0  0  0  0  0  0  0  0  0  0  0
  -22.4467   -9.1135   20.2466 C   0  0  0  0  0  0  0  0  0  0  0  0
  -23.4394  -16.7348   18.9024 C   0  0  0  0  0  0  0  0  0  0  0  0
  -21.9972  -10.3685   19.7935 C   0  0  0  0  0  0  0  0  0  0  0  0
  -23.7528  -17.1999   20.1876 C   0  0  0  0  0  0  0  0  0  0  0  0
  -21.5631  -22.0784   21.8478 C   0  0  0  0  0  0  0  0  0  0  0  0
  -29.0360  -24.1649   18.9091 C   0  0  0  0  0  0  0  0  0  0  0  0
  -22.3999  -19.1797   19.7876 C   0  0  0  0  0  0  0  0  0  0  0  0
  -30.4968  -22.4157   18.3360 C   0  0  0  0  0  0  0  0  0  0  0  0
  -33.0369  -21.5802   17.5406 C   0  0  0  0  0  0  0  0  0  0  0  0
  -31.2263  -21.5397   19.1398 C   0  0  0  0  0  0  0  0  0  0  0  0
  -28.4146  -28.3122   19.4679 C   0  0  0  0  0  0  0  0  0  0  0  0
  -28.3888  -30.4991   19.2407 C   0  0  0  0  0  0  0  0  0  0  0  0
  -29.5531  -29.2982   17.3831 C   0  0  0  0  0  0  0  0  0  0  0  0
  -23.2321  -13.8299   20.1761 C   0  0  0  0  0  0  0  0  0  0  0  0
  -26.2508  -14.4761   21.1723 C   0  0  0  0  0  0  0  0  0  0  0  0
  -28.6059  -16.8208   21.9489 C   0  0  0  0  0  0  0  0  0  0  0  0
  -23.9354  -31.5853   23.0927 C   0  0  0  0  0  0  0  0  0  0  0  0
  -23.0551   -8.9355   21.6152 C   0  0  0  0  0  0  0  0  0  0  0  0
  -24.0146  -15.4390   18.4000 C   0  0  0  0  0  0  0  0  0  0  0  0
  -24.6399  -16.4172   21.1197 C   0  0  0  0  0  0  0  0  0  0  0  0
  -23.5281  -10.2425   22.2461 C   0  0  0  0  0  0  0  0  0  0  0  0
  -27.3972  -32.2623   23.5764 C   0  0  0  0  0  0  0  0  0  0  0  0
  -19.9762  -26.3158   24.1316 C   0  0  0  0  0  0  0  0  0  0  0  0
  -22.4610  -11.3227   22.1000 C   0  0  0  0  0  0  0  0  0  0  0  0
  -28.0881  -31.4209   22.5018 C   0  0  0  0  0  0  0  0  0  0  0  0
  -20.7286  -27.6299   23.9323 C   0  0  0  0  0  0  0  0  0  0  0  0
  -20.1038  -26.9122   21.7470 C   0  0  0  0  0  0  0  0  0  0  0  0
  -26.1747  -31.5503   24.1513 C   0  0  0  0  0  0  0  0  0  0  0  0
  -25.8833  -30.2573   22.0736 C   0  0  0  0  0  0  0  0  0  0  0  0
  -19.6386  -25.8035   22.7121 C   0  0  1  0  0  0  0  0  0  0  0  0
  -22.1769  -11.6214   20.6230 C   0  0  1  0  0  0  0  0  0  0  0  0
  -24.4149  -14.4876   19.5233 C   0  0  1  0  0  0  0  0  0  0  0  0
  -27.0893  -30.9575   21.4244 C   0  0  2  0  0  0  0  0  0  0  0  0
  -20.1569  -28.1500   22.6268 C   0  0  2  0  0  0  0  0  0  0  0  0
  -30.8513  -17.7445   22.5829 C   0  0  0  0  0  0  0  0  0  0  0  0
  -25.3306  -13.7903   23.9995 C   0  0  0  0  0  0  0  0  0  0  0  0
  -27.3877  -14.9222   24.8686 C   0  0  0  0  0  0  0  0  0  0  0  0
  -27.5959  -12.9172   23.3991 C   0  0  0  0  0  0  0  0  0  0  0  0
  -29.4710  -16.9716   19.1226 C   0  0  0  0  0  0  0  0  0  0  0  0
  -22.2371  -20.7722   21.5464 C   0  0  0  0  0  0  0  0  0  1  0  0
  -21.7551  -31.5346   21.9082 C   0  0  0  0  0  0  0  0  0  0  0  0
  -20.8251  -30.5565   22.6017 C   0  0  0  0  0  0  0  0  0  0  0  0
  -26.8583  -15.1178   22.3963 C   0  0  1  0  0  0  0  0  0  0  0  0
  -30.0641  -16.9547   21.5489 C   0  0  2  0  0  0  0  0  0  0  0  0
  -26.7748  -14.2009   23.6493 C   0  0  0  0  0  0  0  0  0  0  0  0
  -27.7584  -28.7527   20.5446 N   0  0  0  0  0  0  0  0  0  0  0  0
  -27.7592  -30.0862   20.3779 N   0  0  0  0  0  0  0  0  0  0  0  0
  -25.1728  -15.1534   20.5847 N   0  0  0  0  0  0  0  0  0  0  0  0
  -25.2669  -31.1382   23.0780 N   0  0  0  0  0  0  0  0  0  0  0  0
  -28.4811  -31.8069   18.9188 N   0  0  0  0  0  0  0  0  0  0  0  0
  -29.9307  -28.0424   16.8881 N   0  0  0  0  0  0  0  0  0  0  0  0
  -23.2221  -12.4525   20.0653 N   0  0  0  0  0  0  0  0  0  0  0  0
  -28.2164  -15.5003   22.0252 N   0  0  0  0  0  0  0  0  0  0  0  0
  -23.1441  -31.1535   22.0352 N   0  0  0  0  0  0  0  0  0  0  0  0
  -21.0221  -29.1875   22.0400 N   0  3  0  0  0  0  0  0  0  0  0  0
  -30.1794  -17.6523   20.2370 N   0  3  0  0  0  0  0  0  0  0  0  0
  -29.8688  -30.3303   16.7438 O   0  0  0  0  0  0  0  0  0  0  0  0
  -22.3916  -14.5208   20.7399 O   0  0  0  0  0  0  0  0  0  0  0  0
  -26.7201  -13.4169   20.7488 O   0  0  0  0  0  0  0  0  0  0  0  0
  -27.8854  -17.7905   22.1749 O   0  0  0  0  0  0  0  0  0  0  0  0
  -23.4865  -32.3195   23.9795 O   0  0  0  0  0  0  0  0  0  0  0  0
  -29.2355  -22.8306   18.7290 O   0  0  0  0  0  0  0  0  0  0  0  0
  -21.8928  -20.3652   20.2227 O   0  0  0  0  0  0  0  0  0  1  0  0
  -34.2558  -21.1780   17.1578 F   0  0  0  0  0  0  0  0  0  0  0  0
  -30.7119  -21.0952   20.2946 F   0  0  0  0  0  0  0  0  0  0  0  0
  1  2  1  0  0  0  0
  1  5  2  0  0  0  0
  2  6  2  0  0  0  0
  3 12  2  0  0  0  0
  3 19  1  0  0  0  0
  4 13  1  0  0  0  0
  4 19  2  0  0  0  0
  5 22  1  0  0  0  0
  6 24  1  0  0  0  0
  7 10  2  0  0  0  0
  7 21  1  0  0  0  0
  8 11  1  0  0  0  0
  8 21  2  0  0  0  0
  9 14  2  0  0  0  0
  9 23  1  0  0  0  0
 10 26  1  0  0  0  0
 11 26  2  0  0  0  0
 12 27  1  0  0  0  0
 13 27  2  0  0  0  0
 14 28  1  0  0  0  0
 15 16  2  0  0  0  0
 15 29  1  0  0  0  0
 16 30  1  0  0  0  0
 17 25  1  0  0  0  0
 17 28  2  0  0  0  0
 18 30  2  0  0  0  0
 18 31  1  0  0  0  0
 19 32  1  0  0  0  0
 20 32  1  0  0  0  0
 20 33  2  0  0  0  0
 20 34  1  0  0  0  0
 21 51  1  0  0  0  0
 22 24  2  0  0  0  0
 22 39  1  0  0  0  0
 23 25  2  0  0  0  0
 23 40  1  0  0  0  0
 24 52  1  0  0  0  0
 25 41  1  0  0  0  0
 26 61  1  0  0  0  0
 27 83  1  0  0  0  0
 28 84  1  0  0  0  0
 29 31  2  0  0  0  0
 29 83  1  0  0  0  0
 30 85  1  0  0  0  0
 31 86  1  0  0  0  0
 32 67  2  0  0  0  0
 33 68  1  0  0  0  0
 33 71  1  0  0  0  0
 34 72  1  0  0  0  0
 34 78  2  0  0  0  0
 35 53  1  0  0  0  0
 35 73  1  0  0  0  0
 35 79  2  0  0  0  0
 36 64  1  0  0  0  0
 36 69  1  0  0  0  0
 36 80  2  0  0  0  0
 37 65  1  0  0  0  0
 37 74  1  0  0  0  0
 37 81  2  0  0  0  0
 38 70  1  0  0  0  0
 38 75  1  0  0  0  0
 38 82  2  0  0  0  0
 39 42  1  0  0  0  0
 40 53  1  0  0  0  0
 41 69  1  0  0  0  0
 42 45  1  0  0  0  0
 43 46  1  0  0  0  0
 43 49  1  0  0  0  0
 44 47  1  0  0  0  0
 44 51  1  0  0  0  0
 45 52  1  0  0  0  0
 46 54  1  0  0  0  0
 47 55  1  0  0  0  0
 48 51  1  0  0  0  0
 48 55  1  0  0  0  0
 49 70  1  0  0  0  0
 50 54  1  0  0  0  0
 50 70  1  0  0  0  0
 52 73  1  0  0  0  0
 53 69  1  0  0  0  0
 54 68  1  0  0  0  0
 55 76  1  0  0  0  0
 56 65  1  0  0  0  0
 57 66  1  0  0  0  0
 58 66  1  0  0  0  0
 59 66  1  0  0  0  0
 60 77  1  0  0  0  0
 61 84  1  0  0  0  0
 62 63  1  0  0  0  0
 62 75  1  0  0  0  0
 63 76  1  0  0  0  0
 64 66  1  0  0  0  0
 64 74  1  0  0  0  0
 65 77  1  0  0  0  0
 67 68  1  0  0  0  0
M  CHG  2  76   1  77   1
M  ISO  4  38 100  61 101  75 100  84 101
M  END
> <Batch ID>
0132

> <Smiles>
CNC(C)C(=O)NC(C(=O)N1Cc2cc([101O:1][101CH2:1]c3ccc(C4CCC(NCC[100NH:0][100C:0](=O)N5CCCC(n6nc(-c7ccc(Oc8ccc(F)cc8F)cc7)c(C(N)=O)c6N)C5)C4)cc3)ccc2CC1C(=O)NC1CCCc2ccccc21)C(C)(C)C

> <Shape>
0.243

> <Color>
0.079

> <Negative vol penalty>
0.000

$$$$

  -OEChem-04052320523D

 83 91  0     1  0  0  0  0  0999 V2000
  -21.5461  -19.5052   21.9241 C   0  0  0  0  0  0  0  0  0  0  0  0
  -22.8594  -19.9387   22.0751 C   0  0  0  0  0  0  0  0  0  0  0  0
  -22.9625   -9.8881   20.1184 C   0  0  0  0  0  0  0  0  0  0  0  0
  -23.5835  -10.1888   22.4337 C   0  0  0  0  0  0  0  0  0  0  0  0
  -20.5616  -20.3999   21.5069 C   0  0  0  0  0  0  0  0  0  0  0  0
  -23.1891  -21.2670   21.8079 C   0  0  0  0  0  0  0  0  0  0  0  0
  -26.1972  -23.2731   25.3536 C   0  0  0  0  0  0  0  0  0  0  0  0
  -22.1569   -8.8066   20.4749 C   0  0  0  0  0  0  0  0  0  0  0  0
  -22.7779   -9.1073   22.7903 C   0  0  0  0  0  0  0  0  0  0  0  0
  -27.5491  -22.9357   25.3069 C   0  0  0  0  0  0  0  0  0  0  0  0
  -22.9609   -5.7322   22.7130 C   0  0  0  0  0  0  0  0  0  0  0  0
  -23.4885   -4.7968   23.6030 C   0  0  0  0  0  0  0  0  0  0  0  0
  -28.0312  -25.0412   24.2328 C   0  0  0  0  0  0  0  0  0  0  0  0
  -31.6166  -18.9971   20.8973 C   0  0  0  0  0  0  0  0  0  0  0  0
  -31.2074  -18.5879   23.2429 C   0  0  0  0  0  0  0  0  0  0  0  0
  -21.6970   -5.2634   25.1554 C   0  0  0  0  0  0  0  0  0  0  0  0
  -23.6759  -10.5791   21.0978 C   0  0  0  0  0  0  0  0  0  0  0  0
  -24.1307  -13.0500   20.6558 C   0  0  0  0  0  0  0  0  0  0  0  0
  -20.8775  -21.7421   21.2437 C   0  0  0  0  0  0  0  0  0  0  0  0
  -25.7498  -24.4945   24.8295 C   0  0  0  0  0  0  0  0  0  0  0  0
  -22.2080  -22.1801   21.3855 C   0  0  0  0  0  0  0  0  0  0  0  0
  -26.6735  -25.3928   24.2764 C   0  0  0  0  0  0  0  0  0  0  0  0
  -31.6721  -19.4208   22.2251 C   0  0  0  0  0  0  0  0  0  0  0  0
  -31.0963  -17.7405   20.5873 C   0  0  0  0  0  0  0  0  0  0  0  0
  -30.6871  -17.3313   22.9329 C   0  0  0  0  0  0  0  0  0  0  0  0
  -30.6316  -16.9077   21.6051 C   0  0  0  0  0  0  0  0  0  0  0  0
  -22.0646   -8.4163   21.8108 C   0  0  0  0  0  0  0  0  0  0  0  0
  -28.4660  -23.8186   24.7439 C   0  0  0  0  0  0  0  0  0  0  0  0
  -21.8014   -6.4334   23.0441 C   0  0  0  0  0  0  0  0  0  0  0  0
  -22.8565   -4.5623   24.8242 C   0  0  0  0  0  0  0  0  0  0  0  0
  -21.1694   -6.1989   24.2653 C   0  0  0  0  0  0  0  0  0  0  0  0
  -24.5086  -11.6960   20.7301 C   0  0  0  0  0  0  0  0  0  0  0  0
  -25.2733  -13.7045   20.2651 C   0  0  0  0  0  0  0  0  0  0  0  0
  -22.8604  -13.6616   20.9166 C   0  0  0  0  0  0  0  0  0  0  0  0
  -23.7666  -25.3415   22.4944 C   0  0  0  0  0  0  0  0  0  0  0  0
  -24.2964  -28.3240   23.6547 C   0  0  0  0  0  0  0  0  0  0  0  0
  -26.3393  -30.4376   25.3886 C   0  0  0  0  0  0  0  0  0  0  0  0
  -30.7586  -14.5799   20.6503 C   0  0  0  0  0  0  0  0  0  0  0  0
  -19.7883  -22.6608   20.7495 C   0  0  0  0  0  0  0  0  0  0  0  0
  -24.2919  -24.8551   24.9117 C   0  0  0  0  0  0  0  0  0  0  0  0
  -26.2472  -26.7253   23.7184 C   0  0  0  0  0  0  0  0  0  0  0  0
  -20.1487  -24.1409   20.8477 C   0  0  0  0  0  0  0  0  0  0  0  0
  -29.6867  -11.8986   18.5672 C   0  0  0  0  0  0  0  0  0  0  0  0
  -21.5548  -24.3848   20.3092 C   0  0  0  0  0  0  0  0  0  0  0  0
  -28.2129  -11.7183   18.9381 C   0  0  0  0  0  0  0  0  0  0  0  0
  -30.5372  -12.2617   19.7832 C   0  0  0  0  0  0  0  0  0  0  0  0
  -28.5834  -13.2351   20.9253 C   0  0  0  0  0  0  0  0  0  0  0  0
  -22.6002  -23.6191   21.1292 C   0  0  1  0  0  0  0  0  0  0  0  0
  -23.8767  -25.9030   23.8837 C   0  0  1  0  0  0  0  0  0  0  0  0
  -27.6763  -12.9323   19.7215 C   0  0  2  0  0  0  0  0  0  0  0  0
  -31.0496  -17.3149   19.1553 C   0  0  0  0  0  0  0  0  0  0  0  0
  -30.1974  -16.4612   24.0453 C   0  0  0  0  0  0  0  0  0  0  0  0
  -26.5227  -32.8250   26.1396 C   0  0  0  0  0  0  0  0  0  0  0  0
  -25.0696  -29.1532   20.8220 C   0  0  0  0  0  0  0  0  0  0  0  0
  -26.1261  -31.2078   21.7865 C   0  0  0  0  0  0  0  0  0  0  0  0
  -23.6758  -30.8244   22.0544 C   0  0  0  0  0  0  0  0  0  0  0  0
  -26.3598  -29.6593   28.2439 C   0  0  0  0  0  0  0  0  0  0  0  0
  -32.2314  -20.7724   22.5585 C   0  0  0  0  0  0  0  0  0  0  0  0
  -31.7088  -23.0973   23.3071 C   0  0  0  0  0  0  0  0  0  0  0  0
  -30.5485  -24.0235   23.6139 C   0  0  0  0  0  0  0  0  0  1  0  0
  -25.3031  -29.4148   23.3799 C   0  0  1  0  0  0  0  0  0  0  0  0
  -26.0524  -31.4256   26.5048 C   0  0  2  0  0  0  0  0  0  0  0  0
  -25.0518  -30.1242   22.0194 C   0  0  0  0  0  0  0  0  0  0  0  0
  -25.7910  -11.5004   20.4120 N   0  0  0  0  0  0  0  0  0  0  0  0
  -26.2289  -12.7402   20.1340 N   0  0  0  0  0  0  0  0  0  0  0  0
  -24.8100  -27.0294   23.8162 N   0  0  0  0  0  0  0  0  0  0  0  0
  -29.9709  -13.4228   20.4730 N   0  0  0  0  0  0  0  0  0  0  0  0
  -25.5438  -15.0050   20.0244 N   0  0  0  0  0  0  0  0  0  0  0  0
  -21.7926  -12.8427   21.3086 N   0  0  0  0  0  0  0  0  0  0  0  0
  -30.1032  -15.6311   21.2905 N   0  0  0  0  0  0  0  0  0  0  0  0
  -22.8630  -24.3026   22.3775 N   0  0  0  0  0  0  0  0  0  0  0  0
  -25.2649  -30.3059   24.5344 N   0  0  0  0  0  0  0  0  0  0  0  0
  -26.7455  -31.0086   27.7565 N   0  3  0  0  0  0  0  0  0  0  0  0
  -31.1824  -21.7659   22.9141 N   0  3  0  0  0  0  0  0  0  0  0  0
  -22.6734  -14.8954   20.7895 O   0  0  0  0  0  0  0  0  0  0  0  0
  -24.4496  -25.8167   21.5947 O   0  0  0  0  0  0  0  0  0  0  0  0
  -23.0992  -28.6111   23.7307 O   0  0  0  0  0  0  0  0  0  0  0  0
  -27.4108  -29.8448   25.2827 O   0  0  0  0  0  0  0  0  0  0  0  0
  -31.9198  -14.6438   20.2384 O   0  0  0  0  0  0  0  0  0  0  0  0
  -21.2784   -7.3612   22.1591 O   0  0  0  0  0  0  0  0  0  0  0  0
  -29.7861  -23.4914   24.6964 O   0  0  0  0  0  0  0  0  0  1  0  0
  -23.3624   -3.6629   25.6781 F   0  0  0  0  0  0  0  0  0  0  0  0
  -20.0546   -6.8685   24.5885 F   0  0  0  0  0  0  0  0  0  0  0  0
  1  2  1  0  0  0  0
  1  5  2  0  0  0  0
  2  6  2  0  0  0  0
  3  8  2  0  0  0  0
  3 17  1  0  0  0  0
  4  9  1  0  0  0  0
  4 17  2  0  0  0  0
  5 19  1  0  0  0  0
  6 21  1  0  0  0  0
  7 10  2  0  0  0  0
  7 20  1  0  0  0  0
  8 27  1  0  0  0  0
  9 27  2  0  0  0  0
 10 28  1  0  0  0  0
 11 12  2  0  0  0  0
 11 29  1  0  0  0  0
 12 30  1  0  0  0  0
 13 22  1  0  0  0  0
 13 28  2  0  0  0  0
 14 23  1  0  0  0  0
 14 24  2  0  0  0  0
 15 23  2  0  0  0  0
 15 25  1  0  0  0  0
 16 30  2  0  0  0  0
 16 31  1  0  0  0  0
 17 32  1  0  0  0  0
 18 32  1  0  0  0  0
 18 33  2  0  0  0  0
 18 34  1  0  0  0  0
 19 21  2  0  0  0  0
 19 39  1  0  0  0  0
 20 22  2  0  0  0  0
 20 40  1  0  0  0  0
 21 48  1  0  0  0  0
 22 41  1  0  0  0  0
 23 58  1  0  0  0  0
 24 26  1  0  0  0  0
 24 51  1  0  0  0  0
 25 26  2  0  0  0  0
 25 52  1  0  0  0  0
 26 70  1  0  0  0  0
 27 80  1  0  0  0  0
 28 81  1  0  0  0  0
 29 31  2  0  0  0  0
 29 80  1  0  0  0  0
 30 82  1  0  0  0  0
 31 83  1  0  0  0  0
 32 64  2  0  0  0  0
 33 65  1  0  0  0  0
 33 68  1  0  0  0  0
 34 69  1  0  0  0  0
 34 75  2  0  0  0  0
 35 49  1  0  0  0  0
 35 71  1  0  0  0  0
 35 76  2  0  0  0  0
 36 61  1  0  0  0  0
 36 66  1  0  0  0  0
 36 77  2  0  0  0  0
 37 62  1  0  0  0  0
 37 72  1  0  0  0  0
 37 78  2  0  0  0  0
 38 67  1  0  0  0  0
 38 70  1  0  0  0  0
 38 79  2  0  0  0  0
 39 42  1  0  0  0  0
 40 49  1  0  0  0  0
 41 66  1  0  0  0  0
 42 44  1  0  0  0  0
 43 45  1  0  0  0  0
 43 46  1  0  0  0  0
 44 48  1  0  0  0  0
 45 50  1  0  0  0  0
 46 67  1  0  0  0  0
 47 50  1  0  0  0  0
 47 67  1  0  0  0  0
 48 71  1  0  0  0  0
 49 66  1  0  0  0  0
 50 65  1  0  0  0  0
 53 62  1  0  0  0  0
 54 63  1  0  0  0  0
 55 63  1  0  0  0  0
 56 63  1  0  0  0  0
 57 73  1  0  0  0  0
 58 74  1  0  0  0  0
 59 60  1  0  0  0  0
 59 74  1  0  0  0  0
 60 81  1  0  0  0  0
 61 63  1  0  0  0  0
 61 72  1  0  0  0  0
 62 73  1  0  0  0  0
 64 65  1  0  0  0  0
M  CHG  2  73   1  74   1
M  ISO  4  38 100  60 101  70 100  81 101
M  END
> <Batch ID>
0132

> <Smiles>
CNC(C)C(=O)NC(C(=O)N1Cc2cc([101O:1][101CH2:1]CNCc3cc(C)c([100NH:0][100C:0](=O)N4CCCC(n5nc(-c6ccc(Oc7ccc(F)cc7F)cc6)c(C(N)=O)c5N)C4)c(C)c3)ccc2CC1C(=O)NC1CCCc2ccccc21)C(C)(C)C

> <Shape>
0.257

> <Color>
0.197

> <Negative vol penalty>
0.000

$$$$

  -OEChem-04052320523D

 80 88  0     1  0  0  0  0  0999 V2000
  -22.8420   -8.5383   21.6861 C   0  0  0  0  0  0  0  0  0  0  0  0
  -24.1398   -8.9680   21.4278 C   0  0  0  0  0  0  0  0  0  0  0  0
  -26.5424  -27.0739   22.5838 C   0  0  0  0  0  0  0  0  0  0  0  0
  -25.1148  -26.6602   20.6792 C   0  0  0  0  0  0  0  0  0  0  0  0
  -21.7758   -9.4273   21.5566 C   0  0  0  0  0  0  0  0  0  0  0  0
  -24.3719  -10.2868   21.0388 C   0  0  0  0  0  0  0  0  0  0  0  0
  -29.2463  -15.5037   21.6223 C   0  0  0  0  0  0  0  0  0  0  0  0
  -25.5142  -27.7875   23.1996 C   0  0  0  0  0  0  0  0  0  0  0  0
  -24.0865  -27.3737   21.2949 C   0  0  0  0  0  0  0  0  0  0  0  0
  -29.9774  -16.3881   20.8304 C   0  0  0  0  0  0  0  0  0  0  0  0
  -21.7803  -26.8355   23.7058 C   0  0  0  0  0  0  0  0  0  0  0  0
  -20.5011  -26.2803   23.6776 C   0  0  0  0  0  0  0  0  0  0  0  0
  -28.0667  -17.8562   20.7163 C   0  0  0  0  0  0  0  0  0  0  0  0
  -19.6847  -28.2212   22.4929 C   0  0  0  0  0  0  0  0  0  0  0  0
  -26.3428  -26.5103   21.3236 C   0  0  0  0  0  0  0  0  0  0  0  0
  -27.6641  -24.3940   20.7918 C   0  0  0  0  0  0  0  0  0  0  0  0
  -21.9961  -10.7603   21.1752 C   0  0  0  0  0  0  0  0  0  0  0  0
  -27.9141  -15.7842   21.9587 C   0  0  0  0  0  0  0  0  0  0  0  0
  -23.3075  -11.1941   20.9028 C   0  0  0  0  0  0  0  0  0  0  0  0
  -27.3216  -16.9750   21.5147 C   0  0  0  0  0  0  0  0  0  0  0  0
  -24.2862  -27.9373   22.5552 C   0  0  0  0  0  0  0  0  0  0  0  0
  -29.3868  -17.5631   20.3749 C   0  0  0  0  0  0  0  0  0  0  0  0
  -22.0118  -28.0837   23.1277 C   0  0  0  0  0  0  0  0  0  0  0  0
  -19.4533  -26.9731   23.0711 C   0  0  0  0  0  0  0  0  0  0  0  0
  -20.9640  -28.7765   22.5212 C   0  0  0  0  0  0  0  0  0  0  0  0
  -27.4047  -25.7736   20.6867 C   0  0  0  0  0  0  0  0  0  0  0  0
  -28.7714  -24.1918   20.0047 C   0  0  0  0  0  0  0  0  0  0  0  0
  -26.9664  -23.3853   21.5345 C   0  0  0  0  0  0  0  0  0  0  0  0
  -25.1181  -14.3746   21.4120 C   0  0  0  0  0  0  0  0  0  0  0  0
  -24.0063  -16.6845   23.3997 C   0  0  0  0  0  0  0  0  0  0  0  0
  -24.4343  -19.7814   24.7683 C   0  0  0  0  0  0  0  0  0  0  0  0
  -31.6041  -25.0578   15.2749 C   0  0  0  0  0  0  0  0  0  0  0  0
  -20.8070  -11.6719   21.0027 C   0  0  0  0  0  0  0  0  0  0  0  0
  -27.1475  -14.8328   22.8359 C   0  0  0  0  0  0  0  0  0  0  0  0
  -25.9010  -17.3324   21.8647 C   0  0  0  0  0  0  0  0  0  0  0  0
  -21.1769  -13.1519   20.9492 C   0  0  0  0  0  0  0  0  0  0  0  0
  -31.9222  -27.5051   17.8412 C   0  0  0  0  0  0  0  0  0  0  0  0
  -22.3586  -13.3733   20.0104 C   0  0  0  0  0  0  0  0  0  0  0  0
  -33.3884  -18.7415   18.6956 C   0  0  0  0  0  0  0  0  0  0  0  0
  -30.7933  -27.1628   18.8151 C   0  0  0  0  0  0  0  0  0  0  0  0
  -32.4483  -17.8530   19.5085 C   0  0  0  0  0  0  0  0  0  0  0  0
  -31.3116  -18.7465   17.5312 C   0  0  0  0  0  0  0  0  0  0  0  0
  -31.5078  -27.2673   16.3908 C   0  0  0  0  0  0  0  0  0  0  0  0
  -29.8554  -25.5752   17.0835 C   0  0  0  0  0  0  0  0  0  0  0  0
  -23.6023  -12.6235   20.5027 C   0  0  1  0  0  0  0  0  0  0  0  0
  -25.6353  -14.9721   22.6899 C   0  0  1  0  0  0  0  0  0  0  0  0
  -32.4580  -19.6760   17.9286 C   0  0  2  0  0  0  0  0  0  0  0  0
  -30.2448  -25.7457   18.5619 C   0  0  2  0  0  0  0  0  0  0  0  0
  -31.1076  -17.8702   18.7664 C   0  0  2  0  0  0  0  0  0  1  0  0
  -23.3403  -21.4135   26.3293 C   0  0  0  0  0  0  0  0  0  0  0  0
  -21.9955  -17.4140   21.2238 C   0  0  0  0  0  0  0  0  0  0  0  0
  -21.6024  -19.5827   22.4115 C   0  0  0  0  0  0  0  0  0  0  0  0
  -21.0693  -17.4264   23.5469 C   0  0  0  0  0  0  0  0  0  0  0  0
  -26.7353  -19.7222   26.6286 C   0  0  0  0  0  0  0  0  0  0  0  0
  -33.1273  -20.3419   16.7387 C   0  0  0  0  0  0  0  0  0  0  0  0
  -31.5832  -22.7937   14.2589 C   0  0  0  0  0  0  0  0  0  0  0  0
  -32.6805  -21.9500   14.8805 C   0  0  0  0  0  0  0  0  0  0  0  0
  -23.4868  -18.0905   23.2199 C   0  0  1  0  0  0  0  0  0  0  0  0
  -24.3364  -20.2714   26.2017 C   0  0  2  0  0  0  0  0  0  0  0  0
  -22.0647  -18.1210   22.5921 C   0  0  0  0  0  0  0  0  0  0  0  0
  -28.2771  -26.4035   19.8953 N   0  0  0  0  0  0  0  0  0  0  0  0
  -29.0955  -25.4151   19.4961 N   0  0  0  0  0  0  0  0  0  0  0  0
  -25.1907  -16.3670   22.7197 N   0  0  0  0  0  0  0  0  0  0  0  0
  -30.9984  -25.9048   16.2177 N   0  0  0  0  0  0  0  0  0  0  0  0
  -29.4897  -23.0888   19.7050 N   0  0  0  0  0  0  0  0  0  0  0  0
  -25.8490  -23.7651   22.2905 N   0  0  0  0  0  0  0  0  0  0  0  0
  -24.2231  -13.3382   21.5973 N   0  0  0  0  0  0  0  0  0  0  0  0
  -23.5761  -18.7291   24.5286 N   0  0  0  0  0  0  0  0  0  0  0  0
  -31.0641  -23.7812   15.1787 N   0  0  0  0  0  0  0  0  0  0  0  0
  -25.6649  -20.7512   26.6770 N   0  3  0  0  0  0  0  0  0  0  0  0
  -32.1362  -21.1905   16.0411 N   0  3  0  0  0  0  0  0  0  0  0  0
  -27.3331  -22.1857   21.5409 O   0  0  0  0  0  0  0  0  0  0  0  0
  -25.5014  -14.8218   20.3374 O   0  0  0  0  0  0  0  0  0  0  0  0
  -23.3881  -15.8992   24.1226 O   0  0  0  0  0  0  0  0  0  0  0  0
  -25.1933  -20.2843   23.9428 O   0  0  0  0  0  0  0  0  0  0  0  0
  -32.5589  -25.4114   14.5747 O   0  0  0  0  0  0  0  0  0  0  0  0
  -23.2825  -28.6333   23.1558 O   0  0  0  0  0  0  0  0  0  0  0  0
  -30.0980  -18.4278   19.6013 O   0  0  0  0  0  0  0  0  0  1  0  0
  -18.2252  -26.4390   23.0427 F   0  0  0  0  0  0  0  0  0  0  0  0
  -21.1805  -29.9754   21.9630 F   0  0  0  0  0  0  0  0  0  0  0  0
  1  2  1  0  0  0  0
  1  5  2  0  0  0  0
  2  6  2  0  0  0  0
  3  8  2  0  0  0  0
  3 15  1  0  0  0  0
  4  9  1  0  0  0  0
  4 15  2  0  0  0  0
  5 17  1  0  0  0  0
  6 19  1  0  0  0  0
  7 10  2  0  0  0  0
  7 18  1  0  0  0  0
  8 21  1  0  0  0  0
  9 21  2  0  0  0  0
 10 22  1  0  0  0  0
 11 12  2  0  0  0  0
 11 23  1  0  0  0  0
 12 24  1  0  0  0  0
 13 20  1  0  0  0  0
 13 22  2  0  0  0  0
 14 24  2  0  0  0  0
 14 25  1  0  0  0  0
 15 26  1  0  0  0  0
 16 26  1  0  0  0  0
 16 27  2  0  0  0  0
 16 28  1  0  0  0  0
 17 19  2  0  0  0  0
 17 33  1  0  0  0  0
 18 20  2  0  0  0  0
 18 34  1  0  0  0  0
 19 45  1  0  0  0  0
 20 35  1  0  0  0  0
 21 77  1  0  0  0  0
 22 78  1  0  0  0  0
 23 25  2  0  0  0  0
 23 77  1  0  0  0  0
 24 79  1  0  0  0  0
 25 80  1  0  0  0  0
 26 61  2  0  0  0  0
 27 62  1  0  0  0  0
 27 65  1  0  0  0  0
 28 66  1  0  0  0  0
 28 72  2  0  0  0  0
 29 46  1  0  0  0  0
 29 67  1  0  0  0  0
 29 73  2  0  0  0  0
 30 58  1  0  0  0  0
 30 63  1  0  0  0  0
 30 74  2  0  0  0  0
 31 59  1  0  0  0  0
 31 68  1  0  0  0  0
 31 75  2  0  0  0  0
 32 64  1  0  0  0  0
 32 69  1  0  0  0  0
 32 76  2  0  0  0  0
 33 36  1  0  0  0  0
 34 46  1  0  0  0  0
 35 63  1  0  0  0  0
 36 38  1  0  0  0  0
 37 40  1  0  0  0  0
 37 43  1  0  0  0  0
 38 45  1  0  0  0  0
 39 41  1  0  0  0  0
 39 47  1  0  0  0  0
 40 48  1  0  0  0  0
 41 49  1  0  0  0  0
 42 47  1  0  0  0  0
 42 49  1  0  0  0  0
 43 64  1  0  0  0  0
 44 48  1  0  0  0  0
 44 64  1  0  0  0  0
 45 67  1  0  0  0  0
 46 63  1  0  0  0  0
 47 55  1  0  0  0  0
 48 62  1  0  0  0  0
 49 78  1  0  0  0  0
 50 59  1  0  0  0  0
 51 60  1  0  0  0  0
 52 60  1  0  0  0  0
 53 60  1  0  0  0  0
 54 70  1  0  0  0  0
 55 71  1  0  0  0  0
 56 57  1  0  0  0  0
 56 69  1  0  0  0  0
 57 71  1  0  0  0  0
 58 60  1  0  0  0  0
 58 68  1  0  0  0  0
 59 70  1  0  0  0  0
 61 62  1  0  0  0  0
M  CHG  2  70   1  71   1
M  ISO  4  32 100  49 101  69 100  78 101
M  END
> <Batch ID>
0132

> <Smiles>
CNC(C)C(=O)NC(C(=O)N1Cc2cc([101O:1][101CH:1]3CCC(CNCC[100NH:0][100C:0](=O)N4CCCC(n5nc(-c6ccc(Oc7ccc(F)cc7F)cc6)c(C(N)=O)c5N)C4)C3)ccc2CC1C(=O)NC1CCCc2ccccc21)C(C)(C)C

> <Shape>
0.190

> <Color>
0.083

> <Negative vol penalty>
0.000

$$$$

  -OEChem-04052320523D

 82 90  0     1  0  0  0  0  0999 V2000
  -22.3386  -29.0371   15.0487 C   0  0  0  0  0  0  0  0  0  0  0  0
  -22.8615  -27.8678   15.5915 C   0  0  0  0  0  0  0  0  0  0  0  0
  -23.1068  -10.3874   22.0747 C   0  0  0  0  0  0  0  0  0  0  0  0
  -24.8581  -10.5336   23.7326 C   0  0  0  0  0  0  0  0  0  0  0  0
  -22.6031  -30.2646   15.6547 C   0  0  0  0  0  0  0  0  0  0  0  0
  -23.6502  -27.9254   16.7400 C   0  0  0  0  0  0  0  0  0  0  0  0
  -23.9011  -23.7845   21.2451 C   0  0  0  0  0  0  0  0  0  0  0  0
  -22.4965   -9.3706   22.8090 C   0  0  0  0  0  0  0  0  0  0  0  0
  -24.2478   -9.5168   24.4669 C   0  0  0  0  0  0  0  0  0  0  0  0
  -24.7933  -22.7487   21.5184 C   0  0  0  0  0  0  0  0  0  0  0  0
  -22.9233   -6.0540   23.3015 C   0  0  0  0  0  0  0  0  0  0  0  0
  -22.4726   -4.9331   22.6043 C   0  0  0  0  0  0  0  0  0  0  0  0
  -26.0002  -24.1942   23.0261 C   0  0  0  0  0  0  0  0  0  0  0  0
  -20.2208   -5.3647   23.3661 C   0  0  0  0  0  0  0  0  0  0  0  0
  -24.2876  -10.9689   22.5365 C   0  0  0  0  0  0  0  0  0  0  0  0
  -24.3676  -13.2675   21.4330 C   0  0  0  0  0  0  0  0  0  0  0  0
  -23.3875  -30.3363   16.8167 C   0  0  0  0  0  0  0  0  0  0  0  0
  -24.0584  -25.0384   21.8529 C   0  0  0  0  0  0  0  0  0  0  0  0
  -23.9266  -29.1551   17.3613 C   0  0  0  0  0  0  0  0  0  0  0  0
  -25.1071  -25.2435   22.7608 C   0  0  0  0  0  0  0  0  0  0  0  0
  -23.0670   -8.9352   24.0051 C   0  0  0  0  0  0  0  0  0  0  0  0
  -25.8448  -22.9543   22.4068 C   0  0  0  0  0  0  0  0  0  0  0  0
  -22.0228   -6.8302   24.0310 C   0  0  0  0  0  0  0  0  0  0  0  0
  -21.1214   -4.5884   22.6366 C   0  0  0  0  0  0  0  0  0  0  0  0
  -20.6716   -6.4856   24.0634 C   0  0  0  0  0  0  0  0  0  0  0  0
  -24.9188  -12.0190   21.7781 C   0  0  0  0  0  0  0  0  0  0  0  0
  -25.3585  -13.8944   20.7178 C   0  0  0  0  0  0  0  0  0  0  0  0
  -23.0754  -13.8120   21.7322 C   0  0  0  0  0  0  0  0  0  0  0  0
  -24.6020  -27.9885   20.8016 C   0  0  0  0  0  0  0  0  0  0  0  0
  -24.1603  -28.7631   23.9204 C   0  0  0  0  0  0  0  0  0  0  0  0
  -24.2206  -27.7772   27.1871 C   0  0  0  0  0  0  0  0  0  0  0  0
  -31.3167  -13.3084   20.6291 C   0  0  0  0  0  0  0  0  0  0  0  0
  -23.6853  -31.6909   17.4091 C   0  0  0  0  0  0  0  0  0  0  0  0
  -23.0717  -26.1374   21.5680 C   0  0  0  0  0  0  0  0  0  0  0  0
  -25.3079  -26.5649   23.4552 C   0  0  0  0  0  0  0  0  0  0  0  0
  -24.2202  -31.6269   18.8374 C   0  0  0  0  0  0  0  0  0  0  0  0
  -29.0896  -12.9559   17.8736 C   0  0  0  0  0  0  0  0  0  0  0  0
  -25.3123  -30.5681   18.9515 C   0  0  0  0  0  0  0  0  0  0  0  0
  -27.7184  -12.7885   18.5307 C   0  0  0  0  0  0  0  0  0  0  0  0
  -28.3986  -21.8065   24.4067 C   0  0  0  0  0  0  0  0  0  0  0  0
  -29.0019  -21.7124   21.9734 C   0  0  0  0  0  0  0  0  0  0  0  0
  -30.1899  -12.2717   18.6817 C   0  0  0  0  0  0  0  0  0  0  0  0
  -28.4985  -20.2783   24.4474 C   0  0  0  0  0  0  0  0  0  0  0  0
  -29.0843  -20.1872   22.0961 C   0  0  0  0  0  0  0  0  0  0  0  0
  -28.8822  -12.5003   20.7581 C   0  0  0  0  0  0  0  0  0  0  0  0
  -24.7661  -29.1741   18.6202 C   0  0  1  0  0  0  0  0  0  0  0  0
  -23.6292  -27.5290   21.8505 C   0  0  1  0  0  0  0  0  0  0  0  0
  -27.7484  -13.2211   20.0090 C   0  0  2  0  0  0  0  0  0  0  0  0
  -28.0538  -22.3142   23.0078 C   0  0  0  0  0  0  0  0  0  1  0  0
  -23.8484  -28.6425   29.5131 C   0  0  0  0  0  0  0  0  0  0  0  0
  -26.8551  -30.1905   23.8179 C   0  0  0  0  0  0  0  0  0  0  0  0
  -26.8685  -30.1965   26.3215 C   0  0  0  0  0  0  0  0  0  0  0  0
  -25.0757  -31.4106   25.0828 C   0  0  0  0  0  0  0  0  0  0  0  0
  -22.0203  -25.8587   27.6735 C   0  0  0  0  0  0  0  0  0  0  0  0
  -29.5903  -18.3301   23.5446 C   0  0  0  0  0  0  0  0  0  0  0  0
  -32.3030  -14.3395   22.6596 C   0  0  0  0  0  0  0  0  0  0  0  0
  -30.9168  -17.8807   22.9618 C   0  0  0  0  0  0  0  0  0  0  0  0
  -32.2996  -15.8497   22.5129 C   0  0  0  0  0  0  0  0  0  0  0  0
  -25.0562  -28.8828   25.1295 C   0  0  1  0  0  0  0  0  0  0  0  0
  -23.2170  -27.9560   28.3119 C   0  0  2  0  0  0  0  0  0  0  0  0
  -25.9615  -30.1457   25.0735 C   0  0  0  0  0  0  0  0  0  0  0  0
  -26.1633  -11.8603   21.3198 N   0  0  0  0  0  0  0  0  0  0  0  0
  -26.4023  -13.0173   20.6793 N   0  0  0  0  0  0  0  0  0  0  0  0
  -24.3205  -27.6102   23.1388 N   0  0  0  0  0  0  0  0  0  0  0  0
  -30.1649  -12.7267   20.0739 N   0  0  0  0  0  0  0  0  0  0  0  0
  -29.4654  -19.7849   23.4570 N   0  0  0  0  0  0  0  0  0  0  0  0
  -25.4302  -15.1049   20.1244 N   0  0  0  0  0  0  0  0  0  0  0  0
  -22.9185  -14.5502   22.9132 N   0  0  0  0  0  0  0  0  0  0  0  0
  -24.0139  -28.6471   19.7387 N   0  0  0  0  0  0  0  0  0  0  0  0
  -24.1796  -28.8272   26.2943 N   0  0  0  0  0  0  0  0  0  0  0  0
  -31.2057  -13.7180   21.9522 N   0  0  0  0  0  0  0  0  0  0  0  0
  -22.6892  -26.6331   28.7504 N   0  3  0  0  0  0  0  0  0  0  0  0
  -31.0544  -16.4102   23.1046 N   0  3  0  0  0  0  0  0  0  0  0  0
  -22.0851  -13.6348   20.9829 O   0  0  0  0  0  0  0  0  0  0  0  0
  -25.7979  -27.7634   20.9466 O   0  0  0  0  0  0  0  0  0  0  0  0
  -23.3432  -29.6561   23.6824 O   0  0  0  0  0  0  0  0  0  0  0  0
  -24.9689  -26.8053   27.1103 O   0  0  0  0  0  0  0  0  0  0  0  0
  -32.3645  -13.4569   19.9911 O   0  0  0  0  0  0  0  0  0  0  0  0
  -22.4717   -7.9432   24.7220 O   0  0  0  0  0  0  0  0  0  0  0  0
  -26.7175  -21.9452   22.6749 O   0  0  0  0  0  0  0  0  0  1  0  0
  -20.6884   -3.5129   21.9658 F   0  0  0  0  0  0  0  0  0  0  0  0
  -19.8015   -7.2281   24.7615 F   0  0  0  0  0  0  0  0  0  0  0  0
  1  2  1  0  0  0  0
  1  5  2  0  0  0  0
  2  6  2  0  0  0  0
  3  8  2  0  0  0  0
  3 15  1  0  0  0  0
  4  9  1  0  0  0  0
  4 15  2  0  0  0  0
  5 17  1  0  0  0  0
  6 19  1  0  0  0  0
  7 10  2  0  0  0  0
  7 18  1  0  0  0  0
  8 21  1  0  0  0  0
  9 21  2  0  0  0  0
 10 22  1  0  0  0  0
 11 12  2  0  0  0  0
 11 23  1  0  0  0  0
 12 24  1  0  0  0  0
 13 20  1  0  0  0  0
 13 22  2  0  0  0  0
 14 24  2  0  0  0  0
 14 25  1  0  0  0  0
 15 26  1  0  0  0  0
 16 26  1  0  0  0  0
 16 27  2  0  0  0  0
 16 28  1  0  0  0  0
 17 19  2  0  0  0  0
 17 33  1  0  0  0  0
 18 20  2  0  0  0  0
 18 34  1  0  0  0  0
 19 46  1  0  0  0  0
 20 35  1  0  0  0  0
 21 79  1  0  0  0  0
 22 80  1  0  0  0  0
 23 25  2  0  0  0  0
 23 79  1  0  0  0  0
 24 81  1  0  0  0  0
 25 82  1  0  0  0  0
 26 62  2  0  0  0  0
 27 63  1  0  0  0  0
 27 67  1  0  0  0  0
 28 68  1  0  0  0  0
 28 74  2  0  0  0  0
 29 47  1  0  0  0  0
 29 69  1  0  0  0  0
 29 75  2  0  0  0  0
 30 59  1  0  0  0  0
 30 64  1  0  0  0  0
 30 76  2  0  0  0  0
 31 60  1  0  0  0  0
 31 70  1  0  0  0  0
 31 77  2  0  0  0  0
 32 65  1  0  0  0  0
 32 71  1  0  0  0  0
 32 78  2  0  0  0  0
 33 36  1  0  0  0  0
 34 47  1  0  0  0  0
 35 64  1  0  0  0  0
 36 38  1  0  0  0  0
 37 39  1  0  0  0  0
 37 42  1  0  0  0  0
 38 46  1  0  0  0  0
 39 48  1  0  0  0  0
 40 43  1  0  0  0  0
 40 49  1  0  0  0  0
 41 44  1  0  0  0  0
 41 49  1  0  0  0  0
 42 65  1  0  0  0  0
 43 66  1  0  0  0  0
 44 66  1  0  0  0  0
 45 48  1  0  0  0  0
 45 65  1  0  0  0  0
 46 69  1  0  0  0  0
 47 64  1  0  0  0  0
 48 63  1  0  0  0  0
 49 80  1  0  0  0  0
 50 60  1  0  0  0  0
 51 61  1  0  0  0  0
 52 61  1  0  0  0  0
 53 61  1  0  0  0  0
 54 72  1  0  0  0  0
 55 57  1  0  0  0  0
 55 66  1  0  0  0  0
 56 58  1  0  0  0  0
 56 71  1  0  0  0  0
 57 73  1  0  0  0  0
 58 73  1  0  0  0  0
 59 61  1  0  0  0  0
 59 70  1  0  0  0  0
 60 72  1  0  0  0  0
 62 63  1  0  0  0  0
M  CHG  2  72   1  73   1
M  ISO  4  32 100  49 101  71 100  80 101
M  END
> <Batch ID>
0132

> <Smiles>
CNC(C)C(=O)NC(C(=O)N1Cc2cc([101O:1][101CH:1]3CCN(CCNCC[100NH:0][100C:0](=O)N4CCCC(n5nc(-c6ccc(Oc7ccc(F)cc7F)cc6)c(C(N)=O)c5N)C4)CC3)ccc2CC1C(=O)NC1CCCc2ccccc21)C(C)(C)C

> <Shape>
0.206

> <Color>
0.117

> <Negative vol penalty>
0.000

$$$$

  -OEChem-04052320522D

  0  0  0     0  0  0  0  0  0999 V2000
M  END
$$$$

  -OEChem-04052320523D

 88 97  0     1  0  0  0  0  0999 V2000
  -29.4324  -23.8020   16.5910 C   0  0  0  0  0  0  0  0  0  0  0  0
  -29.0205  -23.0454   17.6834 C   0  0  0  0  0  0  0  0  0  0  0  0
  -22.6677  -10.1943   20.1642 C   0  0  0  0  0  0  0  0  0  0  0  0
  -24.3259   -9.4083   21.7357 C   0  0  0  0  0  0  0  0  0  0  0  0
  -30.4378  -24.7557   16.7443 C   0  0  0  0  0  0  0  0  0  0  0  0
  -29.6147  -23.2413   18.9295 C   0  0  0  0  0  0  0  0  0  0  0  0
  -26.9073  -22.8176   24.4064 C   0  0  0  0  0  0  0  0  0  0  0  0
  -21.9348   -9.0224   20.3513 C   0  0  0  0  0  0  0  0  0  0  0  0
  -23.5930   -8.2363   21.9228 C   0  0  0  0  0  0  0  0  0  0  0  0
  -26.8652  -21.7972   25.3556 C   0  0  0  0  0  0  0  0  0  0  0  0
  -20.8518   -7.2625   23.6428 C   0  0  0  0  0  0  0  0  0  0  0  0
  -20.6716   -6.8145   24.9514 C   0  0  0  0  0  0  0  0  0  0  0  0
  -28.6925  -22.8334   26.5416 C   0  0  0  0  0  0  0  0  0  0  0  0
  -21.7952   -4.7483   24.3988 C   0  0  0  0  0  0  0  0  0  0  0  0
  -23.8633  -10.3873   20.8564 C   0  0  0  0  0  0  0  0  0  0  0  0
  -24.1947  -12.9161   20.9105 C   0  0  0  0  0  0  0  0  0  0  0  0
  -31.0379  -24.9701   17.9951 C   0  0  0  0  0  0  0  0  0  0  0  0
  -27.8510  -23.8494   24.5119 C   0  0  0  0  0  0  0  0  0  0  0  0
  -30.6301  -24.1978   19.0994 C   0  0  0  0  0  0  0  0  0  0  0  0
  -28.7428  -23.8670   25.5939 C   0  0  0  0  0  0  0  0  0  0  0  0
  -22.3974   -8.0434   21.2306 C   0  0  0  0  0  0  0  0  0  0  0  0
  -27.7598  -21.8034   26.4217 C   0  0  0  0  0  0  0  0  0  0  0  0
  -21.5036   -6.4533   22.7121 C   0  0  0  0  0  0  0  0  0  0  0  0
  -21.1433   -5.5575   25.3294 C   0  0  0  0  0  0  0  0  0  0  0  0
  -21.9753   -5.1962   23.0901 C   0  0  0  0  0  0  0  0  0  0  0  0
  -24.6211  -11.5974   20.6632 C   0  0  0  0  0  0  0  0  0  0  0  0
  -25.2734  -13.6953   20.5702 C   0  0  0  0  0  0  0  0  0  0  0  0
  -22.9361  -13.3939   21.4037 C   0  0  0  0  0  0  0  0  0  0  0  0
  -30.2613  -24.8774   22.7126 C   0  0  0  0  0  0  0  0  0  0  0  0
  -30.3774  -27.2573   24.9137 C   0  0  0  0  0  0  0  0  0  0  0  0
  -30.0974  -27.5439   28.4994 C   0  0  0  0  0  0  0  0  0  0  0  0
  -30.7576  -14.7243   20.6679 C   0  0  0  0  0  0  0  0  0  0  0  0
  -32.1537  -25.9792   18.1015 C   0  0  0  0  0  0  0  0  0  0  0  0
  -27.8658  -24.9571   23.4945 C   0  0  0  0  0  0  0  0  0  0  0  0
  -29.7618  -24.9630   25.7638 C   0  0  0  0  0  0  0  0  0  0  0  0
  -32.4713  -26.3869   19.5379 C   0  0  0  0  0  0  0  0  0  0  0  0
  -29.5547  -12.5143   18.1490 C   0  0  0  0  0  0  0  0  0  0  0  0
  -32.5659  -25.1559   20.4337 C   0  0  0  0  0  0  0  0  0  0  0  0
  -28.1317  -12.1829   18.6022 C   0  0  0  0  0  0  0  0  0  0  0  0
  -31.1231  -18.4423   23.9458 C   0  0  0  0  0  0  0  0  0  0  0  0
  -30.5071  -12.6516   19.3347 C   0  0  0  0  0  0  0  0  0  0  0  0
  -31.6172  -15.7315   26.6452 C   0  0  0  0  0  0  0  0  0  0  0  0
  -28.6462  -13.2707   20.8273 C   0  0  0  0  0  0  0  0  0  0  0  0
  -30.8133  -19.5746   22.9799 C   0  0  0  0  0  0  0  0  0  0  0  0
  -32.8506  -15.9569   25.7888 C   0  0  0  0  0  0  0  0  0  0  0  0
  -30.5495  -17.9355   21.1079 C   0  0  0  0  0  0  0  0  0  0  0  0
  -31.2332  -24.3984   20.4728 C   0  0  1  0  0  0  0  0  0  0  0  0
  -29.2064  -25.6812   23.4190 C   0  0  1  0  0  0  0  0  0  0  0  0
  -30.4695  -17.1197   23.5109 C   0  0  1  0  0  0  0  0  0  0  0  0
  -27.6374  -13.1775   19.6697 C   0  0  2  0  0  0  0  0  0  0  0  0
  -30.8552  -16.7795   22.0557 C   0  0  1  0  0  0  0  0  0  0  0  0
  -30.8559  -16.0103   24.4777 C   0  0  2  0  0  0  0  0  0  0  0  0
  -29.3536  -29.4674   29.9292 C   0  0  0  0  0  0  0  0  0  0  0  0
  -27.3446  -16.2887   27.9828 C   0  0  0  0  0  0  0  0  0  0  0  0
  -33.3524  -27.9174   25.0667 C   0  0  0  0  0  0  0  0  0  0  0  0
  -33.0147  -28.5636   27.4619 C   0  0  0  0  0  0  0  0  0  0  0  0
  -31.8315  -29.8132   25.6560 C   0  0  0  0  0  0  0  0  0  0  0  0
  -28.0299  -25.9015   29.8361 C   0  0  0  0  0  0  0  0  0  0  0  0
  -29.2264  -15.9285   26.2905 C   0  0  0  0  0  0  0  0  0  0  0  0
  -28.9121  -19.0153   28.4216 C   0  0  0  0  0  0  0  0  0  0  0  0
  -28.9515  -20.4671   27.9871 C   0  0  0  0  0  0  0  0  0  1  0  0
  -31.0912  -27.4644   26.2277 C   0  0  1  0  0  0  0  0  0  0  0  0
  -28.9452  -28.1567   29.2749 C   0  0  2  0  0  0  0  0  0  0  0  0
  -28.7383  -16.6923   27.5205 C   0  0  1  0  0  0  0  0  0  0  0  0
  -32.3153  -28.4137   26.0939 C   0  0  0  0  0  0  0  0  0  0  0  0
  -25.8730  -11.5384   20.2013 N   0  0  0  0  0  0  0  0  0  0  0  0
  -26.2424  -12.8297   20.1556 N   0  0  0  0  0  0  0  0  0  0  0  0
  -29.7409  -26.0203   24.7394 N   0  0  0  0  0  0  0  0  0  0  0  0
  -29.9809  -13.6103   20.3094 N   0  0  0  0  0  0  0  0  0  0  0  0
  -30.5487  -16.3669   25.8662 N   0  0  1  0  0  0  0  0  0  0  0  0
  -25.4780  -15.0295   20.5881 N   0  0  0  0  0  0  0  0  0  0  0  0
  -22.7718  -13.5366   22.7883 N   0  0  0  0  0  0  0  0  0  0  0  0
  -30.2946  -25.0714   21.3449 N   0  0  0  0  0  0  0  0  0  0  0  0
  -30.0799  -27.9232   27.1738 N   0  0  0  0  0  0  0  0  0  0  0  0
  -30.1818  -15.5865   21.5930 N   0  0  0  0  0  0  0  0  0  0  0  0
  -31.2242  -19.1716   21.6043 N   0  3  0  0  0  0  0  0  0  0  0  0
  -32.3416  -15.7832   24.3911 N   0  3  0  0  0  0  0  0  0  0  0  0
  -28.4836  -27.2231   30.3408 N   0  3  0  0  0  0  0  0  0  0  0  0
  -28.7352  -18.1510   27.2274 N   0  3  0  0  0  0  0  0  0  0  0  0
  -21.9799  -13.6702   20.6403 O   0  0  0  0  0  0  0  0  0  0  0  0
  -30.9918  -24.1372   23.3607 O   0  0  0  0  0  0  0  0  0  0  0  0
  -30.3782  -28.1626   24.0758 O   0  0  0  0  0  0  0  0  0  0  0  0
  -30.9319  -26.8058   29.0185 O   0  0  0  0  0  0  0  0  0  0  0  0
  -31.8789  -14.9378   20.1945 O   0  0  0  0  0  0  0  0  0  0  0  0
  -21.6824   -6.8998   21.4135 O   0  0  0  0  0  0  0  0  0  0  0  0
  -27.7214  -20.8084   27.3492 O   0  0  0  0  0  0  0  0  0  1  0  0
  -20.9716   -5.1281   26.5865 F   0  0  0  0  0  0  0  0  0  0  0  0
  -22.6033   -4.4149   22.2008 F   0  0  0  0  0  0  0  0  0  0  0  0
  1  2  1  0  0  0  0
  1  5  2  0  0  0  0
  2  6  2  0  0  0  0
  3  8  2  0  0  0  0
  3 15  1  0  0  0  0
  4  9  1  0  0  0  0
  4 15  2  0  0  0  0
  5 17  1  0  0  0  0
  6 19  1  0  0  0  0
  7 10  2  0  0  0  0
  7 18  1  0  0  0  0
  8 21  1  0  0  0  0
  9 21  2  0  0  0  0
 10 22  1  0  0  0  0
 11 12  2  0  0  0  0
 11 23  1  0  0  0  0
 12 24  1  0  0  0  0
 13 20  1  0  0  0  0
 13 22  2  0  0  0  0
 14 24  2  0  0  0  0
 14 25  1  0  0  0  0
 15 26  1  0  0  0  0
 16 26  1  0  0  0  0
 16 27  2  0  0  0  0
 16 28  1  0  0  0  0
 17 19  2  0  0  0  0
 17 33  1  0  0  0  0
 18 20  2  0  0  0  0
 18 34  1  0  0  0  0
 19 47  1  0  0  0  0
 20 35  1  0  0  0  0
 21 85  1  0  0  0  0
 22 86  1  0  0  0  0
 23 25  2  0  0  0  0
 23 85  1  0  0  0  0
 24 87  1  0  0  0  0
 25 88  1  0  0  0  0
 26 66  2  0  0  0  0
 27 67  1  0  0  0  0
 27 71  1  0  0  0  0
 28 72  1  0  0  0  0
 28 80  2  0  0  0  0
 29 48  1  0  0  0  0
 29 73  1  0  0  0  0
 29 81  2  0  0  0  0
 30 62  1  0  0  0  0
 30 68  1  0  0  0  0
 30 82  2  0  0  0  0
 31 63  1  0  0  0  0
 31 74  1  0  0  0  0
 31 83  2  0  0  0  0
 32 69  1  0  0  0  0
 32 75  1  0  0  0  0
 32 84  2  0  0  0  0
 33 36  1  0  0  0  0
 34 48  1  0  0  0  0
 35 68  1  0  0  0  0
 36 38  1  0  0  0  0
 37 39  1  0  0  0  0
 37 41  1  0  0  0  0
 38 47  1  0  0  0  0
 39 50  1  0  0  0  0
 40 44  1  0  0  0  0
 40 49  1  0  0  0  0
 41 69  1  0  0  0  0
 42 45  1  0  0  0  0
 42 70  1  0  0  0  0
 43 50  1  0  0  0  0
 43 69  1  0  0  0  0
 44 76  1  0  0  0  0
 45 77  1  0  0  0  0
 46 51  1  0  0  0  0
 46 76  1  0  0  0  0
 47 73  1  0  0  0  0
 48 68  1  0  0  0  0
 49 51  1  0  0  0  0
 49 52  1  0  0  0  0
 50 67  1  0  0  0  0
 51 75  1  0  0  0  0
 52 70  1  0  0  0  0
 52 77  1  0  0  0  0
 53 63  1  0  0  0  0
 54 64  1  0  0  0  0
 55 65  1  0  0  0  0
 56 65  1  0  0  0  0
 57 65  1  0  0  0  0
 58 78  1  0  0  0  0
 59 64  1  0  0  0  0
 59 70  1  0  0  0  0
 60 61  1  0  0  0  0
 60 79  1  0  0  0  0
 61 86  1  0  0  0  0
 62 65  1  0  0  0  0
 62 74  1  0  0  0  0
 63 78  1  0  0  0  0
 64 79  1  0  0  0  0
 66 67  1  0  0  0  0
M  CHG  4  76   1  77   1  78   1  79   1
M  ISO  4  32 100  61 101  75 100  86 101
M  END
> <Batch ID>
0132

> <Smiles>
CNC(C)C(=O)NC(C(=O)N1Cc2cc([101O:1][101CH2:1]CNC(C)CN3CCNC3C3CCNCC3[100NH:0][100C:0](=O)N3CCCC(n4nc(-c5ccc(Oc6ccc(F)cc6F)cc5)c(C(N)=O)c4N)C3)ccc2CC1C(=O)NC1CCCc2ccccc21)C(C)(C)C

> <Shape>
0.235

> <Color>
0.159

> <Negative vol penalty>
0.000

$$$$

  -OEChem-04052320523D

 86 95  0     1  0  0  0  0  0999 V2000
  -26.8633  -28.9959   12.1004 C   0  0  0  0  0  0  0  0  0  0  0  0
  -27.2035  -28.1584   13.1578 C   0  0  0  0  0  0  0  0  0  0  0  0
  -22.9610  -10.0363   19.8913 C   0  0  0  0  0  0  0  0  0  0  0  0
  -23.9500   -9.6226   22.0564 C   0  0  0  0  0  0  0  0  0  0  0  0
  -26.8880  -30.3793   12.2726 C   0  0  0  0  0  0  0  0  0  0  0  0
  -27.5698  -28.7037   14.3878 C   0  0  0  0  0  0  0  0  0  0  0  0
  -25.3701  -26.3443   18.2915 C   0  0  0  0  0  0  0  0  0  0  0  0
  -26.8164  -20.6102   20.7303 C   0  0  0  0  0  0  0  0  0  0  0  0
  -27.4059  -19.4761   21.2887 C   0  0  0  0  0  0  0  0  0  0  0  0
  -22.2075   -8.8688   20.0124 C   0  0  0  0  0  0  0  0  0  0  0  0
  -23.1964   -8.4551   22.1775 C   0  0  0  0  0  0  0  0  0  0  0  0
  -25.9104  -25.1197   18.6818 C   0  0  0  0  0  0  0  0  0  0  0  0
  -20.0210   -7.6131   22.9698 C   0  0  0  0  0  0  0  0  0  0  0  0
  -19.3861   -7.3769   24.1891 C   0  0  0  0  0  0  0  0  0  0  0  0
  -29.5384  -20.1262   20.3578 C   0  0  0  0  0  0  0  0  0  0  0  0
  -27.0814  -26.2171   20.4828 C   0  0  0  0  0  0  0  0  0  0  0  0
  -20.6290   -5.3202   24.4379 C   0  0  0  0  0  0  0  0  0  0  0  0
  -23.8324  -10.4132   20.9132 C   0  0  0  0  0  0  0  0  0  0  0  0
  -24.2463  -12.9137   21.2029 C   0  0  0  0  0  0  0  0  0  0  0  0
  -27.2455  -30.9417   13.5081 C   0  0  0  0  0  0  0  0  0  0  0  0
  -25.6906  -27.5182   18.9885 C   0  0  0  0  0  0  0  0  0  0  0  0
  -27.6007  -30.0959   14.5762 C   0  0  0  0  0  0  0  0  0  0  0  0
  -28.9489  -21.2604   19.7994 C   0  0  0  0  0  0  0  0  0  0  0  0
  -26.5418  -27.4550   20.1010 C   0  0  0  0  0  0  0  0  0  0  0  0
  -27.5879  -21.5023   19.9856 C   0  0  0  0  0  0  0  0  0  0  0  0
  -28.7669  -19.2341   21.1025 C   0  0  0  0  0  0  0  0  0  0  0  0
  -22.3252   -8.0782   21.1555 C   0  0  0  0  0  0  0  0  0  0  0  0
  -26.7684  -25.0564   19.7758 C   0  0  0  0  0  0  0  0  0  0  0  0
  -20.9598   -6.7028   22.4845 C   0  0  0  0  0  0  0  0  0  0  0  0
  -19.6901   -6.2305   24.9232 C   0  0  0  0  0  0  0  0  0  0  0  0
  -21.2639   -5.5563   23.2186 C   0  0  0  0  0  0  0  0  0  0  0  0
  -24.6115  -11.6188   20.7885 C   0  0  0  0  0  0  0  0  0  0  0  0
  -25.3208  -13.6988   20.8630 C   0  0  0  0  0  0  0  0  0  0  0  0
  -23.0434  -13.3663   21.8383 C   0  0  0  0  0  0  0  0  0  0  0  0
  -27.1333  -30.2494   18.2383 C   0  0  0  0  0  0  0  0  0  0  0  0
  -26.2410  -31.0935   21.2406 C   0  0  0  0  0  0  0  0  0  0  0  0
  -25.3724  -30.1071   24.3901 C   0  0  0  0  0  0  0  0  0  0  0  0
  -30.8269  -14.5824   20.6442 C   0  0  0  0  0  0  0  0  0  0  0  0
  -27.3034  -32.4437   13.6325 C   0  0  0  0  0  0  0  0  0  0  0  0
  -25.0784  -28.8272   18.5713 C   0  0  0  0  0  0  0  0  0  0  0  0
  -26.9013  -28.6831   20.8953 C   0  0  0  0  0  0  0  0  0  0  0  0
  -27.3407  -32.9342   15.0775 C   0  0  0  0  0  0  0  0  0  0  0  0
  -31.8104  -22.2245   17.6406 C   0  0  0  0  0  0  0  0  0  0  0  0
  -32.2384  -22.4011   19.0865 C   0  0  0  0  0  0  0  0  0  0  0  0
  -29.3716  -12.6794   18.0103 C   0  0  0  0  0  0  0  0  0  0  0  0
  -30.4502  -21.5546   17.7642 C   0  0  0  0  0  0  0  0  0  0  0  0
  -30.9616  -22.8449   19.7913 C   0  0  0  0  0  0  0  0  0  0  0  0
  -28.3570  -32.1347   15.8867 C   0  0  0  0  0  0  0  0  0  0  0  0
  -27.9765  -12.3357   18.5350 C   0  0  0  0  0  0  0  0  0  0  0  0
  -30.4131  -12.6684   19.1270 C   0  0  0  0  0  0  0  0  0  0  0  0
  -28.6884  -13.1702   20.8144 C   0  0  0  0  0  0  0  0  0  0  0  0
  -29.8022  -22.2092   18.9975 C   0  0  0  0  0  0  0  0  0  0  0  0
  -27.9795  -30.6491   15.9329 C   0  0  1  0  0  0  0  0  0  0  0  0
  -25.8799  -30.0379   19.0395 C   0  0  1  0  0  0  0  0  0  0  0  0
  -27.5941  -13.2235   19.7345 C   0  0  2  0  0  0  0  0  0  0  0  0
  -24.7353  -31.0259   26.6367 C   0  0  0  0  0  0  0  0  0  0  0  0
  -29.1579  -31.8158   21.7698 C   0  0  0  0  0  0  0  0  0  0  0  0
  -28.6432  -31.8060   24.2199 C   0  0  0  0  0  0  0  0  0  0  0  0
  -27.4960  -33.4293   22.7127 C   0  0  0  0  0  0  0  0  0  0  0  0
  -22.7256  -28.7854   24.3091 C   0  0  0  0  0  0  0  0  0  0  0  0
  -26.9311  -22.7147   19.3939 C   0  0  0  0  0  0  0  0  0  1  0  0
  -30.7509  -17.7789   21.5166 C   0  0  0  0  0  0  0  0  0  0  0  0
  -31.0916  -16.4768   22.2254 C   0  0  0  0  0  0  0  0  0  0  0  0
  -26.8634  -30.9836   22.6116 C   0  0  1  0  0  0  0  0  0  0  0  0
  -24.2264  -30.5214   25.2953 C   0  0  2  0  0  0  0  0  0  0  0  0
  -28.0351  -31.9857   22.8126 C   0  0  0  0  0  0  0  0  0  0  0  0
  -25.8232  -11.5794   20.2280 N   0  0  0  0  0  0  0  0  0  0  0  0
  -26.2288  -12.8592   20.2878 N   0  0  0  0  0  0  0  0  0  0  0  0
  -26.2823  -29.9404   20.4441 N   0  0  0  0  0  0  0  0  0  0  0  0
  -29.9910  -13.5310   20.2332 N   0  0  0  0  0  0  0  0  0  0  0  0
  -25.5681  -15.0185   21.0030 N   0  0  0  0  0  0  0  0  0  0  0  0
  -22.0405  -12.4275   22.1162 N   0  0  0  0  0  0  0  0  0  0  0  0
  -29.3627  -18.0877   21.6681 N   0  0  0  0  0  0  0  0  0  0  0  0
  -26.9130  -30.4281   16.8859 N   0  0  0  0  0  0  0  0  0  0  0  0
  -25.7732  -31.1393   23.5685 N   0  0  0  0  0  0  0  0  0  0  0  0
  -30.3485  -15.3555   21.6950 N   0  0  0  0  0  0  0  0  0  0  0  0
  -23.3173  -29.3665   25.5417 N   0  3  0  0  0  0  0  0  0  0  0  0
  -22.8564  -14.5706   22.1356 O   0  0  0  0  0  0  0  0  0  0  0  0
  -28.2196  -30.2519   18.8054 O   0  0  0  0  0  0  0  0  0  0  0  0
  -25.7304  -32.1610   20.8921 O   0  0  0  0  0  0  0  0  0  0  0  0
  -25.8654  -28.9815   24.4125 O   0  0  0  0  0  0  0  0  0  0  0  0
  -31.9161  -14.8182   20.1105 O   0  0  0  0  0  0  0  0  0  0  0  0
  -21.5898   -6.9390   21.2741 O   0  0  0  0  0  0  0  0  0  0  0  0
  -27.2976  -23.8625   20.1584 O   0  0  0  0  0  0  0  0  0  1  0  0
  -19.0815   -6.0046   26.0949 F   0  0  0  0  0  0  0  0  0  0  0  0
  -22.1658   -4.6787   22.7580 F   0  0  0  0  0  0  0  0  0  0  0  0
  1  2  1  0  0  0  0
  1  5  2  0  0  0  0
  2  6  2  0  0  0  0
  3 10  2  0  0  0  0
  3 18  1  0  0  0  0
  4 11  1  0  0  0  0
  4 18  2  0  0  0  0
  5 20  1  0  0  0  0
  6 22  1  0  0  0  0
  7 12  2  0  0  0  0
  7 21  1  0  0  0  0
  8  9  2  0  0  0  0
  8 25  1  0  0  0  0
  9 26  1  0  0  0  0
 10 27  1  0  0  0  0
 11 27  2  0  0  0  0
 12 28  1  0  0  0  0
 13 14  2  0  0  0  0
 13 29  1  0  0  0  0
 14 30  1  0  0  0  0
 15 23  1  0  0  0  0
 15 26  2  0  0  0  0
 16 24  1  0  0  0  0
 16 28  2  0  0  0  0
 17 30  2  0  0  0  0
 17 31  1  0  0  0  0
 18 32  1  0  0  0  0
 19 32  1  0  0  0  0
 19 33  2  0  0  0  0
 19 34  1  0  0  0  0
 20 22  2  0  0  0  0
 20 39  1  0  0  0  0
 21 24  2  0  0  0  0
 21 40  1  0  0  0  0
 22 53  1  0  0  0  0
 23 25  2  0  0  0  0
 23 52  1  0  0  0  0
 24 41  1  0  0  0  0
 25 61  1  0  0  0  0
 26 73  1  0  0  0  0
 27 83  1  0  0  0  0
 28 84  1  0  0  0  0
 29 31  2  0  0  0  0
 29 83  1  0  0  0  0
 30 85  1  0  0  0  0
 31 86  1  0  0  0  0
 32 67  2  0  0  0  0
 33 68  1  0  0  0  0
 33 71  1  0  0  0  0
 34 72  1  0  0  0  0
 34 78  2  0  0  0  0
 35 54  1  0  0  0  0
 35 74  1  0  0  0  0
 35 79  2  0  0  0  0
 36 64  1  0  0  0  0
 36 69  1  0  0  0  0
 36 80  2  0  0  0  0
 37 65  1  0  0  0  0
 37 75  1  0  0  0  0
 37 81  2  0  0  0  0
 38 70  1  0  0  0  0
 38 76  1  0  0  0  0
 38 82  2  0  0  0  0
 39 42  1  0  0  0  0
 40 54  1  0  0  0  0
 41 69  1  0  0  0  0
 42 48  1  0  0  0  0
 43 44  1  0  0  0  0
 43 46  1  0  0  0  0
 44 47  1  0  0  0  0
 45 49  1  0  0  0  0
 45 50  1  0  0  0  0
 46 52  1  0  0  0  0
 47 52  1  0  0  0  0
 48 53  1  0  0  0  0
 49 55  1  0  0  0  0
 50 70  1  0  0  0  0
 51 55  1  0  0  0  0
 51 70  1  0  0  0  0
 53 74  1  0  0  0  0
 54 69  1  0  0  0  0
 55 68  1  0  0  0  0
 56 65  1  0  0  0  0
 57 66  1  0  0  0  0
 58 66  1  0  0  0  0
 59 66  1  0  0  0  0
 60 77  1  0  0  0  0
 61 84  1  0  0  0  0
 62 63  1  0  0  0  0
 62 73  1  0  0  0  0
 63 76  1  0  0  0  0
 64 66  1  0  0  0  0
 64 75  1  0  0  0  0
 65 77  1  0  0  0  0
 67 68  1  0  0  0  0
M  CHG  1  77   1
M  ISO  4  38 100  61 101  76 100  84 101
M  END
> <Batch ID>
0132

> <Smiles>
CNC(C)C(=O)NC(C(=O)N1Cc2cc([101O:1][101CH2:1]c3ccc(NCC[100NH:0][100C:0](=O)N4CCCC(n5nc(-c6ccc(Oc7ccc(F)cc7F)cc6)c(C(N)=O)c5N)C4)cc3C3CCCC3)ccc2CC1C(=O)NC1CCCc2ccccc21)C(C)(C)C

> <Shape>
0.330

> <Color>
0.183

> <Negative vol penalty>
0.000

$$$$

  -OEChem-04052320523D

 88 97  0     1  0  0  0  0  0999 V2000
  -26.9312  -31.0126   28.3504 C   0  0  0  0  0  0  0  0  0  0  0  0
  -27.1543  -30.0950   27.3287 C   0  0  0  0  0  0  0  0  0  0  0  0
  -24.1657   -9.3357   21.1318 C   0  0  0  0  0  0  0  0  0  0  0  0
  -25.6450   -9.9027   22.9559 C   0  0  0  0  0  0  0  0  0  0  0  0
  -25.6881  -31.6325   28.4699 C   0  0  0  0  0  0  0  0  0  0  0  0
  -26.1339  -29.7960   26.4266 C   0  0  0  0  0  0  0  0  0  0  0  0
  -27.7508  -29.6944   21.6287 C   0  0  0  0  0  0  0  0  0  0  0  0
  -24.0494   -8.0379   21.6294 C   0  0  0  0  0  0  0  0  0  0  0  0
  -25.5287   -8.6049   23.4536 C   0  0  0  0  0  0  0  0  0  0  0  0
  -28.4415  -28.5568   21.2135 C   0  0  0  0  0  0  0  0  0  0  0  0
  -23.0765   -4.6783   22.6200 C   0  0  0  0  0  0  0  0  0  0  0  0
  -21.8014   -4.1151   22.6710 C   0  0  0  0  0  0  0  0  0  0  0  0
  -26.4333  -27.7274   20.1654 C   0  0  0  0  0  0  0  0  0  0  0  0
  -21.0757   -5.8912   24.1393 C   0  0  0  0  0  0  0  0  0  0  0  0
  -24.9635  -10.2682   21.7950 C   0  0  0  0  0  0  0  0  0  0  0  0
  -24.2736  -12.7159   21.5948 C   0  0  0  0  0  0  0  0  0  0  0  0
  -24.6550  -31.3481   27.5629 C   0  0  0  0  0  0  0  0  0  0  0  0
  -26.3911  -29.8523   21.3242 C   0  0  0  0  0  0  0  0  0  0  0  0
  -24.8754  -30.4116   26.5349 C   0  0  0  0  0  0  0  0  0  0  0  0
  -25.7283  -28.8692   20.5757 C   0  0  0  0  0  0  0  0  0  0  0  0
  -24.7309   -7.6725   22.7903 C   0  0  0  0  0  0  0  0  0  0  0  0
  -27.7820  -27.5717   20.4842 C   0  0  0  0  0  0  0  0  0  0  0  0
  -23.3513   -5.8479   23.3287 C   0  0  0  0  0  0  0  0  0  0  0  0
  -20.8010   -4.7216   23.4307 C   0  0  0  0  0  0  0  0  0  0  0  0
  -22.3509   -6.4544   24.0883 C   0  0  0  0  0  0  0  0  0  0  0  0
  -25.0845  -11.6088   21.2810 C   0  0  0  0  0  0  0  0  0  0  0  0
  -24.7963  -13.7460   20.8518 C   0  0  0  0  0  0  0  0  0  0  0  0
  -23.1484  -12.8052   22.4790 C   0  0  0  0  0  0  0  0  0  0  0  0
  -23.7259  -30.1220   23.0352 C   0  0  0  0  0  0  0  0  0  0  0  0
  -22.3815  -30.6671   20.1339 C   0  0  0  0  0  0  0  0  0  0  0  0
  -22.5350  -30.2662   16.7482 C   0  0  0  0  0  0  0  0  0  0  0  0
  -29.5631  -16.4295   19.2909 C   0  0  0  0  0  0  0  0  0  0  0  0
  -23.3133  -32.0079   27.7608 C   0  0  0  0  0  0  0  0  0  0  0  0
  -25.6671  -31.0979   21.7564 C   0  0  0  0  0  0  0  0  0  0  0  0
  -24.2743  -29.0005   20.2054 C   0  0  0  0  0  0  0  0  0  0  0  0
  -22.4032  -31.9161   26.5386 C   0  0  0  0  0  0  0  0  0  0  0  0
  -28.2022  -13.7456   17.1263 C   0  0  0  0  0  0  0  0  0  0  0  0
  -22.3990  -30.4960   25.9816 C   0  0  0  0  0  0  0  0  0  0  0  0
  -28.0353  -24.0306   22.8081 C   0  0  0  0  0  0  0  0  0  0  0  0
  -27.2623  -13.0024   18.0737 C   0  0  0  0  0  0  0  0  0  0  0  0
  -27.6256  -22.5440   22.8812 C   0  0  0  0  0  0  0  0  0  0  0  0
  -29.7961  -19.4945   20.8996 C   0  0  0  0  0  0  0  0  0  0  0  0
  -27.3975  -19.0371   20.2515 C   0  0  0  0  0  0  0  0  0  0  0  0
  -29.3473  -14.4184   17.8766 C   0  0  0  0  0  0  0  0  0  0  0  0
  -29.9760  -18.0013   21.1602 C   0  0  0  0  0  0  0  0  0  0  0  0
  -27.6335  -17.5444   20.5001 C   0  0  0  0  0  0  0  0  0  0  0  0
  -27.9577  -14.5834   19.9172 C   0  0  0  0  0  0  0  0  0  0  0  0
  -23.8013  -30.0795   25.5218 C   0  0  1  0  0  0  0  0  0  0  0  0
  -24.1546  -30.9139   21.8323 C   0  0  1  0  0  0  0  0  0  0  0  0
  -28.4604  -23.7686   21.3392 C   0  0  2  0  0  0  0  0  0  0  0  0
  -26.7684  -13.9318   19.1956 C   0  0  2  0  0  0  0  0  0  0  0  0
  -28.6475  -22.2828   21.7525 C   0  0  2  0  0  0  0  0  0  0  0  0
  -28.3352  -19.8917   21.1017 C   0  0  0  0  0  0  0  0  0  0  0  0
  -21.2723  -30.7887   14.6435 C   0  0  0  0  0  0  0  0  0  0  0  0
  -31.4583  -22.4536   17.3591 C   0  0  0  0  0  0  0  0  0  0  0  0
  -31.0142  -24.8195   16.6420 C   0  0  0  0  0  0  0  0  0  0  0  0
  -20.3971  -28.4395   20.7742 C   0  0  0  0  0  0  0  0  0  0  0  0
  -19.8064  -28.3618   18.3425 C   0  0  0  0  0  0  0  0  0  0  0  0
  -19.3947  -30.4407   19.6584 C   0  0  0  0  0  0  0  0  0  0  0  0
  -24.7701  -31.8787   15.6698 C   0  0  0  0  0  0  0  0  0  0  0  0
  -31.4617  -24.3145   19.0971 C   0  0  0  0  0  0  0  0  0  0  0  0
  -29.5312  -26.0150   20.9003 C   0  0  0  0  0  0  0  0  0  1  0  0
  -21.7667  -29.8013   19.0608 C   0  0  1  0  0  0  0  0  0  0  0  0
  -22.3531  -31.2516   15.6079 C   0  0  2  0  0  0  0  0  0  0  0  0
  -29.6993  -24.4963   20.8576 C   0  0  2  0  0  0  0  0  0  0  0  0
  -31.7516  -23.9278   17.6424 C   0  0  0  0  0  0  0  0  0  0  0  0
  -20.3681  -29.2572   19.4675 C   0  0  0  0  0  0  0  0  0  0  0  0
  -26.0490  -11.9075   20.4067 N   0  0  0  0  0  0  0  0  0  0  0  0
  -25.8474  -13.2140   20.1646 N   0  0  0  0  0  0  0  0  0  0  0  0
  -23.6082  -30.2335   20.6564 N   0  0  0  0  0  0  0  0  0  0  0  0
  -28.8558  -15.2593   18.9683 N   0  0  0  0  0  0  0  0  0  0  0  0
  -29.0563  -17.2081   20.3423 N   0  0  0  0  0  0  0  0  0  0  0  0
  -24.4547  -15.0460   20.7257 N   0  0  0  0  0  0  0  0  0  0  0  0
  -22.7441  -11.6515   23.1644 N   0  0  0  0  0  0  0  0  0  0  0  0
  -24.1113  -30.6769   24.2406 N   0  0  0  0  0  0  0  0  0  0  0  0
  -21.7648  -30.6023   17.8414 N   0  0  0  0  0  0  0  0  0  0  0  0
  -28.1643  -21.3194   20.7274 N   0  3  0  0  0  0  0  0  0  0  0  0
  -23.6261  -31.4057   14.8485 N   0  3  0  0  0  0  0  0  0  0  0  0
  -30.0400  -24.0902   19.4643 N   0  3  0  0  0  0  0  0  0  0  0  0
  -22.5100  -13.8724   22.6433 O   0  0  0  0  0  0  0  0  0  0  0  0
  -23.0911  -29.0852   22.8812 O   0  0  0  0  0  0  0  0  0  0  0  0
  -21.7984  -31.6941   20.4901 O   0  0  0  0  0  0  0  0  0  0  0  0
  -23.2824  -29.2933   16.6751 O   0  0  0  0  0  0  0  0  0  0  0  0
  -30.5844  -16.7584   18.6744 O   0  0  0  0  0  0  0  0  0  0  0  0
  -24.6174   -6.4062   23.2764 O   0  0  0  0  0  0  0  0  0  0  0  0
  -28.4583  -26.4522   20.0754 O   0  0  0  0  0  0  0  0  0  1  0  0
  -19.5762   -4.1815   23.4783 F   0  0  0  0  0  0  0  0  0  0  0  0
  -22.6085   -7.5788   24.7703 F   0  0  0  0  0  0  0  0  0  0  0  0
  1  2  1  0  0  0  0
  1  5  2  0  0  0  0
  2  6  2  0  0  0  0
  3  8  2  0  0  0  0
  3 15  1  0  0  0  0
  4  9  1  0  0  0  0
  4 15  2  0  0  0  0
  5 17  1  0  0  0  0
  6 19  1  0  0  0  0
  7 10  2  0  0  0  0
  7 18  1  0  0  0  0
  8 21  1  0  0  0  0
  9 21  2  0  0  0  0
 10 22  1  0  0  0  0
 11 12  2  0  0  0  0
 11 23  1  0  0  0  0
 12 24  1  0  0  0  0
 13 20  1  0  0  0  0
 13 22  2  0  0  0  0
 14 24  2  0  0  0  0
 14 25  1  0  0  0  0
 15 26  1  0  0  0  0
 16 26  1  0  0  0  0
 16 27  2  0  0  0  0
 16 28  1  0  0  0  0
 17 19  2  0  0  0  0
 17 33  1  0  0  0  0
 18 20  2  0  0  0  0
 18 34  1  0  0  0  0
 19 48  1  0  0  0  0
 20 35  1  0  0  0  0
 21 85  1  0  0  0  0
 22 86  1  0  0  0  0
 23 25  2  0  0  0  0
 23 85  1  0  0  0  0
 24 87  1  0  0  0  0
 25 88  1  0  0  0  0
 26 68  2  0  0  0  0
 27 69  1  0  0  0  0
 27 73  1  0  0  0  0
 28 74  1  0  0  0  0
 28 80  2  0  0  0  0
 29 49  1  0  0  0  0
 29 75  1  0  0  0  0
 29 81  2  0  0  0  0
 30 63  1  0  0  0  0
 30 70  1  0  0  0  0
 30 82  2  0  0  0  0
 31 64  1  0  0  0  0
 31 76  1  0  0  0  0
 31 83  2  0  0  0  0
 32 71  1  0  0  0  0
 32 72  1  0  0  0  0
 32 84  2  0  0  0  0
 33 36  1  0  0  0  0
 34 49  1  0  0  0  0
 35 70  1  0  0  0  0
 36 38  1  0  0  0  0
 37 40  1  0  0  0  0
 37 44  1  0  0  0  0
 38 48  1  0  0  0  0
 39 41  1  0  0  0  0
 39 50  1  0  0  0  0
 40 51  1  0  0  0  0
 41 52  1  0  0  0  0
 42 45  1  0  0  0  0
 42 53  1  0  0  0  0
 43 46  1  0  0  0  0
 43 53  1  0  0  0  0
 44 71  1  0  0  0  0
 45 72  1  0  0  0  0
 46 72  1  0  0  0  0
 47 51  1  0  0  0  0
 47 71  1  0  0  0  0
 48 75  1  0  0  0  0
 49 70  1  0  0  0  0
 50 52  1  0  0  0  0
 50 65  1  0  0  0  0
 51 69  1  0  0  0  0
 52 77  1  0  0  0  0
 53 77  1  0  0  0  0
 54 64  1  0  0  0  0
 55 66  1  0  0  0  0
 56 66  1  0  0  0  0
 57 67  1  0  0  0  0
 58 67  1  0  0  0  0
 59 67  1  0  0  0  0
 60 78  1  0  0  0  0
 61 66  1  0  0  0  0
 61 79  1  0  0  0  0
 62 65  1  0  0  0  0
 62 86  1  0  0  0  0
 63 67  1  0  0  0  0
 63 76  1  0  0  0  0
 64 78  1  0  0  0  0
 65 79  1  0  0  0  0
 68 69  1  0  0  0  0
M  CHG  3  77   1  78   1  79   1
M  ISO  4  32 100  62 101  72 100  86 101
M  END
> <Batch ID>
0132

> <Smiles>
CNC(C)C(=O)NC(C(=O)N1Cc2cc([101O:1][101CH2:1]C(NCC(C)C)C3CCC3NC3CC[100N:0]([100C:0](=O)N4CCCC(n5nc(-c6ccc(Oc7ccc(F)cc7F)cc6)c(C(N)=O)c5N)C4)CC3)ccc2CC1C(=O)NC1CCCc2ccccc21)C(C)(C)C

> <Shape>
0.305

> <Color>
0.118

> <Negative vol penalty>
0.000

$$$$

  -OEChem-04052320523D

 88 97  0     1  0  0  0  0  0999 V2000
  -28.2847  -16.5645   22.4576 C   0  0  0  0  0  0  0  0  0  0  0  0
  -27.7093  -17.6988   23.0213 C   0  0  0  0  0  0  0  0  0  0  0  0
  -23.5895  -13.3253   22.0786 C   0  0  0  0  0  0  0  0  0  0  0  0
  -24.8252  -15.1955   21.1773 C   0  0  0  0  0  0  0  0  0  0  0  0
  -29.5342  -16.6492   21.8449 C   0  0  0  0  0  0  0  0  0  0  0  0
  -28.3837  -18.9184   22.9734 C   0  0  0  0  0  0  0  0  0  0  0  0
  -25.3592  -22.7604   21.6557 C   0  0  0  0  0  0  0  0  0  0  0  0
  -24.4258  -12.4431   21.3946 C   0  0  0  0  0  0  0  0  0  0  0  0
  -25.6615  -14.3133   20.4933 C   0  0  0  0  0  0  0  0  0  0  0  0
  -24.5160  -23.2736   22.6403 C   0  0  0  0  0  0  0  0  0  0  0  0
  -28.3060  -12.3331   21.2047 C   0  0  0  0  0  0  0  0  0  0  0  0
  -29.6787  -12.5765   21.2507 C   0  0  0  0  0  0  0  0  0  0  0  0
  -26.0558  -25.0951   23.0012 C   0  0  0  0  0  0  0  0  0  0  0  0
  -19.6398  -25.8069   22.0053 C   0  0  0  0  0  0  0  0  0  0  0  0
  -20.7627  -25.4016   24.1057 C   0  0  0  0  0  0  0  0  0  0  0  0
  -29.7217  -12.7886   18.8444 C   0  0  0  0  0  0  0  0  0  0  0  0
  -23.7891  -14.7016   21.9699 C   0  0  0  0  0  0  0  0  0  0  0  0
  -22.7262  -15.6910   24.0673 C   0  0  0  0  0  0  0  0  0  0  0  0
  -30.2199  -17.8725   21.7810 C   0  0  0  0  0  0  0  0  0  0  0  0
  -26.5644  -23.4059   21.3435 C   0  0  0  0  0  0  0  0  0  0  0  0
  -29.6442  -19.0193   22.3605 C   0  0  0  0  0  0  0  0  0  0  0  0
  -26.9113  -24.5895   22.0104 C   0  0  0  0  0  0  0  0  0  0  0  0
  -19.7784  -25.0631   23.1771 C   0  0  0  0  0  0  0  0  0  0  0  0
  -20.4855  -26.8891   21.7620 C   0  0  0  0  0  0  0  0  0  0  0  0
  -21.6084  -26.4839   23.8624 C   0  0  0  0  0  0  0  0  0  0  0  0
  -21.4697  -27.2276   22.6905 C   0  0  0  0  0  0  0  0  0  0  0  0
  -25.4618  -12.9371   20.6020 C   0  0  0  0  0  0  0  0  0  0  0  0
  -24.8656  -24.4395   23.3152 C   0  0  0  0  0  0  0  0  0  0  0  0
  -27.6412  -12.3174   19.9785 C   0  0  0  0  0  0  0  0  0  0  0  0
  -30.3865  -12.8042   20.0706 C   0  0  0  0  0  0  0  0  0  0  0  0
  -28.3490  -12.5452   18.7984 C   0  0  0  0  0  0  0  0  0  0  0  0
  -22.9252  -15.6134   22.6758 C   0  0  0  0  0  0  0  0  0  0  0  0
  -21.8199  -16.7103   24.2282 C   0  0  0  0  0  0  0  0  0  0  0  0
  -23.3086  -14.9113   25.1202 C   0  0  0  0  0  0  0  0  0  0  0  0
  -29.6383  -22.6099   21.4883 C   0  0  0  0  0  0  0  0  0  0  0  0
  -30.0459  -25.4635   20.0006 C   0  0  0  0  0  0  0  0  0  0  0  0
  -28.8323  -28.5828   19.3342 C   0  0  0  0  0  0  0  0  0  0  0  0
  -20.1194  -21.7866   23.0939 C   0  0  0  0  0  0  0  0  0  0  0  0
  -31.5894  -17.9049   21.1500 C   0  0  0  0  0  0  0  0  0  0  0  0
  -27.4501  -22.8543   20.2602 C   0  0  0  0  0  0  0  0  0  0  0  0
  -28.1843  -25.3316   21.6984 C   0  0  0  0  0  0  0  0  0  0  0  0
  -32.0708  -19.3134   20.8113 C   0  0  0  0  0  0  0  0  0  0  0  0
  -19.0130  -19.1906   20.8281 C   0  0  0  0  0  0  0  0  0  0  0  0
  -31.8289  -20.2569   21.9852 C   0  0  0  0  0  0  0  0  0  0  0  0
  -19.9245  -18.0290   21.2281 C   0  0  0  0  0  0  0  0  0  0  0  0
  -20.7822  -31.5649   23.4474 C   0  0  0  0  0  0  0  0  0  0  0  0
  -19.7555  -20.5222   20.8890 C   0  0  0  0  0  0  0  0  0  0  0  0
  -21.2939  -19.6586   22.6097 C   0  0  0  0  0  0  0  0  0  0  0  0
  -20.8006  -30.0494   23.4795 C   0  0  0  0  0  0  0  0  0  0  0  0
  -22.5407  -30.8757   21.9642 C   0  0  0  0  0  0  0  0  0  0  0  0
  -30.3335  -20.3654   22.3068 C   0  0  1  0  0  0  0  0  0  0  0  0
  -28.9003  -23.3116   20.3835 C   0  0  1  0  0  0  0  0  0  0  0  0
  -20.5956  -18.2867   22.5902 C   0  0  2  0  0  0  0  0  0  0  0  0
  -22.1976  -31.9125   23.0223 C   0  0  2  0  0  0  0  0  0  0  0  0
  -20.3154  -27.6701   20.4999 C   0  0  0  0  0  0  0  0  0  0  0  0
  -29.4074  -30.7024   18.1202 C   0  0  0  0  0  0  0  0  0  0  0  0
  -32.0127  -26.1955   22.2155 C   0  0  0  0  0  0  0  0  0  0  0  0
  -31.8175  -28.5876   21.5026 C   0  0  0  0  0  0  0  0  0  0  0  0
  -32.7232  -26.8860   19.9192 C   0  0  0  0  0  0  0  0  0  0  0  0
  -26.4599  -28.3580   17.5791 C   0  0  0  0  0  0  0  0  0  0  0  0
  -22.6652  -26.8294   24.8832 C   0  0  0  0  0  0  0  0  0  0  0  0
  -18.8747  -23.9056   23.4369 C   0  0  0  0  0  0  0  0  0  0  0  0
  -22.3760  -28.3884   22.4296 C   0  0  0  0  0  0  0  0  0  0  0  0
  -24.0529  -26.3568   24.4638 C   0  0  0  0  0  0  0  0  0  1  0  0
  -30.2529  -26.8873   20.4575 C   0  0  1  0  0  0  0  0  0  0  0  0
  -28.7034  -29.3571   18.0349 C   0  0  2  0  0  0  0  0  0  0  0  0
  -31.6785  -27.1243   21.0312 C   0  0  0  0  0  0  0  0  0  0  0  0
  -22.2033  -16.5118   22.0008 N   0  0  0  0  0  0  0  0  0  0  0  0
  -21.5417  -17.1635   22.9723 N   0  0  0  0  0  0  0  0  0  0  0  0
  -29.0201  -24.7490   20.6357 N   0  0  0  0  0  0  0  0  0  0  0  0
  -20.3550  -20.7147   22.2170 N   0  0  0  0  0  0  0  0  0  0  0  0
  -21.2416  -17.2542   25.3201 N   0  0  0  0  0  0  0  0  0  0  0  0
  -24.5052  -15.3570   25.6981 N   0  0  0  0  0  0  0  0  0  0  0  0
  -29.6739  -21.2348   21.3563 N   0  0  0  0  0  0  0  0  0  0  0  0
  -29.9191  -27.7344   19.3176 N   0  0  0  0  0  0  0  0  0  0  0  0
  -19.2225  -22.7476   22.6437 N   0  0  0  0  0  0  0  0  0  0  0  0
  -21.6462  -29.6847   22.2800 N   0  3  1  0  0  0  0  0  0  0  0  0
  -27.2677  -29.5974   17.7154 N   0  3  0  0  0  0  0  0  0  0  0  0
  -22.7922  -13.8423   25.5251 O   0  0  0  0  0  0  0  0  0  0  0  0
  -30.1397  -23.2674   22.3927 O   0  0  0  0  0  0  0  0  0  0  0  0
  -30.7629  -25.0044   19.1080 O   0  0  0  0  0  0  0  0  0  0  0  0
  -28.0494  -28.7197   20.2717 O   0  0  0  0  0  0  0  0  0  0  0  0
  -20.6643  -21.8780   24.1992 O   0  0  0  0  0  0  0  0  0  0  0  0
  -23.0927  -31.7699   24.1203 O   0  0  0  0  0  0  0  0  0  0  0  0
  -26.2782  -12.0765   19.9345 O   0  0  0  0  0  0  0  0  0  0  0  0
  -24.0446  -24.9421   24.2771 O   0  0  0  0  0  0  0  0  0  1  0  0
  -31.7044  -13.0394   20.1150 F   0  0  0  0  0  0  0  0  0  0  0  0
  -27.7156  -12.5326   17.6175 F   0  0  0  0  0  0  0  0  0  0  0  0
  1  2  1  0  0  0  0
  1  5  2  0  0  0  0
  2  6  2  0  0  0  0
  3  8  2  0  0  0  0
  3 17  1  0  0  0  0
  4  9  1  0  0  0  0
  4 17  2  0  0  0  0
  5 19  1  0  0  0  0
  6 21  1  0  0  0  0
  7 10  2  0  0  0  0
  7 20  1  0  0  0  0
  8 27  1  0  0  0  0
  9 27  2  0  0  0  0
 10 28  1  0  0  0  0
 11 12  2  0  0  0  0
 11 29  1  0  0  0  0
 12 30  1  0  0  0  0
 13 22  1  0  0  0  0
 13 28  2  0  0  0  0
 14 23  1  0  0  0  0
 14 24  2  0  0  0  0
 15 23  2  0  0  0  0
 15 25  1  0  0  0  0
 16 30  2  0  0  0  0
 16 31  1  0  0  0  0
 17 32  1  0  0  0  0
 18 32  1  0  0  0  0
 18 33  2  0  0  0  0
 18 34  1  0  0  0  0
 19 21  2  0  0  0  0
 19 39  1  0  0  0  0
 20 22  2  0  0  0  0
 20 40  1  0  0  0  0
 21 51  1  0  0  0  0
 22 41  1  0  0  0  0
 23 62  1  0  0  0  0
 24 26  1  0  0  0  0
 24 55  1  0  0  0  0
 25 26  2  0  0  0  0
 25 61  1  0  0  0  0
 26 63  1  0  0  0  0
 27 85  1  0  0  0  0
 28 86  1  0  0  0  0
 29 31  2  0  0  0  0
 29 85  1  0  0  0  0
 30 87  1  0  0  0  0
 31 88  1  0  0  0  0
 32 68  2  0  0  0  0
 33 69  1  0  0  0  0
 33 72  1  0  0  0  0
 34 73  1  0  0  0  0
 34 79  2  0  0  0  0
 35 52  1  0  0  0  0
 35 74  1  0  0  0  0
 35 80  2  0  0  0  0
 36 65  1  0  0  0  0
 36 70  1  0  0  0  0
 36 81  2  0  0  0  0
 37 66  1  0  0  0  0
 37 75  1  0  0  0  0
 37 82  2  0  0  0  0
 38 71  1  0  0  0  0
 38 76  1  0  0  0  0
 38 83  2  0  0  0  0
 39 42  1  0  0  0  0
 40 52  1  0  0  0  0
 41 70  1  0  0  0  0
 42 44  1  0  0  0  0
 43 45  1  0  0  0  0
 43 47  1  0  0  0  0
 44 51  1  0  0  0  0
 45 53  1  0  0  0  0
 46 49  1  0  0  0  0
 46 54  1  0  0  0  0
 47 71  1  0  0  0  0
 48 53  1  0  0  0  0
 48 71  1  0  0  0  0
 49 77  1  0  0  0  0
 50 54  1  0  0  0  0
 50 77  1  0  0  0  0
 51 74  1  0  0  0  0
 52 70  1  0  0  0  0
 53 69  1  0  0  0  0
 54 84  1  0  0  0  0
 56 66  1  0  0  0  0
 57 67  1  0  0  0  0
 58 67  1  0  0  0  0
 59 67  1  0  0  0  0
 60 78  1  0  0  0  0
 61 64  1  0  0  0  0
 62 76  1  0  0  0  0
 63 77  1  0  0  0  0
 64 86  1  0  0  0  0
 65 67  1  0  0  0  0
 65 75  1  0  0  0  0
 66 78  1  0  0  0  0
 68 69  1  0  0  0  0
M  CHG  2  77   1  78   1
M  ISO  4  38 100  64 101  76 100  86 101
M  END
> <Batch ID>
0132

> <Smiles>
CNC(C)C(=O)NC(C(=O)N1Cc2cc([101O:1][101CH2:1]Cc3cc(C[100NH:0][100C:0](=O)N4CCCC(n5nc(-c6ccc(Oc7ccc(F)cc7F)cc6)c(C(N)=O)c5N)C4)cc(C)c3CN3CCC(O)C3)ccc2CC1C(=O)NC1CCCc2ccccc21)C(C)(C)C

> <Shape>
0.216

> <Color>
0.067

> <Negative vol penalty>
0.000

$$$$

  -OEChem-04052320523D

 87 95  0     1  0  0  0  0  0999 V2000
  -38.3183  -21.6908   20.3760 C   0  0  0  0  0  0  0  0  0  0  0  0
  -37.0368  -22.2078   20.2153 C   0  0  0  0  0  0  0  0  0  0  0  0
  -23.0722   -9.8709   19.9428 C   0  0  0  0  0  0  0  0  0  0  0  0
  -23.8346   -9.8782   22.2353 C   0  0  0  0  0  0  0  0  0  0  0  0
  -38.5264  -20.5929   21.2098 C   0  0  0  0  0  0  0  0  0  0  0  0
  -35.9623  -21.6264   20.8876 C   0  0  0  0  0  0  0  0  0  0  0  0
  -31.0474  -24.4955   23.1498 C   0  0  0  0  0  0  0  0  0  0  0  0
  -22.3283   -8.7180   20.1938 C   0  0  0  0  0  0  0  0  0  0  0  0
  -23.0907   -8.7252   22.4863 C   0  0  0  0  0  0  0  0  0  0  0  0
  -29.7542  -24.6697   22.6587 C   0  0  0  0  0  0  0  0  0  0  0  0
  -19.9427   -5.9782   20.3254 C   0  0  0  0  0  0  0  0  0  0  0  0
  -18.6365   -5.9304   19.8386 C   0  0  0  0  0  0  0  0  0  0  0  0
  -29.0146  -22.7711   23.9499 C   0  0  0  0  0  0  0  0  0  0  0  0
  -18.0732   -7.8736   21.1590 C   0  0  0  0  0  0  0  0  0  0  0  0
  -23.8254  -10.4510   20.9635 C   0  0  0  0  0  0  0  0  0  0  0  0
  -24.1677  -12.9760   20.8426 C   0  0  0  0  0  0  0  0  0  0  0  0
  -37.4554  -20.0038   21.9001 C   0  0  0  0  0  0  0  0  0  0  0  0
  -31.3366  -23.4494   24.0377 C   0  0  0  0  0  0  0  0  0  0  0  0
  -36.1560  -20.5187   21.7304 C   0  0  0  0  0  0  0  0  0  0  0  0
  -30.3116  -22.5874   24.4529 C   0  0  0  0  0  0  0  0  0  0  0  0
  -22.3376   -8.1451   21.4656 C   0  0  0  0  0  0  0  0  0  0  0  0
  -28.7382  -23.8057   23.0565 C   0  0  0  0  0  0  0  0  0  0  0  0
  -20.3142   -6.9737   21.2291 C   0  0  0  0  0  0  0  0  0  0  0  0
  -17.7017   -6.8781   20.2553 C   0  0  0  0  0  0  0  0  0  0  0  0
  -19.3795   -7.9214   21.6459 C   0  0  0  0  0  0  0  0  0  0  0  0
  -24.5945  -11.6416   20.7047 C   0  0  0  0  0  0  0  0  0  0  0  0
  -25.2596  -13.7252   20.4779 C   0  0  0  0  0  0  0  0  0  0  0  0
  -22.8978  -13.4922   21.2628 C   0  0  0  0  0  0  0  0  0  0  0  0
  -33.2334  -20.8999   23.9587 C   0  0  0  0  0  0  0  0  0  0  0  0
  -32.2847  -20.5826   27.0444 C   0  0  0  0  0  0  0  0  0  0  0  0
  -29.9427  -21.2411   29.4378 C   0  0  0  0  0  0  0  0  0  0  0  0
  -30.7438  -14.7430   20.6600 C   0  0  0  0  0  0  0  0  0  0  0  0
  -37.7221  -18.7891   22.7534 C   0  0  0  0  0  0  0  0  0  0  0  0
  -32.7310  -23.2913   24.5792 C   0  0  0  0  0  0  0  0  0  0  0  0
  -30.5657  -21.4611   25.4200 C   0  0  0  0  0  0  0  0  0  0  0  0
  -36.5881  -18.4645   23.7224 C   0  0  0  0  0  0  0  0  0  0  0  0
  -29.6030  -12.3583   18.2749 C   0  0  0  0  0  0  0  0  0  0  0  0
  -35.2418  -18.5242   23.0078 C   0  0  0  0  0  0  0  0  0  0  0  0
  -28.1659  -12.0650   18.7095 C   0  0  0  0  0  0  0  0  0  0  0  0
  -25.1757  -20.8266   19.1134 C   0  0  0  0  0  0  0  0  0  0  0  0
  -30.5215  -12.5792   19.4748 C   0  0  0  0  0  0  0  0  0  0  0  0
  -28.6214  -13.3109   20.8633 C   0  0  0  0  0  0  0  0  0  0  0  0
  -24.9545  -21.7291   20.3186 C   0  0  0  0  0  0  0  0  0  0  0  0
  -27.2034  -22.0163   19.4021 C   0  0  0  0  0  0  0  0  0  0  0  0
  -34.9688  -19.9310   22.4620 C   0  0  1  0  0  0  0  0  0  0  0  0
  -33.0215  -21.8793   25.0784 C   0  0  1  0  0  0  0  0  0  0  0  0
  -27.6459  -13.1363   19.6868 C   0  0  2  0  0  0  0  0  0  0  0  0
  -26.6915  -20.6228   19.0376 C   0  0  1  0  0  0  0  0  0  0  0  0
  -29.4253  -20.8185   31.8567 C   0  0  0  0  0  0  0  0  0  0  0  0
  -25.5464  -18.2284   17.4964 C   0  0  0  0  0  0  0  0  0  0  0  0
  -27.5140  -18.3899   15.9583 C   0  0  0  0  0  0  0  0  0  0  0  0
  -31.4627  -17.7235   26.3667 C   0  0  0  0  0  0  0  0  0  0  0  0
  -30.1209  -17.6823   28.4800 C   0  0  0  0  0  0  0  0  0  0  0  0
  -32.5947  -17.9863   28.5811 C   0  0  0  0  0  0  0  0  0  0  0  0
  -29.9711  -24.1324   30.0689 C   0  0  0  0  0  0  0  0  0  0  0  0
  -27.1660  -19.5636   20.0463 C   0  0  0  0  0  0  0  0  0  0  0  0
  -27.1368  -20.2153   17.6319 C   0  0  0  0  0  0  0  0  0  0  0  0
  -30.8115  -16.8938   21.8964 C   0  0  0  0  0  0  0  0  0  0  0  0
  -26.1209  -23.9583   20.5911 C   0  0  0  0  0  0  0  0  0  0  0  0
  -28.6705  -19.4058   19.9842 C   0  0  0  0  0  0  0  0  0  0  0  0
  -30.5286  -18.0368   20.9394 C   0  0  0  0  0  0  0  0  0  0  0  0
  -27.3442  -24.5374   21.2740 C   0  0  0  0  0  0  0  0  0  1  0  0
  -31.1461  -19.8827   27.7463 C   0  0  1  0  0  0  0  0  0  0  0  0
  -30.0722  -21.7644   30.8569 C   0  0  2  0  0  0  0  0  0  0  0  0
  -26.9913  -18.7109   17.3605 C   0  0  0  0  0  0  0  0  0  0  0  0
  -31.3264  -18.3387   27.7738 C   0  0  0  0  0  0  0  0  0  0  0  0
  -25.8588  -11.5454   20.2850 N   0  0  0  0  0  0  0  0  0  0  0  0
  -26.2359  -12.8289   20.1560 N   0  0  0  0  0  0  0  0  0  0  0  0
  -31.9468  -21.3437   25.9165 N   0  0  0  0  0  0  0  0  0  0  0  0
  -29.9721  -13.6080   20.3611 N   0  0  0  0  0  0  0  0  0  0  0  0
  -25.4702  -15.0566   20.4044 N   0  0  0  0  0  0  0  0  0  0  0  0
  -21.8860  -12.5833   21.6014 N   0  0  0  0  0  0  0  0  0  0  0  0
  -34.5434  -20.8129   23.5277 N   0  0  0  0  0  0  0  0  0  0  0  0
  -31.0415  -20.4957   29.0660 N   0  0  0  0  0  0  0  0  0  0  0  0
  -30.1458  -15.6722   21.5025 N   0  0  0  0  0  0  0  0  0  0  0  0
  -26.2638  -22.4729   20.4992 N   0  3  1  0  0  0  0  0  0  0  0  0
  -29.4171  -23.0974   30.9792 N   0  3  0  0  0  0  0  0  0  0  0  0
  -29.0713  -18.3414   20.9353 N   0  3  0  0  0  0  0  0  0  0  0  0
  -22.6619  -14.7229   21.3202 O   0  0  0  0  0  0  0  0  0  0  0  0
  -32.2792  -20.2689   23.5194 O   0  0  0  0  0  0  0  0  0  0  0  0
  -33.4308  -20.4644   27.4851 O   0  0  0  0  0  0  0  0  0  0  0  0
  -28.9629  -21.4675   28.7311 O   0  0  0  0  0  0  0  0  0  0  0  0
  -31.8792  -14.9182   20.2050 O   0  0  0  0  0  0  0  0  0  0  0  0
  -21.6117   -7.0203   21.7109 O   0  0  0  0  0  0  0  0  0  0  0  0
  -27.4753  -23.9731   22.5781 O   0  0  0  0  0  0  0  0  0  1  0  0
  -16.4478   -6.8330   19.7866 F   0  0  0  0  0  0  0  0  0  0  0  0
  -19.7308   -8.8809   22.5130 F   0  0  0  0  0  0  0  0  0  0  0  0
  1  2  1  0  0  0  0
  1  5  2  0  0  0  0
  2  6  2  0  0  0  0
  3  8  2  0  0  0  0
  3 15  1  0  0  0  0
  4  9  1  0  0  0  0
  4 15  2  0  0  0  0
  5 17  1  0  0  0  0
  6 19  1  0  0  0  0
  7 10  2  0  0  0  0
  7 18  1  0  0  0  0
  8 21  1  0  0  0  0
  9 21  2  0  0  0  0
 10 22  1  0  0  0  0
 11 12  2  0  0  0  0
 11 23  1  0  0  0  0
 12 24  1  0  0  0  0
 13 20  1  0  0  0  0
 13 22  2  0  0  0  0
 14 24  2  0  0  0  0
 14 25  1  0  0  0  0
 15 26  1  0  0  0  0
 16 26  1  0  0  0  0
 16 27  2  0  0  0  0
 16 28  1  0  0  0  0
 17 19  2  0  0  0  0
 17 33  1  0  0  0  0
 18 20  2  0  0  0  0
 18 34  1  0  0  0  0
 19 45  1  0  0  0  0
 20 35  1  0  0  0  0
 21 84  1  0  0  0  0
 22 85  1  0  0  0  0
 23 25  2  0  0  0  0
 23 84  1  0  0  0  0
 24 86  1  0  0  0  0
 25 87  1  0  0  0  0
 26 67  2  0  0  0  0
 27 68  1  0  0  0  0
 27 71  1  0  0  0  0
 28 72  1  0  0  0  0
 28 79  2  0  0  0  0
 29 46  1  0  0  0  0
 29 73  1  0  0  0  0
 29 80  2  0  0  0  0
 30 63  1  0  0  0  0
 30 69  1  0  0  0  0
 30 81  2  0  0  0  0
 31 64  1  0  0  0  0
 31 74  1  0  0  0  0
 31 82  2  0  0  0  0
 32 70  1  0  0  0  0
 32 75  1  0  0  0  0
 32 83  2  0  0  0  0
 33 36  1  0  0  0  0
 34 46  1  0  0  0  0
 35 69  1  0  0  0  0
 36 38  1  0  0  0  0
 37 39  1  0  0  0  0
 37 41  1  0  0  0  0
 38 45  1  0  0  0  0
 39 47  1  0  0  0  0
 40 43  1  0  0  0  0
 40 48  1  0  0  0  0
 41 70  1  0  0  0  0
 42 47  1  0  0  0  0
 42 70  1  0  0  0  0
 43 76  1  0  0  0  0
 44 48  1  0  0  0  0
 44 76  1  0  0  0  0
 45 73  1  0  0  0  0
 46 69  1  0  0  0  0
 47 68  1  0  0  0  0
 48 56  1  0  0  0  0
 48 57  1  0  0  0  0
 49 64  1  0  0  0  0
 50 65  1  0  0  0  0
 51 65  1  0  0  0  0
 52 66  1  0  0  0  0
 53 66  1  0  0  0  0
 54 66  1  0  0  0  0
 55 77  1  0  0  0  0
 56 60  1  0  0  0  0
 57 65  1  0  0  0  0
 58 61  1  0  0  0  0
 58 75  1  0  0  0  0
 59 62  1  0  0  0  0
 59 76  1  0  0  0  0
 60 78  1  0  0  0  0
 61 78  1  0  0  0  0
 62 85  1  0  0  0  0
 63 66  1  0  0  0  0
 63 74  1  0  0  0  0
 64 77  1  0  0  0  0
 67 68  1  0  0  0  0
M  CHG  3  76   1  77   1  78   1
M  ISO  4  32 100  62 101  75 100  85 101
M  END
> <Batch ID>
0132

> <Smiles>
CNC(C)C(=O)NC(C(=O)N1Cc2cc([101O:1][101CH2:1]CN3CCC(CCNCC[100NH:0][100C:0](=O)N4CCCC(n5nc(-c6ccc(Oc7ccc(F)cc7F)cc6)c(C(N)=O)c5N)C4)(CC(C)C)C3)ccc2CC1C(=O)NC1CCCc2ccccc21)C(C)(C)C

> <Shape>
0.171

> <Color>
0.180

> <Negative vol penalty>
0.000

$$$$

  -OEChem-04052320523D

 89 99  0     1  0  0  0  0  0999 V2000
  -17.7998  -30.5337   25.4253 C   0  0  0  0  0  0  0  0  0  0  0  0
  -17.7132  -29.5318   24.4640 C   0  0  0  0  0  0  0  0  0  0  0  0
  -23.3504   -9.7030   19.9474 C   0  0  0  0  0  0  0  0  0  0  0  0
  -23.6273  -10.0163   22.3270 C   0  0  0  0  0  0  0  0  0  0  0  0
  -18.7870  -31.5129   25.3230 C   0  0  0  0  0  0  0  0  0  0  0  0
  -18.6131  -29.5094   23.3990 C   0  0  0  0  0  0  0  0  0  0  0  0
  -22.8590  -23.8043   22.2516 C   0  0  0  0  0  0  0  0  0  0  0  0
  -22.6466   -8.5223   20.1848 C   0  0  0  0  0  0  0  0  0  0  0  0
  -22.9235   -8.8357   22.5644 C   0  0  0  0  0  0  0  0  0  0  0  0
  -23.5540  -22.6665   21.8414 C   0  0  0  0  0  0  0  0  0  0  0  0
  -23.5332   -5.5113   22.4772 C   0  0  0  0  0  0  0  0  0  0  0  0
  -24.0546   -4.6242   23.4188 C   0  0  0  0  0  0  0  0  0  0  0  0
  -24.5384  -23.9122   20.0173 C   0  0  0  0  0  0  0  0  0  0  0  0
  -22.0349   -4.8278   24.7290 C   0  0  0  0  0  0  0  0  0  0  0  0
  -23.8408  -10.4499   21.0185 C   0  0  0  0  0  0  0  0  0  0  0  0
  -24.0377  -12.9686   20.6648 C   0  0  0  0  0  0  0  0  0  0  0  0
  -19.7055  -31.4969   24.2615 C   0  0  0  0  0  0  0  0  0  0  0  0
  -23.0131  -25.0059   21.5545 C   0  0  0  0  0  0  0  0  0  0  0  0
  -19.6126  -30.4901   23.2816 C   0  0  0  0  0  0  0  0  0  0  0  0
  -23.8544  -25.0585   20.4310 C   0  0  0  0  0  0  0  0  0  0  0  0
  -22.4331   -8.0887   21.4932 C   0  0  0  0  0  0  0  0  0  0  0  0
  -24.3914  -22.7203   20.7268 C   0  0  0  0  0  0  0  0  0  0  0  0
  -22.2627   -6.0568   22.6614 C   0  0  0  0  0  0  0  0  0  0  0  0
  -23.3054   -4.2824   24.5447 C   0  0  0  0  0  0  0  0  0  0  0  0
  -21.5135   -5.7150   23.7873 C   0  0  0  0  0  0  0  0  0  0  0  0
  -24.5684  -11.6693   20.7740 C   0  0  0  0  0  0  0  0  0  0  0  0
  -25.1306  -13.7676   20.4333 C   0  0  0  0  0  0  0  0  0  0  0  0
  -22.6783  -13.4135   20.7640 C   0  0  0  0  0  0  0  0  0  0  0  0
  -28.3162  -16.3972   22.9361 C   0  0  0  0  0  0  0  0  0  0  0  0
  -22.0901  -28.6310   21.2671 C   0  0  0  0  0  0  0  0  0  0  0  0
  -25.0903  -28.4247   20.6615 C   0  0  0  0  0  0  0  0  0  0  0  0
  -28.4432  -27.8251   20.4713 C   0  0  0  0  0  0  0  0  0  0  0  0
  -30.9512  -13.1854   21.7111 C   0  0  0  0  0  0  0  0  0  0  0  0
  -20.7255  -32.6039   24.1674 C   0  0  0  0  0  0  0  0  0  0  0  0
  -22.2366  -26.2407   21.9238 C   0  0  0  0  0  0  0  0  0  0  0  0
  -23.9627  -26.3638   19.6911 C   0  0  0  0  0  0  0  0  0  0  0  0
  -21.8751  -32.2932   23.2124 C   0  0  0  0  0  0  0  0  0  0  0  0
  -29.5029  -13.6615   18.4936 C   0  0  0  0  0  0  0  0  0  0  0  0
  -21.3408  -31.7330   21.8980 C   0  0  0  0  0  0  0  0  0  0  0  0
  -28.0262  -13.3222   18.7033 C   0  0  0  0  0  0  0  0  0  0  0  0
  -27.4188  -19.5095   22.3868 C   0  0  0  0  0  0  0  0  0  0  0  0
  -25.2424  -18.2597   22.0577 C   0  0  0  0  0  0  0  0  0  0  0  0
  -26.9554  -20.5702   21.3919 C   0  0  0  0  0  0  0  0  0  0  0  0
  -24.7853  -19.3249   21.0645 C   0  0  0  0  0  0  0  0  0  0  0  0
  -31.4166  -14.5378   26.4760 C   0  0  0  0  0  0  0  0  0  0  0  0
  -28.5935  -16.0016   25.4571 C   0  0  0  0  0  0  0  0  0  0  0  0
  -30.4125  -12.7644   19.3302 C   0  0  0  0  0  0  0  0  0  0  0  0
  -28.6198  -12.3936   20.9802 C   0  0  0  0  0  0  0  0  0  0  0  0
  -32.1656  -13.3015   26.9438 C   0  0  0  0  0  0  0  0  0  0  0  0
  -32.0933  -12.3529   24.6318 C   0  0  0  0  0  0  0  0  0  0  0  0
  -20.5860  -30.4177   22.1252 C   0  0  1  0  0  0  0  0  0  0  0  0
  -28.5493  -15.4514   24.0672 C   0  0  2  0  0  0  0  0  0  0  0  0
  -23.0278  -27.5414   21.6970 C   0  0  1  0  0  0  0  0  0  0  0  0
  -30.5184  -14.2482   25.2593 C   0  0  1  0  0  0  0  0  0  0  0  0
  -29.8545  -15.5229   24.7954 C   0  0  2  0  0  0  0  0  0  0  0  0
  -27.6609  -13.3090   20.1999 C   0  0  2  0  0  0  0  0  0  0  0  0
  -26.7690  -18.1530   22.0986 C   0  0  0  0  0  0  0  0  0  0  0  0
  -31.3339  -13.5780   24.1316 C   0  0  2  0  0  0  0  0  0  0  0  0
  -25.4329  -20.6785   21.3509 C   0  0  0  0  0  0  0  0  0  1  0  0
  -30.6338  -28.9886   20.0908 C   0  0  0  0  0  0  0  0  0  0  0  0
  -24.4780  -28.5939   17.6782 C   0  0  0  0  0  0  0  0  0  0  0  0
  -26.9344  -28.8374   17.2600 C   0  0  0  0  0  0  0  0  0  0  0  0
  -25.7229  -30.5568   18.6010 C   0  0  0  0  0  0  0  0  0  0  0  0
  -29.4540  -27.0444   23.1411 C   0  0  0  0  0  0  0  0  0  0  0  0
  -26.1616  -28.2807   19.6103 C   0  0  1  0  0  0  0  0  0  0  0  0
  -29.6281  -28.5111   21.1268 C   0  0  2  0  0  0  0  0  0  0  0  0
  -25.8141  -29.0447   18.3015 C   0  0  0  0  0  0  0  0  0  0  0  0
  -25.8953  -11.6401   20.6239 N   0  0  0  0  0  0  0  0  0  0  0  0
  -26.2075  -12.9309   20.4180 N   0  0  0  0  0  0  0  0  0  0  0  0
  -24.0596  -27.4771   20.6481 N   0  0  0  0  0  0  0  0  0  0  0  0
  -30.0138  -12.7980   20.7394 N   0  0  0  0  0  0  0  0  0  0  0  0
  -25.2658  -15.0973   20.2432 N   0  0  0  0  0  0  0  0  0  0  0  0
  -21.6793  -12.4606   21.0050 N   0  0  0  0  0  0  0  0  0  0  0  0
  -21.5177  -29.3266   22.3149 N   0  0  0  0  0  0  0  0  0  0  0  0
  -27.1803  -17.1731   23.0747 N   0  0  0  0  0  0  0  0  0  0  0  0
  -27.4084  -28.7059   20.2373 N   0  0  0  0  0  0  0  0  0  0  0  0
  -30.4895  -13.1961   23.0217 N   0  0  0  0  0  0  0  0  0  0  0  0
  -32.9382  -12.7370   25.8006 N   0  3  0  0  0  0  0  0  0  0  0  0
  -30.3200  -27.5740   22.0564 N   0  3  0  0  0  0  0  0  0  0  0  0
  -22.3571  -14.6183   20.6261 O   0  0  0  0  0  0  0  0  0  0  0  0
  -29.1077  -16.4276   22.0011 O   0  0  0  0  0  0  0  0  0  0  0  0
  -21.9003  -28.8283   20.0726 O   0  0  0  0  0  0  0  0  0  0  0  0
  -25.1599  -29.3544   21.4702 O   0  0  0  0  0  0  0  0  0  0  0  0
  -28.4376  -26.6284   20.1913 O   0  0  0  0  0  0  0  0  0  0  0  0
  -32.1119  -13.5036   21.4310 O   0  0  0  0  0  0  0  0  0  0  0  0
  -21.7462   -6.9368   21.7252 O   0  0  0  0  0  0  0  0  0  0  0  0
  -25.0705  -21.6068   20.3345 O   0  0  0  0  0  0  0  0  0  1  0  0
  -23.8056   -3.4293   25.4481 F   0  0  0  0  0  0  0  0  0  0  0  0
  -20.2919   -6.2349   23.9691 F   0  0  0  0  0  0  0  0  0  0  0  0
  1  2  1  0  0  0  0
  1  5  2  0  0  0  0
  2  6  2  0  0  0  0
  3  8  2  0  0  0  0
  3 15  1  0  0  0  0
  4  9  1  0  0  0  0
  4 15  2  0  0  0  0
  5 17  1  0  0  0  0
  6 19  1  0  0  0  0
  7 10  2  0  0  0  0
  7 18  1  0  0  0  0
  8 21  1  0  0  0  0
  9 21  2  0  0  0  0
 10 22  1  0  0  0  0
 11 12  2  0  0  0  0
 11 23  1  0  0  0  0
 12 24  1  0  0  0  0
 13 20  1  0  0  0  0
 13 22  2  0  0  0  0
 14 24  2  0  0  0  0
 14 25  1  0  0  0  0
 15 26  1  0  0  0  0
 16 26  1  0  0  0  0
 16 27  2  0  0  0  0
 16 28  1  0  0  0  0
 17 19  2  0  0  0  0
 17 34  1  0  0  0  0
 18 20  2  0  0  0  0
 18 35  1  0  0  0  0
 19 51  1  0  0  0  0
 20 36  1  0  0  0  0
 21 86  1  0  0  0  0
 22 87  1  0  0  0  0
 23 25  2  0  0  0  0
 23 86  1  0  0  0  0
 24 88  1  0  0  0  0
 25 89  1  0  0  0  0
 26 68  2  0  0  0  0
 27 69  1  0  0  0  0
 27 72  1  0  0  0  0
 28 73  1  0  0  0  0
 28 80  2  0  0  0  0
 29 52  1  0  0  0  0
 29 75  1  0  0  0  0
 29 81  2  0  0  0  0
 30 53  1  0  0  0  0
 30 74  1  0  0  0  0
 30 82  2  0  0  0  0
 31 65  1  0  0  0  0
 31 70  1  0  0  0  0
 31 83  2  0  0  0  0
 32 66  1  0  0  0  0
 32 76  1  0  0  0  0
 32 84  2  0  0  0  0
 33 71  1  0  0  0  0
 33 77  1  0  0  0  0
 33 85  2  0  0  0  0
 34 37  1  0  0  0  0
 35 53  1  0  0  0  0
 36 70  1  0  0  0  0
 37 39  1  0  0  0  0
 38 40  1  0  0  0  0
 38 47  1  0  0  0  0
 39 51  1  0  0  0  0
 40 56  1  0  0  0  0
 41 43  1  0  0  0  0
 41 57  1  0  0  0  0
 42 44  1  0  0  0  0
 42 57  1  0  0  0  0
 43 59  1  0  0  0  0
 44 59  1  0  0  0  0
 45 49  1  0  0  0  0
 45 54  1  0  0  0  0
 46 52  1  0  0  0  0
 46 55  1  0  0  0  0
 47 71  1  0  0  0  0
 48 56  1  0  0  0  0
 48 71  1  0  0  0  0
 49 78  1  0  0  0  0
 50 58  1  0  0  0  0
 50 78  1  0  0  0  0
 51 74  1  0  0  0  0
 52 55  1  0  0  0  0
 53 70  1  0  0  0  0
 54 55  1  0  0  0  0
 54 58  1  0  0  0  0
 56 69  1  0  0  0  0
 57 75  1  0  0  0  0
 58 77  1  0  0  0  0
 59 87  1  0  0  0  0
 60 66  1  0  0  0  0
 61 67  1  0  0  0  0
 62 67  1  0  0  0  0
 63 67  1  0  0  0  0
 64 79  1  0  0  0  0
 65 67  1  0  0  0  0
 65 76  1  0  0  0  0
 66 79  1  0  0  0  0
 68 69  1  0  0  0  0
M  CHG  2  78   1  79   1
M  ISO  4  33 100  59 101  77 100  87 101
M  END
> <Batch ID>
0132

> <Smiles>
CNC(C)C(=O)NC(C(=O)N1Cc2cc([101O:1][101CH:1]3CCC(NC(=O)C4CC4C4CCNCC4[100NH:0][100C:0](=O)N4CCCC(n5nc(-c6ccc(Oc7ccc(F)cc7F)cc6)c(C(N)=O)c5N)C4)CC3)ccc2CC1C(=O)NC1CCCc2ccccc21)C(C)(C)C

> <Shape>
0.257

> <Color>
0.211

> <Negative vol penalty>
0.000

$$$$

  -OEChem-04052320523D

 83 91  0     1  0  0  0  0  0999 V2000
  -19.3816  -29.5798   23.4021 C   0  0  0  0  0  0  0  0  0  0  0  0
  -19.6001  -28.3071   22.8845 C   0  0  0  0  0  0  0  0  0  0  0  0
  -22.9964   -9.9308   20.0171 C   0  0  0  0  0  0  0  0  0  0  0  0
  -23.7172  -10.0271   22.3211 C   0  0  0  0  0  0  0  0  0  0  0  0
  -20.2050  -30.6377   23.0192 C   0  0  0  0  0  0  0  0  0  0  0  0
  -20.6417  -28.0918   21.9827 C   0  0  0  0  0  0  0  0  0  0  0  0
  -24.0963  -23.0599   21.4814 C   0  0  0  0  0  0  0  0  0  0  0  0
  -22.2205   -8.8084   20.3068 C   0  0  0  0  0  0  0  0  0  0  0  0
  -22.9413   -8.9047   22.6107 C   0  0  0  0  0  0  0  0  0  0  0  0
  -24.0421  -21.9671   20.6173 C   0  0  0  0  0  0  0  0  0  0  0  0
  -23.1606   -5.5544   22.2133 C   0  0  0  0  0  0  0  0  0  0  0  0
  -23.7387   -4.5496   22.9890 C   0  0  0  0  0  0  0  0  0  0  0  0
  -25.6854  -23.0164   19.1969 C   0  0  0  0  0  0  0  0  0  0  0  0
  -27.2133  -19.1554   20.9869 C   0  0  0  0  0  0  0  0  0  0  0  0
  -22.0133   -4.8428   24.6546 C   0  0  0  0  0  0  0  0  0  0  0  0
  -23.7448  -10.5401   21.0243 C   0  0  0  0  0  0  0  0  0  0  0  0
  -24.1501  -13.0481   20.7935 C   0  0  0  0  0  0  0  0  0  0  0  0
  -21.2632  -30.4333   22.1197 C   0  0  0  0  0  0  0  0  0  0  0  0
  -24.9389  -24.1458   21.2036 C   0  0  0  0  0  0  0  0  0  0  0  0
  -21.4793  -29.1483   21.5864 C   0  0  0  0  0  0  0  0  0  0  0  0
  -25.7504  -24.1206   20.0604 C   0  0  0  0  0  0  0  0  0  0  0  0
  -27.1716  -18.4079   19.7841 C   0  0  0  0  0  0  0  0  0  0  0  0
  -22.1930   -8.2954   21.6036 C   0  0  0  0  0  0  0  0  0  0  0  0
  -24.8345  -21.9465   19.4733 C   0  0  0  0  0  0  0  0  0  0  0  0
  -22.0089   -6.2035   22.6583 C   0  0  0  0  0  0  0  0  0  0  0  0
  -23.1651   -4.1938   24.2097 C   0  0  0  0  0  0  0  0  0  0  0  0
  -21.4353   -5.8477   23.8789 C   0  0  0  0  0  0  0  0  0  0  0  0
  -24.5469  -11.6992   20.7255 C   0  0  0  0  0  0  0  0  0  0  0  0
  -28.4969  -19.0710   21.4794 C   0  0  0  0  0  0  0  0  0  0  0  0
  -28.4310  -17.8894   19.5783 C   0  0  0  0  0  0  0  0  0  0  0  0
  -25.2662  -13.7539   20.4157 C   0  0  0  0  0  0  0  0  0  0  0  0
  -22.8856  -13.6128   21.1651 C   0  0  0  0  0  0  0  0  0  0  0  0
  -24.4941  -27.2398   20.6264 C   0  0  0  0  0  0  0  0  0  0  0  0
  -27.7356  -27.3235   20.7153 C   0  0  0  0  0  0  0  0  0  0  0  0
  -30.6875  -25.6449   20.3753 C   0  0  0  0  0  0  0  0  0  0  0  0
  -30.7691  -14.6512   20.6557 C   0  0  0  0  0  0  0  0  0  0  0  0
  -22.0973  -31.6173   21.6990 C   0  0  0  0  0  0  0  0  0  0  0  0
  -25.0057  -25.3051   22.1597 C   0  0  0  0  0  0  0  0  0  0  0  0
  -26.6869  -25.2523   19.7275 C   0  0  0  0  0  0  0  0  0  0  0  0
  -23.4118  -31.2285   21.0273 C   0  0  0  0  0  0  0  0  0  0  0  0
  -29.6144  -12.1851   18.3618 C   0  0  0  0  0  0  0  0  0  0  0  0
  -23.1764  -30.1432   19.9815 C   0  0  0  0  0  0  0  0  0  0  0  0
  -28.1631  -11.9459   18.7819 C   0  0  0  0  0  0  0  0  0  0  0  0
  -30.5161  -12.4402   19.5676 C   0  0  0  0  0  0  0  0  0  0  0  0
  -28.6095  -13.2799   20.8842 C   0  0  0  0  0  0  0  0  0  0  0  0
  -22.6143  -28.8698   20.6249 C   0  0  1  0  0  0  0  0  0  0  0  0
  -25.5188  -26.5865   21.5102 C   0  0  1  0  0  0  0  0  0  0  0  0
  -27.6515  -13.0734   19.6985 C   0  0  2  0  0  0  0  0  0  0  0  0
  -29.0832  -19.6626   22.6996 C   0  0  0  0  0  0  0  0  0  0  0  0
  -28.9438  -17.0388   18.4830 C   0  0  0  0  0  0  0  0  0  0  0  0
  -33.1715  -25.9890   20.4701 C   0  0  0  0  0  0  0  0  0  0  0  0
  -27.6512  -28.6702   17.9786 C   0  0  0  0  0  0  0  0  0  0  0  0
  -30.0809  -28.1274   17.7139 C   0  0  0  0  0  0  0  0  0  0  0  0
  -29.3340  -29.6282   19.5612 C   0  0  0  0  0  0  0  0  0  0  0  0
  -30.9854  -23.7227   22.6058 C   0  0  0  0  0  0  0  0  0  0  0  0
  -25.9663  -18.2201   18.8978 C   0  0  0  0  0  0  0  0  0  0  0  0
  -25.9981  -19.0712   17.6265 C   0  0  0  0  0  0  0  0  0  0  0  0
  -30.6286  -17.9668   20.7739 C   0  0  0  0  0  0  0  0  0  0  0  0
  -30.8664  -16.8551   21.7926 C   0  0  0  0  0  0  0  0  0  0  0  0
  -25.9717  -20.5700   17.9024 C   0  0  0  0  0  0  0  0  0  1  0  0
  -28.8378  -27.1529   19.6978 C   0  0  1  0  0  0  0  0  0  0  0  0
  -31.9265  -25.5984   21.2513 C   0  0  2  0  0  0  0  0  0  0  0  0
  -28.9570  -28.3740   18.7428 C   0  0  0  0  0  0  0  0  0  0  0  0
  -25.8160  -11.5541   20.3351 N   0  0  0  0  0  0  0  0  0  0  0  0
  -29.2282  -18.2987   20.6152 N   0  0  0  0  0  0  0  0  0  0  0  0
  -26.2262  -12.8211   20.1542 N   0  0  0  0  0  0  0  0  0  0  0  0
  -26.7117  -26.3661   20.6900 N   0  0  0  0  0  0  0  0  0  0  0  0
  -29.9759  -13.5217   20.3948 N   0  0  0  0  0  0  0  0  0  0  0  0
  -25.5101  -15.0751   20.2849 N   0  0  0  0  0  0  0  0  0  0  0  0
  -21.8463  -12.7444   21.5258 N   0  0  0  0  0  0  0  0  0  0  0  0
  -23.6680  -28.1299   21.2857 N   0  0  0  0  0  0  0  0  0  0  0  0
  -30.0513  -26.8657   20.4549 N   0  0  0  0  0  0  0  0  0  0  0  0
  -30.1786  -15.6322   21.4428 N   0  0  0  0  0  0  0  0  0  0  0  0
  -32.1247  -24.2253   21.7956 N   0  3  0  0  0  0  0  0  0  0  0  0
  -22.6785  -14.8499   21.1610 O   0  0  0  0  0  0  0  0  0  0  0  0
  -24.4568  -26.9583   19.4343 O   0  0  0  0  0  0  0  0  0  0  0  0
  -27.7852  -28.2673   21.5080 O   0  0  0  0  0  0  0  0  0  0  0  0
  -30.3228  -24.6948   19.6863 O   0  0  0  0  0  0  0  0  0  0  0  0
  -31.9165  -14.7785   20.2150 O   0  0  0  0  0  0  0  0  0  0  0  0
  -21.4358   -7.2004   21.8866 O   0  0  0  0  0  0  0  0  0  0  0  0
  -24.7830  -20.8815   18.6279 O   0  0  0  0  0  0  0  0  0  1  0  0
  -23.7194   -3.2277   24.9538 F   0  0  0  0  0  0  0  0  0  0  0  0
  -20.3282   -6.4669   24.3111 F   0  0  0  0  0  0  0  0  0  0  0  0
  1  2  1  0  0  0  0
  1  5  2  0  0  0  0
  2  6  2  0  0  0  0
  3  8  2  0  0  0  0
  3 16  1  0  0  0  0
  4  9  1  0  0  0  0
  4 16  2  0  0  0  0
  5 18  1  0  0  0  0
  6 20  1  0  0  0  0
  7 10  2  0  0  0  0
  7 19  1  0  0  0  0
  8 23  1  0  0  0  0
  9 23  2  0  0  0  0
 10 24  1  0  0  0  0
 11 12  2  0  0  0  0
 11 25  1  0  0  0  0
 12 26  1  0  0  0  0
 13 21  1  0  0  0  0
 13 24  2  0  0  0  0
 14 22  1  0  0  0  0
 14 29  2  0  0  0  0
 15 26  2  0  0  0  0
 15 27  1  0  0  0  0
 16 28  1  0  0  0  0
 17 28  1  0  0  0  0
 17 31  2  0  0  0  0
 17 32  1  0  0  0  0
 18 20  2  0  0  0  0
 18 37  1  0  0  0  0
 19 21  2  0  0  0  0
 19 38  1  0  0  0  0
 20 46  1  0  0  0  0
 21 39  1  0  0  0  0
 22 30  2  0  0  0  0
 22 56  1  0  0  0  0
 23 80  1  0  0  0  0
 24 81  1  0  0  0  0
 25 27  2  0  0  0  0
 25 80  1  0  0  0  0
 26 82  1  0  0  0  0
 27 83  1  0  0  0  0
 28 64  2  0  0  0  0
 29 49  1  0  0  0  0
 29 65  1  0  0  0  0
 30 50  1  0  0  0  0
 30 65  1  0  0  0  0
 31 66  1  0  0  0  0
 31 69  1  0  0  0  0
 32 70  1  0  0  0  0
 32 75  2  0  0  0  0
 33 47  1  0  0  0  0
 33 71  1  0  0  0  0
 33 76  2  0  0  0  0
 34 61  1  0  0  0  0
 34 67  1  0  0  0  0
 34 77  2  0  0  0  0
 35 62  1  0  0  0  0
 35 72  1  0  0  0  0
 35 78  2  0  0  0  0
 36 68  1  0  0  0  0
 36 73  1  0  0  0  0
 36 79  2  0  0  0  0
 37 40  1  0  0  0  0
 38 47  1  0  0  0  0
 39 67  1  0  0  0  0
 40 42  1  0  0  0  0
 41 43  1  0  0  0  0
 41 44  1  0  0  0  0
 42 46  1  0  0  0  0
 43 48  1  0  0  0  0
 44 68  1  0  0  0  0
 45 48  1  0  0  0  0
 45 68  1  0  0  0  0
 46 71  1  0  0  0  0
 47 67  1  0  0  0  0
 48 66  1  0  0  0  0
 51 62  1  0  0  0  0
 52 63  1  0  0  0  0
 53 63  1  0  0  0  0
 54 63  1  0  0  0  0
 55 74  1  0  0  0  0
 56 57  1  0  0  0  0
 57 60  1  0  0  0  0
 58 59  1  0  0  0  0
 58 65  1  0  0  0  0
 59 73  1  0  0  0  0
 60 81  1  0  0  0  0
 61 63  1  0  0  0  0
 61 72  1  0  0  0  0
 62 74  1  0  0  0  0
 64 66  1  0  0  0  0
M  CHG  1  74   1
M  ISO  4  36 100  60 101  73 100  81 101
M  END
> <Batch ID>
0132

> <Smiles>
CNC(C)C(=O)NC(C(=O)N1Cc2cc([101O:1][101CH2:1]CCc3cc(C)n(CC[100NH:0][100C:0](=O)N4CCCC(n5nc(-c6ccc(Oc7ccc(F)cc7F)cc6)c(C(N)=O)c5N)C4)c3C)ccc2CC1C(=O)NC1CCCc2ccccc21)C(C)(C)C

> <Shape>
0.341

> <Color>
0.220

> <Negative vol penalty>
0.000

$$$$

  -OEChem-04052320522D

  0  0  0     0  0  0  0  0  0999 V2000
M  END
$$$$

  -OEChem-04052320523D

 83 91  0     1  0  0  0  0  0999 V2000
  -32.2742  -25.0171   15.9165 C   0  0  0  0  0  0  0  0  0  0  0  0
  -31.4950  -24.0206   16.4956 C   0  0  0  0  0  0  0  0  0  0  0  0
  -27.6931  -16.8277   32.3148 C   0  0  0  0  0  0  0  0  0  0  0  0
  -28.8204  -17.6096   32.5666 C   0  0  0  0  0  0  0  0  0  0  0  0
  -30.9718  -18.1190   20.8964 C   0  0  0  0  0  0  0  0  0  0  0  0
  -30.1231  -16.6758   22.6382 C   0  0  0  0  0  0  0  0  0  0  0  0
  -32.5078  -26.2065   16.6055 C   0  0  0  0  0  0  0  0  0  0  0  0
  -30.9500  -24.2125   17.7646 C   0  0  0  0  0  0  0  0  0  0  0  0
  -25.1823  -22.5476   21.6734 C   0  0  0  0  0  0  0  0  0  0  0  0
  -27.0608  -16.8950   31.0733 C   0  0  0  0  0  0  0  0  0  0  0  0
  -29.3154  -18.4588   31.5769 C   0  0  0  0  0  0  0  0  0  0  0  0
  -31.3210  -17.0005   20.1398 C   0  0  0  0  0  0  0  0  0  0  0  0
  -30.4723  -15.5573   21.8815 C   0  0  0  0  0  0  0  0  0  0  0  0
  -24.8399  -21.9927   22.9057 C   0  0  0  0  0  0  0  0  0  0  0  0
  -29.2294  -13.8500   19.2431 C   0  0  0  0  0  0  0  0  0  0  0  0
  -28.2955  -12.8187   19.1448 C   0  0  0  0  0  0  0  0  0  0  0  0
  -25.2449  -24.1198   23.9691 C   0  0  0  0  0  0  0  0  0  0  0  0
  -29.8741  -11.2929   20.1534 C   0  0  0  0  0  0  0  0  0  0  0  0
  -30.3729  -17.9567   22.1457 C   0  0  0  0  0  0  0  0  0  0  0  0
  -29.1201  -20.1388   22.5662 C   0  0  0  0  0  0  0  0  0  0  0  0
  -31.9573  -26.4169   17.8796 C   0  0  0  0  0  0  0  0  0  0  0  0
  -25.5697  -23.8921   21.5811 C   0  0  0  0  0  0  0  0  0  0  0  0
  -31.1775  -25.4053   18.4719 C   0  0  0  0  0  0  0  0  0  0  0  0
  -25.5893  -24.6900   22.7340 C   0  0  0  0  0  0  0  0  0  0  0  0
  -27.5557  -17.7442   30.0836 C   0  0  0  0  0  0  0  0  0  0  0  0
  -28.6830  -18.5261   30.3354 C   0  0  0  0  0  0  0  0  0  0  0  0
  -31.0713  -15.7196   20.6323 C   0  0  0  0  0  0  0  0  0  0  0  0
  -24.8739  -22.7781   24.0543 C   0  0  0  0  0  0  0  0  0  0  0  0
  -30.4858  -13.6028   19.7965 C   0  0  0  0  0  0  0  0  0  0  0  0
  -28.6178  -11.5402   19.5999 C   0  0  0  0  0  0  0  0  0  0  0  0
  -30.8081  -12.3243   20.2516 C   0  0  0  0  0  0  0  0  0  0  0  0
  -30.0124  -19.1118   22.9280 C   0  0  0  0  0  0  0  0  0  0  0  0
  -29.1236  -20.9916   23.6428 C   0  0  0  0  0  0  0  0  0  0  0  0
  -28.3564  -20.3068   21.3645 C   0  0  0  0  0  0  0  0  0  0  0  0
  -28.2142  -25.4076   20.6790 C   0  0  0  0  0  0  0  0  0  0  0  0
  -26.3703  -28.0468   21.0757 C   0  0  0  0  0  0  0  0  0  0  0  0
  -23.6658  -29.4933   22.5723 C   0  0  0  0  0  0  0  0  0  0  0  0
  -30.3120  -20.2312   29.4493 C   0  0  0  0  0  0  0  0  0  0  0  0
  -32.2767  -27.6998   18.6054 C   0  0  0  0  0  0  0  0  0  0  0  0
  -25.9103  -24.4826   20.2403 C   0  0  0  0  0  0  0  0  0  0  0  0
  -25.9786  -26.1441   22.6856 C   0  0  0  0  0  0  0  0  0  0  0  0
  -31.3532  -27.9760   19.7892 C   0  0  0  0  0  0  0  0  0  0  0  0
  -31.9284  -22.4915   27.2231 C   0  0  0  0  0  0  0  0  0  0  0  0
  -31.1895  -26.7222   20.6424 C   0  0  0  0  0  0  0  0  0  0  0  0
  -31.5343  -21.9784   25.8362 C   0  0  0  0  0  0  0  0  0  0  0  0
  -32.1539  -21.3462   28.2085 C   0  0  0  0  0  0  0  0  0  0  0  0
  -30.6514  -19.8753   26.9246 C   0  0  0  0  0  0  0  0  0  0  0  0
  -30.5485  -25.5861   19.8363 C   0  0  1  0  0  0  0  0  0  0  0  0
  -26.7857  -25.7280   20.3408 C   0  0  1  0  0  0  0  0  0  0  0  0
  -30.3503  -20.9947   25.9147 C   0  0  2  0  0  0  0  0  0  0  0  0
  -22.4342  -31.6740   22.7311 C   0  0  0  0  0  0  0  0  0  0  0  0
  -24.0962  -18.3128   27.2983 C   0  0  0  0  0  0  0  0  0  0  0  0
  -28.5528  -29.1435   22.9044 C   0  0  0  0  0  0  0  0  0  0  0  0
  -26.8988  -30.8177   23.7586 C   0  0  0  0  0  0  0  0  0  0  0  0
  -27.5502  -30.8272   21.3506 C   0  0  0  0  0  0  0  0  0  0  0  0
  -21.1864  -28.3058   21.4762 C   0  0  0  0  0  0  0  0  0  0  0  0
  -26.8553  -17.7959   28.7578 C   0  0  0  0  0  0  0  0  0  0  0  0
  -25.1035  -20.5973   26.9150 C   0  0  0  0  0  0  0  0  0  0  0  0
  -24.8014  -20.8479   25.4417 C   0  0  0  0  0  0  0  0  0  1  0  0
  -26.0672  -28.9762   22.2261 C   0  0  1  0  0  0  0  0  0  0  0  0
  -22.5362  -30.3381   22.0114 C   0  0  2  0  0  0  0  0  0  0  0  0
  -25.3806  -19.1295   27.2460 C   0  0  1  0  0  0  0  0  0  0  0  0
  -27.2617  -29.9133   22.5615 C   0  0  0  0  0  0  0  0  0  0  0  0
  -30.5442  -19.2938   24.1396 N   0  0  0  0  0  0  0  0  0  0  0  0
  -29.9845  -20.4451   24.5486 N   0  0  0  0  0  0  0  0  0  0  0  0
  -26.3092  -26.6736   21.3522 N   0  0  0  0  0  0  0  0  0  0  0  0
  -30.9898  -20.4579   28.2327 N   0  0  0  0  0  0  0  0  0  0  0  0
  -28.4743  -22.1483   23.8936 N   0  0  0  0  0  0  0  0  0  0  0  0
  -28.9311  -21.0164   20.3013 N   0  0  0  0  0  0  0  0  0  0  0  0
  -29.2011  -19.3950   29.3433 N   0  0  0  0  0  0  0  0  0  0  0  0
  -29.1220  -25.7967   19.7126 N   0  0  0  0  0  0  0  0  0  0  0  0
  -24.8385  -29.6780   21.8711 N   0  0  0  0  0  0  0  0  0  0  0  0
  -21.2352  -29.6257   22.1563 N   0  3  0  0  0  0  0  0  0  0  0  0
  -26.0439  -19.0274   28.5758 N   0  3  0  0  0  0  0  0  0  0  0  0
  -27.1922  -19.8555   21.2433 O   0  0  0  0  0  0  0  0  0  0  0  0
  -28.4737  -24.8502   21.7390 O   0  0  0  0  0  0  0  0  0  0  0  0
  -26.6441  -28.5217   19.9707 O   0  0  0  0  0  0  0  0  0  0  0  0
  -23.5231  -28.7471   23.5384 O   0  0  0  0  0  0  0  0  0  0  0  0
  -30.6732  -20.7631   30.5022 O   0  0  0  0  0  0  0  0  0  0  0  0
  -31.4117  -14.6279   19.8941 O   0  0  0  0  0  0  0  0  0  0  0  0
  -24.5408  -22.2389   25.2585 O   0  0  0  0  0  0  0  0  0  1  0  0
  -27.7202  -10.5503   19.5069 F   0  0  0  0  0  0  0  0  0  0  0  0
  -32.0130  -12.0810   20.7853 F   0  0  0  0  0  0  0  0  0  0  0  0
  1  2  1  0  0  0  0
  1  7  2  0  0  0  0
  2  8  2  0  0  0  0
  3  4  1  0  0  0  0
  3 10  2  0  0  0  0
  4 11  2  0  0  0  0
  5 12  2  0  0  0  0
  5 19  1  0  0  0  0
  6 13  1  0  0  0  0
  6 19  2  0  0  0  0
  7 21  1  0  0  0  0
  8 23  1  0  0  0  0
  9 14  2  0  0  0  0
  9 22  1  0  0  0  0
 10 25  1  0  0  0  0
 11 26  1  0  0  0  0
 12 27  1  0  0  0  0
 13 27  2  0  0  0  0
 14 28  1  0  0  0  0
 15 16  2  0  0  0  0
 15 29  1  0  0  0  0
 16 30  1  0  0  0  0
 17 24  1  0  0  0  0
 17 28  2  0  0  0  0
 18 30  2  0  0  0  0
 18 31  1  0  0  0  0
 19 32  1  0  0  0  0
 20 32  1  0  0  0  0
 20 33  2  0  0  0  0
 20 34  1  0  0  0  0
 21 23  2  0  0  0  0
 21 39  1  0  0  0  0
 22 24  2  0  0  0  0
 22 40  1  0  0  0  0
 23 48  1  0  0  0  0
 24 41  1  0  0  0  0
 25 26  2  0  0  0  0
 25 57  1  0  0  0  0
 26 70  1  0  0  0  0
 27 80  1  0  0  0  0
 28 81  1  0  0  0  0
 29 31  2  0  0  0  0
 29 80  1  0  0  0  0
 30 82  1  0  0  0  0
 31 83  1  0  0  0  0
 32 64  2  0  0  0  0
 33 65  1  0  0  0  0
 33 68  1  0  0  0  0
 34 69  1  0  0  0  0
 34 75  2  0  0  0  0
 35 49  1  0  0  0  0
 35 71  1  0  0  0  0
 35 76  2  0  0  0  0
 36 60  1  0  0  0  0
 36 66  1  0  0  0  0
 36 77  2  0  0  0  0
 37 61  1  0  0  0  0
 37 72  1  0  0  0  0
 37 78  2  0  0  0  0
 38 67  1  0  0  0  0
 38 70  1  0  0  0  0
 38 79  2  0  0  0  0
 39 42  1  0  0  0  0
 40 49  1  0  0  0  0
 41 66  1  0  0  0  0
 42 44  1  0  0  0  0
 43 45  1  0  0  0  0
 43 46  1  0  0  0  0
 44 48  1  0  0  0  0
 45 50  1  0  0  0  0
 46 67  1  0  0  0  0
 47 50  1  0  0  0  0
 47 67  1  0  0  0  0
 48 71  1  0  0  0  0
 49 66  1  0  0  0  0
 50 65  1  0  0  0  0
 51 61  1  0  0  0  0
 52 62  1  0  0  0  0
 53 63  1  0  0  0  0
 54 63  1  0  0  0  0
 55 63  1  0  0  0  0
 56 73  1  0  0  0  0
 57 74  1  0  0  0  0
 58 59  1  0  0  0  0
 58 62  1  0  0  0  0
 59 81  1  0  0  0  0
 60 63  1  0  0  0  0
 60 72  1  0  0  0  0
 61 73  1  0  0  0  0
 62 74  1  0  0  0  0
 64 65  1  0  0  0  0
M  CHG  2  73   1  74   1
M  ISO  4  38 100  59 101  70 100  81 101
M  END
> <Batch ID>
0132

> <Smiles>
CNC(C)C(=O)NC(C(=O)N1Cc2cc([101O:1][101CH2:1]CC(C)NCc3ccccc3[100NH:0][100C:0](=O)N3CCCC(n4nc(-c5ccc(Oc6ccc(F)cc6F)cc5)c(C(N)=O)c4N)C3)ccc2CC1C(=O)NC1CCCc2ccccc21)C(C)(C)C

> <Shape>
0.189

> <Color>
0.064

> <Negative vol penalty>
0.000

$$$$

  -OEChem-04052320523D

 93102  0     1  0  0  0  0  0999 V2000
  -27.9219  -33.1296   26.7792 C   0  0  0  0  0  0  0  0  0  0  0  0
  -28.0889  -31.9977   25.9879 C   0  0  0  0  0  0  0  0  0  0  0  0
  -28.4241  -13.0799   21.0596 C   0  0  0  0  0  0  0  0  0  0  0  0
  -27.9305  -11.9572   18.9779 C   0  0  0  0  0  0  0  0  0  0  0  0
  -26.6403  -33.5445   27.1387 C   0  0  0  0  0  0  0  0  0  0  0  0
  -26.9743  -31.2793   25.5564 C   0  0  0  0  0  0  0  0  0  0  0  0
  -27.2557  -30.0113   20.6618 C   0  0  0  0  0  0  0  0  0  0  0  0
  -29.7865  -12.8634   20.8533 C   0  0  0  0  0  0  0  0  0  0  0  0
  -29.2930  -11.7408   18.7716 C   0  0  0  0  0  0  0  0  0  0  0  0
  -28.0717  -28.9307   20.3299 C   0  0  0  0  0  0  0  0  0  0  0  0
  -31.9610  -13.5160   17.6989 C   0  0  0  0  0  0  0  0  0  0  0  0
  -32.4709  -13.7724   16.4262 C   0  0  0  0  0  0  0  0  0  0  0  0
  -26.1272  -27.5084   20.2053 C   0  0  0  0  0  0  0  0  0  0  0  0
  -33.1744  -11.4682   16.2440 C   0  0  0  0  0  0  0  0  0  0  0  0
  -27.4961  -12.6267   20.1219 C   0  0  0  0  0  0  0  0  0  0  0  0
  -25.3097  -12.3943   21.4154 C   0  0  0  0  0  0  0  0  0  0  0  0
  -25.5090  -32.8365   26.7034 C   0  0  0  0  0  0  0  0  0  0  0  0
  -25.8681  -29.8459   20.7788 C   0  0  0  0  0  0  0  0  0  0  0  0
  -25.6765  -31.6844   25.9115 C   0  0  0  0  0  0  0  0  0  0  0  0
  -25.2956  -28.5891   20.5363 C   0  0  0  0  0  0  0  0  0  0  0  0
  -30.2210  -12.1939   19.7093 C   0  0  0  0  0  0  0  0  0  0  0  0
  -27.5078  -27.6783   20.1044 C   0  0  0  0  0  0  0  0  0  0  0  0
  -32.0578  -12.2358   18.2442 C   0  0  0  0  0  0  0  0  0  0  0  0
  -33.0776  -12.7485   15.6987 C   0  0  0  0  0  0  0  0  0  0  0  0
  -32.6645  -11.2119   17.5167 C   0  0  0  0  0  0  0  0  0  0  0  0
  -26.0886  -12.8496   20.3347 C   0  0  0  0  0  0  0  0  0  0  0  0
  -24.0473  -12.8672   21.1520 C   0  0  0  0  0  0  0  0  0  0  0  0
  -25.6930  -11.6139   22.5554 C   0  0  0  0  0  0  0  0  0  0  0  0
  -23.7607  -30.1756   23.1355 C   0  0  0  0  0  0  0  0  0  0  0  0
  -21.6141  -29.5988   20.7729 C   0  0  0  0  0  0  0  0  0  0  0  0
  -21.3452  -27.3748   17.9447 C   0  0  0  0  0  0  0  0  0  0  0  0
  -22.0146  -17.5012   17.9512 C   0  0  0  0  0  0  0  0  0  0  0  0
  -24.1460  -33.2962   27.1568 C   0  0  0  0  0  0  0  0  0  0  0  0
  -24.9990  -31.0276   21.1114 C   0  0  0  0  0  0  0  0  0  0  0  0
  -23.8093  -28.3635   20.6294 C   0  0  0  0  0  0  0  0  0  0  0  0
  -22.9999  -32.6948   26.3474 C   0  0  0  0  0  0  0  0  0  0  0  0
  -21.1819  -14.0673   17.5134 C   0  0  0  0  0  0  0  0  0  0  0  0
  -30.6008  -19.1996   19.6448 C   0  0  0  0  0  0  0  0  0  0  0  0
  -28.9972  -25.4105   14.8438 C   0  0  0  0  0  0  0  0  0  0  0  0
  -23.1996  -31.1925   26.1741 C   0  0  0  0  0  0  0  0  0  0  0  0
  -29.1491  -19.5467   19.3187 C   0  0  0  0  0  0  0  0  0  0  0  0
  -22.2747  -13.3248   18.2843 C   0  0  0  0  0  0  0  0  0  0  0  0
  -28.3305  -24.1242   15.2866 C   0  0  0  0  0  0  0  0  0  0  0  0
  -21.7273  -15.3150   16.8222 C   0  0  0  0  0  0  0  0  0  0  0  0
  -23.5424  -15.5051   18.4785 C   0  0  0  0  0  0  0  0  0  0  0  0
  -30.8994  -17.7325   19.3813 C   0  0  0  0  0  0  0  0  0  0  0  0
  -28.8098  -26.3346   16.0319 C   0  0  0  0  0  0  0  0  0  0  0  0
  -29.0979  -17.6603   17.6430 C   0  0  0  0  0  0  0  0  0  0  0  0
  -24.4910  -30.8929   25.4033 C   0  0  1  0  0  0  0  0  0  0  0  0
  -23.6521  -30.6297   21.7073 C   0  0  1  0  0  0  0  0  0  0  0  0
  -28.7822  -19.1362   17.8852 C   0  0  1  0  0  0  0  0  0  0  0  0
  -23.0289  -14.2702   19.2385 C   0  0  2  0  0  0  0  0  0  0  0  0
  -28.8040  -23.9825   16.7259 C   0  0  2  0  0  0  0  0  0  0  0  0
  -20.0992  -27.6297   15.7814 C   0  0  0  0  0  0  0  0  0  0  0  0
  -26.9434  -18.9155   16.2032 C   0  0  0  0  0  0  0  0  0  0  0  0
  -19.3902  -28.0827   22.2101 C   0  0  0  0  0  0  0  0  0  0  0  0
  -18.9197  -26.8795   20.0655 C   0  0  0  0  0  0  0  0  0  0  0  0
  -18.6478  -29.3560   20.1897 C   0  0  0  0  0  0  0  0  0  0  0  0
  -23.7919  -26.9079   16.3463 C   0  0  0  0  0  0  0  0  0  0  0  0
  -27.9016  -23.1110   17.5799 C   0  0  0  0  0  0  0  0  0  0  0  0
  -22.4179  -19.6223   19.1750 C   0  0  0  0  0  0  0  0  0  0  0  0
  -29.8911  -25.7056   18.2259 C   0  0  0  0  0  0  0  0  0  0  0  0
  -23.1827  -20.5831   18.2839 C   0  0  0  0  0  0  0  0  0  0  0  0
  -25.4905  -21.2119   17.5647 C   0  0  0  0  0  0  0  0  0  0  0  0
  -29.5029  -26.9071   19.0649 C   0  0  0  0  0  0  0  0  0  1  0  0
  -20.9728  -28.3629   20.1895 C   0  0  1  0  0  0  0  0  0  0  0  0
  -21.4453  -27.7535   16.4780 C   0  0  2  0  0  0  0  0  0  0  0  0
  -27.3088  -19.4202   17.6026 C   0  0  2  0  0  0  0  0  0  0  0  0
  -26.9682  -20.9142   17.8316 C   0  0  1  0  0  0  0  0  0  0  0  0
  -19.5086  -28.1695   20.6754 C   0  0  0  0  0  0  0  0  0  0  0  0
  -25.3803  -13.5571   19.4506 N   0  0  0  0  0  0  0  0  0  0  0  0
  -24.1430  -13.5500   19.9753 N   0  0  0  0  0  0  0  0  0  0  0  0
  -23.0023  -29.5486   20.9637 N   0  0  0  0  0  0  0  0  0  0  0  0
  -22.4296  -16.1699   17.7823 N   0  0  0  0  0  0  0  0  0  0  0  0
  -22.8759  -12.7613   21.8145 N   0  0  0  0  0  0  0  0  0  0  0  0
  -25.6143  -10.2174   22.4662 N   0  0  0  0  0  0  0  0  0  0  0  0
  -24.2989  -31.1213   23.9872 N   0  0  0  0  0  0  0  0  0  0  0  0
  -21.1120  -28.4756   18.7416 N   0  0  0  0  0  0  0  0  0  0  0  0
  -22.7299  -18.2404   18.8854 N   0  0  0  0  0  0  0  0  0  0  0  0
  -27.8244  -21.7960   17.0302 N   0  0  0  0  0  0  0  0  0  0  0  0
  -30.5325  -17.4023   17.9723 N   0  3  0  0  0  0  0  0  0  0  0  0
  -28.7987  -25.4155   17.2425 N   0  3  1  0  0  0  0  0  0  0  0  0
  -22.4192  -26.8676   15.7796 N   0  3  0  0  0  0  0  0  0  0  0  0
  -24.6445  -20.3586   18.4397 N   0  3  0  0  0  0  0  0  0  0  0  0
  -26.0778  -12.1399   23.6273 O   0  0  0  0  0  0  0  0  0  0  0  0
  -23.3828  -29.0510   23.4423 O   0  0  0  0  0  0  0  0  0  0  0  0
  -20.9104  -30.5753   21.0426 O   0  0  0  0  0  0  0  0  0  0  0  0
  -21.4586  -26.2176   18.3431 O   0  0  0  0  0  0  0  0  0  0  0  0
  -21.0727  -17.9929   17.3204 O   0  0  0  0  0  0  0  0  0  0  0  0
  -31.5504  -11.9827   19.5076 O   0  0  0  0  0  0  0  0  0  0  0  0
  -28.3020  -26.6217   19.7810 O   0  0  0  0  0  0  0  0  0  1  0  0
  -33.5659  -12.9944   14.4759 F   0  0  0  0  0  0  0  0  0  0  0  0
  -32.7594   -9.9797   18.0349 F   0  0  0  0  0  0  0  0  0  0  0  0
  1  2  1  0  0  0  0
  1  5  2  0  0  0  0
  2  6  2  0  0  0  0
  3  8  2  0  0  0  0
  3 15  1  0  0  0  0
  4  9  1  0  0  0  0
  4 15  2  0  0  0  0
  5 17  1  0  0  0  0
  6 19  1  0  0  0  0
  7 10  2  0  0  0  0
  7 18  1  0  0  0  0
  8 21  1  0  0  0  0
  9 21  2  0  0  0  0
 10 22  1  0  0  0  0
 11 12  2  0  0  0  0
 11 23  1  0  0  0  0
 12 24  1  0  0  0  0
 13 20  1  0  0  0  0
 13 22  2  0  0  0  0
 14 24  2  0  0  0  0
 14 25  1  0  0  0  0
 15 26  1  0  0  0  0
 16 26  1  0  0  0  0
 16 27  2  0  0  0  0
 16 28  1  0  0  0  0
 17 19  2  0  0  0  0
 17 33  1  0  0  0  0
 18 20  2  0  0  0  0
 18 34  1  0  0  0  0
 19 49  1  0  0  0  0
 20 35  1  0  0  0  0
 21 90  1  0  0  0  0
 22 91  1  0  0  0  0
 23 25  2  0  0  0  0
 23 90  1  0  0  0  0
 24 92  1  0  0  0  0
 25 93  1  0  0  0  0
 26 71  2  0  0  0  0
 27 72  1  0  0  0  0
 27 75  1  0  0  0  0
 28 76  1  0  0  0  0
 28 85  2  0  0  0  0
 29 50  1  0  0  0  0
 29 77  1  0  0  0  0
 29 86  2  0  0  0  0
 30 66  1  0  0  0  0
 30 73  1  0  0  0  0
 30 87  2  0  0  0  0
 31 67  1  0  0  0  0
 31 78  1  0  0  0  0
 31 88  2  0  0  0  0
 32 74  1  0  0  0  0
 32 79  1  0  0  0  0
 32 89  2  0  0  0  0
 33 36  1  0  0  0  0
 34 50  1  0  0  0  0
 35 73  1  0  0  0  0
 36 40  1  0  0  0  0
 37 42  1  0  0  0  0
 37 44  1  0  0  0  0
 38 41  1  0  0  0  0
 38 46  1  0  0  0  0
 39 43  1  0  0  0  0
 39 47  1  0  0  0  0
 40 49  1  0  0  0  0
 41 51  1  0  0  0  0
 42 52  1  0  0  0  0
 43 53  1  0  0  0  0
 44 74  1  0  0  0  0
 45 52  1  0  0  0  0
 45 74  1  0  0  0  0
 46 81  1  0  0  0  0
 47 82  1  0  0  0  0
 48 51  1  0  0  0  0
 48 81  1  0  0  0  0
 49 77  1  0  0  0  0
 50 73  1  0  0  0  0
 51 68  1  0  0  0  0
 52 72  1  0  0  0  0
 53 60  1  0  0  0  0
 53 82  1  0  0  0  0
 54 67  1  0  0  0  0
 55 68  1  0  0  0  0
 56 70  1  0  0  0  0
 57 70  1  0  0  0  0
 58 70  1  0  0  0  0
 59 83  1  0  0  0  0
 60 80  1  0  0  0  0
 61 63  1  0  0  0  0
 61 79  1  0  0  0  0
 62 65  1  0  0  0  0
 62 82  1  0  0  0  0
 63 84  1  0  0  0  0
 64 69  1  0  0  0  0
 64 84  1  0  0  0  0
 65 91  1  0  0  0  0
 66 70  1  0  0  0  0
 66 78  1  0  0  0  0
 67 83  1  0  0  0  0
 68 69  1  0  0  0  0
 69 80  1  0  0  0  0
 71 72  1  0  0  0  0
M  CHG  4  81   1  82   1  83   1  84   1
M  ISO  4  32 100  65 101  79 100  91 101
M  END
> <Batch ID>
0132

> <Smiles>
CNC(C)C(=O)NC(C(=O)N1Cc2cc([101O:1][101CH2:1]CN3CCCC3CNC(CNCC[100NH:0][100C:0](=O)N3CCCC(n4nc(-c5ccc(Oc6ccc(F)cc6F)cc5)c(C(N)=O)c4N)C3)C(C)C3CCCNC3)ccc2CC1C(=O)NC1CCCc2ccccc21)C(C)(C)C

> <Shape>
0.262

> <Color>
0.087

> <Negative vol penalty>
0.000

$$$$

  -OEChem-04052320523D

 81 89  0     1  0  0  0  0  0999 V2000
  -27.6029  -34.2449   25.1436 C   0  0  0  0  0  0  0  0  0  0  0  0
  -27.8407  -32.9715   24.6363 C   0  0  0  0  0  0  0  0  0  0  0  0
  -25.1028   -9.3081   20.5575 C   0  0  0  0  0  0  0  0  0  0  0  0
  -26.6600  -10.2495   22.1468 C   0  0  0  0  0  0  0  0  0  0  0  0
  -26.3131  -34.6125   25.5247 C   0  0  0  0  0  0  0  0  0  0  0  0
  -26.7889  -32.0646   24.5107 C   0  0  0  0  0  0  0  0  0  0  0  0
  -26.8358  -29.6385   20.0659 C   0  0  0  0  0  0  0  0  0  0  0  0
  -25.5833   -8.0303   20.8435 C   0  0  0  0  0  0  0  0  0  0  0  0
  -27.1406   -8.9716   22.4328 C   0  0  0  0  0  0  0  0  0  0  0  0
  -27.7457  -28.5922   19.9211 C   0  0  0  0  0  0  0  0  0  0  0  0
  -25.1999   -5.7110   23.2739 C   0  0  0  0  0  0  0  0  0  0  0  0
  -24.2642   -4.6949   23.4674 C   0  0  0  0  0  0  0  0  0  0  0  0
  -25.9799  -27.0053   20.3489 C   0  0  0  0  0  0  0  0  0  0  0  0
  -25.2134   -3.4682   21.6149 C   0  0  0  0  0  0  0  0  0  0  0  0
  -25.6412  -10.4178   21.2091 C   0  0  0  0  0  0  0  0  0  0  0  0
  -23.8281  -12.2072   21.0743 C   0  0  0  0  0  0  0  0  0  0  0  0
  -25.2433  -33.7129   25.3947 C   0  0  0  0  0  0  0  0  0  0  0  0
  -25.4910  -29.3761   20.3645 C   0  0  0  0  0  0  0  0  0  0  0  0
  -25.4839  -32.4201   24.8917 C   0  0  0  0  0  0  0  0  0  0  0  0
  -25.0543  -28.0500   20.4944 C   0  0  0  0  0  0  0  0  0  0  0  0
  -26.6022   -7.8620   21.7812 C   0  0  0  0  0  0  0  0  0  0  0  0
  -27.3184  -27.2755   20.0655 C   0  0  0  0  0  0  0  0  0  0  0  0
  -26.1423   -5.6059   22.2509 C   0  0  0  0  0  0  0  0  0  0  0  0
  -24.2709   -3.5735   22.6379 C   0  0  0  0  0  0  0  0  0  0  0  0
  -26.1491   -4.4845   21.4214 C   0  0  0  0  0  0  0  0  0  0  0  0
  -25.1456  -11.7381   20.9137 C   0  0  0  0  0  0  0  0  0  0  0  0
  -23.8758  -13.5148   20.6566 C   0  0  0  0  0  0  0  0  0  0  0  0
  -22.6650  -11.5223   21.5579 C   0  0  0  0  0  0  0  0  0  0  0  0
  -23.5498  -30.0854   22.7795 C   0  0  0  0  0  0  0  0  0  0  0  0
  -21.3089  -28.7302   20.8652 C   0  0  0  0  0  0  0  0  0  0  0  0
  -20.5962  -26.5831   18.3101 C   0  0  0  0  0  0  0  0  0  0  0  0
  -28.5606  -17.2850   20.3534 C   0  0  0  0  0  0  0  0  0  0  0  0
  -23.8750  -34.1396   25.8642 C   0  0  0  0  0  0  0  0  0  0  0  0
  -24.5165  -30.5148   20.4910 C   0  0  0  0  0  0  0  0  0  0  0  0
  -23.6172  -27.7142   20.7948 C   0  0  0  0  0  0  0  0  0  0  0  0
  -22.7486  -33.2472   25.3490 C   0  0  0  0  0  0  0  0  0  0  0  0
  -26.9591  -15.2619   17.5036 C   0  0  0  0  0  0  0  0  0  0  0  0
  -23.1109  -31.7758   25.5239 C   0  0  0  0  0  0  0  0  0  0  0  0
  -31.9410  -20.8958   20.0222 C   0  0  0  0  0  0  0  0  0  0  0  0
  -29.8689  -21.6479   21.2586 C   0  0  0  0  0  0  0  0  0  0  0  0
  -25.6131  -15.1496   18.2132 C   0  0  0  0  0  0  0  0  0  0  0  0
  -31.1483  -19.7550   19.3833 C   0  0  0  0  0  0  0  0  0  0  0  0
  -29.0728  -20.5079   20.6225 C   0  0  0  0  0  0  0  0  0  0  0  0
  -27.8024  -16.3812   18.1065 C   0  0  0  0  0  0  0  0  0  0  0  0
  -27.2099  -15.2064   20.2257 C   0  0  0  0  0  0  0  0  0  0  0  0
  -24.3646  -31.4167   24.7172 C   0  0  1  0  0  0  0  0  0  0  0  0
  -23.2770  -30.1530   21.3034 C   0  0  1  0  0  0  0  0  0  0  0  0
  -31.0651  -22.0967   20.4069 C   0  0  0  0  0  0  0  0  0  0  0  0
  -25.7579  -15.0329   19.7463 C   0  0  2  0  0  0  0  0  0  0  0  0
  -29.9754  -19.3251   20.2670 C   0  0  0  0  0  0  0  0  0  0  0  0
  -18.6703  -25.6566   16.9948 C   0  0  0  0  0  0  0  0  0  0  0  0
  -20.5834  -26.9169   23.2095 C   0  0  0  0  0  0  0  0  0  0  0  0
  -19.3764  -25.4309   21.5961 C   0  0  0  0  0  0  0  0  0  0  0  0
  -18.6259  -27.7878   21.9194 C   0  0  0  0  0  0  0  0  0  0  0  0
  -21.6429  -27.6940   15.7745 C   0  0  0  0  0  0  0  0  0  0  0  0
  -30.6170  -22.8879   19.1750 C   0  0  0  0  0  0  0  0  0  0  0  0
  -29.7649  -25.1305   18.4798 C   0  0  0  0  0  0  0  0  0  0  0  0
  -29.3037  -26.4617   19.0396 C   0  0  0  0  0  0  0  0  0  1  0  0
  -20.7751  -27.3319   20.6684 C   0  0  1  0  0  0  0  0  0  0  0  0
  -19.7325  -26.7422   17.0719 C   0  0  2  0  0  0  0  0  0  0  0  0
  -19.8677  -26.8729   21.8446 C   0  0  0  0  0  0  0  0  0  0  0  0
  -25.9702  -12.6716   20.4315 N   0  0  0  0  0  0  0  0  0  0  0  0
  -25.1687  -13.7405   20.2854 N   0  0  0  0  0  0  0  0  0  0  0  0
  -22.7038  -28.8625   20.9156 N   0  0  0  0  0  0  0  0  0  0  0  0
  -27.8625  -16.3429   19.5732 N   0  0  0  0  0  0  0  0  0  0  0  0
  -22.9377  -14.4819   20.5743 N   0  0  0  0  0  0  0  0  0  0  0  0
  -22.3902  -11.5603   22.9317 N   0  0  0  0  0  0  0  0  0  0  0  0
  -24.0368  -31.2620   23.3161 N   0  0  0  0  0  0  0  0  0  0  0  0
  -20.1152  -27.3262   19.3673 N   0  0  0  0  0  0  0  0  0  0  0  0
  -29.2100  -18.2798   19.6267 N   0  0  0  0  0  0  0  0  0  0  0  0
  -20.5711  -26.6675   15.8422 N   0  3  0  0  0  0  0  0  0  0  0  0
  -30.1698  -24.2423   19.5985 N   0  3  0  0  0  0  0  0  0  0  0  0
  -21.9014  -10.8814   20.7966 O   0  0  0  0  0  0  0  0  0  0  0  0
  -23.3330  -29.0434   23.3869 O   0  0  0  0  0  0  0  0  0  0  0  0
  -20.5176  -29.6714   20.9633 O   0  0  0  0  0  0  0  0  0  0  0  0
  -21.5953  -25.8679   18.3379 O   0  0  0  0  0  0  0  0  0  0  0  0
  -28.6031  -17.2412   21.5866 O   0  0  0  0  0  0  0  0  0  0  0  0
  -27.0711   -6.6152   22.0606 O   0  0  0  0  0  0  0  0  0  0  0  0
  -28.2047  -26.2523   19.9254 O   0  0  0  0  0  0  0  0  0  1  0  0
  -23.3733   -2.5970   22.8247 F   0  0  0  0  0  0  0  0  0  0  0  0
  -27.0527   -4.3772   20.4377 F   0  0  0  0  0  0  0  0  0  0  0  0
  1  2  1  0  0  0  0
  1  5  2  0  0  0  0
  2  6  2  0  0  0  0
  3  8  2  0  0  0  0
  3 15  1  0  0  0  0
  4  9  1  0  0  0  0
  4 15  2  0  0  0  0
  5 17  1  0  0  0  0
  6 19  1  0  0  0  0
  7 10  2  0  0  0  0
  7 18  1  0  0  0  0
  8 21  1  0  0  0  0
  9 21  2  0  0  0  0
 10 22  1  0  0  0  0
 11 12  2  0  0  0  0
 11 23  1  0  0  0  0
 12 24  1  0  0  0  0
 13 20  1  0  0  0  0
 13 22  2  0  0  0  0
 14 24  2  0  0  0  0
 14 25  1  0  0  0  0
 15 26  1  0  0  0  0
 16 26  1  0  0  0  0
 16 27  2  0  0  0  0
 16 28  1  0  0  0  0
 17 19  2  0  0  0  0
 17 33  1  0  0  0  0
 18 20  2  0  0  0  0
 18 34  1  0  0  0  0
 19 46  1  0  0  0  0
 20 35  1  0  0  0  0
 21 78  1  0  0  0  0
 22 79  1  0  0  0  0
 23 25  2  0  0  0  0
 23 78  1  0  0  0  0
 24 80  1  0  0  0  0
 25 81  1  0  0  0  0
 26 62  2  0  0  0  0
 27 63  1  0  0  0  0
 27 66  1  0  0  0  0
 28 67  1  0  0  0  0
 28 73  2  0  0  0  0
 29 47  1  0  0  0  0
 29 68  1  0  0  0  0
 29 74  2  0  0  0  0
 30 59  1  0  0  0  0
 30 64  1  0  0  0  0
 30 75  2  0  0  0  0
 31 60  1  0  0  0  0
 31 69  1  0  0  0  0
 31 76  2  0  0  0  0
 32 65  1  0  0  0  0
 32 70  1  0  0  0  0
 32 77  2  0  0  0  0
 33 36  1  0  0  0  0
 34 47  1  0  0  0  0
 35 64  1  0  0  0  0
 36 38  1  0  0  0  0
 37 41  1  0  0  0  0
 37 44  1  0  0  0  0
 38 46  1  0  0  0  0
 39 42  1  0  0  0  0
 39 48  1  0  0  0  0
 40 43  1  0  0  0  0
 40 48  1  0  0  0  0
 41 49  1  0  0  0  0
 42 50  1  0  0  0  0
 43 50  1  0  0  0  0
 44 65  1  0  0  0  0
 45 49  1  0  0  0  0
 45 65  1  0  0  0  0
 46 68  1  0  0  0  0
 47 64  1  0  0  0  0
 48 56  1  0  0  0  0
 49 63  1  0  0  0  0
 50 70  1  0  0  0  0
 51 60  1  0  0  0  0
 52 61  1  0  0  0  0
 53 61  1  0  0  0  0
 54 61  1  0  0  0  0
 55 71  1  0  0  0  0
 56 72  1  0  0  0  0
 57 58  1  0  0  0  0
 57 72  1  0  0  0  0
 58 79  1  0  0  0  0
 59 61  1  0  0  0  0
 59 69  1  0  0  0  0
 60 71  1  0  0  0  0
 62 63  1  0  0  0  0
M  CHG  2  71   1  72   1
M  ISO  4  32 100  58 101  70 100  79 101
M  END
> <Batch ID>
0132

> <Smiles>
CNC(C)C(=O)NC(C(=O)N1Cc2cc([101O:1][101CH2:1]CNCC3CCC([100NH:0][100C:0](=O)N4CCCC(n5nc(-c6ccc(Oc7ccc(F)cc7F)cc6)c(C(N)=O)c5N)C4)CC3)ccc2CC1C(=O)NC1CCCc2ccccc21)C(C)(C)C

> <Shape>
0.282

> <Color>
0.093

> <Negative vol penalty>
0.000

$$$$

  -OEChem-04052320523D

 88 97  0     1  0  0  0  0  0999 V2000
  -23.0488  -10.5082   18.7014 C   0  0  0  0  0  0  0  0  0  0  0  0
  -22.3599  -11.7165   18.6736 C   0  0  0  0  0  0  0  0  0  0  0  0
  -18.6523  -23.9273   23.5167 C   0  0  0  0  0  0  0  0  0  0  0  0
  -30.5378  -28.9645   18.9000 C   0  0  0  0  0  0  0  0  0  0  0  0
  -30.5625  -28.1583   21.1774 C   0  0  0  0  0  0  0  0  0  0  0  0
  -24.2140  -10.3886   19.4577 C   0  0  0  0  0  0  0  0  0  0  0  0
  -22.8353  -12.8058   19.4030 C   0  0  0  0  0  0  0  0  0  0  0  0
  -19.5755  -22.8828   23.4866 C   0  0  0  0  0  0  0  0  0  0  0  0
  -23.1718  -19.9578   19.1762 C   0  0  0  0  0  0  0  0  0  0  0  0
  -19.0961  -25.2457   23.5408 C   0  0  0  0  0  0  0  0  0  0  0  0
  -31.7837  -29.5599   19.0972 C   0  0  0  0  0  0  0  0  0  0  0  0
  -31.8084  -28.7536   21.3746 C   0  0  0  0  0  0  0  0  0  0  0  0
  -22.8746  -21.0753   19.9551 C   0  0  0  0  0  0  0  0  0  0  0  0
  -35.0211  -28.5891   19.1937 C   0  0  0  0  0  0  0  0  0  0  0  0
  -35.9845  -28.4214   18.1990 C   0  0  0  0  0  0  0  0  0  0  0  0
  -24.9413  -20.7757   21.1627 C   0  0  0  0  0  0  0  0  0  0  0  0
  -36.0872  -30.8160   17.8949 C   0  0  0  0  0  0  0  0  0  0  0  0
  -29.9272  -28.2637   19.9401 C   0  0  0  0  0  0  0  0  0  0  0  0
  -28.3845  -26.3430   19.2778 C   0  0  0  0  0  0  0  0  0  0  0  0
  -24.7091  -11.4798   20.1890 C   0  0  0  0  0  0  0  0  0  0  0  0
  -20.9545  -23.1451   23.4755 C   0  0  0  0  0  0  0  0  0  0  0  0
  -24.3528  -19.2332   19.3923 C   0  0  0  0  0  0  0  0  0  0  0  0
  -24.0074  -12.7003   20.1709 C   0  0  0  0  0  0  0  0  0  0  0  0
  -25.2524  -19.6509   20.3835 C   0  0  0  0  0  0  0  0  0  0  0  0
  -21.4029  -24.4771   23.5213 C   0  0  0  0  0  0  0  0  0  0  0  0
  -20.4633  -25.5197   23.5404 C   0  0  0  0  0  0  0  0  0  0  0  0
  -32.4190  -29.4545   20.3345 C   0  0  0  0  0  0  0  0  0  0  0  0
  -23.7580  -21.4827   20.9505 C   0  0  0  0  0  0  0  0  0  0  0  0
  -34.5907  -29.8702   19.5390 C   0  0  0  0  0  0  0  0  0  0  0  0
  -36.5176  -29.5348   17.5496 C   0  0  0  0  0  0  0  0  0  0  0  0
  -35.1238  -30.9837   18.8896 C   0  0  0  0  0  0  0  0  0  0  0  0
  -28.6400  -27.6489   19.7371 C   0  0  0  0  0  0  0  0  0  0  0  0
  -27.0145  -26.2472   19.2596 C   0  0  0  0  0  0  0  0  0  0  0  0
  -29.3035  -25.3089   18.9013 C   0  0  0  0  0  0  0  0  0  0  0  0
  -25.0275  -16.2506   20.2596 C   0  0  0  0  0  0  0  0  0  0  0  0
  -25.6823  -25.2182   24.3797 C   0  0  0  0  0  0  0  0  0  0  0  0
  -28.0761  -17.1772   19.6516 C   0  0  0  0  0  0  0  0  0  0  0  0
  -30.3310  -19.7249   19.3832 C   0  0  0  0  0  0  0  0  0  0  0  0
  -22.8348  -29.0431   22.3528 C   0  0  0  0  0  0  0  0  0  0  0  0
  -25.9468  -11.2887   21.0296 C   0  0  0  0  0  0  0  0  0  0  0  0
  -24.6715  -18.0458   18.5258 C   0  0  0  0  0  0  0  0  0  0  0  0
  -21.9166  -21.9806   23.4703 C   0  0  0  0  0  0  0  0  0  0  0  0
  -22.8716  -24.8195   23.4906 C   0  0  0  0  0  0  0  0  0  0  0  0
  -26.5433  -18.9194   20.6419 C   0  0  0  0  0  0  0  0  0  0  0  0
  -26.5887  -12.6000   21.4753 C   0  0  0  0  0  0  0  0  0  0  0  0
  -23.0800  -28.9232   18.7440 C   0  0  0  0  0  0  0  0  0  0  0  0
  -25.5297  -13.5571   22.0132 C   0  0  0  0  0  0  0  0  0  0  0  0
  -24.5234  -28.4539   18.5527 C   0  0  0  0  0  0  0  0  0  0  0  0
  -22.9616  -29.8783   19.9281 C   0  0  0  0  0  0  0  0  0  0  0  0
  -24.9201  -28.8620   21.0257 C   0  0  0  0  0  0  0  0  0  0  0  0
  -24.5050  -13.9118   20.9290 C   0  0  1  0  0  0  0  0  0  0  0  0
  -25.6568  -17.0792   19.1756 C   0  0  1  0  0  0  0  0  0  0  0  0
  -23.7769  -23.6383   23.8745 C   0  0  1  0  0  0  0  0  0  0  0  0
  -25.1023  -27.8759   19.8576 C   0  0  2  0  0  0  0  0  0  0  0  0
  -23.3565  -22.3692   23.1205 C   0  0  2  0  0  0  0  0  0  1  0  0
  -26.7703  -26.0378   23.7357 C   0  0  0  0  0  0  0  0  0  0  0  0
  -32.7555  -20.1681   18.9115 C   0  0  0  0  0  0  0  0  0  0  0  0
  -28.7951  -16.2164   22.4569 C   0  0  0  0  0  0  0  0  0  0  0  0
  -30.9244  -17.5217   22.2828 C   0  0  0  0  0  0  0  0  0  0  0  0
  -30.4783  -15.6488   20.6965 C   0  0  0  0  0  0  0  0  0  0  0  0
  -29.6885  -21.3564   16.9990 C   0  0  0  0  0  0  0  0  0  0  0  0
  -25.2416  -23.9918   23.6110 C   0  0  0  0  0  0  0  0  0  0  0  0
  -19.9452  -27.9603   23.5608 C   0  0  0  0  0  0  0  0  0  0  0  0
  -20.6791  -29.2927   23.5561 C   0  0  0  0  0  0  0  0  0  0  0  0
  -29.1835  -17.8076   20.4611 C   0  0  1  0  0  0  0  0  0  0  0  0
  -31.3609  -20.0503   18.3166 C   0  0  2  0  0  0  0  0  0  0  0  0
  -29.8202  -16.8115   21.4710 C   0  0  0  0  0  0  0  0  0  0  0  0
  -27.5219  -28.3337   19.9922 N   0  0  0  0  0  0  0  0  0  0  0  0
  -26.5507  -27.4547   19.6920 N   0  0  0  0  0  0  0  0  0  0  0  0
  -26.8071  -17.7609   19.7725 N   0  0  0  0  0  0  0  0  0  0  0  0
  -23.5134  -29.2606   21.1422 N   0  0  0  0  0  0  0  0  0  0  0  0
  -26.1734  -25.2487   18.9161 N   0  0  0  0  0  0  0  0  0  0  0  0
  -30.6774  -25.5749   18.9797 N   0  0  0  0  0  0  0  0  0  0  0  0
  -20.8721  -26.8747   23.5504 N   0  0  0  0  0  0  0  0  0  0  0  0
  -25.0541  -14.8907   20.0154 N   0  0  0  0  0  0  0  0  0  0  0  0
  -30.1262  -18.3661   19.4979 N   0  0  0  0  0  0  0  0  0  0  0  0
  -21.5082  -29.4555   22.3826 N   0  0  0  0  0  0  0  0  0  0  0  0
  -31.0247  -21.3391   17.6480 N   0  3  0  0  0  0  0  0  0  0  0  0
  -28.9177  -24.1879   18.4913 O   0  0  0  0  0  0  0  0  0  0  0  0
  -24.5543  -16.8039   21.2453 O   0  0  0  0  0  0  0  0  0  0  0  0
  -25.1987  -25.5456   25.4623 O   0  0  0  0  0  0  0  0  0  0  0  0
  -28.3293  -16.2073   18.9327 O   0  0  0  0  0  0  0  0  0  0  0  0
  -29.7674  -20.5894   20.0508 O   0  0  0  0  0  0  0  0  0  0  0  0
  -23.3700  -28.5152   23.3335 O   0  0  0  0  0  0  0  0  0  0  0  0
  -33.6348  -30.0351   20.5272 O   0  0  0  0  0  0  0  0  0  0  0  0
  -23.4701  -22.5727   21.7126 O   0  0  0  0  0  0  0  0  0  1  0  0
  -37.4438  -29.3737   16.5955 F   0  0  0  0  0  0  0  0  0  0  0  0
  -34.7152  -32.2170   19.2178 F   0  0  0  0  0  0  0  0  0  0  0  0
  1  2  1  0  0  0  0
  1  6  2  0  0  0  0
  2  7  2  0  0  0  0
  3  8  2  0  0  0  0
  3 10  1  0  0  0  0
  4 11  2  0  0  0  0
  4 18  1  0  0  0  0
  5 12  1  0  0  0  0
  5 18  2  0  0  0  0
  6 20  1  0  0  0  0
  7 23  1  0  0  0  0
  8 21  1  0  0  0  0
  9 13  2  0  0  0  0
  9 22  1  0  0  0  0
 10 26  2  0  0  0  0
 11 27  1  0  0  0  0
 12 27  2  0  0  0  0
 13 28  1  0  0  0  0
 14 15  2  0  0  0  0
 14 29  1  0  0  0  0
 15 30  1  0  0  0  0
 16 24  1  0  0  0  0
 16 28  2  0  0  0  0
 17 30  2  0  0  0  0
 17 31  1  0  0  0  0
 18 32  1  0  0  0  0
 19 32  1  0  0  0  0
 19 33  2  0  0  0  0
 19 34  1  0  0  0  0
 20 23  2  0  0  0  0
 20 40  1  0  0  0  0
 21 25  2  0  0  0  0
 21 42  1  0  0  0  0
 22 24  2  0  0  0  0
 22 41  1  0  0  0  0
 23 51  1  0  0  0  0
 24 44  1  0  0  0  0
 25 26  1  0  0  0  0
 25 43  1  0  0  0  0
 26 74  1  0  0  0  0
 27 85  1  0  0  0  0
 28 86  1  0  0  0  0
 29 31  2  0  0  0  0
 29 85  1  0  0  0  0
 30 87  1  0  0  0  0
 31 88  1  0  0  0  0
 32 68  2  0  0  0  0
 33 69  1  0  0  0  0
 33 72  1  0  0  0  0
 34 73  1  0  0  0  0
 34 79  2  0  0  0  0
 35 52  1  0  0  0  0
 35 75  1  0  0  0  0
 35 80  2  0  0  0  0
 36 56  1  0  0  0  0
 36 62  1  0  0  0  0
 36 81  2  0  0  0  0
 37 65  1  0  0  0  0
 37 70  1  0  0  0  0
 37 82  2  0  0  0  0
 38 66  1  0  0  0  0
 38 76  1  0  0  0  0
 38 83  2  0  0  0  0
 39 71  1  0  0  0  0
 39 77  1  0  0  0  0
 39 84  2  0  0  0  0
 40 45  1  0  0  0  0
 41 52  1  0  0  0  0
 42 55  1  0  0  0  0
 43 53  1  0  0  0  0
 44 70  1  0  0  0  0
 45 47  1  0  0  0  0
 46 48  1  0  0  0  0
 46 49  1  0  0  0  0
 47 51  1  0  0  0  0
 48 54  1  0  0  0  0
 49 71  1  0  0  0  0
 50 54  1  0  0  0  0
 50 71  1  0  0  0  0
 51 75  1  0  0  0  0
 52 70  1  0  0  0  0
 53 55  1  0  0  0  0
 53 62  1  0  0  0  0
 54 69  1  0  0  0  0
 55 86  1  0  0  0  0
 57 66  1  0  0  0  0
 58 67  1  0  0  0  0
 59 67  1  0  0  0  0
 60 67  1  0  0  0  0
 61 78  1  0  0  0  0
 63 64  1  0  0  0  0
 63 74  1  0  0  0  0
 64 77  1  0  0  0  0
 65 67  1  0  0  0  0
 65 76  1  0  0  0  0
 66 78  1  0  0  0  0
 68 69  1  0  0  0  0
M  CHG  1  78   1
M  ISO  4  39 100  55 101  77 100  86 101
M  END
> <Batch ID>
0132

> <Smiles>
CNC(C)C(=O)NC(C(=O)N1Cc2cc([101O:1][101CH:1]3Cc4cccc(NCC[100NH:0][100C:0](=O)N5CCCC(n6nc(-c7ccc(Oc8ccc(F)cc8F)cc7)c(C(N)=O)c6N)C5)c4CC3CC(C)=O)ccc2CC1C(=O)NC1CCCc2ccccc21)C(C)(C)C

> <Shape>
0.208

> <Color>
0.089

> <Negative vol penalty>
0.000

$$$$

  -OEChem-04052320523D

 83 92  0     1  0  0  0  0  0999 V2000
  -19.6713  -12.4169   22.9743 C   0  0  0  0  0  0  0  0  0  0  0  0
  -20.7705  -13.2499   23.1572 C   0  0  0  0  0  0  0  0  0  0  0  0
  -22.1735  -28.8131   21.4534 C   0  0  0  0  0  0  0  0  0  0  0  0
  -23.2839  -28.2656   23.5281 C   0  0  0  0  0  0  0  0  0  0  0  0
  -19.8227  -11.2010   22.3090 C   0  0  0  0  0  0  0  0  0  0  0  0
  -22.0219  -12.8669   22.6759 C   0  0  0  0  0  0  0  0  0  0  0  0
  -24.4297  -16.6396   20.3064 C   0  0  0  0  0  0  0  0  0  0  0  0
  -29.2001  -19.1912   24.5544 C   0  0  0  0  0  0  0  0  0  0  0  0
  -29.6355  -20.2032   25.4143 C   0  0  0  0  0  0  0  0  0  0  0  0
  -20.9491  -28.4462   22.0118 C   0  0  0  0  0  0  0  0  0  0  0  0
  -22.0595  -27.8987   24.0866 C   0  0  0  0  0  0  0  0  0  0  0  0
  -25.0404  -17.6058   21.1046 C   0  0  0  0  0  0  0  0  0  0  0  0
  -18.6655  -29.7921   24.1110 C   0  0  0  0  0  0  0  0  0  0  0  0
  -17.5775  -30.6395   23.9016 C   0  0  0  0  0  0  0  0  0  0  0  0
  -29.0019  -20.7736   22.7192 C   0  0  0  0  0  0  0  0  0  0  0  0
  -27.1721  -16.5281   20.7675 C   0  0  0  0  0  0  0  0  0  0  0  0
  -16.3923  -28.8457   22.7995 C   0  0  0  0  0  0  0  0  0  0  0  0
  -23.3409  -28.7228   22.2115 C   0  0  0  0  0  0  0  0  0  0  0  0
  -25.2011  -30.3768   21.6534 C   0  0  0  0  0  0  0  0  0  0  0  0
  -21.0746  -10.8074   21.8107 C   0  0  0  0  0  0  0  0  0  0  0  0
  -25.1851  -15.6024   19.7407 C   0  0  0  0  0  0  0  0  0  0  0  0
  -22.1904  -11.6440   22.0044 C   0  0  0  0  0  0  0  0  0  0  0  0
  -29.4314  -21.7670   23.5832 C   0  0  0  0  0  0  0  0  0  0  0  0
  -26.5690  -15.5515   19.9604 C   0  0  0  0  0  0  0  0  0  0  0  0
  -28.8816  -19.4753   23.2171 C   0  0  0  0  0  0  0  0  0  0  0  0
  -29.7247  -21.4937   24.9221 C   0  0  0  0  0  0  0  0  0  0  0  0
  -20.8921  -27.9890   23.3284 C   0  0  0  0  0  0  0  0  0  0  0  0
  -26.4114  -17.5485   21.3377 C   0  0  0  0  0  0  0  0  0  0  0  0
  -18.6169  -28.4714   23.6645 C   0  0  0  0  0  0  0  0  0  0  0  0
  -16.4410  -30.1663   23.2459 C   0  0  0  0  0  0  0  0  0  0  0  0
  -17.4803  -27.9983   23.0088 C   0  0  0  0  0  0  0  0  0  0  0  0
  -24.6061  -29.1011   21.6350 C   0  0  0  0  0  0  0  0  0  0  0  0
  -26.3854  -30.2130   20.9773 C   0  0  0  0  0  0  0  0  0  0  0  0
  -24.7258  -31.6004   22.2301 C   0  0  0  0  0  0  0  0  0  0  0  0
  -25.1879  -12.4338   19.9935 C   0  0  0  0  0  0  0  0  0  0  0  0
  -27.3971  -12.6365   17.6268 C   0  0  0  0  0  0  0  0  0  0  0  0
  -29.7627  -14.5022   16.0238 C   0  0  0  0  0  0  0  0  0  0  0  0
  -29.8987  -25.4644   19.9984 C   0  0  0  0  0  0  0  0  0  0  0  0
  -21.1987   -9.4624   21.1397 C   0  0  0  0  0  0  0  0  0  0  0  0
  -24.5156  -14.5832   18.8602 C   0  0  0  0  0  0  0  0  0  0  0  0
  -27.4281  -14.4700   19.3596 C   0  0  0  0  0  0  0  0  0  0  0  0
  -22.4833   -9.3013   20.3309 C   0  0  0  0  0  0  0  0  0  0  0  0
  -28.4002  -27.5615   17.5421 C   0  0  0  0  0  0  0  0  0  0  0  0
  -23.6852   -9.7846   21.1362 C   0  0  0  0  0  0  0  0  0  0  0  0
  -27.3116  -28.3090   18.3142 C   0  0  0  0  0  0  0  0  0  0  0  0
  -28.5489  -26.1214   18.0279 C   0  0  0  0  0  0  0  0  0  0  0  0
  -29.9103  -23.7668   24.7382 C   0  0  0  0  0  0  0  0  0  0  0  0
  -27.6749  -26.7241   20.2519 C   0  0  0  0  0  0  0  0  0  0  0  0
  -29.6872  -23.2189   23.3032 C   0  0  1  0  0  0  0  0  0  0  0  0
  -23.5591  -11.2749   21.4749 C   0  0  1  0  0  0  0  0  0  0  0  0
  -25.2983  -13.2779   18.7553 C   0  0  1  0  0  0  0  0  0  0  0  0
  -27.5262  -28.1975   19.8356 C   0  0  2  0  0  0  0  0  0  0  0  0
  -31.4279  -14.3842   14.1501 C   0  0  0  0  0  0  0  0  0  0  0  0
  -29.2437  -10.9524   19.3772 C   0  0  0  0  0  0  0  0  0  0  0  0
  -31.1541  -11.6609   17.9224 C   0  0  0  0  0  0  0  0  0  0  0  0
  -29.2688  -10.3479   16.9506 C   0  0  0  0  0  0  0  0  0  0  0  0
  -28.4439  -16.7092   14.5580 C   0  0  0  0  0  0  0  0  0  0  0  0
  -28.4182  -18.3705   22.3138 C   0  0  0  0  0  0  0  0  0  1  0  0
  -30.9076  -23.4228   22.4129 C   0  0  0  0  0  0  0  0  0  0  0  0
  -31.1441  -24.8873   22.0660 C   0  0  0  0  0  0  0  0  0  0  0  0
  -28.8999  -12.7697   17.5758 C   0  0  1  0  0  0  0  0  0  0  0  0
  -30.0103  -14.7637   14.5491 C   0  0  2  0  0  0  0  0  0  0  0  0
  -29.6254  -11.4521   17.9696 C   0  0  0  0  0  0  0  0  0  0  0  0
  -25.3508  -28.1939   20.9976 N   0  0  0  0  0  0  0  0  0  0  0  0
  -26.4260  -28.9004   20.6091 N   0  0  0  0  0  0  0  0  0  0  0  0
  -30.1857  -22.6213   25.5983 N   0  0  0  0  0  0  0  0  0  0  0  0
  -26.7260  -13.4930   18.5111 N   0  0  0  0  0  0  0  0  0  0  0  0
  -28.7513  -26.0856   19.4783 N   0  0  0  0  0  0  0  0  0  0  0  0
  -27.3856  -31.0652   20.6677 N   0  0  0  0  0  0  0  0  0  0  0  0
  -23.4889  -31.5923   22.8891 N   0  0  0  0  0  0  0  0  0  0  0  0
  -23.8920  -12.0850   20.3229 N   0  0  0  0  0  0  0  0  0  0  0  0
  -29.2217  -13.2519   16.2370 N   0  0  0  0  0  0  0  0  0  0  0  0
  -30.0162  -25.4805   21.3828 N   0  0  0  0  0  0  0  0  0  0  0  0
  -29.8045  -16.2063   14.2372 N   0  3  0  0  0  0  0  0  0  0  0  0
  -25.3711  -32.6731   22.1487 O   0  0  0  0  0  0  0  0  0  0  0  0
  -26.2033  -12.1209   20.6039 O   0  0  0  0  0  0  0  0  0  0  0  0
  -26.8385  -11.8081   16.9034 O   0  0  0  0  0  0  0  0  0  0  0  0
  -30.0265  -15.3233   16.8994 O   0  0  0  0  0  0  0  0  0  0  0  0
  -30.7575  -24.9392   19.2818 O   0  0  0  0  0  0  0  0  0  0  0  0
  -19.6975  -27.6311   23.8738 O   0  0  0  0  0  0  0  0  0  0  0  0
  -27.0099  -18.4900   22.1170 O   0  0  0  0  0  0  0  0  0  1  0  0
  -15.3957  -30.9798   23.0464 F   0  0  0  0  0  0  0  0  0  0  0  0
  -17.4274  -26.7302   22.5787 F   0  0  0  0  0  0  0  0  0  0  0  0
  1  2  1  0  0  0  0
  1  5  2  0  0  0  0
  2  6  2  0  0  0  0
  3 10  2  0  0  0  0
  3 18  1  0  0  0  0
  4 11  1  0  0  0  0
  4 18  2  0  0  0  0
  5 20  1  0  0  0  0
  6 22  1  0  0  0  0
  7 12  2  0  0  0  0
  7 21  1  0  0  0  0
  8  9  2  0  0  0  0
  8 25  1  0  0  0  0
  9 26  1  0  0  0  0
 10 27  1  0  0  0  0
 11 27  2  0  0  0  0
 12 28  1  0  0  0  0
 13 14  2  0  0  0  0
 13 29  1  0  0  0  0
 14 30  1  0  0  0  0
 15 23  1  0  0  0  0
 15 25  2  0  0  0  0
 16 24  1  0  0  0  0
 16 28  2  0  0  0  0
 17 30  2  0  0  0  0
 17 31  1  0  0  0  0
 18 32  1  0  0  0  0
 19 32  1  0  0  0  0
 19 33  2  0  0  0  0
 19 34  1  0  0  0  0
 20 22  2  0  0  0  0
 20 39  1  0  0  0  0
 21 24  2  0  0  0  0
 21 40  1  0  0  0  0
 22 50  1  0  0  0  0
 23 26  2  0  0  0  0
 23 49  1  0  0  0  0
 24 41  1  0  0  0  0
 25 58  1  0  0  0  0
 26 66  1  0  0  0  0
 27 80  1  0  0  0  0
 28 81  1  0  0  0  0
 29 31  2  0  0  0  0
 29 80  1  0  0  0  0
 30 82  1  0  0  0  0
 31 83  1  0  0  0  0
 32 64  2  0  0  0  0
 33 65  1  0  0  0  0
 33 69  1  0  0  0  0
 34 70  1  0  0  0  0
 34 75  2  0  0  0  0
 35 51  1  0  0  0  0
 35 71  1  0  0  0  0
 35 76  2  0  0  0  0
 36 61  1  0  0  0  0
 36 67  1  0  0  0  0
 36 77  2  0  0  0  0
 37 62  1  0  0  0  0
 37 72  1  0  0  0  0
 37 78  2  0  0  0  0
 38 68  1  0  0  0  0
 38 73  1  0  0  0  0
 38 79  2  0  0  0  0
 39 42  1  0  0  0  0
 40 51  1  0  0  0  0
 41 67  1  0  0  0  0
 42 44  1  0  0  0  0
 43 45  1  0  0  0  0
 43 46  1  0  0  0  0
 44 50  1  0  0  0  0
 45 52  1  0  0  0  0
 46 68  1  0  0  0  0
 47 49  1  0  0  0  0
 47 66  1  0  0  0  0
 48 52  1  0  0  0  0
 48 68  1  0  0  0  0
 49 59  1  0  0  0  0
 50 71  1  0  0  0  0
 51 67  1  0  0  0  0
 52 65  1  0  0  0  0
 53 62  1  0  0  0  0
 54 63  1  0  0  0  0
 55 63  1  0  0  0  0
 56 63  1  0  0  0  0
 57 74  1  0  0  0  0
 58 81  1  0  0  0  0
 59 60  1  0  0  0  0
 60 73  1  0  0  0  0
 61 63  1  0  0  0  0
 61 72  1  0  0  0  0
 62 74  1  0  0  0  0
 64 65  1  0  0  0  0
M  CHG  1  74   1
M  ISO  4  38 100  58 101  73 100  81 101
M  END
> <Batch ID>
0132

> <Smiles>
CNC(C)C(=O)NC(C(=O)N1Cc2cc([101O:1][101CH2:1]c3ccc4c(c3)C(CC[100NH:0][100C:0](=O)N3CCCC(n5nc(-c6ccc(Oc7ccc(F)cc7F)cc6)c(C(N)=O)c5N)C3)CN4)ccc2CC1C(=O)NC1CCCc2ccccc21)C(C)(C)C

> <Shape>
0.267

> <Color>
0.056

> <Negative vol penalty>
0.000

$$$$

  -OEChem-04052320523D

 86 95  0     1  0  0  0  0  0999 V2000
  -23.8363  -30.9099   18.7598 C   0  0  0  0  0  0  0  0  0  0  0  0
  -22.9622  -29.8283   18.7193 C   0  0  0  0  0  0  0  0  0  0  0  0
  -28.5617  -19.2154   22.3322 C   0  0  0  0  0  0  0  0  0  0  0  0
  -29.1737  -19.0771   19.9991 C   0  0  0  0  0  0  0  0  0  0  0  0
  -25.1301  -30.7411   19.2512 C   0  0  0  0  0  0  0  0  0  0  0  0
  -23.3819  -28.5770   19.1692 C   0  0  0  0  0  0  0  0  0  0  0  0
  -20.8978  -22.6820   22.3934 C   0  0  0  0  0  0  0  0  0  0  0  0
  -22.5832  -12.9736   22.8744 C   0  0  0  0  0  0  0  0  0  0  0  0
  -28.1130  -20.5216   22.1371 C   0  0  0  0  0  0  0  0  0  0  0  0
  -28.7250  -20.3834   19.8040 C   0  0  0  0  0  0  0  0  0  0  0  0
  -20.8639  -21.2979   22.2296 C   0  0  0  0  0  0  0  0  0  0  0  0
  -29.8551  -23.5177   20.3778 C   0  0  0  0  0  0  0  0  0  0  0  0
  -30.6655  -24.3774   19.6363 C   0  0  0  0  0  0  0  0  0  0  0  0
  -22.1333  -14.2845   22.9865 C   0  0  0  0  0  0  0  0  0  0  0  0
  -23.0959  -21.1425   23.1313 C   0  0  0  0  0  0  0  0  0  0  0  0
  -28.8858  -24.6681   18.0284 C   0  0  0  0  0  0  0  0  0  0  0  0
  -29.0922  -18.4931   21.2632 C   0  0  0  0  0  0  0  0  0  0  0  0
  -30.5748  -16.7166   22.3370 C   0  0  0  0  0  0  0  0  0  0  0  0
  -25.5627  -29.4893   19.7163 C   0  0  0  0  0  0  0  0  0  0  0  0
  -22.0372  -23.3089   22.9181 C   0  0  0  0  0  0  0  0  0  0  0  0
  -24.6832  -28.3910   19.6661 C   0  0  0  0  0  0  0  0  0  0  0  0
  -23.1408  -22.5345   23.3031 C   0  0  0  0  0  0  0  0  0  0  0  0
  -23.0600  -12.5101   21.6533 C   0  0  0  0  0  0  0  0  0  0  0  0
  -28.1946  -21.1056   20.8730 C   0  0  0  0  0  0  0  0  0  0  0  0
  -21.9641  -20.5282   22.5958 C   0  0  0  0  0  0  0  0  0  0  0  0
  -28.5601  -23.2331   19.9446 C   0  0  0  0  0  0  0  0  0  0  0  0
  -30.1808  -24.9527   18.4616 C   0  0  0  0  0  0  0  0  0  0  0  0
  -28.0755  -23.8084   18.7699 C   0  0  0  0  0  0  0  0  0  0  0  0
  -29.5564  -17.1440   21.4642 C   0  0  0  0  0  0  0  0  0  0  0  0
  -23.0660  -13.3902   20.5831 C   0  0  0  0  0  0  0  0  0  0  0  0
  -22.1810  -15.0852   21.8567 C   0  0  0  0  0  0  0  0  0  0  0  0
  -30.6318  -15.3560   22.1581 C   0  0  0  0  0  0  0  0  0  0  0  0
  -31.3959  -17.4811   23.2298 C   0  0  0  0  0  0  0  0  0  0  0  0
  -24.1193  -25.4512   21.8323 C   0  0  0  0  0  0  0  0  0  0  0  0
  -25.2525  -25.3127   24.8686 C   0  0  0  0  0  0  0  0  0  0  0  0
  -25.5580  -23.5402   27.7690 C   0  0  0  0  0  0  0  0  0  0  0  0
  -26.6250  -11.3178   20.2902 C   0  0  0  0  0  0  0  0  0  0  0  0
  -26.9857  -29.3447   20.1947 C   0  0  0  0  0  0  0  0  0  0  0  0
  -22.0478  -24.8003   23.1134 C   0  0  0  0  0  0  0  0  0  0  0  0
  -24.3804  -23.1569   23.8901 C   0  0  0  0  0  0  0  0  0  0  0  0
  -27.2311  -28.0717   21.0005 C   0  0  0  0  0  0  0  0  0  0  0  0
  -23.1929  -12.7830   17.0381 C   0  0  0  0  0  0  0  0  0  0  0  0
  -29.8237  -11.9745   18.8712 C   0  0  0  0  0  0  0  0  0  0  0  0
  -26.6134  -26.8673   20.2972 C   0  0  0  0  0  0  0  0  0  0  0  0
  -22.7487  -11.9947   18.2849 C   0  0  0  0  0  0  0  0  0  0  0  0
  -23.3451  -14.0066   17.9621 C   0  0  0  0  0  0  0  0  0  0  0  0
  -30.2098  -13.3353   19.4536 C   0  0  0  0  0  0  0  0  0  0  0  0
  -28.3266  -11.8884   18.5827 C   0  0  0  0  0  0  0  0  0  0  0  0
  -27.8417  -13.5796   20.3085 C   0  0  0  0  0  0  0  0  0  0  0  0
  -25.0934  -27.0236   20.1681 C   0  0  1  0  0  0  0  0  0  0  0  0
  -23.5773  -13.0056   19.1342 C   0  0  0  0  0  0  0  0  0  0  0  0
  -23.4557  -25.3843   23.1787 C   0  0  1  0  0  0  0  0  0  0  0  0
  -29.3329  -13.6947   20.6682 C   0  0  2  0  0  0  0  0  0  0  0  0
  -26.5715  -23.6723   30.0608 C   0  0  0  0  0  0  0  0  0  0  0  0
  -28.0040  -24.7369   23.6823 C   0  0  0  0  0  0  0  0  0  0  0  0
  -28.7380  -23.9527   25.9439 C   0  0  0  0  0  0  0  0  0  0  0  0
  -28.0135  -26.3176   25.6203 C   0  0  0  0  0  0  0  0  0  0  0  0
  -22.9113  -23.3369   29.0777 C   0  0  0  0  0  0  0  0  0  0  0  0
  -23.5444  -11.1094   21.5163 C   0  0  0  0  0  0  0  0  0  0  0  0
  -24.9560  -10.8869   22.0757 C   0  0  0  0  0  0  0  0  0  0  0  0
  -21.7138  -17.3406   20.8972 C   0  0  0  0  0  0  0  0  0  0  0  0
  -21.1397  -18.6670   21.3661 C   0  0  0  0  0  0  0  0  0  1  0  0
  -26.2821  -24.4755   25.5883 C   0  0  1  0  0  0  0  0  0  0  0  0
  -25.3328  -23.9330   29.2179 C   0  0  2  0  0  0  0  0  0  0  0  0
  -27.7370  -24.8588   25.1959 C   0  0  0  0  0  0  0  0  0  0  0  0
  -29.0061  -16.1366   20.7813 N   0  0  0  0  0  0  0  0  0  0  0  0
  -22.6373  -14.6703   20.6536 N   0  0  0  0  0  0  0  0  0  0  0  0
  -29.6813  -15.0626   21.2250 N   0  0  0  0  0  0  0  0  0  0  0  0
  -24.3447  -24.6194   24.0555 N   0  0  0  0  0  0  0  0  0  0  0  0
  -27.5515  -12.2394   19.7752 N   0  0  0  0  0  0  0  0  0  0  0  0
  -31.4018  -14.3939   22.7094 N   0  0  0  0  0  0  0  0  0  0  0  0
  -32.6104  -17.9901   22.7500 N   0  0  0  0  0  0  0  0  0  0  0  0
  -21.7270  -16.3875   21.9833 N   0  0  0  0  0  0  0  0  0  0  0  0
  -24.4463  -26.7319   21.4293 N   0  0  0  0  0  0  0  0  0  0  0  0
  -25.9928  -24.6076   27.0121 N   0  0  0  0  0  0  0  0  0  0  0  0
  -25.9372  -11.7272   21.4260 N   0  0  0  0  0  0  0  0  0  0  0  0
  -24.1996  -23.1561   29.7951 N   0  3  0  0  0  0  0  0  0  0  0  0
  -31.0701  -17.6923   24.4226 O   0  0  0  0  0  0  0  0  0  0  0  0
  -24.3212  -24.4173   21.2062 O   0  0  0  0  0  0  0  0  0  0  0  0
  -25.2490  -26.5359   25.0279 O   0  0  0  0  0  0  0  0  0  0  0  0
  -25.3707  -22.3997   27.3511 O   0  0  0  0  0  0  0  0  0  0  0  0
  -26.4294  -10.2099   19.7790 O   0  0  0  0  0  0  0  0  0  0  0  0
  -27.7566  -22.3800   20.6822 O   0  0  0  0  0  0  0  0  0  0  0  0
  -21.9338  -19.1771   22.4364 O   0  0  0  0  0  0  0  0  0  1  0  0
  -30.9586  -25.7794   17.7505 F   0  0  0  0  0  0  0  0  0  0  0  0
  -26.8318  -23.5397   18.3493 F   0  0  0  0  0  0  0  0  0  0  0  0
  1  2  1  0  0  0  0
  1  5  2  0  0  0  0
  2  6  2  0  0  0  0
  3  9  2  0  0  0  0
  3 17  1  0  0  0  0
  4 10  1  0  0  0  0
  4 17  2  0  0  0  0
  5 19  1  0  0  0  0
  6 21  1  0  0  0  0
  7 11  2  0  0  0  0
  7 20  1  0  0  0  0
  8 14  2  0  0  0  0
  8 23  1  0  0  0  0
  9 24  1  0  0  0  0
 10 24  2  0  0  0  0
 11 25  1  0  0  0  0
 12 13  2  0  0  0  0
 12 26  1  0  0  0  0
 13 27  1  0  0  0  0
 14 31  1  0  0  0  0
 15 22  1  0  0  0  0
 15 25  2  0  0  0  0
 16 27  2  0  0  0  0
 16 28  1  0  0  0  0
 17 29  1  0  0  0  0
 18 29  1  0  0  0  0
 18 32  2  0  0  0  0
 18 33  1  0  0  0  0
 19 21  2  0  0  0  0
 19 38  1  0  0  0  0
 20 22  2  0  0  0  0
 20 39  1  0  0  0  0
 21 50  1  0  0  0  0
 22 40  1  0  0  0  0
 23 30  2  0  0  0  0
 23 59  1  0  0  0  0
 24 83  1  0  0  0  0
 25 84  1  0  0  0  0
 26 28  2  0  0  0  0
 26 83  1  0  0  0  0
 27 85  1  0  0  0  0
 28 86  1  0  0  0  0
 29 66  2  0  0  0  0
 30 51  1  0  0  0  0
 30 67  1  0  0  0  0
 31 67  2  0  0  0  0
 31 73  1  0  0  0  0
 32 68  1  0  0  0  0
 32 71  1  0  0  0  0
 33 72  1  0  0  0  0
 33 78  2  0  0  0  0
 34 52  1  0  0  0  0
 34 74  1  0  0  0  0
 34 79  2  0  0  0  0
 35 63  1  0  0  0  0
 35 69  1  0  0  0  0
 35 80  2  0  0  0  0
 36 64  1  0  0  0  0
 36 75  1  0  0  0  0
 36 81  2  0  0  0  0
 37 70  1  0  0  0  0
 37 76  1  0  0  0  0
 37 82  2  0  0  0  0
 38 41  1  0  0  0  0
 39 52  1  0  0  0  0
 40 69  1  0  0  0  0
 41 44  1  0  0  0  0
 42 45  1  0  0  0  0
 42 46  1  0  0  0  0
 43 47  1  0  0  0  0
 43 48  1  0  0  0  0
 44 50  1  0  0  0  0
 45 51  1  0  0  0  0
 46 51  1  0  0  0  0
 47 53  1  0  0  0  0
 48 70  1  0  0  0  0
 49 53  1  0  0  0  0
 49 70  1  0  0  0  0
 50 74  1  0  0  0  0
 52 69  1  0  0  0  0
 53 68  1  0  0  0  0
 54 64  1  0  0  0  0
 55 65  1  0  0  0  0
 56 65  1  0  0  0  0
 57 65  1  0  0  0  0
 58 77  1  0  0  0  0
 59 60  1  0  0  0  0
 60 76  1  0  0  0  0
 61 62  1  0  0  0  0
 61 73  1  0  0  0  0
 62 84  1  0  0  0  0
 63 65  1  0  0  0  0
 63 75  1  0  0  0  0
 64 77  1  0  0  0  0
 66 68  1  0  0  0  0
M  CHG  1  77   1
M  ISO  4  37 100  62 101  76 100  84 101
M  END
> <Batch ID>
0132

> <Smiles>
CNC(C)C(=O)NC(C(=O)N1Cc2cc([101O:1][101CH2:1]CNc3ccc(CC[100NH:0][100C:0](=O)N4CCCC(n5nc(-c6ccc(Oc7ccc(F)cc7F)cc6)c(C(N)=O)c5N)C4)c(C4CCC4)n3)ccc2CC1C(=O)NC1CCCc2ccccc21)C(C)(C)C

> <Shape>
0.222

> <Color>
0.055

> <Negative vol penalty>
0.000

$$$$

  -OEChem-04052320523D

 86 94  0     1  0  0  0  0  0999 V2000
  -19.3789  -14.9176   23.7699 C   0  0  0  0  0  0  0  0  0  0  0  0
  -19.5194  -13.5645   24.0613 C   0  0  0  0  0  0  0  0  0  0  0  0
  -23.2886   -9.7995   19.9124 C   0  0  0  0  0  0  0  0  0  0  0  0
  -23.7387   -9.9397   22.2820 C   0  0  0  0  0  0  0  0  0  0  0  0
  -29.8166   -6.5564   25.3511 C   0  0  0  0  0  0  0  0  0  0  0  0
  -29.5084   -7.8621   27.3603 C   0  0  0  0  0  0  0  0  0  0  0  0
  -20.3714  -15.8187   24.1529 C   0  0  0  0  0  0  0  0  0  0  0  0
  -20.6531  -13.1116   24.7351 C   0  0  0  0  0  0  0  0  0  0  0  0
  -22.7338   -8.1190   29.4320 C   0  0  0  0  0  0  0  0  0  0  0  0
  -30.7453   -7.4883   24.8879 C   0  0  0  0  0  0  0  0  0  0  0  0
  -30.4373   -8.7941   26.8971 C   0  0  0  0  0  0  0  0  0  0  0  0
  -22.5621   -8.6270   20.1197 C   0  0  0  0  0  0  0  0  0  0  0  0
  -23.0121   -8.7672   22.4893 C   0  0  0  0  0  0  0  0  0  0  0  0
  -23.6925   -7.1186   29.5866 C   0  0  0  0  0  0  0  0  0  0  0  0
  -19.7650   -7.8562   22.7055 C   0  0  0  0  0  0  0  0  0  0  0  0
  -18.8623   -7.8344   23.7686 C   0  0  0  0  0  0  0  0  0  0  0  0
  -25.3051   -8.7777   30.2693 C   0  0  0  0  0  0  0  0  0  0  0  0
  -20.0676   -5.9869   24.7541 C   0  0  0  0  0  0  0  0  0  0  0  0
  -23.8770  -10.4559   20.9935 C   0  0  0  0  0  0  0  0  0  0  0  0
  -29.1981   -6.7433   26.5873 C   0  0  0  0  0  0  0  0  0  0  0  0
  -24.1366  -12.9859   20.7955 C   0  0  0  0  0  0  0  0  0  0  0  0
  -21.5134  -15.3780   24.8403 C   0  0  0  0  0  0  0  0  0  0  0  0
  -23.0572   -9.4599   29.6849 C   0  0  0  0  0  0  0  0  0  0  0  0
  -21.6625  -14.0075   25.1266 C   0  0  0  0  0  0  0  0  0  0  0  0
  -24.3480   -9.7929   30.1197 C   0  0  0  0  0  0  0  0  0  0  0  0
  -31.0557   -8.6071   25.6609 C   0  0  0  0  0  0  0  0  0  0  0  0
  -22.4239   -8.1108   21.4081 C   0  0  0  0  0  0  0  0  0  0  0  0
  -24.9791   -7.4482   30.0025 C   0  0  0  0  0  0  0  0  0  0  0  0
  -20.8190   -6.9434   22.6666 C   0  0  0  0  0  0  0  0  0  0  0  0
  -19.0136   -6.8998   24.7929 C   0  0  0  0  0  0  0  0  0  0  0  0
  -20.9703   -6.0088   23.6909 C   0  0  0  0  0  0  0  0  0  0  0  0
  -24.6280  -11.6668   20.7800 C   0  0  0  0  0  0  0  0  0  0  0  0
  -25.2382  -13.7658   20.5410 C   0  0  0  0  0  0  0  0  0  0  0  0
  -28.2091   -5.7512   27.0818 C   0  0  0  0  0  0  0  0  0  0  0  0
  -22.8035  -13.4635   21.0200 C   0  0  0  0  0  0  0  0  0  0  0  0
  -23.1299  -12.1170   27.9418 C   0  0  0  0  0  0  0  0  0  0  0  0
  -23.7647  -13.5109   30.8012 C   0  0  0  0  0  0  0  0  0  0  0  0
  -24.9676  -13.1876   33.9785 C   0  0  0  0  0  0  0  0  0  0  0  0
  -31.1089  -12.9223   21.3623 C   0  0  0  0  0  0  0  0  0  0  0  0
  -22.5817  -16.3827   25.1922 C   0  0  0  0  0  0  0  0  0  0  0  0
  -22.0043  -10.5240   29.5391 C   0  0  0  0  0  0  0  0  0  0  0  0
  -24.7401  -11.2150   30.4237 C   0  0  0  0  0  0  0  0  0  0  0  0
  -23.5759  -15.8752   26.2335 C   0  0  0  0  0  0  0  0  0  0  0  0
  -29.4609  -13.6624   18.2942 C   0  0  0  0  0  0  0  0  0  0  0  0
  -24.0420  -14.4655   25.8840 C   0  0  0  0  0  0  0  0  0  0  0  0
  -27.9911  -13.3539   18.5848 C   0  0  0  0  0  0  0  0  0  0  0  0
  -30.3939  -12.6828   19.0026 C   0  0  0  0  0  0  0  0  0  0  0  0
  -28.7068  -12.2532   20.7469 C   0  0  0  0  0  0  0  0  0  0  0  0
  -22.8661  -13.4813   25.8778 C   0  0  1  0  0  0  0  0  0  0  0  0
  -22.5883  -11.9177   29.3291 C   0  0  1  0  0  0  0  0  0  0  0  0
  -27.7290  -13.2486   20.0992 C   0  0  2  0  0  0  0  0  0  0  0  0
  -25.3934  -14.5108   36.0678 C   0  0  0  0  0  0  0  0  0  0  0  0
  -26.2225  -14.7678   29.5014 C   0  0  0  0  0  0  0  0  0  0  0  0
  -27.0937  -15.2672   31.7948 C   0  0  0  0  0  0  0  0  0  0  0  0
  -24.9537  -16.2920   31.0250 C   0  0  0  0  0  0  0  0  0  0  0  0
  -23.1186  -11.5034   35.5607 C   0  0  0  0  0  0  0  0  0  0  0  0
  -32.0498   -9.6027   25.1656 C   0  0  0  0  0  0  0  0  0  0  0  0
  -31.6700  -13.1355   23.7704 C   0  0  0  0  0  0  0  0  0  0  0  0
  -27.1805   -4.7247   29.0929 C   0  0  0  0  0  0  0  0  0  0  0  0
  -32.4063  -11.8912   24.2305 C   0  0  0  0  0  0  0  0  0  0  0  0
  -25.8043   -5.3276   29.3108 C   0  0  0  0  0  0  0  0  0  1  0  0
  -25.0175  -13.8267   31.5819 C   0  0  1  0  0  0  0  0  0  0  0  0
  -24.4064  -13.6297   35.3179 C   0  0  2  0  0  0  0  0  0  0  0  0
  -25.8153  -15.0118   30.9683 C   0  0  0  0  0  0  0  0  0  0  0  0
  -25.9397  -11.6081   20.5348 N   0  0  0  0  0  0  0  0  0  0  0  0
  -26.2818  -12.9001   20.3939 N   0  0  0  0  0  0  0  0  0  0  0  0
  -23.6772  -12.2204   30.2601 N   0  0  0  0  0  0  0  0  0  0  0  0
  -30.0942  -12.6311   20.4356 N   0  0  0  0  0  0  0  0  0  0  0  0
  -25.4062  -15.1007   20.4309 N   0  0  0  0  0  0  0  0  0  0  0  0
  -21.7908  -12.5266   21.2670 N   0  0  0  0  0  0  0  0  0  0  0  0
  -28.0783   -5.6552   28.4616 N   0  0  0  0  0  0  0  0  0  0  0  0
  -22.5010  -13.1215   27.2312 N   0  0  0  0  0  0  0  0  0  0  0  0
  -24.5954  -14.0415   32.9618 N   0  0  0  0  0  0  0  0  0  0  0  0
  -30.7387  -12.8565   22.7000 N   0  0  0  0  0  0  0  0  0  0  0  0
  -24.0958  -12.4444   36.1661 N   0  3  0  0  0  0  0  0  0  0  0  0
  -31.4287  -10.8641   24.6754 N   0  3  0  0  0  0  0  0  0  0  0  0
  -27.5875   -5.0686   26.2718 O   0  0  0  0  0  0  0  0  0  0  0  0
  -22.5157  -14.6840   20.9859 O   0  0  0  0  0  0  0  0  0  0  0  0
  -24.0512  -11.4125   27.5459 O   0  0  0  0  0  0  0  0  0  0  0  0
  -22.8925  -14.3751   30.6820 O   0  0  0  0  0  0  0  0  0  0  0  0
  -25.6693  -12.1871   33.8478 O   0  0  0  0  0  0  0  0  0  0  0  0
  -32.2580  -13.2241   21.0226 O   0  0  0  0  0  0  0  0  0  0  0  0
  -21.7148   -6.9668   21.6108 O   0  0  0  0  0  0  0  0  0  0  0  0
  -25.9169   -6.4737   30.1536 O   0  0  0  0  0  0  0  0  0  1  0  0
  -18.1476   -6.8799   25.8145 F   0  0  0  0  0  0  0  0  0  0  0  0
  -21.9816   -5.1301   23.6596 F   0  0  0  0  0  0  0  0  0  0  0  0
  1  2  1  0  0  0  0
  1  7  2  0  0  0  0
  2  8  2  0  0  0  0
  3 12  2  0  0  0  0
  3 19  1  0  0  0  0
  4 13  1  0  0  0  0
  4 19  2  0  0  0  0
  5 10  2  0  0  0  0
  5 20  1  0  0  0  0
  6 11  1  0  0  0  0
  6 20  2  0  0  0  0
  7 22  1  0  0  0  0
  8 24  1  0  0  0  0
  9 14  2  0  0  0  0
  9 23  1  0  0  0  0
 10 26  1  0  0  0  0
 11 26  2  0  0  0  0
 12 27  1  0  0  0  0
 13 27  2  0  0  0  0
 14 28  1  0  0  0  0
 15 16  2  0  0  0  0
 15 29  1  0  0  0  0
 16 30  1  0  0  0  0
 17 25  1  0  0  0  0
 17 28  2  0  0  0  0
 18 30  2  0  0  0  0
 18 31  1  0  0  0  0
 19 32  1  0  0  0  0
 20 34  1  0  0  0  0
 21 32  1  0  0  0  0
 21 33  2  0  0  0  0
 21 35  1  0  0  0  0
 22 24  2  0  0  0  0
 22 40  1  0  0  0  0
 23 25  2  0  0  0  0
 23 41  1  0  0  0  0
 24 49  1  0  0  0  0
 25 42  1  0  0  0  0
 26 57  1  0  0  0  0
 27 83  1  0  0  0  0
 28 84  1  0  0  0  0
 29 31  2  0  0  0  0
 29 83  1  0  0  0  0
 30 85  1  0  0  0  0
 31 86  1  0  0  0  0
 32 65  2  0  0  0  0
 33 66  1  0  0  0  0
 33 69  1  0  0  0  0
 34 71  1  0  0  0  0
 34 77  2  0  0  0  0
 35 70  1  0  0  0  0
 35 78  2  0  0  0  0
 36 50  1  0  0  0  0
 36 72  1  0  0  0  0
 36 79  2  0  0  0  0
 37 62  1  0  0  0  0
 37 67  1  0  0  0  0
 37 80  2  0  0  0  0
 38 63  1  0  0  0  0
 38 73  1  0  0  0  0
 38 81  2  0  0  0  0
 39 68  1  0  0  0  0
 39 74  1  0  0  0  0
 39 82  2  0  0  0  0
 40 43  1  0  0  0  0
 41 50  1  0  0  0  0
 42 67  1  0  0  0  0
 43 45  1  0  0  0  0
 44 46  1  0  0  0  0
 44 47  1  0  0  0  0
 45 49  1  0  0  0  0
 46 51  1  0  0  0  0
 47 68  1  0  0  0  0
 48 51  1  0  0  0  0
 48 68  1  0  0  0  0
 49 72  1  0  0  0  0
 50 67  1  0  0  0  0
 51 66  1  0  0  0  0
 52 63  1  0  0  0  0
 53 64  1  0  0  0  0
 54 64  1  0  0  0  0
 55 64  1  0  0  0  0
 56 75  1  0  0  0  0
 57 76  1  0  0  0  0
 58 60  1  0  0  0  0
 58 74  1  0  0  0  0
 59 61  1  0  0  0  0
 59 71  1  0  0  0  0
 60 76  1  0  0  0  0
 61 84  1  0  0  0  0
 62 64  1  0  0  0  0
 62 73  1  0  0  0  0
 63 75  1  0  0  0  0
 65 66  1  0  0  0  0
M  CHG  2  75   1  76   1
M  ISO  4  39 100  61 101  74 100  84 101
M  END
> <Batch ID>
0132

> <Smiles>
CNC(C)C(=O)NC(C(=O)N1Cc2cc([101O:1][101CH2:1]CNC(=O)c3ccc(CNCC[100NH:0][100C:0](=O)N4CCCC(n5nc(-c6ccc(Oc7ccc(F)cc7F)cc6)c(C(N)=O)c5N)C4)cc3)ccc2CC1C(=O)NC1CCCc2ccccc21)C(C)(C)C

> <Shape>
0.133

> <Color>
0.167

> <Negative vol penalty>
0.000

$$$$

  -OEChem-04052320523D

 87 96  0     1  0  0  0  0  0999 V2000
  -16.4318  -30.1100   19.8896 C   0  0  0  0  0  0  0  0  0  0  0  0
  -17.3888  -31.1065   19.7264 C   0  0  0  0  0  0  0  0  0  0  0  0
  -24.0737  -13.6030   20.7253 C   0  0  0  0  0  0  0  0  0  0  0  0
  -26.3611  -13.6688   21.5001 C   0  0  0  0  0  0  0  0  0  0  0  0
  -16.5336  -29.2149   20.9537 C   0  0  0  0  0  0  0  0  0  0  0  0
  -18.4476  -31.2091   20.6280 C   0  0  0  0  0  0  0  0  0  0  0  0
  -31.8407  -21.2801   21.5790 C   0  0  0  0  0  0  0  0  0  0  0  0
  -25.2800  -30.7549   18.3911 C   0  0  0  0  0  0  0  0  0  0  0  0
  -30.8237  -20.5847   20.9221 C   0  0  0  0  0  0  0  0  0  0  0  0
  -24.2104  -12.2452   20.4369 C   0  0  0  0  0  0  0  0  0  0  0  0
  -26.4978  -12.3109   21.2117 C   0  0  0  0  0  0  0  0  0  0  0  0
  -26.6162  -30.8891   18.0133 C   0  0  0  0  0  0  0  0  0  0  0  0
  -24.1914   -9.3231   22.1381 C   0  0  0  0  0  0  0  0  0  0  0  0
  -23.1614   -8.4696   22.5331 C   0  0  0  0  0  0  0  0  0  0  0  0
  -29.8510  -22.6685   20.1260 C   0  0  0  0  0  0  0  0  0  0  0  0
  -27.2662  -31.0669   20.3358 C   0  0  0  0  0  0  0  0  0  0  0  0
  -22.8140   -7.8234   20.2312 C   0  0  0  0  0  0  0  0  0  0  0  0
  -25.1490  -14.3149   21.2568 C   0  0  0  0  0  0  0  0  0  0  0  0
  -24.5815  -16.2908   22.7673 C   0  0  0  0  0  0  0  0  0  0  0  0
  -17.5995  -29.3005   21.8631 C   0  0  0  0  0  0  0  0  0  0  0  0
  -31.8552  -22.6618   21.4885 C   0  0  0  0  0  0  0  0  0  0  0  0
  -24.9332  -30.7607   19.7450 C   0  0  0  0  0  0  0  0  0  0  0  0
  -18.5630  -30.3151   21.7060 C   0  0  0  0  0  0  0  0  0  0  0  0
  -30.8711  -23.3517   20.7678 C   0  0  0  0  0  0  0  0  0  0  0  0
  -25.9308  -30.9203   20.7207 C   0  0  0  0  0  0  0  0  0  0  0  0
  -29.8361  -21.2738   20.2011 C   0  0  0  0  0  0  0  0  0  0  0  0
  -25.4224  -11.5991   20.6801 C   0  0  0  0  0  0  0  0  0  0  0  0
  -27.6067  -31.0450   18.9832 C   0  0  0  0  0  0  0  0  0  0  0  0
  -24.5327   -9.4269   20.7895 C   0  0  0  0  0  0  0  0  0  0  0  0
  -22.4727   -7.7197   21.5797 C   0  0  0  0  0  0  0  0  0  0  0  0
  -23.8440   -8.6770   19.8361 C   0  0  0  0  0  0  0  0  0  0  0  0
  -25.0086  -15.7177   21.5544 C   0  0  0  0  0  0  0  0  0  0  0  0
  -24.6206  -17.6447   22.5397 C   0  0  0  0  0  0  0  0  0  0  0  0
  -24.1851  -15.6560   23.9902 C   0  0  0  0  0  0  0  0  0  0  0  0
  -22.2033  -30.5148   22.3070 C   0  0  0  0  0  0  0  0  0  0  0  0
  -24.5929  -28.9292   23.3961 C   0  0  0  0  0  0  0  0  0  0  0  0
  -30.8190  -27.7862   18.4754 C   0  0  0  0  0  0  0  0  0  0  0  0
  -26.8639  -26.7654   23.6475 C   0  0  0  0  0  0  0  0  0  0  0  0
  -27.7657  -21.0636   18.7815 C   0  0  0  0  0  0  0  0  0  0  0  0
  -17.6414  -28.3398   23.0250 C   0  0  0  0  0  0  0  0  0  0  0  0
  -32.8139  -23.6143   22.1332 C   0  0  0  0  0  0  0  0  0  0  0  0
  -23.4998  -30.6809   20.1955 C   0  0  0  0  0  0  0  0  0  0  0  0
  -25.5073  -30.9555   22.1637 C   0  0  0  0  0  0  0  0  0  0  0  0
  -18.9994  -28.2833   23.7199 C   0  0  0  0  0  0  0  0  0  0  0  0
  -32.5614  -24.8895   21.3133 C   0  0  0  0  0  0  0  0  0  0  0  0
  -24.2186  -20.8630   19.0161 C   0  0  0  0  0  0  0  0  0  0  0  0
  -19.5308  -29.6913   23.9687 C   0  0  0  0  0  0  0  0  0  0  0  0
  -23.9799  -19.5761   19.8093 C   0  0  0  0  0  0  0  0  0  0  0  0
  -25.4087  -20.7319   18.0674 C   0  0  0  0  0  0  0  0  0  0  0  0
  -26.4174  -18.9904   19.4883 C   0  0  0  0  0  0  0  0  0  0  0  0
  -19.7398  -30.4433   22.6488 C   0  0  1  0  0  0  0  0  0  0  0  0
  -31.0879  -24.8295   20.8747 C   0  0  1  0  0  0  0  0  0  0  0  0
  -23.3241  -29.9081   21.5150 C   0  0  1  0  0  0  0  0  0  0  0  0
  -25.2687  -19.0956   20.5048 C   0  0  2  0  0  0  0  0  0  0  0  0
  -28.3799  -25.2258   24.9237 C   0  0  0  0  0  0  0  0  0  0  0  0
  -25.3155  -31.2899   25.1874 C   0  0  0  0  0  0  0  0  0  0  0  0
  -26.9861  -29.8183   26.3327 C   0  0  0  0  0  0  0  0  0  0  0  0
  -24.5598  -29.2441   26.4113 C   0  0  0  0  0  0  0  0  0  0  0  0
  -25.8185  -24.3810   22.2402 C   0  0  0  0  0  0  0  0  0  0  0  0
  -31.0709  -27.0644   19.7753 C   0  0  0  0  0  0  0  0  0  0  0  0
  -30.7498  -30.0707   17.5195 C   0  0  0  0  0  0  0  0  0  0  0  0
  -29.3033  -30.5167   17.4021 C   0  0  0  0  0  0  0  0  0  1  0  0
  -25.8357  -28.9413   24.2498 C   0  0  1  0  0  0  0  0  0  0  0  0
  -27.0632  -25.3556   24.1740 C   0  0  2  0  0  0  0  0  0  0  0  0
  -25.6755  -29.8275   25.5172 C   0  0  0  0  0  0  0  0  0  0  0  0
  -25.2975  -16.6326   20.6253 N   0  0  0  0  0  0  0  0  0  0  0  0
  -25.0515  -17.7944   21.2544 N   0  0  0  0  0  0  0  0  0  0  0  0
  -24.4904  -29.9221   22.4141 N   0  0  0  0  0  0  0  0  0  0  0  0
  -26.5944  -20.2770   18.7969 N   0  0  0  0  0  0  0  0  0  0  0  0
  -24.3278  -18.7099   23.3157 N   0  0  0  0  0  0  0  0  0  0  0  0
  -24.2034  -14.2560   24.0528 N   0  0  0  0  0  0  0  0  0  0  0  0
  -28.8175  -20.5464   19.5370 N   0  0  0  0  0  0  0  0  0  0  0  0
  -20.9571  -30.0014   22.0026 N   0  0  0  0  0  0  0  0  0  0  0  0
  -30.9420  -29.1626   18.6190 N   0  0  0  0  0  0  0  0  0  0  0  0
  -26.1500  -27.5450   24.5328 N   0  0  0  0  0  0  0  0  0  0  0  0
  -30.9105  -25.5986   19.6222 N   0  3  0  0  0  0  0  0  0  0  0  0
  -27.0645  -24.3780   23.0492 N   0  3  0  0  0  0  0  0  0  0  0  0
  -23.8096  -16.3105   24.9923 O   0  0  0  0  0  0  0  0  0  0  0  0
  -22.4500  -31.3840   23.1348 O   0  0  0  0  0  0  0  0  0  0  0  0
  -23.7322  -28.0676   23.5960 O   0  0  0  0  0  0  0  0  0  0  0  0
  -30.5414  -27.2098   17.4271 O   0  0  0  0  0  0  0  0  0  0  0  0
  -27.3013  -27.1388   22.5613 O   0  0  0  0  0  0  0  0  0  0  0  0
  -27.8219  -22.1319   18.1670 O   0  0  0  0  0  0  0  0  0  0  0  0
  -25.5561  -10.2741   20.3990 O   0  0  0  0  0  0  0  0  0  0  0  0
  -28.9097  -31.1711   18.6076 O   0  0  0  0  0  0  0  0  0  1  0  0
  -21.4846   -6.8990   21.9594 F   0  0  0  0  0  0  0  0  0  0  0  0
  -24.1682   -8.7716   18.5393 F   0  0  0  0  0  0  0  0  0  0  0  0
  1  2  1  0  0  0  0
  1  5  2  0  0  0  0
  2  6  2  0  0  0  0
  3 10  2  0  0  0  0
  3 18  1  0  0  0  0
  4 11  1  0  0  0  0
  4 18  2  0  0  0  0
  5 20  1  0  0  0  0
  6 23  1  0  0  0  0
  7  9  2  0  0  0  0
  7 21  1  0  0  0  0
  8 12  2  0  0  0  0
  8 22  1  0  0  0  0
  9 26  1  0  0  0  0
 10 27  1  0  0  0  0
 11 27  2  0  0  0  0
 12 28  1  0  0  0  0
 13 14  2  0  0  0  0
 13 29  1  0  0  0  0
 14 30  1  0  0  0  0
 15 24  1  0  0  0  0
 15 26  2  0  0  0  0
 16 25  1  0  0  0  0
 16 28  2  0  0  0  0
 17 30  2  0  0  0  0
 17 31  1  0  0  0  0
 18 32  1  0  0  0  0
 19 32  1  0  0  0  0
 19 33  2  0  0  0  0
 19 34  1  0  0  0  0
 20 23  2  0  0  0  0
 20 40  1  0  0  0  0
 21 24  2  0  0  0  0
 21 41  1  0  0  0  0
 22 25  2  0  0  0  0
 22 42  1  0  0  0  0
 23 51  1  0  0  0  0
 24 52  1  0  0  0  0
 25 43  1  0  0  0  0
 26 72  1  0  0  0  0
 27 84  1  0  0  0  0
 28 85  1  0  0  0  0
 29 31  2  0  0  0  0
 29 84  1  0  0  0  0
 30 86  1  0  0  0  0
 31 87  1  0  0  0  0
 32 66  2  0  0  0  0
 33 67  1  0  0  0  0
 33 70  1  0  0  0  0
 34 71  1  0  0  0  0
 34 78  2  0  0  0  0
 35 53  1  0  0  0  0
 35 73  1  0  0  0  0
 35 79  2  0  0  0  0
 36 63  1  0  0  0  0
 36 68  1  0  0  0  0
 36 80  2  0  0  0  0
 37 60  1  0  0  0  0
 37 74  1  0  0  0  0
 37 81  2  0  0  0  0
 38 64  1  0  0  0  0
 38 75  1  0  0  0  0
 38 82  2  0  0  0  0
 39 69  1  0  0  0  0
 39 72  1  0  0  0  0
 39 83  2  0  0  0  0
 40 44  1  0  0  0  0
 41 45  1  0  0  0  0
 42 53  1  0  0  0  0
 43 68  1  0  0  0  0
 44 47  1  0  0  0  0
 45 52  1  0  0  0  0
 46 48  1  0  0  0  0
 46 49  1  0  0  0  0
 47 51  1  0  0  0  0
 48 54  1  0  0  0  0
 49 69  1  0  0  0  0
 50 54  1  0  0  0  0
 50 69  1  0  0  0  0
 51 73  1  0  0  0  0
 52 76  1  0  0  0  0
 53 68  1  0  0  0  0
 54 67  1  0  0  0  0
 55 64  1  0  0  0  0
 56 65  1  0  0  0  0
 57 65  1  0  0  0  0
 58 65  1  0  0  0  0
 59 77  1  0  0  0  0
 60 76  1  0  0  0  0
 61 62  1  0  0  0  0
 61 74  1  0  0  0  0
 62 85  1  0  0  0  0
 63 65  1  0  0  0  0
 63 75  1  0  0  0  0
 64 77  1  0  0  0  0
 66 67  1  0  0  0  0
M  CHG  2  76   1  77   1
M  ISO  4  39 100  62 101  72 100  85 101
M  END
> <Batch ID>
0132

> <Smiles>
CNC(C)C(=O)NC(C(=O)N1Cc2cc([101O:1][101CH2:1]CNC(=O)CNC3CCc4ccc([100NH:0][100C:0](=O)N5CCCC(n6nc(-c7ccc(Oc8ccc(F)cc8F)cc7)c(C(N)=O)c6N)C5)cc43)ccc2CC1C(=O)NC1CCCc2ccccc21)C(C)(C)C

> <Shape>
0.217

> <Color>
0.073

> <Negative vol penalty>
0.000

$$$$

  -OEChem-04052320523D

 86 95  0     1  0  0  0  0  0999 V2000
  -29.1840  -36.5583   21.7763 C   0  0  0  0  0  0  0  0  0  0  0  0
  -29.4143  -35.2232   21.4605 C   0  0  0  0  0  0  0  0  0  0  0  0
  -26.6825  -13.1795   21.7912 C   0  0  0  0  0  0  0  0  0  0  0  0
  -26.1838  -14.6200   19.9169 C   0  0  0  0  0  0  0  0  0  0  0  0
  -28.1551  -36.8985   22.6536 C   0  0  0  0  0  0  0  0  0  0  0  0
  -28.6165  -34.2272   22.0228 C   0  0  0  0  0  0  0  0  0  0  0  0
  -26.8534  -28.9923   19.3785 C   0  0  0  0  0  0  0  0  0  0  0  0
  -25.3457  -12.7848   21.8436 C   0  0  0  0  0  0  0  0  0  0  0  0
  -24.8470  -14.2253   19.9692 C   0  0  0  0  0  0  0  0  0  0  0  0
  -27.3399  -27.6884   19.4630 C   0  0  0  0  0  0  0  0  0  0  0  0
  -23.3081  -10.6625   20.1771 C   0  0  0  0  0  0  0  0  0  0  0  0
  -23.0394   -9.3020   20.3268 C   0  0  0  0  0  0  0  0  0  0  0  0
  -25.6833  -27.1858   21.1430 C   0  0  0  0  0  0  0  0  0  0  0  0
  -28.9974  -23.3822   19.6930 C   0  0  0  0  0  0  0  0  0  0  0  0
  -21.8672   -9.7604   22.3891 C   0  0  0  0  0  0  0  0  0  0  0  0
  -29.3636  -21.4908   18.2983 C   0  0  0  0  0  0  0  0  0  0  0  0
  -27.1016  -14.0972   20.8279 C   0  0  0  0  0  0  0  0  0  0  0  0
  -29.5185  -13.9039   20.0352 C   0  0  0  0  0  0  0  0  0  0  0  0
  -27.3381  -35.9070   23.2193 C   0  0  0  0  0  0  0  0  0  0  0  0
  -25.7835  -29.4065   20.1848 C   0  0  0  0  0  0  0  0  0  0  0  0
  -27.5766  -34.5544   22.9095 C   0  0  0  0  0  0  0  0  0  0  0  0
  -25.1835  -28.4947   21.0650 C   0  0  0  0  0  0  0  0  0  0  0  0
  -29.7506  -22.2539   19.3880 C   0  0  0  0  0  0  0  0  0  0  0  0
  -27.8956  -23.7081   18.9099 C   0  0  0  0  0  0  0  0  0  0  0  0
  -24.4280  -13.3076   20.9325 C   0  0  0  0  0  0  0  0  0  0  0  0
  -26.7567  -26.7858   20.3475 C   0  0  0  0  0  0  0  0  0  0  0  0
  -22.8565  -11.5720   21.1335 C   0  0  0  0  0  0  0  0  0  0  0  0
  -22.3189   -8.8509   21.4327 C   0  0  0  0  0  0  0  0  0  0  0  0
  -22.1361  -11.1209   22.2395 C   0  0  0  0  0  0  0  0  0  0  0  0
  -28.4822  -14.5058   20.7737 C   0  0  0  0  0  0  0  0  0  0  0  0
  -27.5917  -22.8800   17.8415 C   0  0  0  0  0  0  0  0  0  0  0  0
  -30.6283  -14.6611   20.3207 C   0  0  0  0  0  0  0  0  0  0  0  0
  -29.4813  -12.7624   19.1684 C   0  0  0  0  0  0  0  0  0  0  0  0
  -25.4015  -31.6029   22.4505 C   0  0  0  0  0  0  0  0  0  0  0  0
  -22.2930  -30.6949   22.2618 C   0  0  0  0  0  0  0  0  0  0  0  0
  -20.0240  -28.2852   21.4302 C   0  0  0  0  0  0  0  0  0  0  0  0
  -31.3468  -20.3319   22.1031 C   0  0  0  0  0  0  0  0  0  0  0  0
  -26.2685  -36.3197   24.1992 C   0  0  0  0  0  0  0  0  0  0  0  0
  -25.2532  -30.8087   20.0624 C   0  0  0  0  0  0  0  0  0  0  0  0
  -24.0194  -28.8838   21.9378 C   0  0  0  0  0  0  0  0  0  0  0  0
  -25.2291  -35.2325   24.4600 C   0  0  0  0  0  0  0  0  0  0  0  0
  -24.5589  -20.7731   14.9886 C   0  0  0  0  0  0  0  0  0  0  0  0
  -24.4895  -22.0368   14.1267 C   0  0  0  0  0  0  0  0  0  0  0  0
  -32.5060  -17.4030   23.7627 C   0  0  0  0  0  0  0  0  0  0  0  0
  -25.9107  -33.8904   24.7066 C   0  0  0  0  0  0  0  0  0  0  0  0
  -31.6997  -16.2741   23.1182 C   0  0  0  0  0  0  0  0  0  0  0  0
  -25.2326  -21.1893   16.2935 C   0  0  0  0  0  0  0  0  0  0  0  0
  -25.1263  -23.1486   14.9563 C   0  0  0  0  0  0  0  0  0  0  0  0
  -31.6744  -18.6747   23.9149 C   0  0  0  0  0  0  0  0  0  0  0  0
  -30.2295  -18.0205   22.0287 C   0  0  0  0  0  0  0  0  0  0  0  0
  -26.7168  -33.4473   23.4797 C   0  0  1  0  0  0  0  0  0  0  0  0
  -24.4922  -31.2700   21.3015 C   0  0  1  0  0  0  0  0  0  0  0  0
  -31.0426  -16.7343   21.8031 C   0  0  2  0  0  0  0  0  0  0  0  0
  -26.0649  -22.4028   15.8972 C   0  0  0  0  0  0  0  0  0  0  0  0
  -32.2404  -21.8509   19.3959 C   0  0  0  0  0  0  0  0  0  0  0  0
  -17.5582  -27.8194   21.4239 C   0  0  0  0  0  0  0  0  0  0  0  0
  -22.3752  -30.2325   25.2767 C   0  0  0  0  0  0  0  0  0  0  0  0
  -20.2654  -28.9021   25.0599 C   0  0  0  0  0  0  0  0  0  0  0  0
  -20.2822  -31.3195   24.4447 C   0  0  0  0  0  0  0  0  0  0  0  0
  -19.9760  -27.9562   18.4894 C   0  0  0  0  0  0  0  0  0  0  0  0
  -30.9345  -21.8783   20.2063 C   0  0  2  0  0  0  0  0  0  0  0  0
  -21.4414  -29.6498   22.9412 C   0  0  1  0  0  0  0  0  0  0  0  0
  -18.7392  -28.3467   20.6240 C   0  0  2  0  0  0  0  0  0  0  0  0
  -21.1143  -30.0189   24.4157 C   0  0  0  0  0  0  0  0  0  0  0  0
  -28.2997  -21.7757   17.5143 N   0  0  0  0  0  0  0  0  0  0  0  0
  -28.8967  -15.5638   21.4759 N   0  0  0  0  0  0  0  0  0  0  0  0
  -30.2058  -15.6325   21.1799 N   0  0  0  0  0  0  0  0  0  0  0  0
  -23.5410  -30.2679   21.7863 N   0  0  0  0  0  0  0  0  0  0  0  0
  -31.0805  -19.0581   22.6319 N   0  0  0  0  0  0  0  0  0  0  0  0
  -31.9146  -14.5841   19.9184 N   0  0  0  0  0  0  0  0  0  0  0  0
  -28.2590  -12.1012   18.9864 N   0  0  0  0  0  0  0  0  0  0  0  0
  -27.1358  -24.8450   19.2149 N   0  0  0  0  0  0  0  0  0  1  0  0
  -26.4688  -23.2039   17.0388 N   0  0  0  0  0  0  0  0  0  0  0  0
  -25.8364  -32.9145   22.4621 N   0  0  0  0  0  0  0  0  0  0  0  0
  -20.2664  -29.4682   22.0959 N   0  0  0  0  0  0  0  0  0  0  0  0
  -30.7498  -20.6123   20.8801 N   0  0  0  0  0  0  0  0  0  0  0  0
  -18.8672  -27.5322   19.3826 N   0  3  0  0  0  0  0  0  0  0  0  0
  -30.5052  -12.3314   18.5857 O   0  0  0  0  0  0  0  0  0  0  0  0
  -25.6861  -30.7345   23.2669 O   0  0  0  0  0  0  0  0  0  0  0  0
  -21.8638  -31.8460   22.1507 O   0  0  0  0  0  0  0  0  0  0  0  0
  -20.7390  -27.2863   21.4688 O   0  0  0  0  0  0  0  0  0  0  0  0
  -32.0677  -21.1561   22.6757 O   0  0  0  0  0  0  0  0  0  0  0  0
  -23.1235  -12.9224   20.9831 O   0  0  0  0  0  0  0  0  0  0  0  0
  -27.2299  -25.5127   20.4325 O   0  0  0  0  0  0  0  0  0  1  0  0
  -22.0595   -7.5446   21.5755 F   0  0  0  0  0  0  0  0  0  0  0  0
  -21.6986  -11.9900   23.1609 F   0  0  0  0  0  0  0  0  0  0  0  0
  1  2  1  0  0  0  0
  1  5  2  0  0  0  0
  2  6  2  0  0  0  0
  3  8  2  0  0  0  0
  3 17  1  0  0  0  0
  4  9  1  0  0  0  0
  4 17  2  0  0  0  0
  5 19  1  0  0  0  0
  6 21  1  0  0  0  0
  7 10  2  0  0  0  0
  7 20  1  0  0  0  0
  8 25  1  0  0  0  0
  9 25  2  0  0  0  0
 10 26  1  0  0  0  0
 11 12  2  0  0  0  0
 11 27  1  0  0  0  0
 12 28  1  0  0  0  0
 13 22  1  0  0  0  0
 13 26  2  0  0  0  0
 14 23  2  0  0  0  0
 14 24  1  0  0  0  0
 15 28  2  0  0  0  0
 15 29  1  0  0  0  0
 16 23  1  0  0  0  0
 16 65  2  0  0  0  0
 17 30  1  0  0  0  0
 18 30  1  0  0  0  0
 18 32  2  0  0  0  0
 18 33  1  0  0  0  0
 19 21  2  0  0  0  0
 19 38  1  0  0  0  0
 20 22  2  0  0  0  0
 20 39  1  0  0  0  0
 21 51  1  0  0  0  0
 22 40  1  0  0  0  0
 23 61  1  0  0  0  0
 24 31  2  0  0  0  0
 24 72  1  0  0  0  0
 25 83  1  0  0  0  0
 26 84  1  0  0  0  0
 27 29  2  0  0  0  0
 27 83  1  0  0  0  0
 28 85  1  0  0  0  0
 29 86  1  0  0  0  0
 30 66  2  0  0  0  0
 31 65  1  0  0  0  0
 31 73  1  0  0  0  0
 32 67  1  0  0  0  0
 32 70  1  0  0  0  0
 33 71  1  0  0  0  0
 33 78  2  0  0  0  0
 34 52  1  0  0  0  0
 34 74  1  0  0  0  0
 34 79  2  0  0  0  0
 35 62  1  0  0  0  0
 35 68  1  0  0  0  0
 35 80  2  0  0  0  0
 36 63  1  0  0  0  0
 36 75  1  0  0  0  0
 36 81  2  0  0  0  0
 37 69  1  0  0  0  0
 37 76  1  0  0  0  0
 37 82  2  0  0  0  0
 38 41  1  0  0  0  0
 39 52  1  0  0  0  0
 40 68  1  0  0  0  0
 41 45  1  0  0  0  0
 42 43  1  0  0  0  0
 42 47  1  0  0  0  0
 43 48  1  0  0  0  0
 44 46  1  0  0  0  0
 44 49  1  0  0  0  0
 45 51  1  0  0  0  0
 46 53  1  0  0  0  0
 47 54  1  0  0  0  0
 48 54  1  0  0  0  0
 49 69  1  0  0  0  0
 50 53  1  0  0  0  0
 50 69  1  0  0  0  0
 51 74  1  0  0  0  0
 52 68  1  0  0  0  0
 53 67  1  0  0  0  0
 54 73  1  0  0  0  0
 55 61  1  0  0  0  0
 56 63  1  0  0  0  0
 57 64  1  0  0  0  0
 58 64  1  0  0  0  0
 59 64  1  0  0  0  0
 60 77  1  0  0  0  0
 61 76  1  0  0  0  0
 62 64  1  0  0  0  0
 62 75  1  0  0  0  0
 63 77  1  0  0  0  0
 66 67  1  0  0  0  0
 72 84  1  0  0  0  0
M  CHG  1  77   1
M  ISO  4  37 100  72 101  76 100  84 101
M  END
> <Batch ID>
0132

> <Smiles>
CNC(C)C(=O)NC(C(=O)N1Cc2cc([101O:1][101NH:1]c3cc(C(C)[100NH:0][100C:0](=O)N4CCCC(n5nc(-c6ccc(Oc7ccc(F)cc7F)cc6)c(C(N)=O)c5N)C4)cnc3NC3CCCC3)ccc2CC1C(=O)NC1CCCc2ccccc21)C(C)(C)C

> <Shape>
0.317

> <Color>
0.068

> <Negative vol penalty>
0.000

$$$$

  -OEChem-04052320523D

 81 89  0     1  0  0  0  0  0999 V2000
  -32.4960  -23.7854   28.0475 C   0  0  0  0  0  0  0  0  0  0  0  0
  -32.0881  -23.9299   26.7253 C   0  0  0  0  0  0  0  0  0  0  0  0
  -28.1424  -26.6299   15.1314 C   0  0  0  0  0  0  0  0  0  0  0  0
  -29.3448  -25.9831   14.8462 C   0  0  0  0  0  0  0  0  0  0  0  0
  -27.8043  -13.8636   21.9478 C   0  0  0  0  0  0  0  0  0  0  0  0
  -27.4026  -14.4762   19.6455 C   0  0  0  0  0  0  0  0  0  0  0  0
  -31.5845  -23.3647   29.0150 C   0  0  0  0  0  0  0  0  0  0  0  0
  -30.7686  -23.6526   26.3696 C   0  0  0  0  0  0  0  0  0  0  0  0
  -28.7993  -27.1762   23.3116 C   0  0  0  0  0  0  0  0  0  0  0  0
  -27.6244  -26.6002   16.4262 C   0  0  0  0  0  0  0  0  0  0  0  0
  -30.0293  -25.3064   15.8558 C   0  0  0  0  0  0  0  0  0  0  0  0
  -26.9171  -12.7951   21.8183 C   0  0  0  0  0  0  0  0  0  0  0  0
  -26.5154  -13.4077   19.5160 C   0  0  0  0  0  0  0  0  0  0  0  0
  -29.1643  -27.1281   21.9668 C   0  0  0  0  0  0  0  0  0  0  0  0
  -24.4832  -10.1200   22.1976 C   0  0  0  0  0  0  0  0  0  0  0  0
  -23.5580   -9.9156   23.2213 C   0  0  0  0  0  0  0  0  0  0  0  0
  -27.0764  -26.0382   21.4454 C   0  0  0  0  0  0  0  0  0  0  0  0
  -22.6429  -12.1178   22.8339 C   0  0  0  0  0  0  0  0  0  0  0  0
  -28.0470  -14.7042   20.8614 C   0  0  0  0  0  0  0  0  0  0  0  0
  -30.3492  -15.7974   20.7497 C   0  0  0  0  0  0  0  0  0  0  0  0
  -30.2507  -23.0914   28.6728 C   0  0  0  0  0  0  0  0  0  0  0  0
  -27.5728  -26.6449   23.7356 C   0  0  0  0  0  0  0  0  0  0  0  0
  -29.8387  -23.2266   27.3333 C   0  0  0  0  0  0  0  0  0  0  0  0
  -26.6971  -26.0830   22.7957 C   0  0  0  0  0  0  0  0  0  0  0  0
  -28.3088  -25.9236   17.4358 C   0  0  0  0  0  0  0  0  0  0  0  0
  -29.5113  -25.2767   17.1507 C   0  0  0  0  0  0  0  0  0  0  0  0
  -26.2726  -12.5672   20.6024 C   0  0  0  0  0  0  0  0  0  0  0  0
  -28.3040  -26.5565   21.0340 C   0  0  0  0  0  0  0  0  0  0  0  0
  -24.4883  -11.3234   21.4922 C   0  0  0  0  0  0  0  0  0  0  0  0
  -22.6379  -10.9145   23.5394 C   0  0  0  0  0  0  0  0  0  0  0  0
  -23.5682  -12.3222   21.8103 C   0  0  0  0  0  0  0  0  0  0  0  0
  -28.9630  -15.8084   20.9947 C   0  0  0  0  0  0  0  0  0  0  0  0
  -30.7558  -17.0813   21.0195 C   0  0  0  0  0  0  0  0  0  0  0  0
  -31.1938  -14.7227   20.3168 C   0  0  0  0  0  0  0  0  0  0  0  0
  -26.7019  -24.3094   25.7081 C   0  0  0  0  0  0  0  0  0  0  0  0
  -23.7229  -25.4477   25.1149 C   0  0  0  0  0  0  0  0  0  0  0  0
  -21.6392  -27.1613   23.0248 C   0  0  0  0  0  0  0  0  0  0  0  0
  -30.0374  -22.6007   20.6129 C   0  0  0  0  0  0  0  0  0  0  0  0
  -29.3136  -22.5939   29.7447 C   0  0  0  0  0  0  0  0  0  0  0  0
  -27.1823  -26.7285   25.1858 C   0  0  0  0  0  0  0  0  0  0  0  0
  -25.3602  -25.5170   23.1966 C   0  0  0  0  0  0  0  0  0  0  0  0
  -27.8404  -22.6809   29.3542 C   0  0  0  0  0  0  0  0  0  0  0  0
  -28.3044  -20.9157   23.2272 C   0  0  0  0  0  0  0  0  0  0  0  0
  -27.6287  -22.1368   27.9449 C   0  0  0  0  0  0  0  0  0  0  0  0
  -28.4303  -19.4371   22.8559 C   0  0  0  0  0  0  0  0  0  0  0  0
  -28.1420  -21.7964   21.9903 C   0  0  0  0  0  0  0  0  0  0  0  0
  -29.3087  -20.1379   20.5896 C   0  0  0  0  0  0  0  0  0  0  0  0
  -28.4097  -22.9593   26.9129 C   0  0  1  0  0  0  0  0  0  0  0  0
  -26.1332  -25.6945   25.5827 C   0  0  1  0  0  0  0  0  0  0  0  0
  -29.5307  -19.2158   21.8006 C   0  0  2  0  0  0  0  0  0  0  0  0
  -19.2509  -27.8953   22.7911 C   0  0  0  0  0  0  0  0  0  0  0  0
  -22.9289  -22.6071   24.3332 C   0  0  0  0  0  0  0  0  0  0  0  0
  -20.8894  -23.5546   23.2327 C   0  0  0  0  0  0  0  0  0  0  0  0
  -21.2215  -23.8318   25.6895 C   0  0  0  0  0  0  0  0  0  0  0  0
  -22.3981  -30.0219   23.0118 C   0  0  0  0  0  0  0  0  0  0  0  0
  -27.7285  -25.9079   18.8194 C   0  0  0  0  0  0  0  0  0  1  0  0
  -31.4527  -23.9094   17.9170 C   0  0  0  0  0  0  0  0  0  0  0  0
  -31.9635  -23.2512   19.1896 C   0  0  0  0  0  0  0  0  0  0  0  0
  -22.6545  -25.1626   24.0871 C   0  0  1  0  0  0  0  0  0  0  0  0
  -20.6379  -28.2715   23.2885 C   0  0  2  0  0  0  0  0  0  0  0  0
  -21.9495  -23.7978   24.3280 C   0  0  0  0  0  0  0  0  0  0  0  0
  -28.5188  -17.0044   21.3900 N   0  0  0  0  0  0  0  0  0  0  0  0
  -29.6323  -17.7569   21.3955 N   0  0  0  0  0  0  0  0  0  0  0  0
  -25.0264  -25.6167   24.6270 N   0  0  0  0  0  0  0  0  0  0  0  0
  -29.2179  -21.5388   21.0300 N   0  0  0  0  0  0  0  0  0  0  0  0
  -31.9613  -17.6869   20.9696 N   0  0  0  0  0  0  0  0  0  0  0  0
  -30.6132  -13.4683   20.0851 N   0  0  0  0  0  0  0  0  0  0  0  0
  -30.2179  -24.5868   18.1601 N   0  0  0  0  0  0  0  0  0  0  0  0
  -27.7232  -24.2021   26.6328 N   0  0  0  0  0  0  0  0  0  0  0  0
  -21.7549  -26.3110   24.1041 N   0  0  0  0  0  0  0  0  0  0  0  0
  -31.0368  -22.2689   19.7064 N   0  0  0  0  0  0  0  0  0  0  0  0
  -21.0603  -29.5241   22.6004 N   0  3  0  0  0  0  0  0  0  0  0  0
  -32.4296  -14.8662   20.1565 O   0  0  0  0  0  0  0  0  0  0  0  0
  -26.2468  -23.4046   25.0182 O   0  0  0  0  0  0  0  0  0  0  0  0
  -23.4111  -25.5248   26.3059 O   0  0  0  0  0  0  0  0  0  0  0  0
  -22.2541  -27.0566   21.9658 O   0  0  0  0  0  0  0  0  0  0  0  0
  -29.8927  -23.7575   21.0224 O   0  0  0  0  0  0  0  0  0  0  0  0
  -25.4070  -11.5245   20.4756 O   0  0  0  0  0  0  0  0  0  0  0  0
  -28.6580  -26.5077   19.7209 O   0  0  0  0  0  0  0  0  0  1  0  0
  -21.7484  -10.7175   24.5214 F   0  0  0  0  0  0  0  0  0  0  0  0
  -23.5674  -13.4799   21.1353 F   0  0  0  0  0  0  0  0  0  0  0  0
  1  2  1  0  0  0  0
  1  7  2  0  0  0  0
  2  8  2  0  0  0  0
  3  4  1  0  0  0  0
  3 10  2  0  0  0  0
  4 11  2  0  0  0  0
  5 12  2  0  0  0  0
  5 19  1  0  0  0  0
  6 13  1  0  0  0  0
  6 19  2  0  0  0  0
  7 21  1  0  0  0  0
  8 23  1  0  0  0  0
  9 14  2  0  0  0  0
  9 22  1  0  0  0  0
 10 25  1  0  0  0  0
 11 26  1  0  0  0  0
 12 27  1  0  0  0  0
 13 27  2  0  0  0  0
 14 28  1  0  0  0  0
 15 16  2  0  0  0  0
 15 29  1  0  0  0  0
 16 30  1  0  0  0  0
 17 24  1  0  0  0  0
 17 28  2  0  0  0  0
 18 30  2  0  0  0  0
 18 31  1  0  0  0  0
 19 32  1  0  0  0  0
 20 32  1  0  0  0  0
 20 33  2  0  0  0  0
 20 34  1  0  0  0  0
 21 23  2  0  0  0  0
 21 39  1  0  0  0  0
 22 24  2  0  0  0  0
 22 40  1  0  0  0  0
 23 48  1  0  0  0  0
 24 41  1  0  0  0  0
 25 26  2  0  0  0  0
 25 56  1  0  0  0  0
 26 68  1  0  0  0  0
 27 78  1  0  0  0  0
 28 79  1  0  0  0  0
 29 31  2  0  0  0  0
 29 78  1  0  0  0  0
 30 80  1  0  0  0  0
 31 81  1  0  0  0  0
 32 62  2  0  0  0  0
 33 63  1  0  0  0  0
 33 66  1  0  0  0  0
 34 67  1  0  0  0  0
 34 73  2  0  0  0  0
 35 49  1  0  0  0  0
 35 69  1  0  0  0  0
 35 74  2  0  0  0  0
 36 59  1  0  0  0  0
 36 64  1  0  0  0  0
 36 75  2  0  0  0  0
 37 60  1  0  0  0  0
 37 70  1  0  0  0  0
 37 76  2  0  0  0  0
 38 65  1  0  0  0  0
 38 71  1  0  0  0  0
 38 77  2  0  0  0  0
 39 42  1  0  0  0  0
 40 49  1  0  0  0  0
 41 64  1  0  0  0  0
 42 44  1  0  0  0  0
 43 45  1  0  0  0  0
 43 46  1  0  0  0  0
 44 48  1  0  0  0  0
 45 50  1  0  0  0  0
 46 65  1  0  0  0  0
 47 50  1  0  0  0  0
 47 65  1  0  0  0  0
 48 69  1  0  0  0  0
 49 64  1  0  0  0  0
 50 63  1  0  0  0  0
 51 60  1  0  0  0  0
 52 61  1  0  0  0  0
 53 61  1  0  0  0  0
 54 61  1  0  0  0  0
 55 72  1  0  0  0  0
 56 79  1  0  0  0  0
 57 58  1  0  0  0  0
 57 68  1  0  0  0  0
 58 71  1  0  0  0  0
 59 61  1  0  0  0  0
 59 70  1  0  0  0  0
 60 72  1  0  0  0  0
 62 63  1  0  0  0  0
M  CHG  1  72   1
M  ISO  4  38 100  56 101  71 100  79 101
M  END
> <Batch ID>
0132

> <Smiles>
CNC(C)C(=O)NC(C(=O)N1Cc2cc([101O:1][101CH2:1]c3ccccc3NCC[100NH:0][100C:0](=O)N3CCCC(n4nc(-c5ccc(Oc6ccc(F)cc6F)cc5)c(C(N)=O)c4N)C3)ccc2CC1C(=O)NC1CCCc2ccccc21)C(C)(C)C

> <Shape>
0.202

> <Color>
0.059

> <Negative vol penalty>
0.000

$$$$

  -OEChem-04052320523D

 85 93  0     1  0  0  0  0  0999 V2000
  -16.7789  -22.6258   28.0250 C   0  0  0  0  0  0  0  0  0  0  0  0
  -17.6628  -22.4285   26.9690 C   0  0  0  0  0  0  0  0  0  0  0  0
  -23.1058   -9.8562   21.4173 C   0  0  0  0  0  0  0  0  0  0  0  0
  -23.8611  -10.7088   23.5479 C   0  0  0  0  0  0  0  0  0  0  0  0
  -16.2115  -23.8824   28.2322 C   0  0  0  0  0  0  0  0  0  0  0  0
  -17.9789  -23.4875   26.1187 C   0  0  0  0  0  0  0  0  0  0  0  0
  -22.9396  -23.7821   25.1443 C   0  0  0  0  0  0  0  0  0  0  0  0
  -22.3866   -8.8566   22.0722 C   0  0  0  0  0  0  0  0  0  0  0  0
  -23.1418   -9.7092   24.2029 C   0  0  0  0  0  0  0  0  0  0  0  0
  -23.4593  -22.8867   24.2105 C   0  0  0  0  0  0  0  0  0  0  0  0
  -23.0300   -5.8812   23.5412 C   0  0  0  0  0  0  0  0  0  0  0  0
  -23.1208   -4.5833   23.0385 C   0  0  0  0  0  0  0  0  0  0  0  0
  -23.4026  -24.6161   22.5296 C   0  0  0  0  0  0  0  0  0  0  0  0
  -26.4039  -20.0236   21.2738 C   0  0  0  0  0  0  0  0  0  0  0  0
  -20.7339   -4.5608   22.6652 C   0  0  0  0  0  0  0  0  0  0  0  0
  -26.0626  -18.8655   19.2248 C   0  0  0  0  0  0  0  0  0  0  0  0
  -23.8431  -10.7824   22.1551 C   0  0  0  0  0  0  0  0  0  0  0  0
  -24.1305  -13.0993   21.1271 C   0  0  0  0  0  0  0  0  0  0  0  0
  -16.5284  -24.9598   27.3899 C   0  0  0  0  0  0  0  0  0  0  0  0
  -22.6368  -25.1004   24.7744 C   0  0  0  0  0  0  0  0  0  0  0  0
  -17.4142  -24.7594   26.3140 C   0  0  0  0  0  0  0  0  0  0  0  0
  -22.8815  -25.5269   23.4613 C   0  0  0  0  0  0  0  0  0  0  0  0
  -25.0438  -20.3109   21.3028 C   0  0  0  0  0  0  0  0  0  0  0  0
  -26.9310  -19.2877   20.2185 C   0  0  0  0  0  0  0  0  0  0  0  0
  -22.4046   -8.7831   23.4650 C   0  0  0  0  0  0  0  0  0  0  0  0
  -23.6882  -23.3028   22.9022 C   0  0  0  0  0  0  0  0  0  0  0  0
  -21.7911   -6.5190   23.6059 C   0  0  0  0  0  0  0  0  0  0  0  0
  -21.9728   -3.9231   22.6005 C   0  0  0  0  0  0  0  0  0  0  0  0
  -20.6431   -5.8588   23.1679 C   0  0  0  0  0  0  0  0  0  0  0  0
  -24.5868  -11.8149   21.4791 C   0  0  0  0  0  0  0  0  0  0  0  0
  -24.2599  -19.8431   20.2605 C   0  0  0  0  0  0  0  0  0  0  0  0
  -25.2069  -13.6890   20.5105 C   0  0  0  0  0  0  0  0  0  0  0  0
  -22.8484  -13.7052   21.3386 C   0  0  0  0  0  0  0  0  0  0  0  0
  -19.9853  -26.8510   24.6807 C   0  0  0  0  0  0  0  0  0  0  0  0
  -22.0502  -29.2326   23.9149 C   0  0  0  0  0  0  0  0  0  0  0  0
  -25.0749  -30.1400   22.6209 C   0  0  0  0  0  0  0  0  0  0  0  0
  -30.6669  -14.8211   20.2837 C   0  0  0  0  0  0  0  0  0  0  0  0
  -15.8535  -26.2879   27.6250 C   0  0  0  0  0  0  0  0  0  0  0  0
  -22.1017  -26.0614   25.8003 C   0  0  0  0  0  0  0  0  0  0  0  0
  -22.5924  -26.9373   23.0187 C   0  0  0  0  0  0  0  0  0  0  0  0
  -16.5302  -27.4510   26.9042 C   0  0  0  0  0  0  0  0  0  0  0  0
  -29.5856  -11.7111   18.9290 C   0  0  0  0  0  0  0  0  0  0  0  0
  -16.8344  -27.0777   25.4568 C   0  0  0  0  0  0  0  0  0  0  0  0
  -28.1540  -11.5641   19.4476 C   0  0  0  0  0  0  0  0  0  0  0  0
  -30.4955  -12.3707   19.9629 C   0  0  0  0  0  0  0  0  0  0  0  0
  -28.5758  -13.5144   21.0024 C   0  0  0  0  0  0  0  0  0  0  0  0
  -17.8012  -25.8896   25.3850 C   0  0  1  0  0  0  0  0  0  0  0  0
  -21.3481  -27.2356   25.1832 C   0  0  1  0  0  0  0  0  0  0  0  0
  -27.6078  -12.9051   19.9738 C   0  0  2  0  0  0  0  0  0  0  0  0
  -20.9359  -21.4996   19.2060 C   0  0  0  0  0  0  0  0  0  0  0  0
  -26.4642  -32.1614   22.0905 C   0  0  0  0  0  0  0  0  0  0  0  0
  -20.3159  -29.7786   21.4646 C   0  0  0  0  0  0  0  0  0  0  0  0
  -22.2099  -31.1065   20.5064 C   0  0  0  0  0  0  0  0  0  0  0  0
  -21.1366  -31.8281   22.6395 C   0  0  0  0  0  0  0  0  0  0  0  0
  -27.2265  -29.2890   24.4662 C   0  0  0  0  0  0  0  0  0  0  0  0
  -24.4688  -21.1047   22.4389 C   0  0  0  0  0  0  0  0  0  1  0  0
  -22.7925  -20.1216   20.2392 C   0  0  0  0  0  0  0  0  0  0  0  0
  -22.4335  -21.2406   19.2510 C   0  0  0  0  0  0  0  0  0  0  0  0
  -30.3795  -17.9954   19.3465 C   0  0  0  0  0  0  0  0  0  0  0  0
  -28.8901  -18.2271   19.0947 C   0  0  0  0  0  0  0  0  0  0  0  0
  -30.6840  -17.2744   20.6579 C   0  0  0  0  0  0  0  0  0  0  0  0
  -22.6203  -29.7810   22.6291 C   0  0  1  0  0  0  0  0  0  0  0  0
  -26.1409  -31.0956   23.1260 C   0  0  2  0  0  0  0  0  0  0  0  0
  -21.5744  -30.5964   21.8174 C   0  0  0  0  0  0  0  0  0  0  0  0
  -24.7359  -19.1252   19.2185 N   0  0  0  0  0  0  0  0  0  0  0  0
  -25.8542  -11.6005   21.1162 N   0  0  0  0  0  0  0  0  0  0  0  0
  -26.2035  -12.7581   20.5296 N   0  0  0  0  0  0  0  0  0  0  0  0
  -22.0643  -27.8378   24.0569 N   0  0  0  0  0  0  0  0  0  0  0  0
  -29.9212  -13.6385   20.4198 N   0  0  0  0  0  0  0  0  0  0  0  0
  -25.3886  -14.9078   19.9592 N   0  0  0  0  0  0  0  0  0  0  0  0
  -21.8557  -12.9589   21.9883 N   0  0  0  0  0  0  0  0  0  0  0  0
  -28.3006  -18.9821   20.1611 N   0  0  0  0  0  0  0  0  0  0  0  0
  -19.1558  -26.3234   25.6518 N   0  0  0  0  0  0  0  0  0  0  0  0
  -23.8106  -30.5383   23.0006 N   0  0  0  0  0  0  0  0  0  0  0  0
  -30.0463  -15.9790   20.7361 N   0  0  0  0  0  0  0  0  0  0  0  0
  -27.3936  -30.3533   23.4434 N   0  3  0  0  0  0  0  0  0  0  0  0
  -22.5855  -14.8679   20.9480 O   0  0  0  0  0  0  0  0  0  0  0  0
  -19.7065  -27.0217   23.4997 O   0  0  0  0  0  0  0  0  0  0  0  0
  -21.6153  -30.0133   24.7651 O   0  0  0  0  0  0  0  0  0  0  0  0
  -25.3373  -29.1423   21.9529 O   0  0  0  0  0  0  0  0  0  0  0  0
  -31.7997  -14.8440   19.7905 O   0  0  0  0  0  0  0  0  0  0  0  0
  -21.7026   -7.8079   24.1045 O   0  0  0  0  0  0  0  0  0  0  0  0
  -24.1948  -22.4307   21.9886 O   0  0  0  0  0  0  0  0  0  1  0  0
  -22.0604   -2.6773   22.1164 F   0  0  0  0  0  0  0  0  0  0  0  0
  -19.4503   -6.4668   23.2265 F   0  0  0  0  0  0  0  0  0  0  0  0
  1  2  1  0  0  0  0
  1  5  2  0  0  0  0
  2  6  2  0  0  0  0
  3  8  2  0  0  0  0
  3 17  1  0  0  0  0
  4  9  1  0  0  0  0
  4 17  2  0  0  0  0
  5 19  1  0  0  0  0
  6 21  1  0  0  0  0
  7 10  2  0  0  0  0
  7 20  1  0  0  0  0
  8 25  1  0  0  0  0
  9 25  2  0  0  0  0
 10 26  1  0  0  0  0
 11 12  2  0  0  0  0
 11 27  1  0  0  0  0
 12 28  1  0  0  0  0
 13 22  1  0  0  0  0
 13 26  2  0  0  0  0
 14 23  1  0  0  0  0
 14 24  2  0  0  0  0
 15 28  2  0  0  0  0
 15 29  1  0  0  0  0
 16 24  1  0  0  0  0
 16 65  2  0  0  0  0
 17 30  1  0  0  0  0
 18 30  1  0  0  0  0
 18 32  2  0  0  0  0
 18 33  1  0  0  0  0
 19 21  2  0  0  0  0
 19 38  1  0  0  0  0
 20 22  2  0  0  0  0
 20 39  1  0  0  0  0
 21 47  1  0  0  0  0
 22 40  1  0  0  0  0
 23 31  2  0  0  0  0
 23 56  1  0  0  0  0
 24 72  1  0  0  0  0
 25 82  1  0  0  0  0
 26 83  1  0  0  0  0
 27 29  2  0  0  0  0
 27 82  1  0  0  0  0
 28 84  1  0  0  0  0
 29 85  1  0  0  0  0
 30 66  2  0  0  0  0
 31 57  1  0  0  0  0
 31 65  1  0  0  0  0
 32 67  1  0  0  0  0
 32 70  1  0  0  0  0
 33 71  1  0  0  0  0
 33 77  2  0  0  0  0
 34 48  1  0  0  0  0
 34 73  1  0  0  0  0
 34 78  2  0  0  0  0
 35 62  1  0  0  0  0
 35 68  1  0  0  0  0
 35 79  2  0  0  0  0
 36 63  1  0  0  0  0
 36 74  1  0  0  0  0
 36 80  2  0  0  0  0
 37 69  1  0  0  0  0
 37 75  1  0  0  0  0
 37 81  2  0  0  0  0
 38 41  1  0  0  0  0
 39 48  1  0  0  0  0
 40 68  1  0  0  0  0
 41 43  1  0  0  0  0
 42 44  1  0  0  0  0
 42 45  1  0  0  0  0
 43 47  1  0  0  0  0
 44 49  1  0  0  0  0
 45 69  1  0  0  0  0
 46 49  1  0  0  0  0
 46 69  1  0  0  0  0
 47 73  1  0  0  0  0
 48 68  1  0  0  0  0
 49 67  1  0  0  0  0
 50 58  1  0  0  0  0
 51 63  1  0  0  0  0
 52 64  1  0  0  0  0
 53 64  1  0  0  0  0
 54 64  1  0  0  0  0
 55 76  1  0  0  0  0
 56 83  1  0  0  0  0
 57 58  1  0  0  0  0
 59 60  1  0  0  0  0
 59 61  1  0  0  0  0
 60 72  1  0  0  0  0
 61 75  1  0  0  0  0
 62 64  1  0  0  0  0
 62 74  1  0  0  0  0
 63 76  1  0  0  0  0
 66 67  1  0  0  0  0
M  CHG  1  76   1
M  ISO  4  37 100  56 101  75 100  83 101
M  END
> <Batch ID>
0132

> <Smiles>
CCCc1ncc(NCCC[100NH:0][100C:0](=O)N2CCCC(n3nc(-c4ccc(Oc5ccc(F)cc5F)cc4)c(C(N)=O)c3N)C2)cc1[101CH2:1][101O:1]c1ccc2c(c1)CN(C(=O)C(NC(=O)C(C)NC)C(C)(C)C)C(C(=O)NC1CCCc3ccccc31)C2

> <Shape>
0.251

> <Color>
0.150

> <Negative vol penalty>
0.000

$$$$

  -OEChem-04052320523D

 82 90  0     1  0  0  0  0  0999 V2000
  -26.1690  -11.6484   24.0113 C   0  0  0  0  0  0  0  0  0  0  0  0
  -26.9436  -12.7930   23.8520 C   0  0  0  0  0  0  0  0  0  0  0  0
  -19.9419  -28.0040   23.6399 C   0  0  0  0  0  0  0  0  0  0  0  0
  -21.3796  -26.5069   22.4034 C   0  0  0  0  0  0  0  0  0  0  0  0
  -25.3251  -11.2306   22.9831 C   0  0  0  0  0  0  0  0  0  0  0  0
  -26.8756  -13.5198   22.6640 C   0  0  0  0  0  0  0  0  0  0  0  0
  -27.3493  -19.5928   22.0313 C   0  0  0  0  0  0  0  0  0  0  0  0
  -18.8218  -27.4006   23.0682 C   0  0  0  0  0  0  0  0  0  0  0  0
  -20.2595  -25.9035   21.8317 C   0  0  0  0  0  0  0  0  0  0  0  0
  -28.4130  -20.4180   21.6689 C   0  0  0  0  0  0  0  0  0  0  0  0
  -18.0658  -26.5707   19.3470 C   0  0  0  0  0  0  0  0  0  0  0  0
  -18.0929  -26.3227   17.9747 C   0  0  0  0  0  0  0  0  0  0  0  0
  -27.6233  -20.4248   19.3896 C   0  0  0  0  0  0  0  0  0  0  0  0
  -17.8186  -23.9596   18.3963 C   0  0  0  0  0  0  0  0  0  0  0  0
  -21.2208  -27.5572   23.3075 C   0  0  0  0  0  0  0  0  0  0  0  0
  -22.6960  -28.2599   25.2665 C   0  0  0  0  0  0  0  0  0  0  0  0
  -25.2394  -11.9581   21.7856 C   0  0  0  0  0  0  0  0  0  0  0  0
  -26.4192  -19.1679   21.0718 C   0  0  0  0  0  0  0  0  0  0  0  0
  -26.0307  -13.1106   21.6183 C   0  0  0  0  0  0  0  0  0  0  0  0
  -26.5472  -19.5964   19.7429 C   0  0  0  0  0  0  0  0  0  0  0  0
  -18.9806  -26.3503   22.1641 C   0  0  0  0  0  0  0  0  0  0  0  0
  -28.5518  -20.8318   20.3473 C   0  0  0  0  0  0  0  0  0  0  0  0
  -17.9152  -25.5132   20.2441 C   0  0  0  0  0  0  0  0  0  0  0  0
  -17.9693  -25.0172   17.4993 C   0  0  0  0  0  0  0  0  0  0  0  0
  -17.7916  -24.2077   19.7687 C   0  0  0  0  0  0  0  0  0  0  0  0
  -22.3783  -28.1805   23.8973 C   0  0  0  0  0  0  0  0  0  0  0  0
  -23.8865  -28.9440   25.3035 C   0  0  0  0  0  0  0  0  0  0  0  0
  -21.9793  -27.7599   26.4031 C   0  0  0  0  0  0  0  0  0  0  0  0
  -25.5242  -16.3477   19.9101 C   0  0  0  0  0  0  0  0  0  0  0  0
  -23.2941  -18.1283   18.3679 C   0  0  0  0  0  0  0  0  0  0  0  0
  -22.3633  -21.1702   17.1321 C   0  0  0  0  0  0  0  0  0  0  0  0
  -28.3046  -29.6577   21.3258 C   0  0  0  0  0  0  0  0  0  0  0  0
  -24.3482  -11.4410   20.6842 C   0  0  0  0  0  0  0  0  0  0  0  0
  -25.2622  -18.2996   21.4841 C   0  0  0  0  0  0  0  0  0  0  0  0
  -25.5641  -19.1847   18.6787 C   0  0  0  0  0  0  0  0  0  0  0  0
  -24.0542  -12.4766   19.6019 C   0  0  0  0  0  0  0  0  0  0  0  0
  -26.3964  -32.2249   22.8896 C   0  0  0  0  0  0  0  0  0  0  0  0
  -25.3372  -13.1839   19.1771 C   0  0  0  0  0  0  0  0  0  0  0  0
  -25.1789  -31.4866   23.4487 C   0  0  0  0  0  0  0  0  0  0  0  0
  -32.4157  -25.6509   17.6072 C   0  0  0  0  0  0  0  0  0  0  0  0
  -26.8419  -31.6445   21.5492 C   0  0  0  0  0  0  0  0  0  0  0  0
  -25.8688  -29.4517   22.1138 C   0  0  0  0  0  0  0  0  0  0  0  0
  -32.3606  -25.7239   16.0896 C   0  0  0  0  0  0  0  0  0  0  0  0
  -30.5976  -27.0866   17.0921 C   0  0  0  0  0  0  0  0  0  0  0  0
  -25.9660  -13.9396   20.3539 C   0  0  1  0  0  0  0  0  0  0  0  0
  -24.6653  -17.5090   20.3239 C   0  0  1  0  0  0  0  0  0  0  0  0
  -25.4167  -29.9651   23.4916 C   0  0  2  0  0  0  0  0  0  0  0  0
  -30.9851  -25.9675   18.0538 C   0  0  1  0  0  0  0  0  0  0  0  0
  -20.5019  -22.3061   15.8903 C   0  0  0  0  0  0  0  0  0  0  0  0
  -24.2481  -16.8451   15.7692 C   0  0  0  0  0  0  0  0  0  0  0  0
  -23.0621  -18.6611   14.5187 C   0  0  0  0  0  0  0  0  0  0  0  0
  -21.7668  -17.0916   15.9615 C   0  0  0  0  0  0  0  0  0  0  0  0
  -21.8391  -23.0233   19.3794 C   0  0  0  0  0  0  0  0  0  0  0  0
  -30.0590  -24.7509   17.9151 C   0  0  0  0  0  0  0  0  0  0  0  0
  -30.2572  -23.7632   19.0614 C   0  0  0  0  0  0  0  0  0  0  0  0
  -29.6490  -27.5778   21.1658 C   0  0  0  0  0  0  0  0  0  0  0  0
  -29.7000  -27.1379   19.7096 C   0  0  0  0  0  0  0  0  0  0  0  0
  -29.3712  -22.5345   18.9033 C   0  0  0  0  0  0  0  0  0  1  0  0
  -23.2301  -18.8475   17.0422 C   0  0  1  0  0  0  0  0  0  0  0  0
  -21.0699  -21.9551   17.2566 C   0  0  2  0  0  0  0  0  0  0  0  0
  -23.0965  -17.8677   15.8423 C   0  0  0  0  0  0  0  0  0  0  0  0
  -23.2929  -28.7674   23.1208 N   0  0  0  0  0  0  0  0  0  0  0  0
  -24.1971  -29.2222   24.0049 N   0  0  0  0  0  0  0  0  0  0  0  0
  -24.4535  -18.3301   19.1301 N   0  0  0  0  0  0  0  0  0  0  0  0
  -27.0517  -30.1988   21.6584 N   0  0  0  0  0  0  0  0  0  0  0  0
  -24.6873  -29.3288   26.3199 N   0  0  0  0  0  0  0  0  0  0  0  0
  -20.7730  -27.0801   26.1862 N   0  0  0  0  0  0  0  0  0  0  0  0
  -25.2574  -15.1781   20.5959 N   0  0  0  0  0  0  0  0  0  0  0  0
  -22.1391  -19.8098   17.1521 N   0  0  0  0  0  0  0  0  0  0  0  0
  -28.4205  -28.2799   21.4635 N   0  0  0  0  0  0  0  0  0  0  0  0
  -30.9376  -26.4206   19.4412 N   0  0  0  0  0  0  0  0  0  0  0  0
  -31.2451  -26.6874   15.7950 N   0  3  0  0  0  0  0  0  0  0  0  0
  -21.3024  -23.2207   18.0083 N   0  3  0  0  0  0  0  0  0  0  0  0
  -22.3880  -27.9258   27.5774 O   0  0  0  0  0  0  0  0  0  0  0  0
  -26.3658  -16.5011   19.0326 O   0  0  0  0  0  0  0  0  0  0  0  0
  -22.3471  -17.4193   18.7177 O   0  0  0  0  0  0  0  0  0  0  0  0
  -23.4622  -21.7099   17.0239 O   0  0  0  0  0  0  0  0  0  0  0  0
  -29.2514  -30.3518   20.9402 O   0  0  0  0  0  0  0  0  0  0  0  0
  -17.8878  -25.7611   21.6062 O   0  0  0  0  0  0  0  0  0  0  0  0
  -29.5895  -21.6367   19.9907 O   0  0  0  0  0  0  0  0  0  1  0  0
  -17.9937  -24.7793   16.1814 F   0  0  0  0  0  0  0  0  0  0  0  0
  -17.6455  -23.1877   20.6256 F   0  0  0  0  0  0  0  0  0  0  0  0
  1  2  1  0  0  0  0
  1  5  2  0  0  0  0
  2  6  2  0  0  0  0
  3  8  2  0  0  0  0
  3 15  1  0  0  0  0
  4  9  1  0  0  0  0
  4 15  2  0  0  0  0
  5 17  1  0  0  0  0
  6 19  1  0  0  0  0
  7 10  2  0  0  0  0
  7 18  1  0  0  0  0
  8 21  1  0  0  0  0
  9 21  2  0  0  0  0
 10 22  1  0  0  0  0
 11 12  2  0  0  0  0
 11 23  1  0  0  0  0
 12 24  1  0  0  0  0
 13 20  1  0  0  0  0
 13 22  2  0  0  0  0
 14 24  2  0  0  0  0
 14 25  1  0  0  0  0
 15 26  1  0  0  0  0
 16 26  1  0  0  0  0
 16 27  2  0  0  0  0
 16 28  1  0  0  0  0
 17 19  2  0  0  0  0
 17 33  1  0  0  0  0
 18 20  2  0  0  0  0
 18 34  1  0  0  0  0
 19 45  1  0  0  0  0
 20 35  1  0  0  0  0
 21 79  1  0  0  0  0
 22 80  1  0  0  0  0
 23 25  2  0  0  0  0
 23 79  1  0  0  0  0
 24 81  1  0  0  0  0
 25 82  1  0  0  0  0
 26 62  2  0  0  0  0
 27 63  1  0  0  0  0
 27 66  1  0  0  0  0
 28 67  1  0  0  0  0
 28 74  2  0  0  0  0
 29 46  1  0  0  0  0
 29 68  1  0  0  0  0
 29 75  2  0  0  0  0
 30 59  1  0  0  0  0
 30 64  1  0  0  0  0
 30 76  2  0  0  0  0
 31 60  1  0  0  0  0
 31 69  1  0  0  0  0
 31 77  2  0  0  0  0
 32 65  1  0  0  0  0
 32 70  1  0  0  0  0
 32 78  2  0  0  0  0
 33 36  1  0  0  0  0
 34 46  1  0  0  0  0
 35 64  1  0  0  0  0
 36 38  1  0  0  0  0
 37 39  1  0  0  0  0
 37 41  1  0  0  0  0
 38 45  1  0  0  0  0
 39 47  1  0  0  0  0
 40 43  1  0  0  0  0
 40 48  1  0  0  0  0
 41 65  1  0  0  0  0
 42 47  1  0  0  0  0
 42 65  1  0  0  0  0
 43 72  1  0  0  0  0
 44 48  1  0  0  0  0
 44 72  1  0  0  0  0
 45 68  1  0  0  0  0
 46 64  1  0  0  0  0
 47 63  1  0  0  0  0
 48 54  1  0  0  0  0
 48 71  1  0  0  0  0
 49 60  1  0  0  0  0
 50 61  1  0  0  0  0
 51 61  1  0  0  0  0
 52 61  1  0  0  0  0
 53 73  1  0  0  0  0
 54 55  1  0  0  0  0
 55 58  1  0  0  0  0
 56 57  1  0  0  0  0
 56 70  1  0  0  0  0
 57 71  1  0  0  0  0
 58 80  1  0  0  0  0
 59 61  1  0  0  0  0
 59 69  1  0  0  0  0
 60 73  1  0  0  0  0
 62 63  1  0  0  0  0
M  CHG  2  72   1  73   1
M  ISO  4  32 100  58 101  70 100  80 101
M  END
> <Batch ID>
0132

> <Smiles>
CNC(C)C(=O)NC(C(=O)N1Cc2cc([101O:1][101CH2:1]CCC3(NCC[100NH:0][100C:0](=O)N4CCCC(n5nc(-c6ccc(Oc7ccc(F)cc7F)cc6)c(C(N)=O)c5N)C4)CCNC3)ccc2CC1C(=O)NC1CCCc2ccccc21)C(C)(C)C

> <Shape>
0.202

> <Color>
0.064

> <Negative vol penalty>
0.000

$$$$

  -OEChem-04052320523D

 87 97  0     1  0  0  0  0  0999 V2000
  -29.9470  -35.9693   24.1628 C   0  0  0  0  0  0  0  0  0  0  0  0
  -29.9797  -34.6808   23.6393 C   0  0  0  0  0  0  0  0  0  0  0  0
  -22.8669  -10.0664   20.5192 C   0  0  0  0  0  0  0  0  0  0  0  0
  -24.6063   -8.6290   21.3825 C   0  0  0  0  0  0  0  0  0  0  0  0
  -28.8196  -36.4115   24.8536 C   0  0  0  0  0  0  0  0  0  0  0  0
  -28.8852  -33.8332   23.8073 C   0  0  0  0  0  0  0  0  0  0  0  0
  -28.4470  -21.9823   20.1921 C   0  0  0  0  0  0  0  0  0  0  0  0
  -26.8400  -29.6325   19.8479 C   0  0  0  0  0  0  0  0  0  0  0  0
  -28.4505  -23.3771   20.2000 C   0  0  0  0  0  0  0  0  0  0  0  0
  -21.9650   -9.5254   21.4354 C   0  0  0  0  0  0  0  0  0  0  0  0
  -23.7045   -8.0880   22.2989 C   0  0  0  0  0  0  0  0  0  0  0  0
  -27.0211  -28.2524   19.7677 C   0  0  0  0  0  0  0  0  0  0  0  0
  -21.2064   -5.8098   22.2877 C   0  0  0  0  0  0  0  0  0  0  0  0
  -21.1947   -4.4239   22.4444 C   0  0  0  0  0  0  0  0  0  0  0  0
  -26.3868  -23.3895   18.9437 C   0  0  0  0  0  0  0  0  0  0  0  0
  -24.9304  -27.9170   20.9234 C   0  0  0  0  0  0  0  0  0  0  0  0
  -21.7573   -4.6833   24.7797 C   0  0  0  0  0  0  0  0  0  0  0  0
  -24.1875   -9.6181   20.4926 C   0  0  0  0  0  0  0  0  0  0  0  0
  -25.0203  -10.1547   18.1418 C   0  0  0  0  0  0  0  0  0  0  0  0
  -27.7069  -35.5722   25.0218 C   0  0  0  0  0  0  0  0  0  0  0  0
  -25.7061  -30.1662   20.4772 C   0  0  0  0  0  0  0  0  0  0  0  0
  -27.4134  -21.2911   19.5599 C   0  0  0  0  0  0  0  0  0  0  0  0
  -27.7424  -34.2641   24.5022 C   0  0  0  0  0  0  0  0  0  0  0  0
  -26.3833  -21.9947   18.9358 C   0  0  0  0  0  0  0  0  0  0  0  0
  -24.7360  -29.3041   21.0081 C   0  0  0  0  0  0  0  0  0  0  0  0
  -27.4205  -24.0807   19.5758 C   0  0  0  0  0  0  0  0  0  0  0  0
  -22.3838   -8.5363   22.3253 C   0  0  0  0  0  0  0  0  0  0  0  0
  -26.0677  -27.3945   20.3081 C   0  0  0  0  0  0  0  0  0  0  0  0
  -21.4936   -6.6326   23.3769 C   0  0  0  0  0  0  0  0  0  0  0  0
  -21.4701   -3.8606   23.6904 C   0  0  0  0  0  0  0  0  0  0  0  0
  -21.7691   -6.0693   24.6228 C   0  0  0  0  0  0  0  0  0  0  0  0
  -25.1195  -10.1761   19.5460 C   0  0  0  0  0  0  0  0  0  0  0  0
  -26.1461  -10.8111   17.7081 C   0  0  0  0  0  0  0  0  0  0  0  0
  -24.0015   -9.5920   17.3046 C   0  0  0  0  0  0  0  0  0  0  0  0
  -25.2113  -32.0251   23.0077 C   0  0  0  0  0  0  0  0  0  0  0  0
  -22.1334  -31.9298   21.9881 C   0  0  0  0  0  0  0  0  0  0  0  0
  -19.7143  -30.2887   20.2269 C   0  0  0  0  0  0  0  0  0  0  0  0
  -29.7007  -14.9150   20.2328 C   0  0  0  0  0  0  0  0  0  0  0  0
  -26.5294  -36.0784   25.8168 C   0  0  0  0  0  0  0  0  0  0  0  0
  -25.5124  -31.6568   20.5319 C   0  0  0  0  0  0  0  0  0  0  0  0
  -23.4912  -29.8264   21.6760 C   0  0  0  0  0  0  0  0  0  0  0  0
  -25.2636  -35.2465   25.6271 C   0  0  0  0  0  0  0  0  0  0  0  0
  -30.6679  -11.7277   18.9748 C   0  0  0  0  0  0  0  0  0  0  0  0
  -23.9371  -21.9639   18.1056 C   0  0  0  0  0  0  0  0  0  0  0  0
  -24.0827  -20.8246   19.0655 C   0  0  0  0  0  0  0  0  0  0  0  0
  -27.3436  -19.2056   20.9931 C   0  0  0  0  0  0  0  0  0  0  0  0
  -28.6611  -19.2138   18.8277 C   0  0  0  0  0  0  0  0  0  0  0  0
  -25.5815  -33.7585   25.7354 C   0  0  0  0  0  0  0  0  0  0  0  0
  -29.3466  -10.9667   18.8518 C   0  0  0  0  0  0  0  0  0  0  0  0
  -27.3498  -17.6765   20.9878 C   0  0  0  0  0  0  0  0  0  0  0  0
  -28.6656  -17.6847   18.8276 C   0  0  0  0  0  0  0  0  0  0  0  0
  -30.6816  -12.6405   20.1989 C   0  0  0  0  0  0  0  0  0  0  0  0
  -28.2235  -12.8151   20.1637 C   0  0  0  0  0  0  0  0  0  0  0  0
  -27.4330  -19.7733   19.5662 C   0  0  0  0  0  0  0  0  0  0  0  0
  -25.2675  -21.2750   18.2531 C   0  0  0  0  0  0  0  0  0  0  0  0
  -26.5651  -33.3236   24.6423 C   0  0  1  0  0  0  0  0  0  0  0  0
  -24.5721  -32.0965   21.6498 C   0  0  1  0  0  0  0  0  0  0  0  0
  -28.1407  -11.9234   18.9129 C   0  0  2  0  0  0  0  0  0  0  0  0
  -28.5710  -17.1246   20.2484 C   0  0  0  0  0  0  0  0  0  0  0  0
  -17.2871  -30.4357   19.6067 C   0  0  0  0  0  0  0  0  0  0  0  0
  -21.3632  -31.0149   24.7952 C   0  0  0  0  0  0  0  0  0  0  0  0
  -19.1548  -30.2786   23.8739 C   0  0  0  0  0  0  0  0  0  0  0  0
  -19.8044  -32.6851   23.7779 C   0  0  0  0  0  0  0  0  0  0  0  0
  -20.3412  -30.4252   17.3378 C   0  0  0  0  0  0  0  0  0  0  0  0
  -27.4255  -25.5811   19.5841 C   0  0  0  0  0  0  0  0  0  1  0  0
  -20.9488  -31.0304   22.2469 C   0  0  1  0  0  0  0  0  0  0  0  0
  -18.7113  -30.7773   19.1974 C   0  0  2  0  0  0  0  0  0  0  0  0
  -20.3421  -31.2421   23.6627 C   0  0  0  0  0  0  0  0  0  0  0  0
  -26.2214  -10.7967   19.9756 N   0  0  0  0  0  0  0  0  0  0  0  0
  -26.8250  -11.1713   18.8348 N   0  0  0  0  0  0  0  0  0  0  0  0
  -23.3504  -31.2915   21.7101 N   0  0  0  0  0  0  0  0  0  0  0  0
  -29.5127  -13.5235   20.1959 N   0  0  0  0  0  0  0  0  0  0  0  0
  -26.6118  -11.1093   16.4766 N   0  0  0  0  0  0  0  0  0  0  0  0
  -24.1392   -8.2611   16.8874 N   0  0  0  0  0  0  0  0  0  0  0  0
  -25.8806  -33.1767   23.3757 N   0  0  0  0  0  0  0  0  0  0  0  0
  -20.0115  -31.2653   21.1539 N   0  0  0  0  0  0  0  0  0  0  0  0
  -28.5403  -15.6793   20.2205 N   0  0  0  0  0  0  0  0  0  0  0  0
  -18.9825  -30.1513   17.8724 N   0  3  0  0  0  0  0  0  0  0  0  0
  -23.0070  -10.2550   16.9238 O   0  0  0  0  0  0  0  0  0  0  0  0
  -25.1040  -31.0016   23.6729 O   0  0  0  0  0  0  0  0  0  0  0  0
  -21.9828  -33.1535   22.0240 O   0  0  0  0  0  0  0  0  0  0  0  0
  -20.1840  -29.1531   20.2126 O   0  0  0  0  0  0  0  0  0  0  0  0
  -30.8199  -15.4376   20.2682 O   0  0  0  0  0  0  0  0  0  0  0  0
  -21.5041   -8.0084   23.2198 O   0  0  0  0  0  0  0  0  0  0  0  0
  -26.2423  -26.0471   20.2317 O   0  0  0  0  0  0  0  0  0  1  0  0
  -21.4573   -2.5297   23.8412 F   0  0  0  0  0  0  0  0  0  0  0  0
  -22.0446   -6.8546   25.6732 F   0  0  0  0  0  0  0  0  0  0  0  0
  1  2  1  0  0  0  0
  1  5  2  0  0  0  0
  2  6  2  0  0  0  0
  3 10  2  0  0  0  0
  3 18  1  0  0  0  0
  4 11  1  0  0  0  0
  4 18  2  0  0  0  0
  5 20  1  0  0  0  0
  6 23  1  0  0  0  0
  7  9  2  0  0  0  0
  7 22  1  0  0  0  0
  8 12  2  0  0  0  0
  8 21  1  0  0  0  0
  9 26  1  0  0  0  0
 10 27  1  0  0  0  0
 11 27  2  0  0  0  0
 12 28  1  0  0  0  0
 13 14  2  0  0  0  0
 13 29  1  0  0  0  0
 14 30  1  0  0  0  0
 15 24  1  0  0  0  0
 15 26  2  0  0  0  0
 16 25  1  0  0  0  0
 16 28  2  0  0  0  0
 17 30  2  0  0  0  0
 17 31  1  0  0  0  0
 18 32  1  0  0  0  0
 19 32  1  0  0  0  0
 19 33  2  0  0  0  0
 19 34  1  0  0  0  0
 20 23  2  0  0  0  0
 20 39  1  0  0  0  0
 21 25  2  0  0  0  0
 21 40  1  0  0  0  0
 22 24  2  0  0  0  0
 22 54  1  0  0  0  0
 23 56  1  0  0  0  0
 24 55  1  0  0  0  0
 25 41  1  0  0  0  0
 26 65  1  0  0  0  0
 27 84  1  0  0  0  0
 28 85  1  0  0  0  0
 29 31  2  0  0  0  0
 29 84  1  0  0  0  0
 30 86  1  0  0  0  0
 31 87  1  0  0  0  0
 32 69  2  0  0  0  0
 33 70  1  0  0  0  0
 33 73  1  0  0  0  0
 34 74  1  0  0  0  0
 34 79  2  0  0  0  0
 35 57  1  0  0  0  0
 35 75  1  0  0  0  0
 35 80  2  0  0  0  0
 36 66  1  0  0  0  0
 36 71  1  0  0  0  0
 36 81  2  0  0  0  0
 37 67  1  0  0  0  0
 37 76  1  0  0  0  0
 37 82  2  0  0  0  0
 38 72  1  0  0  0  0
 38 77  1  0  0  0  0
 38 83  2  0  0  0  0
 39 42  1  0  0  0  0
 40 57  1  0  0  0  0
 41 71  1  0  0  0  0
 42 48  1  0  0  0  0
 43 49  1  0  0  0  0
 43 52  1  0  0  0  0
 44 45  1  0  0  0  0
 44 55  1  0  0  0  0
 45 55  1  0  0  0  0
 46 50  1  0  0  0  0
 46 54  1  0  0  0  0
 47 51  1  0  0  0  0
 47 54  1  0  0  0  0
 48 56  1  0  0  0  0
 49 58  1  0  0  0  0
 50 59  1  0  0  0  0
 51 59  1  0  0  0  0
 52 72  1  0  0  0  0
 53 58  1  0  0  0  0
 53 72  1  0  0  0  0
 56 75  1  0  0  0  0
 57 71  1  0  0  0  0
 58 70  1  0  0  0  0
 59 77  1  0  0  0  0
 60 67  1  0  0  0  0
 61 68  1  0  0  0  0
 62 68  1  0  0  0  0
 63 68  1  0  0  0  0
 64 78  1  0  0  0  0
 65 85  1  0  0  0  0
 66 68  1  0  0  0  0
 66 76  1  0  0  0  0
 67 78  1  0  0  0  0
 69 70  1  0  0  0  0
M  CHG  1  78   1
M  ISO  4  38 100  65 101  77 100  85 101
M  END
> <Batch ID>
0132

> <Smiles>
CNC(C)C(=O)NC(C(=O)N1Cc2cc([101O:1][101CH2:1]c3ccc(C4CCC([100NH:0][100C:0](=O)N5CCCC(n6nc(-c7ccc(Oc8ccc(F)cc8F)cc7)c(C(N)=O)c6N)C5)CC4)c(C4CC4)c3)ccc2CC1C(=O)NC1CCCc2ccccc21)C(C)(C)C

> <Shape>
0.299

> <Color>
0.095

> <Negative vol penalty>
0.000

$$$$

  -OEChem-04052320523D

 82 90  0     1  0  0  0  0  0999 V2000
  -31.4233  -22.5411   15.1143 C   0  0  0  0  0  0  0  0  0  0  0  0
  -30.9925  -22.3763   16.4269 C   0  0  0  0  0  0  0  0  0  0  0  0
  -32.3439  -17.7971   23.6612 C   0  0  0  0  0  0  0  0  0  0  0  0
  -23.1170   -9.8756   19.8942 C   0  0  0  0  0  0  0  0  0  0  0  0
  -23.8960   -9.8193   22.1805 C   0  0  0  0  0  0  0  0  0  0  0  0
  -31.5871  -23.8231   14.5914 C   0  0  0  0  0  0  0  0  0  0  0  0
  -30.7263  -23.4936   17.2176 C   0  0  0  0  0  0  0  0  0  0  0  0
  -26.4079  -23.0446   19.8242 C   0  0  0  0  0  0  0  0  0  0  0  0
  -31.5276  -18.5964   24.4614 C   0  0  0  0  0  0  0  0  0  0  0  0
  -31.7733  -16.9315   22.7280 C   0  0  0  0  0  0  0  0  0  0  0  0
  -22.4353   -8.6757   20.0969 C   0  0  0  0  0  0  0  0  0  0  0  0
  -23.2142   -8.6194   22.3832 C   0  0  0  0  0  0  0  0  0  0  0  0
  -26.4350  -22.2497   20.9692 C   0  0  0  0  0  0  0  0  0  0  0  0
  -23.6695   -5.3449   21.6749 C   0  0  0  0  0  0  0  0  0  0  0  0
  -24.3430   -4.3216   22.3418 C   0  0  0  0  0  0  0  0  0  0  0  0
  -26.6201  -24.2309   22.3329 C   0  0  0  0  0  0  0  0  0  0  0  0
  -22.6502   -4.3311   24.0656 C   0  0  0  0  0  0  0  0  0  0  0  0
  -23.8474  -10.4474   20.9360 C   0  0  0  0  0  0  0  0  0  0  0  0
  -24.0587  -12.9896   20.9276 C   0  0  0  0  0  0  0  0  0  0  0  0
  -31.3136  -24.9566   15.3730 C   0  0  0  0  0  0  0  0  0  0  0  0
  -26.4978  -24.4404   19.9244 C   0  0  0  0  0  0  0  0  0  0  0  0
  -30.8879  -24.7920   16.7050 C   0  0  0  0  0  0  0  0  0  0  0  0
  -26.5913  -25.0415   21.1878 C   0  0  0  0  0  0  0  0  0  0  0  0
  -30.1407  -18.5301   24.3285 C   0  0  0  0  0  0  0  0  0  0  0  0
  -29.5700  -17.6645   23.3952 C   0  0  0  0  0  0  0  0  0  0  0  0
  -30.3864  -16.8652   22.5950 C   0  0  0  0  0  0  0  0  0  0  0  0
  -22.4839   -8.0476   21.3413 C   0  0  0  0  0  0  0  0  0  0  0  0
  -26.5441  -22.8427   22.2237 C   0  0  0  0  0  0  0  0  0  0  0  0
  -22.4864   -5.8614   22.2033 C   0  0  0  0  0  0  0  0  0  0  0  0
  -23.8333   -3.8147   23.5372 C   0  0  0  0  0  0  0  0  0  0  0  0
  -21.9767   -5.3545   23.3987 C   0  0  0  0  0  0  0  0  0  0  0  0
  -24.5523  -11.6865   20.7271 C   0  0  0  0  0  0  0  0  0  0  0  0
  -25.1078  -13.8097   20.5912 C   0  0  0  0  0  0  0  0  0  0  0  0
  -22.7673  -13.4202   21.3777 C   0  0  0  0  0  0  0  0  0  0  0  0
  -28.5583  -26.6346   18.9028 C   0  0  0  0  0  0  0  0  0  0  0  0
  -26.3507  -28.6960   20.0857 C   0  0  0  0  0  0  0  0  0  0  0  0
  -23.7711  -29.2504   22.2503 C   0  0  0  0  0  0  0  0  0  0  0  0
  -30.5148  -15.1263   20.7767 C   0  0  0  0  0  0  0  0  0  0  0  0
  -31.5507  -26.3225   14.7791 C   0  0  0  0  0  0  0  0  0  0  0  0
  -26.4402  -25.2853   18.6813 C   0  0  0  0  0  0  0  0  0  0  0  0
  -26.6704  -26.5367   21.3508 C   0  0  0  0  0  0  0  0  0  0  0  0
  -30.8879  -27.4515   15.5640 C   0  0  0  0  0  0  0  0  0  0  0  0
  -29.5041  -12.7665   18.3096 C   0  0  0  0  0  0  0  0  0  0  0  0
  -31.1552  -27.2920   17.0573 C   0  0  0  0  0  0  0  0  0  0  0  0
  -28.0852  -12.3824   18.7351 C   0  0  0  0  0  0  0  0  0  0  0  0
  -30.4170  -12.9882   19.5142 C   0  0  0  0  0  0  0  0  0  0  0  0
  -28.4879  -13.5512   20.9393 C   0  0  0  0  0  0  0  0  0  0  0  0
  -30.5653  -25.9792   17.5863 C   0  0  1  0  0  0  0  0  0  0  0  0
  -27.0565  -26.6681   18.8696 C   0  0  1  0  0  0  0  0  0  0  0  0
  -27.5148  -13.3809   19.7613 C   0  0  2  0  0  0  0  0  0  0  0  0
  -28.0814  -17.5969   23.2561 C   0  0  0  0  0  0  0  0  0  0  0  0
  -22.1934  -31.0453   23.0162 C   0  0  0  0  0  0  0  0  0  0  0  0
  -28.5973  -29.9764   21.7054 C   0  0  0  0  0  0  0  0  0  0  0  0
  -26.8527  -31.0844   23.1186 C   0  0  0  0  0  0  0  0  0  0  0  0
  -26.9934  -31.5995   20.6819 C   0  0  0  0  0  0  0  0  0  0  0  0
  -21.4041  -27.7064   21.3716 C   0  0  0  0  0  0  0  0  0  0  0  0
  -29.2859  -19.4007   25.2017 C   0  0  0  0  0  0  0  0  0  0  0  0
  -27.8051  -21.4097   25.2989 C   0  0  0  0  0  0  0  0  0  0  0  0
  -27.3045  -22.5692   24.4604 C   0  0  0  0  0  0  0  0  0  1  0  0
  -26.1082  -29.3506   21.4243 C   0  0  1  0  0  0  0  0  0  0  0  0
  -22.4088  -29.8898   22.0512 C   0  0  2  0  0  0  0  0  0  0  0  0
  -27.1384  -30.4744   21.7297 C   0  0  0  0  0  0  0  0  0  0  0  0
  -25.8166  -11.6747   20.2966 N   0  0  0  0  0  0  0  0  0  0  0  0
  -26.1263  -12.9804   20.2237 N   0  0  0  0  0  0  0  0  0  0  0  0
  -26.6165  -27.3195   20.1051 N   0  0  0  0  0  0  0  0  0  0  0  0
  -29.8140  -13.9487   20.4408 N   0  0  0  0  0  0  0  0  0  0  0  0
  -25.2493  -15.1522   20.5769 N   0  0  0  0  0  0  0  0  0  0  0  0
  -21.8062  -12.4460   21.6803 N   0  0  0  0  0  0  0  0  0  0  0  0
  -29.8283  -15.9794   21.6402 N   0  0  0  0  0  0  0  0  0  0  0  0
  -29.1345  -26.1036   17.7646 N   0  0  0  0  0  0  0  0  0  0  0  0
  -24.7201  -29.7992   21.4139 N   0  0  0  0  0  0  0  0  0  0  0  0
  -21.3287  -28.8867   22.2705 N   0  3  0  0  0  0  0  0  0  0  0  0
  -28.7044  -20.5622   24.4760 N   0  3  0  0  0  0  0  0  0  0  0  0
  -22.4690  -14.6332   21.4920 O   0  0  0  0  0  0  0  0  0  0  0  0
  -29.1505  -27.0604   19.8875 O   0  0  0  0  0  0  0  0  0  0  0  0
  -26.2988  -29.3795   19.0601 O   0  0  0  0  0  0  0  0  0  0  0  0
  -23.9741  -28.3564   23.0688 O   0  0  0  0  0  0  0  0  0  0  0  0
  -31.6296  -15.3736   20.3097 O   0  0  0  0  0  0  0  0  0  0  0  0
  -21.8186   -6.8768   21.5395 O   0  0  0  0  0  0  0  0  0  0  0  0
  -26.5714  -22.0691   23.3429 O   0  0  0  0  0  0  0  0  0  1  0  0
  -24.4793   -2.8309   24.1768 F   0  0  0  0  0  0  0  0  0  0  0  0
  -20.8399   -5.8458   23.9106 F   0  0  0  0  0  0  0  0  0  0  0  0
  1  2  1  0  0  0  0
  1  6  2  0  0  0  0
  2  7  2  0  0  0  0
  3  9  2  0  0  0  0
  3 10  1  0  0  0  0
  4 11  2  0  0  0  0
  4 18  1  0  0  0  0
  5 12  1  0  0  0  0
  5 18  2  0  0  0  0
  6 20  1  0  0  0  0
  7 22  1  0  0  0  0
  8 13  2  0  0  0  0
  8 21  1  0  0  0  0
  9 24  1  0  0  0  0
 10 26  2  0  0  0  0
 11 27  1  0  0  0  0
 12 27  2  0  0  0  0
 13 28  1  0  0  0  0
 14 15  2  0  0  0  0
 14 29  1  0  0  0  0
 15 30  1  0  0  0  0
 16 23  1  0  0  0  0
 16 28  2  0  0  0  0
 17 30  2  0  0  0  0
 17 31  1  0  0  0  0
 18 32  1  0  0  0  0
 19 32  1  0  0  0  0
 19 33  2  0  0  0  0
 19 34  1  0  0  0  0
 20 22  2  0  0  0  0
 20 39  1  0  0  0  0
 21 23  2  0  0  0  0
 21 40  1  0  0  0  0
 22 48  1  0  0  0  0
 23 41  1  0  0  0  0
 24 25  2  0  0  0  0
 24 57  1  0  0  0  0
 25 26  1  0  0  0  0
 25 51  1  0  0  0  0
 26 69  1  0  0  0  0
 27 79  1  0  0  0  0
 28 80  1  0  0  0  0
 29 31  2  0  0  0  0
 29 79  1  0  0  0  0
 30 81  1  0  0  0  0
 31 82  1  0  0  0  0
 32 63  2  0  0  0  0
 33 64  1  0  0  0  0
 33 67  1  0  0  0  0
 34 68  1  0  0  0  0
 34 74  2  0  0  0  0
 35 49  1  0  0  0  0
 35 70  1  0  0  0  0
 35 75  2  0  0  0  0
 36 60  1  0  0  0  0
 36 65  1  0  0  0  0
 36 76  2  0  0  0  0
 37 61  1  0  0  0  0
 37 71  1  0  0  0  0
 37 77  2  0  0  0  0
 38 66  1  0  0  0  0
 38 69  1  0  0  0  0
 38 78  2  0  0  0  0
 39 42  1  0  0  0  0
 40 49  1  0  0  0  0
 41 65  1  0  0  0  0
 42 44  1  0  0  0  0
 43 45  1  0  0  0  0
 43 46  1  0  0  0  0
 44 48  1  0  0  0  0
 45 50  1  0  0  0  0
 46 66  1  0  0  0  0
 47 50  1  0  0  0  0
 47 66  1  0  0  0  0
 48 70  1  0  0  0  0
 49 65  1  0  0  0  0
 50 64  1  0  0  0  0
 52 61  1  0  0  0  0
 53 62  1  0  0  0  0
 54 62  1  0  0  0  0
 55 62  1  0  0  0  0
 56 72  1  0  0  0  0
 57 73  1  0  0  0  0
 58 59  1  0  0  0  0
 58 73  1  0  0  0  0
 59 80  1  0  0  0  0
 60 62  1  0  0  0  0
 60 71  1  0  0  0  0
 61 72  1  0  0  0  0
 63 64  1  0  0  0  0
M  CHG  2  72   1  73   1
M  ISO  4  38 100  59 101  69 100  80 101
M  END
> <Batch ID>
0132

> <Smiles>
CNC(C)C(=O)NC(C(=O)N1Cc2cc([101O:1][101CH2:1]CNCc3cccc([100NH:0][100C:0](=O)N4CCCC(n5nc(-c6ccc(Oc7ccc(F)cc7F)cc6)c(C(N)=O)c5N)C4)c3C)ccc2CC1C(=O)NC1CCCc2ccccc21)C(C)(C)C

> <Shape>
0.302

> <Color>
0.225

> <Negative vol penalty>
0.000

$$$$

  -OEChem-04052320523D

 83 91  0     1  0  0  0  0  0999 V2000
  -28.3885  -23.0515   18.1840 C   0  0  0  0  0  0  0  0  0  0  0  0
  -27.2346  -23.7990   18.3910 C   0  0  0  0  0  0  0  0  0  0  0  0
  -28.1295  -12.0036   19.4529 C   0  0  0  0  0  0  0  0  0  0  0  0
  -26.0009  -12.7018   18.5480 C   0  0  0  0  0  0  0  0  0  0  0  0
  -29.5027  -23.2578   18.9946 C   0  0  0  0  0  0  0  0  0  0  0  0
  -27.1986  -24.7611   19.4009 C   0  0  0  0  0  0  0  0  0  0  0  0
  -23.2119  -27.6364   19.6070 C   0  0  0  0  0  0  0  0  0  0  0  0
  -27.5726  -10.7778   19.8172 C   0  0  0  0  0  0  0  0  0  0  0  0
  -25.4440  -11.4758   18.9122 C   0  0  0  0  0  0  0  0  0  0  0  0
  -21.9686  -27.1716   20.0336 C   0  0  0  0  0  0  0  0  0  0  0  0
  -24.2746  -10.0080   21.7245 C   0  0  0  0  0  0  0  0  0  0  0  0
  -23.0255  -10.0225   22.3451 C   0  0  0  0  0  0  0  0  0  0  0  0
  -22.2942  -28.2679   22.1576 C   0  0  0  0  0  0  0  0  0  0  0  0
  -20.9037  -24.6933   21.7057 C   0  0  0  0  0  0  0  0  0  0  0  0
  -22.1180   -8.6842   20.5500 C   0  0  0  0  0  0  0  0  0  0  0  0
  -18.7369  -25.3530   20.9795 C   0  0  0  0  0  0  0  0  0  0  0  0
  -27.3436  -12.9657   18.8183 C   0  0  0  0  0  0  0  0  0  0  0  0
  -28.5422  -14.5541   17.2221 C   0  0  0  0  0  0  0  0  0  0  0  0
  -29.4752  -24.2144   20.0228 C   0  0  0  0  0  0  0  0  0  0  0  0
  -24.0118  -28.4126   20.4580 C   0  0  0  0  0  0  0  0  0  0  0  0
  -28.3209  -25.0008   20.2142 C   0  0  0  0  0  0  0  0  0  0  0  0
  -23.5461  -28.7434   21.7386 C   0  0  0  0  0  0  0  0  0  0  0  0
  -20.5572  -23.3731   21.4407 C   0  0  0  0  0  0  0  0  0  0  0  0
  -26.2299  -10.5138   19.5468 C   0  0  0  0  0  0  0  0  0  0  0  0
  -21.5108  -27.4849   21.3100 C   0  0  0  0  0  0  0  0  0  0  0  0
  -24.4454   -9.3317   20.5165 C   0  0  0  0  0  0  0  0  0  0  0  0
  -19.9816  -25.7080   21.4738 C   0  0  0  0  0  0  0  0  0  1  0  0
  -21.9473   -9.3606   21.7579 C   0  0  0  0  0  0  0  0  0  0  0  0
  -23.3671   -8.6698   19.9293 C   0  0  0  0  0  0  0  0  0  0  0  0
  -27.9182  -14.2324   18.4423 C   0  0  0  0  0  0  0  0  0  0  0  0
  -19.2866  -23.1223   20.9482 C   0  0  0  0  0  0  0  0  0  0  0  0
  -28.9130  -15.8692   17.3623 C   0  0  0  0  0  0  0  0  0  0  0  0
  -28.7666  -13.7373   16.0654 C   0  0  0  0  0  0  0  0  0  0  0  0
  -26.8883  -28.0672   21.7657 C   0  0  0  0  0  0  0  0  0  0  0  0
  -26.3704  -31.1096   22.7648 C   0  0  0  0  0  0  0  0  0  0  0  0
  -24.1280  -33.5684   23.5215 C   0  0  0  0  0  0  0  0  0  0  0  0
  -26.8421  -20.3503   20.7508 C   0  0  0  0  0  0  0  0  0  0  0  0
  -30.7122  -24.4019   20.8654 C   0  0  0  0  0  0  0  0  0  0  0  0
  -25.3389  -28.9287   19.9732 C   0  0  0  0  0  0  0  0  0  0  0  0
  -24.3577  -29.5905   22.6832 C   0  0  0  0  0  0  0  0  0  0  0  0
  -30.4318  -25.1203   22.1813 C   0  0  0  0  0  0  0  0  0  0  0  0
  -30.1647  -19.0725   20.6884 C   0  0  0  0  0  0  0  0  0  0  0  0
  -29.6178  -26.3794   21.9230 C   0  0  0  0  0  0  0  0  0  0  0  0
  -30.0220  -17.7162   19.9956 C   0  0  0  0  0  0  0  0  0  0  0  0
  -28.9643  -19.3793   21.5811 C   0  0  0  0  0  0  0  0  0  0  0  0
  -27.5112  -17.9286   20.2181 C   0  0  0  0  0  0  0  0  0  0  0  0
  -28.2482  -26.0314   21.3263 C   0  0  1  0  0  0  0  0  0  0  0  0
  -26.2941  -29.2812   21.1093 C   0  0  1  0  0  0  0  0  0  0  0  0
  -28.6717  -17.5999   19.2633 C   0  0  2  0  0  0  0  0  0  0  0  0
  -24.0035  -35.9347   24.3478 C   0  0  0  0  0  0  0  0  0  0  0  0
  -26.9785  -30.1502   25.5967 C   0  0  0  0  0  0  0  0  0  0  0  0
  -25.9326  -32.2549   26.4596 C   0  0  0  0  0  0  0  0  0  0  0  0
  -27.9627  -32.3744   25.0149 C   0  0  0  0  0  0  0  0  0  0  0  0
  -22.8060  -34.4884   21.0386 C   0  0  0  0  0  0  0  0  0  0  0  0
  -17.5901  -21.6477   20.1716 C   0  0  0  0  0  0  0  0  0  0  0  0
  -21.5362  -22.2779   21.6861 C   0  0  0  0  0  0  0  0  0  0  0  0
  -24.6914  -21.1847   19.8357 C   0  0  0  0  0  0  0  0  0  0  0  0
  -23.6338  -21.1568   20.9233 C   0  0  0  0  0  0  0  0  0  0  0  0
  -25.7428  -31.7425   23.9832 C   0  0  1  0  0  0  0  0  0  0  0  0
  -24.0667  -35.0325   23.1251 C   0  0  2  0  0  0  0  0  0  0  0  0
  -26.6394  -31.6129   25.2467 C   0  0  0  0  0  0  0  0  0  0  0  0
  -18.3645  -24.0817   20.7096 N   0  0  0  0  0  0  0  0  0  0  0  0
  -27.8922  -15.2602   19.2949 N   0  0  0  0  0  0  0  0  0  0  0  0
  -28.5047  -16.2406   18.6095 N   0  0  0  0  0  0  0  0  0  0  0  0
  -25.6512  -30.0659   22.1653 N   0  0  0  0  0  0  0  0  0  0  0  0
  -27.7155  -19.2528   20.8260 N   0  0  0  0  0  0  0  0  0  0  0  0
  -29.5452  -16.7324   16.5392 N   0  0  0  0  0  0  0  0  0  0  0  0
  -28.3215  -12.4085   16.0892 N   0  0  0  0  0  0  0  0  0  0  0  0
  -27.5941  -27.2501   20.9034 N   0  0  0  0  0  0  0  0  0  0  0  0
  -25.4281  -33.1179   23.6123 N   0  0  0  0  0  0  0  0  0  0  0  0
  -25.6840  -20.1479   20.0101 N   0  0  0  0  0  0  0  0  0  0  0  0
  -22.8622  -35.2921   22.2868 N   0  3  0  0  0  0  0  0  0  0  0  0
  -22.6165  -22.2078   20.6625 N   0  3  0  0  0  0  0  0  0  0  0  0
  -29.3593  -14.1681   15.0472 O   0  0  0  0  0  0  0  0  0  0  0  0
  -26.7202  -27.8861   22.9660 O   0  0  0  0  0  0  0  0  0  0  0  0
  -27.4554  -31.5305   22.3557 O   0  0  0  0  0  0  0  0  0  0  0  0
  -23.1233  -32.8930   23.7333 O   0  0  0  0  0  0  0  0  0  0  0  0
  -27.0795  -21.4323   21.2984 O   0  0  0  0  0  0  0  0  0  0  0  0
  -25.6862   -9.3177   19.9019 O   0  0  0  0  0  0  0  0  0  0  0  0
  -20.2979  -27.0319   21.7291 O   0  0  0  0  0  0  0  0  0  1  0  0
  -18.9075  -21.8337   20.6745 O   0  0  0  0  0  0  0  0  0  0  0  0
  -20.7482   -9.3732   22.3549 F   0  0  0  0  0  0  0  0  0  0  0  0
  -23.5253   -8.0174   18.7695 F   0  0  0  0  0  0  0  0  0  0  0  0
  1  2  1  0  0  0  0
  1  5  2  0  0  0  0
  2  6  2  0  0  0  0
  3  8  2  0  0  0  0
  3 17  1  0  0  0  0
  4  9  1  0  0  0  0
  4 17  2  0  0  0  0
  5 19  1  0  0  0  0
  6 21  1  0  0  0  0
  7 10  2  0  0  0  0
  7 20  1  0  0  0  0
  8 24  1  0  0  0  0
  9 24  2  0  0  0  0
 10 25  1  0  0  0  0
 11 12  2  0  0  0  0
 11 26  1  0  0  0  0
 12 28  1  0  0  0  0
 13 22  1  0  0  0  0
 13 25  2  0  0  0  0
 14 23  1  0  0  0  0
 14 27  2  0  0  0  0
 15 28  2  0  0  0  0
 15 29  1  0  0  0  0
 16 27  1  0  0  0  0
 16 62  2  0  0  0  0
 17 30  1  0  0  0  0
 18 30  1  0  0  0  0
 18 32  2  0  0  0  0
 18 33  1  0  0  0  0
 19 21  2  0  0  0  0
 19 38  1  0  0  0  0
 20 22  2  0  0  0  0
 20 39  1  0  0  0  0
 21 47  1  0  0  0  0
 22 40  1  0  0  0  0
 23 31  2  0  0  0  0
 23 56  1  0  0  0  0
 24 79  1  0  0  0  0
 25 80  1  0  0  0  0
 26 29  2  0  0  0  0
 26 79  1  0  0  0  0
 27 80  1  0  0  0  0
 28 82  1  0  0  0  0
 29 83  1  0  0  0  0
 30 63  2  0  0  0  0
 31 62  1  0  0  0  0
 31 81  1  0  0  0  0
 32 64  1  0  0  0  0
 32 67  1  0  0  0  0
 33 68  1  0  0  0  0
 33 74  2  0  0  0  0
 34 48  1  0  0  0  0
 34 69  1  0  0  0  0
 34 75  2  0  0  0  0
 35 59  1  0  0  0  0
 35 65  1  0  0  0  0
 35 76  2  0  0  0  0
 36 60  1  0  0  0  0
 36 70  1  0  0  0  0
 36 77  2  0  0  0  0
 37 66  1  0  0  0  0
 37 71  1  0  0  0  0
 37 78  2  0  0  0  0
 38 41  1  0  0  0  0
 39 48  1  0  0  0  0
 40 65  1  0  0  0  0
 41 43  1  0  0  0  0
 42 44  1  0  0  0  0
 42 45  1  0  0  0  0
 43 47  1  0  0  0  0
 44 49  1  0  0  0  0
 45 66  1  0  0  0  0
 46 49  1  0  0  0  0
 46 66  1  0  0  0  0
 47 69  1  0  0  0  0
 48 65  1  0  0  0  0
 49 64  1  0  0  0  0
 50 60  1  0  0  0  0
 51 61  1  0  0  0  0
 52 61  1  0  0  0  0
 53 61  1  0  0  0  0
 54 72  1  0  0  0  0
 55 81  1  0  0  0  0
 56 73  1  0  0  0  0
 57 58  1  0  0  0  0
 57 71  1  0  0  0  0
 58 73  1  0  0  0  0
 59 61  1  0  0  0  0
 59 70  1  0  0  0  0
 60 72  1  0  0  0  0
 63 64  1  0  0  0  0
M  CHG  2  72   1  73   1
M  ISO  4  27 101  37 100  71 100  80 101
M  END
> <Batch ID>
0132

> <Smiles>
CNC(C)C(=O)NC(C(=O)N1Cc2cc([101O:1][101c:1]3cnc(OC)c(CNCC[100NH:0][100C:0](=O)N4CCCC(n5nc(-c6ccc(Oc7ccc(F)cc7F)cc6)c(C(N)=O)c5N)C4)c3)ccc2CC1C(=O)NC1CCCc2ccccc21)C(C)(C)C

> <Shape>
0.264

> <Color>
0.056

> <Negative vol penalty>
0.000

$$$$

  -OEChem-04052320523D

 90 99  0     1  0  0  0  0  0999 V2000
  -30.2234  -11.3778   17.8304 C   0  0  0  0  0  0  0  0  0  0  0  0
  -30.0409  -12.7569   17.8441 C   0  0  0  0  0  0  0  0  0  0  0  0
  -22.1499  -29.3780   23.5584 C   0  0  0  0  0  0  0  0  0  0  0  0
  -22.1177  -29.2840   21.1444 C   0  0  0  0  0  0  0  0  0  0  0  0
  -29.2252  -10.5388   18.3241 C   0  0  0  0  0  0  0  0  0  0  0  0
  -28.8597  -13.2978   18.3506 C   0  0  0  0  0  0  0  0  0  0  0  0
  -29.6855  -17.2601   21.3941 C   0  0  0  0  0  0  0  0  0  0  0  0
  -23.2470  -30.2380   23.5103 C   0  0  0  0  0  0  0  0  0  0  0  0
  -23.2147  -30.1441   21.0963 C   0  0  0  0  0  0  0  0  0  0  0  0
  -29.9752  -18.4808   20.7858 C   0  0  0  0  0  0  0  0  0  0  0  0
  -26.5835  -29.9938   23.0282 C   0  0  0  0  0  0  0  0  0  0  0  0
  -27.6442  -29.7394   23.8976 C   0  0  0  0  0  0  0  0  0  0  0  0
  -26.8156  -22.8046   18.3408 C   0  0  0  0  0  0  0  0  0  0  0  0
  -27.6890  -19.1784   21.1110 C   0  0  0  0  0  0  0  0  0  0  0  0
  -28.0912  -20.3515   17.9701 C   0  0  0  0  0  0  0  0  0  0  0  0
  -27.3439  -31.9165   24.9011 C   0  0  0  0  0  0  0  0  0  0  0  0
  -21.5853  -28.9009   22.3754 C   0  0  0  0  0  0  0  0  0  0  0  0
  -19.0907  -28.3697   22.4286 C   0  0  0  0  0  0  0  0  0  0  0  0
  -28.0351  -11.0702   18.8457 C   0  0  0  0  0  0  0  0  0  0  0  0
  -28.3906  -16.9848   21.8563 C   0  0  0  0  0  0  0  0  0  0  0  0
  -27.8441  -12.4651   18.8504 C   0  0  0  0  0  0  0  0  0  0  0  0
  -26.5504  -22.0458   17.2008 C   0  0  0  0  0  0  0  0  0  0  0  0
  -27.3861  -17.9546   21.7270 C   0  0  0  0  0  0  0  0  0  0  0  0
  -27.7186  -22.3368   19.2955 C   0  0  0  0  0  0  0  0  0  0  0  0
  -27.1882  -20.8192   17.0155 C   0  0  0  0  0  0  0  0  0  0  0  0
  -23.7794  -30.6211   22.2792 C   0  0  0  0  0  0  0  0  0  0  0  0
  -28.9762  -19.4390   20.6416 C   0  0  0  0  0  0  0  0  0  0  0  0
  -25.9031  -31.2097   23.0952 C   0  0  0  0  0  0  0  0  0  0  0  0
  -28.3564  -21.1103   19.1101 C   0  0  0  0  0  0  0  0  0  1  0  0
  -28.0244  -30.7007   24.8341 C   0  0  0  0  0  0  0  0  0  0  0  0
  -26.2833  -32.1710   24.0317 C   0  0  0  0  0  0  0  0  0  0  0  0
  -20.4523  -28.0120   22.4245 C   0  0  0  0  0  0  0  0  0  0  0  0
  -18.4212  -27.1717   22.4834 C   0  0  0  0  0  0  0  0  0  0  0  0
  -18.4853  -29.6687   22.3866 C   0  0  0  0  0  0  0  0  0  0  0  0
  -26.1713  -14.8202   21.1544 C   0  0  0  0  0  0  0  0  0  0  0  0
  -24.6247  -16.1596   23.6716 C   0  0  0  0  0  0  0  0  0  0  0  0
  -24.1782  -18.8802   25.6831 C   0  0  0  0  0  0  0  0  0  0  0  0
  -19.8811  -21.6055   20.8288 C   0  0  0  0  0  0  0  0  0  0  0  0
  -26.9651  -10.1213   19.3246 C   0  0  0  0  0  0  0  0  0  0  0  0
  -28.1009  -15.6737   22.5343 C   0  0  0  0  0  0  0  0  0  0  0  0
  -25.9847  -17.7160   22.2247 C   0  0  0  0  0  0  0  0  0  0  0  0
  -25.8993  -10.7910   20.1883 C   0  0  0  0  0  0  0  0  0  0  0  0
  -18.8976  -22.6853   24.0759 C   0  0  0  0  0  0  0  0  0  0  0  0
  -25.4307  -12.0921   19.5447 C   0  0  0  0  0  0  0  0  0  0  0  0
  -19.0617  -24.2052   24.0212 C   0  0  0  0  0  0  0  0  0  0  0  0
  -19.9854  -21.9711   23.2767 C   0  0  0  0  0  0  0  0  0  0  0  0
  -20.2852  -23.9388   21.8233 C   0  0  0  0  0  0  0  0  0  0  0  0
  -23.5570  -23.7475   15.7524 C   0  0  0  0  0  0  0  0  0  0  0  0
  -25.5789  -22.5663   16.1929 C   0  0  1  0  0  0  0  0  0  0  0  0
  -26.5869  -13.0909   19.4144 C   0  0  1  0  0  0  0  0  0  0  0  0
  -26.6221  -15.2999   22.5051 C   0  0  1  0  0  0  0  0  0  0  0  0
  -24.1974  -22.8500   16.8030 C   0  0  2  0  0  0  0  0  0  0  0  0
  -19.1787  -24.7047   22.5686 C   0  0  2  0  0  0  0  0  0  0  0  0
  -25.9975  -23.9473   15.6674 C   0  0  1  0  0  0  0  0  0  0  0  0
  -27.9906  -23.1616   20.5102 C   0  0  0  0  0  0  0  0  0  0  0  0
  -26.9221  -19.9899   15.8025 C   0  0  0  0  0  0  0  0  0  0  0  0
  -22.8172  -19.6881   27.6305 C   0  0  0  0  0  0  0  0  0  0  0  0
  -22.2234  -16.5471   21.8295 C   0  0  0  0  0  0  0  0  0  0  0  0
  -21.2925  -18.1648   23.4981 C   0  0  0  0  0  0  0  0  0  0  0  0
  -21.6523  -15.7815   24.1408 C   0  0  0  0  0  0  0  0  0  0  0  0
  -26.5889  -19.2700   27.3552 C   0  0  0  0  0  0  0  0  0  0  0  0
  -23.3725  -21.5990   17.0695 C   0  0  0  0  0  0  0  0  0  0  0  0
  -26.9620  -23.9029   14.4954 C   0  0  0  0  0  0  0  0  0  0  0  0
  -19.7885  -21.4011   18.3572 C   0  0  0  0  0  0  0  0  0  0  0  0
  -21.1130  -20.8681   17.8436 C   0  0  0  0  0  0  0  0  0  0  0  0
  -23.6514  -17.3006   23.8441 C   0  0  1  0  0  0  0  0  0  0  0  0
  -24.1094  -19.0157   27.1936 C   0  0  2  0  0  0  0  0  0  0  0  0
  -22.2307  -16.9526   23.3169 C   0  0  0  0  0  0  0  0  0  0  0  0
  -20.6384  -26.6903   22.4730 N   0  0  0  0  0  0  0  0  0  0  0  0
  -19.3849  -26.2069   22.5081 N   0  0  0  0  0  0  0  0  0  0  0  0
  -25.7495  -16.4162   22.8748 N   0  0  0  0  0  0  0  0  0  0  0  0
  -20.0431  -22.4900   21.9079 N   0  0  0  0  0  0  0  0  0  0  0  0
  -17.1081  -26.8600   22.5123 N   0  0  0  0  0  0  0  0  0  0  0  0
  -19.3199  -30.7934   22.3324 N   0  0  0  0  0  0  0  0  0  0  0  0
  -26.8608  -13.7162   20.6905 N   0  0  0  0  0  0  0  0  0  0  0  0
  -23.6925  -17.6621   25.2569 N   0  0  0  0  0  0  0  0  0  0  0  0
  -19.9432  -22.1804   19.5653 N   0  0  0  0  0  0  0  0  0  0  0  0
  -24.6954  -24.5751   15.2287 N   0  3  0  0  0  0  0  0  0  0  0  0
  -25.2543  -19.8281   27.6935 N   0  3  0  0  0  0  0  0  0  0  0  0
  -22.0486  -22.0005   17.5916 N   0  3  0  0  0  0  0  0  0  0  0  0
  -17.2414  -29.8280   22.4133 O   0  0  0  0  0  0  0  0  0  0  0  0
  -25.2639  -15.4072   20.5766 O   0  0  0  0  0  0  0  0  0  0  0  0
  -24.3991  -15.0827   24.2293 O   0  0  0  0  0  0  0  0  0  0  0  0
  -24.6155  -19.7677   24.9540 O   0  0  0  0  0  0  0  0  0  0  0  0
  -19.6897  -20.3942   20.9803 O   0  0  0  0  0  0  0  0  0  0  0  0
  -27.2613  -25.2310   14.0982 O   0  0  0  0  0  0  0  0  0  0  0  0
  -24.8498  -31.4605   22.2319 O   0  0  0  0  0  0  0  0  0  0  0  0
  -29.2560  -20.6310   20.0477 O   0  0  0  0  0  0  0  0  0  1  0  0
  -29.0419  -30.4555   25.6699 F   0  0  0  0  0  0  0  0  0  0  0  0
  -25.6326  -33.3404   24.1016 F   0  0  0  0  0  0  0  0  0  0  0  0
  1  2  1  0  0  0  0
  1  5  2  0  0  0  0
  2  6  2  0  0  0  0
  3  8  2  0  0  0  0
  3 17  1  0  0  0  0
  4  9  1  0  0  0  0
  4 17  2  0  0  0  0
  5 19  1  0  0  0  0
  6 21  1  0  0  0  0
  7 10  2  0  0  0  0
  7 20  1  0  0  0  0
  8 26  1  0  0  0  0
  9 26  2  0  0  0  0
 10 27  1  0  0  0  0
 11 12  2  0  0  0  0
 11 28  1  0  0  0  0
 12 30  1  0  0  0  0
 13 22  2  0  0  0  0
 13 24  1  0  0  0  0
 14 23  1  0  0  0  0
 14 27  2  0  0  0  0
 15 25  2  0  0  0  0
 15 29  1  0  0  0  0
 16 30  2  0  0  0  0
 16 31  1  0  0  0  0
 17 32  1  0  0  0  0
 18 32  1  0  0  0  0
 18 33  2  0  0  0  0
 18 34  1  0  0  0  0
 19 21  2  0  0  0  0
 19 39  1  0  0  0  0
 20 23  2  0  0  0  0
 20 40  1  0  0  0  0
 21 50  1  0  0  0  0
 22 25  1  0  0  0  0
 22 49  1  0  0  0  0
 23 41  1  0  0  0  0
 24 29  2  0  0  0  0
 24 55  1  0  0  0  0
 25 56  1  0  0  0  0
 26 87  1  0  0  0  0
 27 88  1  0  0  0  0
 28 31  2  0  0  0  0
 28 87  1  0  0  0  0
 29 88  1  0  0  0  0
 30 89  1  0  0  0  0
 31 90  1  0  0  0  0
 32 69  2  0  0  0  0
 33 70  1  0  0  0  0
 33 73  1  0  0  0  0
 34 74  1  0  0  0  0
 34 81  2  0  0  0  0
 35 51  1  0  0  0  0
 35 75  1  0  0  0  0
 35 82  2  0  0  0  0
 36 66  1  0  0  0  0
 36 71  1  0  0  0  0
 36 83  2  0  0  0  0
 37 67  1  0  0  0  0
 37 76  1  0  0  0  0
 37 84  2  0  0  0  0
 38 72  1  0  0  0  0
 38 77  1  0  0  0  0
 38 85  2  0  0  0  0
 39 42  1  0  0  0  0
 40 51  1  0  0  0  0
 41 71  1  0  0  0  0
 42 44  1  0  0  0  0
 43 45  1  0  0  0  0
 43 46  1  0  0  0  0
 44 50  1  0  0  0  0
 45 53  1  0  0  0  0
 46 72  1  0  0  0  0
 47 53  1  0  0  0  0
 47 72  1  0  0  0  0
 48 52  1  0  0  0  0
 48 78  1  0  0  0  0
 49 52  1  0  0  0  0
 49 54  1  0  0  0  0
 50 75  1  0  0  0  0
 51 71  1  0  0  0  0
 52 62  1  0  0  0  0
 53 70  1  0  0  0  0
 54 63  1  0  0  0  0
 54 78  1  0  0  0  0
 57 67  1  0  0  0  0
 58 68  1  0  0  0  0
 59 68  1  0  0  0  0
 60 68  1  0  0  0  0
 61 79  1  0  0  0  0
 62 80  1  0  0  0  0
 63 86  1  0  0  0  0
 64 65  1  0  0  0  0
 64 77  1  0  0  0  0
 65 80  1  0  0  0  0
 66 68  1  0  0  0  0
 66 76  1  0  0  0  0
 67 79  1  0  0  0  0
 69 70  1  0  0  0  0
M  CHG  3  78   1  79   1  80   1
M  ISO  4  29 101  38 100  77 100  88 101
M  END
> <Batch ID>
0132

> <Smiles>
CNC(C)C(=O)NC(C(=O)N1Cc2cc([101O:1][101c:1]3cc(C)c(C4C(CNCC[100NH:0][100C:0](=O)N5CCCC(n6nc(-c7ccc(Oc8ccc(F)cc8F)cc7)c(C(N)=O)c6N)C5)CNC4CO)cc3C)ccc2CC1C(=O)NC1CCCc2ccccc21)C(C)(C)C

> <Shape>
0.237

> <Color>
0.048

> <Negative vol penalty>
0.000

$$$$

  -OEChem-04052320523D

 84 93  0     1  0  0  0  0  0999 V2000
  -23.3068   -7.2401   25.0267 C   0  0  0  0  0  0  0  0  0  0  0  0
  -24.4827   -7.9835   25.0204 C   0  0  0  0  0  0  0  0  0  0  0  0
  -24.8843  -31.4402   22.9319 C   0  0  0  0  0  0  0  0  0  0  0  0
  -26.3249  -31.3249   20.9958 C   0  0  0  0  0  0  0  0  0  0  0  0
  -22.4501   -7.2835   23.9275 C   0  0  0  0  0  0  0  0  0  0  0  0
  -24.8031   -8.7701   23.9145 C   0  0  0  0  0  0  0  0  0  0  0  0
  -31.2073  -20.1850   21.9669 C   0  0  0  0  0  0  0  0  0  0  0  0
  -31.3552  -18.8902   19.9325 C   0  0  0  0  0  0  0  0  0  0  0  0
  -27.7013  -14.1650   23.9492 C   0  0  0  0  0  0  0  0  0  0  0  0
  -31.7036  -19.1019   22.6923 C   0  0  0  0  0  0  0  0  0  0  0  0
  -31.8516  -17.8072   20.6579 C   0  0  0  0  0  0  0  0  0  0  0  0
  -25.2801  -32.7601   23.1478 C   0  0  0  0  0  0  0  0  0  0  0  0
  -26.7207  -32.6449   21.2117 C   0  0  0  0  0  0  0  0  0  0  0  0
  -29.0304  -14.5172   23.7185 C   0  0  0  0  0  0  0  0  0  0  0  0
  -24.5704  -35.8129   21.8789 C   0  0  0  0  0  0  0  0  0  0  0  0
  -23.5776  -36.7476   22.1724 C   0  0  0  0  0  0  0  0  0  0  0  0
  -28.4905  -15.0276   21.4235 C   0  0  0  0  0  0  0  0  0  0  0  0
  -24.6423  -37.2134   24.2905 C   0  0  0  0  0  0  0  0  0  0  0  0
  -25.4068  -30.7225   21.8558 C   0  0  0  0  0  0  0  0  0  0  0  0
  -23.6935  -28.8911   21.3891 C   0  0  0  0  0  0  0  0  0  0  0  0
  -31.0330  -20.0791   20.5870 C   0  0  0  0  0  0  0  0  0  0  0  0
  -22.7554   -8.0785   22.8116 C   0  0  0  0  0  0  0  0  0  0  0  0
  -26.7575  -14.2311   22.9141 C   0  0  0  0  0  0  0  0  0  0  0  0
  -23.9503   -8.8232   22.7988 C   0  0  0  0  0  0  0  0  0  0  0  0
  -27.1496  -14.6781   21.6442 C   0  0  0  0  0  0  0  0  0  0  0  0
  -32.0258  -17.9130   22.0378 C   0  0  0  0  0  0  0  0  0  0  0  0
  -26.1983  -33.3625   22.2877 C   0  0  0  0  0  0  0  0  0  0  0  0
  -29.4258  -14.9459   22.4548 C   0  0  0  0  0  0  0  0  0  0  0  0
  -25.5992  -35.5783   22.7912 C   0  0  0  0  0  0  0  0  0  0  0  0
  -23.6135  -37.4479   23.3782 C   0  0  0  0  0  0  0  0  0  0  0  0
  -25.6352  -36.2786   23.9970 C   0  0  0  0  0  0  0  0  0  0  0  0
  -24.9987  -29.3588   21.6326 C   0  0  0  0  0  0  0  0  0  0  0  0
  -23.8368  -27.5327   21.2453 C   0  0  0  0  0  0  0  0  0  0  0  0
  -22.4616  -29.6194   21.3007 C   0  0  0  0  0  0  0  0  0  0  0  0
  -24.9092  -12.1166   21.4253 C   0  0  0  0  0  0  0  0  0  0  0  0
  -23.7001  -14.7648   19.9943 C   0  0  0  0  0  0  0  0  0  0  0  0
  -24.1564  -18.0131   19.0527 C   0  0  0  0  0  0  0  0  0  0  0  0
  -28.3402  -24.2202   19.4964 C   0  0  0  0  0  0  0  0  0  0  0  0
  -21.8217   -8.0565   21.6273 C   0  0  0  0  0  0  0  0  0  0  0  0
  -25.3221  -13.8731   23.1860 C   0  0  0  0  0  0  0  0  0  0  0  0
  -26.1709  -14.7862   20.5045 C   0  0  0  0  0  0  0  0  0  0  0  0
  -22.0500   -9.2070   20.6503 C   0  0  0  0  0  0  0  0  0  0  0  0
  -26.5760  -23.8787   22.6154 C   0  0  0  0  0  0  0  0  0  0  0  0
  -23.5375   -9.3685   20.3538 C   0  0  0  0  0  0  0  0  0  0  0  0
  -25.8744  -25.2306   22.7099 C   0  0  0  0  0  0  0  0  0  0  0  0
  -27.9723  -23.9891   21.9996 C   0  0  0  0  0  0  0  0  0  0  0  0
  -29.5182  -22.1899   20.5317 C   0  0  0  0  0  0  0  0  0  0  0  0
  -27.2875  -26.0431   20.7910 C   0  0  0  0  0  0  0  0  0  0  0  0
  -29.0205  -22.2327   18.1814 C   0  0  0  0  0  0  0  0  0  0  0  0
  -30.4944  -21.2539   19.7991 C   0  0  2  0  0  0  0  0  0  0  0  0
  -24.3204   -9.7077   21.6280 C   0  0  1  0  0  0  0  0  0  0  0  0
  -24.5533  -13.4879   21.9259 C   0  0  1  0  0  0  0  0  0  0  0  0
  -25.8590  -25.9301   21.3415 C   0  0  2  0  0  0  0  0  0  0  0  0
  -29.6843  -20.9063   18.5341 C   0  0  1  0  0  0  0  0  0  0  0  0
  -23.5745  -20.2752   18.1351 C   0  0  0  0  0  0  0  0  0  0  0  0
  -24.2663  -13.4219   17.3136 C   0  0  0  0  0  0  0  0  0  0  0  0
  -24.0028  -15.6573   16.2172 C   0  0  0  0  0  0  0  0  0  0  0  0
  -22.0811  -14.6322   17.4332 C   0  0  0  0  0  0  0  0  0  0  0  0
  -23.2178  -18.9703   21.6912 C   0  0  0  0  0  0  0  0  0  0  0  0
  -32.5582  -16.7560   22.8139 C   0  0  0  0  0  0  0  0  0  0  0  0
  -31.4571  -15.8230   23.3269 C   0  0  0  0  0  0  0  0  0  1  0  0
  -24.0320  -15.5539   18.7509 C   0  0  1  0  0  0  0  0  0  0  0  0
  -23.2764  -19.2402   19.2088 C   0  0  2  0  0  0  0  0  0  0  0  0
  -23.6147  -14.8125   17.4495 C   0  0  0  0  0  0  0  0  0  0  0  0
  -25.9045  -28.3773   21.6437 N   0  0  0  0  0  0  0  0  0  0  0  0
  -25.1673  -27.2792   21.4055 N   0  0  0  0  0  0  0  0  0  0  0  0
  -24.7802  -14.4189   20.8186 N   0  0  0  0  0  0  0  0  0  0  0  0
  -27.9473  -24.7354   20.7367 N   0  0  0  0  0  0  0  0  0  0  0  0
  -28.8345  -22.9172   19.4593 N   0  0  0  0  0  0  0  0  0  0  0  0
  -22.9532  -26.5422   20.9987 N   0  0  0  0  0  0  0  0  0  0  0  0
  -21.7141  -29.8123   22.4704 N   0  0  0  0  0  0  0  0  0  0  0  0
  -24.1461  -11.1026   21.9720 N   0  0  0  0  0  0  0  0  0  0  0  0
  -23.4088  -16.8622   18.9193 N   0  0  0  0  0  0  0  0  0  0  0  0
  -23.4965  -19.8692   20.5418 N   0  3  0  0  0  0  0  0  0  0  0  0
  -22.0282  -30.0710   20.2136 O   0  0  0  0  0  0  0  0  0  0  0  0
  -25.8085  -11.9882   20.6029 O   0  0  0  0  0  0  0  0  0  0  0  0
  -22.5250  -14.4724   20.2293 O   0  0  0  0  0  0  0  0  0  0  0  0
  -25.3841  -18.0704   19.0457 O   0  0  0  0  0  0  0  0  0  0  0  0
  -28.2921  -24.9102   18.4692 O   0  0  0  0  0  0  0  0  0  0  0  0
  -28.6772  -19.9433   18.8296 O   0  0  0  0  0  0  0  0  0  0  0  0
  -26.5846  -34.6506   22.4980 O   0  0  0  0  0  0  0  0  0  0  0  0
  -30.7317  -15.2921   22.2252 O   0  0  0  0  0  0  0  0  0  1  0  0
  -22.6609  -38.3466   23.6592 F   0  0  0  0  0  0  0  0  0  0  0  0
  -26.6217  -36.0585   24.8769 F   0  0  0  0  0  0  0  0  0  0  0  0
  1  2  1  0  0  0  0
  1  5  2  0  0  0  0
  2  6  2  0  0  0  0
  3 12  2  0  0  0  0
  3 19  1  0  0  0  0
  4 13  1  0  0  0  0
  4 19  2  0  0  0  0
  5 22  1  0  0  0  0
  6 24  1  0  0  0  0
  7 10  2  0  0  0  0
  7 21  1  0  0  0  0
  8 11  1  0  0  0  0
  8 21  2  0  0  0  0
  9 14  2  0  0  0  0
  9 23  1  0  0  0  0
 10 26  1  0  0  0  0
 11 26  2  0  0  0  0
 12 27  1  0  0  0  0
 13 27  2  0  0  0  0
 14 28  1  0  0  0  0
 15 16  2  0  0  0  0
 15 29  1  0  0  0  0
 16 30  1  0  0  0  0
 17 25  1  0  0  0  0
 17 28  2  0  0  0  0
 18 30  2  0  0  0  0
 18 31  1  0  0  0  0
 19 32  1  0  0  0  0
 20 32  1  0  0  0  0
 20 33  2  0  0  0  0
 20 34  1  0  0  0  0
 21 50  1  0  0  0  0
 22 24  2  0  0  0  0
 22 39  1  0  0  0  0
 23 25  2  0  0  0  0
 23 40  1  0  0  0  0
 24 51  1  0  0  0  0
 25 41  1  0  0  0  0
 26 60  1  0  0  0  0
 27 81  1  0  0  0  0
 28 82  1  0  0  0  0
 29 31  2  0  0  0  0
 29 81  1  0  0  0  0
 30 83  1  0  0  0  0
 31 84  1  0  0  0  0
 32 65  2  0  0  0  0
 33 66  1  0  0  0  0
 33 70  1  0  0  0  0
 34 71  1  0  0  0  0
 34 75  2  0  0  0  0
 35 52  1  0  0  0  0
 35 72  1  0  0  0  0
 35 76  2  0  0  0  0
 36 62  1  0  0  0  0
 36 67  1  0  0  0  0
 36 77  2  0  0  0  0
 37 63  1  0  0  0  0
 37 73  1  0  0  0  0
 37 78  2  0  0  0  0
 38 68  1  0  0  0  0
 38 69  1  0  0  0  0
 38 79  2  0  0  0  0
 39 42  1  0  0  0  0
 40 52  1  0  0  0  0
 41 67  1  0  0  0  0
 42 44  1  0  0  0  0
 43 45  1  0  0  0  0
 43 46  1  0  0  0  0
 44 51  1  0  0  0  0
 45 53  1  0  0  0  0
 46 68  1  0  0  0  0
 47 50  1  0  0  0  0
 47 69  1  0  0  0  0
 48 53  1  0  0  0  0
 48 68  1  0  0  0  0
 49 54  1  0  0  0  0
 49 69  1  0  0  0  0
 50 54  1  0  0  0  0
 51 72  1  0  0  0  0
 52 67  1  0  0  0  0
 53 66  1  0  0  0  0
 54 80  1  0  0  0  0
 55 63  1  0  0  0  0
 56 64  1  0  0  0  0
 57 64  1  0  0  0  0
 58 64  1  0  0  0  0
 59 74  1  0  0  0  0
 60 61  1  0  0  0  0
 61 82  1  0  0  0  0
 62 64  1  0  0  0  0
 62 73  1  0  0  0  0
 63 74  1  0  0  0  0
 65 66  1  0  0  0  0
M  CHG  1  74   1
M  ISO  4  38 100  61 101  69 100  82 101
M  END
> <Batch ID>
0132

> <Smiles>
CNC(C)C(=O)NC(C(=O)N1Cc2cc([101O:1][101CH2:1]Cc3ccc(C4C[100N:0]([100C:0](=O)N5CCCC(n6nc(-c7ccc(Oc8ccc(F)cc8F)cc7)c(C(N)=O)c6N)C5)CC4O)cc3)ccc2CC1C(=O)NC1CCCc2ccccc21)C(C)(C)C

> <Shape>
0.250

> <Color>
0.084

> <Negative vol penalty>
0.000

$$$$

  -OEChem-04052320523D

 84 92  0     1  0  0  0  0  0999 V2000
  -27.8522  -11.7321   17.8910 C   0  0  0  0  0  0  0  0  0  0  0  0
  -27.4850  -12.9956   17.4394 C   0  0  0  0  0  0  0  0  0  0  0  0
  -25.7924  -27.9858   21.9606 C   0  0  0  0  0  0  0  0  0  0  0  0
  -25.2153  -28.5741   19.6895 C   0  0  0  0  0  0  0  0  0  0  0  0
  -27.2382  -11.1908   19.0197 C   0  0  0  0  0  0  0  0  0  0  0  0
  -26.5027  -13.7183   18.1156 C   0  0  0  0  0  0  0  0  0  0  0  0
  -26.2651  -19.7909   18.8724 C   0  0  0  0  0  0  0  0  0  0  0  0
  -26.9987  -27.4463   21.5144 C   0  0  0  0  0  0  0  0  0  0  0  0
  -26.4217  -28.0346   19.2432 C   0  0  0  0  0  0  0  0  0  0  0  0
  -25.5654  -20.7931   18.2017 C   0  0  0  0  0  0  0  0  0  0  0  0
  -28.0565  -24.5984   20.0328 C   0  0  0  0  0  0  0  0  0  0  0  0
  -28.4388  -23.3577   20.5430 C   0  0  0  0  0  0  0  0  0  0  0  0
  -23.8345  -20.6989   19.8792 C   0  0  0  0  0  0  0  0  0  0  0  0
  -22.2228  -25.0456   17.6491 C   0  0  0  0  0  0  0  0  0  0  0  0
  -30.4521  -24.3471   21.4402 C   0  0  0  0  0  0  0  0  0  0  0  0
  -20.7458  -23.5250   16.8901 C   0  0  0  0  0  0  0  0  0  0  0  0
  -24.9006  -28.5497   21.0481 C   0  0  0  0  0  0  0  0  0  0  0  0
  -23.4136  -30.4335   21.9130 C   0  0  0  0  0  0  0  0  0  0  0  0
  -26.2547  -11.9112   19.7158 C   0  0  0  0  0  0  0  0  0  0  0  0
  -25.7486  -19.2266   20.0476 C   0  0  0  0  0  0  0  0  0  0  0  0
  -25.8740  -13.1856   19.2539 C   0  0  0  0  0  0  0  0  0  0  0  0
  -24.5308  -19.6916   20.5644 C   0  0  0  0  0  0  0  0  0  0  0  0
  -21.8113  -23.6934   17.7465 C   0  0  0  0  0  0  0  0  0  0  0  0
  -27.3135  -27.4707   20.1557 C   0  0  0  0  0  0  0  0  0  0  0  0
  -24.3485  -21.2452   18.7035 C   0  0  0  0  0  0  0  0  0  0  0  0
  -28.8720  -25.7134   20.2263 C   0  0  0  0  0  0  0  0  0  0  0  0
  -29.6365  -23.2321   21.2466 C   0  0  0  0  0  0  0  0  0  0  0  0
  -30.0698  -25.5877   20.9300 C   0  0  0  0  0  0  0  0  0  0  0  0
  -23.6540  -29.1067   21.5084 C   0  0  0  0  0  0  0  0  0  0  0  0
  -21.3960  -25.6623   16.7361 C   0  0  0  0  0  0  0  0  0  0  0  0
  -22.0835  -30.4525   22.2549 C   0  0  0  0  0  0  0  0  0  0  0  0
  -24.3122  -31.5490   21.9741 C   0  0  0  0  0  0  0  0  0  0  0  0
  -24.8245  -16.3128   20.9190 C   0  0  0  0  0  0  0  0  0  0  0  0
  -24.5173  -17.7050   23.8327 C   0  0  0  0  0  0  0  0  0  0  0  0
  -24.0551  -20.5592   25.6456 C   0  0  0  0  0  0  0  0  0  0  0  0
  -17.4018  -27.1026   20.6085 C   0  0  0  0  0  0  0  0  0  0  0  0
  -25.5856  -11.2652   20.9030 C   0  0  0  0  0  0  0  0  0  0  0  0
  -26.5285  -18.1651   20.7738 C   0  0  0  0  0  0  0  0  0  0  0  0
  -23.9429  -19.1328   21.8335 C   0  0  0  0  0  0  0  0  0  0  0  0
  -24.8203  -12.2511   21.7820 C   0  0  0  0  0  0  0  0  0  0  0  0
  -18.6043  -27.6213   23.9193 C   0  0  0  0  0  0  0  0  0  0  0  0
  -23.9623  -13.1761   20.9246 C   0  0  0  0  0  0  0  0  0  0  0  0
  -20.0132  -28.1805   23.7134 C   0  0  0  0  0  0  0  0  0  0  0  0
  -18.2569  -26.5667   22.8708 C   0  0  0  0  0  0  0  0  0  0  0  0
  -19.8416  -27.5613   21.2668 C   0  0  0  0  0  0  0  0  0  0  0  0
  -24.8302  -14.0107   19.9750 C   0  0  1  0  0  0  0  0  0  0  0  0
  -25.6593  -17.3015   21.6826 C   0  0  1  0  0  0  0  0  0  0  0  0
  -20.2167  -28.6686   22.2665 C   0  0  2  0  0  0  0  0  0  0  0  0
  -22.2704  -27.2783   15.0301 C   0  0  0  0  0  0  0  0  0  0  0  0
  -23.8090  -21.3756   28.0057 C   0  0  0  0  0  0  0  0  0  0  0  0
  -21.6561  -16.6469   23.8978 C   0  0  0  0  0  0  0  0  0  0  0  0
  -21.1797  -18.2499   25.7610 C   0  0  0  0  0  0  0  0  0  0  0  0
  -22.8879  -16.4578   26.0660 C   0  0  0  0  0  0  0  0  0  0  0  0
  -26.4688  -22.2584   25.4324 C   0  0  0  0  0  0  0  0  0  0  0  0
  -22.4228  -22.6383   18.6206 C   0  0  0  0  0  0  0  0  0  1  0  0
  -21.3848  -27.0614   16.2610 C   0  0  0  0  0  0  0  0  0  0  0  0
  -19.4561  -24.9593   15.3092 C   0  0  0  0  0  0  0  0  0  0  0  0
  -16.6903  -27.7071   18.3091 C   0  0  0  0  0  0  0  0  0  0  0  0
  -18.0657  -25.0694   15.9209 C   0  0  0  0  0  0  0  0  0  0  0  0
  -16.6581  -26.4602   17.4450 C   0  0  0  0  0  0  0  0  0  0  0  0
  -23.4081  -18.4229   24.5629 C   0  0  1  0  0  0  0  0  0  0  0  0
  -24.7766  -21.1067   26.8638 C   0  0  2  0  0  0  0  0  0  0  0  0
  -22.2928  -17.4537   25.0469 C   0  0  0  0  0  0  0  0  0  0  0  0
  -22.5641  -28.3385   21.5858 N   0  0  0  0  0  0  0  0  0  0  0  0
  -20.5019  -24.7285   16.2815 N   0  0  0  0  0  0  0  0  0  0  0  0
  -21.6260  -29.1853   22.0430 N   0  0  0  0  0  0  0  0  0  0  0  0
  -24.7401  -18.0922   22.5037 N   0  0  0  0  0  0  0  0  0  0  0  0
  -18.4700  -27.0935   21.5206 N   0  0  0  0  0  0  0  0  0  0  0  0
  -21.2724  -31.4294   22.7133 N   0  0  0  0  0  0  0  0  0  0  0  0
  -25.6450  -31.3553   21.5861 N   0  0  0  0  0  0  0  0  0  0  0  0
  -25.4536  -15.1040   20.6894 N   0  0  0  0  0  0  0  0  0  0  0  0
  -24.0475  -19.1804   25.6333 N   0  0  0  0  0  0  0  0  0  0  0  0
  -17.6875  -27.6245   19.3528 N   0  0  0  0  0  0  0  0  0  0  0  0
  -25.4703  -22.3816   26.5254 N   0  3  0  0  0  0  0  0  0  0  0  0
  -17.9981  -26.2332   16.8384 N   0  3  0  0  0  0  0  0  0  0  0  0
  -23.9482  -32.6798   22.3768 O   0  0  0  0  0  0  0  0  0  0  0  0
  -23.6929  -16.6230   20.5655 O   0  0  0  0  0  0  0  0  0  0  0  0
  -25.1669  -16.8377   24.4220 O   0  0  0  0  0  0  0  0  0  0  0  0
  -23.5456  -21.2823   24.7923 O   0  0  0  0  0  0  0  0  0  0  0  0
  -16.2755  -26.6819   20.8938 O   0  0  0  0  0  0  0  0  0  0  0  0
  -28.4907  -26.9446   19.7199 O   0  0  0  0  0  0  0  0  0  0  0  0
  -23.6632  -22.2228   18.0504 O   0  0  0  0  0  0  0  0  0  1  0  0
  -30.0028  -22.0409   21.7378 F   0  0  0  0  0  0  0  0  0  0  0  0
  -30.8568  -26.6555   21.1201 F   0  0  0  0  0  0  0  0  0  0  0  0
  1  2  1  0  0  0  0
  1  5  2  0  0  0  0
  2  6  2  0  0  0  0
  3  8  2  0  0  0  0
  3 17  1  0  0  0  0
  4  9  1  0  0  0  0
  4 17  2  0  0  0  0
  5 19  1  0  0  0  0
  6 21  1  0  0  0  0
  7 10  2  0  0  0  0
  7 20  1  0  0  0  0
  8 24  1  0  0  0  0
  9 24  2  0  0  0  0
 10 25  1  0  0  0  0
 11 12  2  0  0  0  0
 11 26  1  0  0  0  0
 12 27  1  0  0  0  0
 13 22  1  0  0  0  0
 13 25  2  0  0  0  0
 14 23  1  0  0  0  0
 14 30  2  0  0  0  0
 15 27  2  0  0  0  0
 15 28  1  0  0  0  0
 16 23  2  0  0  0  0
 16 65  1  0  0  0  0
 17 29  1  0  0  0  0
 18 29  1  0  0  0  0
 18 31  2  0  0  0  0
 18 32  1  0  0  0  0
 19 21  2  0  0  0  0
 19 37  1  0  0  0  0
 20 22  2  0  0  0  0
 20 38  1  0  0  0  0
 21 46  1  0  0  0  0
 22 39  1  0  0  0  0
 23 55  1  0  0  0  0
 24 81  1  0  0  0  0
 25 82  1  0  0  0  0
 26 28  2  0  0  0  0
 26 81  1  0  0  0  0
 27 83  1  0  0  0  0
 28 84  1  0  0  0  0
 29 64  2  0  0  0  0
 30 56  1  0  0  0  0
 30 65  1  0  0  0  0
 31 66  1  0  0  0  0
 31 69  1  0  0  0  0
 32 70  1  0  0  0  0
 32 76  2  0  0  0  0
 33 47  1  0  0  0  0
 33 71  1  0  0  0  0
 33 77  2  0  0  0  0
 34 61  1  0  0  0  0
 34 67  1  0  0  0  0
 34 78  2  0  0  0  0
 35 62  1  0  0  0  0
 35 72  1  0  0  0  0
 35 79  2  0  0  0  0
 36 68  1  0  0  0  0
 36 73  1  0  0  0  0
 36 80  2  0  0  0  0
 37 40  1  0  0  0  0
 38 47  1  0  0  0  0
 39 67  1  0  0  0  0
 40 42  1  0  0  0  0
 41 43  1  0  0  0  0
 41 44  1  0  0  0  0
 42 46  1  0  0  0  0
 43 48  1  0  0  0  0
 44 68  1  0  0  0  0
 45 48  1  0  0  0  0
 45 68  1  0  0  0  0
 46 71  1  0  0  0  0
 47 67  1  0  0  0  0
 48 66  1  0  0  0  0
 49 56  1  0  0  0  0
 50 62  1  0  0  0  0
 51 63  1  0  0  0  0
 52 63  1  0  0  0  0
 53 63  1  0  0  0  0
 54 74  1  0  0  0  0
 55 82  1  0  0  0  0
 57 59  1  0  0  0  0
 57 65  1  0  0  0  0
 58 60  1  0  0  0  0
 58 73  1  0  0  0  0
 59 75  1  0  0  0  0
 60 75  1  0  0  0  0
 61 63  1  0  0  0  0
 61 72  1  0  0  0  0
 62 74  1  0  0  0  0
 64 66  1  0  0  0  0
M  CHG  2  74   1  75   1
M  ISO  4  36 100  55 101  73 100  82 101
M  END
> <Batch ID>
0132

> <Smiles>
CCc1cc([101CH2:1][101O:1]c2ccc3c(c2)CN(C(=O)C(NC(=O)C(C)NC)C(C)(C)C)C(C(=O)NC2CCCc4ccccc42)C3)cn1CCNCC[100NH:0][100C:0](=O)N1CCCC(n2nc(-c3ccc(Oc4ccc(F)cc4F)cc3)c(C(N)=O)c2N)C1

> <Shape>
0.192

> <Color>
0.088

> <Negative vol penalty>
0.000

$$$$

  -OEChem-04052320523D

 85 93  0     1  0  0  0  0  0999 V2000
  -22.7202  -36.5113   13.8112 C   0  0  0  0  0  0  0  0  0  0  0  0
  -22.7343  -35.1549   14.1201 C   0  0  0  0  0  0  0  0  0  0  0  0
  -22.9552  -10.0393   19.9715 C   0  0  0  0  0  0  0  0  0  0  0  0
  -23.8109   -9.9330   22.2283 C   0  0  0  0  0  0  0  0  0  0  0  0
  -23.5656  -37.3884   14.4894 C   0  0  0  0  0  0  0  0  0  0  0  0
  -23.5946  -34.6746   15.1068 C   0  0  0  0  0  0  0  0  0  0  0  0
  -22.5170  -30.0843   19.0149 C   0  0  0  0  0  0  0  0  0  0  0  0
  -25.2577  -24.3557   18.4056 C   0  0  0  0  0  0  0  0  0  0  0  0
  -23.4614  -23.8053   19.9246 C   0  0  0  0  0  0  0  0  0  0  0  0
  -22.1716   -8.9115   20.2154 C   0  0  0  0  0  0  0  0  0  0  0  0
  -23.0273   -8.8051   22.4723 C   0  0  0  0  0  0  0  0  0  0  0  0
  -22.8877  -28.7403   19.0083 C   0  0  0  0  0  0  0  0  0  0  0  0
  -25.7642  -23.0626   18.5360 C   0  0  0  0  0  0  0  0  0  0  0  0
  -23.9678  -22.5122   20.0550 C   0  0  0  0  0  0  0  0  0  0  0  0
  -19.7950   -8.1274   23.1888 C   0  0  0  0  0  0  0  0  0  0  0  0
  -19.0872   -8.0793   24.3898 C   0  0  0  0  0  0  0  0  0  0  0  0
  -24.7724  -29.2594   20.4217 C   0  0  0  0  0  0  0  0  0  0  0  0
  -20.2705   -6.0652   25.0065 C   0  0  0  0  0  0  0  0  0  0  0  0
  -23.7749  -10.5501   20.9779 C   0  0  0  0  0  0  0  0  0  0  0  0
  -24.2242  -13.0607   20.9268 C   0  0  0  0  0  0  0  0  0  0  0  0
  -24.4298  -36.9201   15.4916 C   0  0  0  0  0  0  0  0  0  0  0  0
  -23.2787  -31.0293   19.7171 C   0  0  0  0  0  0  0  0  0  0  0  0
  -24.4534  -35.5461   15.7981 C   0  0  0  0  0  0  0  0  0  0  0  0
  -24.4078  -30.6144   20.4377 C   0  0  0  0  0  0  0  0  0  0  0  0
  -24.1063  -24.7271   19.1000 C   0  0  0  0  0  0  0  0  0  0  0  0
  -22.2076   -8.2944   21.4658 C   0  0  0  0  0  0  0  0  0  0  0  0
  -25.1192  -22.1408   19.3606 C   0  0  0  0  0  0  0  0  0  0  0  0
  -24.0171  -28.3281   19.7094 C   0  0  0  0  0  0  0  0  0  0  0  0
  -20.7405   -7.1443   22.8967 C   0  0  0  0  0  0  0  0  0  0  0  0
  -19.3250   -7.0483   25.2986 C   0  0  0  0  0  0  0  0  0  0  0  0
  -20.9783   -6.1133   23.8055 C   0  0  0  0  0  0  0  0  0  0  0  0
  -24.5850  -11.7148   20.7264 C   0  0  0  0  0  0  0  0  0  0  0  0
  -25.3326  -13.7743   20.5411 C   0  0  0  0  0  0  0  0  0  0  0  0
  -22.9970  -13.6161   21.4179 C   0  0  0  0  0  0  0  0  0  0  0  0
  -24.9390  -33.6176   18.9123 C   0  0  0  0  0  0  0  0  0  0  0  0
  -25.2462  -33.9427   22.1252 C   0  0  0  0  0  0  0  0  0  0  0  0
  -25.2434  -32.4628   25.2003 C   0  0  0  0  0  0  0  0  0  0  0  0
  -30.8595  -14.5474   20.5229 C   0  0  0  0  0  0  0  0  0  0  0  0
  -25.3592  -37.8990   16.1644 C   0  0  0  0  0  0  0  0  0  0  0  0
  -22.8503  -32.4710   19.7362 C   0  0  0  0  0  0  0  0  0  0  0  0
  -25.2478  -31.5862   21.2241 C   0  0  0  0  0  0  0  0  0  0  0  0
  -25.9723  -37.3668   17.4572 C   0  0  0  0  0  0  0  0  0  0  0  0
  -29.5163  -12.2996   18.1105 C   0  0  0  0  0  0  0  0  0  0  0  0
  -26.4926  -35.9471   17.2564 C   0  0  0  0  0  0  0  0  0  0  0  0
  -28.0867  -12.0535   18.5959 C   0  0  0  0  0  0  0  0  0  0  0  0
  -30.4923  -12.4382   19.2767 C   0  0  0  0  0  0  0  0  0  0  0  0
  -28.6856  -13.2020   20.7687 C   0  0  0  0  0  0  0  0  0  0  0  0
  -25.3547  -34.9907   16.8794 C   0  0  1  0  0  0  0  0  0  0  0  0
  -23.9915  -33.4292   20.0632 C   0  0  1  0  0  0  0  0  0  0  0  0
  -27.6557  -13.1112   19.6297 C   0  0  2  0  0  0  0  0  0  0  0  0
  -25.5609  -32.9795   27.6354 C   0  0  0  0  0  0  0  0  0  0  0  0
  -28.2622  -34.1087   21.6941 C   0  0  0  0  0  0  0  0  0  0  0  0
  -28.5658  -33.6670   24.1398 C   0  0  0  0  0  0  0  0  0  0  0  0
  -27.3600  -35.7160   23.3844 C   0  0  0  0  0  0  0  0  0  0  0  0
  -22.4960  -31.5850   25.8640 C   0  0  0  0  0  0  0  0  0  0  0  0
  -23.5611  -26.1178   18.9594 C   0  0  0  0  0  0  0  0  0  1  0  0
  -27.4742  -19.5499   20.2127 C   0  0  0  0  0  0  0  0  0  0  0  0
  -31.0740  -16.6484   21.8263 C   0  0  0  0  0  0  0  0  0  0  0  0
  -28.9704  -19.3162   20.0921 C   0  0  0  0  0  0  0  0  0  0  0  0
  -30.8032  -17.8355   20.9209 C   0  0  0  0  0  0  0  0  0  0  0  0
  -27.0232  -20.7159   19.3448 C   0  0  0  0  0  0  0  0  0  0  0  0
  -26.2364  -33.4624   23.1585 C   0  0  1  0  0  0  0  0  0  0  0  0
  -24.5580  -32.8428   26.5005 C   0  0  2  0  0  0  0  0  0  0  0  0
  -27.5916  -34.2203   23.0779 C   0  0  0  0  0  0  0  0  0  0  0  0
  -25.8255  -11.5789   20.2502 N   0  0  0  0  0  0  0  0  0  0  0  0
  -26.2538  -12.8486   20.1481 N   0  0  0  0  0  0  0  0  0  0  0  0
  -24.7916  -32.9858   21.2067 N   0  0  0  0  0  0  0  0  0  0  0  0
  -30.0264  -13.4579   20.2196 N   0  0  0  0  0  0  0  0  0  0  0  0
  -25.5992  -15.0972   20.5032 N   0  0  0  0  0  0  0  0  0  0  0  0
  -21.9605  -12.7404   21.7688 N   0  0  0  0  0  0  0  0  0  0  0  0
  -24.5821  -34.6377   18.0511 N   0  0  0  0  0  0  0  0  0  0  0  0
  -25.5656  -33.5734   24.4493 N   0  0  0  0  0  0  0  0  0  0  0  0
  -30.3388  -15.4712   21.4207 N   0  0  0  0  0  0  0  0  0  0  0  0
  -23.5567  -31.8064   26.8803 N   0  3  0  0  0  0  0  0  0  0  0  0
  -29.3620  -18.2026   20.9892 N   0  3  0  0  0  0  0  0  0  0  0  0
  -22.8188  -14.8530   21.5262 O   0  0  0  0  0  0  0  0  0  0  0  0
  -25.9218  -32.8924   18.8138 O   0  0  0  0  0  0  0  0  0  0  0  0
  -24.8837  -35.1218   22.1371 O   0  0  0  0  0  0  0  0  0  0  0  0
  -25.4735  -31.2976   24.8845 O   0  0  0  0  0  0  0  0  0  0  0  0
  -31.9820  -14.6892   20.0260 O   0  0  0  0  0  0  0  0  0  0  0  0
  -21.4430   -7.1939   21.7043 O   0  0  0  0  0  0  0  0  0  0  0  0
  -24.3815  -27.0170   19.7042 O   0  0  0  0  0  0  0  0  0  1  0  0
  -25.6128  -20.8787   19.4867 O   0  0  0  0  0  0  0  0  0  0  0  0
  -18.6463   -7.0031   26.4526 F   0  0  0  0  0  0  0  0  0  0  0  0
  -21.8863   -5.1667   23.5309 F   0  0  0  0  0  0  0  0  0  0  0  0
  1  2  1  0  0  0  0
  1  5  2  0  0  0  0
  2  6  2  0  0  0  0
  3 10  2  0  0  0  0
  3 19  1  0  0  0  0
  4 11  1  0  0  0  0
  4 19  2  0  0  0  0
  5 21  1  0  0  0  0
  6 23  1  0  0  0  0
  7 12  2  0  0  0  0
  7 22  1  0  0  0  0
  8 13  2  0  0  0  0
  8 25  1  0  0  0  0
  9 14  1  0  0  0  0
  9 25  2  0  0  0  0
 10 26  1  0  0  0  0
 11 26  2  0  0  0  0
 12 28  1  0  0  0  0
 13 27  1  0  0  0  0
 14 27  2  0  0  0  0
 15 16  2  0  0  0  0
 15 29  1  0  0  0  0
 16 30  1  0  0  0  0
 17 24  1  0  0  0  0
 17 28  2  0  0  0  0
 18 30  2  0  0  0  0
 18 31  1  0  0  0  0
 19 32  1  0  0  0  0
 20 32  1  0  0  0  0
 20 33  2  0  0  0  0
 20 34  1  0  0  0  0
 21 23  2  0  0  0  0
 21 39  1  0  0  0  0
 22 24  2  0  0  0  0
 22 40  1  0  0  0  0
 23 48  1  0  0  0  0
 24 41  1  0  0  0  0
 25 56  1  0  0  0  0
 26 81  1  0  0  0  0
 27 83  1  0  0  0  0
 28 82  1  0  0  0  0
 29 31  2  0  0  0  0
 29 81  1  0  0  0  0
 30 84  1  0  0  0  0
 31 85  1  0  0  0  0
 32 65  2  0  0  0  0
 33 66  1  0  0  0  0
 33 69  1  0  0  0  0
 34 70  1  0  0  0  0
 34 76  2  0  0  0  0
 35 49  1  0  0  0  0
 35 71  1  0  0  0  0
 35 77  2  0  0  0  0
 36 62  1  0  0  0  0
 36 67  1  0  0  0  0
 36 78  2  0  0  0  0
 37 63  1  0  0  0  0
 37 72  1  0  0  0  0
 37 79  2  0  0  0  0
 38 68  1  0  0  0  0
 38 73  1  0  0  0  0
 38 80  2  0  0  0  0
 39 42  1  0  0  0  0
 40 49  1  0  0  0  0
 41 67  1  0  0  0  0
 42 44  1  0  0  0  0
 43 45  1  0  0  0  0
 43 46  1  0  0  0  0
 44 48  1  0  0  0  0
 45 50  1  0  0  0  0
 46 68  1  0  0  0  0
 47 50  1  0  0  0  0
 47 68  1  0  0  0  0
 48 71  1  0  0  0  0
 49 67  1  0  0  0  0
 50 66  1  0  0  0  0
 51 63  1  0  0  0  0
 52 64  1  0  0  0  0
 53 64  1  0  0  0  0
 54 64  1  0  0  0  0
 55 74  1  0  0  0  0
 56 82  1  0  0  0  0
 57 59  1  0  0  0  0
 57 61  1  0  0  0  0
 58 60  1  0  0  0  0
 58 73  1  0  0  0  0
 59 75  1  0  0  0  0
 60 75  1  0  0  0  0
 61 83  1  0  0  0  0
 62 64  1  0  0  0  0
 62 72  1  0  0  0  0
 63 74  1  0  0  0  0
 65 66  1  0  0  0  0
M  CHG  2  74   1  75   1
M  ISO  4  38 100  56 101  73 100  82 101
M  END
> <Batch ID>
0132

> <Smiles>
CNC(C)C(=O)NC(C(=O)N1Cc2cc([101O:1][101CH2:1]c3ccc(OCCCNCC[100NH:0][100C:0](=O)N4CCCC(n5nc(-c6ccc(Oc7ccc(F)cc7F)cc6)c(C(N)=O)c5N)C4)cc3)ccc2CC1C(=O)NC1CCCc2ccccc21)C(C)(C)C

> <Shape>
0.294

> <Color>
0.205

> <Negative vol penalty>
0.000

$$$$

  -OEChem-04052320523D

 87 96  0     1  0  0  0  0  0999 V2000
  -20.6653  -29.4444   14.9501 C   0  0  0  0  0  0  0  0  0  0  0  0
  -21.9784  -29.2309   15.3572 C   0  0  0  0  0  0  0  0  0  0  0  0
  -20.6213  -10.7714   20.8485 C   0  0  0  0  0  0  0  0  0  0  0  0
  -22.8566  -10.5297   21.7328 C   0  0  0  0  0  0  0  0  0  0  0  0
  -19.9045  -30.4462   15.5513 C   0  0  0  0  0  0  0  0  0  0  0  0
  -22.5318  -30.0199   16.3649 C   0  0  0  0  0  0  0  0  0  0  0  0
  -25.1135  -27.2980   19.7665 C   0  0  0  0  0  0  0  0  0  0  0  0
  -20.4535   -9.3874   20.8943 C   0  0  0  0  0  0  0  0  0  0  0  0
  -22.6888   -9.1457   21.7786 C   0  0  0  0  0  0  0  0  0  0  0  0
  -26.3920  -26.8750   19.4056 C   0  0  0  0  0  0  0  0  0  0  0  0
  -21.1703   -6.8874   23.7823 C   0  0  0  0  0  0  0  0  0  0  0  0
  -21.5857   -6.2236   24.9365 C   0  0  0  0  0  0  0  0  0  0  0  0
  -27.3451  -28.6873   20.6809 C   0  0  0  0  0  0  0  0  0  0  0  0
  -23.1343   -4.9124   23.6251 C   0  0  0  0  0  0  0  0  0  0  0  0
  -21.8229  -11.3425   21.2677 C   0  0  0  0  0  0  0  0  0  0  0  0
  -21.2309  -13.7445   21.8902 C   0  0  0  0  0  0  0  0  0  0  0  0
  -20.4457  -31.2415   16.5736 C   0  0  0  0  0  0  0  0  0  0  0  0
  -24.9405  -28.4272   20.5798 C   0  0  0  0  0  0  0  0  0  0  0  0
  -21.7779  -31.0342   16.9794 C   0  0  0  0  0  0  0  0  0  0  0  0
  -26.0634  -29.1211   21.0528 C   0  0  0  0  0  0  0  0  0  0  0  0
  -21.4873   -8.5746   21.3594 C   0  0  0  0  0  0  0  0  0  0  0  0
  -27.5079  -27.5714   19.8604 C   0  0  0  0  0  0  0  0  0  0  0  0
  -21.7367   -6.5636   22.5494 C   0  0  0  0  0  0  0  0  0  0  0  0
  -22.5677   -5.2361   24.8580 C   0  0  0  0  0  0  0  0  0  0  0  0
  -22.7188   -5.5761   22.4708 C   0  0  0  0  0  0  0  0  0  0  0  0
  -21.9971  -12.7720   21.2201 C   0  0  0  0  0  0  0  0  0  0  0  0
  -21.7941  -14.9410   21.5190 C   0  0  0  0  0  0  0  0  0  0  0  0
  -20.1105  -13.5810   22.7697 C   0  0  0  0  0  0  0  0  0  0  0  0
  -23.5399  -31.2578   20.2195 C   0  0  0  0  0  0  0  0  0  0  0  0
  -24.2656  -31.5812   23.3646 C   0  0  0  0  0  0  0  0  0  0  0  0
  -26.2429  -30.6646   25.9908 C   0  0  0  0  0  0  0  0  0  0  0  0
  -27.2509  -16.3395   19.7518 C   0  0  0  0  0  0  0  0  0  0  0  0
  -19.5999  -32.3436   17.1609 C   0  0  0  0  0  0  0  0  0  0  0  0
  -23.5557  -28.8548   20.9821 C   0  0  0  0  0  0  0  0  0  0  0  0
  -25.9324  -30.3275   21.9449 C   0  0  0  0  0  0  0  0  0  0  0  0
  -20.1397  -32.8880   18.4809 C   0  0  0  0  0  0  0  0  0  0  0  0
  -24.1965  -16.9939   17.9244 C   0  0  0  0  0  0  0  0  0  0  0  0
  -21.6391  -33.1489   18.3776 C   0  0  0  0  0  0  0  0  0  0  0  0
  -30.6924  -24.0438   18.6995 C   0  0  0  0  0  0  0  0  0  0  0  0
  -28.8859  -23.4984   20.3833 C   0  0  0  0  0  0  0  0  0  0  0  0
  -23.2106  -16.0670   18.6379 C   0  0  0  0  0  0  0  0  0  0  0  0
  -30.3893  -25.5303   18.8615 C   0  0  0  0  0  0  0  0  0  0  0  0
  -28.5874  -24.9864   20.5402 C   0  0  0  0  0  0  0  0  0  0  0  0
  -25.5747  -16.3498   17.8068 C   0  0  0  0  0  0  0  0  0  0  0  0
  -31.1305  -21.5696   22.1059 C   0  0  0  0  0  0  0  0  0  0  0  0
  -25.1779  -14.9828   19.8187 C   0  0  0  0  0  0  0  0  0  0  0  0
  -30.7052  -20.9919   23.4550 C   0  0  0  0  0  0  0  0  0  0  0  0
  -30.8439  -18.8721   22.1493 C   0  0  0  0  0  0  0  0  0  0  0  0
  -22.4057  -31.8531   18.0865 C   0  0  1  0  0  0  0  0  0  0  0  0
  -23.4792  -30.3219   21.3935 C   0  0  1  0  0  0  0  0  0  0  0  0
  -30.3436  -23.2544   19.9690 C   0  0  0  0  0  0  0  0  0  0  0  0
  -23.7716  -15.5857   19.9891 C   0  0  2  0  0  0  0  0  0  0  0  0
  -28.9400  -25.7687   19.2768 C   0  0  0  0  0  0  0  0  0  1  0  0
  -30.4369  -19.5889   20.8494 C   0  0  1  0  0  0  0  0  0  0  0  0
  -26.6207  -31.1282   28.4279 C   0  0  0  0  0  0  0  0  0  0  0  0
  -29.7432  -21.1942   18.6495 C   0  0  0  0  0  0  0  0  0  0  0  0
  -25.6362  -34.2117   22.6492 C   0  0  0  0  0  0  0  0  0  0  0  0
  -26.7806  -34.1401   24.8749 C   0  0  0  0  0  0  0  0  0  0  0  0
  -24.2925  -34.2751   24.7575 C   0  0  0  0  0  0  0  0  0  0  0  0
  -25.6486  -27.8625   26.7349 C   0  0  0  0  0  0  0  0  0  0  0  0
  -29.1031  -19.0293   20.3376 C   0  0  0  0  0  0  0  0  0  0  0  0
  -29.2829  -17.7479   19.5416 C   0  0  0  0  0  0  0  0  0  0  0  0
  -25.4469  -32.1122   24.1400 C   0  0  1  0  0  0  0  0  0  0  0  0
  -25.9031  -30.2532   27.4120 C   0  0  2  0  0  0  0  0  0  0  0  0
  -30.6040  -21.7630   19.7651 C   0  0  2  0  0  0  0  0  0  0  0  0
  -25.5418  -33.6632   24.0870 C   0  0  0  0  0  0  0  0  0  0  0  0
  -22.9725  -13.3046   20.4791 N   0  0  0  0  0  0  0  0  0  0  0  0
  -22.8230  -14.6247   20.6815 N   0  0  0  0  0  0  0  0  0  0  0  0
  -24.5572  -30.7102   22.3053 N   0  0  0  0  0  0  0  0  0  0  0  0
  -26.0595  -15.9312   19.1297 N   0  0  0  0  0  0  0  0  0  0  0  0
  -30.3038  -21.0546   21.0106 N   0  0  2  0  0  0  0  0  0  0  0  0
  -21.5046  -16.2222   21.8306 N   0  0  0  0  0  0  0  0  0  0  0  0
  -20.3536  -13.4436   24.1431 N   0  0  0  0  0  0  0  0  0  0  0  0
  -22.5357  -31.0613   19.2909 N   0  0  0  0  0  0  0  0  0  0  0  0
  -25.3291  -31.5665   25.4879 N   0  0  0  0  0  0  0  0  0  0  0  0
  -28.0323  -17.2333   19.0298 N   0  0  0  0  0  0  0  0  0  0  0  0
  -30.2362  -19.5810   23.3098 N   0  3  0  0  0  0  0  0  0  0  0  0
  -26.2986  -28.8361   27.6496 N   0  3  0  0  0  0  0  0  0  0  0  0
  -18.9297  -13.5409   22.3482 O   0  0  0  0  0  0  0  0  0  0  0  0
  -24.4309  -32.0971   20.1614 O   0  0  0  0  0  0  0  0  0  0  0  0
  -23.1256  -31.9209   23.6913 O   0  0  0  0  0  0  0  0  0  0  0  0
  -27.2231  -30.2322   25.3884 O   0  0  0  0  0  0  0  0  0  0  0  0
  -27.5909  -15.9412   20.8711 O   0  0  0  0  0  0  0  0  0  0  0  0
  -21.3238   -7.2241   21.4044 O   0  0  0  0  0  0  0  0  0  0  0  0
  -28.7570  -27.1610   19.5091 O   0  0  0  0  0  0  0  0  0  1  0  0
  -22.9677   -4.5998   25.9668 F   0  0  0  0  0  0  0  0  0  0  0  0
  -23.2675   -5.2616   21.2894 F   0  0  0  0  0  0  0  0  0  0  0  0
  1  2  1  0  0  0  0
  1  5  2  0  0  0  0
  2  6  2  0  0  0  0
  3  8  2  0  0  0  0
  3 15  1  0  0  0  0
  4  9  1  0  0  0  0
  4 15  2  0  0  0  0
  5 17  1  0  0  0  0
  6 19  1  0  0  0  0
  7 10  2  0  0  0  0
  7 18  1  0  0  0  0
  8 21  1  0  0  0  0
  9 21  2  0  0  0  0
 10 22  1  0  0  0  0
 11 12  2  0  0  0  0
 11 23  1  0  0  0  0
 12 24  1  0  0  0  0
 13 20  1  0  0  0  0
 13 22  2  0  0  0  0
 14 24  2  0  0  0  0
 14 25  1  0  0  0  0
 15 26  1  0  0  0  0
 16 26  1  0  0  0  0
 16 27  2  0  0  0  0
 16 28  1  0  0  0  0
 17 19  2  0  0  0  0
 17 33  1  0  0  0  0
 18 20  2  0  0  0  0
 18 34  1  0  0  0  0
 19 49  1  0  0  0  0
 20 35  1  0  0  0  0
 21 84  1  0  0  0  0
 22 85  1  0  0  0  0
 23 25  2  0  0  0  0
 23 84  1  0  0  0  0
 24 86  1  0  0  0  0
 25 87  1  0  0  0  0
 26 67  2  0  0  0  0
 27 68  1  0  0  0  0
 27 72  1  0  0  0  0
 28 73  1  0  0  0  0
 28 79  2  0  0  0  0
 29 50  1  0  0  0  0
 29 74  1  0  0  0  0
 29 80  2  0  0  0  0
 30 63  1  0  0  0  0
 30 69  1  0  0  0  0
 30 81  2  0  0  0  0
 31 64  1  0  0  0  0
 31 75  1  0  0  0  0
 31 82  2  0  0  0  0
 32 70  1  0  0  0  0
 32 76  1  0  0  0  0
 32 83  2  0  0  0  0
 33 36  1  0  0  0  0
 34 50  1  0  0  0  0
 35 69  1  0  0  0  0
 36 38  1  0  0  0  0
 37 41  1  0  0  0  0
 37 44  1  0  0  0  0
 38 49  1  0  0  0  0
 39 42  1  0  0  0  0
 39 51  1  0  0  0  0
 40 43  1  0  0  0  0
 40 51  1  0  0  0  0
 41 52  1  0  0  0  0
 42 53  1  0  0  0  0
 43 53  1  0  0  0  0
 44 70  1  0  0  0  0
 45 47  1  0  0  0  0
 45 71  1  0  0  0  0
 46 52  1  0  0  0  0
 46 70  1  0  0  0  0
 47 77  1  0  0  0  0
 48 54  1  0  0  0  0
 48 77  1  0  0  0  0
 49 74  1  0  0  0  0
 50 69  1  0  0  0  0
 51 65  1  0  0  0  0
 52 68  1  0  0  0  0
 53 85  1  0  0  0  0
 54 61  1  0  0  0  0
 54 71  1  0  0  0  0
 55 64  1  0  0  0  0
 56 65  1  0  0  0  0
 57 66  1  0  0  0  0
 58 66  1  0  0  0  0
 59 66  1  0  0  0  0
 60 78  1  0  0  0  0
 61 62  1  0  0  0  0
 62 76  1  0  0  0  0
 63 66  1  0  0  0  0
 63 75  1  0  0  0  0
 64 78  1  0  0  0  0
 65 71  1  0  0  0  0
 67 68  1  0  0  0  0
M  CHG  2  77   1  78   1
M  ISO  4  32 100  53 101  76 100  85 101
M  END
> <Batch ID>
0132

> <Smiles>
CNC(C)C(=O)NC(C(=O)N1Cc2cc([101O:1][101CH:1]3CCC(C(C)N4CCNCC4CC[100NH:0][100C:0](=O)N4CCCC(n5nc(-c6ccc(Oc7ccc(F)cc7F)cc6)c(C(N)=O)c5N)C4)CC3)ccc2CC1C(=O)NC1CCCc2ccccc21)C(C)(C)C

> <Shape>
0.295

> <Color>
0.083

> <Negative vol penalty>
0.000

$$$$

  -OEChem-04052320523D

 82 90  0     1  0  0  0  0  0999 V2000
  -21.2215   -8.1350   17.9631 C   0  0  0  0  0  0  0  0  0  0  0  0
  -20.6181   -9.3812   17.8281 C   0  0  0  0  0  0  0  0  0  0  0  0
  -28.7445  -26.3434   19.1219 C   0  0  0  0  0  0  0  0  0  0  0  0
  -26.5743  -25.3220   19.4115 C   0  0  0  0  0  0  0  0  0  0  0  0
  -22.1916   -7.9340   18.9441 C   0  0  0  0  0  0  0  0  0  0  0  0
  -20.9837  -10.4270   18.6749 C   0  0  0  0  0  0  0  0  0  0  0  0
  -21.7327  -17.5509   18.7467 C   0  0  0  0  0  0  0  0  0  0  0  0
  -29.3217  -25.0802   18.9918 C   0  0  0  0  0  0  0  0  0  0  0  0
  -27.1514  -24.0588   19.2813 C   0  0  0  0  0  0  0  0  0  0  0  0
  -21.3354  -18.6683   19.4798 C   0  0  0  0  0  0  0  0  0  0  0  0
  -29.6182  -22.7117   16.5970 C   0  0  0  0  0  0  0  0  0  0  0  0
  -30.5400  -22.5232   15.5674 C   0  0  0  0  0  0  0  0  0  0  0  0
  -23.0801  -18.2271   21.0863 C   0  0  0  0  0  0  0  0  0  0  0  0
  -32.2349  -21.9478   17.1902 C   0  0  0  0  0  0  0  0  0  0  0  0
  -27.3708  -26.4642   19.3318 C   0  0  0  0  0  0  0  0  0  0  0  0
  -26.7822  -28.8095   18.5189 C   0  0  0  0  0  0  0  0  0  0  0  0
  -22.5762   -8.9805   19.7970 C   0  0  0  0  0  0  0  0  0  0  0  0
  -22.8014  -16.7556   19.1845 C   0  0  0  0  0  0  0  0  0  0  0  0
  -21.9589  -10.2395   19.6691 C   0  0  0  0  0  0  0  0  0  0  0  0
  -23.4905  -17.1016   20.3557 C   0  0  0  0  0  0  0  0  0  0  0  0
  -28.5252  -23.9379   19.0715 C   0  0  0  0  0  0  0  0  0  0  0  0
  -22.0073  -19.0049   20.6513 C   0  0  0  0  0  0  0  0  0  0  0  0
  -30.0046  -22.5184   17.9233 C   0  0  0  0  0  0  0  0  0  0  0  0
  -31.8484  -22.1412   15.8640 C   0  0  0  0  0  0  0  0  0  0  0  0
  -31.3130  -22.1364   18.2199 C   0  0  0  0  0  0  0  0  0  0  0  0
  -26.7741  -27.7688   19.4669 C   0  0  0  0  0  0  0  0  0  0  0  0
  -26.0873  -29.8290   19.1225 C   0  0  0  0  0  0  0  0  0  0  0  0
  -27.3655  -28.8510   17.2099 C   0  0  0  0  0  0  0  0  0  0  0  0
  -23.1204  -13.7228   20.0815 C   0  0  0  0  0  0  0  0  0  0  0  0
  -26.2726  -14.4843   20.1594 C   0  0  0  0  0  0  0  0  0  0  0  0
  -28.2816  -17.2730   21.2571 C   0  0  0  0  0  0  0  0  0  0  0  0
  -21.9080  -29.9362   23.4088 C   0  0  0  0  0  0  0  0  0  0  0  0
  -23.5955   -8.7024   20.8734 C   0  0  0  0  0  0  0  0  0  0  0  0
  -23.2347  -15.5688   18.3682 C   0  0  0  0  0  0  0  0  0  0  0  0
  -24.6572  -16.2922   20.8578 C   0  0  0  0  0  0  0  0  0  0  0  0
  -24.1955   -9.9657   21.4851 C   0  0  0  0  0  0  0  0  0  0  0  0
  -25.0500  -31.6107   23.4399 C   0  0  0  0  0  0  0  0  0  0  0  0
  -23.0977  -10.9715   21.8169 C   0  0  0  0  0  0  0  0  0  0  0  0
  -25.8488  -30.9098   22.3397 C   0  0  0  0  0  0  0  0  0  0  0  0
  -19.9226  -20.6993   24.2117 C   0  0  0  0  0  0  0  0  0  0  0  0
  -20.2580  -19.5273   23.2859 C   0  0  0  0  0  0  0  0  0  0  0  0
  -19.8167  -21.5515   21.9933 C   0  0  0  0  0  0  0  0  0  0  0  0
  -24.1514  -30.6334   24.1946 C   0  0  0  0  0  0  0  0  0  0  0  0
  -24.0504  -29.1337   22.2416 C   0  0  0  0  0  0  0  0  0  0  0  0
  -22.3465  -11.4055   20.5525 C   0  0  1  0  0  0  0  0  0  0  0  0
  -24.0077  -14.5348   19.1809 C   0  0  1  0  0  0  0  0  0  0  0  0
  -24.9296  -30.0884   21.4158 C   0  0  2  0  0  0  0  0  0  0  0  0
  -20.2744  -21.9388   23.3972 C   0  0  1  0  0  0  0  0  0  0  0  0
  -20.2864  -20.1044   21.8653 C   0  0  1  0  0  0  0  0  0  1  0  0
  -30.5320  -18.0678   20.4816 C   0  0  0  0  0  0  0  0  0  0  0  0
  -27.3431  -12.7772   22.4506 C   0  0  0  0  0  0  0  0  0  0  0  0
  -29.0505  -14.5558   22.8857 C   0  0  0  0  0  0  0  0  0  0  0  0
  -29.0341  -13.3530   20.7003 C   0  0  0  0  0  0  0  0  0  0  0  0
  -27.2561  -19.9913   20.6931 C   0  0  0  0  0  0  0  0  0  0  0  0
  -19.7336  -29.1629   22.4960 C   0  0  0  0  0  0  0  0  0  0  0  0
  -19.9721  -24.2979   23.0811 C   0  0  0  0  0  0  0  0  0  0  0  0
  -19.2028  -28.0254   23.3484 C   0  0  0  0  0  0  0  0  0  0  0  0
  -19.3264  -25.5487   23.6469 C   0  0  0  0  0  0  0  0  0  0  0  0
  -27.2141  -15.0342   21.2036 C   0  0  1  0  0  0  0  0  0  0  0  0
  -29.0270  -18.2587   20.3755 C   0  0  2  0  0  0  0  0  0  0  0  0
  -28.1327  -13.9363   21.8103 C   0  0  0  0  0  0  0  0  0  0  0  0
  -26.1257  -28.0970   20.5875 N   0  0  0  0  0  0  0  0  0  0  0  0
  -25.7199  -29.3555   20.3476 N   0  0  0  0  0  0  0  0  0  0  0  0
  -25.0389  -15.1375   20.0280 N   0  0  0  0  0  0  0  0  0  0  0  0
  -23.3040  -29.8873   23.2613 N   0  0  0  0  0  0  0  0  0  0  0  0
  -25.7609  -31.0754   18.7194 N   0  0  0  0  0  0  0  0  0  0  0  0
  -26.5880  -28.4401   16.1186 N   0  0  0  0  0  0  0  0  0  0  0  0
  -23.1274  -12.3687   19.8062 N   0  0  0  0  0  0  0  0  0  0  0  0
  -27.9346  -16.1311   20.5664 N   0  0  0  0  0  0  0  0  0  0  0  0
  -21.1788  -29.2059   22.4784 N   0  0  0  0  0  0  0  0  0  0  0  0
  -19.6202  -23.1378   23.8906 N   0  0  0  0  0  0  0  0  0  0  0  0
  -28.7016  -19.6577   20.7728 N   0  3  0  0  0  0  0  0  0  0  0  0
  -19.7346  -26.7293   22.8463 N   0  3  0  0  0  0  0  0  0  0  0  0
  -28.5469  -29.2253   17.0156 O   0  0  0  0  0  0  0  0  0  0  0  0
  -22.4781  -14.2832   20.9619 O   0  0  0  0  0  0  0  0  0  0  0  0
  -26.6218  -13.5155   19.4804 O   0  0  0  0  0  0  0  0  0  0  0  0
  -28.0353  -17.4922   22.4411 O   0  0  0  0  0  0  0  0  0  0  0  0
  -21.3524  -30.5872   24.3002 O   0  0  0  0  0  0  0  0  0  0  0  0
  -29.0880  -22.7052   18.9443 O   0  0  0  0  0  0  0  0  0  0  0  0
  -21.6212  -20.0947   21.3690 O   0  0  0  0  0  0  0  0  0  1  0  0
  -32.7332  -21.9587   14.8750 F   0  0  0  0  0  0  0  0  0  0  0  0
  -31.6898  -21.9480   19.4920 F   0  0  0  0  0  0  0  0  0  0  0  0
  1  2  1  0  0  0  0
  1  5  2  0  0  0  0
  2  6  2  0  0  0  0
  3  8  2  0  0  0  0
  3 15  1  0  0  0  0
  4  9  1  0  0  0  0
  4 15  2  0  0  0  0
  5 17  1  0  0  0  0
  6 19  1  0  0  0  0
  7 10  2  0  0  0  0
  7 18  1  0  0  0  0
  8 21  1  0  0  0  0
  9 21  2  0  0  0  0
 10 22  1  0  0  0  0
 11 12  2  0  0  0  0
 11 23  1  0  0  0  0
 12 24  1  0  0  0  0
 13 20  1  0  0  0  0
 13 22  2  0  0  0  0
 14 24  2  0  0  0  0
 14 25  1  0  0  0  0
 15 26  1  0  0  0  0
 16 26  1  0  0  0  0
 16 27  2  0  0  0  0
 16 28  1  0  0  0  0
 17 19  2  0  0  0  0
 17 33  1  0  0  0  0
 18 20  2  0  0  0  0
 18 34  1  0  0  0  0
 19 45  1  0  0  0  0
 20 35  1  0  0  0  0
 21 79  1  0  0  0  0
 22 80  1  0  0  0  0
 23 25  2  0  0  0  0
 23 79  1  0  0  0  0
 24 81  1  0  0  0  0
 25 82  1  0  0  0  0
 26 62  2  0  0  0  0
 27 63  1  0  0  0  0
 27 66  1  0  0  0  0
 28 67  1  0  0  0  0
 28 74  2  0  0  0  0
 29 46  1  0  0  0  0
 29 68  1  0  0  0  0
 29 75  2  0  0  0  0
 30 59  1  0  0  0  0
 30 64  1  0  0  0  0
 30 76  2  0  0  0  0
 31 60  1  0  0  0  0
 31 69  1  0  0  0  0
 31 77  2  0  0  0  0
 32 65  1  0  0  0  0
 32 70  1  0  0  0  0
 32 78  2  0  0  0  0
 33 36  1  0  0  0  0
 34 46  1  0  0  0  0
 35 64  1  0  0  0  0
 36 38  1  0  0  0  0
 37 39  1  0  0  0  0
 37 43  1  0  0  0  0
 38 45  1  0  0  0  0
 39 47  1  0  0  0  0
 40 41  1  0  0  0  0
 40 48  1  0  0  0  0
 41 49  1  0  0  0  0
 42 48  1  0  0  0  0
 42 49  1  0  0  0  0
 43 65  1  0  0  0  0
 44 47  1  0  0  0  0
 44 65  1  0  0  0  0
 45 68  1  0  0  0  0
 46 64  1  0  0  0  0
 47 63  1  0  0  0  0
 48 71  1  0  0  0  0
 49 80  1  0  0  0  0
 50 60  1  0  0  0  0
 51 61  1  0  0  0  0
 52 61  1  0  0  0  0
 53 61  1  0  0  0  0
 54 72  1  0  0  0  0
 55 57  1  0  0  0  0
 55 70  1  0  0  0  0
 56 58  1  0  0  0  0
 56 71  1  0  0  0  0
 57 73  1  0  0  0  0
 58 73  1  0  0  0  0
 59 61  1  0  0  0  0
 59 69  1  0  0  0  0
 60 72  1  0  0  0  0
 62 63  1  0  0  0  0
M  CHG  2  72   1  73   1
M  ISO  4  32 100  49 101  70 100  80 101
M  END
> <Batch ID>
0132

> <Smiles>
CNC(C)C(=O)NC(C(=O)N1Cc2cc([101O:1][101CH:1]3CCC(NCCNCC[100NH:0][100C:0](=O)N4CCCC(n5nc(-c6ccc(Oc7ccc(F)cc7F)cc6)c(C(N)=O)c5N)C4)C3)ccc2CC1C(=O)NC1CCCc2ccccc21)C(C)(C)C

> <Shape>
0.240

> <Color>
0.067

> <Negative vol penalty>
0.000

$$$$

  -OEChem-04052320523D

 82 90  0     1  0  0  0  0  0999 V2000
  -31.2039  -27.8667   24.7971 C   0  0  0  0  0  0  0  0  0  0  0  0
  -30.4796  -28.1816   23.6518 C   0  0  0  0  0  0  0  0  0  0  0  0
  -28.1787  -16.9750   20.9508 C   0  0  0  0  0  0  0  0  0  0  0  0
  -27.7400  -17.5316   18.6411 C   0  0  0  0  0  0  0  0  0  0  0  0
  -30.8077  -26.7971   25.5990 C   0  0  0  0  0  0  0  0  0  0  0  0
  -29.3591  -27.4264   23.3072 C   0  0  0  0  0  0  0  0  0  0  0  0
  -25.4344  -30.3025   21.9040 C   0  0  0  0  0  0  0  0  0  0  0  0
  -27.0138  -16.2087   20.9875 C   0  0  0  0  0  0  0  0  0  0  0  0
  -26.5751  -16.7652   18.6777 C   0  0  0  0  0  0  0  0  0  0  0  0
  -25.4632  -30.8344   20.6156 C   0  0  0  0  0  0  0  0  0  0  0  0
  -24.3451  -13.8131   21.5826 C   0  0  0  0  0  0  0  0  0  0  0  0
  -24.4151  -12.5549   22.1807 C   0  0  0  0  0  0  0  0  0  0  0  0
  -23.9757  -29.0886   19.8681 C   0  0  0  0  0  0  0  0  0  0  0  0
  -26.0860  -11.8825   20.5704 C   0  0  0  0  0  0  0  0  0  0  0  0
  -28.5418  -17.6365   19.7777 C   0  0  0  0  0  0  0  0  0  0  0  0
  -31.0374  -17.9952   19.3891 C   0  0  0  0  0  0  0  0  0  0  0  0
  -29.6762  -26.0345   25.2692 C   0  0  0  0  0  0  0  0  0  0  0  0
  -24.6834  -29.1514   22.1822 C   0  0  0  0  0  0  0  0  0  0  0  0
  -28.9482  -26.3448   24.1047 C   0  0  0  0  0  0  0  0  0  0  0  0
  -23.9370  -28.5456   21.1614 C   0  0  0  0  0  0  0  0  0  0  0  0
  -26.2120  -16.1037   19.8509 C   0  0  0  0  0  0  0  0  0  0  0  0
  -24.7362  -30.2258   19.5967 C   0  0  0  0  0  0  0  0  0  0  0  0
  -25.1455  -14.1060   20.4784 C   0  0  0  0  0  0  0  0  0  0  0  0
  -25.2855  -11.5896   21.6746 C   0  0  0  0  0  0  0  0  0  0  0  0
  -26.0159  -13.1407   19.9723 C   0  0  0  0  0  0  0  0  0  0  0  0
  -29.7447  -18.4288   19.7394 C   0  0  0  0  0  0  0  0  0  0  0  0
  -31.8203  -19.1172   19.5099 C   0  0  0  0  0  0  0  0  0  0  0  0
  -31.4899  -16.6945   18.9902 C   0  0  0  0  0  0  0  0  0  0  0  0
  -25.3663  -26.2207   23.2059 C   0  0  0  0  0  0  0  0  0  0  0  0
  -22.1379  -25.9131   23.2737 C   0  0  0  0  0  0  0  0  0  0  0  0
  -19.1035  -26.9515   22.1071 C   0  0  0  0  0  0  0  0  0  0  0  0
  -30.6226  -24.9763   19.2141 C   0  0  0  0  0  0  0  0  0  0  0  0
  -29.3142  -24.8583   26.1412 C   0  0  0  0  0  0  0  0  0  0  0  0
  -24.6414  -28.6056   23.5832 C   0  0  0  0  0  0  0  0  0  0  0  0
  -23.0986  -27.3198   21.4126 C   0  0  0  0  0  0  0  0  0  0  0  0
  -27.8968  -24.3413   25.9089 C   0  0  0  0  0  0  0  0  0  0  0  0
  -32.1191  -23.2316   21.9332 C   0  0  0  0  0  0  0  0  0  0  0  0
  -27.6158  -24.2062   24.4157 C   0  0  0  0  0  0  0  0  0  0  0  0
  -31.7969  -21.7638   21.6477 C   0  0  0  0  0  0  0  0  0  0  0  0
  -27.3971  -29.0716   16.5733 C   0  0  0  0  0  0  0  0  0  0  0  0
  -30.9709  -24.1514   21.5239 C   0  0  0  0  0  0  0  0  0  0  0  0
  -30.1939  -22.5237   19.8445 C   0  0  0  0  0  0  0  0  0  0  0  0
  -27.4431  -28.7076   14.2268 C   0  0  0  0  0  0  0  0  0  0  0  0
  -27.7127  -25.5647   23.7110 C   0  0  1  0  0  0  0  0  0  0  0  0
  -24.2525  -27.1315   23.6388 C   0  0  1  0  0  0  0  0  0  0  0  0
  -31.3445  -21.5625   20.1889 C   0  0  2  0  0  0  0  0  0  0  0  0
  -27.6078  -27.9680   15.5439 C   0  0  1  0  0  0  0  0  0  0  0  0
  -26.1946  -29.8214   16.0125 C   0  0  1  0  0  0  0  0  0  0  0  0
  -16.6468  -26.4858   22.3198 C   0  0  0  0  0  0  0  0  0  0  0  0
  -22.4650  -23.4148   21.5529 C   0  0  0  0  0  0  0  0  0  0  0  0
  -20.0228  -23.5484   21.0177 C   0  0  0  0  0  0  0  0  0  0  0  0
  -20.7646  -23.2109   23.3754 C   0  0  0  0  0  0  0  0  0  0  0  0
  -18.5533  -29.6844   23.1010 C   0  0  0  0  0  0  0  0  0  0  0  0
  -30.2423  -25.6485   16.8556 C   0  0  0  0  0  0  0  0  0  0  0  0
  -28.8904  -26.3405   16.7551 C   0  0  0  0  0  0  0  0  0  0  0  0
  -25.9535  -31.4214   17.9401 C   0  0  0  0  0  0  0  0  0  1  0  0
  -21.0852  -25.4700   22.2865 C   0  0  1  0  0  0  0  0  0  0  0  0
  -17.8173  -27.3132   22.8278 C   0  0  2  0  0  0  0  0  0  0  0  0
  -26.1197  -31.2803   16.4320 C   0  0  2  0  0  0  0  0  0  0  0  0
  -21.1016  -23.9330   22.0526 C   0  0  0  0  0  0  0  0  0  0  0  0
  -29.7045  -19.7251   20.0589 N   0  0  0  0  0  0  0  0  0  0  0  0
  -30.9818  -20.1156   19.9099 N   0  0  0  0  0  0  0  0  0  0  0  0
  -23.0950  -26.8202   22.7975 N   0  0  0  0  0  0  0  0  0  0  0  0
  -30.5910  -23.9114   20.1296 N   0  0  0  0  0  0  0  0  0  0  0  0
  -33.1375  -19.3372   19.3120 N   0  0  0  0  0  0  0  0  0  0  0  0
  -30.5534  -15.6543   18.9182 N   0  0  0  0  0  0  0  0  0  0  0  0
  -26.5201  -26.3472   23.9558 N   0  0  0  0  0  0  0  0  0  0  0  0
  -19.8148  -25.9848   22.7859 N   0  0  0  0  0  0  0  0  0  0  0  0
  -30.2538  -24.6613   17.9120 N   0  0  0  0  0  0  0  0  0  0  0  0
  -28.9010  -27.3178   15.6734 N   0  0  0  0  0  0  0  0  0  0  0  0
  -26.3676  -29.7194   14.5166 N   0  3  0  0  0  0  0  0  0  0  0  0
  -17.4973  -28.7545   22.6245 N   0  3  0  0  0  0  0  0  0  0  0  0
  -32.6922  -16.4579   18.7218 O   0  0  0  0  0  0  0  0  0  0  0  0
  -25.1914  -25.4584   22.2625 O   0  0  0  0  0  0  0  0  0  0  0  0
  -22.1076  -25.4762   24.4269 O   0  0  0  0  0  0  0  0  0  0  0  0
  -19.4414  -27.4717   21.0461 O   0  0  0  0  0  0  0  0  0  0  0  0
  -30.9600  -26.1216   19.5324 O   0  0  0  0  0  0  0  0  0  0  0  0
  -24.9956  -31.8674   15.7785 O   0  0  0  0  0  0  0  0  0  0  0  0
  -25.0754  -15.3558   19.8862 O   0  0  0  0  0  0  0  0  0  0  0  0
  -24.7631  -30.7425   18.3381 O   0  0  0  0  0  0  0  0  0  1  0  0
  -25.3538  -10.3820   22.2500 F   0  0  0  0  0  0  0  0  0  0  0  0
  -26.7882  -13.4166   18.9125 F   0  0  0  0  0  0  0  0  0  0  0  0
  1  2  1  0  0  0  0
  1  5  2  0  0  0  0
  2  6  2  0  0  0  0
  3  8  2  0  0  0  0
  3 15  1  0  0  0  0
  4  9  1  0  0  0  0
  4 15  2  0  0  0  0
  5 17  1  0  0  0  0
  6 19  1  0  0  0  0
  7 10  2  0  0  0  0
  7 18  1  0  0  0  0
  8 21  1  0  0  0  0
  9 21  2  0  0  0  0
 10 22  1  0  0  0  0
 11 12  2  0  0  0  0
 11 23  1  0  0  0  0
 12 24  1  0  0  0  0
 13 20  1  0  0  0  0
 13 22  2  0  0  0  0
 14 24  2  0  0  0  0
 14 25  1  0  0  0  0
 15 26  1  0  0  0  0
 16 26  1  0  0  0  0
 16 27  2  0  0  0  0
 16 28  1  0  0  0  0
 17 19  2  0  0  0  0
 17 33  1  0  0  0  0
 18 20  2  0  0  0  0
 18 34  1  0  0  0  0
 19 44  1  0  0  0  0
 20 35  1  0  0  0  0
 21 79  1  0  0  0  0
 22 80  1  0  0  0  0
 23 25  2  0  0  0  0
 23 79  1  0  0  0  0
 24 81  1  0  0  0  0
 25 82  1  0  0  0  0
 26 61  2  0  0  0  0
 27 62  1  0  0  0  0
 27 65  1  0  0  0  0
 28 66  1  0  0  0  0
 28 73  2  0  0  0  0
 29 45  1  0  0  0  0
 29 67  1  0  0  0  0
 29 74  2  0  0  0  0
 30 57  1  0  0  0  0
 30 63  1  0  0  0  0
 30 75  2  0  0  0  0
 31 58  1  0  0  0  0
 31 68  1  0  0  0  0
 31 76  2  0  0  0  0
 32 64  1  0  0  0  0
 32 69  1  0  0  0  0
 32 77  2  0  0  0  0
 33 36  1  0  0  0  0
 34 45  1  0  0  0  0
 35 63  1  0  0  0  0
 36 38  1  0  0  0  0
 37 39  1  0  0  0  0
 37 41  1  0  0  0  0
 38 44  1  0  0  0  0
 39 46  1  0  0  0  0
 40 47  1  0  0  0  0
 40 48  1  0  0  0  0
 41 64  1  0  0  0  0
 42 46  1  0  0  0  0
 42 64  1  0  0  0  0
 43 47  1  0  0  0  0
 43 71  1  0  0  0  0
 44 67  1  0  0  0  0
 45 63  1  0  0  0  0
 46 62  1  0  0  0  0
 47 70  1  0  0  0  0
 48 59  1  0  0  0  0
 48 71  1  0  0  0  0
 49 58  1  0  0  0  0
 50 60  1  0  0  0  0
 51 60  1  0  0  0  0
 52 60  1  0  0  0  0
 53 72  1  0  0  0  0
 54 55  1  0  0  0  0
 54 69  1  0  0  0  0
 55 70  1  0  0  0  0
 56 59  1  0  0  0  0
 56 80  1  0  0  0  0
 57 60  1  0  0  0  0
 57 68  1  0  0  0  0
 58 72  1  0  0  0  0
 59 78  1  0  0  0  0
 61 62  1  0  0  0  0
M  CHG  2  71   1  72   1
M  ISO  4  32 100  56 101  69 100  80 101
M  END
> <Batch ID>
0132

> <Smiles>
CNC(C)C(=O)NC(C(=O)N1Cc2cc([101O:1][101CH2:1]C(O)C3CC(NCC[100NH:0][100C:0](=O)N4CCCC(n5nc(-c6ccc(Oc7ccc(F)cc7F)cc6)c(C(N)=O)c5N)C4)CN3)ccc2CC1C(=O)NC1CCCc2ccccc21)C(C)(C)C

> <Shape>
0.195

> <Color>
0.059

> <Negative vol penalty>
0.000

$$$$

  -OEChem-04052320523D

 84 92  0     1  0  0  0  0  0999 V2000
  -30.3569  -25.6019   15.8475 C   0  0  0  0  0  0  0  0  0  0  0  0
  -30.0585  -25.2620   17.1632 C   0  0  0  0  0  0  0  0  0  0  0  0
  -24.5359  -13.8553   21.0048 C   0  0  0  0  0  0  0  0  0  0  0  0
  -26.7570  -13.3878   20.1771 C   0  0  0  0  0  0  0  0  0  0  0  0
  -29.9684  -26.8426   15.3440 C   0  0  0  0  0  0  0  0  0  0  0  0
  -29.3722  -26.1632   17.9764 C   0  0  0  0  0  0  0  0  0  0  0  0
  -25.6739  -23.9521   20.6370 C   0  0  0  0  0  0  0  0  0  0  0  0
  -24.1182  -12.5874   20.6003 C   0  0  0  0  0  0  0  0  0  0  0  0
  -26.3394  -12.1199   19.7726 C   0  0  0  0  0  0  0  0  0  0  0  0
  -26.0486  -23.2280   21.7679 C   0  0  0  0  0  0  0  0  0  0  0  0
  -24.3568   -9.4087   21.7281 C   0  0  0  0  0  0  0  0  0  0  0  0
  -23.5846   -8.6652   22.6205 C   0  0  0  0  0  0  0  0  0  0  0  0
  -25.4297  -25.0968   23.1621 C   0  0  0  0  0  0  0  0  0  0  0  0
  -21.7882   -8.5937   21.0065 C   0  0  0  0  0  0  0  0  0  0  0  0
  -25.8552  -14.2556   20.7932 C   0  0  0  0  0  0  0  0  0  0  0  0
  -26.8283  -15.9243   22.4593 C   0  0  0  0  0  0  0  0  0  0  0  0
  -29.2685  -27.7556   16.1485 C   0  0  0  0  0  0  0  0  0  0  0  0
  -25.1837  -25.2602   20.7594 C   0  0  0  0  0  0  0  0  0  0  0  0
  -28.9751  -27.4178   17.4835 C   0  0  0  0  0  0  0  0  0  0  0  0
  -25.0471  -25.8344   22.0313 C   0  0  0  0  0  0  0  0  0  0  0  0
  -25.0200  -11.7197   19.9843 C   0  0  0  0  0  0  0  0  0  0  0  0
  -25.9293  -23.8014   23.0305 C   0  0  0  0  0  0  0  0  0  0  0  0
  -23.8447   -9.7448   20.4748 C   0  0  0  0  0  0  0  0  0  0  0  0
  -22.3003   -8.2577   22.2597 C   0  0  0  0  0  0  0  0  0  0  0  0
  -22.5604   -9.3372   20.1141 C   0  0  0  0  0  0  0  0  0  0  0  0
  -26.2871  -15.5654   21.2103 C   0  0  0  0  0  0  0  0  0  0  0  0
  -27.0732  -17.2716   22.3530 C   0  0  0  0  0  0  0  0  0  0  0  0
  -27.0867  -15.1125   23.6125 C   0  0  0  0  0  0  0  0  0  0  0  0
  -26.1383  -28.1175   19.7454 C   0  0  0  0  0  0  0  0  0  0  0  0
  -29.7654  -22.8367   24.3909 C   0  0  0  0  0  0  0  0  0  0  0  0
  -23.3024  -29.0763   20.9946 C   0  0  0  0  0  0  0  0  0  0  0  0
  -20.7672  -28.4994   23.2052 C   0  0  0  0  0  0  0  0  0  0  0  0
  -29.0030  -21.6563   19.4901 C   0  0  0  0  0  0  0  0  0  0  0  0
  -28.9109  -29.1036   15.5743 C   0  0  0  0  0  0  0  0  0  0  0  0
  -24.7588  -26.0182   19.5318 C   0  0  0  0  0  0  0  0  0  0  0  0
  -24.5074  -27.2281   22.2183 C   0  0  0  0  0  0  0  0  0  0  0  0
  -27.8582  -29.8523   16.3877 C   0  0  0  0  0  0  0  0  0  0  0  0
  -25.6692  -20.6040   18.8159 C   0  0  0  0  0  0  0  0  0  0  0  0
  -28.1973  -29.8029   17.8741 C   0  0  0  0  0  0  0  0  0  0  0  0
  -25.5797  -19.2270   19.4761 C   0  0  0  0  0  0  0  0  0  0  0  0
  -28.3748  -21.2722   27.4473 C   0  0  0  0  0  0  0  0  0  0  0  0
  -27.0467  -20.8478   18.2035 C   0  0  0  0  0  0  0  0  0  0  0  0
  -28.0895  -19.2745   19.7882 C   0  0  0  0  0  0  0  0  0  0  0  0
  -29.6894  -21.8923   27.8738 C   0  0  0  0  0  0  0  0  0  0  0  0
  -28.2104  -28.3586   18.3893 C   0  0  1  0  0  0  0  0  0  0  0  0
  -24.7553  -27.5302   19.7345 C   0  0  1  0  0  0  0  0  0  0  0  0
  -29.5369  -21.7955   25.4335 C   0  0  2  0  0  0  0  0  0  0  0  0
  -28.1477  -21.8639   26.0613 C   0  0  1  0  0  0  0  0  0  0  0  0
  -26.7366  -19.0048   20.4688 C   0  0  2  0  0  0  0  0  0  0  0  0
  -18.6065  -29.4785   24.0239 C   0  0  0  0  0  0  0  0  0  0  0  0
  -24.8555  -31.1525   22.6032 C   0  0  0  0  0  0  0  0  0  0  0  0
  -22.8384  -31.4309   24.0599 C   0  0  0  0  0  0  0  0  0  0  0  0
  -22.7058  -31.9812   21.6304 C   0  0  0  0  0  0  0  0  0  0  0  0
  -19.2278  -26.1264   22.3347 C   0  0  0  0  0  0  0  0  0  0  0  0
  -30.4914  -23.1687   22.0360 C   0  0  0  0  0  0  0  0  0  0  0  0
  -30.9609  -22.3248   20.8609 C   0  0  0  0  0  0  0  0  0  0  0  0
  -26.7927  -21.7758   23.9291 C   0  0  0  0  0  0  0  0  0  1  0  0
  -22.8391  -29.5604   22.3474 C   0  0  1  0  0  0  0  0  0  0  0  0
  -19.2587  -28.5233   23.0365 C   0  0  2  0  0  0  0  0  0  0  0  0
  -27.0970  -21.1056   25.2642 C   0  0  2  0  0  0  0  0  0  0  0  0
  -23.3217  -31.0057   22.6569 C   0  0  0  0  0  0  0  0  0  0  0  0
  -26.1933  -16.6011   20.3721 N   0  0  0  0  0  0  0  0  0  0  0  0
  -26.6788  -17.6241   21.0958 N   0  0  0  0  0  0  0  0  0  0  0  0
  -24.1113  -27.9311   20.9869 N   0  0  0  0  0  0  0  0  0  0  0  0
  -28.0991  -20.6219   19.1971 N   0  0  0  0  0  0  0  0  0  0  0  0
  -27.5851  -18.1774   23.2131 N   0  0  0  0  0  0  0  0  0  0  0  0
  -26.7758  -13.7472   23.5516 N   0  0  0  0  0  0  0  0  0  0  0  0
  -26.8590  -27.8815   18.5903 N   0  0  0  0  0  0  0  0  0  0  0  0
  -30.2094  -22.3348   23.1824 N   0  0  0  0  0  0  0  0  0  0  0  0
  -21.3894  -29.3980   22.3646 N   0  0  0  0  0  0  0  0  0  0  0  0
  -29.9652  -21.3610   20.4481 N   0  0  0  0  0  0  0  0  0  0  0  0
  -30.4711  -22.0161   26.5981 N   0  3  0  0  0  0  0  0  0  0  0  0
  -25.8424  -21.0640   26.0698 N   0  3  0  0  0  0  0  0  0  0  0  0
  -18.6915  -27.1625   23.2544 N   0  3  0  0  0  0  0  0  0  0  0  0
  -27.5634  -15.5870   24.6713 O   0  0  0  0  0  0  0  0  0  0  0  0
  -26.5226  -28.7400   20.7286 O   0  0  0  0  0  0  0  0  0  0  0  0
  -29.5544  -24.0142   24.6565 O   0  0  0  0  0  0  0  0  0  0  0  0
  -22.9534  -29.6875   19.9816 O   0  0  0  0  0  0  0  0  0  0  0  0
  -21.3363  -27.7604   24.0055 O   0  0  0  0  0  0  0  0  0  0  0  0
  -28.9528  -22.7630   18.9427 O   0  0  0  0  0  0  0  0  0  0  0  0
  -24.6129  -10.4823   19.5896 O   0  0  0  0  0  0  0  0  0  0  0  0
  -26.2949  -23.0971   24.1360 O   0  0  0  0  0  0  0  0  0  1  0  0
  -21.5594   -7.5424   23.1163 F   0  0  0  0  0  0  0  0  0  0  0  0
  -22.0635   -9.6560   18.9110 F   0  0  0  0  0  0  0  0  0  0  0  0
  1  2  1  0  0  0  0
  1  5  2  0  0  0  0
  2  6  2  0  0  0  0
  3  8  2  0  0  0  0
  3 15  1  0  0  0  0
  4  9  1  0  0  0  0
  4 15  2  0  0  0  0
  5 17  1  0  0  0  0
  6 19  1  0  0  0  0
  7 10  2  0  0  0  0
  7 18  1  0  0  0  0
  8 21  1  0  0  0  0
  9 21  2  0  0  0  0
 10 22  1  0  0  0  0
 11 12  2  0  0  0  0
 11 23  1  0  0  0  0
 12 24  1  0  0  0  0
 13 20  1  0  0  0  0
 13 22  2  0  0  0  0
 14 24  2  0  0  0  0
 14 25  1  0  0  0  0
 15 26  1  0  0  0  0
 16 26  1  0  0  0  0
 16 27  2  0  0  0  0
 16 28  1  0  0  0  0
 17 19  2  0  0  0  0
 17 34  1  0  0  0  0
 18 20  2  0  0  0  0
 18 35  1  0  0  0  0
 19 45  1  0  0  0  0
 20 36  1  0  0  0  0
 21 81  1  0  0  0  0
 22 82  1  0  0  0  0
 23 25  2  0  0  0  0
 23 81  1  0  0  0  0
 24 83  1  0  0  0  0
 25 84  1  0  0  0  0
 26 62  2  0  0  0  0
 27 63  1  0  0  0  0
 27 66  1  0  0  0  0
 28 67  1  0  0  0  0
 28 75  2  0  0  0  0
 29 46  1  0  0  0  0
 29 68  1  0  0  0  0
 29 76  2  0  0  0  0
 30 47  1  0  0  0  0
 30 69  1  0  0  0  0
 30 77  2  0  0  0  0
 31 58  1  0  0  0  0
 31 64  1  0  0  0  0
 31 78  2  0  0  0  0
 32 59  1  0  0  0  0
 32 70  1  0  0  0  0
 32 79  2  0  0  0  0
 33 65  1  0  0  0  0
 33 71  1  0  0  0  0
 33 80  2  0  0  0  0
 34 37  1  0  0  0  0
 35 46  1  0  0  0  0
 36 64  1  0  0  0  0
 37 39  1  0  0  0  0
 38 40  1  0  0  0  0
 38 42  1  0  0  0  0
 39 45  1  0  0  0  0
 40 49  1  0  0  0  0
 41 44  1  0  0  0  0
 41 48  1  0  0  0  0
 42 65  1  0  0  0  0
 43 49  1  0  0  0  0
 43 65  1  0  0  0  0
 44 72  1  0  0  0  0
 45 68  1  0  0  0  0
 46 64  1  0  0  0  0
 47 48  1  0  0  0  0
 47 72  1  0  0  0  0
 48 60  1  0  0  0  0
 49 63  1  0  0  0  0
 50 59  1  0  0  0  0
 51 61  1  0  0  0  0
 52 61  1  0  0  0  0
 53 61  1  0  0  0  0
 54 74  1  0  0  0  0
 55 56  1  0  0  0  0
 55 69  1  0  0  0  0
 56 71  1  0  0  0  0
 57 60  1  0  0  0  0
 57 82  1  0  0  0  0
 58 61  1  0  0  0  0
 58 70  1  0  0  0  0
 59 74  1  0  0  0  0
 60 73  1  0  0  0  0
 62 63  1  0  0  0  0
M  CHG  3  72   1  73   1  74   1
M  ISO  4  33 100  57 101  71 100  82 101
M  END
> <Batch ID>
0132

> <Smiles>
CNC(C)C(=O)NC(C(=O)N1Cc2cc([101O:1][101CH2:1]C(N)C3CCNC3C(=O)NCC[100NH:0][100C:0](=O)N3CCCC(n4nc(-c5ccc(Oc6ccc(F)cc6F)cc5)c(C(N)=O)c4N)C3)ccc2CC1C(=O)NC1CCCc2ccccc21)C(C)(C)C

> <Shape>
0.233

> <Color>
0.067

> <Negative vol penalty>
0.000

$$$$

  -OEChem-04052320523D

 83 91  0     1  0  0  0  0  0999 V2000
  -18.3532  -24.1241   26.7706 C   0  0  0  0  0  0  0  0  0  0  0  0
  -19.6046  -23.8403   26.2331 C   0  0  0  0  0  0  0  0  0  0  0  0
  -23.1653   -9.8495   19.9158 C   0  0  0  0  0  0  0  0  0  0  0  0
  -23.8383   -9.8997   22.2356 C   0  0  0  0  0  0  0  0  0  0  0  0
  -17.3328  -23.1769   26.6964 C   0  0  0  0  0  0  0  0  0  0  0  0
  -19.8366  -22.6086   25.6219 C   0  0  0  0  0  0  0  0  0  0  0  0
  -23.4434  -21.5152   20.7948 C   0  0  0  0  0  0  0  0  0  0  0  0
  -22.4389   -8.6824   20.1517 C   0  0  0  0  0  0  0  0  0  0  0  0
  -23.1119   -8.7325   22.4716 C   0  0  0  0  0  0  0  0  0  0  0  0
  -24.7484  -21.0360   20.6884 C   0  0  0  0  0  0  0  0  0  0  0  0
  -21.1407   -5.9655   23.7662 C   0  0  0  0  0  0  0  0  0  0  0  0
  -20.3422   -5.9176   24.9089 C   0  0  0  0  0  0  0  0  0  0  0  0
  -23.8947  -18.8093   20.3250 C   0  0  0  0  0  0  0  0  0  0  0  0
  -28.9032  -18.7970   19.1243 C   0  0  0  0  0  0  0  0  0  0  0  0
  -29.5549  -19.4673   21.3520 C   0  0  0  0  0  0  0  0  0  0  0  0
  -19.0824   -7.8173   24.1083 C   0  0  0  0  0  0  0  0  0  0  0  0
  -23.8651  -10.4581   20.9577 C   0  0  0  0  0  0  0  0  0  0  0  0
  -24.1540  -12.9890   20.8201 C   0  0  0  0  0  0  0  0  0  0  0  0
  -17.5496  -21.9367   26.0755 C   0  0  0  0  0  0  0  0  0  0  0  0
  -22.3527  -20.6417   20.6778 C   0  0  0  0  0  0  0  0  0  0  0  0
  -18.8185  -21.6434   25.5405 C   0  0  0  0  0  0  0  0  0  0  0  0
  -22.5768  -19.2803   20.4278 C   0  0  0  0  0  0  0  0  0  0  0  0
  -28.6181  -19.4588   20.3186 C   0  0  0  0  0  0  0  0  0  0  0  0
  -30.1251  -18.1436   18.9634 C   0  0  0  0  0  0  0  0  0  0  0  0
  -30.7768  -18.8140   21.1911 C   0  0  0  0  0  0  0  0  0  0  0  0
  -31.0619  -18.1522   19.9968 C   0  0  0  0  0  0  0  0  0  0  0  0
  -22.4121   -8.1239   21.4296 C   0  0  0  0  0  0  0  0  0  0  0  0
  -24.9742  -19.6824   20.4563 C   0  0  0  0  0  0  0  0  0  0  0  0
  -20.9101   -6.9394   22.7946 C   0  0  0  0  0  0  0  0  0  0  0  0
  -19.3130   -6.8434   25.0799 C   0  0  0  0  0  0  0  0  0  0  0  0
  -19.8809   -7.8653   22.9656 C   0  0  0  0  0  0  0  0  0  0  0  0
  -24.6162  -11.6635   20.7145 C   0  0  0  0  0  0  0  0  0  0  0  0
  -25.2417  -13.7594   20.4888 C   0  0  0  0  0  0  0  0  0  0  0  0
  -22.8573  -13.4800   21.1852 C   0  0  0  0  0  0  0  0  0  0  0  0
  -19.9871  -19.7373   22.5987 C   0  0  0  0  0  0  0  0  0  0  0  0
  -18.9411  -18.1966   19.9427 C   0  0  0  0  0  0  0  0  0  0  0  0
  -19.6892  -16.7984   16.9207 C   0  0  0  0  0  0  0  0  0  0  0  0
  -30.5632  -14.9373   20.9798 C   0  0  0  0  0  0  0  0  0  0  0  0
  -16.4299  -20.9264   26.0613 C   0  0  0  0  0  0  0  0  0  0  0  0
  -20.9506  -21.1787   20.7685 C   0  0  0  0  0  0  0  0  0  0  0  0
  -21.4398  -18.3045   20.2743 C   0  0  0  0  0  0  0  0  0  0  0  0
  -16.6471  -19.7902   25.0652 C   0  0  0  0  0  0  0  0  0  0  0  0
  -29.7003  -12.4717   18.4751 C   0  0  0  0  0  0  0  0  0  0  0  0
  -18.0674  -19.2454   25.1784 C   0  0  0  0  0  0  0  0  0  0  0  0
  -28.2519  -12.1519   18.8495 C   0  0  0  0  0  0  0  0  0  0  0  0
  -30.5548  -12.7010   19.7183 C   0  0  0  0  0  0  0  0  0  0  0  0
  -28.5902  -13.4378   21.0110 C   0  0  0  0  0  0  0  0  0  0  0  0
  -19.1017  -20.3281   24.8477 C   0  0  1  0  0  0  0  0  0  0  0  0
  -19.9258  -20.1133   21.1453 C   0  0  1  0  0  0  0  0  0  0  0  0
  -27.6696  -13.2176   19.7968 C   0  0  2  0  0  0  0  0  0  0  0  0
  -30.4062  -17.4432   17.6742 C   0  0  0  0  0  0  0  0  0  0  0  0
  -31.7631  -18.8380   22.3130 C   0  0  0  0  0  0  0  0  0  0  0  0
  -18.6317  -15.5829   14.9967 C   0  0  0  0  0  0  0  0  0  0  0  0
  -34.0939  -15.9877   20.9642 C   0  0  0  0  0  0  0  0  0  0  0  0
  -18.8299  -15.6482   21.6170 C   0  0  0  0  0  0  0  0  0  0  0  0
  -18.7038  -14.3377   19.4874 C   0  0  0  0  0  0  0  0  0  0  0  0
  -16.8970  -15.9592   20.0608 C   0  0  0  0  0  0  0  0  0  0  0  0
  -20.4371  -18.9320   15.0110 C   0  0  0  0  0  0  0  0  0  0  0  0
  -32.3721  -17.4520   19.8238 C   0  0  0  0  0  0  0  0  0  0  0  0
  -27.3035  -20.1610   20.4919 C   0  0  0  0  0  0  0  0  0  1  0  0
  -19.1606  -16.8281   19.3444 C   0  0  1  0  0  0  0  0  0  0  0  0
  -19.0364  -16.9375   15.5573 C   0  0  2  0  0  0  0  0  0  0  0  0
  -32.6117  -16.3323   20.8576 C   0  0  1  0  0  0  0  0  0  0  0  0
  -18.4195  -15.7111   20.1322 C   0  0  0  0  0  0  0  0  0  0  0  0
  -25.8977  -11.5922   20.3448 N   0  0  0  0  0  0  0  0  0  0  0  0
  -26.2500  -12.8826   20.2151 N   0  0  0  0  0  0  0  0  0  0  0  0
  -20.0874  -18.8770   20.3773 N   0  0  0  0  0  0  0  0  0  0  0  0
  -29.9554  -13.7397   20.5680 N   0  0  0  0  0  0  0  0  0  0  0  0
  -25.4245  -15.0944   20.4076 N   0  0  0  0  0  0  0  0  0  0  0  0
  -21.8543  -12.5516   21.4955 N   0  0  0  0  0  0  0  0  0  0  0  0
  -19.1933  -20.5191   23.4160 N   0  0  0  0  0  0  0  0  0  0  0  0
  -18.7718  -16.9286   17.9419 N   0  0  0  0  0  0  0  0  0  0  0  0
  -31.8590  -15.1439   20.5226 N   0  0  0  0  0  0  0  0  0  0  0  0
  -19.9758  -17.5820   14.5966 N   0  3  0  0  0  0  0  0  0  0  0  0
  -22.5913  -14.7054   21.2189 O   0  0  0  0  0  0  0  0  0  0  0  0
  -20.7006  -18.8058   22.9523 O   0  0  0  0  0  0  0  0  0  0  0  0
  -17.7955  -18.6483   20.0151 O   0  0  0  0  0  0  0  0  0  0  0  0
  -20.8919  -16.5911   17.0654 O   0  0  0  0  0  0  0  0  0  0  0  0
  -29.9913  -15.7645   21.6980 O   0  0  0  0  0  0  0  0  0  0  0  0
  -21.7032   -6.9852   21.6603 O   0  0  0  0  0  0  0  0  0  0  0  0
  -26.2469  -19.2120   20.3526 O   0  0  0  0  0  0  0  0  0  1  0  0
  -18.5454   -6.7963   26.1766 F   0  0  0  0  0  0  0  0  0  0  0  0
  -19.6538   -8.8024   22.0350 F   0  0  0  0  0  0  0  0  0  0  0  0
  1  2  1  0  0  0  0
  1  5  2  0  0  0  0
  2  6  2  0  0  0  0
  3  8  2  0  0  0  0
  3 17  1  0  0  0  0
  4  9  1  0  0  0  0
  4 17  2  0  0  0  0
  5 19  1  0  0  0  0
  6 21  1  0  0  0  0
  7 10  2  0  0  0  0
  7 20  1  0  0  0  0
  8 27  1  0  0  0  0
  9 27  2  0  0  0  0
 10 28  1  0  0  0  0
 11 12  2  0  0  0  0
 11 29  1  0  0  0  0
 12 30  1  0  0  0  0
 13 22  1  0  0  0  0
 13 28  2  0  0  0  0
 14 23  1  0  0  0  0
 14 24  2  0  0  0  0
 15 23  2  0  0  0  0
 15 25  1  0  0  0  0
 16 30  2  0  0  0  0
 16 31  1  0  0  0  0
 17 32  1  0  0  0  0
 18 32  1  0  0  0  0
 18 33  2  0  0  0  0
 18 34  1  0  0  0  0
 19 21  2  0  0  0  0
 19 39  1  0  0  0  0
 20 22  2  0  0  0  0
 20 40  1  0  0  0  0
 21 48  1  0  0  0  0
 22 41  1  0  0  0  0
 23 60  1  0  0  0  0
 24 26  1  0  0  0  0
 24 51  1  0  0  0  0
 25 26  2  0  0  0  0
 25 52  1  0  0  0  0
 26 59  1  0  0  0  0
 27 80  1  0  0  0  0
 28 81  1  0  0  0  0
 29 31  2  0  0  0  0
 29 80  1  0  0  0  0
 30 82  1  0  0  0  0
 31 83  1  0  0  0  0
 32 65  2  0  0  0  0
 33 66  1  0  0  0  0
 33 69  1  0  0  0  0
 34 70  1  0  0  0  0
 34 75  2  0  0  0  0
 35 49  1  0  0  0  0
 35 71  1  0  0  0  0
 35 76  2  0  0  0  0
 36 61  1  0  0  0  0
 36 67  1  0  0  0  0
 36 77  2  0  0  0  0
 37 62  1  0  0  0  0
 37 72  1  0  0  0  0
 37 78  2  0  0  0  0
 38 68  1  0  0  0  0
 38 73  1  0  0  0  0
 38 79  2  0  0  0  0
 39 42  1  0  0  0  0
 40 49  1  0  0  0  0
 41 67  1  0  0  0  0
 42 44  1  0  0  0  0
 43 45  1  0  0  0  0
 43 46  1  0  0  0  0
 44 48  1  0  0  0  0
 45 50  1  0  0  0  0
 46 68  1  0  0  0  0
 47 50  1  0  0  0  0
 47 68  1  0  0  0  0
 48 71  1  0  0  0  0
 49 67  1  0  0  0  0
 50 66  1  0  0  0  0
 53 62  1  0  0  0  0
 54 63  1  0  0  0  0
 55 64  1  0  0  0  0
 56 64  1  0  0  0  0
 57 64  1  0  0  0  0
 58 74  1  0  0  0  0
 59 63  1  0  0  0  0
 60 81  1  0  0  0  0
 61 64  1  0  0  0  0
 61 72  1  0  0  0  0
 62 74  1  0  0  0  0
 63 73  1  0  0  0  0
 65 66  1  0  0  0  0
M  CHG  1  74   1
M  ISO  4  38 100  60 101  73 100  81 101
M  END
> <Batch ID>
0132

> <Smiles>
CNC(C)C(=O)NC(C(=O)N1Cc2cc([101O:1][101CH2:1]c3cc(C)c(CC(C)[100NH:0][100C:0](=O)N4CCCC(n5nc(-c6ccc(Oc7ccc(F)cc7F)cc6)c(C(N)=O)c5N)C4)c(C)c3)ccc2CC1C(=O)NC1CCCc2ccccc21)C(C)(C)C

> <Shape>
0.191

> <Color>
0.178

> <Negative vol penalty>
0.000

$$$$

  -OEChem-04052320523D

 88 96  0     1  0  0  0  0  0999 V2000
  -25.9920  -17.0893   23.9479 C   0  0  0  0  0  0  0  0  0  0  0  0
  -26.7331  -17.9331   23.1269 C   0  0  0  0  0  0  0  0  0  0  0  0
  -23.2313   -9.8187   19.9757 C   0  0  0  0  0  0  0  0  0  0  0  0
  -23.8927   -9.9698   22.2945 C   0  0  0  0  0  0  0  0  0  0  0  0
  -24.6286  -17.3168   24.1305 C   0  0  0  0  0  0  0  0  0  0  0  0
  -26.1109  -19.0045   22.4870 C   0  0  0  0  0  0  0  0  0  0  0  0
  -28.8065  -23.2807   22.7922 C   0  0  0  0  0  0  0  0  0  0  0  0
  -22.5365   -8.6409   20.2506 C   0  0  0  0  0  0  0  0  0  0  0  0
  -23.1977   -8.7920   22.5695 C   0  0  0  0  0  0  0  0  0  0  0  0
  -29.8962  -23.4092   21.9320 C   0  0  0  0  0  0  0  0  0  0  0  0
  -19.9912   -7.8552   23.0806 C   0  0  0  0  0  0  0  0  0  0  0  0
  -19.1886   -7.8293   24.2210 C   0  0  0  0  0  0  0  0  0  0  0  0
  -28.5676  -24.7877   20.4645 C   0  0  0  0  0  0  0  0  0  0  0  0
  -20.4936   -5.9948   25.0977 C   0  0  0  0  0  0  0  0  0  0  0  0
  -23.9095  -10.4831   20.9977 C   0  0  0  0  0  0  0  0  0  0  0  0
  -24.1288  -13.0145   20.7711 C   0  0  0  0  0  0  0  0  0  0  0  0
  -23.9914  -18.3973   23.5003 C   0  0  0  0  0  0  0  0  0  0  0  0
  -27.5838  -23.8968   22.4890 C   0  0  0  0  0  0  0  0  0  0  0  0
  -24.7374  -19.2460   22.6603 C   0  0  0  0  0  0  0  0  0  0  0  0
  -27.4647  -24.6676   21.3237 C   0  0  0  0  0  0  0  0  0  0  0  0
  -22.5196   -8.1276   21.5475 C   0  0  0  0  0  0  0  0  0  0  0  0
  -29.7760  -24.1604   20.7666 C   0  0  0  0  0  0  0  0  0  0  0  0
  -21.0450   -6.9509   22.9486 C   0  0  0  0  0  0  0  0  0  0  0  0
  -19.4398   -6.8991   25.2296 C   0  0  0  0  0  0  0  0  0  0  0  0
  -21.2962   -6.0207   23.9572 C   0  0  0  0  0  0  0  0  0  0  0  0
  -24.6280  -11.6995   20.7142 C   0  0  0  0  0  0  0  0  0  0  0  0
  -25.1963  -13.8026   20.4162 C   0  0  0  0  0  0  0  0  0  0  0  0
  -22.8175  -13.4820   21.1142 C   0  0  0  0  0  0  0  0  0  0  0  0
  -24.6323  -22.8642   21.9182 C   0  0  0  0  0  0  0  0  0  0  0  0
  -23.9418  -26.0336   21.9169 C   0  0  0  0  0  0  0  0  0  0  0  0
  -25.0395  -29.2378   21.4985 C   0  0  0  0  0  0  0  0  0  0  0  0
  -30.4810  -15.1447   20.8829 C   0  0  0  0  0  0  0  0  0  0  0  0
  -22.5058  -18.5752   23.6904 C   0  0  0  0  0  0  0  0  0  0  0  0
  -26.4258  -23.7706   23.4406 C   0  0  0  0  0  0  0  0  0  0  0  0
  -26.1799  -25.3659   20.9628 C   0  0  0  0  0  0  0  0  0  0  0  0
  -21.9993  -19.9536   23.2739 C   0  0  0  0  0  0  0  0  0  0  0  0
  -29.6974  -12.5688   18.4646 C   0  0  0  0  0  0  0  0  0  0  0  0
  -22.5734  -20.3456   21.9161 C   0  0  0  0  0  0  0  0  0  0  0  0
  -28.2569  -12.2223   18.8452 C   0  0  0  0  0  0  0  0  0  0  0  0
  -30.5399  -12.8657   19.7017 C   0  0  0  0  0  0  0  0  0  0  0  0
  -28.5500  -13.5930   20.9607 C   0  0  0  0  0  0  0  0  0  0  0  0
  -35.2008  -20.8312   19.6760 C   0  0  0  0  0  0  0  0  0  0  0  0
  -24.1035  -20.4334   21.9687 C   0  0  1  0  0  0  0  0  0  0  0  0
  -25.0756  -24.0165   22.7745 C   0  0  1  0  0  0  0  0  0  0  0  0
  -33.7243  -21.1772   19.5357 C   0  0  1  0  0  0  0  0  0  0  0  0
  -33.7530  -22.3635   18.5664 C   0  0  2  0  0  0  0  0  0  0  0  0
  -27.6412  -13.3044   19.7521 C   0  0  2  0  0  0  0  0  0  0  0  0
  -34.9173  -23.1949   19.1123 C   0  0  2  0  0  0  0  0  0  0  0  0
  -24.2353  -31.6147   21.5237 C   0  0  0  0  0  0  0  0  0  0  0  0
  -37.3484  -25.8752   17.6183 C   0  0  0  0  0  0  0  0  0  0  0  0
  -36.1424  -25.8431   19.8110 C   0  0  0  0  0  0  0  0  0  0  0  0
  -22.6544  -25.6245   19.1810 C   0  0  0  0  0  0  0  0  0  0  0  0
  -22.7339  -28.1049   18.8501 C   0  0  0  0  0  0  0  0  0  0  0  0
  -21.3866  -27.1397   20.7144 C   0  0  0  0  0  0  0  0  0  0  0  0
  -26.8559  -29.9508   23.7237 C   0  0  0  0  0  0  0  0  0  0  0  0
  -32.0762  -22.3505   16.1791 C   0  0  0  0  0  0  0  0  0  0  0  0
  -32.9002  -19.9952   19.0488 C   0  0  0  0  0  0  0  0  0  0  0  0
  -35.5834  -24.0962   18.0894 C   0  0  0  0  0  0  0  0  0  0  0  0
  -32.4906  -16.5909   20.7180 C   0  0  0  0  0  0  0  0  0  0  0  0
  -32.2580  -17.6626   19.6694 C   0  0  0  0  0  0  0  0  0  0  0  0
  -31.7632  -23.2015   19.8791 C   0  0  0  0  0  0  0  0  0  1  0  0
  -23.9100  -27.1204   20.8697 C   0  0  1  0  0  0  0  0  0  0  0  0
  -24.8467  -30.4866   22.3399 C   0  0  2  0  0  0  0  0  0  0  0  0
  -32.4485  -23.1423   18.5186 C   0  0  2  0  0  0  0  0  0  0  0  0
  -36.6998  -24.9809   18.6759 C   0  0  0  0  0  0  0  0  0  0  0  0
  -22.6950  -26.9827   19.9093 C   0  0  0  0  0  0  0  0  0  0  0  0
  -25.9125  -11.6507   20.3516 N   0  0  0  0  0  0  0  0  0  0  0  0
  -26.2296  -12.9450   20.1773 N   0  0  0  0  0  0  0  0  0  0  0  0
  -25.0744  -25.2071   21.9220 N   0  0  0  0  0  0  0  0  0  0  0  0
  -29.9083  -13.9168   20.5119 N   0  0  0  0  0  0  0  0  0  0  0  0
  -25.3425  -15.1385   20.2882 N   0  0  0  0  0  0  0  0  0  0  0  0
  -21.8392  -12.5376   21.4539 N   0  0  0  0  0  0  0  0  0  0  0  0
  -24.5175  -21.6679   22.6003 N   0  0  0  0  0  0  0  0  0  0  0  0
  -23.9592  -28.3862   21.5934 N   0  0  0  0  0  0  0  0  0  0  0  0
  -31.7725  -15.3709   20.4230 N   0  0  0  0  0  0  0  0  0  0  0  0
  -35.9019  -22.1576   19.5936 N   0  3  0  0  0  0  0  0  0  0  0  0
  -26.1544  -30.9534   22.8812 N   0  3  0  0  0  0  0  0  0  0  0  0
  -31.5344  -22.4600   17.5574 N   0  3  0  0  0  0  0  0  0  0  0  0
  -33.0621  -18.8733   19.9988 N   0  3  0  0  0  0  0  0  0  0  0  0
  -22.5176  -14.6999   21.1033 O   0  0  0  0  0  0  0  0  0  0  0  0
  -24.4095  -23.0471   20.7272 O   0  0  0  0  0  0  0  0  0  0  0  0
  -22.9998  -25.9266   22.7061 O   0  0  0  0  0  0  0  0  0  0  0  0
  -26.0461  -29.0394   20.8217 O   0  0  0  0  0  0  0  0  0  0  0  0
  -29.8833  -15.9807   21.5692 O   0  0  0  0  0  0  0  0  0  0  0  0
  -21.8415   -6.9784   21.8161 O   0  0  0  0  0  0  0  0  0  0  0  0
  -30.8378  -24.2869   19.9249 O   0  0  0  0  0  0  0  0  0  1  0  0
  -18.6699   -6.8753   26.3255 F   0  0  0  0  0  0  0  0  0  0  0  0
  -22.3079   -5.1502   23.8366 F   0  0  0  0  0  0  0  0  0  0  0  0
  1  2  1  0  0  0  0
  1  5  2  0  0  0  0
  2  6  2  0  0  0  0
  3  8  2  0  0  0  0
  3 15  1  0  0  0  0
  4  9  1  0  0  0  0
  4 15  2  0  0  0  0
  5 17  1  0  0  0  0
  6 19  1  0  0  0  0
  7 10  2  0  0  0  0
  7 18  1  0  0  0  0
  8 21  1  0  0  0  0
  9 21  2  0  0  0  0
 10 22  1  0  0  0  0
 11 12  2  0  0  0  0
 11 23  1  0  0  0  0
 12 24  1  0  0  0  0
 13 20  1  0  0  0  0
 13 22  2  0  0  0  0
 14 24  2  0  0  0  0
 14 25  1  0  0  0  0
 15 26  1  0  0  0  0
 16 26  1  0  0  0  0
 16 27  2  0  0  0  0
 16 28  1  0  0  0  0
 17 19  2  0  0  0  0
 17 33  1  0  0  0  0
 18 20  2  0  0  0  0
 18 34  1  0  0  0  0
 19 43  1  0  0  0  0
 20 35  1  0  0  0  0
 21 85  1  0  0  0  0
 22 86  1  0  0  0  0
 23 25  2  0  0  0  0
 23 85  1  0  0  0  0
 24 87  1  0  0  0  0
 25 88  1  0  0  0  0
 26 67  2  0  0  0  0
 27 68  1  0  0  0  0
 27 71  1  0  0  0  0
 28 72  1  0  0  0  0
 28 80  2  0  0  0  0
 29 44  1  0  0  0  0
 29 73  1  0  0  0  0
 29 81  2  0  0  0  0
 30 62  1  0  0  0  0
 30 69  1  0  0  0  0
 30 82  2  0  0  0  0
 31 63  1  0  0  0  0
 31 74  1  0  0  0  0
 31 83  2  0  0  0  0
 32 70  1  0  0  0  0
 32 75  1  0  0  0  0
 32 84  2  0  0  0  0
 33 36  1  0  0  0  0
 34 44  1  0  0  0  0
 35 69  1  0  0  0  0
 36 38  1  0  0  0  0
 37 39  1  0  0  0  0
 37 40  1  0  0  0  0
 38 43  1  0  0  0  0
 39 47  1  0  0  0  0
 40 70  1  0  0  0  0
 41 47  1  0  0  0  0
 41 70  1  0  0  0  0
 42 45  1  0  0  0  0
 42 76  1  0  0  0  0
 43 73  1  0  0  0  0
 44 69  1  0  0  0  0
 45 46  1  0  0  0  0
 45 57  1  0  0  0  0
 46 48  1  0  0  0  0
 46 64  1  0  0  0  0
 47 68  1  0  0  0  0
 48 58  1  0  0  0  0
 48 76  1  0  0  0  0
 49 63  1  0  0  0  0
 50 65  1  0  0  0  0
 51 65  1  0  0  0  0
 52 66  1  0  0  0  0
 53 66  1  0  0  0  0
 54 66  1  0  0  0  0
 55 77  1  0  0  0  0
 56 78  1  0  0  0  0
 57 79  1  0  0  0  0
 58 65  1  0  0  0  0
 59 60  1  0  0  0  0
 59 75  1  0  0  0  0
 60 79  1  0  0  0  0
 61 64  1  0  0  0  0
 61 86  1  0  0  0  0
 62 66  1  0  0  0  0
 62 74  1  0  0  0  0
 63 77  1  0  0  0  0
 64 78  1  0  0  0  0
 67 68  1  0  0  0  0
M  CHG  4  76   1  77   1  78   1  79   1
M  ISO  4  32 100  61 101  75 100  86 101
M  END
> <Batch ID>
0132

> <Smiles>
CNC(C)C(=O)NC(C(=O)N1Cc2cc([101O:1][101CH2:1]C(NC)C3C(CNCC[100NH:0][100C:0](=O)N4CCCC(n5nc(-c6ccc(Oc7ccc(F)cc7F)cc6)c(C(N)=O)c5N)C4)CNC3CC(C)C)ccc2CC1C(=O)NC1CCCc2ccccc21)C(C)(C)C

> <Shape>
0.228

> <Color>
0.158

> <Negative vol penalty>
0.000

$$$$

  -OEChem-04052320523D

 87 96  0     1  0  0  0  0  0999 V2000
  -31.6254  -31.6532   16.7556 C   0  0  0  0  0  0  0  0  0  0  0  0
  -31.3312  -30.5713   17.5792 C   0  0  0  0  0  0  0  0  0  0  0  0
  -22.7237  -12.6510   20.2702 C   0  0  0  0  0  0  0  0  0  0  0  0
  -23.4497  -13.0456   22.5405 C   0  0  0  0  0  0  0  0  0  0  0  0
  -30.9728  -32.8705   16.9459 C   0  0  0  0  0  0  0  0  0  0  0  0
  -30.3849  -30.7064   18.5944 C   0  0  0  0  0  0  0  0  0  0  0  0
  -27.1872  -26.7852   18.8037 C   0  0  0  0  0  0  0  0  0  0  0  0
  -22.2500  -11.3923   20.6404 C   0  0  0  0  0  0  0  0  0  0  0  0
  -22.9760  -11.7869   22.9107 C   0  0  0  0  0  0  0  0  0  0  0  0
  -27.6524  -25.6155   19.4029 C   0  0  0  0  0  0  0  0  0  0  0  0
  -19.5404  -10.1121   22.2062 C   0  0  0  0  0  0  0  0  0  0  0  0
  -18.2785   -9.7337   21.7477 C   0  0  0  0  0  0  0  0  0  0  0  0
  -26.4866  -26.1987   21.4327 C   0  0  0  0  0  0  0  0  0  0  0  0
  -27.9998  -21.2535   21.8325 C   0  0  0  0  0  0  0  0  0  0  0  0
  -19.2596   -7.8426   20.6084 C   0  0  0  0  0  0  0  0  0  0  0  0
  -30.6886  -20.8422   22.2596 C   0  0  0  0  0  0  0  0  0  0  0  0
  -23.3236  -13.4776   21.2202 C   0  0  0  0  0  0  0  0  0  0  0  0
  -23.1026  -15.9926   20.8547 C   0  0  0  0  0  0  0  0  0  0  0  0
  -30.0109  -33.0177   17.9578 C   0  0  0  0  0  0  0  0  0  0  0  0
  -26.3757  -27.6773   19.5192 C   0  0  0  0  0  0  0  0  0  0  0  0
  -29.7197  -31.9271   18.7993 C   0  0  0  0  0  0  0  0  0  0  0  0
  -26.0102  -27.3778   20.8394 C   0  0  0  0  0  0  0  0  0  0  0  0
  -29.7775  -19.9410   22.7918 C   0  0  0  0  0  0  0  0  0  0  0  0
  -28.4196  -20.1529   22.5735 C   0  0  0  0  0  0  0  0  0  0  0  0
  -22.3761  -10.9603   21.9606 C   0  0  0  0  0  0  0  0  0  0  0  0
  -27.3045  -25.3235   20.7185 C   0  0  0  0  0  0  0  0  0  0  0  0
  -20.6619   -9.3558   21.8657 C   0  0  0  0  0  0  0  0  0  0  0  0
  -18.1381   -8.5990   20.9488 C   0  0  0  0  0  0  0  0  0  0  0  0
  -20.5215   -8.2210   21.0668 C   0  0  0  0  0  0  0  0  0  0  0  0
  -23.8136  -14.7776   20.8383 C   0  0  0  0  0  0  0  0  0  0  0  0
  -28.9559  -22.1215   21.3246 C   0  0  0  0  0  0  0  0  0  0  0  0
  -24.0055  -16.9248   20.4048 C   0  0  0  0  0  0  0  0  0  0  0  0
  -21.7473  -16.2550   21.2420 C   0  0  0  0  0  0  0  0  0  0  0  0
  -26.6474  -30.7049   20.4486 C   0  0  0  0  0  0  0  0  0  0  0  0
  -23.5813  -30.2754   21.4165 C   0  0  0  0  0  0  0  0  0  0  0  0
  -21.1255  -28.1136   22.3873 C   0  0  0  0  0  0  0  0  0  0  0  0
  -29.9889  -17.1456   20.4219 C   0  0  0  0  0  0  0  0  0  0  0  0
  -29.3660  -34.3667   18.1555 C   0  0  0  0  0  0  0  0  0  0  0  0
  -25.8601  -28.9217   18.8498 C   0  0  0  0  0  0  0  0  0  0  0  0
  -25.1249  -28.2927   21.6441 C   0  0  0  0  0  0  0  0  0  0  0  0
  -28.1044  -34.3187   19.0136 C   0  0  0  0  0  0  0  0  0  0  0  0
  -27.8468  -17.3613   17.5862 C   0  0  0  0  0  0  0  0  0  0  0  0
  -28.3404  -33.4764   20.2632 C   0  0  0  0  0  0  0  0  0  0  0  0
  -26.5061  -16.8332   18.0996 C   0  0  0  0  0  0  0  0  0  0  0  0
  -26.1844  -20.7772   24.5477 C   0  0  0  0  0  0  0  0  0  0  0  0
  -25.3030  -18.4805   23.9741 C   0  0  0  0  0  0  0  0  0  0  0  0
  -29.0235  -16.6096   18.2044 C   0  0  0  0  0  0  0  0  0  0  0  0
  -27.6836  -16.0371   20.1920 C   0  0  0  0  0  0  0  0  0  0  0  0
  -24.7968  -21.1779   25.0282 C   0  0  0  0  0  0  0  0  0  0  0  0
  -23.9228  -18.9006   24.4596 C   0  0  0  0  0  0  0  0  0  0  0  0
  -28.6812  -32.0272   19.8955 C   0  0  1  0  0  0  0  0  0  0  0  0
  -25.4614  -30.0115   19.8401 C   0  0  1  0  0  0  0  0  0  0  0  0
  -26.4684  -16.8015   19.6393 C   0  0  2  0  0  0  0  0  0  0  0  0
  -26.1093  -19.6851   23.4739 C   0  0  0  0  0  0  0  0  0  0  0  0
  -18.7361  -28.0618   23.1524 C   0  0  0  0  0  0  0  0  0  0  0  0
  -24.4446  -31.2625   24.1715 C   0  0  0  0  0  0  0  0  0  0  0  0
  -22.3258  -30.3061   25.1012 C   0  0  0  0  0  0  0  0  0  0  0  0
  -22.2287  -32.1282   23.4003 C   0  0  0  0  0  0  0  0  0  0  0  0
  -20.2987  -26.4648   20.0728 C   0  0  0  0  0  0  0  0  0  0  0  0
  -30.2747  -18.7760   23.5789 C   0  0  0  0  0  0  0  0  0  0  0  0
  -28.5858  -23.3302   20.5162 C   0  0  0  0  0  0  0  0  0  1  0  0
  -30.8154  -17.6337   22.7105 C   0  0  0  0  0  0  0  0  0  0  0  0
  -22.9177  -29.8025   22.6873 C   0  0  1  0  0  0  0  0  0  0  0  0
  -19.6753  -27.9786   21.9592 C   0  0  2  0  0  0  0  0  0  0  0  0
  -22.9975  -30.8584   23.8258 C   0  0  0  0  0  0  0  0  0  0  0  0
  -25.0710  -14.9217   20.4116 N   0  0  0  0  0  0  0  0  0  0  0  0
  -25.1573  -16.2382   20.1557 N   0  0  0  0  0  0  0  0  0  0  0  0
  -30.2570  -21.8937   21.5498 N   0  3  0  0  0  0  0  0  0  0  0  0
  -24.6513  -29.5001   20.9475 N   0  0  0  0  0  0  0  0  0  0  0  0
  -28.9289  -16.6180   19.6663 N   0  0  0  0  0  0  0  0  0  0  0  0
  -23.9185  -18.2566   20.2019 N   0  0  0  0  0  0  0  0  0  0  0  0
  -20.9580  -15.1829   21.6799 N   0  0  0  0  0  0  0  0  0  0  0  0
  -27.4562  -19.2627   23.0953 N   0  0  0  0  0  0  0  0  0  0  0  0
  -27.4831  -31.3045   19.5258 N   0  0  0  0  0  0  0  0  0  0  0  0
  -21.5582  -29.4211   22.3203 N   0  0  0  0  0  0  0  0  0  0  0  0
  -29.8157  -17.1211   21.8003 N   0  0  0  0  0  0  0  0  0  0  0  0
  -24.0691  -19.9620   25.5000 N   0  3  0  0  0  0  0  0  0  0  0  0
  -19.4558  -26.6712   21.2785 N   0  3  0  0  0  0  0  0  0  0  0  0
  -21.2460  -17.4035   21.1853 O   0  0  0  0  0  0  0  0  0  0  0  0
  -26.7928  -30.6977   21.6654 O   0  0  0  0  0  0  0  0  0  0  0  0
  -23.1611  -31.2910   20.8566 O   0  0  0  0  0  0  0  0  0  0  0  0
  -21.8053  -27.1556   22.7488 O   0  0  0  0  0  0  0  0  0  0  0  0
  -31.0116  -17.6094   19.9061 O   0  0  0  0  0  0  0  0  0  0  0  0
  -21.9138   -9.7323   22.3223 O   0  0  0  0  0  0  0  0  0  0  0  0
  -27.7578  -24.1828   21.3060 O   0  0  0  0  0  0  0  0  0  1  0  0
  -16.9261   -8.2348   20.5099 F   0  0  0  0  0  0  0  0  0  0  0  0
  -21.5950   -7.4897   20.7374 F   0  0  0  0  0  0  0  0  0  0  0  0
  1  2  1  0  0  0  0
  1  5  2  0  0  0  0
  2  6  2  0  0  0  0
  3  8  2  0  0  0  0
  3 17  1  0  0  0  0
  4  9  1  0  0  0  0
  4 17  2  0  0  0  0
  5 19  1  0  0  0  0
  6 21  1  0  0  0  0
  7 10  2  0  0  0  0
  7 20  1  0  0  0  0
  8 25  1  0  0  0  0
  9 25  2  0  0  0  0
 10 26  1  0  0  0  0
 11 12  2  0  0  0  0
 11 27  1  0  0  0  0
 12 28  1  0  0  0  0
 13 22  1  0  0  0  0
 13 26  2  0  0  0  0
 14 24  2  0  0  0  0
 14 31  1  0  0  0  0
 15 28  2  0  0  0  0
 15 29  1  0  0  0  0
 16 23  2  0  0  0  0
 16 68  1  0  0  0  0
 17 30  1  0  0  0  0
 18 30  1  0  0  0  0
 18 32  2  0  0  0  0
 18 33  1  0  0  0  0
 19 21  2  0  0  0  0
 19 38  1  0  0  0  0
 20 22  2  0  0  0  0
 20 39  1  0  0  0  0
 21 51  1  0  0  0  0
 22 40  1  0  0  0  0
 23 24  1  0  0  0  0
 23 60  1  0  0  0  0
 24 73  1  0  0  0  0
 25 84  1  0  0  0  0
 26 85  1  0  0  0  0
 27 29  2  0  0  0  0
 27 84  1  0  0  0  0
 28 86  1  0  0  0  0
 29 87  1  0  0  0  0
 30 66  2  0  0  0  0
 31 61  1  0  0  0  0
 31 68  2  0  0  0  0
 32 67  1  0  0  0  0
 32 71  1  0  0  0  0
 33 72  1  0  0  0  0
 33 79  2  0  0  0  0
 34 52  1  0  0  0  0
 34 74  1  0  0  0  0
 34 80  2  0  0  0  0
 35 63  1  0  0  0  0
 35 69  1  0  0  0  0
 35 81  2  0  0  0  0
 36 64  1  0  0  0  0
 36 75  1  0  0  0  0
 36 82  2  0  0  0  0
 37 70  1  0  0  0  0
 37 76  1  0  0  0  0
 37 83  2  0  0  0  0
 38 41  1  0  0  0  0
 39 52  1  0  0  0  0
 40 69  1  0  0  0  0
 41 43  1  0  0  0  0
 42 44  1  0  0  0  0
 42 47  1  0  0  0  0
 43 51  1  0  0  0  0
 44 53  1  0  0  0  0
 45 49  1  0  0  0  0
 45 54  1  0  0  0  0
 46 50  1  0  0  0  0
 46 54  1  0  0  0  0
 47 70  1  0  0  0  0
 48 53  1  0  0  0  0
 48 70  1  0  0  0  0
 49 77  1  0  0  0  0
 50 77  1  0  0  0  0
 51 74  1  0  0  0  0
 52 69  1  0  0  0  0
 53 67  1  0  0  0  0
 54 73  1  0  0  0  0
 55 64  1  0  0  0  0
 56 65  1  0  0  0  0
 57 65  1  0  0  0  0
 58 65  1  0  0  0  0
 59 78  1  0  0  0  0
 60 62  1  0  0  0  0
 61 85  1  0  0  0  0
 62 76  1  0  0  0  0
 63 65  1  0  0  0  0
 63 75  1  0  0  0  0
 64 78  1  0  0  0  0
 66 67  1  0  0  0  0
M  CHG  3  68   1  77   1  78   1
M  ISO  4  37 100  61 101  76 100  85 101
M  END
> <Batch ID>
0132

> <Smiles>
CNC(C)C(=O)NC(C(=O)N1Cc2cc([101O:1][101CH2:1]c3cc(NC4CCNCC4)c(CC[100NH:0][100C:0](=O)N4CCCC(n5nc(-c6ccc(Oc7ccc(F)cc7F)cc6)c(C(N)=O)c5N)C4)cn3)ccc2CC1C(=O)NC1CCCc2ccccc21)C(C)(C)C

> <Shape>
0.216

> <Color>
0.057

> <Negative vol penalty>
0.000

$$$$

  -OEChem-04052320523D

 86 94  0     1  0  0  0  0  0999 V2000
  -30.7073  -10.4971   22.4108 C   0  0  0  0  0  0  0  0  0  0  0  0
  -30.7347  -11.7653   21.8396 C   0  0  0  0  0  0  0  0  0  0  0  0
  -19.2382  -26.5057   21.3102 C   0  0  0  0  0  0  0  0  0  0  0  0
  -20.5252  -25.3565   23.0013 C   0  0  0  0  0  0  0  0  0  0  0  0
  -29.5927   -9.6783   22.2345 C   0  0  0  0  0  0  0  0  0  0  0  0
  -29.6478  -12.2151   21.0908 C   0  0  0  0  0  0  0  0  0  0  0  0
  -28.3455  -16.9761   22.2230 C   0  0  0  0  0  0  0  0  0  0  0  0
  -29.4669  -26.6440   18.2756 C   0  0  0  0  0  0  0  0  0  0  0  0
  -18.5708  -25.3180   21.0109 C   0  0  0  0  0  0  0  0  0  0  0  0
  -19.8577  -24.1687   22.7021 C   0  0  0  0  0  0  0  0  0  0  0  0
  -29.1292  -17.9958   21.6845 C   0  0  0  0  0  0  0  0  0  0  0  0
  -28.8601  -25.3883   18.2520 C   0  0  0  0  0  0  0  0  0  0  0  0
  -16.0524  -23.4786   22.3175 C   0  0  0  0  0  0  0  0  0  0  0  0
  -14.6671  -23.5344   22.1641 C   0  0  0  0  0  0  0  0  0  0  0  0
  -27.4784  -18.3460   19.9608 C   0  0  0  0  0  0  0  0  0  0  0  0
  -30.7122  -24.4700   19.5025 C   0  0  0  0  0  0  0  0  0  0  0  0
  -14.8854  -22.7249   19.8982 C   0  0  0  0  0  0  0  0  0  0  0  0
  -20.2154  -26.5249   22.3053 C   0  0  0  0  0  0  0  0  0  0  0  0
  -20.5296  -28.7230   23.5612 C   0  0  0  0  0  0  0  0  0  0  0  0
  -28.4875  -10.1220   21.4913 C   0  0  0  0  0  0  0  0  0  0  0  0
  -27.1255  -16.6258   21.6270 C   0  0  0  0  0  0  0  0  0  0  0  0
  -28.5178  -11.4010   20.9033 C   0  0  0  0  0  0  0  0  0  0  0  0
  -26.6799  -17.3233   20.4951 C   0  0  0  0  0  0  0  0  0  0  0  0
  -30.6964  -26.8128   18.9125 C   0  0  0  0  0  0  0  0  0  0  0  0
  -31.3190  -25.7257   19.5259 C   0  0  0  0  0  0  0  0  0  0  0  0
  -18.8805  -24.1495   21.7069 C   0  0  0  0  0  0  0  0  0  0  0  0
  -28.6971  -18.6790   20.5516 C   0  0  0  0  0  0  0  0  0  0  0  0
  -29.4827  -24.3013   18.8655 C   0  0  0  0  0  0  0  0  0  0  0  0
  -16.8542  -23.0460   21.2612 C   0  0  0  0  0  0  0  0  0  0  0  0
  -14.0836  -23.1575   20.9545 C   0  0  0  0  0  0  0  0  0  0  0  0
  -16.2707  -22.6691   20.0517 C   0  0  0  0  0  0  0  0  0  0  0  0
  -20.9056  -27.7514   22.6145 C   0  0  0  0  0  0  0  0  0  0  0  0
  -21.5063  -29.6847   23.4727 C   0  0  0  0  0  0  0  0  0  0  0  0
  -19.3987  -28.7536   24.4419 C   0  0  0  0  0  0  0  0  0  0  0  0
  -25.9659  -13.9966   20.2683 C   0  0  0  0  0  0  0  0  0  0  0  0
  -23.2207  -15.7224   20.1800 C   0  0  0  0  0  0  0  0  0  0  0  0
  -21.7268  -18.7907   20.1615 C   0  0  0  0  0  0  0  0  0  0  0  0
  -27.1508  -29.4125   21.7637 C   0  0  0  0  0  0  0  0  0  0  0  0
  -27.3248   -9.1831   21.2886 C   0  0  0  0  0  0  0  0  0  0  0  0
  -26.2792  -15.5416   22.2357 C   0  0  0  0  0  0  0  0  0  0  0  0
  -25.3682  -16.9994   19.8295 C   0  0  0  0  0  0  0  0  0  0  0  0
  -26.0590   -9.8788   20.7948 C   0  0  0  0  0  0  0  0  0  0  0  0
  -24.6162  -31.5894   20.3730 C   0  0  0  0  0  0  0  0  0  0  0  0
  -26.3856  -10.8309   19.6486 C   0  0  0  0  0  0  0  0  0  0  0  0
  -23.3346  -30.9325   20.8889 C   0  0  0  0  0  0  0  0  0  0  0  0
  -25.6632  -30.5431   20.0026 C   0  0  0  0  0  0  0  0  0  0  0  0
  -24.7228  -28.9373   21.6183 C   0  0  0  0  0  0  0  0  0  0  0  0
  -27.3480  -11.9341   20.1049 C   0  0  1  0  0  0  0  0  0  0  0  0
  -25.2979  -14.9225   21.2452 C   0  0  1  0  0  0  0  0  0  0  0  0
  -23.6327  -29.9430   22.0310 C   0  0  2  0  0  0  0  0  0  0  0  0
  -32.6358  -25.8822   20.2128 C   0  0  0  0  0  0  0  0  0  0  0  0
  -31.5871  -28.7265   17.5207 C   0  0  0  0  0  0  0  0  0  0  0  0
  -19.4702  -19.8824   20.0451 C   0  0  0  0  0  0  0  0  0  0  0  0
  -23.0889  -15.1255   17.1906 C   0  0  0  0  0  0  0  0  0  0  0  0
  -21.4131  -16.9720   16.9666 C   0  0  0  0  0  0  0  0  0  0  0  0
  -20.8938  -14.9836   18.3805 C   0  0  0  0  0  0  0  0  0  0  0  0
  -22.0804  -20.0698   22.8069 C   0  0  0  0  0  0  0  0  0  0  0  0
  -29.5647  -29.9866   21.7868 C   0  0  0  0  0  0  0  0  0  0  0  0
  -30.3543  -28.8806   21.1117 C   0  0  0  0  0  0  0  0  0  0  0  0
  -28.7758  -20.7312   19.3525 C   0  0  0  0  0  0  0  0  0  1  0  0
  -29.5820  -22.0084   19.4887 C   0  0  0  0  0  0  0  0  0  0  0  0
  -31.3264  -28.1667   18.9245 C   0  0  1  0  0  0  0  0  0  0  0  0
  -22.5878  -16.6747   19.1943 C   0  0  1  0  0  0  0  0  0  0  0  0
  -20.5621  -19.3488   20.9593 C   0  0  2  0  0  0  0  0  0  0  0  0
  -22.0216  -15.9440   17.9442 C   0  0  0  0  0  0  0  0  0  0  0  0
  -22.0331  -28.0669   21.9717 N   0  0  0  0  0  0  0  0  0  0  0  0
  -22.3739  -29.2477   22.5153 N   0  0  0  0  0  0  0  0  0  0  0  0
  -24.5795  -15.9271   20.4585 N   0  0  0  0  0  0  0  0  0  0  0  0
  -25.9145  -29.6449   21.1384 N   0  0  0  0  0  0  0  0  0  0  0  0
  -21.6989  -30.8530   24.1210 N   0  0  0  0  0  0  0  0  0  0  0  0
  -18.4930  -27.6847   24.4037 N   0  0  0  0  0  0  0  0  0  0  0  0
  -26.6376  -12.9439   20.8600 N   0  0  0  0  0  0  0  0  0  0  0  0
  -21.5935  -17.4359   19.9429 N   0  0  0  0  0  0  0  0  0  0  0  0
  -28.2305  -30.1165   21.2446 N   0  0  0  0  0  0  0  0  0  0  0  0
  -21.0223  -20.4597   21.8398 N   0  3  0  0  0  0  0  0  0  0  0  0
  -30.5219  -29.1907   19.6736 N   0  3  0  0  0  0  0  0  0  0  0  0
  -19.1884  -29.7086   25.2276 O   0  0  0  0  0  0  0  0  0  0  0  0
  -25.8771  -14.2199   19.0666 O   0  0  0  0  0  0  0  0  0  0  0  0
  -22.5329  -14.8342   20.6896 O   0  0  0  0  0  0  0  0  0  0  0  0
  -22.6595  -19.4877   19.7682 O   0  0  0  0  0  0  0  0  0  0  0  0
  -27.2821  -28.6386   22.7181 O   0  0  0  0  0  0  0  0  0  0  0  0
  -18.2293  -22.9905   21.4154 O   0  0  0  0  0  0  0  0  0  0  0  0
  -29.4603  -19.6742   20.0236 O   0  0  0  0  0  0  0  0  0  1  0  0
  -28.8871  -23.0677   18.8421 O   0  0  0  0  0  0  0  0  0  0  0  0
  -12.7532  -23.2097   20.8078 F   0  0  0  0  0  0  0  0  0  0  0  0
  -17.0358  -22.2515   19.0337 F   0  0  0  0  0  0  0  0  0  0  0  0
  1  2  1  0  0  0  0
  1  5  2  0  0  0  0
  2  6  2  0  0  0  0
  3  9  2  0  0  0  0
  3 18  1  0  0  0  0
  4 10  1  0  0  0  0
  4 18  2  0  0  0  0
  5 20  1  0  0  0  0
  6 22  1  0  0  0  0
  7 11  2  0  0  0  0
  7 21  1  0  0  0  0
  8 12  2  0  0  0  0
  8 24  1  0  0  0  0
  9 26  1  0  0  0  0
 10 26  2  0  0  0  0
 11 27  1  0  0  0  0
 12 28  1  0  0  0  0
 13 14  2  0  0  0  0
 13 29  1  0  0  0  0
 14 30  1  0  0  0  0
 15 23  1  0  0  0  0
 15 27  2  0  0  0  0
 16 25  1  0  0  0  0
 16 28  2  0  0  0  0
 17 30  2  0  0  0  0
 17 31  1  0  0  0  0
 18 32  1  0  0  0  0
 19 32  1  0  0  0  0
 19 33  2  0  0  0  0
 19 34  1  0  0  0  0
 20 22  2  0  0  0  0
 20 39  1  0  0  0  0
 21 23  2  0  0  0  0
 21 40  1  0  0  0  0
 22 48  1  0  0  0  0
 23 41  1  0  0  0  0
 24 25  2  0  0  0  0
 24 62  1  0  0  0  0
 25 51  1  0  0  0  0
 26 82  1  0  0  0  0
 27 83  1  0  0  0  0
 28 84  1  0  0  0  0
 29 31  2  0  0  0  0
 29 82  1  0  0  0  0
 30 85  1  0  0  0  0
 31 86  1  0  0  0  0
 32 66  2  0  0  0  0
 33 67  1  0  0  0  0
 33 70  1  0  0  0  0
 34 71  1  0  0  0  0
 34 77  2  0  0  0  0
 35 49  1  0  0  0  0
 35 72  1  0  0  0  0
 35 78  2  0  0  0  0
 36 63  1  0  0  0  0
 36 68  1  0  0  0  0
 36 79  2  0  0  0  0
 37 64  1  0  0  0  0
 37 73  1  0  0  0  0
 37 80  2  0  0  0  0
 38 69  1  0  0  0  0
 38 74  1  0  0  0  0
 38 81  2  0  0  0  0
 39 42  1  0  0  0  0
 40 49  1  0  0  0  0
 41 68  1  0  0  0  0
 42 44  1  0  0  0  0
 43 45  1  0  0  0  0
 43 46  1  0  0  0  0
 44 48  1  0  0  0  0
 45 50  1  0  0  0  0
 46 69  1  0  0  0  0
 47 50  1  0  0  0  0
 47 69  1  0  0  0  0
 48 72  1  0  0  0  0
 49 68  1  0  0  0  0
 50 67  1  0  0  0  0
 52 62  1  0  0  0  0
 53 64  1  0  0  0  0
 54 65  1  0  0  0  0
 55 65  1  0  0  0  0
 56 65  1  0  0  0  0
 57 75  1  0  0  0  0
 58 59  1  0  0  0  0
 58 74  1  0  0  0  0
 59 76  1  0  0  0  0
 60 61  1  0  0  0  0
 60 83  1  0  0  0  0
 61 84  1  0  0  0  0
 62 76  1  0  0  0  0
 63 65  1  0  0  0  0
 63 73  1  0  0  0  0
 64 75  1  0  0  0  0
 66 67  1  0  0  0  0
M  CHG  2  75   1  76   1
M  ISO  4  38 100  60 101  74 100  83 101
M  END
> <Batch ID>
0132

> <Smiles>
CNC(C)C(=O)NC(C(=O)N1Cc2cc([101O:1][101CH2:1]COc3ccc(C(C)NCC[100NH:0][100C:0](=O)N4CCCC(n5nc(-c6ccc(Oc7ccc(F)cc7F)cc6)c(C(N)=O)c5N)C4)c(C)c3)ccc2CC1C(=O)NC1CCCc2ccccc21)C(C)(C)C

> <Shape>
0.236

> <Color>
0.066

> <Negative vol penalty>
0.000

$$$$

  -OEChem-04052320523D

 79 87  0     1  0  0  0  0  0999 V2000
  -32.3666  -31.1194   17.6251 C   0  0  0  0  0  0  0  0  0  0  0  0
  -32.4028  -29.9409   18.3634 C   0  0  0  0  0  0  0  0  0  0  0  0
  -23.0768   -9.8590   19.9524 C   0  0  0  0  0  0  0  0  0  0  0  0
  -23.8329   -9.8860   22.2469 C   0  0  0  0  0  0  0  0  0  0  0  0
  -31.2569  -31.9594   17.7090 C   0  0  0  0  0  0  0  0  0  0  0  0
  -31.3298  -29.6021   19.1870 C   0  0  0  0  0  0  0  0  0  0  0  0
  -29.9978  -24.7369   18.7398 C   0  0  0  0  0  0  0  0  0  0  0  0
  -22.3337   -8.7073   20.2108 C   0  0  0  0  0  0  0  0  0  0  0  0
  -23.0898   -8.7343   22.5054 C   0  0  0  0  0  0  0  0  0  0  0  0
  -30.7900  -23.7968   19.3975 C   0  0  0  0  0  0  0  0  0  0  0  0
  -19.8614   -7.9383   23.1093 C   0  0  0  0  0  0  0  0  0  0  0  0
  -19.1026   -7.9075   24.2793 C   0  0  0  0  0  0  0  0  0  0  0  0
  -29.1721  -23.6921   21.1838 C   0  0  0  0  0  0  0  0  0  0  0  0
  -20.3447   -5.9776   25.0340 C   0  0  0  0  0  0  0  0  0  0  0  0
  -23.8265  -10.4484   20.9704 C   0  0  0  0  0  0  0  0  0  0  0  0
  -24.1660  -12.9728   20.8297 C   0  0  0  0  0  0  0  0  0  0  0  0
  -30.1656  -31.6260   18.5266 C   0  0  0  0  0  0  0  0  0  0  0  0
  -28.7901  -25.1704   19.3054 C   0  0  0  0  0  0  0  0  0  0  0  0
  -30.2050  -30.4391   19.2830 C   0  0  0  0  0  0  0  0  0  0  0  0
  -28.3652  -24.6358   20.5300 C   0  0  0  0  0  0  0  0  0  0  0  0
  -22.3401   -8.1449   21.4873 C   0  0  0  0  0  0  0  0  0  0  0  0
  -30.3786  -23.2764   20.6210 C   0  0  0  0  0  0  0  0  0  0  0  0
  -20.8619   -6.9887   22.9016 C   0  0  0  0  0  0  0  0  0  0  0  0
  -19.3442   -6.9271   25.2416 C   0  0  0  0  0  0  0  0  0  0  0  0
  -21.1035   -6.0084   23.8640 C   0  0  0  0  0  0  0  0  0  0  0  0
  -24.5948  -11.6378   20.7039 C   0  0  0  0  0  0  0  0  0  0  0  0
  -25.2580  -13.7203   20.4619 C   0  0  0  0  0  0  0  0  0  0  0  0
  -22.8943  -13.4908   21.2422 C   0  0  0  0  0  0  0  0  0  0  0  0
  -31.2560  -20.1101   22.1507 C   0  0  0  0  0  0  0  0  0  0  0  0
  -27.6614  -27.9654   20.3143 C   0  0  0  0  0  0  0  0  0  0  0  0
  -24.9155  -26.2797   20.6891 C   0  0  0  0  0  0  0  0  0  0  0  0
  -23.4170  -23.2490   21.1542 C   0  0  0  0  0  0  0  0  0  0  0  0
  -30.7404  -14.7464   20.6506 C   0  0  0  0  0  0  0  0  0  0  0  0
  -29.0086  -32.5889   18.6212 C   0  0  0  0  0  0  0  0  0  0  0  0
  -27.9340  -26.1651   18.5705 C   0  0  0  0  0  0  0  0  0  0  0  0
  -27.0672  -25.0531   21.1699 C   0  0  0  0  0  0  0  0  0  0  0  0
  -27.7513  -31.9724   19.2292 C   0  0  0  0  0  0  0  0  0  0  0  0
  -29.6091  -12.3407   18.2821 C   0  0  0  0  0  0  0  0  0  0  0  0
  -28.0984  -31.1842   20.4882 C   0  0  0  0  0  0  0  0  0  0  0  0
  -28.1712  -12.0492   18.7152 C   0  0  0  0  0  0  0  0  0  0  0  0
  -29.8341  -18.0430   22.1763 C   0  0  0  0  0  0  0  0  0  0  0  0
  -30.5240  -12.5726   19.4826 C   0  0  0  0  0  0  0  0  0  0  0  0
  -28.6193  -13.3134   20.8599 C   0  0  0  0  0  0  0  0  0  0  0  0
  -31.5833  -16.7678   23.1591 C   0  0  0  0  0  0  0  0  0  0  0  0
  -29.0499  -30.0249   20.1685 C   0  0  1  0  0  0  0  0  0  0  0  0
  -30.6678  -19.0257   22.9917 C   0  0  1  0  0  0  0  0  0  0  0  0
  -26.9731  -26.9178   19.4857 C   0  0  1  0  0  0  0  0  0  0  0  0
  -27.6473  -13.1279   19.6822 C   0  0  2  0  0  0  0  0  0  0  0  0
  -30.8021  -16.9073   21.8695 C   0  0  1  0  0  0  0  0  0  0  0  0
  -21.1612  -22.1932   21.4611 C   0  0  0  0  0  0  0  0  0  0  0  0
  -24.8424  -27.2793   23.5710 C   0  0  0  0  0  0  0  0  0  0  0  0
  -23.1681  -25.4878   24.0764 C   0  0  0  0  0  0  0  0  0  0  0  0
  -22.6250  -27.2671   22.4145 C   0  0  0  0  0  0  0  0  0  0  0  0
  -23.7174  -21.6195   18.7020 C   0  0  0  0  0  0  0  0  0  0  0  0
  -30.4770  -21.4065   22.0873 C   0  0  0  0  0  0  0  0  0  1  0  0
  -24.3001  -25.4734   21.8072 C   0  0  1  0  0  0  0  0  0  0  0  0
  -22.2362  -22.5923   20.4622 C   0  0  2  0  0  0  0  0  0  0  0  0
  -23.7594  -26.3703   22.9564 C   0  0  0  0  0  0  0  0  0  0  0  0
  -25.8604  -11.5397   20.2885 N   0  0  0  0  0  0  0  0  0  0  0  0
  -26.2363  -12.8226   20.1500 N   0  0  0  0  0  0  0  0  0  0  0  0
  -26.2683  -26.0330   20.4155 N   0  0  0  0  0  0  0  0  0  0  0  0
  -29.9710  -13.6079   20.3590 N   0  0  0  0  0  0  0  0  0  0  0  0
  -25.4672  -15.0513   20.3781 N   0  0  0  0  0  0  0  0  0  0  0  0
  -21.8828  -12.5835   21.5855 N   0  0  0  0  0  0  0  0  0  0  0  0
  -28.3234  -28.9246   19.5719 N   0  0  0  0  0  0  0  0  0  0  0  0
  -23.2903  -24.6216   21.1884 N   0  0  0  0  0  0  0  0  0  0  0  0
  -30.1390  -15.6816   21.4838 N   0  0  0  0  0  0  0  0  0  0  0  0
  -31.7675  -18.1910   23.5982 N   0  3  0  0  0  0  0  0  0  0  0  0
  -22.6774  -21.3698   19.7331 N   0  3  0  0  0  0  0  0  0  0  0  0
  -22.6568  -14.7216   21.2888 O   0  0  0  0  0  0  0  0  0  0  0  0
  -32.3154  -19.9472   21.5471 O   0  0  0  0  0  0  0  0  0  0  0  0
  -27.5954  -27.9085   21.5366 O   0  0  0  0  0  0  0  0  0  0  0  0
  -24.2195  -27.0930   20.0761 O   0  0  0  0  0  0  0  0  0  0  0  0
  -24.3559  -22.6081   21.6213 O   0  0  0  0  0  0  0  0  0  0  0  0
  -31.8770  -14.9191   20.1974 O   0  0  0  0  0  0  0  0  0  0  0  0
  -21.6149   -7.0212   21.7399 O   0  0  0  0  0  0  0  0  0  0  0  0
  -31.1503  -22.3592   21.2654 O   0  0  0  0  0  0  0  0  0  1  0  0
  -18.6165   -6.8986   26.3658 F   0  0  0  0  0  0  0  0  0  0  0  0
  -22.0641   -5.0942   23.6706 F   0  0  0  0  0  0  0  0  0  0  0  0
  1  2  1  0  0  0  0
  1  5  2  0  0  0  0
  2  6  2  0  0  0  0
  3  8  2  0  0  0  0
  3 15  1  0  0  0  0
  4  9  1  0  0  0  0
  4 15  2  0  0  0  0
  5 17  1  0  0  0  0
  6 19  1  0  0  0  0
  7 10  2  0  0  0  0
  7 18  1  0  0  0  0
  8 21  1  0  0  0  0
  9 21  2  0  0  0  0
 10 22  1  0  0  0  0
 11 12  2  0  0  0  0
 11 23  1  0  0  0  0
 12 24  1  0  0  0  0
 13 20  1  0  0  0  0
 13 22  2  0  0  0  0
 14 24  2  0  0  0  0
 14 25  1  0  0  0  0
 15 26  1  0  0  0  0
 16 26  1  0  0  0  0
 16 27  2  0  0  0  0
 16 28  1  0  0  0  0
 17 19  2  0  0  0  0
 17 34  1  0  0  0  0
 18 20  2  0  0  0  0
 18 35  1  0  0  0  0
 19 45  1  0  0  0  0
 20 36  1  0  0  0  0
 21 76  1  0  0  0  0
 22 77  1  0  0  0  0
 23 25  2  0  0  0  0
 23 76  1  0  0  0  0
 24 78  1  0  0  0  0
 25 79  1  0  0  0  0
 26 59  2  0  0  0  0
 27 60  1  0  0  0  0
 27 63  1  0  0  0  0
 28 64  1  0  0  0  0
 28 70  2  0  0  0  0
 29 46  1  0  0  0  0
 29 55  1  0  0  0  0
 29 71  2  0  0  0  0
 30 47  1  0  0  0  0
 30 65  1  0  0  0  0
 30 72  2  0  0  0  0
 31 56  1  0  0  0  0
 31 61  1  0  0  0  0
 31 73  2  0  0  0  0
 32 57  1  0  0  0  0
 32 66  1  0  0  0  0
 32 74  2  0  0  0  0
 33 62  1  0  0  0  0
 33 67  1  0  0  0  0
 33 75  2  0  0  0  0
 34 37  1  0  0  0  0
 35 47  1  0  0  0  0
 36 61  1  0  0  0  0
 37 39  1  0  0  0  0
 38 40  1  0  0  0  0
 38 42  1  0  0  0  0
 39 45  1  0  0  0  0
 40 48  1  0  0  0  0
 41 46  1  0  0  0  0
 41 49  1  0  0  0  0
 42 62  1  0  0  0  0
 43 48  1  0  0  0  0
 43 62  1  0  0  0  0
 44 49  1  0  0  0  0
 44 68  1  0  0  0  0
 45 65  1  0  0  0  0
 46 68  1  0  0  0  0
 47 61  1  0  0  0  0
 48 60  1  0  0  0  0
 49 67  1  0  0  0  0
 50 57  1  0  0  0  0
 51 58  1  0  0  0  0
 52 58  1  0  0  0  0
 53 58  1  0  0  0  0
 54 69  1  0  0  0  0
 55 77  1  0  0  0  0
 56 58  1  0  0  0  0
 56 66  1  0  0  0  0
 57 69  1  0  0  0  0
 59 60  1  0  0  0  0
M  CHG  2  68   1  69   1
M  ISO  4  33 100  55 101  67 100  77 101
M  END
> <Batch ID>
0132

> <Smiles>
CNC(C)C(=O)NC(C(=O)N1Cc2cc([101O:1][101CH2:1]C(=O)C3CC([100NH:0][100C:0](=O)N4CCCC(n5nc(-c6ccc(Oc7ccc(F)cc7F)cc6)c(C(N)=O)c5N)C4)CN3)ccc2CC1C(=O)NC1CCCc2ccccc21)C(C)(C)C

> <Shape>
0.254

> <Color>
0.188

> <Negative vol penalty>
0.000

$$$$

  -OEChem-04052320523D

 80 88  0     1  0  0  0  0  0999 V2000
  -22.6766  -30.6660   13.6409 C   0  0  0  0  0  0  0  0  0  0  0  0
  -23.6649  -30.0158   14.3729 C   0  0  0  0  0  0  0  0  0  0  0  0
  -26.5266  -12.7670   21.4474 C   0  0  0  0  0  0  0  0  0  0  0  0
  -25.9563  -14.4836   19.8457 C   0  0  0  0  0  0  0  0  0  0  0  0
  -22.3004  -31.9650   13.9799 C   0  0  0  0  0  0  0  0  0  0  0  0
  -24.2785  -30.6647   15.4438 C   0  0  0  0  0  0  0  0  0  0  0  0
  -24.7230  -27.6925   19.5197 C   0  0  0  0  0  0  0  0  0  0  0  0
  -29.5044  -23.2119   19.5950 C   0  0  0  0  0  0  0  0  0  0  0  0
  -25.2233  -12.2743   21.3833 C   0  0  0  0  0  0  0  0  0  0  0  0
  -24.6530  -13.9908   19.7816 C   0  0  0  0  0  0  0  0  0  0  0  0
  -25.7504  -26.7500   19.5115 C   0  0  0  0  0  0  0  0  0  0  0  0
  -22.1929  -13.0758   22.6477 C   0  0  0  0  0  0  0  0  0  0  0  0
  -21.5607  -12.7590   23.8501 C   0  0  0  0  0  0  0  0  0  0  0  0
  -29.4607  -21.9477   20.1721 C   0  0  0  0  0  0  0  0  0  0  0  0
  -27.0915  -28.2090   20.8869 C   0  0  0  0  0  0  0  0  0  0  0  0
  -21.3155  -10.4697   23.1180 C   0  0  0  0  0  0  0  0  0  0  0  0
  -26.8931  -13.8717   20.6786 C   0  0  0  0  0  0  0  0  0  0  0  0
  -29.3331  -13.9995   19.9454 C   0  0  0  0  0  0  0  0  0  0  0  0
  -22.9029  -32.6266   15.0616 C   0  0  0  0  0  0  0  0  0  0  0  0
  -24.8766  -28.9070   20.2037 C   0  0  0  0  0  0  0  0  0  0  0  0
  -23.9110  -31.9743   15.7968 C   0  0  0  0  0  0  0  0  0  0  0  0
  -26.0636  -29.1641   20.9044 C   0  0  0  0  0  0  0  0  0  0  0  0
  -30.1880  -24.2393   20.2357 C   0  0  0  0  0  0  0  0  0  0  0  0
  -24.2865  -12.8861   20.5505 C   0  0  0  0  0  0  0  0  0  0  0  0
  -26.9360  -27.0095   20.1928 C   0  0  0  0  0  0  0  0  0  0  0  0
  -22.3862  -12.0895   21.6804 C   0  0  0  0  0  0  0  0  0  0  0  0
  -21.1221  -11.4560   24.0852 C   0  0  0  0  0  0  0  0  0  0  0  0
  -21.9476  -10.7864   21.9156 C   0  0  0  0  0  0  0  0  0  0  0  0
  -28.2391  -14.3816   20.7447 C   0  0  0  0  0  0  0  0  0  0  0  0
  -30.8064  -23.9531   21.4421 C   0  0  0  0  0  0  0  0  0  0  0  0
  -30.1119  -21.7641   21.3813 C   0  0  0  0  0  0  0  0  0  0  0  0
  -30.3756  -14.7703   20.3990 C   0  0  0  0  0  0  0  0  0  0  0  0
  -29.4010  -13.0342   18.8874 C   0  0  0  0  0  0  0  0  0  0  0  0
  -24.8985  -31.9708   19.3574 C   0  0  0  0  0  0  0  0  0  0  0  0
  -25.0309  -32.4524   22.5625 C   0  0  0  0  0  0  0  0  0  0  0  0
  -25.8568  -31.2379   25.6431 C   0  0  0  0  0  0  0  0  0  0  0  0
  -30.6394  -20.0619   23.1620 C   0  0  0  0  0  0  0  0  0  0  0  0
  -22.4965  -34.0479   15.3607 C   0  0  0  0  0  0  0  0  0  0  0  0
  -23.7486  -29.9018   20.2251 C   0  0  0  0  0  0  0  0  0  0  0  0
  -26.2706  -30.4440   21.6709 C   0  0  0  0  0  0  0  0  0  0  0  0
  -22.9314  -34.5277   16.7431 C   0  0  0  0  0  0  0  0  0  0  0  0
  -31.9635  -16.9749   24.3426 C   0  0  0  0  0  0  0  0  0  0  0  0
  -24.3880  -34.1568   17.0030 C   0  0  0  0  0  0  0  0  0  0  0  0
  -31.2628  -15.9251   23.4771 C   0  0  0  0  0  0  0  0  0  0  0  0
  -31.0353  -18.1389   24.6852 C   0  0  0  0  0  0  0  0  0  0  0  0
  -29.6851  -17.7253   22.6665 C   0  0  0  0  0  0  0  0  0  0  0  0
  -24.5824  -32.6359   16.9807 C   0  0  1  0  0  0  0  0  0  0  0  0
  -24.2117  -31.3237   20.5267 C   0  0  1  0  0  0  0  0  0  0  0  0
  -30.5997  -16.5649   22.2416 C   0  0  2  0  0  0  0  0  0  0  0  0
  -31.5538  -25.0189   22.1748 C   0  0  0  0  0  0  0  0  0  0  0  0
  -25.8855  -31.8769   28.0696 C   0  0  0  0  0  0  0  0  0  0  0  0
  -27.4927  -34.1876   22.0739 C   0  0  0  0  0  0  0  0  0  0  0  0
  -28.0183  -34.0072   24.5151 C   0  0  0  0  0  0  0  0  0  0  0  0
  -25.8985  -35.0937   23.7745 C   0  0  0  0  0  0  0  0  0  0  0  0
  -24.0038  -29.0450   26.3620 C   0  0  0  0  0  0  0  0  0  0  0  0
  -30.2383  -25.6145   19.6155 C   0  0  0  0  0  0  0  0  0  0  0  0
  -29.2747  -26.5881   20.2853 C   0  0  0  0  0  0  0  0  0  1  0  0
  -26.1393  -32.5846   23.5788 C   0  0  1  0  0  0  0  0  0  0  0  0
  -25.0924  -31.2137   26.9544 C   0  0  2  0  0  0  0  0  0  0  0  0
  -26.8844  -33.9449   23.4696 C   0  0  0  0  0  0  0  0  0  0  0  0
  -28.5570  -15.3219   21.6385 N   0  0  0  0  0  0  0  0  0  0  0  0
  -30.7859  -22.7377   22.0336 N   0  0  0  0  0  0  0  0  0  0  0  0
  -29.8626  -15.5370   21.4036 N   0  0  0  0  0  0  0  0  0  0  0  0
  -25.1409  -31.3879   21.6566 N   0  0  0  0  0  0  0  0  0  0  0  0
  -30.4471  -18.6975   23.4658 N   0  0  0  0  0  0  0  0  0  0  0  0
  -31.6718  -14.8601   20.0326 N   0  0  0  0  0  0  0  0  0  0  0  0
  -28.2369  -12.3308   18.5491 N   0  0  0  0  0  0  0  0  0  0  0  0
  -30.0613  -20.4721   21.9610 N   0  0  0  0  0  0  0  0  0  0  0  0
  -24.1184  -32.0488   18.2194 N   0  0  0  0  0  0  0  0  0  0  0  0
  -25.5299  -32.3400   24.8816 N   0  0  0  0  0  0  0  0  0  0  0  0
  -24.7993  -29.8091   27.3572 N   0  3  0  0  0  0  0  0  0  0  0  0
  -30.4663  -12.7906   18.2716 O   0  0  0  0  0  0  0  0  0  0  0  0
  -26.0503  -32.3711   19.4790 O   0  0  0  0  0  0  0  0  0  0  0  0
  -24.0982  -33.2595   22.5766 O   0  0  0  0  0  0  0  0  0  0  0  0
  -26.6659  -30.3682   25.3275 O   0  0  0  0  0  0  0  0  0  0  0  0
  -31.2934  -20.8049   23.8983 O   0  0  0  0  0  0  0  0  0  0  0  0
  -23.0147  -12.4054   20.4875 O   0  0  0  0  0  0  0  0  0  0  0  0
  -27.9406  -26.0916   20.1859 O   0  0  0  0  0  0  0  0  0  1  0  0
  -20.5165  -11.1516   25.2406 F   0  0  0  0  0  0  0  0  0  0  0  0
  -22.1316   -9.8344   20.9906 F   0  0  0  0  0  0  0  0  0  0  0  0
  1  2  1  0  0  0  0
  1  5  2  0  0  0  0
  2  6  2  0  0  0  0
  3  9  2  0  0  0  0
  3 17  1  0  0  0  0
  4 10  1  0  0  0  0
  4 17  2  0  0  0  0
  5 19  1  0  0  0  0
  6 21  1  0  0  0  0
  7 11  2  0  0  0  0
  7 20  1  0  0  0  0
  8 14  2  0  0  0  0
  8 23  1  0  0  0  0
  9 24  1  0  0  0  0
 10 24  2  0  0  0  0
 11 25  1  0  0  0  0
 12 13  2  0  0  0  0
 12 26  1  0  0  0  0
 13 27  1  0  0  0  0
 14 31  1  0  0  0  0
 15 22  1  0  0  0  0
 15 25  2  0  0  0  0
 16 27  2  0  0  0  0
 16 28  1  0  0  0  0
 17 29  1  0  0  0  0
 18 29  1  0  0  0  0
 18 32  2  0  0  0  0
 18 33  1  0  0  0  0
 19 21  2  0  0  0  0
 19 38  1  0  0  0  0
 20 22  2  0  0  0  0
 20 39  1  0  0  0  0
 21 47  1  0  0  0  0
 22 40  1  0  0  0  0
 23 30  2  0  0  0  0
 23 56  1  0  0  0  0
 24 77  1  0  0  0  0
 25 78  1  0  0  0  0
 26 28  2  0  0  0  0
 26 77  1  0  0  0  0
 27 79  1  0  0  0  0
 28 80  1  0  0  0  0
 29 61  2  0  0  0  0
 30 50  1  0  0  0  0
 30 62  1  0  0  0  0
 31 62  2  0  0  0  0
 31 68  1  0  0  0  0
 32 63  1  0  0  0  0
 32 66  1  0  0  0  0
 33 67  1  0  0  0  0
 33 72  2  0  0  0  0
 34 48  1  0  0  0  0
 34 69  1  0  0  0  0
 34 73  2  0  0  0  0
 35 58  1  0  0  0  0
 35 64  1  0  0  0  0
 35 74  2  0  0  0  0
 36 59  1  0  0  0  0
 36 70  1  0  0  0  0
 36 75  2  0  0  0  0
 37 65  1  0  0  0  0
 37 68  1  0  0  0  0
 37 76  2  0  0  0  0
 38 41  1  0  0  0  0
 39 48  1  0  0  0  0
 40 64  1  0  0  0  0
 41 43  1  0  0  0  0
 42 44  1  0  0  0  0
 42 45  1  0  0  0  0
 43 47  1  0  0  0  0
 44 49  1  0  0  0  0
 45 65  1  0  0  0  0
 46 49  1  0  0  0  0
 46 65  1  0  0  0  0
 47 69  1  0  0  0  0
 48 64  1  0  0  0  0
 49 63  1  0  0  0  0
 51 59  1  0  0  0  0
 52 60  1  0  0  0  0
 53 60  1  0  0  0  0
 54 60  1  0  0  0  0
 55 71  1  0  0  0  0
 56 57  1  0  0  0  0
 57 78  1  0  0  0  0
 58 60  1  0  0  0  0
 58 70  1  0  0  0  0
 59 71  1  0  0  0  0
 61 63  1  0  0  0  0
M  CHG  1  71   1
M  ISO  4  37 100  57 101  68 100  78 101
M  END
> <Batch ID>
0132

> <Smiles>
CNC(C)C(=O)NC(C(=O)N1Cc2cc([101O:1][101CH2:1]Cc3ccc([100NH:0][100C:0](=O)N4CCCC(n5nc(-c6ccc(Oc7ccc(F)cc7F)cc6)c(C(N)=O)c5N)C4)nc3C)ccc2CC1C(=O)NC1CCCc2ccccc21)C(C)(C)C

> <Shape>
0.297

> <Color>
0.076

> <Negative vol penalty>
0.000

$$$$

  -OEChem-04052320523D

 83 91  0     1  0  0  0  0  0999 V2000
  -22.6972  -23.5229   19.8997 C   0  0  0  0  0  0  0  0  0  0  0  0
  -23.8702  -22.8154   20.1424 C   0  0  0  0  0  0  0  0  0  0  0  0
  -21.3006  -26.8559   20.8612 C   0  0  0  0  0  0  0  0  0  0  0  0
  -22.3391  -26.6597   23.0338 C   0  0  0  0  0  0  0  0  0  0  0  0
  -21.4703  -22.9943   20.2989 C   0  0  0  0  0  0  0  0  0  0  0  0
  -23.8171  -21.5793   20.7856 C   0  0  0  0  0  0  0  0  0  0  0  0
  -26.7467  -18.1019   18.5562 C   0  0  0  0  0  0  0  0  0  0  0  0
  -31.5687  -19.9219   20.3733 C   0  0  0  0  0  0  0  0  0  0  0  0
  -20.1876  -26.1582   21.3302 C   0  0  0  0  0  0  0  0  0  0  0  0
  -21.2260  -25.9620   23.5028 C   0  0  0  0  0  0  0  0  0  0  0  0
  -28.1163  -18.1665   18.8089 C   0  0  0  0  0  0  0  0  0  0  0  0
  -16.9190  -24.7430   22.0573 C   0  0  0  0  0  0  0  0  0  0  0  0
  -15.6572  -25.2415   21.7331 C   0  0  0  0  0  0  0  0  0  0  0  0
  -31.4290  -21.3050   20.3421 C   0  0  0  0  0  0  0  0  0  0  0  0
  -27.8933  -16.3992   20.4356 C   0  0  0  0  0  0  0  0  0  0  0  0
  -16.1807  -27.3071   22.8716 C   0  0  0  0  0  0  0  0  0  0  0  0
  -22.3764  -27.1067   21.7130 C   0  0  0  0  0  0  0  0  0  0  0  0
  -23.7315  -29.2194   21.2571 C   0  0  0  0  0  0  0  0  0  0  0  0
  -21.4013  -21.7467   20.9387 C   0  0  0  0  0  0  0  0  0  0  0  0
  -25.9370  -17.1915   19.2503 C   0  0  0  0  0  0  0  0  0  0  0  0
  -22.5883  -21.0341   21.1950 C   0  0  0  0  0  0  0  0  0  0  0  0
  -26.5142  -16.3233   20.1880 C   0  0  0  0  0  0  0  0  0  0  0  0
  -31.6095  -19.2603   21.5955 C   0  0  0  0  0  0  0  0  0  0  0  0
  -20.1503  -25.7113   22.6510 C   0  0  0  0  0  0  0  0  0  0  0  0
  -28.6893  -17.3171   19.7509 C   0  0  0  0  0  0  0  0  0  0  0  0
  -17.8116  -25.5266   22.7887 C   0  0  0  0  0  0  0  0  0  0  0  0
  -15.2881  -26.5235   22.1402 C   0  0  0  0  0  0  0  0  0  0  0  0
  -17.4425  -26.8086   23.1958 C   0  0  0  0  0  0  0  0  0  0  0  0
  -23.5267  -27.8269   21.2290 C   0  0  0  0  0  0  0  0  0  0  0  0
  -31.5074  -20.0214   22.7487 C   0  0  0  0  0  0  0  0  0  0  0  0
  -31.3347  -21.9746   21.5514 C   0  0  0  0  0  0  0  0  0  0  0  0
  -24.9668  -29.3964   20.6835 C   0  0  0  0  0  0  0  0  0  0  0  0
  -22.8811  -30.2599   21.7570 C   0  0  0  0  0  0  0  0  0  0  0  0
  -23.4710  -17.4464   21.2397 C   0  0  0  0  0  0  0  0  0  0  0  0
  -23.4215  -14.2140   20.9723 C   0  0  0  0  0  0  0  0  0  0  0  0
  -25.1222  -11.3381   20.2772 C   0  0  0  0  0  0  0  0  0  0  0  0
  -29.7533  -25.8416   20.1320 C   0  0  0  0  0  0  0  0  0  0  0  0
  -20.0565  -21.2379   21.3941 C   0  0  0  0  0  0  0  0  0  0  0  0
  -24.4657  -17.1158   18.9469 C   0  0  0  0  0  0  0  0  0  0  0  0
  -25.6920  -15.3140   20.9455 C   0  0  0  0  0  0  0  0  0  0  0  0
  -20.0517  -19.7498   21.7345 C   0  0  0  0  0  0  0  0  0  0  0  0
  -27.9372  -27.4102   17.5019 C   0  0  0  0  0  0  0  0  0  0  0  0
  -21.2542  -19.3972   22.6043 C   0  0  0  0  0  0  0  0  0  0  0  0
  -26.6194  -27.8205   18.1614 C   0  0  0  0  0  0  0  0  0  0  0  0
  -28.4463  -26.0751   18.0407 C   0  0  0  0  0  0  0  0  0  0  0  0
  -27.2503  -26.4161   20.1684 C   0  0  0  0  0  0  0  0  0  0  0  0
  -22.5694  -19.6788   21.8678 C   0  0  1  0  0  0  0  0  0  0  0  0
  -23.6519  -16.5044   20.0832 C   0  0  1  0  0  0  0  0  0  0  0  0
  -26.7259  -27.7835   19.6978 C   0  0  2  0  0  0  0  0  0  0  0  0
  -31.5456  -19.3646   24.0898 C   0  0  0  0  0  0  0  0  0  0  0  0
  -24.8249   -8.8482   20.1799 C   0  0  0  0  0  0  0  0  0  0  0  0
  -23.5209  -14.0855   24.0192 C   0  0  0  0  0  0  0  0  0  0  0  0
  -24.1739  -11.6762   23.8268 C   0  0  0  0  0  0  0  0  0  0  0  0
  -21.9651  -12.4414   22.9559 C   0  0  0  0  0  0  0  0  0  0  0  0
  -25.7733  -11.2566   17.3913 C   0  0  0  0  0  0  0  0  0  0  0  0
  -31.7613  -17.7590   21.6355 C   0  0  0  0  0  0  0  0  0  0  0  0
  -31.0853  -24.1876   22.6765 C   0  0  0  0  0  0  0  0  0  0  0  0
  -30.9298  -25.6555   22.3093 C   0  0  0  0  0  0  0  0  0  0  0  0
  -30.4575  -17.0357   21.3162 C   0  0  0  0  0  0  0  0  0  1  0  0
  -24.0736  -13.0701   21.7107 C   0  0  1  0  0  0  0  0  0  0  0  0
  -24.7761  -10.1509   19.3967 C   0  0  2  0  0  0  0  0  0  0  0  0
  -23.4488  -12.8385   23.1155 C   0  0  0  0  0  0  0  0  0  0  0  0
  -24.5499  -27.1662   20.6808 N   0  0  0  0  0  0  0  0  0  0  0  0
  -31.3706  -21.3663   22.7583 N   0  0  0  0  0  0  0  0  0  0  0  0
  -25.4095  -28.1478   20.3590 N   0  0  0  0  0  0  0  0  0  0  0  0
  -24.2569  -15.2829   20.6181 N   0  0  0  0  0  0  0  0  0  0  0  0
  -28.5257  -26.1068   19.5031 N   0  0  0  0  0  0  0  0  0  0  0  0
  -25.7068  -30.4967   20.4300 N   0  0  0  0  0  0  0  0  0  0  0  0
  -21.6457  -29.9030   22.3144 N   0  0  0  0  0  0  0  0  0  0  0  0
  -31.1924  -23.3837   21.5030 N   0  0  0  0  0  0  0  0  0  0  0  0
  -22.8446  -18.6323   20.9068 N   0  0  0  0  0  0  0  0  0  0  0  0
  -23.9952  -11.9143   20.8239 N   0  0  0  0  0  0  0  0  0  0  0  0
  -29.7427  -25.8984   21.5204 N   0  0  0  0  0  0  0  0  0  0  0  0
  -25.7347  -10.0521   18.2600 N   0  3  0  0  0  0  0  0  0  0  0  0
  -23.2000  -31.4715   21.6958 O   0  0  0  0  0  0  0  0  0  0  0  0
  -23.8690  -17.1209   22.3521 O   0  0  0  0  0  0  0  0  0  0  0  0
  -22.2169  -14.1580   20.7130 O   0  0  0  0  0  0  0  0  0  0  0  0
  -26.2772  -11.7142   20.4644 O   0  0  0  0  0  0  0  0  0  0  0  0
  -30.7839  -25.5792   19.5027 O   0  0  0  0  0  0  0  0  0  0  0  0
  -19.0642  -25.0306   23.1090 O   0  0  0  0  0  0  0  0  0  0  0  0
  -30.0258  -17.3784   19.9999 O   0  0  0  0  0  0  0  0  0  1  0  0
  -14.0770  -27.0026   21.8275 F   0  0  0  0  0  0  0  0  0  0  0  0
  -18.2962  -27.5665   23.8976 F   0  0  0  0  0  0  0  0  0  0  0  0
  1  2  1  0  0  0  0
  1  5  2  0  0  0  0
  2  6  2  0  0  0  0
  3  9  2  0  0  0  0
  3 17  1  0  0  0  0
  4 10  1  0  0  0  0
  4 17  2  0  0  0  0
  5 19  1  0  0  0  0
  6 21  1  0  0  0  0
  7 11  2  0  0  0  0
  7 20  1  0  0  0  0
  8 14  2  0  0  0  0
  8 23  1  0  0  0  0
  9 24  1  0  0  0  0
 10 24  2  0  0  0  0
 11 25  1  0  0  0  0
 12 13  2  0  0  0  0
 12 26  1  0  0  0  0
 13 27  1  0  0  0  0
 14 31  1  0  0  0  0
 15 22  1  0  0  0  0
 15 25  2  0  0  0  0
 16 27  2  0  0  0  0
 16 28  1  0  0  0  0
 17 29  1  0  0  0  0
 18 29  1  0  0  0  0
 18 32  2  0  0  0  0
 18 33  1  0  0  0  0
 19 21  2  0  0  0  0
 19 38  1  0  0  0  0
 20 22  2  0  0  0  0
 20 39  1  0  0  0  0
 21 47  1  0  0  0  0
 22 40  1  0  0  0  0
 23 30  2  0  0  0  0
 23 56  1  0  0  0  0
 24 80  1  0  0  0  0
 25 81  1  0  0  0  0
 26 28  2  0  0  0  0
 26 80  1  0  0  0  0
 27 82  1  0  0  0  0
 28 83  1  0  0  0  0
 29 63  2  0  0  0  0
 30 50  1  0  0  0  0
 30 64  1  0  0  0  0
 31 64  2  0  0  0  0
 31 70  1  0  0  0  0
 32 65  1  0  0  0  0
 32 68  1  0  0  0  0
 33 69  1  0  0  0  0
 33 75  2  0  0  0  0
 34 48  1  0  0  0  0
 34 71  1  0  0  0  0
 34 76  2  0  0  0  0
 35 60  1  0  0  0  0
 35 66  1  0  0  0  0
 35 77  2  0  0  0  0
 36 61  1  0  0  0  0
 36 72  1  0  0  0  0
 36 78  2  0  0  0  0
 37 67  1  0  0  0  0
 37 73  1  0  0  0  0
 37 79  2  0  0  0  0
 38 41  1  0  0  0  0
 39 48  1  0  0  0  0
 40 66  1  0  0  0  0
 41 43  1  0  0  0  0
 42 44  1  0  0  0  0
 42 45  1  0  0  0  0
 43 47  1  0  0  0  0
 44 49  1  0  0  0  0
 45 67  1  0  0  0  0
 46 49  1  0  0  0  0
 46 67  1  0  0  0  0
 47 71  1  0  0  0  0
 48 66  1  0  0  0  0
 49 65  1  0  0  0  0
 51 61  1  0  0  0  0
 52 62  1  0  0  0  0
 53 62  1  0  0  0  0
 54 62  1  0  0  0  0
 55 74  1  0  0  0  0
 56 59  1  0  0  0  0
 57 58  1  0  0  0  0
 57 70  1  0  0  0  0
 58 73  1  0  0  0  0
 59 81  1  0  0  0  0
 60 62  1  0  0  0  0
 60 72  1  0  0  0  0
 61 74  1  0  0  0  0
 63 65  1  0  0  0  0
M  CHG  1  74   1
M  ISO  4  37 100  59 101  73 100  81 101
M  END
> <Batch ID>
0132

> <Smiles>
CNC(C)C(=O)NC(C(=O)N1Cc2cc([101O:1][101CH2:1]Cc3ccc(NCC[100NH:0][100C:0](=O)N4CCCC(n5nc(-c6ccc(Oc7ccc(F)cc7F)cc6)c(C(N)=O)c5N)C4)nc3C)ccc2CC1C(=O)NC1CCCc2ccccc21)C(C)(C)C

> <Shape>
0.211

> <Color>
0.082

> <Negative vol penalty>
0.000

$$$$

  -OEChem-04052320523D

 83 91  0     1  0  0  0  0  0999 V2000
  -19.3598  -25.2506   24.7084 C   0  0  0  0  0  0  0  0  0  0  0  0
  -20.7411  -25.2956   24.5494 C   0  0  0  0  0  0  0  0  0  0  0  0
  -28.3679  -14.0184   19.2175 C   0  0  0  0  0  0  0  0  0  0  0  0
  -26.3904  -15.1132   20.0708 C   0  0  0  0  0  0  0  0  0  0  0  0
  -18.5492  -26.1426   24.0076 C   0  0  0  0  0  0  0  0  0  0  0  0
  -21.3126  -26.2321   23.6887 C   0  0  0  0  0  0  0  0  0  0  0  0
  -26.6724  -29.1059   24.4096 C   0  0  0  0  0  0  0  0  0  0  0  0
  -27.9596  -25.9475   18.0387 C   0  0  0  0  0  0  0  0  0  0  0  0
  -27.8373  -12.7796   19.5773 C   0  0  0  0  0  0  0  0  0  0  0  0
  -25.8597  -13.8743   20.4305 C   0  0  0  0  0  0  0  0  0  0  0  0
  -27.9415  -28.8701   23.8827 C   0  0  0  0  0  0  0  0  0  0  0  0
  -24.3125  -11.2896   18.8988 C   0  0  0  0  0  0  0  0  0  0  0  0
  -22.9752  -11.0440   18.5874 C   0  0  0  0  0  0  0  0  0  0  0  0
  -28.1501  -24.6638   18.5379 C   0  0  0  0  0  0  0  0  0  0  0  0
  -27.5143  -30.4885   22.1456 C   0  0  0  0  0  0  0  0  0  0  0  0
  -22.4873  -10.7273   20.9324 C   0  0  0  0  0  0  0  0  0  0  0  0
  -27.6444  -15.1852   19.4643 C   0  0  0  0  0  0  0  0  0  0  0  0
  -28.0327  -17.1346   17.8654 C   0  0  0  0  0  0  0  0  0  0  0  0
  -19.1116  -27.0968   23.1452 C   0  0  0  0  0  0  0  0  0  0  0  0
  -25.8092  -30.0283   23.8010 C   0  0  0  0  0  0  0  0  0  0  0  0
  -20.5086  -27.1368   22.9747 C   0  0  0  0  0  0  0  0  0  0  0  0
  -26.2358  -30.7360   22.6682 C   0  0  0  0  0  0  0  0  0  0  0  0
  -28.7241  -26.9994   18.5310 C   0  0  0  0  0  0  0  0  0  0  0  0
  -26.5832  -12.7075   20.1837 C   0  0  0  0  0  0  0  0  0  0  0  0
  -28.3615  -29.5593   22.7488 C   0  0  0  0  0  0  0  0  0  0  0  0
  -24.7372  -11.2540   20.2270 C   0  0  0  0  0  0  0  0  0  0  0  0
  -22.0626  -10.7629   19.6042 C   0  0  0  0  0  0  0  0  0  0  0  0
  -23.8246  -10.9729   21.2438 C   0  0  0  0  0  0  0  0  0  0  0  0
  -28.1922  -16.4652   19.0935 C   0  0  0  0  0  0  0  0  0  0  0  0
  -29.1100  -24.4862   19.5211 C   0  0  0  0  0  0  0  0  0  0  0  0
  -29.6581  -26.7172   19.5148 C   0  0  0  0  0  0  0  0  0  0  0  0
  -28.7422  -18.3011   18.0154 C   0  0  0  0  0  0  0  0  0  0  0  0
  -27.3079  -16.7376   16.6937 C   0  0  0  0  0  0  0  0  0  0  0  0
  -22.9514  -29.8532   22.4205 C   0  0  0  0  0  0  0  0  0  0  0  0
  -23.2364  -33.0827   22.3148 C   0  0  0  0  0  0  0  0  0  0  0  0
  -25.2862  -35.8112   22.2961 C   0  0  0  0  0  0  0  0  0  0  0  0
  -30.1979  -22.7664   21.0062 C   0  0  0  0  0  0  0  0  0  0  0  0
  -18.1917  -28.0090   22.3729 C   0  0  0  0  0  0  0  0  0  0  0  0
  -24.4535  -30.2909   24.3974 C   0  0  0  0  0  0  0  0  0  0  0  0
  -25.3548  -31.7516   21.9894 C   0  0  0  0  0  0  0  0  0  0  0  0
  -18.9005  -29.2174   21.7666 C   0  0  0  0  0  0  0  0  0  0  0  0
  -31.9782  -19.7466   21.6293 C   0  0  0  0  0  0  0  0  0  0  0  0
  -20.1891  -28.7878   21.0726 C   0  0  0  0  0  0  0  0  0  0  0  0
  -31.1388  -18.6788   20.9241 C   0  0  0  0  0  0  0  0  0  0  0  0
  -31.1044  -20.8258   22.2660 C   0  0  0  0  0  0  0  0  0  0  0  0
  -29.2933  -20.3843   20.6553 C   0  0  0  0  0  0  0  0  0  0  0  0
  -21.1676  -28.1545   22.0691 C   0  0  1  0  0  0  0  0  0  0  0  0
  -23.4630  -30.8758   23.3953 C   0  0  1  0  0  0  0  0  0  0  0  0
  -30.1319  -19.3105   19.9430 C   0  0  2  0  0  0  0  0  0  0  0  0
  -27.0965  -28.9053   18.2621 C   0  0  0  0  0  0  0  0  0  0  0  0
  -28.8350  -28.4726   16.4886 C   0  0  0  0  0  0  0  0  0  0  0  0
  -25.2299  -38.3166   22.1639 C   0  0  0  0  0  0  0  0  0  0  0  0
  -22.6690  -32.9096   19.3218 C   0  0  0  0  0  0  0  0  0  0  0  0
  -23.5501  -35.2417   19.0906 C   0  0  0  0  0  0  0  0  0  0  0  0
  -21.5324  -34.8057   20.4911 C   0  0  0  0  0  0  0  0  0  0  0  0
  -26.5647  -36.0958   24.9500 C   0  0  0  0  0  0  0  0  0  0  0  0
  -31.1115  -27.7203   21.2775 C   0  0  0  0  0  0  0  0  0  0  0  0
  -30.1471  -28.0251   22.4115 C   0  0  0  0  0  0  0  0  0  1  0  0
  -28.5176  -28.3743   17.9930 C   0  0  0  0  0  0  0  0  0  0  0  0
  -23.8033  -34.0742   21.3275 C   0  0  1  0  0  0  0  0  0  0  0  0
  -25.2455  -37.1071   23.0857 C   0  0  2  0  0  0  0  0  0  0  0  0
  -22.9048  -34.2373   20.0692 C   0  0  0  0  0  0  0  0  0  0  0  0
  -28.9442  -17.1494   19.9598 N   0  0  0  0  0  0  0  0  0  0  0  0
  -29.8716  -25.4833   20.0243 N   0  0  0  0  0  0  0  0  0  0  0  0
  -29.2635  -18.2609   19.2750 N   0  0  0  0  0  0  0  0  0  0  0  0
  -24.0358  -31.9685   22.6065 N   0  0  0  0  0  0  0  0  0  0  0  0
  -30.1788  -21.3817   21.2765 N   0  0  0  0  0  0  0  0  0  0  0  0
  -28.9647  -19.3469   17.1913 N   0  0  0  0  0  0  0  0  0  0  0  0
  -26.6349  -15.5083   16.7090 N   0  0  0  0  0  0  0  0  0  0  0  0
  -29.2963  -23.1745   20.0237 N   0  0  0  0  0  0  0  0  0  0  0  0
  -30.4224  -27.7617   20.0080 N   0  0  0  0  0  0  0  0  0  0  0  0
  -21.8252  -29.1787   22.8520 N   0  0  0  0  0  0  0  0  0  0  0  0
  -24.0214  -35.3107   22.0704 N   0  0  0  0  0  0  0  0  0  0  0  0
  -26.4370  -37.2094   23.9750 N   0  3  0  0  0  0  0  0  0  0  0  0
  -27.2721  -17.4442   15.6579 O   0  0  0  0  0  0  0  0  0  0  0  0
  -23.5342  -29.6894   21.3551 O   0  0  0  0  0  0  0  0  0  0  0  0
  -22.1283  -33.2930   22.8143 O   0  0  0  0  0  0  0  0  0  0  0  0
  -26.3349  -35.2965   21.9142 O   0  0  0  0  0  0  0  0  0  0  0  0
  -30.9770  -23.5295   21.5828 O   0  0  0  0  0  0  0  0  0  0  0  0
  -26.0650  -11.4989   20.5346 O   0  0  0  0  0  0  0  0  0  0  0  0
  -29.5995  -29.3305   22.2321 O   0  0  0  0  0  0  0  0  0  1  0  0
  -20.7782  -10.5285   19.3052 F   0  0  0  0  0  0  0  0  0  0  0  0
  -24.2265  -10.9384   22.5217 F   0  0  0  0  0  0  0  0  0  0  0  0
  1  2  1  0  0  0  0
  1  5  2  0  0  0  0
  2  6  2  0  0  0  0
  3  9  2  0  0  0  0
  3 17  1  0  0  0  0
  4 10  1  0  0  0  0
  4 17  2  0  0  0  0
  5 19  1  0  0  0  0
  6 21  1  0  0  0  0
  7 11  2  0  0  0  0
  7 20  1  0  0  0  0
  8 14  2  0  0  0  0
  8 23  1  0  0  0  0
  9 24  1  0  0  0  0
 10 24  2  0  0  0  0
 11 25  1  0  0  0  0
 12 13  2  0  0  0  0
 12 26  1  0  0  0  0
 13 27  1  0  0  0  0
 14 30  1  0  0  0  0
 15 22  1  0  0  0  0
 15 25  2  0  0  0  0
 16 27  2  0  0  0  0
 16 28  1  0  0  0  0
 17 29  1  0  0  0  0
 18 29  1  0  0  0  0
 18 32  2  0  0  0  0
 18 33  1  0  0  0  0
 19 21  2  0  0  0  0
 19 38  1  0  0  0  0
 20 22  2  0  0  0  0
 20 39  1  0  0  0  0
 21 47  1  0  0  0  0
 22 40  1  0  0  0  0
 23 31  2  0  0  0  0
 23 59  1  0  0  0  0
 24 80  1  0  0  0  0
 25 81  1  0  0  0  0
 26 28  2  0  0  0  0
 26 80  1  0  0  0  0
 27 82  1  0  0  0  0
 28 83  1  0  0  0  0
 29 63  2  0  0  0  0
 30 64  2  0  0  0  0
 30 70  1  0  0  0  0
 31 64  1  0  0  0  0
 31 71  1  0  0  0  0
 32 65  1  0  0  0  0
 32 68  1  0  0  0  0
 33 69  1  0  0  0  0
 33 75  2  0  0  0  0
 34 48  1  0  0  0  0
 34 72  1  0  0  0  0
 34 76  2  0  0  0  0
 35 60  1  0  0  0  0
 35 66  1  0  0  0  0
 35 77  2  0  0  0  0
 36 61  1  0  0  0  0
 36 73  1  0  0  0  0
 36 78  2  0  0  0  0
 37 67  1  0  0  0  0
 37 70  1  0  0  0  0
 37 79  2  0  0  0  0
 38 41  1  0  0  0  0
 39 48  1  0  0  0  0
 40 66  1  0  0  0  0
 41 43  1  0  0  0  0
 42 44  1  0  0  0  0
 42 45  1  0  0  0  0
 43 47  1  0  0  0  0
 44 49  1  0  0  0  0
 45 67  1  0  0  0  0
 46 49  1  0  0  0  0
 46 67  1  0  0  0  0
 47 72  1  0  0  0  0
 48 66  1  0  0  0  0
 49 65  1  0  0  0  0
 50 59  1  0  0  0  0
 51 59  1  0  0  0  0
 52 61  1  0  0  0  0
 53 62  1  0  0  0  0
 54 62  1  0  0  0  0
 55 62  1  0  0  0  0
 56 74  1  0  0  0  0
 57 58  1  0  0  0  0
 57 71  1  0  0  0  0
 58 81  1  0  0  0  0
 60 62  1  0  0  0  0
 60 73  1  0  0  0  0
 61 74  1  0  0  0  0
 63 65  1  0  0  0  0
M  CHG  1  74   1
M  ISO  4  37 100  58 101  70 100  81 101
M  END
> <Batch ID>
0132

> <Smiles>
CNC(C)C(=O)NC(C(=O)N1Cc2cc([101O:1][101CH2:1]CNc3nc([100NH:0][100C:0](=O)N4CCCC(n5nc(-c6ccc(Oc7ccc(F)cc7F)cc6)c(C(N)=O)c5N)C4)ccc3C(C)C)ccc2CC1C(=O)NC1CCCc2ccccc21)C(C)(C)C

> <Shape>
0.297

> <Color>
0.103

> <Negative vol penalty>
0.000

$$$$

  -OEChem-04052320523D

 86 94  0     1  0  0  0  0  0999 V2000
  -30.1361  -25.0711   17.4886 C   0  0  0  0  0  0  0  0  0  0  0  0
  -28.9357  -25.7533   17.3256 C   0  0  0  0  0  0  0  0  0  0  0  0
  -26.4332  -13.7390   20.2771 C   0  0  0  0  0  0  0  0  0  0  0  0
  -24.0312  -13.8932   20.4867 C   0  0  0  0  0  0  0  0  0  0  0  0
  -30.6942  -24.9439   18.7589 C   0  0  0  0  0  0  0  0  0  0  0  0
  -28.2991  -26.3187   18.4309 C   0  0  0  0  0  0  0  0  0  0  0  0
  -22.9368  -29.1773   18.8802 C   0  0  0  0  0  0  0  0  0  0  0  0
  -26.4092  -12.4985   20.9145 C   0  0  0  0  0  0  0  0  0  0  0  0
  -24.0072  -12.6527   21.1241 C   0  0  0  0  0  0  0  0  0  0  0  0
  -21.6122  -28.8425   19.1582 C   0  0  0  0  0  0  0  0  0  0  0  0
  -23.2742   -9.3616   22.4840 C   0  0  0  0  0  0  0  0  0  0  0  0
  -22.3016   -8.4451   22.0845 C   0  0  0  0  0  0  0  0  0  0  0  0
  -21.9407  -29.4801   21.4614 C   0  0  0  0  0  0  0  0  0  0  0  0
  -19.1085  -22.1641   21.3219 C   0  0  0  0  0  0  0  0  0  0  0  0
  -20.3923  -23.7186   19.9906 C   0  0  0  0  0  0  0  0  0  0  0  0
  -23.1944   -8.4763   19.8397 C   0  0  0  0  0  0  0  0  0  0  0  0
  -25.2442  -14.4364   20.0632 C   0  0  0  0  0  0  0  0  0  0  0  0
  -25.1637  -15.9665   18.0236 C   0  0  0  0  0  0  0  0  0  0  0  0
  -30.0570  -25.4977   19.8816 C   0  0  0  0  0  0  0  0  0  0  0  0
  -23.7777  -29.6565   19.8948 C   0  0  0  0  0  0  0  0  0  0  0  0
  -28.8586  -26.2218   19.7178 C   0  0  0  0  0  0  0  0  0  0  0  0
  -23.2748  -29.8227   21.1931 C   0  0  0  0  0  0  0  0  0  0  0  0
  -19.1638  -23.2749   20.4802 C   0  0  0  0  0  0  0  0  0  0  0  0
  -20.2817  -21.4968   21.6741 C   0  0  0  0  0  0  0  0  0  0  0  0
  -21.5655  -23.0513   20.3428 C   0  0  0  0  0  0  0  0  0  0  0  0
  -21.5102  -21.9404   21.1845 C   0  0  0  0  0  0  0  0  0  0  0  0
  -25.1962  -11.9554   21.3380 C   0  0  0  0  0  0  0  0  0  0  0  0
  -21.1148  -28.9911   20.4495 C   0  0  0  0  0  0  0  0  0  0  0  0
  -24.2069   -9.8356   21.5614 C   0  0  0  0  0  0  0  0  0  0  0  0
  -22.2617   -8.0024   20.7624 C   0  0  0  0  0  0  0  0  0  0  0  0
  -24.1669   -9.3929   20.2393 C   0  0  0  0  0  0  0  0  0  0  0  0
  -25.2685  -15.7180   19.4053 C   0  0  0  0  0  0  0  0  0  0  0  0
  -25.2410  -17.3334   17.9137 C   0  0  0  0  0  0  0  0  0  0  0  0
  -25.0101  -15.0441   16.9367 C   0  0  0  0  0  0  0  0  0  0  0  0
  -26.4738  -28.6428   21.2391 C   0  0  0  0  0  0  0  0  0  0  0  0
  -26.3308  -31.5022   22.7641 C   0  0  0  0  0  0  0  0  0  0  0  0
  -24.4188  -34.1049   23.8675 C   0  0  0  0  0  0  0  0  0  0  0  0
  -23.9793  -21.8084   21.6669 C   0  0  0  0  0  0  0  0  0  0  0  0
  -30.7091  -25.3369   21.2322 C   0  0  0  0  0  0  0  0  0  0  0  0
  -25.1965  -30.0385   19.5729 C   0  0  0  0  0  0  0  0  0  0  0  0
  -24.1308  -30.3524   22.3134 C   0  0  0  0  0  0  0  0  0  0  0  0
  -29.7464  -25.5803   22.3899 C   0  0  0  0  0  0  0  0  0  0  0  0
  -27.1087  -21.1659   20.0950 C   0  0  0  0  0  0  0  0  0  0  0  0
  -28.9958  -26.8862   22.1760 C   0  0  0  0  0  0  0  0  0  0  0  0
  -26.9801  -19.7205   19.6086 C   0  0  0  0  0  0  0  0  0  0  0  0
  -26.4157  -21.3754   21.4402 C   0  0  0  0  0  0  0  0  0  0  0  0
  -24.8857  -19.4942   21.0048 C   0  0  0  0  0  0  0  0  0  0  0  0
  -28.1325  -26.8188   20.9098 C   0  0  1  0  0  0  0  0  0  0  0  0
  -26.1093  -30.0313   20.7952 C   0  0  1  0  0  0  0  0  0  0  0  0
  -25.5125  -19.2498   19.6224 C   0  0  2  0  0  0  0  0  0  0  0  0
  -20.1904  -20.3100   22.5780 C   0  0  0  0  0  0  0  0  0  0  0  0
  -24.4663  -25.5076   19.6666 C   0  0  0  0  0  0  0  0  0  0  0  0
  -24.5787  -36.2770   25.1140 C   0  0  0  0  0  0  0  0  0  0  0  0
  -26.5910  -29.9727   25.3914 C   0  0  0  0  0  0  0  0  0  0  0  0
  -25.8012  -32.0269   26.5850 C   0  0  0  0  0  0  0  0  0  0  0  0
  -27.9249  -32.0850   25.2776 C   0  0  0  0  0  0  0  0  0  0  0  0
  -23.4235  -35.6448   21.5444 C   0  0  0  0  0  0  0  0  0  0  0  0
  -17.9011  -23.9934   20.1013 C   0  0  0  0  0  0  0  0  0  0  0  0
  -22.8667  -23.5500   19.8020 C   0  0  0  0  0  0  0  0  0  0  0  0
  -23.1271  -25.0124   20.1893 C   0  0  0  0  0  0  0  0  0  0  0  0
  -17.5237  -25.1220   21.0556 C   0  0  0  0  0  0  0  0  0  0  0  0
  -18.3287  -27.2859   22.0085 C   0  0  0  0  0  0  0  0  0  0  0  0
  -19.5351  -28.2033   22.0431 C   0  0  0  0  0  0  0  0  0  1  0  0
  -25.7160  -31.9982   24.0506 C   0  0  1  0  0  0  0  0  0  0  0  0
  -24.5978  -35.6076   23.7486 C   0  0  2  0  0  0  0  0  0  0  0  0
  -26.4924  -31.5089   25.3057 C   0  0  0  0  0  0  0  0  0  0  0  0
  -25.4023  -16.8373   20.1218 N   0  0  0  0  0  0  0  0  0  0  0  0
  -25.3823  -17.8023   19.1866 N   0  0  0  0  0  0  0  0  0  0  0  0
  -25.5130  -30.7060   21.9500 N   0  0  0  0  0  0  0  0  0  0  0  0
  -25.0283  -20.9106   21.3767 N   0  0  0  0  0  0  0  0  0  0  0  0
  -25.2014  -18.1679   16.8533 N   0  0  0  0  0  0  0  0  0  0  0  0
  -24.9481  -13.6743   17.2265 N   0  0  0  0  0  0  0  0  0  0  0  0
  -22.7021  -21.2627   21.5420 N   0  0  0  0  0  0  0  0  0  0  0  0
  -27.6044  -28.1354   20.6278 N   0  0  0  0  0  0  0  0  0  0  0  0
  -25.6304  -33.4495   23.9292 N   0  0  0  0  0  0  0  0  0  0  0  0
  -23.5062  -36.1954   22.9217 N   0  3  0  0  0  0  0  0  0  0  0  0
  -18.6279  -26.1152   21.1459 N   0  3  0  0  0  0  0  0  0  0  0  0
  -24.9466  -15.4224   15.7424 O   0  0  0  0  0  0  0  0  0  0  0  0
  -25.7815  -28.0746   22.0755 O   0  0  0  0  0  0  0  0  0  0  0  0
  -27.4915  -31.8159   22.4883 O   0  0  0  0  0  0  0  0  0  0  0  0
  -23.3146  -33.5665   23.9059 O   0  0  0  0  0  0  0  0  0  0  0  0
  -24.1970  -22.9830   21.9752 O   0  0  0  0  0  0  0  0  0  0  0  0
  -25.1723  -10.7449   21.9598 O   0  0  0  0  0  0  0  0  0  0  0  0
  -19.8225  -28.6644   20.7237 O   0  0  0  0  0  0  0  0  0  1  0  0
  -21.3286   -7.1211   20.3792 F   0  0  0  0  0  0  0  0  0  0  0  0
  -25.0610   -9.8437   19.3486 F   0  0  0  0  0  0  0  0  0  0  0  0
  1  2  1  0  0  0  0
  1  5  2  0  0  0  0
  2  6  2  0  0  0  0
  3  8  2  0  0  0  0
  3 17  1  0  0  0  0
  4  9  1  0  0  0  0
  4 17  2  0  0  0  0
  5 19  1  0  0  0  0
  6 21  1  0  0  0  0
  7 10  2  0  0  0  0
  7 20  1  0  0  0  0
  8 27  1  0  0  0  0
  9 27  2  0  0  0  0
 10 28  1  0  0  0  0
 11 12  2  0  0  0  0
 11 29  1  0  0  0  0
 12 30  1  0  0  0  0
 13 22  1  0  0  0  0
 13 28  2  0  0  0  0
 14 23  1  0  0  0  0
 14 24  2  0  0  0  0
 15 23  2  0  0  0  0
 15 25  1  0  0  0  0
 16 30  2  0  0  0  0
 16 31  1  0  0  0  0
 17 32  1  0  0  0  0
 18 32  1  0  0  0  0
 18 33  2  0  0  0  0
 18 34  1  0  0  0  0
 19 21  2  0  0  0  0
 19 39  1  0  0  0  0
 20 22  2  0  0  0  0
 20 40  1  0  0  0  0
 21 48  1  0  0  0  0
 22 41  1  0  0  0  0
 23 58  1  0  0  0  0
 24 26  1  0  0  0  0
 24 51  1  0  0  0  0
 25 26  2  0  0  0  0
 25 59  1  0  0  0  0
 26 73  1  0  0  0  0
 27 83  1  0  0  0  0
 28 84  1  0  0  0  0
 29 31  2  0  0  0  0
 29 83  1  0  0  0  0
 30 85  1  0  0  0  0
 31 86  1  0  0  0  0
 32 67  2  0  0  0  0
 33 68  1  0  0  0  0
 33 71  1  0  0  0  0
 34 72  1  0  0  0  0
 34 78  2  0  0  0  0
 35 49  1  0  0  0  0
 35 74  1  0  0  0  0
 35 79  2  0  0  0  0
 36 64  1  0  0  0  0
 36 69  1  0  0  0  0
 36 80  2  0  0  0  0
 37 65  1  0  0  0  0
 37 75  1  0  0  0  0
 37 81  2  0  0  0  0
 38 70  1  0  0  0  0
 38 73  1  0  0  0  0
 38 82  2  0  0  0  0
 39 42  1  0  0  0  0
 40 49  1  0  0  0  0
 41 69  1  0  0  0  0
 42 44  1  0  0  0  0
 43 45  1  0  0  0  0
 43 46  1  0  0  0  0
 44 48  1  0  0  0  0
 45 50  1  0  0  0  0
 46 70  1  0  0  0  0
 47 50  1  0  0  0  0
 47 70  1  0  0  0  0
 48 74  1  0  0  0  0
 49 69  1  0  0  0  0
 50 68  1  0  0  0  0
 52 60  1  0  0  0  0
 53 65  1  0  0  0  0
 54 66  1  0  0  0  0
 55 66  1  0  0  0  0
 56 66  1  0  0  0  0
 57 76  1  0  0  0  0
 58 61  1  0  0  0  0
 59 60  1  0  0  0  0
 61 77  1  0  0  0  0
 62 63  1  0  0  0  0
 62 77  1  0  0  0  0
 63 84  1  0  0  0  0
 64 66  1  0  0  0  0
 64 75  1  0  0  0  0
 65 76  1  0  0  0  0
 67 68  1  0  0  0  0
M  CHG  2  76   1  77   1
M  ISO  4  38 100  63 101  73 100  84 101
M  END
> <Batch ID>
0132

> <Smiles>
CCCc1cc(CCNC[101CH2:1][101O:1]c2ccc3c(c2)CN(C(=O)C(NC(=O)C(C)NC)C(C)(C)C)C(C(=O)NC2CCCc4ccccc42)C3)cc(C)c1[100NH:0][100C:0](=O)N1CCCC(n2nc(-c3ccc(Oc4ccc(F)cc4F)cc3)c(C(N)=O)c2N)C1

> <Shape>
0.288

> <Color>
0.087

> <Negative vol penalty>
0.000

$$$$

  -OEChem-04052320523D

 88 97  0     1  0  0  0  0  0999 V2000
  -23.0088  -23.5068   17.9517 C   0  0  0  0  0  0  0  0  0  0  0  0
  -24.1418  -22.8383   18.4042 C   0  0  0  0  0  0  0  0  0  0  0  0
  -23.0070  -29.5370   21.6129 C   0  0  0  0  0  0  0  0  0  0  0  0
  -24.0551  -27.8252   22.9577 C   0  0  0  0  0  0  0  0  0  0  0  0
  -21.7435  -23.0862   18.3589 C   0  0  0  0  0  0  0  0  0  0  0  0
  -24.0102  -21.7493   19.2652 C   0  0  0  0  0  0  0  0  0  0  0  0
  -26.9693  -17.8583   17.9429 C   0  0  0  0  0  0  0  0  0  0  0  0
  -32.5767  -20.0224   19.0195 C   0  0  0  0  0  0  0  0  0  0  0  0
  -21.8873  -29.5044   22.4440 C   0  0  0  0  0  0  0  0  0  0  0  0
  -22.9354  -27.7927   23.7889 C   0  0  0  0  0  0  0  0  0  0  0  0
  -28.3212  -17.9459   18.2721 C   0  0  0  0  0  0  0  0  0  0  0  0
  -31.9746  -18.7653   19.0710 C   0  0  0  0  0  0  0  0  0  0  0  0
  -18.6038  -29.6150   24.0028 C   0  0  0  0  0  0  0  0  0  0  0  0
  -17.3463  -29.6037   23.3993 C   0  0  0  0  0  0  0  0  0  0  0  0
  -27.9410  -16.5270   20.1855 C   0  0  0  0  0  0  0  0  0  0  0  0
  -30.0732  -19.7228   20.2133 C   0  0  0  0  0  0  0  0  0  0  0  0
  -17.9040  -27.5387   22.2760 C   0  0  0  0  0  0  0  0  0  0  0  0
  -24.0909  -28.6973   21.8697 C   0  0  0  0  0  0  0  0  0  0  0  0
  -26.3894  -29.5410   21.1538 C   0  0  0  0  0  0  0  0  0  0  0  0
  -21.5957  -21.9855   19.2177 C   0  0  0  0  0  0  0  0  0  0  0  0
  -26.0895  -17.1121   18.7401 C   0  0  0  0  0  0  0  0  0  0  0  0
  -22.7417  -21.3144   19.6854 C   0  0  0  0  0  0  0  0  0  0  0  0
  -26.5789  -16.4294   19.8629 C   0  0  0  0  0  0  0  0  0  0  0  0
  -30.6753  -20.9799   20.1618 C   0  0  0  0  0  0  0  0  0  0  0  0
  -31.9271  -21.1297   19.5649 C   0  0  0  0  0  0  0  0  0  0  0  0
  -21.8515  -28.6323   23.5321 C   0  0  0  0  0  0  0  0  0  0  0  0
  -28.8068  -17.2826   19.3952 C   0  0  0  0  0  0  0  0  0  0  0  0
  -30.7229  -18.6155   19.6680 C   0  0  0  0  0  0  0  0  0  1  0  0
  -19.5114  -28.5882   23.7429 C   0  0  0  0  0  0  0  0  0  0  0  0
  -16.9964  -28.5656   22.5359 C   0  0  0  0  0  0  0  0  0  0  0  0
  -19.1615  -27.5501   22.8795 C   0  0  0  0  0  0  0  0  0  0  0  0
  -25.2476  -28.7301   21.0112 C   0  0  0  0  0  0  0  0  0  0  0  0
  -27.1901  -29.1963   20.0924 C   0  0  0  0  0  0  0  0  0  0  0  0
  -26.6987  -30.5185   22.1561 C   0  0  0  0  0  0  0  0  0  0  0  0
  -23.5103  -17.7867   20.4710 C   0  0  0  0  0  0  0  0  0  0  0  0
  -23.3797  -14.5643   20.8194 C   0  0  0  0  0  0  0  0  0  0  0  0
  -25.0332  -11.5789   20.8013 C   0  0  0  0  0  0  0  0  0  0  0  0
  -29.5064  -25.3340   16.7964 C   0  0  0  0  0  0  0  0  0  0  0  0
  -20.2098  -21.5971   19.6681 C   0  0  0  0  0  0  0  0  0  0  0  0
  -24.6391  -17.0057   18.3563 C   0  0  0  0  0  0  0  0  0  0  0  0
  -25.6796  -15.5985   20.7400 C   0  0  0  0  0  0  0  0  0  0  0  0
  -20.1380  -20.2021   20.2837 C   0  0  0  0  0  0  0  0  0  0  0  0
  -26.2034  -26.3961   15.9970 C   0  0  0  0  0  0  0  0  0  0  0  0
  -28.5881  -22.3824   20.0855 C   0  0  0  0  0  0  0  0  0  0  0  0
  -21.2710  -20.0014   21.2850 C   0  0  0  0  0  0  0  0  0  0  0  0
  -27.5512  -22.1418   21.1780 C   0  0  0  0  0  0  0  0  0  0  0  0
  -25.7527  -27.1591   17.2439 C   0  0  0  0  0  0  0  0  0  0  0  0
  -29.6681  -21.9296   22.2464 C   0  0  0  0  0  0  0  0  0  0  0  0
  -27.0729  -25.1929   16.3552 C   0  0  0  0  0  0  0  0  0  0  0  0
  -27.7829  -26.2635   18.4584 C   0  0  0  0  0  0  0  0  0  0  0  0
  -29.9601  -22.1510   20.7512 C   0  0  1  0  0  0  0  0  0  0  0  0
  -22.6386  -20.1135   20.6004 C   0  0  1  0  0  0  0  0  0  0  0  0
  -23.7360  -16.6376   19.5295 C   0  0  1  0  0  0  0  0  0  0  0  0
  -28.2818  -22.5352   22.4572 C   0  0  2  0  0  0  0  0  0  0  0  0
  -26.9496  -27.5180   18.1449 C   0  0  2  0  0  0  0  0  0  0  0  0
  -24.6671   -9.1221   21.1583 C   0  0  0  0  0  0  0  0  0  0  0  0
  -23.2801  -15.0198   23.8348 C   0  0  0  0  0  0  0  0  0  0  0  0
  -23.8704  -12.6071   24.1486 C   0  0  0  0  0  0  0  0  0  0  0  0
  -21.7462  -13.2302   22.9988 C   0  0  0  0  0  0  0  0  0  0  0  0
  -25.8647  -10.9348   18.0349 C   0  0  0  0  0  0  0  0  0  0  0  0
  -32.5907  -22.4659   19.4971 C   0  0  0  0  0  0  0  0  0  0  0  0
  -27.5943  -22.0338   23.7154 C   0  0  0  0  0  0  0  0  0  0  0  0
  -31.9096  -25.5627   17.3722 C   0  0  0  0  0  0  0  0  0  0  0  0
  -32.6021  -24.7243   18.4304 C   0  0  0  0  0  0  0  0  0  0  0  0
  -23.9482  -13.5716   21.8045 C   0  0  1  0  0  0  0  0  0  0  0  0
  -24.7081  -10.2514   20.1406 C   0  0  2  0  0  0  0  0  0  0  0  0
  -23.2281  -13.6243   23.1814 C   0  0  0  0  0  0  0  0  0  0  0  0
  -25.3131  -27.9305   19.9433 N   0  0  0  0  0  0  0  0  0  0  0  0
  -26.5057  -28.2374   19.4052 N   0  0  0  0  0  0  0  0  0  0  0  0
  -24.2682  -15.5306   20.3267 N   0  0  0  0  0  0  0  0  0  0  0  0
  -28.1907  -25.6015   17.2093 N   0  0  0  0  0  0  0  0  0  0  0  0
  -28.4058  -29.6229   19.6893 N   0  0  0  0  0  0  0  0  0  0  0  0
  -25.7648  -30.7486   23.1755 N   0  0  0  0  0  0  0  0  0  0  0  0
  -22.9427  -18.8977   19.8768 N   0  0  0  0  0  0  0  0  0  0  0  0
  -23.8915  -12.2689   21.1500 N   0  0  0  0  0  0  0  0  0  0  0  0
  -30.5067  -25.7602   17.6615 N   0  0  0  0  0  0  0  0  0  0  0  0
  -26.2452  -22.6357   23.8000 N   0  3  0  0  0  0  0  0  0  0  0  0
  -25.7340   -9.9198   19.1118 N   0  3  0  0  0  0  0  0  0  0  0  0
  -31.9938  -23.3688   18.4757 N   0  3  0  0  0  0  0  0  0  0  0  0
  -27.7642  -31.1803   22.1387 O   0  0  0  0  0  0  0  0  0  0  0  0
  -23.8262  -17.6732   21.6495 O   0  0  0  0  0  0  0  0  0  0  0  0
  -22.1930  -14.4809   20.4934 O   0  0  0  0  0  0  0  0  0  0  0  0
  -26.1847  -11.9634   20.9925 O   0  0  0  0  0  0  0  0  0  0  0  0
  -29.7702  -24.7628   15.7329 O   0  0  0  0  0  0  0  0  0  0  0  0
  -20.7592  -28.6005   24.3435 O   0  0  0  0  0  0  0  0  0  0  0  0
  -30.1258  -17.3670   19.7191 O   0  0  0  0  0  0  0  0  0  1  0  0
  -15.7883  -28.5541   21.9576 F   0  0  0  0  0  0  0  0  0  0  0  0
  -20.0288  -26.5602   22.6269 F   0  0  0  0  0  0  0  0  0  0  0  0
  1  2  1  0  0  0  0
  1  5  2  0  0  0  0
  2  6  2  0  0  0  0
  3  9  2  0  0  0  0
  3 18  1  0  0  0  0
  4 10  1  0  0  0  0
  4 18  2  0  0  0  0
  5 20  1  0  0  0  0
  6 22  1  0  0  0  0
  7 11  2  0  0  0  0
  7 21  1  0  0  0  0
  8 12  2  0  0  0  0
  8 25  1  0  0  0  0
  9 26  1  0  0  0  0
 10 26  2  0  0  0  0
 11 27  1  0  0  0  0
 12 28  1  0  0  0  0
 13 14  2  0  0  0  0
 13 29  1  0  0  0  0
 14 30  1  0  0  0  0
 15 23  1  0  0  0  0
 15 27  2  0  0  0  0
 16 24  1  0  0  0  0
 16 28  2  0  0  0  0
 17 30  2  0  0  0  0
 17 31  1  0  0  0  0
 18 32  1  0  0  0  0
 19 32  1  0  0  0  0
 19 33  2  0  0  0  0
 19 34  1  0  0  0  0
 20 22  2  0  0  0  0
 20 39  1  0  0  0  0
 21 23  2  0  0  0  0
 21 40  1  0  0  0  0
 22 52  1  0  0  0  0
 23 41  1  0  0  0  0
 24 25  2  0  0  0  0
 24 51  1  0  0  0  0
 25 61  1  0  0  0  0
 26 85  1  0  0  0  0
 27 86  1  0  0  0  0
 28 86  1  0  0  0  0
 29 31  2  0  0  0  0
 29 85  1  0  0  0  0
 30 87  1  0  0  0  0
 31 88  1  0  0  0  0
 32 68  2  0  0  0  0
 33 69  1  0  0  0  0
 33 72  1  0  0  0  0
 34 73  1  0  0  0  0
 34 80  2  0  0  0  0
 35 53  1  0  0  0  0
 35 74  1  0  0  0  0
 35 81  2  0  0  0  0
 36 65  1  0  0  0  0
 36 70  1  0  0  0  0
 36 82  2  0  0  0  0
 37 66  1  0  0  0  0
 37 75  1  0  0  0  0
 37 83  2  0  0  0  0
 38 71  1  0  0  0  0
 38 76  1  0  0  0  0
 38 84  2  0  0  0  0
 39 42  1  0  0  0  0
 40 53  1  0  0  0  0
 41 70  1  0  0  0  0
 42 45  1  0  0  0  0
 43 47  1  0  0  0  0
 43 49  1  0  0  0  0
 44 46  1  0  0  0  0
 44 51  1  0  0  0  0
 45 52  1  0  0  0  0
 46 54  1  0  0  0  0
 47 55  1  0  0  0  0
 48 51  1  0  0  0  0
 48 54  1  0  0  0  0
 49 71  1  0  0  0  0
 50 55  1  0  0  0  0
 50 71  1  0  0  0  0
 52 74  1  0  0  0  0
 53 70  1  0  0  0  0
 54 62  1  0  0  0  0
 55 69  1  0  0  0  0
 56 66  1  0  0  0  0
 57 67  1  0  0  0  0
 58 67  1  0  0  0  0
 59 67  1  0  0  0  0
 60 78  1  0  0  0  0
 61 79  1  0  0  0  0
 62 77  1  0  0  0  0
 63 64  1  0  0  0  0
 63 76  1  0  0  0  0
 64 79  1  0  0  0  0
 65 67  1  0  0  0  0
 65 75  1  0  0  0  0
 66 78  1  0  0  0  0
 68 69  1  0  0  0  0
M  CHG  3  77   1  78   1  79   1
M  ISO  4  28 101  38 100  76 100  86 101
M  END
> <Batch ID>
0132

> <Smiles>
CNC(C)C(=O)NC(C(=O)N1Cc2cc([101O:1][101c:1]3ccc(CNCC[100NH:0][100C:0](=O)N4CCCC(n5nc(-c6ccc(Oc7ccc(F)cc7F)cc6)c(C(N)=O)c5N)C4)c(C4CCC(CN)C4)c3)ccc2CC1C(=O)NC1CCCc2ccccc21)C(C)(C)C

> <Shape>
0.242

> <Color>
0.067

> <Negative vol penalty>
0.000

$$$$

  -OEChem-04052320523D

 88 97  0     1  0  0  0  0  0999 V2000
  -21.8763   -8.7849   20.9227 C   0  0  0  0  0  0  0  0  0  0  0  0
  -22.0240  -10.1334   21.2313 C   0  0  0  0  0  0  0  0  0  0  0  0
  -29.4267  -27.4921   19.9099 C   0  0  0  0  0  0  0  0  0  0  0  0
  -27.3386  -26.2912   19.7244 C   0  0  0  0  0  0  0  0  0  0  0  0
  -22.8494  -22.2530   22.0255 C   0  0  0  0  0  0  0  0  0  0  0  0
  -22.6116  -21.2235   24.1982 C   0  0  0  0  0  0  0  0  0  0  0  0
  -22.9791   -7.9337   20.9770 C   0  0  0  0  0  0  0  0  0  0  0  0
  -23.2746  -10.6312   21.5955 C   0  0  0  0  0  0  0  0  0  0  0  0
  -24.3674  -15.0092   19.2968 C   0  0  0  0  0  0  0  0  0  0  0  0
  -23.6151  -21.1692   21.5958 C   0  0  0  0  0  0  0  0  0  0  0  0
  -23.3772  -20.1396   23.7685 C   0  0  0  0  0  0  0  0  0  0  0  0
  -30.1274  -26.3130   19.6563 C   0  0  0  0  0  0  0  0  0  0  0  0
  -28.0393  -25.1120   19.4708 C   0  0  0  0  0  0  0  0  0  0  0  0
  -23.7689  -16.1615   19.8044 C   0  0  0  0  0  0  0  0  0  0  0  0
  -29.7344  -22.7896   21.2495 C   0  0  0  0  0  0  0  0  0  0  0  0
  -29.3284  -21.6371   21.9221 C   0  0  0  0  0  0  0  0  0  0  0  0
  -25.8072  -16.6956   20.9788 C   0  0  0  0  0  0  0  0  0  0  0  0
  -28.8800  -20.5603   19.8063 C   0  0  0  0  0  0  0  0  0  0  0  0
  -28.0323  -27.4812   19.9440 C   0  0  0  0  0  0  0  0  0  0  0  0
  -22.3478  -22.2802   23.3268 C   0  0  0  0  0  0  0  0  0  0  0  0
  -27.3405  -29.8868   19.4520 C   0  0  0  0  0  0  0  0  0  0  0  0
  -24.2458   -8.4232   21.3326 C   0  0  0  0  0  0  0  0  0  0  0  0
  -25.6890  -14.6851   19.6358 C   0  0  0  0  0  0  0  0  0  0  0  0
  -24.3952   -9.7854   21.6559 C   0  0  0  0  0  0  0  0  0  0  0  0
  -26.4210  -15.5398   20.4722 C   0  0  0  0  0  0  0  0  0  0  0  0
  -23.8790  -20.1125   22.4672 C   0  0  0  0  0  0  0  0  0  0  0  0
  -29.4337  -25.1230   19.4367 C   0  0  0  0  0  0  0  0  0  0  0  0
  -24.4879  -17.0034   20.6478 C   0  0  0  0  0  0  0  0  0  0  0  0
  -29.7130  -22.8275   19.8553 C   0  0  0  0  0  0  0  0  0  0  0  0
  -28.9013  -20.5224   21.2005 C   0  0  0  0  0  0  0  0  0  0  0  0
  -29.2859  -21.7129   19.1337 C   0  0  0  0  0  0  0  0  0  0  0  0
  -27.3079  -28.6988   20.2065 C   0  0  0  0  0  0  0  0  0  0  0  0
  -26.4863  -30.7361   20.1118 C   0  0  0  0  0  0  0  0  0  0  0  0
  -21.5495  -23.4103   23.7752 C   0  0  0  0  0  0  0  0  0  0  0  0
  -20.9048  -24.2911   22.9764 C   0  0  0  0  0  0  0  0  0  0  0  0
  -28.0771  -30.1951   18.2611 C   0  0  0  0  0  0  0  0  0  0  0  0
  -27.0875  -12.2648   21.1491 C   0  0  0  0  0  0  0  0  0  0  0  0
  -29.8086  -13.7793   20.2410 C   0  0  0  0  0  0  0  0  0  0  0  0
  -31.3340  -16.6878   19.3132 C   0  0  0  0  0  0  0  0  0  0  0  0
  -21.8106  -29.8116   23.7360 C   0  0  0  0  0  0  0  0  0  0  0  0
  -25.3989   -7.4553   21.4233 C   0  0  0  0  0  0  0  0  0  0  0  0
  -26.3289  -13.4523   19.0585 C   0  0  0  0  0  0  0  0  0  0  0  0
  -27.8493  -15.2475   20.8503 C   0  0  0  0  0  0  0  0  0  0  0  0
  -26.7648   -8.1364   21.4548 C   0  0  0  0  0  0  0  0  0  0  0  0
  -24.7596  -31.6642   24.4763 C   0  0  0  0  0  0  0  0  0  0  0  0
  -26.7593   -9.2983   22.4430 C   0  0  0  0  0  0  0  0  0  0  0  0
  -25.7501  -31.2214   23.3978 C   0  0  0  0  0  0  0  0  0  0  0  0
  -17.8260  -27.5672   22.7609 C   0  0  0  0  0  0  0  0  0  0  0  0
  -23.8657  -30.5118   24.9289 C   0  0  0  0  0  0  0  0  0  0  0  0
  -24.1461  -29.3717   22.7619 C   0  0  0  0  0  0  0  0  0  0  0  0
  -17.4916  -27.6931   21.2812 C   0  0  0  0  0  0  0  0  0  0  0  0
  -19.4958  -29.1657   20.9332 C   0  0  0  0  0  0  0  0  0  0  0  0
  -25.7405  -10.3679   22.0313 C   0  0  1  0  0  0  0  0  0  0  0  0
  -27.5117  -12.9518   19.8818 C   0  0  1  0  0  0  0  0  0  0  0  0
  -25.0318  -30.5130   22.2336 C   0  0  2  0  0  0  0  0  0  0  0  0
  -19.8472  -29.0635   22.4163 C   0  0  1  0  0  0  0  0  0  0  0  0
  -19.3124  -27.7755   23.0623 C   0  0  2  0  0  0  0  0  0  0  0  0
  -33.5737  -17.6196   18.6708 C   0  0  0  0  0  0  0  0  0  0  0  0
  -30.6709  -13.7175   23.1672 C   0  0  0  0  0  0  0  0  0  0  0  0
  -32.3940  -15.4506   22.6237 C   0  0  0  0  0  0  0  0  0  0  0  0
  -32.4934  -13.2100   21.5316 C   0  0  0  0  0  0  0  0  0  0  0  0
  -30.3598  -17.4963   16.6381 C   0  0  0  0  0  0  0  0  0  0  0  0
  -24.7007  -18.9458   22.0035 C   0  0  0  0  0  0  0  0  0  1  0  0
  -20.0827  -25.4322   23.4855 C   0  0  0  0  0  0  0  0  0  0  0  0
  -30.6914  -14.8448   20.8446 C   0  0  1  0  0  0  0  0  0  0  0  0
  -32.2748  -17.0104   18.1664 C   0  0  2  0  0  0  0  0  0  0  0  0
  -31.5349  -14.3105   22.0364 C   0  0  0  0  0  0  0  0  0  0  0  0
  -26.4973  -28.7821   21.2648 N   0  0  0  0  0  0  0  0  0  0  0  0
  -26.0127  -30.0327   21.1800 N   0  0  0  0  0  0  0  0  0  0  0  0
  -28.4287  -14.0270   20.2654 N   0  0  0  0  0  0  0  0  0  0  0  0
  -23.2128  -29.8839   23.7776 N   0  0  0  0  0  0  0  0  0  0  0  0
  -26.1017  -32.0086   19.8767 N   0  0  0  0  0  0  0  0  0  0  0  0
  -27.4827  -29.9288   17.0201 N   0  0  0  0  0  0  0  0  0  0  0  0
  -26.2634  -11.1738   20.9489 N   0  0  0  0  0  0  0  0  0  0  0  0
  -31.4846  -15.3876   19.7471 N   0  0  0  0  0  0  0  0  0  0  0  0
  -21.2727  -29.2067   22.6066 N   0  0  0  0  0  0  0  0  0  0  0  0
  -18.0205  -28.9903   20.7654 N   0  3  0  0  0  0  0  0  0  0  0  0
  -20.0768  -26.5951   22.5602 N   0  3  0  0  0  0  0  0  0  0  0  0
  -31.6358  -17.9762   17.2283 N   0  3  0  0  0  0  0  0  0  0  0  0
  -29.2348  -30.6767   18.2966 O   0  0  0  0  0  0  0  0  0  0  0  0
  -27.4801  -12.6920   22.2284 O   0  0  0  0  0  0  0  0  0  0  0  0
  -30.3247  -12.7679   19.7591 O   0  0  0  0  0  0  0  0  0  0  0  0
  -30.5469  -17.5082   19.7802 O   0  0  0  0  0  0  0  0  0  0  0  0
  -21.0912  -30.2582   24.6360 O   0  0  0  0  0  0  0  0  0  0  0  0
  -30.1171  -23.9723   19.1889 O   0  0  0  0  0  0  0  0  0  0  0  0
  -23.9059  -18.1285   21.1451 O   0  0  0  0  0  0  0  0  0  1  0  0
  -28.5129  -19.4151   21.8465 F   0  0  0  0  0  0  0  0  0  0  0  0
  -29.2643  -21.7429   17.7941 F   0  0  0  0  0  0  0  0  0  0  0  0
  1  2  1  0  0  0  0
  1  7  2  0  0  0  0
  2  8  2  0  0  0  0
  3 12  2  0  0  0  0
  3 19  1  0  0  0  0
  4 13  1  0  0  0  0
  4 19  2  0  0  0  0
  5 10  2  0  0  0  0
  5 20  1  0  0  0  0
  6 11  1  0  0  0  0
  6 20  2  0  0  0  0
  7 22  1  0  0  0  0
  8 24  1  0  0  0  0
  9 14  2  0  0  0  0
  9 23  1  0  0  0  0
 10 26  1  0  0  0  0
 11 26  2  0  0  0  0
 12 27  1  0  0  0  0
 13 27  2  0  0  0  0
 14 28  1  0  0  0  0
 15 16  2  0  0  0  0
 15 29  1  0  0  0  0
 16 30  1  0  0  0  0
 17 25  1  0  0  0  0
 17 28  2  0  0  0  0
 18 30  2  0  0  0  0
 18 31  1  0  0  0  0
 19 32  1  0  0  0  0
 20 34  1  0  0  0  0
 21 32  1  0  0  0  0
 21 33  2  0  0  0  0
 21 36  1  0  0  0  0
 22 24  2  0  0  0  0
 22 41  1  0  0  0  0
 23 25  2  0  0  0  0
 23 42  1  0  0  0  0
 24 53  1  0  0  0  0
 25 43  1  0  0  0  0
 26 63  1  0  0  0  0
 27 85  1  0  0  0  0
 28 86  1  0  0  0  0
 29 31  2  0  0  0  0
 29 85  1  0  0  0  0
 30 87  1  0  0  0  0
 31 88  1  0  0  0  0
 32 68  2  0  0  0  0
 33 69  1  0  0  0  0
 33 72  1  0  0  0  0
 34 35  2  0  0  0  0
 35 64  1  0  0  0  0
 36 73  1  0  0  0  0
 36 80  2  0  0  0  0
 37 54  1  0  0  0  0
 37 74  1  0  0  0  0
 37 81  2  0  0  0  0
 38 65  1  0  0  0  0
 38 70  1  0  0  0  0
 38 82  2  0  0  0  0
 39 66  1  0  0  0  0
 39 75  1  0  0  0  0
 39 83  2  0  0  0  0
 40 71  1  0  0  0  0
 40 76  1  0  0  0  0
 40 84  2  0  0  0  0
 41 44  1  0  0  0  0
 42 54  1  0  0  0  0
 43 70  1  0  0  0  0
 44 46  1  0  0  0  0
 45 47  1  0  0  0  0
 45 49  1  0  0  0  0
 46 53  1  0  0  0  0
 47 55  1  0  0  0  0
 48 51  1  0  0  0  0
 48 57  1  0  0  0  0
 49 71  1  0  0  0  0
 50 55  1  0  0  0  0
 50 71  1  0  0  0  0
 51 77  1  0  0  0  0
 52 56  1  0  0  0  0
 52 77  1  0  0  0  0
 53 74  1  0  0  0  0
 54 70  1  0  0  0  0
 55 69  1  0  0  0  0
 56 57  1  0  0  0  0
 56 76  1  0  0  0  0
 57 78  1  0  0  0  0
 58 66  1  0  0  0  0
 59 67  1  0  0  0  0
 60 67  1  0  0  0  0
 61 67  1  0  0  0  0
 62 79  1  0  0  0  0
 63 86  1  0  0  0  0
 64 78  1  0  0  0  0
 65 67  1  0  0  0  0
 65 75  1  0  0  0  0
 66 79  1  0  0  0  0
 68 69  1  0  0  0  0
M  CHG  3  77   1  78   1  79   1
M  ISO  4  40 100  63 101  76 100  86 101
M  END
> <Batch ID>
0132

> <Smiles>
CNC(C)C(=O)NC(C(=O)N1Cc2cc([101O:1][101CH2:1]c3ccc(C=CCNC4CCNCC4[100NH:0][100C:0](=O)N4CCCC(n5nc(-c6ccc(Oc7ccc(F)cc7F)cc6)c(C(N)=O)c5N)C4)cc3)ccc2CC1C(=O)NC1CCCc2ccccc21)C(C)(C)C

> <Shape>
0.303

> <Color>
0.060

> <Negative vol penalty>
0.000

$$$$

  -OEChem-04052320523D

 82 90  0     1  0  0  0  0  0999 V2000
  -28.7277  -34.3055   19.8489 C   0  0  0  0  0  0  0  0  0  0  0  0
  -29.7114  -33.6169   20.5515 C   0  0  0  0  0  0  0  0  0  0  0  0
  -23.0677   -9.9286   19.9274 C   0  0  0  0  0  0  0  0  0  0  0  0
  -23.8402   -9.9009   22.2164 C   0  0  0  0  0  0  0  0  0  0  0  0
  -27.4717  -33.7290   19.6643 C   0  0  0  0  0  0  0  0  0  0  0  0
  -29.4392  -32.3518   21.0709 C   0  0  0  0  0  0  0  0  0  0  0  0
  -32.6182  -26.0835   22.4563 C   0  0  0  0  0  0  0  0  0  0  0  0
  -32.7465  -17.4078   23.4724 C   0  0  0  0  0  0  0  0  0  0  0  0
  -32.1446  -16.5390   22.5622 C   0  0  0  0  0  0  0  0  0  0  0  0
  -22.3123   -8.7811   20.1685 C   0  0  0  0  0  0  0  0  0  0  0  0
  -23.0846   -8.7535   22.4575 C   0  0  0  0  0  0  0  0  0  0  0  0
  -32.7963  -25.1729   23.4969 C   0  0  0  0  0  0  0  0  0  0  0  0
  -19.8510   -7.9853   23.0690 C   0  0  0  0  0  0  0  0  0  0  0  0
  -19.1001   -7.9406   24.2436 C   0  0  0  0  0  0  0  0  0  0  0  0
  -30.6163  -24.2427   23.0480 C   0  0  0  0  0  0  0  0  0  0  0  0
  -29.9731  -17.4057   23.1709 C   0  0  0  0  0  0  0  0  0  0  0  0
  -20.3235   -5.9810   24.9512 C   0  0  0  0  0  0  0  0  0  0  0  0
  -23.8318  -10.4885   20.9514 C   0  0  0  0  0  0  0  0  0  0  0  0
  -24.2015  -13.0108   20.8580 C   0  0  0  0  0  0  0  0  0  0  0  0
  -27.1871  -32.4521   20.1734 C   0  0  0  0  0  0  0  0  0  0  0  0
  -31.4313  -26.0877   21.7095 C   0  0  0  0  0  0  0  0  0  0  0  0
  -28.1779  -31.7582   20.8942 C   0  0  0  0  0  0  0  0  0  0  0  0
  -30.4266  -25.1527   21.9968 C   0  0  0  0  0  0  0  0  0  0  0  0
  -31.9617  -18.2755   24.2319 C   0  0  0  0  0  0  0  0  0  0  0  0
  -30.5750  -18.2745   24.0811 C   0  0  0  0  0  0  0  0  0  0  0  0
  -30.7579  -16.5380   22.4114 C   0  0  0  0  0  0  0  0  0  0  0  0
  -22.3207   -8.1936   21.4335 C   0  0  0  0  0  0  0  0  0  0  0  0
  -31.7941  -24.2543   23.7948 C   0  0  0  0  0  0  0  0  0  0  0  0
  -20.8382   -7.0278   22.8354 C   0  0  0  0  0  0  0  0  0  0  0  0
  -19.3363   -6.9385   25.1847 C   0  0  0  0  0  0  0  0  0  0  0  0
  -21.0744   -6.0257   23.7765 C   0  0  0  0  0  0  0  0  0  0  0  0
  -24.6129  -11.6735   20.7028 C   0  0  0  0  0  0  0  0  0  0  0  0
  -25.3000  -13.7520   20.4971 C   0  0  0  0  0  0  0  0  0  0  0  0
  -22.9392  -13.5361   21.2898 C   0  0  0  0  0  0  0  0  0  0  0  0
  -29.1058  -28.1952   21.2052 C   0  0  0  0  0  0  0  0  0  0  0  0
  -28.0680  -25.9598   19.0961 C   0  0  0  0  0  0  0  0  0  0  0  0
  -28.0247  -22.6868   18.1305 C   0  0  0  0  0  0  0  0  0  0  0  0
  -30.7786  -14.7340   20.6531 C   0  0  0  0  0  0  0  0  0  0  0  0
  -25.7998  -31.8898   19.9893 C   0  0  0  0  0  0  0  0  0  0  0  0
  -31.2656  -27.0588   20.5729 C   0  0  0  0  0  0  0  0  0  0  0  0
  -29.1421  -25.1025   21.2119 C   0  0  0  0  0  0  0  0  0  0  0  0
  -25.7119  -30.3880   20.2487 C   0  0  0  0  0  0  0  0  0  0  0  0
  -29.6240  -12.3600   18.2639 C   0  0  0  0  0  0  0  0  0  0  0  0
  -26.4379  -30.0260   21.5405 C   0  0  0  0  0  0  0  0  0  0  0  0
  -28.1835  -12.0797   18.6982 C   0  0  0  0  0  0  0  0  0  0  0  0
  -30.5482  -12.5648   19.4630 C   0  0  0  0  0  0  0  0  0  0  0  0
  -28.6571  -13.2949   20.8630 C   0  0  0  0  0  0  0  0  0  0  0  0
  -27.9288  -30.3735   21.4515 C   0  0  1  0  0  0  0  0  0  0  0  0
  -29.8053  -27.3118   20.2112 C   0  0  1  0  0  0  0  0  0  0  0  0
  -27.6760  -13.1460   19.6887 C   0  0  2  0  0  0  0  0  0  0  0  0
  -29.7149  -19.1962   24.8819 C   0  0  0  0  0  0  0  0  0  0  0  0
  -27.0587  -21.1591   16.3897 C   0  0  0  0  0  0  0  0  0  0  0  0
  -25.3661  -26.0611   20.5099 C   0  0  0  0  0  0  0  0  0  0  0  0
  -24.7754  -23.9033   19.3860 C   0  0  0  0  0  0  0  0  0  0  0  0
  -25.2343  -25.9365   18.0156 C   0  0  0  0  0  0  0  0  0  0  0  0
  -30.7088  -21.9179   17.1492 C   0  0  0  0  0  0  0  0  0  0  0  0
  -32.6318  -19.2002   25.2050 C   0  0  0  0  0  0  0  0  0  0  0  0
  -33.2829  -21.5604   25.6993 C   0  0  0  0  0  0  0  0  0  0  0  0
  -33.3009  -22.9492   25.0918 C   0  0  0  0  0  0  0  0  0  1  0  0
  -27.1518  -24.7624   19.1717 C   0  0  1  0  0  0  0  0  0  0  0  0
  -28.2415  -22.0326   16.7779 C   0  0  2  0  0  0  0  0  0  0  0  0
  -25.6552  -25.1678   19.2871 C   0  0  0  0  0  0  0  0  0  0  0  0
  -25.8742  -11.5682   20.2764 N   0  0  0  0  0  0  0  0  0  0  0  0
  -26.2649  -12.8488   20.1605 N   0  0  0  0  0  0  0  0  0  0  0  0
  -29.0248  -26.0766   20.1143 N   0  0  0  0  0  0  0  0  0  0  0  0
  -30.0057  -13.5918   20.3550 N   0  0  0  0  0  0  0  0  0  0  0  0
  -25.5251  -15.0818   20.4379 N   0  0  0  0  0  0  0  0  0  0  0  0
  -21.9189  -12.6346   21.6224 N   0  0  0  0  0  0  0  0  0  0  0  0
  -30.1462  -15.6569   21.4855 N   0  0  0  0  0  0  0  0  0  0  0  0
  -28.6338  -29.3791   20.6713 N   0  0  0  0  0  0  0  0  0  0  0  0
  -27.4597  -23.9386   18.0078 N   0  0  0  0  0  0  0  0  0  0  0  0
  -29.4651  -21.1823   16.8040 N   0  3  0  0  0  0  0  0  0  0  0  0
  -32.6789  -20.6101   24.7317 N   0  3  0  0  0  0  0  0  0  0  0  0
  -22.7172  -14.7686   21.3623 O   0  0  0  0  0  0  0  0  0  0  0  0
  -29.0008  -27.8291   22.3699 O   0  0  0  0  0  0  0  0  0  0  0  0
  -27.9442  -26.7580   18.1638 O   0  0  0  0  0  0  0  0  0  0  0  0
  -28.3229  -22.1403   19.1902 O   0  0  0  0  0  0  0  0  0  0  0  0
  -31.9069  -14.8953   20.1811 O   0  0  0  0  0  0  0  0  0  0  0  0
  -21.5834   -7.0740   21.6692 O   0  0  0  0  0  0  0  0  0  0  0  0
  -31.9651  -23.3648   24.8104 O   0  0  0  0  0  0  0  0  0  1  0  0
  -18.6161   -6.8966   26.3133 F   0  0  0  0  0  0  0  0  0  0  0  0
  -22.0222   -5.1038   23.5583 F   0  0  0  0  0  0  0  0  0  0  0  0
  1  2  1  0  0  0  0
  1  5  2  0  0  0  0
  2  6  2  0  0  0  0
  3 10  2  0  0  0  0
  3 18  1  0  0  0  0
  4 11  1  0  0  0  0
  4 18  2  0  0  0  0
  5 20  1  0  0  0  0
  6 22  1  0  0  0  0
  7 12  2  0  0  0  0
  7 21  1  0  0  0  0
  8  9  2  0  0  0  0
  8 24  1  0  0  0  0
  9 26  1  0  0  0  0
 10 27  1  0  0  0  0
 11 27  2  0  0  0  0
 12 28  1  0  0  0  0
 13 14  2  0  0  0  0
 13 29  1  0  0  0  0
 14 30  1  0  0  0  0
 15 23  1  0  0  0  0
 15 28  2  0  0  0  0
 16 25  1  0  0  0  0
 16 26  2  0  0  0  0
 17 30  2  0  0  0  0
 17 31  1  0  0  0  0
 18 32  1  0  0  0  0
 19 32  1  0  0  0  0
 19 33  2  0  0  0  0
 19 34  1  0  0  0  0
 20 22  2  0  0  0  0
 20 39  1  0  0  0  0
 21 23  2  0  0  0  0
 21 40  1  0  0  0  0
 22 48  1  0  0  0  0
 23 41  1  0  0  0  0
 24 25  2  0  0  0  0
 24 57  1  0  0  0  0
 25 51  1  0  0  0  0
 26 69  1  0  0  0  0
 27 79  1  0  0  0  0
 28 80  1  0  0  0  0
 29 31  2  0  0  0  0
 29 79  1  0  0  0  0
 30 81  1  0  0  0  0
 31 82  1  0  0  0  0
 32 63  2  0  0  0  0
 33 64  1  0  0  0  0
 33 67  1  0  0  0  0
 34 68  1  0  0  0  0
 34 74  2  0  0  0  0
 35 49  1  0  0  0  0
 35 70  1  0  0  0  0
 35 75  2  0  0  0  0
 36 60  1  0  0  0  0
 36 65  1  0  0  0  0
 36 76  2  0  0  0  0
 37 61  1  0  0  0  0
 37 71  1  0  0  0  0
 37 77  2  0  0  0  0
 38 66  1  0  0  0  0
 38 69  1  0  0  0  0
 38 78  2  0  0  0  0
 39 42  1  0  0  0  0
 40 49  1  0  0  0  0
 41 65  1  0  0  0  0
 42 44  1  0  0  0  0
 43 45  1  0  0  0  0
 43 46  1  0  0  0  0
 44 48  1  0  0  0  0
 45 50  1  0  0  0  0
 46 66  1  0  0  0  0
 47 50  1  0  0  0  0
 47 66  1  0  0  0  0
 48 70  1  0  0  0  0
 49 65  1  0  0  0  0
 50 64  1  0  0  0  0
 52 61  1  0  0  0  0
 53 62  1  0  0  0  0
 54 62  1  0  0  0  0
 55 62  1  0  0  0  0
 56 72  1  0  0  0  0
 57 73  1  0  0  0  0
 58 59  1  0  0  0  0
 58 73  1  0  0  0  0
 59 80  1  0  0  0  0
 60 62  1  0  0  0  0
 60 71  1  0  0  0  0
 61 72  1  0  0  0  0
 63 64  1  0  0  0  0
M  CHG  2  72   1  73   1
M  ISO  4  38 100  59 101  69 100  80 101
M  END
> <Batch ID>
0132

> <Smiles>
CNC(C)C(=O)NC(C(=O)N1Cc2cc([101O:1][101CH2:1]CNCc3ccc([100NH:0][100C:0](=O)N4CCCC(n5nc(-c6ccc(Oc7ccc(F)cc7F)cc6)c(C(N)=O)c5N)C4)cc3C)ccc2CC1C(=O)NC1CCCc2ccccc21)C(C)(C)C

> <Shape>
0.260

> <Color>
0.199

> <Negative vol penalty>
0.000

$$$$

  -OEChem-04052320523D

 83 91  0     1  0  0  0  0  0999 V2000
  -28.6113  -29.6656   26.8269 C   0  0  0  0  0  0  0  0  0  0  0  0
  -28.9025  -28.6470   25.9251 C   0  0  0  0  0  0  0  0  0  0  0  0
  -22.9926  -10.0658   19.8838 C   0  0  0  0  0  0  0  0  0  0  0  0
  -23.8816   -9.8070   22.1153 C   0  0  0  0  0  0  0  0  0  0  0  0
  -27.3097  -30.1551   26.9274 C   0  0  0  0  0  0  0  0  0  0  0  0
  -27.8919  -28.1167   25.1240 C   0  0  0  0  0  0  0  0  0  0  0  0
  -28.4389  -26.0803   19.3743 C   0  0  0  0  0  0  0  0  0  0  0  0
  -22.2279   -8.9119   20.0545 C   0  0  0  0  0  0  0  0  0  0  0  0
  -23.1169   -8.6530   22.2861 C   0  0  0  0  0  0  0  0  0  0  0  0
  -28.5845  -24.7997   18.8426 C   0  0  0  0  0  0  0  0  0  0  0  0
  -19.9046   -7.8777   22.9934 C   0  0  0  0  0  0  0  0  0  0  0  0
  -19.2146   -7.7315   24.1968 C   0  0  0  0  0  0  0  0  0  0  0  0
  -26.2050  -24.6942   18.4606 C   0  0  0  0  0  0  0  0  0  0  0  0
  -20.4337   -5.6951   24.6484 C   0  0  0  0  0  0  0  0  0  0  0  0
  -23.8195  -10.5134   20.9142 C   0  0  0  0  0  0  0  0  0  0  0  0
  -24.2340  -13.0273   21.0416 C   0  0  0  0  0  0  0  0  0  0  0  0
  -26.2846  -29.6371   26.1202 C   0  0  0  0  0  0  0  0  0  0  0  0
  -27.1717  -26.6741   19.4633 C   0  0  0  0  0  0  0  0  0  0  0  0
  -26.5751  -28.5988   25.2147 C   0  0  0  0  0  0  0  0  0  0  0  0
  -26.0463  -25.9835   18.9914 C   0  0  0  0  0  0  0  0  0  0  0  0
  -22.2900   -8.2055   21.2557 C   0  0  0  0  0  0  0  0  0  0  0  0
  -27.4671  -24.1053   18.3883 C   0  0  0  0  0  0  0  0  0  0  0  0
  -20.8591   -6.9325   22.6174 C   0  0  0  0  0  0  0  0  0  0  0  0
  -19.4792   -6.6402   25.0243 C   0  0  0  0  0  0  0  0  0  0  0  0
  -21.1237   -5.8413   23.4449 C   0  0  0  0  0  0  0  0  0  0  0  0
  -24.6102  -11.7050   20.7382 C   0  0  0  0  0  0  0  0  0  0  0  0
  -25.3270  -13.7833   20.6948 C   0  0  0  0  0  0  0  0  0  0  0  0
  -23.0065  -13.5273   21.5882 C   0  0  0  0  0  0  0  0  0  0  0  0
  -25.3414  -27.7079   21.8476 C   0  0  0  0  0  0  0  0  0  0  0  0
  -23.4606  -28.7679   19.4266 C   0  0  0  0  0  0  0  0  0  0  0  0
  -22.4955  -28.4751   16.1663 C   0  0  0  0  0  0  0  0  0  0  0  0
  -30.8422  -14.6360   20.6606 C   0  0  0  0  0  0  0  0  0  0  0  0
  -24.8833  -30.1657   26.2981 C   0  0  0  0  0  0  0  0  0  0  0  0
  -27.0349  -28.0668   20.0148 C   0  0  0  0  0  0  0  0  0  0  0  0
  -24.6665  -26.5847   19.0460 C   0  0  0  0  0  0  0  0  0  0  0  0
  -23.9466  -29.8077   25.1472 C   0  0  0  0  0  0  0  0  0  0  0  0
  -29.4954  -12.5515   18.1076 C   0  0  0  0  0  0  0  0  0  0  0  0
  -24.0873  -28.3331   24.7833 C   0  0  0  0  0  0  0  0  0  0  0  0
  -27.0423  -21.0995   20.3346 C   0  0  0  0  0  0  0  0  0  0  0  0
  -28.3208  -20.2378   18.3274 C   0  0  0  0  0  0  0  0  0  0  0  0
  -28.0763  -12.2498   18.5925 C   0  0  0  0  0  0  0  0  0  0  0  0
  -27.5519  -19.9213   21.1645 C   0  0  0  0  0  0  0  0  0  0  0  0
  -28.8301  -19.0600   19.1580 C   0  0  0  0  0  0  0  0  0  0  0  0
  -30.4860  -12.6186   19.2679 C   0  0  0  0  0  0  0  0  0  0  0  0
  -28.6904  -13.2447   20.8356 C   0  0  0  0  0  0  0  0  0  0  0  0
  -25.5110  -28.0148   24.3109 C   0  0  1  0  0  0  0  0  0  0  0  0
  -25.6315  -28.3701   20.5304 C   0  0  1  0  0  0  0  0  0  0  0  0
  -26.9678  -20.7511   18.8410 C   0  0  0  0  0  0  0  0  0  0  0  0
  -27.6457  -13.2226   19.7067 C   0  0  2  0  0  0  0  0  0  0  0  0
  -28.8961  -19.4261   20.6381 C   0  0  0  0  0  0  0  0  0  0  0  0
  -25.5695  -22.7296   15.8020 C   0  0  0  0  0  0  0  0  0  0  0  0
  -20.9113  -29.4557   14.4852 C   0  0  0  0  0  0  0  0  0  0  0  0
  -21.1489  -27.2626   20.7306 C   0  0  0  0  0  0  0  0  0  0  0  0
  -19.8884  -27.4741   18.5778 C   0  0  0  0  0  0  0  0  0  0  0  0
  -20.5519  -29.5215   19.8389 C   0  0  0  0  0  0  0  0  0  0  0  0
  -24.7133  -29.3356   14.4057 C   0  0  0  0  0  0  0  0  0  0  0  0
  -25.9991  -21.5379   16.6478 C   0  0  0  0  0  0  0  0  0  0  0  0
  -31.0466  -16.6388   22.1118 C   0  0  0  0  0  0  0  0  0  0  0  0
  -30.7470  -17.8849   21.2997 C   0  0  0  0  0  0  0  0  0  0  0  0
  -22.3219  -28.1861   18.6241 C   0  0  1  0  0  0  0  0  0  0  0  0
  -22.3128  -29.5121   15.0729 C   0  0  2  0  0  0  0  0  0  0  0  0
  -26.5066  -21.9596   18.0285 C   0  0  2  0  0  0  0  0  0  1  0  0
  -21.0034  -28.0987   19.4435 C   0  0  0  0  0  0  0  0  0  0  0  0
  -25.8455  -11.6225   20.2370 N   0  0  0  0  0  0  0  0  0  0  0  0
  -26.2551  -12.9024   20.2228 N   0  0  0  0  0  0  0  0  0  0  0  0
  -24.5835  -27.9464   19.5996 N   0  0  0  0  0  0  0  0  0  0  0  0
  -30.0197  -13.5596   20.2891 N   0  0  0  0  0  0  0  0  0  0  0  0
  -25.5751  -15.1091   20.7505 N   0  0  0  0  0  0  0  0  0  0  0  0
  -21.9870  -12.6133   21.8875 N   0  0  0  0  0  0  0  0  0  0  0  0
  -25.7030  -28.4616   22.9479 N   0  0  0  0  0  0  0  0  0  0  0  0
  -22.2208  -28.9944   17.4138 N   0  0  0  0  0  0  0  0  0  0  0  0
  -30.3217  -15.4839   21.6306 N   0  0  0  0  0  0  0  0  0  0  0  0
  -29.3038  -18.2247   21.4136 N   0  3  0  0  0  0  0  0  0  0  0  0
  -23.2929  -29.2840   13.9736 N   0  3  0  0  0  0  0  0  0  0  0  0
  -22.8131  -14.7503   21.7894 O   0  0  0  0  0  0  0  0  0  0  0  0
  -24.8263  -26.5962   21.8645 O   0  0  0  0  0  0  0  0  0  0  0  0
  -23.3603  -29.9118   19.8772 O   0  0  0  0  0  0  0  0  0  0  0  0
  -22.8432  -27.3189   15.9364 O   0  0  0  0  0  0  0  0  0  0  0  0
  -31.9555  -14.8301   20.1608 O   0  0  0  0  0  0  0  0  0  0  0  0
  -21.5438   -7.0795   21.4227 O   0  0  0  0  0  0  0  0  0  0  0  0
  -27.6064  -22.8550   17.8695 O   0  0  0  0  0  0  0  0  0  1  0  0
  -18.8176   -6.5008   26.1806 F   0  0  0  0  0  0  0  0  0  0  0  0
  -22.0404   -4.9307   23.0897 F   0  0  0  0  0  0  0  0  0  0  0  0
  1  2  1  0  0  0  0
  1  5  2  0  0  0  0
  2  6  2  0  0  0  0
  3  8  2  0  0  0  0
  3 15  1  0  0  0  0
  4  9  1  0  0  0  0
  4 15  2  0  0  0  0
  5 17  1  0  0  0  0
  6 19  1  0  0  0  0
  7 10  2  0  0  0  0
  7 18  1  0  0  0  0
  8 21  1  0  0  0  0
  9 21  2  0  0  0  0
 10 22  1  0  0  0  0
 11 12  2  0  0  0  0
 11 23  1  0  0  0  0
 12 24  1  0  0  0  0
 13 20  1  0  0  0  0
 13 22  2  0  0  0  0
 14 24  2  0  0  0  0
 14 25  1  0  0  0  0
 15 26  1  0  0  0  0
 16 26  1  0  0  0  0
 16 27  2  0  0  0  0
 16 28  1  0  0  0  0
 17 19  2  0  0  0  0
 17 33  1  0  0  0  0
 18 20  2  0  0  0  0
 18 34  1  0  0  0  0
 19 46  1  0  0  0  0
 20 35  1  0  0  0  0
 21 80  1  0  0  0  0
 22 81  1  0  0  0  0
 23 25  2  0  0  0  0
 23 80  1  0  0  0  0
 24 82  1  0  0  0  0
 25 83  1  0  0  0  0
 26 64  2  0  0  0  0
 27 65  1  0  0  0  0
 27 68  1  0  0  0  0
 28 69  1  0  0  0  0
 28 75  2  0  0  0  0
 29 47  1  0  0  0  0
 29 70  1  0  0  0  0
 29 76  2  0  0  0  0
 30 60  1  0  0  0  0
 30 66  1  0  0  0  0
 30 77  2  0  0  0  0
 31 61  1  0  0  0  0
 31 71  1  0  0  0  0
 31 78  2  0  0  0  0
 32 67  1  0  0  0  0
 32 72  1  0  0  0  0
 32 79  2  0  0  0  0
 33 36  1  0  0  0  0
 34 47  1  0  0  0  0
 35 66  1  0  0  0  0
 36 38  1  0  0  0  0
 37 41  1  0  0  0  0
 37 44  1  0  0  0  0
 38 46  1  0  0  0  0
 39 42  1  0  0  0  0
 39 48  1  0  0  0  0
 40 43  1  0  0  0  0
 40 48  1  0  0  0  0
 41 49  1  0  0  0  0
 42 50  1  0  0  0  0
 43 50  1  0  0  0  0
 44 67  1  0  0  0  0
 45 49  1  0  0  0  0
 45 67  1  0  0  0  0
 46 70  1  0  0  0  0
 47 66  1  0  0  0  0
 48 62  1  0  0  0  0
 49 65  1  0  0  0  0
 50 73  1  0  0  0  0
 51 57  1  0  0  0  0
 52 61  1  0  0  0  0
 53 63  1  0  0  0  0
 54 63  1  0  0  0  0
 55 63  1  0  0  0  0
 56 74  1  0  0  0  0
 57 62  1  0  0  0  0
 58 59  1  0  0  0  0
 58 72  1  0  0  0  0
 59 73  1  0  0  0  0
 60 63  1  0  0  0  0
 60 71  1  0  0  0  0
 61 74  1  0  0  0  0
 62 81  1  0  0  0  0
 64 65  1  0  0  0  0
M  CHG  2  73   1  74   1
M  ISO  4  32 100  62 101  72 100  81 101
M  END
> <Batch ID>
0132

> <Smiles>
CC[101CH:1](C1CCC(NCC[100NH:0][100C:0](=O)N2CCCC(n3nc(-c4ccc(Oc5ccc(F)cc5F)cc4)c(C(N)=O)c3N)C2)CC1)[101O:1]c1ccc2c(c1)CN(C(=O)C(NC(=O)C(C)NC)C(C)(C)C)C(C(=O)NC1CCCc3ccccc31)C2

> <Shape>
0.302

> <Color>
0.186

> <Negative vol penalty>
0.000

$$$$

  -OEChem-04052320523D

 84 92  0     1  0  0  0  0  0999 V2000
  -19.6966  -24.8943   25.0955 C   0  0  0  0  0  0  0  0  0  0  0  0
  -20.7755  -24.6899   24.2414 C   0  0  0  0  0  0  0  0  0  0  0  0
  -23.8276  -10.4730   22.8149 C   0  0  0  0  0  0  0  0  0  0  0  0
  -24.3945  -12.2141   24.3911 C   0  0  0  0  0  0  0  0  0  0  0  0
  -18.8213  -25.9557   24.8694 C   0  0  0  0  0  0  0  0  0  0  0  0
  -20.9790  -25.5462   23.1598 C   0  0  0  0  0  0  0  0  0  0  0  0
  -25.8222  -26.9434   22.6729 C   0  0  0  0  0  0  0  0  0  0  0  0
  -28.0023  -20.8418   21.0168 C   0  0  0  0  0  0  0  0  0  0  0  0
  -23.3181   -9.6967   23.8557 C   0  0  0  0  0  0  0  0  0  0  0  0
  -23.8850  -11.4378   25.4319 C   0  0  0  0  0  0  0  0  0  0  0  0
  -26.6961  -26.0216   22.0982 C   0  0  0  0  0  0  0  0  0  0  0  0
  -20.4936   -9.5599   25.7094 C   0  0  0  0  0  0  0  0  0  0  0  0
  -19.2642   -8.9325   25.5084 C   0  0  0  0  0  0  0  0  0  0  0  0
  -28.4813  -19.6390   21.5240 C   0  0  0  0  0  0  0  0  0  0  0  0
  -26.5330  -27.1884   19.9932 C   0  0  0  0  0  0  0  0  0  0  0  0
  -20.3072   -6.7799   25.8484 C   0  0  0  0  0  0  0  0  0  0  0  0
  -30.0930  -21.1550   19.9271 C   0  0  0  0  0  0  0  0  0  0  0  0
  -24.3658  -11.7318   23.0826 C   0  0  0  0  0  0  0  0  0  0  0  0
  -24.1929  -13.4713   21.2246 C   0  0  0  0  0  0  0  0  0  0  0  0
  -19.0197  -26.8312   23.7902 C   0  0  0  0  0  0  0  0  0  0  0  0
  -25.2877  -27.9901   21.9079 C   0  0  0  0  0  0  0  0  0  0  0  0
  -20.1048  -26.6196   22.9183 C   0  0  0  0  0  0  0  0  0  0  0  0
  -25.6546  -28.1237   20.5612 C   0  0  0  0  0  0  0  0  0  0  0  0
  -28.8172  -21.6202   20.2024 C   0  0  0  0  0  0  0  0  0  0  0  0
  -23.3468  -10.1790   25.1642 C   0  0  0  0  0  0  0  0  0  0  0  0
  -27.0494  -26.1423   20.7574 C   0  0  0  0  0  0  0  0  0  0  0  0
  -21.6299   -8.7973   25.9799 C   0  0  0  0  0  0  0  0  0  0  0  0
  -19.1709   -7.5425   25.5779 C   0  0  0  0  0  0  0  0  0  0  0  0
  -21.5366   -7.4073   26.0494 C   0  0  0  0  0  0  0  0  0  0  0  0
  -24.8927  -12.5340   22.0079 C   0  0  0  0  0  0  0  0  0  0  0  0
  -29.7720  -19.2624   21.1894 C   0  0  0  0  0  0  0  0  0  0  0  0
  -25.1332  -13.9581   20.3499 C   0  0  0  0  0  0  0  0  0  0  0  0
  -22.8159  -13.8665   21.2826 C   0  0  0  0  0  0  0  0  0  0  0  0
  -22.3583  -28.8594   21.0321 C   0  0  0  0  0  0  0  0  0  0  0  0
  -23.9055  -31.4464   19.8339 C   0  0  0  0  0  0  0  0  0  0  0  0
  -26.8114  -32.7979   18.6608 C   0  0  0  0  0  0  0  0  0  0  0  0
  -31.1022  -14.3642   20.5904 C   0  0  0  0  0  0  0  0  0  0  0  0
  -18.0199  -27.9364   23.5586 C   0  0  0  0  0  0  0  0  0  0  0  0
  -24.3672  -28.9918   22.5496 C   0  0  0  0  0  0  0  0  0  0  0  0
  -25.1244  -29.2413   19.7019 C   0  0  0  0  0  0  0  0  0  0  0  0
  -18.5202  -29.0212   22.6084 C   0  0  0  0  0  0  0  0  0  0  0  0
  -29.1679  -12.6997   18.1075 C   0  0  0  0  0  0  0  0  0  0  0  0
  -19.1565  -28.3953   21.3713 C   0  0  0  0  0  0  0  0  0  0  0  0
  -27.7898  -12.5531   18.7549 C   0  0  0  0  0  0  0  0  0  0  0  0
  -30.2915  -12.5359   19.1287 C   0  0  0  0  0  0  0  0  0  0  0  0
  -28.8094  -13.2664   20.9572 C   0  0  0  0  0  0  0  0  0  0  0  0
  -20.3732  -27.5417   21.7488 C   0  0  1  0  0  0  0  0  0  0  0  0
  -23.4801  -29.7184   21.5434 C   0  0  1  0  0  0  0  0  0  0  0  0
  -27.6430  -13.4792   19.9771 C   0  0  2  0  0  0  0  0  0  0  0  0
  -27.7562  -34.9235   17.7191 C   0  0  0  0  0  0  0  0  0  0  0  0
  -22.5560  -30.8593   17.1611 C   0  0  0  0  0  0  0  0  0  0  0  0
  -24.2226  -32.3733   16.0663 C   0  0  0  0  0  0  0  0  0  0  0  0
  -22.6474  -33.2823   17.7736 C   0  0  0  0  0  0  0  0  0  0  0  0
  -27.4994  -21.8845   17.5252 C   0  0  0  0  0  0  0  0  0  0  0  0
  -28.7392  -33.0652   20.8904 C   0  0  0  0  0  0  0  0  0  0  0  0
  -31.5540  -17.5346   21.4439 C   0  0  0  0  0  0  0  0  0  0  0  0
  -31.7688  -16.1937   22.1291 C   0  0  0  0  0  0  0  0  0  0  0  0
  -27.8911  -23.9183   20.7229 C   0  0  0  0  0  0  0  0  0  1  0  0
  -28.3262  -22.9324   19.6363 C   0  0  2  0  0  0  0  0  0  0  0  0
  -24.5496  -31.7897   18.5124 C   0  0  1  0  0  0  0  0  0  0  0  0
  -27.5144  -34.1054   18.9781 C   0  0  2  0  0  0  0  0  0  0  0  0
  -23.5025  -32.0538   17.3938 C   0  0  0  0  0  0  0  0  0  0  0  0
  -30.5932  -19.9920   20.4013 N   0  0  0  0  0  0  0  0  0  0  0  0
  -26.1784  -12.4299   21.6613 N   0  0  0  0  0  0  0  0  0  0  0  0
  -26.2939  -13.3080   20.6505 N   0  0  0  0  0  0  0  0  0  0  0  0
  -24.2227  -30.1918   20.3736 N   0  0  0  0  0  0  0  0  0  0  0  0
  -30.0938  -13.4433   20.2616 N   0  0  0  0  0  0  0  0  0  0  0  0
  -25.0722  -14.8746   19.3606 N   0  0  0  0  0  0  0  0  0  0  0  0
  -21.9884  -13.2667   22.2417 N   0  0  0  0  0  0  0  0  0  0  0  0
  -30.2451  -18.0338   21.7136 N   0  0  0  0  0  0  0  0  0  0  0  0
  -21.5175  -28.3849   22.0207 N   0  0  0  0  0  0  0  0  0  0  0  0
  -25.4420  -32.9139   18.7731 N   0  0  0  0  0  0  0  0  0  0  0  0
  -30.8316  -15.1912   21.6737 N   0  0  0  0  0  0  0  0  0  0  0  0
  -27.1815  -22.7481   18.6873 N   0  3  0  0  0  0  0  0  0  0  0  0
  -28.8298  -33.8420   19.6273 N   0  3  0  0  0  0  0  0  0  0  0  0
  -22.3297  -14.7142   20.4961 O   0  0  0  0  0  0  0  0  0  0  0  0
  -22.2619  -28.6443   19.8296 O   0  0  0  0  0  0  0  0  0  0  0  0
  -23.1545  -32.2643   20.3712 O   0  0  0  0  0  0  0  0  0  0  0  0
  -27.4163  -31.7768   18.3413 O   0  0  0  0  0  0  0  0  0  0  0  0
  -32.1627  -14.4471   19.9616 O   0  0  0  0  0  0  0  0  0  0  0  0
  -22.8496   -9.4218   26.1800 O   0  0  0  0  0  0  0  0  0  0  0  0
  -27.9017  -25.2435   20.1938 O   0  0  0  0  0  0  0  0  0  1  0  0
  -17.9900   -6.9402   25.3863 F   0  0  0  0  0  0  0  0  0  0  0  0
  -22.6245   -6.6695   26.3101 F   0  0  0  0  0  0  0  0  0  0  0  0
  1  2  1  0  0  0  0
  1  5  2  0  0  0  0
  2  6  2  0  0  0  0
  3  9  2  0  0  0  0
  3 18  1  0  0  0  0
  4 10  1  0  0  0  0
  4 18  2  0  0  0  0
  5 20  1  0  0  0  0
  6 22  1  0  0  0  0
  7 11  2  0  0  0  0
  7 21  1  0  0  0  0
  8 14  2  0  0  0  0
  8 24  1  0  0  0  0
  9 25  1  0  0  0  0
 10 25  2  0  0  0  0
 11 26  1  0  0  0  0
 12 13  2  0  0  0  0
 12 27  1  0  0  0  0
 13 28  1  0  0  0  0
 14 31  1  0  0  0  0
 15 23  1  0  0  0  0
 15 26  2  0  0  0  0
 16 28  2  0  0  0  0
 16 29  1  0  0  0  0
 17 24  2  0  0  0  0
 17 63  1  0  0  0  0
 18 30  1  0  0  0  0
 19 30  1  0  0  0  0
 19 32  2  0  0  0  0
 19 33  1  0  0  0  0
 20 22  2  0  0  0  0
 20 38  1  0  0  0  0
 21 23  2  0  0  0  0
 21 39  1  0  0  0  0
 22 47  1  0  0  0  0
 23 40  1  0  0  0  0
 24 59  1  0  0  0  0
 25 81  1  0  0  0  0
 26 82  1  0  0  0  0
 27 29  2  0  0  0  0
 27 81  1  0  0  0  0
 28 83  1  0  0  0  0
 29 84  1  0  0  0  0
 30 64  2  0  0  0  0
 31 63  2  0  0  0  0
 31 70  1  0  0  0  0
 32 65  1  0  0  0  0
 32 68  1  0  0  0  0
 33 69  1  0  0  0  0
 33 76  2  0  0  0  0
 34 48  1  0  0  0  0
 34 71  1  0  0  0  0
 34 77  2  0  0  0  0
 35 60  1  0  0  0  0
 35 66  1  0  0  0  0
 35 78  2  0  0  0  0
 36 61  1  0  0  0  0
 36 72  1  0  0  0  0
 36 79  2  0  0  0  0
 37 67  1  0  0  0  0
 37 73  1  0  0  0  0
 37 80  2  0  0  0  0
 38 41  1  0  0  0  0
 39 48  1  0  0  0  0
 40 66  1  0  0  0  0
 41 43  1  0  0  0  0
 42 44  1  0  0  0  0
 42 45  1  0  0  0  0
 43 47  1  0  0  0  0
 44 49  1  0  0  0  0
 45 67  1  0  0  0  0
 46 49  1  0  0  0  0
 46 67  1  0  0  0  0
 47 71  1  0  0  0  0
 48 66  1  0  0  0  0
 49 65  1  0  0  0  0
 50 61  1  0  0  0  0
 51 62  1  0  0  0  0
 52 62  1  0  0  0  0
 53 62  1  0  0  0  0
 54 74  1  0  0  0  0
 55 75  1  0  0  0  0
 56 57  1  0  0  0  0
 56 70  1  0  0  0  0
 57 73  1  0  0  0  0
 58 59  1  0  0  0  0
 58 82  1  0  0  0  0
 59 74  1  0  0  0  0
 60 62  1  0  0  0  0
 60 72  1  0  0  0  0
 61 75  1  0  0  0  0
 64 65  1  0  0  0  0
M  CHG  2  74   1  75   1
M  ISO  4  37 100  58 101  73 100  82 101
M  END
> <Batch ID>
0132

> <Smiles>
CNC(C)C(=O)NC(C(=O)N1Cc2cc([101O:1][101CH2:1]C(NC)c3ccc(NCC[100NH:0][100C:0](=O)N4CCCC(n5nc(-c6ccc(Oc7ccc(F)cc7F)cc6)c(C(N)=O)c5N)C4)nc3)ccc2CC1C(=O)NC1CCCc2ccccc21)C(C)(C)C

> <Shape>
0.256

> <Color>
0.131

> <Negative vol penalty>
0.000

$$$$

  -OEChem-04052320523D

 83 92  0     1  0  0  0  0  0999 V2000
  -32.6344  -26.8412   15.8735 C   0  0  0  0  0  0  0  0  0  0  0  0
  -31.7038  -26.0894   16.5836 C   0  0  0  0  0  0  0  0  0  0  0  0
  -22.3000  -10.3731   21.2729 C   0  0  0  0  0  0  0  0  0  0  0  0
  -24.3653   -9.5047   20.3687 C   0  0  0  0  0  0  0  0  0  0  0  0
  -33.0803  -28.0595   16.3843 C   0  0  0  0  0  0  0  0  0  0  0  0
  -31.2193  -26.5551   17.8054 C   0  0  0  0  0  0  0  0  0  0  0  0
  -26.1987  -26.0440   18.2265 C   0  0  0  0  0  0  0  0  0  0  0  0
  -25.4958  -19.9847   18.4860 C   0  0  0  0  0  0  0  0  0  0  0  0
  -21.9169   -9.0824   21.6375 C   0  0  0  0  0  0  0  0  0  0  0  0
  -23.9822   -8.2140   20.7334 C   0  0  0  0  0  0  0  0  0  0  0  0
  -25.7110  -24.7727   18.5258 C   0  0  0  0  0  0  0  0  0  0  0  0
  -24.8225  -21.0837   19.0190 C   0  0  0  0  0  0  0  0  0  0  0  0
  -22.6028   -6.8870   24.1159 C   0  0  0  0  0  0  0  0  0  0  0  0
  -22.0647   -6.7061   25.3900 C   0  0  0  0  0  0  0  0  0  0  0  0
  -25.4676  -25.4169   20.8377 C   0  0  0  0  0  0  0  0  0  0  0  0
  -26.9333  -22.0750   19.6379 C   0  0  0  0  0  0  0  0  0  0  0  0
  -20.0181   -5.8789   24.4081 C   0  0  0  0  0  0  0  0  0  0  0  0
  -23.5242  -10.5842   20.6384 C   0  0  0  0  0  0  0  0  0  0  0  0
  -24.6480  -12.8395   21.0367 C   0  0  0  0  0  0  0  0  0  0  0  0
  -32.5938  -28.5449   17.6083 C   0  0  0  0  0  0  0  0  0  0  0  0
  -26.3350  -27.0095   19.2343 C   0  0  0  0  0  0  0  0  0  0  0  0
  -26.8977  -19.9180   18.5216 C   0  0  0  0  0  0  0  0  0  0  0  0
  -31.6601  -27.7804   18.3336 C   0  0  0  0  0  0  0  0  0  0  0  0
  -25.9549  -26.7006   20.5481 C   0  0  0  0  0  0  0  0  0  0  0  0
  -27.6216  -20.9789   19.0987 C   0  0  0  0  0  0  0  0  0  0  0  0
  -22.7580   -8.0029   21.3678 C   0  0  0  0  0  0  0  0  0  0  0  0
  -25.3481  -24.4580   19.8321 C   0  0  0  0  0  0  0  0  0  0  0  0
  -25.5408  -22.1280   19.5943 C   0  0  0  0  0  0  0  0  0  1  0  0
  -21.8486   -6.5639   22.9879 C   0  0  0  0  0  0  0  0  0  0  0  0
  -20.7724   -6.2020   25.5361 C   0  0  0  0  0  0  0  0  0  0  0  0
  -20.5562   -6.0598   23.1340 C   0  0  0  0  0  0  0  0  0  0  0  0
  -23.9203  -11.9172   20.2610 C   0  0  0  0  0  0  0  0  0  0  0  0
  -24.7634  -13.9478   20.2337 C   0  0  0  0  0  0  0  0  0  0  0  0
  -25.1726  -12.7063   22.3643 C   0  0  0  0  0  0  0  0  0  0  0  0
  -28.7754  -28.6161   20.4861 C   0  0  0  0  0  0  0  0  0  0  0  0
  -26.4236  -30.1675   22.0938 C   0  0  0  0  0  0  0  0  0  0  0  0
  -23.2369  -30.1295   23.3144 C   0  0  0  0  0  0  0  0  0  0  0  0
  -25.7965  -16.2723   15.2663 C   0  0  0  0  0  0  0  0  0  0  0  0
  -33.1408  -29.8448   18.1428 C   0  0  0  0  0  0  0  0  0  0  0  0
  -26.8376  -28.3848   18.8901 C   0  0  0  0  0  0  0  0  0  0  0  0
  -26.0629  -27.7080   21.6626 C   0  0  0  0  0  0  0  0  0  0  0  0
  -29.1204  -20.9323   19.2006 C   0  0  0  0  0  0  0  0  0  0  0  0
  -32.2969  -30.4456   19.2640 C   0  0  0  0  0  0  0  0  0  0  0  0
  -22.4885  -15.0996   15.8651 C   0  0  0  0  0  0  0  0  0  0  0  0
  -31.9321  -29.3766   20.2891 C   0  0  0  0  0  0  0  0  0  0  0  0
  -22.6275  -14.2387   17.1218 C   0  0  0  0  0  0  0  0  0  0  0  0
  -23.7098  -14.9738   14.9569 C   0  0  0  0  0  0  0  0  0  0  0  0
  -25.1409  -14.3789   16.8730 C   0  0  0  0  0  0  0  0  0  0  0  0
  -29.0322  -18.5590   18.4611 C   0  0  0  0  0  0  0  0  0  0  0  0
  -27.6095  -18.7227   17.9130 C   0  0  2  0  0  0  0  0  0  0  0  0
  -31.0924  -28.2636   19.6506 C   0  0  1  0  0  0  0  0  0  0  0  0
  -27.4187  -29.1262   20.0901 C   0  0  1  0  0  0  0  0  0  0  0  0
  -23.9582  -14.5158   17.8470 C   0  0  2  0  0  0  0  0  0  0  0  0
  -21.6097  -31.5267   24.6174 C   0  0  0  0  0  0  0  0  0  0  0  0
  -27.9140  -29.4961   24.6703 C   0  0  0  0  0  0  0  0  0  0  0  0
  -25.8287  -30.0521   25.9393 C   0  0  0  0  0  0  0  0  0  0  0  0
  -26.9683  -31.8097   24.5848 C   0  0  0  0  0  0  0  0  0  0  0  0
  -21.3218  -30.2098   21.0594 C   0  0  0  0  0  0  0  0  0  0  0  0
  -27.6035  -18.8221   16.3826 C   0  0  0  0  0  0  0  0  0  0  0  0
  -27.9110  -17.4915   15.7158 C   0  0  0  0  0  0  0  0  0  0  0  0
  -25.7101  -29.9594   23.4078 C   0  0  1  0  0  0  0  0  0  0  0  0
  -22.1151  -31.1491   23.2336 C   0  0  2  0  0  0  0  0  0  0  0  0
  -26.6049  -30.3095   24.6301 C   0  0  0  0  0  0  0  0  0  0  0  0
  -23.5962  -12.3978   19.0577 N   0  0  0  0  0  0  0  0  0  0  0  0
  -24.1226  -13.6343   19.0713 N   0  0  0  0  0  0  0  0  0  0  0  0
  -26.5658  -29.0369   21.2769 N   0  0  0  0  0  0  0  0  0  0  0  0
  -24.9384  -15.2505   15.7051 N   0  0  0  0  0  0  0  0  0  0  0  0
  -25.3495  -15.1502   20.4156 N   0  0  0  0  0  0  0  0  0  0  0  0
  -24.9638  -11.5005   23.0474 N   0  0  0  0  0  0  0  0  0  0  0  0
  -29.7220  -28.6976   19.4827 N   0  0  0  0  0  0  0  0  0  0  0  0
  -24.4761  -30.7338   23.3293 N   0  0  0  0  0  0  0  0  0  0  0  0
  -26.9357  -16.4731   16.0362 N   0  0  0  0  0  0  0  0  0  0  0  0
  -29.7552  -19.8613   18.3699 N   0  3  0  0  0  0  0  0  0  0  0  0
  -20.9725  -30.6010   22.4493 N   0  3  0  0  0  0  0  0  0  0  0  0
  -25.7937  -13.6352   22.9344 O   0  0  0  0  0  0  0  0  0  0  0  0
  -28.9508  -28.1822   21.6186 O   0  0  0  0  0  0  0  0  0  0  0  0
  -26.8334  -31.2932   21.7998 O   0  0  0  0  0  0  0  0  0  0  0  0
  -23.0339  -28.9184   23.3634 O   0  0  0  0  0  0  0  0  0  0  0  0
  -25.5620  -16.9587   14.2659 O   0  0  0  0  0  0  0  0  0  0  0  0
  -22.3846   -6.7433   21.7237 O   0  0  0  0  0  0  0  0  0  0  0  0
  -24.8724  -23.2176   20.1271 O   0  0  0  0  0  0  0  0  0  1  0  0
  -20.2563   -6.0269   26.7596 F   0  0  0  0  0  0  0  0  0  0  0  0
  -19.8272   -5.7465   22.0540 F   0  0  0  0  0  0  0  0  0  0  0  0
  1  2  1  0  0  0  0
  1  5  2  0  0  0  0
  2  6  2  0  0  0  0
  3  9  2  0  0  0  0
  3 18  1  0  0  0  0
  4 10  1  0  0  0  0
  4 18  2  0  0  0  0
  5 20  1  0  0  0  0
  6 23  1  0  0  0  0
  7 11  2  0  0  0  0
  7 21  1  0  0  0  0
  8 12  2  0  0  0  0
  8 22  1  0  0  0  0
  9 26  1  0  0  0  0
 10 26  2  0  0  0  0
 11 27  1  0  0  0  0
 12 28  1  0  0  0  0
 13 14  2  0  0  0  0
 13 29  1  0  0  0  0
 14 30  1  0  0  0  0
 15 24  1  0  0  0  0
 15 27  2  0  0  0  0
 16 25  1  0  0  0  0
 16 28  2  0  0  0  0
 17 30  2  0  0  0  0
 17 31  1  0  0  0  0
 18 32  1  0  0  0  0
 19 32  1  0  0  0  0
 19 33  2  0  0  0  0
 19 34  1  0  0  0  0
 20 23  2  0  0  0  0
 20 39  1  0  0  0  0
 21 24  2  0  0  0  0
 21 40  1  0  0  0  0
 22 25  2  0  0  0  0
 22 50  1  0  0  0  0
 23 51  1  0  0  0  0
 24 41  1  0  0  0  0
 25 42  1  0  0  0  0
 26 80  1  0  0  0  0
 27 81  1  0  0  0  0
 28 81  1  0  0  0  0
 29 31  2  0  0  0  0
 29 80  1  0  0  0  0
 30 82  1  0  0  0  0
 31 83  1  0  0  0  0
 32 64  2  0  0  0  0
 33 65  1  0  0  0  0
 33 68  1  0  0  0  0
 34 69  1  0  0  0  0
 34 75  2  0  0  0  0
 35 52  1  0  0  0  0
 35 70  1  0  0  0  0
 35 76  2  0  0  0  0
 36 61  1  0  0  0  0
 36 66  1  0  0  0  0
 36 77  2  0  0  0  0
 37 62  1  0  0  0  0
 37 71  1  0  0  0  0
 37 78  2  0  0  0  0
 38 67  1  0  0  0  0
 38 72  1  0  0  0  0
 38 79  2  0  0  0  0
 39 43  1  0  0  0  0
 40 52  1  0  0  0  0
 41 66  1  0  0  0  0
 42 73  1  0  0  0  0
 43 45  1  0  0  0  0
 44 46  1  0  0  0  0
 44 47  1  0  0  0  0
 45 51  1  0  0  0  0
 46 53  1  0  0  0  0
 47 67  1  0  0  0  0
 48 53  1  0  0  0  0
 48 67  1  0  0  0  0
 49 50  1  0  0  0  0
 49 73  1  0  0  0  0
 50 59  1  0  0  0  0
 51 70  1  0  0  0  0
 52 66  1  0  0  0  0
 53 65  1  0  0  0  0
 54 62  1  0  0  0  0
 55 63  1  0  0  0  0
 56 63  1  0  0  0  0
 57 63  1  0  0  0  0
 58 74  1  0  0  0  0
 59 60  1  0  0  0  0
 60 72  1  0  0  0  0
 61 63  1  0  0  0  0
 61 71  1  0  0  0  0
 62 74  1  0  0  0  0
 64 65  1  0  0  0  0
M  CHG  2  73   1  74   1
M  ISO  4  28 101  38 100  72 100  81 101
M  END
> <Batch ID>
0132

> <Smiles>
CNC(C)C(=O)NC(C(=O)N1Cc2cc([101O:1][101c:1]3ccc4c(c3)CNCC4CC[100NH:0][100C:0](=O)N3CCCC(n4nc(-c5ccc(Oc6ccc(F)cc6F)cc5)c(C(N)=O)c4N)C3)ccc2CC1C(=O)NC1CCCc2ccccc21)C(C)(C)C

> <Shape>
0.222

> <Color>
0.114

> <Negative vol penalty>
0.000

$$$$

  -OEChem-04052320523D

 88 96  0     1  0  0  0  0  0999 V2000
  -20.5636  -23.4861   27.0983 C   0  0  0  0  0  0  0  0  0  0  0  0
  -19.4099  -23.4379   26.3239 C   0  0  0  0  0  0  0  0  0  0  0  0
  -24.5511  -11.1138   19.5854 C   0  0  0  0  0  0  0  0  0  0  0  0
  -27.7688  -23.4641   20.8551 C   0  0  0  0  0  0  0  0  0  0  0  0
  -28.4518  -23.1818   18.5549 C   0  0  0  0  0  0  0  0  0  0  0  0
  -21.8130  -23.4143   26.4859 C   0  0  0  0  0  0  0  0  0  0  0  0
  -19.5050  -23.3060   24.9381 C   0  0  0  0  0  0  0  0  0  0  0  0
  -20.9012  -17.9664   19.5721 C   0  0  0  0  0  0  0  0  0  0  0  0
  -25.6575  -11.1379   20.4343 C   0  0  0  0  0  0  0  0  0  0  0  0
  -23.8198  -12.2800   19.3594 C   0  0  0  0  0  0  0  0  0  0  0  0
  -27.8010  -24.8493   20.6946 C   0  0  0  0  0  0  0  0  0  0  0  0
  -28.4838  -24.5670   18.3943 C   0  0  0  0  0  0  0  0  0  0  0  0
  -21.7408  -16.8555   19.6419 C   0  0  0  0  0  0  0  0  0  0  0  0
  -25.8348  -27.2469   19.3459 C   0  0  0  0  0  0  0  0  0  0  0  0
  -24.7644  -27.9833   19.8534 C   0  0  0  0  0  0  0  0  0  0  0  0
  -20.9391  -16.3972   21.8705 C   0  0  0  0  0  0  0  0  0  0  0  0
  -26.2800  -29.1935   21.2941 C   0  0  0  0  0  0  0  0  0  0  0  0
  -28.0943  -22.6303   19.7852 C   0  0  0  0  0  0  0  0  0  0  0  0
  -26.9667  -20.3427   19.7303 C   0  0  0  0  0  0  0  0  0  0  0  0
  -21.9227  -23.2940   25.0907 C   0  0  0  0  0  0  0  0  0  0  0  0
  -20.0810  -18.3079   20.6570 C   0  0  0  0  0  0  0  0  0  0  0  0
  -20.7564  -23.2079   24.3035 C   0  0  0  0  0  0  0  0  0  0  0  0
  -20.0882  -17.5115   21.8110 C   0  0  0  0  0  0  0  0  0  0  0  0
  -26.0327  -12.3281   21.0574 C   0  0  0  0  0  0  0  0  0  0  0  0
  -24.1950  -13.4702   19.9825 C   0  0  0  0  0  0  0  0  0  0  0  0
  -25.3015  -13.4943   20.8315 C   0  0  0  0  0  0  0  0  0  0  0  0
  -28.1584  -25.4008   19.4642 C   0  0  0  0  0  0  0  0  0  0  0  0
  -21.7619  -16.0724   20.7923 C   0  0  0  0  0  0  0  0  0  0  0  0
  -27.1278  -27.4838   19.8126 C   0  0  0  0  0  0  0  0  0  0  0  0
  -24.9869  -28.9565   20.8275 C   0  0  0  0  0  0  0  0  0  0  0  0
  -27.3504  -28.4570   20.7867 C   0  0  0  0  0  0  0  0  0  0  0  0
  -28.0619  -21.1993   19.9505 C   0  0  0  0  0  0  0  0  0  0  0  0
  -27.4459  -19.0899   20.0255 C   0  0  0  0  0  0  0  0  0  0  0  0
  -25.6352  -20.6519   19.2975 C   0  0  0  0  0  0  0  0  0  0  0  0
  -19.8448  -20.8233   22.5859 C   0  0  0  0  0  0  0  0  0  0  0  0
  -17.2428  -19.2365   23.6968 C   0  0  0  0  0  0  0  0  0  0  0  0
  -15.6183  -16.2630   24.1042 C   0  0  0  0  0  0  0  0  0  0  0  0
  -31.4318  -15.1988   19.6841 C   0  0  0  0  0  0  0  0  0  0  0  0
  -23.2999  -23.2126   24.4808 C   0  0  0  0  0  0  0  0  0  0  0  0
  -19.1614  -19.4939   20.5557 C   0  0  0  0  0  0  0  0  0  0  0  0
  -19.2120  -17.8237   22.9955 C   0  0  0  0  0  0  0  0  0  0  0  0
  -23.3077  -23.5206   22.9870 C   0  0  0  0  0  0  0  0  0  0  0  0
  -31.7592  -17.6529   22.2428 C   0  0  0  0  0  0  0  0  0  0  0  0
  -22.2305  -22.7088   22.2834 C   0  0  0  0  0  0  0  0  0  0  0  0
  -30.7411  -18.7259   21.8529 C   0  0  0  0  0  0  0  0  0  0  0  0
  -32.4265  -17.0356   21.0157 C   0  0  0  0  0  0  0  0  0  0  0  0
  -30.4750  -17.5812   19.6129 C   0  0  0  0  0  0  0  0  0  0  0  0
  -20.8358  -23.0954   22.7917 C   0  0  1  0  0  0  0  0  0  0  0  0
  -18.7469  -20.0464   21.9160 C   0  0  1  0  0  0  0  0  0  0  0  0
  -29.7352  -18.1935   20.8146 C   0  0  2  0  0  0  0  0  0  0  0  0
  -13.5279  -15.2783   25.0830 C   0  0  0  0  0  0  0  0  0  0  0  0
  -18.4309  -19.5019   26.4946 C   0  0  0  0  0  0  0  0  0  0  0  0
  -16.8407  -17.7272   27.2626 C   0  0  0  0  0  0  0  0  0  0  0  0
  -15.9626  -19.8843   26.3688 C   0  0  0  0  0  0  0  0  0  0  0  0
  -25.2404  -18.6726   23.5813 C   0  0  0  0  0  0  0  0  0  0  0  0
  -14.7119  -15.2711   21.4672 C   0  0  0  0  0  0  0  0  0  0  0  0
  -27.2218  -12.3270   21.9617 C   0  0  0  0  0  0  0  0  0  0  0  0
  -25.7038  -14.7705   21.4997 C   0  0  0  0  0  0  0  0  0  0  0  0
  -23.3917  -14.7105   19.7222 C   0  0  0  0  0  0  0  0  0  1  0  0
  -25.2494  -14.8884   22.9657 C   0  0  0  0  0  0  0  0  0  0  0  0
  -30.3175  -13.4623   18.3049 C   0  0  0  0  0  0  0  0  0  0  0  0
  -28.5214  -11.8949   21.2833 C   0  0  0  0  0  0  0  0  0  0  0  0
  -25.6060  -16.2028   23.6533 C   0  0  0  0  0  0  0  0  0  0  0  0
  -30.0927  -12.4671   19.4279 C   0  0  0  0  0  0  0  0  0  0  0  0
  -16.9962  -18.2127   24.7784 C   0  0  1  0  0  0  0  0  0  0  0  0
  -14.1805  -15.8558   23.8367 C   0  0  2  0  0  0  0  0  0  0  0  0
  -17.0757  -18.8265   26.2047 C   0  0  0  0  0  0  0  0  0  0  0  0
  -29.1545  -20.5459   20.3546 N   0  0  0  0  0  0  0  0  0  0  0  0
  -28.7482  -19.2654   20.3907 N   0  0  0  0  0  0  0  0  0  0  0  0
  -18.3348  -18.9972   22.8505 N   0  0  0  0  0  0  0  0  0  0  0  0
  -31.4179  -16.5489   20.0714 N   0  0  0  0  0  0  0  0  0  0  0  0
  -26.8761  -17.8662   20.0058 N   0  0  0  0  0  0  0  0  0  0  0  0
  -25.3110  -21.9905   19.0377 N   0  0  0  0  0  0  0  0  0  0  0  0
  -19.8645  -22.1657   22.2587 N   0  0  0  0  0  0  0  0  0  0  0  0
  -15.7143  -17.5900   24.4664 N   0  0  0  0  0  0  0  0  0  0  0  0
  -30.4374  -14.8188   18.7911 N   0  0  0  0  0  0  0  0  0  0  0  0
  -24.9440  -17.3435   22.9785 N   0  3  0  0  0  0  0  0  0  0  0  0
  -14.1252  -14.8287   22.7583 N   0  3  0  0  0  0  0  0  0  0  0  0
  -28.8129  -12.7729   20.1232 N   0  3  0  0  0  0  0  0  0  0  0  0
  -24.7543  -19.7693   19.1615 O   0  0  0  0  0  0  0  0  0  0  0  0
  -20.6160  -20.2478   23.3447 O   0  0  0  0  0  0  0  0  0  0  0  0
  -16.4899  -20.2090   23.6016 O   0  0  0  0  0  0  0  0  0  0  0  0
  -16.5614  -15.4812   24.0055 O   0  0  0  0  0  0  0  0  0  0  0  0
  -32.2653  -14.3905   20.1072 O   0  0  0  0  0  0  0  0  0  0  0  0
  -28.1896  -26.7524   19.3072 O   0  0  0  0  0  0  0  0  0  0  0  0
  -22.5809  -14.9879   20.8633 O   0  0  0  0  0  0  0  0  0  1  0  0
  -23.9591  -29.6647   21.3136 F   0  0  0  0  0  0  0  0  0  0  0  0
  -28.5905  -28.6899   21.2380 F   0  0  0  0  0  0  0  0  0  0  0  0
  1  2  1  0  0  0  0
  1  6  2  0  0  0  0
  2  7  2  0  0  0  0
  3  9  1  0  0  0  0
  3 10  2  0  0  0  0
  4 11  2  0  0  0  0
  4 18  1  0  0  0  0
  5 12  1  0  0  0  0
  5 18  2  0  0  0  0
  6 20  1  0  0  0  0
  7 22  1  0  0  0  0
  8 13  2  0  0  0  0
  8 21  1  0  0  0  0
  9 24  2  0  0  0  0
 10 25  1  0  0  0  0
 11 27  1  0  0  0  0
 12 27  2  0  0  0  0
 13 28  1  0  0  0  0
 14 15  2  0  0  0  0
 14 29  1  0  0  0  0
 15 30  1  0  0  0  0
 16 23  1  0  0  0  0
 16 28  2  0  0  0  0
 17 30  2  0  0  0  0
 17 31  1  0  0  0  0
 18 32  1  0  0  0  0
 19 32  1  0  0  0  0
 19 33  2  0  0  0  0
 19 34  1  0  0  0  0
 20 22  2  0  0  0  0
 20 39  1  0  0  0  0
 21 23  2  0  0  0  0
 21 40  1  0  0  0  0
 22 48  1  0  0  0  0
 23 41  1  0  0  0  0
 24 26  1  0  0  0  0
 24 57  1  0  0  0  0
 25 26  2  0  0  0  0
 25 59  1  0  0  0  0
 26 58  1  0  0  0  0
 27 85  1  0  0  0  0
 28 86  1  0  0  0  0
 29 31  2  0  0  0  0
 29 85  1  0  0  0  0
 30 87  1  0  0  0  0
 31 88  1  0  0  0  0
 32 68  2  0  0  0  0
 33 69  1  0  0  0  0
 33 72  1  0  0  0  0
 34 73  1  0  0  0  0
 34 80  2  0  0  0  0
 35 49  1  0  0  0  0
 35 74  1  0  0  0  0
 35 81  2  0  0  0  0
 36 65  1  0  0  0  0
 36 70  1  0  0  0  0
 36 82  2  0  0  0  0
 37 66  1  0  0  0  0
 37 75  1  0  0  0  0
 37 83  2  0  0  0  0
 38 71  1  0  0  0  0
 38 76  1  0  0  0  0
 38 84  2  0  0  0  0
 39 42  1  0  0  0  0
 40 49  1  0  0  0  0
 41 70  1  0  0  0  0
 42 44  1  0  0  0  0
 43 45  1  0  0  0  0
 43 46  1  0  0  0  0
 44 48  1  0  0  0  0
 45 50  1  0  0  0  0
 46 71  1  0  0  0  0
 47 50  1  0  0  0  0
 47 71  1  0  0  0  0
 48 74  1  0  0  0  0
 49 70  1  0  0  0  0
 50 69  1  0  0  0  0
 51 66  1  0  0  0  0
 52 67  1  0  0  0  0
 53 67  1  0  0  0  0
 54 67  1  0  0  0  0
 55 77  1  0  0  0  0
 56 78  1  0  0  0  0
 57 62  1  0  0  0  0
 58 60  1  0  0  0  0
 59 86  1  0  0  0  0
 60 63  1  0  0  0  0
 61 64  1  0  0  0  0
 61 76  1  0  0  0  0
 62 79  1  0  0  0  0
 63 77  1  0  0  0  0
 64 79  1  0  0  0  0
 65 67  1  0  0  0  0
 65 75  1  0  0  0  0
 66 78  1  0  0  0  0
 68 69  1  0  0  0  0
M  CHG  3  77   1  78   1  79   1
M  ISO  4  38 100  59 101  76 100  86 101
M  END
> <Batch ID>
0132

> <Smiles>
CNCCCc1c(CCNCC[100NH:0][100C:0](=O)N2CCCC(n3nc(-c4ccc(Oc5ccc(F)cc5F)cc4)c(C(N)=O)c3N)C2)cccc1[101CH2:1][101O:1]c1ccc2c(c1)CN(C(=O)C(NC(=O)C(C)NC)C(C)(C)C)C(C(=O)NC1CCCc3ccccc31)C2

> <Shape>
0.179

> <Color>
0.084

> <Negative vol penalty>
0.000

$$$$

  -OEChem-04052320523D

 84 93  0     1  0  0  0  0  0999 V2000
  -30.8633  -25.8753   17.6594 C   0  0  0  0  0  0  0  0  0  0  0  0
  -29.4903  -25.7190   17.8199 C   0  0  0  0  0  0  0  0  0  0  0  0
  -24.3101  -16.9955   22.9822 C   0  0  0  0  0  0  0  0  0  0  0  0
  -23.4079  -17.8690   20.9182 C   0  0  0  0  0  0  0  0  0  0  0  0
  -31.6113  -26.5135   18.6479 C   0  0  0  0  0  0  0  0  0  0  0  0
  -28.8646  -26.1998   18.9696 C   0  0  0  0  0  0  0  0  0  0  0  0
  -23.2376  -28.5827   19.3758 C   0  0  0  0  0  0  0  0  0  0  0  0
  -24.9173  -15.9564   22.2771 C   0  0  0  0  0  0  0  0  0  0  0  0
  -24.0152  -16.8299   20.2130 C   0  0  0  0  0  0  0  0  0  0  0  0
  -22.0156  -28.0403   19.7708 C   0  0  0  0  0  0  0  0  0  0  0  0
  -27.6712  -15.5200   20.3643 C   0  0  0  0  0  0  0  0  0  0  0  0
  -28.9956  -15.2125   20.6757 C   0  0  0  0  0  0  0  0  0  0  0  0
  -22.3507  -28.9185   21.9925 C   0  0  0  0  0  0  0  0  0  0  0  0
  -17.4564  -27.4137   21.6068 C   0  0  0  0  0  0  0  0  0  0  0  0
  -16.0264  -25.5707   22.1922 C   0  0  0  0  0  0  0  0  0  0  0  0
  -28.3313  -12.9715   21.2873 C   0  0  0  0  0  0  0  0  0  0  0  0
  -23.5553  -17.9517   22.3028 C   0  0  0  0  0  0  0  0  0  0  0  0
  -23.4759  -20.2876   23.3250 C   0  0  0  0  0  0  0  0  0  0  0  0
  -30.9930  -27.0110   19.8058 C   0  0  0  0  0  0  0  0  0  0  0  0
  -24.0318  -29.2890   20.2906 C   0  0  0  0  0  0  0  0  0  0  0  0
  -29.6052  -26.8441   19.9751 C   0  0  0  0  0  0  0  0  0  0  0  0
  -23.5813  -29.4711   21.6059 C   0  0  0  0  0  0  0  0  0  0  0  0
  -16.2753  -26.9384   22.1655 C   0  0  0  0  0  0  0  0  0  0  0  0
  -24.7699  -15.8737   20.8925 C   0  0  0  0  0  0  0  0  0  0  0  0
  -21.5733  -28.2056   21.0801 C   0  0  0  0  0  0  0  0  0  0  0  0
  -26.6768  -14.5534   20.5144 C   0  0  0  0  0  0  0  0  0  0  0  0
  -29.3256  -13.9382   21.1372 C   0  0  0  0  0  0  0  0  0  0  0  0
  -27.0069  -13.2791   20.9759 C   0  0  0  0  0  0  0  0  0  0  0  0
  -22.9273  -19.0250   23.0307 C   0  0  0  0  0  0  0  0  0  0  0  0
  -18.3492  -26.4874   21.0922 C   0  0  0  0  0  0  0  0  0  0  0  0
  -16.9831  -24.7269   21.6512 C   0  0  0  0  0  0  0  0  0  0  0  0
  -22.4898  -20.9347   24.0289 C   0  0  0  0  0  0  0  0  0  0  0  0
  -24.7618  -20.8273   22.9919 C   0  0  0  0  0  0  0  0  0  0  0  0
  -26.9405  -28.8927   21.5098 C   0  0  0  0  0  0  0  0  0  0  0  0
  -26.3589  -31.7983   22.8294 C   0  0  0  0  0  0  0  0  0  0  0  0
  -24.0651  -34.0992   23.8741 C   0  0  0  0  0  0  0  0  0  0  0  0
  -16.5362  -20.3235   24.2069 C   0  0  0  0  0  0  0  0  0  0  0  0
  -31.8503  -27.6517   20.8684 C   0  0  0  0  0  0  0  0  0  0  0  0
  -25.3352  -29.8909   19.8417 C   0  0  0  0  0  0  0  0  0  0  0  0
  -24.3870  -30.2384   22.6210 C   0  0  0  0  0  0  0  0  0  0  0  0
  -31.0537  -28.4652   21.8852 C   0  0  0  0  0  0  0  0  0  0  0  0
  -18.7962  -20.0797   26.9472 C   0  0  0  0  0  0  0  0  0  0  0  0
  -15.7198  -28.8633   23.7966 C   0  0  0  0  0  0  0  0  0  0  0  0
  -14.8292  -27.7168   24.1609 C   0  0  0  0  0  0  0  0  0  0  0  0
  -29.8361  -27.6794   22.3614 C   0  0  0  0  0  0  0  0  0  0  0  0
  -20.1607  -19.8956   26.2808 C   0  0  0  0  0  0  0  0  0  0  0  0
  -17.6903  -19.3619   26.1766 C   0  0  0  0  0  0  0  0  0  0  0  0
  -18.9733  -19.5231   24.0785 C   0  0  0  0  0  0  0  0  0  0  0  0
  -15.2797  -27.8903   22.7333 C   0  0  0  0  0  0  0  0  0  0  0  0
  -28.8864  -27.3741   21.1968 C   0  0  1  0  0  0  0  0  0  0  0  0
  -26.3014  -30.1507   20.9933 C   0  0  1  0  0  0  0  0  0  0  0  0
  -20.1117  -20.2754   24.7886 C   0  0  2  0  0  0  0  0  0  0  0  0
  -23.8918  -36.3620   24.9450 C   0  0  0  0  0  0  0  0  0  0  0  0
  -27.0454  -30.5675   25.5356 C   0  0  0  0  0  0  0  0  0  0  0  0
  -25.9590  -32.5398   26.6301 C   0  0  0  0  0  0  0  0  0  0  0  0
  -27.9579  -32.8677   25.1742 C   0  0  0  0  0  0  0  0  0  0  0  0
  -22.6726  -35.2339   21.5220 C   0  0  0  0  0  0  0  0  0  0  0  0
  -19.6348  -26.9640   20.4828 C   0  0  0  0  0  0  0  0  0  1  0  0
  -15.5202  -22.7954   22.2468 C   0  0  0  0  0  0  0  0  0  0  0  0
  -15.5216  -21.2772   22.1525 C   0  0  0  0  0  0  0  0  0  0  0  0
  -25.7371  -32.2826   24.1170 C   0  0  1  0  0  0  0  0  0  0  0  0
  -23.9566  -35.5942   23.6339 C   0  0  2  0  0  0  0  0  0  0  0  0
  -26.6603  -32.0482   25.3458 C   0  0  0  0  0  0  0  0  0  0  0  0
  -21.6889  -18.8767   23.5086 N   0  0  0  0  0  0  0  0  0  0  0  0
  -18.1422  -25.1515   21.1000 N   0  0  0  0  0  0  0  0  0  0  0  0
  -21.4512  -20.0545   24.1105 N   0  0  0  0  0  0  0  0  0  0  0  0
  -25.6573  -30.8024   22.1355 N   0  0  0  0  0  0  0  0  0  0  0  0
  -17.6972  -19.7675   24.7690 N   0  0  0  0  0  0  0  0  0  0  0  0
  -22.4186  -22.1651   24.5799 N   0  0  0  0  0  0  0  0  0  0  0  0
  -25.6539  -20.0277   22.2645 N   0  0  0  0  0  0  0  0  0  0  0  0
  -16.7152  -23.3357   21.6856 N   0  0  0  0  0  0  0  0  0  0  0  0
  -28.1088  -28.5467   20.8580 N   0  0  0  0  0  0  0  0  0  0  0  0
  -25.3783  -33.6795   23.8969 N   0  0  0  0  0  0  0  0  0  0  0  0
  -16.6301  -20.6865   22.8689 N   0  0  0  0  0  0  0  0  0  0  0  0
  -22.7301  -35.9046   22.8463 N   0  3  0  0  0  0  0  0  0  0  0  0
  -25.1155  -21.9783   23.3435 O   0  0  0  0  0  0  0  0  0  0  0  0
  -26.4135  -28.2821   22.4323 O   0  0  0  0  0  0  0  0  0  0  0  0
  -27.4242  -32.2908   22.4496 O   0  0  0  0  0  0  0  0  0  0  0  0
  -23.0832  -33.3766   24.0299 O   0  0  0  0  0  0  0  0  0  0  0  0
  -15.4949  -20.4895   24.8512 O   0  0  0  0  0  0  0  0  0  0  0  0
  -25.3626  -14.8600   20.2040 O   0  0  0  0  0  0  0  0  0  0  0  0
  -20.3811  -27.6766   21.4685 O   0  0  0  0  0  0  0  0  0  1  0  0
  -30.5977  -13.6426   21.4348 F   0  0  0  0  0  0  0  0  0  0  0  0
  -26.0562  -12.3459   21.1211 F   0  0  0  0  0  0  0  0  0  0  0  0
  1  2  1  0  0  0  0
  1  5  2  0  0  0  0
  2  6  2  0  0  0  0
  3  8  2  0  0  0  0
  3 17  1  0  0  0  0
  4  9  1  0  0  0  0
  4 17  2  0  0  0  0
  5 19  1  0  0  0  0
  6 21  1  0  0  0  0
  7 10  2  0  0  0  0
  7 20  1  0  0  0  0
  8 24  1  0  0  0  0
  9 24  2  0  0  0  0
 10 25  1  0  0  0  0
 11 12  2  0  0  0  0
 11 26  1  0  0  0  0
 12 27  1  0  0  0  0
 13 22  1  0  0  0  0
 13 25  2  0  0  0  0
 14 23  2  0  0  0  0
 14 30  1  0  0  0  0
 15 23  1  0  0  0  0
 15 31  2  0  0  0  0
 16 27  2  0  0  0  0
 16 28  1  0  0  0  0
 17 29  1  0  0  0  0
 18 29  1  0  0  0  0
 18 32  2  0  0  0  0
 18 33  1  0  0  0  0
 19 21  2  0  0  0  0
 19 38  1  0  0  0  0
 20 22  2  0  0  0  0
 20 39  1  0  0  0  0
 21 50  1  0  0  0  0
 22 40  1  0  0  0  0
 23 49  1  0  0  0  0
 24 81  1  0  0  0  0
 25 82  1  0  0  0  0
 26 28  2  0  0  0  0
 26 81  1  0  0  0  0
 27 83  1  0  0  0  0
 28 84  1  0  0  0  0
 29 64  2  0  0  0  0
 30 58  1  0  0  0  0
 30 65  2  0  0  0  0
 31 65  1  0  0  0  0
 31 71  1  0  0  0  0
 32 66  1  0  0  0  0
 32 69  1  0  0  0  0
 33 70  1  0  0  0  0
 33 76  2  0  0  0  0
 34 51  1  0  0  0  0
 34 72  1  0  0  0  0
 34 77  2  0  0  0  0
 35 61  1  0  0  0  0
 35 67  1  0  0  0  0
 35 78  2  0  0  0  0
 36 62  1  0  0  0  0
 36 73  1  0  0  0  0
 36 79  2  0  0  0  0
 37 68  1  0  0  0  0
 37 74  1  0  0  0  0
 37 80  2  0  0  0  0
 38 41  1  0  0  0  0
 39 51  1  0  0  0  0
 40 67  1  0  0  0  0
 41 45  1  0  0  0  0
 42 46  1  0  0  0  0
 42 47  1  0  0  0  0
 43 44  1  0  0  0  0
 43 49  1  0  0  0  0
 44 49  1  0  0  0  0
 45 50  1  0  0  0  0
 46 52  1  0  0  0  0
 47 68  1  0  0  0  0
 48 52  1  0  0  0  0
 48 68  1  0  0  0  0
 50 72  1  0  0  0  0
 51 67  1  0  0  0  0
 52 66  1  0  0  0  0
 53 62  1  0  0  0  0
 54 63  1  0  0  0  0
 55 63  1  0  0  0  0
 56 63  1  0  0  0  0
 57 75  1  0  0  0  0
 58 82  1  0  0  0  0
 59 60  1  0  0  0  0
 59 71  1  0  0  0  0
 60 74  1  0  0  0  0
 61 63  1  0  0  0  0
 61 73  1  0  0  0  0
 62 75  1  0  0  0  0
 64 66  1  0  0  0  0
M  CHG  1  75   1
M  ISO  4  37 100  58 101  74 100  82 101
M  END
> <Batch ID>
0132

> <Smiles>
CNC(C)C(=O)NC(C(=O)N1Cc2cc([101O:1][101CH2:1]c3cc(C4CC4)cc(NCC[100NH:0][100C:0](=O)N4CCCC(n5nc(-c6ccc(Oc7ccc(F)cc7F)cc6)c(C(N)=O)c5N)C4)n3)ccc2CC1C(=O)NC1CCCc2ccccc21)C(C)(C)C

> <Shape>
0.259

> <Color>
0.064

> <Negative vol penalty>
0.000

$$$$

  -OEChem-04052320523D

 85 94  0     1  0  0  0  0  0999 V2000
  -25.6150   -5.4788   25.1826 C   0  0  0  0  0  0  0  0  0  0  0  0
  -26.1597   -5.6630   23.9158 C   0  0  0  0  0  0  0  0  0  0  0  0
  -26.2007  -30.4493   20.6597 C   0  0  0  0  0  0  0  0  0  0  0  0
  -24.6655  -28.7612   21.4536 C   0  0  0  0  0  0  0  0  0  0  0  0
  -24.5205   -6.2420   25.5872 C   0  0  0  0  0  0  0  0  0  0  0  0
  -25.6096   -6.6098   23.0524 C   0  0  0  0  0  0  0  0  0  0  0  0
  -29.5936  -12.0228   20.4605 C   0  0  0  0  0  0  0  0  0  0  0  0
  -25.1351  -31.3289   20.4693 C   0  0  0  0  0  0  0  0  0  0  0  0
  -23.5998  -29.6408   21.2632 C   0  0  0  0  0  0  0  0  0  0  0  0
  -30.3432  -12.9652   19.7563 C   0  0  0  0  0  0  0  0  0  0  0  0
  -23.1981  -33.3441   22.3719 C   0  0  0  0  0  0  0  0  0  0  0  0
  -23.3547  -34.6576   22.8144 C   0  0  0  0  0  0  0  0  0  0  0  0
  -28.3349  -13.7730   18.6782 C   0  0  0  0  0  0  0  0  0  0  0  0
  -27.5898  -20.1888   21.3570 C   0  0  0  0  0  0  0  0  0  0  0  0
  -29.2962  -18.5735   21.8700 C   0  0  0  0  0  0  0  0  0  0  0  0
  -23.0162  -35.4576   20.5600 C   0  0  0  0  0  0  0  0  0  0  0  0
  -25.9659  -29.1653   21.1518 C   0  0  0  0  0  0  0  0  0  0  0  0
  -27.8414  -28.0985   22.5127 C   0  0  0  0  0  0  0  0  0  0  0  0
  -23.9627   -7.2053   24.7319 C   0  0  0  0  0  0  0  0  0  0  0  0
  -28.2080  -11.9621   20.2876 C   0  0  0  0  0  0  0  0  0  0  0  0
  -24.5058   -7.3856   23.4455 C   0  0  0  0  0  0  0  0  0  0  0  0
  -27.5772  -12.8394   19.3903 C   0  0  0  0  0  0  0  0  0  0  0  0
  -28.2920  -19.4374   22.2926 C   0  0  0  0  0  0  0  0  0  0  0  0
  -23.8346  -30.9247   20.7711 C   0  0  0  0  0  0  0  0  0  0  0  0
  -29.7155  -13.8380   18.8671 C   0  0  0  0  0  0  0  0  0  0  0  0
  -22.9506  -33.0874   21.0233 C   0  0  0  0  0  0  0  0  0  0  0  0
  -23.2638  -35.7143   21.9085 C   0  0  0  0  0  0  0  0  0  0  0  0
  -22.8596  -34.1441   20.1174 C   0  0  0  0  0  0  0  0  0  0  0  0
  -27.0662  -28.2560   21.3482 C   0  0  0  0  0  0  0  0  0  0  0  0
  -27.9274  -20.0412   20.0213 C   0  0  0  0  0  0  0  0  0  0  0  0
  -29.5573  -18.4980   20.5114 C   0  0  0  0  0  0  0  0  0  0  0  0
  -28.7497  -27.1198   22.1908 C   0  0  0  0  0  0  0  0  0  0  0  0
  -27.7486  -28.7761   23.7728 C   0  0  0  0  0  0  0  0  0  0  0  0
  -24.9753  -10.3155   21.2436 C   0  0  0  0  0  0  0  0  0  0  0  0
  -24.4118  -13.3227   21.0209 C   0  0  0  0  0  0  0  0  0  0  0  0
  -24.3060  -16.7318   21.0819 C   0  0  0  0  0  0  0  0  0  0  0  0
  -28.6888  -22.6524   18.2046 C   0  0  0  0  0  0  0  0  0  0  0  0
  -22.7504   -7.9732   25.1959 C   0  0  0  0  0  0  0  0  0  0  0  0
  -27.3687  -10.9223   20.9791 C   0  0  0  0  0  0  0  0  0  0  0  0
  -26.0889  -12.7147   19.2103 C   0  0  0  0  0  0  0  0  0  0  0  0
  -22.4611   -9.2177   24.3606 C   0  0  0  0  0  0  0  0  0  0  0  0
  -31.0916  -25.2682   18.4521 C   0  0  0  0  0  0  0  0  0  0  0  0
  -28.0105  -20.9175   24.3912 C   0  0  0  0  0  0  0  0  0  0  0  0
  -29.0715  -19.9112   24.7106 C   0  0  0  0  0  0  0  0  0  0  0  0
  -22.5451   -8.8932   22.8725 C   0  0  0  0  0  0  0  0  0  0  0  0
  -30.4023  -26.3163   19.3274 C   0  0  0  0  0  0  0  0  0  0  0  0
  -30.1014  -24.5697   17.5227 C   0  0  0  0  0  0  0  0  0  0  0  0
  -28.2405  -25.0279   19.0721 C   0  0  0  0  0  0  0  0  0  0  0  0
  -27.9719  -19.5578   23.7425 C   0  0  0  0  0  0  0  0  0  0  0  0
  -23.9525   -8.4201   22.4895 C   0  0  1  0  0  0  0  0  0  0  0  0
  -25.9684  -11.4340   21.3620 C   0  0  1  0  0  0  0  0  0  0  0  0
  -29.1889  -25.7200   20.0660 C   0  0  2  0  0  0  0  0  0  0  0  0
  -23.3581  -19.0257   21.4518 C   0  0  0  0  0  0  0  0  0  0  0  0
  -23.1967  -12.8688   18.2602 C   0  0  0  0  0  0  0  0  0  0  0  0
  -22.3928  -15.2395   18.3023 C   0  0  0  0  0  0  0  0  0  0  0  0
  -21.5696  -13.6147   20.0067 C   0  0  0  0  0  0  0  0  0  0  0  0
  -25.1881  -16.7673   23.9067 C   0  0  0  0  0  0  0  0  0  0  0  0
  -27.1951  -20.8325   18.9895 C   0  0  0  0  0  0  0  0  0  0  0  0
  -31.9203  -16.6659   18.3596 C   0  0  0  0  0  0  0  0  0  0  0  0
  -31.6307  -15.2478   18.8260 C   0  0  0  0  0  0  0  0  0  1  0  0
  -30.7705  -17.6121   18.6677 C   0  0  0  0  0  0  0  0  0  0  0  0
  -23.9476  -14.4614   20.1485 C   0  0  1  0  0  0  0  0  0  0  0  0
  -23.7393  -17.7042   22.1006 C   0  0  2  0  0  0  0  0  0  0  0  0
  -22.8043  -14.0401   19.1827 C   0  0  0  0  0  0  0  0  0  0  0  0
  -27.4488  -27.4427   20.3602 N   0  0  0  0  0  0  0  0  0  0  0  0
  -28.8965  -19.2122   19.5728 N   0  0  0  0  0  0  0  0  0  0  0  0
  -28.4743  -26.7647   20.9030 N   0  0  0  0  0  0  0  0  0  0  0  0
  -25.4398  -12.5173   20.5158 N   0  0  0  0  0  0  0  0  0  0  0  0
  -28.9756  -24.0250   18.2855 N   0  0  0  0  0  0  0  0  0  0  0  0
  -29.7491  -26.5370   22.8864 N   0  0  0  0  0  0  0  0  0  0  0  0
  -26.7578  -29.7542   23.9341 N   0  0  0  0  0  0  0  0  0  0  0  0
  -24.8540   -9.5475   22.3860 N   0  0  0  0  0  0  0  0  0  0  0  0
  -23.5950  -15.5508   21.0526 N   0  0  0  0  0  0  0  0  0  0  0  0
  -27.6094  -22.2176   18.9639 N   0  0  0  0  0  0  0  0  0  0  0  0
  -24.7414  -17.9772   23.1694 N   0  3  0  0  0  0  0  0  0  0  0  0
  -28.5320  -28.5335   24.7220 O   0  0  0  0  0  0  0  0  0  0  0  0
  -24.3622  -10.1604   20.1939 O   0  0  0  0  0  0  0  0  0  0  0  0
  -23.8754  -13.1462   22.1184 O   0  0  0  0  0  0  0  0  0  0  0  0
  -25.2796  -16.9952   20.3796 O   0  0  0  0  0  0  0  0  0  0  0  0
  -29.3494  -21.8711   17.5116 O   0  0  0  0  0  0  0  0  0  0  0  0
  -22.7946  -31.7829   20.5856 O   0  0  0  0  0  0  0  0  0  0  0  0
  -30.4527  -14.7586   18.1862 O   0  0  0  0  0  0  0  0  0  1  0  0
  -30.5419  -17.6529   20.0698 O   0  0  0  0  0  0  0  0  0  0  0  0
  -23.4126  -36.9757   22.3340 F   0  0  0  0  0  0  0  0  0  0  0  0
  -22.6208  -33.9037   18.8209 F   0  0  0  0  0  0  0  0  0  0  0  0
  1  2  1  0  0  0  0
  1  5  2  0  0  0  0
  2  6  2  0  0  0  0
  3  8  2  0  0  0  0
  3 17  1  0  0  0  0
  4  9  1  0  0  0  0
  4 17  2  0  0  0  0
  5 19  1  0  0  0  0
  6 21  1  0  0  0  0
  7 10  2  0  0  0  0
  7 20  1  0  0  0  0
  8 24  1  0  0  0  0
  9 24  2  0  0  0  0
 10 25  1  0  0  0  0
 11 12  2  0  0  0  0
 11 26  1  0  0  0  0
 12 27  1  0  0  0  0
 13 22  1  0  0  0  0
 13 25  2  0  0  0  0
 14 23  1  0  0  0  0
 14 30  2  0  0  0  0
 15 23  2  0  0  0  0
 15 31  1  0  0  0  0
 16 27  2  0  0  0  0
 16 28  1  0  0  0  0
 17 29  1  0  0  0  0
 18 29  1  0  0  0  0
 18 32  2  0  0  0  0
 18 33  1  0  0  0  0
 19 21  2  0  0  0  0
 19 38  1  0  0  0  0
 20 22  2  0  0  0  0
 20 39  1  0  0  0  0
 21 50  1  0  0  0  0
 22 40  1  0  0  0  0
 23 49  1  0  0  0  0
 24 81  1  0  0  0  0
 25 82  1  0  0  0  0
 26 28  2  0  0  0  0
 26 81  1  0  0  0  0
 27 84  1  0  0  0  0
 28 85  1  0  0  0  0
 29 65  2  0  0  0  0
 30 58  1  0  0  0  0
 30 66  1  0  0  0  0
 31 66  2  0  0  0  0
 31 83  1  0  0  0  0
 32 67  1  0  0  0  0
 32 70  1  0  0  0  0
 33 71  1  0  0  0  0
 33 76  2  0  0  0  0
 34 51  1  0  0  0  0
 34 72  1  0  0  0  0
 34 77  2  0  0  0  0
 35 62  1  0  0  0  0
 35 68  1  0  0  0  0
 35 78  2  0  0  0  0
 36 63  1  0  0  0  0
 36 73  1  0  0  0  0
 36 79  2  0  0  0  0
 37 69  1  0  0  0  0
 37 74  1  0  0  0  0
 37 80  2  0  0  0  0
 38 41  1  0  0  0  0
 39 51  1  0  0  0  0
 40 68  1  0  0  0  0
 41 45  1  0  0  0  0
 42 46  1  0  0  0  0
 42 47  1  0  0  0  0
 43 44  1  0  0  0  0
 43 49  1  0  0  0  0
 44 49  1  0  0  0  0
 45 50  1  0  0  0  0
 46 52  1  0  0  0  0
 47 69  1  0  0  0  0
 48 52  1  0  0  0  0
 48 69  1  0  0  0  0
 50 72  1  0  0  0  0
 51 68  1  0  0  0  0
 52 67  1  0  0  0  0
 53 63  1  0  0  0  0
 54 64  1  0  0  0  0
 55 64  1  0  0  0  0
 56 64  1  0  0  0  0
 57 75  1  0  0  0  0
 58 74  1  0  0  0  0
 59 60  1  0  0  0  0
 59 61  1  0  0  0  0
 60 82  1  0  0  0  0
 61 83  1  0  0  0  0
 62 64  1  0  0  0  0
 62 73  1  0  0  0  0
 63 75  1  0  0  0  0
 65 67  1  0  0  0  0
M  CHG  1  75   1
M  ISO  4  37 100  60 101  74 100  82 101
M  END
> <Batch ID>
0132

> <Smiles>
CNC(C)C(=O)NC(C(=O)N1Cc2cc([101O:1][101CH2:1]CCOc3cc(C4CC4)cc(C[100NH:0][100C:0](=O)N4CCCC(n5nc(-c6ccc(Oc7ccc(F)cc7F)cc6)c(C(N)=O)c5N)C4)n3)ccc2CC1C(=O)NC1CCCc2ccccc21)C(C)(C)C

> <Shape>
0.265

> <Color>
0.066

> <Negative vol penalty>
0.000

$$$$

  -OEChem-04052320523D

 82 90  0     1  0  0  0  0  0999 V2000
  -17.8045  -32.5136   24.1319 C   0  0  0  0  0  0  0  0  0  0  0  0
  -19.1397  -32.8394   23.9158 C   0  0  0  0  0  0  0  0  0  0  0  0
  -25.2087  -18.4829   19.4690 C   0  0  0  0  0  0  0  0  0  0  0  0
  -27.2844  -17.4649   20.1705 C   0  0  0  0  0  0  0  0  0  0  0  0
  -17.4255  -31.1777   24.2565 C   0  0  0  0  0  0  0  0  0  0  0  0
  -20.0967  -31.8293   23.8252 C   0  0  0  0  0  0  0  0  0  0  0  0
  -26.2501  -30.2495   20.5151 C   0  0  0  0  0  0  0  0  0  0  0  0
  -24.5021  -17.3941   19.9798 C   0  0  0  0  0  0  0  0  0  0  0  0
  -26.5778  -16.3761   20.6813 C   0  0  0  0  0  0  0  0  0  0  0  0
  -27.5478  -29.8259   20.7987 C   0  0  0  0  0  0  0  0  0  0  0  0
  -25.0938  -13.5850   19.4820 C   0  0  0  0  0  0  0  0  0  0  0  0
  -25.5781  -12.3079   19.1993 C   0  0  0  0  0  0  0  0  0  0  0  0
  -26.7652  -27.5492   20.9504 C   0  0  0  0  0  0  0  0  0  0  0  0
  -31.1751  -27.2805   20.4817 C   0  0  0  0  0  0  0  0  0  0  0  0
  -25.8330  -11.8812   21.5636 C   0  0  0  0  0  0  0  0  0  0  0  0
  -30.1444  -27.4604   17.9617 C   0  0  0  0  0  0  0  0  0  0  0  0
  -26.5999  -18.5183   19.5644 C   0  0  0  0  0  0  0  0  0  0  0  0
  -27.6802  -20.8242   19.7168 C   0  0  0  0  0  0  0  0  0  0  0  0
  -18.3769  -30.1503   24.1578 C   0  0  0  0  0  0  0  0  0  0  0  0
  -25.1965  -29.3258   20.4577 C   0  0  0  0  0  0  0  0  0  0  0  0
  -19.7302  -30.4784   23.9499 C   0  0  0  0  0  0  0  0  0  0  0  0
  -25.4555  -27.9632   20.6634 C   0  0  0  0  0  0  0  0  0  0  0  0
  -31.9681  -26.9322   19.3940 C   0  0  0  0  0  0  0  0  0  0  0  0
  -31.4502  -27.0205   18.1065 C   0  0  0  0  0  0  0  0  0  0  0  0
  -25.1866  -16.3407   20.5859 C   0  0  0  0  0  0  0  0  0  0  0  0
  -27.8050  -28.4760   21.0193 C   0  0  0  0  0  0  0  0  0  0  0  0
  -24.9792  -14.0103   20.8055 C   0  0  0  0  0  0  0  0  0  0  0  0
  -25.9477  -11.4559   20.2400 C   0  0  0  0  0  0  0  0  0  0  0  0
  -25.3488  -13.1584   21.8463 C   0  0  0  0  0  0  0  0  0  0  0  0
  -27.3304  -19.6425   19.0365 C   0  0  0  0  0  0  0  0  0  0  0  0
  -29.8812  -27.7079   20.2306 C   0  0  0  0  0  0  0  0  0  1  0  0
  -28.3612  -21.5684   18.7846 C   0  0  0  0  0  0  0  0  0  0  0  0
  -27.4136  -21.2143   21.0705 C   0  0  0  0  0  0  0  0  0  0  0  0
  -22.4988  -28.8965   22.0831 C   0  0  0  0  0  0  0  0  0  0  0  0
  -21.9743  -26.6050   19.8478 C   0  0  0  0  0  0  0  0  0  0  0  0
  -23.2817  -24.4341   17.5621 C   0  0  0  0  0  0  0  0  0  0  0  0
  -32.1568  -21.9783   14.7140 C   0  0  0  0  0  0  0  0  0  0  0  0
  -17.9266  -28.7233   24.3463 C   0  0  0  0  0  0  0  0  0  0  0  0
  -23.8070  -29.7953   20.1243 C   0  0  0  0  0  0  0  0  0  0  0  0
  -24.3629  -26.9289   20.5929 C   0  0  0  0  0  0  0  0  0  0  0  0
  -18.9458  -27.6942   23.8641 C   0  0  0  0  0  0  0  0  0  0  0  0
  -28.8848  -20.9164   13.7959 C   0  0  0  0  0  0  0  0  0  0  0  0
  -20.3417  -28.0497   24.3660 C   0  0  0  0  0  0  0  0  0  0  0  0
  -28.2203  -20.5820   15.1326 C   0  0  0  0  0  0  0  0  0  0  0  0
  -30.3645  -20.5387   13.7912 C   0  0  0  0  0  0  0  0  0  0  0  0
  -30.4860  -20.7662   16.2422 C   0  0  0  0  0  0  0  0  0  0  0  0
  -20.7940  -29.4099   23.8212 C   0  0  1  0  0  0  0  0  0  0  0  0
  -22.7216  -28.8338   20.5984 C   0  0  1  0  0  0  0  0  0  0  0  0
  -29.0063  -21.1803   16.3147 C   0  0  2  0  0  0  0  0  0  0  0  0
  -33.3671  -26.4684   19.6298 C   0  0  0  0  0  0  0  0  0  0  0  0
  -22.6071  -22.6640   15.9161 C   0  0  0  0  0  0  0  0  0  0  0  0
  -21.5251  -24.6454   22.1430 C   0  0  0  0  0  0  0  0  0  0  0  0
  -21.8032  -22.7719   20.5057 C   0  0  0  0  0  0  0  0  0  0  0  0
  -19.9307  -24.3972   20.2323 C   0  0  0  0  0  0  0  0  0  0  0  0
  -24.3984  -25.9610   15.2860 C   0  0  0  0  0  0  0  0  0  0  0  0
  -32.2557  -26.6610   16.9064 C   0  0  0  0  0  0  0  0  0  0  0  0
  -33.8879  -23.3967   15.7866 C   0  0  0  0  0  0  0  0  0  0  0  0
  -33.4787  -24.8546   15.6900 C   0  0  0  0  0  0  0  0  0  0  0  0
  -22.2958  -25.1349   19.7280 C   0  0  1  0  0  0  0  0  0  0  0  0
  -22.9052  -24.1412   16.1209 C   0  0  2  0  0  0  0  0  0  0  0  0
  -21.4092  -24.2568   20.6555 C   0  0  0  0  0  0  0  0  0  0  0  0
  -29.3435  -27.8075   18.9942 N   0  0  0  0  0  0  0  0  0  0  0  0
  -27.7539  -19.6321   17.7698 N   0  0  0  0  0  0  0  0  0  0  0  0
  -28.3769  -20.8166   17.6468 N   0  0  0  0  0  0  0  0  0  0  0  0
  -23.0198  -27.4383   20.2699 N   0  0  0  0  0  0  0  0  0  0  0  0
  -31.0526  -21.1391   14.9366 N   0  0  0  0  0  0  0  0  0  0  0  0
  -28.9420  -22.7860   18.8354 N   0  0  0  0  0  0  0  0  0  0  0  0
  -26.7014  -20.3305   21.8926 N   0  0  0  0  0  0  0  0  0  0  0  0
  -21.2231  -29.2855   22.4446 N   0  0  0  0  0  0  0  0  0  0  0  0
  -22.1855  -24.8071   18.3107 N   0  0  0  0  0  0  0  0  0  0  0  0
  -32.7470  -22.5109   15.8536 N   0  0  0  0  0  0  0  0  0  0  0  0
  -24.0166  -24.5276   15.2064 N   0  3  0  0  0  0  0  0  0  0  0  0
  -32.7217  -25.2459   16.9071 N   0  3  0  0  0  0  0  0  0  0  0  0
  -27.7813  -22.3211   21.5324 O   0  0  0  0  0  0  0  0  0  0  0  0
  -23.4159  -28.6114   22.8442 O   0  0  0  0  0  0  0  0  0  0  0  0
  -20.8393  -27.0004   19.5700 O   0  0  0  0  0  0  0  0  0  0  0  0
  -24.4326  -24.3378   17.9826 O   0  0  0  0  0  0  0  0  0  0  0  0
  -32.5817  -22.2381   13.5831 O   0  0  0  0  0  0  0  0  0  0  0  0
  -24.4975  -15.2783   21.0846 O   0  0  0  0  0  0  0  0  0  0  0  0
  -29.0706  -28.0600   21.2969 O   0  0  0  0  0  0  0  0  0  1  0  0
  -26.4113  -10.2290   19.9685 F   0  0  0  0  0  0  0  0  0  0  0  0
  -25.2398  -13.5609   23.1198 F   0  0  0  0  0  0  0  0  0  0  0  0
  1  2  1  0  0  0  0
  1  5  2  0  0  0  0
  2  6  2  0  0  0  0
  3  8  2  0  0  0  0
  3 17  1  0  0  0  0
  4  9  1  0  0  0  0
  4 17  2  0  0  0  0
  5 19  1  0  0  0  0
  6 21  1  0  0  0  0
  7 10  2  0  0  0  0
  7 20  1  0  0  0  0
  8 25  1  0  0  0  0
  9 25  2  0  0  0  0
 10 26  1  0  0  0  0
 11 12  2  0  0  0  0
 11 27  1  0  0  0  0
 12 28  1  0  0  0  0
 13 22  1  0  0  0  0
 13 26  2  0  0  0  0
 14 23  2  0  0  0  0
 14 31  1  0  0  0  0
 15 28  2  0  0  0  0
 15 29  1  0  0  0  0
 16 24  2  0  0  0  0
 16 62  1  0  0  0  0
 17 30  1  0  0  0  0
 18 30  1  0  0  0  0
 18 32  2  0  0  0  0
 18 33  1  0  0  0  0
 19 21  2  0  0  0  0
 19 38  1  0  0  0  0
 20 22  2  0  0  0  0
 20 39  1  0  0  0  0
 21 47  1  0  0  0  0
 22 40  1  0  0  0  0
 23 24  1  0  0  0  0
 23 50  1  0  0  0  0
 24 56  1  0  0  0  0
 25 79  1  0  0  0  0
 26 80  1  0  0  0  0
 27 29  2  0  0  0  0
 27 79  1  0  0  0  0
 28 81  1  0  0  0  0
 29 82  1  0  0  0  0
 30 63  2  0  0  0  0
 31 62  2  0  0  0  0
 31 80  1  0  0  0  0
 32 64  1  0  0  0  0
 32 67  1  0  0  0  0
 33 68  1  0  0  0  0
 33 74  2  0  0  0  0
 34 48  1  0  0  0  0
 34 69  1  0  0  0  0
 34 75  2  0  0  0  0
 35 59  1  0  0  0  0
 35 65  1  0  0  0  0
 35 76  2  0  0  0  0
 36 60  1  0  0  0  0
 36 70  1  0  0  0  0
 36 77  2  0  0  0  0
 37 66  1  0  0  0  0
 37 71  1  0  0  0  0
 37 78  2  0  0  0  0
 38 41  1  0  0  0  0
 39 48  1  0  0  0  0
 40 65  1  0  0  0  0
 41 43  1  0  0  0  0
 42 44  1  0  0  0  0
 42 45  1  0  0  0  0
 43 47  1  0  0  0  0
 44 49  1  0  0  0  0
 45 66  1  0  0  0  0
 46 49  1  0  0  0  0
 46 66  1  0  0  0  0
 47 69  1  0  0  0  0
 48 65  1  0  0  0  0
 49 64  1  0  0  0  0
 51 60  1  0  0  0  0
 52 61  1  0  0  0  0
 53 61  1  0  0  0  0
 54 61  1  0  0  0  0
 55 72  1  0  0  0  0
 56 73  1  0  0  0  0
 57 58  1  0  0  0  0
 57 71  1  0  0  0  0
 58 73  1  0  0  0  0
 59 61  1  0  0  0  0
 59 70  1  0  0  0  0
 60 72  1  0  0  0  0
 63 64  1  0  0  0  0
M  CHG  2  72   1  73   1
M  ISO  4  31 101  37 100  71 100  80 101
M  END
> <Batch ID>
0132

> <Smiles>
CNC(C)C(=O)NC(C(=O)N1Cc2cc([101O:1][101c:1]3cc(C)c(CNCC[100NH:0][100C:0](=O)N4CCCC(n5nc(-c6ccc(Oc7ccc(F)cc7F)cc6)c(C(N)=O)c5N)C4)cn3)ccc2CC1C(=O)NC1CCCc2ccccc21)C(C)(C)C

> <Shape>
0.202

> <Color>
0.085

> <Negative vol penalty>
0.000

$$$$

  -OEChem-04052320523D

 87 96  0     1  0  0  0  0  0999 V2000
  -26.8208  -35.3578   15.7172 C   0  0  0  0  0  0  0  0  0  0  0  0
  -27.0894  -34.0387   15.3661 C   0  0  0  0  0  0  0  0  0  0  0  0
  -22.8933  -10.1523   19.9596 C   0  0  0  0  0  0  0  0  0  0  0  0
  -23.8215   -9.8595   22.1709 C   0  0  0  0  0  0  0  0  0  0  0  0
  -26.5725  -35.6866   17.0492 C   0  0  0  0  0  0  0  0  0  0  0  0
  -27.1110  -33.0479   16.3470 C   0  0  0  0  0  0  0  0  0  0  0  0
  -25.6169  -26.1077   17.3056 C   0  0  0  0  0  0  0  0  0  0  0  0
  -29.2571  -21.1444   19.2328 C   0  0  0  0  0  0  0  0  0  0  0  0
  -29.7951  -20.0332   19.8818 C   0  0  0  0  0  0  0  0  0  0  0  0
  -22.0985   -9.0209   20.1433 C   0  0  0  0  0  0  0  0  0  0  0  0
  -23.0267   -8.7280   22.3547 C   0  0  0  0  0  0  0  0  0  0  0  0
  -26.2013  -24.9365   17.7857 C   0  0  0  0  0  0  0  0  0  0  0  0
  -23.0637   -5.4790   21.4203 C   0  0  0  0  0  0  0  0  0  0  0  0
  -23.6649   -4.3472   21.9710 C   0  0  0  0  0  0  0  0  0  0  0  0
  -25.6795  -25.6086   20.0430 C   0  0  0  0  0  0  0  0  0  0  0  0
  -27.6224  -19.5212   20.8062 C   0  0  0  0  0  0  0  0  0  0  0  0
  -22.1103   -4.4206   23.8190 C   0  0  0  0  0  0  0  0  0  0  0  0
  -23.7548  -10.5716   20.9734 C   0  0  0  0  0  0  0  0  0  0  0  0
  -24.2462  -13.0717   21.0991 C   0  0  0  0  0  0  0  0  0  0  0  0
  -26.5815  -34.6978   18.0455 C   0  0  0  0  0  0  0  0  0  0  0  0
  -25.0682  -27.0449   18.1928 C   0  0  0  0  0  0  0  0  0  0  0  0
  -26.8639  -33.3640   17.6937 C   0  0  0  0  0  0  0  0  0  0  0  0
  -25.0865  -26.7898   19.5714 C   0  0  0  0  0  0  0  0  0  0  0  0
  -27.9018  -21.4442   19.3706 C   0  0  0  0  0  0  0  0  0  0  0  0
  -28.9777  -19.2215   20.6685 C   0  0  0  0  0  0  0  0  0  0  0  0
  -27.0844  -20.6326   20.1572 C   0  0  0  0  0  0  0  0  0  0  0  0
  -22.1652   -8.3087   21.3409 C   0  0  0  0  0  0  0  0  0  0  0  0
  -26.2352  -24.6882   19.1548 C   0  0  0  0  0  0  0  0  0  0  0  0
  -21.9859   -6.0817   22.0690 C   0  0  0  0  0  0  0  0  0  0  0  0
  -23.1882   -3.8180   23.1703 C   0  0  0  0  0  0  0  0  0  0  0  0
  -21.5092   -5.5525   23.2683 C   0  0  0  0  0  0  0  0  0  0  0  0
  -24.5765  -11.7400   20.7839 C   0  0  0  0  0  0  0  0  0  0  0  0
  -25.3535  -13.7963   20.7312 C   0  0  0  0  0  0  0  0  0  0  0  0
  -23.0459  -13.6059   21.6732 C   0  0  0  0  0  0  0  0  0  0  0  0
  -25.6773  -30.0818   18.9070 C   0  0  0  0  0  0  0  0  0  0  0  0
  -23.0041  -29.7851   20.7203 C   0  0  0  0  0  0  0  0  0  0  0  0
  -20.8686  -27.7360   22.4196 C   0  0  0  0  0  0  0  0  0  0  0  0
  -30.8895  -14.4856   20.5817 C   0  0  0  0  0  0  0  0  0  0  0  0
  -26.3540  -35.1090   19.4786 C   0  0  0  0  0  0  0  0  0  0  0  0
  -24.4177  -28.2909   17.6573 C   0  0  0  0  0  0  0  0  0  0  0  0
  -24.4931  -27.7544   20.5644 C   0  0  0  0  0  0  0  0  0  0  0  0
  -26.0256  -33.9395   20.4031 C   0  0  0  0  0  0  0  0  0  0  0  0
  -29.4276  -12.4508   18.0521 C   0  0  0  0  0  0  0  0  0  0  0  0
  -26.9887  -32.7815   20.1617 C   0  0  0  0  0  0  0  0  0  0  0  0
  -28.0108  -12.1895   18.5663 C   0  0  0  0  0  0  0  0  0  0  0  0
  -23.5417  -20.8542   21.4526 C   0  0  0  0  0  0  0  0  0  0  0  0
  -30.4442  -12.4845   19.1912 C   0  0  0  0  0  0  0  0  0  0  0  0
  -28.7017  -13.1580   20.7986 C   0  0  0  0  0  0  0  0  0  0  0  0
  -22.6911  -20.7122   20.2033 C   0  0  0  0  0  0  0  0  0  0  0  0
  -24.3220  -18.8971   20.3482 C   0  0  0  0  0  0  0  0  0  0  0  0
  -26.8717  -32.2570   18.7255 C   0  0  1  0  0  0  0  0  0  0  0  0
  -24.3483  -29.4172   18.6839 C   0  0  1  0  0  0  0  0  0  0  0  0
  -27.6330  -13.1707   19.6922 C   0  0  2  0  0  0  0  0  0  0  0  0
  -24.8243  -20.1122   21.1092 C   0  0  1  0  0  0  0  0  0  0  0  0
  -18.7962  -27.7878   23.8338 C   0  0  0  0  0  0  0  0  0  0  0  0
  -24.6444  -30.8052   23.0823 C   0  0  0  0  0  0  0  0  0  0  0  0
  -22.8534  -29.9473   24.6069 C   0  0  0  0  0  0  0  0  0  0  0  0
  -22.3254  -31.7313   22.9452 C   0  0  0  0  0  0  0  0  0  0  0  0
  -19.3707  -26.0640   20.4909 C   0  0  0  0  0  0  0  0  0  0  0  0
  -27.3501  -22.6461   18.6617 C   0  0  0  0  0  0  0  0  0  1  0  0
  -30.9025  -17.7360   21.2290 C   0  0  0  0  0  0  0  0  0  0  0  0
  -31.1840  -16.4765   22.0340 C   0  0  0  0  0  0  0  0  0  0  0  0
  -22.7178  -29.3663   22.1422 C   0  0  1  0  0  0  0  0  0  0  0  0
  -19.3534  -27.6430   22.4262 C   0  0  2  0  0  0  0  0  0  0  0  0
  -23.1482  -30.4451   23.1758 C   0  0  0  0  0  0  0  0  0  0  0  0
  -25.7978  -11.6227   20.2562 N   0  0  0  0  0  0  0  0  0  0  0  0
  -26.2448  -12.8899   20.2369 N   0  0  0  0  0  0  0  0  0  0  0  0
  -23.8740  -28.9613   19.9920 N   0  0  0  0  0  0  0  0  0  0  0  0
  -30.0278  -13.4354   20.2248 N   0  0  0  0  0  0  0  0  0  0  0  0
  -25.6419  -15.1140   20.7854 N   0  0  0  0  0  0  0  0  0  0  0  0
  -22.0064  -12.7214   21.9916 N   0  0  0  0  0  0  0  0  0  0  0  0
  -25.7100  -20.9206   20.3071 N   0  0  0  0  0  0  0  0  0  0  0  0
  -29.5225  -18.0990   21.3259 N   0  0  0  0  0  0  0  0  0  0  0  0
  -25.6955  -31.4255   18.5853 N   0  0  0  0  0  0  0  0  0  0  0  0
  -21.3001  -29.0253   22.1896 N   0  0  0  0  0  0  0  0  0  0  0  0
  -30.4152  -15.3452   21.5650 N   0  0  0  0  0  0  0  0  0  0  0  0
  -23.1044  -19.3930   19.6176 N   0  3  0  0  0  0  0  0  0  0  0  0
  -18.9128  -26.3286   21.8792 N   0  3  0  0  0  0  0  0  0  0  0  0
  -22.8932  -14.8333   21.8820 O   0  0  0  0  0  0  0  0  0  0  0  0
  -26.6164  -29.4245   19.3404 O   0  0  0  0  0  0  0  0  0  0  0  0
  -22.4699  -30.8018   20.2701 O   0  0  0  0  0  0  0  0  0  0  0  0
  -21.5965  -26.7630   22.6040 O   0  0  0  0  0  0  0  0  0  0  0  0
  -31.9972  -14.6485   20.0588 O   0  0  0  0  0  0  0  0  0  0  0  0
  -21.3896   -7.2048   21.5206 O   0  0  0  0  0  0  0  0  0  0  0  0
  -26.8056  -23.5461   19.6261 O   0  0  0  0  0  0  0  0  0  1  0  0
  -23.7646   -2.7302   23.6982 F   0  0  0  0  0  0  0  0  0  0  0  0
  -20.4733   -6.1264   23.8955 F   0  0  0  0  0  0  0  0  0  0  0  0
  1  2  1  0  0  0  0
  1  5  2  0  0  0  0
  2  6  2  0  0  0  0
  3 10  2  0  0  0  0
  3 18  1  0  0  0  0
  4 11  1  0  0  0  0
  4 18  2  0  0  0  0
  5 20  1  0  0  0  0
  6 22  1  0  0  0  0
  7 12  2  0  0  0  0
  7 21  1  0  0  0  0
  8  9  2  0  0  0  0
  8 24  1  0  0  0  0
  9 25  1  0  0  0  0
 10 27  1  0  0  0  0
 11 27  2  0  0  0  0
 12 28  1  0  0  0  0
 13 14  2  0  0  0  0
 13 29  1  0  0  0  0
 14 30  1  0  0  0  0
 15 23  1  0  0  0  0
 15 28  2  0  0  0  0
 16 25  2  0  0  0  0
 16 26  1  0  0  0  0
 17 30  2  0  0  0  0
 17 31  1  0  0  0  0
 18 32  1  0  0  0  0
 19 32  1  0  0  0  0
 19 33  2  0  0  0  0
 19 34  1  0  0  0  0
 20 22  2  0  0  0  0
 20 39  1  0  0  0  0
 21 23  2  0  0  0  0
 21 40  1  0  0  0  0
 22 51  1  0  0  0  0
 23 41  1  0  0  0  0
 24 26  2  0  0  0  0
 24 60  1  0  0  0  0
 25 73  1  0  0  0  0
 26 72  1  0  0  0  0
 27 84  1  0  0  0  0
 28 85  1  0  0  0  0
 29 31  2  0  0  0  0
 29 84  1  0  0  0  0
 30 86  1  0  0  0  0
 31 87  1  0  0  0  0
 32 66  2  0  0  0  0
 33 67  1  0  0  0  0
 33 70  1  0  0  0  0
 34 71  1  0  0  0  0
 34 79  2  0  0  0  0
 35 52  1  0  0  0  0
 35 74  1  0  0  0  0
 35 80  2  0  0  0  0
 36 63  1  0  0  0  0
 36 68  1  0  0  0  0
 36 81  2  0  0  0  0
 37 64  1  0  0  0  0
 37 75  1  0  0  0  0
 37 82  2  0  0  0  0
 38 69  1  0  0  0  0
 38 76  1  0  0  0  0
 38 83  2  0  0  0  0
 39 42  1  0  0  0  0
 40 52  1  0  0  0  0
 41 68  1  0  0  0  0
 42 44  1  0  0  0  0
 43 45  1  0  0  0  0
 43 47  1  0  0  0  0
 44 51  1  0  0  0  0
 45 53  1  0  0  0  0
 46 49  1  0  0  0  0
 46 54  1  0  0  0  0
 47 69  1  0  0  0  0
 48 53  1  0  0  0  0
 48 69  1  0  0  0  0
 49 77  1  0  0  0  0
 50 54  1  0  0  0  0
 50 77  1  0  0  0  0
 51 74  1  0  0  0  0
 52 68  1  0  0  0  0
 53 67  1  0  0  0  0
 54 72  1  0  0  0  0
 55 64  1  0  0  0  0
 56 65  1  0  0  0  0
 57 65  1  0  0  0  0
 58 65  1  0  0  0  0
 59 78  1  0  0  0  0
 60 85  1  0  0  0  0
 61 62  1  0  0  0  0
 61 73  1  0  0  0  0
 62 76  1  0  0  0  0
 63 65  1  0  0  0  0
 63 75  1  0  0  0  0
 64 78  1  0  0  0  0
 66 67  1  0  0  0  0
M  CHG  2  77   1  78   1
M  ISO  4  38 100  60 101  76 100  85 101
M  END
> <Batch ID>
0132

> <Smiles>
CNC(C)C(=O)NC(C(=O)N1Cc2cc([101O:1][101CH2:1]c3ccc(NCC[100NH:0][100C:0](=O)N4CCCC(n5nc(-c6ccc(Oc7ccc(F)cc7F)cc6)c(C(N)=O)c5N)C4)cc3NC3CCNC3)ccc2CC1C(=O)NC1CCCc2ccccc21)C(C)(C)C

> <Shape>
0.344

> <Color>
0.189

> <Negative vol penalty>
0.000

$$$$

  -OEChem-04052320523D

 84 93  0     1  0  0  0  0  0999 V2000
  -25.2373  -35.4049   26.0052 C   0  0  0  0  0  0  0  0  0  0  0  0
  -25.7779  -34.1258   26.0879 C   0  0  0  0  0  0  0  0  0  0  0  0
  -24.5121   -9.8499   21.8263 C   0  0  0  0  0  0  0  0  0  0  0  0
  -24.7163  -11.1538   23.8500 C   0  0  0  0  0  0  0  0  0  0  0  0
  -23.9652  -35.5893   25.4651 C   0  0  0  0  0  0  0  0  0  0  0  0
  -25.0462  -33.0300   25.6316 C   0  0  0  0  0  0  0  0  0  0  0  0
  -27.6295  -28.7436   20.4504 C   0  0  0  0  0  0  0  0  0  0  0  0
  -28.9387  -20.8178   18.1754 C   0  0  0  0  0  0  0  0  0  0  0  0
  -29.2250  -19.6289   18.8465 C   0  0  0  0  0  0  0  0  0  0  0  0
  -24.1549   -8.7332   22.5818 C   0  0  0  0  0  0  0  0  0  0  0  0
  -24.3590  -10.0370   24.6055 C   0  0  0  0  0  0  0  0  0  0  0  0
  -28.1457  -27.7552   19.6122 C   0  0  0  0  0  0  0  0  0  0  0  0
  -21.3956   -7.5644   24.1481 C   0  0  0  0  0  0  0  0  0  0  0  0
  -20.3135   -6.8026   23.7073 C   0  0  0  0  0  0  0  0  0  0  0  0
  -26.0526  -26.5494   19.7272 C   0  0  0  0  0  0  0  0  0  0  0  0
  -26.9901  -21.1348   19.5680 C   0  0  0  0  0  0  0  0  0  0  0  0
  -21.7526   -4.8719   23.5111 C   0  0  0  0  0  0  0  0  0  0  0  0
  -24.7929  -11.0602   22.4604 C   0  0  0  0  0  0  0  0  0  0  0  0
  -24.3003  -13.1871   21.1407 C   0  0  0  0  0  0  0  0  0  0  0  0
  -23.2214  -34.4963   24.9931 C   0  0  0  0  0  0  0  0  0  0  0  0
  -26.3161  -28.6464   20.9183 C   0  0  0  0  0  0  0  0  0  0  0  0
  -23.7624  -33.1997   25.0860 C   0  0  0  0  0  0  0  0  0  0  0  0
  -25.5260  -27.5428   20.5570 C   0  0  0  0  0  0  0  0  0  0  0  0
  -27.2763  -19.9459   20.2391 C   0  0  0  0  0  0  0  0  0  0  0  0
  -27.8213  -21.5707   18.5362 C   0  0  0  0  0  0  0  0  0  0  0  0
  -28.3938  -19.1930   19.8783 C   0  0  0  0  0  0  0  0  0  0  0  0
  -24.0783   -8.8267   23.9714 C   0  0  0  0  0  0  0  0  0  0  0  0
  -27.3593  -26.6607   19.2517 C   0  0  0  0  0  0  0  0  0  0  0  0
  -22.6563   -6.9799   24.2704 C   0  0  0  0  0  0  0  0  0  0  0  0
  -20.4920   -5.4564   23.3888 C   0  0  0  0  0  0  0  0  0  0  0  0
  -22.8347   -5.6336   23.9520 C   0  0  0  0  0  0  0  0  0  0  0  0
  -25.1626  -12.2140   21.6805 C   0  0  0  0  0  0  0  0  0  0  0  0
  -25.1352  -14.0641   20.4924 C   0  0  0  0  0  0  0  0  0  0  0  0
  -22.8723  -13.2891   21.2185 C   0  0  0  0  0  0  0  0  0  0  0  0
  -23.5714  -30.1795   22.9659 C   0  0  0  0  0  0  0  0  0  0  0  0
  -22.2666  -29.0503   20.4295 C   0  0  0  0  0  0  0  0  0  0  0  0
  -21.2866  -28.0495   17.3191 C   0  0  0  0  0  0  0  0  0  0  0  0
  -29.7782  -17.1314   20.3019 C   0  0  0  0  0  0  0  0  0  0  0  0
  -21.8314  -34.7396   24.4609 C   0  0  0  0  0  0  0  0  0  0  0  0
  -25.7389  -29.6562   21.8728 C   0  0  0  0  0  0  0  0  0  0  0  0
  -24.1302  -27.4624   21.1122 C   0  0  0  0  0  0  0  0  0  0  0  0
  -21.2737  -33.5686   23.6558 C   0  0  0  0  0  0  0  0  0  0  0  0
  -30.0579  -13.7065   19.3697 C   0  0  0  0  0  0  0  0  0  0  0  0
  -21.5109  -32.2538   24.3919 C   0  0  0  0  0  0  0  0  0  0  0  0
  -28.7383  -13.0929   19.8434 C   0  0  0  0  0  0  0  0  0  0  0  0
  -27.6767  -24.5500   16.3354 C   0  0  0  0  0  0  0  0  0  0  0  0
  -30.5659  -14.7748   20.3363 C   0  0  0  0  0  0  0  0  0  0  0  0
  -28.3693  -23.2629   16.7808 C   0  0  0  0  0  0  0  0  0  0  0  0
  -28.2774  -15.2159   21.1348 C   0  0  0  0  0  0  0  0  0  0  0  0
  -23.0096  -31.9887   24.5789 C   0  0  1  0  0  0  0  0  0  0  0  0
  -24.2372  -29.9089   21.6487 C   0  0  1  0  0  0  0  0  0  0  0  0
  -27.6929  -14.1803   20.1603 C   0  0  2  0  0  0  0  0  0  0  0  0
  -26.9464  -25.0155   17.5872 C   0  0  1  0  0  0  0  0  0  1  0  0
  -26.4929  -23.7090   18.2603 C   0  0  1  0  0  0  0  0  0  0  0  0
  -26.3694  -19.5038   21.3415 C   0  0  0  0  0  0  0  0  0  0  0  0
  -25.1334  -23.2569   17.7274 C   0  0  0  0  0  0  0  0  0  0  0  0
  -19.2553  -27.8699   15.8565 C   0  0  0  0  0  0  0  0  0  0  0  0
  -21.3455  -26.6125   22.0145 C   0  0  0  0  0  0  0  0  0  0  0  0
  -19.9590  -25.9415   20.0408 C   0  0  0  0  0  0  0  0  0  0  0  0
  -19.4979  -28.0949   21.2125 C   0  0  0  0  0  0  0  0  0  0  0  0
  -22.4422  -29.8703   15.2922 C   0  0  0  0  0  0  0  0  0  0  0  0
  -21.5690  -27.8831   19.7781 C   0  0  1  0  0  0  0  0  0  0  0  0
  -20.4401  -28.7334   16.2607 C   0  0  2  0  0  0  0  0  0  0  0  0
  -20.6209  -27.1370   20.7588 C   0  0  0  0  0  0  0  0  0  0  0  0
  -26.4468  -12.4502   21.3994 N   0  0  0  0  0  0  0  0  0  0  0  0
  -26.3976  -13.5816   20.6758 N   0  0  0  0  0  0  0  0  0  0  0  0
  -27.5381  -22.7495   17.8712 N   0  0  3  0  0  0  0  0  0  0  0  0
  -23.4903  -28.7861   21.0566 N   0  0  0  0  0  0  0  0  0  0  0  0
  -29.5238  -15.7730   20.5863 N   0  0  0  0  0  0  0  0  0  0  0  0
  -24.9052  -15.1931   19.7890 N   0  0  0  0  0  0  0  0  0  0  0  0
  -22.1694  -12.3029   21.9239 N   0  0  0  0  0  0  0  0  0  0  0  0
  -28.7024  -17.9835   20.5489 N   0  0  0  0  0  0  0  0  0  0  0  0
  -23.5955  -31.5078   23.3460 N   0  0  0  0  0  0  0  0  0  0  0  0
  -20.9048  -28.4144   18.5928 N   0  0  0  0  0  0  0  0  0  0  0  0
  -21.2558  -29.0110   15.0447 N   0  3  0  0  0  0  0  0  0  0  0  0
  -22.2370  -14.2181   20.6645 O   0  0  0  0  0  0  0  0  0  0  0  0
  -23.0708  -29.2523   23.5916 O   0  0  0  0  0  0  0  0  0  0  0  0
  -21.7404  -30.1661   20.3900 O   0  0  0  0  0  0  0  0  0  0  0  0
  -22.1932  -27.2667   17.0435 O   0  0  0  0  0  0  0  0  0  0  0  0
  -30.8610  -17.5071   19.8452 O   0  0  0  0  0  0  0  0  0  0  0  0
  -23.7294   -7.7373   24.7090 O   0  0  0  0  0  0  0  0  0  0  0  0
  -27.8681  -25.7016   18.4295 O   0  0  0  0  0  0  0  0  0  1  0  0
  -19.4524   -4.7246   22.9669 F   0  0  0  0  0  0  0  0  0  0  0  0
  -24.0432   -5.0663   24.0686 F   0  0  0  0  0  0  0  0  0  0  0  0
  1  2  1  0  0  0  0
  1  5  2  0  0  0  0
  2  6  2  0  0  0  0
  3 10  2  0  0  0  0
  3 18  1  0  0  0  0
  4 11  1  0  0  0  0
  4 18  2  0  0  0  0
  5 20  1  0  0  0  0
  6 22  1  0  0  0  0
  7 12  2  0  0  0  0
  7 21  1  0  0  0  0
  8  9  2  0  0  0  0
  8 25  1  0  0  0  0
  9 26  1  0  0  0  0
 10 27  1  0  0  0  0
 11 27  2  0  0  0  0
 12 28  1  0  0  0  0
 13 14  2  0  0  0  0
 13 29  1  0  0  0  0
 14 30  1  0  0  0  0
 15 23  1  0  0  0  0
 15 28  2  0  0  0  0
 16 24  1  0  0  0  0
 16 25  2  0  0  0  0
 17 30  2  0  0  0  0
 17 31  1  0  0  0  0
 18 32  1  0  0  0  0
 19 32  1  0  0  0  0
 19 33  2  0  0  0  0
 19 34  1  0  0  0  0
 20 22  2  0  0  0  0
 20 39  1  0  0  0  0
 21 23  2  0  0  0  0
 21 40  1  0  0  0  0
 22 50  1  0  0  0  0
 23 41  1  0  0  0  0
 24 26  2  0  0  0  0
 24 55  1  0  0  0  0
 25 67  1  0  0  0  0
 26 72  1  0  0  0  0
 27 81  1  0  0  0  0
 28 82  1  0  0  0  0
 29 31  2  0  0  0  0
 29 81  1  0  0  0  0
 30 83  1  0  0  0  0
 31 84  1  0  0  0  0
 32 65  2  0  0  0  0
 33 66  1  0  0  0  0
 33 70  1  0  0  0  0
 34 71  1  0  0  0  0
 34 76  2  0  0  0  0
 35 51  1  0  0  0  0
 35 73  1  0  0  0  0
 35 77  2  0  0  0  0
 36 62  1  0  0  0  0
 36 68  1  0  0  0  0
 36 78  2  0  0  0  0
 37 63  1  0  0  0  0
 37 74  1  0  0  0  0
 37 79  2  0  0  0  0
 38 69  1  0  0  0  0
 38 72  1  0  0  0  0
 38 80  2  0  0  0  0
 39 42  1  0  0  0  0
 40 51  1  0  0  0  0
 41 68  1  0  0  0  0
 42 44  1  0  0  0  0
 43 45  1  0  0  0  0
 43 47  1  0  0  0  0
 44 50  1  0  0  0  0
 45 52  1  0  0  0  0
 46 48  1  0  0  0  0
 46 53  1  0  0  0  0
 47 69  1  0  0  0  0
 48 67  1  0  0  0  0
 49 52  1  0  0  0  0
 49 69  1  0  0  0  0
 50 73  1  0  0  0  0
 51 68  1  0  0  0  0
 52 66  1  0  0  0  0
 53 54  1  0  0  0  0
 53 82  1  0  0  0  0
 54 56  1  0  0  0  0
 54 67  1  0  0  0  0
 57 63  1  0  0  0  0
 58 64  1  0  0  0  0
 59 64  1  0  0  0  0
 60 64  1  0  0  0  0
 61 75  1  0  0  0  0
 62 64  1  0  0  0  0
 62 74  1  0  0  0  0
 63 75  1  0  0  0  0
 65 66  1  0  0  0  0
M  CHG  1  75   1
M  ISO  4  38 100  53 101  72 100  82 101
M  END
> <Batch ID>
0132

> <Smiles>
CNC(C)C(=O)NC(C(=O)N1Cc2cc([101O:1][101CH:1]3CCN(c4ccc([100NH:0][100C:0](=O)N5CCCC(n6nc(-c7ccc(Oc8ccc(F)cc8F)cc7)c(C(N)=O)c6N)C5)c(C)c4)C3C)ccc2CC1C(=O)NC1CCCc2ccccc21)C(C)(C)C

> <Shape>
0.276

> <Color>
0.121

> <Negative vol penalty>
0.000

$$$$
