
  -OEChem-04052320553D

 87 96  0     1  0  0  0  0  0999 V2000
  -15.5081  -27.2217   24.8368 C   0  0  0  0  0  0  0  0  0  0  0  0
  -16.0638  -26.6543   23.6946 C   0  0  0  0  0  0  0  0  0  0  0  0
  -24.3787  -11.7340   19.6094 C   0  0  0  0  0  0  0  0  0  0  0  0
  -25.2995  -11.7072   21.8428 C   0  0  0  0  0  0  0  0  0  0  0  0
  -15.8471  -28.5238   25.2025 C   0  0  0  0  0  0  0  0  0  0  0  0
  -16.9580  -27.3891   22.9167 C   0  0  0  0  0  0  0  0  0  0  0  0
  -23.6474  -25.0057   21.7074 C   0  0  0  0  0  0  0  0  0  0  0  0
  -24.4352  -10.3409   19.5693 C   0  0  0  0  0  0  0  0  0  0  0  0
  -25.3560  -10.3140   21.8028 C   0  0  0  0  0  0  0  0  0  0  0  0
  -24.8735  -24.5166   21.2563 C   0  0  0  0  0  0  0  0  0  0  0  0
  -25.4065   -6.7328   22.4276 C   0  0  0  0  0  0  0  0  0  0  0  0
  -24.9603   -6.0324   23.5483 C   0  0  0  0  0  0  0  0  0  0  0  0
  -25.2662  -26.5784   20.0551 C   0  0  0  0  0  0  0  0  0  0  0  0
  -22.7705   -7.0211   23.2944 C   0  0  0  0  0  0  0  0  0  0  0  0
  -24.8109  -12.4171   20.7461 C   0  0  0  0  0  0  0  0  0  0  0  0
  -23.6827  -14.6514   21.2390 C   0  0  0  0  0  0  0  0  0  0  0  0
  -16.7533  -29.2714   24.4341 C   0  0  0  0  0  0  0  0  0  0  0  0
  -23.2325  -26.2905   21.3462 C   0  0  0  0  0  0  0  0  0  0  0  0
  -17.3083  -28.7028   23.2717 C   0  0  0  0  0  0  0  0  0  0  0  0
  -24.0447  -27.0785   20.5141 C   0  0  0  0  0  0  0  0  0  0  0  0
  -24.9238   -9.6309   20.6660 C   0  0  0  0  0  0  0  0  0  0  0  0
  -25.6808  -25.3009   20.4320 C   0  0  0  0  0  0  0  0  0  0  0  0
  -24.5347   -7.5774   21.7403 C   0  0  0  0  0  0  0  0  0  0  0  0
  -23.6423   -6.1765   23.9817 C   0  0  0  0  0  0  0  0  0  0  0  0
  -23.2167   -7.7215   22.1737 C   0  0  0  0  0  0  0  0  0  0  0  0
  -24.7532  -13.8563   20.7879 C   0  0  0  0  0  0  0  0  0  0  0  0
  -24.1211  -15.9427   21.0747 C   0  0  0  0  0  0  0  0  0  0  0  0
  -22.4062  -14.2581   21.7601 C   0  0  0  0  0  0  0  0  0  0  0  0
  -20.6001  -28.9506   21.6117 C   0  0  0  0  0  0  0  0  0  0  0  0
  -31.5053  -22.2582   24.3086 C   0  0  0  0  0  0  0  0  0  0  0  0
  -23.3168  -30.3669   21.7665 C   0  0  0  0  0  0  0  0  0  0  0  0
  -26.4895  -31.4916   22.3196 C   0  0  0  0  0  0  0  0  0  0  0  0
  -29.5453  -18.2711   20.9647 C   0  0  0  0  0  0  0  0  0  0  0  0
  -17.0528  -30.6919   24.8431 C   0  0  0  0  0  0  0  0  0  0  0  0
  -21.8917  -26.8347   21.7585 C   0  0  0  0  0  0  0  0  0  0  0  0
  -23.5420  -28.4412   20.1228 C   0  0  0  0  0  0  0  0  0  0  0  0
  -18.2958  -31.2699   24.1715 C   0  0  0  0  0  0  0  0  0  0  0  0
  -27.0482  -18.5874   18.3644 C   0  0  0  0  0  0  0  0  0  0  0  0
  -33.5289  -21.1136   21.4885 C   0  0  0  0  0  0  0  0  0  0  0  0
  -18.2827  -30.9703   22.6759 C   0  0  0  0  0  0  0  0  0  0  0  0
  -28.5143  -21.5662   20.9272 C   0  0  0  0  0  0  0  0  0  0  0  0
  -29.7278  -23.4719   22.0637 C   0  0  0  0  0  0  0  0  0  0  0  0
  -26.0707  -17.4736   18.7443 C   0  0  0  0  0  0  0  0  0  0  0  0
  -32.5168  -20.4325   20.5745 C   0  0  0  0  0  0  0  0  0  0  0  0
  -27.7026  -22.5717   20.1161 C   0  0  0  0  0  0  0  0  0  0  0  0
  -28.9122  -24.4722   21.2499 C   0  0  0  0  0  0  0  0  0  0  0  0
  -32.8980  -22.2559   22.2738 C   0  0  0  0  0  0  0  0  0  0  0  0
  -28.4920  -18.1685   18.6253 C   0  0  0  0  0  0  0  0  0  0  0  0
  -27.7873  -16.6162   20.4050 C   0  0  0  0  0  0  0  0  0  0  0  0
  -18.3011  -29.4591   22.4158 C   0  0  1  0  0  0  0  0  0  0  0  0
  -21.9117  -28.3505   22.0251 C   0  0  1  0  0  0  0  0  0  0  0  0
  -29.8833  -22.1351   21.3254 C   0  0  0  0  0  0  0  0  0  0  0  0
  -26.3092  -16.9864   20.1858 C   0  0  2  0  0  0  0  0  0  0  0  0
  -30.6555  -21.1330   22.1814 C   0  0  1  0  0  0  0  0  0  0  0  0
  -31.2955  -19.9811   21.3767 C   0  0  1  0  0  0  0  0  0  0  0  0
  -27.5530  -23.9006   20.8519 C   0  0  0  0  0  0  0  0  0  1  0  0
  -27.7835  -33.5938   22.7710 C   0  0  0  0  0  0  0  0  0  0  0  0
  -23.0472  -31.1584   18.8331 C   0  0  0  0  0  0  0  0  0  0  0  0
  -25.0486  -32.6349   19.1211 C   0  0  0  0  0  0  0  0  0  0  0  0
  -22.9777  -33.0725   20.4412 C   0  0  0  0  0  0  0  0  0  0  0  0
  -27.4497  -30.4781   24.9291 C   0  0  0  0  0  0  0  0  0  0  0  0
  -30.2484  -21.7982   25.0044 C   0  0  0  0  0  0  0  0  0  0  0  0
  -24.4177  -31.0766   21.0197 C   0  0  1  0  0  0  0  0  0  0  0  0
  -27.0628  -32.4052   23.3879 C   0  0  2  0  0  0  0  0  0  0  0  0
  -23.8743  -31.9578   19.8597 C   0  0  0  0  0  0  0  0  0  0  0  0
  -25.7933  -14.5816   20.3683 N   0  0  0  0  0  0  0  0  0  0  0  0
  -25.3784  -15.8462   20.5550 N   0  0  0  0  0  0  0  0  0  0  0  0
  -22.9376  -29.1071   21.2873 N   0  0  0  0  0  0  0  0  0  0  0  0
  -31.6839  -21.8396   22.9852 N   0  0  0  0  0  0  0  0  0  0  0  0
  -28.6557  -17.7336   20.0197 N   0  0  0  0  0  0  0  0  0  0  0  0
  -23.5499  -17.1399   21.3253 N   0  0  0  0  0  0  0  0  0  0  0  0
  -22.1187  -12.8901   21.8614 N   0  0  0  0  0  0  0  0  0  0  0  0
  -19.6355  -28.9306   22.6010 N   0  0  0  0  0  0  0  0  0  0  0  0
  -25.1820  -31.8121   22.0213 N   0  0  0  0  0  0  0  0  0  0  0  0
  -30.3369  -19.3219   20.5178 N   0  0  0  0  0  0  0  0  0  0  0  0
  -28.0306  -31.6601   24.2418 N   0  3  0  0  0  0  0  0  0  0  0  0
  -21.5398  -15.0950   22.1097 O   0  0  0  0  0  0  0  0  0  0  0  0
  -20.4717  -29.4004   20.4790 O   0  0  0  0  0  0  0  0  0  0  0  0
  -32.3087  -22.9624   24.9264 O   0  0  0  0  0  0  0  0  0  0  0  0
  -22.8014  -30.9147   22.7451 O   0  0  0  0  0  0  0  0  0  0  0  0
  -27.1381  -30.5867   21.7989 O   0  0  0  0  0  0  0  0  0  0  0  0
  -29.6246  -17.8490   22.1235 O   0  0  0  0  0  0  0  0  0  0  0  0
  -30.2248  -22.3133   26.3193 O   0  0  0  0  0  0  0  0  0  0  0  0
  -24.9789   -8.2714   20.6274 O   0  0  0  0  0  0  0  0  0  0  0  0
  -26.8786  -24.8190   19.9988 O   0  0  0  0  0  0  0  0  0  1  0  0
  -23.2136   -5.5027   25.0570 F   0  0  0  0  0  0  0  0  0  0  0  0
  -22.3742   -8.5306   21.5168 F   0  0  0  0  0  0  0  0  0  0  0  0
  1  2  1  0  0  0  0
  1  5  2  0  0  0  0
  2  6  2  0  0  0  0
  3  8  2  0  0  0  0
  3 15  1  0  0  0  0
  4  9  1  0  0  0  0
  4 15  2  0  0  0  0
  5 17  1  0  0  0  0
  6 19  1  0  0  0  0
  7 10  2  0  0  0  0
  7 18  1  0  0  0  0
  8 21  1  0  0  0  0
  9 21  2  0  0  0  0
 10 22  1  0  0  0  0
 11 12  2  0  0  0  0
 11 23  1  0  0  0  0
 12 24  1  0  0  0  0
 13 20  1  0  0  0  0
 13 22  2  0  0  0  0
 14 24  2  0  0  0  0
 14 25  1  0  0  0  0
 15 26  1  0  0  0  0
 16 26  1  0  0  0  0
 16 27  2  0  0  0  0
 16 28  1  0  0  0  0
 17 19  2  0  0  0  0
 17 34  1  0  0  0  0
 18 20  2  0  0  0  0
 18 35  1  0  0  0  0
 19 50  1  0  0  0  0
 20 36  1  0  0  0  0
 21 84  1  0  0  0  0
 22 85  1  0  0  0  0
 23 25  2  0  0  0  0
 23 84  1  0  0  0  0
 24 86  1  0  0  0  0
 25 87  1  0  0  0  0
 26 66  2  0  0  0  0
 27 67  1  0  0  0  0
 27 71  1  0  0  0  0
 28 72  1  0  0  0  0
 28 77  2  0  0  0  0
 29 51  1  0  0  0  0
 29 73  1  0  0  0  0
 29 78  2  0  0  0  0
 30 62  1  0  0  0  0
 30 69  1  0  0  0  0
 30 79  2  0  0  0  0
 31 63  1  0  0  0  0
 31 68  1  0  0  0  0
 31 80  2  0  0  0  0
 32 64  1  0  0  0  0
 32 74  1  0  0  0  0
 32 81  2  0  0  0  0
 33 70  1  0  0  0  0
 33 75  1  0  0  0  0
 33 82  2  0  0  0  0
 34 37  1  0  0  0  0
 35 51  1  0  0  0  0
 36 68  1  0  0  0  0
 37 40  1  0  0  0  0
 38 43  1  0  0  0  0
 38 48  1  0  0  0  0
 39 44  1  0  0  0  0
 39 47  1  0  0  0  0
 40 50  1  0  0  0  0
 41 45  1  0  0  0  0
 41 52  1  0  0  0  0
 42 46  1  0  0  0  0
 42 52  1  0  0  0  0
 43 53  1  0  0  0  0
 44 55  1  0  0  0  0
 45 56  1  0  0  0  0
 46 56  1  0  0  0  0
 47 69  1  0  0  0  0
 48 70  1  0  0  0  0
 49 53  1  0  0  0  0
 49 70  1  0  0  0  0
 50 73  1  0  0  0  0
 51 68  1  0  0  0  0
 52 54  1  0  0  0  0
 53 67  1  0  0  0  0
 54 55  1  0  0  0  0
 54 69  1  0  0  0  0
 55 75  1  0  0  0  0
 56 85  1  0  0  0  0
 57 64  1  0  0  0  0
 58 65  1  0  0  0  0
 59 65  1  0  0  0  0
 60 65  1  0  0  0  0
 61 76  1  0  0  0  0
 62 83  1  0  0  0  0
 63 65  1  0  0  0  0
 63 74  1  0  0  0  0
 64 76  1  0  0  0  0
 66 67  1  0  0  0  0
M  CHG  1  76   1
M  ISO  4  33 100  56 101  75 100  85 101
M  END
> <Batch ID>
0133

> <Smiles>
CNC(C)C(=O)NC(C(=O)N1Cc2cc([101O:1][101CH:1]3CCC(C4C([100NH:0][100C:0](=O)N5CCCC(n6nc(-c7ccc(Oc8ccc(F)cc8F)cc7)c(C(N)=O)c6N)C5)CCCN4C(=O)CO)CC3)ccc2CC1C(=O)NC1CCCc2ccccc21)C(C)(C)C

> <Shape>
0.276

> <Color>
0.043

> <Negative vol penalty>
0.000

$$$$

  -OEChem-04052320553D

 80 88  0     1  0  0  0  0  0999 V2000
  -33.0265  -30.3445   11.5396 C   0  0  0  0  0  0  0  0  0  0  0  0
  -32.8653  -29.1067   12.1538 C   0  0  0  0  0  0  0  0  0  0  0  0
  -23.1222   -9.8468   19.9281 C   0  0  0  0  0  0  0  0  0  0  0  0
  -23.8944   -9.8563   22.2174 C   0  0  0  0  0  0  0  0  0  0  0  0
  -32.7637  -31.5141   12.2515 C   0  0  0  0  0  0  0  0  0  0  0  0
  -32.4423  -29.0378   13.4808 C   0  0  0  0  0  0  0  0  0  0  0  0
  -28.8518  -24.7535   15.9827 C   0  0  0  0  0  0  0  0  0  0  0  0
  -31.1769  -19.6264   19.1702 C   0  0  0  0  0  0  0  0  0  0  0  0
  -31.4004  -18.5942   20.0812 C   0  0  0  0  0  0  0  0  0  0  0  0
  -22.4161   -8.6687   20.1711 C   0  0  0  0  0  0  0  0  0  0  0  0
  -23.1882   -8.6782   22.4605 C   0  0  0  0  0  0  0  0  0  0  0  0
  -29.1352  -23.6151   16.7359 C   0  0  0  0  0  0  0  0  0  0  0  0
  -19.9899   -7.7745   23.0726 C   0  0  0  0  0  0  0  0  0  0  0  0
  -19.2411   -7.7002   24.2470 C   0  0  0  0  0  0  0  0  0  0  0  0
  -28.7455  -24.8657   18.7616 C   0  0  0  0  0  0  0  0  0  0  0  0
  -28.9200  -19.8683   19.9978 C   0  0  0  0  0  0  0  0  0  0  0  0
  -20.5464   -5.7957   24.9586 C   0  0  0  0  0  0  0  0  0  0  0  0
  -23.8615  -10.4405   20.9512 C   0  0  0  0  0  0  0  0  0  0  0  0
  -24.1238  -12.9761   20.8531 C   0  0  0  0  0  0  0  0  0  0  0  0
  -32.3280  -31.4593   13.5849 C   0  0  0  0  0  0  0  0  0  0  0  0
  -28.5232  -25.9615   16.6146 C   0  0  0  0  0  0  0  0  0  0  0  0
  -32.1747  -30.2079   14.2116 C   0  0  0  0  0  0  0  0  0  0  0  0
  -28.4559  -26.0174   18.0140 C   0  0  0  0  0  0  0  0  0  0  0  0
  -29.9367  -20.2636   19.1285 C   0  0  0  0  0  0  0  0  0  0  0  0
  -30.3837  -18.1990   20.9506 C   0  0  0  0  0  0  0  0  0  0  0  0
  -29.1435  -18.8361   20.9089 C   0  0  0  0  0  0  0  0  0  0  0  0
  -22.4490   -8.0844   21.4373 C   0  0  0  0  0  0  0  0  0  0  0  0
  -29.0849  -23.6718   18.1256 C   0  0  0  0  0  0  0  0  0  0  0  0
  -21.0168   -6.8594   22.8411 C   0  0  0  0  0  0  0  0  0  0  0  0
  -19.5193   -6.7108   25.1901 C   0  0  0  0  0  0  0  0  0  0  0  0
  -21.2951   -5.8700   23.7841 C   0  0  0  0  0  0  0  0  0  0  0  0
  -24.5916  -11.6571   20.7006 C   0  0  0  0  0  0  0  0  0  0  0  0
  -25.1900  -13.7626   20.4911 C   0  0  0  0  0  0  0  0  0  0  0  0
  -22.8402  -13.4481   21.2836 C   0  0  0  0  0  0  0  0  0  0  0  0
  -29.8171  -28.8630   16.7188 C   0  0  0  0  0  0  0  0  0  0  0  0
  -27.1168  -29.5827   18.3658 C   0  0  0  0  0  0  0  0  0  0  0  0
  -24.5285  -28.4926   20.3045 C   0  0  0  0  0  0  0  0  0  0  0  0
  -30.6403  -14.9505   20.6599 C   0  0  0  0  0  0  0  0  0  0  0  0
  -32.1019  -32.7519   14.3284 C   0  0  0  0  0  0  0  0  0  0  0  0
  -28.1941  -27.1737   15.7871 C   0  0  0  0  0  0  0  0  0  0  0  0
  -28.0884  -27.2846   18.7403 C   0  0  0  0  0  0  0  0  0  0  0  0
  -31.2972  -32.5821   15.6144 C   0  0  0  0  0  0  0  0  0  0  0  0
  -29.5642  -12.5538   18.2569 C   0  0  0  0  0  0  0  0  0  0  0  0
  -31.8277  -31.4033   16.4243 C   0  0  0  0  0  0  0  0  0  0  0  0
  -28.1390  -12.2114   18.6947 C   0  0  0  0  0  0  0  0  0  0  0  0
  -30.4807  -12.7920   19.4549 C   0  0  0  0  0  0  0  0  0  0  0  0
  -28.5649  -13.4506   20.8584 C   0  0  0  0  0  0  0  0  0  0  0  0
  -31.6938  -30.0914   15.6417 C   0  0  1  0  0  0  0  0  0  0  0  0
  -28.3733  -28.4835   16.5485 C   0  0  1  0  0  0  0  0  0  0  0  0
  -27.5901  -13.2566   19.6844 C   0  0  2  0  0  0  0  0  0  0  0  0
  -28.0400  -18.4297   21.8297 C   0  0  0  0  0  0  0  0  0  0  0  0
  -22.5013  -29.3198   21.5308 C   0  0  0  0  0  0  0  0  0  0  0  0
  -28.9081  -30.6981   20.5697 C   0  0  0  0  0  0  0  0  0  0  0  0
  -26.9381  -30.6226   22.1129 C   0  0  0  0  0  0  0  0  0  0  0  0
  -26.8751  -32.0710   20.0829 C   0  0  0  0  0  0  0  0  0  0  0  0
  -22.7142  -26.8212   18.6693 C   0  0  0  0  0  0  0  0  0  0  0  0
  -30.6461  -17.0906   21.9166 C   0  0  0  0  0  0  0  0  0  0  0  0
  -29.6964  -21.3736   18.1480 C   0  0  0  0  0  0  0  0  0  1  0  0
  -26.7142  -29.5615   19.8206 C   0  0  1  0  0  0  0  0  0  0  0  0
  -23.0341  -28.7480   20.2262 C   0  0  2  0  0  0  0  0  0  0  0  0
  -27.3677  -30.7148   20.6332 C   0  0  0  0  0  0  0  0  0  0  0  0
  -25.8565  -11.6047   20.2747 N   0  0  0  0  0  0  0  0  0  0  0  0
  -26.1925  -12.9005   20.1565 N   0  0  0  0  0  0  0  0  0  0  0  0
  -27.7813  -28.4446   17.8872 N   0  0  0  0  0  0  0  0  0  0  0  0
  -29.9033  -13.7947   20.3535 N   0  0  0  0  0  0  0  0  0  0  0  0
  -25.3584  -15.1006   20.4295 N   0  0  0  0  0  0  0  0  0  0  0  0
  -21.8590  -12.5048   21.6177 N   0  0  0  0  0  0  0  0  0  0  0  0
  -30.3268  -29.6176   15.6794 N   0  0  0  0  0  0  0  0  0  0  0  0
  -25.2555  -29.5684   19.8406 N   0  0  0  0  0  0  0  0  0  0  0  0
  -30.0172  -15.8524   21.5138 N   0  0  0  0  0  0  0  0  0  0  0  0
  -22.3064  -27.4801   19.9368 N   0  3  0  0  0  0  0  0  0  0  0  0
  -22.5661  -14.6702   21.3538 O   0  0  0  0  0  0  0  0  0  0  0  0
  -30.4234  -28.4994   17.7197 O   0  0  0  0  0  0  0  0  0  0  0  0
  -26.8452  -30.5697   17.6774 O   0  0  0  0  0  0  0  0  0  0  0  0
  -25.0034  -27.4451   20.7377 O   0  0  0  0  0  0  0  0  0  0  0  0
  -31.7677  -15.1655   20.2020 O   0  0  0  0  0  0  0  0  0  0  0  0
  -21.7598   -6.9350   21.6749 O   0  0  0  0  0  0  0  0  0  0  0  0
  -29.3617  -22.5622   18.8632 O   0  0  0  0  0  0  0  0  0  1  0  0
  -18.8012   -6.6405   26.3186 F   0  0  0  0  0  0  0  0  0  0  0  0
  -22.2813   -4.9888   23.5678 F   0  0  0  0  0  0  0  0  0  0  0  0
  1  2  1  0  0  0  0
  1  5  2  0  0  0  0
  2  6  2  0  0  0  0
  3 10  2  0  0  0  0
  3 18  1  0  0  0  0
  4 11  1  0  0  0  0
  4 18  2  0  0  0  0
  5 20  1  0  0  0  0
  6 22  1  0  0  0  0
  7 12  2  0  0  0  0
  7 21  1  0  0  0  0
  8  9  2  0  0  0  0
  8 24  1  0  0  0  0
  9 25  1  0  0  0  0
 10 27  1  0  0  0  0
 11 27  2  0  0  0  0
 12 28  1  0  0  0  0
 13 14  2  0  0  0  0
 13 29  1  0  0  0  0
 14 30  1  0  0  0  0
 15 23  1  0  0  0  0
 15 28  2  0  0  0  0
 16 24  2  0  0  0  0
 16 26  1  0  0  0  0
 17 30  2  0  0  0  0
 17 31  1  0  0  0  0
 18 32  1  0  0  0  0
 19 32  1  0  0  0  0
 19 33  2  0  0  0  0
 19 34  1  0  0  0  0
 20 22  2  0  0  0  0
 20 39  1  0  0  0  0
 21 23  2  0  0  0  0
 21 40  1  0  0  0  0
 22 48  1  0  0  0  0
 23 41  1  0  0  0  0
 24 58  1  0  0  0  0
 25 26  2  0  0  0  0
 25 57  1  0  0  0  0
 26 51  1  0  0  0  0
 27 77  1  0  0  0  0
 28 78  1  0  0  0  0
 29 31  2  0  0  0  0
 29 77  1  0  0  0  0
 30 79  1  0  0  0  0
 31 80  1  0  0  0  0
 32 62  2  0  0  0  0
 33 63  1  0  0  0  0
 33 66  1  0  0  0  0
 34 67  1  0  0  0  0
 34 72  2  0  0  0  0
 35 49  1  0  0  0  0
 35 68  1  0  0  0  0
 35 73  2  0  0  0  0
 36 59  1  0  0  0  0
 36 64  1  0  0  0  0
 36 74  2  0  0  0  0
 37 60  1  0  0  0  0
 37 69  1  0  0  0  0
 37 75  2  0  0  0  0
 38 65  1  0  0  0  0
 38 70  1  0  0  0  0
 38 76  2  0  0  0  0
 39 42  1  0  0  0  0
 40 49  1  0  0  0  0
 41 64  1  0  0  0  0
 42 44  1  0  0  0  0
 43 45  1  0  0  0  0
 43 46  1  0  0  0  0
 44 48  1  0  0  0  0
 45 50  1  0  0  0  0
 46 65  1  0  0  0  0
 47 50  1  0  0  0  0
 47 65  1  0  0  0  0
 48 68  1  0  0  0  0
 49 64  1  0  0  0  0
 50 63  1  0  0  0  0
 52 60  1  0  0  0  0
 53 61  1  0  0  0  0
 54 61  1  0  0  0  0
 55 61  1  0  0  0  0
 56 71  1  0  0  0  0
 57 70  1  0  0  0  0
 58 78  1  0  0  0  0
 59 61  1  0  0  0  0
 59 69  1  0  0  0  0
 60 71  1  0  0  0  0
 62 63  1  0  0  0  0
M  CHG  1  71   1
M  ISO  4  38 100  58 101  70 100  78 101
M  END
> <Batch ID>
0133

> <Smiles>
CNC(C)C(=O)NC(C(=O)N1Cc2cc([101O:1][101CH2:1]c3ccc(C[100NH:0][100C:0](=O)N4CCCC(n5nc(-c6ccc(Oc7ccc(F)cc7F)cc6)c(C(N)=O)c5N)C4)c(C)c3)ccc2CC1C(=O)NC1CCCc2ccccc21)C(C)(C)C

> <Shape>
0.284

> <Color>
0.215

> <Negative vol penalty>
0.000

$$$$

  -OEChem-04052320553D

 80 88  0     1  0  0  0  0  0999 V2000
  -18.5482  -31.7530   26.1753 C   0  0  0  0  0  0  0  0  0  0  0  0
  -19.8982  -31.4404   26.2986 C   0  0  0  0  0  0  0  0  0  0  0  0
  -24.7287  -10.0532   22.3144 C   0  0  0  0  0  0  0  0  0  0  0  0
  -24.7897  -11.5591   24.2027 C   0  0  0  0  0  0  0  0  0  0  0  0
  -17.8021  -31.2149   25.1276 C   0  0  0  0  0  0  0  0  0  0  0  0
  -20.5027  -30.5886   25.3747 C   0  0  0  0  0  0  0  0  0  0  0  0
  -26.7719  -29.4482   22.1016 C   0  0  0  0  0  0  0  0  0  0  0  0
  -27.2058  -20.3174   20.6978 C   0  0  0  0  0  0  0  0  0  0  0  0
  -29.6207  -20.3774   20.7345 C   0  0  0  0  0  0  0  0  0  0  0  0
  -27.1679  -21.6897   20.9445 C   0  0  0  0  0  0  0  0  0  0  0  0
  -29.5829  -21.7498   20.9811 C   0  0  0  0  0  0  0  0  0  0  0  0
  -24.4137   -8.9958   23.1677 C   0  0  0  0  0  0  0  0  0  0  0  0
  -24.4747  -10.5017   25.0561 C   0  0  0  0  0  0  0  0  0  0  0  0
  -27.6934  -28.4293   21.8645 C   0  0  0  0  0  0  0  0  0  0  0  0
  -23.2387   -5.9701   24.8046 C   0  0  0  0  0  0  0  0  0  0  0  0
  -22.2209   -5.1009   24.4120 C   0  0  0  0  0  0  0  0  0  0  0  0
  -26.3245  -27.6218   20.0497 C   0  0  0  0  0  0  0  0  0  0  0  0
  -20.6604   -6.9450   24.3749 C   0  0  0  0  0  0  0  0  0  0  0  0
  -24.9168  -11.3349   22.8318 C   0  0  0  0  0  0  0  0  0  0  0  0
  -24.3424  -13.2877   21.2942 C   0  0  0  0  0  0  0  0  0  0  0  0
  -18.4000  -30.3637   24.1849 C   0  0  0  0  0  0  0  0  0  0  0  0
  -25.6124  -29.5553   21.3203 C   0  0  0  0  0  0  0  0  0  0  0  0
  -19.7636  -30.0376   24.3142 C   0  0  0  0  0  0  0  0  0  0  0  0
  -25.3911  -28.6446   20.2773 C   0  0  0  0  0  0  0  0  0  0  0  0
  -28.4322  -19.6612   20.5928 C   0  0  0  0  0  0  0  0  0  0  0  0
  -28.3564  -22.4059   21.0862 C   0  0  0  0  0  0  0  0  0  0  0  0
  -24.2867   -9.2200   24.5386 C   0  0  0  0  0  0  0  0  0  0  0  0
  -27.4684  -27.5141   20.8403 C   0  0  0  0  0  0  0  0  0  0  0  0
  -22.9674   -7.3267   24.9825 C   0  0  0  0  0  0  0  0  0  0  0  0
  -20.9317   -5.5884   24.1971 C   0  0  0  0  0  0  0  0  0  0  0  0
  -21.6782   -7.8142   24.7676 C   0  0  0  0  0  0  0  0  0  0  0  0
  -25.2427  -12.4274   21.9509 C   0  0  0  0  0  0  0  0  0  0  0  0
  -25.1446  -14.1471   20.5840 C   0  0  0  0  0  0  0  0  0  0  0  0
  -22.9091  -13.3081   21.3236 C   0  0  0  0  0  0  0  0  0  0  0  0
  -22.4917  -29.4018   21.9046 C   0  0  0  0  0  0  0  0  0  0  0  0
  -22.2608  -30.2569   18.7840 C   0  0  0  0  0  0  0  0  0  0  0  0
  -23.6991  -30.3465   15.6905 C   0  0  0  0  0  0  0  0  0  0  0  0
  -29.6020  -17.4630   20.2114 C   0  0  0  0  0  0  0  0  0  0  0  0
  -17.5418  -29.7687   23.0968 C   0  0  0  0  0  0  0  0  0  0  0  0
  -24.6413  -30.6762   21.5716 C   0  0  0  0  0  0  0  0  0  0  0  0
  -24.1720  -28.7281   19.3968 C   0  0  0  0  0  0  0  0  0  0  0  0
  -18.3459  -29.1726   21.9443 C   0  0  0  0  0  0  0  0  0  0  0  0
  -30.1137  -13.9872   19.6330 C   0  0  0  0  0  0  0  0  0  0  0  0
  -19.4826  -28.3068   22.4781 C   0  0  0  0  0  0  0  0  0  0  0  0
  -28.8180  -13.3423   20.1305 C   0  0  0  0  0  0  0  0  0  0  0  0
  -30.5260  -15.1745   20.5014 C   0  0  0  0  0  0  0  0  0  0  0  0
  -28.1908  -15.5488   21.1912 C   0  0  0  0  0  0  0  0  0  0  0  0
  -20.4610  -29.1371   23.3177 C   0  0  1  0  0  0  0  0  0  0  0  0
  -23.2398  -30.3818   21.0458 C   0  0  1  0  0  0  0  0  0  0  0  0
  -27.7004  -14.3885   20.3097 C   0  0  2  0  0  0  0  0  0  0  0  0
  -23.2520  -31.0729   13.3305 C   0  0  0  0  0  0  0  0  0  0  0  0
  -20.4516  -27.8328   18.3832 C   0  0  0  0  0  0  0  0  0  0  0  0
  -20.8141  -28.0576   15.9162 C   0  0  0  0  0  0  0  0  0  0  0  0
  -19.7085  -29.8986   17.1854 C   0  0  0  0  0  0  0  0  0  0  0  0
  -25.9723  -32.2414   15.7202 C   0  0  0  0  0  0  0  0  0  0  0  0
  -29.4983  -24.5873   21.4902 C   0  0  0  0  0  0  0  0  0  0  0  0
  -29.1071  -26.0364   21.7273 C   0  0  0  0  0  0  0  0  0  1  0  0
  -22.1901  -29.5109   17.4735 C   0  0  1  0  0  0  0  0  0  0  0  0
  -23.8389  -31.4677   14.6768 C   0  0  2  0  0  0  0  0  0  0  0  0
  -20.8132  -28.8220   17.2572 C   0  0  0  0  0  0  0  0  0  0  0  0
  -26.5192  -12.7141   21.6816 N   0  0  0  0  0  0  0  0  0  0  0  0
  -26.4267  -13.7641   20.8479 N   0  0  0  0  0  0  0  0  0  0  0  0
  -23.2489  -29.8380   19.6862 N   0  0  0  0  0  0  0  0  0  0  0  0
  -29.4192  -16.1258   20.6230 N   0  0  0  0  0  0  0  0  0  0  0  0
  -24.8713  -15.1854   19.7657 N   0  0  0  0  0  0  0  0  0  0  0  0
  -22.2432  -12.3540   22.1051 N   0  0  0  0  0  0  0  0  0  0  0  0
  -28.4703  -18.2668   20.3438 N   0  0  0  0  0  0  0  0  0  0  0  0
  -28.3183  -23.7688   21.3303 N   0  0  0  0  0  0  0  0  0  0  0  0
  -21.3331  -29.9104   22.4599 N   0  0  0  0  0  0  0  0  0  0  0  0
  -22.5463  -30.4731   16.4364 N   0  0  0  0  0  0  0  0  0  0  0  0
  -25.2754  -31.8123   14.4803 N   0  3  0  0  0  0  0  0  0  0  0  0
  -22.2383  -14.1372   20.6632 O   0  0  0  0  0  0  0  0  0  0  0  0
  -22.9321  -28.2677   22.0513 O   0  0  0  0  0  0  0  0  0  0  0  0
  -21.4730  -31.1821   18.9964 O   0  0  0  0  0  0  0  0  0  0  0  0
  -24.5277  -29.4462   15.8064 O   0  0  0  0  0  0  0  0  0  0  0  0
  -30.6749  -17.8585   19.7484 O   0  0  0  0  0  0  0  0  0  0  0  0
  -23.9791   -8.1885   25.3716 O   0  0  0  0  0  0  0  0  0  0  0  0
  -28.3660  -26.5182   20.6071 O   0  0  0  0  0  0  0  0  0  1  0  0
  -19.9548   -4.7539   23.8185 F   0  0  0  0  0  0  0  0  0  0  0  0
  -21.4118   -9.1167   24.9358 F   0  0  0  0  0  0  0  0  0  0  0  0
  1  2  1  0  0  0  0
  1  5  2  0  0  0  0
  2  6  2  0  0  0  0
  3 12  2  0  0  0  0
  3 19  1  0  0  0  0
  4 13  1  0  0  0  0
  4 19  2  0  0  0  0
  5 21  1  0  0  0  0
  6 23  1  0  0  0  0
  7 14  2  0  0  0  0
  7 22  1  0  0  0  0
  8 10  2  0  0  0  0
  8 25  1  0  0  0  0
  9 11  1  0  0  0  0
  9 25  2  0  0  0  0
 10 26  1  0  0  0  0
 11 26  2  0  0  0  0
 12 27  1  0  0  0  0
 13 27  2  0  0  0  0
 14 28  1  0  0  0  0
 15 16  2  0  0  0  0
 15 29  1  0  0  0  0
 16 30  1  0  0  0  0
 17 24  1  0  0  0  0
 17 28  2  0  0  0  0
 18 30  2  0  0  0  0
 18 31  1  0  0  0  0
 19 32  1  0  0  0  0
 20 32  1  0  0  0  0
 20 33  2  0  0  0  0
 20 34  1  0  0  0  0
 21 23  2  0  0  0  0
 21 39  1  0  0  0  0
 22 24  2  0  0  0  0
 22 40  1  0  0  0  0
 23 48  1  0  0  0  0
 24 41  1  0  0  0  0
 25 67  1  0  0  0  0
 26 68  1  0  0  0  0
 27 77  1  0  0  0  0
 28 78  1  0  0  0  0
 29 31  2  0  0  0  0
 29 77  1  0  0  0  0
 30 79  1  0  0  0  0
 31 80  1  0  0  0  0
 32 61  2  0  0  0  0
 33 62  1  0  0  0  0
 33 65  1  0  0  0  0
 34 66  1  0  0  0  0
 34 72  2  0  0  0  0
 35 49  1  0  0  0  0
 35 69  1  0  0  0  0
 35 73  2  0  0  0  0
 36 58  1  0  0  0  0
 36 63  1  0  0  0  0
 36 74  2  0  0  0  0
 37 59  1  0  0  0  0
 37 70  1  0  0  0  0
 37 75  2  0  0  0  0
 38 64  1  0  0  0  0
 38 67  1  0  0  0  0
 38 76  2  0  0  0  0
 39 42  1  0  0  0  0
 40 49  1  0  0  0  0
 41 63  1  0  0  0  0
 42 44  1  0  0  0  0
 43 45  1  0  0  0  0
 43 46  1  0  0  0  0
 44 48  1  0  0  0  0
 45 50  1  0  0  0  0
 46 64  1  0  0  0  0
 47 50  1  0  0  0  0
 47 64  1  0  0  0  0
 48 69  1  0  0  0  0
 49 63  1  0  0  0  0
 50 62  1  0  0  0  0
 51 59  1  0  0  0  0
 52 60  1  0  0  0  0
 53 60  1  0  0  0  0
 54 60  1  0  0  0  0
 55 71  1  0  0  0  0
 56 57  1  0  0  0  0
 56 68  1  0  0  0  0
 57 78  1  0  0  0  0
 58 60  1  0  0  0  0
 58 70  1  0  0  0  0
 59 71  1  0  0  0  0
 61 62  1  0  0  0  0
M  CHG  1  71   1
M  ISO  4  38 100  57 101  67 100  78 101
M  END
> <Batch ID>
0133

> <Smiles>
CNC(C)C(=O)NC(C(=O)N1Cc2cc([101O:1][101CH2:1]CNc3ccc([100NH:0][100C:0](=O)N4CCCC(n5nc(-c6ccc(Oc7ccc(F)cc7F)cc6)c(C(N)=O)c5N)C4)cc3)ccc2CC1C(=O)NC1CCCc2ccccc21)C(C)(C)C

> <Shape>
0.286

> <Color>
0.137

> <Negative vol penalty>
0.000

$$$$

  -OEChem-04052320553D

 82 90  0     1  0  0  0  0  0999 V2000
  -20.7365   -8.4796   18.4323 C   0  0  0  0  0  0  0  0  0  0  0  0
  -20.4950   -9.8477   18.5051 C   0  0  0  0  0  0  0  0  0  0  0  0
  -29.5116  -28.5445   20.4470 C   0  0  0  0  0  0  0  0  0  0  0  0
  -27.8839  -27.3097   19.1574 C   0  0  0  0  0  0  0  0  0  0  0  0
  -21.6591   -7.8888   19.2946 C   0  0  0  0  0  0  0  0  0  0  0  0
  -21.1753  -10.6257   19.4412 C   0  0  0  0  0  0  0  0  0  0  0  0
  -23.0488  -16.4154   18.7517 C   0  0  0  0  0  0  0  0  0  0  0  0
  -22.4872  -22.3972   21.5295 C   0  0  0  0  0  0  0  0  0  0  0  0
  -21.1800  -21.2873   23.2313 C   0  0  0  0  0  0  0  0  0  0  0  0
  -21.8152  -23.5910   21.7918 C   0  0  0  0  0  0  0  0  0  0  0  0
  -20.5079  -22.4811   23.4937 C   0  0  0  0  0  0  0  0  0  0  0  0
  -30.4322  -27.5108   20.2749 C   0  0  0  0  0  0  0  0  0  0  0  0
  -28.8045  -26.2760   18.9852 C   0  0  0  0  0  0  0  0  0  0  0  0
  -22.5042  -17.6324   19.1593 C   0  0  0  0  0  0  0  0  0  0  0  0
  -30.0047  -23.6823   20.7917 C   0  0  0  0  0  0  0  0  0  0  0  0
  -29.5540  -22.3755   20.9778 C   0  0  0  0  0  0  0  0  0  0  0  0
  -23.9141  -17.6008   21.1164 C   0  0  0  0  0  0  0  0  0  0  0  0
  -30.1523  -21.8444   18.6981 C   0  0  0  0  0  0  0  0  0  0  0  0
  -28.2374  -28.4439   19.8883 C   0  0  0  0  0  0  0  0  0  0  0  0
  -27.0974  -30.6298   19.2326 C   0  0  0  0  0  0  0  0  0  0  0  0
  -22.3581   -8.6616   20.2353 C   0  0  0  0  0  0  0  0  0  0  0  0
  -24.0239  -15.7756   19.5302 C   0  0  0  0  0  0  0  0  0  0  0  0
  -22.1072  -10.0445   20.3179 C   0  0  0  0  0  0  0  0  0  0  0  0
  -24.4713  -16.3771   20.7151 C   0  0  0  0  0  0  0  0  0  0  0  0
  -22.1696  -21.2453   22.2493 C   0  0  0  0  0  0  0  0  0  0  0  0
  -20.8255  -23.6329   22.7739 C   0  0  0  0  0  0  0  0  0  0  0  0
  -30.0787  -26.3766   19.5440 C   0  0  0  0  0  0  0  0  0  0  0  0
  -22.9347  -18.2239   20.3433 C   0  0  0  0  0  0  0  0  0  0  0  0
  -30.5291  -24.0702   19.5587 C   0  0  0  0  0  0  0  0  0  0  0  0
  -29.6278  -21.4565   19.9311 C   0  0  0  0  0  0  0  0  0  0  0  0
  -30.6029  -23.1513   18.5119 C   0  0  0  0  0  0  0  0  0  0  0  0
  -27.2858  -29.5111   20.0662 C   0  0  0  0  0  0  0  0  0  0  0  0
  -26.0843  -31.3377   19.8318 C   0  0  0  0  0  0  0  0  0  0  0  0
  -27.7772  -30.9962   18.0246 C   0  0  0  0  0  0  0  0  0  0  0  0
  -24.2039  -12.9951   21.0600 C   0  0  0  0  0  0  0  0  0  0  0  0
  -27.2727  -13.9161   21.5662 C   0  0  0  0  0  0  0  0  0  0  0  0
  -29.5311  -16.4635   21.8058 C   0  0  0  0  0  0  0  0  0  0  0  0
  -21.6256  -29.7601   23.5036 C   0  0  0  0  0  0  0  0  0  0  0  0
  -23.3111   -7.9705   21.1781 C   0  0  0  0  0  0  0  0  0  0  0  0
  -24.6207  -14.4764   19.0630 C   0  0  0  0  0  0  0  0  0  0  0  0
  -25.5305  -15.7410   21.5765 C   0  0  0  0  0  0  0  0  0  0  0  0
  -24.2653   -8.9269   21.8890 C   0  0  0  0  0  0  0  0  0  0  0  0
  -24.1457  -32.1984   24.1203 C   0  0  0  0  0  0  0  0  0  0  0  0
  -23.5052  -10.1312   22.4354 C   0  0  0  0  0  0  0  0  0  0  0  0
  -25.2193  -31.8871   23.0760 C   0  0  0  0  0  0  0  0  0  0  0  0
  -23.4869  -30.9262   24.6490 C   0  0  0  0  0  0  0  0  0  0  0  0
  -24.0161  -29.7215   22.5652 C   0  0  0  0  0  0  0  0  0  0  0  0
  -22.8435  -10.9261   21.3032 C   0  0  1  0  0  0  0  0  0  0  0  0
  -25.2369  -13.6605   20.1952 C   0  0  1  0  0  0  0  0  0  0  0  0
  -24.6701  -30.9762   21.9617 C   0  0  2  0  0  0  0  0  0  0  0  0
  -31.7668  -17.5789   22.0395 C   0  0  0  0  0  0  0  0  0  0  0  0
  -26.7924  -13.4421   24.5419 C   0  0  0  0  0  0  0  0  0  0  0  0
  -28.8581  -14.7746   25.0165 C   0  0  0  0  0  0  0  0  0  0  0  0
  -29.0151  -12.6578   23.7061 C   0  0  0  0  0  0  0  0  0  0  0  0
  -29.9967  -16.4027   18.8837 C   0  0  0  0  0  0  0  0  0  0  0  0
  -22.8917  -19.9606   21.9675 C   0  0  0  0  0  0  0  0  0  1  0  0
  -19.5858  -27.2089   22.8972 C   0  0  0  0  0  0  0  0  0  0  0  0
  -20.4237  -26.0574   22.3425 C   0  0  0  0  0  0  0  0  0  0  0  0
  -19.8647  -28.5564   22.2349 C   0  0  0  0  0  0  0  0  0  0  0  0
  -27.9896  -14.7055   22.6349 C   0  0  1  0  0  0  0  0  0  0  0  0
  -30.9088  -16.6490   21.1959 C   0  0  2  0  0  0  0  0  0  0  0  0
  -28.1424  -13.9063   23.9598 C   0  0  0  0  0  0  0  0  0  0  0  0
  -26.4590  -29.5046   21.1151 N   0  0  0  0  0  0  0  0  0  0  0  0
  -25.7412  -30.6279   20.9447 N   0  0  0  0  0  0  0  0  0  0  0  0
  -26.0789  -14.4679   21.0804 N   0  0  0  0  0  0  0  0  0  0  0  0
  -22.9860  -30.1077   23.5422 N   0  0  0  0  0  0  0  0  0  0  0  0
  -25.4625  -32.4919   19.5100 N   0  0  0  0  0  0  0  0  0  0  0  0
  -28.7930  -30.1561   17.5484 N   0  0  0  0  0  0  0  0  0  0  0  0
  -20.1471  -24.8402   23.0408 N   0  0  0  0  0  0  0  0  0  0  0  0
  -23.8234  -11.7421   20.6189 N   0  0  0  0  0  0  0  0  0  0  0  0
  -29.2538  -15.1345   22.0466 N   0  0  0  0  0  0  0  0  0  0  0  0
  -21.2326  -28.9880   22.4172 N   0  0  0  0  0  0  0  0  0  0  0  0
  -30.7957  -17.2268   19.8268 N   0  3  0  0  0  0  0  0  0  0  0  0
  -27.5035  -32.0462   17.3952 O   0  0  0  0  0  0  0  0  0  0  0  0
  -23.7842  -13.5750   22.0546 O   0  0  0  0  0  0  0  0  0  0  0  0
  -27.7580  -12.8528   21.1718 O   0  0  0  0  0  0  0  0  0  0  0  0
  -28.7778  -17.4040   22.0481 O   0  0  0  0  0  0  0  0  0  0  0  0
  -20.8198  -30.1163   24.3700 O   0  0  0  0  0  0  0  0  0  0  0  0
  -30.9768  -25.3678   19.3757 O   0  0  0  0  0  0  0  0  0  0  0  0
  -22.4043  -19.4113   20.7439 O   0  0  0  0  0  0  0  0  0  1  0  0
  -29.1965  -20.2012   20.1105 F   0  0  0  0  0  0  0  0  0  0  0  0
  -31.1068  -23.5178   17.3255 F   0  0  0  0  0  0  0  0  0  0  0  0
  1  2  1  0  0  0  0
  1  5  2  0  0  0  0
  2  6  2  0  0  0  0
  3 12  2  0  0  0  0
  3 19  1  0  0  0  0
  4 13  1  0  0  0  0
  4 19  2  0  0  0  0
  5 21  1  0  0  0  0
  6 23  1  0  0  0  0
  7 14  2  0  0  0  0
  7 22  1  0  0  0  0
  8 10  2  0  0  0  0
  8 25  1  0  0  0  0
  9 11  1  0  0  0  0
  9 25  2  0  0  0  0
 10 26  1  0  0  0  0
 11 26  2  0  0  0  0
 12 27  1  0  0  0  0
 13 27  2  0  0  0  0
 14 28  1  0  0  0  0
 15 16  2  0  0  0  0
 15 29  1  0  0  0  0
 16 30  1  0  0  0  0
 17 24  1  0  0  0  0
 17 28  2  0  0  0  0
 18 30  2  0  0  0  0
 18 31  1  0  0  0  0
 19 32  1  0  0  0  0
 20 32  1  0  0  0  0
 20 33  2  0  0  0  0
 20 34  1  0  0  0  0
 21 23  2  0  0  0  0
 21 39  1  0  0  0  0
 22 24  2  0  0  0  0
 22 40  1  0  0  0  0
 23 48  1  0  0  0  0
 24 41  1  0  0  0  0
 25 56  1  0  0  0  0
 26 69  1  0  0  0  0
 27 79  1  0  0  0  0
 28 80  1  0  0  0  0
 29 31  2  0  0  0  0
 29 79  1  0  0  0  0
 30 81  1  0  0  0  0
 31 82  1  0  0  0  0
 32 63  2  0  0  0  0
 33 64  1  0  0  0  0
 33 67  1  0  0  0  0
 34 68  1  0  0  0  0
 34 74  2  0  0  0  0
 35 49  1  0  0  0  0
 35 70  1  0  0  0  0
 35 75  2  0  0  0  0
 36 60  1  0  0  0  0
 36 65  1  0  0  0  0
 36 76  2  0  0  0  0
 37 61  1  0  0  0  0
 37 71  1  0  0  0  0
 37 77  2  0  0  0  0
 38 66  1  0  0  0  0
 38 72  1  0  0  0  0
 38 78  2  0  0  0  0
 39 42  1  0  0  0  0
 40 49  1  0  0  0  0
 41 65  1  0  0  0  0
 42 44  1  0  0  0  0
 43 45  1  0  0  0  0
 43 46  1  0  0  0  0
 44 48  1  0  0  0  0
 45 50  1  0  0  0  0
 46 66  1  0  0  0  0
 47 50  1  0  0  0  0
 47 66  1  0  0  0  0
 48 70  1  0  0  0  0
 49 65  1  0  0  0  0
 50 64  1  0  0  0  0
 51 61  1  0  0  0  0
 52 62  1  0  0  0  0
 53 62  1  0  0  0  0
 54 62  1  0  0  0  0
 55 73  1  0  0  0  0
 56 80  1  0  0  0  0
 57 58  1  0  0  0  0
 57 59  1  0  0  0  0
 58 69  1  0  0  0  0
 59 72  1  0  0  0  0
 60 62  1  0  0  0  0
 60 71  1  0  0  0  0
 61 73  1  0  0  0  0
 63 64  1  0  0  0  0
M  CHG  1  73   1
M  ISO  4  38 100  56 101  72 100  80 101
M  END
> <Batch ID>
0133

> <Smiles>
CNC(C)C(=O)NC(C(=O)N1Cc2cc([101O:1][101CH2:1]c3ccc(NCCC[100NH:0][100C:0](=O)N4CCCC(n5nc(-c6ccc(Oc7ccc(F)cc7F)cc6)c(C(N)=O)c5N)C4)cc3)ccc2CC1C(=O)NC1CCCc2ccccc21)C(C)(C)C

> <Shape>
0.287

> <Color>
0.054

> <Negative vol penalty>
0.000

$$$$

  -OEChem-04052320553D

 84 93  0     1  0  0  0  0  0999 V2000
  -20.6905  -30.4081   24.9050 C   0  0  0  0  0  0  0  0  0  0  0  0
  -21.8974  -29.8182   24.5432 C   0  0  0  0  0  0  0  0  0  0  0  0
  -27.3121  -15.1469   22.1240 C   0  0  0  0  0  0  0  0  0  0  0  0
  -26.9672  -16.0518   19.9106 C   0  0  0  0  0  0  0  0  0  0  0  0
  -19.4938  -29.9237   24.3786 C   0  0  0  0  0  0  0  0  0  0  0  0
  -21.9081  -28.7429   23.6555 C   0  0  0  0  0  0  0  0  0  0  0  0
  -25.4992  -29.1843   20.1123 C   0  0  0  0  0  0  0  0  0  0  0  0
  -26.1042  -14.4558   22.0298 C   0  0  0  0  0  0  0  0  0  0  0  0
  -25.7592  -15.3607   19.8163 C   0  0  0  0  0  0  0  0  0  0  0  0
  -26.8061  -28.8774   20.4886 C   0  0  0  0  0  0  0  0  0  0  0  0
  -24.9576  -11.6322   20.5651 C   0  0  0  0  0  0  0  0  0  0  0  0
  -24.9399  -10.2989   20.9743 C   0  0  0  0  0  0  0  0  0  0  0  0
  -29.7197  -24.5982   16.9345 C   0  0  0  0  0  0  0  0  0  0  0  0
  -26.5838  -26.7039   19.4660 C   0  0  0  0  0  0  0  0  0  0  0  0
  -23.2691  -10.8311   22.6363 C   0  0  0  0  0  0  0  0  0  0  0  0
  -27.7436  -15.9449   21.0644 C   0  0  0  0  0  0  0  0  0  0  0  0
  -30.2652  -16.2018   20.7755 C   0  0  0  0  0  0  0  0  0  0  0  0
  -19.4906  -28.8481   23.4765 C   0  0  0  0  0  0  0  0  0  0  0  0
  -24.7198  -28.2476   19.4184 C   0  0  0  0  0  0  0  0  0  0  0  0
  -20.7101  -28.2428   23.1176 C   0  0  0  0  0  0  0  0  0  0  0  0
  -30.1540  -25.8788   17.2582 C   0  0  0  0  0  0  0  0  0  0  0  0
  -25.2682  -27.0023   19.0798 C   0  0  0  0  0  0  0  0  0  0  0  0
  -29.6501  -23.6231   17.9232 C   0  0  0  0  0  0  0  0  0  0  0  0
  -25.3278  -14.5627   20.8759 C   0  0  0  0  0  0  0  0  0  0  0  0
  -27.3476  -27.6360   20.1680 C   0  0  0  0  0  0  0  0  0  0  0  0
  -24.1310  -12.5651   21.1915 C   0  0  0  0  0  0  0  0  0  0  0  0
  -24.0956   -9.8983   22.0099 C   0  0  0  0  0  0  0  0  0  0  0  0
  -23.2867  -12.1645   22.2270 C   0  0  0  0  0  0  0  0  0  0  0  0
  -28.9910  -16.6595   21.1614 C   0  0  0  0  0  0  0  0  0  0  0  0
  -30.5044  -26.1314   18.5747 C   0  0  0  0  0  0  0  0  0  0  0  0
  -30.0232  -23.9766   19.2099 C   0  0  0  0  0  0  0  0  0  0  0  0
  -31.1085  -17.2452   21.0698 C   0  0  0  0  0  0  0  0  0  0  0  0
  -30.6518  -14.9458   20.2023 C   0  0  0  0  0  0  0  0  0  0  0  0
  -22.0011  -26.7115   20.0125 C   0  0  0  0  0  0  0  0  0  0  0  0
  -22.3733  -25.6760   16.9611 C   0  0  0  0  0  0  0  0  0  0  0  0
  -24.4815  -25.0437   14.3529 C   0  0  0  0  0  0  0  0  0  0  0  0
  -30.2853  -23.1423   21.5724 C   0  0  0  0  0  0  0  0  0  0  0  0
  -18.1681  -28.3289   22.9706 C   0  0  0  0  0  0  0  0  0  0  0  0
  -23.3208  -28.6040   18.9962 C   0  0  0  0  0  0  0  0  0  0  0  0
  -24.4799  -25.9694   18.3181 C   0  0  0  0  0  0  0  0  0  0  0  0
  -18.2962  -27.4269   21.7457 C   0  0  0  0  0  0  0  0  0  0  0  0
  -31.5757  -20.9522   24.0655 C   0  0  0  0  0  0  0  0  0  0  0  0
  -29.4921  -28.2218   16.3944 C   0  0  0  0  0  0  0  0  0  0  0  0
  -28.9972  -27.2330   15.3856 C   0  0  0  0  0  0  0  0  0  0  0  0
  -19.4073  -26.4021   21.9512 C   0  0  0  0  0  0  0  0  0  0  0  0
  -31.1806  -19.5608   23.5655 C   0  0  0  0  0  0  0  0  0  0  0  0
  -30.4966  -21.9907   23.7643 C   0  0  0  0  0  0  0  0  0  0  0  0
  -29.6735  -20.6607   21.8609 C   0  0  0  0  0  0  0  0  0  0  0  0
  -30.2285  -26.9231   16.1959 C   0  0  0  0  0  0  0  0  0  0  0  0
  -20.7648  -27.0904   22.1383 C   0  0  1  0  0  0  0  0  0  0  0  0
  -22.4435  -27.3820   18.7427 C   0  0  1  0  0  0  0  0  0  0  0  0
  -30.7575  -19.5936   22.0838 C   0  0  2  0  0  0  0  0  0  0  0  0
  -29.1849  -22.2507   17.5732 C   0  0  0  0  0  0  0  0  0  0  0  0
  -24.4988  -24.1658   12.0021 C   0  0  0  0  0  0  0  0  0  0  0  0
  -22.0859  -22.8304   18.0242 C   0  0  0  0  0  0  0  0  0  0  0  0
  -23.0413  -22.0012   15.8637 C   0  0  0  0  0  0  0  0  0  0  0  0
  -20.8908  -23.2652   15.8708 C   0  0  0  0  0  0  0  0  0  0  0  0
  -25.5112  -27.6031   13.2813 C   0  0  0  0  0  0  0  0  0  0  0  0
  -30.9367  -27.9293   20.2499 C   0  0  0  0  0  0  0  0  0  0  0  0
  -29.5471  -28.4171   20.6241 C   0  0  0  0  0  0  0  0  0  1  0  0
  -23.0545  -24.4980   16.3075 C   0  0  1  0  0  0  0  0  0  0  0  0
  -24.3982  -25.4032   12.8804 C   0  0  2  0  0  0  0  0  0  0  0  0
  -22.2826  -23.1672   16.5326 C   0  0  0  0  0  0  0  0  0  0  0  0
  -29.0178  -17.8973   21.6627 N   0  0  0  0  0  0  0  0  0  0  0  0
  -30.4500  -25.2100   19.5624 N   0  0  0  0  0  0  0  0  0  0  0  0
  -30.3190  -18.2262   21.5939 N   0  0  0  0  0  0  0  0  0  0  0  0
  -23.1144  -26.3628   17.9331 N   0  0  0  0  0  0  0  0  0  0  0  0
  -30.1496  -21.9672   22.3416 N   0  0  0  0  0  0  0  0  0  0  0  0
  -32.4409  -17.4102   20.9288 N   0  0  0  0  0  0  0  0  0  0  0  0
  -29.6588  -13.9856   19.9653 N   0  0  0  0  0  0  0  0  0  0  0  0
  -29.9571  -22.9908   20.2256 N   0  0  0  0  0  0  0  0  0  0  0  0
  -30.9387  -27.4048   18.9034 N   0  0  0  0  0  0  0  0  0  0  0  0
  -21.2868  -27.5334   20.8633 N   0  0  0  0  0  0  0  0  0  0  0  0
  -23.2317  -24.8559   14.9043 N   0  0  0  0  0  0  0  0  0  0  0  0
  -25.5028  -26.3329   12.5109 N   0  3  0  0  0  0  0  0  0  0  0  0
  -31.8450  -14.6766   19.9241 O   0  0  0  0  0  0  0  0  0  0  0  0
  -22.2854  -25.5353   20.2055 O   0  0  0  0  0  0  0  0  0  0  0  0
  -21.2285  -25.9801   16.6166 O   0  0  0  0  0  0  0  0  0  0  0  0
  -25.5487  -24.9364   14.9531 O   0  0  0  0  0  0  0  0  0  0  0  0
  -30.6908  -24.1977   22.0659 O   0  0  0  0  0  0  0  0  0  0  0  0
  -24.1491  -13.8883   20.7835 O   0  0  0  0  0  0  0  0  0  0  0  0
  -28.6228  -27.3336   20.5347 O   0  0  0  0  0  0  0  0  0  1  0  0
  -24.0777   -8.6176   22.4018 F   0  0  0  0  0  0  0  0  0  0  0  0
  -22.4896  -13.0559   22.8318 F   0  0  0  0  0  0  0  0  0  0  0  0
  1  2  1  0  0  0  0
  1  5  2  0  0  0  0
  2  6  2  0  0  0  0
  3  8  2  0  0  0  0
  3 16  1  0  0  0  0
  4  9  1  0  0  0  0
  4 16  2  0  0  0  0
  5 18  1  0  0  0  0
  6 20  1  0  0  0  0
  7 10  2  0  0  0  0
  7 19  1  0  0  0  0
  8 24  1  0  0  0  0
  9 24  2  0  0  0  0
 10 25  1  0  0  0  0
 11 12  2  0  0  0  0
 11 26  1  0  0  0  0
 12 27  1  0  0  0  0
 13 21  1  0  0  0  0
 13 23  2  0  0  0  0
 14 22  1  0  0  0  0
 14 25  2  0  0  0  0
 15 27  2  0  0  0  0
 15 28  1  0  0  0  0
 16 29  1  0  0  0  0
 17 29  1  0  0  0  0
 17 32  2  0  0  0  0
 17 33  1  0  0  0  0
 18 20  2  0  0  0  0
 18 38  1  0  0  0  0
 19 22  2  0  0  0  0
 19 39  1  0  0  0  0
 20 50  1  0  0  0  0
 21 30  2  0  0  0  0
 21 49  1  0  0  0  0
 22 40  1  0  0  0  0
 23 31  1  0  0  0  0
 23 53  1  0  0  0  0
 24 81  1  0  0  0  0
 25 82  1  0  0  0  0
 26 28  2  0  0  0  0
 26 81  1  0  0  0  0
 27 83  1  0  0  0  0
 28 84  1  0  0  0  0
 29 64  2  0  0  0  0
 30 65  1  0  0  0  0
 30 72  1  0  0  0  0
 31 65  2  0  0  0  0
 31 71  1  0  0  0  0
 32 66  1  0  0  0  0
 32 69  1  0  0  0  0
 33 70  1  0  0  0  0
 33 76  2  0  0  0  0
 34 51  1  0  0  0  0
 34 73  1  0  0  0  0
 34 77  2  0  0  0  0
 35 61  1  0  0  0  0
 35 67  1  0  0  0  0
 35 78  2  0  0  0  0
 36 62  1  0  0  0  0
 36 74  1  0  0  0  0
 36 79  2  0  0  0  0
 37 68  1  0  0  0  0
 37 71  1  0  0  0  0
 37 80  2  0  0  0  0
 38 41  1  0  0  0  0
 39 51  1  0  0  0  0
 40 67  1  0  0  0  0
 41 45  1  0  0  0  0
 42 46  1  0  0  0  0
 42 47  1  0  0  0  0
 43 44  1  0  0  0  0
 43 49  1  0  0  0  0
 44 49  1  0  0  0  0
 45 50  1  0  0  0  0
 46 52  1  0  0  0  0
 47 68  1  0  0  0  0
 48 52  1  0  0  0  0
 48 68  1  0  0  0  0
 50 73  1  0  0  0  0
 51 67  1  0  0  0  0
 52 66  1  0  0  0  0
 54 62  1  0  0  0  0
 55 63  1  0  0  0  0
 56 63  1  0  0  0  0
 57 63  1  0  0  0  0
 58 75  1  0  0  0  0
 59 60  1  0  0  0  0
 59 72  1  0  0  0  0
 60 82  1  0  0  0  0
 61 63  1  0  0  0  0
 61 74  1  0  0  0  0
 62 75  1  0  0  0  0
 64 66  1  0  0  0  0
M  CHG  1  75   1
M  ISO  4  37 100  60 101  71 100  82 101
M  END
> <Batch ID>
0133

> <Smiles>
CNC(C)C(=O)NC(C(=O)N1Cc2cc([101O:1][101CH2:1]CNc3nc([100NH:0][100C:0](=O)N4CCCC(n5nc(-c6ccc(Oc7ccc(F)cc7F)cc6)c(C(N)=O)c5N)C4)c(C)cc3C3CC3)ccc2CC1C(=O)NC1CCCc2ccccc21)C(C)(C)C

> <Shape>
0.281

> <Color>
0.082

> <Negative vol penalty>
0.000

$$$$

  -OEChem-04052320553D

 92101  0     1  0  0  0  0  0999 V2000
  -22.0494  -32.3379   17.3118 C   0  0  0  0  0  0  0  0  0  0  0  0
  -22.8772  -31.2683   17.6373 C   0  0  0  0  0  0  0  0  0  0  0  0
  -22.9964   -9.9484   19.9066 C   0  0  0  0  0  0  0  0  0  0  0  0
  -24.0307   -9.5413   22.0517 C   0  0  0  0  0  0  0  0  0  0  0  0
  -21.4008  -33.0482   18.3211 C   0  0  0  0  0  0  0  0  0  0  0  0
  -23.0578  -30.9090   18.9725 C   0  0  0  0  0  0  0  0  0  0  0  0
  -22.7773  -25.9042   19.6926 C   0  0  0  0  0  0  0  0  0  0  0  0
  -22.2741   -8.7615   20.0296 C   0  0  0  0  0  0  0  0  0  0  0  0
  -23.3084   -8.3544   22.1748 C   0  0  0  0  0  0  0  0  0  0  0  0
  -23.8954  -25.1473   19.3452 C   0  0  0  0  0  0  0  0  0  0  0  0
  -20.1682   -7.4269   23.0110 C   0  0  0  0  0  0  0  0  0  0  0  0
  -19.5595   -7.1647   24.2383 C   0  0  0  0  0  0  0  0  0  0  0  0
  -24.5567  -25.0711   21.6639 C   0  0  0  0  0  0  0  0  0  0  0  0
  -29.6008  -21.3232   18.1188 C   0  0  0  0  0  0  0  0  0  0  0  0
  -28.3214  -23.3172   17.6455 C   0  0  0  0  0  0  0  0  0  0  0  0
  -20.8570   -5.1375   24.4488 C   0  0  0  0  0  0  0  0  0  0  0  0
  -23.8748  -10.3383   20.9176 C   0  0  0  0  0  0  0  0  0  0  0  0
  -24.2313  -12.8458   21.2225 C   0  0  0  0  0  0  0  0  0  0  0  0
  -21.5659  -32.6914   19.6687 C   0  0  0  0  0  0  0  0  0  0  0  0
  -22.5460  -26.2601   21.0291 C   0  0  0  0  0  0  0  0  0  0  0  0
  -22.4119  -31.6160   20.0009 C   0  0  0  0  0  0  0  0  0  0  0  0
  -23.4336  -25.8304   22.0259 C   0  0  0  0  0  0  0  0  0  0  0  0
  -29.4791  -22.5570   17.4796 C   0  0  0  0  0  0  0  0  0  0  0  0
  -28.5648  -20.8495   18.9238 C   0  0  0  0  0  0  0  0  0  0  0  0
  -27.2854  -22.8435   18.4505 C   0  0  0  0  0  0  0  0  0  0  0  0
  -27.4071  -21.6097   19.0897 C   0  0  0  0  0  0  0  0  0  0  0  0
  -22.4301   -7.9645   21.1637 C   0  0  0  0  0  0  0  0  0  0  0  0
  -24.7869  -24.7330   20.3305 C   0  0  0  0  0  0  0  0  0  0  0  0
  -21.1212   -6.5443   22.5025 C   0  0  0  0  0  0  0  0  0  0  0  0
  -19.9039   -6.0201   24.9572 C   0  0  0  0  0  0  0  0  0  0  0  0
  -21.4656   -5.3997   23.2214 C   0  0  0  0  0  0  0  0  0  0  0  0
  -24.6216  -11.5639   20.7908 C   0  0  0  0  0  0  0  0  0  0  0  0
  -25.2803  -13.6602   20.8722 C   0  0  0  0  0  0  0  0  0  0  0  0
  -23.0281  -13.2629   21.8814 C   0  0  0  0  0  0  0  0  0  0  0  0
  -22.3422  -29.0067   22.6161 C   0  0  0  0  0  0  0  0  0  0  0  0
  -21.4895  -27.0724   25.0766 C   0  0  0  0  0  0  0  0  0  0  0  0
  -21.5855  -23.9667   26.4879 C   0  0  0  0  0  0  0  0  0  0  0  0
  -30.7584  -14.6826   20.5719 C   0  0  0  0  0  0  0  0  0  0  0  0
  -20.8814  -33.5187   20.7278 C   0  0  0  0  0  0  0  0  0  0  0  0
  -21.3209  -27.0543   21.3908 C   0  0  0  0  0  0  0  0  0  0  0  0
  -23.2195  -26.1687   23.4779 C   0  0  0  0  0  0  0  0  0  0  0  0
  -20.8304  -32.8385   22.0935 C   0  0  0  0  0  0  0  0  0  0  0  0
  -29.3077  -12.7662   17.9452 C   0  0  0  0  0  0  0  0  0  0  0  0
  -22.1929  -32.2519   22.4490 C   0  0  0  0  0  0  0  0  0  0  0  0
  -27.9303  -12.3834   18.4895 C   0  0  0  0  0  0  0  0  0  0  0  0
  -30.7658  -16.7281   23.6703 C   0  0  0  0  0  0  0  0  0  0  0  0
  -29.3592  -17.2205   24.0005 C   0  0  0  0  0  0  0  0  0  0  0  0
  -30.6332  -17.8504   21.4102 C   0  0  0  0  0  0  0  0  0  0  0  0
  -30.3674  -12.7717   19.0448 C   0  0  0  0  0  0  0  0  0  0  0  0
  -28.6586  -13.2162   20.7643 C   0  0  0  0  0  0  0  0  0  0  0  0
  -22.6135  -31.1803   21.4360 C   0  0  1  0  0  0  0  0  0  0  0  0
  -21.4592  -27.7951   22.7173 C   0  0  1  0  0  0  0  0  0  0  0  0
  -27.5458  -13.2512   19.7028 C   0  0  2  0  0  0  0  0  0  0  0  0
  -31.0016  -16.5690   22.1649 C   0  0  2  0  0  0  0  0  0  0  0  0
  -29.2176  -18.3279   21.7384 C   0  0  1  0  0  0  0  0  0  0  0  0
  -29.0035  -18.5026   23.2447 C   0  0  1  0  0  0  0  0  0  0  0  0
  -30.5864  -23.0631   16.6184 C   0  0  0  0  0  0  0  0  0  0  0  0
  -26.2967  -21.1018   19.9532 C   0  0  0  0  0  0  0  0  0  0  0  0
  -20.8307  -22.7021   28.5198 C   0  0  0  0  0  0  0  0  0  0  0  0
  -27.5892  -21.0458   24.3503 C   0  0  0  0  0  0  0  0  0  0  0  0
  -26.1871  -19.2252   25.3853 C   0  0  0  0  0  0  0  0  0  0  0  0
  -23.6970  -28.3945   26.7165 C   0  0  0  0  0  0  0  0  0  0  0  0
  -23.5327  -26.4953   28.3395 C   0  0  0  0  0  0  0  0  0  0  0  0
  -21.5694  -27.9883   27.9667 C   0  0  0  0  0  0  0  0  0  0  0  0
  -19.9590  -22.1011   24.8653 C   0  0  0  0  0  0  0  0  0  0  0  0
  -28.7206  -19.5256   19.5981 C   0  0  0  0  0  0  0  0  0  0  0  0
  -26.0506  -23.6805   18.6127 C   0  0  0  0  0  0  0  0  0  1  0  0
  -22.2325  -26.3402   26.1678 C   0  0  1  0  0  0  0  0  0  0  0  0
  -20.4947  -23.1002   27.0910 C   0  0  2  0  0  0  0  0  0  0  0  0
  -27.5041  -19.5695   24.7064 C   0  0  0  0  0  0  0  0  0  0  0  0
  -22.7633  -27.2997   27.2701 C   0  0  0  0  0  0  0  0  0  0  0  0
  -25.8246  -11.5594   20.2105 N   0  0  0  0  0  0  0  0  0  0  0  0
  -26.1992  -12.8484   20.2749 N   0  0  0  0  0  0  0  0  0  0  0  0
  -22.0106  -26.9526   23.7804 N   0  0  0  0  0  0  0  0  0  0  0  0
  -29.9422  -13.6142   20.1652 N   0  0  0  0  0  0  0  0  0  0  0  0
  -25.4970  -14.9845   21.0198 N   0  0  0  0  0  0  0  0  0  0  0  0
  -22.0536  -12.2971   22.1672 N   0  0  0  0  0  0  0  0  0  0  0  0
  -21.9129  -29.9401   21.6920 N   0  0  0  0  0  0  0  0  0  0  0  0
  -21.3242  -25.3097   26.6593 N   0  0  0  0  0  0  0  0  0  0  0  0
  -30.2784  -15.4347   21.6371 N   0  0  0  0  0  0  0  0  0  0  0  0
  -29.0014  -19.6367   21.0552 N   0  3  0  0  0  0  0  0  0  0  0  0
  -20.3158  -21.8583   26.2868 N   0  3  0  0  0  0  0  0  0  0  0  0
  -22.8162  -14.4596   22.1922 O   0  0  0  0  0  0  0  0  0  0  0  0
  -23.3384  -29.0892   23.3249 O   0  0  0  0  0  0  0  0  0  0  0  0
  -20.4799  -27.7209   25.3625 O   0  0  0  0  0  0  0  0  0  0  0  0
  -22.5727  -23.4989   25.9246 O   0  0  0  0  0  0  0  0  0  0  0  0
  -31.8326  -14.9499   20.0226 O   0  0  0  0  0  0  0  0  0  0  0  0
  -21.7252   -6.8064   21.2842 O   0  0  0  0  0  0  0  0  0  0  0  0
  -25.8794  -23.9947   19.9941 O   0  0  0  0  0  0  0  0  0  1  0  0
  -27.6368  -18.7951   23.5238 O   0  0  0  0  0  0  0  0  0  0  0  0
  -19.3204   -5.7693   26.1366 F   0  0  0  0  0  0  0  0  0  0  0  0
  -22.3814   -4.5487   22.7386 F   0  0  0  0  0  0  0  0  0  0  0  0
  1  2  1  0  0  0  0
  1  5  2  0  0  0  0
  2  6  2  0  0  0  0
  3  8  2  0  0  0  0
  3 17  1  0  0  0  0
  4  9  1  0  0  0  0
  4 17  2  0  0  0  0
  5 19  1  0  0  0  0
  6 21  1  0  0  0  0
  7 10  2  0  0  0  0
  7 20  1  0  0  0  0
  8 27  1  0  0  0  0
  9 27  2  0  0  0  0
 10 28  1  0  0  0  0
 11 12  2  0  0  0  0
 11 29  1  0  0  0  0
 12 30  1  0  0  0  0
 13 22  1  0  0  0  0
 13 28  2  0  0  0  0
 14 23  1  0  0  0  0
 14 24  2  0  0  0  0
 15 23  2  0  0  0  0
 15 25  1  0  0  0  0
 16 30  2  0  0  0  0
 16 31  1  0  0  0  0
 17 32  1  0  0  0  0
 18 32  1  0  0  0  0
 18 33  2  0  0  0  0
 18 34  1  0  0  0  0
 19 21  2  0  0  0  0
 19 39  1  0  0  0  0
 20 22  2  0  0  0  0
 20 40  1  0  0  0  0
 21 51  1  0  0  0  0
 22 41  1  0  0  0  0
 23 57  1  0  0  0  0
 24 26  1  0  0  0  0
 24 66  1  0  0  0  0
 25 26  2  0  0  0  0
 25 67  1  0  0  0  0
 26 58  1  0  0  0  0
 27 88  1  0  0  0  0
 28 89  1  0  0  0  0
 29 31  2  0  0  0  0
 29 88  1  0  0  0  0
 30 91  1  0  0  0  0
 31 92  1  0  0  0  0
 32 72  2  0  0  0  0
 33 73  1  0  0  0  0
 33 76  1  0  0  0  0
 34 77  1  0  0  0  0
 34 83  2  0  0  0  0
 35 52  1  0  0  0  0
 35 78  1  0  0  0  0
 35 84  2  0  0  0  0
 36 68  1  0  0  0  0
 36 74  1  0  0  0  0
 36 85  2  0  0  0  0
 37 69  1  0  0  0  0
 37 79  1  0  0  0  0
 37 86  2  0  0  0  0
 38 75  1  0  0  0  0
 38 80  1  0  0  0  0
 38 87  2  0  0  0  0
 39 42  1  0  0  0  0
 40 52  1  0  0  0  0
 41 74  1  0  0  0  0
 42 44  1  0  0  0  0
 43 45  1  0  0  0  0
 43 49  1  0  0  0  0
 44 51  1  0  0  0  0
 45 53  1  0  0  0  0
 46 47  1  0  0  0  0
 46 54  1  0  0  0  0
 47 56  1  0  0  0  0
 48 54  1  0  0  0  0
 48 55  1  0  0  0  0
 49 75  1  0  0  0  0
 50 53  1  0  0  0  0
 50 75  1  0  0  0  0
 51 78  1  0  0  0  0
 52 74  1  0  0  0  0
 53 73  1  0  0  0  0
 54 80  1  0  0  0  0
 55 56  1  0  0  0  0
 55 81  1  0  0  0  0
 56 90  1  0  0  0  0
 59 69  1  0  0  0  0
 60 70  1  0  0  0  0
 61 70  1  0  0  0  0
 62 71  1  0  0  0  0
 63 71  1  0  0  0  0
 64 71  1  0  0  0  0
 65 82  1  0  0  0  0
 66 81  1  0  0  0  0
 67 89  1  0  0  0  0
 68 71  1  0  0  0  0
 68 79  1  0  0  0  0
 69 82  1  0  0  0  0
 70 90  1  0  0  0  0
 72 73  1  0  0  0  0
M  CHG  2  81   1  82   1
M  ISO  4  38 100  67 101  80 100  89 101
M  END
> <Batch ID>
0133

> <Smiles>
CNC(C)C(=O)NC(C(=O)N1Cc2cc([101O:1][101CH2:1]c3cc(C)cc(CNC4CC([100NH:0][100C:0](=O)N5CCCC(n6nc(-c7ccc(Oc8ccc(F)cc8F)cc7)c(C(N)=O)c6N)C5)CCC4OC(C)C)c3C)ccc2CC1C(=O)NC1CCCc2ccccc21)C(C)(C)C

> <Shape>
0.270

> <Color>
0.182

> <Negative vol penalty>
0.000

$$$$

  -OEChem-04052320553D

 83 91  0     1  0  0  0  0  0999 V2000
  -26.6286  -36.8664   24.0643 C   0  0  0  0  0  0  0  0  0  0  0  0
  -27.2806  -35.7592   23.5309 C   0  0  0  0  0  0  0  0  0  0  0  0
  -24.5021  -13.9931   20.6180 C   0  0  0  0  0  0  0  0  0  0  0  0
  -26.8716  -13.5228   20.6563 C   0  0  0  0  0  0  0  0  0  0  0  0
  -25.4244  -36.7025   24.7476 C   0  0  0  0  0  0  0  0  0  0  0  0
  -26.7292  -34.4873   23.6816 C   0  0  0  0  0  0  0  0  0  0  0  0
  -26.9797  -29.8673   19.6693 C   0  0  0  0  0  0  0  0  0  0  0  0
  -24.2406  -12.6527   20.3345 C   0  0  0  0  0  0  0  0  0  0  0  0
  -26.6101  -12.1823   20.3729 C   0  0  0  0  0  0  0  0  0  0  0  0
  -27.8038  -28.7463   19.5798 C   0  0  0  0  0  0  0  0  0  0  0  0
  -24.0902   -9.7314   22.0305 C   0  0  0  0  0  0  0  0  0  0  0  0
  -23.0657   -9.1063   22.7414 C   0  0  0  0  0  0  0  0  0  0  0  0
  -26.1281  -27.4316   20.7125 C   0  0  0  0  0  0  0  0  0  0  0  0
  -21.9039   -8.6563   20.6714 C   0  0  0  0  0  0  0  0  0  0  0  0
  -25.8176  -14.4282   20.7789 C   0  0  0  0  0  0  0  0  0  0  0  0
  -25.6446  -16.5490   22.1861 C   0  0  0  0  0  0  0  0  0  0  0  0
  -24.8531  -35.4291   24.8984 C   0  0  0  0  0  0  0  0  0  0  0  0
  -25.7261  -29.7813   20.2918 C   0  0  0  0  0  0  0  0  0  0  0  0
  -25.5169  -34.3061   24.3688 C   0  0  0  0  0  0  0  0  0  0  0  0
  -25.2890  -28.5523   20.8063 C   0  0  0  0  0  0  0  0  0  0  0  0
  -25.2946  -11.7473   20.2120 C   0  0  0  0  0  0  0  0  0  0  0  0
  -27.3793  -27.5289   20.1041 C   0  0  0  0  0  0  0  0  0  0  0  0
  -24.0215   -9.8190   20.6400 C   0  0  0  0  0  0  0  0  0  0  0  0
  -21.9726   -8.5688   22.0619 C   0  0  0  0  0  0  0  0  0  0  0  0
  -22.9284   -9.2814   19.9605 C   0  0  0  0  0  0  0  0  0  0  0  0
  -26.0884  -15.8129   21.0711 C   0  0  0  0  0  0  0  0  0  0  0  0
  -26.1676  -17.8051   21.9986 C   0  0  0  0  0  0  0  0  0  0  0  0
  -24.8322  -16.1343   23.2924 C   0  0  0  0  0  0  0  0  0  0  0  0
  -24.3850  -31.1422   22.8320 C   0  0  0  0  0  0  0  0  0  0  0  0
  -21.7387  -29.5876   21.7819 C   0  0  0  0  0  0  0  0  0  0  0  0
  -20.6247  -27.5010   19.7046 C   0  0  0  0  0  0  0  0  0  0  0  0
  -30.9335  -19.6834   19.0637 C   0  0  0  0  0  0  0  0  0  0  0  0
  -23.5738  -35.2961   25.6860 C   0  0  0  0  0  0  0  0  0  0  0  0
  -24.8378  -30.9934   20.3564 C   0  0  0  0  0  0  0  0  0  0  0  0
  -23.9435  -28.4025   21.4663 C   0  0  0  0  0  0  0  0  0  0  0  0
  -22.8663  -33.9596   25.4774 C   0  0  0  0  0  0  0  0  0  0  0  0
  -31.9693  -26.3358   22.9800 C   0  0  0  0  0  0  0  0  0  0  0  0
  -27.5360  -20.8133   18.5366 C   0  0  0  0  0  0  0  0  0  0  0  0
  -23.8613  -32.8077   25.5769 C   0  0  0  0  0  0  0  0  0  0  0  0
  -26.7375  -19.7152   19.2414 C   0  0  0  0  0  0  0  0  0  0  0  0
  -30.4473  -26.2906   23.0952 C   0  0  0  0  0  0  0  0  0  0  0  0
  -32.4201  -26.6000   21.5453 C   0  0  0  0  0  0  0  0  0  0  0  0
  -28.7555  -20.2381   17.8223 C   0  0  0  0  0  0  0  0  0  0  0  0
  -28.8713  -18.3513   19.4035 C   0  0  0  0  0  0  0  0  0  0  0  0
  -24.9379  -32.9132   24.4900 C   0  0  1  0  0  0  0  0  0  0  0  0
  -23.7967  -30.9126   21.4686 C   0  0  1  0  0  0  0  0  0  0  0  0
  -30.2926  -25.4523   20.6699 C   0  0  2  0  0  0  0  0  0  0  0  0
  -27.6378  -18.8718   20.1635 C   0  0  2  0  0  0  0  0  0  0  0  0
  -29.7929  -25.3056   22.1238 C   0  0  1  0  0  0  0  0  0  0  0  0
  -31.8210  -25.6240   20.5300 C   0  0  2  0  0  0  0  0  0  0  0  0
  -19.3618  -25.9121   18.2289 C   0  0  0  0  0  0  0  0  0  0  0  0
  -21.4916  -28.3823   24.5741 C   0  0  0  0  0  0  0  0  0  0  0  0
  -19.9156  -26.6839   23.6256 C   0  0  0  0  0  0  0  0  0  0  0  0
  -19.3256  -29.1066   23.5551 C   0  0  0  0  0  0  0  0  0  0  0  0
  -19.7538  -29.6826   17.9043 C   0  0  0  0  0  0  0  0  0  0  0  0
  -29.5910  -26.6589   20.0181 C   0  0  0  0  0  0  0  0  0  1  0  0
  -33.0913  -22.1093   19.7553 C   0  0  0  0  0  0  0  0  0  0  0  0
  -32.9178  -21.1057   18.6204 C   0  0  0  0  0  0  0  0  0  0  0  0
  -32.3263  -23.4025   19.5043 C   0  0  0  0  0  0  0  0  0  0  0  0
  -21.1329  -28.2259   22.0221 C   0  0  1  0  0  0  0  0  0  0  0  0
  -19.4699  -27.3432   18.7319 C   0  0  2  0  0  0  0  0  0  0  0  0
  -20.4926  -28.1026   23.4336 C   0  0  0  0  0  0  0  0  0  0  0  0
  -26.8357  -16.5408   20.2370 N   0  0  0  0  0  0  0  0  0  0  0  0
  -26.8654  -17.7474   20.8281 N   0  0  0  0  0  0  0  0  0  0  0  0
  -23.1139  -29.6180   21.5107 N   0  0  0  0  0  0  0  0  0  0  0  0
  -29.5800  -19.4623   18.7595 N   0  0  0  0  0  0  0  0  0  0  0  0
  -26.0940  -18.9422   22.7223 N   0  0  0  0  0  0  0  0  0  0  0  0
  -23.4412  -16.2700   23.1877 N   0  0  0  0  0  0  0  0  0  0  0  0
  -24.4148  -32.4694   23.2157 N   0  0  0  0  0  0  0  0  0  0  0  0
  -20.2035  -27.9928   20.9219 N   0  0  0  0  0  0  0  0  0  0  0  0
  -31.5325  -20.7508   18.4061 N   0  0  0  0  0  0  0  0  0  0  0  0
  -30.0306  -23.9168   22.6150 N   0  3  0  0  0  0  0  0  0  0  0  0
  -32.5047  -24.3052   20.6702 N   0  3  0  0  0  0  0  0  0  0  0  0
  -19.6555  -28.2414   17.5574 N   0  3  0  0  0  0  0  0  0  0  0  0
  -25.3263  -15.6728   24.3490 O   0  0  0  0  0  0  0  0  0  0  0  0
  -24.7810  -30.1860   23.4880 O   0  0  0  0  0  0  0  0  0  0  0  0
  -21.0168  -30.5870   21.8262 O   0  0  0  0  0  0  0  0  0  0  0  0
  -21.7838  -27.2131   19.4148 O   0  0  0  0  0  0  0  0  0  0  0  0
  -31.5609  -18.9843   19.8667 O   0  0  0  0  0  0  0  0  0  0  0  0
  -25.0398  -10.4391   19.9356 O   0  0  0  0  0  0  0  0  0  0  0  0
  -28.1819  -26.4333   20.0187 O   0  0  0  0  0  0  0  0  0  1  0  0
  -20.9896   -7.9672   22.7445 F   0  0  0  0  0  0  0  0  0  0  0  0
  -22.8574   -9.3615   18.6247 F   0  0  0  0  0  0  0  0  0  0  0  0
  1  2  1  0  0  0  0
  1  5  2  0  0  0  0
  2  6  2  0  0  0  0
  3  8  2  0  0  0  0
  3 15  1  0  0  0  0
  4  9  1  0  0  0  0
  4 15  2  0  0  0  0
  5 17  1  0  0  0  0
  6 19  1  0  0  0  0
  7 10  2  0  0  0  0
  7 18  1  0  0  0  0
  8 21  1  0  0  0  0
  9 21  2  0  0  0  0
 10 22  1  0  0  0  0
 11 12  2  0  0  0  0
 11 23  1  0  0  0  0
 12 24  1  0  0  0  0
 13 20  1  0  0  0  0
 13 22  2  0  0  0  0
 14 24  2  0  0  0  0
 14 25  1  0  0  0  0
 15 26  1  0  0  0  0
 16 26  1  0  0  0  0
 16 27  2  0  0  0  0
 16 28  1  0  0  0  0
 17 19  2  0  0  0  0
 17 33  1  0  0  0  0
 18 20  2  0  0  0  0
 18 34  1  0  0  0  0
 19 45  1  0  0  0  0
 20 35  1  0  0  0  0
 21 80  1  0  0  0  0
 22 81  1  0  0  0  0
 23 25  2  0  0  0  0
 23 80  1  0  0  0  0
 24 82  1  0  0  0  0
 25 83  1  0  0  0  0
 26 63  2  0  0  0  0
 27 64  1  0  0  0  0
 27 67  1  0  0  0  0
 28 68  1  0  0  0  0
 28 75  2  0  0  0  0
 29 46  1  0  0  0  0
 29 69  1  0  0  0  0
 29 76  2  0  0  0  0
 30 60  1  0  0  0  0
 30 65  1  0  0  0  0
 30 77  2  0  0  0  0
 31 61  1  0  0  0  0
 31 70  1  0  0  0  0
 31 78  2  0  0  0  0
 32 66  1  0  0  0  0
 32 71  1  0  0  0  0
 32 79  2  0  0  0  0
 33 36  1  0  0  0  0
 34 46  1  0  0  0  0
 35 65  1  0  0  0  0
 36 39  1  0  0  0  0
 37 41  1  0  0  0  0
 37 42  1  0  0  0  0
 38 40  1  0  0  0  0
 38 43  1  0  0  0  0
 39 45  1  0  0  0  0
 40 48  1  0  0  0  0
 41 49  1  0  0  0  0
 42 50  1  0  0  0  0
 43 66  1  0  0  0  0
 44 48  1  0  0  0  0
 44 66  1  0  0  0  0
 45 69  1  0  0  0  0
 46 65  1  0  0  0  0
 47 49  1  0  0  0  0
 47 50  1  0  0  0  0
 47 56  1  0  0  0  0
 48 64  1  0  0  0  0
 49 72  1  0  0  0  0
 50 73  1  0  0  0  0
 51 61  1  0  0  0  0
 52 62  1  0  0  0  0
 53 62  1  0  0  0  0
 54 62  1  0  0  0  0
 55 74  1  0  0  0  0
 56 81  1  0  0  0  0
 57 58  1  0  0  0  0
 57 59  1  0  0  0  0
 58 71  1  0  0  0  0
 59 73  1  0  0  0  0
 60 62  1  0  0  0  0
 60 70  1  0  0  0  0
 61 74  1  0  0  0  0
 63 64  1  0  0  0  0
M  CHG  3  72   1  73   1  74   1
M  ISO  4  32 100  56 101  71 100  81 101
M  END
> <Batch ID>
0133

> <Smiles>
CNC(C)C(=O)NC(C(=O)N1Cc2cc([101O:1][101CH2:1]C3C(N)CCCC3NCCC[100NH:0][100C:0](=O)N3CCCC(n4nc(-c5ccc(Oc6ccc(F)cc6F)cc5)c(C(N)=O)c4N)C3)ccc2CC1C(=O)NC1CCCc2ccccc21)C(C)(C)C

> <Shape>
0.293

> <Color>
0.077

> <Negative vol penalty>
0.000

$$$$

  -OEChem-04052320553D

 84 92  0     1  0  0  0  0  0999 V2000
  -26.7503  -31.8397   12.0994 C   0  0  0  0  0  0  0  0  0  0  0  0
  -26.8171  -30.5776   12.6809 C   0  0  0  0  0  0  0  0  0  0  0  0
  -22.9710  -10.0177   19.8906 C   0  0  0  0  0  0  0  0  0  0  0  0
  -23.9620   -9.6124   22.0564 C   0  0  0  0  0  0  0  0  0  0  0  0
  -27.1769  -32.9585   12.8137 C   0  0  0  0  0  0  0  0  0  0  0  0
  -27.3116  -30.4335   13.9768 C   0  0  0  0  0  0  0  0  0  0  0  0
  -25.4573  -26.4021   18.1976 C   0  0  0  0  0  0  0  0  0  0  0  0
  -28.9115  -21.2805   19.7887 C   0  0  0  0  0  0  0  0  0  0  0  0
  -29.4908  -20.1459   20.3567 C   0  0  0  0  0  0  0  0  0  0  0  0
  -22.2261   -8.8447   20.0119 C   0  0  0  0  0  0  0  0  0  0  0  0
  -23.2171   -8.4394   22.1777 C   0  0  0  0  0  0  0  0  0  0  0  0
  -25.9666  -25.1700   18.6055 C   0  0  0  0  0  0  0  0  0  0  0  0
  -20.0476   -7.5740   22.9690 C   0  0  0  0  0  0  0  0  0  0  0  0
  -19.4140   -7.3337   24.1881 C   0  0  0  0  0  0  0  0  0  0  0  0
  -27.1294  -26.2575   20.4178 C   0  0  0  0  0  0  0  0  0  0  0  0
  -26.7683  -20.6450   20.7050 C   0  0  0  0  0  0  0  0  0  0  0  0
  -20.6722   -5.2864   24.4384 C   0  0  0  0  0  0  0  0  0  0  0  0
  -23.8390  -10.4016   20.9128 C   0  0  0  0  0  0  0  0  0  0  0  0
  -24.2341  -12.9052   21.2015 C   0  0  0  0  0  0  0  0  0  0  0  0
  -27.6678  -32.8292   14.1225 C   0  0  0  0  0  0  0  0  0  0  0  0
  -25.7896  -27.5746   18.8914 C   0  0  0  0  0  0  0  0  0  0  0  0
  -27.7464  -31.5515   14.7087 C   0  0  0  0  0  0  0  0  0  0  0  0
  -26.6209  -27.5029   20.0182 C   0  0  0  0  0  0  0  0  0  0  0  0
  -27.5502  -21.5301   19.9628 C   0  0  0  0  0  0  0  0  0  0  0  0
  -27.3476  -19.5103   21.2730 C   0  0  0  0  0  0  0  0  0  0  0  0
  -28.7089  -19.2608   21.0988 C   0  0  0  0  0  0  0  0  0  0  0  0
  -22.3492   -8.0555   21.1555 C   0  0  0  0  0  0  0  0  0  0  0  0
  -26.8051  -25.0980   19.7140 C   0  0  0  0  0  0  0  0  0  0  0  0
  -20.9935   -6.6705   22.4845 C   0  0  0  0  0  0  0  0  0  0  0  0
  -19.7263   -6.1899   24.9228 C   0  0  0  0  0  0  0  0  0  0  0  0
  -21.3058   -5.5267   23.2192 C   0  0  0  0  0  0  0  0  0  0  0  0
  -24.6091  -11.6129   20.7878 C   0  0  0  0  0  0  0  0  0  0  0  0
  -25.3029  -13.6982   20.8618 C   0  0  0  0  0  0  0  0  0  0  0  0
  -23.0275  -13.3491   21.8362 C   0  0  0  0  0  0  0  0  0  0  0  0
  -27.2983  -30.2711   18.1457 C   0  0  0  0  0  0  0  0  0  0  0  0
  -26.3737  -31.1551   21.1266 C   0  0  0  0  0  0  0  0  0  0  0  0
  -25.4340  -30.2096   24.2682 C   0  0  0  0  0  0  0  0  0  0  0  0
  -30.8023  -14.6228   20.6450 C   0  0  0  0  0  0  0  0  0  0  0  0
  -28.1615  -34.0619   14.8377 C   0  0  0  0  0  0  0  0  0  0  0  0
  -25.2104  -28.8922   18.4546 C   0  0  0  0  0  0  0  0  0  0  0  0
  -26.9916  -28.7296   20.8095 C   0  0  0  0  0  0  0  0  0  0  0  0
  -28.3226  -33.8689   16.3434 C   0  0  0  0  0  0  0  0  0  0  0  0
  -29.3625  -12.7078   18.0113 C   0  0  0  0  0  0  0  0  0  0  0  0
  -29.0500  -32.5612   16.6392 C   0  0  0  0  0  0  0  0  0  0  0  0
  -27.9697  -12.3539   18.5356 C   0  0  0  0  0  0  0  0  0  0  0  0
  -30.4035  -12.7050   19.1285 C   0  0  0  0  0  0  0  0  0  0  0  0
  -28.6743  -13.1947   20.8149 C   0  0  0  0  0  0  0  0  0  0  0  0
  -28.2535  -31.3575   16.1213 C   0  0  1  0  0  0  0  0  0  0  0  0
  -26.0280  -30.0903   18.9275 C   0  0  1  0  0  0  0  0  0  0  0  0
  -27.5802  -13.2393   19.7345 C   0  0  2  0  0  0  0  0  0  0  0  0
  -24.7783  -31.1576   26.4973 C   0  0  0  0  0  0  0  0  0  0  0  0
  -29.2953  -31.8236   21.6990 C   0  0  0  0  0  0  0  0  0  0  0  0
  -28.7402  -31.8423   24.1402 C   0  0  0  0  0  0  0  0  0  0  0  0
  -27.6505  -33.4766   22.6026 C   0  0  0  0  0  0  0  0  0  0  0  0
  -22.7631  -28.9399   24.1527 C   0  0  0  0  0  0  0  0  0  0  0  0
  -26.9275  -22.7507   19.3516 C   0  0  0  0  0  0  0  0  0  1  0  0
  -30.7021  -17.8190   21.5160 C   0  0  0  0  0  0  0  0  0  0  0  0
  -31.0521  -16.5199   22.2255 C   0  0  0  0  0  0  0  0  0  0  0  0
  -26.4867  -18.5791   22.0631 C   0  0  0  0  0  0  0  0  0  0  0  0
  -26.9711  -31.0432   22.5085 C   0  0  1  0  0  0  0  0  0  0  0  0
  -24.2816  -30.6533   25.1513 C   0  0  2  0  0  0  0  0  0  0  0  0
  -28.1590  -32.0234   22.7217 C   0  0  0  0  0  0  0  0  0  0  0  0
  -25.8214  -11.5823   20.2279 N   0  0  0  0  0  0  0  0  0  0  0  0
  -26.2173  -12.8652   20.2873 N   0  0  0  0  0  0  0  0  0  0  0  0
  -26.4052  -29.9955   20.3392 N   0  0  0  0  0  0  0  0  0  0  0  0
  -29.9745  -13.5650   20.2341 N   0  0  0  0  0  0  0  0  0  0  0  0
  -25.5402  -15.0198   21.0013 N   0  0  0  0  0  0  0  0  0  0  0  0
  -22.0316  -12.4030   22.1140 N   0  0  0  0  0  0  0  0  0  0  0  0
  -29.3125  -18.1173   21.6665 N   0  0  0  0  0  0  0  0  0  0  0  0
  -27.1571  -31.0541   17.0159 N   0  0  0  0  0  0  0  0  0  0  0  0
  -25.8686  -31.2276   23.4460 N   0  0  0  0  0  0  0  0  0  0  0  0
  -30.3177  -15.3928   21.6953 N   0  0  0  0  0  0  0  0  0  0  0  0
  -23.3458  -29.5184   25.3908 N   0  3  0  0  0  0  0  0  0  0  0  0
  -22.8314  -14.5521   22.1329 O   0  0  0  0  0  0  0  0  0  0  0  0
  -28.3306  -29.7407   18.5392 O   0  0  0  0  0  0  0  0  0  0  0  0
  -25.8903  -32.2298   20.7620 O   0  0  0  0  0  0  0  0  0  0  0  0
  -25.9041  -29.0747   24.3068 O   0  0  0  0  0  0  0  0  0  0  0  0
  -31.8900  -14.8665   20.1117 O   0  0  0  0  0  0  0  0  0  0  0  0
  -21.6223   -6.9109   21.2743 O   0  0  0  0  0  0  0  0  0  0  0  0
  -27.3041  -23.8968   20.1139 O   0  0  0  0  0  0  0  0  0  1  0  0
  -19.1189   -5.9600   26.0943 F   0  0  0  0  0  0  0  0  0  0  0  0
  -22.2145   -4.6557   22.7595 F   0  0  0  0  0  0  0  0  0  0  0  0
  -25.2084  -19.0342   22.1160 F   0  0  0  0  0  0  0  0  0  0  0  0
  -26.9216  -18.4957   23.3468 F   0  0  0  0  0  0  0  0  0  0  0  0
  1  2  1  0  0  0  0
  1  5  2  0  0  0  0
  2  6  2  0  0  0  0
  3 10  2  0  0  0  0
  3 18  1  0  0  0  0
  4 11  1  0  0  0  0
  4 18  2  0  0  0  0
  5 20  1  0  0  0  0
  6 22  1  0  0  0  0
  7 12  2  0  0  0  0
  7 21  1  0  0  0  0
  8  9  2  0  0  0  0
  8 24  1  0  0  0  0
  9 26  1  0  0  0  0
 10 27  1  0  0  0  0
 11 27  2  0  0  0  0
 12 28  1  0  0  0  0
 13 14  2  0  0  0  0
 13 29  1  0  0  0  0
 14 30  1  0  0  0  0
 15 23  1  0  0  0  0
 15 28  2  0  0  0  0
 16 24  2  0  0  0  0
 16 25  1  0  0  0  0
 17 30  2  0  0  0  0
 17 31  1  0  0  0  0
 18 32  1  0  0  0  0
 19 32  1  0  0  0  0
 19 33  2  0  0  0  0
 19 34  1  0  0  0  0
 20 22  2  0  0  0  0
 20 39  1  0  0  0  0
 21 23  2  0  0  0  0
 21 40  1  0  0  0  0
 22 48  1  0  0  0  0
 23 41  1  0  0  0  0
 24 56  1  0  0  0  0
 25 26  2  0  0  0  0
 25 59  1  0  0  0  0
 26 69  1  0  0  0  0
 27 79  1  0  0  0  0
 28 80  1  0  0  0  0
 29 31  2  0  0  0  0
 29 79  1  0  0  0  0
 30 81  1  0  0  0  0
 31 82  1  0  0  0  0
 32 63  2  0  0  0  0
 33 64  1  0  0  0  0
 33 67  1  0  0  0  0
 34 68  1  0  0  0  0
 34 74  2  0  0  0  0
 35 49  1  0  0  0  0
 35 70  1  0  0  0  0
 35 75  2  0  0  0  0
 36 60  1  0  0  0  0
 36 65  1  0  0  0  0
 36 76  2  0  0  0  0
 37 61  1  0  0  0  0
 37 71  1  0  0  0  0
 37 77  2  0  0  0  0
 38 66  1  0  0  0  0
 38 72  1  0  0  0  0
 38 78  2  0  0  0  0
 39 42  1  0  0  0  0
 40 49  1  0  0  0  0
 41 65  1  0  0  0  0
 42 44  1  0  0  0  0
 43 45  1  0  0  0  0
 43 46  1  0  0  0  0
 44 48  1  0  0  0  0
 45 50  1  0  0  0  0
 46 66  1  0  0  0  0
 47 50  1  0  0  0  0
 47 66  1  0  0  0  0
 48 70  1  0  0  0  0
 49 65  1  0  0  0  0
 50 64  1  0  0  0  0
 51 61  1  0  0  0  0
 52 62  1  0  0  0  0
 53 62  1  0  0  0  0
 54 62  1  0  0  0  0
 55 73  1  0  0  0  0
 56 80  1  0  0  0  0
 57 58  1  0  0  0  0
 57 69  1  0  0  0  0
 58 72  1  0  0  0  0
 59 83  1  0  0  0  0
 59 84  1  0  0  0  0
 60 62  1  0  0  0  0
 60 71  1  0  0  0  0
 61 73  1  0  0  0  0
 63 64  1  0  0  0  0
M  CHG  1  73   1
M  ISO  4  38 100  56 101  72 100  80 101
M  END
> <Batch ID>
0133

> <Smiles>
CNC(C)C(=O)NC(C(=O)N1Cc2cc([101O:1][101CH2:1]c3ccc(NCC[100NH:0][100C:0](=O)N4CCCC(n5nc(-c6ccc(Oc7ccc(F)cc7F)cc6)c(C(N)=O)c5N)C4)c(C(F)F)c3)ccc2CC1C(=O)NC1CCCc2ccccc21)C(C)(C)C

> <Shape>
0.313

> <Color>
0.184

> <Negative vol penalty>
0.000

$$$$

  -OEChem-04052320553D

 83 91  0     1  0  0  0  0  0999 V2000
  -32.1879  -32.7584   23.2545 C   0  0  0  0  0  0  0  0  0  0  0  0
  -31.7262  -31.7147   22.4589 C   0  0  0  0  0  0  0  0  0  0  0  0
  -24.0781   -9.2759   19.9064 C   0  0  0  0  0  0  0  0  0  0  0  0
  -23.2640  -10.6947   21.6844 C   0  0  0  0  0  0  0  0  0  0  0  0
  -31.4926  -33.1129   24.4098 C   0  0  0  0  0  0  0  0  0  0  0  0
  -30.5694  -31.0243   22.8187 C   0  0  0  0  0  0  0  0  0  0  0  0
  -26.3726  -28.6524   19.0416 C   0  0  0  0  0  0  0  0  0  0  0  0
  -23.1487   -8.2982   20.2610 C   0  0  0  0  0  0  0  0  0  0  0  0
  -22.3345   -9.7170   22.0390 C   0  0  0  0  0  0  0  0  0  0  0  0
  -26.1665  -27.3598   18.5613 C   0  0  0  0  0  0  0  0  0  0  0  0
  -22.8297   -5.9078   22.6293 C   0  0  0  0  0  0  0  0  0  0  0  0
  -23.2741   -4.5875   22.7001 C   0  0  0  0  0  0  0  0  0  0  0  0
  -24.5475  -26.9755   20.3079 C   0  0  0  0  0  0  0  0  0  0  0  0
  -21.6780   -3.9589   20.9988 C   0  0  0  0  0  0  0  0  0  0  0  0
  -24.1358  -10.4742   20.6181 C   0  0  0  0  0  0  0  0  0  0  0  0
  -25.2058  -12.1445   19.0140 C   0  0  0  0  0  0  0  0  0  0  0  0
  -30.3213  -32.4328   24.7788 C   0  0  0  0  0  0  0  0  0  0  0  0
  -25.6745  -29.1133   20.1670 C   0  0  0  0  0  0  0  0  0  0  0  0
  -29.8584  -31.3692   23.9807 C   0  0  0  0  0  0  0  0  0  0  0  0
  -24.7446  -28.2752   20.7988 C   0  0  0  0  0  0  0  0  0  0  0  0
  -22.2769   -8.5187   21.3273 C   0  0  0  0  0  0  0  0  0  0  0  0
  -25.2560  -26.5202   19.1962 C   0  0  0  0  0  0  0  0  0  0  0  0
  -21.8093   -6.2536   21.7432 C   0  0  0  0  0  0  0  0  0  0  0  0
  -22.6983   -3.6131   21.8849 C   0  0  0  0  0  0  0  0  0  0  0  0
  -21.2336   -5.2792   20.9280 C   0  0  0  0  0  0  0  0  0  0  0  0
  -25.0960  -11.4844   20.2526 C   0  0  0  0  0  0  0  0  0  0  0  0
  -26.2658  -13.0029   19.1752 C   0  0  0  0  0  0  0  0  0  0  0  0
  -24.4197  -11.9951   17.8243 C   0  0  0  0  0  0  0  0  0  0  0  0
  -26.5052  -30.1145   23.0672 C   0  0  0  0  0  0  0  0  0  0  0  0
  -23.3428  -30.7934   23.3132 C   0  0  0  0  0  0  0  0  0  0  0  0
  -20.1554  -30.1680   22.2665 C   0  0  0  0  0  0  0  0  0  0  0  0
  -28.7306  -15.5804   23.9848 C   0  0  0  0  0  0  0  0  0  0  0  0
  -29.6300  -32.8211   26.0618 C   0  0  0  0  0  0  0  0  0  0  0  0
  -25.8884  -30.5194   20.6565 C   0  0  0  0  0  0  0  0  0  0  0  0
  -23.9549  -28.7289   21.9984 C   0  0  0  0  0  0  0  0  0  0  0  0
  -28.2052  -32.2845   26.1725 C   0  0  0  0  0  0  0  0  0  0  0  0
  -30.3566  -13.4857   21.6089 C   0  0  0  0  0  0  0  0  0  0  0  0
  -28.1578  -30.8109   25.7813 C   0  0  0  0  0  0  0  0  0  0  0  0
  -29.2027  -12.7948   20.8801 C   0  0  0  0  0  0  0  0  0  0  0  0
  -30.0498  -13.6834   23.0917 C   0  0  0  0  0  0  0  0  0  0  0  0
  -27.6261  -13.6876   22.6454 C   0  0  0  0  0  0  0  0  0  0  0  0
  -25.5943  -18.2278   19.9946 C   0  0  0  0  0  0  0  0  0  0  0  0
  -24.5092  -19.9417   18.6318 C   0  0  0  0  0  0  0  0  0  0  0  0
  -28.5938  -30.6126   24.3245 C   0  0  1  0  0  0  0  0  0  0  0  0
  -25.5012  -30.7080   22.1200 C   0  0  1  0  0  0  0  0  0  0  0  0
  -25.3878  -19.5054   20.7983 C   0  0  2  0  0  0  0  0  0  0  0  0
  -27.8659  -13.5166   21.1355 C   0  0  2  0  0  0  0  0  0  0  0  0
  -25.3807  -20.5753   19.7048 C   0  0  2  0  0  0  0  0  0  0  0  0
  -17.7765  -30.8525   22.6788 C   0  0  0  0  0  0  0  0  0  0  0  0
  -23.3174  -29.1482   25.8828 C   0  0  0  0  0  0  0  0  0  0  0  0
  -20.8198  -29.0707   25.7260 C   0  0  0  0  0  0  0  0  0  0  0  0
  -21.9842  -31.2617   25.9840 C   0  0  0  0  0  0  0  0  0  0  0  0
  -19.8288  -31.1311   19.4871 C   0  0  0  0  0  0  0  0  0  0  0  0
  -26.4555  -19.7061   21.8627 C   0  0  0  0  0  0  0  0  0  0  0  0
  -27.2786  -17.4198   24.8019 C   0  0  0  0  0  0  0  0  0  0  0  0
  -25.1871  -22.9123   19.2053 C   0  0  0  0  0  0  0  0  0  0  0  0
  -27.4295  -18.6254   23.8930 C   0  0  0  0  0  0  0  0  0  0  0  0
  -24.6822  -24.2645   19.6848 C   0  0  0  0  0  0  0  0  0  1  0  0
  -22.1201  -30.0384   23.7756 C   0  0  1  0  0  0  0  0  0  0  0  0
  -19.0298  -31.0991   21.8534 C   0  0  2  0  0  0  0  0  0  0  0  0
  -22.0765  -29.8702   25.3207 C   0  0  0  0  0  0  0  0  0  0  0  0
  -26.0132  -11.8887   21.1354 N   0  0  0  0  0  0  0  0  0  0  0  0
  -26.7095  -12.8120   20.4507 N   0  0  0  0  0  0  0  0  0  0  0  0
  -24.2041  -30.1102   22.4430 N   0  0  0  0  0  0  0  0  0  0  0  0
  -28.7701  -14.3749   23.2649 N   0  0  0  0  0  0  0  0  0  0  0  0
  -26.8524  -13.8948   18.3488 N   0  0  0  0  0  0  0  0  0  0  0  0
  -23.2839  -12.8012   17.6683 N   0  0  0  0  0  0  0  0  0  0  0  0
  -27.5232  -30.9789   23.4222 N   0  0  0  0  0  0  0  0  0  0  0  0
  -20.9704  -30.7429   23.2185 N   0  0  0  0  0  0  0  0  0  0  0  0
  -27.4790  -16.1736   24.0965 N   0  0  0  0  0  0  0  0  0  0  0  0
  -24.8533  -21.8550   20.1491 N   0  0  0  0  0  0  0  0  0  0  0  0
  -24.8485  -18.4785   18.7124 N   0  3  0  0  0  0  0  0  0  0  0  0
  -18.6928  -30.8984   20.4157 N   0  3  0  0  0  0  0  0  0  0  0  0
  -26.3933  -18.5828   22.8228 N   0  3  0  0  0  0  0  0  0  0  0  0
  -24.7067  -11.1597   16.9336 O   0  0  0  0  0  0  0  0  0  0  0  0
  -26.3659  -28.9584   23.4489 O   0  0  0  0  0  0  0  0  0  0  0  0
  -23.5233  -31.9495   23.7039 O   0  0  0  0  0  0  0  0  0  0  0  0
  -20.2952  -29.0417   21.7946 O   0  0  0  0  0  0  0  0  0  0  0  0
  -29.7370  -16.0930   24.4860 O   0  0  0  0  0  0  0  0  0  0  0  0
  -21.3697   -7.5649   21.6735 O   0  0  0  0  0  0  0  0  0  0  0  0
  -25.0535  -25.2579   18.7300 O   0  0  0  0  0  0  0  0  0  1  0  0
  -23.1263   -2.3456   21.9519 F   0  0  0  0  0  0  0  0  0  0  0  0
  -20.2538   -5.6056   20.0740 F   0  0  0  0  0  0  0  0  0  0  0  0
  1  2  1  0  0  0  0
  1  5  2  0  0  0  0
  2  6  2  0  0  0  0
  3  8  2  0  0  0  0
  3 15  1  0  0  0  0
  4  9  1  0  0  0  0
  4 15  2  0  0  0  0
  5 17  1  0  0  0  0
  6 19  1  0  0  0  0
  7 10  2  0  0  0  0
  7 18  1  0  0  0  0
  8 21  1  0  0  0  0
  9 21  2  0  0  0  0
 10 22  1  0  0  0  0
 11 12  2  0  0  0  0
 11 23  1  0  0  0  0
 12 24  1  0  0  0  0
 13 20  1  0  0  0  0
 13 22  2  0  0  0  0
 14 24  2  0  0  0  0
 14 25  1  0  0  0  0
 15 26  1  0  0  0  0
 16 26  1  0  0  0  0
 16 27  2  0  0  0  0
 16 28  1  0  0  0  0
 17 19  2  0  0  0  0
 17 33  1  0  0  0  0
 18 20  2  0  0  0  0
 18 34  1  0  0  0  0
 19 44  1  0  0  0  0
 20 35  1  0  0  0  0
 21 80  1  0  0  0  0
 22 81  1  0  0  0  0
 23 25  2  0  0  0  0
 23 80  1  0  0  0  0
 24 82  1  0  0  0  0
 25 83  1  0  0  0  0
 26 62  2  0  0  0  0
 27 63  1  0  0  0  0
 27 66  1  0  0  0  0
 28 67  1  0  0  0  0
 28 75  2  0  0  0  0
 29 45  1  0  0  0  0
 29 68  1  0  0  0  0
 29 76  2  0  0  0  0
 30 59  1  0  0  0  0
 30 64  1  0  0  0  0
 30 77  2  0  0  0  0
 31 60  1  0  0  0  0
 31 69  1  0  0  0  0
 31 78  2  0  0  0  0
 32 65  1  0  0  0  0
 32 70  1  0  0  0  0
 32 79  2  0  0  0  0
 33 36  1  0  0  0  0
 34 45  1  0  0  0  0
 35 64  1  0  0  0  0
 36 38  1  0  0  0  0
 37 39  1  0  0  0  0
 37 40  1  0  0  0  0
 38 44  1  0  0  0  0
 39 47  1  0  0  0  0
 40 65  1  0  0  0  0
 41 47  1  0  0  0  0
 41 65  1  0  0  0  0
 42 46  1  0  0  0  0
 42 72  1  0  0  0  0
 43 48  1  0  0  0  0
 43 72  1  0  0  0  0
 44 68  1  0  0  0  0
 45 64  1  0  0  0  0
 46 48  1  0  0  0  0
 46 54  1  0  0  0  0
 47 63  1  0  0  0  0
 48 71  1  0  0  0  0
 49 60  1  0  0  0  0
 50 61  1  0  0  0  0
 51 61  1  0  0  0  0
 52 61  1  0  0  0  0
 53 73  1  0  0  0  0
 54 74  1  0  0  0  0
 55 57  1  0  0  0  0
 55 70  1  0  0  0  0
 56 58  1  0  0  0  0
 56 71  1  0  0  0  0
 57 74  1  0  0  0  0
 58 81  1  0  0  0  0
 59 61  1  0  0  0  0
 59 69  1  0  0  0  0
 60 73  1  0  0  0  0
 62 63  1  0  0  0  0
M  CHG  3  72   1  73   1  74   1
M  ISO  4  32 100  58 101  70 100  81 101
M  END
> <Batch ID>
0133

> <Smiles>
CNC(C)C(=O)NC(C(=O)N1Cc2cc([101O:1][101CH2:1]CNC3CNCC3CNCC[100NH:0][100C:0](=O)N3CCCC(n4nc(-c5ccc(Oc6ccc(F)cc6F)cc5)c(C(N)=O)c4N)C3)ccc2CC1C(=O)NC1CCCc2ccccc21)C(C)(C)C

> <Shape>
0.204

> <Color>
0.085

> <Negative vol penalty>
0.000

$$$$

  -OEChem-04052320553D

 85 94  0     1  0  0  0  0  0999 V2000
  -27.8803  -36.7446   25.4834 C   0  0  0  0  0  0  0  0  0  0  0  0
  -28.4829  -35.7772   24.6856 C   0  0  0  0  0  0  0  0  0  0  0  0
  -23.0925  -10.1776   20.5340 C   0  0  0  0  0  0  0  0  0  0  0  0
  -24.7645   -8.6258   21.3299 C   0  0  0  0  0  0  0  0  0  0  0  0
  -26.6781  -36.4628   26.1307 C   0  0  0  0  0  0  0  0  0  0  0  0
  -27.8840  -34.5269   24.5356 C   0  0  0  0  0  0  0  0  0  0  0  0
  -27.0617  -29.2699   19.7393 C   0  0  0  0  0  0  0  0  0  0  0  0
  -27.6966  -18.8156   20.0109 C   0  0  0  0  0  0  0  0  0  0  0  0
  -22.1872   -9.6841   21.4734 C   0  0  0  0  0  0  0  0  0  0  0  0
  -23.8592   -8.1323   22.2694 C   0  0  0  0  0  0  0  0  0  0  0  0
  -27.2264  -27.8912   19.6136 C   0  0  0  0  0  0  0  0  0  0  0  0
  -21.2245   -6.0140   22.3167 C   0  0  0  0  0  0  0  0  0  0  0  0
  -21.1310   -4.6299   22.4617 C   0  0  0  0  0  0  0  0  0  0  0  0
  -27.7547  -17.4264   20.0238 C   0  0  0  0  0  0  0  0  0  0  0  0
  -25.1091  -27.5438   20.7161 C   0  0  0  0  0  0  0  0  0  0  0  0
  -21.7803   -4.8291   24.7803 C   0  0  0  0  0  0  0  0  0  0  0  0
  -24.3812   -9.6484   20.4622 C   0  0  0  0  0  0  0  0  0  0  0  0
  -25.1732  -10.1572   18.0912 C   0  0  0  0  0  0  0  0  0  0  0  0
  -26.0592  -35.2117   25.9808 C   0  0  0  0  0  0  0  0  0  0  0  0
  -25.9227  -29.7965   20.3652 C   0  0  0  0  0  0  0  0  0  0  0  0
  -26.6730  -34.2276   25.1826 C   0  0  0  0  0  0  0  0  0  0  0  0
  -28.8741  -19.5550   20.0022 C   0  0  0  0  0  0  0  0  0  0  0  0
  -24.9311  -28.9296   20.8463 C   0  0  0  0  0  0  0  0  0  0  0  0
  -22.5705   -8.6615   22.3411 C   0  0  0  0  0  0  0  0  0  0  0  0
  -26.2514  -27.0278   20.1046 C   0  0  0  0  0  0  0  0  0  0  0  0
  -21.5959   -6.8057   23.4034 C   0  0  0  0  0  0  0  0  0  0  0  0
  -21.4089   -4.0374   23.6935 C   0  0  0  0  0  0  0  0  0  0  0  0
  -21.8738   -6.2132   24.6352 C   0  0  0  0  0  0  0  0  0  0  0  0
  -25.3166  -10.1574   19.4917 C   0  0  0  0  0  0  0  0  0  0  0  0
  -30.0745  -18.8631   20.0068 C   0  0  0  0  0  0  0  0  0  0  0  0
  -29.0053  -16.8298   20.0273 C   0  0  0  0  0  0  0  0  0  0  0  0
  -26.3240  -10.7468   17.6281 C   0  0  0  0  0  0  0  0  0  0  0  0
  -24.0960   -9.6678   17.2814 C   0  0  0  0  0  0  0  0  0  0  0  0
  -25.4023  -31.5716   22.9502 C   0  0  0  0  0  0  0  0  0  0  0  0
  -22.3441  -31.5545   21.8688 C   0  0  0  0  0  0  0  0  0  0  0  0
  -19.9390  -30.0101   20.0040 C   0  0  0  0  0  0  0  0  0  0  0  0
  -30.1912  -14.6073   20.0460 C   0  0  0  0  0  0  0  0  0  0  0  0
  -24.7842  -34.9371   26.7382 C   0  0  0  0  0  0  0  0  0  0  0  0
  -25.7474  -31.2868   20.4691 C   0  0  0  0  0  0  0  0  0  0  0  0
  -23.6803  -29.4451   21.5083 C   0  0  0  0  0  0  0  0  0  0  0  0
  -24.0230  -33.7165   26.2272 C   0  0  0  0  0  0  0  0  0  0  0  0
  -30.9337  -11.3681   18.7678 C   0  0  0  0  0  0  0  0  0  0  0  0
  -27.5961  -21.6059   20.7557 C   0  0  0  0  0  0  0  0  0  0  0  0
  -28.8576  -21.6340   18.5585 C   0  0  0  0  0  0  0  0  0  0  0  0
  -24.9734  -32.5405   26.0258 C   0  0  0  0  0  0  0  0  0  0  0  0
  -27.5556  -23.1338   20.7483 C   0  0  0  0  0  0  0  0  0  0  0  0
  -28.8139  -23.1618   18.5566 C   0  0  0  0  0  0  0  0  0  0  0  0
  -29.5638  -10.6922   18.6751 C   0  0  0  0  0  0  0  0  0  0  0  0
  -31.0384  -12.2717   19.9951 C   0  0  0  0  0  0  0  0  0  0  0  0
  -28.5958  -12.5898   20.0349 C   0  0  0  0  0  0  0  0  0  0  0  0
  -28.8180  -21.0718   19.9895 C   0  0  0  0  0  0  0  0  0  0  0  0
  -26.0416  -32.8680   24.9754 C   0  0  1  0  0  0  0  0  0  0  0  0
  -24.7909  -31.6997   21.5836 C   0  0  1  0  0  0  0  0  0  0  0  0
  -27.5952  -23.6953   19.3210 C   0  0  0  0  0  0  0  0  0  0  0  0
  -28.4200  -11.7200   18.7795 C   0  0  2  0  0  0  0  0  0  0  0  0
  -31.3703  -19.6063   19.9991 C   0  0  0  0  0  0  0  0  0  0  0  0
  -17.5267  -30.2121   19.3428 C   0  0  0  0  0  0  0  0  0  0  0  0
  -21.5068  -30.5518   24.6262 C   0  0  0  0  0  0  0  0  0  0  0  0
  -19.3076  -29.8789   23.6369 C   0  0  0  0  0  0  0  0  0  0  0  0
  -19.9902  -32.2782   23.6391 C   0  0  0  0  0  0  0  0  0  0  0  0
  -20.6246  -30.2398   17.1342 C   0  0  0  0  0  0  0  0  0  0  0  0
  -27.5995  -25.2227   19.3430 C   0  0  0  0  0  0  0  0  0  1  0  0
  -21.1430  -30.6629   22.0725 C   0  0  1  0  0  0  0  0  0  0  0  0
  -18.9631  -30.5484   18.9734 C   0  0  2  0  0  0  0  0  0  0  0  0
  -20.5113  -30.8329   23.4830 C   0  0  0  0  0  0  0  0  0  0  0  0
  -26.4679  -10.7037   19.8920 N   0  0  0  0  0  0  0  0  0  0  0  0
  -30.1708  -17.5147   20.0191 N   0  0  0  0  0  0  0  0  0  0  0  0
  -27.0583  -11.0522   18.7361 N   0  0  0  0  0  0  0  0  0  0  0  0
  -23.5579  -30.9098   21.5917 N   0  0  0  0  0  0  0  0  0  0  0  0
  -29.9244  -13.2219   20.0250 N   0  0  0  0  0  0  0  0  0  0  0  0
  -26.7693  -11.0286   16.3852 N   0  0  0  0  0  0  0  0  0  0  0  0
  -24.1374   -8.3354   16.8486 N   0  0  0  0  0  0  0  0  0  0  0  0
  -29.0536  -15.4137   20.0405 N   0  0  0  0  0  0  0  0  0  0  0  0
  -25.4879  -32.7645   23.6423 N   0  0  0  0  0  0  0  0  0  0  0  0
  -20.2306  -30.9491   20.9707 N   0  0  0  0  0  0  0  0  0  0  0  0
  -19.2522  -29.9659   17.6325 N   0  3  0  0  0  0  0  0  0  0  0  0
  -23.1336  -10.3953   16.9378 O   0  0  0  0  0  0  0  0  0  0  0  0
  -25.7678  -30.4716   23.3479 O   0  0  0  0  0  0  0  0  0  0  0  0
  -22.2088  -32.7782   21.9453 O   0  0  0  0  0  0  0  0  0  0  0  0
  -20.3941  -28.8693   19.9584 O   0  0  0  0  0  0  0  0  0  0  0  0
  -31.3441  -15.0462   20.0399 O   0  0  0  0  0  0  0  0  0  0  0  0
  -21.6875   -8.1798   23.2580 O   0  0  0  0  0  0  0  0  0  0  0  0
  -26.4099  -25.6817   19.9838 O   0  0  0  0  0  0  0  0  0  1  0  0
  -21.3176   -2.7084   23.8330 F   0  0  0  0  0  0  0  0  0  0  0  0
  -22.2300   -6.9687   25.6832 F   0  0  0  0  0  0  0  0  0  0  0  0
  1  2  1  0  0  0  0
  1  5  2  0  0  0  0
  2  6  2  0  0  0  0
  3  9  2  0  0  0  0
  3 17  1  0  0  0  0
  4 10  1  0  0  0  0
  4 17  2  0  0  0  0
  5 19  1  0  0  0  0
  6 21  1  0  0  0  0
  7 11  2  0  0  0  0
  7 20  1  0  0  0  0
  8 14  2  0  0  0  0
  8 22  1  0  0  0  0
  9 24  1  0  0  0  0
 10 24  2  0  0  0  0
 11 25  1  0  0  0  0
 12 13  2  0  0  0  0
 12 26  1  0  0  0  0
 13 27  1  0  0  0  0
 14 31  1  0  0  0  0
 15 23  1  0  0  0  0
 15 25  2  0  0  0  0
 16 27  2  0  0  0  0
 16 28  1  0  0  0  0
 17 29  1  0  0  0  0
 18 29  1  0  0  0  0
 18 32  2  0  0  0  0
 18 33  1  0  0  0  0
 19 21  2  0  0  0  0
 19 38  1  0  0  0  0
 20 23  2  0  0  0  0
 20 39  1  0  0  0  0
 21 52  1  0  0  0  0
 22 30  2  0  0  0  0
 22 51  1  0  0  0  0
 23 40  1  0  0  0  0
 24 82  1  0  0  0  0
 25 83  1  0  0  0  0
 26 28  2  0  0  0  0
 26 82  1  0  0  0  0
 27 84  1  0  0  0  0
 28 85  1  0  0  0  0
 29 66  2  0  0  0  0
 30 56  1  0  0  0  0
 30 67  1  0  0  0  0
 31 67  2  0  0  0  0
 31 73  1  0  0  0  0
 32 68  1  0  0  0  0
 32 71  1  0  0  0  0
 33 72  1  0  0  0  0
 33 77  2  0  0  0  0
 34 53  1  0  0  0  0
 34 74  1  0  0  0  0
 34 78  2  0  0  0  0
 35 63  1  0  0  0  0
 35 69  1  0  0  0  0
 35 79  2  0  0  0  0
 36 64  1  0  0  0  0
 36 75  1  0  0  0  0
 36 80  2  0  0  0  0
 37 70  1  0  0  0  0
 37 73  1  0  0  0  0
 37 81  2  0  0  0  0
 38 41  1  0  0  0  0
 39 53  1  0  0  0  0
 40 69  1  0  0  0  0
 41 45  1  0  0  0  0
 42 48  1  0  0  0  0
 42 49  1  0  0  0  0
 43 46  1  0  0  0  0
 43 51  1  0  0  0  0
 44 47  1  0  0  0  0
 44 51  1  0  0  0  0
 45 52  1  0  0  0  0
 46 54  1  0  0  0  0
 47 54  1  0  0  0  0
 48 55  1  0  0  0  0
 49 70  1  0  0  0  0
 50 55  1  0  0  0  0
 50 70  1  0  0  0  0
 52 74  1  0  0  0  0
 53 69  1  0  0  0  0
 54 62  1  0  0  0  0
 55 68  1  0  0  0  0
 57 64  1  0  0  0  0
 58 65  1  0  0  0  0
 59 65  1  0  0  0  0
 60 65  1  0  0  0  0
 61 76  1  0  0  0  0
 62 83  1  0  0  0  0
 63 65  1  0  0  0  0
 63 75  1  0  0  0  0
 64 76  1  0  0  0  0
 66 68  1  0  0  0  0
M  CHG  1  76   1
M  ISO  4  37 100  62 101  73 100  83 101
M  END
> <Batch ID>
0133

> <Smiles>
CNC(C)C(=O)NC(C(=O)N1Cc2cc([101O:1][101CH2:1]C3CCC(c4ccc([100NH:0][100C:0](=O)N5CCCC(n6nc(-c7ccc(Oc8ccc(F)cc8F)cc7)c(C(N)=O)c6N)C5)nc4C)CC3)ccc2CC1C(=O)NC1CCCc2ccccc21)C(C)(C)C

> <Shape>
0.328

> <Color>
0.122

> <Negative vol penalty>
0.000

$$$$

  -OEChem-04052320553D

 85 94  0     1  0  0  0  0  0999 V2000
  -28.7451  -31.6454   26.2463 C   0  0  0  0  0  0  0  0  0  0  0  0
  -28.7723  -30.6593   25.2653 C   0  0  0  0  0  0  0  0  0  0  0  0
  -22.8578  -14.7419   24.6069 C   0  0  0  0  0  0  0  0  0  0  0  0
  -22.1712  -16.0337   22.6842 C   0  0  0  0  0  0  0  0  0  0  0  0
  -27.6259  -31.7803   27.0667 C   0  0  0  0  0  0  0  0  0  0  0  0
  -27.6806  -29.8067   25.1050 C   0  0  0  0  0  0  0  0  0  0  0  0
  -26.4061  -29.1754   20.2447 C   0  0  0  0  0  0  0  0  0  0  0  0
  -28.1925  -20.5653   19.3176 C   0  0  0  0  0  0  0  0  0  0  0  0
  -21.8142  -15.2932   25.3501 C   0  0  0  0  0  0  0  0  0  0  0  0
  -21.1275  -16.5851   23.4274 C   0  0  0  0  0  0  0  0  0  0  0  0
  -27.1889  -28.3034   19.4893 C   0  0  0  0  0  0  0  0  0  0  0  0
  -28.2234  -21.9191   19.6516 C   0  0  0  0  0  0  0  0  0  0  0  0
  -20.7342  -19.0049   25.7556 C   0  0  0  0  0  0  0  0  0  0  0  0
  -20.5257  -20.3806   25.6585 C   0  0  0  0  0  0  0  0  0  0  0  0
  -25.5244  -26.5794   19.7658 C   0  0  0  0  0  0  0  0  0  0  0  0
  -30.0467  -22.2596   18.1035 C   0  0  0  0  0  0  0  0  0  0  0  0
  -18.2929  -19.9835   24.8253 C   0  0  0  0  0  0  0  0  0  0  0  0
  -23.0364  -15.1122   23.2739 C   0  0  0  0  0  0  0  0  0  0  0  0
  -24.0785  -13.3694   21.7297 C   0  0  0  0  0  0  0  0  0  0  0  0
  -26.5160  -30.9352   26.9100 C   0  0  0  0  0  0  0  0  0  0  0  0
  -25.1796  -28.7518   20.7764 C   0  0  0  0  0  0  0  0  0  0  0  0
  -26.5460  -29.9295   25.9250 C   0  0  0  0  0  0  0  0  0  0  0  0
  -24.7268  -27.4487   20.5255 C   0  0  0  0  0  0  0  0  0  0  0  0
  -30.0159  -20.9057   17.7695 C   0  0  0  0  0  0  0  0  0  0  0  0
  -29.0888  -20.0585   18.3765 C   0  0  0  0  0  0  0  0  0  0  0  0
  -20.9490  -16.2148   24.7604 C   0  0  0  0  0  0  0  0  0  0  0  0
  -26.7495  -27.0043   19.2522 C   0  0  0  0  0  0  0  0  0  0  0  0
  -29.1504  -22.7663   19.0446 C   0  0  0  0  0  0  0  0  0  0  0  0
  -19.7221  -18.1184   25.3875 C   0  0  0  0  0  0  0  0  0  0  0  0
  -19.3051  -20.8699   25.1934 C   0  0  0  0  0  0  0  0  0  0  0  0
  -18.5015  -18.6077   24.9224 C   0  0  0  0  0  0  0  0  0  0  0  0
  -24.1146  -14.5434   22.5058 C   0  0  0  0  0  0  0  0  0  0  0  0
  -25.3440  -13.2647   21.2064 C   0  0  0  0  0  0  0  0  0  0  0  0
  -22.9976  -12.4553   21.5022 C   0  0  0  0  0  0  0  0  0  0  0  0
  -23.9984  -28.4280   23.7096 C   0  0  0  0  0  0  0  0  0  0  0  0
  -21.2590  -27.7486   22.1107 C   0  0  0  0  0  0  0  0  0  0  0  0
  -19.7765  -26.6473   19.2408 C   0  0  0  0  0  0  0  0  0  0  0  0
  -29.6262  -17.2885   20.0556 C   0  0  0  0  0  0  0  0  0  0  0  0
  -25.3480  -31.0885   27.8518 C   0  0  0  0  0  0  0  0  0  0  0  0
  -24.3346  -29.7129   21.5667 C   0  0  0  0  0  0  0  0  0  0  0  0
  -23.4082  -26.9513   21.0568 C   0  0  0  0  0  0  0  0  0  0  0  0
  -24.0806  -30.3876   27.3695 C   0  0  0  0  0  0  0  0  0  0  0  0
  -29.8915  -14.4179   22.1452 C   0  0  0  0  0  0  0  0  0  0  0  0
  -32.2775  -19.7765   17.2366 C   0  0  0  0  0  0  0  0  0  0  0  0
  -32.2889  -21.1101   16.5570 C   0  0  0  0  0  0  0  0  0  0  0  0
  -24.4008  -28.9751   26.8909 C   0  0  0  0  0  0  0  0  0  0  0  0
  -28.4378  -14.0187   22.4045 C   0  0  0  0  0  0  0  0  0  0  0  0
  -30.0580  -15.9347   22.0847 C   0  0  0  0  0  0  0  0  0  0  0  0
  -27.7104  -16.2191   21.3907 C   0  0  0  0  0  0  0  0  0  0  0  0
  -30.9853  -20.3850   16.7608 C   0  0  0  0  0  0  0  0  0  0  0  0
  -25.3712  -29.0015   25.7039 C   0  0  1  0  0  0  0  0  0  0  0  0
  -23.3424  -29.0149   22.4919 C   0  0  1  0  0  0  0  0  0  0  0  0
  -27.4828  -14.6978   21.4045 C   0  0  2  0  0  0  0  0  0  0  0  0
  -28.0951  -18.3037   16.8617 C   0  0  0  0  0  0  0  0  0  0  0  0
  -17.5231  -26.1645   18.2476 C   0  0  0  0  0  0  0  0  0  0  0  0
  -21.0990  -25.1696   23.7334 C   0  0  0  0  0  0  0  0  0  0  0  0
  -19.4282  -24.3132   22.0771 C   0  0  0  0  0  0  0  0  0  0  0  0
  -18.9138  -26.3468   23.4272 C   0  0  0  0  0  0  0  0  0  0  0  0
  -20.1580  -28.6601   17.1049 C   0  0  0  0  0  0  0  0  0  0  0  0
  -28.9260  -26.3356   18.5654 C   0  0  0  0  0  0  0  0  0  1  0  0
  -29.6078  -24.9970   18.3586 C   0  0  0  0  0  0  0  0  0  0  0  0
  -29.0356  -18.6050   18.0364 C   0  0  2  0  0  0  0  0  0  0  0  0
  -20.6212  -26.4925   21.5682 C   0  0  1  0  0  0  0  0  0  0  0  0
  -18.6209  -27.2015   18.4272 C   0  0  2  0  0  0  0  0  0  0  0  0
  -20.0414  -25.5890   22.6929 C   0  0  0  0  0  0  0  0  0  0  0  0
  -25.3086  -15.1416   22.4807 N   0  0  0  0  0  0  0  0  0  0  0  0
  -26.0345  -14.3403   21.6825 N   0  0  0  0  0  0  0  0  0  0  0  0
  -22.6209  -27.9266   21.8291 N   0  0  0  0  0  0  0  0  0  0  0  0
  -29.1250  -16.5168   21.1170 N   0  0  0  0  0  0  0  0  0  0  0  0
  -25.9225  -12.3585   20.3900 N   0  0  0  0  0  0  0  0  0  0  0  0
  -21.7644  -12.7127   22.1165 N   0  0  0  0  0  0  0  0  0  0  0  0
  -24.6713  -29.3516   24.4865 N   0  0  0  0  0  0  0  0  0  0  0  0
  -19.6363  -26.9272   20.5836 N   0  0  0  0  0  0  0  0  0  0  0  0
  -28.6746  -17.7976   19.1804 N   0  0  0  0  0  0  0  0  0  0  0  0
  -19.0929  -27.6248   17.0785 N   0  3  0  0  0  0  0  0  0  0  0  0
  -23.1263  -11.4316   20.7889 O   0  0  0  0  0  0  0  0  0  0  0  0
  -23.9000  -27.2263   23.9289 O   0  0  0  0  0  0  0  0  0  0  0  0
  -20.5724  -28.5461   22.7542 O   0  0  0  0  0  0  0  0  0  0  0  0
  -20.7084  -26.0250   18.7360 O   0  0  0  0  0  0  0  0  0  0  0  0
  -30.8327  -17.5030   19.8965 O   0  0  0  0  0  0  0  0  0  0  0  0
  -19.9303  -16.7528   25.4853 O   0  0  0  0  0  0  0  0  0  0  0  0
  -27.5119  -26.1509   18.5157 O   0  0  0  0  0  0  0  0  0  1  0  0
  -29.1802  -24.0961   19.3729 O   0  0  0  0  0  0  0  0  0  0  0  0
  -19.1044  -22.1911   25.1017 F   0  0  0  0  0  0  0  0  0  0  0  0
  -17.5250  -17.7609   24.5684 F   0  0  0  0  0  0  0  0  0  0  0  0
  1  2  1  0  0  0  0
  1  5  2  0  0  0  0
  2  6  2  0  0  0  0
  3  9  2  0  0  0  0
  3 18  1  0  0  0  0
  4 10  1  0  0  0  0
  4 18  2  0  0  0  0
  5 20  1  0  0  0  0
  6 22  1  0  0  0  0
  7 11  2  0  0  0  0
  7 21  1  0  0  0  0
  8 12  2  0  0  0  0
  8 25  1  0  0  0  0
  9 26  1  0  0  0  0
 10 26  2  0  0  0  0
 11 27  1  0  0  0  0
 12 28  1  0  0  0  0
 13 14  2  0  0  0  0
 13 29  1  0  0  0  0
 14 30  1  0  0  0  0
 15 23  1  0  0  0  0
 15 27  2  0  0  0  0
 16 24  1  0  0  0  0
 16 28  2  0  0  0  0
 17 30  2  0  0  0  0
 17 31  1  0  0  0  0
 18 32  1  0  0  0  0
 19 32  1  0  0  0  0
 19 33  2  0  0  0  0
 19 34  1  0  0  0  0
 20 22  2  0  0  0  0
 20 39  1  0  0  0  0
 21 23  2  0  0  0  0
 21 40  1  0  0  0  0
 22 51  1  0  0  0  0
 23 41  1  0  0  0  0
 24 25  2  0  0  0  0
 24 50  1  0  0  0  0
 25 62  1  0  0  0  0
 26 81  1  0  0  0  0
 27 82  1  0  0  0  0
 28 83  1  0  0  0  0
 29 31  2  0  0  0  0
 29 81  1  0  0  0  0
 30 84  1  0  0  0  0
 31 85  1  0  0  0  0
 32 66  2  0  0  0  0
 33 67  1  0  0  0  0
 33 70  1  0  0  0  0
 34 71  1  0  0  0  0
 34 76  2  0  0  0  0
 35 52  1  0  0  0  0
 35 72  1  0  0  0  0
 35 77  2  0  0  0  0
 36 63  1  0  0  0  0
 36 68  1  0  0  0  0
 36 78  2  0  0  0  0
 37 64  1  0  0  0  0
 37 73  1  0  0  0  0
 37 79  2  0  0  0  0
 38 69  1  0  0  0  0
 38 74  1  0  0  0  0
 38 80  2  0  0  0  0
 39 42  1  0  0  0  0
 40 52  1  0  0  0  0
 41 68  1  0  0  0  0
 42 46  1  0  0  0  0
 43 47  1  0  0  0  0
 43 48  1  0  0  0  0
 44 45  1  0  0  0  0
 44 50  1  0  0  0  0
 45 50  1  0  0  0  0
 46 51  1  0  0  0  0
 47 53  1  0  0  0  0
 48 69  1  0  0  0  0
 49 53  1  0  0  0  0
 49 69  1  0  0  0  0
 51 72  1  0  0  0  0
 52 68  1  0  0  0  0
 53 67  1  0  0  0  0
 54 62  1  0  0  0  0
 55 64  1  0  0  0  0
 56 65  1  0  0  0  0
 57 65  1  0  0  0  0
 58 65  1  0  0  0  0
 59 75  1  0  0  0  0
 60 61  1  0  0  0  0
 60 82  1  0  0  0  0
 61 83  1  0  0  0  0
 62 74  1  0  0  0  0
 63 65  1  0  0  0  0
 63 73  1  0  0  0  0
 64 75  1  0  0  0  0
 66 67  1  0  0  0  0
M  CHG  1  75   1
M  ISO  4  38 100  60 101  74 100  82 101
M  END
> <Batch ID>
0133

> <Smiles>
CNC(C)C(=O)NC(C(=O)N1Cc2cc([101O:1][101CH2:1]COc3ccc(C(C)[100NH:0][100C:0](=O)N4CCCC(n5nc(-c6ccc(Oc7ccc(F)cc7F)cc6)c(C(N)=O)c5N)C4)c(C4CC4)c3)ccc2CC1C(=O)NC1CCCc2ccccc21)C(C)(C)C

> <Shape>
0.244

> <Color>
0.068

> <Negative vol penalty>
0.000

$$$$

  -OEChem-04052320553D

 83 92  0     1  0  0  0  0  0999 V2000
  -27.8408  -24.3492   16.8878 C   0  0  0  0  0  0  0  0  0  0  0  0
  -26.6782  -24.5727   17.6185 C   0  0  0  0  0  0  0  0  0  0  0  0
  -27.1993  -13.1452   20.8802 C   0  0  0  0  0  0  0  0  0  0  0  0
  -25.1473  -13.5437   19.6688 C   0  0  0  0  0  0  0  0  0  0  0  0
  -29.0546  -24.8693   17.3350 C   0  0  0  0  0  0  0  0  0  0  0  0
  -26.7290  -25.3157   18.7974 C   0  0  0  0  0  0  0  0  0  0  0  0
  -22.9780  -28.7023   19.1225 C   0  0  0  0  0  0  0  0  0  0  0  0
  -19.9802  -21.4211   19.9901 C   0  0  0  0  0  0  0  0  0  0  0  0
  -26.8712  -11.7942   20.9916 C   0  0  0  0  0  0  0  0  0  0  0  0
  -24.8191  -12.1926   19.7803 C   0  0  0  0  0  0  0  0  0  0  0  0
  -21.7193  -28.2254   19.4858 C   0  0  0  0  0  0  0  0  0  0  0  0
  -23.2684   -8.9172   20.0581 C   0  0  0  0  0  0  0  0  0  0  0  0
  -21.9610   -8.5955   20.4226 C   0  0  0  0  0  0  0  0  0  0  0  0
  -21.1048  -20.7042   20.3799 C   0  0  0  0  0  0  0  0  0  0  0  0
  -22.0948  -28.9751   21.7477 C   0  0  0  0  0  0  0  0  0  0  0  0
  -22.2432   -9.7997   22.4980 C   0  0  0  0  0  0  0  0  0  0  0  0
  -26.3373  -14.0201   20.2188 C   0  0  0  0  0  0  0  0  0  0  0  0
  -27.4054  -16.0314   19.0693 C   0  0  0  0  0  0  0  0  0  0  0  0
  -29.1187  -25.6272   18.5148 C   0  0  0  0  0  0  0  0  0  0  0  0
  -23.8104  -29.3105   20.0732 C   0  0  0  0  0  0  0  0  0  0  0  0
  -27.9451  -25.8454   19.2614 C   0  0  0  0  0  0  0  0  0  0  0  0
  -19.6530  -22.6162   20.6352 C   0  0  0  0  0  0  0  0  0  0  0  0
  -23.3626  -29.4612   21.3933 C   0  0  0  0  0  0  0  0  0  0  0  0
  -25.6811  -11.3178   20.4417 C   0  0  0  0  0  0  0  0  0  0  0  0
  -21.2787  -28.3592   20.7993 C   0  0  0  0  0  0  0  0  0  0  0  0
  -24.0632   -9.6802   20.9137 C   0  0  0  0  0  0  0  0  0  0  0  0
  -21.4484   -9.0367   21.6425 C   0  0  0  0  0  0  0  0  0  0  0  0
  -23.5506  -10.1214   22.1336 C   0  0  0  0  0  0  0  0  0  0  0  0
  -26.6755  -15.4160   20.1038 C   0  0  0  0  0  0  0  0  0  0  0  0
  -20.5036  -23.0613   21.6502 C   0  0  0  0  0  0  0  0  0  0  0  0
  -21.8750  -21.2186   21.4069 C   0  0  0  0  0  0  0  0  0  0  0  0
  -27.4524  -17.3574   19.4241 C   0  0  0  0  0  0  0  0  0  0  0  0
  -27.9887  -15.4559   17.8927 C   0  0  0  0  0  0  0  0  0  0  0  0
  -26.6763  -28.6637   21.2863 C   0  0  0  0  0  0  0  0  0  0  0  0
  -26.2798  -31.5374   22.7378 C   0  0  0  0  0  0  0  0  0  0  0  0
  -24.1367  -33.9361   23.8781 C   0  0  0  0  0  0  0  0  0  0  0  0
  -23.9316  -20.8067   22.8023 C   0  0  0  0  0  0  0  0  0  0  0  0
  -30.4617  -26.1290   18.9833 C   0  0  0  0  0  0  0  0  0  0  0  0
  -25.1545  -29.8437   19.6591 C   0  0  0  0  0  0  0  0  0  0  0  0
  -18.4638  -23.4230   20.1925 C   0  0  0  0  0  0  0  0  0  0  0  0
  -24.2097  -30.1248   22.4472 C   0  0  0  0  0  0  0  0  0  0  0  0
  -20.1987  -24.3276   22.3993 C   0  0  0  0  0  0  0  0  0  0  0  0
  -30.3671  -27.2222   20.0446 C   0  0  0  0  0  0  0  0  0  0  0  0
  -27.4099  -20.2081   23.2720 C   0  0  0  0  0  0  0  0  0  0  0  0
  -29.3607  -26.8335   21.1230 C   0  0  0  0  0  0  0  0  0  0  0  0
  -27.6839  -18.9709   22.4139 C   0  0  0  0  0  0  0  0  0  0  0  0
  -26.0380  -20.1418   23.9408 C   0  0  0  0  0  0  0  0  0  0  0  0
  -25.1885  -18.6532   22.1712 C   0  0  0  0  0  0  0  0  0  0  0  0
  -18.0003  -24.4334   21.2368 C   0  0  0  0  0  0  0  0  0  0  0  0
  -27.9555  -26.6673   20.5321 C   0  0  1  0  0  0  0  0  0  0  0  0
  -26.1268  -29.9843   20.8263 C   0  0  1  0  0  0  0  0  0  0  0  0
  -26.5319  -18.7042   21.4253 C   0  0  2  0  0  0  0  0  0  0  0  0
  -24.1066  -36.1533   25.0530 C   0  0  0  0  0  0  0  0  0  0  0  0
  -26.8610  -30.1390   25.3867 C   0  0  0  0  0  0  0  0  0  0  0  0
  -25.9003  -32.1269   26.5671 C   0  0  0  0  0  0  0  0  0  0  0  0
  -27.9281  -32.3871   25.1377 C   0  0  0  0  0  0  0  0  0  0  0  0
  -22.8419  -35.2697   21.5751 C   0  0  0  0  0  0  0  0  0  0  0  0
  -18.8022  -26.3957   22.5634 C   0  0  0  0  0  0  0  0  0  0  0  0
  -19.8920  -27.4478   22.5028 C   0  0  0  0  0  0  0  0  0  1  0  0
  -25.6816  -32.0021   24.0436 C   0  0  1  0  0  0  0  0  0  0  0  0
  -24.1303  -35.4445   23.7077 C   0  0  2  0  0  0  0  0  0  0  0  0
  -26.5773  -31.6495   25.2646 C   0  0  0  0  0  0  0  0  0  0  0  0
  -26.2869  -16.2800   21.0453 N   0  0  0  0  0  0  0  0  0  0  0  0
  -21.6024  -22.3747   22.0509 N   0  0  0  0  0  0  0  0  0  0  0  0
  -26.7745  -17.4519   20.6038 N   0  0  0  0  0  0  0  0  0  0  0  0
  -25.5187  -30.6241   21.9946 N   0  0  0  0  0  0  0  0  0  0  0  0
  -24.9959  -19.8911   22.9427 N   0  0  0  0  0  0  0  0  0  0  0  0
  -28.0072  -18.4402   18.8390 N   0  0  0  0  0  0  0  0  0  0  0  0
  -27.8463  -14.0776   17.6821 N   0  0  0  0  0  0  0  0  0  0  0  0
  -23.0192  -20.4806   21.7994 N   0  0  0  0  0  0  0  0  0  0  0  0
  -27.3469  -27.9604   20.3039 N   0  0  0  0  0  0  0  0  0  0  0  0
  -25.4187  -33.4286   23.8875 N   0  0  0  0  0  0  0  0  0  0  0  0
  -19.1947  -25.2255   21.7076 N   0  3  1  0  0  0  0  0  0  0  0  0
  -22.9336  -35.8729   22.9296 N   0  3  0  0  0  0  0  0  0  0  0  0
  -28.6316  -16.1408   17.0614 O   0  0  0  0  0  0  0  0  0  0  0  0
  -26.5059  -28.3097   22.4471 O   0  0  0  0  0  0  0  0  0  0  0  0
  -27.3786  -31.9744   22.3866 O   0  0  0  0  0  0  0  0  0  0  0  0
  -23.1075  -33.2746   23.9952 O   0  0  0  0  0  0  0  0  0  0  0  0
  -23.8513  -21.8206   23.5005 O   0  0  0  0  0  0  0  0  0  0  0  0
  -25.3607   -9.9994   20.5501 O   0  0  0  0  0  0  0  0  0  0  0  0
  -20.0508  -27.8940   21.1567 O   0  0  0  0  0  0  0  0  0  1  0  0
  -20.1923   -8.7290   21.9916 F   0  0  0  0  0  0  0  0  0  0  0  0
  -24.3090  -10.8557   22.9591 F   0  0  0  0  0  0  0  0  0  0  0  0
  1  2  1  0  0  0  0
  1  5  2  0  0  0  0
  2  6  2  0  0  0  0
  3  9  2  0  0  0  0
  3 17  1  0  0  0  0
  4 10  1  0  0  0  0
  4 17  2  0  0  0  0
  5 19  1  0  0  0  0
  6 21  1  0  0  0  0
  7 11  2  0  0  0  0
  7 20  1  0  0  0  0
  8 14  2  0  0  0  0
  8 22  1  0  0  0  0
  9 24  1  0  0  0  0
 10 24  2  0  0  0  0
 11 25  1  0  0  0  0
 12 13  2  0  0  0  0
 12 26  1  0  0  0  0
 13 27  1  0  0  0  0
 14 31  1  0  0  0  0
 15 23  1  0  0  0  0
 15 25  2  0  0  0  0
 16 27  2  0  0  0  0
 16 28  1  0  0  0  0
 17 29  1  0  0  0  0
 18 29  1  0  0  0  0
 18 32  2  0  0  0  0
 18 33  1  0  0  0  0
 19 21  2  0  0  0  0
 19 38  1  0  0  0  0
 20 23  2  0  0  0  0
 20 39  1  0  0  0  0
 21 50  1  0  0  0  0
 22 30  2  0  0  0  0
 22 40  1  0  0  0  0
 23 41  1  0  0  0  0
 24 80  1  0  0  0  0
 25 81  1  0  0  0  0
 26 28  2  0  0  0  0
 26 80  1  0  0  0  0
 27 82  1  0  0  0  0
 28 83  1  0  0  0  0
 29 63  2  0  0  0  0
 30 42  1  0  0  0  0
 30 64  1  0  0  0  0
 31 64  2  0  0  0  0
 31 70  1  0  0  0  0
 32 65  1  0  0  0  0
 32 68  1  0  0  0  0
 33 69  1  0  0  0  0
 33 75  2  0  0  0  0
 34 51  1  0  0  0  0
 34 71  1  0  0  0  0
 34 76  2  0  0  0  0
 35 60  1  0  0  0  0
 35 66  1  0  0  0  0
 35 77  2  0  0  0  0
 36 61  1  0  0  0  0
 36 72  1  0  0  0  0
 36 78  2  0  0  0  0
 37 67  1  0  0  0  0
 37 70  1  0  0  0  0
 37 79  2  0  0  0  0
 38 43  1  0  0  0  0
 39 51  1  0  0  0  0
 40 49  1  0  0  0  0
 41 66  1  0  0  0  0
 42 73  1  0  0  0  0
 43 45  1  0  0  0  0
 44 46  1  0  0  0  0
 44 47  1  0  0  0  0
 45 50  1  0  0  0  0
 46 52  1  0  0  0  0
 47 67  1  0  0  0  0
 48 52  1  0  0  0  0
 48 67  1  0  0  0  0
 49 73  1  0  0  0  0
 50 71  1  0  0  0  0
 51 66  1  0  0  0  0
 52 65  1  0  0  0  0
 53 61  1  0  0  0  0
 54 62  1  0  0  0  0
 55 62  1  0  0  0  0
 56 62  1  0  0  0  0
 57 74  1  0  0  0  0
 58 59  1  0  0  0  0
 58 73  1  0  0  0  0
 59 81  1  0  0  0  0
 60 62  1  0  0  0  0
 60 72  1  0  0  0  0
 61 74  1  0  0  0  0
 63 65  1  0  0  0  0
M  CHG  2  73   1  74   1
M  ISO  4  37 100  59 101  70 100  81 101
M  END
> <Batch ID>
0133

> <Smiles>
CNC(C)C(=O)NC(C(=O)N1Cc2cc([101O:1][101CH2:1]CN3CCc4ccc([100NH:0][100C:0](=O)N5CCCC(n6nc(-c7ccc(Oc8ccc(F)cc8F)cc7)c(C(N)=O)c6N)C5)nc4C3)ccc2CC1C(=O)NC1CCCc2ccccc21)C(C)(C)C

> <Shape>
0.286

> <Color>
0.079

> <Negative vol penalty>
0.000

$$$$

  -OEChem-04052320553D

 80 88  0     1  0  0  0  0  0999 V2000
  -36.7132  -27.3615   14.8183 C   0  0  0  0  0  0  0  0  0  0  0  0
  -36.6480  -26.2599   15.6654 C   0  0  0  0  0  0  0  0  0  0  0  0
  -23.0110   -9.8745   19.9825 C   0  0  0  0  0  0  0  0  0  0  0  0
  -23.7286   -9.9414   22.2885 C   0  0  0  0  0  0  0  0  0  0  0  0
  -36.2308  -28.5978   15.2459 C   0  0  0  0  0  0  0  0  0  0  0  0
  -36.1014  -26.3942   16.9412 C   0  0  0  0  0  0  0  0  0  0  0  0
  -32.8456  -22.2126   20.0103 C   0  0  0  0  0  0  0  0  0  0  0  0
  -32.6077  -17.4961   23.4463 C   0  0  0  0  0  0  0  0  0  0  0  0
  -32.0271  -16.5903   22.5586 C   0  0  0  0  0  0  0  0  0  0  0  0
  -22.2492   -8.7377   20.2525 C   0  0  0  0  0  0  0  0  0  0  0  0
  -22.9667   -8.8047   22.5586 C   0  0  0  0  0  0  0  0  0  0  0  0
  -33.1918  -21.2998   21.0056 C   0  0  0  0  0  0  0  0  0  0  0  0
  -23.2288   -5.4645   22.1055 C   0  0  0  0  0  0  0  0  0  0  0  0
  -23.8189   -4.4542   22.8649 C   0  0  0  0  0  0  0  0  0  0  0  0
  -32.4372  -22.8562   22.6871 C   0  0  0  0  0  0  0  0  0  0  0  0
  -29.8423  -17.4809   23.0790 C   0  0  0  0  0  0  0  0  0  0  0  0
  -22.0885   -4.6978   24.5334 C   0  0  0  0  0  0  0  0  0  0  0  0
  -23.7508  -10.4763   21.0004 C   0  0  0  0  0  0  0  0  0  0  0  0
  -24.1244  -12.9928   20.8120 C   0  0  0  0  0  0  0  0  0  0  0  0
  -35.6692  -28.7451   16.5240 C   0  0  0  0  0  0  0  0  0  0  0  0
  -32.3017  -23.4605   20.3469 C   0  0  0  0  0  0  0  0  0  0  0  0
  -35.6123  -27.6339   17.3868 C   0  0  0  0  0  0  0  0  0  0  0  0
  -32.0825  -23.7820   21.6940 C   0  0  0  0  0  0  0  0  0  0  0  0
  -31.8057  -18.3942   24.1505 C   0  0  0  0  0  0  0  0  0  0  0  0
  -30.4230  -18.3866   23.9668 C   0  0  0  0  0  0  0  0  0  0  0  0
  -30.6444  -16.5827   22.3749 C   0  0  0  0  0  0  0  0  0  0  0  0
  -22.2270   -8.2028   21.5405 C   0  0  0  0  0  0  0  0  0  0  0  0
  -32.9903  -21.6226   22.3444 C   0  0  0  0  0  0  0  0  0  0  0  0
  -22.0686   -6.0914   22.5600 C   0  0  0  0  0  0  0  0  0  0  0  0
  -23.2487   -4.0708   24.0788 C   0  0  0  0  0  0  0  0  0  0  0  0
  -21.4984   -5.7080   23.7739 C   0  0  0  0  0  0  0  0  0  0  0  0
  -24.5384  -11.6503   20.7220 C   0  0  0  0  0  0  0  0  0  0  0  0
  -25.2318  -13.7188   20.4473 C   0  0  0  0  0  0  0  0  0  0  0  0
  -22.8526  -13.5351   21.1916 C   0  0  0  0  0  0  0  0  0  0  0  0
  -33.1973  -26.4824   19.9353 C   0  0  0  0  0  0  0  0  0  0  0  0
  -30.2706  -27.1116   21.1847 C   0  0  0  0  0  0  0  0  0  0  0  0
  -27.6547  -26.0608   23.1081 C   0  0  0  0  0  0  0  0  0  0  0  0
  -30.7057  -14.7079   20.6934 C   0  0  0  0  0  0  0  0  0  0  0  0
  -35.2041  -30.1121   16.9594 C   0  0  0  0  0  0  0  0  0  0  0  0
  -31.9087  -24.4234   19.2603 C   0  0  0  0  0  0  0  0  0  0  0  0
  -31.4829  -25.1004   22.1072 C   0  0  0  0  0  0  0  0  0  0  0  0
  -34.2981  -30.0846   18.1877 C   0  0  0  0  0  0  0  0  0  0  0  0
  -29.6068  -12.2371   18.3772 C   0  0  0  0  0  0  0  0  0  0  0  0
  -34.8873  -29.1801   19.2655 C   0  0  0  0  0  0  0  0  0  0  0  0
  -28.1562  -11.9746   18.7882 C   0  0  0  0  0  0  0  0  0  0  0  0
  -30.5023  -12.4914   19.5885 C   0  0  0  0  0  0  0  0  0  0  0  0
  -28.5789  -13.2781   20.9117 C   0  0  0  0  0  0  0  0  0  0  0  0
  -35.0039  -27.7340   18.7688 C   0  0  1  0  0  0  0  0  0  0  0  0
  -31.8392  -25.8699   19.7401 C   0  0  1  0  0  0  0  0  0  0  0  0
  -27.6259  -13.0806   19.7215 C   0  0  2  0  0  0  0  0  0  0  0  0
  -29.5447  -19.3402   24.7082 C   0  0  0  0  0  0  0  0  0  0  0  0
  -25.4220  -26.8091   23.9757 C   0  0  0  0  0  0  0  0  0  0  0  0
  -31.6658  -28.8911   23.2333 C   0  0  0  0  0  0  0  0  0  0  0  0
  -29.5717  -28.8357   24.6043 C   0  0  0  0  0  0  0  0  0  0  0  0
  -29.5363  -29.8281   22.3160 C   0  0  0  0  0  0  0  0  0  0  0  0
  -26.2484  -23.8517   21.7291 C   0  0  0  0  0  0  0  0  0  0  0  0
  -32.4569  -19.3642   25.1061 C   0  0  0  0  0  0  0  0  0  0  0  0
  -32.5643  -20.7690   24.5228 C   0  0  0  0  0  0  0  0  0  1  0  0
  -29.7248  -27.3204   22.5766 C   0  0  1  0  0  0  0  0  0  0  0  0
  -26.1563  -26.0744   22.8649 C   0  0  2  0  0  0  0  0  0  0  0  0
  -30.1377  -28.6946   23.1752 C   0  0  0  0  0  0  0  0  0  0  0  0
  -25.8095  -11.5279   20.3305 N   0  0  0  0  0  0  0  0  0  0  0  0
  -26.2038  -12.8027   20.1713 N   0  0  0  0  0  0  0  0  0  0  0  0
  -31.1209  -26.0108   21.0083 N   0  0  0  0  0  0  0  0  0  0  0  0
  -29.9394  -13.5542   20.4243 N   0  0  0  0  0  0  0  0  0  0  0  0
  -25.4591  -15.0451   20.3388 N   0  0  0  0  0  0  0  0  0  0  0  0
  -21.8240  -12.6478   21.5366 N   0  0  0  0  0  0  0  0  0  0  0  0
  -30.0543  -15.6642   21.4717 N   0  0  0  0  0  0  0  0  0  0  0  0
  -33.7120  -27.0825   18.8020 N   0  0  0  0  0  0  0  0  0  0  0  0
  -28.2829  -27.1178   22.4843 N   0  0  0  0  0  0  0  0  0  0  0  0
  -25.6302  -24.6818   22.7949 N   0  3  0  0  0  0  0  0  0  0  0  0
  -22.6298  -14.7694   21.2080 O   0  0  0  0  0  0  0  0  0  0  0  0
  -33.7375  -26.4169   21.0333 O   0  0  0  0  0  0  0  0  0  0  0  0
  -29.9485  -27.8921   20.2855 O   0  0  0  0  0  0  0  0  0  0  0  0
  -28.2115  -25.2007   23.7868 O   0  0  0  0  0  0  0  0  0  0  0  0
  -31.8451  -14.8499   20.2422 O   0  0  0  0  0  0  0  0  0  0  0  0
  -21.4835   -7.0937   21.8045 O   0  0  0  0  0  0  0  0  0  0  0  0
  -33.3280  -20.7338   23.3179 O   0  0  0  0  0  0  0  0  0  1  0  0
  -23.8146   -3.0996   24.8073 F   0  0  0  0  0  0  0  0  0  0  0  0
  -20.3832   -6.3059   24.2151 F   0  0  0  0  0  0  0  0  0  0  0  0
  1  2  1  0  0  0  0
  1  5  2  0  0  0  0
  2  6  2  0  0  0  0
  3 10  2  0  0  0  0
  3 18  1  0  0  0  0
  4 11  1  0  0  0  0
  4 18  2  0  0  0  0
  5 20  1  0  0  0  0
  6 22  1  0  0  0  0
  7 12  2  0  0  0  0
  7 21  1  0  0  0  0
  8  9  2  0  0  0  0
  8 24  1  0  0  0  0
  9 26  1  0  0  0  0
 10 27  1  0  0  0  0
 11 27  2  0  0  0  0
 12 28  1  0  0  0  0
 13 14  2  0  0  0  0
 13 29  1  0  0  0  0
 14 30  1  0  0  0  0
 15 23  1  0  0  0  0
 15 28  2  0  0  0  0
 16 25  1  0  0  0  0
 16 26  2  0  0  0  0
 17 30  2  0  0  0  0
 17 31  1  0  0  0  0
 18 32  1  0  0  0  0
 19 32  1  0  0  0  0
 19 33  2  0  0  0  0
 19 34  1  0  0  0  0
 20 22  2  0  0  0  0
 20 39  1  0  0  0  0
 21 23  2  0  0  0  0
 21 40  1  0  0  0  0
 22 48  1  0  0  0  0
 23 41  1  0  0  0  0
 24 25  2  0  0  0  0
 24 57  1  0  0  0  0
 25 51  1  0  0  0  0
 26 68  1  0  0  0  0
 27 77  1  0  0  0  0
 28 78  1  0  0  0  0
 29 31  2  0  0  0  0
 29 77  1  0  0  0  0
 30 79  1  0  0  0  0
 31 80  1  0  0  0  0
 32 62  2  0  0  0  0
 33 63  1  0  0  0  0
 33 66  1  0  0  0  0
 34 67  1  0  0  0  0
 34 72  2  0  0  0  0
 35 49  1  0  0  0  0
 35 69  1  0  0  0  0
 35 73  2  0  0  0  0
 36 59  1  0  0  0  0
 36 64  1  0  0  0  0
 36 74  2  0  0  0  0
 37 60  1  0  0  0  0
 37 70  1  0  0  0  0
 37 75  2  0  0  0  0
 38 65  1  0  0  0  0
 38 68  1  0  0  0  0
 38 76  2  0  0  0  0
 39 42  1  0  0  0  0
 40 49  1  0  0  0  0
 41 64  1  0  0  0  0
 42 44  1  0  0  0  0
 43 45  1  0  0  0  0
 43 46  1  0  0  0  0
 44 48  1  0  0  0  0
 45 50  1  0  0  0  0
 46 65  1  0  0  0  0
 47 50  1  0  0  0  0
 47 65  1  0  0  0  0
 48 69  1  0  0  0  0
 49 64  1  0  0  0  0
 50 63  1  0  0  0  0
 52 60  1  0  0  0  0
 53 61  1  0  0  0  0
 54 61  1  0  0  0  0
 55 61  1  0  0  0  0
 56 71  1  0  0  0  0
 57 58  1  0  0  0  0
 58 78  1  0  0  0  0
 59 61  1  0  0  0  0
 59 70  1  0  0  0  0
 60 71  1  0  0  0  0
 62 63  1  0  0  0  0
M  CHG  1  71   1
M  ISO  4  38 100  58 101  68 100  78 101
M  END
> <Batch ID>
0133

> <Smiles>
CNC(C)C(=O)NC(C(=O)N1Cc2cc([101O:1][101CH2:1]Cc3ccc([100NH:0][100C:0](=O)N4CCCC(n5nc(-c6ccc(Oc7ccc(F)cc7F)cc6)c(C(N)=O)c5N)C4)cc3C)ccc2CC1C(=O)NC1CCCc2ccccc21)C(C)(C)C

> <Shape>
0.210

> <Color>
0.207

> <Negative vol penalty>
0.000

$$$$

  -OEChem-04052320553D

 86 95  0     1  0  0  0  0  0999 V2000
  -30.4397  -34.5371   23.5963 C   0  0  0  0  0  0  0  0  0  0  0  0
  -30.8287  -33.3489   22.9863 C   0  0  0  0  0  0  0  0  0  0  0  0
  -23.2045   -9.8528   19.8995 C   0  0  0  0  0  0  0  0  0  0  0  0
  -23.8278   -9.9189   22.2328 C   0  0  0  0  0  0  0  0  0  0  0  0
  -29.2120  -34.6130   24.2527 C   0  0  0  0  0  0  0  0  0  0  0  0
  -29.9905  -32.2354   23.0332 C   0  0  0  0  0  0  0  0  0  0  0  0
  -28.0857  -26.5145   19.1654 C   0  0  0  0  0  0  0  0  0  0  0  0
  -22.4841   -8.6800   20.1251 C   0  0  0  0  0  0  0  0  0  0  0  0
  -23.1073   -8.7460   22.4584 C   0  0  0  0  0  0  0  0  0  0  0  0
  -27.9703  -25.1296   19.2760 C   0  0  0  0  0  0  0  0  0  0  0  0
  -19.4823   -7.8097   21.4154 C   0  0  0  0  0  0  0  0  0  0  0  0
  -18.2083   -7.7138   20.8558 C   0  0  0  0  0  0  0  0  0  0  0  0
  -25.8375  -25.4008   20.3702 C   0  0  0  0  0  0  0  0  0  0  0  0
  -18.9058   -5.7703   19.6013 C   0  0  0  0  0  0  0  0  0  0  0  0
  -23.8765  -10.4722   20.9533 C   0  0  0  0  0  0  0  0  0  0  0  0
  -24.1448  -13.0051   20.8108 C   0  0  0  0  0  0  0  0  0  0  0  0
  -28.3541  -33.5028   24.2994 C   0  0  0  0  0  0  0  0  0  0  0  0
  -27.0813  -27.3548   19.6670 C   0  0  0  0  0  0  0  0  0  0  0  0
  -28.7508  -32.2962   23.6920 C   0  0  0  0  0  0  0  0  0  0  0  0
  -25.9414  -26.7960   20.2624 C   0  0  0  0  0  0  0  0  0  0  0  0
  -22.4354   -8.1266   21.4046 C   0  0  0  0  0  0  0  0  0  0  0  0
  -26.8474  -24.5725   19.8811 C   0  0  0  0  0  0  0  0  0  0  0  0
  -20.4681   -6.8861   21.0680 C   0  0  0  0  0  0  0  0  0  0  0  0
  -17.9200   -6.6941   19.9487 C   0  0  0  0  0  0  0  0  0  0  0  0
  -20.1798   -5.8664   20.1610 C   0  0  0  0  0  0  0  0  0  0  0  0
  -24.6213  -11.6835   20.7208 C   0  0  0  0  0  0  0  0  0  0  0  0
  -25.2322  -13.7842   20.4992 C   0  0  0  0  0  0  0  0  0  0  0  0
  -22.8363  -13.4855   21.1463 C   0  0  0  0  0  0  0  0  0  0  0  0
  -28.3150  -20.2605   19.7198 C   0  0  0  0  0  0  0  0  0  0  0  0
  -26.9523  -29.6079   21.9055 C   0  0  0  0  0  0  0  0  0  0  0  0
  -23.9416  -30.0166   20.7693 C   0  0  0  0  0  0  0  0  0  0  0  0
  -21.2577  -28.6888   19.1321 C   0  0  0  0  0  0  0  0  0  0  0  0
  -30.7565  -14.6850   21.4554 C   0  0  0  0  0  0  0  0  0  0  0  0
  -27.0577  -33.6188   25.0613 C   0  0  0  0  0  0  0  0  0  0  0  0
  -27.2084  -28.8459   19.5160 C   0  0  0  0  0  0  0  0  0  0  0  0
  -24.8256  -27.6537   20.7988 C   0  0  0  0  0  0  0  0  0  0  0  0
  -26.0628  -32.5054   24.7436 C   0  0  0  0  0  0  0  0  0  0  0  0
  -27.0087  -21.4544   16.8389 C   0  0  0  0  0  0  0  0  0  0  0  0
  -29.7430  -12.5717   18.5827 C   0  0  0  0  0  0  0  0  0  0  0  0
  -26.7569  -31.1472   24.7645 C   0  0  0  0  0  0  0  0  0  0  0  0
  -26.6710  -20.3658   17.8505 C   0  0  0  0  0  0  0  0  0  0  0  0
  -28.3039  -12.2015   18.9386 C   0  0  0  0  0  0  0  0  0  0  0  0
  -26.7634  -22.7356   17.6137 C   0  0  0  0  0  0  0  0  0  0  0  0
  -30.1462  -17.7621   23.4290 C   0  0  0  0  0  0  0  0  0  0  0  0
  -28.2163  -17.4080   21.8524 C   0  0  0  0  0  0  0  0  0  0  0  0
  -30.5850  -12.8364   19.8271 C   0  0  0  0  0  0  0  0  0  0  0  0
  -31.0194  -16.8899   22.5316 C   0  0  0  0  0  0  0  0  0  0  0  0
  -29.1213  -16.5457   20.9794 C   0  0  0  0  0  0  0  0  0  0  0  0
  -28.5636  -13.4885   21.0958 C   0  0  0  0  0  0  0  0  0  0  0  0
  -27.8583  -31.0741   23.7000 C   0  0  1  0  0  0  0  0  0  0  0  0
  -27.0776  -20.9371   19.2137 C   0  0  2  0  0  0  0  0  0  0  0  0
  -26.3651  -29.6225   20.5225 C   0  0  1  0  0  0  0  0  0  0  0  0
  -27.6788  -13.2621   19.8612 C   0  0  2  0  0  0  0  0  0  0  0  0
  -27.3525  -22.4283   18.9846 C   0  0  2  0  0  0  0  0  0  1  0  0
  -28.9999  -18.4473   22.6703 C   0  0  0  0  0  0  0  0  0  0  0  0
  -18.9278  -29.2516   18.3889 C   0  0  0  0  0  0  0  0  0  0  0  0
  -22.9488  -29.6799   23.6347 C   0  0  0  0  0  0  0  0  0  0  0  0
  -20.6495  -29.3003   22.7196 C   0  0  0  0  0  0  0  0  0  0  0  0
  -21.7979  -31.4814   22.3368 C   0  0  0  0  0  0  0  0  0  0  0  0
  -21.9463  -28.2904   16.2815 C   0  0  0  0  0  0  0  0  0  0  0  0
  -29.5123  -19.5963   21.7953 C   0  0  0  0  0  0  0  0  0  0  0  0
  -22.5887  -29.4288   21.0905 C   0  0  1  0  0  0  0  0  0  0  0  0
  -20.3986  -29.2286   18.0029 C   0  0  2  0  0  0  0  0  0  0  0  0
  -22.0180  -29.9562   22.4371 C   0  0  0  0  0  0  0  0  0  0  0  0
  -25.9110  -11.6226   20.3785 N   0  0  0  0  0  0  0  0  0  0  0  0
  -26.2541  -12.9157   20.2508 N   0  0  0  0  0  0  0  0  0  0  0  0
  -24.9993  -29.1063   20.6331 N   0  0  0  0  0  0  0  0  0  0  0  0
  -29.9461  -13.8100   20.7126 N   0  0  0  0  0  0  0  0  0  0  0  0
  -30.2140  -15.9459   21.7570 N   0  0  0  0  0  0  0  0  0  0  0  0
  -25.4044  -15.1205   20.4161 N   0  0  0  0  0  0  0  0  0  0  0  0
  -21.8355  -12.5491   21.4393 N   0  0  0  0  0  0  0  0  0  0  0  0
  -27.2816  -30.8594   22.3901 N   0  0  0  0  0  0  0  0  0  0  0  0
  -28.4206  -20.1963   21.1088 N   0  0  0  0  0  0  0  0  0  0  0  0
  -21.7408  -29.7005   19.9348 N   0  0  0  0  0  0  0  0  0  0  0  0
  -20.5519  -28.3827   16.7856 N   0  3  0  0  0  0  0  0  0  0  0  0
  -22.5583  -14.7085   21.1690 O   0  0  0  0  0  0  0  0  0  0  0  0
  -29.1315  -19.8179   18.9203 O   0  0  0  0  0  0  0  0  0  0  0  0
  -27.0947  -28.5404   22.4902 O   0  0  0  0  0  0  0  0  0  0  0  0
  -24.0544  -31.2378   20.6368 O   0  0  0  0  0  0  0  0  0  0  0  0
  -21.4751  -27.4893   19.2888 O   0  0  0  0  0  0  0  0  0  0  0  0
  -31.8907  -14.3606   21.8282 O   0  0  0  0  0  0  0  0  0  0  0  0
  -28.1183  -19.0141   23.6446 O   0  0  0  0  0  0  0  0  0  0  0  0
  -21.7322   -6.9822   21.6251 O   0  0  0  0  0  0  0  0  0  0  0  0
  -26.7315  -23.2097   19.9918 O   0  0  0  0  0  0  0  0  0  1  0  0
  -16.6961   -6.6011   19.4125 F   0  0  0  0  0  0  0  0  0  0  0  0
  -21.1225   -4.9753   19.8243 F   0  0  0  0  0  0  0  0  0  0  0  0
  1  2  1  0  0  0  0
  1  5  2  0  0  0  0
  2  6  2  0  0  0  0
  3  8  2  0  0  0  0
  3 15  1  0  0  0  0
  4  9  1  0  0  0  0
  4 15  2  0  0  0  0
  5 17  1  0  0  0  0
  6 19  1  0  0  0  0
  7 10  2  0  0  0  0
  7 18  1  0  0  0  0
  8 21  1  0  0  0  0
  9 21  2  0  0  0  0
 10 22  1  0  0  0  0
 11 12  2  0  0  0  0
 11 23  1  0  0  0  0
 12 24  1  0  0  0  0
 13 20  1  0  0  0  0
 13 22  2  0  0  0  0
 14 24  2  0  0  0  0
 14 25  1  0  0  0  0
 15 26  1  0  0  0  0
 16 26  1  0  0  0  0
 16 27  2  0  0  0  0
 16 28  1  0  0  0  0
 17 19  2  0  0  0  0
 17 34  1  0  0  0  0
 18 20  2  0  0  0  0
 18 35  1  0  0  0  0
 19 50  1  0  0  0  0
 20 36  1  0  0  0  0
 21 83  1  0  0  0  0
 22 84  1  0  0  0  0
 23 25  2  0  0  0  0
 23 83  1  0  0  0  0
 24 85  1  0  0  0  0
 25 86  1  0  0  0  0
 26 65  2  0  0  0  0
 27 66  1  0  0  0  0
 27 70  1  0  0  0  0
 28 71  1  0  0  0  0
 28 76  2  0  0  0  0
 29 51  1  0  0  0  0
 29 73  1  0  0  0  0
 29 77  2  0  0  0  0
 30 52  1  0  0  0  0
 30 72  1  0  0  0  0
 30 78  2  0  0  0  0
 31 62  1  0  0  0  0
 31 67  1  0  0  0  0
 31 79  2  0  0  0  0
 32 63  1  0  0  0  0
 32 74  1  0  0  0  0
 32 80  2  0  0  0  0
 33 68  1  0  0  0  0
 33 69  1  0  0  0  0
 33 81  2  0  0  0  0
 34 37  1  0  0  0  0
 35 52  1  0  0  0  0
 36 67  1  0  0  0  0
 37 40  1  0  0  0  0
 38 41  1  0  0  0  0
 38 43  1  0  0  0  0
 39 42  1  0  0  0  0
 39 46  1  0  0  0  0
 40 50  1  0  0  0  0
 41 51  1  0  0  0  0
 42 53  1  0  0  0  0
 43 54  1  0  0  0  0
 44 47  1  0  0  0  0
 44 55  1  0  0  0  0
 45 48  1  0  0  0  0
 45 55  1  0  0  0  0
 46 68  1  0  0  0  0
 47 69  1  0  0  0  0
 48 69  1  0  0  0  0
 49 53  1  0  0  0  0
 49 68  1  0  0  0  0
 50 72  1  0  0  0  0
 51 54  1  0  0  0  0
 52 67  1  0  0  0  0
 53 66  1  0  0  0  0
 54 84  1  0  0  0  0
 55 61  1  0  0  0  0
 55 82  1  0  0  0  0
 56 63  1  0  0  0  0
 57 64  1  0  0  0  0
 58 64  1  0  0  0  0
 59 64  1  0  0  0  0
 60 75  1  0  0  0  0
 61 73  1  0  0  0  0
 62 64  1  0  0  0  0
 62 74  1  0  0  0  0
 63 75  1  0  0  0  0
 65 66  1  0  0  0  0
M  CHG  1  75   1
M  ISO  4  33 100  54 101  69 100  84 101
M  END
> <Batch ID>
0133

> <Smiles>
CNC(C)C(=O)NC(C(=O)N1Cc2cc([101O:1][101CH:1]3CCCC3C(=O)NCC3(O)CC[100N:0]([100C:0](=O)N4CCCC(n5nc(-c6ccc(Oc7ccc(F)cc7F)cc6)c(C(N)=O)c5N)C4)CC3)ccc2CC1C(=O)NC1CCCc2ccccc21)C(C)(C)C

> <Shape>
0.326

> <Color>
0.193

> <Negative vol penalty>
0.000

$$$$

  -OEChem-04052320553D

 87 95  0     1  0  0  0  0  0999 V2000
  -27.0442  -35.1428   14.9918 C   0  0  0  0  0  0  0  0  0  0  0  0
  -27.5603  -34.0706   15.7125 C   0  0  0  0  0  0  0  0  0  0  0  0
  -23.8954   -9.2532   19.9553 C   0  0  0  0  0  0  0  0  0  0  0  0
  -24.4671   -9.5640   22.2820 C   0  0  0  0  0  0  0  0  0  0  0  0
  -26.4939  -36.2331   15.6645 C   0  0  0  0  0  0  0  0  0  0  0  0
  -27.5273  -34.0885   17.1065 C   0  0  0  0  0  0  0  0  0  0  0  0
  -25.9988  -29.6781   19.0704 C   0  0  0  0  0  0  0  0  0  0  0  0
  -32.1024  -16.9136   22.9972 C   0  0  0  0  0  0  0  0  0  0  0  0
  -31.8341  -18.2398   23.3359 C   0  0  0  0  0  0  0  0  0  0  0  0
  -23.4634   -7.9567   20.2346 C   0  0  0  0  0  0  0  0  0  0  0  0
  -24.0351   -8.2675   22.5613 C   0  0  0  0  0  0  0  0  0  0  0  0
  -26.9315  -28.6427   19.1129 C   0  0  0  0  0  0  0  0  0  0  0  0
  -21.0942   -6.6713   23.0344 C   0  0  0  0  0  0  0  0  0  0  0  0
  -20.2952   -6.4849   24.1624 C   0  0  0  0  0  0  0  0  0  0  0  0
  -27.3408  -29.1153   21.4428 C   0  0  0  0  0  0  0  0  0  0  0  0
  -30.2056  -16.1947   24.3095 C   0  0  0  0  0  0  0  0  0  0  0  0
  -21.9461   -4.9804   25.0832 C   0  0  0  0  0  0  0  0  0  0  0  0
  -24.3973  -10.0569   20.9790 C   0  0  0  0  0  0  0  0  0  0  0  0
  -24.0746  -12.5744   20.7229 C   0  0  0  0  0  0  0  0  0  0  0  0
  -26.4455  -36.2600   17.0672 C   0  0  0  0  0  0  0  0  0  0  0  0
  -25.7377  -30.4482   20.2128 C   0  0  0  0  0  0  0  0  0  0  0  0
  -26.9771  -35.1807   17.7985 C   0  0  0  0  0  0  0  0  0  0  0  0
  -26.4025  -30.1582   21.4128 C   0  0  0  0  0  0  0  0  0  0  0  0
  -31.2881  -15.8910   23.4840 C   0  0  0  0  0  0  0  0  0  0  0  0
  -30.7516  -18.5435   24.1615 C   0  0  0  0  0  0  0  0  0  0  0  0
  -29.9373  -17.5209   24.6483 C   0  0  0  0  0  0  0  0  0  0  0  0
  -23.5333   -7.4638   21.5376 C   0  0  0  0  0  0  0  0  0  0  0  0
  -27.6048  -28.3630   20.2985 C   0  0  0  0  0  0  0  0  0  0  0  0
  -22.3191   -6.0121   22.9307 C   0  0  0  0  0  0  0  0  0  0  0  0
  -20.7211   -5.6395   25.1868 C   0  0  0  0  0  0  0  0  0  0  0  0
  -22.7451   -5.1667   23.9551 C   0  0  0  0  0  0  0  0  0  0  0  0
  -24.8442  -11.3961   20.6910 C   0  0  0  0  0  0  0  0  0  0  0  0
  -24.9552  -13.5692   20.3746 C   0  0  0  0  0  0  0  0  0  0  0  0
  -22.6877  -12.7537   21.0393 C   0  0  0  0  0  0  0  0  0  0  0  0
  -26.0494  -33.5204   20.9665 C   0  0  0  0  0  0  0  0  0  0  0  0
  -24.5396  -32.6044   23.6874 C   0  0  0  0  0  0  0  0  0  0  0  0
  -23.7640  -30.0947   25.8662 C   0  0  0  0  0  0  0  0  0  0  0  0
  -30.9093  -14.0654   20.7664 C   0  0  0  0  0  0  0  0  0  0  0  0
  -25.8837  -37.4814   17.7508 C   0  0  0  0  0  0  0  0  0  0  0  0
  -24.7091  -31.5443   20.1575 C   0  0  0  0  0  0  0  0  0  0  0  0
  -26.1434  -30.9422   22.6725 C   0  0  0  0  0  0  0  0  0  0  0  0
  -25.5476  -37.2552   19.2226 C   0  0  0  0  0  0  0  0  0  0  0  0
  -28.9285  -14.3269   17.8194 C   0  0  0  0  0  0  0  0  0  0  0  0
  -26.6929  -36.5350   19.9271 C   0  0  0  0  0  0  0  0  0  0  0  0
  -27.5877  -13.7118   18.2240 C   0  0  0  0  0  0  0  0  0  0  0  0
  -30.1027  -13.5997   18.4710 C   0  0  0  0  0  0  0  0  0  0  0  0
  -28.6786  -12.8647   20.3433 C   0  0  0  0  0  0  0  0  0  0  0  0
  -26.9371  -35.1521   19.3111 C   0  0  1  0  0  0  0  0  0  0  0  0
  -24.8980  -32.5964   21.2459 C   0  0  1  0  0  0  0  0  0  0  0  0
  -27.4617  -13.5994   19.7553 C   0  0  2  0  0  0  0  0  0  0  0  0
  -29.1999  -18.1305   26.9659 C   0  0  0  0  0  0  0  0  0  0  0  0
  -22.5474  -29.6595   28.0174 C   0  0  0  0  0  0  0  0  0  0  0  0
  -26.8389  -33.8724   25.2416 C   0  0  0  0  0  0  0  0  0  0  0  0
  -26.0796  -32.6050   27.2628 C   0  0  0  0  0  0  0  0  0  0  0  0
  -24.5707  -34.2891   26.2092 C   0  0  0  0  0  0  0  0  0  0  0  0
  -21.8954  -28.2062   24.5621 C   0  0  0  0  0  0  0  0  0  0  0  0
  -28.7730  -17.8221   25.5340 C   0  0  0  0  0  0  0  0  0  0  0  0
  -31.5755  -14.4731   23.1221 C   0  0  0  0  0  0  0  0  0  0  0  0
  -30.4835  -19.9772   24.5130 C   0  0  0  0  0  0  0  0  0  0  0  0
  -29.2897  -24.4597   22.6200 C   0  0  0  0  0  0  0  0  0  0  0  0
  -29.6786  -23.0071   22.3420 C   0  0  0  0  0  0  0  0  0  0  0  0
  -29.1096  -25.2453   21.3229 C   0  0  0  0  0  0  0  0  0  0  0  0
  -29.8909  -22.2409   23.6391 C   0  0  0  0  0  0  0  0  0  0  0  0
  -28.6808  -26.6811   21.5905 C   0  0  0  0  0  0  0  0  0  1  0  0
  -24.9839  -32.0886   25.0348 C   0  0  1  0  0  0  0  0  0  0  0  0
  -22.4479  -29.6820   26.5000 C   0  0  2  0  0  0  0  0  0  0  0  0
  -25.6248  -33.2001   25.9130 C   0  0  0  0  0  0  0  0  0  0  0  0
  -26.1158  -11.6199   20.3492 N   0  0  0  0  0  0  0  0  0  0  0  0
  -26.1520  -12.9503   20.1630 N   0  0  0  0  0  0  0  0  0  0  0  0
  -25.1334  -32.0080   22.5660 N   0  0  0  0  0  0  0  0  0  0  0  0
  -29.9225  -13.5288   19.9230 N   0  0  0  0  0  0  0  0  0  0  0  0
  -24.8147  -14.9042   20.2315 N   0  0  0  0  0  0  0  0  0  0  0  0
  -21.9279  -11.6251   21.3760 N   0  0  0  0  0  0  0  0  0  0  0  0
  -25.9410  -34.2097   19.7738 N   0  0  0  0  0  0  0  0  0  0  0  0
  -23.8154  -31.4530   25.6341 N   0  0  0  0  0  0  0  0  0  0  0  0
  -30.6571  -13.9622   22.1289 N   0  0  0  0  0  0  0  0  0  0  0  0
  -22.0527  -28.3225   26.0348 N   0  3  0  0  0  0  0  0  0  0  0  0
  -30.2209  -20.8306   23.3217 N   0  3  0  0  0  0  0  0  0  0  0  0
  -22.1346  -13.8791   21.0079 O   0  0  0  0  0  0  0  0  0  0  0  0
  -26.9675  -33.6030   21.7739 O   0  0  0  0  0  0  0  0  0  0  0  0
  -23.6915  -33.4985   23.6318 O   0  0  0  0  0  0  0  0  0  0  0  0
  -24.6587  -29.2930   25.6065 O   0  0  0  0  0  0  0  0  0  0  0  0
  -31.9362  -14.6019   20.3369 O   0  0  0  0  0  0  0  0  0  0  0  0
  -23.1116   -6.1988   21.8105 O   0  0  0  0  0  0  0  0  0  0  0  0
  -28.5162  -27.3534   20.3426 O   0  0  0  0  0  0  0  0  0  1  0  0
  -19.9544   -5.4619   26.2707 F   0  0  0  0  0  0  0  0  0  0  0  0
  -23.9214   -4.5317   23.8618 F   0  0  0  0  0  0  0  0  0  0  0  0
  1  2  1  0  0  0  0
  1  5  2  0  0  0  0
  2  6  2  0  0  0  0
  3 10  2  0  0  0  0
  3 18  1  0  0  0  0
  4 11  1  0  0  0  0
  4 18  2  0  0  0  0
  5 20  1  0  0  0  0
  6 22  1  0  0  0  0
  7 12  2  0  0  0  0
  7 21  1  0  0  0  0
  8  9  2  0  0  0  0
  8 24  1  0  0  0  0
  9 25  1  0  0  0  0
 10 27  1  0  0  0  0
 11 27  2  0  0  0  0
 12 28  1  0  0  0  0
 13 14  2  0  0  0  0
 13 29  1  0  0  0  0
 14 30  1  0  0  0  0
 15 23  1  0  0  0  0
 15 28  2  0  0  0  0
 16 24  2  0  0  0  0
 16 26  1  0  0  0  0
 17 30  2  0  0  0  0
 17 31  1  0  0  0  0
 18 32  1  0  0  0  0
 19 32  1  0  0  0  0
 19 33  2  0  0  0  0
 19 34  1  0  0  0  0
 20 22  2  0  0  0  0
 20 39  1  0  0  0  0
 21 23  2  0  0  0  0
 21 40  1  0  0  0  0
 22 48  1  0  0  0  0
 23 41  1  0  0  0  0
 24 58  1  0  0  0  0
 25 26  2  0  0  0  0
 25 59  1  0  0  0  0
 26 57  1  0  0  0  0
 27 84  1  0  0  0  0
 28 85  1  0  0  0  0
 29 31  2  0  0  0  0
 29 84  1  0  0  0  0
 30 86  1  0  0  0  0
 31 87  1  0  0  0  0
 32 68  2  0  0  0  0
 33 69  1  0  0  0  0
 33 72  1  0  0  0  0
 34 73  1  0  0  0  0
 34 79  2  0  0  0  0
 35 49  1  0  0  0  0
 35 74  1  0  0  0  0
 35 80  2  0  0  0  0
 36 65  1  0  0  0  0
 36 70  1  0  0  0  0
 36 81  2  0  0  0  0
 37 66  1  0  0  0  0
 37 75  1  0  0  0  0
 37 82  2  0  0  0  0
 38 71  1  0  0  0  0
 38 76  1  0  0  0  0
 38 83  2  0  0  0  0
 39 42  1  0  0  0  0
 40 49  1  0  0  0  0
 41 70  1  0  0  0  0
 42 44  1  0  0  0  0
 43 45  1  0  0  0  0
 43 46  1  0  0  0  0
 44 48  1  0  0  0  0
 45 50  1  0  0  0  0
 46 71  1  0  0  0  0
 47 50  1  0  0  0  0
 47 71  1  0  0  0  0
 48 74  1  0  0  0  0
 49 70  1  0  0  0  0
 50 69  1  0  0  0  0
 51 57  1  0  0  0  0
 52 66  1  0  0  0  0
 53 67  1  0  0  0  0
 54 67  1  0  0  0  0
 55 67  1  0  0  0  0
 56 77  1  0  0  0  0
 58 76  1  0  0  0  0
 59 78  1  0  0  0  0
 60 61  1  0  0  0  0
 60 62  1  0  0  0  0
 61 63  1  0  0  0  0
 62 64  1  0  0  0  0
 63 78  1  0  0  0  0
 64 85  1  0  0  0  0
 65 67  1  0  0  0  0
 65 75  1  0  0  0  0
 66 77  1  0  0  0  0
 68 69  1  0  0  0  0
M  CHG  2  77   1  78   1
M  ISO  4  38 100  64 101  76 100  85 101
M  END
> <Batch ID>
0133

> <Smiles>
CCc1cc(C[100NH:0][100C:0](=O)N2CCCC(n3nc(-c4ccc(Oc5ccc(F)cc5F)cc4)c(C(N)=O)c3N)C2)ccc1CNCCCC[101CH2:1][101O:1]c1ccc2c(c1)CN(C(=O)C(NC(=O)C(C)NC)C(C)(C)C)C(C(=O)NC1CCCc3ccccc31)C2

> <Shape>
0.266

> <Color>
0.145

> <Negative vol penalty>
0.000

$$$$

  -OEChem-04052320553D

 86 94  0     1  0  0  0  0  0999 V2000
  -16.6396  -29.9498   23.8884 C   0  0  0  0  0  0  0  0  0  0  0  0
  -17.7581  -30.6405   24.3436 C   0  0  0  0  0  0  0  0  0  0  0  0
  -28.9447  -20.9085   21.8542 C   0  0  0  0  0  0  0  0  0  0  0  0
  -30.8671  -21.9702   22.8612 C   0  0  0  0  0  0  0  0  0  0  0  0
  -16.7971  -28.7546   23.1879 C   0  0  0  0  0  0  0  0  0  0  0  0
  -19.0349  -30.1358   24.0994 C   0  0  0  0  0  0  0  0  0  0  0  0
  -25.7432  -32.2997   22.8216 C   0  0  0  0  0  0  0  0  0  0  0  0
  -29.1769  -19.7642   22.6173 C   0  0  0  0  0  0  0  0  0  0  0  0
  -31.0993  -20.8259   23.6244 C   0  0  0  0  0  0  0  0  0  0  0  0
  -27.0437  -32.1077   23.2858 C   0  0  0  0  0  0  0  0  0  0  0  0
  -31.2520  -17.0974   22.5389 C   0  0  0  0  0  0  0  0  0  0  0  0
  -31.1744  -15.8628   21.8944 C   0  0  0  0  0  0  0  0  0  0  0  0
  -27.1973  -30.0747   21.9964 C   0  0  0  0  0  0  0  0  0  0  0  0
  -29.3989  -15.1937   23.3901 C   0  0  0  0  0  0  0  0  0  0  0  0
  -29.7898  -22.0115   21.9761 C   0  0  0  0  0  0  0  0  0  0  0  0
  -28.7561  -24.3019   21.5368 C   0  0  0  0  0  0  0  0  0  0  0  0
  -18.0768  -28.2400   22.9266 C   0  0  0  0  0  0  0  0  0  0  0  0
  -25.1550  -31.3734   21.9484 C   0  0  0  0  0  0  0  0  0  0  0  0
  -19.2096  -28.9320   23.3959 C   0  0  0  0  0  0  0  0  0  0  0  0
  -25.8901  -30.2586   21.5205 C   0  0  0  0  0  0  0  0  0  0  0  0
  -30.2542  -19.7229   23.5024 C   0  0  0  0  0  0  0  0  0  0  0  0
  -27.7700  -30.9935   22.8755 C   0  0  0  0  0  0  0  0  0  0  0  0
  -30.4032  -17.3801   23.6090 C   0  0  0  0  0  0  0  0  0  0  0  0
  -30.2479  -14.9109   22.3200 C   0  0  0  0  0  0  0  0  0  0  0  0
  -29.4766  -16.4283   24.0346 C   0  0  0  0  0  0  0  0  0  0  0  0
  -29.5508  -23.1936   21.1877 C   0  0  0  0  0  0  0  0  0  0  0  0
  -28.8544  -25.1479   20.4593 C   0  0  0  0  0  0  0  0  0  0  0  0
  -27.9970  -24.5450   22.7286 C   0  0  0  0  0  0  0  0  0  0  0  0
  -22.6249  -29.4543   22.0860 C   0  0  0  0  0  0  0  0  0  0  0  0
  -23.3819  -28.8769   18.9851 C   0  0  0  0  0  0  0  0  0  0  0  0
  -25.7635  -28.8498   16.5408 C   0  0  0  0  0  0  0  0  0  0  0  0
  -33.0081  -25.8698   16.2076 C   0  0  0  0  0  0  0  0  0  0  0  0
  -18.1953  -26.9202   22.2065 C   0  0  0  0  0  0  0  0  0  0  0  0
  -23.7608  -31.6090   21.4357 C   0  0  0  0  0  0  0  0  0  0  0  0
  -25.3116  -29.2454   20.5681 C   0  0  0  0  0  0  0  0  0  0  0  0
  -19.5955  -26.6460   21.6638 C   0  0  0  0  0  0  0  0  0  0  0  0
  -29.5612  -25.1180   15.7274 C   0  0  0  0  0  0  0  0  0  0  0  0
  -20.6484  -26.9508   22.7247 C   0  0  0  0  0  0  0  0  0  0  0  0
  -29.0960  -24.6396   17.1039 C   0  0  0  0  0  0  0  0  0  0  0  0
  -30.9886  -24.6668   15.4259 C   0  0  0  0  0  0  0  0  0  0  0  0
  -31.5174  -24.5500   17.8302 C   0  0  0  0  0  0  0  0  0  0  0  0
  -34.0401  -29.9546   17.8483 C   0  0  0  0  0  0  0  0  0  0  0  0
  -34.0413  -29.0860   20.1777 C   0  0  0  0  0  0  0  0  0  0  0  0
  -32.7870  -30.7342   18.2065 C   0  0  0  0  0  0  0  0  0  0  0  0
  -20.6119  -28.4294   23.1293 C   0  0  1  0  0  0  0  0  0  0  0  0
  -23.0776  -30.3327   20.9542 C   0  0  1  0  0  0  0  0  0  0  0  0
  -30.1035  -25.0281   18.2026 C   0  0  2  0  0  0  0  0  0  0  0  0
  -32.7791  -29.9086   20.4210 C   0  0  1  0  0  0  0  0  0  0  0  0
  -26.0912  -28.2933   14.1159 C   0  0  0  0  0  0  0  0  0  0  0  0
  -31.8490  -34.0940   22.9094 C   0  0  0  0  0  0  0  0  0  0  0  0
  -32.2347  -33.2721   25.2439 C   0  0  0  0  0  0  0  0  0  0  0  0
  -23.3885  -25.9037   19.6707 C   0  0  0  0  0  0  0  0  0  0  0  0
  -24.6206  -25.4845   17.5319 C   0  0  0  0  0  0  0  0  0  0  0  0
  -22.3280  -26.4660   17.4767 C   0  0  0  0  0  0  0  0  0  0  0  0
  -26.5289  -31.6326   15.8861 C   0  0  0  0  0  0  0  0  0  0  0  0
  -32.7066  -30.3664   21.8613 C   0  0  0  0  0  0  0  0  0  0  0  0
  -34.9896  -27.0345   17.1436 C   0  0  0  0  0  0  0  0  0  0  0  0
  -35.2766  -27.8522   18.3891 C   0  0  0  0  0  0  0  0  0  0  0  0
  -29.8009  -31.9702   23.6351 C   0  0  0  0  0  0  0  0  0  1  0  0
  -24.2652  -27.8854   18.2670 C   0  0  1  0  0  0  0  0  0  0  0  0
  -25.7550  -29.3847   15.1202 C   0  0  2  0  0  0  0  0  0  0  0  0
  -32.2026  -32.8725   23.7655 C   0  0  0  0  0  0  0  0  0  0  0  0
  -31.2878  -31.6673   23.4529 C   0  0  2  0  0  0  0  0  0  0  0  0
  -23.6611  -26.4528   18.2561 C   0  0  0  0  0  0  0  0  0  0  0  0
  -30.1124  -23.3210   19.9826 N   0  0  0  0  0  0  0  0  0  0  0  0
  -29.6700  -24.5193   19.5650 N   0  0  0  0  0  0  0  0  0  0  0  0
  -23.9424  -29.5165   20.0998 N   0  0  0  0  0  0  0  0  0  0  0  0
  -31.8941  -25.0676   16.5054 N   0  0  0  0  0  0  0  0  0  0  0  0
  -28.3218  -26.3608   20.1990 N   0  0  0  0  0  0  0  0  0  0  0  0
  -28.0058  -23.5713   23.7366 N   0  0  0  0  0  0  0  0  0  0  0  0
  -21.2596  -29.2446   22.1241 N   0  0  0  0  0  0  0  0  0  0  0  0
  -24.5085  -28.4414   16.9403 N   0  0  0  0  0  0  0  0  0  0  0  0
  -33.8112  -26.2095   17.2895 N   0  0  0  0  0  0  0  0  0  0  0  0
  -34.0926  -28.7176   18.7128 N   0  3  2  0  0  0  0  0  0  0  0  0
  -26.7530  -30.4818   14.9738 N   0  3  0  0  0  0  0  0  0  0  0  0
  -31.4906  -31.1960   22.0498 N   0  3  0  0  0  0  0  0  0  0  0  0
  -27.3174  -25.5873   22.8878 O   0  0  0  0  0  0  0  0  0  0  0  0
  -23.4531  -28.9991   22.8661 O   0  0  0  0  0  0  0  0  0  0  0  0
  -22.2393  -29.0818   18.5680 O   0  0  0  0  0  0  0  0  0  0  0  0
  -26.7822  -28.7958   17.2262 O   0  0  0  0  0  0  0  0  0  0  0  0
  -33.2648  -26.2591   15.0633 O   0  0  0  0  0  0  0  0  0  0  0  0
  -32.7887  -31.0770   19.5928 O   0  0  0  0  0  0  0  0  0  0  0  0
  -30.4809  -18.6066   24.2473 O   0  0  0  0  0  0  0  0  0  0  0  0
  -29.0393  -30.8033   23.3276 O   0  0  0  0  0  0  0  0  0  1  0  0
  -30.1724  -13.7260   21.7001 F   0  0  0  0  0  0  0  0  0  0  0  0
  -28.6576  -16.6946   25.0613 F   0  0  0  0  0  0  0  0  0  0  0  0
  1  2  1  0  0  0  0
  1  5  2  0  0  0  0
  2  6  2  0  0  0  0
  3  8  2  0  0  0  0
  3 15  1  0  0  0  0
  4  9  1  0  0  0  0
  4 15  2  0  0  0  0
  5 17  1  0  0  0  0
  6 19  1  0  0  0  0
  7 10  2  0  0  0  0
  7 18  1  0  0  0  0
  8 21  1  0  0  0  0
  9 21  2  0  0  0  0
 10 22  1  0  0  0  0
 11 12  2  0  0  0  0
 11 23  1  0  0  0  0
 12 24  1  0  0  0  0
 13 20  1  0  0  0  0
 13 22  2  0  0  0  0
 14 24  2  0  0  0  0
 14 25  1  0  0  0  0
 15 26  1  0  0  0  0
 16 26  1  0  0  0  0
 16 27  2  0  0  0  0
 16 28  1  0  0  0  0
 17 19  2  0  0  0  0
 17 33  1  0  0  0  0
 18 20  2  0  0  0  0
 18 34  1  0  0  0  0
 19 45  1  0  0  0  0
 20 35  1  0  0  0  0
 21 83  1  0  0  0  0
 22 84  1  0  0  0  0
 23 25  2  0  0  0  0
 23 83  1  0  0  0  0
 24 85  1  0  0  0  0
 25 86  1  0  0  0  0
 26 65  2  0  0  0  0
 27 66  1  0  0  0  0
 27 69  1  0  0  0  0
 28 70  1  0  0  0  0
 28 77  2  0  0  0  0
 29 46  1  0  0  0  0
 29 71  1  0  0  0  0
 29 78  2  0  0  0  0
 30 60  1  0  0  0  0
 30 67  1  0  0  0  0
 30 79  2  0  0  0  0
 31 61  1  0  0  0  0
 31 72  1  0  0  0  0
 31 80  2  0  0  0  0
 32 68  1  0  0  0  0
 32 73  1  0  0  0  0
 32 81  2  0  0  0  0
 33 36  1  0  0  0  0
 34 46  1  0  0  0  0
 35 67  1  0  0  0  0
 36 38  1  0  0  0  0
 37 39  1  0  0  0  0
 37 40  1  0  0  0  0
 38 45  1  0  0  0  0
 39 47  1  0  0  0  0
 40 68  1  0  0  0  0
 41 47  1  0  0  0  0
 41 68  1  0  0  0  0
 42 44  1  0  0  0  0
 42 74  1  0  0  0  0
 43 48  1  0  0  0  0
 43 74  1  0  0  0  0
 44 82  1  0  0  0  0
 45 71  1  0  0  0  0
 46 67  1  0  0  0  0
 47 66  1  0  0  0  0
 48 56  1  0  0  0  0
 48 82  1  0  0  0  0
 49 61  1  0  0  0  0
 50 62  1  0  0  0  0
 51 62  1  0  0  0  0
 52 64  1  0  0  0  0
 53 64  1  0  0  0  0
 54 64  1  0  0  0  0
 55 75  1  0  0  0  0
 56 76  1  0  0  0  0
 57 58  1  0  0  0  0
 57 73  1  0  0  0  0
 58 74  1  0  0  0  0
 59 63  1  0  0  0  0
 59 84  1  0  0  0  0
 60 64  1  0  0  0  0
 60 72  1  0  0  0  0
 61 75  1  0  0  0  0
 62 63  1  0  0  0  0
 63 76  1  0  0  0  0
 65 66  1  0  0  0  0
M  CHG  3  74   1  75   1  76   1
M  ISO  4  32 100  59 101  73 100  84 101
M  END
> <Batch ID>
0133

> <Smiles>
CNC(C)C(=O)NC(C(=O)N1Cc2cc([101O:1][101CH2:1]C(NCC3CN(CC[100NH:0][100C:0](=O)N4CCCC(n5nc(-c6ccc(Oc7ccc(F)cc7F)cc6)c(C(N)=O)c5N)C4)CCO3)C(C)C)ccc2CC1C(=O)NC1CCCc2ccccc21)C(C)(C)C

> <Shape>
0.225

> <Color>
0.100

> <Negative vol penalty>
0.000

$$$$

  -OEChem-04052320553D

 85 94  0     1  0  0  0  0  0999 V2000
  -16.3434  -29.8967   23.6337 C   0  0  0  0  0  0  0  0  0  0  0  0
  -16.8706  -29.6526   22.3696 C   0  0  0  0  0  0  0  0  0  0  0  0
  -25.4796  -15.9515   21.6321 C   0  0  0  0  0  0  0  0  0  0  0  0
  -25.1835  -16.1843   19.2456 C   0  0  0  0  0  0  0  0  0  0  0  0
  -17.1658  -29.8216   24.7571 C   0  0  0  0  0  0  0  0  0  0  0  0
  -18.2208  -29.3343   22.2281 C   0  0  0  0  0  0  0  0  0  0  0  0
  -22.6382  -25.4204   18.1680 C   0  0  0  0  0  0  0  0  0  0  0  0
  -24.2542  -15.2911   21.7197 C   0  0  0  0  0  0  0  0  0  0  0  0
  -23.9580  -15.5239   19.3332 C   0  0  0  0  0  0  0  0  0  0  0  0
  -23.8069  -25.5459   17.4182 C   0  0  0  0  0  0  0  0  0  0  0  0
  -23.0457  -12.1918   21.1137 C   0  0  0  0  0  0  0  0  0  0  0  0
  -22.9869  -11.0350   21.8907 C   0  0  0  0  0  0  0  0  0  0  0  0
  -25.1145  -25.3669   19.4374 C   0  0  0  0  0  0  0  0  0  0  0  0
  -21.3137  -12.0646   23.2969 C   0  0  0  0  0  0  0  0  0  0  0  0
  -25.9443  -16.3981   20.3950 C   0  0  0  0  0  0  0  0  0  0  0  0
  -28.4749  -16.5015   20.0902 C   0  0  0  0  0  0  0  0  0  0  0  0
  -18.5246  -29.4927   24.6302 C   0  0  0  0  0  0  0  0  0  0  0  0
  -22.6987  -25.2779   19.5617 C   0  0  0  0  0  0  0  0  0  0  0  0
  -19.0624  -29.2560   23.3508 C   0  0  0  0  0  0  0  0  0  0  0  0
  -23.9453  -25.2372   20.2023 C   0  0  0  0  0  0  0  0  0  0  0  0
  -23.4934  -15.0773   20.5703 C   0  0  0  0  0  0  0  0  0  0  0  0
  -25.0452  -25.5221   18.0531 C   0  0  0  0  0  0  0  0  0  0  0  0
  -22.2386  -13.2851   21.4283 C   0  0  0  0  0  0  0  0  0  0  0  0
  -22.1209  -10.9713   22.9823 C   0  0  0  0  0  0  0  0  0  0  0  0
  -21.3726  -13.2215   22.5199 C   0  0  0  0  0  0  0  0  0  0  0  0
  -27.2098  -17.0809   20.3039 C   0  0  0  0  0  0  0  0  0  0  0  0
  -29.3435  -17.5654   20.0854 C   0  0  0  0  0  0  0  0  0  0  0  0
  -28.8329  -15.1246   19.9119 C   0  0  0  0  0  0  0  0  0  0  0  0
  -21.6591  -26.9787   22.0377 C   0  0  0  0  0  0  0  0  0  0  0  0
  -22.7292  -24.4319   23.7380 C   0  0  0  0  0  0  0  0  0  0  0  0
  -24.8169  -21.7382   23.9165 C   0  0  0  0  0  0  0  0  0  0  0  0
  -30.6946  -22.5953   18.4057 C   0  0  0  0  0  0  0  0  0  0  0  0
  -19.3847  -29.4698   25.8690 C   0  0  0  0  0  0  0  0  0  0  0  0
  -21.4299  -25.1168   20.3533 C   0  0  0  0  0  0  0  0  0  0  0  0
  -24.0652  -25.0659   21.6939 C   0  0  0  0  0  0  0  0  0  0  0  0
  -20.7209  -28.7591   25.6697 C   0  0  0  0  0  0  0  0  0  0  0  0
  -28.6316  -22.4055   21.3731 C   0  0  0  0  0  0  0  0  0  0  0  0
  -21.3845  -29.2226   24.3768 C   0  0  0  0  0  0  0  0  0  0  0  0
  -28.1816  -20.9439   21.3376 C   0  0  0  0  0  0  0  0  0  0  0  0
  -27.5007  -26.4538   15.4897 C   0  0  0  0  0  0  0  0  0  0  0  0
  -28.6975  -22.9979   19.9685 C   0  0  0  0  0  0  0  0  0  0  0  0
  -29.1117  -20.7775   18.9824 C   0  0  0  0  0  0  0  0  0  0  0  0
  -27.0154  -29.6543   15.3325 C   0  0  0  0  0  0  0  0  0  0  0  0
  -24.9129  -28.5647   15.4329 C   0  0  0  0  0  0  0  0  0  0  0  0
  -20.5166  -28.8835   23.1589 C   0  0  1  0  0  0  0  0  0  0  0  0
  -21.5907  -25.4931   21.8230 C   0  0  1  0  0  0  0  0  0  0  0  0
  -27.1395  -28.6297   16.4524 C   0  0  1  0  0  0  0  0  0  0  0  0
  -25.7891  -27.8720   16.4705 C   0  0  2  0  0  0  0  0  0  0  0  0
  -28.2167  -27.5515   16.2823 C   0  0  2  0  0  0  0  0  0  0  0  0
  -29.0467  -20.1145   20.3703 C   0  0  2  0  0  0  0  0  0  0  0  0
  -26.1123  -26.4136   16.1247 C   0  0  2  0  0  0  0  0  0  1  0  0
  -25.4926  -19.8676   25.4468 C   0  0  0  0  0  0  0  0  0  0  0  0
  -30.1364  -29.1640   16.4346 C   0  0  0  0  0  0  0  0  0  0  0  0
  -24.3606  -26.3935   25.4115 C   0  0  0  0  0  0  0  0  0  0  0  0
  -25.6999  -24.4532   26.2538 C   0  0  0  0  0  0  0  0  0  0  0  0
  -23.2527  -24.5742   26.7220 C   0  0  0  0  0  0  0  0  0  0  0  0
  -23.9311  -19.6807   21.9822 C   0  0  0  0  0  0  0  0  0  0  0  0
  -32.1933  -24.5120   17.9186 C   0  0  0  0  0  0  0  0  0  0  0  0
  -31.8583  -25.0819   16.5528 C   0  0  0  0  0  0  0  0  0  0  0  0
  -30.5113  -26.8571   15.4246 C   0  0  0  0  0  0  0  0  0  0  0  0
  -24.0417  -24.0491   24.3781 C   0  0  1  0  0  0  0  0  0  0  0  0
  -24.5678  -20.2955   24.3179 C   0  0  2  0  0  0  0  0  0  0  0  0
  -29.5168  -28.0082   15.6408 C   0  0  1  0  0  0  0  0  0  0  0  0
  -24.3367  -24.8727   25.6634 C   0  0  0  0  0  0  0  0  0  0  0  0
  -27.2654  -18.4098   20.4262 N   0  0  0  0  0  0  0  0  0  0  0  0
  -28.5759  -18.6742   20.2889 N   0  0  0  0  0  0  0  0  0  0  0  0
  -22.7958  -24.9188   22.4249 N   0  0  0  0  0  0  0  0  0  0  0  0
  -29.5512  -22.1717   19.1031 N   0  0  0  0  0  0  0  0  0  0  0  0
  -30.6814  -17.6513   19.9270 N   0  0  0  0  0  0  0  0  0  0  0  0
  -27.8163  -14.1603   19.9447 N   0  0  0  0  0  0  0  0  0  0  0  0
  -20.6404  -27.4808   22.8248 N   0  0  0  0  0  0  0  0  0  0  0  0
  -23.9863  -22.6070   24.5920 N   0  0  0  0  0  0  0  0  0  0  0  0
  -31.0390  -23.9316   18.5680 N   0  0  0  0  0  0  0  0  0  0  0  0
  -25.5466  -29.9054   15.2708 N   0  3  0  0  0  0  0  0  0  0  0  0
  -24.7924  -19.3886   23.1569 N   0  3  0  0  0  0  0  0  0  0  0  0
  -30.8658  -26.1825   16.6958 N   0  3  0  0  0  0  0  0  0  0  0  0
  -30.0211  -14.7586   19.7453 O   0  0  0  0  0  0  0  0  0  0  0  0
  -22.5695  -27.6215   21.5281 O   0  0  0  0  0  0  0  0  0  0  0  0
  -21.6827  -24.2970   24.3769 O   0  0  0  0  0  0  0  0  0  0  0  0
  -25.6662  -22.0622   23.0893 O   0  0  0  0  0  0  0  0  0  0  0  0
  -31.3629  -21.8371   17.6946 O   0  0  0  0  0  0  0  0  0  0  0  0
  -22.2976  -14.4327   20.6554 O   0  0  0  0  0  0  0  0  0  0  0  0
  -26.1874  -25.6450   17.3236 O   0  0  0  0  0  0  0  0  0  1  0  0
  -22.0634   -9.8597   23.7275 F   0  0  0  0  0  0  0  0  0  0  0  0
  -20.5939  -14.2681   22.8264 F   0  0  0  0  0  0  0  0  0  0  0  0
  1  2  1  0  0  0  0
  1  5  2  0  0  0  0
  2  6  2  0  0  0  0
  3  8  2  0  0  0  0
  3 15  1  0  0  0  0
  4  9  1  0  0  0  0
  4 15  2  0  0  0  0
  5 17  1  0  0  0  0
  6 19  1  0  0  0  0
  7 10  2  0  0  0  0
  7 18  1  0  0  0  0
  8 21  1  0  0  0  0
  9 21  2  0  0  0  0
 10 22  1  0  0  0  0
 11 12  2  0  0  0  0
 11 23  1  0  0  0  0
 12 24  1  0  0  0  0
 13 20  1  0  0  0  0
 13 22  2  0  0  0  0
 14 24  2  0  0  0  0
 14 25  1  0  0  0  0
 15 26  1  0  0  0  0
 16 26  1  0  0  0  0
 16 27  2  0  0  0  0
 16 28  1  0  0  0  0
 17 19  2  0  0  0  0
 17 33  1  0  0  0  0
 18 20  2  0  0  0  0
 18 34  1  0  0  0  0
 19 45  1  0  0  0  0
 20 35  1  0  0  0  0
 21 82  1  0  0  0  0
 22 83  1  0  0  0  0
 23 25  2  0  0  0  0
 23 82  1  0  0  0  0
 24 84  1  0  0  0  0
 25 85  1  0  0  0  0
 26 65  2  0  0  0  0
 27 66  1  0  0  0  0
 27 69  1  0  0  0  0
 28 70  1  0  0  0  0
 28 77  2  0  0  0  0
 29 46  1  0  0  0  0
 29 71  1  0  0  0  0
 29 78  2  0  0  0  0
 30 61  1  0  0  0  0
 30 67  1  0  0  0  0
 30 79  2  0  0  0  0
 31 62  1  0  0  0  0
 31 72  1  0  0  0  0
 31 80  2  0  0  0  0
 32 68  1  0  0  0  0
 32 73  1  0  0  0  0
 32 81  2  0  0  0  0
 33 36  1  0  0  0  0
 34 46  1  0  0  0  0
 35 67  1  0  0  0  0
 36 38  1  0  0  0  0
 37 39  1  0  0  0  0
 37 41  1  0  0  0  0
 38 45  1  0  0  0  0
 39 50  1  0  0  0  0
 40 49  1  0  0  0  0
 40 51  1  0  0  0  0
 41 68  1  0  0  0  0
 42 50  1  0  0  0  0
 42 68  1  0  0  0  0
 43 47  1  0  0  0  0
 43 74  1  0  0  0  0
 44 48  1  0  0  0  0
 44 74  1  0  0  0  0
 45 71  1  0  0  0  0
 46 67  1  0  0  0  0
 47 48  1  0  0  0  0
 47 49  1  0  0  0  0
 48 51  1  0  0  0  0
 49 63  1  0  0  0  0
 50 66  1  0  0  0  0
 51 83  1  0  0  0  0
 52 62  1  0  0  0  0
 53 63  1  0  0  0  0
 54 64  1  0  0  0  0
 55 64  1  0  0  0  0
 56 64  1  0  0  0  0
 57 75  1  0  0  0  0
 58 59  1  0  0  0  0
 58 73  1  0  0  0  0
 59 76  1  0  0  0  0
 60 63  1  0  0  0  0
 60 76  1  0  0  0  0
 61 64  1  0  0  0  0
 61 72  1  0  0  0  0
 62 75  1  0  0  0  0
 65 66  1  0  0  0  0
M  CHG  3  74   1  75   1  76   1
M  ISO  4  32 100  51 101  73 100  83 101
M  END
> <Batch ID>
0133

> <Smiles>
CNC(C)C(=O)NC(C(=O)N1Cc2cc([101O:1][101CH:1]3CC(C(C)CNCC[100NH:0][100C:0](=O)N4CCCC(n5nc(-c6ccc(Oc7ccc(F)cc7F)cc6)c(C(N)=O)c5N)C4)C4CNCC43)ccc2CC1C(=O)NC1CCCc2ccccc21)C(C)(C)C

> <Shape>
0.186

> <Color>
0.050

> <Negative vol penalty>
0.000

$$$$

  -OEChem-04052320553D

 82 90  0     1  0  0  0  0  0999 V2000
  -18.9160  -26.5034   24.1584 C   0  0  0  0  0  0  0  0  0  0  0  0
  -19.9314  -26.2033   23.2561 C   0  0  0  0  0  0  0  0  0  0  0  0
  -24.0246  -18.1355   16.2122 C   0  0  0  0  0  0  0  0  0  0  0  0
  -24.6677   -9.0624   21.9918 C   0  0  0  0  0  0  0  0  0  0  0  0
  -23.3913   -9.8767   20.1090 C   0  0  0  0  0  0  0  0  0  0  0  0
  -18.2989  -27.7531   24.1214 C   0  0  0  0  0  0  0  0  0  0  0  0
  -20.3296  -27.1525   22.3154 C   0  0  0  0  0  0  0  0  0  0  0  0
  -25.3663  -27.5107   21.9291 C   0  0  0  0  0  0  0  0  0  0  0  0
  -24.0832  -19.4626   16.6374 C   0  0  0  0  0  0  0  0  0  0  0  0
  -24.8336  -17.1731   16.8165 C   0  0  0  0  0  0  0  0  0  0  0  0
  -23.5191   -8.4667   22.5128 C   0  0  0  0  0  0  0  0  0  0  0  0
  -22.2427   -9.2810   20.6300 C   0  0  0  0  0  0  0  0  0  0  0  0
  -26.0207  -26.5211   21.1969 C   0  0  0  0  0  0  0  0  0  0  0  0
  -21.6951   -5.6726   21.9659 C   0  0  0  0  0  0  0  0  0  0  0  0
  -21.8029   -4.3679   22.4473 C   0  0  0  0  0  0  0  0  0  0  0  0
  -26.1399  -28.0100   19.3027 C   0  0  0  0  0  0  0  0  0  0  0  0
  -25.7599  -18.8651   18.2711 C   0  0  0  0  0  0  0  0  0  0  0  0
  -21.1062   -5.1178   24.6358 C   0  0  0  0  0  0  0  0  0  0  0  0
  -24.6038   -9.7675   20.7899 C   0  0  0  0  0  0  0  0  0  0  0  0
  -26.7222   -9.8056   19.3691 C   0  0  0  0  0  0  0  0  0  0  0  0
  -18.6963  -28.7215   23.1861 C   0  0  0  0  0  0  0  0  0  0  0  0
  -25.0836  -28.7557   21.3491 C   0  0  0  0  0  0  0  0  0  0  0  0
  -19.7164  -28.4159   22.2650 C   0  0  0  0  0  0  0  0  0  0  0  0
  -25.4841  -29.0146   20.0305 C   0  0  0  0  0  0  0  0  0  0  0  0
  -24.9509  -19.8275   17.6668 C   0  0  0  0  0  0  0  0  0  0  0  0
  -25.7013  -17.5379   17.8459 C   0  0  0  0  0  0  0  0  0  0  0  0
  -22.3066   -8.5760   21.8319 C   0  0  0  0  0  0  0  0  0  0  0  0
  -26.4050  -26.7696   19.8825 C   0  0  0  0  0  0  0  0  0  0  0  0
  -21.2930   -6.7000   22.8195 C   0  0  0  0  0  0  0  0  0  0  0  0
  -21.5085   -4.0905   23.7822 C   0  0  0  0  0  0  0  0  0  0  0  0
  -20.9985   -6.4225   24.1544 C   0  0  0  0  0  0  0  0  0  0  0  0
  -25.7898  -10.3835   20.2514 C   0  0  0  0  0  0  0  0  0  0  0  0
  -27.6556  -10.7917   19.1618 C   0  0  0  0  0  0  0  0  0  0  0  0
  -26.7428   -8.4947   18.7889 C   0  0  0  0  0  0  0  0  0  0  0  0
  -22.4272  -30.3731   20.6923 C   0  0  0  0  0  0  0  0  0  0  0  0
  -24.5191  -32.7121   19.8705 C   0  0  0  0  0  0  0  0  0  0  0  0
  -27.6630  -33.5591   18.8481 C   0  0  0  0  0  0  0  0  0  0  0  0
  -27.4377  -16.7538   19.4940 C   0  0  0  0  0  0  0  0  0  0  0  0
  -17.9674  -30.0415   23.1536 C   0  0  0  0  0  0  0  0  0  0  0  0
  -24.4008  -29.8220   22.1610 C   0  0  0  0  0  0  0  0  0  0  0  0
  -25.2223  -30.3417   19.3682 C   0  0  0  0  0  0  0  0  0  0  0  0
  -18.7043  -31.1250   22.3704 C   0  0  0  0  0  0  0  0  0  0  0  0
  -29.6198  -14.5987   21.3026 C   0  0  0  0  0  0  0  0  0  0  0  0
  -19.1988  -30.5762   21.0358 C   0  0  0  0  0  0  0  0  0  0  0  0
  -28.9734  -13.2196   21.1528 C   0  0  0  0  0  0  0  0  0  0  0  0
  -28.5737  -15.7036   21.4386 C   0  0  0  0  0  0  0  0  0  0  0  0
  -26.9077  -14.3477   20.2323 C   0  0  0  0  0  0  0  0  0  0  0  0
  -20.1932  -29.4279   21.2459 C   0  0  1  0  0  0  0  0  0  0  0  0
  -23.7059  -30.8740   21.3020 C   0  0  1  0  0  0  0  0  0  0  0  0
  -27.9209  -13.2098   20.0269 C   0  0  2  0  0  0  0  0  0  0  0  0
  -29.0630  -35.5459   18.2235 C   0  0  0  0  0  0  0  0  0  0  0  0
  -23.0995  -32.8615   17.1738 C   0  0  0  0  0  0  0  0  0  0  0  0
  -25.0699  -34.1247   16.2850 C   0  0  0  0  0  0  0  0  0  0  0  0
  -23.7177  -35.0788   18.1515 C   0  0  0  0  0  0  0  0  0  0  0  0
  -29.5803  -33.0442   21.0431 C   0  0  0  0  0  0  0  0  0  0  0  0
  -25.0136  -21.2561   18.1241 C   0  0  0  0  0  0  0  0  0  0  0  0
  -26.0421  -22.0984   17.3763 C   0  0  0  0  0  0  0  0  0  0  0  0
  -27.0074  -24.3966   17.2168 C   0  0  0  0  0  0  0  0  0  0  0  0
  -26.8403  -25.8047   17.7529 C   0  0  0  0  0  0  0  0  0  1  0  0
  -25.2360  -33.1081   18.6023 C   0  0  1  0  0  0  0  0  0  0  0  0
  -28.6342  -34.6141   19.3463 C   0  0  2  0  0  0  0  0  0  0  0  0
  -24.2841  -33.7675   17.5647 C   0  0  0  0  0  0  0  0  0  0  0  0
  -26.1024  -11.6393   20.5820 N   0  0  0  0  0  0  0  0  0  0  0  0
  -27.2418  -11.8586   19.9038 N   0  0  0  0  0  0  0  0  0  0  0  0
  -24.5461  -31.3499   20.2013 N   0  0  0  0  0  0  0  0  0  0  0  0
  -27.6132  -15.6348   20.3352 N   0  0  0  0  0  0  0  0  0  0  0  0
  -28.7817  -10.8415   18.4190 N   0  0  0  0  0  0  0  0  0  0  0  0
  -25.7067   -7.6064   19.1080 N   0  0  0  0  0  0  0  0  0  0  0  0
  -26.5224  -16.5600   18.4600 N   0  0  0  0  0  0  0  0  0  0  0  0
  -21.4927  -29.9461   21.6163 N   0  0  0  0  0  0  0  0  0  0  0  0
  -26.3520  -33.9539   19.0114 N   0  0  0  0  0  0  0  0  0  0  0  0
  -29.8525  -33.9700   19.9136 N   0  3  0  0  0  0  0  0  0  0  0  0
  -25.9974  -23.5092   17.8468 N   0  3  0  0  0  0  0  0  0  0  0  0
  -27.6617   -8.1165   18.0233 O   0  0  0  0  0  0  0  0  0  0  0  0
  -22.2975  -30.3754   19.4737 O   0  0  0  0  0  0  0  0  0  0  0  0
  -23.9620  -33.5805   20.5466 O   0  0  0  0  0  0  0  0  0  0  0  0
  -28.0307  -32.4930   18.3594 O   0  0  0  0  0  0  0  0  0  0  0  0
  -28.0742  -17.7974   19.6610 O   0  0  0  0  0  0  0  0  0  0  0  0
  -21.1857   -7.9946   22.3399 O   0  0  0  0  0  0  0  0  0  0  0  0
  -27.0434  -25.8052   19.1654 O   0  0  0  0  0  0  0  0  0  1  0  0
  -21.6105   -2.8373   24.2439 F   0  0  0  0  0  0  0  0  0  0  0  0
  -20.6105   -7.4051   24.9789 F   0  0  0  0  0  0  0  0  0  0  0  0
  1  2  1  0  0  0  0
  1  6  2  0  0  0  0
  2  7  2  0  0  0  0
  3  9  2  0  0  0  0
  3 10  1  0  0  0  0
  4 11  2  0  0  0  0
  4 19  1  0  0  0  0
  5 12  1  0  0  0  0
  5 19  2  0  0  0  0
  6 21  1  0  0  0  0
  7 23  1  0  0  0  0
  8 13  2  0  0  0  0
  8 22  1  0  0  0  0
  9 25  1  0  0  0  0
 10 26  2  0  0  0  0
 11 27  1  0  0  0  0
 12 27  2  0  0  0  0
 13 28  1  0  0  0  0
 14 15  2  0  0  0  0
 14 29  1  0  0  0  0
 15 30  1  0  0  0  0
 16 24  1  0  0  0  0
 16 28  2  0  0  0  0
 17 25  2  0  0  0  0
 17 26  1  0  0  0  0
 18 30  2  0  0  0  0
 18 31  1  0  0  0  0
 19 32  1  0  0  0  0
 20 32  1  0  0  0  0
 20 33  2  0  0  0  0
 20 34  1  0  0  0  0
 21 23  2  0  0  0  0
 21 39  1  0  0  0  0
 22 24  2  0  0  0  0
 22 40  1  0  0  0  0
 23 48  1  0  0  0  0
 24 41  1  0  0  0  0
 25 56  1  0  0  0  0
 26 69  1  0  0  0  0
 27 79  1  0  0  0  0
 28 80  1  0  0  0  0
 29 31  2  0  0  0  0
 29 79  1  0  0  0  0
 30 81  1  0  0  0  0
 31 82  1  0  0  0  0
 32 63  2  0  0  0  0
 33 64  1  0  0  0  0
 33 67  1  0  0  0  0
 34 68  1  0  0  0  0
 34 74  2  0  0  0  0
 35 49  1  0  0  0  0
 35 70  1  0  0  0  0
 35 75  2  0  0  0  0
 36 60  1  0  0  0  0
 36 65  1  0  0  0  0
 36 76  2  0  0  0  0
 37 61  1  0  0  0  0
 37 71  1  0  0  0  0
 37 77  2  0  0  0  0
 38 66  1  0  0  0  0
 38 69  1  0  0  0  0
 38 78  2  0  0  0  0
 39 42  1  0  0  0  0
 40 49  1  0  0  0  0
 41 65  1  0  0  0  0
 42 44  1  0  0  0  0
 43 45  1  0  0  0  0
 43 46  1  0  0  0  0
 44 48  1  0  0  0  0
 45 50  1  0  0  0  0
 46 66  1  0  0  0  0
 47 50  1  0  0  0  0
 47 66  1  0  0  0  0
 48 70  1  0  0  0  0
 49 65  1  0  0  0  0
 50 64  1  0  0  0  0
 51 61  1  0  0  0  0
 52 62  1  0  0  0  0
 53 62  1  0  0  0  0
 54 62  1  0  0  0  0
 55 72  1  0  0  0  0
 56 57  1  0  0  0  0
 57 73  1  0  0  0  0
 58 59  1  0  0  0  0
 58 73  1  0  0  0  0
 59 80  1  0  0  0  0
 60 62  1  0  0  0  0
 60 71  1  0  0  0  0
 61 72  1  0  0  0  0
 63 64  1  0  0  0  0
M  CHG  2  72   1  73   1
M  ISO  4  38 100  59 101  69 100  80 101
M  END
> <Batch ID>
0133

> <Smiles>
CNC(C)C(=O)NC(C(=O)N1Cc2cc([101O:1][101CH2:1]CNCCc3cccc([100NH:0][100C:0](=O)N4CCCC(n5nc(-c6ccc(Oc7ccc(F)cc7F)cc6)c(C(N)=O)c5N)C4)c3)ccc2CC1C(=O)NC1CCCc2ccccc21)C(C)(C)C

> <Shape>
0.233

> <Color>
0.108

> <Negative vol penalty>
0.000

$$$$

  -OEChem-04052320553D

 83 91  0     1  0  0  0  0  0999 V2000
  -16.9094  -30.8462   23.2825 C   0  0  0  0  0  0  0  0  0  0  0  0
  -18.1935  -31.1738   22.8591 C   0  0  0  0  0  0  0  0  0  0  0  0
  -34.1774  -22.1385   19.7452 C   0  0  0  0  0  0  0  0  0  0  0  0
  -25.9386  -14.1112   20.8819 C   0  0  0  0  0  0  0  0  0  0  0  0
  -26.1721  -14.1299   18.4773 C   0  0  0  0  0  0  0  0  0  0  0  0
  -16.6370  -29.5607   23.7484 C   0  0  0  0  0  0  0  0  0  0  0  0
  -19.2062  -30.2162   22.9024 C   0  0  0  0  0  0  0  0  0  0  0  0
  -25.1277  -28.1915   19.4163 C   0  0  0  0  0  0  0  0  0  0  0  0
  -25.0169  -13.0689   20.7844 C   0  0  0  0  0  0  0  0  0  0  0  0
  -25.2503  -13.0875   18.3797 C   0  0  0  0  0  0  0  0  0  0  0  0
  -26.4721  -27.9070   19.6519 C   0  0  0  0  0  0  0  0  0  0  0  0
  -25.0829   -9.7211   20.3147 C   0  0  0  0  0  0  0  0  0  0  0  0
  -25.2215   -8.6487   21.1958 C   0  0  0  0  0  0  0  0  0  0  0  0
  -34.1544  -23.4381   20.2389 C   0  0  0  0  0  0  0  0  0  0  0  0
  -33.3047  -21.7720   18.7267 C   0  0  0  0  0  0  0  0  0  0  0  0
  -25.8666  -25.6955   20.4015 C   0  0  0  0  0  0  0  0  0  0  0  0
  -23.0138   -9.0856   22.0747 C   0  0  0  0  0  0  0  0  0  0  0  0
  -26.5162  -14.6418   19.7283 C   0  0  0  0  0  0  0  0  0  0  0  0
  -28.8650  -15.6091   19.9630 C   0  0  0  0  0  0  0  0  0  0  0  0
  -17.6446  -28.5841   23.7884 C   0  0  0  0  0  0  0  0  0  0  0  0
  -24.1400  -27.2322   19.6823 C   0  0  0  0  0  0  0  0  0  0  0  0
  -18.9473  -28.9168   23.3705 C   0  0  0  0  0  0  0  0  0  0  0  0
  -24.5106  -25.9694   20.1660 C   0  0  0  0  0  0  0  0  0  0  0  0
  -24.6727  -12.5570   19.5333 C   0  0  0  0  0  0  0  0  0  0  0  0
  -26.8415  -26.6599   20.1473 C   0  0  0  0  0  0  0  0  0  0  0  0
  -23.9098  -10.4758   20.3137 C   0  0  0  0  0  0  0  0  0  0  0  0
  -24.1869   -8.3309   22.0758 C   0  0  0  0  0  0  0  0  0  0  0  0
  -22.8753  -10.1580   21.1936 C   0  0  0  0  0  0  0  0  0  0  0  0
  -27.4680  -15.7189   19.8284 C   0  0  0  0  0  0  0  0  0  0  0  0
  -33.2470  -24.3264   19.6844 C   0  0  0  0  0  0  0  0  0  0  0  0
  -32.4353  -22.7349   18.2401 C   0  0  0  0  0  0  0  0  0  0  0  0
  -29.3080  -16.9081   20.0152 C   0  0  0  0  0  0  0  0  0  0  0  0
  -29.6885  -14.4376   20.0343 C   0  0  0  0  0  0  0  0  0  0  0  0
  -21.6378  -27.0713   21.6359 C   0  0  0  0  0  0  0  0  0  0  0  0
  -21.0725  -24.2977   20.0517 C   0  0  0  0  0  0  0  0  0  0  0  0
  -22.3142  -21.7143   18.1993 C   0  0  0  0  0  0  0  0  0  0  0  0
  -29.2170  -22.1606   18.1315 C   0  0  0  0  0  0  0  0  0  0  0  0
  -17.3135  -27.2217   24.3444 C   0  0  0  0  0  0  0  0  0  0  0  0
  -22.6967  -27.5454   19.3976 C   0  0  0  0  0  0  0  0  0  0  0  0
  -23.4907  -24.8979   20.4488 C   0  0  0  0  0  0  0  0  0  0  0  0
  -18.3537  -26.1567   24.0066 C   0  0  0  0  0  0  0  0  0  0  0  0
  -26.7491  -21.2413   20.5276 C   0  0  0  0  0  0  0  0  0  0  0  0
  -19.7614  -26.6845   24.2649 C   0  0  0  0  0  0  0  0  0  0  0  0
  -26.8272  -19.7140   20.5655 C   0  0  0  0  0  0  0  0  0  0  0  0
  -26.9763  -21.7831   19.1180 C   0  0  0  0  0  0  0  0  0  0  0  0
  -28.2953  -19.7930   18.5071 C   0  0  0  0  0  0  0  0  0  0  0  0
  -20.0667  -27.8984   23.3790 C   0  0  1  0  0  0  0  0  0  0  0  0
  -21.7283  -26.6726   20.1901 C   0  0  1  0  0  0  0  0  0  0  0  0
  -28.1281  -19.2028   19.9178 C   0  0  2  0  0  0  0  0  0  0  0  0
  -21.6172  -19.5782   17.0819 C   0  0  0  0  0  0  0  0  0  0  0  0
  -20.9712  -22.9124   22.7684 C   0  0  0  0  0  0  0  0  0  0  0  0
  -21.2287  -20.7221   21.5833 C   0  0  0  0  0  0  0  0  0  0  0  0
  -19.2307  -22.1493   21.1428 C   0  0  0  0  0  0  0  0  0  0  0  0
  -23.1104  -22.7149   15.5303 C   0  0  0  0  0  0  0  0  0  0  0  0
  -33.1945  -25.7383   20.1923 C   0  0  0  0  0  0  0  0  0  0  0  0
  -31.4846  -22.3771   17.1466 C   0  0  0  0  0  0  0  0  0  0  0  0
  -32.2230  -25.9413   21.3506 C   0  0  0  0  0  0  0  0  0  0  0  0
  -29.8176  -25.7539   21.9972 C   0  0  0  0  0  0  0  0  0  0  0  0
  -28.4448  -25.4567   21.4270 C   0  0  0  0  0  0  0  0  0  1  0  0
  -21.4831  -22.8570   20.2385 C   0  0  1  0  0  0  0  0  0  0  0  0
  -21.8293  -21.0744   16.9110 C   0  0  2  0  0  0  0  0  0  0  0  0
  -20.7477  -22.1808   21.4298 C   0  0  0  0  0  0  0  0  0  0  0  0
  -27.0510  -16.9874   19.7972 N   0  0  0  0  0  0  0  0  0  0  0  0
  -32.3838  -24.0072   18.6942 N   0  0  0  0  0  0  0  0  0  0  0  0
  -28.1929  -17.6867   19.9131 N   0  0  0  0  0  0  0  0  0  0  0  0
  -22.0917  -25.2544   20.1602 N   0  0  0  0  0  0  0  0  0  0  0  0
  -28.2270  -21.2617   18.5614 N   0  0  0  0  0  0  0  0  0  0  0  0
  -30.5388  -17.4489   20.1382 N   0  0  0  0  0  0  0  0  0  0  0  0
  -29.0708  -13.1815   19.9654 N   0  0  0  0  0  0  0  0  0  0  0  0
  -20.3763  -27.4747   22.0303 N   0  0  0  0  0  0  0  0  0  0  0  0
  -21.2674  -22.2012   18.9533 N   0  0  0  0  0  0  0  0  0  0  0  0
  -30.3740  -21.5832   17.6229 N   0  0  0  0  0  0  0  0  0  0  0  0
  -22.8234  -21.2866   15.8211 N   0  3  0  0  0  0  0  0  0  0  0  0
  -30.8312  -25.6418   20.9181 N   0  3  0  0  0  0  0  0  0  0  0  0
  -30.9336  -14.5028   20.1721 O   0  0  0  0  0  0  0  0  0  0  0  0
  -22.6379  -27.0157   22.3418 O   0  0  0  0  0  0  0  0  0  0  0  0
  -19.8923  -24.5638   19.8111 O   0  0  0  0  0  0  0  0  0  0  0  0
  -23.5024  -21.7729   18.5079 O   0  0  0  0  0  0  0  0  0  0  0  0
  -29.0821  -23.3870   18.2010 O   0  0  0  0  0  0  0  0  0  0  0  0
  -23.7735  -11.5397   19.4378 O   0  0  0  0  0  0  0  0  0  0  0  0
  -28.1529  -26.3799   20.3787 O   0  0  0  0  0  0  0  0  0  1  0  0
  -24.3195   -7.3001   22.9207 F   0  0  0  0  0  0  0  0  0  0  0  0
  -21.7455  -10.8787   21.1964 F   0  0  0  0  0  0  0  0  0  0  0  0
  1  2  1  0  0  0  0
  1  6  2  0  0  0  0
  2  7  2  0  0  0  0
  3 14  2  0  0  0  0
  3 15  1  0  0  0  0
  4  9  2  0  0  0  0
  4 18  1  0  0  0  0
  5 10  1  0  0  0  0
  5 18  2  0  0  0  0
  6 20  1  0  0  0  0
  7 22  1  0  0  0  0
  8 11  2  0  0  0  0
  8 21  1  0  0  0  0
  9 24  1  0  0  0  0
 10 24  2  0  0  0  0
 11 25  1  0  0  0  0
 12 13  2  0  0  0  0
 12 26  1  0  0  0  0
 13 27  1  0  0  0  0
 14 30  1  0  0  0  0
 15 31  2  0  0  0  0
 16 23  1  0  0  0  0
 16 25  2  0  0  0  0
 17 27  2  0  0  0  0
 17 28  1  0  0  0  0
 18 29  1  0  0  0  0
 19 29  1  0  0  0  0
 19 32  2  0  0  0  0
 19 33  1  0  0  0  0
 20 22  2  0  0  0  0
 20 38  1  0  0  0  0
 21 23  2  0  0  0  0
 21 39  1  0  0  0  0
 22 47  1  0  0  0  0
 23 40  1  0  0  0  0
 24 80  1  0  0  0  0
 25 81  1  0  0  0  0
 26 28  2  0  0  0  0
 26 80  1  0  0  0  0
 27 82  1  0  0  0  0
 28 83  1  0  0  0  0
 29 63  2  0  0  0  0
 30 55  1  0  0  0  0
 30 64  2  0  0  0  0
 31 56  1  0  0  0  0
 31 64  1  0  0  0  0
 32 65  1  0  0  0  0
 32 68  1  0  0  0  0
 33 69  1  0  0  0  0
 33 75  2  0  0  0  0
 34 48  1  0  0  0  0
 34 70  1  0  0  0  0
 34 76  2  0  0  0  0
 35 60  1  0  0  0  0
 35 66  1  0  0  0  0
 35 77  2  0  0  0  0
 36 61  1  0  0  0  0
 36 71  1  0  0  0  0
 36 78  2  0  0  0  0
 37 67  1  0  0  0  0
 37 72  1  0  0  0  0
 37 79  2  0  0  0  0
 38 41  1  0  0  0  0
 39 48  1  0  0  0  0
 40 66  1  0  0  0  0
 41 43  1  0  0  0  0
 42 44  1  0  0  0  0
 42 45  1  0  0  0  0
 43 47  1  0  0  0  0
 44 49  1  0  0  0  0
 45 67  1  0  0  0  0
 46 49  1  0  0  0  0
 46 67  1  0  0  0  0
 47 70  1  0  0  0  0
 48 66  1  0  0  0  0
 49 65  1  0  0  0  0
 50 61  1  0  0  0  0
 51 62  1  0  0  0  0
 52 62  1  0  0  0  0
 53 62  1  0  0  0  0
 54 73  1  0  0  0  0
 55 57  1  0  0  0  0
 56 72  1  0  0  0  0
 57 74  1  0  0  0  0
 58 59  1  0  0  0  0
 58 74  1  0  0  0  0
 59 81  1  0  0  0  0
 60 62  1  0  0  0  0
 60 71  1  0  0  0  0
 61 73  1  0  0  0  0
 63 65  1  0  0  0  0
M  CHG  2  73   1  74   1
M  ISO  4  37 100  59 101  72 100  81 101
M  END
> <Batch ID>
0133

> <Smiles>
CNC(C)C(=O)NC(C(=O)N1Cc2cc([101O:1][101CH2:1]CNCCc3cccc(C[100NH:0][100C:0](=O)N4CCCC(n5nc(-c6ccc(Oc7ccc(F)cc7F)cc6)c(C(N)=O)c5N)C4)n3)ccc2CC1C(=O)NC1CCCc2ccccc21)C(C)(C)C

> <Shape>
0.230

> <Color>
0.081

> <Negative vol penalty>
0.000

$$$$

  -OEChem-04052320553D

 82 90  0     1  0  0  0  0  0999 V2000
  -28.7056  -34.2817   19.8526 C   0  0  0  0  0  0  0  0  0  0  0  0
  -29.6920  -33.5960   20.5542 C   0  0  0  0  0  0  0  0  0  0  0  0
  -23.0680   -9.9276   19.9269 C   0  0  0  0  0  0  0  0  0  0  0  0
  -23.8409   -9.8994   22.2158 C   0  0  0  0  0  0  0  0  0  0  0  0
  -27.4514  -33.7011   19.6685 C   0  0  0  0  0  0  0  0  0  0  0  0
  -29.4244  -32.3298   21.0732 C   0  0  0  0  0  0  0  0  0  0  0  0
  -32.6248  -26.0713   22.4533 C   0  0  0  0  0  0  0  0  0  0  0  0
  -32.7630  -17.3871   23.4546 C   0  0  0  0  0  0  0  0  0  0  0  0
  -32.1426  -16.5273   22.5483 C   0  0  0  0  0  0  0  0  0  0  0  0
  -22.3133   -8.7795   20.1676 C   0  0  0  0  0  0  0  0  0  0  0  0
  -23.0861   -8.7513   22.4565 C   0  0  0  0  0  0  0  0  0  0  0  0
  -32.8066  -25.1607   23.4933 C   0  0  0  0  0  0  0  0  0  0  0  0
  -19.8531   -7.9807   23.0682 C   0  0  0  0  0  0  0  0  0  0  0  0
  -19.1024   -7.9350   24.2429 C   0  0  0  0  0  0  0  0  0  0  0  0
  -30.6294  -24.2236   23.0453 C   0  0  0  0  0  0  0  0  0  0  0  0
  -30.6071  -18.2737   24.0895 C   0  0  0  0  0  0  0  0  0  0  0  0
  -20.3272   -5.9760   24.9494 C   0  0  0  0  0  0  0  0  0  0  0  0
  -23.8319  -10.4875   20.9510 C   0  0  0  0  0  0  0  0  0  0  0  0
  -24.1999  -13.0101   20.8587 C   0  0  0  0  0  0  0  0  0  0  0  0
  -27.1714  -32.4230   20.1771 C   0  0  0  0  0  0  0  0  0  0  0  0
  -31.4374  -26.0719   21.7072 C   0  0  0  0  0  0  0  0  0  0  0  0
  -28.1648  -31.7321   20.8969 C   0  0  0  0  0  0  0  0  0  0  0  0
  -30.4361  -25.1334   21.9946 C   0  0  0  0  0  0  0  0  0  0  0  0
  -31.9952  -18.2603   24.2253 C   0  0  0  0  0  0  0  0  0  0  0  0
  -29.9866  -17.4139   23.1831 C   0  0  0  0  0  0  0  0  0  0  0  0
  -30.7544  -16.5408   22.4125 C   0  0  0  0  0  0  0  0  0  0  0  0
  -22.3223   -8.1914   21.4324 C   0  0  0  0  0  0  0  0  0  0  0  0
  -31.8076  -24.2386   23.7913 C   0  0  0  0  0  0  0  0  0  0  0  0
  -20.8408   -7.0240   22.8341 C   0  0  0  0  0  0  0  0  0  0  0  0
  -19.3394   -6.9327   25.1835 C   0  0  0  0  0  0  0  0  0  0  0  0
  -21.0779   -6.0217   23.7746 C   0  0  0  0  0  0  0  0  0  0  0  0
  -24.6121  -11.6731   20.7028 C   0  0  0  0  0  0  0  0  0  0  0  0
  -25.2979  -13.7522   20.4979 C   0  0  0  0  0  0  0  0  0  0  0  0
  -22.9374  -13.5344   21.2909 C   0  0  0  0  0  0  0  0  0  0  0  0
  -29.1047  -28.1720   21.2055 C   0  0  0  0  0  0  0  0  0  0  0  0
  -28.0729  -25.9343   19.0959 C   0  0  0  0  0  0  0  0  0  0  0  0
  -28.0397  -22.6616   18.1287 C   0  0  0  0  0  0  0  0  0  0  0  0
  -30.7759  -14.7376   20.6533 C   0  0  0  0  0  0  0  0  0  0  0  0
  -25.7858  -31.8563   19.9937 C   0  0  0  0  0  0  0  0  0  0  0  0
  -31.2678  -27.0430   20.5712 C   0  0  0  0  0  0  0  0  0  0  0  0
  -29.1512  -25.0794   21.2106 C   0  0  0  0  0  0  0  0  0  0  0  0
  -25.7030  -30.3541   20.2524 C   0  0  0  0  0  0  0  0  0  0  0  0
  -29.6224  -12.3639   18.2633 C   0  0  0  0  0  0  0  0  0  0  0  0
  -26.4310  -29.9938   21.5435 C   0  0  0  0  0  0  0  0  0  0  0  0
  -28.1822  -12.0826   18.6978 C   0  0  0  0  0  0  0  0  0  0  0  0
  -30.5467  -12.5688   19.4623 C   0  0  0  0  0  0  0  0  0  0  0  0
  -28.6554  -13.2971   20.8629 C   0  0  0  0  0  0  0  0  0  0  0  0
  -27.9207  -30.3463   21.4536 C   0  0  1  0  0  0  0  0  0  0  0  0
  -29.8065  -27.2914   20.2106 C   0  0  1  0  0  0  0  0  0  0  0  0
  -27.6742  -13.1481   19.6888 C   0  0  2  0  0  0  0  0  0  0  0  0
  -28.4980  -17.4520   23.0563 C   0  0  0  0  0  0  0  0  0  0  0  0
  -27.0776  -21.1317   16.3877 C   0  0  0  0  0  0  0  0  0  0  0  0
  -25.3716  -26.0259   20.5116 C   0  0  0  0  0  0  0  0  0  0  0  0
  -24.7873  -23.8668   19.3869 C   0  0  0  0  0  0  0  0  0  0  0  0
  -25.2385  -25.9022   18.0173 C   0  0  0  0  0  0  0  0  0  0  0  0
  -30.7257  -21.9021   17.1453 C   0  0  0  0  0  0  0  0  0  0  0  0
  -32.6629  -19.1867   25.1984 C   0  0  0  0  0  0  0  0  0  0  0  0
  -33.3066  -21.5487   25.6935 C   0  0  0  0  0  0  0  0  0  0  0  0
  -33.3196  -22.9379   25.0867 C   0  0  0  0  0  0  0  0  0  1  0  0
  -27.1606  -24.7338   19.1716 C   0  0  1  0  0  0  0  0  0  0  0  0
  -28.2578  -22.0089   16.7756 C   0  0  2  0  0  0  0  0  0  0  0  0
  -25.6628  -25.1342   19.2881 C   0  0  0  0  0  0  0  0  0  0  0  0
  -25.8735  -11.5688   20.2762 N   0  0  0  0  0  0  0  0  0  0  0  0
  -26.2634  -12.8497   20.1607 N   0  0  0  0  0  0  0  0  0  0  0  0
  -29.0300  -26.0537   20.1135 N   0  0  0  0  0  0  0  0  0  0  0  0
  -30.0037  -13.5951   20.3549 N   0  0  0  0  0  0  0  0  0  0  0  0
  -25.5221  -15.0821   20.4393 N   0  0  0  0  0  0  0  0  0  0  0  0
  -21.9178  -12.6321   21.6233 N   0  0  0  0  0  0  0  0  0  0  0  0
  -30.1431  -15.6598   21.4863 N   0  0  0  0  0  0  0  0  0  0  0  0
  -28.6284  -29.3546   20.6725 N   0  0  0  0  0  0  0  0  0  0  0  0
  -27.4705  -23.9116   18.0070 N   0  0  0  0  0  0  0  0  0  0  0  0
  -29.4843  -21.1626   16.8004 N   0  3  0  0  0  0  0  0  0  0  0  0
  -32.7050  -20.5969   24.7258 N   0  3  0  0  0  0  0  0  0  0  0  0
  -22.7146  -14.7667   21.3641 O   0  0  0  0  0  0  0  0  0  0  0  0
  -29.0017  -27.8050   22.3701 O   0  0  0  0  0  0  0  0  0  0  0  0
  -27.9459  -26.7326   18.1642 O   0  0  0  0  0  0  0  0  0  0  0  0
  -28.3405  -22.1156   19.1879 O   0  0  0  0  0  0  0  0  0  0  0  0
  -31.9041  -14.8999   20.1812 O   0  0  0  0  0  0  0  0  0  0  0  0
  -21.5858   -7.0712   21.6677 O   0  0  0  0  0  0  0  0  0  0  0  0
  -31.9822  -23.3492   24.8064 O   0  0  0  0  0  0  0  0  0  1  0  0
  -18.6195   -6.8898   26.3123 F   0  0  0  0  0  0  0  0  0  0  0  0
  -22.0262   -5.1005   23.5558 F   0  0  0  0  0  0  0  0  0  0  0  0
  1  2  1  0  0  0  0
  1  5  2  0  0  0  0
  2  6  2  0  0  0  0
  3 10  2  0  0  0  0
  3 18  1  0  0  0  0
  4 11  1  0  0  0  0
  4 18  2  0  0  0  0
  5 20  1  0  0  0  0
  6 22  1  0  0  0  0
  7 12  2  0  0  0  0
  7 21  1  0  0  0  0
  8  9  2  0  0  0  0
  8 24  1  0  0  0  0
  9 26  1  0  0  0  0
 10 27  1  0  0  0  0
 11 27  2  0  0  0  0
 12 28  1  0  0  0  0
 13 14  2  0  0  0  0
 13 29  1  0  0  0  0
 14 30  1  0  0  0  0
 15 23  1  0  0  0  0
 15 28  2  0  0  0  0
 16 24  2  0  0  0  0
 16 25  1  0  0  0  0
 17 30  2  0  0  0  0
 17 31  1  0  0  0  0
 18 32  1  0  0  0  0
 19 32  1  0  0  0  0
 19 33  2  0  0  0  0
 19 34  1  0  0  0  0
 20 22  2  0  0  0  0
 20 39  1  0  0  0  0
 21 23  2  0  0  0  0
 21 40  1  0  0  0  0
 22 48  1  0  0  0  0
 23 41  1  0  0  0  0
 24 57  1  0  0  0  0
 25 26  2  0  0  0  0
 25 51  1  0  0  0  0
 26 69  1  0  0  0  0
 27 79  1  0  0  0  0
 28 80  1  0  0  0  0
 29 31  2  0  0  0  0
 29 79  1  0  0  0  0
 30 81  1  0  0  0  0
 31 82  1  0  0  0  0
 32 63  2  0  0  0  0
 33 64  1  0  0  0  0
 33 67  1  0  0  0  0
 34 68  1  0  0  0  0
 34 74  2  0  0  0  0
 35 49  1  0  0  0  0
 35 70  1  0  0  0  0
 35 75  2  0  0  0  0
 36 60  1  0  0  0  0
 36 65  1  0  0  0  0
 36 76  2  0  0  0  0
 37 61  1  0  0  0  0
 37 71  1  0  0  0  0
 37 77  2  0  0  0  0
 38 66  1  0  0  0  0
 38 69  1  0  0  0  0
 38 78  2  0  0  0  0
 39 42  1  0  0  0  0
 40 49  1  0  0  0  0
 41 65  1  0  0  0  0
 42 44  1  0  0  0  0
 43 45  1  0  0  0  0
 43 46  1  0  0  0  0
 44 48  1  0  0  0  0
 45 50  1  0  0  0  0
 46 66  1  0  0  0  0
 47 50  1  0  0  0  0
 47 66  1  0  0  0  0
 48 70  1  0  0  0  0
 49 65  1  0  0  0  0
 50 64  1  0  0  0  0
 52 61  1  0  0  0  0
 53 62  1  0  0  0  0
 54 62  1  0  0  0  0
 55 62  1  0  0  0  0
 56 72  1  0  0  0  0
 57 73  1  0  0  0  0
 58 59  1  0  0  0  0
 58 73  1  0  0  0  0
 59 80  1  0  0  0  0
 60 62  1  0  0  0  0
 60 71  1  0  0  0  0
 61 72  1  0  0  0  0
 63 64  1  0  0  0  0
M  CHG  2  72   1  73   1
M  ISO  4  38 100  59 101  69 100  80 101
M  END
> <Batch ID>
0133

> <Smiles>
CNC(C)C(=O)NC(C(=O)N1Cc2cc([101O:1][101CH2:1]CNCc3ccc([100NH:0][100C:0](=O)N4CCCC(n5nc(-c6ccc(Oc7ccc(F)cc7F)cc6)c(C(N)=O)c5N)C4)c(C)c3)ccc2CC1C(=O)NC1CCCc2ccccc21)C(C)(C)C

> <Shape>
0.262

> <Color>
0.199

> <Negative vol penalty>
0.000

$$$$

  -OEChem-04052320553D

 82 90  0     1  0  0  0  0  0999 V2000
  -29.4038  -30.7611   13.9111 C   0  0  0  0  0  0  0  0  0  0  0  0
  -29.3300  -29.7103   14.8198 C   0  0  0  0  0  0  0  0  0  0  0  0
  -22.8902  -10.1574   19.9617 C   0  0  0  0  0  0  0  0  0  0  0  0
  -23.8189   -9.8638   22.1727 C   0  0  0  0  0  0  0  0  0  0  0  0
  -28.8638  -32.0040   14.2389 C   0  0  0  0  0  0  0  0  0  0  0  0
  -28.7170  -29.9022   16.0575 C   0  0  0  0  0  0  0  0  0  0  0  0
  -25.6142  -26.0975   17.2994 C   0  0  0  0  0  0  0  0  0  0  0  0
  -29.2664  -21.1403   19.2291 C   0  0  0  0  0  0  0  0  0  0  0  0
  -29.8038  -20.0300   19.8802 C   0  0  0  0  0  0  0  0  0  0  0  0
  -22.0942   -9.0269   20.1459 C   0  0  0  0  0  0  0  0  0  0  0  0
  -23.0228   -8.7333   22.3569 C   0  0  0  0  0  0  0  0  0  0  0  0
  -26.2015  -24.9278   17.7797 C   0  0  0  0  0  0  0  0  0  0  0  0
  -23.0556   -5.4840   21.4230 C   0  0  0  0  0  0  0  0  0  0  0  0
  -23.6556   -4.3516   21.9736 C   0  0  0  0  0  0  0  0  0  0  0  0
  -25.6796  -25.5998   20.0369 C   0  0  0  0  0  0  0  0  0  0  0  0
  -27.6303  -19.5192   20.8033 C   0  0  0  0  0  0  0  0  0  0  0  0
  -22.1018   -4.4272   23.8221 C   0  0  0  0  0  0  0  0  0  0  0  0
  -23.7527  -10.5758   20.9751 C   0  0  0  0  0  0  0  0  0  0  0  0
  -24.2471  -13.0753   21.1003 C   0  0  0  0  0  0  0  0  0  0  0  0
  -28.2353  -32.2085   15.4774 C   0  0  0  0  0  0  0  0  0  0  0  0
  -25.0640  -27.0338   18.1864 C   0  0  0  0  0  0  0  0  0  0  0  0
  -28.1692  -31.1494   16.4028 C   0  0  0  0  0  0  0  0  0  0  0  0
  -25.0836  -26.7794   19.5652 C   0  0  0  0  0  0  0  0  0  0  0  0
  -27.9109  -21.4402   19.3652 C   0  0  0  0  0  0  0  0  0  0  0  0
  -27.0929  -20.6296   20.1522 C   0  0  0  0  0  0  0  0  0  0  0  0
  -28.9858  -19.2194   20.6673 C   0  0  0  0  0  0  0  0  0  0  0  0
  -22.1605   -8.3149   21.3435 C   0  0  0  0  0  0  0  0  0  0  0  0
  -26.2369  -24.6802   19.1488 C   0  0  0  0  0  0  0  0  0  0  0  0
  -21.9787   -6.0881   22.0720 C   0  0  0  0  0  0  0  0  0  0  0  0
  -23.1787   -3.8231   23.1731 C   0  0  0  0  0  0  0  0  0  0  0  0
  -21.5019   -5.5596   23.2715 C   0  0  0  0  0  0  0  0  0  0  0  0
  -24.5756  -11.7432   20.7852 C   0  0  0  0  0  0  0  0  0  0  0  0
  -25.3551  -13.7985   20.7319 C   0  0  0  0  0  0  0  0  0  0  0  0
  -23.0477  -13.6110   21.6748 C   0  0  0  0  0  0  0  0  0  0  0  0
  -25.6666  -30.0725   18.8988 C   0  0  0  0  0  0  0  0  0  0  0  0
  -22.9951  -29.7706   20.7139 C   0  0  0  0  0  0  0  0  0  0  0  0
  -20.8653  -27.7175   22.4154 C   0  0  0  0  0  0  0  0  0  0  0  0
  -30.8919  -14.4812   20.5804 C   0  0  0  0  0  0  0  0  0  0  0  0
  -27.7082  -33.5829   15.8058 C   0  0  0  0  0  0  0  0  0  0  0  0
  -24.4102  -28.2781   17.6507 C   0  0  0  0  0  0  0  0  0  0  0  0
  -24.4886  -27.7431   20.5580 C   0  0  0  0  0  0  0  0  0  0  0  0
  -26.7437  -33.5987   16.9889 C   0  0  0  0  0  0  0  0  0  0  0  0
  -29.4267  -12.4479   18.0515 C   0  0  0  0  0  0  0  0  0  0  0  0
  -27.3056  -32.7799   18.1467 C   0  0  0  0  0  0  0  0  0  0  0  0
  -28.0098  -12.1883   18.5663 C   0  0  0  0  0  0  0  0  0  0  0  0
  -30.4437  -12.4805   19.1902 C   0  0  0  0  0  0  0  0  0  0  0  0
  -28.7026  -13.1562   20.7982 C   0  0  0  0  0  0  0  0  0  0  0  0
  -27.4903  -31.3114   17.7455 C   0  0  1  0  0  0  0  0  0  0  0  0
  -24.3390  -29.4048   18.6768 C   0  0  1  0  0  0  0  0  0  0  0  0
  -27.6336  -13.1701   19.6922 C   0  0  2  0  0  0  0  0  0  0  0  0
  -25.6392  -20.9318   20.3138 C   0  0  0  0  0  0  0  0  0  0  0  0
  -18.7937  -27.7652   23.8309 C   0  0  0  0  0  0  0  0  0  0  0  0
  -24.6345  -30.7955   23.0744 C   0  0  0  0  0  0  0  0  0  0  0  0
  -22.8463  -29.9343   24.6005 C   0  0  0  0  0  0  0  0  0  0  0  0
  -22.3133  -31.7163   22.9382 C   0  0  0  0  0  0  0  0  0  0  0  0
  -19.3700  -26.0411   20.4885 C   0  0  0  0  0  0  0  0  0  0  0  0
  -27.3560  -22.6404   18.6561 C   0  0  0  0  0  0  0  0  0  1  0  0
  -30.9090  -17.7317   21.2272 C   0  0  0  0  0  0  0  0  0  0  0  0
  -31.1894  -16.4719   22.0322 C   0  0  0  0  0  0  0  0  0  0  0  0
  -22.7106  -29.3518   22.1361 C   0  0  1  0  0  0  0  0  0  0  0  0
  -19.3503  -27.6210   22.4230 C   0  0  2  0  0  0  0  0  0  0  0  0
  -23.1392  -30.4320   23.1690 C   0  0  0  0  0  0  0  0  0  0  0  0
  -25.7967  -11.6243   20.2571 N   0  0  0  0  0  0  0  0  0  0  0  0
  -26.2451  -12.8910   20.2375 N   0  0  0  0  0  0  0  0  0  0  0  0
  -23.8664  -28.9484   19.9854 N   0  0  0  0  0  0  0  0  0  0  0  0
  -30.0288  -13.4320   20.2239 N   0  0  0  0  0  0  0  0  0  0  0  0
  -25.6451  -15.1159   20.7859 N   0  0  0  0  0  0  0  0  0  0  0  0
  -22.0072  -12.7278   21.9937 N   0  0  0  0  0  0  0  0  0  0  0  0
  -29.5295  -18.0963   21.3246 N   0  0  0  0  0  0  0  0  0  0  0  0
  -26.2186  -30.6207   17.7567 N   0  0  0  0  0  0  0  0  0  0  0  0
  -21.2938  -29.0076   22.1846 N   0  0  0  0  0  0  0  0  0  0  0  0
  -30.4190  -15.3415   21.5637 N   0  0  0  0  0  0  0  0  0  0  0  0
  -18.9123  -26.3054   21.8769 N   0  3  0  0  0  0  0  0  0  0  0  0
  -22.8965  -14.8387   21.8835 O   0  0  0  0  0  0  0  0  0  0  0  0
  -26.1534  -30.0903   20.0232 O   0  0  0  0  0  0  0  0  0  0  0  0
  -22.4583  -30.7858   20.2635 O   0  0  0  0  0  0  0  0  0  0  0  0
  -21.5955  -26.7462   22.5998 O   0  0  0  0  0  0  0  0  0  0  0  0
  -31.9996  -14.6427   20.0570 O   0  0  0  0  0  0  0  0  0  0  0  0
  -21.3836   -7.2119   21.5237 O   0  0  0  0  0  0  0  0  0  0  0  0
  -26.8101  -23.5396   19.6203 O   0  0  0  0  0  0  0  0  0  1  0  0
  -23.7540   -2.7348   23.7010 F   0  0  0  0  0  0  0  0  0  0  0  0
  -20.4669   -6.1349   23.8990 F   0  0  0  0  0  0  0  0  0  0  0  0
  1  2  1  0  0  0  0
  1  5  2  0  0  0  0
  2  6  2  0  0  0  0
  3 10  2  0  0  0  0
  3 18  1  0  0  0  0
  4 11  1  0  0  0  0
  4 18  2  0  0  0  0
  5 20  1  0  0  0  0
  6 22  1  0  0  0  0
  7 12  2  0  0  0  0
  7 21  1  0  0  0  0
  8  9  2  0  0  0  0
  8 24  1  0  0  0  0
  9 26  1  0  0  0  0
 10 27  1  0  0  0  0
 11 27  2  0  0  0  0
 12 28  1  0  0  0  0
 13 14  2  0  0  0  0
 13 29  1  0  0  0  0
 14 30  1  0  0  0  0
 15 23  1  0  0  0  0
 15 28  2  0  0  0  0
 16 25  1  0  0  0  0
 16 26  2  0  0  0  0
 17 30  2  0  0  0  0
 17 31  1  0  0  0  0
 18 32  1  0  0  0  0
 19 32  1  0  0  0  0
 19 33  2  0  0  0  0
 19 34  1  0  0  0  0
 20 22  2  0  0  0  0
 20 39  1  0  0  0  0
 21 23  2  0  0  0  0
 21 40  1  0  0  0  0
 22 48  1  0  0  0  0
 23 41  1  0  0  0  0
 24 25  2  0  0  0  0
 24 57  1  0  0  0  0
 25 51  1  0  0  0  0
 26 69  1  0  0  0  0
 27 79  1  0  0  0  0
 28 80  1  0  0  0  0
 29 31  2  0  0  0  0
 29 79  1  0  0  0  0
 30 81  1  0  0  0  0
 31 82  1  0  0  0  0
 32 63  2  0  0  0  0
 33 64  1  0  0  0  0
 33 67  1  0  0  0  0
 34 68  1  0  0  0  0
 34 74  2  0  0  0  0
 35 49  1  0  0  0  0
 35 70  1  0  0  0  0
 35 75  2  0  0  0  0
 36 60  1  0  0  0  0
 36 65  1  0  0  0  0
 36 76  2  0  0  0  0
 37 61  1  0  0  0  0
 37 71  1  0  0  0  0
 37 77  2  0  0  0  0
 38 66  1  0  0  0  0
 38 72  1  0  0  0  0
 38 78  2  0  0  0  0
 39 42  1  0  0  0  0
 40 49  1  0  0  0  0
 41 65  1  0  0  0  0
 42 44  1  0  0  0  0
 43 45  1  0  0  0  0
 43 46  1  0  0  0  0
 44 48  1  0  0  0  0
 45 50  1  0  0  0  0
 46 66  1  0  0  0  0
 47 50  1  0  0  0  0
 47 66  1  0  0  0  0
 48 70  1  0  0  0  0
 49 65  1  0  0  0  0
 50 64  1  0  0  0  0
 52 61  1  0  0  0  0
 53 62  1  0  0  0  0
 54 62  1  0  0  0  0
 55 62  1  0  0  0  0
 56 73  1  0  0  0  0
 57 80  1  0  0  0  0
 58 59  1  0  0  0  0
 58 69  1  0  0  0  0
 59 72  1  0  0  0  0
 60 62  1  0  0  0  0
 60 71  1  0  0  0  0
 61 73  1  0  0  0  0
 63 64  1  0  0  0  0
M  CHG  1  73   1
M  ISO  4  38 100  57 101  72 100  80 101
M  END
> <Batch ID>
0133

> <Smiles>
CNC(C)C(=O)NC(C(=O)N1Cc2cc([101O:1][101CH2:1]c3ccc(NCC[100NH:0][100C:0](=O)N4CCCC(n5nc(-c6ccc(Oc7ccc(F)cc7F)cc6)c(C(N)=O)c5N)C4)cc3C)ccc2CC1C(=O)NC1CCCc2ccccc21)C(C)(C)C

> <Shape>
0.350

> <Color>
0.205

> <Negative vol penalty>
0.000

$$$$

  -OEChem-04052320553D

 83 91  0     1  0  0  0  0  0999 V2000
  -15.8577  -27.4687   22.0150 C   0  0  0  0  0  0  0  0  0  0  0  0
  -16.9439  -26.6535   21.7134 C   0  0  0  0  0  0  0  0  0  0  0  0
  -22.7463  -10.5613   20.0897 C   0  0  0  0  0  0  0  0  0  0  0  0
  -23.8921   -9.7908   22.0722 C   0  0  0  0  0  0  0  0  0  0  0  0
  -28.0229  -20.4362   21.5103 C   0  0  0  0  0  0  0  0  0  0  0  0
  -30.1138  -20.9267   20.4038 C   0  0  0  0  0  0  0  0  0  0  0  0
  -15.9711  -28.8529   21.8927 C   0  0  0  0  0  0  0  0  0  0  0  0
  -18.1440  -27.2221   21.2881 C   0  0  0  0  0  0  0  0  0  0  0  0
  -23.8017  -25.2133   22.4968 C   0  0  0  0  0  0  0  0  0  0  0  0
  -28.5131  -19.1843   21.8818 C   0  0  0  0  0  0  0  0  0  0  0  0
  -30.6041  -19.6748   20.7753 C   0  0  0  0  0  0  0  0  0  0  0  0
  -21.8627   -9.4861   20.1824 C   0  0  0  0  0  0  0  0  0  0  0  0
  -23.0085   -8.7155   22.1650 C   0  0  0  0  0  0  0  0  0  0  0  0
  -24.7022  -24.4459   21.7592 C   0  0  0  0  0  0  0  0  0  0  0  0
  -22.5886   -5.7017   20.6914 C   0  0  0  0  0  0  0  0  0  0  0  0
  -23.1264   -4.4417   20.9537 C   0  0  0  0  0  0  0  0  0  0  0  0
  -25.7789  -26.4620   20.9875 C   0  0  0  0  0  0  0  0  0  0  0  0
  -21.8172   -4.3047   22.9796 C   0  0  0  0  0  0  0  0  0  0  0  0
  -23.7611  -10.7137   21.0346 C   0  0  0  0  0  0  0  0  0  0  0  0
  -28.8232  -21.3074   20.7712 C   0  0  0  0  0  0  0  0  0  0  0  0
  -24.5276  -13.0980   21.5194 C   0  0  0  0  0  0  0  0  0  0  0  0
  -17.1762  -29.4393   21.4749 C   0  0  0  0  0  0  0  0  0  0  0  0
  -23.8764  -26.6135   22.4766 C   0  0  0  0  0  0  0  0  0  0  0  0
  -18.2733  -28.6154   21.1587 C   0  0  0  0  0  0  0  0  0  0  0  0
  -24.8798  -27.2448   21.7278 C   0  0  0  0  0  0  0  0  0  0  0  0
  -29.8037  -18.8036   21.5143 C   0  0  0  0  0  0  0  0  0  0  0  0
  -21.9937   -8.5632   21.2201 C   0  0  0  0  0  0  0  0  0  0  0  0
  -25.6891  -25.0703   21.0021 C   0  0  0  0  0  0  0  0  0  0  0  0
  -21.6651   -6.2633   21.5732 C   0  0  0  0  0  0  0  0  0  0  0  0
  -22.7407   -3.7432   22.0978 C   0  0  0  0  0  0  0  0  0  0  0  0
  -21.2794   -5.5647   22.7173 C   0  0  0  0  0  0  0  0  0  0  0  0
  -24.6745  -11.8239   20.9390 C   0  0  0  0  0  0  0  0  0  0  0  0
  -25.6547  -13.7824   21.1350 C   0  0  0  0  0  0  0  0  0  0  0  0
  -28.2990  -22.6459   20.3740 C   0  0  0  0  0  0  0  0  0  0  0  0
  -23.4671  -13.6165   22.3332 C   0  0  0  0  0  0  0  0  0  0  0  0
  -21.9325  -28.9504   21.5471 C   0  0  0  0  0  0  0  0  0  0  0  0
  -24.2254  -30.8446   22.8419 C   0  0  0  0  0  0  0  0  0  0  0  0
  -27.4896  -31.2257   23.7623 C   0  0  0  0  0  0  0  0  0  0  0  0
  -31.1762  -14.0209   20.3599 C   0  0  0  0  0  0  0  0  0  0  0  0
  -17.2364  -30.9375   21.3123 C   0  0  0  0  0  0  0  0  0  0  0  0
  -22.9143  -27.4262   23.2990 C   0  0  0  0  0  0  0  0  0  0  0  0
  -25.0154  -28.7443   21.6886 C   0  0  0  0  0  0  0  0  0  0  0  0
  -18.6588  -31.4830   21.2150 C   0  0  0  0  0  0  0  0  0  0  0  0
  -29.2179  -12.6149   17.7399 C   0  0  0  0  0  0  0  0  0  0  0  0
  -19.4849  -30.6490   20.2410 C   0  0  0  0  0  0  0  0  0  0  0  0
  -27.8518  -12.3833   18.3881 C   0  0  0  0  0  0  0  0  0  0  0  0
  -30.3593  -12.3536   18.7201 C   0  0  0  0  0  0  0  0  0  0  0  0
  -28.9002  -12.8642   20.6394 C   0  0  0  0  0  0  0  0  0  0  0  0
  -19.5995  -29.1962   20.7181 C   0  0  1  0  0  0  0  0  0  0  0  0
  -22.7613  -28.8587   22.7971 C   0  0  1  0  0  0  0  0  0  0  0  0
  -27.7161  -13.1693   19.7061 C   0  0  2  0  0  0  0  0  0  0  0  0
  -29.0730  -32.8984   24.7584 C   0  0  0  0  0  0  0  0  0  0  0  0
  -24.3170  -32.3381   20.1827 C   0  0  0  0  0  0  0  0  0  0  0  0
  -26.5057  -33.3252   20.8921 C   0  0  0  0  0  0  0  0  0  0  0  0
  -24.4399  -33.8024   22.2064 C   0  0  0  0  0  0  0  0  0  0  0  0
  -28.0671  -29.4741   26.0768 C   0  0  0  0  0  0  0  0  0  0  0  0
  -26.8924  -23.0300   20.7888 C   0  0  0  0  0  0  0  0  0  1  0  0
  -31.6118  -17.0845   21.5469 C   0  0  0  0  0  0  0  0  0  0  0  0
  -31.8504  -15.6795   22.0786 C   0  0  0  0  0  0  0  0  0  0  0  0
  -25.4836  -31.5029   22.3293 C   0  0  1  0  0  0  0  0  0  0  0  0
  -28.1215  -31.7461   25.0407 C   0  0  2  0  0  0  0  0  0  0  0  0
  -25.1830  -32.7139   21.4016 C   0  0  0  0  0  0  0  0  0  0  0  0
  -25.8057  -11.7035   20.2390 N   0  0  0  0  0  0  0  0  0  0  0  0
  -26.3798  -12.9107   20.3770 N   0  0  0  0  0  0  0  0  0  0  0  0
  -24.0471  -29.4955   22.5045 N   0  0  0  0  0  0  0  0  0  0  0  0
  -30.1714  -13.1300   19.9479 N   0  0  0  0  0  0  0  0  0  0  0  0
  -26.0863  -15.0389   21.3748 N   0  0  0  0  0  0  0  0  0  0  0  0
  -22.3841  -12.7789   22.6327 N   0  0  0  0  0  0  0  0  0  0  0  0
  -30.2994  -17.5379   21.8899 N   0  0  0  0  0  0  0  0  0  0  0  0
  -20.5774  -29.0884   21.7795 N   0  0  0  0  0  0  0  0  0  0  0  0
  -26.2793  -31.8347   23.5062 N   0  0  0  0  0  0  0  0  0  0  0  0
  -30.9154  -14.7220   21.5308 N   0  0  0  0  0  0  0  0  0  0  0  0
  -28.8853  -30.6615   25.7197 N   0  3  0  0  0  0  0  0  0  0  0  0
  -29.0110  -23.4077   19.7237 O   0  0  0  0  0  0  0  0  0  0  0  0
  -23.4718  -14.7931   22.7679 O   0  0  0  0  0  0  0  0  0  0  0  0
  -22.4820  -28.9011   20.4529 O   0  0  0  0  0  0  0  0  0  0  0  0
  -23.4337  -31.5012   23.5229 O   0  0  0  0  0  0  0  0  0  0  0  0
  -28.0186  -30.3677   23.0591 O   0  0  0  0  0  0  0  0  0  0  0  0
  -32.2256  -14.1836   19.7280 O   0  0  0  0  0  0  0  0  0  0  0  0
  -21.1315   -7.5139   21.3110 O   0  0  0  0  0  0  0  0  0  0  0  0
  -26.5689  -24.3237   20.2807 O   0  0  0  0  0  0  0  0  0  1  0  0
  -23.2560   -2.5326   22.3487 F   0  0  0  0  0  0  0  0  0  0  0  0
  -20.3918   -6.0986   23.5676 F   0  0  0  0  0  0  0  0  0  0  0  0
  1  2  1  0  0  0  0
  1  7  2  0  0  0  0
  2  8  2  0  0  0  0
  3 12  2  0  0  0  0
  3 19  1  0  0  0  0
  4 13  1  0  0  0  0
  4 19  2  0  0  0  0
  5 10  2  0  0  0  0
  5 20  1  0  0  0  0
  6 11  1  0  0  0  0
  6 20  2  0  0  0  0
  7 22  1  0  0  0  0
  8 24  1  0  0  0  0
  9 14  2  0  0  0  0
  9 23  1  0  0  0  0
 10 26  1  0  0  0  0
 11 26  2  0  0  0  0
 12 27  1  0  0  0  0
 13 27  2  0  0  0  0
 14 28  1  0  0  0  0
 15 16  2  0  0  0  0
 15 29  1  0  0  0  0
 16 30  1  0  0  0  0
 17 25  1  0  0  0  0
 17 28  2  0  0  0  0
 18 30  2  0  0  0  0
 18 31  1  0  0  0  0
 19 32  1  0  0  0  0
 20 34  1  0  0  0  0
 21 32  1  0  0  0  0
 21 33  2  0  0  0  0
 21 35  1  0  0  0  0
 22 24  2  0  0  0  0
 22 40  1  0  0  0  0
 23 25  2  0  0  0  0
 23 41  1  0  0  0  0
 24 49  1  0  0  0  0
 25 42  1  0  0  0  0
 26 69  1  0  0  0  0
 27 80  1  0  0  0  0
 28 81  1  0  0  0  0
 29 31  2  0  0  0  0
 29 80  1  0  0  0  0
 30 82  1  0  0  0  0
 31 83  1  0  0  0  0
 32 63  2  0  0  0  0
 33 64  1  0  0  0  0
 33 67  1  0  0  0  0
 34 57  1  0  0  0  0
 34 74  2  0  0  0  0
 35 68  1  0  0  0  0
 35 75  2  0  0  0  0
 36 50  1  0  0  0  0
 36 70  1  0  0  0  0
 36 76  2  0  0  0  0
 37 60  1  0  0  0  0
 37 65  1  0  0  0  0
 37 77  2  0  0  0  0
 38 61  1  0  0  0  0
 38 71  1  0  0  0  0
 38 78  2  0  0  0  0
 39 66  1  0  0  0  0
 39 72  1  0  0  0  0
 39 79  2  0  0  0  0
 40 43  1  0  0  0  0
 41 50  1  0  0  0  0
 42 65  1  0  0  0  0
 43 45  1  0  0  0  0
 44 46  1  0  0  0  0
 44 47  1  0  0  0  0
 45 49  1  0  0  0  0
 46 51  1  0  0  0  0
 47 66  1  0  0  0  0
 48 51  1  0  0  0  0
 48 66  1  0  0  0  0
 49 70  1  0  0  0  0
 50 65  1  0  0  0  0
 51 64  1  0  0  0  0
 52 61  1  0  0  0  0
 53 62  1  0  0  0  0
 54 62  1  0  0  0  0
 55 62  1  0  0  0  0
 56 73  1  0  0  0  0
 57 81  1  0  0  0  0
 58 59  1  0  0  0  0
 58 69  1  0  0  0  0
 59 72  1  0  0  0  0
 60 62  1  0  0  0  0
 60 71  1  0  0  0  0
 61 73  1  0  0  0  0
 63 64  1  0  0  0  0
M  CHG  1  73   1
M  ISO  4  39 100  57 101  72 100  81 101
M  END
> <Batch ID>
0133

> <Smiles>
CNC(C)C(=O)NC(C(=O)N1Cc2cc([101O:1][101CH2:1]C(=O)c3ccc(NCC[100NH:0][100C:0](=O)N4CCCC(n5nc(-c6ccc(Oc7ccc(F)cc7F)cc6)c(C(N)=O)c5N)C4)cc3)ccc2CC1C(=O)NC1CCCc2ccccc21)C(C)(C)C

> <Shape>
0.348

> <Color>
0.143

> <Negative vol penalty>
0.000

$$$$

  -OEChem-04052320553D

 88 97  0     1  0  0  0  0  0999 V2000
  -26.1867  -30.2614   13.4315 C   0  0  0  0  0  0  0  0  0  0  0  0
  -26.4217  -28.9246   13.7367 C   0  0  0  0  0  0  0  0  0  0  0  0
  -23.0772   -9.8782   19.9851 C   0  0  0  0  0  0  0  0  0  0  0  0
  -23.7884   -9.9714   22.2921 C   0  0  0  0  0  0  0  0  0  0  0  0
  -26.0866  -31.2020   14.4559 C   0  0  0  0  0  0  0  0  0  0  0  0
  -26.5580  -28.5278   15.0665 C   0  0  0  0  0  0  0  0  0  0  0  0
  -25.2182  -22.9863   19.4040 C   0  0  0  0  0  0  0  0  0  0  0  0
  -22.3228   -8.7385   20.2636 C   0  0  0  0  0  0  0  0  0  0  0  0
  -23.0340   -8.8317   22.5707 C   0  0  0  0  0  0  0  0  0  0  0  0
  -25.8588  -22.1631   20.3290 C   0  0  0  0  0  0  0  0  0  0  0  0
  -19.7901   -8.0703   23.1347 C   0  0  0  0  0  0  0  0  0  0  0  0
  -19.0083   -8.0789   24.2899 C   0  0  0  0  0  0  0  0  0  0  0  0
  -32.0406  -16.6760   22.5168 C   0  0  0  0  0  0  0  0  0  0  0  0
  -25.5883  -23.8625   22.0196 C   0  0  0  0  0  0  0  0  0  0  0  0
  -29.8333  -17.5569   23.0374 C   0  0  0  0  0  0  0  0  0  0  0  0
  -20.2248   -6.1668   25.1273 C   0  0  0  0  0  0  0  0  0  0  0  0
  -23.8100  -10.4946   20.9993 C   0  0  0  0  0  0  0  0  0  0  0  0
  -24.1661  -13.0119   20.7887 C   0  0  0  0  0  0  0  0  0  0  0  0
  -26.2120  -30.8148   15.7994 C   0  0  0  0  0  0  0  0  0  0  0  0
  -24.7667  -24.2603   19.7776 C   0  0  0  0  0  0  0  0  0  0  0  0
  -26.4608  -29.4642   16.1097 C   0  0  0  0  0  0  0  0  0  0  0  0
  -32.5765  -17.5848   23.4137 C   0  0  0  0  0  0  0  0  0  0  0  0
  -24.9399  -24.6989   21.0981 C   0  0  0  0  0  0  0  0  0  0  0  0
  -31.7572  -18.4820   24.1102 C   0  0  0  0  0  0  0  0  0  0  0  0
  -30.3831  -18.4784   23.9309 C   0  0  0  0  0  0  0  0  0  0  0  0
  -30.6562  -16.6628   22.3347 C   0  0  0  0  0  0  0  0  0  0  0  0
  -22.3012   -8.2153   21.5565 C   0  0  0  0  0  0  0  0  0  0  0  0
  -26.0466  -22.6023   21.6363 C   0  0  0  0  0  0  0  0  0  0  0  0
  -20.7892   -7.1100   22.9758 C   0  0  0  0  0  0  0  0  0  0  0  0
  -19.2257   -7.1271   25.2862 C   0  0  0  0  0  0  0  0  0  0  0  0
  -21.0066   -6.1582   23.9721 C   0  0  0  0  0  0  0  0  0  0  0  0
  -24.5899  -11.6716   20.7120 C   0  0  0  0  0  0  0  0  0  0  0  0
  -25.2691  -13.7425   20.4200 C   0  0  0  0  0  0  0  0  0  0  0  0
  -22.8894  -13.5485   21.1601 C   0  0  0  0  0  0  0  0  0  0  0  0
  -25.4349  -27.2324   18.8701 C   0  0  0  0  0  0  0  0  0  0  0  0
  -22.9822  -27.9758   20.8585 C   0  0  0  0  0  0  0  0  0  0  0  0
  -21.0607  -27.1038   23.5406 C   0  0  0  0  0  0  0  0  0  0  0  0
  -30.7352  -14.7731   20.6706 C   0  0  0  0  0  0  0  0  0  0  0  0
  -26.1434  -31.8751   16.8698 C   0  0  0  0  0  0  0  0  0  0  0  0
  -24.0536  -25.1255   18.7749 C   0  0  0  0  0  0  0  0  0  0  0  0
  -34.0180  -17.8070   23.7449 C   0  0  0  0  0  0  0  0  0  0  0  0
  -24.4556  -26.0499   21.5550 C   0  0  0  0  0  0  0  0  0  0  0  0
  -25.9266  -31.3119   18.2720 C   0  0  0  0  0  0  0  0  0  0  0  0
  -33.9040  -18.6062   25.0526 C   0  0  0  0  0  0  0  0  0  0  0  0
  -29.6600  -12.2733   18.3746 C   0  0  0  0  0  0  0  0  0  0  0  0
  -26.8631  -30.1347   18.5251 C   0  0  0  0  0  0  0  0  0  0  0  0
  -28.2102  -12.0042   18.7843 C   0  0  0  0  0  0  0  0  0  0  0  0
  -30.5505  -12.5451   19.5857 C   0  0  0  0  0  0  0  0  0  0  0  0
  -28.6181  -13.3301   20.8968 C   0  0  0  0  0  0  0  0  0  0  0  0
  -32.5722  -19.3847   24.9926 C   0  0  1  0  0  0  0  0  0  0  0  0
  -26.5897  -28.9907   17.5413 C   0  0  1  0  0  0  0  0  0  0  0  0
  -24.0930  -26.6086   19.1304 C   0  0  1  0  0  0  0  0  0  0  0  0
  -27.6697  -13.1149   19.7061 C   0  0  2  0  0  0  0  0  0  0  0  0
  -19.1586  -27.9308   24.9533 C   0  0  0  0  0  0  0  0  0  0  0  0
  -33.5392  -21.6783   25.3275 C   0  0  0  0  0  0  0  0  0  0  0  0
  -33.4087  -20.6958   23.0207 C   0  0  0  0  0  0  0  0  0  0  0  0
  -28.4760  -23.3431   22.9650 C   0  0  0  0  0  0  0  0  0  0  0  0
  -24.8699  -29.9240   22.2553 C   0  0  0  0  0  0  0  0  0  0  0  0
  -23.2647  -29.9939   24.1754 C   0  0  0  0  0  0  0  0  0  0  0  0
  -22.5450  -30.7827   21.9209 C   0  0  0  0  0  0  0  0  0  0  0  0
  -19.3663  -24.7863   22.8215 C   0  0  0  0  0  0  0  0  0  0  0  0
  -29.4625  -19.3963   24.6781 C   0  0  0  0  0  0  0  0  0  0  0  0
  -27.9584  -21.3848   24.5274 C   0  0  0  0  0  0  0  0  0  0  0  0
  -22.8584  -28.3069   22.3261 C   0  0  1  0  0  0  0  0  0  0  0  0
  -19.5562  -27.0999   23.7432 C   0  0  2  0  0  0  0  0  0  0  0  0
  -32.7366  -20.7752   24.3911 C   0  0  0  0  0  0  0  0  0  0  0  0
  -27.4095  -22.4456   23.5789 C   0  0  2  0  0  0  0  0  0  1  0  0
  -23.3955  -29.7271   22.6606 C   0  0  0  0  0  0  0  0  0  0  0  0
  -25.8629  -11.5547   20.3249 N   0  0  0  0  0  0  0  0  0  0  0  0
  -26.2484  -12.8309   20.1549 N   0  0  0  0  0  0  0  0  0  0  0  0
  -23.7699  -26.8617   20.5360 N   0  0  0  0  0  0  0  0  0  0  0  0
  -29.9779  -13.6115   20.4103 N   0  0  0  0  0  0  0  0  0  0  0  0
  -25.4873  -15.0693   20.2999 N   0  0  0  0  0  0  0  0  0  0  0  0
  -21.8664  -12.6570   21.5107 N   0  0  0  0  0  0  0  0  0  0  0  0
  -30.0750  -15.7317   21.4385 N   0  0  0  0  0  0  0  0  0  0  0  0
  -25.4097  -28.2532   17.9390 N   0  0  0  0  0  0  0  0  0  0  0  0
  -21.4568  -28.1007   22.6743 N   0  0  0  0  0  0  0  0  0  0  0  0
  -19.0645  -25.7079   23.9469 N   0  3  0  0  0  0  0  0  0  0  0  0
  -28.9206  -20.4941   23.8321 N   0  3  0  0  0  0  0  0  0  0  0  0
  -22.6577  -14.7813   21.1646 O   0  0  0  0  0  0  0  0  0  0  0  0
  -26.4200  -26.8193   19.4706 O   0  0  0  0  0  0  0  0  0  0  0  0
  -22.3955  -28.6756   20.0291 O   0  0  0  0  0  0  0  0  0  0  0  0
  -21.8099  -26.3049   24.0982 O   0  0  0  0  0  0  0  0  0  0  0  0
  -31.8747  -14.9192   20.2210 O   0  0  0  0  0  0  0  0  0  0  0  0
  -21.5650   -7.1033   21.8287 O   0  0  0  0  0  0  0  0  0  0  0  0
  -26.6722  -21.8011   22.5410 O   0  0  0  0  0  0  0  0  0  1  0  0
  -18.4759   -7.1364   26.3961 F   0  0  0  0  0  0  0  0  0  0  0  0
  -21.9657   -5.2339   23.8256 F   0  0  0  0  0  0  0  0  0  0  0  0
  1  2  1  0  0  0  0
  1  5  2  0  0  0  0
  2  6  2  0  0  0  0
  3  8  2  0  0  0  0
  3 17  1  0  0  0  0
  4  9  1  0  0  0  0
  4 17  2  0  0  0  0
  5 19  1  0  0  0  0
  6 21  1  0  0  0  0
  7 10  2  0  0  0  0
  7 20  1  0  0  0  0
  8 27  1  0  0  0  0
  9 27  2  0  0  0  0
 10 28  1  0  0  0  0
 11 12  2  0  0  0  0
 11 29  1  0  0  0  0
 12 30  1  0  0  0  0
 13 22  2  0  0  0  0
 13 26  1  0  0  0  0
 14 23  1  0  0  0  0
 14 28  2  0  0  0  0
 15 25  1  0  0  0  0
 15 26  2  0  0  0  0
 16 30  2  0  0  0  0
 16 31  1  0  0  0  0
 17 32  1  0  0  0  0
 18 32  1  0  0  0  0
 18 33  2  0  0  0  0
 18 34  1  0  0  0  0
 19 21  2  0  0  0  0
 19 39  1  0  0  0  0
 20 23  2  0  0  0  0
 20 40  1  0  0  0  0
 21 51  1  0  0  0  0
 22 24  1  0  0  0  0
 22 41  1  0  0  0  0
 23 42  1  0  0  0  0
 24 25  2  0  0  0  0
 24 50  1  0  0  0  0
 25 62  1  0  0  0  0
 26 75  1  0  0  0  0
 27 85  1  0  0  0  0
 28 86  1  0  0  0  0
 29 31  2  0  0  0  0
 29 85  1  0  0  0  0
 30 87  1  0  0  0  0
 31 88  1  0  0  0  0
 32 69  2  0  0  0  0
 33 70  1  0  0  0  0
 33 73  1  0  0  0  0
 34 74  1  0  0  0  0
 34 80  2  0  0  0  0
 35 52  1  0  0  0  0
 35 76  1  0  0  0  0
 35 81  2  0  0  0  0
 36 64  1  0  0  0  0
 36 71  1  0  0  0  0
 36 82  2  0  0  0  0
 37 65  1  0  0  0  0
 37 77  1  0  0  0  0
 37 83  2  0  0  0  0
 38 72  1  0  0  0  0
 38 75  1  0  0  0  0
 38 84  2  0  0  0  0
 39 43  1  0  0  0  0
 40 52  1  0  0  0  0
 41 44  1  0  0  0  0
 42 71  1  0  0  0  0
 43 46  1  0  0  0  0
 44 50  1  0  0  0  0
 45 47  1  0  0  0  0
 45 48  1  0  0  0  0
 46 51  1  0  0  0  0
 47 53  1  0  0  0  0
 48 72  1  0  0  0  0
 49 53  1  0  0  0  0
 49 72  1  0  0  0  0
 50 66  1  0  0  0  0
 51 76  1  0  0  0  0
 52 71  1  0  0  0  0
 53 70  1  0  0  0  0
 54 65  1  0  0  0  0
 55 66  1  0  0  0  0
 56 66  1  0  0  0  0
 57 67  1  0  0  0  0
 58 68  1  0  0  0  0
 59 68  1  0  0  0  0
 60 68  1  0  0  0  0
 61 78  1  0  0  0  0
 62 79  1  0  0  0  0
 63 67  1  0  0  0  0
 63 79  1  0  0  0  0
 64 68  1  0  0  0  0
 64 77  1  0  0  0  0
 65 78  1  0  0  0  0
 67 86  1  0  0  0  0
 69 70  1  0  0  0  0
M  CHG  2  78   1  79   1
M  ISO  4  38 100  67 101  75 100  86 101
M  END
> <Batch ID>
0133

> <Smiles>
CNC(C)C(=O)NC(C(=O)N1Cc2cc([101O:1][101CH:1](C)CNCc3cc([100NH:0][100C:0](=O)N4CCCC(n5nc(-c6ccc(Oc7ccc(F)cc7F)cc6)c(C(N)=O)c5N)C4)cc4c3C(C(C)C)CC4)ccc2CC1C(=O)NC1CCCc2ccccc21)C(C)(C)C

> <Shape>
0.248

> <Color>
0.187

> <Negative vol penalty>
0.000

$$$$

  -OEChem-04052320553D

 83 91  0     1  0  0  0  0  0999 V2000
  -21.6479  -12.5126   20.0103 C   0  0  0  0  0  0  0  0  0  0  0  0
  -21.5781  -13.8525   20.3782 C   0  0  0  0  0  0  0  0  0  0  0  0
  -30.5177  -26.6652   20.8583 C   0  0  0  0  0  0  0  0  0  0  0  0
  -29.8919  -26.7043   23.1915 C   0  0  0  0  0  0  0  0  0  0  0  0
  -22.8718  -11.8454   20.0408 C   0  0  0  0  0  0  0  0  0  0  0  0
  -22.7320  -14.5256   20.7779 C   0  0  0  0  0  0  0  0  0  0  0  0
  -23.1261  -19.1188   18.6819 C   0  0  0  0  0  0  0  0  0  0  0  0
  -31.8638  -26.6146   21.2201 C   0  0  0  0  0  0  0  0  0  0  0  0
  -31.2381  -26.6536   23.5534 C   0  0  0  0  0  0  0  0  0  0  0  0
  -22.3498  -20.1381   19.2315 C   0  0  0  0  0  0  0  0  0  0  0  0
  -34.4954  -26.1707   25.0943 C   0  0  0  0  0  0  0  0  0  0  0  0
  -34.8615  -25.2898   26.1120 C   0  0  0  0  0  0  0  0  0  0  0  0
  -24.2719  -20.9361   20.4513 C   0  0  0  0  0  0  0  0  0  0  0  0
  -19.2988  -27.0983   24.2420 C   0  0  0  0  0  0  0  0  0  0  0  0
  -19.4288  -24.7327   23.8055 C   0  0  0  0  0  0  0  0  0  0  0  0
  -34.0360  -23.4345   24.8030 C   0  0  0  0  0  0  0  0  0  0  0  0
  -29.5317  -26.7101   21.8440 C   0  0  0  0  0  0  0  0  0  0  0  0
  -27.2761  -25.6729   21.2572 C   0  0  0  0  0  0  0  0  0  0  0  0
  -24.0429  -12.5134   20.4318 C   0  0  0  0  0  0  0  0  0  0  0  0
  -24.4808  -18.9936   19.0220 C   0  0  0  0  0  0  0  0  0  0  0  0
  -23.9725  -13.8664   20.8149 C   0  0  0  0  0  0  0  0  0  0  0  0
  -25.0638  -19.9158   19.9027 C   0  0  0  0  0  0  0  0  0  0  0  0
  -19.0535  -25.7859   24.6341 C   0  0  0  0  0  0  0  0  0  0  0  0
  -32.2240  -26.6088   22.5677 C   0  0  0  0  0  0  0  0  0  0  0  0
  -22.9219  -21.0452   20.1185 C   0  0  0  0  0  0  0  0  0  0  0  0
  -33.8996  -25.6835   23.9310 C   0  0  0  0  0  0  0  0  0  0  0  0
  -34.6318  -23.9217   25.9663 C   0  0  0  0  0  0  0  0  0  0  0  0
  -33.6699  -24.3154   23.7853 C   0  0  0  0  0  0  0  0  0  0  0  0
  -28.1410  -26.7630   21.4708 C   0  0  0  0  0  0  0  0  0  0  0  0
  -19.9180  -27.3264   23.0213 C   0  0  0  0  0  0  0  0  0  0  0  0
  -26.0738  -26.2484   20.9260 C   0  0  0  0  0  0  0  0  0  0  0  0
  -20.0446  -25.0208   22.5958 C   0  0  0  0  0  0  0  0  0  0  0  0
  -27.5363  -24.2660   21.3501 C   0  0  0  0  0  0  0  0  0  0  0  0
  -26.2390  -16.7611   20.4461 C   0  0  0  0  0  0  0  0  0  0  0  0
  -28.6891  -18.7265   19.6355 C   0  0  0  0  0  0  0  0  0  0  0  0
  -29.7373  -21.8781   18.8511 C   0  0  0  0  0  0  0  0  0  0  0  0
  -22.1217  -30.0960   21.7757 C   0  0  0  0  0  0  0  0  0  0  0  0
  -25.3347  -11.7374   20.4943 C   0  0  0  0  0  0  0  0  0  0  0  0
  -25.3111  -17.9046   18.3998 C   0  0  0  0  0  0  0  0  0  0  0  0
  -26.5187  -19.8372   20.2844 C   0  0  0  0  0  0  0  0  0  0  0  0
  -26.5749  -12.6243   20.5707 C   0  0  0  0  0  0  0  0  0  0  0  0
  -24.9199  -31.0398   19.7868 C   0  0  0  0  0  0  0  0  0  0  0  0
  -26.3803  -13.7259   21.6078 C   0  0  0  0  0  0  0  0  0  0  0  0
  -25.9377  -29.9251   20.0350 C   0  0  0  0  0  0  0  0  0  0  0  0
  -24.1205  -31.3648   21.0467 C   0  0  0  0  0  0  0  0  0  0  0  0
  -24.4805  -29.0912   21.9271 C   0  0  0  0  0  0  0  0  0  0  0  0
  -25.2064  -14.6376   21.2305 C   0  0  1  0  0  0  0  0  0  0  0  0
  -26.5545  -17.5620   19.2146 C   0  0  1  0  0  0  0  0  0  0  0  0
  -25.2723  -28.6896   20.6708 C   0  0  2  0  0  0  0  0  0  0  0  0
  -31.8035  -23.1806   18.2753 C   0  0  0  0  0  0  0  0  0  0  0  0
  -29.5367  -18.6728   22.5662 C   0  0  0  0  0  0  0  0  0  0  0  0
  -30.9651  -20.6795   22.1175 C   0  0  0  0  0  0  0  0  0  0  0  0
  -31.4243  -18.5335   20.9315 C   0  0  0  0  0  0  0  0  0  0  0  0
  -17.5990  -24.3788   26.0937 C   0  0  0  0  0  0  0  0  0  0  0  0
  -28.6595  -22.6394   16.2020 C   0  0  0  0  0  0  0  0  0  0  0  0
  -20.2168  -28.6964   22.5319 C   0  0  0  0  0  0  0  0  0  0  0  0
  -20.2507  -22.6069   21.9986 C   0  0  0  0  0  0  0  0  0  0  0  0
  -20.7767  -21.7739   20.8417 C   0  0  0  0  0  0  0  0  0  1  0  0
  -29.3886  -19.8907   20.2944 C   0  0  1  0  0  0  0  0  0  0  0  0
  -30.6202  -22.3962   17.7301 C   0  0  2  0  0  0  0  0  0  0  0  0
  -30.3008  -19.4447   21.4719 C   0  0  0  0  0  0  0  0  0  0  0  0
  -27.5393  -27.9417   21.2902 N   0  0  0  0  0  0  0  0  0  0  0  0
  -26.2835  -27.5956   20.9596 N   0  0  0  0  0  0  0  0  0  0  0  0
  -20.2689  -26.2938   22.2428 N   0  3  0  0  0  0  0  0  0  0  0  0
  -27.2873  -18.7510   19.6545 N   0  0  0  0  0  0  0  0  0  0  0  0
  -23.5141  -30.1510   21.5990 N   0  0  0  0  0  0  0  0  0  0  0  0
  -24.8682  -25.7283   20.6121 N   0  0  0  0  0  0  0  0  0  0  0  0
  -28.8265  -23.8469   21.7024 N   0  0  0  0  0  0  0  0  0  0  0  0
  -18.4270  -25.5234   25.8700 N   0  0  0  0  0  0  0  0  0  0  0  0
  -20.4389  -24.0142   21.7299 N   0  0  0  0  0  0  0  0  0  0  0  0
  -25.5996  -15.5633   20.1898 N   0  0  0  0  0  0  0  0  0  0  0  0
  -30.0906  -20.6004   19.2304 N   0  0  0  0  0  0  0  0  0  0  0  0
  -21.6282  -28.9069   22.2986 N   0  0  0  0  0  0  0  0  0  0  0  0
  -29.8403  -23.2890   16.8270 N   0  3  0  0  0  0  0  0  0  0  0  0
  -26.6552  -23.4057   21.1112 O   0  0  0  0  0  0  0  0  0  0  0  0
  -26.5538  -17.1970   21.5473 O   0  0  0  0  0  0  0  0  0  0  0  0
  -29.3616  -17.8319   19.1167 O   0  0  0  0  0  0  0  0  0  0  0  0
  -28.8278  -22.5419   19.3436 O   0  0  0  0  0  0  0  0  0  0  0  0
  -21.3732  -31.0349   21.4839 O   0  0  0  0  0  0  0  0  0  0  0  0
  -33.5375  -26.5592   22.9212 O   0  0  0  0  0  0  0  0  0  0  0  0
  -22.1663  -22.0408   20.6569 O   0  0  0  0  0  0  0  0  0  1  0  0
  -34.9848  -23.0758   26.9430 F   0  0  0  0  0  0  0  0  0  0  0  0
  -33.0989  -23.8413   22.6695 F   0  0  0  0  0  0  0  0  0  0  0  0
  1  2  1  0  0  0  0
  1  5  2  0  0  0  0
  2  6  2  0  0  0  0
  3  8  2  0  0  0  0
  3 17  1  0  0  0  0
  4  9  1  0  0  0  0
  4 17  2  0  0  0  0
  5 19  1  0  0  0  0
  6 21  1  0  0  0  0
  7 10  2  0  0  0  0
  7 20  1  0  0  0  0
  8 24  1  0  0  0  0
  9 24  2  0  0  0  0
 10 25  1  0  0  0  0
 11 12  2  0  0  0  0
 11 26  1  0  0  0  0
 12 27  1  0  0  0  0
 13 22  1  0  0  0  0
 13 25  2  0  0  0  0
 14 23  1  0  0  0  0
 14 30  2  0  0  0  0
 15 23  2  0  0  0  0
 15 32  1  0  0  0  0
 16 27  2  0  0  0  0
 16 28  1  0  0  0  0
 17 29  1  0  0  0  0
 18 29  1  0  0  0  0
 18 31  2  0  0  0  0
 18 33  1  0  0  0  0
 19 21  2  0  0  0  0
 19 38  1  0  0  0  0
 20 22  2  0  0  0  0
 20 39  1  0  0  0  0
 21 47  1  0  0  0  0
 22 40  1  0  0  0  0
 23 69  1  0  0  0  0
 24 80  1  0  0  0  0
 25 81  1  0  0  0  0
 26 28  2  0  0  0  0
 26 80  1  0  0  0  0
 27 82  1  0  0  0  0
 28 83  1  0  0  0  0
 29 62  2  0  0  0  0
 30 56  1  0  0  0  0
 30 64  1  0  0  0  0
 31 63  1  0  0  0  0
 31 67  1  0  0  0  0
 32 64  2  0  0  0  0
 32 70  1  0  0  0  0
 33 68  1  0  0  0  0
 33 75  2  0  0  0  0
 34 48  1  0  0  0  0
 34 71  1  0  0  0  0
 34 76  2  0  0  0  0
 35 59  1  0  0  0  0
 35 65  1  0  0  0  0
 35 77  2  0  0  0  0
 36 60  1  0  0  0  0
 36 72  1  0  0  0  0
 36 78  2  0  0  0  0
 37 66  1  0  0  0  0
 37 73  1  0  0  0  0
 37 79  2  0  0  0  0
 38 41  1  0  0  0  0
 39 48  1  0  0  0  0
 40 65  1  0  0  0  0
 41 43  1  0  0  0  0
 42 44  1  0  0  0  0
 42 45  1  0  0  0  0
 43 47  1  0  0  0  0
 44 49  1  0  0  0  0
 45 66  1  0  0  0  0
 46 49  1  0  0  0  0
 46 66  1  0  0  0  0
 47 71  1  0  0  0  0
 48 65  1  0  0  0  0
 49 63  1  0  0  0  0
 50 60  1  0  0  0  0
 51 61  1  0  0  0  0
 52 61  1  0  0  0  0
 53 61  1  0  0  0  0
 54 69  1  0  0  0  0
 55 74  1  0  0  0  0
 56 73  1  0  0  0  0
 57 58  1  0  0  0  0
 57 70  1  0  0  0  0
 58 81  1  0  0  0  0
 59 61  1  0  0  0  0
 59 72  1  0  0  0  0
 60 74  1  0  0  0  0
 62 63  1  0  0  0  0
M  CHG  2  64   1  74   1
M  ISO  4  37 100  58 101  73 100  81 101
M  END
> <Batch ID>
0133

> <Smiles>
CNc1cc(C[100NH:0][100C:0](=O)N2CCCC(n3nc(-c4ccc(Oc5ccc(F)cc5F)cc4)c(C(N)=O)c3N)C2)nc(NC[101CH2:1][101O:1]c2ccc3c(c2)CN(C(=O)C(NC(=O)C(C)NC)C(C)(C)C)C(C(=O)NC2CCCc4ccccc42)C3)c1

> <Shape>
0.217

> <Color>
0.079

> <Negative vol penalty>
0.000

$$$$

  -OEChem-04052320553D

 89 99  0     1  0  0  0  0  0999 V2000
  -16.4737  -29.2081   22.8355 C   0  0  0  0  0  0  0  0  0  0  0  0
  -17.3864  -29.6512   21.8837 C   0  0  0  0  0  0  0  0  0  0  0  0
  -24.4132   -8.6769   23.5826 C   0  0  0  0  0  0  0  0  0  0  0  0
  -24.7193   -9.0358   21.2131 C   0  0  0  0  0  0  0  0  0  0  0  0
  -16.7972  -29.2671   24.1904 C   0  0  0  0  0  0  0  0  0  0  0  0
  -18.6228  -30.1547   22.2863 C   0  0  0  0  0  0  0  0  0  0  0  0
  -24.7660  -27.1620   20.0066 C   0  0  0  0  0  0  0  0  0  0  0  0
  -23.2431   -7.9633   23.3234 C   0  0  0  0  0  0  0  0  0  0  0  0
  -23.5492   -8.3222   20.9538 C   0  0  0  0  0  0  0  0  0  0  0  0
  -25.9847  -26.7772   19.4473 C   0  0  0  0  0  0  0  0  0  0  0  0
  -22.3973   -4.8579   22.2869 C   0  0  0  0  0  0  0  0  0  0  0  0
  -22.2062   -3.6564   22.9691 C   0  0  0  0  0  0  0  0  0  0  0  0
  -27.1446  -28.3636   20.8565 C   0  0  0  0  0  0  0  0  0  0  0  0
  -20.1781   -4.5336   23.9460 C   0  0  0  0  0  0  0  0  0  0  0  0
  -25.1513   -9.2133   22.5275 C   0  0  0  0  0  0  0  0  0  0  0  0
  -27.5166   -9.4810   23.4447 C   0  0  0  0  0  0  0  0  0  0  0  0
  -18.0420  -29.7626   24.6093 C   0  0  0  0  0  0  0  0  0  0  0  0
  -24.7335  -28.1394   21.0051 C   0  0  0  0  0  0  0  0  0  0  0  0
  -18.9628  -30.2217   23.6482 C   0  0  0  0  0  0  0  0  0  0  0  0
  -25.9281  -28.7443   21.4293 C   0  0  0  0  0  0  0  0  0  0  0  0
  -22.8111   -7.7859   22.0090 C   0  0  0  0  0  0  0  0  0  0  0  0
  -27.1710  -27.3766   19.8711 C   0  0  0  0  0  0  0  0  0  0  0  0
  -21.4788   -5.8974   22.4343 C   0  0  0  0  0  0  0  0  0  0  0  0
  -21.0966   -3.4942   23.7986 C   0  0  0  0  0  0  0  0  0  0  0  0
  -20.3692   -5.7352   23.2638 C   0  0  0  0  0  0  0  0  0  0  0  0
  -26.3597   -9.9510   22.7946 C   0  0  0  0  0  0  0  0  0  0  0  0
  -28.3702  -10.5570   23.4472 C   0  0  0  0  0  0  0  0  0  0  0  0
  -27.7947   -8.1873   23.9968 C   0  0  0  0  0  0  0  0  0  0  0  0
  -22.6478  -30.1552   23.3847 C   0  0  0  0  0  0  0  0  0  0  0  0
  -25.1935  -29.3486   24.8944 C   0  0  0  0  0  0  0  0  0  0  0  0
  -27.9305  -27.9024   26.3277 C   0  0  0  0  0  0  0  0  0  0  0  0
  -28.3157  -15.3556   19.7138 C   0  0  0  0  0  0  0  0  0  0  0  0
  -18.3281  -29.8508   26.0875 C   0  0  0  0  0  0  0  0  0  0  0  0
  -23.4375  -28.6288   21.5921 C   0  0  0  0  0  0  0  0  0  0  0  0
  -25.8415  -29.8158   22.4815 C   0  0  0  0  0  0  0  0  0  0  0  0
  -19.8066  -30.0499   26.4110 C   0  0  0  0  0  0  0  0  0  0  0  0
  -28.3970  -15.3306   23.4556 C   0  0  0  0  0  0  0  0  0  0  0  0
  -32.7984  -18.9597   23.2320 C   0  0  0  0  0  0  0  0  0  0  0  0
  -20.4049  -31.1386   25.5258 C   0  0  0  0  0  0  0  0  0  0  0  0
  -30.0544  -23.9684   17.8601 C   0  0  0  0  0  0  0  0  0  0  0  0
  -28.4213  -23.2374   19.6474 C   0  0  0  0  0  0  0  0  0  0  0  0
  -27.9066  -13.9134   23.7474 C   0  0  0  0  0  0  0  0  0  0  0  0
  -31.8489  -18.0389   22.4887 C   0  0  0  0  0  0  0  0  0  0  0  0
  -29.8398  -25.4238   18.2645 C   0  0  0  0  0  0  0  0  0  0  0  0
  -28.2107  -24.6949   20.0465 C   0  0  0  0  0  0  0  0  0  0  0  0
  -28.6057  -18.8940   18.6775 C   0  0  0  0  0  0  0  0  0  0  0  0
  -27.8317  -15.8510   22.1394 C   0  0  0  0  0  0  0  0  0  0  0  0
  -28.6051  -17.4033   18.3673 C   0  0  0  0  0  0  0  0  0  0  0  0
  -30.1654  -16.9902   20.2393 C   0  0  0  0  0  0  0  0  0  0  0  0
  -27.6303  -13.5496   21.2529 C   0  0  0  0  0  0  0  0  0  0  0  0
  -32.1581  -20.3233   23.0649 C   0  0  0  0  0  0  0  0  0  0  0  0
  -20.3239  -30.7514   24.0442 C   0  0  1  0  0  0  0  0  0  0  0  0
  -23.5504  -28.9951   23.0828 C   0  0  1  0  0  0  0  0  0  0  0  0
  -30.1918  -18.4804   20.6010 C   0  0  1  0  0  0  0  0  0  0  0  0
  -29.8118  -23.0132   19.0369 C   0  0  0  0  0  0  0  0  0  0  0  0
  -28.1965  -12.9766   22.5625 C   0  0  2  0  0  0  0  0  0  0  0  0
  -31.5215  -18.8358   21.2344 C   0  0  1  0  0  0  0  0  0  0  0  0
  -28.4576  -25.6420   18.8741 C   0  0  0  0  0  0  0  0  0  1  0  0
  -29.9021  -19.3380   19.3558 C   0  0  2  0  0  0  0  0  0  0  0  0
  -29.1774  -27.7703   28.5015 C   0  0  0  0  0  0  0  0  0  0  0  0
  -26.3422  -32.1307   24.4003 C   0  0  0  0  0  0  0  0  0  0  0  0
  -28.2022  -31.5654   25.9781 C   0  0  0  0  0  0  0  0  0  0  0  0
  -25.8465  -31.6169   26.7971 C   0  0  0  0  0  0  0  0  0  0  0  0
  -27.5060  -24.9802   26.5271 C   0  0  0  0  0  0  0  0  0  0  0  0
  -29.9792  -21.5604   18.5956 C   0  0  0  0  0  0  0  0  0  0  0  0
  -26.5967  -29.7236   25.2989 C   0  0  1  0  0  0  0  0  0  0  0  0
  -28.1021  -27.1408   27.6296 C   0  0  2  0  0  0  0  0  0  0  0  0
  -26.7418  -31.2429   25.5958 C   0  0  0  0  0  0  0  0  0  0  0  0
  -26.4654  -11.2264   22.4121 N   0  0  0  0  0  0  0  0  0  0  0  0
  -27.6988  -11.5669   22.8232 N   0  0  0  0  0  0  0  0  0  0  0  0
  -24.8895  -29.4153   23.5293 N   0  0  0  0  0  0  0  0  0  0  0  0
  -28.0896  -14.9223   21.0311 N   0  0  0  0  0  0  0  0  0  0  0  0
  -28.9197  -16.6144   19.5571 N   0  0  0  0  0  0  0  0  0  0  0  0
  -29.6221  -10.7284   23.9225 N   0  0  0  0  0  0  0  0  0  0  0  0
  -28.3855   -7.2213   23.1708 N   0  0  0  0  0  0  0  0  0  0  0  0
  -21.3562  -29.7919   23.7155 N   0  0  0  0  0  0  0  0  0  0  0  0
  -26.9425  -28.8595   26.4223 N   0  0  0  0  0  0  0  0  0  0  0  0
  -31.5037  -20.2647   21.7132 N   0  3  0  0  0  0  0  0  0  0  0  0
  -28.4868  -25.7272   27.3560 N   0  3  0  0  0  0  0  0  0  0  0  0
  -27.5123   -7.8914   25.1826 O   0  0  0  0  0  0  0  0  0  0  0  0
  -23.0898  -31.2965   23.3238 O   0  0  0  0  0  0  0  0  0  0  0  0
  -24.3851  -29.0108   25.7638 O   0  0  0  0  0  0  0  0  0  0  0  0
  -28.6080  -27.6739   25.3281 O   0  0  0  0  0  0  0  0  0  0  0  0
  -27.9991  -14.6618   18.7395 O   0  0  0  0  0  0  0  0  0  0  0  0
  -21.6695   -7.0893   21.7557 O   0  0  0  0  0  0  0  0  0  0  0  0
  -28.3655  -26.9905   19.3205 O   0  0  0  0  0  0  0  0  0  1  0  0
  -29.7583  -20.7098   19.7111 O   0  0  0  0  0  0  0  0  0  0  0  0
  -20.9124   -2.3398   24.4525 F   0  0  0  0  0  0  0  0  0  0  0  0
  -19.4828   -6.7297   23.4084 F   0  0  0  0  0  0  0  0  0  0  0  0
  1  2  1  0  0  0  0
  1  5  2  0  0  0  0
  2  6  2  0  0  0  0
  3  8  2  0  0  0  0
  3 15  1  0  0  0  0
  4  9  1  0  0  0  0
  4 15  2  0  0  0  0
  5 17  1  0  0  0  0
  6 19  1  0  0  0  0
  7 10  2  0  0  0  0
  7 18  1  0  0  0  0
  8 21  1  0  0  0  0
  9 21  2  0  0  0  0
 10 22  1  0  0  0  0
 11 12  2  0  0  0  0
 11 23  1  0  0  0  0
 12 24  1  0  0  0  0
 13 20  1  0  0  0  0
 13 22  2  0  0  0  0
 14 24  2  0  0  0  0
 14 25  1  0  0  0  0
 15 26  1  0  0  0  0
 16 26  1  0  0  0  0
 16 27  2  0  0  0  0
 16 28  1  0  0  0  0
 17 19  2  0  0  0  0
 17 33  1  0  0  0  0
 18 20  2  0  0  0  0
 18 34  1  0  0  0  0
 19 52  1  0  0  0  0
 20 35  1  0  0  0  0
 21 85  1  0  0  0  0
 22 86  1  0  0  0  0
 23 25  2  0  0  0  0
 23 85  1  0  0  0  0
 24 88  1  0  0  0  0
 25 89  1  0  0  0  0
 26 69  2  0  0  0  0
 27 70  1  0  0  0  0
 27 74  1  0  0  0  0
 28 75  1  0  0  0  0
 28 80  2  0  0  0  0
 29 53  1  0  0  0  0
 29 76  1  0  0  0  0
 29 81  2  0  0  0  0
 30 66  1  0  0  0  0
 30 71  1  0  0  0  0
 30 82  2  0  0  0  0
 31 67  1  0  0  0  0
 31 77  1  0  0  0  0
 31 83  2  0  0  0  0
 32 72  1  0  0  0  0
 32 73  1  0  0  0  0
 32 84  2  0  0  0  0
 33 36  1  0  0  0  0
 34 53  1  0  0  0  0
 35 71  1  0  0  0  0
 36 39  1  0  0  0  0
 37 42  1  0  0  0  0
 37 47  1  0  0  0  0
 38 43  1  0  0  0  0
 38 51  1  0  0  0  0
 39 52  1  0  0  0  0
 40 44  1  0  0  0  0
 40 55  1  0  0  0  0
 41 45  1  0  0  0  0
 41 55  1  0  0  0  0
 42 56  1  0  0  0  0
 43 57  1  0  0  0  0
 44 58  1  0  0  0  0
 45 58  1  0  0  0  0
 46 48  1  0  0  0  0
 46 59  1  0  0  0  0
 47 72  1  0  0  0  0
 48 73  1  0  0  0  0
 49 54  1  0  0  0  0
 49 73  1  0  0  0  0
 50 56  1  0  0  0  0
 50 72  1  0  0  0  0
 51 78  1  0  0  0  0
 52 76  1  0  0  0  0
 53 71  1  0  0  0  0
 54 57  1  0  0  0  0
 54 59  1  0  0  0  0
 55 65  1  0  0  0  0
 56 70  1  0  0  0  0
 57 78  1  0  0  0  0
 58 86  1  0  0  0  0
 59 87  1  0  0  0  0
 60 67  1  0  0  0  0
 61 68  1  0  0  0  0
 62 68  1  0  0  0  0
 63 68  1  0  0  0  0
 64 79  1  0  0  0  0
 65 87  1  0  0  0  0
 66 68  1  0  0  0  0
 66 77  1  0  0  0  0
 67 79  1  0  0  0  0
 69 70  1  0  0  0  0
M  CHG  2  78   1  79   1
M  ISO  4  32 100  58 101  73 100  86 101
M  END
> <Batch ID>
0133

> <Smiles>
CNC(C)C(=O)NC(C(=O)N1Cc2cc([101O:1][101CH:1]3CCC(COC4CC[100N:0]([100C:0](=O)N5CCCC(n6nc(-c7ccc(Oc8ccc(F)cc8F)cc7)c(C(N)=O)c6N)C5)CC4C4CCCN4)CC3)ccc2CC1C(=O)NC1CCCc2ccccc21)C(C)(C)C

> <Shape>
0.287

> <Color>
0.111

> <Negative vol penalty>
0.000

$$$$

  -OEChem-04052320553D

 86 95  0     1  0  0  0  0  0999 V2000
  -27.7040  -38.0174   25.9047 C   0  0  0  0  0  0  0  0  0  0  0  0
  -28.4145  -36.8988   25.4812 C   0  0  0  0  0  0  0  0  0  0  0  0
  -24.9820   -8.3699   22.2917 C   0  0  0  0  0  0  0  0  0  0  0  0
  -25.0105   -7.7659   19.9526 C   0  0  0  0  0  0  0  0  0  0  0  0
  -26.3440  -37.9102   26.1926 C   0  0  0  0  0  0  0  0  0  0  0  0
  -27.7656  -35.6720   25.3465 C   0  0  0  0  0  0  0  0  0  0  0  0
  -27.8606  -29.7129   21.3720 C   0  0  0  0  0  0  0  0  0  0  0  0
  -28.6660  -23.4854   22.9057 C   0  0  0  0  0  0  0  0  0  0  0  0
  -28.5385  -22.1029   23.0402 C   0  0  0  0  0  0  0  0  0  0  0  0
  -23.7168   -7.7980   22.4241 C   0  0  0  0  0  0  0  0  0  0  0  0
  -23.7452   -7.1938   20.0850 C   0  0  0  0  0  0  0  0  0  0  0  0
  -27.9189  -28.3268   21.5104 C   0  0  0  0  0  0  0  0  0  0  0  0
  -22.4059   -4.6978   22.7460 C   0  0  0  0  0  0  0  0  0  0  0  0
  -22.1757   -3.8827   23.8542 C   0  0  0  0  0  0  0  0  0  0  0  0
  -25.5494  -28.2780   21.9599 C   0  0  0  0  0  0  0  0  0  0  0  0
  -27.1150  -23.4483   21.0537 C   0  0  0  0  0  0  0  0  0  0  0  0
  -20.4028   -5.3588   24.5718 C   0  0  0  0  0  0  0  0  0  0  0  0
  -25.6289   -8.3539   21.0560 C   0  0  0  0  0  0  0  0  0  0  0  0
  -28.1792   -8.3100   21.0974 C   0  0  0  0  0  0  0  0  0  0  0  0
  -25.6760  -36.6835   26.0521 C   0  0  0  0  0  0  0  0  0  0  0  0
  -26.6462  -30.3942   21.5376 C   0  0  0  0  0  0  0  0  0  0  0  0
  -26.3957  -35.5479   25.6341 C   0  0  0  0  0  0  0  0  0  0  0  0
  -25.4778  -29.6725   21.8206 C   0  0  0  0  0  0  0  0  0  0  0  0
  -27.9542  -24.1581   21.9125 C   0  0  0  0  0  0  0  0  0  0  0  0
  -26.9875  -22.0658   21.1881 C   0  0  0  0  0  0  0  0  0  0  0  0
  -27.6993  -21.3931   22.1814 C   0  0  0  0  0  0  0  0  0  0  0  0
  -23.0983   -7.2099   21.3208 C   0  0  0  0  0  0  0  0  0  0  0  0
  -26.7638  -27.6094   21.8072 C   0  0  0  0  0  0  0  0  0  0  0  0
  -21.6346   -5.8436   22.5507 C   0  0  0  0  0  0  0  0  0  0  0  0
  -21.1742   -4.2131   24.7671 C   0  0  0  0  0  0  0  0  0  0  0  0
  -20.6331   -6.1740   23.4636 C   0  0  0  0  0  0  0  0  0  0  0  0
  -26.9357   -8.9451   20.9185 C   0  0  0  0  0  0  0  0  0  0  0  0
  -29.1057   -9.2941   20.8536 C   0  0  0  0  0  0  0  0  0  0  0  0
  -28.4707   -6.9517   21.4522 C   0  0  0  0  0  0  0  0  0  0  0  0
  -25.5741  -32.6116   23.5470 C   0  0  0  0  0  0  0  0  0  0  0  0
  -22.9752  -32.5568   21.6067 C   0  0  0  0  0  0  0  0  0  0  0  0
  -21.0759  -30.8325   19.3558 C   0  0  0  0  0  0  0  0  0  0  0  0
  -29.0667  -15.0508   21.3524 C   0  0  0  0  0  0  0  0  0  0  0  0
  -24.2156  -36.6059   26.4206 C   0  0  0  0  0  0  0  0  0  0  0  0
  -26.5950  -31.8868   21.3588 C   0  0  0  0  0  0  0  0  0  0  0  0
  -24.1454  -30.3544   21.9881 C   0  0  0  0  0  0  0  0  0  0  0  0
  -23.5199  -35.3539   25.8925 C   0  0  0  0  0  0  0  0  0  0  0  0
  -29.7299  -13.3275   18.3659 C   0  0  0  0  0  0  0  0  0  0  0  0
  -24.3679  -34.1161   26.1669 C   0  0  0  0  0  0  0  0  0  0  0  0
  -29.2055  -11.9309   18.6987 C   0  0  0  0  0  0  0  0  0  0  0  0
  -27.6380  -18.2009   20.7009 C   0  0  0  0  0  0  0  0  0  0  0  0
  -29.2623  -18.2652   22.6311 C   0  0  0  0  0  0  0  0  0  0  0  0
  -28.8156  -14.4273   18.9088 C   0  0  0  0  0  0  0  0  0  0  0  0
  -28.5094  -17.1378   20.0255 C   0  0  0  0  0  0  0  0  0  0  0  0
  -30.1130  -17.2254   21.9070 C   0  0  0  0  0  0  0  0  0  0  0  0
  -28.0056  -12.9132   20.6892 C   0  0  0  0  0  0  0  0  0  0  0  0
  -25.7217  -34.2052   25.4521 C   0  0  1  0  0  0  0  0  0  0  0  0
  -25.4014  -32.5316   22.0566 C   0  0  1  0  0  0  0  0  0  0  0  0
  -28.9338  -11.7877   20.2069 C   0  0  1  0  0  0  0  0  0  0  0  0
  -28.4624  -19.0987   21.6265 C   0  0  0  0  0  0  0  0  0  0  0  0
  -26.0816  -21.3305   20.2548 C   0  0  0  0  0  0  0  0  0  0  0  0
  -18.9913  -31.0344   17.9734 C   0  0  0  0  0  0  0  0  0  0  0  0
  -21.2796  -32.0865   24.0994 C   0  0  0  0  0  0  0  0  0  0  0  0
  -19.4074  -31.3606   22.6040 C   0  0  0  0  0  0  0  0  0  0  0  0
  -20.2915  -33.6883   22.4525 C   0  0  0  0  0  0  0  0  0  0  0  0
  -26.5707  -19.4429   23.2220 C   0  0  0  0  0  0  0  0  0  0  0  0
  -22.5842  -30.5304   16.8274 C   0  0  0  0  0  0  0  0  0  0  0  0
  -28.0909  -25.6362   21.7691 C   0  0  0  0  0  0  0  0  0  1  0  0
  -21.6855  -31.7731   21.5690 C   0  0  1  0  0  0  0  0  0  0  0  0
  -20.4988  -31.2318   18.0097 C   0  0  2  0  0  0  0  0  0  0  0  0
  -20.6913  -32.2142   22.6800 C   0  0  0  0  0  0  0  0  0  0  0  0
  -27.0576  -10.2332   20.5868 N   0  0  0  0  0  0  0  0  0  0  0  0
  -28.3887  -10.4154   20.5554 N   0  0  0  0  0  0  0  0  0  0  0  0
  -24.1480  -31.8158   21.8098 N   0  0  0  0  0  0  0  0  0  0  0  0
  -28.5529  -14.2260   20.3406 N   0  0  0  0  0  0  0  0  0  0  0  0
  -29.2928  -16.3958   21.0237 N   0  0  0  0  0  0  0  0  0  0  0  0
  -30.4556   -9.3012   20.8675 N   0  0  0  0  0  0  0  0  0  0  0  0
  -27.4003   -6.0728   21.6669 N   0  0  0  0  0  0  0  0  0  0  0  0
  -25.5715  -33.9004   24.0453 N   0  0  0  0  0  0  0  0  0  0  0  0
  -21.1648  -31.9089   20.2129 N   0  0  0  0  0  0  0  0  0  0  0  0
  -27.5836  -20.0061   22.3309 N   0  0  3  0  0  0  0  0  0  0  0  0
  -21.1062  -30.4135   16.9224 N   0  3  0  0  0  0  0  0  0  0  0  0
  -29.6454   -6.5341   21.5911 O   0  0  0  0  0  0  0  0  0  0  0  0
  -25.6990  -31.5803   24.1970 O   0  0  0  0  0  0  0  0  0  0  0  0
  -22.9439  -33.7805   21.4541 O   0  0  0  0  0  0  0  0  0  0  0  0
  -21.4108  -29.6803   19.6216 O   0  0  0  0  0  0  0  0  0  0  0  0
  -29.3090  -14.6116   22.4836 O   0  0  0  0  0  0  0  0  0  0  0  0
  -21.8638   -6.6514   21.4496 O   0  0  0  0  0  0  0  0  0  0  0  0
  -26.8184  -26.2472   21.9443 O   0  0  0  0  0  0  0  0  0  1  0  0
  -20.9522   -3.4294   25.8304 F   0  0  0  0  0  0  0  0  0  0  0  0
  -19.8881   -7.2728   23.2807 F   0  0  0  0  0  0  0  0  0  0  0  0
  1  2  1  0  0  0  0
  1  5  2  0  0  0  0
  2  6  2  0  0  0  0
  3 10  2  0  0  0  0
  3 18  1  0  0  0  0
  4 11  1  0  0  0  0
  4 18  2  0  0  0  0
  5 20  1  0  0  0  0
  6 22  1  0  0  0  0
  7 12  2  0  0  0  0
  7 21  1  0  0  0  0
  8  9  2  0  0  0  0
  8 24  1  0  0  0  0
  9 26  1  0  0  0  0
 10 27  1  0  0  0  0
 11 27  2  0  0  0  0
 12 28  1  0  0  0  0
 13 14  2  0  0  0  0
 13 29  1  0  0  0  0
 14 30  1  0  0  0  0
 15 23  1  0  0  0  0
 15 28  2  0  0  0  0
 16 24  2  0  0  0  0
 16 25  1  0  0  0  0
 17 30  2  0  0  0  0
 17 31  1  0  0  0  0
 18 32  1  0  0  0  0
 19 32  1  0  0  0  0
 19 33  2  0  0  0  0
 19 34  1  0  0  0  0
 20 22  2  0  0  0  0
 20 39  1  0  0  0  0
 21 23  2  0  0  0  0
 21 40  1  0  0  0  0
 22 52  1  0  0  0  0
 23 41  1  0  0  0  0
 24 63  1  0  0  0  0
 25 26  2  0  0  0  0
 25 56  1  0  0  0  0
 26 76  1  0  0  0  0
 27 83  1  0  0  0  0
 28 84  1  0  0  0  0
 29 31  2  0  0  0  0
 29 83  1  0  0  0  0
 30 85  1  0  0  0  0
 31 86  1  0  0  0  0
 32 67  2  0  0  0  0
 33 68  1  0  0  0  0
 33 72  1  0  0  0  0
 34 73  1  0  0  0  0
 34 78  2  0  0  0  0
 35 53  1  0  0  0  0
 35 74  1  0  0  0  0
 35 79  2  0  0  0  0
 36 64  1  0  0  0  0
 36 69  1  0  0  0  0
 36 80  2  0  0  0  0
 37 65  1  0  0  0  0
 37 75  1  0  0  0  0
 37 81  2  0  0  0  0
 38 70  1  0  0  0  0
 38 71  1  0  0  0  0
 38 82  2  0  0  0  0
 39 42  1  0  0  0  0
 40 53  1  0  0  0  0
 41 69  1  0  0  0  0
 42 44  1  0  0  0  0
 43 45  1  0  0  0  0
 43 48  1  0  0  0  0
 44 52  1  0  0  0  0
 45 54  1  0  0  0  0
 46 49  1  0  0  0  0
 46 55  1  0  0  0  0
 47 50  1  0  0  0  0
 47 55  1  0  0  0  0
 48 70  1  0  0  0  0
 49 71  1  0  0  0  0
 50 71  1  0  0  0  0
 51 54  1  0  0  0  0
 51 70  1  0  0  0  0
 52 74  1  0  0  0  0
 53 69  1  0  0  0  0
 54 68  1  0  0  0  0
 55 76  1  0  0  0  0
 57 65  1  0  0  0  0
 58 66  1  0  0  0  0
 59 66  1  0  0  0  0
 60 66  1  0  0  0  0
 61 76  1  0  0  0  0
 62 77  1  0  0  0  0
 63 84  1  0  0  0  0
 64 66  1  0  0  0  0
 64 75  1  0  0  0  0
 65 77  1  0  0  0  0
 67 68  1  0  0  0  0
M  CHG  1  77   1
M  ISO  4  38 100  63 101  71 100  84 101
M  END
> <Batch ID>
0133

> <Smiles>
CNC(C)C(=O)NC(C(=O)N1Cc2cc([101O:1][101CH2:1]c3ccc(N(C)C4CC[100N:0]([100C:0](=O)N5CCCC(n6nc(-c7ccc(Oc8ccc(F)cc8F)cc7)c(C(N)=O)c6N)C5)CC4)c(C)c3)ccc2CC1C(=O)NC1CCCc2ccccc21)C(C)(C)C

> <Shape>
0.238

> <Color>
0.078

> <Negative vol penalty>
0.000

$$$$

  -OEChem-04052320553D

 81 89  0     1  0  0  0  0  0999 V2000
  -24.2454  -22.1141   15.9006 C   0  0  0  0  0  0  0  0  0  0  0  0
  -24.9046  -21.6693   17.0421 C   0  0  0  0  0  0  0  0  0  0  0  0
  -23.0970   -9.8558   19.9686 C   0  0  0  0  0  0  0  0  0  0  0  0
  -23.8388   -9.9188   22.2671 C   0  0  0  0  0  0  0  0  0  0  0  0
  -24.4781  -23.4019   15.4199 C   0  0  0  0  0  0  0  0  0  0  0  0
  -25.7978  -22.5118   17.7029 C   0  0  0  0  0  0  0  0  0  0  0  0
  -25.1754  -22.4455   22.7282 C   0  0  0  0  0  0  0  0  0  0  0  0
  -22.3595   -8.7030   20.2383 C   0  0  0  0  0  0  0  0  0  0  0  0
  -23.1012   -8.7661   22.5368 C   0  0  0  0  0  0  0  0  0  0  0  0
  -25.7020  -21.3561   23.4207 C   0  0  0  0  0  0  0  0  0  0  0  0
  -21.1255   -6.0446   23.9182 C   0  0  0  0  0  0  0  0  0  0  0  0
  -20.3604   -6.0213   25.0842 C   0  0  0  0  0  0  0  0  0  0  0  0
  -27.6148  -22.6860   24.0464 C   0  0  0  0  0  0  0  0  0  0  0  0
  -28.8075  -18.4565   24.7190 C   0  0  0  0  0  0  0  0  0  0  0  0
  -19.1078   -7.9328   24.3005 C   0  0  0  0  0  0  0  0  0  0  0  0
  -29.3002  -18.9776   22.0864 C   0  0  0  0  0  0  0  0  0  0  0  0
  -23.8368  -10.4637   20.9830 C   0  0  0  0  0  0  0  0  0  0  0  0
  -24.1614  -12.9880   20.8099 C   0  0  0  0  0  0  0  0  0  0  0  0
  -25.3673  -24.2641   16.0806 C   0  0  0  0  0  0  0  0  0  0  0  0
  -25.8710  -23.6622   22.6804 C   0  0  0  0  0  0  0  0  0  0  0  0
  -26.0436  -23.8120   17.2298 C   0  0  0  0  0  0  0  0  0  0  0  0
  -27.0937  -23.7902   23.3548 C   0  0  0  0  0  0  0  0  0  0  0  0
  -29.6334  -17.6017   23.9975 C   0  0  0  0  0  0  0  0  0  0  0  0
  -29.8891  -17.8599   22.6553 C   0  0  0  0  0  0  0  0  0  0  0  0
  -22.3616   -8.1581   21.5223 C   0  0  0  0  0  0  0  0  0  0  0  0
  -26.9233  -21.4753   24.0775 C   0  0  0  0  0  0  0  0  0  0  0  0
  -20.8818   -7.0121   22.9433 C   0  0  0  0  0  0  0  0  0  0  0  0
  -19.3515   -6.9654   25.2754 C   0  0  0  0  0  0  0  0  0  0  0  0
  -19.8730   -7.9561   23.1344 C   0  0  0  0  0  0  0  0  0  0  0  0
  -24.5993  -11.6542   20.7050 C   0  0  0  0  0  0  0  0  0  0  0  0
  -28.2663  -19.5470   24.0575 C   0  0  0  0  0  0  0  0  0  1  0  0
  -25.2510  -13.7373   20.4386 C   0  0  0  0  0  0  0  0  0  0  0  0
  -22.8840  -13.5036   21.2075 C   0  0  0  0  0  0  0  0  0  0  0  0
  -27.1438  -25.4289   20.3648 C   0  0  0  0  0  0  0  0  0  0  0  0
  -27.6571  -27.5297   22.7826 C   0  0  0  0  0  0  0  0  0  0  0  0
  -28.0680  -28.0499   26.1303 C   0  0  0  0  0  0  0  0  0  0  0  0
  -30.7257  -14.8004   20.6466 C   0  0  0  0  0  0  0  0  0  0  0  0
  -25.6223  -25.6309   15.4963 C   0  0  0  0  0  0  0  0  0  0  0  0
  -25.2766  -24.8360   21.9515 C   0  0  0  0  0  0  0  0  0  0  0  0
  -27.8701  -25.0808   23.3510 C   0  0  0  0  0  0  0  0  0  0  0  0
  -26.3006  -26.5923   16.4690 C   0  0  0  0  0  0  0  0  0  0  0  0
  -29.6240  -12.3556   18.3044 C   0  0  0  0  0  0  0  0  0  0  0  0
  -27.4737  -25.9088   17.1643 C   0  0  0  0  0  0  0  0  0  0  0  0
  -28.1853  -12.0610   18.7326 C   0  0  0  0  0  0  0  0  0  0  0  0
  -30.5300  -12.6096   19.5071 C   0  0  0  0  0  0  0  0  0  0  0  0
  -28.6122  -13.3571   20.8625 C   0  0  0  0  0  0  0  0  0  0  0  0
  -27.0012  -24.7051   17.9885 C   0  0  1  0  0  0  0  0  0  0  0  0
  -26.3173  -25.8723   21.5386 C   0  0  1  0  0  0  0  0  0  0  0  0
  -27.6486  -13.1494   19.6816 C   0  0  2  0  0  0  0  0  0  0  0  0
  -32.0072  -15.6055   26.2965 C   0  0  0  0  0  0  0  0  0  0  0  0
  -28.5086  -29.8692   27.8017 C   0  0  0  0  0  0  0  0  0  0  0  0
  -30.5895  -27.5885   21.9417 C   0  0  0  0  0  0  0  0  0  0  0  0
  -31.1314  -28.6243   24.1557 C   0  0  0  0  0  0  0  0  0  0  0  0
  -29.6353  -29.8173   22.5554 C   0  0  0  0  0  0  0  0  0  0  0  0
  -25.5043  -27.5514   27.5225 C   0  0  0  0  0  0  0  0  0  0  0  0
  -30.2333  -16.4178   24.6806 C   0  0  0  0  0  0  0  0  0  0  0  0
  -30.7664  -16.9781   21.8361 C   0  0  0  0  0  0  0  0  0  0  0  0
  -31.4190  -16.8079   25.5753 C   0  0  0  0  0  0  0  0  0  0  0  0
  -28.7742  -27.7730   23.7684 C   0  0  1  0  0  0  0  0  0  0  0  0
  -27.4446  -29.0599   27.0768 C   0  0  2  0  0  0  0  0  0  0  0  0
  -30.0192  -28.4257   23.1039 C   0  0  0  0  0  0  0  0  0  0  0  0
  -28.4924  -19.8308   22.7552 N   0  0  0  0  0  0  0  0  0  0  0  0
  -25.8680  -11.5584   20.2987 N   0  0  0  0  0  0  0  0  0  0  0  0
  -26.2367  -12.8416   20.1449 N   0  0  0  0  0  0  0  0  0  0  0  0
  -27.2503  -26.1979   22.6192 N   0  0  0  0  0  0  0  0  0  0  0  0
  -29.9652  -13.6533   20.3659 N   0  0  0  0  0  0  0  0  0  0  0  0
  -25.4524  -15.0683   20.3378 N   0  0  0  0  0  0  0  0  0  0  0  0
  -21.8760  -12.5947   21.5570 N   0  0  0  0  0  0  0  0  0  0  0  0
  -26.4054  -25.1462   19.2315 N   0  0  0  0  0  0  0  0  0  0  0  0
  -28.1966  -28.5571   24.8546 N   0  0  0  0  0  0  0  0  0  0  0  0
  -30.1133  -15.7431   21.4632 N   0  0  0  0  0  0  0  0  0  0  0  0
  -26.6063  -28.3666   28.0953 N   0  3  0  0  0  0  0  0  0  0  0  0
  -22.6385  -14.7334   21.2359 O   0  0  0  0  0  0  0  0  0  0  0  0
  -28.3615  -25.3507   20.4784 O   0  0  0  0  0  0  0  0  0  0  0  0
  -27.1587  -28.4868   22.1851 O   0  0  0  0  0  0  0  0  0  0  0  0
  -28.4103  -26.9250   26.4879 O   0  0  0  0  0  0  0  0  0  0  0  0
  -31.8639  -14.9742   20.1979 O   0  0  0  0  0  0  0  0  0  0  0  0
  -21.6418   -7.0334   21.7859 O   0  0  0  0  0  0  0  0  0  0  0  0
  -27.4398  -20.4133   24.7536 O   0  0  0  0  0  0  0  0  0  1  0  0
  -18.6158   -6.9419   26.3945 F   0  0  0  0  0  0  0  0  0  0  0  0
  -19.6334   -8.8872   22.2009 F   0  0  0  0  0  0  0  0  0  0  0  0
  1  2  1  0  0  0  0
  1  5  2  0  0  0  0
  2  6  2  0  0  0  0
  3  8  2  0  0  0  0
  3 17  1  0  0  0  0
  4  9  1  0  0  0  0
  4 17  2  0  0  0  0
  5 19  1  0  0  0  0
  6 21  1  0  0  0  0
  7 10  2  0  0  0  0
  7 20  1  0  0  0  0
  8 25  1  0  0  0  0
  9 25  2  0  0  0  0
 10 26  1  0  0  0  0
 11 12  2  0  0  0  0
 11 27  1  0  0  0  0
 12 28  1  0  0  0  0
 13 22  1  0  0  0  0
 13 26  2  0  0  0  0
 14 23  1  0  0  0  0
 14 31  2  0  0  0  0
 15 28  2  0  0  0  0
 15 29  1  0  0  0  0
 16 24  1  0  0  0  0
 16 62  2  0  0  0  0
 17 30  1  0  0  0  0
 18 30  1  0  0  0  0
 18 32  2  0  0  0  0
 18 33  1  0  0  0  0
 19 21  2  0  0  0  0
 19 38  1  0  0  0  0
 20 22  2  0  0  0  0
 20 39  1  0  0  0  0
 21 47  1  0  0  0  0
 22 40  1  0  0  0  0
 23 24  2  0  0  0  0
 23 56  1  0  0  0  0
 24 57  1  0  0  0  0
 25 78  1  0  0  0  0
 26 79  1  0  0  0  0
 27 29  2  0  0  0  0
 27 78  1  0  0  0  0
 28 80  1  0  0  0  0
 29 81  1  0  0  0  0
 30 63  2  0  0  0  0
 31 62  1  0  0  0  0
 31 79  1  0  0  0  0
 32 64  1  0  0  0  0
 32 67  1  0  0  0  0
 33 68  1  0  0  0  0
 33 73  2  0  0  0  0
 34 48  1  0  0  0  0
 34 69  1  0  0  0  0
 34 74  2  0  0  0  0
 35 59  1  0  0  0  0
 35 65  1  0  0  0  0
 35 75  2  0  0  0  0
 36 60  1  0  0  0  0
 36 70  1  0  0  0  0
 36 76  2  0  0  0  0
 37 66  1  0  0  0  0
 37 71  1  0  0  0  0
 37 77  2  0  0  0  0
 38 41  1  0  0  0  0
 39 48  1  0  0  0  0
 40 65  1  0  0  0  0
 41 43  1  0  0  0  0
 42 44  1  0  0  0  0
 42 45  1  0  0  0  0
 43 47  1  0  0  0  0
 44 49  1  0  0  0  0
 45 66  1  0  0  0  0
 46 49  1  0  0  0  0
 46 66  1  0  0  0  0
 47 69  1  0  0  0  0
 48 65  1  0  0  0  0
 49 64  1  0  0  0  0
 50 58  1  0  0  0  0
 51 60  1  0  0  0  0
 52 61  1  0  0  0  0
 53 61  1  0  0  0  0
 54 61  1  0  0  0  0
 55 72  1  0  0  0  0
 56 58  1  0  0  0  0
 57 71  1  0  0  0  0
 59 61  1  0  0  0  0
 59 70  1  0  0  0  0
 60 72  1  0  0  0  0
 63 64  1  0  0  0  0
M  CHG  1  72   1
M  ISO  4  31 101  37 100  71 100  79 101
M  END
> <Batch ID>
0133

> <Smiles>
CCCc1c[101c:1]([101O:1]c2ccc3c(c2)CN(C(=O)C(NC(=O)C(C)NC)C(C)(C)C)C(C(=O)NC2CCCc4ccccc42)C3)ncc1C[100NH:0][100C:0](=O)N1CCCC(n2nc(-c3ccc(Oc4ccc(F)cc4F)cc3)c(C(N)=O)c2N)C1

> <Shape>
0.190

> <Color>
0.194

> <Negative vol penalty>
0.000

$$$$

  -OEChem-04052320553D

 82 90  0     1  0  0  0  0  0999 V2000
  -28.0683  -33.3347   14.0971 C   0  0  0  0  0  0  0  0  0  0  0  0
  -28.2411  -31.9945   14.4279 C   0  0  0  0  0  0  0  0  0  0  0  0
  -22.8926  -10.1542   19.9601 C   0  0  0  0  0  0  0  0  0  0  0  0
  -23.8210   -9.8616   22.1713 C   0  0  0  0  0  0  0  0  0  0  0  0
  -27.5954  -34.2322   15.0534 C   0  0  0  0  0  0  0  0  0  0  0  0
  -27.9420  -31.5512   15.7157 C   0  0  0  0  0  0  0  0  0  0  0  0
  -25.6240  -26.1055   17.2894 C   0  0  0  0  0  0  0  0  0  0  0  0
  -29.2903  -21.1397   19.2261 C   0  0  0  0  0  0  0  0  0  0  0  0
  -29.8107  -20.0254   19.8841 C   0  0  0  0  0  0  0  0  0  0  0  0
  -22.0979   -9.0227   20.1439 C   0  0  0  0  0  0  0  0  0  0  0  0
  -23.0263   -8.7301   22.3552 C   0  0  0  0  0  0  0  0  0  0  0  0
  -26.2153  -24.9374   17.7685 C   0  0  0  0  0  0  0  0  0  0  0  0
  -23.0635   -5.4809   21.4210 C   0  0  0  0  0  0  0  0  0  0  0  0
  -23.6649   -4.3493   21.9717 C   0  0  0  0  0  0  0  0  0  0  0  0
  -25.6953  -25.6076   20.0267 C   0  0  0  0  0  0  0  0  0  0  0  0
  -27.1042  -20.6543   20.1331 C   0  0  0  0  0  0  0  0  0  0  0  0
  -22.1104   -4.4226   23.8198 C   0  0  0  0  0  0  0  0  0  0  0  0
  -23.7542  -10.5736   20.9737 C   0  0  0  0  0  0  0  0  0  0  0  0
  -24.2454  -13.0737   21.0993 C   0  0  0  0  0  0  0  0  0  0  0  0
  -27.2812  -33.7979   16.3509 C   0  0  0  0  0  0  0  0  0  0  0  0
  -25.0726  -27.0402   18.1775 C   0  0  0  0  0  0  0  0  0  0  0  0
  -27.4657  -32.4441   16.6908 C   0  0  0  0  0  0  0  0  0  0  0  0
  -25.0952  -26.7856   19.5562 C   0  0  0  0  0  0  0  0  0  0  0  0
  -27.9370  -21.4543   19.3506 C   0  0  0  0  0  0  0  0  0  0  0  0
  -27.6246  -19.5399   20.7911 C   0  0  0  0  0  0  0  0  0  0  0  0
  -28.9779  -19.2255   20.6666 C   0  0  0  0  0  0  0  0  0  0  0  0
  -22.1648   -8.3106   21.3415 C   0  0  0  0  0  0  0  0  0  0  0  0
  -26.2536  -24.6897   19.1376 C   0  0  0  0  0  0  0  0  0  0  0  0
  -21.9857   -6.0836   22.0698 C   0  0  0  0  0  0  0  0  0  0  0  0
  -23.1883   -3.8201   23.1711 C   0  0  0  0  0  0  0  0  0  0  0  0
  -21.5091   -5.5544   23.2691 C   0  0  0  0  0  0  0  0  0  0  0  0
  -24.5757  -11.7421   20.7842 C   0  0  0  0  0  0  0  0  0  0  0  0
  -25.3526  -13.7984   20.7313 C   0  0  0  0  0  0  0  0  0  0  0  0
  -23.0451  -13.6079   21.6734 C   0  0  0  0  0  0  0  0  0  0  0  0
  -25.6679  -30.0803   18.8893 C   0  0  0  0  0  0  0  0  0  0  0  0
  -23.0003  -29.7708   20.7088 C   0  0  0  0  0  0  0  0  0  0  0  0
  -20.8790  -27.7115   22.4135 C   0  0  0  0  0  0  0  0  0  0  0  0
  -30.8885  -14.4882   20.5813 C   0  0  0  0  0  0  0  0  0  0  0  0
  -26.8179  -34.8142   17.3643 C   0  0  0  0  0  0  0  0  0  0  0  0
  -24.4145  -28.2826   17.6430 C   0  0  0  0  0  0  0  0  0  0  0  0
  -24.4992  -27.7475   20.5501 C   0  0  0  0  0  0  0  0  0  0  0  0
  -26.1687  -34.1920   18.5979 C   0  0  0  0  0  0  0  0  0  0  0  0
  -29.4266  -12.4532   18.0519 C   0  0  0  0  0  0  0  0  0  0  0  0
  -27.0132  -33.0333   19.1185 C   0  0  0  0  0  0  0  0  0  0  0  0
  -28.0099  -12.1917   18.5662 C   0  0  0  0  0  0  0  0  0  0  0  0
  -30.4432  -12.4870   19.1910 C   0  0  0  0  0  0  0  0  0  0  0  0
  -28.7008  -13.1604   20.7985 C   0  0  0  0  0  0  0  0  0  0  0  0
  -27.1288  -31.9203   18.0700 C   0  0  1  0  0  0  0  0  0  0  0  0
  -24.3418  -29.4090   18.6694 C   0  0  1  0  0  0  0  0  0  0  0  0
  -27.6321  -13.1730   19.6922 C   0  0  2  0  0  0  0  0  0  0  0  0
  -26.7101  -18.7005   21.6226 C   0  0  0  0  0  0  0  0  0  0  0  0
  -18.8096  -27.7532   23.8324 C   0  0  0  0  0  0  0  0  0  0  0  0
  -24.6408  -30.7999   23.0667 C   0  0  0  0  0  0  0  0  0  0  0  0
  -22.8575  -29.9335   24.5956 C   0  0  0  0  0  0  0  0  0  0  0  0
  -22.3168  -31.7142   22.9345 C   0  0  0  0  0  0  0  0  0  0  0  0
  -19.3853  -26.0313   20.4888 C   0  0  0  0  0  0  0  0  0  0  0  0
  -27.3776  -22.6531   18.6427 C   0  0  0  0  0  0  0  0  0  1  0  0
  -30.9012  -17.7386   21.2285 C   0  0  0  0  0  0  0  0  0  0  0  0
  -31.1830  -16.4792   22.0335 C   0  0  0  0  0  0  0  0  0  0  0  0
  -22.7193  -29.3510   22.1314 C   0  0  1  0  0  0  0  0  0  0  0  0
  -19.3644  -27.6108   22.4236 C   0  0  2  0  0  0  0  0  0  0  0  0
  -23.1466  -30.4323   23.1637 C   0  0  0  0  0  0  0  0  0  0  0  0
  -25.7971  -11.6248   20.2564 N   0  0  0  0  0  0  0  0  0  0  0  0
  -26.2439  -12.8921   20.2370 N   0  0  0  0  0  0  0  0  0  0  0  0
  -23.8727  -28.9511   19.9788 N   0  0  0  0  0  0  0  0  0  0  0  0
  -30.0268  -13.4379   20.2246 N   0  0  0  0  0  0  0  0  0  0  0  0
  -25.6409  -15.1161   20.7854 N   0  0  0  0  0  0  0  0  0  0  0  0
  -22.0057  -12.7233   21.9920 N   0  0  0  0  0  0  0  0  0  0  0  0
  -29.5222  -18.1012   21.3254 N   0  0  0  0  0  0  0  0  0  0  0  0
  -25.9140  -31.1347   18.0307 N   0  0  0  0  0  0  0  0  0  0  0  0
  -21.3035  -29.0028   22.1821 N   0  0  0  0  0  0  0  0  0  0  0  0
  -30.4142  -15.3478   21.5646 N   0  0  0  0  0  0  0  0  0  0  0  0
  -18.9291  -26.2940   21.8780 N   0  3  0  0  0  0  0  0  0  0  0  0
  -22.8922  -14.8353   21.8822 O   0  0  0  0  0  0  0  0  0  0  0  0
  -26.4121  -29.6729   19.7735 O   0  0  0  0  0  0  0  0  0  0  0  0
  -22.4599  -30.7845   20.2594 O   0  0  0  0  0  0  0  0  0  0  0  0
  -21.6123  -26.7423   22.5965 O   0  0  0  0  0  0  0  0  0  0  0  0
  -31.9962  -14.6512   20.0583 O   0  0  0  0  0  0  0  0  0  0  0  0
  -21.3893   -7.2066   21.5214 O   0  0  0  0  0  0  0  0  0  0  0  0
  -26.8308  -23.5506   19.6080 O   0  0  0  0  0  0  0  0  0  1  0  0
  -23.7648   -2.7324   23.6990 F   0  0  0  0  0  0  0  0  0  0  0  0
  -20.4732   -6.1282   23.8964 F   0  0  0  0  0  0  0  0  0  0  0  0
  1  2  1  0  0  0  0
  1  5  2  0  0  0  0
  2  6  2  0  0  0  0
  3 10  2  0  0  0  0
  3 18  1  0  0  0  0
  4 11  1  0  0  0  0
  4 18  2  0  0  0  0
  5 20  1  0  0  0  0
  6 22  1  0  0  0  0
  7 12  2  0  0  0  0
  7 21  1  0  0  0  0
  8  9  2  0  0  0  0
  8 24  1  0  0  0  0
  9 26  1  0  0  0  0
 10 27  1  0  0  0  0
 11 27  2  0  0  0  0
 12 28  1  0  0  0  0
 13 14  2  0  0  0  0
 13 29  1  0  0  0  0
 14 30  1  0  0  0  0
 15 23  1  0  0  0  0
 15 28  2  0  0  0  0
 16 24  2  0  0  0  0
 16 25  1  0  0  0  0
 17 30  2  0  0  0  0
 17 31  1  0  0  0  0
 18 32  1  0  0  0  0
 19 32  1  0  0  0  0
 19 33  2  0  0  0  0
 19 34  1  0  0  0  0
 20 22  2  0  0  0  0
 20 39  1  0  0  0  0
 21 23  2  0  0  0  0
 21 40  1  0  0  0  0
 22 48  1  0  0  0  0
 23 41  1  0  0  0  0
 24 57  1  0  0  0  0
 25 26  2  0  0  0  0
 25 51  1  0  0  0  0
 26 69  1  0  0  0  0
 27 79  1  0  0  0  0
 28 80  1  0  0  0  0
 29 31  2  0  0  0  0
 29 79  1  0  0  0  0
 30 81  1  0  0  0  0
 31 82  1  0  0  0  0
 32 63  2  0  0  0  0
 33 64  1  0  0  0  0
 33 67  1  0  0  0  0
 34 68  1  0  0  0  0
 34 74  2  0  0  0  0
 35 49  1  0  0  0  0
 35 70  1  0  0  0  0
 35 75  2  0  0  0  0
 36 60  1  0  0  0  0
 36 65  1  0  0  0  0
 36 76  2  0  0  0  0
 37 61  1  0  0  0  0
 37 71  1  0  0  0  0
 37 77  2  0  0  0  0
 38 66  1  0  0  0  0
 38 72  1  0  0  0  0
 38 78  2  0  0  0  0
 39 42  1  0  0  0  0
 40 49  1  0  0  0  0
 41 65  1  0  0  0  0
 42 44  1  0  0  0  0
 43 45  1  0  0  0  0
 43 46  1  0  0  0  0
 44 48  1  0  0  0  0
 45 50  1  0  0  0  0
 46 66  1  0  0  0  0
 47 50  1  0  0  0  0
 47 66  1  0  0  0  0
 48 70  1  0  0  0  0
 49 65  1  0  0  0  0
 50 64  1  0  0  0  0
 52 61  1  0  0  0  0
 53 62  1  0  0  0  0
 54 62  1  0  0  0  0
 55 62  1  0  0  0  0
 56 73  1  0  0  0  0
 57 80  1  0  0  0  0
 58 59  1  0  0  0  0
 58 69  1  0  0  0  0
 59 72  1  0  0  0  0
 60 62  1  0  0  0  0
 60 71  1  0  0  0  0
 61 73  1  0  0  0  0
 63 64  1  0  0  0  0
M  CHG  1  73   1
M  ISO  4  38 100  57 101  72 100  80 101
M  END
> <Batch ID>
0133

> <Smiles>
CNC(C)C(=O)NC(C(=O)N1Cc2cc([101O:1][101CH2:1]c3ccc(NCC[100NH:0][100C:0](=O)N4CCCC(n5nc(-c6ccc(Oc7ccc(F)cc7F)cc6)c(C(N)=O)c5N)C4)c(C)c3)ccc2CC1C(=O)NC1CCCc2ccccc21)C(C)(C)C

> <Shape>
0.350

> <Color>
0.205

> <Negative vol penalty>
0.000

$$$$

  -OEChem-04052320553D

 86 95  0     1  0  0  0  0  0999 V2000
  -23.1985  -30.4978   24.6775 C   0  0  0  0  0  0  0  0  0  0  0  0
  -22.8643  -29.1707   24.4273 C   0  0  0  0  0  0  0  0  0  0  0  0
  -22.7394  -16.0595   19.3724 C   0  0  0  0  0  0  0  0  0  0  0  0
  -23.8992  -16.8579   21.3357 C   0  0  0  0  0  0  0  0  0  0  0  0
  -23.8632  -31.2433   23.7048 C   0  0  0  0  0  0  0  0  0  0  0  0
  -23.1936  -28.5887   23.2037 C   0  0  0  0  0  0  0  0  0  0  0  0
  -27.3649  -22.1608   21.6838 C   0  0  0  0  0  0  0  0  0  0  0  0
  -22.0002  -17.2415   19.3284 C   0  0  0  0  0  0  0  0  0  0  0  0
  -23.1600  -18.0400   21.2917 C   0  0  0  0  0  0  0  0  0  0  0  0
  -28.2170  -21.1313   21.2836 C   0  0  0  0  0  0  0  0  0  0  0  0
  -22.4626  -20.4322   18.3091 C   0  0  0  0  0  0  0  0  0  0  0  0
  -22.3122  -21.0569   17.0711 C   0  0  0  0  0  0  0  0  0  0  0  0
  -28.6477  -22.2830   19.2012 C   0  0  0  0  0  0  0  0  0  0  0  0
  -19.9136  -20.8271   17.2466 C   0  0  0  0  0  0  0  0  0  0  0  0
  -23.6889  -15.8676   20.3761 C   0  0  0  0  0  0  0  0  0  0  0  0
  -23.9542  -13.3371   20.5596 C   0  0  0  0  0  0  0  0  0  0  0  0
  -24.2094  -30.6674   22.4723 C   0  0  0  0  0  0  0  0  0  0  0  0
  -27.1627  -23.2640   20.8499 C   0  0  0  0  0  0  0  0  0  0  0  0
  -23.8624  -29.3277   22.2130 C   0  0  0  0  0  0  0  0  0  0  0  0
  -27.8050  -23.3232   19.6022 C   0  0  0  0  0  0  0  0  0  0  0  0
  -22.2105  -18.2318   20.2880 C   0  0  0  0  0  0  0  0  0  0  0  0
  -28.8566  -21.1922   20.0453 C   0  0  0  0  0  0  0  0  0  0  0  0
  -21.3385  -20.0048   19.0159 C   0  0  0  0  0  0  0  0  0  0  0  0
  -21.0377  -21.2544   16.5399 C   0  0  0  0  0  0  0  0  0  0  0  0
  -20.0640  -20.2023   18.4846 C   0  0  0  0  0  0  0  0  0  0  0  0
  -24.4524  -14.6466   20.4225 C   0  0  0  0  0  0  0  0  0  0  0  0
  -25.0733  -12.5410   20.5484 C   0  0  0  0  0  0  0  0  0  0  0  0
  -22.6007  -12.8811   20.6856 C   0  0  0  0  0  0  0  0  0  0  0  0
  -25.4694  -26.5738   20.3458 C   0  0  0  0  0  0  0  0  0  0  0  0
  -28.3284  -26.8628   19.2718 C   0  0  0  0  0  0  0  0  0  0  0  0
  -31.6701  -26.8930   18.5870 C   0  0  0  0  0  0  0  0  0  0  0  0
  -30.5637  -13.2566   18.2692 C   0  0  0  0  0  0  0  0  0  0  0  0
  -24.8856  -31.5269   21.4337 C   0  0  0  0  0  0  0  0  0  0  0  0
  -26.2057  -24.3666   21.2135 C   0  0  0  0  0  0  0  0  0  0  0  0
  -27.5308  -24.5127   18.7231 C   0  0  0  0  0  0  0  0  0  0  0  0
  -25.5313  -30.7255   20.3063 C   0  0  0  0  0  0  0  0  0  0  0  0
  -29.7247  -12.6040   21.6673 C   0  0  0  0  0  0  0  0  0  0  0  0
  -31.1059  -17.4826   12.0449 C   0  0  0  0  0  0  0  0  0  0  0  0
  -24.5737  -29.6526   19.7976 C   0  0  0  0  0  0  0  0  0  0  0  0
  -30.8819  -18.3859   16.5871 C   0  0  0  0  0  0  0  0  0  0  0  0
  -28.4955  -19.1493   16.2432 C   0  0  0  0  0  0  0  0  0  0  0  0
  -28.2334  -12.9353   21.7460 C   0  0  0  0  0  0  0  0  0  0  0  0
  -30.7199  -16.2048   12.7833 C   0  0  0  0  0  0  0  0  0  0  0  0
  -30.7981  -18.7971   18.0540 C   0  0  0  0  0  0  0  0  0  0  0  0
  -28.4186  -19.5590   17.7109 C   0  0  0  0  0  0  0  0  0  0  0  0
  -30.1410  -18.6189   12.3721 C   0  0  0  0  0  0  0  0  0  0  0  0
  -30.4647  -13.5525   20.7267 C   0  0  0  0  0  0  0  0  0  0  0  0
  -28.4013  -13.9828   19.4496 C   0  0  0  0  0  0  0  0  0  0  0  0
  -24.2246  -28.6536   20.9074 C   0  0  1  0  0  0  0  0  0  0  0  0
  -26.6661  -25.7513   20.7237 C   0  0  1  0  0  0  0  0  0  0  0  0
  -29.5032  -18.0120   16.0254 C   0  0  0  0  0  0  0  0  0  0  0  0
  -27.6026  -13.0182   20.3429 C   0  0  2  0  0  0  0  0  0  0  0  0
  -29.6033  -17.6558   14.5401 C   0  0  2  0  0  0  0  0  0  0  0  0
  -30.5712  -16.4881   14.2781 C   0  0  1  0  0  0  0  0  0  0  0  0
  -29.7929  -19.9257   18.2670 C   0  0  0  0  0  0  0  0  0  1  0  0
  -33.4911  -28.3901   17.7267 C   0  0  0  0  0  0  0  0  0  0  0  0
  -27.2745  -26.5064   16.4317 C   0  0  0  0  0  0  0  0  0  0  0  0
  -29.5400  -27.1545   15.5856 C   0  0  0  0  0  0  0  0  0  0  0  0
  -28.1993  -28.7772   16.9244 C   0  0  0  0  0  0  0  0  0  0  0  0
  -33.1927  -26.6883   21.1165 C   0  0  0  0  0  0  0  0  0  0  0  0
  -30.5021  -12.9891   15.8027 C   0  0  0  0  0  0  0  0  0  0  0  0
  -31.1175  -14.2105   15.1457 C   0  0  0  0  0  0  0  0  0  0  0  0
  -29.2447  -26.7845   18.0770 C   0  0  1  0  0  0  0  0  0  0  0  0
  -32.7662  -27.8746   18.9602 C   0  0  2  0  0  0  0  0  0  0  0  0
  -28.5616  -27.2837   16.7726 C   0  0  0  0  0  0  0  0  0  0  0  0
  -25.7844  -14.6845   20.3311 N   0  0  0  0  0  0  0  0  0  0  0  0
  -26.1327  -13.3890   20.4110 N   0  0  0  0  0  0  0  0  0  0  0  0
  -30.0583  -18.8533   13.8138 N   0  0  0  0  0  0  0  0  0  0  0  0
  -27.5279  -25.7433   19.5295 N   0  0  0  0  0  0  0  0  0  0  0  0
  -29.8171  -13.5840   19.4131 N   0  0  0  0  0  0  0  0  0  0  0  0
  -25.2448  -11.2053   20.6429 N   0  0  0  0  0  0  0  0  0  0  0  0
  -22.0513  -12.7660   21.9699 N   0  0  0  0  0  0  0  0  0  0  0  0
  -25.3105  -27.7176   21.1048 N   0  0  0  0  0  0  0  0  0  0  0  0
  -30.4512  -27.5205   18.4390 N   0  0  0  0  0  0  0  0  0  0  0  0
  -29.8720  -13.3052   17.0651 N   0  0  0  0  0  0  0  0  0  0  0  0
  -30.0743  -15.2478   14.9360 N   0  3  0  0  0  0  0  0  0  0  0  0
  -33.7646  -27.2213   19.8532 N   0  3  0  0  0  0  0  0  0  0  0  0
  -21.9046  -12.5689   19.6899 O   0  0  0  0  0  0  0  0  0  0  0  0
  -24.7436  -26.2001   19.4319 O   0  0  0  0  0  0  0  0  0  0  0  0
  -28.3164  -27.8896   19.9565 O   0  0  0  0  0  0  0  0  0  0  0  0
  -31.8754  -25.6905   18.4376 O   0  0  0  0  0  0  0  0  0  0  0  0
  -31.7569  -12.9390   18.3181 O   0  0  0  0  0  0  0  0  0  0  0  0
  -21.4895  -19.3854   20.2452 O   0  0  0  0  0  0  0  0  0  0  0  0
  -29.6907  -20.1859   19.6627 O   0  0  0  0  0  0  0  0  0  1  0  0
  -20.8933  -21.8558   15.3517 F   0  0  0  0  0  0  0  0  0  0  0  0
  -18.9803  -19.7950   19.1595 F   0  0  0  0  0  0  0  0  0  0  0  0
  1  2  1  0  0  0  0
  1  5  2  0  0  0  0
  2  6  2  0  0  0  0
  3  8  2  0  0  0  0
  3 15  1  0  0  0  0
  4  9  1  0  0  0  0
  4 15  2  0  0  0  0
  5 17  1  0  0  0  0
  6 19  1  0  0  0  0
  7 10  2  0  0  0  0
  7 18  1  0  0  0  0
  8 21  1  0  0  0  0
  9 21  2  0  0  0  0
 10 22  1  0  0  0  0
 11 12  2  0  0  0  0
 11 23  1  0  0  0  0
 12 24  1  0  0  0  0
 13 20  1  0  0  0  0
 13 22  2  0  0  0  0
 14 24  2  0  0  0  0
 14 25  1  0  0  0  0
 15 26  1  0  0  0  0
 16 26  1  0  0  0  0
 16 27  2  0  0  0  0
 16 28  1  0  0  0  0
 17 19  2  0  0  0  0
 17 33  1  0  0  0  0
 18 20  2  0  0  0  0
 18 34  1  0  0  0  0
 19 49  1  0  0  0  0
 20 35  1  0  0  0  0
 21 83  1  0  0  0  0
 22 84  1  0  0  0  0
 23 25  2  0  0  0  0
 23 83  1  0  0  0  0
 24 85  1  0  0  0  0
 25 86  1  0  0  0  0
 26 66  2  0  0  0  0
 27 67  1  0  0  0  0
 27 71  1  0  0  0  0
 28 72  1  0  0  0  0
 28 78  2  0  0  0  0
 29 50  1  0  0  0  0
 29 73  1  0  0  0  0
 29 79  2  0  0  0  0
 30 63  1  0  0  0  0
 30 69  1  0  0  0  0
 30 80  2  0  0  0  0
 31 64  1  0  0  0  0
 31 74  1  0  0  0  0
 31 81  2  0  0  0  0
 32 70  1  0  0  0  0
 32 75  1  0  0  0  0
 32 82  2  0  0  0  0
 33 36  1  0  0  0  0
 34 50  1  0  0  0  0
 35 69  1  0  0  0  0
 36 39  1  0  0  0  0
 37 42  1  0  0  0  0
 37 47  1  0  0  0  0
 38 43  1  0  0  0  0
 38 46  1  0  0  0  0
 39 49  1  0  0  0  0
 40 44  1  0  0  0  0
 40 51  1  0  0  0  0
 41 45  1  0  0  0  0
 41 51  1  0  0  0  0
 42 52  1  0  0  0  0
 43 54  1  0  0  0  0
 44 55  1  0  0  0  0
 45 55  1  0  0  0  0
 46 68  1  0  0  0  0
 47 70  1  0  0  0  0
 48 52  1  0  0  0  0
 48 70  1  0  0  0  0
 49 73  1  0  0  0  0
 50 69  1  0  0  0  0
 51 53  1  0  0  0  0
 52 67  1  0  0  0  0
 53 54  1  0  0  0  0
 53 68  1  0  0  0  0
 54 76  1  0  0  0  0
 55 84  1  0  0  0  0
 56 64  1  0  0  0  0
 57 65  1  0  0  0  0
 58 65  1  0  0  0  0
 59 65  1  0  0  0  0
 60 77  1  0  0  0  0
 61 62  1  0  0  0  0
 61 75  1  0  0  0  0
 62 76  1  0  0  0  0
 63 65  1  0  0  0  0
 63 74  1  0  0  0  0
 64 77  1  0  0  0  0
 66 67  1  0  0  0  0
M  CHG  2  76   1  77   1
M  ISO  4  32 100  55 101  75 100  84 101
M  END
> <Batch ID>
0133

> <Smiles>
CNC(C)C(=O)NC(C(=O)N1Cc2cc([101O:1][101CH:1]3CCC(C4NCCCC4NCC[100NH:0][100C:0](=O)N4CCCC(n5nc(-c6ccc(Oc7ccc(F)cc7F)cc6)c(C(N)=O)c5N)C4)CC3)ccc2CC1C(=O)NC1CCCc2ccccc21)C(C)(C)C

> <Shape>
0.214

> <Color>
0.090

> <Negative vol penalty>
0.000

$$$$

  -OEChem-04052320553D

 87 96  0     1  0  0  0  0  0999 V2000
  -32.4168  -17.3068   21.1317 C   0  0  0  0  0  0  0  0  0  0  0  0
  -31.2379  -18.0455   21.1416 C   0  0  0  0  0  0  0  0  0  0  0  0
  -28.1166  -25.5026   19.2337 C   0  0  0  0  0  0  0  0  0  0  0  0
  -27.5583  -25.4019   21.5821 C   0  0  0  0  0  0  0  0  0  0  0  0
  -32.3973  -15.9704   20.7348 C   0  0  0  0  0  0  0  0  0  0  0  0
  -30.0390  -17.4485   20.7535 C   0  0  0  0  0  0  0  0  0  0  0  0
  -26.2153  -18.5546   23.8841 C   0  0  0  0  0  0  0  0  0  0  0  0
  -23.8817  -29.4904   24.4881 C   0  0  0  0  0  0  0  0  0  0  0  0
  -28.9017  -24.3580   19.3712 C   0  0  0  0  0  0  0  0  0  0  0  0
  -28.3433  -24.2572   21.7197 C   0  0  0  0  0  0  0  0  0  0  0  0
  -25.6251  -19.8105   23.7494 C   0  0  0  0  0  0  0  0  0  0  0  0
  -23.4213  -28.2970   23.9319 C   0  0  0  0  0  0  0  0  0  0  0  0
  -30.7635  -21.2548   19.0263 C   0  0  0  0  0  0  0  0  0  0  0  0
  -30.6385  -20.2620   18.0545 C   0  0  0  0  0  0  0  0  0  0  0  0
  -23.8206  -18.8209   22.4910 C   0  0  0  0  0  0  0  0  0  0  0  0
  -25.2692  -27.1132   24.9422 C   0  0  0  0  0  0  0  0  0  0  0  0
  -28.2969  -20.0233   18.5997 C   0  0  0  0  0  0  0  0  0  0  0  0
  -27.4449  -26.0247   20.3392 C   0  0  0  0  0  0  0  0  0  0  0  0
  -25.2653  -27.2661   19.8751 C   0  0  0  0  0  0  0  0  0  0  0  0
  -31.1959  -15.3540   20.3509 C   0  0  0  0  0  0  0  0  0  0  0  0
  -25.6172  -17.4222   23.3130 C   0  0  0  0  0  0  0  0  0  0  0  0
  -30.0037  -16.1029   20.3498 C   0  0  0  0  0  0  0  0  0  0  0  0
  -25.0360  -29.4952   25.2713 C   0  0  0  0  0  0  0  0  0  0  0  0
  -24.4039  -17.5514   22.6221 C   0  0  0  0  0  0  0  0  0  0  0  0
  -25.7297  -28.3066   25.4984 C   0  0  0  0  0  0  0  0  0  0  0  0
  -29.0150  -23.7352   20.6142 C   0  0  0  0  0  0  0  0  0  0  0  0
  -24.4291  -19.9443   23.0504 C   0  0  0  0  0  0  0  0  0  0  0  0
  -24.1150  -27.1084   24.1590 C   0  0  0  0  0  0  0  0  0  0  0  0
  -29.6553  -21.6317   19.7849 C   0  0  0  0  0  0  0  0  0  0  0  0
  -29.4052  -19.6463   17.8412 C   0  0  0  0  0  0  0  0  0  0  0  0
  -28.4220  -21.0160   19.5716 C   0  0  0  0  0  0  0  0  0  0  0  0
  -26.6343  -27.2074   20.1978 C   0  0  0  0  0  0  0  0  0  0  0  0
  -24.9724  -28.6080   19.8638 C   0  0  0  0  0  0  0  0  0  0  0  0
  -24.3410  -26.2028   19.6093 C   0  0  0  0  0  0  0  0  0  0  0  0
  -26.4726  -15.3108   21.0962 C   0  0  0  0  0  0  0  0  0  0  0  0
  -23.7233  -13.8408   21.9920 C   0  0  0  0  0  0  0  0  0  0  0  0
  -20.6228  -14.1010   23.3943 C   0  0  0  0  0  0  0  0  0  0  0  0
  -26.3429  -33.5050   22.6307 C   0  0  0  0  0  0  0  0  0  0  0  0
  -31.2324  -13.9201   19.8845 C   0  0  0  0  0  0  0  0  0  0  0  0
  -26.2527  -16.0704   23.4901 C   0  0  0  0  0  0  0  0  0  0  0  0
  -23.7109  -16.3637   22.0075 C   0  0  0  0  0  0  0  0  0  0  0  0
  -29.8580  -13.2569   19.8462 C   0  0  0  0  0  0  0  0  0  0  0  0
  -27.6303  -32.7506   19.3980 C   0  0  0  0  0  0  0  0  0  0  0  0
  -28.8406  -14.1751   19.1765 C   0  0  0  0  0  0  0  0  0  0  0  0
  -27.3774  -31.2497   19.2447 C   0  0  0  0  0  0  0  0  0  0  0  0
  -25.1119  -31.1350   27.2688 C   0  0  0  0  0  0  0  0  0  0  0  0
  -28.0025  -33.1165   20.8331 C   0  0  0  0  0  0  0  0  0  0  0  0
  -26.7952  -31.1526   21.7045 C   0  0  0  0  0  0  0  0  0  0  0  0
  -25.5097  -30.7841   25.8566 C   0  0  2  0  0  0  0  0  0  0  0  0
  -28.6792  -15.4837   19.9595 C   0  0  1  0  0  0  0  0  0  0  0  0
  -25.8218  -15.0638   22.4278 C   0  0  1  0  0  0  0  0  0  0  0  0
  -24.5040  -31.8794   26.1175 C   0  0  2  0  0  0  0  0  0  0  0  0
  -26.3619  -30.7429   20.2864 C   0  0  2  0  0  0  0  0  0  0  0  0
  -26.9672  -28.2850   26.3346 C   0  0  0  0  0  0  0  0  0  0  0  0
  -18.5933  -12.7355   23.9547 C   0  0  0  0  0  0  0  0  0  0  0  0
  -22.9046  -13.8558   19.0527 C   0  0  0  0  0  0  0  0  0  0  0  0
  -20.5558  -13.3791   19.7766 C   0  0  0  0  0  0  0  0  0  0  0  0
  -22.3693  -11.7400   20.2740 C   0  0  0  0  0  0  0  0  0  0  0  0
  -20.8985  -14.6657   26.2864 C   0  0  0  0  0  0  0  0  0  0  0  0
  -24.8729  -33.3012   25.8673 C   0  0  0  0  0  0  0  0  0  0  0  0
  -23.7536  -23.5568   23.2498 C   0  0  0  0  0  0  0  0  0  0  0  0
  -24.6402  -33.7361   24.4214 C   0  0  0  0  0  0  0  0  0  0  0  0
  -24.5247  -22.2740   23.5183 C   0  0  0  0  0  0  0  0  0  1  0  0
  -24.4201  -24.7654   23.8879 C   0  0  0  0  0  0  0  0  0  0  0  0
  -22.2796  -13.9167   21.5571 C   0  0  1  0  0  0  0  0  0  0  0  0
  -19.9250  -13.2713   24.4569 C   0  0  2  0  0  0  0  0  0  0  0  0
  -22.0411  -13.2458   20.1749 C   0  0  0  0  0  0  0  0  0  0  0  0
  -27.1737  -28.4159   20.3784 N   0  0  0  0  0  0  0  0  0  0  0  0
  -26.1384  -29.2466   20.1684 N   0  0  0  0  0  0  0  0  0  0  0  0
  -24.3749  -15.0643   22.2025 N   0  0  0  0  0  0  0  0  0  0  0  0
  -26.9984  -32.6083   21.7709 N   0  0  0  0  0  0  0  0  0  0  0  0
  -23.8338  -29.2922   19.6232 N   0  0  0  0  0  0  0  0  0  0  0  0
  -24.8081  -24.8825   19.6629 N   0  0  0  0  0  0  0  0  0  0  0  0
  -27.8536  -15.2741   21.1295 N   0  0  0  0  0  0  0  0  0  0  0  0
  -21.4950  -13.3410   22.6440 N   0  0  0  0  0  0  0  0  0  0  0  0
  -25.4013  -32.9416   23.4832 N   0  0  0  0  0  0  0  0  0  0  0  0
  -19.6718  -14.0943   25.6733 N   0  3  0  0  0  0  0  0  0  0  0  0
  -23.1404  -26.4178   19.3162 O   0  0  0  0  0  0  0  0  0  0  0  0
  -25.7736  -15.5177   20.1112 O   0  0  0  0  0  0  0  0  0  0  0  0
  -24.2511  -12.7367   22.1465 O   0  0  0  0  0  0  0  0  0  0  0  0
  -20.4122  -15.3023   23.2424 O   0  0  0  0  0  0  0  0  0  0  0  0
  -26.5754  -34.7186   22.6343 O   0  0  0  0  0  0  0  0  0  0  0  0
  -29.7808  -22.6181   20.7488 O   0  0  0  0  0  0  0  0  0  0  0  0
  -23.8512  -21.1691   22.9169 O   0  0  0  0  0  0  0  0  0  1  0  0
  -23.6617  -25.9356   23.6133 O   0  0  0  0  0  0  0  0  0  0  0  0
  -29.2849  -18.6940   16.9069 F   0  0  0  0  0  0  0  0  0  0  0  0
  -27.3534  -21.3748   20.2964 F   0  0  0  0  0  0  0  0  0  0  0  0
  1  2  1  0  0  0  0
  1  5  2  0  0  0  0
  2  6  2  0  0  0  0
  3  9  2  0  0  0  0
  3 18  1  0  0  0  0
  4 10  1  0  0  0  0
  4 18  2  0  0  0  0
  5 20  1  0  0  0  0
  6 22  1  0  0  0  0
  7 11  2  0  0  0  0
  7 21  1  0  0  0  0
  8 12  2  0  0  0  0
  8 23  1  0  0  0  0
  9 26  1  0  0  0  0
 10 26  2  0  0  0  0
 11 27  1  0  0  0  0
 12 28  1  0  0  0  0
 13 14  2  0  0  0  0
 13 29  1  0  0  0  0
 14 30  1  0  0  0  0
 15 24  1  0  0  0  0
 15 27  2  0  0  0  0
 16 25  1  0  0  0  0
 16 28  2  0  0  0  0
 17 30  2  0  0  0  0
 17 31  1  0  0  0  0
 18 32  1  0  0  0  0
 19 32  1  0  0  0  0
 19 33  2  0  0  0  0
 19 34  1  0  0  0  0
 20 22  2  0  0  0  0
 20 39  1  0  0  0  0
 21 24  2  0  0  0  0
 21 40  1  0  0  0  0
 22 50  1  0  0  0  0
 23 25  2  0  0  0  0
 23 49  1  0  0  0  0
 24 41  1  0  0  0  0
 25 54  1  0  0  0  0
 26 83  1  0  0  0  0
 27 84  1  0  0  0  0
 28 85  1  0  0  0  0
 29 31  2  0  0  0  0
 29 83  1  0  0  0  0
 30 86  1  0  0  0  0
 31 87  1  0  0  0  0
 32 68  2  0  0  0  0
 33 69  1  0  0  0  0
 33 72  1  0  0  0  0
 34 73  1  0  0  0  0
 34 78  2  0  0  0  0
 35 51  1  0  0  0  0
 35 74  1  0  0  0  0
 35 79  2  0  0  0  0
 36 65  1  0  0  0  0
 36 70  1  0  0  0  0
 36 80  2  0  0  0  0
 37 66  1  0  0  0  0
 37 75  1  0  0  0  0
 37 81  2  0  0  0  0
 38 71  1  0  0  0  0
 38 76  1  0  0  0  0
 38 82  2  0  0  0  0
 39 42  1  0  0  0  0
 40 51  1  0  0  0  0
 41 70  1  0  0  0  0
 42 44  1  0  0  0  0
 43 45  1  0  0  0  0
 43 47  1  0  0  0  0
 44 50  1  0  0  0  0
 45 53  1  0  0  0  0
 46 49  1  0  0  0  0
 46 52  1  0  0  0  0
 47 71  1  0  0  0  0
 48 53  1  0  0  0  0
 48 71  1  0  0  0  0
 49 52  1  0  0  0  0
 50 74  1  0  0  0  0
 51 70  1  0  0  0  0
 52 60  1  0  0  0  0
 53 69  1  0  0  0  0
 55 66  1  0  0  0  0
 56 67  1  0  0  0  0
 57 67  1  0  0  0  0
 58 67  1  0  0  0  0
 59 77  1  0  0  0  0
 60 62  1  0  0  0  0
 61 63  1  0  0  0  0
 61 64  1  0  0  0  0
 62 76  1  0  0  0  0
 63 84  1  0  0  0  0
 64 85  1  0  0  0  0
 65 67  1  0  0  0  0
 65 75  1  0  0  0  0
 66 77  1  0  0  0  0
 68 69  1  0  0  0  0
M  CHG  1  77   1
M  ISO  4  38 100  63 101  76 100  84 101
M  END
> <Batch ID>
0133

> <Smiles>
CNC(C)C(=O)NC(C(=O)N1Cc2cc([101O:1][101CH2:1]CCOc3ccc(C4CC4CC[100NH:0][100C:0](=O)N4CCCC(n5nc(-c6ccc(Oc7ccc(F)cc7F)cc6)c(C(N)=O)c5N)C4)c(C)c3)ccc2CC1C(=O)NC1CCCc2ccccc21)C(C)(C)C

> <Shape>
0.233

> <Color>
0.063

> <Negative vol penalty>
0.000

$$$$

  -OEChem-04052320553D

 81 89  0     1  0  0  0  0  0999 V2000
  -28.5279  -33.3055   14.4232 C   0  0  0  0  0  0  0  0  0  0  0  0
  -28.6616  -31.9590   14.7462 C   0  0  0  0  0  0  0  0  0  0  0  0
  -22.9063  -10.1249   19.9262 C   0  0  0  0  0  0  0  0  0  0  0  0
  -23.8111   -9.8006   22.1428 C   0  0  0  0  0  0  0  0  0  0  0  0
  -28.0492  -34.2052   15.3747 C   0  0  0  0  0  0  0  0  0  0  0  0
  -28.3178  -31.5115   16.0213 C   0  0  0  0  0  0  0  0  0  0  0  0
  -25.8368  -26.1060   17.4814 C   0  0  0  0  0  0  0  0  0  0  0  0
  -27.6181  -19.4927   20.9520 C   0  0  0  0  0  0  0  0  0  0  0  0
  -22.1108   -8.9903   20.0849 C   0  0  0  0  0  0  0  0  0  0  0  0
  -23.0155   -8.6659   22.3015 C   0  0  0  0  0  0  0  0  0  0  0  0
  -26.3887  -24.9208   17.9655 C   0  0  0  0  0  0  0  0  0  0  0  0
  -23.0657   -5.4309   21.3203 C   0  0  0  0  0  0  0  0  0  0  0  0
  -23.6620   -4.2917   21.8608 C   0  0  0  0  0  0  0  0  0  0  0  0
  -27.1107  -20.6138   20.3047 C   0  0  0  0  0  0  0  0  0  0  0  0
  -25.8224  -25.5831   20.2150 C   0  0  0  0  0  0  0  0  0  0  0  0
  -22.0877   -4.3368   23.6929 C   0  0  0  0  0  0  0  0  0  0  0  0
  -29.7634  -20.0189   20.0701 C   0  0  0  0  0  0  0  0  0  0  0  0
  -23.7566  -10.5301   20.9552 C   0  0  0  0  0  0  0  0  0  0  0  0
  -24.2442  -13.0284   21.1226 C   0  0  0  0  0  0  0  0  0  0  0  0
  -27.6902  -33.7669   16.6591 C   0  0  0  0  0  0  0  0  0  0  0  0
  -25.2824  -27.0452   18.3628 C   0  0  0  0  0  0  0  0  0  0  0  0
  -27.8351  -32.4064   16.9913 C   0  0  0  0  0  0  0  0  0  0  0  0
  -25.2618  -26.7783   19.7392 C   0  0  0  0  0  0  0  0  0  0  0  0
  -28.9687  -19.1826   20.8375 C   0  0  0  0  0  0  0  0  0  0  0  0
  -22.1653   -8.2608   21.2725 C   0  0  0  0  0  0  0  0  0  0  0  0
  -26.3842  -24.6605   19.3327 C   0  0  0  0  0  0  0  0  0  0  0  0
  -21.9804   -6.0231   21.9661 C   0  0  0  0  0  0  0  0  0  0  0  0
  -23.1730   -3.7446   23.0471 C   0  0  0  0  0  0  0  0  0  0  0  0
  -21.4914   -5.4761   23.1524 C   0  0  0  0  0  0  0  0  0  0  0  0
  -24.5791  -11.7017   20.7916 C   0  0  0  0  0  0  0  0  0  0  0  0
  -27.9885  -21.3862   19.5613 C   0  0  0  0  0  0  0  0  0  0  0  0
  -25.3546  -13.7592   20.7773 C   0  0  0  0  0  0  0  0  0  0  0  0
  -23.0373  -13.5532   21.6916 C   0  0  0  0  0  0  0  0  0  0  0  0
  -25.9259  -30.0649   19.1186 C   0  0  0  0  0  0  0  0  0  0  0  0
  -23.2035  -29.7999   20.8624 C   0  0  0  0  0  0  0  0  0  0  0  0
  -20.9912  -27.7743   22.4900 C   0  0  0  0  0  0  0  0  0  0  0  0
  -30.8913  -14.4552   20.6972 C   0  0  0  0  0  0  0  0  0  0  0  0
  -27.2223  -34.7847   17.6690 C   0  0  0  0  0  0  0  0  0  0  0  0
  -24.6671  -28.3068   17.8223 C   0  0  0  0  0  0  0  0  0  0  0  0
  -24.6606  -27.7448   20.7256 C   0  0  0  0  0  0  0  0  0  0  0  0
  -26.5260  -34.1666   18.8788 C   0  0  0  0  0  0  0  0  0  0  0  0
  -29.4585  -12.4564   18.1226 C   0  0  0  0  0  0  0  0  0  0  0  0
  -27.3299  -32.9847   19.4113 C   0  0  0  0  0  0  0  0  0  0  0  0
  -28.0366  -12.1864   18.6177 C   0  0  0  0  0  0  0  0  0  0  0  0
  -30.4628  -12.4742   19.2729 C   0  0  0  0  0  0  0  0  0  0  0  0
  -28.7025  -13.1227   20.8713 C   0  0  0  0  0  0  0  0  0  0  0  0
  -27.4492  -31.8785   18.3561 C   0  0  1  0  0  0  0  0  0  0  0  0
  -24.5916  -29.4256   18.8567 C   0  0  1  0  0  0  0  0  0  0  0  0
  -27.6458  -13.1507   19.7537 C   0  0  2  0  0  0  0  0  0  0  0  0
  -18.8853  -27.8505   23.8528 C   0  0  0  0  0  0  0  0  0  0  0  0
  -24.8017  -30.7714   23.2732 C   0  0  0  0  0  0  0  0  0  0  0  0
  -22.9586  -29.9323   24.7453 C   0  0  0  0  0  0  0  0  0  0  0  0
  -22.5031  -31.7390   23.0867 C   0  0  0  0  0  0  0  0  0  0  0  0
  -19.5132  -26.1449   20.5102 C   0  0  0  0  0  0  0  0  0  0  0  0
  -27.4755  -22.6034   18.8496 C   0  0  0  0  0  0  0  0  0  1  0  0
  -30.8941  -17.6958   21.3920 C   0  0  0  0  0  0  0  0  0  0  0  0
  -31.1683  -16.4248   22.1815 C   0  0  0  0  0  0  0  0  0  0  0  0
  -22.8746  -29.3743   22.2729 C   0  0  1  0  0  0  0  0  0  0  0  0
  -19.4749  -27.7078   22.4582 C   0  0  2  0  0  0  0  0  0  0  0  0
  -23.2976  -30.4367   23.3264 C   0  0  0  0  0  0  0  0  0  0  0  0
  -29.3065  -21.1167   19.4268 N   0  0  0  0  0  0  0  0  0  0  0  0
  -25.8062  -11.5931   20.2754 N   0  0  0  0  0  0  0  0  0  0  0  0
  -26.2520  -12.8609   20.2794 N   0  0  0  0  0  0  0  0  0  0  0  0
  -24.0769  -28.9671   20.1487 N   0  0  0  0  0  0  0  0  0  0  0  0
  -30.0344  -13.4096   20.3158 N   0  0  0  0  0  0  0  0  0  0  0  0
  -25.6412  -15.0762   20.8538 N   0  0  0  0  0  0  0  0  0  0  0  0
  -21.9953  -12.6633   21.9858 N   0  0  0  0  0  0  0  0  0  0  0  0
  -29.5097  -18.0570   21.4796 N   0  0  0  0  0  0  0  0  0  0  0  0
  -26.2187  -31.1209   18.2767 N   0  0  0  0  0  0  0  0  0  0  0  0
  -21.4505  -29.0577   22.2822 N   0  0  0  0  0  0  0  0  0  0  0  0
  -30.4056  -15.2999   21.6878 N   0  0  0  0  0  0  0  0  0  0  0  0
  -19.0254  -26.4059   21.8889 N   0  3  0  0  0  0  0  0  0  0  0  0
  -22.8811  -14.7774   21.9166 O   0  0  0  0  0  0  0  0  0  0  0  0
  -26.6365  -29.6332   20.0188 O   0  0  0  0  0  0  0  0  0  0  0  0
  -22.6983  -30.8294   20.4080 O   0  0  0  0  0  0  0  0  0  0  0  0
  -21.6973  -26.7873   22.6838 O   0  0  0  0  0  0  0  0  0  0  0  0
  -32.0044  -14.6266   20.1886 O   0  0  0  0  0  0  0  0  0  0  0  0
  -21.3889   -7.1537   21.4278 O   0  0  0  0  0  0  0  0  0  0  0  0
  -26.9228  -23.5047   19.8080 O   0  0  0  0  0  0  0  0  0  1  0  0
  -23.7448   -2.6497   23.5652 F   0  0  0  0  0  0  0  0  0  0  0  0
  -20.4482   -6.0399   23.7767 F   0  0  0  0  0  0  0  0  0  0  0  0
  1  2  1  0  0  0  0
  1  5  2  0  0  0  0
  2  6  2  0  0  0  0
  3  9  2  0  0  0  0
  3 18  1  0  0  0  0
  4 10  1  0  0  0  0
  4 18  2  0  0  0  0
  5 20  1  0  0  0  0
  6 22  1  0  0  0  0
  7 11  2  0  0  0  0
  7 21  1  0  0  0  0
  8 14  2  0  0  0  0
  8 24  1  0  0  0  0
  9 25  1  0  0  0  0
 10 25  2  0  0  0  0
 11 26  1  0  0  0  0
 12 13  2  0  0  0  0
 12 27  1  0  0  0  0
 13 28  1  0  0  0  0
 14 31  1  0  0  0  0
 15 23  1  0  0  0  0
 15 26  2  0  0  0  0
 16 28  2  0  0  0  0
 16 29  1  0  0  0  0
 17 24  2  0  0  0  0
 17 61  1  0  0  0  0
 18 30  1  0  0  0  0
 19 30  1  0  0  0  0
 19 32  2  0  0  0  0
 19 33  1  0  0  0  0
 20 22  2  0  0  0  0
 20 38  1  0  0  0  0
 21 23  2  0  0  0  0
 21 39  1  0  0  0  0
 22 47  1  0  0  0  0
 23 40  1  0  0  0  0
 24 68  1  0  0  0  0
 25 78  1  0  0  0  0
 26 79  1  0  0  0  0
 27 29  2  0  0  0  0
 27 78  1  0  0  0  0
 28 80  1  0  0  0  0
 29 81  1  0  0  0  0
 30 62  2  0  0  0  0
 31 55  1  0  0  0  0
 31 61  2  0  0  0  0
 32 63  1  0  0  0  0
 32 66  1  0  0  0  0
 33 67  1  0  0  0  0
 33 73  2  0  0  0  0
 34 48  1  0  0  0  0
 34 69  1  0  0  0  0
 34 74  2  0  0  0  0
 35 58  1  0  0  0  0
 35 64  1  0  0  0  0
 35 75  2  0  0  0  0
 36 59  1  0  0  0  0
 36 70  1  0  0  0  0
 36 76  2  0  0  0  0
 37 65  1  0  0  0  0
 37 71  1  0  0  0  0
 37 77  2  0  0  0  0
 38 41  1  0  0  0  0
 39 48  1  0  0  0  0
 40 64  1  0  0  0  0
 41 43  1  0  0  0  0
 42 44  1  0  0  0  0
 42 45  1  0  0  0  0
 43 47  1  0  0  0  0
 44 49  1  0  0  0  0
 45 65  1  0  0  0  0
 46 49  1  0  0  0  0
 46 65  1  0  0  0  0
 47 69  1  0  0  0  0
 48 64  1  0  0  0  0
 49 63  1  0  0  0  0
 50 59  1  0  0  0  0
 51 60  1  0  0  0  0
 52 60  1  0  0  0  0
 53 60  1  0  0  0  0
 54 72  1  0  0  0  0
 55 79  1  0  0  0  0
 56 57  1  0  0  0  0
 56 68  1  0  0  0  0
 57 71  1  0  0  0  0
 58 60  1  0  0  0  0
 58 70  1  0  0  0  0
 59 72  1  0  0  0  0
 62 63  1  0  0  0  0
M  CHG  1  72   1
M  ISO  4  37 100  55 101  71 100  79 101
M  END
> <Batch ID>
0133

> <Smiles>
CNC(C)C(=O)NC(C(=O)N1Cc2cc([101O:1][101CH2:1]c3ccc(NCC[100NH:0][100C:0](=O)N4CCCC(n5nc(-c6ccc(Oc7ccc(F)cc7F)cc6)c(C(N)=O)c5N)C4)cn3)ccc2CC1C(=O)NC1CCCc2ccccc21)C(C)(C)C

> <Shape>
0.356

> <Color>
0.214

> <Negative vol penalty>
0.000

$$$$

  -OEChem-04052320553D

 85 94  0     1  0  0  0  0  0999 V2000
  -30.9166  -32.5783   20.7921 C   0  0  0  0  0  0  0  0  0  0  0  0
  -30.5313  -31.5466   19.9420 C   0  0  0  0  0  0  0  0  0  0  0  0
  -23.0738   -9.8656   19.9612 C   0  0  0  0  0  0  0  0  0  0  0  0
  -23.8098   -9.9181   22.2617 C   0  0  0  0  0  0  0  0  0  0  0  0
  -30.5596  -32.5400   22.1393 C   0  0  0  0  0  0  0  0  0  0  0  0
  -29.7895  -30.4755   20.4389 C   0  0  0  0  0  0  0  0  0  0  0  0
  -25.4306  -27.3367   17.4973 C   0  0  0  0  0  0  0  0  0  0  0  0
  -22.3201   -8.7227   20.2283 C   0  0  0  0  0  0  0  0  0  0  0  0
  -23.0561   -8.7752   22.5289 C   0  0  0  0  0  0  0  0  0  0  0  0
  -25.4469  -26.1174   16.8214 C   0  0  0  0  0  0  0  0  0  0  0  0
  -19.8168   -8.0104   23.1146 C   0  0  0  0  0  0  0  0  0  0  0  0
  -19.0475   -8.0007   24.2780 C   0  0  0  0  0  0  0  0  0  0  0  0
  -26.8185  -22.7990   18.1704 C   0  0  0  0  0  0  0  0  0  0  0  0
  -24.6470  -25.0110   18.8102 C   0  0  0  0  0  0  0  0  0  0  0  0
  -24.9546  -21.4450   17.4542 C   0  0  0  0  0  0  0  0  0  0  0  0
  -20.2689   -6.0723   25.0696 C   0  0  0  0  0  0  0  0  0  0  0  0
  -23.8187  -10.4632   20.9779 C   0  0  0  0  0  0  0  0  0  0  0  0
  -24.1777  -12.9830   20.8065 C   0  0  0  0  0  0  0  0  0  0  0  0
  -29.8048  -31.4727   22.6509 C   0  0  0  0  0  0  0  0  0  0  0  0
  -25.0321  -27.4007   18.8403 C   0  0  0  0  0  0  0  0  0  0  0  0
  -29.4232  -30.4223   21.7946 C   0  0  0  0  0  0  0  0  0  0  0  0
  -27.3754  -21.7033   18.8474 C   0  0  0  0  0  0  0  0  0  0  0  0
  -24.6241  -26.2327   19.5001 C   0  0  0  0  0  0  0  0  0  0  0  0
  -26.7192  -20.4588   18.8036 C   0  0  0  0  0  0  0  0  0  0  0  0
  -25.5021  -20.3456   18.1143 C   0  0  0  0  0  0  0  0  0  0  0  0
  -22.3112   -8.1775   21.5122 C   0  0  0  0  0  0  0  0  0  0  0  0
  -25.0579  -24.9539   17.4786 C   0  0  0  0  0  0  0  0  0  0  0  0
  -20.8122   -7.0510   22.9286 C   0  0  0  0  0  0  0  0  0  0  0  0
  -25.6136  -22.6705   17.4802 C   0  0  0  0  0  0  0  0  0  1  0  0
  -19.2735   -7.0316   25.2555 C   0  0  0  0  0  0  0  0  0  0  0  0
  -21.0382   -6.0820   23.9061 C   0  0  0  0  0  0  0  0  0  0  0  0
  -24.5979  -11.6435   20.7024 C   0  0  0  0  0  0  0  0  0  0  0  0
  -25.2783  -13.7177   20.4385 C   0  0  0  0  0  0  0  0  0  0  0  0
  -22.9062  -13.5156   21.2006 C   0  0  0  0  0  0  0  0  0  0  0  0
  -26.4390  -28.2562   21.5592 C   0  0  0  0  0  0  0  0  0  0  0  0
  -23.4655  -27.8215   22.7806 C   0  0  0  0  0  0  0  0  0  0  0  0
  -20.4148  -26.3155   22.5122 C   0  0  0  0  0  0  0  0  0  0  0  0
  -30.7661  -14.7073   20.6624 C   0  0  0  0  0  0  0  0  0  0  0  0
  -29.4831  -31.4517   24.1243 C   0  0  0  0  0  0  0  0  0  0  0  0
  -24.9946  -28.7277   19.5474 C   0  0  0  0  0  0  0  0  0  0  0  0
  -28.6982  -21.8759   19.5528 C   0  0  0  0  0  0  0  0  0  0  0  0
  -27.2605  -19.2540   19.5361 C   0  0  0  0  0  0  0  0  0  0  0  0
  -24.1683  -26.2508   20.9355 C   0  0  0  0  0  0  0  0  0  0  0  0
  -28.3761  -30.4670   24.4920 C   0  0  0  0  0  0  0  0  0  0  0  0
  -29.0110  -20.7520   20.5413 C   0  0  0  0  0  0  0  0  0  0  0  0
  -29.6384  -12.2782   18.3163 C   0  0  0  0  0  0  0  0  0  0  0  0
  -28.6147  -29.1195   23.8181 C   0  0  0  0  0  0  0  0  0  0  0  0
  -28.1947  -12.0027   18.7404 C   0  0  0  0  0  0  0  0  0  0  0  0
  -30.5443  -12.5196   19.5217 C   0  0  0  0  0  0  0  0  0  0  0  0
  -28.6329  -13.2923   20.8719 C   0  0  0  0  0  0  0  0  0  0  0  0
  -28.5969  -29.2557   22.2908 C   0  0  1  0  0  0  0  0  0  0  0  0
  -25.0614  -28.5977   21.0659 C   0  0  1  0  0  0  0  0  0  0  0  0
  -27.6700  -13.0980   19.6882 C   0  0  2  0  0  0  0  0  0  0  0  0
  -28.7395  -19.4008   19.8911 C   0  0  1  0  0  0  0  0  0  0  0  0
  -24.7449  -19.0562   18.0688 C   0  0  0  0  0  0  0  0  0  0  0  0
  -18.2031  -26.1234   23.6821 C   0  0  0  0  0  0  0  0  0  0  0  0
  -24.7217  -25.9579   24.8443 C   0  0  0  0  0  0  0  0  0  0  0  0
  -22.4303  -25.0829   25.3463 C   0  0  0  0  0  0  0  0  0  0  0  0
  -22.9625  -27.4859   25.7526 C   0  0  0  0  0  0  0  0  0  0  0  0
  -18.9608  -27.4504   20.1977 C   0  0  0  0  0  0  0  0  0  0  0  0
  -30.8326  -16.8839   21.8528 C   0  0  0  0  0  0  0  0  0  0  0  0
  -30.5677  -18.0075   20.8681 C   0  0  0  0  0  0  0  0  0  0  0  0
  -22.7148  -26.6556   23.3775 C   0  0  1  0  0  0  0  0  0  0  0  0
  -19.0054  -26.8677   22.6262 C   0  0  2  0  0  0  0  0  0  0  0  0
  -23.2177  -26.2946   24.8037 C   0  0  0  0  0  0  0  0  0  0  0  0
  -25.8664  -11.5309   20.2996 N   0  0  0  0  0  0  0  0  0  0  0  0
  -26.2528  -12.8090   20.1474 N   0  0  0  0  0  0  0  0  0  0  0  0
  -24.1552  -27.5716   21.5858 N   0  0  0  0  0  0  0  0  0  0  0  0
  -29.9911  -13.5706   20.3792 N   0  0  0  0  0  0  0  0  0  0  0  0
  -25.4978  -15.0460   20.3387 N   0  0  0  0  0  0  0  0  0  0  0  0
  -21.8851  -12.6202   21.5469 N   0  0  0  0  0  0  0  0  0  0  0  0
  -27.2362  -29.3570   21.8083 N   0  0  0  0  0  0  0  0  0  0  0  0
  -21.2999  -27.0053   23.3135 N   0  0  0  0  0  0  0  0  0  0  0  0
  -30.1641  -15.6579   21.4777 N   0  0  0  0  0  0  0  0  0  0  0  0
  -29.1141  -18.3201   20.8405 N   0  3  0  0  0  0  0  0  0  0  0  0
  -18.2940  -26.7451   21.3224 N   0  3  0  0  0  0  0  0  0  0  0  0
  -22.6771  -14.7486   21.2286 O   0  0  0  0  0  0  0  0  0  0  0  0
  -26.7546  -27.0811   21.7045 O   0  0  0  0  0  0  0  0  0  0  0  0
  -23.4350  -28.9155   23.3497 O   0  0  0  0  0  0  0  0  0  0  0  0
  -20.7012  -25.3648   21.7880 O   0  0  0  0  0  0  0  0  0  0  0  0
  -31.9078  -14.8659   20.2171 O   0  0  0  0  0  0  0  0  0  0  0  0
  -21.5757   -7.0625   21.7733 O   0  0  0  0  0  0  0  0  0  0  0  0
  -25.0735  -23.7624   16.8214 O   0  0  0  0  0  0  0  0  0  1  0  0
  -18.5357   -7.0233   26.3734 F   0  0  0  0  0  0  0  0  0  0  0  0
  -21.9938   -5.1585   23.7335 F   0  0  0  0  0  0  0  0  0  0  0  0
  1  2  1  0  0  0  0
  1  5  2  0  0  0  0
  2  6  2  0  0  0  0
  3  8  2  0  0  0  0
  3 17  1  0  0  0  0
  4  9  1  0  0  0  0
  4 17  2  0  0  0  0
  5 19  1  0  0  0  0
  6 21  1  0  0  0  0
  7 10  2  0  0  0  0
  7 20  1  0  0  0  0
  8 26  1  0  0  0  0
  9 26  2  0  0  0  0
 10 27  1  0  0  0  0
 11 12  2  0  0  0  0
 11 28  1  0  0  0  0
 12 30  1  0  0  0  0
 13 22  1  0  0  0  0
 13 29  2  0  0  0  0
 14 23  1  0  0  0  0
 14 27  2  0  0  0  0
 15 25  2  0  0  0  0
 15 29  1  0  0  0  0
 16 30  2  0  0  0  0
 16 31  1  0  0  0  0
 17 32  1  0  0  0  0
 18 32  1  0  0  0  0
 18 33  2  0  0  0  0
 18 34  1  0  0  0  0
 19 21  2  0  0  0  0
 19 39  1  0  0  0  0
 20 23  2  0  0  0  0
 20 40  1  0  0  0  0
 21 51  1  0  0  0  0
 22 24  2  0  0  0  0
 22 41  1  0  0  0  0
 23 43  1  0  0  0  0
 24 25  1  0  0  0  0
 24 42  1  0  0  0  0
 25 55  1  0  0  0  0
 26 82  1  0  0  0  0
 27 83  1  0  0  0  0
 28 31  2  0  0  0  0
 28 82  1  0  0  0  0
 29 83  1  0  0  0  0
 30 84  1  0  0  0  0
 31 85  1  0  0  0  0
 32 66  2  0  0  0  0
 33 67  1  0  0  0  0
 33 70  1  0  0  0  0
 34 71  1  0  0  0  0
 34 77  2  0  0  0  0
 35 52  1  0  0  0  0
 35 72  1  0  0  0  0
 35 78  2  0  0  0  0
 36 63  1  0  0  0  0
 36 68  1  0  0  0  0
 36 79  2  0  0  0  0
 37 64  1  0  0  0  0
 37 73  1  0  0  0  0
 37 80  2  0  0  0  0
 38 69  1  0  0  0  0
 38 74  1  0  0  0  0
 38 81  2  0  0  0  0
 39 44  1  0  0  0  0
 40 52  1  0  0  0  0
 41 45  1  0  0  0  0
 42 54  1  0  0  0  0
 43 68  1  0  0  0  0
 44 47  1  0  0  0  0
 45 54  1  0  0  0  0
 46 48  1  0  0  0  0
 46 49  1  0  0  0  0
 47 51  1  0  0  0  0
 48 53  1  0  0  0  0
 49 69  1  0  0  0  0
 50 53  1  0  0  0  0
 50 69  1  0  0  0  0
 51 72  1  0  0  0  0
 52 68  1  0  0  0  0
 53 67  1  0  0  0  0
 54 75  1  0  0  0  0
 56 64  1  0  0  0  0
 57 65  1  0  0  0  0
 58 65  1  0  0  0  0
 59 65  1  0  0  0  0
 60 76  1  0  0  0  0
 61 62  1  0  0  0  0
 61 74  1  0  0  0  0
 62 75  1  0  0  0  0
 63 65  1  0  0  0  0
 63 73  1  0  0  0  0
 64 76  1  0  0  0  0
 66 67  1  0  0  0  0
M  CHG  2  75   1  76   1
M  ISO  4  29 101  38 100  74 100  83 101
M  END
> <Batch ID>
0133

> <Smiles>
CNC(C)C(=O)NC(C(=O)N1Cc2cc([101O:1][101c:1]3cc(C)c4c(c3)CCC(NCC[100NH:0][100C:0](=O)N3CCCC(n5nc(-c6ccc(Oc7ccc(F)cc7F)cc6)c(C(N)=O)c5N)C3)C4)ccc2CC1C(=O)NC1CCCc2ccccc21)C(C)(C)C

> <Shape>
0.308

> <Color>
0.214

> <Negative vol penalty>
0.000

$$$$

  -OEChem-04052320553D

 85 94  0     1  0  0  0  0  0999 V2000
  -24.3270  -10.9853   20.2283 C   0  0  0  0  0  0  0  0  0  0  0  0
  -23.8305  -12.2418   19.8965 C   0  0  0  0  0  0  0  0  0  0  0  0
  -25.9065  -27.4090   19.3542 C   0  0  0  0  0  0  0  0  0  0  0  0
  -25.4039  -29.3026   20.7680 C   0  0  0  0  0  0  0  0  0  0  0  0
  -25.4792  -10.8753   21.0056 C   0  0  0  0  0  0  0  0  0  0  0  0
  -24.4853  -13.3891   20.3427 C   0  0  0  0  0  0  0  0  0  0  0  0
  -24.9722  -16.8848   16.7112 C   0  0  0  0  0  0  0  0  0  0  0  0
  -27.2707  -27.6317   19.5409 C   0  0  0  0  0  0  0  0  0  0  0  0
  -26.7682  -29.5252   20.9548 C   0  0  0  0  0  0  0  0  0  0  0  0
  -23.8475  -17.6522   16.4112 C   0  0  0  0  0  0  0  0  0  0  0  0
  -30.8909  -27.9204   19.3557 C   0  0  0  0  0  0  0  0  0  0  0  0
  -31.7184  -27.8629   18.2344 C   0  0  0  0  0  0  0  0  0  0  0  0
  -24.7276  -19.4550   17.7508 C   0  0  0  0  0  0  0  0  0  0  0  0
  -30.4701  -29.6660   17.2206 C   0  0  0  0  0  0  0  0  0  0  0  0
  -24.9730  -28.2446   19.9677 C   0  0  0  0  0  0  0  0  0  0  0  0
  -22.8602  -28.0241   18.5553 C   0  0  0  0  0  0  0  0  0  0  0  0
  -26.1540  -12.0219   21.4536 C   0  0  0  0  0  0  0  0  0  0  0  0
  -25.9796  -17.3936   17.5435 C   0  0  0  0  0  0  0  0  0  0  0  0
  -25.6469  -13.2944   21.1279 C   0  0  0  0  0  0  0  0  0  0  0  0
  -25.8653  -18.6930   18.0577 C   0  0  0  0  0  0  0  0  0  0  0  0
  -27.7016  -28.6897   20.3412 C   0  0  0  0  0  0  0  0  0  0  0  0
  -23.7237  -18.9364   16.9333 C   0  0  0  0  0  0  0  0  0  0  0  0
  -29.8529  -28.8507   19.4095 C   0  0  0  0  0  0  0  0  0  0  0  0
  -31.5081  -28.7357   17.1668 C   0  0  0  0  0  0  0  0  0  0  0  0
  -29.6426  -29.7235   18.3420 C   0  0  0  0  0  0  0  0  0  0  0  0
  -23.5637  -28.0155   19.7747 C   0  0  0  0  0  0  0  0  0  0  0  0
  -21.5601  -27.7546   18.9071 C   0  0  0  0  0  0  0  0  0  0  0  0
  -23.3390  -28.2549   17.2237 C   0  0  0  0  0  0  0  0  0  0  0  0
  -27.1998  -16.5574   20.3570 C   0  0  0  0  0  0  0  0  0  0  0  0
  -29.3036  -18.9414   19.7144 C   0  0  0  0  0  0  0  0  0  0  0  0
  -29.1679  -22.2724   18.3350 C   0  0  0  0  0  0  0  0  0  0  0  0
  -19.1026  -24.9196   23.5734 C   0  0  0  0  0  0  0  0  0  0  0  0
  -27.3690  -11.8529   22.3310 C   0  0  0  0  0  0  0  0  0  0  0  0
  -27.1992  -16.5632   17.8359 C   0  0  0  0  0  0  0  0  0  0  0  0
  -26.9284  -19.2932   18.9398 C   0  0  0  0  0  0  0  0  0  0  0  0
  -28.2151  -13.1179   22.4500 C   0  0  0  0  0  0  0  0  0  0  0  0
  -18.4787  -28.2664   22.5311 C   0  0  0  0  0  0  0  0  0  0  0  0
  -27.3291  -14.3291   22.7234 C   0  0  0  0  0  0  0  0  0  0  0  0
  -14.7925  -21.4715   19.5268 C   0  0  0  0  0  0  0  0  0  0  0  0
  -14.7601  -22.6345   18.5749 C   0  0  0  0  0  0  0  0  0  0  0  0
  -20.2362  -21.9315   18.4776 C   0  0  0  0  0  0  0  0  0  0  0  0
  -19.7825  -19.5247   19.1084 C   0  0  0  0  0  0  0  0  0  0  0  0
  -19.6476  -28.5824   21.5965 C   0  0  0  0  0  0  0  0  0  0  0  0
  -21.2014  -21.4615   17.3935 C   0  0  0  0  0  0  0  0  0  0  0  0
  -20.7495  -19.0614   18.0229 C   0  0  0  0  0  0  0  0  0  0  0  0
  -18.9133  -27.3863   23.7009 C   0  0  0  0  0  0  0  0  0  0  0  0
  -20.7772  -26.4595   22.3815 C   0  0  0  0  0  0  0  0  0  0  0  0
  -26.3431  -14.5624   21.5723 C   0  0  1  0  0  0  0  0  0  0  0  0
  -27.9203  -16.9890   19.1111 C   0  0  1  0  0  0  0  0  0  0  0  0
  -16.0130  -21.8158   18.7189 C   0  0  0  0  0  0  0  0  0  0  0  0
  -19.1533  -20.8818   18.7637 C   0  0  0  0  0  0  0  0  0  0  0  0
  -20.3763  -27.2985   21.1561 C   0  0  2  0  0  0  0  0  0  0  0  0
  -21.8223  -20.1104   17.7380 C   0  0  0  0  0  0  0  0  0  1  0  0
  -30.9136  -23.6103   17.1267 C   0  0  0  0  0  0  0  0  0  0  0  0
  -29.9259  -20.0815   22.4754 C   0  0  0  0  0  0  0  0  0  0  0  0
  -30.2876  -22.3115   21.3962 C   0  0  0  0  0  0  0  0  0  0  0  0
  -31.7471  -20.3821   20.7879 C   0  0  0  0  0  0  0  0  0  0  0  0
  -27.3903  -22.7083   16.0093 C   0  0  0  0  0  0  0  0  0  0  0  0
  -17.2411  -22.4071   19.3979 C   0  0  0  0  0  0  0  0  0  0  0  0
  -19.4155  -22.4687   23.3404 C   0  0  0  0  0  0  0  0  0  0  0  0
  -18.4417  -21.9300   22.3091 C   0  0  0  0  0  0  0  0  0  0  0  0
  -29.3511  -20.4263   19.9820 C   0  0  1  0  0  0  0  0  0  0  0  0
  -29.6912  -22.7175   16.9813 C   0  0  2  0  0  0  0  0  0  0  0  0
  -18.2321  -21.3503   19.8886 C   0  0  2  0  0  0  0  0  0  0  0  0
  -30.3032  -20.7866   21.1572 C   0  0  0  0  0  0  0  0  0  0  0  0
  -22.7758  -27.7609   20.8228 N   0  0  0  0  0  0  0  0  0  0  0  0
  -21.5637  -27.6071   20.2630 N   0  0  0  0  0  0  0  0  0  0  0  0
  -28.0990  -18.4395   19.2019 N   0  0  0  0  0  0  0  0  0  0  0  0
  -19.5964  -26.1849   23.2152 N   0  0  0  0  0  0  0  0  0  0  0  0
  -20.4256  -27.6319   18.1858 N   0  0  0  0  0  0  0  0  0  0  0  0
  -24.7036  -28.5172   17.0405 N   0  0  0  0  0  0  0  0  0  0  0  0
  -27.0119  -15.1918   20.4538 N   0  0  0  0  0  0  0  0  0  0  0  0
  -29.7005  -21.0585   18.7145 N   0  0  0  0  0  0  0  0  0  0  0  0
  -19.8051  -23.8338   23.0654 N   0  0  0  0  0  0  0  0  0  0  0  0
  -28.6410  -23.4750   16.2435 N   0  3  0  0  0  0  0  0  0  0  0  0
  -19.0854  -21.9149   20.9694 N   0  3  0  0  0  0  0  0  0  0  0  0
  -22.5765  -28.2454   16.2277 O   0  0  0  0  0  0  0  0  0  0  0  0
  -26.8422  -17.4008   21.1710 O   0  0  0  0  0  0  0  0  0  0  0  0
  -30.3012  -18.2532   19.9447 O   0  0  0  0  0  0  0  0  0  0  0  0
  -28.3697  -22.9371   18.9919 O   0  0  0  0  0  0  0  0  0  0  0  0
  -18.1060  -24.7689   24.2883 O   0  0  0  0  0  0  0  0  0  0  0  0
  -29.0327  -28.9071   20.5239 O   0  0  0  0  0  0  0  0  0  0  0  0
  -22.6267  -19.6872   16.6426 O   0  0  0  0  0  0  0  0  0  1  0  0
  -32.3038  -28.6813   16.0907 F   0  0  0  0  0  0  0  0  0  0  0  0
  -28.6478  -30.6202   18.3885 F   0  0  0  0  0  0  0  0  0  0  0  0
  1  2  1  0  0  0  0
  1  5  2  0  0  0  0
  2  6  2  0  0  0  0
  3  8  2  0  0  0  0
  3 15  1  0  0  0  0
  4  9  1  0  0  0  0
  4 15  2  0  0  0  0
  5 17  1  0  0  0  0
  6 19  1  0  0  0  0
  7 10  2  0  0  0  0
  7 18  1  0  0  0  0
  8 21  1  0  0  0  0
  9 21  2  0  0  0  0
 10 22  1  0  0  0  0
 11 12  2  0  0  0  0
 11 23  1  0  0  0  0
 12 24  1  0  0  0  0
 13 20  1  0  0  0  0
 13 22  2  0  0  0  0
 14 24  2  0  0  0  0
 14 25  1  0  0  0  0
 15 26  1  0  0  0  0
 16 26  1  0  0  0  0
 16 27  2  0  0  0  0
 16 28  1  0  0  0  0
 17 19  2  0  0  0  0
 17 33  1  0  0  0  0
 18 20  2  0  0  0  0
 18 34  1  0  0  0  0
 19 48  1  0  0  0  0
 20 35  1  0  0  0  0
 21 82  1  0  0  0  0
 22 83  1  0  0  0  0
 23 25  2  0  0  0  0
 23 82  1  0  0  0  0
 24 84  1  0  0  0  0
 25 85  1  0  0  0  0
 26 66  2  0  0  0  0
 27 67  1  0  0  0  0
 27 70  1  0  0  0  0
 28 71  1  0  0  0  0
 28 77  2  0  0  0  0
 29 49  1  0  0  0  0
 29 72  1  0  0  0  0
 29 78  2  0  0  0  0
 30 62  1  0  0  0  0
 30 68  1  0  0  0  0
 30 79  2  0  0  0  0
 31 63  1  0  0  0  0
 31 73  1  0  0  0  0
 31 80  2  0  0  0  0
 32 69  1  0  0  0  0
 32 74  1  0  0  0  0
 32 81  2  0  0  0  0
 33 36  1  0  0  0  0
 34 49  1  0  0  0  0
 35 68  1  0  0  0  0
 36 38  1  0  0  0  0
 37 43  1  0  0  0  0
 37 46  1  0  0  0  0
 38 48  1  0  0  0  0
 39 40  1  0  0  0  0
 39 50  1  0  0  0  0
 40 50  1  0  0  0  0
 41 44  1  0  0  0  0
 41 51  1  0  0  0  0
 42 45  1  0  0  0  0
 42 51  1  0  0  0  0
 43 52  1  0  0  0  0
 44 53  1  0  0  0  0
 45 53  1  0  0  0  0
 46 69  1  0  0  0  0
 47 52  1  0  0  0  0
 47 69  1  0  0  0  0
 48 72  1  0  0  0  0
 49 68  1  0  0  0  0
 50 59  1  0  0  0  0
 51 64  1  0  0  0  0
 52 67  1  0  0  0  0
 53 83  1  0  0  0  0
 54 63  1  0  0  0  0
 55 65  1  0  0  0  0
 56 65  1  0  0  0  0
 57 65  1  0  0  0  0
 58 75  1  0  0  0  0
 59 64  1  0  0  0  0
 60 61  1  0  0  0  0
 60 74  1  0  0  0  0
 61 76  1  0  0  0  0
 62 65  1  0  0  0  0
 62 73  1  0  0  0  0
 63 75  1  0  0  0  0
 64 76  1  0  0  0  0
 66 67  1  0  0  0  0
M  CHG  2  75   1  76   1
M  ISO  4  32 100  53 101  74 100  83 101
M  END
> <Batch ID>
0133

> <Smiles>
CNC(C)C(=O)NC(C(=O)N1Cc2cc([101O:1][101CH:1]3CCC(C(CC4CC4)NCC[100NH:0][100C:0](=O)N4CCCC(n5nc(-c6ccc(Oc7ccc(F)cc7F)cc6)c(C(N)=O)c5N)C4)CC3)ccc2CC1C(=O)NC1CCCc2ccccc21)C(C)(C)C

> <Shape>
0.186

> <Color>
0.075

> <Negative vol penalty>
0.000

$$$$

  -OEChem-04052320553D

 82 90  0     1  0  0  0  0  0999 V2000
  -32.2863  -21.7237   22.3400 C   0  0  0  0  0  0  0  0  0  0  0  0
  -31.1143  -22.1578   22.9510 C   0  0  0  0  0  0  0  0  0  0  0  0
  -29.8275  -27.6994   20.2072 C   0  0  0  0  0  0  0  0  0  0  0  0
  -28.7228  -26.3480   21.8777 C   0  0  0  0  0  0  0  0  0  0  0  0
  -32.2250  -21.0183   21.1389 C   0  0  0  0  0  0  0  0  0  0  0  0
  -29.8802  -21.8876   22.3606 C   0  0  0  0  0  0  0  0  0  0  0  0
  -23.0656  -20.4807   24.0631 C   0  0  0  0  0  0  0  0  0  0  0  0
  -19.1345  -27.2321   23.5484 C   0  0  0  0  0  0  0  0  0  0  0  0
  -19.4897  -28.0188   21.2918 C   0  0  0  0  0  0  0  0  0  0  0  0
  -18.6299  -26.0309   23.0502 C   0  0  0  0  0  0  0  0  0  0  0  0
  -18.9851  -26.8176   20.7936 C   0  0  0  0  0  0  0  0  0  0  0  0
  -31.0674  -27.2649   20.6757 C   0  0  0  0  0  0  0  0  0  0  0  0
  -29.9627  -25.9135   22.3461 C   0  0  0  0  0  0  0  0  0  0  0  0
  -21.7725  -20.9188   23.7809 C   0  0  0  0  0  0  0  0  0  0  0  0
  -33.0152  -24.5161   20.3879 C   0  0  0  0  0  0  0  0  0  0  0  0
  -33.9660  -24.1298   19.4433 C   0  0  0  0  0  0  0  0  0  0  0  0
  -21.7841  -19.6232   21.7460 C   0  0  0  0  0  0  0  0  0  0  0  0
  -35.4654  -25.8429   20.2520 C   0  0  0  0  0  0  0  0  0  0  0  0
  -28.6552  -27.2409   20.8082 C   0  0  0  0  0  0  0  0  0  0  0  0
  -26.5871  -27.0929   19.3221 C   0  0  0  0  0  0  0  0  0  0  0  0
  -30.9890  -20.7310   20.5385 C   0  0  0  0  0  0  0  0  0  0  0  0
  -23.7330  -19.6178   23.1819 C   0  0  0  0  0  0  0  0  0  0  0  0
  -29.8024  -21.1789   21.1497 C   0  0  0  0  0  0  0  0  0  0  0  0
  -23.0847  -19.1736   22.0206 C   0  0  0  0  0  0  0  0  0  0  0  0
  -19.5644  -28.2260   22.6692 C   0  0  0  0  0  0  0  0  0  0  0  0
  -18.5552  -25.8237   21.6729 C   0  0  0  0  0  0  0  0  0  0  0  0
  -31.1350  -26.3720   21.7451 C   0  0  0  0  0  0  0  0  0  0  0  0
  -21.1326  -20.4924   22.6208 C   0  0  0  0  0  0  0  0  0  0  0  0
  -33.2894  -25.5658   21.2646 C   0  0  0  0  0  0  0  0  0  0  0  0
  -35.1911  -24.7932   19.3753 C   0  0  0  0  0  0  0  0  0  0  0  0
  -34.5146  -26.2292   21.1966 C   0  0  0  0  0  0  0  0  0  0  0  0
  -27.3741  -27.6898   20.3251 C   0  0  0  0  0  0  0  0  0  0  0  0
  -25.4748  -27.8942   19.2360 C   0  0  0  0  0  0  0  0  0  0  0  0
  -26.8388  -25.9190   18.5383 C   0  0  0  0  0  0  0  0  0  0  0  0
  -26.3857  -19.8024   21.4404 C   0  0  0  0  0  0  0  0  0  0  0  0
  -25.7311  -16.6862   20.8217 C   0  0  0  0  0  0  0  0  0  0  0  0
  -23.4055  -14.1952   20.6386 C   0  0  0  0  0  0  0  0  0  0  0  0
  -21.9620  -31.0400   22.5943 C   0  0  0  0  0  0  0  0  0  0  0  0
  -30.9755  -20.0065   19.2158 C   0  0  0  0  0  0  0  0  0  0  0  0
  -25.1176  -19.1332   23.5141 C   0  0  0  0  0  0  0  0  0  0  0  0
  -23.7500  -18.2312   21.0522 C   0  0  0  0  0  0  0  0  0  0  0  0
  -29.6084  -19.4357   18.8478 C   0  0  0  0  0  0  0  0  0  0  0  0
  -24.4288  -32.5525   20.5197 C   0  0  0  0  0  0  0  0  0  0  0  0
  -28.5165  -20.4760   19.0765 C   0  0  0  0  0  0  0  0  0  0  0  0
  -25.3666  -31.3973   20.1648 C   0  0  0  0  0  0  0  0  0  0  0  0
  -23.9047  -32.4351   21.9492 C   0  0  0  0  0  0  0  0  0  0  0  0
  -24.2054  -29.9893   21.9163 C   0  0  0  0  0  0  0  0  0  0  0  0
  -28.4434  -20.8837   20.5530 C   0  0  1  0  0  0  0  0  0  0  0  0
  -25.8961  -18.6633   22.2891 C   0  0  1  0  0  0  0  0  0  0  0  0
  -24.7156  -30.0339   20.4658 C   0  0  2  0  0  0  0  0  0  0  0  0
  -23.1645  -11.7633   20.0682 C   0  0  0  0  0  0  0  0  0  0  0  0
  -25.9152  -17.3667   17.8530 C   0  0  0  0  0  0  0  0  0  0  0  0
  -24.7570  -15.2033   17.3566 C   0  0  0  0  0  0  0  0  0  0  0  0
  -26.9775  -15.1950   18.4933 C   0  0  0  0  0  0  0  0  0  0  0  0
  -22.4639  -13.5300   23.3643 C   0  0  0  0  0  0  0  0  0  0  0  0
  -20.1040  -29.5105   23.2009 C   0  0  0  0  0  0  0  0  0  0  0  0
  -18.0139  -24.5307   21.1379 C   0  0  0  0  0  0  0  0  0  0  0  0
  -18.4401  -22.0920   20.8064 C   0  0  0  0  0  0  0  0  0  0  0  0
  -19.5119  -21.0319   20.9661 C   0  0  0  0  0  0  0  0  0  1  0  0
  -24.9322  -15.9491   19.7741 C   0  0  1  0  0  0  0  0  0  0  0  0
  -23.4052  -12.7759   21.1771 C   0  0  2  0  0  0  0  0  0  0  0  0
  -25.6334  -15.9478   18.3863 C   0  0  0  0  0  0  0  0  0  0  0  0
  -26.8098  -28.7858   20.8393 N   0  0  0  0  0  0  0  0  0  0  0  0
  -25.6564  -28.8839   20.1566 N   0  0  0  0  0  0  0  0  0  0  0  0
  -25.1062  -17.7906   21.4181 N   0  0  0  0  0  0  0  0  0  0  0  0
  -23.2983  -31.1198   22.1688 N   0  0  0  0  0  0  0  0  0  0  0  0
  -24.3691  -27.8416   18.4633 N   0  0  0  0  0  0  0  0  0  0  0  0
  -28.0306  -25.2139   18.7549 N   0  0  0  0  0  0  0  0  0  0  0  0
  -27.7611  -19.8672   21.3248 N   0  0  0  0  0  0  0  0  0  0  0  0
  -24.6775  -14.6188   20.3161 N   0  0  0  0  0  0  0  0  0  0  0  0
  -21.4631  -29.7554   22.7723 N   0  0  0  0  0  0  0  0  0  0  0  0
  -22.3373  -12.6116   22.2035 N   0  3  0  0  0  0  0  0  0  0  0  0
  -18.9696  -23.3983   21.2726 N   0  3  0  0  0  0  0  0  0  0  0  0
  -26.0385  -25.5168   17.6601 O   0  0  0  0  0  0  0  0  0  0  0  0
  -25.5755  -20.5652   20.9272 O   0  0  0  0  0  0  0  0  0  0  0  0
  -26.8650  -16.2921   21.1057 O   0  0  0  0  0  0  0  0  0  0  0  0
  -22.3796  -14.8602   20.5128 O   0  0  0  0  0  0  0  0  0  0  0  0
  -21.2635  -32.0393   22.7950 O   0  0  0  0  0  0  0  0  0  0  0  0
  -32.3448  -25.9477   22.2024 O   0  0  0  0  0  0  0  0  0  0  0  0
  -19.8706  -20.9189   22.3426 O   0  0  0  0  0  0  0  0  0  1  0  0
  -36.1046  -24.4211   18.4692 F   0  0  0  0  0  0  0  0  0  0  0  0
  -34.7843  -27.2377   22.0369 F   0  0  0  0  0  0  0  0  0  0  0  0
  1  2  1  0  0  0  0
  1  5  2  0  0  0  0
  2  6  2  0  0  0  0
  3 12  2  0  0  0  0
  3 19  1  0  0  0  0
  4 13  1  0  0  0  0
  4 19  2  0  0  0  0
  5 21  1  0  0  0  0
  6 23  1  0  0  0  0
  7 14  2  0  0  0  0
  7 22  1  0  0  0  0
  8 10  2  0  0  0  0
  8 25  1  0  0  0  0
  9 11  1  0  0  0  0
  9 25  2  0  0  0  0
 10 26  1  0  0  0  0
 11 26  2  0  0  0  0
 12 27  1  0  0  0  0
 13 27  2  0  0  0  0
 14 28  1  0  0  0  0
 15 16  2  0  0  0  0
 15 29  1  0  0  0  0
 16 30  1  0  0  0  0
 17 24  1  0  0  0  0
 17 28  2  0  0  0  0
 18 30  2  0  0  0  0
 18 31  1  0  0  0  0
 19 32  1  0  0  0  0
 20 32  1  0  0  0  0
 20 33  2  0  0  0  0
 20 34  1  0  0  0  0
 21 23  2  0  0  0  0
 21 39  1  0  0  0  0
 22 24  2  0  0  0  0
 22 40  1  0  0  0  0
 23 48  1  0  0  0  0
 24 41  1  0  0  0  0
 25 56  1  0  0  0  0
 26 57  1  0  0  0  0
 27 79  1  0  0  0  0
 28 80  1  0  0  0  0
 29 31  2  0  0  0  0
 29 79  1  0  0  0  0
 30 81  1  0  0  0  0
 31 82  1  0  0  0  0
 32 63  2  0  0  0  0
 33 64  1  0  0  0  0
 33 67  1  0  0  0  0
 34 68  1  0  0  0  0
 34 74  2  0  0  0  0
 35 49  1  0  0  0  0
 35 69  1  0  0  0  0
 35 75  2  0  0  0  0
 36 60  1  0  0  0  0
 36 65  1  0  0  0  0
 36 76  2  0  0  0  0
 37 61  1  0  0  0  0
 37 70  1  0  0  0  0
 37 77  2  0  0  0  0
 38 66  1  0  0  0  0
 38 71  1  0  0  0  0
 38 78  2  0  0  0  0
 39 42  1  0  0  0  0
 40 49  1  0  0  0  0
 41 65  1  0  0  0  0
 42 44  1  0  0  0  0
 43 45  1  0  0  0  0
 43 46  1  0  0  0  0
 44 48  1  0  0  0  0
 45 50  1  0  0  0  0
 46 66  1  0  0  0  0
 47 50  1  0  0  0  0
 47 66  1  0  0  0  0
 48 69  1  0  0  0  0
 49 65  1  0  0  0  0
 50 64  1  0  0  0  0
 51 61  1  0  0  0  0
 52 62  1  0  0  0  0
 53 62  1  0  0  0  0
 54 62  1  0  0  0  0
 55 72  1  0  0  0  0
 56 71  1  0  0  0  0
 57 73  1  0  0  0  0
 58 59  1  0  0  0  0
 58 73  1  0  0  0  0
 59 80  1  0  0  0  0
 60 62  1  0  0  0  0
 60 70  1  0  0  0  0
 61 72  1  0  0  0  0
 63 64  1  0  0  0  0
M  CHG  2  72   1  73   1
M  ISO  4  38 100  59 101  71 100  80 101
M  END
> <Batch ID>
0133

> <Smiles>
CNC(C)C(=O)NC(C(=O)N1Cc2cc([101O:1][101CH2:1]CNCc3ccc(C[100NH:0][100C:0](=O)N4CCCC(n5nc(-c6ccc(Oc7ccc(F)cc7F)cc6)c(C(N)=O)c5N)C4)cc3)ccc2CC1C(=O)NC1CCCc2ccccc21)C(C)(C)C

> <Shape>
0.208

> <Color>
0.088

> <Negative vol penalty>
0.000

$$$$

  -OEChem-04052320553D

 83 91  0     1  0  0  0  0  0999 V2000
  -21.7300  -33.7669   15.7122 C   0  0  0  0  0  0  0  0  0  0  0  0
  -21.6013  -32.4308   16.0779 C   0  0  0  0  0  0  0  0  0  0  0  0
  -26.4317  -13.0471   19.1059 C   0  0  0  0  0  0  0  0  0  0  0  0
  -26.3862  -12.6433   21.4875 C   0  0  0  0  0  0  0  0  0  0  0  0
  -22.6432  -34.5852   16.3758 C   0  0  0  0  0  0  0  0  0  0  0  0
  -22.3867  -31.9119   17.1067 C   0  0  0  0  0  0  0  0  0  0  0  0
  -20.7669  -27.6283   21.1727 C   0  0  0  0  0  0  0  0  0  0  0  0
  -25.1846  -12.4355   18.9783 C   0  0  0  0  0  0  0  0  0  0  0  0
  -25.1391  -12.0317   21.3599 C   0  0  0  0  0  0  0  0  0  0  0  0
  -21.0014  -26.2553   21.2324 C   0  0  0  0  0  0  0  0  0  0  0  0
  -23.9232   -9.0346   20.3749 C   0  0  0  0  0  0  0  0  0  0  0  0
  -23.7188   -7.8324   21.0519 C   0  0  0  0  0  0  0  0  0  0  0  0
  -22.8959  -26.6476   22.6732 C   0  0  0  0  0  0  0  0  0  0  0  0
  -21.9029   -8.8375   22.2886 C   0  0  0  0  0  0  0  0  0  0  0  0
  -27.0326  -13.1509   20.3605 C   0  0  0  0  0  0  0  0  0  0  0  0
  -29.5266  -13.3900   19.8807 C   0  0  0  0  0  0  0  0  0  0  0  0
  -23.4333  -34.0785   17.4197 C   0  0  0  0  0  0  0  0  0  0  0  0
  -21.6031  -28.5235   21.8552 C   0  0  0  0  0  0  0  0  0  0  0  0
  -23.3123  -32.7239   17.7839 C   0  0  0  0  0  0  0  0  0  0  0  0
  -22.6684  -28.0313   22.6227 C   0  0  0  0  0  0  0  0  0  0  0  0
  -24.5383  -11.9278   20.1053 C   0  0  0  0  0  0  0  0  0  0  0  0
  -22.0678  -25.7649   21.9804 C   0  0  0  0  0  0  0  0  0  0  0  0
  -23.1176  -10.1384   20.6548 C   0  0  0  0  0  0  0  0  0  0  0  0
  -22.7086   -7.7338   22.0087 C   0  0  0  0  0  0  0  0  0  0  0  0
  -22.1074  -10.0398   21.6116 C   0  0  0  0  0  0  0  0  0  0  0  0
  -28.3210  -13.7821   20.4928 C   0  0  0  0  0  0  0  0  0  0  0  0
  -30.4498  -14.3060   20.3226 C   0  0  0  0  0  0  0  0  0  0  0  0
  -29.7886  -12.2957   18.9922 C   0  0  0  0  0  0  0  0  0  0  0  0
  -23.5317  -30.8967   20.9880 C   0  0  0  0  0  0  0  0  0  0  0  0
  -23.7968  -31.3319   24.1916 C   0  0  0  0  0  0  0  0  0  0  0  0
  -23.5761  -29.9972   27.3247 C   0  0  0  0  0  0  0  0  0  0  0  0
  -29.9812  -19.9371   22.3030 C   0  0  0  0  0  0  0  0  0  0  0  0
  -24.4403  -34.9896   18.0758 C   0  0  0  0  0  0  0  0  0  0  0  0
  -21.3207  -29.9999   21.8024 C   0  0  0  0  0  0  0  0  0  0  0  0
  -23.5833  -28.9491   23.3902 C   0  0  0  0  0  0  0  0  0  0  0  0
  -24.9676  -34.4572   19.4058 C   0  0  0  0  0  0  0  0  0  0  0  0
  -31.4024  -17.1699   24.0349 C   0  0  0  0  0  0  0  0  0  0  0  0
  -25.3477  -32.9854   19.2787 C   0  0  0  0  0  0  0  0  0  0  0  0
  -30.8826  -15.9525   23.2683 C   0  0  0  0  0  0  0  0  0  0  0  0
  -25.1107  -21.9515   22.3690 C   0  0  0  0  0  0  0  0  0  0  0  0
  -25.9319  -24.0017   21.1266 C   0  0  0  0  0  0  0  0  0  0  0  0
  -23.6813  -22.4825   22.2937 C   0  0  0  0  0  0  0  0  0  0  0  0
  -24.5005  -24.5280   21.0548 C   0  0  0  0  0  0  0  0  0  0  0  0
  -30.3568  -18.2806   24.1062 C   0  0  0  0  0  0  0  0  0  0  0  0
  -29.2856  -17.4791   22.0364 C   0  0  0  0  0  0  0  0  0  0  0  0
  -24.1288  -32.1305   18.9115 C   0  0  1  0  0  0  0  0  0  0  0  0
  -22.5443  -30.8541   22.1198 C   0  0  1  0  0  0  0  0  0  0  0  0
  -30.3246  -16.3543   21.8897 C   0  0  2  0  0  0  0  0  0  0  0  0
  -25.9464  -22.4764   21.2033 C   0  0  0  0  0  0  0  0  0  0  0  0
  -23.6492  -24.0080   22.2135 C   0  0  0  0  0  0  0  0  0  1  0  0
  -23.8883  -30.5872   29.7438 C   0  0  0  0  0  0  0  0  0  0  0  0
  -31.8554  -20.9718   19.4425 C   0  0  0  0  0  0  0  0  0  0  0  0
  -29.8492  -20.6750   17.9692 C   0  0  0  0  0  0  0  0  0  0  0  0
  -26.8233  -31.1794   23.8357 C   0  0  0  0  0  0  0  0  0  0  0  0
  -27.0256  -30.8187   26.3049 C   0  0  0  0  0  0  0  0  0  0  0  0
  -26.0481  -32.9413   25.4323 C   0  0  0  0  0  0  0  0  0  0  0  0
  -20.7404  -29.4257   27.9500 C   0  0  0  0  0  0  0  0  0  0  0  0
  -28.1391  -21.9873   20.1117 C   0  0  0  0  0  0  0  0  0  0  0  0
  -24.7103  -30.8022   25.2705 C   0  0  1  0  0  0  0  0  0  0  0  0
  -22.9028  -30.5003   28.5888 C   0  0  2  0  0  0  0  0  0  0  0  0
  -30.4410  -21.4753   19.1335 C   0  0  0  0  0  0  0  0  0  0  0  0
  -29.5518  -21.4741   20.4023 C   0  0  2  0  0  0  0  0  0  0  0  0
  -26.1359  -31.4180   25.1949 C   0  0  0  0  0  0  0  0  0  0  0  0
  -28.4624  -14.8629   21.2648 N   0  0  0  0  0  0  0  0  0  0  0  0
  -29.7677  -15.1577   21.1408 N   0  0  0  0  0  0  0  0  0  0  0  0
  -23.2698  -30.3849   23.3020 N   0  0  0  0  0  0  0  0  0  0  0  0
  -29.8695  -18.6156   22.7659 N   0  0  0  0  0  0  0  0  0  0  0  0
  -31.7704  -14.4578   20.0872 N   0  0  0  0  0  0  0  0  0  0  0  0
  -30.1655  -11.0633   19.5430 N   0  0  0  0  0  0  0  0  0  0  0  0
  -23.2983  -31.9079   20.0756 N   0  0  0  0  0  0  0  0  0  0  0  0
  -24.0247  -31.0360   26.5369 N   0  0  0  0  0  0  0  0  0  0  0  0
  -29.5008  -20.1675   21.0197 N   0  0  0  0  0  0  0  0  0  0  0  0
  -27.3503  -22.0163   21.3719 N   0  3  0  0  0  0  0  0  0  0  0  0
  -21.7945  -29.5859   28.9845 N   0  3  0  0  0  0  0  0  0  0  0  0
  -29.7072  -12.4119   17.7458 O   0  0  0  0  0  0  0  0  0  0  0  0
  -24.4391  -30.0742   20.9465 O   0  0  0  0  0  0  0  0  0  0  0  0
  -23.5539  -32.5403   24.1444 O   0  0  0  0  0  0  0  0  0  0  0  0
  -23.6957  -28.8020   27.0642 O   0  0  0  0  0  0  0  0  0  0  0  0
  -30.4774  -20.8432   22.9809 O   0  0  0  0  0  0  0  0  0  0  0  0
  -23.3213  -11.3311   19.9813 O   0  0  0  0  0  0  0  0  0  0  0  0
  -22.2993  -24.4252   22.0398 O   0  0  0  0  0  0  0  0  0  1  0  0
  -22.5114   -6.5787   22.6577 F   0  0  0  0  0  0  0  0  0  0  0  0
  -21.3295  -11.0965   21.8840 F   0  0  0  0  0  0  0  0  0  0  0  0
  1  2  1  0  0  0  0
  1  5  2  0  0  0  0
  2  6  2  0  0  0  0
  3  8  2  0  0  0  0
  3 15  1  0  0  0  0
  4  9  1  0  0  0  0
  4 15  2  0  0  0  0
  5 17  1  0  0  0  0
  6 19  1  0  0  0  0
  7 10  2  0  0  0  0
  7 18  1  0  0  0  0
  8 21  1  0  0  0  0
  9 21  2  0  0  0  0
 10 22  1  0  0  0  0
 11 12  2  0  0  0  0
 11 23  1  0  0  0  0
 12 24  1  0  0  0  0
 13 20  1  0  0  0  0
 13 22  2  0  0  0  0
 14 24  2  0  0  0  0
 14 25  1  0  0  0  0
 15 26  1  0  0  0  0
 16 26  1  0  0  0  0
 16 27  2  0  0  0  0
 16 28  1  0  0  0  0
 17 19  2  0  0  0  0
 17 33  1  0  0  0  0
 18 20  2  0  0  0  0
 18 34  1  0  0  0  0
 19 46  1  0  0  0  0
 20 35  1  0  0  0  0
 21 80  1  0  0  0  0
 22 81  1  0  0  0  0
 23 25  2  0  0  0  0
 23 80  1  0  0  0  0
 24 82  1  0  0  0  0
 25 83  1  0  0  0  0
 26 64  2  0  0  0  0
 27 65  1  0  0  0  0
 27 68  1  0  0  0  0
 28 69  1  0  0  0  0
 28 75  2  0  0  0  0
 29 47  1  0  0  0  0
 29 70  1  0  0  0  0
 29 76  2  0  0  0  0
 30 59  1  0  0  0  0
 30 66  1  0  0  0  0
 30 77  2  0  0  0  0
 31 60  1  0  0  0  0
 31 71  1  0  0  0  0
 31 78  2  0  0  0  0
 32 67  1  0  0  0  0
 32 72  1  0  0  0  0
 32 79  2  0  0  0  0
 33 36  1  0  0  0  0
 34 47  1  0  0  0  0
 35 66  1  0  0  0  0
 36 38  1  0  0  0  0
 37 39  1  0  0  0  0
 37 44  1  0  0  0  0
 38 46  1  0  0  0  0
 39 48  1  0  0  0  0
 40 42  1  0  0  0  0
 40 49  1  0  0  0  0
 41 43  1  0  0  0  0
 41 49  1  0  0  0  0
 42 50  1  0  0  0  0
 43 50  1  0  0  0  0
 44 67  1  0  0  0  0
 45 48  1  0  0  0  0
 45 67  1  0  0  0  0
 46 70  1  0  0  0  0
 47 66  1  0  0  0  0
 48 65  1  0  0  0  0
 49 73  1  0  0  0  0
 50 81  1  0  0  0  0
 51 60  1  0  0  0  0
 52 61  1  0  0  0  0
 53 61  1  0  0  0  0
 54 63  1  0  0  0  0
 55 63  1  0  0  0  0
 56 63  1  0  0  0  0
 57 74  1  0  0  0  0
 58 62  1  0  0  0  0
 58 73  1  0  0  0  0
 59 63  1  0  0  0  0
 59 71  1  0  0  0  0
 60 74  1  0  0  0  0
 61 62  1  0  0  0  0
 62 72  1  0  0  0  0
 64 65  1  0  0  0  0
M  CHG  2  73   1  74   1
M  ISO  4  32 100  50 101  72 100  81 101
M  END
> <Batch ID>
0133

> <Smiles>
CNC(C)C(=O)NC(C(=O)N1Cc2cc([101O:1][101CH:1]3CCC(NCC([100NH:0][100C:0](=O)N4CCCC(n5nc(-c6ccc(Oc7ccc(F)cc7F)cc6)c(C(N)=O)c5N)C4)C(C)C)CC3)ccc2CC1C(=O)NC1CCCc2ccccc21)C(C)(C)C

> <Shape>
0.268

> <Color>
0.078

> <Negative vol penalty>
0.000

$$$$

  -OEChem-04052320553D

 85 94  0     1  0  0  0  0  0999 V2000
  -31.0338  -36.0513   21.1210 C   0  0  0  0  0  0  0  0  0  0  0  0
  -30.8530  -34.7338   20.7123 C   0  0  0  0  0  0  0  0  0  0  0  0
  -22.8447   -9.8064   20.4014 C   0  0  0  0  0  0  0  0  0  0  0  0
  -24.6054   -8.4625   21.3662 C   0  0  0  0  0  0  0  0  0  0  0  0
  -30.3610  -36.5301   22.2443 C   0  0  0  0  0  0  0  0  0  0  0  0
  -30.0000  -33.8940   21.4275 C   0  0  0  0  0  0  0  0  0  0  0  0
  -28.2614  -21.8456   19.0743 C   0  0  0  0  0  0  0  0  0  0  0  0
  -26.4444  -29.4564   19.1536 C   0  0  0  0  0  0  0  0  0  0  0  0
  -28.2248  -23.2384   19.0081 C   0  0  0  0  0  0  0  0  0  0  0  0
  -21.9379   -9.2779   21.3201 C   0  0  0  0  0  0  0  0  0  0  0  0
  -23.6986   -7.9340   22.2849 C   0  0  0  0  0  0  0  0  0  0  0  0
  -26.6088  -28.0747   19.0667 C   0  0  0  0  0  0  0  0  0  0  0  0
  -21.2711   -5.5809   22.3177 C   0  0  0  0  0  0  0  0  0  0  0  0
  -21.2973   -4.2034   22.5351 C   0  0  0  0  0  0  0  0  0  0  0  0
  -25.3379  -27.8017   21.0988 C   0  0  0  0  0  0  0  0  0  0  0  0
  -25.8123  -23.1696   18.8969 C   0  0  0  0  0  0  0  0  0  0  0  0
  -21.7960   -4.5811   24.8687 C   0  0  0  0  0  0  0  0  0  0  0  0
  -24.1785   -9.3986   20.4244 C   0  0  0  0  0  0  0  0  0  0  0  0
  -25.0506   -9.8585   18.0717 C   0  0  0  0  0  0  0  0  0  0  0  0
  -29.4918  -35.6985   22.9680 C   0  0  0  0  0  0  0  0  0  0  0  0
  -25.7335  -30.0229   20.2214 C   0  0  0  0  0  0  0  0  0  0  0  0
  -29.3159  -34.3618   22.5624 C   0  0  0  0  0  0  0  0  0  0  0  0
  -27.0735  -21.1148   19.0517 C   0  0  0  0  0  0  0  0  0  0  0  0
  -25.1637  -29.1907   21.1956 C   0  0  0  0  0  0  0  0  0  0  0  0
  -27.0002  -23.9004   18.9194 C   0  0  0  0  0  0  0  0  0  0  0  0
  -25.8489  -21.7768   18.9631 C   0  0  0  0  0  0  0  0  0  0  0  0
  -22.3648   -8.3417   22.2619 C   0  0  0  0  0  0  0  0  0  0  0  0
  -26.0580  -27.2473   20.0409 C   0  0  0  0  0  0  0  0  0  0  0  0
  -21.5074   -6.4586   23.3759 C   0  0  0  0  0  0  0  0  0  0  0  0
  -21.5597   -3.7034   23.8105 C   0  0  0  0  0  0  0  0  0  0  0  0
  -21.7698   -5.9586   24.6513 C   0  0  0  0  0  0  0  0  0  0  0  0
  -25.1156   -9.9438   19.4753 C   0  0  0  0  0  0  0  0  0  0  0  0
  -26.1662  -10.5301   17.6349 C   0  0  0  0  0  0  0  0  0  0  0  0
  -24.0694   -9.2287   17.2372 C   0  0  0  0  0  0  0  0  0  0  0  0
  -26.4510  -32.0283   22.5809 C   0  0  0  0  0  0  0  0  0  0  0  0
  -23.2653  -31.8612   23.1686 C   0  0  0  0  0  0  0  0  0  0  0  0
  -20.3519  -30.1091   22.8694 C   0  0  0  0  0  0  0  0  0  0  0  0
  -29.5346  -14.8479   20.0559 C   0  0  0  0  0  0  0  0  0  0  0  0
  -28.8229  -36.2473   24.2033 C   0  0  0  0  0  0  0  0  0  0  0  0
  -25.5423  -31.5134   20.2863 C   0  0  0  0  0  0  0  0  0  0  0  0
  -24.3744  -29.7477   22.3511 C   0  0  0  0  0  0  0  0  0  0  0  0
  -27.6478  -35.4011   24.6866 C   0  0  0  0  0  0  0  0  0  0  0  0
  -30.6269  -11.6407   18.9616 C   0  0  0  0  0  0  0  0  0  0  0  0
  -27.0323  -19.0922   20.5734 C   0  0  0  0  0  0  0  0  0  0  0  0
  -28.4002  -19.0475   18.4399 C   0  0  0  0  0  0  0  0  0  0  0  0
  -28.0259  -33.9234   24.7047 C   0  0  0  0  0  0  0  0  0  0  0  0
  -29.3324  -10.8345   18.8425 C   0  0  0  0  0  0  0  0  0  0  0  0
  -27.0845  -17.5653   20.6355 C   0  0  0  0  0  0  0  0  0  0  0  0
  -28.4506  -17.5207   18.5072 C   0  0  0  0  0  0  0  0  0  0  0  0
  -30.5839  -12.6057   20.1444 C   0  0  0  0  0  0  0  0  0  0  0  0
  -28.1233  -12.7021   20.0461 C   0  0  0  0  0  0  0  0  0  0  0  0
  -27.1386  -19.6001   19.1252 C   0  0  0  0  0  0  0  0  0  0  0  0
  -28.3798  -33.4272   23.2976 C   0  0  1  0  0  0  0  0  0  0  0  0
  -25.2380  -32.0160   21.6942 C   0  0  1  0  0  0  0  0  0  0  0  0
  -28.0972  -11.7550   18.8342 C   0  0  2  0  0  0  0  0  0  0  0  0
  -28.3390  -17.0201   19.9488 C   0  0  0  0  0  0  0  0  0  0  0  0
  -24.5642  -21.0155   18.9370 C   0  0  0  0  0  0  0  0  0  0  0  0
  -17.9207  -30.2101   23.4825 C   0  0  0  0  0  0  0  0  0  0  0  0
  -23.9618  -31.1136   26.0436 C   0  0  0  0  0  0  0  0  0  0  0  0
  -21.6064  -30.3156   26.3331 C   0  0  0  0  0  0  0  0  0  0  0  0
  -22.0540  -32.7143   25.8150 C   0  0  0  0  0  0  0  0  0  0  0  0
  -19.5153  -30.0744   20.0308 C   0  0  0  0  0  0  0  0  0  0  0  0
  -26.9609  -25.3986   18.8479 C   0  0  0  0  0  0  0  0  0  1  0  0
  -22.3782  -30.9748   24.0091 C   0  0  1  0  0  0  0  0  0  0  0  0
  -18.9637  -30.5316   22.4235 C   0  0  2  0  0  0  0  0  0  0  0  0
  -22.5166  -31.2689   25.5296 C   0  0  0  0  0  0  0  0  0  0  0  0
  -26.1878  -10.6163   19.9020 N   0  0  0  0  0  0  0  0  0  0  0  0
  -26.8069  -10.9598   18.7597 N   0  0  0  0  0  0  0  0  0  0  0  0
  -24.2205  -31.2117   22.3739 N   0  0  0  0  0  0  0  0  0  0  0  0
  -29.3895  -13.4510   20.0761 N   0  0  0  0  0  0  0  0  0  0  0  0
  -26.6520  -10.7891   16.4022 N   0  0  0  0  0  0  0  0  0  0  0  0
  -24.2570   -7.8859   16.8822 N   0  0  0  0  0  0  0  0  0  0  0  0
  -27.1777  -33.2022   22.5237 N   0  0  0  0  0  0  0  0  0  0  0  0
  -21.0253  -31.1405   23.4892 N   0  0  0  0  0  0  0  0  0  0  0  0
  -28.3525  -15.5746   19.9839 N   0  0  0  0  0  0  0  0  0  0  0  0
  -18.5875  -29.8283   21.1646 N   0  3  0  0  0  0  0  0  0  0  0  0
  -23.0648   -9.8433   16.8053 O   0  0  0  0  0  0  0  0  0  0  0  0
  -26.7077  -31.0461   23.2672 O   0  0  0  0  0  0  0  0  0  0  0  0
  -23.1114  -33.0844   23.2100 O   0  0  0  0  0  0  0  0  0  0  0  0
  -20.7934  -28.9763   22.6894 O   0  0  0  0  0  0  0  0  0  0  0  0
  -30.6364  -15.4061   20.0935 O   0  0  0  0  0  0  0  0  0  0  0  0
  -21.4803   -7.8260   23.1586 O   0  0  0  0  0  0  0  0  0  0  0  0
  -26.2176  -25.8983   19.9589 O   0  0  0  0  0  0  0  0  0  1  0  0
  -21.5833   -2.3806   24.0194 F   0  0  0  0  0  0  0  0  0  0  0  0
  -21.9965   -6.7969   25.6720 F   0  0  0  0  0  0  0  0  0  0  0  0
  1  2  1  0  0  0  0
  1  5  2  0  0  0  0
  2  6  2  0  0  0  0
  3 10  2  0  0  0  0
  3 18  1  0  0  0  0
  4 11  1  0  0  0  0
  4 18  2  0  0  0  0
  5 20  1  0  0  0  0
  6 22  1  0  0  0  0
  7  9  2  0  0  0  0
  7 23  1  0  0  0  0
  8 12  2  0  0  0  0
  8 21  1  0  0  0  0
  9 25  1  0  0  0  0
 10 27  1  0  0  0  0
 11 27  2  0  0  0  0
 12 28  1  0  0  0  0
 13 14  2  0  0  0  0
 13 29  1  0  0  0  0
 14 30  1  0  0  0  0
 15 24  1  0  0  0  0
 15 28  2  0  0  0  0
 16 25  2  0  0  0  0
 16 26  1  0  0  0  0
 17 30  2  0  0  0  0
 17 31  1  0  0  0  0
 18 32  1  0  0  0  0
 19 32  1  0  0  0  0
 19 33  2  0  0  0  0
 19 34  1  0  0  0  0
 20 22  2  0  0  0  0
 20 39  1  0  0  0  0
 21 24  2  0  0  0  0
 21 40  1  0  0  0  0
 22 53  1  0  0  0  0
 23 26  2  0  0  0  0
 23 52  1  0  0  0  0
 24 41  1  0  0  0  0
 25 63  1  0  0  0  0
 26 57  1  0  0  0  0
 27 82  1  0  0  0  0
 28 83  1  0  0  0  0
 29 31  2  0  0  0  0
 29 82  1  0  0  0  0
 30 84  1  0  0  0  0
 31 85  1  0  0  0  0
 32 67  2  0  0  0  0
 33 68  1  0  0  0  0
 33 71  1  0  0  0  0
 34 72  1  0  0  0  0
 34 77  2  0  0  0  0
 35 54  1  0  0  0  0
 35 73  1  0  0  0  0
 35 78  2  0  0  0  0
 36 64  1  0  0  0  0
 36 69  1  0  0  0  0
 36 79  2  0  0  0  0
 37 65  1  0  0  0  0
 37 74  1  0  0  0  0
 37 80  2  0  0  0  0
 38 70  1  0  0  0  0
 38 75  1  0  0  0  0
 38 81  2  0  0  0  0
 39 42  1  0  0  0  0
 40 54  1  0  0  0  0
 41 69  1  0  0  0  0
 42 46  1  0  0  0  0
 43 47  1  0  0  0  0
 43 50  1  0  0  0  0
 44 48  1  0  0  0  0
 44 52  1  0  0  0  0
 45 49  1  0  0  0  0
 45 52  1  0  0  0  0
 46 53  1  0  0  0  0
 47 55  1  0  0  0  0
 48 56  1  0  0  0  0
 49 56  1  0  0  0  0
 50 70  1  0  0  0  0
 51 55  1  0  0  0  0
 51 70  1  0  0  0  0
 53 73  1  0  0  0  0
 54 69  1  0  0  0  0
 55 68  1  0  0  0  0
 56 75  1  0  0  0  0
 58 65  1  0  0  0  0
 59 66  1  0  0  0  0
 60 66  1  0  0  0  0
 61 66  1  0  0  0  0
 62 76  1  0  0  0  0
 63 83  1  0  0  0  0
 64 66  1  0  0  0  0
 64 74  1  0  0  0  0
 65 76  1  0  0  0  0
 67 68  1  0  0  0  0
M  CHG  1  76   1
M  ISO  4  38 100  63 101  75 100  83 101
M  END
> <Batch ID>
0133

> <Smiles>
CNC(C)C(=O)NC(C(=O)N1Cc2cc([101O:1][101CH2:1]c3ccc(C4CCC([100NH:0][100C:0](=O)N5CCCC(n6nc(-c7ccc(Oc8ccc(F)cc8F)cc7)c(C(N)=O)c6N)C5)CC4)c(C)c3)ccc2CC1C(=O)NC1CCCc2ccccc21)C(C)(C)C

> <Shape>
0.274

> <Color>
0.091

> <Negative vol penalty>
0.000

$$$$

  -OEChem-04052320553D

 85 94  0     1  0  0  0  0  0999 V2000
  -36.1410  -23.9607   16.5426 C   0  0  0  0  0  0  0  0  0  0  0  0
  -35.1916  -24.8651   17.0074 C   0  0  0  0  0  0  0  0  0  0  0  0
  -22.3379  -17.0899   19.1302 C   0  0  0  0  0  0  0  0  0  0  0  0
  -20.6495  -16.9090   20.8487 C   0  0  0  0  0  0  0  0  0  0  0  0
  -35.7459  -22.6916   16.1217 C   0  0  0  0  0  0  0  0  0  0  0  0
  -33.8461  -24.5012   17.0505 C   0  0  0  0  0  0  0  0  0  0  0  0
  -24.5441  -32.0218   20.3111 C   0  0  0  0  0  0  0  0  0  0  0  0
  -29.7025  -26.2090   21.2242 C   0  0  0  0  0  0  0  0  0  0  0  0
  -25.6550  -31.1791   20.3460 C   0  0  0  0  0  0  0  0  0  0  0  0
  -22.7153  -15.7672   19.3616 C   0  0  0  0  0  0  0  0  0  0  0  0
  -21.0268  -15.5863   21.0802 C   0  0  0  0  0  0  0  0  0  0  0  0
  -28.7223  -27.2004   21.2217 C   0  0  0  0  0  0  0  0  0  0  0  0
  -24.5608  -14.0634   21.6234 C   0  0  0  0  0  0  0  0  0  0  0  0
  -25.9249  -13.7846   21.7071 C   0  0  0  0  0  0  0  0  0  0  0  0
  -27.0844  -25.5708   20.5282 C   0  0  0  0  0  0  0  0  0  0  0  0
  -24.5646  -29.8104   22.0117 C   0  0  0  0  0  0  0  0  0  0  0  0
  -25.7306  -12.2713   19.8338 C   0  0  0  0  0  0  0  0  0  0  0  0
  -21.3050  -17.6609   19.8737 C   0  0  0  0  0  0  0  0  0  0  0  0
  -19.9422  -19.4880   18.7283 C   0  0  0  0  0  0  0  0  0  0  0  0
  -34.3962  -22.3086   16.1688 C   0  0  0  0  0  0  0  0  0  0  0  0
  -29.3828  -24.8911   20.8675 C   0  0  0  0  0  0  0  0  0  0  0  0
  -33.4324  -23.2262   16.6286 C   0  0  0  0  0  0  0  0  0  0  0  0
  -23.4434  -31.7588   21.1266 C   0  0  0  0  0  0  0  0  0  0  0  0
  -28.0618  -24.5640   20.5294 C   0  0  0  0  0  0  0  0  0  0  0  0
  -25.6653  -30.0734   21.1962 C   0  0  0  0  0  0  0  0  0  0  0  0
  -23.4536  -30.6531   21.9769 C   0  0  0  0  0  0  0  0  0  0  0  0
  -22.0597  -15.0154   20.3366 C   0  0  0  0  0  0  0  0  0  0  0  0
  -27.4136  -26.8820   20.8708 C   0  0  0  0  0  0  0  0  0  0  0  0
  -23.7815  -13.4461   20.6449 C   0  0  0  0  0  0  0  0  0  0  0  0
  -26.5098  -12.8885   20.8123 C   0  0  0  0  0  0  0  0  0  0  0  0
  -24.3664  -12.5501   19.7501 C   0  0  0  0  0  0  0  0  0  0  0  0
  -20.9152  -19.0274   19.6355 C   0  0  0  0  0  0  0  0  0  0  0  0
  -19.9497  -20.8530   18.8805 C   0  0  0  0  0  0  0  0  0  0  0  0
  -19.1064  -18.7481   17.8285 C   0  0  0  0  0  0  0  0  0  0  0  0
  -30.2978  -22.9071   18.5588 C   0  0  0  0  0  0  0  0  0  0  0  0
  -28.4902  -20.7771   20.2073 C   0  0  0  0  0  0  0  0  0  0  0  0
  -25.9259  -20.2321   22.3923 C   0  0  0  0  0  0  0  0  0  0  0  0
  -19.9173  -25.2808   22.0961 C   0  0  0  0  0  0  0  0  0  0  0  0
  -34.0110  -20.9425   15.6588 C   0  0  0  0  0  0  0  0  0  0  0  0
  -30.4460  -23.8277   20.9011 C   0  0  0  0  0  0  0  0  0  0  0  0
  -27.6627  -23.1600   20.1583 C   0  0  0  0  0  0  0  0  0  0  0  0
  -32.6134  -20.5038   16.0882 C   0  0  0  0  0  0  0  0  0  0  0  0
  -23.1678  -23.8750   21.3508 C   0  0  0  0  0  0  0  0  0  0  0  0
  -21.1116  -32.3261   20.1701 C   0  0  0  0  0  0  0  0  0  0  0  0
  -22.0129  -33.4683   19.8190 C   0  0  0  0  0  0  0  0  0  0  0  0
  -31.6092  -21.6309   15.8692 C   0  0  0  0  0  0  0  0  0  0  0  0
  -22.7837  -22.5175   20.7592 C   0  0  0  0  0  0  0  0  0  0  0  0
  -22.2390  -24.2607   22.4983 C   0  0  0  0  0  0  0  0  0  0  0  0
  -20.4057  -22.9127   21.5521 C   0  0  0  0  0  0  0  0  0  0  0  0
  -22.2651  -32.6740   21.0728 C   0  0  0  0  0  0  0  0  0  0  0  0
  -31.9665  -22.8599   16.7138 C   0  0  1  0  0  0  0  0  0  0  0  0
  -30.1157  -22.6245   20.0232 C   0  0  1  0  0  0  0  0  0  0  0  0
  -21.2934  -22.4763   20.3725 C   0  0  2  0  0  0  0  0  0  0  0  0
  -24.6576  -18.3833   23.5195 C   0  0  0  0  0  0  0  0  0  0  0  0
  -27.0068  -20.2094   17.6020 C   0  0  0  0  0  0  0  0  0  0  0  0
  -25.1990  -19.1215   18.9497 C   0  0  0  0  0  0  0  0  0  0  0  0
  -27.5101  -18.1831   18.9787 C   0  0  0  0  0  0  0  0  0  0  0  0
  -26.7137  -21.1762   25.0843 C   0  0  0  0  0  0  0  0  0  0  0  0
  -22.2870  -30.3488   22.8588 C   0  0  0  0  0  0  0  0  0  0  0  0
  -26.8600  -29.1664   21.2330 C   0  0  0  0  0  0  0  0  0  1  0  0
  -19.5774  -27.6657   22.6910 C   0  0  0  0  0  0  0  0  0  0  0  0
  -20.3321  -28.8489   23.2679 C   0  0  0  0  0  0  0  0  0  0  0  0
  -27.0402  -20.3579   20.1794 C   0  0  1  0  0  0  0  0  0  0  0  0
  -25.8235  -19.3540   23.6263 C   0  0  2  0  0  0  0  0  0  0  0  0
  -26.6966  -19.4949   18.9325 C   0  0  0  0  0  0  0  0  0  0  0  0
  -21.4984  -20.0193   20.3136 N   0  0  0  0  0  0  0  0  0  0  0  0
  -20.8903  -21.1168   19.8322 N   0  0  0  0  0  0  0  0  0  0  0  0
  -28.7394  -22.1568   20.1999 N   0  0  0  0  0  0  0  0  0  0  0  0
  -20.8371  -24.2196   22.0591 N   0  0  0  0  0  0  0  0  0  0  0  0
  -19.2434  -21.8413   18.2916 N   0  0  0  0  0  0  0  0  0  0  0  0
  -19.2274  -17.3521   17.7994 N   0  0  0  0  0  0  0  0  0  0  0  0
  -31.5742  -22.6575   18.0920 N   0  0  0  0  0  0  0  0  0  0  0  0
  -26.7820  -19.6961   21.4536 N   0  0  0  0  0  0  0  0  0  0  0  0
  -20.4034  -26.4825   22.5964 N   0  0  0  0  0  0  0  0  0  0  0  0
  -25.6277  -20.1916   24.8433 N   0  3  0  0  0  0  0  0  0  0  0  0
  -21.4660  -29.2057   22.3753 N   0  3  0  0  0  0  0  0  0  0  0  0
  -18.2883  -19.3095   17.0609 O   0  0  0  0  0  0  0  0  0  0  0  0
  -29.3500  -23.3197   17.9006 O   0  0  0  0  0  0  0  0  0  0  0  0
  -29.3691  -19.9122   20.2417 O   0  0  0  0  0  0  0  0  0  0  0  0
  -25.3055  -21.2862   22.2714 O   0  0  0  0  0  0  0  0  0  0  0  0
  -18.7500  -25.1674   21.7067 O   0  0  0  0  0  0  0  0  0  0  0  0
  -22.4275  -13.7245   20.5626 O   0  0  0  0  0  0  0  0  0  0  0  0
  -26.4550  -27.8480   20.8669 O   0  0  0  0  0  0  0  0  0  1  0  0
  -27.8201  -12.6221   20.8918 F   0  0  0  0  0  0  0  0  0  0  0  0
  -23.6231  -11.9549   18.8072 F   0  0  0  0  0  0  0  0  0  0  0  0
  1  2  1  0  0  0  0
  1  5  2  0  0  0  0
  2  6  2  0  0  0  0
  3 10  2  0  0  0  0
  3 18  1  0  0  0  0
  4 11  1  0  0  0  0
  4 18  2  0  0  0  0
  5 20  1  0  0  0  0
  6 22  1  0  0  0  0
  7  9  2  0  0  0  0
  7 23  1  0  0  0  0
  8 12  2  0  0  0  0
  8 21  1  0  0  0  0
  9 25  1  0  0  0  0
 10 27  1  0  0  0  0
 11 27  2  0  0  0  0
 12 28  1  0  0  0  0
 13 14  2  0  0  0  0
 13 29  1  0  0  0  0
 14 30  1  0  0  0  0
 15 24  1  0  0  0  0
 15 28  2  0  0  0  0
 16 25  2  0  0  0  0
 16 26  1  0  0  0  0
 17 30  2  0  0  0  0
 17 31  1  0  0  0  0
 18 32  1  0  0  0  0
 19 32  1  0  0  0  0
 19 33  2  0  0  0  0
 19 34  1  0  0  0  0
 20 22  2  0  0  0  0
 20 39  1  0  0  0  0
 21 24  2  0  0  0  0
 21 40  1  0  0  0  0
 22 51  1  0  0  0  0
 23 26  2  0  0  0  0
 23 50  1  0  0  0  0
 24 41  1  0  0  0  0
 25 60  1  0  0  0  0
 26 59  1  0  0  0  0
 27 82  1  0  0  0  0
 28 83  1  0  0  0  0
 29 31  2  0  0  0  0
 29 82  1  0  0  0  0
 30 84  1  0  0  0  0
 31 85  1  0  0  0  0
 32 66  2  0  0  0  0
 33 67  1  0  0  0  0
 33 70  1  0  0  0  0
 34 71  1  0  0  0  0
 34 77  2  0  0  0  0
 35 52  1  0  0  0  0
 35 72  1  0  0  0  0
 35 78  2  0  0  0  0
 36 63  1  0  0  0  0
 36 68  1  0  0  0  0
 36 79  2  0  0  0  0
 37 64  1  0  0  0  0
 37 73  1  0  0  0  0
 37 80  2  0  0  0  0
 38 69  1  0  0  0  0
 38 74  1  0  0  0  0
 38 81  2  0  0  0  0
 39 42  1  0  0  0  0
 40 52  1  0  0  0  0
 41 68  1  0  0  0  0
 42 46  1  0  0  0  0
 43 47  1  0  0  0  0
 43 48  1  0  0  0  0
 44 45  1  0  0  0  0
 44 50  1  0  0  0  0
 45 50  1  0  0  0  0
 46 51  1  0  0  0  0
 47 53  1  0  0  0  0
 48 69  1  0  0  0  0
 49 53  1  0  0  0  0
 49 69  1  0  0  0  0
 51 72  1  0  0  0  0
 52 68  1  0  0  0  0
 53 67  1  0  0  0  0
 54 64  1  0  0  0  0
 55 65  1  0  0  0  0
 56 65  1  0  0  0  0
 57 65  1  0  0  0  0
 58 75  1  0  0  0  0
 59 76  1  0  0  0  0
 60 83  1  0  0  0  0
 61 62  1  0  0  0  0
 61 74  1  0  0  0  0
 62 76  1  0  0  0  0
 63 65  1  0  0  0  0
 63 73  1  0  0  0  0
 64 75  1  0  0  0  0
 66 67  1  0  0  0  0
M  CHG  2  75   1  76   1
M  ISO  4  38 100  60 101  74 100  83 101
M  END
> <Batch ID>
0133

> <Smiles>
CNC(C)C(=O)NC(C(=O)N1Cc2cc([101O:1][101CH2:1]c3ccc(C4CC4)c(CNCC[100NH:0][100C:0](=O)N4CCCC(n5nc(-c6ccc(Oc7ccc(F)cc7F)cc6)c(C(N)=O)c5N)C4)c3)ccc2CC1C(=O)NC1CCCc2ccccc21)C(C)(C)C

> <Shape>
0.197

> <Color>
0.072

> <Negative vol penalty>
0.000

$$$$

  -OEChem-04052320553D

 85 94  0     1  0  0  0  0  0999 V2000
  -29.5654  -31.9658   25.8780 C   0  0  0  0  0  0  0  0  0  0  0  0
  -29.2915  -30.8383   25.1105 C   0  0  0  0  0  0  0  0  0  0  0  0
  -23.4709  -10.1697   22.1050 C   0  0  0  0  0  0  0  0  0  0  0  0
  -24.6353   -8.6959   20.5854 C   0  0  0  0  0  0  0  0  0  0  0  0
  -28.5194  -32.6928   26.4448 C   0  0  0  0  0  0  0  0  0  0  0  0
  -27.9713  -30.4365   24.9102 C   0  0  0  0  0  0  0  0  0  0  0  0
  -27.0281  -29.1955   20.0920 C   0  0  0  0  0  0  0  0  0  0  0  0
  -22.3299   -9.3741   22.0025 C   0  0  0  0  0  0  0  0  0  0  0  0
  -23.4942   -7.9002   20.4829 C   0  0  0  0  0  0  0  0  0  0  0  0
  -27.4668  -27.9449   19.6590 C   0  0  0  0  0  0  0  0  0  0  0  0
  -19.2251   -7.5306   22.4230 C   0  0  0  0  0  0  0  0  0  0  0  0
  -18.5470   -7.2144   23.6002 C   0  0  0  0  0  0  0  0  0  0  0  0
  -25.2342  -27.0734   19.9333 C   0  0  0  0  0  0  0  0  0  0  0  0
  -20.5315   -6.1314   24.4523 C   0  0  0  0  0  0  0  0  0  0  0  0
  -27.9455  -23.4553   19.8664 C   0  0  0  0  0  0  0  0  0  0  0  0
  -24.6236   -9.8307   21.3964 C   0  0  0  0  0  0  0  0  0  0  0  0
  -26.8505  -10.5208   22.4321 C   0  0  0  0  0  0  0  0  0  0  0  0
  -27.1853  -32.3053   26.2433 C   0  0  0  0  0  0  0  0  0  0  0  0
  -25.6892  -29.3919   20.4600 C   0  0  0  0  0  0  0  0  0  0  0  0
  -26.9065  -31.1582   25.4759 C   0  0  0  0  0  0  0  0  0  0  0  0
  -24.7804  -28.3281   20.3682 C   0  0  0  0  0  0  0  0  0  0  0  0
  -22.3415   -8.2393   21.1914 C   0  0  0  0  0  0  0  0  0  0  0  0
  -26.5704  -26.8829   19.5824 C   0  0  0  0  0  0  0  0  0  0  0  0
  -20.5563   -7.1471   22.2603 C   0  0  0  0  0  0  0  0  0  0  0  0
  -19.2002   -6.5148   24.6148 C   0  0  0  0  0  0  0  0  0  0  0  0
  -21.2096   -6.4476   23.2750 C   0  0  0  0  0  0  0  0  0  0  0  0
  -25.8024  -10.6526   21.5015 C   0  0  0  0  0  0  0  0  0  0  0  0
  -27.4610  -24.7623   20.0640 C   0  0  0  0  0  0  0  0  0  1  0  0
  -28.2730  -23.0165   21.1261 C   0  0  0  0  0  0  0  0  0  0  0  0
  -27.7211  -11.5345   22.1146 C   0  0  0  0  0  0  0  0  0  0  0  0
  -27.0218   -9.5671   23.4889 C   0  0  0  0  0  0  0  0  0  0  0  0
  -24.1989  -30.2264   23.1407 C   0  0  0  0  0  0  0  0  0  0  0  0
  -21.5850  -30.2496   21.2200 C   0  0  0  0  0  0  0  0  0  0  0  0
  -20.0717  -29.1309   18.3730 C   0  0  0  0  0  0  0  0  0  0  0  0
  -28.8739  -16.6140   20.8201 C   0  0  0  0  0  0  0  0  0  0  0  0
  -26.0904  -33.0955   26.9153 C   0  0  0  0  0  0  0  0  0  0  0  0
  -25.2259  -30.7538   20.8995 C   0  0  0  0  0  0  0  0  0  0  0  0
  -23.3282  -28.4921   20.7323 C   0  0  0  0  0  0  0  0  0  0  0  0
  -24.7018  -32.8192   26.3447 C   0  0  0  0  0  0  0  0  0  0  0  0
  -27.8942  -14.6084   18.1096 C   0  0  0  0  0  0  0  0  0  0  0  0
  -24.4762  -31.3183   26.1924 C   0  0  0  0  0  0  0  0  0  0  0  0
  -27.3409  -13.3776   18.8273 C   0  0  0  0  0  0  0  0  0  0  0  0
  -27.8466  -19.9486   20.3585 C   0  0  0  0  0  0  0  0  0  0  0  0
  -30.1285  -19.7868   21.4236 C   0  0  0  0  0  0  0  0  0  0  0  0
  -27.4978  -15.9081   18.8123 C   0  0  0  0  0  0  0  0  0  0  0  0
  -28.1541  -18.6856   19.5486 C   0  0  0  0  0  0  0  0  0  0  0  0
  -30.4006  -18.5480   20.5749 C   0  0  0  0  0  0  0  0  0  0  0  0
  -27.2935  -14.7125   20.9680 C   0  0  0  0  0  0  0  0  0  0  0  0
  -25.4864  -30.7050   25.2153 C   0  0  1  0  0  0  0  0  0  0  0  0
  -23.9531  -30.7096   21.7394 C   0  0  1  0  0  0  0  0  0  0  0  0
  -27.7241  -13.3885   20.3178 C   0  0  1  0  0  0  0  0  0  0  0  0
  -29.1246  -20.7071   20.7244 C   0  0  0  0  0  0  0  0  0  0  0  0
  -17.9206  -29.2941   17.0909 C   0  0  0  0  0  0  0  0  0  0  0  0
  -26.9195  -23.5078   24.1312 C   0  0  0  0  0  0  0  0  0  0  0  0
  -28.4963  -25.4755   23.9114 C   0  0  0  0  0  0  0  0  0  0  0  0
  -20.2524  -28.3711   23.2213 C   0  0  0  0  0  0  0  0  0  0  0  0
  -18.5476  -27.8276   21.4702 C   0  0  0  0  0  0  0  0  0  0  0  0
  -18.7597  -30.1636   22.3193 C   0  0  0  0  0  0  0  0  0  0  0  0
  -21.4299  -30.2977   16.0166 C   0  0  0  0  0  0  0  0  0  0  0  0
  -20.5545  -29.2276   20.8045 C   0  0  1  0  0  0  0  0  0  0  0  0
  -19.3181  -29.8640   17.2780 C   0  0  2  0  0  0  0  0  0  0  0  0
  -28.1397  -24.0767   23.4045 C   0  0  0  0  0  0  0  0  0  0  0  0
  -19.5563  -28.8936   21.9487 C   0  0  0  0  0  0  0  0  0  0  0  0
  -25.9882  -11.6700   20.6563 N   0  0  0  0  0  0  0  0  0  0  0  0
  -27.4776  -25.1298   21.3480 N   0  0  0  0  0  0  0  0  0  0  0  0
  -27.1631  -12.1868   21.0547 N   0  0  0  0  0  0  0  0  0  0  0  0
  -27.9764  -24.0472   21.9687 N   0  0  0  0  0  0  0  0  0  0  0  0
  -22.9250  -29.8411   21.1624 N   0  0  0  0  0  0  0  0  0  0  0  0
  -27.8467  -15.8557   20.2388 N   0  0  0  0  0  0  0  0  0  0  0  0
  -29.1558  -17.8577   20.2355 N   0  0  0  0  0  0  0  0  0  0  0  0
  -28.9017  -11.9228   22.6416 N   0  0  0  0  0  0  0  0  0  0  0  0
  -26.0319   -8.5928   23.6766 N   0  0  0  0  0  0  0  0  0  0  0  0
  -28.7973  -21.8216   21.5862 N   0  0  0  0  0  0  0  0  0  0  0  0
  -25.1059  -30.9915   23.8488 N   0  0  0  0  0  0  0  0  0  0  0  0
  -19.9255  -29.7501   19.5963 N   0  0  0  0  0  0  0  0  0  0  0  0
  -20.0480  -29.7533   15.9834 N   0  3  0  0  0  0  0  0  0  0  0  0
  -28.0149   -9.5888   24.2549 O   0  0  0  0  0  0  0  0  0  0  0  0
  -23.6082  -29.2337   23.5498 O   0  0  0  0  0  0  0  0  0  0  0  0
  -21.2151  -31.3714   21.5755 O   0  0  0  0  0  0  0  0  0  0  0  0
  -20.7217  -28.1088   18.1648 O   0  0  0  0  0  0  0  0  0  0  0  0
  -29.5025  -16.2041   21.8039 O   0  0  0  0  0  0  0  0  0  0  0  0
  -21.2284   -7.4625   21.0913 O   0  0  0  0  0  0  0  0  0  0  0  0
  -27.0067  -25.6307   19.1502 O   0  0  0  0  0  0  0  0  0  1  0  0
  -18.5494   -6.2126   25.7459 F   0  0  0  0  0  0  0  0  0  0  0  0
  -22.4888   -6.0776   23.1251 F   0  0  0  0  0  0  0  0  0  0  0  0
  1  2  1  0  0  0  0
  1  5  2  0  0  0  0
  2  6  2  0  0  0  0
  3  8  2  0  0  0  0
  3 16  1  0  0  0  0
  4  9  1  0  0  0  0
  4 16  2  0  0  0  0
  5 18  1  0  0  0  0
  6 20  1  0  0  0  0
  7 10  2  0  0  0  0
  7 19  1  0  0  0  0
  8 22  1  0  0  0  0
  9 22  2  0  0  0  0
 10 23  1  0  0  0  0
 11 12  2  0  0  0  0
 11 24  1  0  0  0  0
 12 25  1  0  0  0  0
 13 21  1  0  0  0  0
 13 23  2  0  0  0  0
 14 25  2  0  0  0  0
 14 26  1  0  0  0  0
 15 28  1  0  0  0  0
 15 29  2  0  0  0  0
 16 27  1  0  0  0  0
 17 27  1  0  0  0  0
 17 30  2  0  0  0  0
 17 31  1  0  0  0  0
 18 20  2  0  0  0  0
 18 36  1  0  0  0  0
 19 21  2  0  0  0  0
 19 37  1  0  0  0  0
 20 49  1  0  0  0  0
 21 38  1  0  0  0  0
 22 82  1  0  0  0  0
 23 83  1  0  0  0  0
 24 26  2  0  0  0  0
 24 82  1  0  0  0  0
 25 84  1  0  0  0  0
 26 85  1  0  0  0  0
 27 64  2  0  0  0  0
 28 65  2  0  0  0  0
 28 83  1  0  0  0  0
 29 67  1  0  0  0  0
 29 73  1  0  0  0  0
 30 66  1  0  0  0  0
 30 71  1  0  0  0  0
 31 72  1  0  0  0  0
 31 77  2  0  0  0  0
 32 50  1  0  0  0  0
 32 74  1  0  0  0  0
 32 78  2  0  0  0  0
 33 60  1  0  0  0  0
 33 68  1  0  0  0  0
 33 79  2  0  0  0  0
 34 61  1  0  0  0  0
 34 75  1  0  0  0  0
 34 80  2  0  0  0  0
 35 69  1  0  0  0  0
 35 70  1  0  0  0  0
 35 81  2  0  0  0  0
 36 39  1  0  0  0  0
 37 50  1  0  0  0  0
 38 68  1  0  0  0  0
 39 41  1  0  0  0  0
 40 42  1  0  0  0  0
 40 45  1  0  0  0  0
 41 49  1  0  0  0  0
 42 51  1  0  0  0  0
 43 46  1  0  0  0  0
 43 52  1  0  0  0  0
 44 47  1  0  0  0  0
 44 52  1  0  0  0  0
 45 69  1  0  0  0  0
 46 70  1  0  0  0  0
 47 70  1  0  0  0  0
 48 51  1  0  0  0  0
 48 69  1  0  0  0  0
 49 74  1  0  0  0  0
 50 68  1  0  0  0  0
 51 66  1  0  0  0  0
 52 73  1  0  0  0  0
 53 61  1  0  0  0  0
 54 62  1  0  0  0  0
 55 62  1  0  0  0  0
 56 63  1  0  0  0  0
 57 63  1  0  0  0  0
 58 63  1  0  0  0  0
 59 76  1  0  0  0  0
 60 63  1  0  0  0  0
 60 75  1  0  0  0  0
 61 76  1  0  0  0  0
 62 67  1  0  0  0  0
 64 66  1  0  0  0  0
 65 67  1  0  0  0  0
M  CHG  1  76   1
M  ISO  4  28 101  35 100  70 100  83 101
M  END
> <Batch ID>
0133

> <Smiles>
CNC(C)C(=O)NC(C(=O)N1Cc2cc([101O:1][101c:1]3cc(NC4CC[100N:0]([100C:0](=O)N5CCCC(n6nc(-c7ccc(Oc8ccc(F)cc8F)cc7)c(C(N)=O)c6N)C5)CC4)n(C(C)C)n3)ccc2CC1C(=O)NC1CCCc2ccccc21)C(C)(C)C

> <Shape>
0.307

> <Color>
0.092

> <Negative vol penalty>
0.000

$$$$

  -OEChem-04052320553D

 81 89  0     1  0  0  0  0  0999 V2000
  -26.9396  -29.3341   20.1287 C   0  0  0  0  0  0  0  0  0  0  0  0
  -27.3086  -28.2593   20.9313 C   0  0  0  0  0  0  0  0  0  0  0  0
  -23.2994  -10.1361   22.1672 C   0  0  0  0  0  0  0  0  0  0  0  0
  -23.8603   -9.5098   19.9022 C   0  0  0  0  0  0  0  0  0  0  0  0
  -25.8980  -29.1932   19.2126 C   0  0  0  0  0  0  0  0  0  0  0  0
  -26.6356  -27.0433   20.8189 C   0  0  0  0  0  0  0  0  0  0  0  0
  -29.0238  -21.4406   21.4613 C   0  0  0  0  0  0  0  0  0  0  0  0
  -22.6316   -8.9234   22.3372 C   0  0  0  0  0  0  0  0  0  0  0  0
  -23.1924   -8.2971   20.0722 C   0  0  0  0  0  0  0  0  0  0  0  0
  -29.0405  -20.5449   22.5296 C   0  0  0  0  0  0  0  0  0  0  0  0
  -21.9435   -4.8829   20.0280 C   0  0  0  0  0  0  0  0  0  0  0  0
  -22.5739   -3.7251   19.5722 C   0  0  0  0  0  0  0  0  0  0  0  0
  -27.1149  -19.4206   21.6091 C   0  0  0  0  0  0  0  0  0  0  0  0
  -24.4251   -4.1445   21.0668 C   0  0  0  0  0  0  0  0  0  0  0  0
  -23.9138  -10.4293   20.9497 C   0  0  0  0  0  0  0  0  0  0  0  0
  -24.0571  -12.9753   20.8784 C   0  0  0  0  0  0  0  0  0  0  0  0
  -25.2182  -27.9719   19.0822 C   0  0  0  0  0  0  0  0  0  0  0  0
  -28.0443  -21.3395   20.4629 C   0  0  0  0  0  0  0  0  0  0  0  0
  -25.5831  -26.8863   19.9011 C   0  0  0  0  0  0  0  0  0  0  0  0
  -27.0895  -20.3147   20.5278 C   0  0  0  0  0  0  0  0  0  0  0  0
  -22.5780   -8.0039   21.2897 C   0  0  0  0  0  0  0  0  0  0  0  0
  -28.0842  -19.5365   22.6051 C   0  0  0  0  0  0  0  0  0  0  0  0
  -22.5540   -5.6716   21.0032 C   0  0  0  0  0  0  0  0  0  0  0  0
  -23.8146   -3.3559   20.0916 C   0  0  0  0  0  0  0  0  0  0  0  0
  -23.7948   -5.3024   21.5226 C   0  0  0  0  0  0  0  0  0  0  0  0
  -24.6034  -11.6821   20.7734 C   0  0  0  0  0  0  0  0  0  0  0  0
  -25.1133  -13.8158   20.6248 C   0  0  0  0  0  0  0  0  0  0  0  0
  -22.7149  -13.3805   21.1785 C   0  0  0  0  0  0  0  0  0  0  0  0
  -25.7151  -23.2270   19.4064 C   0  0  0  0  0  0  0  0  0  0  0  0
  -25.3952  -20.9165   17.1521 C   0  0  0  0  0  0  0  0  0  0  0  0
  -25.8711  -17.6584   16.2550 C   0  0  0  0  0  0  0  0  0  0  0  0
  -31.0429  -13.1940   21.1770 C   0  0  0  0  0  0  0  0  0  0  0  0
  -24.0677  -27.8817   18.1112 C   0  0  0  0  0  0  0  0  0  0  0  0
  -28.0562  -22.2971   19.3031 C   0  0  0  0  0  0  0  0  0  0  0  0
  -26.0291  -20.1507   19.4710 C   0  0  0  0  0  0  0  0  0  0  0  0
  -23.6528  -26.4481   17.7900 C   0  0  0  0  0  0  0  0  0  0  0  0
  -29.2432  -14.0185   18.2176 C   0  0  0  0  0  0  0  0  0  0  0  0
  -23.5428  -25.6248   19.0695 C   0  0  0  0  0  0  0  0  0  0  0  0
  -27.8007  -13.6299   18.5465 C   0  0  0  0  0  0  0  0  0  0  0  0
  -27.7314  -20.2763   25.4042 C   0  0  0  0  0  0  0  0  0  0  0  0
  -30.2448  -13.0460   18.8366 C   0  0  0  0  0  0  0  0  0  0  0  0
  -28.6487  -12.4511   20.6178 C   0  0  0  0  0  0  0  0  0  0  0  0
  -26.5177  -19.5659   25.9774 C   0  0  0  0  0  0  0  0  0  0  0  0
  -24.8934  -25.5438   19.7911 C   0  0  1  0  0  0  0  0  0  0  0  0
  -26.7008  -22.4167   18.6130 C   0  0  1  0  0  0  0  0  0  0  0  0
  -27.6043  -13.4342   20.0619 C   0  0  2  0  0  0  0  0  0  0  0  0
  -28.6005  -19.1399   24.8875 C   0  0  1  0  0  0  0  0  0  1  0  0
  -28.4683  -18.0869   25.9832 C   0  0  2  0  0  0  0  0  0  0  0  0
  -25.4724  -16.0575   14.3641 C   0  0  0  0  0  0  0  0  0  0  0  0
  -22.4434  -20.7618   17.9089 C   0  0  0  0  0  0  0  0  0  0  0  0
  -22.3241  -18.5646   16.7145 C   0  0  0  0  0  0  0  0  0  0  0  0
  -22.8985  -20.6385   15.4529 C   0  0  0  0  0  0  0  0  0  0  0  0
  -28.7671  -17.1445   15.9259 C   0  0  0  0  0  0  0  0  0  0  0  0
  -28.7141  -16.6496   25.5655 C   0  0  0  0  0  0  0  0  0  0  0  0
  -31.6905  -13.3064   23.5701 C   0  0  0  0  0  0  0  0  0  0  0  0
  -30.1337  -16.4573   25.0526 C   0  0  0  0  0  0  0  0  0  0  0  0
  -31.6477  -14.7489   24.0388 C   0  0  0  0  0  0  0  0  0  0  0  0
  -24.5984  -19.6396   17.0355 C   0  0  1  0  0  0  0  0  0  0  0  0
  -26.4505  -17.0339   14.9985 C   0  0  2  0  0  0  0  0  0  0  0  0
  -23.0848  -19.9051   16.7990 C   0  0  0  0  0  0  0  0  0  0  0  0
  -25.9054  -11.6950   20.4760 N   0  0  0  0  0  0  0  0  0  0  0  0
  -26.1862  -13.0065   20.3920 N   0  0  0  0  0  0  0  0  0  0  0  0
  -26.0786  -21.1156   18.3601 N   0  0  0  0  0  0  0  0  0  0  0  0
  -30.0052  -12.9064   20.2750 N   0  0  0  0  0  0  0  0  0  0  0  0
  -25.2198  -15.1609   20.5803 N   0  0  0  0  0  0  0  0  0  0  0  0
  -21.8155  -13.5512   20.1173 N   0  0  0  0  0  0  0  0  0  0  0  0
  -25.7573  -24.5823   19.1403 N   0  0  0  0  0  0  0  0  0  0  0  0
  -25.2383  -18.8536   15.9862 N   0  0  0  0  0  0  0  0  0  0  0  0
  -30.7299  -13.0422   22.5223 N   0  0  0  0  0  0  0  0  0  0  0  0
  -27.0442  -18.2440   26.4592 N   0  3  0  0  0  0  0  0  0  0  0  0
  -27.7075  -16.2996   15.3173 N   0  3  0  0  0  0  0  0  0  0  0  0
  -30.3095  -15.0510   24.6171 N   0  3  0  0  0  0  0  0  0  0  0  0
  -22.3293  -13.6012   22.3516 O   0  0  0  0  0  0  0  0  0  0  0  0
  -24.9702  -22.6640   20.2001 O   0  0  0  0  0  0  0  0  0  0  0  0
  -25.4165  -21.7048   16.2036 O   0  0  0  0  0  0  0  0  0  0  0  0
  -25.9669  -17.1362   17.3634 O   0  0  0  0  0  0  0  0  0  0  0  0
  -32.1635  -13.5641   20.8108 O   0  0  0  0  0  0  0  0  0  0  0  0
  -21.9266   -6.8203   21.4553 O   0  0  0  0  0  0  0  0  0  0  0  0
  -28.0978  -18.6613   23.6471 O   0  0  0  0  0  0  0  0  0  1  0  0
  -24.4191   -2.2432   19.6549 F   0  0  0  0  0  0  0  0  0  0  0  0
  -24.3857   -6.0554   22.4605 F   0  0  0  0  0  0  0  0  0  0  0  0
  1  2  1  0  0  0  0
  1  5  2  0  0  0  0
  2  6  2  0  0  0  0
  3  8  2  0  0  0  0
  3 15  1  0  0  0  0
  4  9  1  0  0  0  0
  4 15  2  0  0  0  0
  5 17  1  0  0  0  0
  6 19  1  0  0  0  0
  7 10  2  0  0  0  0
  7 18  1  0  0  0  0
  8 21  1  0  0  0  0
  9 21  2  0  0  0  0
 10 22  1  0  0  0  0
 11 12  2  0  0  0  0
 11 23  1  0  0  0  0
 12 24  1  0  0  0  0
 13 20  1  0  0  0  0
 13 22  2  0  0  0  0
 14 24  2  0  0  0  0
 14 25  1  0  0  0  0
 15 26  1  0  0  0  0
 16 26  1  0  0  0  0
 16 27  2  0  0  0  0
 16 28  1  0  0  0  0
 17 19  2  0  0  0  0
 17 33  1  0  0  0  0
 18 20  2  0  0  0  0
 18 34  1  0  0  0  0
 19 44  1  0  0  0  0
 20 35  1  0  0  0  0
 21 78  1  0  0  0  0
 22 79  1  0  0  0  0
 23 25  2  0  0  0  0
 23 78  1  0  0  0  0
 24 80  1  0  0  0  0
 25 81  1  0  0  0  0
 26 61  2  0  0  0  0
 27 62  1  0  0  0  0
 27 65  1  0  0  0  0
 28 66  1  0  0  0  0
 28 73  2  0  0  0  0
 29 45  1  0  0  0  0
 29 67  1  0  0  0  0
 29 74  2  0  0  0  0
 30 58  1  0  0  0  0
 30 63  1  0  0  0  0
 30 75  2  0  0  0  0
 31 59  1  0  0  0  0
 31 68  1  0  0  0  0
 31 76  2  0  0  0  0
 32 64  1  0  0  0  0
 32 69  1  0  0  0  0
 32 77  2  0  0  0  0
 33 36  1  0  0  0  0
 34 45  1  0  0  0  0
 35 63  1  0  0  0  0
 36 38  1  0  0  0  0
 37 39  1  0  0  0  0
 37 41  1  0  0  0  0
 38 44  1  0  0  0  0
 39 46  1  0  0  0  0
 40 43  1  0  0  0  0
 40 47  1  0  0  0  0
 41 64  1  0  0  0  0
 42 46  1  0  0  0  0
 42 64  1  0  0  0  0
 43 70  1  0  0  0  0
 44 67  1  0  0  0  0
 45 63  1  0  0  0  0
 46 62  1  0  0  0  0
 47 48  1  0  0  0  0
 47 79  1  0  0  0  0
 48 54  1  0  0  0  0
 48 70  1  0  0  0  0
 49 59  1  0  0  0  0
 50 60  1  0  0  0  0
 51 60  1  0  0  0  0
 52 60  1  0  0  0  0
 53 71  1  0  0  0  0
 54 56  1  0  0  0  0
 55 57  1  0  0  0  0
 55 69  1  0  0  0  0
 56 72  1  0  0  0  0
 57 72  1  0  0  0  0
 58 60  1  0  0  0  0
 58 68  1  0  0  0  0
 59 71  1  0  0  0  0
 61 62  1  0  0  0  0
M  CHG  3  70   1  71   1  72   1
M  ISO  4  32 100  47 101  69 100  79 101
M  END
> <Batch ID>
0133

> <Smiles>
CNC(C)C(=O)NC(C(=O)N1Cc2cc([101O:1][101CH:1]3CCNC3CCNCC[100NH:0][100C:0](=O)N3CCCC(n4nc(-c5ccc(Oc6ccc(F)cc6F)cc5)c(C(N)=O)c4N)C3)ccc2CC1C(=O)NC1CCCc2ccccc21)C(C)(C)C

> <Shape>
0.185

> <Color>
0.152

> <Negative vol penalty>
0.000

$$$$

  -OEChem-04052320552D

  0  0  0     0  0  0  0  0  0999 V2000
M  END
$$$$

  -OEChem-04052320553D

 86 94  0     1  0  0  0  0  0999 V2000
  -21.5975  -34.8790   21.2464 C   0  0  0  0  0  0  0  0  0  0  0  0
  -22.5781  -33.9725   20.8563 C   0  0  0  0  0  0  0  0  0  0  0  0
  -22.9110  -10.1274   19.9584 C   0  0  0  0  0  0  0  0  0  0  0  0
  -23.8482   -9.8141   22.1630 C   0  0  0  0  0  0  0  0  0  0  0  0
  -20.7191  -34.5527   22.2787 C   0  0  0  0  0  0  0  0  0  0  0  0
  -22.6814  -32.7394   21.4992 C   0  0  0  0  0  0  0  0  0  0  0  0
  -24.3082  -27.3994   18.9806 C   0  0  0  0  0  0  0  0  0  0  0  0
  -29.8711  -19.9675   19.9131 C   0  0  0  0  0  0  0  0  0  0  0  0
  -22.1104   -8.9995   20.1384 C   0  0  0  0  0  0  0  0  0  0  0  0
  -23.0475   -8.6862   22.3431 C   0  0  0  0  0  0  0  0  0  0  0  0
  -25.5181  -26.7073   18.9487 C   0  0  0  0  0  0  0  0  0  0  0  0
  -29.3359  -21.0850   19.2725 C   0  0  0  0  0  0  0  0  0  0  0  0
  -23.0605   -5.4434   21.3867 C   0  0  0  0  0  0  0  0  0  0  0  0
  -23.6576   -4.3043   21.9268 C   0  0  0  0  0  0  0  0  0  0  0  0
  -27.6997  -19.4606   20.8431 C   0  0  0  0  0  0  0  0  0  0  0  0
  -24.8078  -25.3906   20.8411 C   0  0  0  0  0  0  0  0  0  0  0  0
  -22.1125   -4.3745   23.7829 C   0  0  0  0  0  0  0  0  0  0  0  0
  -23.7799  -10.5347   20.9707 C   0  0  0  0  0  0  0  0  0  0  0  0
  -27.1645  -20.5782   20.2026 C   0  0  0  0  0  0  0  0  0  0  0  0
  -24.2869  -13.0309   21.1108 C   0  0  0  0  0  0  0  0  0  0  0  0
  -20.8055  -33.3111   22.9281 C   0  0  0  0  0  0  0  0  0  0  0  0
  -23.3419  -27.0992   19.9514 C   0  0  0  0  0  0  0  0  0  0  0  0
  -21.8041  -32.3967   22.5421 C   0  0  0  0  0  0  0  0  0  0  0  0
  -23.5854  -26.0786   20.8815 C   0  0  0  0  0  0  0  0  0  0  0  0
  -29.0530  -19.1552   20.6984 C   0  0  0  0  0  0  0  0  0  0  0  0
  -22.1786   -8.2789   21.3307 C   0  0  0  0  0  0  0  0  0  0  0  0
  -25.7692  -25.7047   19.8808 C   0  0  0  0  0  0  0  0  0  0  0  0
  -27.9826  -21.3904   19.4173 C   0  0  0  0  0  0  0  0  0  0  0  0
  -21.9895   -6.0480   22.0447 C   0  0  0  0  0  0  0  0  0  0  0  0
  -23.1836   -3.7699   23.1249 C   0  0  0  0  0  0  0  0  0  0  0  0
  -21.5155   -5.5136   23.2428 C   0  0  0  0  0  0  0  0  0  0  0  0
  -24.6076  -11.6994   20.7850 C   0  0  0  0  0  0  0  0  0  0  0  0
  -25.3967  -13.7514   20.7423 C   0  0  0  0  0  0  0  0  0  0  0  0
  -25.7487  -20.8785   20.3654 C   0  0  0  0  0  0  0  0  0  0  0  0
  -23.0927  -13.5684   21.6944 C   0  0  0  0  0  0  0  0  0  0  0  0
  -21.9645  -28.7119   22.3190 C   0  0  0  0  0  0  0  0  0  0  0  0
  -20.1537  -26.0323   22.5696 C   0  0  0  0  0  0  0  0  0  0  0  0
  -19.8476  -22.6797   22.0099 C   0  0  0  0  0  0  0  0  0  0  0  0
  -30.9360  -14.4087   20.5703 C   0  0  0  0  0  0  0  0  0  0  0  0
  -19.8639  -33.0222   24.0703 C   0  0  0  0  0  0  0  0  0  0  0  0
  -22.0310  -27.8368   19.9556 C   0  0  0  0  0  0  0  0  0  0  0  0
  -22.5725  -25.7042   21.9314 C   0  0  0  0  0  0  0  0  0  0  0  0
  -19.8006  -31.5446   24.4486 C   0  0  0  0  0  0  0  0  0  0  0  0
  -29.4496  -12.3998   18.0342 C   0  0  0  0  0  0  0  0  0  0  0  0
  -21.2052  -30.9579   24.5464 C   0  0  0  0  0  0  0  0  0  0  0  0
  -28.0338  -12.1434   18.5536 C   0  0  0  0  0  0  0  0  0  0  0  0
  -30.4719  -12.4197   19.1685 C   0  0  0  0  0  0  0  0  0  0  0  0
  -28.7413  -13.0927   20.7890 C   0  0  0  0  0  0  0  0  0  0  0  0
  -21.9321  -31.0392   23.1986 C   0  0  1  0  0  0  0  0  0  0  0  0
  -21.3285  -27.7989   21.3093 C   0  0  1  0  0  0  0  0  0  0  0  0
  -27.6674  -13.1192   19.6880 C   0  0  2  0  0  0  0  0  0  0  0  0
  -24.8179  -19.7231   20.5874 C   0  0  0  0  0  0  0  0  0  0  0  0
  -18.2689  -20.7604   22.3587 C   0  0  0  0  0  0  0  0  0  0  0  0
  -20.9211  -25.9406   25.5213 C   0  0  0  0  0  0  0  0  0  0  0  0
  -20.1338  -23.5647   25.5804 C   0  0  0  0  0  0  0  0  0  0  0  0
  -18.5263  -25.3965   25.0486 C   0  0  0  0  0  0  0  0  0  0  0  0
  -19.6193  -22.1876   19.1005 C   0  0  0  0  0  0  0  0  0  0  0  0
  -30.9715  -17.6545   21.2394 C   0  0  0  0  0  0  0  0  0  0  0  0
  -31.2495  -16.3879   22.0344 C   0  0  0  0  0  0  0  0  0  0  0  0
  -27.5801  -24.8752   18.5814 C   0  0  0  0  0  0  0  0  0  1  0  0
  -28.3681  -23.5796   18.5722 C   0  0  0  0  0  0  0  0  0  0  0  0
  -20.2634  -24.7355   23.3347 C   0  0  1  0  0  0  0  0  0  0  0  0
  -18.7222  -21.8575   21.4081 C   0  0  2  0  0  0  0  0  0  0  0  0
  -19.9812  -24.9175   24.8528 C   0  0  0  0  0  0  0  0  0  0  0  0
  -25.8257  -11.5784   20.2506 N   0  0  0  0  0  0  0  0  0  0  0  0
  -26.2801  -12.8431   20.2376 N   0  0  0  0  0  0  0  0  0  0  0  0
  -21.3086  -26.4585   21.8984 N   0  0  0  0  0  0  0  0  0  0  0  0
  -30.0662  -13.3661   20.2105 N   0  0  0  0  0  0  0  0  0  0  0  0
  -25.6933  -15.0669   20.8040 N   0  0  0  0  0  0  0  0  0  0  0  0
  -22.0494  -12.6879   22.0119 N   0  0  0  0  0  0  0  0  0  0  0  0
  -29.5942  -18.0250   21.3455 N   0  0  0  0  0  0  0  0  0  0  0  0
  -21.4630  -29.9995   22.3079 N   0  0  0  0  0  0  0  0  0  0  0  0
  -19.3706  -23.7925   22.6698 N   0  0  0  0  0  0  0  0  0  0  0  0
  -30.4716  -15.2645   21.5616 N   0  0  0  0  0  0  0  0  0  0  0  0
  -19.1679  -21.2225   20.1357 N   0  3  0  0  0  0  0  0  0  0  0  0
  -25.2596  -22.0083   20.3295 O   0  0  0  0  0  0  0  0  0  0  0  0
  -22.9483  -14.7952   21.9122 O   0  0  0  0  0  0  0  0  0  0  0  0
  -22.8440  -28.2798   23.0548 O   0  0  0  0  0  0  0  0  0  0  0  0
  -19.0807  -26.6408   22.5616 O   0  0  0  0  0  0  0  0  0  0  0  0
  -21.0310  -22.3641   21.9082 O   0  0  0  0  0  0  0  0  0  0  0  0
  -32.0421  -14.5686   20.0430 O   0  0  0  0  0  0  0  0  0  0  0  0
  -21.3973   -7.1784   21.5069 O   0  0  0  0  0  0  0  0  0  0  0  0
  -26.9495  -25.0280   19.8524 O   0  0  0  0  0  0  0  0  0  1  0  0
  -27.4756  -22.4915   18.7789 O   0  0  0  0  0  0  0  0  0  0  0  0
  -23.7561   -2.6752   23.6426 F   0  0  0  0  0  0  0  0  0  0  0  0
  -20.4861   -6.0894   23.8789 F   0  0  0  0  0  0  0  0  0  0  0  0
  1  2  1  0  0  0  0
  1  5  2  0  0  0  0
  2  6  2  0  0  0  0
  3  9  2  0  0  0  0
  3 18  1  0  0  0  0
  4 10  1  0  0  0  0
  4 18  2  0  0  0  0
  5 21  1  0  0  0  0
  6 23  1  0  0  0  0
  7 11  2  0  0  0  0
  7 22  1  0  0  0  0
  8 12  2  0  0  0  0
  8 25  1  0  0  0  0
  9 26  1  0  0  0  0
 10 26  2  0  0  0  0
 11 27  1  0  0  0  0
 12 28  1  0  0  0  0
 13 14  2  0  0  0  0
 13 29  1  0  0  0  0
 14 30  1  0  0  0  0
 15 19  1  0  0  0  0
 15 25  2  0  0  0  0
 16 24  1  0  0  0  0
 16 27  2  0  0  0  0
 17 30  2  0  0  0  0
 17 31  1  0  0  0  0
 18 32  1  0  0  0  0
 19 28  2  0  0  0  0
 19 34  1  0  0  0  0
 20 32  1  0  0  0  0
 20 33  2  0  0  0  0
 20 35  1  0  0  0  0
 21 23  2  0  0  0  0
 21 40  1  0  0  0  0
 22 24  2  0  0  0  0
 22 41  1  0  0  0  0
 23 49  1  0  0  0  0
 24 42  1  0  0  0  0
 25 71  1  0  0  0  0
 26 82  1  0  0  0  0
 27 83  1  0  0  0  0
 28 84  1  0  0  0  0
 29 31  2  0  0  0  0
 29 82  1  0  0  0  0
 30 85  1  0  0  0  0
 31 86  1  0  0  0  0
 32 65  2  0  0  0  0
 33 66  1  0  0  0  0
 33 69  1  0  0  0  0
 34 52  1  0  0  0  0
 34 76  2  0  0  0  0
 35 70  1  0  0  0  0
 35 77  2  0  0  0  0
 36 50  1  0  0  0  0
 36 72  1  0  0  0  0
 36 78  2  0  0  0  0
 37 62  1  0  0  0  0
 37 67  1  0  0  0  0
 37 79  2  0  0  0  0
 38 63  1  0  0  0  0
 38 73  1  0  0  0  0
 38 80  2  0  0  0  0
 39 68  1  0  0  0  0
 39 74  1  0  0  0  0
 39 81  2  0  0  0  0
 40 43  1  0  0  0  0
 41 50  1  0  0  0  0
 42 67  1  0  0  0  0
 43 45  1  0  0  0  0
 44 46  1  0  0  0  0
 44 47  1  0  0  0  0
 45 49  1  0  0  0  0
 46 51  1  0  0  0  0
 47 68  1  0  0  0  0
 48 51  1  0  0  0  0
 48 68  1  0  0  0  0
 49 72  1  0  0  0  0
 50 67  1  0  0  0  0
 51 66  1  0  0  0  0
 53 63  1  0  0  0  0
 54 64  1  0  0  0  0
 55 64  1  0  0  0  0
 56 64  1  0  0  0  0
 57 75  1  0  0  0  0
 58 59  1  0  0  0  0
 58 71  1  0  0  0  0
 59 74  1  0  0  0  0
 60 61  1  0  0  0  0
 60 83  1  0  0  0  0
 61 84  1  0  0  0  0
 62 64  1  0  0  0  0
 62 73  1  0  0  0  0
 63 75  1  0  0  0  0
 65 66  1  0  0  0  0
M  CHG  1  75   1
M  ISO  4  39 100  60 101  74 100  83 101
M  END
> <Batch ID>
0133

> <Smiles>
CNC(C)C(=O)NC(C(=O)N1Cc2cc([101O:1][101CH2:1]COc3ccc(NCC[100NH:0][100C:0](=O)N4CCCC(n5nc(-c6ccc(Oc7ccc(F)cc7F)cc6)c(C(N)=O)c5N)C4)cc3C(C)=O)ccc2CC1C(=O)NC1CCCc2ccccc21)C(C)(C)C

> <Shape>
0.303

> <Color>
0.203

> <Negative vol penalty>
0.000

$$$$

  -OEChem-04052320553D

 84 92  0     1  0  0  0  0  0999 V2000
  -27.3258  -27.5541    9.8025 C   0  0  0  0  0  0  0  0  0  0  0  0
  -27.5384  -26.9080   11.0161 C   0  0  0  0  0  0  0  0  0  0  0  0
  -23.1664   -9.8008   19.8619 C   0  0  0  0  0  0  0  0  0  0  0  0
  -23.8621   -9.7840   22.1755 C   0  0  0  0  0  0  0  0  0  0  0  0
  -27.2742  -28.9466    9.7551 C   0  0  0  0  0  0  0  0  0  0  0  0
  -27.7007  -27.6542   12.1829 C   0  0  0  0  0  0  0  0  0  0  0  0
  -25.0424  -25.7877   16.0680 C   0  0  0  0  0  0  0  0  0  0  0  0
  -26.3478  -20.5764   19.5667 C   0  0  0  0  0  0  0  0  0  0  0  0
  -22.4612   -8.6147   20.0653 C   0  0  0  0  0  0  0  0  0  0  0  0
  -23.1569   -8.5978   22.3789 C   0  0  0  0  0  0  0  0  0  0  0  0
  -25.5645  -24.6705   16.7184 C   0  0  0  0  0  0  0  0  0  0  0  0
  -23.5917   -5.3031   21.7572 C   0  0  0  0  0  0  0  0  0  0  0  0
  -24.2265   -4.2858   22.4697 C   0  0  0  0  0  0  0  0  0  0  0  0
  -26.9159  -19.5887   20.3636 C   0  0  0  0  0  0  0  0  0  0  0  0
  -26.4185  -26.0954   18.4676 C   0  0  0  0  0  0  0  0  0  0  0  0
  -22.4734   -4.3549   24.1306 C   0  0  0  0  0  0  0  0  0  0  0  0
  -23.8669  -10.3855   20.9170 C   0  0  0  0  0  0  0  0  0  0  0  0
  -24.1136  -12.9239   20.8622 C   0  0  0  0  0  0  0  0  0  0  0  0
  -27.4263  -29.7099   10.9234 C   0  0  0  0  0  0  0  0  0  0  0  0
  -25.2142  -27.0704   16.6078 C   0  0  0  0  0  0  0  0  0  0  0  0
  -27.6525  -29.0582   12.1508 C   0  0  0  0  0  0  0  0  0  0  0  0
  -25.8955  -27.2269   17.8234 C   0  0  0  0  0  0  0  0  0  0  0  0
  -27.1654  -21.3980   18.7987 C   0  0  0  0  0  0  0  0  0  0  0  0
  -22.4564   -8.0132   21.3238 C   0  0  0  0  0  0  0  0  0  0  0  0
  -26.2552  -24.8245   17.9169 C   0  0  0  0  0  0  0  0  0  0  0  0
  -22.3977   -5.8464   22.2315 C   0  0  0  0  0  0  0  0  0  0  0  0
  -23.6674   -3.8116   23.6563 C   0  0  0  0  0  0  0  0  0  0  0  0
  -21.8385   -5.3723   23.4182 C   0  0  0  0  0  0  0  0  0  0  0  0
  -24.5960  -11.6105   20.7074 C   0  0  0  0  0  0  0  0  0  0  0  0
  -28.5342  -21.1928   18.8624 C   0  0  0  0  0  0  0  0  0  0  0  0
  -28.2958  -19.4644   20.3570 C   0  0  0  0  0  0  0  0  0  0  0  0
  -25.1855  -13.7227   20.5466 C   0  0  0  0  0  0  0  0  0  0  0  0
  -22.8131  -13.3811   21.2561 C   0  0  0  0  0  0  0  0  0  0  0  0
  -26.6495  -29.7369   15.6417 C   0  0  0  0  0  0  0  0  0  0  0  0
  -25.2976  -30.9719   18.3193 C   0  0  0  0  0  0  0  0  0  0  0  0
  -24.0149  -30.4245   21.4341 C   0  0  0  0  0  0  0  0  0  0  0  0
  -30.6183  -14.9458   20.9128 C   0  0  0  0  0  0  0  0  0  0  0  0
  -27.4101  -31.2141   10.8150 C   0  0  0  0  0  0  0  0  0  0  0  0
  -24.6218  -28.2626   15.9076 C   0  0  0  0  0  0  0  0  0  0  0  0
  -26.0895  -28.5804   18.4551 C   0  0  0  0  0  0  0  0  0  0  0  0
  -27.2177  -31.9193   12.1551 C   0  0  0  0  0  0  0  0  0  0  0  0
  -29.6401  -12.5752   18.4429 C   0  0  0  0  0  0  0  0  0  0  0  0
  -28.1336  -31.3131   13.2137 C   0  0  0  0  0  0  0  0  0  0  0  0
  -28.2038  -12.2169   18.8283 C   0  0  0  0  0  0  0  0  0  0  0  0
  -30.5146  -12.8031   19.6739 C   0  0  0  0  0  0  0  0  0  0  0  0
  -28.5485  -13.4289   21.0217 C   0  0  0  0  0  0  0  0  0  0  0  0
  -27.8083  -29.8320   13.4420 C   0  0  1  0  0  0  0  0  0  0  0  0
  -25.3011  -29.5755   16.2847 C   0  0  1  0  0  0  0  0  0  0  0  0
  -27.6146  -13.2445   19.8134 C   0  0  2  0  0  0  0  0  0  0  0  0
  -30.2644  -21.2304   17.0297 C   0  0  0  0  0  0  0  0  0  0  0  0
  -30.4200  -22.8636   18.9438 C   0  0  0  0  0  0  0  0  0  0  0  0
  -23.0229  -31.6338   23.3964 C   0  0  0  0  0  0  0  0  0  0  0  0
  -28.0772  -31.9373   19.1265 C   0  0  0  0  0  0  0  0  0  0  0  0
  -27.2107  -32.2684   21.4519 C   0  0  0  0  0  0  0  0  0  0  0  0
  -26.2372  -33.5739   19.5623 C   0  0  0  0  0  0  0  0  0  0  0  0
  -21.4588  -28.9517   21.1973 C   0  0  0  0  0  0  0  0  0  0  0  0
  -26.5580  -22.4657   17.9371 C   0  0  0  0  0  0  0  0  0  1  0  0
  -30.2652  -18.2233   21.2553 C   0  0  0  0  0  0  0  0  0  0  0  0
  -30.5666  -17.0682   22.1980 C   0  0  0  0  0  0  0  0  0  0  0  0
  -29.4612  -22.0457   18.0594 C   0  0  0  0  0  0  0  0  0  0  0  0
  -25.7165  -31.1080   19.7632 C   0  0  1  0  0  0  0  0  0  0  0  0
  -22.7344  -30.9027   22.0944 C   0  0  2  0  0  0  0  0  0  0  0  0
  -26.8086  -32.1965   19.9634 C   0  0  0  0  0  0  0  0  0  0  0  0
  -25.8746  -11.5727   20.3232 N   0  0  0  0  0  0  0  0  0  0  0  0
  -29.1226  -20.2438   19.6245 N   0  0  0  0  0  0  0  0  0  0  0  0
  -26.2048  -12.8723   20.2338 N   0  0  0  0  0  0  0  0  0  0  0  0
  -25.4973  -29.7159   17.7290 N   0  0  0  0  0  0  0  0  0  0  0  0
  -29.9004  -13.7892   20.5663 N   0  0  0  0  0  0  0  0  0  0  0  0
  -25.3460  -15.0626   20.5089 N   0  0  0  0  0  0  0  0  0  0  0  0
  -21.8283  -12.4264   21.5445 N   0  0  0  0  0  0  0  0  0  0  0  0
  -28.8596  -18.4530   21.1740 N   0  0  0  0  0  0  0  0  0  0  0  0
  -26.6229  -29.6953   14.2608 N   0  0  0  0  0  0  0  0  0  0  0  0
  -24.4932  -31.3422   20.5228 N   0  0  0  0  0  0  0  0  0  0  0  0
  -29.9606  -15.8314   21.7577 N   0  0  0  0  0  0  0  0  0  0  0  0
  -21.8422  -29.7468   22.3922 N   0  3  0  0  0  0  0  0  0  0  0  0
  -22.5277  -14.6001   21.3338 O   0  0  0  0  0  0  0  0  0  0  0  0
  -27.6405  -29.8895   16.3462 O   0  0  0  0  0  0  0  0  0  0  0  0
  -24.8045  -31.9422   17.7386 O   0  0  0  0  0  0  0  0  0  0  0  0
  -24.5405  -29.3464   21.7026 O   0  0  0  0  0  0  0  0  0  0  0  0
  -31.7586  -15.1749   20.4956 O   0  0  0  0  0  0  0  0  0  0  0  0
  -21.7682   -6.8559   21.5226 O   0  0  0  0  0  0  0  0  0  0  0  0
  -26.7664  -23.7358   18.5535 O   0  0  0  0  0  0  0  0  0  1  0  0
  -24.2763   -2.8336   24.3396 F   0  0  0  0  0  0  0  0  0  0  0  0
  -20.6911   -5.8896   23.8782 F   0  0  0  0  0  0  0  0  0  0  0  0
  1  2  1  0  0  0  0
  1  5  2  0  0  0  0
  2  6  2  0  0  0  0
  3  9  2  0  0  0  0
  3 17  1  0  0  0  0
  4 10  1  0  0  0  0
  4 17  2  0  0  0  0
  5 19  1  0  0  0  0
  6 21  1  0  0  0  0
  7 11  2  0  0  0  0
  7 20  1  0  0  0  0
  8 14  2  0  0  0  0
  8 23  1  0  0  0  0
  9 24  1  0  0  0  0
 10 24  2  0  0  0  0
 11 25  1  0  0  0  0
 12 13  2  0  0  0  0
 12 26  1  0  0  0  0
 13 27  1  0  0  0  0
 14 31  1  0  0  0  0
 15 22  1  0  0  0  0
 15 25  2  0  0  0  0
 16 27  2  0  0  0  0
 16 28  1  0  0  0  0
 17 29  1  0  0  0  0
 18 29  1  0  0  0  0
 18 32  2  0  0  0  0
 18 33  1  0  0  0  0
 19 21  2  0  0  0  0
 19 38  1  0  0  0  0
 20 22  2  0  0  0  0
 20 39  1  0  0  0  0
 21 47  1  0  0  0  0
 22 40  1  0  0  0  0
 23 30  2  0  0  0  0
 23 57  1  0  0  0  0
 24 81  1  0  0  0  0
 25 82  1  0  0  0  0
 26 28  2  0  0  0  0
 26 81  1  0  0  0  0
 27 83  1  0  0  0  0
 28 84  1  0  0  0  0
 29 64  2  0  0  0  0
 30 60  1  0  0  0  0
 30 65  1  0  0  0  0
 31 65  2  0  0  0  0
 31 71  1  0  0  0  0
 32 66  1  0  0  0  0
 32 69  1  0  0  0  0
 33 70  1  0  0  0  0
 33 76  2  0  0  0  0
 34 48  1  0  0  0  0
 34 72  1  0  0  0  0
 34 77  2  0  0  0  0
 35 61  1  0  0  0  0
 35 67  1  0  0  0  0
 35 78  2  0  0  0  0
 36 62  1  0  0  0  0
 36 73  1  0  0  0  0
 36 79  2  0  0  0  0
 37 68  1  0  0  0  0
 37 74  1  0  0  0  0
 37 80  2  0  0  0  0
 38 41  1  0  0  0  0
 39 48  1  0  0  0  0
 40 67  1  0  0  0  0
 41 43  1  0  0  0  0
 42 44  1  0  0  0  0
 42 45  1  0  0  0  0
 43 47  1  0  0  0  0
 44 49  1  0  0  0  0
 45 68  1  0  0  0  0
 46 49  1  0  0  0  0
 46 68  1  0  0  0  0
 47 72  1  0  0  0  0
 48 67  1  0  0  0  0
 49 66  1  0  0  0  0
 50 60  1  0  0  0  0
 51 60  1  0  0  0  0
 52 62  1  0  0  0  0
 53 63  1  0  0  0  0
 54 63  1  0  0  0  0
 55 63  1  0  0  0  0
 56 75  1  0  0  0  0
 57 82  1  0  0  0  0
 58 59  1  0  0  0  0
 58 71  1  0  0  0  0
 59 74  1  0  0  0  0
 61 63  1  0  0  0  0
 61 73  1  0  0  0  0
 62 75  1  0  0  0  0
 64 66  1  0  0  0  0
M  CHG  1  75   1
M  ISO  4  37 100  57 101  74 100  82 101
M  END
> <Batch ID>
0133

> <Smiles>
CNC(C)C(=O)NC(C(=O)N1Cc2cc([101O:1][101CH2:1]c3ccc(NCC[100NH:0][100C:0](=O)N4CCCC(n5nc(-c6ccc(Oc7ccc(F)cc7F)cc6)c(C(N)=O)c5N)C4)nc3C(C)C)ccc2CC1C(=O)NC1CCCc2ccccc21)C(C)(C)C

> <Shape>
0.275

> <Color>
0.220

> <Negative vol penalty>
0.000

$$$$

  -OEChem-04052320553D

 83 91  0     1  0  0  0  0  0999 V2000
  -21.7297  -30.9159   14.3543 C   0  0  0  0  0  0  0  0  0  0  0  0
  -22.9165  -30.4752   14.9310 C   0  0  0  0  0  0  0  0  0  0  0  0
  -25.5829  -12.4160   19.4522 C   0  0  0  0  0  0  0  0  0  0  0  0
  -26.3610  -11.3614   21.4818 C   0  0  0  0  0  0  0  0  0  0  0  0
  -21.0494  -32.0013   14.9047 C   0  0  0  0  0  0  0  0  0  0  0  0
  -23.4243  -31.1204   16.0581 C   0  0  0  0  0  0  0  0  0  0  0  0
  -25.0060  -27.8735   19.6078 C   0  0  0  0  0  0  0  0  0  0  0  0
  -24.2642  -12.2758   19.8849 C   0  0  0  0  0  0  0  0  0  0  0  0
  -25.0423  -11.2212   21.9145 C   0  0  0  0  0  0  0  0  0  0  0  0
  -26.2441  -27.2645   19.4075 C   0  0  0  0  0  0  0  0  0  0  0  0
  -22.4288   -9.1620   21.3142 C   0  0  0  0  0  0  0  0  0  0  0  0
  -22.0525   -7.9343   21.8587 C   0  0  0  0  0  0  0  0  0  0  0  0
  -27.2588  -28.8423   20.9241 C   0  0  0  0  0  0  0  0  0  0  0  0
  -21.4864   -9.0293   23.9366 C   0  0  0  0  0  0  0  0  0  0  0  0
  -26.6312  -11.9587   20.2507 C   0  0  0  0  0  0  0  0  0  0  0  0
  -28.5670  -11.5635   18.6369 C   0  0  0  0  0  0  0  0  0  0  0  0
  -21.5441  -32.6541   16.0448 C   0  0  0  0  0  0  0  0  0  0  0  0
  -24.8869  -28.9801   20.4608 C   0  0  0  0  0  0  0  0  0  0  0  0
  -22.7507  -32.2165   16.6235 C   0  0  0  0  0  0  0  0  0  0  0  0
  -26.0177  -29.4619   21.1356 C   0  0  0  0  0  0  0  0  0  0  0  0
  -23.9940  -11.6785   21.1160 C   0  0  0  0  0  0  0  0  0  0  0  0
  -27.3712  -27.7507   20.0634 C   0  0  0  0  0  0  0  0  0  0  0  0
  -22.3341  -10.3235   22.0809 C   0  0  0  0  0  0  0  0  0  0  0  0
  -21.5812   -7.8679   23.1699 C   0  0  0  0  0  0  0  0  0  0  0  0
  -21.8628  -10.2571   23.3921 C   0  0  0  0  0  0  0  0  0  0  0  0
  -27.9935  -12.1027   19.8040 C   0  0  0  0  0  0  0  0  0  0  0  0
  -29.8739  -11.9847   18.6702 C   0  0  0  0  0  0  0  0  0  0  0  0
  -27.9715  -10.7543   17.6139 C   0  0  0  0  0  0  0  0  0  0  0  0
  -24.0104  -32.0131   20.0912 C   0  0  0  0  0  0  0  0  0  0  0  0
  -30.7713  -19.4861   19.8510 C   0  0  0  0  0  0  0  0  0  0  0  0
  -24.2884  -32.0803   23.3224 C   0  0  0  0  0  0  0  0  0  0  0  0
  -25.6765  -30.7443   26.1393 C   0  0  0  0  0  0  0  0  0  0  0  0
  -32.5901  -16.6471   21.2654 C   0  0  0  0  0  0  0  0  0  0  0  0
  -20.7985  -33.8527   16.5759 C   0  0  0  0  0  0  0  0  0  0  0  0
  -23.5394  -29.6091   20.6870 C   0  0  0  0  0  0  0  0  0  0  0  0
  -25.9393  -30.6346   22.0775 C   0  0  0  0  0  0  0  0  0  0  0  0
  -21.2077  -34.2457   17.9931 C   0  0  0  0  0  0  0  0  0  0  0  0
  -33.3396  -13.1985   21.7372 C   0  0  0  0  0  0  0  0  0  0  0  0
  -22.7273  -34.2641   18.1243 C   0  0  0  0  0  0  0  0  0  0  0  0
  -32.1062  -12.4780   21.1899 C   0  0  0  0  0  0  0  0  0  0  0  0
  -30.1164  -23.8052   19.1419 C   0  0  0  0  0  0  0  0  0  0  0  0
  -28.0068  -23.4885   20.5094 C   0  0  0  0  0  0  0  0  0  0  0  0
  -30.0239  -25.3142   19.3547 C   0  0  0  0  0  0  0  0  0  0  0  0
  -27.9191  -24.9984   20.7185 C   0  0  0  0  0  0  0  0  0  0  0  0
  -32.9660  -14.5002   22.4429 C   0  0  0  0  0  0  0  0  0  0  0  0
  -30.9154  -14.7076   21.0915 C   0  0  0  0  0  0  0  0  0  0  0  0
  -23.3206  -32.8748   17.8613 C   0  0  1  0  0  0  0  0  0  0  0  0
  -23.6278  -31.0503   21.1794 C   0  0  1  0  0  0  0  0  0  0  0  0
  -31.2469  -13.4173   20.3224 C   0  0  2  0  0  0  0  0  0  0  0  0
  -29.4549  -23.0532   20.2950 C   0  0  0  0  0  0  0  0  0  0  0  0
  -28.5808  -25.7660   19.5737 C   0  0  0  0  0  0  0  0  0  1  0  0
  -32.8797  -18.7541   18.7258 C   0  0  0  0  0  0  0  0  0  0  0  0
  -25.7446  -31.0362   28.6308 C   0  0  0  0  0  0  0  0  0  0  0  0
  -26.1407  -34.4818   22.9879 C   0  0  0  0  0  0  0  0  0  0  0  0
  -26.9070  -34.1309   25.3454 C   0  0  0  0  0  0  0  0  0  0  0  0
  -24.5168  -34.6725   24.8803 C   0  0  0  0  0  0  0  0  0  0  0  0
  -24.5513  -28.0465   26.6026 C   0  0  0  0  0  0  0  0  0  0  0  0
  -30.7993  -20.9492   20.2280 C   0  0  0  0  0  0  0  0  0  0  0  0
  -32.0819  -18.7305   20.0165 C   0  0  2  0  0  0  0  0  0  0  0  0
  -25.4050  -32.3793   24.2933 C   0  0  1  0  0  0  0  0  0  0  0  0
  -25.0645  -30.3332   27.4663 C   0  0  2  0  0  0  0  0  0  0  0  0
  -25.7446  -33.8952   24.3576 C   0  0  0  0  0  0  0  0  0  0  0  0
  -28.8648  -12.8121   20.5263 N   0  0  0  0  0  0  0  0  0  0  0  0
  -29.9990  -12.7215   19.8111 N   0  0  0  0  0  0  0  0  0  0  0  0
  -24.6007  -31.2195   22.2607 N   0  0  0  0  0  0  0  0  0  0  0  0
  -32.1531  -15.3463   21.5657 N   0  0  0  0  0  0  0  0  0  0  0  0
  -30.9167  -11.7929   17.8347 N   0  0  0  0  0  0  0  0  0  0  0  0
  -26.6175  -10.4135   17.7352 N   0  0  0  0  0  0  0  0  0  0  0  0
  -23.1417  -32.0218   19.0166 N   0  0  0  0  0  0  0  0  0  0  0  0
  -25.0002  -31.8030   25.5710 N   0  0  0  0  0  0  0  0  0  0  0  0
  -31.7639  -17.3795   20.4218 N   0  0  0  0  0  0  0  0  0  0  0  0
  -29.4806  -21.5965   19.9974 N   0  3  0  0  0  0  0  0  0  0  0  0
  -25.1960  -28.8620   27.6638 N   0  3  0  0  0  0  0  0  0  0  0  0
  -28.6251  -10.3319   16.6301 O   0  0  0  0  0  0  0  0  0  0  0  0
  -25.0183  -32.6985   20.2177 O   0  0  0  0  0  0  0  0  0  0  0  0
  -29.7612  -18.9457   19.3997 O   0  0  0  0  0  0  0  0  0  0  0  0
  -23.1780  -32.5861   23.5034 O   0  0  0  0  0  0  0  0  0  0  0  0
  -26.6588  -30.1847   25.6570 O   0  0  0  0  0  0  0  0  0  0  0  0
  -33.6416  -17.1187   21.7115 O   0  0  0  0  0  0  0  0  0  0  0  0
  -22.7074  -11.5418   21.5386 O   0  0  0  0  0  0  0  0  0  0  0  0
  -28.5810  -27.1586   19.8691 O   0  0  0  0  0  0  0  0  0  1  0  0
  -21.2184   -6.6890   23.6922 F   0  0  0  0  0  0  0  0  0  0  0  0
  -21.7684  -11.3697   24.1331 F   0  0  0  0  0  0  0  0  0  0  0  0
  1  2  1  0  0  0  0
  1  5  2  0  0  0  0
  2  6  2  0  0  0  0
  3  8  2  0  0  0  0
  3 15  1  0  0  0  0
  4  9  1  0  0  0  0
  4 15  2  0  0  0  0
  5 17  1  0  0  0  0
  6 19  1  0  0  0  0
  7 10  2  0  0  0  0
  7 18  1  0  0  0  0
  8 21  1  0  0  0  0
  9 21  2  0  0  0  0
 10 22  1  0  0  0  0
 11 12  2  0  0  0  0
 11 23  1  0  0  0  0
 12 24  1  0  0  0  0
 13 20  1  0  0  0  0
 13 22  2  0  0  0  0
 14 24  2  0  0  0  0
 14 25  1  0  0  0  0
 15 26  1  0  0  0  0
 16 26  1  0  0  0  0
 16 27  2  0  0  0  0
 16 28  1  0  0  0  0
 17 19  2  0  0  0  0
 17 34  1  0  0  0  0
 18 20  2  0  0  0  0
 18 35  1  0  0  0  0
 19 47  1  0  0  0  0
 20 36  1  0  0  0  0
 21 80  1  0  0  0  0
 22 81  1  0  0  0  0
 23 25  2  0  0  0  0
 23 80  1  0  0  0  0
 24 82  1  0  0  0  0
 25 83  1  0  0  0  0
 26 63  2  0  0  0  0
 27 64  1  0  0  0  0
 27 67  1  0  0  0  0
 28 68  1  0  0  0  0
 28 74  2  0  0  0  0
 29 48  1  0  0  0  0
 29 69  1  0  0  0  0
 29 75  2  0  0  0  0
 30 58  1  0  0  0  0
 30 59  1  0  0  0  0
 30 76  2  0  0  0  0
 31 60  1  0  0  0  0
 31 65  1  0  0  0  0
 31 77  2  0  0  0  0
 32 61  1  0  0  0  0
 32 70  1  0  0  0  0
 32 78  2  0  0  0  0
 33 66  1  0  0  0  0
 33 71  1  0  0  0  0
 33 79  2  0  0  0  0
 34 37  1  0  0  0  0
 35 48  1  0  0  0  0
 36 65  1  0  0  0  0
 37 39  1  0  0  0  0
 38 40  1  0  0  0  0
 38 45  1  0  0  0  0
 39 47  1  0  0  0  0
 40 49  1  0  0  0  0
 41 43  1  0  0  0  0
 41 50  1  0  0  0  0
 42 44  1  0  0  0  0
 42 50  1  0  0  0  0
 43 51  1  0  0  0  0
 44 51  1  0  0  0  0
 45 66  1  0  0  0  0
 46 49  1  0  0  0  0
 46 66  1  0  0  0  0
 47 69  1  0  0  0  0
 48 65  1  0  0  0  0
 49 64  1  0  0  0  0
 50 72  1  0  0  0  0
 51 81  1  0  0  0  0
 52 59  1  0  0  0  0
 53 61  1  0  0  0  0
 54 62  1  0  0  0  0
 55 62  1  0  0  0  0
 56 62  1  0  0  0  0
 57 73  1  0  0  0  0
 58 72  1  0  0  0  0
 59 71  1  0  0  0  0
 60 62  1  0  0  0  0
 60 70  1  0  0  0  0
 61 73  1  0  0  0  0
 63 64  1  0  0  0  0
M  CHG  2  72   1  73   1
M  ISO  4  33 100  51 101  71 100  81 101
M  END
> <Batch ID>
0133

> <Smiles>
CNC(C)C(=O)NC(C(=O)N1Cc2cc([101O:1][101CH:1]3CCC(NCC(=O)C(C)[100NH:0][100C:0](=O)N4CCCC(n5nc(-c6ccc(Oc7ccc(F)cc7F)cc6)c(C(N)=O)c5N)C4)CC3)ccc2CC1C(=O)NC1CCCc2ccccc21)C(C)(C)C

> <Shape>
0.308

> <Color>
0.092

> <Negative vol penalty>
0.000

$$$$

  -OEChem-04052320553D

 92102  0     1  0  0  0  0  0999 V2000
  -16.4325  -29.1296   23.4656 C   0  0  0  0  0  0  0  0  0  0  0  0
  -17.1383  -28.8446   22.3011 C   0  0  0  0  0  0  0  0  0  0  0  0
  -21.8120  -10.3177   20.5541 C   0  0  0  0  0  0  0  0  0  0  0  0
  -23.3132  -10.0250   22.4243 C   0  0  0  0  0  0  0  0  0  0  0  0
  -16.8052  -30.2150   24.2574 C   0  0  0  0  0  0  0  0  0  0  0  0
  -18.2168  -29.6457   21.9272 C   0  0  0  0  0  0  0  0  0  0  0  0
  -24.7951  -26.8407   21.0615 C   0  0  0  0  0  0  0  0  0  0  0  0
  -21.6775   -8.9336   20.4454 C   0  0  0  0  0  0  0  0  0  0  0  0
  -23.1787   -8.6409   22.3157 C   0  0  0  0  0  0  0  0  0  0  0  0
  -26.0383  -26.3428   20.6711 C   0  0  0  0  0  0  0  0  0  0  0  0
  -22.9478   -5.0399   22.7599 C   0  0  0  0  0  0  0  0  0  0  0  0
  -22.7500   -4.3126   23.9336 C   0  0  0  0  0  0  0  0  0  0  0  0
  -26.8119  -28.5909   20.2289 C   0  0  0  0  0  0  0  0  0  0  0  0
  -20.7214   -5.5534   24.3606 C   0  0  0  0  0  0  0  0  0  0  0  0
  -22.6299  -10.8634   21.5435 C   0  0  0  0  0  0  0  0  0  0  0  0
  -21.9795  -13.1664   22.4271 C   0  0  0  0  0  0  0  0  0  0  0  0
  -17.8947  -31.0239   23.8980 C   0  0  0  0  0  0  0  0  0  0  0  0
  -24.5602  -28.2184   21.0518 C   0  0  0  0  0  0  0  0  0  0  0  0
  -18.6036  -30.7437   22.7142 C   0  0  0  0  0  0  0  0  0  0  0  0
  -25.5726  -29.0964   20.6308 C   0  0  0  0  0  0  0  0  0  0  0  0
  -22.3609   -8.0952   21.3262 C   0  0  0  0  0  0  0  0  0  0  0  0
  -27.0441  -27.2157   20.2556 C   0  0  0  0  0  0  0  0  0  0  0  0
  -22.0324   -6.0240   22.3865 C   0  0  0  0  0  0  0  0  0  0  0  0
  -21.6368   -4.5694   24.7339 C   0  0  0  0  0  0  0  0  0  0  0  0
  -20.9192   -6.2807   23.1869 C   0  0  0  0  0  0  0  0  0  0  0  0
  -22.7696  -12.2931   21.6559 C   0  0  0  0  0  0  0  0  0  0  0  0
  -22.5141  -14.4098   22.1936 C   0  0  0  0  0  0  0  0  0  0  0  0
  -20.8621  -12.8794   23.2785 C   0  0  0  0  0  0  0  0  0  0  0  0
  -22.1518  -31.0164   21.7199 C   0  0  0  0  0  0  0  0  0  0  0  0
  -24.9021  -31.9542   22.7033 C   0  0  0  0  0  0  0  0  0  0  0  0
  -28.0025  -32.4405   24.0404 C   0  0  0  0  0  0  0  0  0  0  0  0
  -27.9379  -16.1258   20.6144 C   0  0  0  0  0  0  0  0  0  0  0  0
  -18.2307  -32.2144   24.7608 C   0  0  0  0  0  0  0  0  0  0  0  0
  -23.2163  -28.7950   21.4054 C   0  0  0  0  0  0  0  0  0  0  0  0
  -25.2636  -30.5684   20.6035 C   0  0  0  0  0  0  0  0  0  0  0  0
  -19.6186  -32.7899   24.4911 C   0  0  0  0  0  0  0  0  0  0  0  0
  -24.8709  -16.9067   18.8591 C   0  0  0  0  0  0  0  0  0  0  0  0
  -19.8536  -32.9360   22.9911 C   0  0  0  0  0  0  0  0  0  0  0  0
  -32.2113  -18.5692   20.0537 C   0  0  0  0  0  0  0  0  0  0  0  0
  -30.9612  -19.3083   22.1222 C   0  0  0  0  0  0  0  0  0  0  0  0
  -29.4225  -23.1533   20.0050 C   0  0  0  0  0  0  0  0  0  0  0  0
  -30.5612  -24.4741   21.8366 C   0  0  0  0  0  0  0  0  0  0  0  0
  -23.9068  -15.8829   19.4612 C   0  0  0  0  0  0  0  0  0  0  0  0
  -30.9152  -18.0074   19.4685 C   0  0  0  0  0  0  0  0  0  0  0  0
  -29.6631  -18.7470   21.5410 C   0  0  0  0  0  0  0  0  0  0  0  0
  -28.8578  -24.4477   19.4277 C   0  0  0  0  0  0  0  0  0  0  0  0
  -29.9929  -25.7649   21.2546 C   0  0  0  0  0  0  0  0  0  0  0  0
  -36.1313  -22.6046   19.3421 C   0  0  0  0  0  0  0  0  0  0  0  0
  -26.2644  -16.3127   18.6761 C   0  0  0  0  0  0  0  0  0  0  0  0
  -25.8981  -14.7211   20.5217 C   0  0  0  0  0  0  0  0  0  0  0  0
  -36.9454  -21.4443   19.8858 C   0  0  0  0  0  0  0  0  0  0  0  0
  -35.4300  -20.6852   18.1243 C   0  0  0  0  0  0  0  0  0  0  0  0
  -19.7946  -31.5744   22.2882 C   0  0  1  0  0  0  0  0  0  0  0  0
  -23.3122  -30.1541   22.1216 C   0  0  1  0  0  0  0  0  0  0  0  0
  -30.7381  -23.3967   20.7575 C   0  0  0  0  0  0  0  0  0  0  0  0
  -31.9767  -19.7175   21.0457 C   0  0  0  0  0  0  0  0  0  0  0  0
  -24.4775  -15.2677   20.7526 C   0  0  2  0  0  0  0  0  0  0  0  0
  -29.9357  -17.5968   20.5702 C   0  0  0  0  0  0  0  0  0  0  0  0
  -34.8835  -21.9438   18.7764 C   0  0  1  0  0  0  0  0  0  0  0  0
  -28.6867  -25.5175   20.5029 C   0  0  0  0  0  0  0  0  0  1  0  0
  -29.3613  -34.1333   25.2996 C   0  0  0  0  0  0  0  0  0  0  0  0
  -25.2378  -33.5818   20.1456 C   0  0  0  0  0  0  0  0  0  0  0  0
  -27.2679  -34.6337   21.1657 C   0  0  0  0  0  0  0  0  0  0  0  0
  -25.0343  -34.9462   22.2316 C   0  0  0  0  0  0  0  0  0  0  0  0
  -28.3841  -30.6032   26.3290 C   0  0  0  0  0  0  0  0  0  0  0  0
  -31.2560  -22.0978   21.3722 C   0  0  0  0  0  0  0  0  0  0  0  0
  -32.5972  -21.4128   19.2781 C   0  0  0  0  0  0  0  0  0  0  0  0
  -26.1753  -32.6950   22.3819 C   0  0  1  0  0  0  0  0  0  0  0  0
  -28.4447  -32.9247   25.4095 C   0  0  2  0  0  0  0  0  0  0  0  0
  -31.5560  -21.0049   20.3316 C   0  0  1  0  0  0  0  0  0  0  0  0
  -25.9270  -33.9359   21.4785 C   0  0  0  0  0  0  0  0  0  0  0  0
  -23.7329  -12.9279   20.9827 N   0  0  0  0  0  0  0  0  0  0  0  0
  -23.5514  -14.2134   21.3301 N   0  0  0  0  0  0  0  0  0  0  0  0
  -24.5141  -30.9468   21.8116 N   0  0  0  0  0  0  0  0  0  0  0  0
  -26.7574  -15.7610   19.9460 N   0  0  0  0  0  0  0  0  0  0  0  0
  -22.1935  -15.6411   22.6446 N   0  0  0  0  0  0  0  0  0  0  0  0
  -20.4434  -11.5479   23.4053 N   0  0  0  0  0  0  0  0  0  0  0  0
  -21.0248  -30.8423   22.5003 N   0  0  0  0  0  0  0  0  0  0  0  0
  -26.8022  -33.0040   23.6624 N   0  0  0  0  0  0  0  0  0  0  0  0
  -28.6985  -17.1127   19.9993 N   0  0  0  0  0  0  0  0  0  0  0  0
  -33.9092  -21.6309   19.8229 N   0  0  0  0  0  0  0  0  0  0  0  0
  -36.5904  -20.2889   18.9953 N   0  3  0  0  0  0  0  0  0  0  0  0
  -29.1760  -31.8443   26.1298 N   0  3  0  0  0  0  0  0  0  0  0  0
  -20.2428  -13.7791   23.8953 O   0  0  0  0  0  0  0  0  0  0  0  0
  -22.2695  -31.7849   20.7727 O   0  0  0  0  0  0  0  0  0  0  0  0
  -24.2638  -32.2620   23.7139 O   0  0  0  0  0  0  0  0  0  0  0  0
  -28.6583  -31.6449   23.3714 O   0  0  0  0  0  0  0  0  0  0  0  0
  -28.2860  -15.6135   21.6838 O   0  0  0  0  0  0  0  0  0  0  0  0
  -22.2297   -6.7446   21.2206 O   0  0  0  0  0  0  0  0  0  0  0  0
  -28.2570  -26.7232   19.8800 O   0  0  0  0  0  0  0  0  0  1  0  0
  -21.4462   -3.8699   25.8602 F   0  0  0  0  0  0  0  0  0  0  0  0
  -20.0357   -7.2241   22.8328 F   0  0  0  0  0  0  0  0  0  0  0  0
  1  2  1  0  0  0  0
  1  5  2  0  0  0  0
  2  6  2  0  0  0  0
  3  8  2  0  0  0  0
  3 15  1  0  0  0  0
  4  9  1  0  0  0  0
  4 15  2  0  0  0  0
  5 17  1  0  0  0  0
  6 19  1  0  0  0  0
  7 10  2  0  0  0  0
  7 18  1  0  0  0  0
  8 21  1  0  0  0  0
  9 21  2  0  0  0  0
 10 22  1  0  0  0  0
 11 12  2  0  0  0  0
 11 23  1  0  0  0  0
 12 24  1  0  0  0  0
 13 20  1  0  0  0  0
 13 22  2  0  0  0  0
 14 24  2  0  0  0  0
 14 25  1  0  0  0  0
 15 26  1  0  0  0  0
 16 26  1  0  0  0  0
 16 27  2  0  0  0  0
 16 28  1  0  0  0  0
 17 19  2  0  0  0  0
 17 33  1  0  0  0  0
 18 20  2  0  0  0  0
 18 34  1  0  0  0  0
 19 53  1  0  0  0  0
 20 35  1  0  0  0  0
 21 89  1  0  0  0  0
 22 90  1  0  0  0  0
 23 25  2  0  0  0  0
 23 89  1  0  0  0  0
 24 91  1  0  0  0  0
 25 92  1  0  0  0  0
 26 72  2  0  0  0  0
 27 73  1  0  0  0  0
 27 76  1  0  0  0  0
 28 77  1  0  0  0  0
 28 84  2  0  0  0  0
 29 54  1  0  0  0  0
 29 78  1  0  0  0  0
 29 85  2  0  0  0  0
 30 68  1  0  0  0  0
 30 74  1  0  0  0  0
 30 86  2  0  0  0  0
 31 69  1  0  0  0  0
 31 79  1  0  0  0  0
 31 87  2  0  0  0  0
 32 75  1  0  0  0  0
 32 80  1  0  0  0  0
 32 88  2  0  0  0  0
 33 36  1  0  0  0  0
 34 54  1  0  0  0  0
 35 74  1  0  0  0  0
 36 38  1  0  0  0  0
 37 43  1  0  0  0  0
 37 49  1  0  0  0  0
 38 53  1  0  0  0  0
 39 44  1  0  0  0  0
 39 56  1  0  0  0  0
 40 45  1  0  0  0  0
 40 56  1  0  0  0  0
 41 46  1  0  0  0  0
 41 55  1  0  0  0  0
 42 47  1  0  0  0  0
 42 55  1  0  0  0  0
 43 57  1  0  0  0  0
 44 58  1  0  0  0  0
 45 58  1  0  0  0  0
 46 60  1  0  0  0  0
 47 60  1  0  0  0  0
 48 51  1  0  0  0  0
 48 59  1  0  0  0  0
 49 75  1  0  0  0  0
 50 57  1  0  0  0  0
 50 75  1  0  0  0  0
 51 82  1  0  0  0  0
 52 59  1  0  0  0  0
 52 82  1  0  0  0  0
 53 78  1  0  0  0  0
 54 74  1  0  0  0  0
 55 66  1  0  0  0  0
 56 70  1  0  0  0  0
 57 73  1  0  0  0  0
 58 80  1  0  0  0  0
 59 81  1  0  0  0  0
 60 90  1  0  0  0  0
 61 69  1  0  0  0  0
 62 71  1  0  0  0  0
 63 71  1  0  0  0  0
 64 71  1  0  0  0  0
 65 83  1  0  0  0  0
 66 70  1  0  0  0  0
 67 70  1  0  0  0  0
 67 81  1  0  0  0  0
 68 71  1  0  0  0  0
 68 79  1  0  0  0  0
 69 83  1  0  0  0  0
 72 73  1  0  0  0  0
M  CHG  2  82   1  83   1
M  ISO  4  32 100  60 101  80 100  90 101
M  END
> <Batch ID>
0133

> <Smiles>
CNC(C)C(=O)NC(C(=O)N1Cc2cc([101O:1][101CH:1]3CCC(CC(CNC4CCNC4)C4CCC([100NH:0][100C:0](=O)N5CCCC(n6nc(-c7ccc(Oc8ccc(F)cc8F)cc7)c(C(N)=O)c6N)C5)CC4)CC3)ccc2CC1C(=O)NC1CCCc2ccccc21)C(C)(C)C

> <Shape>
0.312

> <Color>
0.105

> <Negative vol penalty>
0.000

$$$$

  -OEChem-04052320553D

 85 94  0     1  0  0  0  0  0999 V2000
  -27.4207  -38.5479   24.2382 C   0  0  0  0  0  0  0  0  0  0  0  0
  -28.0442  -37.4191   24.7602 C   0  0  0  0  0  0  0  0  0  0  0  0
  -26.4079  -11.3737   21.1126 C   0  0  0  0  0  0  0  0  0  0  0  0
  -25.3751  -12.9664   19.6180 C   0  0  0  0  0  0  0  0  0  0  0  0
  -26.0488  -38.5330   23.9900 C   0  0  0  0  0  0  0  0  0  0  0  0
  -27.2959  -36.2751   25.0354 C   0  0  0  0  0  0  0  0  0  0  0  0
  -28.8618  -29.9782   21.9068 C   0  0  0  0  0  0  0  0  0  0  0  0
  -28.0269  -20.5883   15.0521 C   0  0  0  0  0  0  0  0  0  0  0  0
  -25.1894  -10.7080   21.2452 C   0  0  0  0  0  0  0  0  0  0  0  0
  -24.1566  -12.3007   19.7505 C   0  0  0  0  0  0  0  0  0  0  0  0
  -29.2289  -28.6919   21.5109 C   0  0  0  0  0  0  0  0  0  0  0  0
  -22.2645   -8.8003   22.2599 C   0  0  0  0  0  0  0  0  0  0  0  0
  -21.8673   -8.4208   23.5420 C   0  0  0  0  0  0  0  0  0  0  0  0
  -28.0821  -19.7400   16.1524 C   0  0  0  0  0  0  0  0  0  0  0  0
  -27.2994  -27.7797   22.6481 C   0  0  0  0  0  0  0  0  0  0  0  0
  -21.9026  -10.7343   24.2376 C   0  0  0  0  0  0  0  0  0  0  0  0
  -26.5007  -12.5030   20.2990 C   0  0  0  0  0  0  0  0  0  0  0  0
  -28.9679  -12.6634   19.6706 C   0  0  0  0  0  0  0  0  0  0  0  0
  -25.2850  -37.3850   24.2533 C   0  0  0  0  0  0  0  0  0  0  0  0
  -27.7023  -30.1720   22.6628 C   0  0  0  0  0  0  0  0  0  0  0  0
  -25.9123  -36.2453   24.7918 C   0  0  0  0  0  0  0  0  0  0  0  0
  -26.9199  -29.0671   23.0370 C   0  0  0  0  0  0  0  0  0  0  0  0
  -28.5085  -21.8883   15.1587 C   0  0  0  0  0  0  0  0  0  0  0  0
  -24.0637  -11.1714   20.5642 C   0  0  0  0  0  0  0  0  0  0  0  0
  -28.4497  -27.5953   21.8808 C   0  0  0  0  0  0  0  0  0  0  0  0
  -22.4809  -10.1467   21.9667 C   0  0  0  0  0  0  0  0  0  0  0  0
  -21.6862   -9.3878   24.5309 C   0  0  0  0  0  0  0  0  0  0  0  0
  -22.2999  -11.1137   22.9555 C   0  0  0  0  0  0  0  0  0  0  0  0
  -27.7591  -13.1915   20.1621 C   0  0  0  0  0  0  0  0  0  0  0  0
  -29.0313  -22.2883   16.3779 C   0  0  0  0  0  0  0  0  0  0  0  0
  -28.6242  -20.2361   17.3271 C   0  0  0  0  0  0  0  0  0  0  0  0
  -29.8546  -13.7098   19.7437 C   0  0  0  0  0  0  0  0  0  0  0  0
  -29.2629  -11.3449   19.1907 C   0  0  0  0  0  0  0  0  0  0  0  0
  -25.4207  -32.6067   24.3781 C   0  0  0  0  0  0  0  0  0  0  0  0
  -23.6334  -30.5197   23.0139 C   0  0  0  0  0  0  0  0  0  0  0  0
  -21.1072  -28.8448   21.4487 C   0  0  0  0  0  0  0  0  0  0  0  0
  -29.1748  -19.6463   19.7135 C   0  0  0  0  0  0  0  0  0  0  0  0
  -23.7968  -37.4324   24.0129 C   0  0  0  0  0  0  0  0  0  0  0  0
  -27.3019  -31.5331   23.1635 C   0  0  0  0  0  0  0  0  0  0  0  0
  -25.6998  -29.3196   23.8799 C   0  0  0  0  0  0  0  0  0  0  0  0
  -23.1408  -36.0543   23.9811 C   0  0  0  0  0  0  0  0  0  0  0  0
  -30.7452  -17.6956   22.2446 C   0  0  0  0  0  0  0  0  0  0  0  0
  -23.6244  -35.2057   25.1528 C   0  0  0  0  0  0  0  0  0  0  0  0
  -30.2725  -16.2703   21.9493 C   0  0  0  0  0  0  0  0  0  0  0  0
  -30.3132  -25.6911   19.7144 C   0  0  0  0  0  0  0  0  0  0  0  0
  -27.8896  -25.0136   19.7179 C   0  0  0  0  0  0  0  0  0  0  0  0
  -29.6493  -18.7245   21.9719 C   0  0  0  0  0  0  0  0  0  0  0  0
  -28.5742  -17.2249   20.3395 C   0  0  0  0  0  0  0  0  0  0  0  0
  -30.4205  -25.2897   18.2516 C   0  0  0  0  0  0  0  0  0  0  0  0
  -28.0015  -24.6142   18.2550 C   0  0  0  0  0  0  0  0  0  0  0  0
  -25.1389  -34.9770   25.0803 C   0  0  1  0  0  0  0  0  0  0  0  0
  -25.7766  -31.7342   23.2104 C   0  0  1  0  0  0  0  0  0  0  0  0
  -29.6646  -16.1593   20.5374 C   0  0  2  0  0  0  0  0  0  0  0  0
  -28.8916  -26.1030   20.0867 C   0  0  0  0  0  0  0  0  0  1  0  0
  -28.4511  -22.8027   13.9845 C   0  0  0  0  0  0  0  0  0  0  0  0
  -18.6676  -28.3018   21.6742 C   0  0  0  0  0  0  0  0  0  0  0  0
  -24.2944  -28.4605   25.1648 C   0  0  0  0  0  0  0  0  0  0  0  0
  -22.1099  -27.3434   24.6664 C   0  0  0  0  0  0  0  0  0  0  0  0
  -22.1441  -29.6871   25.5201 C   0  0  0  0  0  0  0  0  0  0  0  0
  -20.4490  -30.2121   18.9078 C   0  0  0  0  0  0  0  0  0  0  0  0
  -29.5639  -23.6803   16.5506 C   0  0  0  0  0  0  0  0  0  0  0  0
  -22.8772  -29.2220   23.1455 C   0  0  1  0  0  0  0  0  0  0  0  0
  -19.6922  -29.2619   21.0902 C   0  0  2  0  0  0  0  0  0  0  0  0
  -22.8756  -28.6822   24.6036 C   0  0  0  0  0  0  0  0  0  0  0  0
  -27.8647  -14.4736   20.5211 N   0  0  0  0  0  0  0  0  0  0  0  0
  -29.1018  -21.4929   17.4687 N   0  0  0  0  0  0  0  0  0  0  0  0
  -29.1505  -14.7600   20.2550 N   0  0  0  0  0  0  0  0  0  0  0  0
  -24.9836  -30.5054   23.3845 N   0  0  0  0  0  0  0  0  0  0  0  0
  -29.1237  -18.5617   20.6146 N   0  0  0  0  0  0  0  0  0  0  0  0
  -31.1602  -13.8247   19.4201 N   0  0  0  0  0  0  0  0  0  0  0  0
  -28.2361  -10.3911   19.1839 N   0  0  0  0  0  0  0  0  0  0  0  0
  -28.6759  -19.3637   18.4424 N   0  0  0  0  0  0  0  0  0  0  0  0
  -25.4500  -33.9597   24.0991 N   0  0  0  0  0  0  0  0  0  0  0  0
  -21.5474  -29.4671   22.5977 N   0  0  0  0  0  0  0  0  0  0  0  0
  -29.4219  -24.1953   17.9565 N   0  3  0  0  0  0  0  0  0  0  0  0
  -19.5198  -29.2901   19.6102 N   0  3  0  0  0  0  0  0  0  0  0  0
  -30.4076  -11.0175   18.7955 O   0  0  0  0  0  0  0  0  0  0  0  0
  -25.1384  -32.0913   25.4535 O   0  0  0  0  0  0  0  0  0  0  0  0
  -23.0441  -31.5219   22.5995 O   0  0  0  0  0  0  0  0  0  0  0  0
  -21.7556  -28.0441   20.7787 O   0  0  0  0  0  0  0  0  0  0  0  0
  -29.6528  -20.7367   20.0368 O   0  0  0  0  0  0  0  0  0  0  0  0
  -22.8746  -10.5219   20.6931 O   0  0  0  0  0  0  0  0  0  0  0  0
  -28.8114  -26.3428   21.4871 O   0  0  0  0  0  0  0  0  0  1  0  0
  -21.3032   -9.0235   25.7616 F   0  0  0  0  0  0  0  0  0  0  0  0
  -22.5051  -12.4089   22.6794 F   0  0  0  0  0  0  0  0  0  0  0  0
  1  2  1  0  0  0  0
  1  5  2  0  0  0  0
  2  6  2  0  0  0  0
  3  9  2  0  0  0  0
  3 17  1  0  0  0  0
  4 10  1  0  0  0  0
  4 17  2  0  0  0  0
  5 19  1  0  0  0  0
  6 21  1  0  0  0  0
  7 11  2  0  0  0  0
  7 20  1  0  0  0  0
  8 14  2  0  0  0  0
  8 23  1  0  0  0  0
  9 24  1  0  0  0  0
 10 24  2  0  0  0  0
 11 25  1  0  0  0  0
 12 13  2  0  0  0  0
 12 26  1  0  0  0  0
 13 27  1  0  0  0  0
 14 31  1  0  0  0  0
 15 22  1  0  0  0  0
 15 25  2  0  0  0  0
 16 27  2  0  0  0  0
 16 28  1  0  0  0  0
 17 29  1  0  0  0  0
 18 29  1  0  0  0  0
 18 32  2  0  0  0  0
 18 33  1  0  0  0  0
 19 21  2  0  0  0  0
 19 38  1  0  0  0  0
 20 22  2  0  0  0  0
 20 39  1  0  0  0  0
 21 51  1  0  0  0  0
 22 40  1  0  0  0  0
 23 30  2  0  0  0  0
 23 55  1  0  0  0  0
 24 82  1  0  0  0  0
 25 83  1  0  0  0  0
 26 28  2  0  0  0  0
 26 82  1  0  0  0  0
 27 84  1  0  0  0  0
 28 85  1  0  0  0  0
 29 65  2  0  0  0  0
 30 61  1  0  0  0  0
 30 66  1  0  0  0  0
 31 66  2  0  0  0  0
 31 72  1  0  0  0  0
 32 67  1  0  0  0  0
 32 70  1  0  0  0  0
 33 71  1  0  0  0  0
 33 77  2  0  0  0  0
 34 52  1  0  0  0  0
 34 73  1  0  0  0  0
 34 78  2  0  0  0  0
 35 62  1  0  0  0  0
 35 68  1  0  0  0  0
 35 79  2  0  0  0  0
 36 63  1  0  0  0  0
 36 74  1  0  0  0  0
 36 80  2  0  0  0  0
 37 69  1  0  0  0  0
 37 72  1  0  0  0  0
 37 81  2  0  0  0  0
 38 41  1  0  0  0  0
 39 52  1  0  0  0  0
 40 68  1  0  0  0  0
 41 43  1  0  0  0  0
 42 44  1  0  0  0  0
 42 47  1  0  0  0  0
 43 51  1  0  0  0  0
 44 53  1  0  0  0  0
 45 49  1  0  0  0  0
 45 54  1  0  0  0  0
 46 50  1  0  0  0  0
 46 54  1  0  0  0  0
 47 69  1  0  0  0  0
 48 53  1  0  0  0  0
 48 69  1  0  0  0  0
 49 75  1  0  0  0  0
 50 75  1  0  0  0  0
 51 73  1  0  0  0  0
 52 68  1  0  0  0  0
 53 67  1  0  0  0  0
 54 83  1  0  0  0  0
 56 63  1  0  0  0  0
 57 64  1  0  0  0  0
 58 64  1  0  0  0  0
 59 64  1  0  0  0  0
 60 76  1  0  0  0  0
 61 75  1  0  0  0  0
 62 64  1  0  0  0  0
 62 74  1  0  0  0  0
 63 76  1  0  0  0  0
 65 67  1  0  0  0  0
M  CHG  2  75   1  76   1
M  ISO  4  37 100  54 101  72 100  83 101
M  END
> <Batch ID>
0133

> <Smiles>
CNC(C)C(=O)NC(C(=O)N1Cc2cc([101O:1][101CH:1]3CCN(Cc4nc([100NH:0][100C:0](=O)N5CCCC(n6nc(-c7ccc(Oc8ccc(F)cc8F)cc7)c(C(N)=O)c6N)C5)ccc4C)CC3)ccc2CC1C(=O)NC1CCCc2ccccc21)C(C)(C)C

> <Shape>
0.348

> <Color>
0.073

> <Negative vol penalty>
0.000

$$$$

  -OEChem-04052320553D

 84 92  0     1  0  0  0  0  0999 V2000
  -17.0855  -30.6178   23.6304 C   0  0  0  0  0  0  0  0  0  0  0  0
  -18.4134  -31.0209   23.5320 C   0  0  0  0  0  0  0  0  0  0  0  0
  -27.7393  -12.1306   19.9106 C   0  0  0  0  0  0  0  0  0  0  0  0
  -29.4625  -13.8239   19.9149 C   0  0  0  0  0  0  0  0  0  0  0  0
  -16.7518  -29.2745   23.4628 C   0  0  0  0  0  0  0  0  0  0  0  0
  -19.4085  -30.0807   23.2670 C   0  0  0  0  0  0  0  0  0  0  0  0
  -25.7026  -29.4078   19.9132 C   0  0  0  0  0  0  0  0  0  0  0  0
  -28.5271  -11.3308   19.0828 C   0  0  0  0  0  0  0  0  0  0  0  0
  -30.2504  -13.0242   19.0871 C   0  0  0  0  0  0  0  0  0  0  0  0
  -27.0065  -28.9733   20.1470 C   0  0  0  0  0  0  0  0  0  0  0  0
  -31.1841   -9.2653   19.4099 C   0  0  0  0  0  0  0  0  0  0  0  0
  -31.2915   -7.9115   19.7277 C   0  0  0  0  0  0  0  0  0  0  0  0
  -26.3029  -26.6926   19.7973 C   0  0  0  0  0  0  0  0  0  0  0  0
  -30.3449   -7.3326   17.5816 C   0  0  0  0  0  0  0  0  0  0  0  0
  -28.2069  -13.3771   20.3266 C   0  0  0  0  0  0  0  0  0  0  0  0
  -26.9157  -13.8865   22.4669 C   0  0  0  0  0  0  0  0  0  0  0  0
  -17.7421  -28.3188   23.1860 C   0  0  0  0  0  0  0  0  0  0  0  0
  -24.6850  -28.4854   19.6300 C   0  0  0  0  0  0  0  0  0  0  0  0
  -19.0878  -28.7231   23.0968 C   0  0  0  0  0  0  0  0  0  0  0  0
  -24.9874  -27.1181   19.5577 C   0  0  0  0  0  0  0  0  0  0  0  0
  -29.7827  -11.7776   18.6711 C   0  0  0  0  0  0  0  0  0  0  0  0
  -27.3063  -27.6153   20.0919 C   0  0  0  0  0  0  0  0  0  0  0  0
  -30.6571   -9.6529   18.1779 C   0  0  0  0  0  0  0  0  0  0  0  0
  -30.8719   -6.9450   18.8136 C   0  0  0  0  0  0  0  0  0  0  0  0
  -30.2375   -8.6865   17.2637 C   0  0  0  0  0  0  0  0  0  0  0  0
  -27.3932  -14.2040   21.1813 C   0  0  0  0  0  0  0  0  0  0  0  0
  -26.1990  -14.9937   22.8501 C   0  0  0  0  0  0  0  0  0  0  0  0
  -27.1033  -12.6971   23.2453 C   0  0  0  0  0  0  0  0  0  0  0  0
  -21.9615  -27.6472   21.0383 C   0  0  0  0  0  0  0  0  0  0  0  0
  -21.5810  -25.8564   18.3605 C   0  0  0  0  0  0  0  0  0  0  0  0
  -23.0277  -24.2484   15.7208 C   0  0  0  0  0  0  0  0  0  0  0  0
  -26.4535  -20.7633   21.2695 C   0  0  0  0  0  0  0  0  0  0  0  0
  -17.3387  -26.8711   23.0595 C   0  0  0  0  0  0  0  0  0  0  0  0
  -23.2890  -28.9724   19.3538 C   0  0  0  0  0  0  0  0  0  0  0  0
  -23.9352  -26.0891   19.2375 C   0  0  0  0  0  0  0  0  0  0  0  0
  -18.4072  -25.9956   22.4098 C   0  0  0  0  0  0  0  0  0  0  0  0
  -23.6324  -18.6033   21.0406 C   0  0  0  0  0  0  0  0  0  0  0  0
  -19.7752  -26.2803   23.0216 C   0  0  0  0  0  0  0  0  0  0  0  0
  -24.2332  -17.2022   21.1666 C   0  0  0  0  0  0  0  0  0  0  0  0
  -24.5492  -19.5424   20.2598 C   0  0  0  0  0  0  0  0  0  0  0  0
  -29.6519  -25.9372   22.6849 C   0  0  0  0  0  0  0  0  0  0  0  0
  -26.5316  -18.2235   20.8957 C   0  0  0  0  0  0  0  0  0  0  0  0
  -31.2440  -23.9881   20.8520 C   0  0  0  0  0  0  0  0  0  0  0  0
  -20.1927  -27.7369   22.7859 C   0  0  1  0  0  0  0  0  0  0  0  0
  -22.2266  -27.9015   19.5813 C   0  0  1  0  0  0  0  0  0  0  0  0
  -30.3929  -27.0224   21.8831 C   0  0  1  0  0  0  0  0  0  0  0  0
  -25.6686  -17.2557   21.7234 C   0  0  2  0  0  0  0  0  0  0  0  0
  -30.0446  -23.7257   21.7642 C   0  0  2  0  0  0  0  0  0  0  0  0
  -31.4092  -26.5105   20.8380 C   0  0  1  0  0  0  0  0  0  0  0  0
  -22.4625  -22.8402   13.7220 C   0  0  0  0  0  0  0  0  0  0  0  0
  -33.5672  -27.4011   21.7621 C   0  0  0  0  0  0  0  0  0  0  0  0
  -33.2254  -27.2668   19.2784 C   0  0  0  0  0  0  0  0  0  0  0  0
  -21.1408  -23.4497   20.1837 C   0  0  0  0  0  0  0  0  0  0  0  0
  -21.5309  -21.9669   18.2044 C   0  0  0  0  0  0  0  0  0  0  0  0
  -19.6090  -23.5572   18.2097 C   0  0  0  0  0  0  0  0  0  0  0  0
  -24.1499  -26.2479   13.8495 C   0  0  0  0  0  0  0  0  0  0  0  0
  -29.3829  -27.9582   21.1992 C   0  0  0  0  0  0  0  0  0  1  0  0
  -29.2732  -22.5124   21.2299 C   0  0  0  0  0  0  0  0  0  0  0  0
  -28.4341  -21.8422   22.3050 C   0  0  0  0  0  0  0  0  0  0  0  0
  -21.9586  -24.4536   17.9500 C   0  0  1  0  0  0  0  0  0  0  0  0
  -22.7013  -24.2506   14.2382 C   0  0  2  0  0  0  0  0  0  0  0  0
  -32.5525  -27.5052   20.6270 C   0  0  0  0  0  0  0  0  0  0  0  0
  -21.0795  -23.3758   18.6449 C   0  0  0  0  0  0  0  0  0  0  0  0
  -27.0119  -15.4178   20.7747 N   0  0  0  0  0  0  0  0  0  0  0  0
  -26.2870  -15.8727   21.8109 N   0  0  0  0  0  0  0  0  0  0  0  0
  -29.1084  -24.8560   21.8621 N   0  0  0  0  0  0  0  0  0  0  0  0
  -22.5839  -26.6144   18.9814 N   0  0  0  0  0  0  0  0  0  0  0  0
  -25.8943  -19.5485   20.8398 N   0  0  0  0  0  0  0  0  0  0  0  0
  -25.5082  -15.2914   23.9711 N   0  0  0  0  0  0  0  0  0  0  0  0
  -27.8675  -11.6560   22.7009 N   0  0  0  0  0  0  0  0  0  0  0  0
  -20.6632  -27.9145   21.4289 N   0  0  0  0  0  0  0  0  0  0  0  0
  -21.8988  -24.4247   16.4926 N   0  0  0  0  0  0  0  0  0  0  0  0
  -27.7295  -20.6793   21.8130 N   0  0  0  0  0  0  0  0  0  0  0  0
  -32.0184  -25.2018   21.2584 N   0  3  0  0  0  0  0  0  0  0  0  0
  -23.8224  -24.8517   13.4619 N   0  3  0  0  0  0  0  0  0  0  0  0
  -26.5943  -12.5551   24.3829 O   0  0  0  0  0  0  0  0  0  0  0  0
  -22.8673  -27.2375   21.7547 O   0  0  0  0  0  0  0  0  0  0  0  0
  -20.4405  -26.2670   18.1321 O   0  0  0  0  0  0  0  0  0  0  0  0
  -24.1694  -24.1010   16.1512 O   0  0  0  0  0  0  0  0  0  0  0  0
  -25.8573  -21.8420   21.1807 O   0  0  0  0  0  0  0  0  0  0  0  0
  -30.5519  -10.9974   17.8635 O   0  0  0  0  0  0  0  0  0  0  0  0
  -28.5912  -27.1841   20.3227 O   0  0  0  0  0  0  0  0  0  1  0  0
  -30.9765   -5.6449   19.1183 F   0  0  0  0  0  0  0  0  0  0  0  0
  -29.7315   -9.0527   16.0781 F   0  0  0  0  0  0  0  0  0  0  0  0
  1  2  1  0  0  0  0
  1  5  2  0  0  0  0
  2  6  2  0  0  0  0
  3  8  2  0  0  0  0
  3 15  1  0  0  0  0
  4  9  1  0  0  0  0
  4 15  2  0  0  0  0
  5 17  1  0  0  0  0
  6 19  1  0  0  0  0
  7 10  2  0  0  0  0
  7 18  1  0  0  0  0
  8 21  1  0  0  0  0
  9 21  2  0  0  0  0
 10 22  1  0  0  0  0
 11 12  2  0  0  0  0
 11 23  1  0  0  0  0
 12 24  1  0  0  0  0
 13 20  1  0  0  0  0
 13 22  2  0  0  0  0
 14 24  2  0  0  0  0
 14 25  1  0  0  0  0
 15 26  1  0  0  0  0
 16 26  1  0  0  0  0
 16 27  2  0  0  0  0
 16 28  1  0  0  0  0
 17 19  2  0  0  0  0
 17 33  1  0  0  0  0
 18 20  2  0  0  0  0
 18 34  1  0  0  0  0
 19 44  1  0  0  0  0
 20 35  1  0  0  0  0
 21 81  1  0  0  0  0
 22 82  1  0  0  0  0
 23 25  2  0  0  0  0
 23 81  1  0  0  0  0
 24 83  1  0  0  0  0
 25 84  1  0  0  0  0
 26 64  2  0  0  0  0
 27 65  1  0  0  0  0
 27 69  1  0  0  0  0
 28 70  1  0  0  0  0
 28 76  2  0  0  0  0
 29 45  1  0  0  0  0
 29 71  1  0  0  0  0
 29 77  2  0  0  0  0
 30 60  1  0  0  0  0
 30 67  1  0  0  0  0
 30 78  2  0  0  0  0
 31 61  1  0  0  0  0
 31 72  1  0  0  0  0
 31 79  2  0  0  0  0
 32 68  1  0  0  0  0
 32 73  1  0  0  0  0
 32 80  2  0  0  0  0
 33 36  1  0  0  0  0
 34 45  1  0  0  0  0
 35 67  1  0  0  0  0
 36 38  1  0  0  0  0
 37 39  1  0  0  0  0
 37 40  1  0  0  0  0
 38 44  1  0  0  0  0
 39 47  1  0  0  0  0
 40 68  1  0  0  0  0
 41 46  1  0  0  0  0
 41 66  1  0  0  0  0
 42 47  1  0  0  0  0
 42 68  1  0  0  0  0
 43 48  1  0  0  0  0
 43 74  1  0  0  0  0
 44 71  1  0  0  0  0
 45 67  1  0  0  0  0
 46 49  1  0  0  0  0
 46 57  1  0  0  0  0
 47 65  1  0  0  0  0
 48 58  1  0  0  0  0
 48 66  1  0  0  0  0
 49 62  1  0  0  0  0
 49 74  1  0  0  0  0
 50 61  1  0  0  0  0
 51 62  1  0  0  0  0
 52 62  1  0  0  0  0
 53 63  1  0  0  0  0
 54 63  1  0  0  0  0
 55 63  1  0  0  0  0
 56 75  1  0  0  0  0
 57 82  1  0  0  0  0
 58 59  1  0  0  0  0
 59 73  1  0  0  0  0
 60 63  1  0  0  0  0
 60 72  1  0  0  0  0
 61 75  1  0  0  0  0
 64 65  1  0  0  0  0
M  CHG  2  74   1  75   1
M  ISO  4  32 100  57 101  73 100  82 101
M  END
> <Batch ID>
0133

> <Smiles>
CNC(C)C(=O)NC(C(=O)N1Cc2cc([101O:1][101CH2:1]C3CNC(CC[100NH:0][100C:0](=O)N4CCCC(n5nc(-c6ccc(Oc7ccc(F)cc7F)cc6)c(C(N)=O)c5N)C4)CNC3C(C)C)ccc2CC1C(=O)NC1CCCc2ccccc21)C(C)(C)C

> <Shape>
0.204

> <Color>
0.075

> <Negative vol penalty>
0.000

$$$$

  -OEChem-04052320553D

 79 87  0     1  0  0  0  0  0999 V2000
  -26.2557  -33.1308   18.4077 C   0  0  0  0  0  0  0  0  0  0  0  0
  -26.8579  -31.9800   18.9060 C   0  0  0  0  0  0  0  0  0  0  0  0
  -23.1007   -9.8373   19.9341 C   0  0  0  0  0  0  0  0  0  0  0  0
  -23.8695   -9.8462   22.2244 C   0  0  0  0  0  0  0  0  0  0  0  0
  -25.3740  -33.0446   17.3311 C   0  0  0  0  0  0  0  0  0  0  0  0
  -26.5779  -30.7420   18.3287 C   0  0  0  0  0  0  0  0  0  0  0  0
  -30.4333  -26.0292   17.6725 C   0  0  0  0  0  0  0  0  0  0  0  0
  -29.1411  -18.7571   21.0185 C   0  0  0  0  0  0  0  0  0  0  0  0
  -31.3554  -18.5679   20.0707 C   0  0  0  0  0  0  0  0  0  0  0  0
  -28.8580  -19.8089   20.1472 C   0  0  0  0  0  0  0  0  0  0  0  0
  -31.0723  -19.6197   19.1994 C   0  0  0  0  0  0  0  0  0  0  0  0
  -22.3825   -8.6671   20.1797 C   0  0  0  0  0  0  0  0  0  0  0  0
  -23.1512   -8.6760   22.4701 C   0  0  0  0  0  0  0  0  0  0  0  0
  -30.6269  -24.8652   18.4152 C   0  0  0  0  0  0  0  0  0  0  0  0
  -19.9432   -7.8061   23.0802 C   0  0  0  0  0  0  0  0  0  0  0  0
  -19.1920   -7.7429   24.2538 C   0  0  0  0  0  0  0  0  0  0  0  0
  -29.1880  -23.6642   16.8965 C   0  0  0  0  0  0  0  0  0  0  0  0
  -20.4772   -5.8277   24.9732 C   0  0  0  0  0  0  0  0  0  0  0  0
  -23.8443  -10.4268   20.9564 C   0  0  0  0  0  0  0  0  0  0  0  0
  -24.1320  -12.9594   20.8509 C   0  0  0  0  0  0  0  0  0  0  0  0
  -25.0904  -31.8062   16.7341 C   0  0  0  0  0  0  0  0  0  0  0  0
  -29.6055  -26.0219   16.5406 C   0  0  0  0  0  0  0  0  0  0  0  0
  -25.6905  -30.6389   17.2439 C   0  0  0  0  0  0  0  0  0  0  0  0
  -28.9876  -24.8287   16.1397 C   0  0  0  0  0  0  0  0  0  0  0  0
  -30.3898  -18.1366   20.9803 C   0  0  0  0  0  0  0  0  0  0  0  0
  -29.8236  -20.2402   19.2377 C   0  0  0  0  0  0  0  0  0  0  0  0
  -22.4077   -8.0864   21.4477 C   0  0  0  0  0  0  0  0  0  0  0  0
  -30.0019  -23.6832   18.0289 C   0  0  0  0  0  0  0  0  0  0  0  0
  -20.9613   -6.8801   22.8531 C   0  0  0  0  0  0  0  0  0  0  0  0
  -19.4590   -6.7537   25.2003 C   0  0  0  0  0  0  0  0  0  0  0  0
  -21.2283   -5.8909   23.7996 C   0  0  0  0  0  0  0  0  0  0  0  0
  -24.5869  -11.6354   20.7032 C   0  0  0  0  0  0  0  0  0  0  0  0
  -25.2065  -13.7341   20.4881 C   0  0  0  0  0  0  0  0  0  0  0  0
  -22.8525  -13.4455   21.2780 C   0  0  0  0  0  0  0  0  0  0  0  0
  -26.9174  -27.5054   15.7179 C   0  0  0  0  0  0  0  0  0  0  0  0
  -27.4575  -26.0678   12.8607 C   0  0  0  0  0  0  0  0  0  0  0  0
  -28.9270  -23.5185   11.1320 C   0  0  0  0  0  0  0  0  0  0  0  0
  -30.6681  -14.8682   20.6614 C   0  0  0  0  0  0  0  0  0  0  0  0
  -24.0943  -31.7568   15.6028 C   0  0  0  0  0  0  0  0  0  0  0  0
  -29.4283  -27.2796   15.7349 C   0  0  0  0  0  0  0  0  0  0  0  0
  -28.1054  -24.7632   14.9207 C   0  0  0  0  0  0  0  0  0  0  0  0
  -24.1397  -30.4546   14.8075 C   0  0  0  0  0  0  0  0  0  0  0  0
  -29.5717  -12.4749   18.2642 C   0  0  0  0  0  0  0  0  0  0  0  0
  -24.1751  -29.2550   15.7492 C   0  0  0  0  0  0  0  0  0  0  0  0
  -28.1426  -12.1480   18.7009 C   0  0  0  0  0  0  0  0  0  0  0  0
  -30.4888  -12.7077   19.4629 C   0  0  0  0  0  0  0  0  0  0  0  0
  -28.5776  -13.3896   20.8614 C   0  0  0  0  0  0  0  0  0  0  0  0
  -25.4311  -29.2809   16.6286 C   0  0  1  0  0  0  0  0  0  0  0  0
  -28.1542  -27.2771   14.8958 C   0  0  1  0  0  0  0  0  0  0  0  0
  -27.6026  -13.2017   19.6865 C   0  0  2  0  0  0  0  0  0  0  0  0
  -29.1577  -22.5866    8.8134 C   0  0  0  0  0  0  0  0  0  0  0  0
  -24.6287  -24.9379   13.0360 C   0  0  0  0  0  0  0  0  0  0  0  0
  -25.2453  -23.3033   11.2426 C   0  0  0  0  0  0  0  0  0  0  0  0
  -25.2883  -25.7512   10.7649 C   0  0  0  0  0  0  0  0  0  0  0  0
  -31.8638  -23.8847   11.1519 C   0  0  0  0  0  0  0  0  0  0  0  0
  -30.6933  -17.0120   21.9115 C   0  0  0  0  0  0  0  0  0  0  0  0
  -29.5177  -21.3705   18.2996 C   0  0  0  0  0  0  0  0  0  1  0  0
  -27.0774  -24.7449   12.2408 C   0  0  1  0  0  0  0  0  0  0  0  0
  -29.7581  -23.5105    9.8616 C   0  0  2  0  0  0  0  0  0  0  0  0
  -25.5749  -24.6857   11.8452 C   0  0  0  0  0  0  0  0  0  0  0  0
  -25.8518  -11.5690   20.2794 N   0  0  0  0  0  0  0  0  0  0  0  0
  -26.2008  -12.8611   20.1576 N   0  0  0  0  0  0  0  0  0  0  0  0
  -27.9582  -26.0208   14.1695 N   0  0  0  0  0  0  0  0  0  0  0  0
  -29.9201  -13.7188   20.3574 N   0  0  0  0  0  0  0  0  0  0  0  0
  -25.3883  -15.0702   20.4226 N   0  0  0  0  0  0  0  0  0  0  0  0
  -21.8615  -12.5130   21.6135 N   0  0  0  0  0  0  0  0  0  0  0  0
  -26.5846  -28.8373   15.8756 N   0  0  0  0  0  0  0  0  0  0  0  0
  -27.9970  -24.5365   11.1275 N   0  0  0  0  0  0  0  0  0  0  0  0
  -30.0528  -15.7789   21.5116 N   0  0  0  0  0  0  0  0  0  0  0  0
  -31.1456  -23.0516   10.1533 N   0  3  0  0  0  0  0  0  0  0  0  0
  -22.5905  -14.6704   21.3440 O   0  0  0  0  0  0  0  0  0  0  0  0
  -26.3092  -26.5444   16.1741 O   0  0  0  0  0  0  0  0  0  0  0  0
  -27.3221  -27.1040   12.2052 O   0  0  0  0  0  0  0  0  0  0  0  0
  -29.0845  -22.7010   12.0361 O   0  0  0  0  0  0  0  0  0  0  0  0
  -31.7982  -15.0706   20.2045 O   0  0  0  0  0  0  0  0  0  0  0  0
  -21.7068   -6.9447   21.6878 O   0  0  0  0  0  0  0  0  0  0  0  0
  -30.1886  -22.5458   18.7524 O   0  0  0  0  0  0  0  0  0  1  0  0
  -18.7385   -6.6940   26.3279 F   0  0  0  0  0  0  0  0  0  0  0  0
  -22.2060   -4.9993   23.5875 F   0  0  0  0  0  0  0  0  0  0  0  0
  1  2  1  0  0  0  0
  1  5  2  0  0  0  0
  2  6  2  0  0  0  0
  3 12  2  0  0  0  0
  3 19  1  0  0  0  0
  4 13  1  0  0  0  0
  4 19  2  0  0  0  0
  5 21  1  0  0  0  0
  6 23  1  0  0  0  0
  7 14  2  0  0  0  0
  7 22  1  0  0  0  0
  8 10  2  0  0  0  0
  8 25  1  0  0  0  0
  9 11  1  0  0  0  0
  9 25  2  0  0  0  0
 10 26  1  0  0  0  0
 11 26  2  0  0  0  0
 12 27  1  0  0  0  0
 13 27  2  0  0  0  0
 14 28  1  0  0  0  0
 15 16  2  0  0  0  0
 15 29  1  0  0  0  0
 16 30  1  0  0  0  0
 17 24  1  0  0  0  0
 17 28  2  0  0  0  0
 18 30  2  0  0  0  0
 18 31  1  0  0  0  0
 19 32  1  0  0  0  0
 20 32  1  0  0  0  0
 20 33  2  0  0  0  0
 20 34  1  0  0  0  0
 21 23  2  0  0  0  0
 21 39  1  0  0  0  0
 22 24  2  0  0  0  0
 22 40  1  0  0  0  0
 23 48  1  0  0  0  0
 24 41  1  0  0  0  0
 25 56  1  0  0  0  0
 26 57  1  0  0  0  0
 27 76  1  0  0  0  0
 28 77  1  0  0  0  0
 29 31  2  0  0  0  0
 29 76  1  0  0  0  0
 30 78  1  0  0  0  0
 31 79  1  0  0  0  0
 32 61  2  0  0  0  0
 33 62  1  0  0  0  0
 33 65  1  0  0  0  0
 34 66  1  0  0  0  0
 34 71  2  0  0  0  0
 35 49  1  0  0  0  0
 35 67  1  0  0  0  0
 35 72  2  0  0  0  0
 36 58  1  0  0  0  0
 36 63  1  0  0  0  0
 36 73  2  0  0  0  0
 37 59  1  0  0  0  0
 37 68  1  0  0  0  0
 37 74  2  0  0  0  0
 38 64  1  0  0  0  0
 38 69  1  0  0  0  0
 38 75  2  0  0  0  0
 39 42  1  0  0  0  0
 40 49  1  0  0  0  0
 41 63  1  0  0  0  0
 42 44  1  0  0  0  0
 43 45  1  0  0  0  0
 43 46  1  0  0  0  0
 44 48  1  0  0  0  0
 45 50  1  0  0  0  0
 46 64  1  0  0  0  0
 47 50  1  0  0  0  0
 47 64  1  0  0  0  0
 48 67  1  0  0  0  0
 49 63  1  0  0  0  0
 50 62  1  0  0  0  0
 51 59  1  0  0  0  0
 52 60  1  0  0  0  0
 53 60  1  0  0  0  0
 54 60  1  0  0  0  0
 55 70  1  0  0  0  0
 56 69  1  0  0  0  0
 57 77  1  0  0  0  0
 58 60  1  0  0  0  0
 58 68  1  0  0  0  0
 59 70  1  0  0  0  0
 61 62  1  0  0  0  0
M  CHG  1  70   1
M  ISO  4  38 100  57 101  69 100  77 101
M  END
> <Batch ID>
0133

> <Smiles>
CNC(C)C(=O)NC(C(=O)N1Cc2cc([101O:1][101CH2:1]c3ccc(C[100NH:0][100C:0](=O)N4CCCC(n5nc(-c6ccc(Oc7ccc(F)cc7F)cc6)c(C(N)=O)c5N)C4)cc3)ccc2CC1C(=O)NC1CCCc2ccccc21)C(C)(C)C

> <Shape>
0.232

> <Color>
0.203

> <Negative vol penalty>
0.000

$$$$

  -OEChem-04052320553D

 84 93  0     1  0  0  0  0  0999 V2000
  -27.8368  -10.1327   19.6656 C   0  0  0  0  0  0  0  0  0  0  0  0
  -28.4217  -11.3187   19.2334 C   0  0  0  0  0  0  0  0  0  0  0  0
  -23.9360  -29.5076   23.0550 C   0  0  0  0  0  0  0  0  0  0  0  0
  -22.6433  -29.3415   21.0207 C   0  0  0  0  0  0  0  0  0  0  0  0
  -26.5760  -10.1549   20.2604 C   0  0  0  0  0  0  0  0  0  0  0  0
  -27.7455  -12.5275   19.3948 C   0  0  0  0  0  0  0  0  0  0  0  0
  -30.2213  -17.9990   20.5944 C   0  0  0  0  0  0  0  0  0  0  0  0
  -29.3972  -24.3355   15.6332 C   0  0  0  0  0  0  0  0  0  0  0  0
  -28.9561  -23.3694   16.5342 C   0  0  0  0  0  0  0  0  0  0  0  0
  -22.8256  -30.0304   23.7179 C   0  0  0  0  0  0  0  0  0  0  0  0
  -21.5329  -29.8643   21.6836 C   0  0  0  0  0  0  0  0  0  0  0  0
  -30.5449  -19.0815   19.7776 C   0  0  0  0  0  0  0  0  0  0  0  0
  -18.2546  -30.8184   22.9329 C   0  0  0  0  0  0  0  0  0  0  0  0
  -17.0235  -30.1953   22.7283 C   0  0  0  0  0  0  0  0  0  0  0  0
  -28.4368  -20.1179   20.3262 C   0  0  0  0  0  0  0  0  0  0  0  0
  -17.9211  -28.1325   23.6094 C   0  0  0  0  0  0  0  0  0  0  0  0
  -23.8448  -29.1632   21.7064 C   0  0  0  0  0  0  0  0  0  0  0  0
  -25.3512  -27.2677   20.9029 C   0  0  0  0  0  0  0  0  0  0  0  0
  -25.8882  -11.3657   20.4379 C   0  0  0  0  0  0  0  0  0  0  0  0
  -28.9962  -17.9626   21.2758 C   0  0  0  0  0  0  0  0  0  0  0  0
  -26.4737  -12.5657   19.9913 C   0  0  0  0  0  0  0  0  0  0  0  0
  -28.1011  -19.0349   21.1531 C   0  0  0  0  0  0  0  0  0  0  0  0
  -30.9561  -25.1812   17.2909 C   0  0  0  0  0  0  0  0  0  0  0  0
  -30.5239  -24.1916   18.1933 C   0  0  0  0  0  0  0  0  0  0  0  0
  -30.3951  -25.2353   16.0074 C   0  0  0  0  0  0  0  0  0  0  0  0
  -29.5149  -23.2981   17.8098 C   0  0  0  0  0  0  0  0  0  0  0  0
  -21.6241  -30.2087   23.0322 C   0  0  0  0  0  0  0  0  0  0  0  0
  -29.6513  -20.1398   19.6411 C   0  0  0  0  0  0  0  0  0  0  0  0
  -19.3190  -30.0985   23.4756 C   0  0  0  0  0  0  0  0  0  0  0  0
  -16.8568  -28.8524   23.0666 C   0  0  0  0  0  0  0  0  0  0  0  0
  -19.1522  -28.7556   23.8139 C   0  0  0  0  0  0  0  0  0  0  0  0
  -24.9916  -28.6236   21.0209 C   0  0  0  0  0  0  0  0  0  0  0  0
  -26.5093  -27.2826   20.1647 C   0  0  0  0  0  0  0  0  0  0  0  0
  -24.6968  -26.0992   21.4147 C   0  0  0  0  0  0  0  0  0  0  0  0
  -26.4604  -16.0466   21.2308 C   0  0  0  0  0  0  0  0  0  0  0  0
  -25.5077  -17.8930   23.7219 C   0  0  0  0  0  0  0  0  0  0  0  0
  -25.7079  -20.8831   25.3548 C   0  0  0  0  0  0  0  0  0  0  0  0
  -29.5034  -29.1585   15.8448 C   0  0  0  0  0  0  0  0  0  0  0  0
  -24.5072  -11.3341   21.0433 C   0  0  0  0  0  0  0  0  0  0  0  0
  -28.6737  -16.8001   22.1741 C   0  0  0  0  0  0  0  0  0  0  0  0
  -32.0610  -26.1401   17.6631 C   0  0  0  0  0  0  0  0  0  0  0  0
  -26.7818  -19.0537   21.8793 C   0  0  0  0  0  0  0  0  0  0  0  0
  -31.0943  -24.1153   19.5820 C   0  0  0  0  0  0  0  0  0  0  0  0
  -24.0184  -12.7005   21.5171 C   0  0  0  0  0  0  0  0  0  0  0  0
  -29.5004  -31.1301   18.8095 C   0  0  0  0  0  0  0  0  0  0  0  0
  -24.2813  -13.7603   20.4520 C   0  0  0  0  0  0  0  0  0  0  0  0
  -28.3533  -30.5461   19.6360 C   0  0  0  0  0  0  0  0  0  0  0  0
  -29.1799  -31.1248   17.3164 C   0  0  0  0  0  0  0  0  0  0  0  0
  -27.6303  -29.2296   17.6006 C   0  0  0  0  0  0  0  0  0  0  0  0
  -32.2506  -26.2791   19.1683 C   0  0  0  0  0  0  0  0  0  0  0  0
  -25.7824  -13.8998   20.1713 C   0  0  1  0  0  0  0  0  0  0  0  0
  -27.1771  -16.6292   22.4160 C   0  0  1  0  0  0  0  0  0  0  0  0
  -27.9296  -29.1623   19.1080 C   0  0  2  0  0  0  0  0  0  0  0  0
  -24.7836  -22.1094   27.3395 C   0  0  0  0  0  0  0  0  0  0  0  0
  -22.8980  -18.3637   22.2126 C   0  0  0  0  0  0  0  0  0  0  0  0
  -22.4420  -20.2921   23.7428 C   0  0  0  0  0  0  0  0  0  0  0  0
  -22.6282  -17.9836   24.6697 C   0  0  0  0  0  0  0  0  0  0  0  0
  -28.3874  -21.1531   26.5820 C   0  0  0  0  0  0  0  0  0  0  0  0
  -30.8460  -26.2411   14.9967 C   0  0  0  0  0  0  0  0  0  0  0  0
  -29.0024  -22.2472   18.7501 C   0  0  0  0  0  0  0  0  0  1  0  0
  -29.7094  -27.1131   14.4545 C   0  0  0  0  0  0  0  0  0  0  0  0
  -24.7119  -19.1679   23.8647 C   0  0  1  0  0  0  0  0  0  0  0  0
  -25.9021  -21.2182   26.8226 C   0  0  2  0  0  0  0  0  0  0  0  0
  -23.1940  -18.9509   23.6071 C   0  0  0  0  0  0  0  0  0  0  0  0
  -25.8518  -29.4405   20.4070 N   0  0  0  0  0  0  0  0  0  0  0  0
  -26.7634  -28.5954   19.8962 N   0  0  0  0  0  0  0  0  0  0  0  0
  -26.5093  -17.8913   22.7407 N   0  0  0  0  0  0  0  0  0  0  0  0
  -28.7869  -29.7831   16.8790 N   0  0  0  0  0  0  0  0  0  0  0  0
  -27.3251  -26.3006   19.7257 N   0  0  0  0  0  0  0  0  0  0  0  0
  -23.5163  -26.2635   22.1523 N   0  0  0  0  0  0  0  0  0  0  0  0
  -26.4235  -14.6653   21.2189 N   0  0  0  0  0  0  0  0  0  0  0  0
  -25.0237  -19.6977   25.1878 N   0  0  0  0  0  0  0  0  0  0  0  0
  -29.0693  -27.8855   15.4959 N   0  0  0  0  0  0  0  0  0  0  0  0
  -32.3491  -24.9141   19.7632 N   0  3  0  0  0  0  0  0  0  0  0  0
  -27.1982  -21.9253   27.0253 N   0  3  0  0  0  0  0  0  0  0  0  0
  -25.1543  -24.9447   21.2376 O   0  0  0  0  0  0  0  0  0  0  0  0
  -25.9755  -16.7948   20.3902 O   0  0  0  0  0  0  0  0  0  0  0  0
  -25.2550  -16.9366   24.4587 O   0  0  0  0  0  0  0  0  0  0  0  0
  -26.1185  -21.6029   24.4472 O   0  0  0  0  0  0  0  0  0  0  0  0
  -30.4624  -29.6935   15.2781 O   0  0  0  0  0  0  0  0  0  0  0  0
  -20.5404  -30.7187   23.6788 O   0  0  0  0  0  0  0  0  0  0  0  0
  -29.9644  -21.1974   18.8440 O   0  0  0  0  0  0  0  0  0  1  0  0
  -15.6740  -28.2547   22.8715 F   0  0  0  0  0  0  0  0  0  0  0  0
  -20.1707  -28.0591   24.3368 F   0  0  0  0  0  0  0  0  0  0  0  0
  1  2  1  0  0  0  0
  1  5  2  0  0  0  0
  2  6  2  0  0  0  0
  3 10  2  0  0  0  0
  3 17  1  0  0  0  0
  4 11  1  0  0  0  0
  4 17  2  0  0  0  0
  5 19  1  0  0  0  0
  6 21  1  0  0  0  0
  7 12  2  0  0  0  0
  7 20  1  0  0  0  0
  8  9  2  0  0  0  0
  8 25  1  0  0  0  0
  9 26  1  0  0  0  0
 10 27  1  0  0  0  0
 11 27  2  0  0  0  0
 12 28  1  0  0  0  0
 13 14  2  0  0  0  0
 13 29  1  0  0  0  0
 14 30  1  0  0  0  0
 15 22  1  0  0  0  0
 15 28  2  0  0  0  0
 16 30  2  0  0  0  0
 16 31  1  0  0  0  0
 17 32  1  0  0  0  0
 18 32  1  0  0  0  0
 18 33  2  0  0  0  0
 18 34  1  0  0  0  0
 19 21  2  0  0  0  0
 19 39  1  0  0  0  0
 20 22  2  0  0  0  0
 20 40  1  0  0  0  0
 21 51  1  0  0  0  0
 22 42  1  0  0  0  0
 23 24  1  0  0  0  0
 23 25  2  0  0  0  0
 23 41  1  0  0  0  0
 24 26  2  0  0  0  0
 24 43  1  0  0  0  0
 25 59  1  0  0  0  0
 26 60  1  0  0  0  0
 27 81  1  0  0  0  0
 28 82  1  0  0  0  0
 29 31  2  0  0  0  0
 29 81  1  0  0  0  0
 30 83  1  0  0  0  0
 31 84  1  0  0  0  0
 32 65  2  0  0  0  0
 33 66  1  0  0  0  0
 33 69  1  0  0  0  0
 34 70  1  0  0  0  0
 34 76  2  0  0  0  0
 35 52  1  0  0  0  0
 35 71  1  0  0  0  0
 35 77  2  0  0  0  0
 36 62  1  0  0  0  0
 36 67  1  0  0  0  0
 36 78  2  0  0  0  0
 37 63  1  0  0  0  0
 37 72  1  0  0  0  0
 37 79  2  0  0  0  0
 38 68  1  0  0  0  0
 38 73  1  0  0  0  0
 38 80  2  0  0  0  0
 39 44  1  0  0  0  0
 40 52  1  0  0  0  0
 41 50  1  0  0  0  0
 42 67  1  0  0  0  0
 43 74  1  0  0  0  0
 44 46  1  0  0  0  0
 45 47  1  0  0  0  0
 45 48  1  0  0  0  0
 46 51  1  0  0  0  0
 47 53  1  0  0  0  0
 48 68  1  0  0  0  0
 49 53  1  0  0  0  0
 49 68  1  0  0  0  0
 50 74  1  0  0  0  0
 51 71  1  0  0  0  0
 52 67  1  0  0  0  0
 53 66  1  0  0  0  0
 54 63  1  0  0  0  0
 55 64  1  0  0  0  0
 56 64  1  0  0  0  0
 57 64  1  0  0  0  0
 58 75  1  0  0  0  0
 59 61  1  0  0  0  0
 60 82  1  0  0  0  0
 61 73  1  0  0  0  0
 62 64  1  0  0  0  0
 62 72  1  0  0  0  0
 63 75  1  0  0  0  0
 65 66  1  0  0  0  0
M  CHG  2  74   1  75   1
M  ISO  4  38 100  60 101  73 100  82 101
M  END
> <Batch ID>
0133

> <Smiles>
CNC(C)C(=O)NC(C(=O)N1Cc2cc([101O:1][101CH2:1]c3ccc(CC[100NH:0][100C:0](=O)N4CCCC(n5nc(-c6ccc(Oc7ccc(F)cc7F)cc6)c(C(N)=O)c5N)C4)c4c3CNCC4)ccc2CC1C(=O)NC1CCCc2ccccc21)C(C)(C)C

> <Shape>
0.231

> <Color>
0.062

> <Negative vol penalty>
0.000

$$$$

  -OEChem-04052320553D

 86 95  0     1  0  0  0  0  0999 V2000
  -26.8633  -28.9959   12.1004 C   0  0  0  0  0  0  0  0  0  0  0  0
  -27.2035  -28.1584   13.1578 C   0  0  0  0  0  0  0  0  0  0  0  0
  -22.9610  -10.0363   19.8913 C   0  0  0  0  0  0  0  0  0  0  0  0
  -23.9500   -9.6226   22.0564 C   0  0  0  0  0  0  0  0  0  0  0  0
  -26.8880  -30.3793   12.2726 C   0  0  0  0  0  0  0  0  0  0  0  0
  -27.5698  -28.7037   14.3878 C   0  0  0  0  0  0  0  0  0  0  0  0
  -25.3701  -26.3443   18.2915 C   0  0  0  0  0  0  0  0  0  0  0  0
  -26.8164  -20.6102   20.7303 C   0  0  0  0  0  0  0  0  0  0  0  0
  -27.4059  -19.4761   21.2887 C   0  0  0  0  0  0  0  0  0  0  0  0
  -22.2075   -8.8688   20.0124 C   0  0  0  0  0  0  0  0  0  0  0  0
  -23.1964   -8.4551   22.1775 C   0  0  0  0  0  0  0  0  0  0  0  0
  -25.9104  -25.1197   18.6818 C   0  0  0  0  0  0  0  0  0  0  0  0
  -20.0210   -7.6131   22.9698 C   0  0  0  0  0  0  0  0  0  0  0  0
  -19.3861   -7.3769   24.1891 C   0  0  0  0  0  0  0  0  0  0  0  0
  -29.5384  -20.1262   20.3578 C   0  0  0  0  0  0  0  0  0  0  0  0
  -27.0814  -26.2171   20.4828 C   0  0  0  0  0  0  0  0  0  0  0  0
  -20.6290   -5.3202   24.4379 C   0  0  0  0  0  0  0  0  0  0  0  0
  -23.8324  -10.4132   20.9132 C   0  0  0  0  0  0  0  0  0  0  0  0
  -24.2463  -12.9137   21.2029 C   0  0  0  0  0  0  0  0  0  0  0  0
  -27.2455  -30.9417   13.5081 C   0  0  0  0  0  0  0  0  0  0  0  0
  -25.6906  -27.5182   18.9885 C   0  0  0  0  0  0  0  0  0  0  0  0
  -27.6007  -30.0959   14.5762 C   0  0  0  0  0  0  0  0  0  0  0  0
  -28.9489  -21.2604   19.7994 C   0  0  0  0  0  0  0  0  0  0  0  0
  -26.5418  -27.4550   20.1010 C   0  0  0  0  0  0  0  0  0  0  0  0
  -27.5879  -21.5023   19.9856 C   0  0  0  0  0  0  0  0  0  0  0  0
  -28.7669  -19.2341   21.1025 C   0  0  0  0  0  0  0  0  0  0  0  0
  -22.3252   -8.0782   21.1555 C   0  0  0  0  0  0  0  0  0  0  0  0
  -26.7684  -25.0564   19.7758 C   0  0  0  0  0  0  0  0  0  0  0  0
  -20.9598   -6.7028   22.4845 C   0  0  0  0  0  0  0  0  0  0  0  0
  -19.6901   -6.2305   24.9232 C   0  0  0  0  0  0  0  0  0  0  0  0
  -21.2639   -5.5563   23.2186 C   0  0  0  0  0  0  0  0  0  0  0  0
  -24.6115  -11.6188   20.7885 C   0  0  0  0  0  0  0  0  0  0  0  0
  -25.3208  -13.6988   20.8630 C   0  0  0  0  0  0  0  0  0  0  0  0
  -23.0434  -13.3663   21.8383 C   0  0  0  0  0  0  0  0  0  0  0  0
  -27.1333  -30.2494   18.2383 C   0  0  0  0  0  0  0  0  0  0  0  0
  -26.2410  -31.0935   21.2406 C   0  0  0  0  0  0  0  0  0  0  0  0
  -25.3724  -30.1071   24.3901 C   0  0  0  0  0  0  0  0  0  0  0  0
  -30.8269  -14.5824   20.6442 C   0  0  0  0  0  0  0  0  0  0  0  0
  -27.3034  -32.4437   13.6325 C   0  0  0  0  0  0  0  0  0  0  0  0
  -25.0784  -28.8272   18.5713 C   0  0  0  0  0  0  0  0  0  0  0  0
  -26.9013  -28.6831   20.8953 C   0  0  0  0  0  0  0  0  0  0  0  0
  -27.3407  -32.9342   15.0775 C   0  0  0  0  0  0  0  0  0  0  0  0
  -31.8104  -22.2245   17.6406 C   0  0  0  0  0  0  0  0  0  0  0  0
  -32.2384  -22.4011   19.0865 C   0  0  0  0  0  0  0  0  0  0  0  0
  -29.3716  -12.6794   18.0103 C   0  0  0  0  0  0  0  0  0  0  0  0
  -30.4502  -21.5546   17.7642 C   0  0  0  0  0  0  0  0  0  0  0  0
  -30.9616  -22.8449   19.7913 C   0  0  0  0  0  0  0  0  0  0  0  0
  -28.3570  -32.1347   15.8867 C   0  0  0  0  0  0  0  0  0  0  0  0
  -27.9765  -12.3357   18.5350 C   0  0  0  0  0  0  0  0  0  0  0  0
  -30.4131  -12.6684   19.1270 C   0  0  0  0  0  0  0  0  0  0  0  0
  -28.6884  -13.1702   20.8144 C   0  0  0  0  0  0  0  0  0  0  0  0
  -29.8022  -22.2092   18.9975 C   0  0  0  0  0  0  0  0  0  0  0  0
  -27.9795  -30.6491   15.9329 C   0  0  1  0  0  0  0  0  0  0  0  0
  -25.8799  -30.0379   19.0395 C   0  0  1  0  0  0  0  0  0  0  0  0
  -27.5941  -13.2235   19.7345 C   0  0  2  0  0  0  0  0  0  0  0  0
  -24.7353  -31.0259   26.6367 C   0  0  0  0  0  0  0  0  0  0  0  0
  -29.1579  -31.8158   21.7698 C   0  0  0  0  0  0  0  0  0  0  0  0
  -28.6432  -31.8060   24.2199 C   0  0  0  0  0  0  0  0  0  0  0  0
  -27.4960  -33.4293   22.7127 C   0  0  0  0  0  0  0  0  0  0  0  0
  -22.7256  -28.7854   24.3091 C   0  0  0  0  0  0  0  0  0  0  0  0
  -26.9311  -22.7147   19.3939 C   0  0  0  0  0  0  0  0  0  1  0  0
  -30.7509  -17.7789   21.5166 C   0  0  0  0  0  0  0  0  0  0  0  0
  -31.0916  -16.4768   22.2254 C   0  0  0  0  0  0  0  0  0  0  0  0
  -26.8634  -30.9836   22.6116 C   0  0  1  0  0  0  0  0  0  0  0  0
  -24.2264  -30.5214   25.2953 C   0  0  2  0  0  0  0  0  0  0  0  0
  -28.0351  -31.9857   22.8126 C   0  0  0  0  0  0  0  0  0  0  0  0
  -25.8232  -11.5794   20.2280 N   0  0  0  0  0  0  0  0  0  0  0  0
  -26.2288  -12.8592   20.2878 N   0  0  0  0  0  0  0  0  0  0  0  0
  -26.2823  -29.9404   20.4441 N   0  0  0  0  0  0  0  0  0  0  0  0
  -29.9910  -13.5310   20.2332 N   0  0  0  0  0  0  0  0  0  0  0  0
  -25.5681  -15.0185   21.0030 N   0  0  0  0  0  0  0  0  0  0  0  0
  -22.0405  -12.4275   22.1162 N   0  0  0  0  0  0  0  0  0  0  0  0
  -29.3627  -18.0877   21.6681 N   0  0  0  0  0  0  0  0  0  0  0  0
  -26.9130  -30.4281   16.8859 N   0  0  0  0  0  0  0  0  0  0  0  0
  -25.7732  -31.1393   23.5685 N   0  0  0  0  0  0  0  0  0  0  0  0
  -30.3485  -15.3555   21.6950 N   0  0  0  0  0  0  0  0  0  0  0  0
  -23.3173  -29.3665   25.5417 N   0  3  0  0  0  0  0  0  0  0  0  0
  -22.8564  -14.5706   22.1356 O   0  0  0  0  0  0  0  0  0  0  0  0
  -28.2196  -30.2519   18.8054 O   0  0  0  0  0  0  0  0  0  0  0  0
  -25.7304  -32.1610   20.8921 O   0  0  0  0  0  0  0  0  0  0  0  0
  -25.8654  -28.9815   24.4125 O   0  0  0  0  0  0  0  0  0  0  0  0
  -31.9161  -14.8182   20.1105 O   0  0  0  0  0  0  0  0  0  0  0  0
  -21.5898   -6.9390   21.2741 O   0  0  0  0  0  0  0  0  0  0  0  0
  -27.2976  -23.8625   20.1584 O   0  0  0  0  0  0  0  0  0  1  0  0
  -19.0815   -6.0046   26.0949 F   0  0  0  0  0  0  0  0  0  0  0  0
  -22.1658   -4.6787   22.7580 F   0  0  0  0  0  0  0  0  0  0  0  0
  1  2  1  0  0  0  0
  1  5  2  0  0  0  0
  2  6  2  0  0  0  0
  3 10  2  0  0  0  0
  3 18  1  0  0  0  0
  4 11  1  0  0  0  0
  4 18  2  0  0  0  0
  5 20  1  0  0  0  0
  6 22  1  0  0  0  0
  7 12  2  0  0  0  0
  7 21  1  0  0  0  0
  8  9  2  0  0  0  0
  8 25  1  0  0  0  0
  9 26  1  0  0  0  0
 10 27  1  0  0  0  0
 11 27  2  0  0  0  0
 12 28  1  0  0  0  0
 13 14  2  0  0  0  0
 13 29  1  0  0  0  0
 14 30  1  0  0  0  0
 15 23  1  0  0  0  0
 15 26  2  0  0  0  0
 16 24  1  0  0  0  0
 16 28  2  0  0  0  0
 17 30  2  0  0  0  0
 17 31  1  0  0  0  0
 18 32  1  0  0  0  0
 19 32  1  0  0  0  0
 19 33  2  0  0  0  0
 19 34  1  0  0  0  0
 20 22  2  0  0  0  0
 20 39  1  0  0  0  0
 21 24  2  0  0  0  0
 21 40  1  0  0  0  0
 22 53  1  0  0  0  0
 23 25  2  0  0  0  0
 23 52  1  0  0  0  0
 24 41  1  0  0  0  0
 25 61  1  0  0  0  0
 26 73  1  0  0  0  0
 27 83  1  0  0  0  0
 28 84  1  0  0  0  0
 29 31  2  0  0  0  0
 29 83  1  0  0  0  0
 30 85  1  0  0  0  0
 31 86  1  0  0  0  0
 32 67  2  0  0  0  0
 33 68  1  0  0  0  0
 33 71  1  0  0  0  0
 34 72  1  0  0  0  0
 34 78  2  0  0  0  0
 35 54  1  0  0  0  0
 35 74  1  0  0  0  0
 35 79  2  0  0  0  0
 36 64  1  0  0  0  0
 36 69  1  0  0  0  0
 36 80  2  0  0  0  0
 37 65  1  0  0  0  0
 37 75  1  0  0  0  0
 37 81  2  0  0  0  0
 38 70  1  0  0  0  0
 38 76  1  0  0  0  0
 38 82  2  0  0  0  0
 39 42  1  0  0  0  0
 40 54  1  0  0  0  0
 41 69  1  0  0  0  0
 42 48  1  0  0  0  0
 43 44  1  0  0  0  0
 43 46  1  0  0  0  0
 44 47  1  0  0  0  0
 45 49  1  0  0  0  0
 45 50  1  0  0  0  0
 46 52  1  0  0  0  0
 47 52  1  0  0  0  0
 48 53  1  0  0  0  0
 49 55  1  0  0  0  0
 50 70  1  0  0  0  0
 51 55  1  0  0  0  0
 51 70  1  0  0  0  0
 53 74  1  0  0  0  0
 54 69  1  0  0  0  0
 55 68  1  0  0  0  0
 56 65  1  0  0  0  0
 57 66  1  0  0  0  0
 58 66  1  0  0  0  0
 59 66  1  0  0  0  0
 60 77  1  0  0  0  0
 61 84  1  0  0  0  0
 62 63  1  0  0  0  0
 62 73  1  0  0  0  0
 63 76  1  0  0  0  0
 64 66  1  0  0  0  0
 64 75  1  0  0  0  0
 65 77  1  0  0  0  0
 67 68  1  0  0  0  0
M  CHG  1  77   1
M  ISO  4  38 100  61 101  76 100  84 101
M  END
> <Batch ID>
0133

> <Smiles>
CNC(C)C(=O)NC(C(=O)N1Cc2cc([101O:1][101CH2:1]c3ccc(NCC[100NH:0][100C:0](=O)N4CCCC(n5nc(-c6ccc(Oc7ccc(F)cc7F)cc6)c(C(N)=O)c5N)C4)cc3C3CCCC3)ccc2CC1C(=O)NC1CCCc2ccccc21)C(C)(C)C

> <Shape>
0.330

> <Color>
0.183

> <Negative vol penalty>
0.000

$$$$

  -OEChem-04052320553D

 84 93  0     1  0  0  0  0  0999 V2000
  -14.9282  -23.8088   17.1166 C   0  0  0  0  0  0  0  0  0  0  0  0
  -15.3635  -22.5062   16.8954 C   0  0  0  0  0  0  0  0  0  0  0  0
  -27.5459  -23.5834   20.8729 C   0  0  0  0  0  0  0  0  0  0  0  0
  -28.4077  -23.3025   18.6334 C   0  0  0  0  0  0  0  0  0  0  0  0
  -15.6273  -24.6367   17.9939 C   0  0  0  0  0  0  0  0  0  0  0  0
  -16.4991  -22.0310   17.5505 C   0  0  0  0  0  0  0  0  0  0  0  0
  -19.2454  -16.0188   20.3123 C   0  0  0  0  0  0  0  0  0  0  0  0
  -27.6781  -24.9665   20.7503 C   0  0  0  0  0  0  0  0  0  0  0  0
  -28.5399  -24.6856   18.5108 C   0  0  0  0  0  0  0  0  0  0  0  0
  -20.3980  -15.2364   20.2566 C   0  0  0  0  0  0  0  0  0  0  0  0
  -25.9903  -27.5112   19.2982 C   0  0  0  0  0  0  0  0  0  0  0  0
  -24.9277  -28.3048   19.7303 C   0  0  0  0  0  0  0  0  0  0  0  0
  -21.4803  -16.7308   21.8104 C   0  0  0  0  0  0  0  0  0  0  0  0
  -24.0209  -11.7835   20.9376 C   0  0  0  0  0  0  0  0  0  0  0  0
  -25.0484  -13.4747   19.5706 C   0  0  0  0  0  0  0  0  0  0  0  0
  -26.3844  -29.3869   21.3254 C   0  0  0  0  0  0  0  0  0  0  0  0
  -27.9107  -22.7513   19.8144 C   0  0  0  0  0  0  0  0  0  0  0  0
  -26.6518  -20.5424   19.6060 C   0  0  0  0  0  0  0  0  0  0  0  0
  -16.7664  -24.1684   18.6676 C   0  0  0  0  0  0  0  0  0  0  0  0
  -19.2052  -17.1711   21.1104 C   0  0  0  0  0  0  0  0  0  0  0  0
  -17.2149  -22.8538   18.4367 C   0  0  0  0  0  0  0  0  0  0  0  0
  -20.3251  -17.5247   21.8765 C   0  0  0  0  0  0  0  0  0  0  0  0
  -23.9235  -12.9631   20.2080 C   0  0  0  0  0  0  0  0  0  0  0  0
  -28.1751  -25.5176   19.5693 C   0  0  0  0  0  0  0  0  0  0  0  0
  -21.5167  -15.5939   21.0035 C   0  0  0  0  0  0  0  0  0  0  0  0
  -27.2499  -27.6554   19.8798 C   0  0  0  0  0  0  0  0  0  0  0  0
  -25.1247  -29.2426   20.7438 C   0  0  0  0  0  0  0  0  0  0  0  0
  -27.4470  -28.5932   20.8933 C   0  0  0  0  0  0  0  0  0  0  0  0
  -27.7749  -21.3224   19.9406 C   0  0  0  0  0  0  0  0  0  0  0  0
  -25.2561  -11.1588   20.9986 C   0  0  0  0  0  0  0  0  0  0  0  0
  -26.2377  -12.7743   19.6929 C   0  0  0  0  0  0  0  0  0  0  0  0
  -27.0244  -19.2558   19.9099 C   0  0  0  0  0  0  0  0  0  0  0  0
  -25.3850  -20.9449   19.0685 C   0  0  0  0  0  0  0  0  0  0  0  0
  -18.8051  -20.2744   20.5510 C   0  0  0  0  0  0  0  0  0  0  0  0
  -18.7880  -20.4583   23.7896 C   0  0  0  0  0  0  0  0  0  0  0  0
  -19.7049  -19.0813   26.7745 C   0  0  0  0  0  0  0  0  0  0  0  0
  -30.7747  -15.1240   19.8146 C   0  0  0  0  0  0  0  0  0  0  0  0
  -17.5166  -25.1154   19.5703 C   0  0  0  0  0  0  0  0  0  0  0  0
  -17.9452  -17.9896   21.1803 C   0  0  0  0  0  0  0  0  0  0  0  0
  -20.3262  -18.7410   22.7649 C   0  0  0  0  0  0  0  0  0  0  0  0
  -18.4935  -24.4148   20.5111 C   0  0  0  0  0  0  0  0  0  0  0  0
  -31.0302  -17.5018   22.4523 C   0  0  0  0  0  0  0  0  0  0  0  0
  -19.3218  -23.3846   19.7499 C   0  0  0  0  0  0  0  0  0  0  0  0
  -24.9658   -9.8784   23.2235 C   0  0  0  0  0  0  0  0  0  0  0  0
  -26.4181   -9.8060   22.8690 C   0  0  0  0  0  0  0  0  0  0  0  0
  -30.1187  -18.6454   22.0034 C   0  0  0  0  0  0  0  0  0  0  0  0
  -31.7621  -16.8670   21.2719 C   0  0  0  0  0  0  0  0  0  0  0  0
  -29.9781  -17.5639   19.7210 C   0  0  0  0  0  0  0  0  0  0  0  0
  -18.4279  -22.2940   19.1476 C   0  0  1  0  0  0  0  0  0  0  0  0
  -25.3846   -9.8925   21.7771 C   0  0  0  0  0  0  0  0  0  0  0  0
  -18.1905  -19.4269   21.6288 C   0  0  1  0  0  0  0  0  0  0  0  0
  -29.1760  -18.1991   20.8697 C   0  0  2  0  0  0  0  0  0  0  0  0
  -19.5815  -19.4808   29.2489 C   0  0  0  0  0  0  0  0  0  0  0  0
  -20.9846  -22.5633   23.5568 C   0  0  0  0  0  0  0  0  0  0  0  0
  -21.4708  -22.2243   25.9893 C   0  0  0  0  0  0  0  0  0  0  0  0
  -19.2351  -23.0664   25.2716 C   0  0  0  0  0  0  0  0  0  0  0  0
  -18.1709  -16.5894   27.2176 C   0  0  0  0  0  0  0  0  0  0  0  0
  -22.6094  -13.6805   20.1087 C   0  0  0  0  0  0  0  0  0  1  0  0
  -28.6561  -12.6817   19.0861 C   0  0  0  0  0  0  0  0  0  0  0  0
  -29.6787  -13.4900   18.3021 C   0  0  0  0  0  0  0  0  0  0  0  0
  -19.8405  -20.6473   24.8552 C   0  0  1  0  0  0  0  0  0  0  0  0
  -18.9200  -18.8228   28.0480 C   0  0  2  0  0  0  0  0  0  0  0  0
  -20.3837  -22.1034   24.9001 C   0  0  0  0  0  0  0  0  0  0  0  0
  -28.7853  -20.5924   20.4205 N   0  0  0  0  0  0  0  0  0  0  0  0
  -26.3710  -11.6254   20.3928 N   0  0  0  0  0  0  0  0  0  0  0  0
  -28.2983  -19.3402   20.3897 N   0  0  0  0  0  0  0  0  0  0  0  0
  -19.0727  -19.5125   22.7944 N   0  0  0  0  0  0  0  0  0  0  0  0
  -30.8112  -16.4645   20.2328 N   0  0  0  0  0  0  0  0  0  0  0  0
  -26.3833  -18.0719   19.8109 N   0  0  0  0  0  0  0  0  0  0  0  0
  -25.1687  -22.3063   18.8153 N   0  0  0  0  0  0  0  0  0  0  0  0
  -27.3750  -13.3075   19.0370 N   0  0  0  0  0  0  0  0  0  0  0  0
  -18.0260  -21.3493   20.1676 N   0  0  0  0  0  0  0  0  0  0  0  0
  -19.2410  -20.1944   26.1058 N   0  0  0  0  0  0  0  0  0  0  0  0
  -29.8401  -14.8262   18.8304 N   0  0  0  0  0  0  0  0  0  0  0  0
  -18.8231  -17.3586   28.3084 N   0  3  0  0  0  0  0  0  0  0  0  0
  -24.4660  -20.1235   18.8355 O   0  0  0  0  0  0  0  0  0  0  0  0
  -19.9054  -19.9761   20.1016 O   0  0  0  0  0  0  0  0  0  0  0  0
  -17.7484  -21.1202   23.8423 O   0  0  0  0  0  0  0  0  0  0  0  0
  -20.6386  -18.3694   26.4114 O   0  0  0  0  0  0  0  0  0  0  0  0
  -31.5161  -14.2559   20.2874 O   0  0  0  0  0  0  0  0  0  0  0  0
  -28.3041  -26.8673   19.4492 O   0  0  0  0  0  0  0  0  0  0  0  0
  -22.6432  -14.8324   20.9504 O   0  0  0  0  0  0  0  0  0  1  0  0
  -24.1046  -30.0058   21.1576 F   0  0  0  0  0  0  0  0  0  0  0  0
  -28.6551  -28.7371   21.4550 F   0  0  0  0  0  0  0  0  0  0  0  0
  1  2  1  0  0  0  0
  1  5  2  0  0  0  0
  2  6  2  0  0  0  0
  3  8  2  0  0  0  0
  3 17  1  0  0  0  0
  4  9  1  0  0  0  0
  4 17  2  0  0  0  0
  5 19  1  0  0  0  0
  6 21  1  0  0  0  0
  7 10  2  0  0  0  0
  7 20  1  0  0  0  0
  8 24  1  0  0  0  0
  9 24  2  0  0  0  0
 10 25  1  0  0  0  0
 11 12  2  0  0  0  0
 11 26  1  0  0  0  0
 12 27  1  0  0  0  0
 13 22  1  0  0  0  0
 13 25  2  0  0  0  0
 14 23  2  0  0  0  0
 14 30  1  0  0  0  0
 15 23  1  0  0  0  0
 15 31  2  0  0  0  0
 16 27  2  0  0  0  0
 16 28  1  0  0  0  0
 17 29  1  0  0  0  0
 18 29  1  0  0  0  0
 18 32  2  0  0  0  0
 18 33  1  0  0  0  0
 19 21  2  0  0  0  0
 19 38  1  0  0  0  0
 20 22  2  0  0  0  0
 20 39  1  0  0  0  0
 21 49  1  0  0  0  0
 22 40  1  0  0  0  0
 23 58  1  0  0  0  0
 24 81  1  0  0  0  0
 25 82  1  0  0  0  0
 26 28  2  0  0  0  0
 26 81  1  0  0  0  0
 27 83  1  0  0  0  0
 28 84  1  0  0  0  0
 29 64  2  0  0  0  0
 30 50  1  0  0  0  0
 30 65  2  0  0  0  0
 31 65  1  0  0  0  0
 31 71  1  0  0  0  0
 32 66  1  0  0  0  0
 32 69  1  0  0  0  0
 33 70  1  0  0  0  0
 33 76  2  0  0  0  0
 34 51  1  0  0  0  0
 34 72  1  0  0  0  0
 34 77  2  0  0  0  0
 35 61  1  0  0  0  0
 35 67  1  0  0  0  0
 35 78  2  0  0  0  0
 36 62  1  0  0  0  0
 36 73  1  0  0  0  0
 36 79  2  0  0  0  0
 37 68  1  0  0  0  0
 37 74  1  0  0  0  0
 37 80  2  0  0  0  0
 38 41  1  0  0  0  0
 39 51  1  0  0  0  0
 40 67  1  0  0  0  0
 41 43  1  0  0  0  0
 42 46  1  0  0  0  0
 42 47  1  0  0  0  0
 43 49  1  0  0  0  0
 44 45  1  0  0  0  0
 44 50  1  0  0  0  0
 45 50  1  0  0  0  0
 46 52  1  0  0  0  0
 47 68  1  0  0  0  0
 48 52  1  0  0  0  0
 48 68  1  0  0  0  0
 49 72  1  0  0  0  0
 51 67  1  0  0  0  0
 52 66  1  0  0  0  0
 53 62  1  0  0  0  0
 54 63  1  0  0  0  0
 55 63  1  0  0  0  0
 56 63  1  0  0  0  0
 57 75  1  0  0  0  0
 58 82  1  0  0  0  0
 59 60  1  0  0  0  0
 59 71  1  0  0  0  0
 60 74  1  0  0  0  0
 61 63  1  0  0  0  0
 61 73  1  0  0  0  0
 62 75  1  0  0  0  0
 64 66  1  0  0  0  0
M  CHG  1  75   1
M  ISO  4  37 100  58 101  74 100  82 101
M  END
> <Batch ID>
0133

> <Smiles>
CNC(C)C(=O)NC(C(=O)N1Cc2cc([101O:1][101CH2:1]c3cc(NCC[100NH:0][100C:0](=O)N4CCCC(n5nc(-c6ccc(Oc7ccc(F)cc7F)cc6)c(C(N)=O)c5N)C4)nc(C4CC4)c3)ccc2CC1C(=O)NC1CCCc2ccccc21)C(C)(C)C

> <Shape>
0.190

> <Color>
0.104

> <Negative vol penalty>
0.000

$$$$

  -OEChem-04052320553D

 82 90  0     1  0  0  0  0  0999 V2000
  -27.9015  -24.9658   16.2374 C   0  0  0  0  0  0  0  0  0  0  0  0
  -26.7446  -25.1061   16.9972 C   0  0  0  0  0  0  0  0  0  0  0  0
  -27.6075  -12.6234   19.1833 C   0  0  0  0  0  0  0  0  0  0  0  0
  -29.0927  -13.8903   20.6067 C   0  0  0  0  0  0  0  0  0  0  0  0
  -29.1123  -25.4663   16.7145 C   0  0  0  0  0  0  0  0  0  0  0  0
  -26.7979  -25.7460   18.2350 C   0  0  0  0  0  0  0  0  0  0  0  0
  -22.9974  -29.0279   18.8907 C   0  0  0  0  0  0  0  0  0  0  0  0
  -28.6665  -11.7924   18.8179 C   0  0  0  0  0  0  0  0  0  0  0  0
  -30.1517  -13.0593   20.2413 C   0  0  0  0  0  0  0  0  0  0  0  0
  -21.7511  -28.5002   19.2254 C   0  0  0  0  0  0  0  0  0  0  0  0
  -31.3106  -11.9064   16.7155 C   0  0  0  0  0  0  0  0  0  0  0  0
  -31.4522  -11.5949   15.3633 C   0  0  0  0  0  0  0  0  0  0  0  0
  -22.1422  -29.0594   21.5391 C   0  0  0  0  0  0  0  0  0  0  0  0
  -31.1992   -9.2478   15.8774 C   0  0  0  0  0  0  0  0  0  0  0  0
  -27.8206  -13.6725   20.0777 C   0  0  0  0  0  0  0  0  0  0  0  0
  -25.8419  -14.3560   21.5355 C   0  0  0  0  0  0  0  0  0  0  0  0
  -29.1787  -26.1212   17.9543 C   0  0  0  0  0  0  0  0  0  0  0  0
  -23.8315  -29.5663   19.8811 C   0  0  0  0  0  0  0  0  0  0  0  0
  -28.0109  -26.2545   18.7296 C   0  0  0  0  0  0  0  0  0  0  0  0
  -23.3976  -29.5956   21.2141 C   0  0  0  0  0  0  0  0  0  0  0  0
  -29.9386  -12.0103   19.3469 C   0  0  0  0  0  0  0  0  0  0  0  0
  -21.3245  -28.5133   20.5501 C   0  0  0  0  0  0  0  0  0  0  0  0
  -31.1134  -10.8886   17.6487 C   0  0  0  0  0  0  0  0  0  0  0  0
  -31.3965  -10.2656   14.9442 C   0  0  0  0  0  0  0  0  0  0  0  0
  -31.0577   -9.5593   17.2297 C   0  0  0  0  0  0  0  0  0  0  0  0
  -26.7272  -14.5316   20.4551 C   0  0  0  0  0  0  0  0  0  0  0  0
  -24.9935  -15.4337   21.4629 C   0  0  0  0  0  0  0  0  0  0  0  0
  -25.7910  -13.3120   22.5170 C   0  0  0  0  0  0  0  0  0  0  0  0
  -26.7221  -28.8667   21.0030 C   0  0  0  0  0  0  0  0  0  0  0  0
  -26.2975  -31.5981   22.7004 C   0  0  0  0  0  0  0  0  0  0  0  0
  -24.1304  -33.8533   24.0659 C   0  0  0  0  0  0  0  0  0  0  0  0
  -25.5601  -20.9189   19.1300 C   0  0  0  0  0  0  0  0  0  0  0  0
  -30.5190  -26.6037   18.4496 C   0  0  0  0  0  0  0  0  0  0  0  0
  -25.1618  -30.1558   19.4999 C   0  0  0  0  0  0  0  0  0  0  0  0
  -24.2469  -30.1806   22.3118 C   0  0  0  0  0  0  0  0  0  0  0  0
  -30.4200  -27.6000   19.6019 C   0  0  0  0  0  0  0  0  0  0  0  0
  -23.0854  -18.4917   18.3168 C   0  0  0  0  0  0  0  0  0  0  0  0
  -29.4333  -27.1032   20.6538 C   0  0  0  0  0  0  0  0  0  0  0  0
  -23.6582  -17.1857   18.8701 C   0  0  0  0  0  0  0  0  0  0  0  0
  -18.8789  -25.9855   21.7367 C   0  0  0  0  0  0  0  0  0  0  0  0
  -24.1803  -19.3929   17.7501 C   0  0  0  0  0  0  0  0  0  0  0  0
  -25.8637  -18.3706   19.2315 C   0  0  0  0  0  0  0  0  0  0  0  0
  -28.0237  -26.9644   20.0660 C   0  0  1  0  0  0  0  0  0  0  0  0
  -26.1460  -30.2124   20.6642 C   0  0  1  0  0  0  0  0  0  0  0  0
  -24.8039  -17.4529   19.8647 C   0  0  2  0  0  0  0  0  0  0  0  0
  -20.2131  -25.5111   21.2295 C   0  0  1  0  0  0  0  0  0  0  0  0
  -20.0769  -26.8882   21.8232 C   0  0  1  0  0  0  0  0  0  1  0  0
  -24.0791  -35.9608   25.4273 C   0  0  0  0  0  0  0  0  0  0  0  0
  -26.9335  -29.9877   25.2128 C   0  0  0  0  0  0  0  0  0  0  0  0
  -25.9555  -31.8504   26.5700 C   0  0  0  0  0  0  0  0  0  0  0  0
  -27.9612  -32.2667   25.1465 C   0  0  0  0  0  0  0  0  0  0  0  0
  -22.7862  -35.3573   21.9002 C   0  0  0  0  0  0  0  0  0  0  0  0
  -22.3575  -24.4967   21.5945 C   0  0  0  0  0  0  0  0  0  0  0  0
  -27.0080  -22.3157   20.5831 C   0  0  0  0  0  0  0  0  0  0  0  0
  -23.0997  -23.3735   22.2937 C   0  0  0  0  0  0  0  0  0  0  0  0
  -25.3658  -22.3567   22.5579 C   0  0  0  0  0  0  0  0  0  0  0  0
  -25.7079  -31.9388   24.0478 C   0  0  1  0  0  0  0  0  0  0  0  0
  -24.0977  -35.3705   24.0259 C   0  0  2  0  0  0  0  0  0  0  0  0
  -26.8245  -22.4607   22.1007 C   0  0  2  0  0  0  0  0  0  0  0  0
  -26.6241  -31.4980   25.2241 C   0  0  0  0  0  0  0  0  0  0  0  0
  -26.4654  -15.6340   19.7479 N   0  0  0  0  0  0  0  0  0  0  0  0
  -25.4060  -16.1608   20.3852 N   0  0  0  0  0  0  0  0  0  0  0  0
  -25.5420  -30.7391   21.8897 N   0  0  0  0  0  0  0  0  0  0  0  0
  -25.2352  -19.6082   18.7435 N   0  0  0  0  0  0  0  0  0  0  0  0
  -23.9424  -15.8208   22.2164 N   0  0  0  0  0  0  0  0  0  0  0  0
  -26.7377  -12.2810   22.4455 N   0  0  0  0  0  0  0  0  0  0  0  0
  -27.3215  -23.7783   22.5146 N   0  0  0  0  0  0  0  0  0  0  0  0
  -27.3918  -28.2617   19.9565 N   0  0  0  0  0  0  0  0  0  0  0  0
  -25.4204  -33.3688   24.0177 N   0  0  0  0  0  0  0  0  0  0  0  0
  -26.5668  -21.0336   20.0808 N   0  0  0  0  0  0  0  0  0  0  0  0
  -20.9478  -24.4634   21.9454 N   0  0  0  0  0  0  0  0  0  0  0  0
  -22.8849  -35.8435   23.3005 N   0  3  0  0  0  0  0  0  0  0  0  0
  -24.5264  -23.3859   21.8862 N   0  3  0  0  0  0  0  0  0  0  0  0
  -24.9213  -13.2853   23.4205 O   0  0  0  0  0  0  0  0  0  0  0  0
  -26.5716  -28.4116   22.1308 O   0  0  0  0  0  0  0  0  0  0  0  0
  -27.3847  -32.0822   22.3762 O   0  0  0  0  0  0  0  0  0  0  0  0
  -23.1134  -33.1668   24.1368 O   0  0  0  0  0  0  0  0  0  0  0  0
  -24.9912  -21.9130   18.6662 O   0  0  0  0  0  0  0  0  0  0  0  0
  -30.9721  -11.1995   18.9908 O   0  0  0  0  0  0  0  0  0  0  0  0
  -20.1087  -27.9983   20.8796 O   0  0  0  0  0  0  0  0  0  1  0  0
  -31.5310   -9.9668   13.6455 F   0  0  0  0  0  0  0  0  0  0  0  0
  -30.8672   -8.5773   18.1214 F   0  0  0  0  0  0  0  0  0  0  0  0
  1  2  1  0  0  0  0
  1  5  2  0  0  0  0
  2  6  2  0  0  0  0
  3  8  2  0  0  0  0
  3 15  1  0  0  0  0
  4  9  1  0  0  0  0
  4 15  2  0  0  0  0
  5 17  1  0  0  0  0
  6 19  1  0  0  0  0
  7 10  2  0  0  0  0
  7 18  1  0  0  0  0
  8 21  1  0  0  0  0
  9 21  2  0  0  0  0
 10 22  1  0  0  0  0
 11 12  2  0  0  0  0
 11 23  1  0  0  0  0
 12 24  1  0  0  0  0
 13 20  1  0  0  0  0
 13 22  2  0  0  0  0
 14 24  2  0  0  0  0
 14 25  1  0  0  0  0
 15 26  1  0  0  0  0
 16 26  1  0  0  0  0
 16 27  2  0  0  0  0
 16 28  1  0  0  0  0
 17 19  2  0  0  0  0
 17 33  1  0  0  0  0
 18 20  2  0  0  0  0
 18 34  1  0  0  0  0
 19 43  1  0  0  0  0
 20 35  1  0  0  0  0
 21 79  1  0  0  0  0
 22 80  1  0  0  0  0
 23 25  2  0  0  0  0
 23 79  1  0  0  0  0
 24 81  1  0  0  0  0
 25 82  1  0  0  0  0
 26 61  2  0  0  0  0
 27 62  1  0  0  0  0
 27 65  1  0  0  0  0
 28 66  1  0  0  0  0
 28 74  2  0  0  0  0
 29 44  1  0  0  0  0
 29 68  1  0  0  0  0
 29 75  2  0  0  0  0
 30 57  1  0  0  0  0
 30 63  1  0  0  0  0
 30 76  2  0  0  0  0
 31 58  1  0  0  0  0
 31 69  1  0  0  0  0
 31 77  2  0  0  0  0
 32 64  1  0  0  0  0
 32 70  1  0  0  0  0
 32 78  2  0  0  0  0
 33 36  1  0  0  0  0
 34 44  1  0  0  0  0
 35 63  1  0  0  0  0
 36 38  1  0  0  0  0
 37 39  1  0  0  0  0
 37 41  1  0  0  0  0
 38 43  1  0  0  0  0
 39 45  1  0  0  0  0
 40 46  1  0  0  0  0
 40 47  1  0  0  0  0
 41 64  1  0  0  0  0
 42 45  1  0  0  0  0
 42 64  1  0  0  0  0
 43 68  1  0  0  0  0
 44 63  1  0  0  0  0
 45 62  1  0  0  0  0
 46 47  1  0  0  0  0
 46 71  1  0  0  0  0
 47 80  1  0  0  0  0
 48 58  1  0  0  0  0
 49 60  1  0  0  0  0
 50 60  1  0  0  0  0
 51 60  1  0  0  0  0
 52 72  1  0  0  0  0
 53 55  1  0  0  0  0
 53 71  1  0  0  0  0
 54 59  1  0  0  0  0
 54 70  1  0  0  0  0
 55 73  1  0  0  0  0
 56 59  1  0  0  0  0
 56 73  1  0  0  0  0
 57 60  1  0  0  0  0
 57 69  1  0  0  0  0
 58 72  1  0  0  0  0
 59 67  1  0  0  0  0
 61 62  1  0  0  0  0
M  CHG  2  72   1  73   1
M  ISO  4  32 100  47 101  70 100  80 101
M  END
> <Batch ID>
0133

> <Smiles>
CNC(C)C(=O)NC(C(=O)N1Cc2cc([101O:1][101CH:1]3CC3NCCNCC(N)C[100NH:0][100C:0](=O)N3CCCC(n4nc(-c5ccc(Oc6ccc(F)cc6F)cc5)c(C(N)=O)c4N)C3)ccc2CC1C(=O)NC1CCCc2ccccc21)C(C)(C)C

> <Shape>
0.274

> <Color>
0.073

> <Negative vol penalty>
0.000

$$$$

  -OEChem-04052320553D

 83 92  0     1  0  0  0  0  0999 V2000
  -28.8826  -30.4061   27.3499 C   0  0  0  0  0  0  0  0  0  0  0  0
  -28.6839  -29.5300   26.2876 C   0  0  0  0  0  0  0  0  0  0  0  0
  -27.4713  -11.0268   20.6894 C   0  0  0  0  0  0  0  0  0  0  0  0
  -27.0902  -11.8702   18.4577 C   0  0  0  0  0  0  0  0  0  0  0  0
  -27.8070  -31.1251   27.8695 C   0  0  0  0  0  0  0  0  0  0  0  0
  -27.4091  -29.3717   25.7450 C   0  0  0  0  0  0  0  0  0  0  0  0
  -27.4369  -29.3927   20.6810 C   0  0  0  0  0  0  0  0  0  0  0  0
  -26.4754  -10.0692   20.4976 C   0  0  0  0  0  0  0  0  0  0  0  0
  -26.0943  -10.9126   18.2659 C   0  0  0  0  0  0  0  0  0  0  0  0
  -27.8464  -28.2234   20.0417 C   0  0  0  0  0  0  0  0  0  0  0  0
  -23.7844   -7.6338   20.7242 C   0  0  0  0  0  0  0  0  0  0  0  0
  -22.8633   -7.4388   21.7533 C   0  0  0  0  0  0  0  0  0  0  0  0
  -25.5393  -27.6324   19.6581 C   0  0  0  0  0  0  0  0  0  0  0  0
  -28.0226  -19.8830   16.7151 C   0  0  0  0  0  0  0  0  0  0  0  0
  -28.0126  -22.1974   16.0610 C   0  0  0  0  0  0  0  0  0  0  0  0
  -22.1747   -9.7477   21.5746 C   0  0  0  0  0  0  0  0  0  0  0  0
  -27.7787  -11.9273   19.6695 C   0  0  0  0  0  0  0  0  0  0  0  0
  -30.1794  -12.7855   19.5830 C   0  0  0  0  0  0  0  0  0  0  0  0
  -26.5203  -30.9828   27.3267 C   0  0  0  0  0  0  0  0  0  0  0  0
  -26.0730  -29.6858   20.8235 C   0  0  0  0  0  0  0  0  0  0  0  0
  -26.3151  -30.0886   26.2587 C   0  0  0  0  0  0  0  0  0  0  0  0
  -25.1152  -28.8073   20.2974 C   0  0  0  0  0  0  0  0  0  0  0  0
  -27.9281  -20.8516   15.7220 C   0  0  0  0  0  0  0  0  0  0  0  0
  -25.7869  -10.0121   19.2858 C   0  0  0  0  0  0  0  0  0  0  0  0
  -26.8975  -27.3416   19.5327 C   0  0  0  0  0  0  0  0  0  0  0  0
  -23.9008   -8.8858   20.1203 C   0  0  0  0  0  0  0  0  0  0  0  0
  -22.0584   -8.4957   22.1785 C   0  0  0  0  0  0  0  0  0  0  0  0
  -23.0959   -9.9427   20.5455 C   0  0  0  0  0  0  0  0  0  0  0  0
  -28.8070  -12.9171   19.8673 C   0  0  0  0  0  0  0  0  0  0  0  0
  -28.1999  -20.3088   18.0216 C   0  0  0  0  0  0  0  0  0  0  0  0
  -28.1902  -22.5197   17.3968 C   0  0  0  0  0  0  0  0  0  0  0  0
  -30.7226  -13.9937   19.9460 C   0  0  0  0  0  0  0  0  0  0  0  0
  -30.8990  -11.6709   19.0394 C   0  0  0  0  0  0  0  0  0  0  0  0
  -24.1124  -30.0938   23.2920 C   0  0  0  0  0  0  0  0  0  0  0  0
  -21.9953  -30.9135   20.9751 C   0  0  0  0  0  0  0  0  0  0  0  0
  -21.0485  -30.6874   17.7041 C   0  0  0  0  0  0  0  0  0  0  0  0
  -28.4724  -19.5110   20.3955 C   0  0  0  0  0  0  0  0  0  0  0  0
  -25.3799  -31.7459   27.9527 C   0  0  0  0  0  0  0  0  0  0  0  0
  -25.6482  -30.9644   21.4922 C   0  0  0  0  0  0  0  0  0  0  0  0
  -23.6390  -29.0858   20.4065 C   0  0  0  0  0  0  0  0  0  0  0  0
  -24.1309  -31.8016   27.0768 C   0  0  0  0  0  0  0  0  0  0  0  0
  -30.0553  -17.6399   22.9782 C   0  0  0  0  0  0  0  0  0  0  0  0
  -26.5662  -21.0063   13.5322 C   0  0  0  0  0  0  0  0  0  0  0  0
  -26.5728  -19.5653   13.9368 C   0  0  0  0  0  0  0  0  0  0  0  0
  -23.8110  -30.4202   26.5145 C   0  0  0  0  0  0  0  0  0  0  0  0
  -30.0452  -16.2054   22.4450 C   0  0  0  0  0  0  0  0  0  0  0  0
  -28.7850  -18.3966   22.5945 C   0  0  0  0  0  0  0  0  0  0  0  0
  -28.4536  -16.9495   20.6284 C   0  0  0  0  0  0  0  0  0  0  0  0
  -27.7374  -20.4500   14.3000 C   0  0  0  0  0  0  0  0  0  0  0  0
  -24.9519  -29.9082   25.6269 C   0  0  1  0  0  0  0  0  0  0  0  0
  -24.2236  -30.9099   22.0353 C   0  0  1  0  0  0  0  0  0  0  0  0
  -29.7417  -16.1678   20.9344 C   0  0  2  0  0  0  0  0  0  0  0  0
  -19.2538  -31.4336   16.1168 C   0  0  0  0  0  0  0  0  0  0  0  0
  -20.0946  -28.8368   22.1517 C   0  0  0  0  0  0  0  0  0  0  0  0
  -18.7731  -28.9450   20.0280 C   0  0  0  0  0  0  0  0  0  0  0  0
  -19.0018  -30.9765   21.4575 C   0  0  0  0  0  0  0  0  0  0  0  0
  -22.9883  -32.1544   16.0177 C   0  0  0  0  0  0  0  0  0  0  0  0
  -28.5241  -25.6173   19.3398 C   0  0  0  0  0  0  0  0  0  1  0  0
  -28.4585  -24.1156   19.1394 C   0  0  0  0  0  0  0  0  0  0  0  0
  -20.9938  -30.1653   20.1287 C   0  0  1  0  0  0  0  0  0  0  0  0
  -20.6215  -31.7463   16.7036 C   0  0  2  0  0  0  0  0  0  0  0  0
  -19.7435  -29.7244   20.9410 C   0  0  0  0  0  0  0  0  0  0  0  0
  -28.4974  -14.1143   20.3720 N   0  0  0  0  0  0  0  0  0  0  0  0
  -28.2865  -21.6069   18.3894 N   0  0  0  0  0  0  0  0  0  0  0  0
  -29.6830  -14.7461   20.4079 N   0  0  0  0  0  0  0  0  0  0  0  0
  -23.2735  -30.3459   21.0744 N   0  0  0  0  0  0  0  0  0  0  0  0
  -28.5640  -18.3214   21.1486 N   0  0  0  0  0  0  0  0  0  0  0  0
  -31.9833  -14.4753   19.9119 N   0  0  0  0  0  0  0  0  0  0  0  0
  -30.1866  -10.5065   18.7218 N   0  0  0  0  0  0  0  0  0  0  0  0
  -28.2945  -19.3143   19.0264 N   0  0  0  0  0  0  0  0  0  0  0  0
  -24.9070  -30.5456   24.3284 N   0  0  0  0  0  0  0  0  0  0  0  0
  -20.6938  -31.0292   18.9920 N   0  0  0  0  0  0  0  0  0  0  0  0
  -21.6043  -31.8295   15.5864 N   0  3  0  0  0  0  0  0  0  0  0  0
  -32.1397  -11.7007   18.8565 O   0  0  0  0  0  0  0  0  0  0  0  0
  -23.3603  -29.1267   23.3198 O   0  0  0  0  0  0  0  0  0  0  0  0
  -21.6582  -31.9666   21.5218 O   0  0  0  0  0  0  0  0  0  0  0  0
  -21.6344  -29.6582   17.3755 O   0  0  0  0  0  0  0  0  0  0  0  0
  -28.5737  -20.6219   20.9222 O   0  0  0  0  0  0  0  0  0  0  0  0
  -24.8152   -9.0777   19.0982 O   0  0  0  0  0  0  0  0  0  0  0  0
  -27.2944  -26.1992   18.9088 O   0  0  0  0  0  0  0  0  0  1  0  0
  -28.2763  -23.8390   17.7561 O   0  0  0  0  0  0  0  0  0  0  0  0
  -21.1729   -8.3079   23.1657 F   0  0  0  0  0  0  0  0  0  0  0  0
  -23.2023  -11.1475   19.9684 F   0  0  0  0  0  0  0  0  0  0  0  0
  1  2  1  0  0  0  0
  1  5  2  0  0  0  0
  2  6  2  0  0  0  0
  3  8  2  0  0  0  0
  3 17  1  0  0  0  0
  4  9  1  0  0  0  0
  4 17  2  0  0  0  0
  5 19  1  0  0  0  0
  6 21  1  0  0  0  0
  7 10  2  0  0  0  0
  7 20  1  0  0  0  0
  8 24  1  0  0  0  0
  9 24  2  0  0  0  0
 10 25  1  0  0  0  0
 11 12  2  0  0  0  0
 11 26  1  0  0  0  0
 12 27  1  0  0  0  0
 13 22  1  0  0  0  0
 13 25  2  0  0  0  0
 14 23  1  0  0  0  0
 14 30  2  0  0  0  0
 15 23  2  0  0  0  0
 15 31  1  0  0  0  0
 16 27  2  0  0  0  0
 16 28  1  0  0  0  0
 17 29  1  0  0  0  0
 18 29  1  0  0  0  0
 18 32  2  0  0  0  0
 18 33  1  0  0  0  0
 19 21  2  0  0  0  0
 19 38  1  0  0  0  0
 20 22  2  0  0  0  0
 20 39  1  0  0  0  0
 21 50  1  0  0  0  0
 22 40  1  0  0  0  0
 23 49  1  0  0  0  0
 24 79  1  0  0  0  0
 25 80  1  0  0  0  0
 26 28  2  0  0  0  0
 26 79  1  0  0  0  0
 27 82  1  0  0  0  0
 28 83  1  0  0  0  0
 29 63  2  0  0  0  0
 30 64  1  0  0  0  0
 30 70  1  0  0  0  0
 31 64  2  0  0  0  0
 31 81  1  0  0  0  0
 32 65  1  0  0  0  0
 32 68  1  0  0  0  0
 33 69  1  0  0  0  0
 33 74  2  0  0  0  0
 34 51  1  0  0  0  0
 34 71  1  0  0  0  0
 34 75  2  0  0  0  0
 35 60  1  0  0  0  0
 35 66  1  0  0  0  0
 35 76  2  0  0  0  0
 36 61  1  0  0  0  0
 36 72  1  0  0  0  0
 36 77  2  0  0  0  0
 37 67  1  0  0  0  0
 37 70  1  0  0  0  0
 37 78  2  0  0  0  0
 38 41  1  0  0  0  0
 39 51  1  0  0  0  0
 40 66  1  0  0  0  0
 41 45  1  0  0  0  0
 42 46  1  0  0  0  0
 42 47  1  0  0  0  0
 43 44  1  0  0  0  0
 43 49  1  0  0  0  0
 44 49  1  0  0  0  0
 45 50  1  0  0  0  0
 46 52  1  0  0  0  0
 47 67  1  0  0  0  0
 48 52  1  0  0  0  0
 48 67  1  0  0  0  0
 50 71  1  0  0  0  0
 51 66  1  0  0  0  0
 52 65  1  0  0  0  0
 53 61  1  0  0  0  0
 54 62  1  0  0  0  0
 55 62  1  0  0  0  0
 56 62  1  0  0  0  0
 57 73  1  0  0  0  0
 58 59  1  0  0  0  0
 58 80  1  0  0  0  0
 59 81  1  0  0  0  0
 60 62  1  0  0  0  0
 60 72  1  0  0  0  0
 61 73  1  0  0  0  0
 63 65  1  0  0  0  0
M  CHG  1  73   1
M  ISO  4  37 100  58 101  70 100  80 101
M  END
> <Batch ID>
0133

> <Smiles>
CNC(C)C(=O)NC(C(=O)N1Cc2cc([101O:1][101CH2:1]COc3cc(C4CC4)cc([100NH:0][100C:0](=O)N4CCCC(n5nc(-c6ccc(Oc7ccc(F)cc7F)cc6)c(C(N)=O)c5N)C4)n3)ccc2CC1C(=O)NC1CCCc2ccccc21)C(C)(C)C

> <Shape>
0.281

> <Color>
0.097

> <Negative vol penalty>
0.000

$$$$

  -OEChem-04052320553D

 84 93  0     1  0  0  0  0  0999 V2000
  -29.3703  -18.8974   19.8065 C   0  0  0  0  0  0  0  0  0  0  0  0
  -28.8662  -19.9429   19.0396 C   0  0  0  0  0  0  0  0  0  0  0  0
  -24.4963  -14.4052   20.3209 C   0  0  0  0  0  0  0  0  0  0  0  0
  -24.8335  -14.7894   22.6822 C   0  0  0  0  0  0  0  0  0  0  0  0
  -29.0703  -18.8240   21.1661 C   0  0  0  0  0  0  0  0  0  0  0  0
  -28.0606  -20.9150   19.6317 C   0  0  0  0  0  0  0  0  0  0  0  0
  -20.3262  -28.1088   23.1362 C   0  0  0  0  0  0  0  0  0  0  0  0
  -19.3969  -27.5002   20.9907 C   0  0  0  0  0  0  0  0  0  0  0  0
  -26.4970  -27.8923   19.1969 C   0  0  0  0  0  0  0  0  0  0  0  0
  -20.2156  -26.7845   23.5598 C   0  0  0  0  0  0  0  0  0  0  0  0
  -19.2864  -26.1758   21.4143 C   0  0  0  0  0  0  0  0  0  0  0  0
  -25.5699  -13.5149   20.3124 C   0  0  0  0  0  0  0  0  0  0  0  0
  -25.9071  -13.8990   22.6737 C   0  0  0  0  0  0  0  0  0  0  0  0
  -25.4001  -28.7451   19.0812 C   0  0  0  0  0  0  0  0  0  0  0  0
  -28.4495  -11.4137   19.5932 C   0  0  0  0  0  0  0  0  0  0  0  0
  -29.3710  -11.5166   18.5513 C   0  0  0  0  0  0  0  0  0  0  0  0
  -25.0132  -28.5596   21.4550 C   0  0  0  0  0  0  0  0  0  0  0  0
  -29.8691  -13.7854   19.2157 C   0  0  0  0  0  0  0  0  0  0  0  0
  -24.1280  -15.0426   21.5058 C   0  0  0  0  0  0  0  0  0  0  0  0
  -21.6660  -15.6609   21.7576 C   0  0  0  0  0  0  0  0  0  0  0  0
  -19.9168  -28.4667   21.8516 C   0  0  0  0  0  0  0  0  0  0  0  0
  -28.2686  -19.8010   21.7772 C   0  0  0  0  0  0  0  0  0  0  0  0
  -26.8542  -27.3572   20.4429 C   0  0  0  0  0  0  0  0  0  0  0  0
  -27.7484  -20.8538   21.0004 C   0  0  0  0  0  0  0  0  0  0  0  0
  -26.1165  -27.7023   21.5843 C   0  0  0  0  0  0  0  0  0  0  0  0
  -19.6958  -25.8179   22.6988 C   0  0  0  0  0  0  0  0  0  0  0  0
  -26.2754  -13.2617   21.4888 C   0  0  0  0  0  0  0  0  0  0  0  0
  -24.6563  -29.0766   20.2099 C   0  0  0  0  0  0  0  0  0  0  0  0
  -28.2376  -12.4967   20.4464 C   0  0  0  0  0  0  0  0  0  0  0  0
  -30.0808  -12.7024   18.3625 C   0  0  0  0  0  0  0  0  0  0  0  0
  -28.9475  -13.6825   20.2577 C   0  0  0  0  0  0  0  0  0  0  0  0
  -23.0194  -15.9629   21.5150 C   0  0  0  0  0  0  0  0  0  0  0  0
  -21.0208  -16.8690   21.6541 C   0  0  0  0  0  0  0  0  0  0  0  0
  -21.0473  -14.4011   22.0505 C   0  0  0  0  0  0  0  0  0  0  0  0
  -27.0517  -24.4237   21.6510 C   0  0  0  0  0  0  0  0  0  0  0  0
  -28.3066  -25.9808   24.2051 C   0  0  0  0  0  0  0  0  0  0  0  0
  -28.5807  -28.8819   25.9814 C   0  0  0  0  0  0  0  0  0  0  0  0
  -20.6742  -22.1953   22.8611 C   0  0  0  0  0  0  0  0  0  0  0  0
  -27.9326  -19.6534   23.2401 C   0  0  0  0  0  0  0  0  0  0  0  0
  -28.0562  -26.4600   20.5553 C   0  0  0  0  0  0  0  0  0  0  0  0
  -26.4709  -27.1708   22.9482 C   0  0  0  0  0  0  0  0  0  0  0  0
  -27.3797  -20.9293   23.8698 C   0  0  0  0  0  0  0  0  0  0  0  0
  -22.6591  -21.3442   19.9571 C   0  0  0  0  0  0  0  0  0  0  0  0
  -26.3098  -21.5462   22.9745 C   0  0  0  0  0  0  0  0  0  0  0  0
  -22.8165  -19.8323   20.1288 C   0  0  0  0  0  0  0  0  0  0  0  0
  -19.9303  -31.1117   22.4215 C   0  0  0  0  0  0  0  0  0  0  0  0
  -22.7105  -22.0617   21.3028 C   0  0  0  0  0  0  0  0  0  0  0  0
  -21.8732  -20.0612   22.4735 C   0  0  0  0  0  0  0  0  0  0  0  0
  -18.9469  -31.7814   21.4597 C   0  0  0  0  0  0  0  0  0  0  0  0
  -26.8914  -21.9411   21.6116 C   0  0  1  0  0  0  0  0  0  0  0  0
  -28.0200  -25.5643   21.7897 C   0  0  1  0  0  0  0  0  0  0  0  0
  -21.8072  -19.2763   21.1507 C   0  0  2  0  0  0  0  0  0  0  0  0
  -20.0432  -29.9783   21.3685 C   0  0  1  0  0  0  0  0  0  0  0  0
  -29.6448  -29.8355   28.0443 C   0  0  0  0  0  0  0  0  0  0  0  0
  -26.2158  -24.5783   25.9290 C   0  0  0  0  0  0  0  0  0  0  0  0
  -26.6908  -26.2437   27.7370 C   0  0  0  0  0  0  0  0  0  0  0  0
  -28.4941  -24.7092   26.9521 C   0  0  0  0  0  0  0  0  0  0  0  0
  -30.1342  -30.8510   24.4104 C   0  0  0  0  0  0  0  0  0  0  0  0
  -19.5770  -24.4018   23.1521 C   0  0  0  0  0  0  0  0  0  0  0  0
  -21.2029  -30.1344   20.3824 C   0  0  0  0  0  0  0  0  0  0  0  0
  -22.5172  -29.7186   21.0274 C   0  0  0  0  0  0  0  0  0  1  0  0
  -27.7434  -26.6059   25.4585 C   0  0  1  0  0  0  0  0  0  0  0  0
  -29.7887  -29.6058   26.5479 C   0  0  2  0  0  0  0  0  0  0  0  0
  -27.2779  -25.5429   26.4933 C   0  0  0  0  0  0  0  0  0  0  0  0
  -23.2232  -17.2609   21.2752 N   0  0  0  0  0  0  0  0  0  0  0  0
  -21.9892  -17.7854   21.3666 N   0  0  0  0  0  0  0  0  0  0  0  0
  -27.6509  -26.2922   23.0055 N   0  0  0  0  0  0  0  0  0  0  0  0
  -21.7131  -21.4974   22.2230 N   0  0  0  0  0  0  0  0  0  0  0  0
  -19.7252  -17.2262   21.7817 N   0  0  0  0  0  0  0  0  0  0  0  0
  -21.8570  -13.2592   22.1199 N   0  0  0  0  0  0  0  0  0  0  0  0
  -27.6397  -23.1751   21.7198 N   0  0  0  0  0  0  0  0  0  0  0  0
  -28.7688  -27.5161   25.9569 N   0  0  0  0  0  0  0  0  0  0  0  0
  -20.5961  -23.5530   22.5759 N   0  0  0  0  0  0  0  0  0  0  0  0
  -18.7638  -30.4817   20.7950 N   0  3  0  0  0  0  0  0  0  0  0  0
  -29.9583  -30.9290   25.8835 N   0  3  0  0  0  0  0  0  0  0  0  0
  -19.8107  -14.2886   22.2287 O   0  0  0  0  0  0  0  0  0  0  0  0
  -25.8593  -24.6591   21.4946 O   0  0  0  0  0  0  0  0  0  0  0  0
  -29.2963  -25.2490   24.2864 O   0  0  0  0  0  0  0  0  0  0  0  0
  -27.5696  -29.4689   25.6023 O   0  0  0  0  0  0  0  0  0  0  0  0
  -19.8717  -21.6478   23.6248 O   0  0  0  0  0  0  0  0  0  0  0  0
  -27.3229  -12.3928   21.4809 O   0  0  0  0  0  0  0  0  0  0  0  0
  -23.5848  -29.9082   20.0996 O   0  0  0  0  0  0  0  0  0  1  0  0
  -30.9669  -12.8005   17.3628 F   0  0  0  0  0  0  0  0  0  0  0  0
  -28.7492  -14.7260   21.0749 F   0  0  0  0  0  0  0  0  0  0  0  0
  1  2  1  0  0  0  0
  1  5  2  0  0  0  0
  2  6  2  0  0  0  0
  3 12  2  0  0  0  0
  3 19  1  0  0  0  0
  4 13  1  0  0  0  0
  4 19  2  0  0  0  0
  5 22  1  0  0  0  0
  6 24  1  0  0  0  0
  7 10  2  0  0  0  0
  7 21  1  0  0  0  0
  8 11  1  0  0  0  0
  8 21  2  0  0  0  0
  9 14  2  0  0  0  0
  9 23  1  0  0  0  0
 10 26  1  0  0  0  0
 11 26  2  0  0  0  0
 12 27  1  0  0  0  0
 13 27  2  0  0  0  0
 14 28  1  0  0  0  0
 15 16  2  0  0  0  0
 15 29  1  0  0  0  0
 16 30  1  0  0  0  0
 17 25  1  0  0  0  0
 17 28  2  0  0  0  0
 18 30  2  0  0  0  0
 18 31  1  0  0  0  0
 19 32  1  0  0  0  0
 20 32  1  0  0  0  0
 20 33  2  0  0  0  0
 20 34  1  0  0  0  0
 21 53  1  0  0  0  0
 22 24  2  0  0  0  0
 22 39  1  0  0  0  0
 23 25  2  0  0  0  0
 23 40  1  0  0  0  0
 24 50  1  0  0  0  0
 25 41  1  0  0  0  0
 26 59  1  0  0  0  0
 27 81  1  0  0  0  0
 28 82  1  0  0  0  0
 29 31  2  0  0  0  0
 29 81  1  0  0  0  0
 30 83  1  0  0  0  0
 31 84  1  0  0  0  0
 32 65  2  0  0  0  0
 33 66  1  0  0  0  0
 33 69  1  0  0  0  0
 34 70  1  0  0  0  0
 34 76  2  0  0  0  0
 35 51  1  0  0  0  0
 35 71  1  0  0  0  0
 35 77  2  0  0  0  0
 36 62  1  0  0  0  0
 36 67  1  0  0  0  0
 36 78  2  0  0  0  0
 37 63  1  0  0  0  0
 37 72  1  0  0  0  0
 37 79  2  0  0  0  0
 38 68  1  0  0  0  0
 38 73  1  0  0  0  0
 38 80  2  0  0  0  0
 39 42  1  0  0  0  0
 40 51  1  0  0  0  0
 41 67  1  0  0  0  0
 42 44  1  0  0  0  0
 43 45  1  0  0  0  0
 43 47  1  0  0  0  0
 44 50  1  0  0  0  0
 45 52  1  0  0  0  0
 46 49  1  0  0  0  0
 46 53  1  0  0  0  0
 47 68  1  0  0  0  0
 48 52  1  0  0  0  0
 48 68  1  0  0  0  0
 49 74  1  0  0  0  0
 50 71  1  0  0  0  0
 51 67  1  0  0  0  0
 52 66  1  0  0  0  0
 53 60  1  0  0  0  0
 53 74  1  0  0  0  0
 54 63  1  0  0  0  0
 55 64  1  0  0  0  0
 56 64  1  0  0  0  0
 57 64  1  0  0  0  0
 58 75  1  0  0  0  0
 59 73  1  0  0  0  0
 60 61  1  0  0  0  0
 61 82  1  0  0  0  0
 62 64  1  0  0  0  0
 62 72  1  0  0  0  0
 63 75  1  0  0  0  0
 65 66  1  0  0  0  0
M  CHG  2  74   1  75   1
M  ISO  4  38 100  61 101  73 100  82 101
M  END
> <Batch ID>
0133

> <Smiles>
CNC(C)C(=O)NC(C(=O)N1Cc2cc([101O:1][101CH2:1]CC3(c4ccc(C[100NH:0][100C:0](=O)N5CCCC(n6nc(-c7ccc(Oc8ccc(F)cc8F)cc7)c(C(N)=O)c6N)C5)cc4)CCN3)ccc2CC1C(=O)NC1CCCc2ccccc21)C(C)(C)C

> <Shape>
0.200

> <Color>
0.060

> <Negative vol penalty>
0.000

$$$$

  -OEChem-04052320553D

 84 92  0     1  0  0  0  0  0999 V2000
  -22.7034  -23.5198   19.9819 C   0  0  0  0  0  0  0  0  0  0  0  0
  -23.8761  -22.8091   20.2168 C   0  0  0  0  0  0  0  0  0  0  0  0
  -21.3100  -26.8977   20.8643 C   0  0  0  0  0  0  0  0  0  0  0  0
  -22.3516  -26.7037   23.0356 C   0  0  0  0  0  0  0  0  0  0  0  0
  -21.4768  -22.9896   20.3795 C   0  0  0  0  0  0  0  0  0  0  0  0
  -23.8229  -21.5681   20.8505 C   0  0  0  0  0  0  0  0  0  0  0  0
  -26.7439  -18.1048   18.5883 C   0  0  0  0  0  0  0  0  0  0  0  0
  -31.5732  -19.8921   20.3974 C   0  0  0  0  0  0  0  0  0  0  0  0
  -31.4353  -21.2794   20.3533 C   0  0  0  0  0  0  0  0  0  0  0  0
  -20.1968  -26.2022   21.3361 C   0  0  0  0  0  0  0  0  0  0  0  0
  -21.2383  -26.0082   23.5075 C   0  0  0  0  0  0  0  0  0  0  0  0
  -28.1141  -18.1658   18.8388 C   0  0  0  0  0  0  0  0  0  0  0  0
  -16.9275  -24.7925   22.0705 C   0  0  0  0  0  0  0  0  0  0  0  0
  -15.6659  -25.2920   21.7474 C   0  0  0  0  0  0  0  0  0  0  0  0
  -27.8923  -16.3862   20.4522 C   0  0  0  0  0  0  0  0  0  0  0  0
  -31.3795  -21.3506   22.7676 C   0  0  0  0  0  0  0  0  0  0  0  0
  -16.1939  -27.3589   22.8817 C   0  0  0  0  0  0  0  0  0  0  0  0
  -22.3875  -27.1484   21.7140 C   0  0  0  0  0  0  0  0  0  0  0  0
  -23.7446  -29.2586   21.2526 C   0  0  0  0  0  0  0  0  0  0  0  0
  -21.4076  -21.7371   21.0097 C   0  0  0  0  0  0  0  0  0  0  0  0
  -25.9346  -17.1899   19.2770 C   0  0  0  0  0  0  0  0  0  0  0  0
  -22.5943  -21.0212   21.2581 C   0  0  0  0  0  0  0  0  0  0  0  0
  -26.5126  -16.3138   20.2068 C   0  0  0  0  0  0  0  0  0  0  0  0
  -31.6141  -19.2340   21.6266 C   0  0  0  0  0  0  0  0  0  0  0  0
  -31.3385  -22.0086   21.5384 C   0  0  0  0  0  0  0  0  0  0  0  0
  -20.1610  -25.7575   22.6577 C   0  0  0  0  0  0  0  0  0  0  0  0
  -28.6880  -17.3085   19.7729 C   0  0  0  0  0  0  0  0  0  0  0  0
  -17.8223  -25.5761   22.7992 C   0  0  0  0  0  0  0  0  0  0  0  0
  -31.5173  -19.9632   22.8117 C   0  0  0  0  0  0  0  0  0  0  0  0
  -15.2991  -26.5752   22.1530 C   0  0  0  0  0  0  0  0  0  0  0  0
  -17.4555  -26.8592   23.2048 C   0  0  0  0  0  0  0  0  0  0  0  0
  -23.5380  -27.8663   21.2271 C   0  0  0  0  0  0  0  0  0  0  0  0
  -24.9793  -29.4330   20.6768 C   0  0  0  0  0  0  0  0  0  0  0  0
  -22.8964  -30.3010   21.7521 C   0  0  0  0  0  0  0  0  0  0  0  0
  -23.4729  -17.4323   21.2733 C   0  0  0  0  0  0  0  0  0  0  0  0
  -23.4191  -14.2021   20.9810 C   0  0  0  0  0  0  0  0  0  0  0  0
  -25.1151  -11.3297   20.2601 C   0  0  0  0  0  0  0  0  0  0  0  0
  -29.7603  -25.8710   20.1238 C   0  0  0  0  0  0  0  0  0  0  0  0
  -20.0632  -21.2263   21.4640 C   0  0  0  0  0  0  0  0  0  0  0  0
  -24.4626  -17.1183   18.9759 C   0  0  0  0  0  0  0  0  0  0  0  0
  -25.6908  -15.2996   20.9581 C   0  0  0  0  0  0  0  0  0  0  0  0
  -20.0573  -19.7356   21.7928 C   0  0  0  0  0  0  0  0  0  0  0  0
  -27.9422  -27.4378   17.4939 C   0  0  0  0  0  0  0  0  0  0  0  0
  -21.2611  -19.3750   22.6575 C   0  0  0  0  0  0  0  0  0  0  0  0
  -26.6260  -27.8509   18.1547 C   0  0  0  0  0  0  0  0  0  0  0  0
  -28.4504  -26.1029   18.0341 C   0  0  0  0  0  0  0  0  0  0  0  0
  -27.2581  -26.4489   20.1631 C   0  0  0  0  0  0  0  0  0  0  0  0
  -22.5751  -19.6607   21.9205 C   0  0  1  0  0  0  0  0  0  0  0  0
  -23.6504  -16.4991   20.1092 C   0  0  1  0  0  0  0  0  0  0  0  0
  -26.7348  -27.8162   19.6910 C   0  0  2  0  0  0  0  0  0  0  0  0
  -24.8146   -8.8410   20.1442 C   0  0  0  0  0  0  0  0  0  0  0  0
  -23.5245  -14.0499   24.0266 C   0  0  0  0  0  0  0  0  0  0  0  0
  -24.1742  -11.6414   23.8142 C   0  0  0  0  0  0  0  0  0  0  0  0
  -21.9646  -12.4158   22.9537 C   0  0  0  0  0  0  0  0  0  0  0  0
  -25.7602  -11.2698   17.3724 C   0  0  0  0  0  0  0  0  0  0  0  0
  -31.4499  -20.1581   25.1809 C   0  0  0  0  0  0  0  0  0  0  0  0
  -31.7643  -17.7323   21.6547 C   0  0  0  0  0  0  0  0  0  0  0  0
  -31.0940  -24.2194   22.6689 C   0  0  0  0  0  0  0  0  0  0  0  0
  -30.9399  -25.6869   22.2996 C   0  0  0  0  0  0  0  0  0  0  0  0
  -30.4591  -17.0129   21.3324 C   0  0  0  0  0  0  0  0  0  1  0  0
  -24.0714  -13.0518   21.7091 C   0  0  1  0  0  0  0  0  0  0  0  0
  -24.7657  -10.1497   19.3712 C   0  0  2  0  0  0  0  0  0  0  0  0
  -23.4491  -12.8100   23.1133 C   0  0  0  0  0  0  0  0  0  0  0  0
  -24.5594  -27.2033   20.6784 N   0  0  0  0  0  0  0  0  0  0  0  0
  -25.4199  -28.1833   20.3537 N   0  0  0  0  0  0  0  0  0  0  0  0
  -24.2550  -15.2727   20.6333 N   0  0  0  0  0  0  0  0  0  0  0  0
  -28.5320  -26.1368   19.4963 N   0  0  0  0  0  0  0  0  0  0  0  0
  -25.7203  -30.5319   20.4204 N   0  0  0  0  0  0  0  0  0  0  0  0
  -21.6614  -29.9466   22.3120 N   0  0  0  0  0  0  0  0  0  0  0  0
  -31.1985  -23.4114   21.4936 N   0  0  0  0  0  0  0  0  0  0  0  0
  -22.8472  -18.6214   20.9509 N   0  0  0  0  0  0  0  0  0  0  0  0
  -23.9898  -11.9029   20.8136 N   0  0  0  0  0  0  0  0  0  0  0  0
  -29.7518  -25.9301   21.5120 N   0  0  0  0  0  0  0  0  0  0  0  0
  -25.7220  -10.0586   18.2318 N   0  3  0  0  0  0  0  0  0  0  0  0
  -23.2167  -31.5121   21.6885 O   0  0  0  0  0  0  0  0  0  0  0  0
  -23.8727  -17.0977   22.3823 O   0  0  0  0  0  0  0  0  0  0  0  0
  -22.2139  -14.1495   20.7237 O   0  0  0  0  0  0  0  0  0  0  0  0
  -26.2709  -11.7030   20.4480 O   0  0  0  0  0  0  0  0  0  0  0  0
  -30.7896  -25.6063   19.4933 O   0  0  0  0  0  0  0  0  0  0  0  0
  -19.0747  -25.0790   23.1185 O   0  0  0  0  0  0  0  0  0  0  0  0
  -31.5555  -19.3357   24.0206 O   0  0  0  0  0  0  0  0  0  0  0  0
  -30.0250  -17.3664   20.0197 O   0  0  0  0  0  0  0  0  0  1  0  0
  -14.0881  -27.0554   21.8414 F   0  0  0  0  0  0  0  0  0  0  0  0
  -18.3113  -27.6172   23.9041 F   0  0  0  0  0  0  0  0  0  0  0  0
  1  2  1  0  0  0  0
  1  5  2  0  0  0  0
  2  6  2  0  0  0  0
  3 10  2  0  0  0  0
  3 18  1  0  0  0  0
  4 11  1  0  0  0  0
  4 18  2  0  0  0  0
  5 20  1  0  0  0  0
  6 22  1  0  0  0  0
  7 12  2  0  0  0  0
  7 21  1  0  0  0  0
  8  9  2  0  0  0  0
  8 24  1  0  0  0  0
  9 25  1  0  0  0  0
 10 26  1  0  0  0  0
 11 26  2  0  0  0  0
 12 27  1  0  0  0  0
 13 14  2  0  0  0  0
 13 28  1  0  0  0  0
 14 30  1  0  0  0  0
 15 23  1  0  0  0  0
 15 27  2  0  0  0  0
 16 25  2  0  0  0  0
 16 29  1  0  0  0  0
 17 30  2  0  0  0  0
 17 31  1  0  0  0  0
 18 32  1  0  0  0  0
 19 32  1  0  0  0  0
 19 33  2  0  0  0  0
 19 34  1  0  0  0  0
 20 22  2  0  0  0  0
 20 39  1  0  0  0  0
 21 23  2  0  0  0  0
 21 40  1  0  0  0  0
 22 48  1  0  0  0  0
 23 41  1  0  0  0  0
 24 29  2  0  0  0  0
 24 57  1  0  0  0  0
 25 70  1  0  0  0  0
 26 80  1  0  0  0  0
 27 82  1  0  0  0  0
 28 31  2  0  0  0  0
 28 80  1  0  0  0  0
 29 81  1  0  0  0  0
 30 83  1  0  0  0  0
 31 84  1  0  0  0  0
 32 64  2  0  0  0  0
 33 65  1  0  0  0  0
 33 68  1  0  0  0  0
 34 69  1  0  0  0  0
 34 75  2  0  0  0  0
 35 49  1  0  0  0  0
 35 71  1  0  0  0  0
 35 76  2  0  0  0  0
 36 61  1  0  0  0  0
 36 66  1  0  0  0  0
 36 77  2  0  0  0  0
 37 62  1  0  0  0  0
 37 72  1  0  0  0  0
 37 78  2  0  0  0  0
 38 67  1  0  0  0  0
 38 73  1  0  0  0  0
 38 79  2  0  0  0  0
 39 42  1  0  0  0  0
 40 49  1  0  0  0  0
 41 66  1  0  0  0  0
 42 44  1  0  0  0  0
 43 45  1  0  0  0  0
 43 46  1  0  0  0  0
 44 48  1  0  0  0  0
 45 50  1  0  0  0  0
 46 67  1  0  0  0  0
 47 50  1  0  0  0  0
 47 67  1  0  0  0  0
 48 71  1  0  0  0  0
 49 66  1  0  0  0  0
 50 65  1  0  0  0  0
 51 62  1  0  0  0  0
 52 63  1  0  0  0  0
 53 63  1  0  0  0  0
 54 63  1  0  0  0  0
 55 74  1  0  0  0  0
 56 81  1  0  0  0  0
 57 60  1  0  0  0  0
 58 59  1  0  0  0  0
 58 70  1  0  0  0  0
 59 73  1  0  0  0  0
 60 82  1  0  0  0  0
 61 63  1  0  0  0  0
 61 72  1  0  0  0  0
 62 74  1  0  0  0  0
 64 65  1  0  0  0  0
M  CHG  1  74   1
M  ISO  4  38 100  60 101  73 100  82 101
M  END
> <Batch ID>
0133

> <Smiles>
CNC(C)C(=O)NC(C(=O)N1Cc2cc([101O:1][101CH2:1]Cc3ccc(NCC[100NH:0][100C:0](=O)N4CCCC(n5nc(-c6ccc(Oc7ccc(F)cc7F)cc6)c(C(N)=O)c5N)C4)cc3OC)ccc2CC1C(=O)NC1CCCc2ccccc21)C(C)(C)C

> <Shape>
0.211

> <Color>
0.080

> <Negative vol penalty>
0.000

$$$$

  -OEChem-04052320553D

 86 95  0     1  0  0  0  0  0999 V2000
  -21.6718   -8.0945   18.1791 C   0  0  0  0  0  0  0  0  0  0  0  0
  -21.2367   -9.3354   17.7251 C   0  0  0  0  0  0  0  0  0  0  0  0
  -29.7722  -26.2906   19.7901 C   0  0  0  0  0  0  0  0  0  0  0  0
  -27.6860  -26.1415   18.5807 C   0  0  0  0  0  0  0  0  0  0  0  0
  -22.2693   -7.9828   19.4338 C   0  0  0  0  0  0  0  0  0  0  0  0
  -21.3979  -10.4654   18.5262 C   0  0  0  0  0  0  0  0  0  0  0  0
  -19.5445  -23.3835   22.0901 C   0  0  0  0  0  0  0  0  0  0  0  0
  -21.6998  -24.4141   22.4502 C   0  0  0  0  0  0  0  0  0  0  0  0
  -22.6240  -17.5080   18.0636 C   0  0  0  0  0  0  0  0  0  0  0  0
  -20.1718  -22.1699   21.8085 C   0  0  0  0  0  0  0  0  0  0  0  0
  -22.3272  -23.2005   22.1686 C   0  0  0  0  0  0  0  0  0  0  0  0
  -29.9768  -24.9232   19.6060 C   0  0  0  0  0  0  0  0  0  0  0  0
  -27.8906  -24.7740   18.3965 C   0  0  0  0  0  0  0  0  0  0  0  0
  -22.1036  -18.7233   18.5066 C   0  0  0  0  0  0  0  0  0  0  0  0
  -31.0373  -22.8739   17.1345 C   0  0  0  0  0  0  0  0  0  0  0  0
  -32.3073  -22.4562   16.7368 C   0  0  0  0  0  0  0  0  0  0  0  0
  -23.2213  -18.4233   20.6232 C   0  0  0  0  0  0  0  0  0  0  0  0
  -32.4964  -21.1220   18.7421 C   0  0  0  0  0  0  0  0  0  0  0  0
  -28.6268  -26.8998   19.2775 C   0  0  0  0  0  0  0  0  0  0  0  0
  -28.8311  -29.3562   18.6204 C   0  0  0  0  0  0  0  0  0  0  0  0
  -20.3085  -24.5056   22.4109 C   0  0  0  0  0  0  0  0  0  0  0  0
  -22.4467   -9.1135   20.2466 C   0  0  0  0  0  0  0  0  0  0  0  0
  -23.4394  -16.7348   18.9024 C   0  0  0  0  0  0  0  0  0  0  0  0
  -21.9972  -10.3685   19.7935 C   0  0  0  0  0  0  0  0  0  0  0  0
  -23.7528  -17.1999   20.1876 C   0  0  0  0  0  0  0  0  0  0  0  0
  -21.5631  -22.0784   21.8478 C   0  0  0  0  0  0  0  0  0  0  0  0
  -29.0360  -24.1649   18.9091 C   0  0  0  0  0  0  0  0  0  0  0  0
  -22.3999  -19.1797   19.7876 C   0  0  0  0  0  0  0  0  0  0  0  0
  -30.4968  -22.4157   18.3360 C   0  0  0  0  0  0  0  0  0  0  0  0
  -33.0369  -21.5802   17.5406 C   0  0  0  0  0  0  0  0  0  0  0  0
  -31.2263  -21.5397   19.1398 C   0  0  0  0  0  0  0  0  0  0  0  0
  -28.4146  -28.3122   19.4679 C   0  0  0  0  0  0  0  0  0  0  0  0
  -28.3888  -30.4991   19.2407 C   0  0  0  0  0  0  0  0  0  0  0  0
  -29.5531  -29.2982   17.3831 C   0  0  0  0  0  0  0  0  0  0  0  0
  -23.2321  -13.8299   20.1761 C   0  0  0  0  0  0  0  0  0  0  0  0
  -26.2508  -14.4761   21.1723 C   0  0  0  0  0  0  0  0  0  0  0  0
  -28.6059  -16.8208   21.9489 C   0  0  0  0  0  0  0  0  0  0  0  0
  -23.9354  -31.5853   23.0927 C   0  0  0  0  0  0  0  0  0  0  0  0
  -23.0551   -8.9355   21.6152 C   0  0  0  0  0  0  0  0  0  0  0  0
  -24.0146  -15.4390   18.4000 C   0  0  0  0  0  0  0  0  0  0  0  0
  -24.6399  -16.4172   21.1197 C   0  0  0  0  0  0  0  0  0  0  0  0
  -23.5281  -10.2425   22.2461 C   0  0  0  0  0  0  0  0  0  0  0  0
  -27.3972  -32.2623   23.5764 C   0  0  0  0  0  0  0  0  0  0  0  0
  -19.9762  -26.3158   24.1316 C   0  0  0  0  0  0  0  0  0  0  0  0
  -22.4610  -11.3227   22.1000 C   0  0  0  0  0  0  0  0  0  0  0  0
  -28.0881  -31.4209   22.5018 C   0  0  0  0  0  0  0  0  0  0  0  0
  -20.7286  -27.6299   23.9323 C   0  0  0  0  0  0  0  0  0  0  0  0
  -20.1038  -26.9122   21.7470 C   0  0  0  0  0  0  0  0  0  0  0  0
  -26.1747  -31.5503   24.1513 C   0  0  0  0  0  0  0  0  0  0  0  0
  -25.8833  -30.2573   22.0736 C   0  0  0  0  0  0  0  0  0  0  0  0
  -19.6386  -25.8035   22.7121 C   0  0  1  0  0  0  0  0  0  0  0  0
  -22.1769  -11.6214   20.6230 C   0  0  1  0  0  0  0  0  0  0  0  0
  -24.4149  -14.4876   19.5233 C   0  0  1  0  0  0  0  0  0  0  0  0
  -27.0893  -30.9575   21.4244 C   0  0  2  0  0  0  0  0  0  0  0  0
  -20.1569  -28.1500   22.6268 C   0  0  2  0  0  0  0  0  0  0  0  0
  -30.8513  -17.7445   22.5829 C   0  0  0  0  0  0  0  0  0  0  0  0
  -25.3306  -13.7903   23.9995 C   0  0  0  0  0  0  0  0  0  0  0  0
  -27.3877  -14.9222   24.8686 C   0  0  0  0  0  0  0  0  0  0  0  0
  -27.5959  -12.9172   23.3991 C   0  0  0  0  0  0  0  0  0  0  0  0
  -29.4710  -16.9716   19.1226 C   0  0  0  0  0  0  0  0  0  0  0  0
  -22.2371  -20.7722   21.5464 C   0  0  0  0  0  0  0  0  0  1  0  0
  -21.7551  -31.5346   21.9082 C   0  0  0  0  0  0  0  0  0  0  0  0
  -20.8251  -30.5565   22.6017 C   0  0  0  0  0  0  0  0  0  0  0  0
  -26.8583  -15.1178   22.3963 C   0  0  1  0  0  0  0  0  0  0  0  0
  -30.0641  -16.9547   21.5489 C   0  0  2  0  0  0  0  0  0  0  0  0
  -26.7748  -14.2009   23.6493 C   0  0  0  0  0  0  0  0  0  0  0  0
  -27.7584  -28.7527   20.5446 N   0  0  0  0  0  0  0  0  0  0  0  0
  -27.7592  -30.0862   20.3779 N   0  0  0  0  0  0  0  0  0  0  0  0
  -25.1728  -15.1534   20.5847 N   0  0  0  0  0  0  0  0  0  0  0  0
  -25.2669  -31.1382   23.0780 N   0  0  0  0  0  0  0  0  0  0  0  0
  -28.4811  -31.8069   18.9188 N   0  0  0  0  0  0  0  0  0  0  0  0
  -29.9307  -28.0424   16.8881 N   0  0  0  0  0  0  0  0  0  0  0  0
  -23.2221  -12.4525   20.0653 N   0  0  0  0  0  0  0  0  0  0  0  0
  -28.2164  -15.5003   22.0252 N   0  0  0  0  0  0  0  0  0  0  0  0
  -23.1441  -31.1535   22.0352 N   0  0  0  0  0  0  0  0  0  0  0  0
  -21.0221  -29.1875   22.0400 N   0  3  0  0  0  0  0  0  0  0  0  0
  -30.1794  -17.6523   20.2370 N   0  3  0  0  0  0  0  0  0  0  0  0
  -29.8688  -30.3303   16.7438 O   0  0  0  0  0  0  0  0  0  0  0  0
  -22.3916  -14.5208   20.7399 O   0  0  0  0  0  0  0  0  0  0  0  0
  -26.7201  -13.4169   20.7488 O   0  0  0  0  0  0  0  0  0  0  0  0
  -27.8854  -17.7905   22.1749 O   0  0  0  0  0  0  0  0  0  0  0  0
  -23.4865  -32.3195   23.9795 O   0  0  0  0  0  0  0  0  0  0  0  0
  -29.2355  -22.8306   18.7290 O   0  0  0  0  0  0  0  0  0  0  0  0
  -21.8928  -20.3652   20.2227 O   0  0  0  0  0  0  0  0  0  1  0  0
  -34.2558  -21.1780   17.1578 F   0  0  0  0  0  0  0  0  0  0  0  0
  -30.7119  -21.0952   20.2946 F   0  0  0  0  0  0  0  0  0  0  0  0
  1  2  1  0  0  0  0
  1  5  2  0  0  0  0
  2  6  2  0  0  0  0
  3 12  2  0  0  0  0
  3 19  1  0  0  0  0
  4 13  1  0  0  0  0
  4 19  2  0  0  0  0
  5 22  1  0  0  0  0
  6 24  1  0  0  0  0
  7 10  2  0  0  0  0
  7 21  1  0  0  0  0
  8 11  1  0  0  0  0
  8 21  2  0  0  0  0
  9 14  2  0  0  0  0
  9 23  1  0  0  0  0
 10 26  1  0  0  0  0
 11 26  2  0  0  0  0
 12 27  1  0  0  0  0
 13 27  2  0  0  0  0
 14 28  1  0  0  0  0
 15 16  2  0  0  0  0
 15 29  1  0  0  0  0
 16 30  1  0  0  0  0
 17 25  1  0  0  0  0
 17 28  2  0  0  0  0
 18 30  2  0  0  0  0
 18 31  1  0  0  0  0
 19 32  1  0  0  0  0
 20 32  1  0  0  0  0
 20 33  2  0  0  0  0
 20 34  1  0  0  0  0
 21 51  1  0  0  0  0
 22 24  2  0  0  0  0
 22 39  1  0  0  0  0
 23 25  2  0  0  0  0
 23 40  1  0  0  0  0
 24 52  1  0  0  0  0
 25 41  1  0  0  0  0
 26 61  1  0  0  0  0
 27 83  1  0  0  0  0
 28 84  1  0  0  0  0
 29 31  2  0  0  0  0
 29 83  1  0  0  0  0
 30 85  1  0  0  0  0
 31 86  1  0  0  0  0
 32 67  2  0  0  0  0
 33 68  1  0  0  0  0
 33 71  1  0  0  0  0
 34 72  1  0  0  0  0
 34 78  2  0  0  0  0
 35 53  1  0  0  0  0
 35 73  1  0  0  0  0
 35 79  2  0  0  0  0
 36 64  1  0  0  0  0
 36 69  1  0  0  0  0
 36 80  2  0  0  0  0
 37 65  1  0  0  0  0
 37 74  1  0  0  0  0
 37 81  2  0  0  0  0
 38 70  1  0  0  0  0
 38 75  1  0  0  0  0
 38 82  2  0  0  0  0
 39 42  1  0  0  0  0
 40 53  1  0  0  0  0
 41 69  1  0  0  0  0
 42 45  1  0  0  0  0
 43 46  1  0  0  0  0
 43 49  1  0  0  0  0
 44 47  1  0  0  0  0
 44 51  1  0  0  0  0
 45 52  1  0  0  0  0
 46 54  1  0  0  0  0
 47 55  1  0  0  0  0
 48 51  1  0  0  0  0
 48 55  1  0  0  0  0
 49 70  1  0  0  0  0
 50 54  1  0  0  0  0
 50 70  1  0  0  0  0
 52 73  1  0  0  0  0
 53 69  1  0  0  0  0
 54 68  1  0  0  0  0
 55 76  1  0  0  0  0
 56 65  1  0  0  0  0
 57 66  1  0  0  0  0
 58 66  1  0  0  0  0
 59 66  1  0  0  0  0
 60 77  1  0  0  0  0
 61 84  1  0  0  0  0
 62 63  1  0  0  0  0
 62 75  1  0  0  0  0
 63 76  1  0  0  0  0
 64 66  1  0  0  0  0
 64 74  1  0  0  0  0
 65 77  1  0  0  0  0
 67 68  1  0  0  0  0
M  CHG  2  76   1  77   1
M  ISO  4  38 100  61 101  75 100  84 101
M  END
> <Batch ID>
0133

> <Smiles>
CNC(C)C(=O)NC(C(=O)N1Cc2cc([101O:1][101CH2:1]c3ccc(C4CCC(NCC[100NH:0][100C:0](=O)N5CCCC(n6nc(-c7ccc(Oc8ccc(F)cc8F)cc7)c(C(N)=O)c6N)C5)C4)cc3)ccc2CC1C(=O)NC1CCCc2ccccc21)C(C)(C)C

> <Shape>
0.243

> <Color>
0.079

> <Negative vol penalty>
0.000

$$$$

  -OEChem-04052320553D

 90 99  0     1  0  0  0  0  0999 V2000
  -29.2524  -32.4124   25.6904 C   0  0  0  0  0  0  0  0  0  0  0  0
  -29.0559  -31.1729   25.0902 C   0  0  0  0  0  0  0  0  0  0  0  0
  -22.6518  -10.6814   21.0532 C   0  0  0  0  0  0  0  0  0  0  0  0
  -24.0394   -8.8793   20.2381 C   0  0  0  0  0  0  0  0  0  0  0  0
  -28.1547  -33.1903   26.0564 C   0  0  0  0  0  0  0  0  0  0  0  0
  -27.7615  -30.7099   24.8566 C   0  0  0  0  0  0  0  0  0  0  0  0
  -27.2167  -28.7138   20.2345 C   0  0  0  0  0  0  0  0  0  0  0  0
  -21.7903   -9.7534   21.6382 C   0  0  0  0  0  0  0  0  0  0  0  0
  -23.1779   -7.9513   20.8232 C   0  0  0  0  0  0  0  0  0  0  0  0
  -27.7062  -27.4235   20.0364 C   0  0  0  0  0  0  0  0  0  0  0  0
  -22.5892   -6.7007   23.9070 C   0  0  0  0  0  0  0  0  0  0  0  0
  -23.1613   -5.6477   24.6207 C   0  0  0  0  0  0  0  0  0  0  0  0
  -25.4720  -26.5458   20.2751 C   0  0  0  0  0  0  0  0  0  0  0  0
  -22.1148   -4.0653   23.1248 C   0  0  0  0  0  0  0  0  0  0  0  0
  -23.7763  -10.2443   20.3530 C   0  0  0  0  0  0  0  0  0  0  0  0
  -24.3470  -12.1543   18.7612 C   0  0  0  0  0  0  0  0  0  0  0  0
  -26.8462  -32.7409   25.8183 C   0  0  0  0  0  0  0  0  0  0  0  0
  -25.8505  -28.9291   20.4656 C   0  0  0  0  0  0  0  0  0  0  0  0
  -26.6452  -31.4819   25.2209 C   0  0  0  0  0  0  0  0  0  0  0  0
  -24.9673  -27.8401   20.4733 C   0  0  0  0  0  0  0  0  0  0  0  0
  -22.0533   -8.3884   21.5233 C   0  0  0  0  0  0  0  0  0  0  0  0
  -26.8343  -26.3389   20.0596 C   0  0  0  0  0  0  0  0  0  0  0  0
  -21.7797   -6.4361   22.8023 C   0  0  0  0  0  0  0  0  0  0  0  0
  -22.9242   -4.3300   24.2296 C   0  0  0  0  0  0  0  0  0  0  0  0
  -21.5426   -5.1183   22.4111 C   0  0  0  0  0  0  0  0  0  0  0  0
  -24.6663  -11.2024   19.7479 C   0  0  0  0  0  0  0  0  0  0  0  0
  -25.5281  -12.8147   18.5261 C   0  0  0  0  0  0  0  0  0  0  0  0
  -23.0946  -12.4180   18.1148 C   0  0  0  0  0  0  0  0  0  0  0  0
  -24.1427  -30.1282   22.8634 C   0  0  0  0  0  0  0  0  0  0  0  0
  -21.6873  -29.7844   20.7718 C   0  0  0  0  0  0  0  0  0  0  0  0
  -20.4181  -28.1989   18.0292 C   0  0  0  0  0  0  0  0  0  0  0  0
  -30.1621  -15.2173   20.1767 C   0  0  0  0  0  0  0  0  0  0  0  0
  -25.6907  -33.5961   26.2744 C   0  0  0  0  0  0  0  0  0  0  0  0
  -25.3344  -30.3297   20.6508 C   0  0  0  0  0  0  0  0  0  0  0  0
  -23.4888  -28.0197   20.6971 C   0  0  0  0  0  0  0  0  0  0  0  0
  -24.3552  -33.1980   25.6514 C   0  0  0  0  0  0  0  0  0  0  0  0
  -30.2486  -11.7661   19.9879 C   0  0  0  0  0  0  0  0  0  0  0  0
  -24.1641  -31.6862   25.7190 C   0  0  0  0  0  0  0  0  0  0  0  0
  -28.7799  -11.3748   19.8253 C   0  0  0  0  0  0  0  0  0  0  0  0
  -28.4929  -17.7206   18.0147 C   0  0  0  0  0  0  0  0  0  0  0  0
  -27.0463  -17.2881   20.0319 C   0  0  0  0  0  0  0  0  0  0  0  0
  -30.4039  -12.8946   21.0010 C   0  0  0  0  0  0  0  0  0  0  0  0
  -29.7009  -17.2086   18.7944 C   0  0  0  0  0  0  0  0  0  0  0  0
  -28.2815  -16.7899   20.7748 C   0  0  0  0  0  0  0  0  0  0  0  0
  -25.5737  -19.8169   16.0931 C   0  0  0  0  0  0  0  0  0  0  0  0
  -28.1314  -13.7370   20.5093 C   0  0  0  0  0  0  0  0  0  0  0  0
  -26.6947  -21.0677   17.8318 C   0  0  0  0  0  0  0  0  0  0  0  0
  -25.2567  -30.9561   24.9285 C   0  0  1  0  0  0  0  0  0  0  0  0
  -24.0005  -30.3822   21.3893 C   0  0  1  0  0  0  0  0  0  0  0  0
  -27.4226  -18.3049   18.9457 C   0  0  0  0  0  0  0  0  0  0  0  0
  -25.9788  -20.8351   15.0084 C   0  0  2  0  0  0  0  0  0  0  0  0
  -26.1870  -22.2434   15.6268 C   0  0  1  0  0  0  0  0  0  0  0  0
  -27.9151  -12.6023   19.4879 C   0  0  2  0  0  0  0  0  0  0  0  0
  -27.1526  -22.1249   16.8241 C   0  0  1  0  0  0  0  0  0  0  0  0
  -24.9242  -20.8289   13.8965 C   0  0  0  0  0  0  0  0  0  0  0  0
  -18.3719  -28.1045   16.5794 C   0  0  0  0  0  0  0  0  0  0  0  0
  -26.3939  -24.6755   15.0387 C   0  0  0  0  0  0  0  0  0  0  0  0
  -28.1883  -23.0602   14.3498 C   0  0  0  0  0  0  0  0  0  0  0  0
  -20.2295  -28.2034   22.9363 C   0  0  0  0  0  0  0  0  0  0  0  0
  -18.6753  -27.3503   21.1686 C   0  0  0  0  0  0  0  0  0  0  0  0
  -18.7861  -29.7943   21.6557 C   0  0  0  0  0  0  0  0  0  0  0  0
  -21.9395  -29.0229   15.6281 C   0  0  0  0  0  0  0  0  0  0  0  0
  -26.1900  -18.7360   18.1546 C   0  0  0  0  0  0  0  0  0  0  0  0
  -28.4618  -23.5688   18.3861 C   0  0  0  0  0  0  0  0  0  0  0  0
  -28.4619  -24.9367   19.0396 C   0  0  0  0  0  0  0  0  0  1  0  0
  -20.7075  -28.6834   20.4449 C   0  0  1  0  0  0  0  0  0  0  0  0
  -19.7420  -28.7335   16.7796 C   0  0  2  0  0  0  0  0  0  0  0  0
  -26.6945  -23.2507   14.5869 C   0  0  0  0  0  0  0  0  0  0  0  0
  -19.6277  -28.5040   21.5491 C   0  0  0  0  0  0  0  0  0  0  0  0
  -25.9498  -11.2504   20.1145 N   0  0  0  0  0  0  0  0  0  0  0  0
  -26.4474  -12.2403   19.3539 N   0  0  0  0  0  0  0  0  0  0  0  0
  -23.0335  -29.4078   20.8795 N   0  0  0  0  0  0  0  0  0  0  0  0
  -29.5639  -14.0389   20.6480 N   0  0  0  0  0  0  0  0  0  0  0  0
  -29.3017  -16.2786   19.8498 N   0  0  0  0  0  0  0  0  0  0  0  0
  -26.5612  -19.7602   17.1781 N   0  0  1  0  0  0  0  0  0  0  0  0
  -25.8597  -13.8247   17.6942 N   0  0  0  0  0  0  0  0  0  0  0  0
  -22.7926  -11.7245   16.9349 N   0  0  0  0  0  0  0  0  0  0  0  0
  -24.9802  -31.0176   23.5092 N   0  0  0  0  0  0  0  0  0  0  0  0
  -20.1675  -28.9958   19.1261 N   0  0  0  0  0  0  0  0  0  0  0  0
  -27.2466  -23.4279   17.5442 N   0  3  0  0  0  0  0  0  0  0  0  0
  -20.5726  -28.4433   15.5767 N   0  3  0  0  0  0  0  0  0  0  0  0
  -22.2751  -13.2562   18.5612 O   0  0  0  0  0  0  0  0  0  0  0  0
  -23.5364  -29.1954   23.3771 O   0  0  0  0  0  0  0  0  0  0  0  0
  -21.2743  -30.9375   20.9188 O   0  0  0  0  0  0  0  0  0  0  0  0
  -21.0973  -27.1746   18.0327 O   0  0  0  0  0  0  0  0  0  0  0  0
  -31.3890  -15.3166   20.0503 O   0  0  0  0  0  0  0  0  0  0  0  0
  -21.2130   -7.4826   22.0943 O   0  0  0  0  0  0  0  0  0  0  0  0
  -27.3129  -25.0693   19.8659 O   0  0  0  0  0  0  0  0  0  1  0  0
  -23.4749   -3.3189   24.9141 F   0  0  0  0  0  0  0  0  0  0  0  0
  -20.7668   -4.8579   21.3499 F   0  0  0  0  0  0  0  0  0  0  0  0
  1  2  1  0  0  0  0
  1  5  2  0  0  0  0
  2  6  2  0  0  0  0
  3  8  2  0  0  0  0
  3 15  1  0  0  0  0
  4  9  1  0  0  0  0
  4 15  2  0  0  0  0
  5 17  1  0  0  0  0
  6 19  1  0  0  0  0
  7 10  2  0  0  0  0
  7 18  1  0  0  0  0
  8 21  1  0  0  0  0
  9 21  2  0  0  0  0
 10 22  1  0  0  0  0
 11 12  2  0  0  0  0
 11 23  1  0  0  0  0
 12 24  1  0  0  0  0
 13 20  1  0  0  0  0
 13 22  2  0  0  0  0
 14 24  2  0  0  0  0
 14 25  1  0  0  0  0
 15 26  1  0  0  0  0
 16 26  1  0  0  0  0
 16 27  2  0  0  0  0
 16 28  1  0  0  0  0
 17 19  2  0  0  0  0
 17 33  1  0  0  0  0
 18 20  2  0  0  0  0
 18 34  1  0  0  0  0
 19 48  1  0  0  0  0
 20 35  1  0  0  0  0
 21 87  1  0  0  0  0
 22 88  1  0  0  0  0
 23 25  2  0  0  0  0
 23 87  1  0  0  0  0
 24 89  1  0  0  0  0
 25 90  1  0  0  0  0
 26 70  2  0  0  0  0
 27 71  1  0  0  0  0
 27 76  1  0  0  0  0
 28 77  1  0  0  0  0
 28 82  2  0  0  0  0
 29 49  1  0  0  0  0
 29 78  1  0  0  0  0
 29 83  2  0  0  0  0
 30 66  1  0  0  0  0
 30 72  1  0  0  0  0
 30 84  2  0  0  0  0
 31 67  1  0  0  0  0
 31 79  1  0  0  0  0
 31 85  2  0  0  0  0
 32 73  1  0  0  0  0
 32 74  1  0  0  0  0
 32 86  2  0  0  0  0
 33 36  1  0  0  0  0
 34 49  1  0  0  0  0
 35 72  1  0  0  0  0
 36 38  1  0  0  0  0
 37 39  1  0  0  0  0
 37 42  1  0  0  0  0
 38 48  1  0  0  0  0
 39 53  1  0  0  0  0
 40 43  1  0  0  0  0
 40 50  1  0  0  0  0
 41 44  1  0  0  0  0
 41 50  1  0  0  0  0
 42 73  1  0  0  0  0
 43 74  1  0  0  0  0
 44 74  1  0  0  0  0
 45 51  1  0  0  0  0
 45 75  1  0  0  0  0
 46 53  1  0  0  0  0
 46 73  1  0  0  0  0
 47 54  1  0  0  0  0
 47 75  1  0  0  0  0
 48 78  1  0  0  0  0
 49 72  1  0  0  0  0
 50 63  1  0  0  0  0
 51 52  1  0  0  0  0
 51 55  1  0  0  0  0
 52 54  1  0  0  0  0
 52 68  1  0  0  0  0
 53 71  1  0  0  0  0
 54 80  1  0  0  0  0
 56 67  1  0  0  0  0
 57 68  1  0  0  0  0
 58 68  1  0  0  0  0
 59 69  1  0  0  0  0
 60 69  1  0  0  0  0
 61 69  1  0  0  0  0
 62 81  1  0  0  0  0
 63 75  1  0  0  0  0
 64 65  1  0  0  0  0
 64 80  1  0  0  0  0
 65 88  1  0  0  0  0
 66 69  1  0  0  0  0
 66 79  1  0  0  0  0
 67 81  1  0  0  0  0
 70 71  1  0  0  0  0
M  CHG  2  80   1  81   1
M  ISO  4  32 100  65 101  74 100  88 101
M  END
> <Batch ID>
0133

> <Smiles>
CNC(C)C(=O)NC(C(=O)N1Cc2cc([101O:1][101CH2:1]CNC3CN(CC4CC[100N:0]([100C:0](=O)N5CCCC(n6nc(-c7ccc(Oc8ccc(F)cc8F)cc7)c(C(N)=O)c6N)C5)CC4)CC(C)C3C(C)C)ccc2CC1C(=O)NC1CCCc2ccccc21)C(C)(C)C

> <Shape>
0.300

> <Color>
0.108

> <Negative vol penalty>
0.000

$$$$

  -OEChem-04052320553D

 88 97  0     1  0  0  0  0  0999 V2000
  -30.5419  -24.9859   14.2944 C   0  0  0  0  0  0  0  0  0  0  0  0
  -29.1973  -25.0323   14.6487 C   0  0  0  0  0  0  0  0  0  0  0  0
  -26.8325  -13.5487   19.7886 C   0  0  0  0  0  0  0  0  0  0  0  0
  -24.4512  -13.9548   19.8256 C   0  0  0  0  0  0  0  0  0  0  0  0
  -31.5242  -25.0423   15.2822 C   0  0  0  0  0  0  0  0  0  0  0  0
  -28.8343  -25.1341   15.9912 C   0  0  0  0  0  0  0  0  0  0  0  0
  -17.1023  -25.3962   22.5099 C   0  0  0  0  0  0  0  0  0  0  0  0
  -24.0257  -28.1536   18.2859 C   0  0  0  0  0  0  0  0  0  0  0  0
  -18.1715  -24.4994   22.5174 C   0  0  0  0  0  0  0  0  0  0  0  0
  -26.6603  -12.4602   20.6436 C   0  0  0  0  0  0  0  0  0  0  0  0
  -24.2789  -12.8662   20.6806 C   0  0  0  0  0  0  0  0  0  0  0  0
  -22.7591  -27.7327   18.6889 C   0  0  0  0  0  0  0  0  0  0  0  0
  -23.1697   -9.9749   22.5855 C   0  0  0  0  0  0  0  0  0  0  0  0
  -22.1280   -9.0898   22.3079 C   0  0  0  0  0  0  0  0  0  0  0  0
  -23.5347  -27.6022   20.9694 C   0  0  0  0  0  0  0  0  0  0  0  0
  -23.1089   -8.6112   20.1525 C   0  0  0  0  0  0  0  0  0  0  0  0
  -25.7280  -14.2960   19.3796 C   0  0  0  0  0  0  0  0  0  0  0  0
  -25.8813  -15.4090   17.0893 C   0  0  0  0  0  0  0  0  0  0  0  0
  -31.1732  -25.1546   16.6367 C   0  0  0  0  0  0  0  0  0  0  0  0
  -25.0610  -28.2917   19.2215 C   0  0  0  0  0  0  0  0  0  0  0  0
  -29.8129  -25.1908   16.9981 C   0  0  0  0  0  0  0  0  0  0  0  0
  -17.3122  -26.7667   22.2873 C   0  0  0  0  0  0  0  0  0  0  0  0
  -24.8128  -28.0275   20.5760 C   0  0  0  0  0  0  0  0  0  0  0  0
  -18.6215  -27.2181   22.0220 C   0  0  0  0  0  0  0  0  0  0  0  0
  -19.4657  -24.9563   22.2921 C   0  0  0  0  0  0  0  0  0  0  0  0
  -19.6906  -26.3090   22.0461 C   0  0  0  0  0  0  0  0  0  0  0  0
  -25.3835  -12.1190   21.0896 C   0  0  0  0  0  0  0  0  0  0  0  0
  -22.5143  -27.4541   20.0304 C   0  0  0  0  0  0  0  0  0  0  0  0
  -24.1810  -10.1783   21.6465 C   0  0  0  0  0  0  0  0  0  0  0  0
  -22.0976   -8.4080   21.0915 C   0  0  0  0  0  0  0  0  0  0  0  0
  -24.1506   -9.4964   20.4300 C   0  0  0  0  0  0  0  0  0  0  0  0
  -25.9054  -15.4209   18.4968 C   0  0  0  0  0  0  0  0  0  0  0  0
  -26.0979  -16.7171   16.7311 C   0  0  0  0  0  0  0  0  0  0  0  0
  -25.6809  -14.3134   16.1864 C   0  0  0  0  0  0  0  0  0  0  0  0
  -27.9029  -26.9307   19.6396 C   0  0  0  0  0  0  0  0  0  0  0  0
  -28.1852  -29.1488   21.9896 C   0  0  0  0  0  0  0  0  0  0  0  0
  -26.6406  -31.2392   24.2012 C   0  0  0  0  0  0  0  0  0  0  0  0
  -25.1520  -21.9225   19.5348 C   0  0  0  0  0  0  0  0  0  0  0  0
  -32.2696  -25.1647   17.6723 C   0  0  0  0  0  0  0  0  0  0  0  0
  -26.4144  -28.7724   18.7747 C   0  0  0  0  0  0  0  0  0  0  0  0
  -18.9082  -28.6762   21.7599 C   0  0  0  0  0  0  0  0  0  0  0  0
  -25.8848  -28.1797   21.6230 C   0  0  0  0  0  0  0  0  0  0  0  0
  -31.8075  -25.6497   19.0440 C   0  0  0  0  0  0  0  0  0  0  0  0
  -28.2463  -20.7106   18.2568 C   0  0  0  0  0  0  0  0  0  0  0  0
  -30.4955  -24.9766   19.4341 C   0  0  0  0  0  0  0  0  0  0  0  0
  -27.9950  -19.2164   18.0464 C   0  0  0  0  0  0  0  0  0  0  0  0
  -27.5312  -21.2334   19.5007 C   0  0  0  0  0  0  0  0  0  0  0  0
  -25.8337  -19.4540   19.3390 C   0  0  0  0  0  0  0  0  0  0  0  0
  -17.6881  -29.4318   21.2589 C   0  0  0  0  0  0  0  0  0  0  0  0
  -29.3798  -25.3260   18.4418 C   0  0  1  0  0  0  0  0  0  0  0  0
  -16.1423  -27.7320   22.2577 C   0  0  1  0  0  0  0  0  0  0  0  0
  -27.5337  -28.3840   19.7357 C   0  0  1  0  0  0  0  0  0  0  0  0
  -26.4890  -18.8929   18.0654 C   0  0  2  0  0  0  0  0  0  0  0  0
  -15.9146  -27.8234   24.7454 C   0  0  0  0  0  0  0  0  0  0  0  0
  -27.1348  -32.8990   26.0173 C   0  0  0  0  0  0  0  0  0  0  0  0
  -28.8439  -26.8610   23.8980 C   0  0  0  0  0  0  0  0  0  0  0  0
  -28.3900  -28.4155   25.8073 C   0  0  0  0  0  0  0  0  0  0  0  0
  -30.2391  -28.9131   24.2086 C   0  0  0  0  0  0  0  0  0  0  0  0
  -25.3162  -33.4313   22.7180 C   0  0  0  0  0  0  0  0  0  0  0  0
  -20.5916  -23.9750   22.3159 C   0  0  0  0  0  0  0  0  0  0  0  0
  -21.0984  -26.7746   21.8163 C   0  0  0  0  0  0  0  0  0  1  0  0
  -15.1984  -27.6029   23.4546 C   0  0  0  0  0  0  0  0  0  0  0  0
  -22.7284  -22.4568   19.5413 C   0  0  0  0  0  0  0  0  0  0  0  0
  -22.2702  -22.7113   20.9652 C   0  0  0  0  0  0  0  0  0  0  0  0
  -27.8417  -29.1995   23.4588 C   0  0  1  0  0  0  0  0  0  0  0  0
  -26.8702  -32.7027   24.5327 C   0  0  2  0  0  0  0  0  0  0  0  0
  -28.8088  -28.3424   24.3234 C   0  0  0  0  0  0  0  0  0  0  0  0
  -26.1205  -16.6399   18.9985 N   0  0  0  0  0  0  0  0  0  0  0  0
  -26.2337  -17.4062   17.9003 N   0  0  0  0  0  0  0  0  0  0  0  0
  -27.1933  -28.6464   21.1355 N   0  0  0  0  0  0  0  0  0  0  0  0
  -26.1066  -20.8951   19.4559 N   0  0  0  0  0  0  0  0  0  0  0  0
  -26.1837  -17.3337   15.5333 N   0  0  0  0  0  0  0  0  0  0  0  0
  -25.4720  -13.0354   16.7224 N   0  0  0  0  0  0  0  0  0  0  0  0
  -28.8757  -26.6585   18.6968 N   0  0  0  0  0  0  0  0  0  0  0  0
  -27.8085  -30.6121   23.8217 N   0  0  0  0  0  0  0  0  0  0  0  0
  -23.8245  -21.5158   19.4786 N   0  0  0  0  0  0  0  0  0  0  0  0
  -16.5663  -29.1827   22.2073 N   0  3  0  0  0  0  0  0  0  0  0  0
  -25.6768  -33.5124   24.1569 N   0  3  0  0  0  0  0  0  0  0  0  0
  -21.1118  -23.6429   20.9618 N   0  3  0  0  0  0  0  0  0  0  0  0
  -25.7031  -14.4606   14.9408 O   0  0  0  0  0  0  0  0  0  0  0  0
  -27.3474  -26.1167   20.3681 O   0  0  0  0  0  0  0  0  0  0  0  0
  -29.2902  -29.5472   21.6128 O   0  0  0  0  0  0  0  0  0  0  0  0
  -25.5363  -30.7048   24.2754 O   0  0  0  0  0  0  0  0  0  0  0  0
  -25.4600  -23.1144   19.6416 O   0  0  0  0  0  0  0  0  0  0  0  0
  -25.2150  -11.0567   21.9238 O   0  0  0  0  0  0  0  0  0  0  0  0
  -21.2791  -27.0425   20.4263 O   0  0  0  0  0  0  0  0  0  1  0  0
  -21.0980   -7.5569   20.8258 F   0  0  0  0  0  0  0  0  0  0  0  0
  -25.1199   -9.6867   19.5245 F   0  0  0  0  0  0  0  0  0  0  0  0
  1  2  1  0  0  0  0
  1  5  2  0  0  0  0
  2  6  2  0  0  0  0
  3 10  2  0  0  0  0
  3 17  1  0  0  0  0
  4 11  1  0  0  0  0
  4 17  2  0  0  0  0
  5 19  1  0  0  0  0
  6 21  1  0  0  0  0
  7  9  1  0  0  0  0
  7 22  2  0  0  0  0
  8 12  2  0  0  0  0
  8 20  1  0  0  0  0
  9 25  2  0  0  0  0
 10 27  1  0  0  0  0
 11 27  2  0  0  0  0
 12 28  1  0  0  0  0
 13 14  2  0  0  0  0
 13 29  1  0  0  0  0
 14 30  1  0  0  0  0
 15 23  1  0  0  0  0
 15 28  2  0  0  0  0
 16 30  2  0  0  0  0
 16 31  1  0  0  0  0
 17 32  1  0  0  0  0
 18 32  1  0  0  0  0
 18 33  2  0  0  0  0
 18 34  1  0  0  0  0
 19 21  2  0  0  0  0
 19 39  1  0  0  0  0
 20 23  2  0  0  0  0
 20 40  1  0  0  0  0
 21 50  1  0  0  0  0
 22 24  1  0  0  0  0
 22 51  1  0  0  0  0
 23 42  1  0  0  0  0
 24 26  2  0  0  0  0
 24 41  1  0  0  0  0
 25 26  1  0  0  0  0
 25 60  1  0  0  0  0
 26 61  1  0  0  0  0
 27 85  1  0  0  0  0
 28 86  1  0  0  0  0
 29 31  2  0  0  0  0
 29 85  1  0  0  0  0
 30 87  1  0  0  0  0
 31 88  1  0  0  0  0
 32 68  2  0  0  0  0
 33 69  1  0  0  0  0
 33 72  1  0  0  0  0
 34 73  1  0  0  0  0
 34 80  2  0  0  0  0
 35 52  1  0  0  0  0
 35 74  1  0  0  0  0
 35 81  2  0  0  0  0
 36 65  1  0  0  0  0
 36 70  1  0  0  0  0
 36 82  2  0  0  0  0
 37 66  1  0  0  0  0
 37 75  1  0  0  0  0
 37 83  2  0  0  0  0
 38 71  1  0  0  0  0
 38 76  1  0  0  0  0
 38 84  2  0  0  0  0
 39 43  1  0  0  0  0
 40 52  1  0  0  0  0
 41 49  1  0  0  0  0
 42 70  1  0  0  0  0
 43 45  1  0  0  0  0
 44 46  1  0  0  0  0
 44 47  1  0  0  0  0
 45 50  1  0  0  0  0
 46 53  1  0  0  0  0
 47 71  1  0  0  0  0
 48 53  1  0  0  0  0
 48 71  1  0  0  0  0
 49 77  1  0  0  0  0
 50 74  1  0  0  0  0
 51 62  1  0  0  0  0
 51 77  1  0  0  0  0
 52 70  1  0  0  0  0
 53 69  1  0  0  0  0
 54 62  1  0  0  0  0
 55 66  1  0  0  0  0
 56 67  1  0  0  0  0
 57 67  1  0  0  0  0
 58 67  1  0  0  0  0
 59 78  1  0  0  0  0
 60 79  1  0  0  0  0
 61 86  1  0  0  0  0
 63 64  1  0  0  0  0
 63 76  1  0  0  0  0
 64 79  1  0  0  0  0
 65 67  1  0  0  0  0
 65 75  1  0  0  0  0
 66 78  1  0  0  0  0
 68 69  1  0  0  0  0
M  CHG  3  77   1  78   1  79   1
M  ISO  4  38 100  61 101  76 100  86 101
M  END
> <Batch ID>
0133

> <Smiles>
CCC1NCCc2c1ccc(CNCC[100NH:0][100C:0](=O)N1CCCC(n3nc(-c4ccc(Oc5ccc(F)cc5F)cc4)c(C(N)=O)c3N)C1)c2[101CH2:1][101O:1]c1ccc2c(c1)CN(C(=O)C(NC(=O)C(C)NC)C(C)(C)C)C(C(=O)NC1CCCc3ccccc31)C2

> <Shape>
0.252

> <Color>
0.065

> <Negative vol penalty>
0.000

$$$$

  -OEChem-04052320553D

 88 98  0     1  0  0  0  0  0999 V2000
  -16.7184  -28.6330   22.9944 C   0  0  0  0  0  0  0  0  0  0  0  0
  -17.6032  -27.5627   22.9113 C   0  0  0  0  0  0  0  0  0  0  0  0
  -23.4978   -9.6659   20.3465 C   0  0  0  0  0  0  0  0  0  0  0  0
  -23.9783  -10.1967   22.6540 C   0  0  0  0  0  0  0  0  0  0  0  0
  -17.2081  -29.9352   23.0862 C   0  0  0  0  0  0  0  0  0  0  0  0
  -18.9782  -27.7940   22.9189 C   0  0  0  0  0  0  0  0  0  0  0  0
  -23.2958  -24.2385   25.4135 C   0  0  0  0  0  0  0  0  0  0  0  0
  -27.2018  -20.6217   21.8988 C   0  0  0  0  0  0  0  0  0  0  0  0
  -28.2045  -19.8094   21.3694 C   0  0  0  0  0  0  0  0  0  0  0  0
  -22.8922   -8.4748   20.7467 C   0  0  0  0  0  0  0  0  0  0  0  0
  -23.3727   -9.0056   23.0541 C   0  0  0  0  0  0  0  0  0  0  0  0
  -24.1558  -23.2855   24.8694 C   0  0  0  0  0  0  0  0  0  0  0  0
  -19.9298   -7.5038   22.0561 C   0  0  0  0  0  0  0  0  0  0  0  0
  -18.7064   -7.1714   21.4746 C   0  0  0  0  0  0  0  0  0  0  0  0
  -27.5214  -19.6036   24.0664 C   0  0  0  0  0  0  0  0  0  0  0  0
  -25.8878  -24.9557   24.6970 C   0  0  0  0  0  0  0  0  0  0  0  0
  -19.6725   -5.1344   20.6063 C   0  0  0  0  0  0  0  0  0  0  0  0
  -24.0409  -10.5269   21.3002 C   0  0  0  0  0  0  0  0  0  0  0  0
  -24.0509  -13.0127   20.7271 C   0  0  0  0  0  0  0  0  0  0  0  0
  -18.5899  -30.1819   23.1047 C   0  0  0  0  0  0  0  0  0  0  0  0
  -23.7226  -25.5621   25.5935 C   0  0  0  0  0  0  0  0  0  0  0  0
  -19.4869  -29.1008   23.0097 C   0  0  0  0  0  0  0  0  0  0  0  0
  -28.5242  -18.7913   23.5370 C   0  0  0  0  0  0  0  0  0  0  0  0
  -25.0321  -25.9230   25.2458 C   0  0  0  0  0  0  0  0  0  0  0  0
  -26.8603  -20.5188   23.2473 C   0  0  0  0  0  0  0  0  0  0  0  0
  -28.8657  -18.8941   22.1885 C   0  0  0  0  0  0  0  0  0  0  0  0
  -22.8296   -8.1447   22.1004 C   0  0  0  0  0  0  0  0  0  0  0  0
  -25.4511  -23.6447   24.5084 C   0  0  0  0  0  0  0  0  0  0  0  0
  -21.0247   -6.6515   21.9127 C   0  0  0  0  0  0  0  0  0  0  0  0
  -18.5777   -5.9867   20.7497 C   0  0  0  0  0  0  0  0  0  0  0  0
  -20.8961   -5.4668   21.1878 C   0  0  0  0  0  0  0  0  0  0  0  0
  -24.6671  -11.7571   20.8874 C   0  0  0  0  0  0  0  0  0  0  0  0
  -25.0668  -13.8449   20.3250 C   0  0  0  0  0  0  0  0  0  0  0  0
  -22.6825  -13.3926   20.9242 C   0  0  0  0  0  0  0  0  0  0  0  0
  -22.8109  -28.3871   24.4570 C   0  0  0  0  0  0  0  0  0  0  0  0
  -24.9945  -29.5081   26.5777 C   0  0  0  0  0  0  0  0  0  0  0  0
  -27.8042  -28.9244   28.4248 C   0  0  0  0  0  0  0  0  0  0  0  0
  -30.3038  -15.7138   20.8005 C   0  0  0  0  0  0  0  0  0  0  0  0
  -19.0717  -31.6101   23.1576 C   0  0  0  0  0  0  0  0  0  0  0  0
  -22.7914  -26.5719   26.2064 C   0  0  0  0  0  0  0  0  0  0  0  0
  -25.5455  -27.3259   25.4377 C   0  0  0  0  0  0  0  0  0  0  0  0
  -20.5444  -31.7425   23.5370 C   0  0  0  0  0  0  0  0  0  0  0  0
  -29.7829  -12.7972   18.8259 C   0  0  0  0  0  0  0  0  0  0  0  0
  -21.3919  -30.7570   22.7388 C   0  0  0  0  0  0  0  0  0  0  0  0
  -34.2273  -19.0984   24.6937 C   0  0  0  0  0  0  0  0  0  0  0  0
  -34.0074  -20.5757   24.5230 C   0  0  0  0  0  0  0  0  0  0  0  0
  -28.3577  -12.3671   19.1777 C   0  0  0  0  0  0  0  0  0  0  0  0
  -30.5162  -13.3662   20.0385 C   0  0  0  0  0  0  0  0  0  0  0  0
  -28.3853  -14.0299   21.0837 C   0  0  0  0  0  0  0  0  0  0  0  0
  -29.1538  -16.7973   26.3361 C   0  0  0  0  0  0  0  0  0  0  0  0
  -20.9854  -29.3094   23.0400 C   0  0  1  0  0  0  0  0  0  0  0  0
  -29.2611  -17.7635   24.4817 C   0  0  1  0  0  0  0  0  0  0  0  0
  -23.1650  -28.0118   25.8682 C   0  0  1  0  0  0  0  0  0  0  0  0
  -33.1949  -19.8059   25.5270 C   0  0  0  0  0  0  0  0  0  0  0  0
  -29.7091  -18.1690   25.9118 C   0  0  2  0  0  0  0  0  0  0  0  0
  -27.5869  -13.5011   19.8799 C   0  0  2  0  0  0  0  0  0  0  0  0
  -29.3725  -30.0436   30.0326 C   0  0  0  0  0  0  0  0  0  0  0  0
  -26.2700  -31.0369   24.2656 C   0  0  0  0  0  0  0  0  0  0  0  0
  -28.3096  -31.3432   25.6848 C   0  0  0  0  0  0  0  0  0  0  0  0
  -26.1299  -32.3155   26.4104 C   0  0  0  0  0  0  0  0  0  0  0  0
  -27.1837  -26.9775   30.5657 C   0  0  0  0  0  0  0  0  0  0  0  0
  -29.9352  -18.0337   21.6011 C   0  0  0  0  0  0  0  0  0  0  0  0
  -25.7821  -21.3936   23.8163 C   0  0  0  0  0  0  0  0  0  1  0  0
  -31.7145  -19.5586   25.2852 C   0  0  0  0  0  0  0  0  0  0  0  0
  -31.1919  -18.3934   26.1266 C   0  0  0  0  0  0  0  0  0  0  0  0
  -26.4722  -29.8134   26.5301 C   0  0  1  0  0  0  0  0  0  0  0  0
  -28.1228  -29.1896   29.8851 C   0  0  2  0  0  0  0  0  0  0  0  0
  -26.7854  -31.1012   25.7172 C   0  0  0  0  0  0  0  0  0  0  0  0
  -25.9733  -11.7846   20.6096 N   0  0  0  0  0  0  0  0  0  0  0  0
  -26.1861  -13.0676   20.2706 N   0  0  0  0  0  0  0  0  0  0  0  0
  -24.5952  -28.2787   26.0348 N   0  0  0  0  0  0  0  0  0  0  0  0
  -29.7329  -14.4384   20.6574 N   0  0  0  0  0  0  0  0  0  0  0  0
  -25.1028  -15.1586   20.0160 N   0  0  0  0  0  0  0  0  0  0  0  0
  -21.7701  -12.4129   21.3389 N   0  0  0  0  0  0  0  0  0  0  0  0
  -21.5303  -28.8857   24.3120 N   0  0  0  0  0  0  0  0  0  0  0  0
  -26.9249  -29.8568   27.9163 N   0  0  0  0  0  0  0  0  0  0  0  0
  -29.4913  -16.6737   21.3913 N   0  0  0  0  0  0  0  0  0  0  0  0
  -28.3047  -16.8289   25.1340 N   0  3  0  0  0  0  0  0  0  0  0  0
  -28.3429  -27.9056   30.6088 N   0  3  0  0  0  0  0  0  0  0  0  0
  -22.2775  -14.5626   20.7224 O   0  0  0  0  0  0  0  0  0  0  0  0
  -23.6386  -28.2370   23.5660 O   0  0  0  0  0  0  0  0  0  0  0  0
  -24.2239  -30.3272   27.0845 O   0  0  0  0  0  0  0  0  0  0  0  0
  -28.2899  -27.9861   27.7968 O   0  0  0  0  0  0  0  0  0  0  0  0
  -31.4507  -15.9788   20.4244 O   0  0  0  0  0  0  0  0  0  0  0  0
  -22.2385   -6.9826   22.4913 O   0  0  0  0  0  0  0  0  0  0  0  0
  -26.2924  -22.7166   23.9766 O   0  0  0  0  0  0  0  0  0  1  0  0
  -17.4023   -5.6668   20.1926 F   0  0  0  0  0  0  0  0  0  0  0  0
  -21.9440   -4.6435   21.0476 F   0  0  0  0  0  0  0  0  0  0  0  0
  1  2  1  0  0  0  0
  1  5  2  0  0  0  0
  2  6  2  0  0  0  0
  3 10  2  0  0  0  0
  3 18  1  0  0  0  0
  4 11  1  0  0  0  0
  4 18  2  0  0  0  0
  5 20  1  0  0  0  0
  6 22  1  0  0  0  0
  7 12  2  0  0  0  0
  7 21  1  0  0  0  0
  8  9  2  0  0  0  0
  8 25  1  0  0  0  0
  9 26  1  0  0  0  0
 10 27  1  0  0  0  0
 11 27  2  0  0  0  0
 12 28  1  0  0  0  0
 13 14  2  0  0  0  0
 13 29  1  0  0  0  0
 14 30  1  0  0  0  0
 15 23  1  0  0  0  0
 15 25  2  0  0  0  0
 16 24  1  0  0  0  0
 16 28  2  0  0  0  0
 17 30  2  0  0  0  0
 17 31  1  0  0  0  0
 18 32  1  0  0  0  0
 19 32  1  0  0  0  0
 19 33  2  0  0  0  0
 19 34  1  0  0  0  0
 20 22  2  0  0  0  0
 20 39  1  0  0  0  0
 21 24  2  0  0  0  0
 21 40  1  0  0  0  0
 22 51  1  0  0  0  0
 23 26  2  0  0  0  0
 23 52  1  0  0  0  0
 24 41  1  0  0  0  0
 25 63  1  0  0  0  0
 26 62  1  0  0  0  0
 27 85  1  0  0  0  0
 28 86  1  0  0  0  0
 29 31  2  0  0  0  0
 29 85  1  0  0  0  0
 30 87  1  0  0  0  0
 31 88  1  0  0  0  0
 32 69  2  0  0  0  0
 33 70  1  0  0  0  0
 33 73  1  0  0  0  0
 34 74  1  0  0  0  0
 34 80  2  0  0  0  0
 35 53  1  0  0  0  0
 35 75  1  0  0  0  0
 35 81  2  0  0  0  0
 36 66  1  0  0  0  0
 36 71  1  0  0  0  0
 36 82  2  0  0  0  0
 37 67  1  0  0  0  0
 37 76  1  0  0  0  0
 37 83  2  0  0  0  0
 38 72  1  0  0  0  0
 38 77  1  0  0  0  0
 38 84  2  0  0  0  0
 39 42  1  0  0  0  0
 40 53  1  0  0  0  0
 41 71  1  0  0  0  0
 42 44  1  0  0  0  0
 43 47  1  0  0  0  0
 43 48  1  0  0  0  0
 44 51  1  0  0  0  0
 45 46  1  0  0  0  0
 45 54  1  0  0  0  0
 46 54  1  0  0  0  0
 47 56  1  0  0  0  0
 48 72  1  0  0  0  0
 49 56  1  0  0  0  0
 49 72  1  0  0  0  0
 50 55  1  0  0  0  0
 50 78  1  0  0  0  0
 51 75  1  0  0  0  0
 52 55  1  0  0  0  0
 52 78  1  0  0  0  0
 53 71  1  0  0  0  0
 54 64  1  0  0  0  0
 55 65  1  0  0  0  0
 56 70  1  0  0  0  0
 57 67  1  0  0  0  0
 58 68  1  0  0  0  0
 59 68  1  0  0  0  0
 60 68  1  0  0  0  0
 61 79  1  0  0  0  0
 62 77  1  0  0  0  0
 63 86  1  0  0  0  0
 64 65  1  0  0  0  0
 66 68  1  0  0  0  0
 66 76  1  0  0  0  0
 67 79  1  0  0  0  0
 69 70  1  0  0  0  0
M  CHG  2  78   1  79   1
M  ISO  4  38 100  63 101  77 100  86 101
M  END
> <Batch ID>
0133

> <Smiles>
CNC(C)C(=O)NC(C(=O)N1Cc2cc([101O:1][101CH2:1]c3ccc(C[100NH:0][100C:0](=O)N4CCCC(n5nc(-c6ccc(Oc7ccc(F)cc7F)cc6)c(C(N)=O)c5N)C4)c(C4NCC4CCC4CC4)c3)ccc2CC1C(=O)NC1CCCc2ccccc21)C(C)(C)C

> <Shape>
0.249

> <Color>
0.185

> <Negative vol penalty>
0.000

$$$$

  -OEChem-04052320553D

 88 97  0     1  0  0  0  0  0999 V2000
  -24.5910  -30.6817   17.3370 C   0  0  0  0  0  0  0  0  0  0  0  0
  -23.8368  -29.5130   17.3619 C   0  0  0  0  0  0  0  0  0  0  0  0
  -28.2263  -13.8792   21.5900 C   0  0  0  0  0  0  0  0  0  0  0  0
  -27.9673  -13.6081   19.2033 C   0  0  0  0  0  0  0  0  0  0  0  0
  -25.1324  -31.1860   18.5188 C   0  0  0  0  0  0  0  0  0  0  0  0
  -23.6245  -28.8472   18.5686 C   0  0  0  0  0  0  0  0  0  0  0  0
  -16.2855  -18.4676   22.0919 C   0  0  0  0  0  0  0  0  0  0  0  0
  -18.6273  -17.8753   22.0448 C   0  0  0  0  0  0  0  0  0  0  0  0
  -18.5956  -25.7807   20.2458 C   0  0  0  0  0  0  0  0  0  0  0  0
  -16.6276  -19.8043   22.2965 C   0  0  0  0  0  0  0  0  0  0  0  0
  -18.9695  -19.2120   22.2494 C   0  0  0  0  0  0  0  0  0  0  0  0
  -29.5587  -14.2473   21.4037 C   0  0  0  0  0  0  0  0  0  0  0  0
  -29.2998  -13.9763   19.0169 C   0  0  0  0  0  0  0  0  0  0  0  0
  -18.2773  -24.4234   20.2347 C   0  0  0  0  0  0  0  0  0  0  0  0
  -31.2720  -17.0024   20.4513 C   0  0  0  0  0  0  0  0  0  0  0  0
  -31.7435  -18.1094   21.1569 C   0  0  0  0  0  0  0  0  0  0  0  0
  -18.9304  -24.2575   22.5510 C   0  0  0  0  0  0  0  0  0  0  0  0
  -33.3996  -16.7180   22.2332 C   0  0  0  0  0  0  0  0  0  0  0  0
  -27.4306  -13.5596   20.4899 C   0  0  0  0  0  0  0  0  0  0  0  0
  -24.9325  -14.0289   20.7068 C   0  0  0  0  0  0  0  0  0  0  0  0
  -17.2853  -17.5031   21.9661 C   0  0  0  0  0  0  0  0  0  0  0  0
  -24.9185  -30.5313   19.7420 C   0  0  0  0  0  0  0  0  0  0  0  0
  -19.0948  -26.3853   21.4084 C   0  0  0  0  0  0  0  0  0  0  0  0
  -24.1646  -29.3424   19.7676 C   0  0  0  0  0  0  0  0  0  0  0  0
  -19.2518  -25.6232   22.5750 C   0  0  0  0  0  0  0  0  0  0  0  0
  -17.9696  -20.1765   22.3753 C   0  0  0  0  0  0  0  0  0  0  0  0
  -30.0955  -14.2959   20.1171 C   0  0  0  0  0  0  0  0  0  0  0  0
  -18.4474  -23.6609   21.3866 C   0  0  0  0  0  0  0  0  0  0  0  0
  -31.8643  -15.7532   20.6367 C   0  0  0  0  0  0  0  0  0  0  0  0
  -32.8073  -17.9672   22.0478 C   0  0  0  0  0  0  0  0  0  0  0  0
  -32.9280  -15.6110   21.5276 C   0  0  0  0  0  0  0  0  0  0  0  0
  -26.0543  -13.1787   20.6818 C   0  0  0  0  0  0  0  0  0  0  0  0
  -23.8681  -13.1867   20.9171 C   0  0  0  0  0  0  0  0  0  0  0  0
  -24.8593  -15.4525   20.5534 C   0  0  0  0  0  0  0  0  0  0  0  0
  -21.8066  -27.8486   22.1886 C   0  0  0  0  0  0  0  0  0  0  0  0
  -20.2303  -28.4492   24.9593 C   0  0  0  0  0  0  0  0  0  0  0  0
  -17.7560  -27.5619   27.1359 C   0  0  0  0  0  0  0  0  0  0  0  0
  -21.1134   -8.4580   19.8232 C   0  0  0  0  0  0  0  0  0  0  0  0
  -25.5635  -31.0886   20.9862 C   0  0  0  0  0  0  0  0  0  0  0  0
  -19.4082  -27.8564   21.4116 C   0  0  0  0  0  0  0  0  0  0  0  0
  -19.7652  -26.2290   23.8548 C   0  0  0  0  0  0  0  0  0  0  0  0
  -24.9781  -30.5272   22.2794 C   0  0  0  0  0  0  0  0  0  0  0  0
  -23.7430   -8.3003   22.2184 C   0  0  0  0  0  0  0  0  0  0  0  0
  -17.4392  -15.2076   22.9089 C   0  0  0  0  0  0  0  0  0  0  0  0
  -17.4849  -15.5797   20.4034 C   0  0  0  0  0  0  0  0  0  0  0  0
  -24.8451  -29.0102   22.1909 C   0  0  0  0  0  0  0  0  0  0  0  0
  -17.1444  -13.7254   22.6804 C   0  0  0  0  0  0  0  0  0  0  0  0
  -17.1899  -14.0966   20.1808 C   0  0  0  0  0  0  0  0  0  0  0  0
  -24.4894   -9.6221   22.0298 C   0  0  0  0  0  0  0  0  0  0  0  0
  -23.2325   -7.7459   20.8902 C   0  0  0  0  0  0  0  0  0  0  0  0
  -23.1602  -10.0069   19.9122 C   0  0  0  0  0  0  0  0  0  0  0  0
  -16.9203  -16.0739   21.7472 C   0  0  0  0  0  0  0  0  0  0  0  0
  -23.8913  -28.6051   21.0606 C   0  0  1  0  0  0  0  0  0  0  0  0
  -20.3950  -28.2547   22.5048 C   0  0  1  0  0  0  0  0  0  0  0  0
  -17.7075  -13.2351   21.3400 C   0  0  0  0  0  0  0  0  0  0  0  0
  -23.6456  -10.6334   21.2306 C   0  0  2  0  0  0  0  0  0  0  0  0
  -16.7340  -28.2203   29.3312 C   0  0  0  0  0  0  0  0  0  0  0  0
  -22.6037  -27.2191   26.4303 C   0  0  0  0  0  0  0  0  0  0  0  0
  -21.1570  -27.0333   28.4652 C   0  0  0  0  0  0  0  0  0  0  0  0
  -21.6661  -29.2763   27.4995 C   0  0  0  0  0  0  0  0  0  0  0  0
  -15.1217  -28.0742   25.8881 C   0  0  0  0  0  0  0  0  0  0  0  0
  -18.3369  -21.6148   22.5937 C   0  0  0  0  0  0  0  0  0  1  0  0
  -17.3598  -11.7647   21.1152 C   0  0  0  0  0  0  0  0  0  0  0  0
  -19.0570   -9.3191   18.7328 C   0  0  0  0  0  0  0  0  0  0  0  0
  -18.0705   -9.7670   19.7951 C   0  0  0  0  0  0  0  0  0  0  0  0
  -20.0780  -27.7331   26.2796 C   0  0  1  0  0  0  0  0  0  0  0  0
  -16.6752  -28.3795   27.8200 C   0  0  2  0  0  0  0  0  0  0  0  0
  -21.3683  -27.8033   27.1441 C   0  0  0  0  0  0  0  0  0  0  0  0
  -25.7325  -11.8949   20.8620 N   0  0  0  0  0  0  0  0  0  0  0  0
  -24.3965  -11.9322   21.0023 N   0  0  0  0  0  0  0  0  0  0  0  0
  -20.0636  -27.6699   23.8058 N   0  0  0  0  0  0  0  0  0  0  0  0
  -22.4387   -8.7535   20.1828 N   0  0  0  0  0  0  0  0  0  0  0  0
  -22.5411  -13.4043   21.0356 N   0  0  0  0  0  0  0  0  0  0  0  0
  -26.0485  -16.1641   20.3443 N   0  0  0  0  0  0  0  0  0  0  0  0
  -22.5155  -28.7915   21.4690 N   0  0  0  0  0  0  0  0  0  0  0  0
  -18.8979  -28.3039   26.9198 N   0  0  0  0  0  0  0  0  0  0  0  0
  -20.4297   -9.4706   19.1614 N   0  0  0  0  0  0  0  0  0  0  0  0
  -15.3268  -27.9486   27.3541 N   0  3  0  0  0  0  0  0  0  0  0  0
  -18.2593  -11.2187   20.0790 N   0  3  0  0  0  0  0  0  0  0  0  0
  -23.7732  -16.0770   20.6169 O   0  0  0  0  0  0  0  0  0  0  0  0
  -22.2223  -26.7609   22.5705 O   0  0  0  0  0  0  0  0  0  0  0  0
  -20.4806  -29.6570   24.9519 O   0  0  0  0  0  0  0  0  0  0  0  0
  -17.6038  -26.3819   26.8276 O   0  0  0  0  0  0  0  0  0  0  0  0
  -20.5773   -7.3743   20.0782 O   0  0  0  0  0  0  0  0  0  0  0  0
  -31.3955  -14.6553   19.9349 O   0  0  0  0  0  0  0  0  0  0  0  0
  -18.1381  -22.3357   21.3784 O   0  0  0  0  0  0  0  0  0  1  0  0
  -33.2609  -19.0307   22.7242 F   0  0  0  0  0  0  0  0  0  0  0  0
  -33.5018  -14.4136   21.7091 F   0  0  0  0  0  0  0  0  0  0  0  0
  1  2  1  0  0  0  0
  1  5  2  0  0  0  0
  2  6  2  0  0  0  0
  3 12  2  0  0  0  0
  3 19  1  0  0  0  0
  4 13  1  0  0  0  0
  4 19  2  0  0  0  0
  5 22  1  0  0  0  0
  6 24  1  0  0  0  0
  7 10  2  0  0  0  0
  7 21  1  0  0  0  0
  8 11  1  0  0  0  0
  8 21  2  0  0  0  0
  9 14  2  0  0  0  0
  9 23  1  0  0  0  0
 10 26  1  0  0  0  0
 11 26  2  0  0  0  0
 12 27  1  0  0  0  0
 13 27  2  0  0  0  0
 14 28  1  0  0  0  0
 15 16  2  0  0  0  0
 15 29  1  0  0  0  0
 16 30  1  0  0  0  0
 17 25  1  0  0  0  0
 17 28  2  0  0  0  0
 18 30  2  0  0  0  0
 18 31  1  0  0  0  0
 19 32  1  0  0  0  0
 20 32  1  0  0  0  0
 20 33  2  0  0  0  0
 20 34  1  0  0  0  0
 21 52  1  0  0  0  0
 22 24  2  0  0  0  0
 22 39  1  0  0  0  0
 23 25  2  0  0  0  0
 23 40  1  0  0  0  0
 24 53  1  0  0  0  0
 25 41  1  0  0  0  0
 26 62  1  0  0  0  0
 27 85  1  0  0  0  0
 28 86  1  0  0  0  0
 29 31  2  0  0  0  0
 29 85  1  0  0  0  0
 30 87  1  0  0  0  0
 31 88  1  0  0  0  0
 32 69  2  0  0  0  0
 33 70  1  0  0  0  0
 33 73  1  0  0  0  0
 34 74  1  0  0  0  0
 34 80  2  0  0  0  0
 35 54  1  0  0  0  0
 35 75  1  0  0  0  0
 35 81  2  0  0  0  0
 36 66  1  0  0  0  0
 36 71  1  0  0  0  0
 36 82  2  0  0  0  0
 37 67  1  0  0  0  0
 37 76  1  0  0  0  0
 37 83  2  0  0  0  0
 38 72  1  0  0  0  0
 38 77  1  0  0  0  0
 38 84  2  0  0  0  0
 39 42  1  0  0  0  0
 40 54  1  0  0  0  0
 41 71  1  0  0  0  0
 42 46  1  0  0  0  0
 43 49  1  0  0  0  0
 43 50  1  0  0  0  0
 44 47  1  0  0  0  0
 44 52  1  0  0  0  0
 45 48  1  0  0  0  0
 45 52  1  0  0  0  0
 46 53  1  0  0  0  0
 47 55  1  0  0  0  0
 48 55  1  0  0  0  0
 49 56  1  0  0  0  0
 50 72  1  0  0  0  0
 51 56  1  0  0  0  0
 51 72  1  0  0  0  0
 53 75  1  0  0  0  0
 54 71  1  0  0  0  0
 55 63  1  0  0  0  0
 56 70  1  0  0  0  0
 57 67  1  0  0  0  0
 58 68  1  0  0  0  0
 59 68  1  0  0  0  0
 60 68  1  0  0  0  0
 61 78  1  0  0  0  0
 62 86  1  0  0  0  0
 63 79  1  0  0  0  0
 64 65  1  0  0  0  0
 64 77  1  0  0  0  0
 65 79  1  0  0  0  0
 66 68  1  0  0  0  0
 66 76  1  0  0  0  0
 67 78  1  0  0  0  0
 69 70  1  0  0  0  0
M  CHG  2  78   1  79   1
M  ISO  4  38 100  62 101  77 100  86 101
M  END
> <Batch ID>
0133

> <Smiles>
CNC(C)C(=O)NC(C(=O)N1Cc2cc([101O:1][101CH2:1]c3ccc(C4CCC(CNCC[100NH:0][100C:0](=O)N5CCCC(n6nc(-c7ccc(Oc8ccc(F)cc8F)cc7)c(C(N)=O)c6N)C5)CC4)cc3)ccc2CC1C(=O)NC1CCCc2ccccc21)C(C)(C)C

> <Shape>
0.216

> <Color>
0.119

> <Negative vol penalty>
0.000

$$$$

  -OEChem-04052320553D

 80 88  0     1  0  0  0  0  0999 V2000
  -17.3553  -30.6535   24.0626 C   0  0  0  0  0  0  0  0  0  0  0  0
  -18.6326  -30.7924   23.5315 C   0  0  0  0  0  0  0  0  0  0  0  0
  -28.6712  -21.2356   19.6382 C   0  0  0  0  0  0  0  0  0  0  0  0
  -31.0734  -21.4820   19.7158 C   0  0  0  0  0  0  0  0  0  0  0  0
  -16.7142  -29.4175   24.0120 C   0  0  0  0  0  0  0  0  0  0  0  0
  -19.2645  -29.6986   22.9390 C   0  0  0  0  0  0  0  0  0  0  0  0
  -23.5451  -30.5503   20.6687 C   0  0  0  0  0  0  0  0  0  0  0  0
  -30.1616  -31.3851   21.3666 C   0  0  0  0  0  0  0  0  0  0  0  0
  -28.8099  -19.8515   19.7412 C   0  0  0  0  0  0  0  0  0  0  0  0
  -31.2120  -20.0979   19.8189 C   0  0  0  0  0  0  0  0  0  0  0  0
  -24.7228  -30.8297   21.3607 C   0  0  0  0  0  0  0  0  0  0  0  0
  -28.5168  -16.2792   20.3473 C   0  0  0  0  0  0  0  0  0  0  0  0
  -27.6776  -15.6078   21.2364 C   0  0  0  0  0  0  0  0  0  0  0  0
  -29.1003  -30.8907   22.1166 C   0  0  0  0  0  0  0  0  0  0  0  0
  -25.4895  -28.5792   20.9525 C   0  0  0  0  0  0  0  0  0  0  0  0
  -28.5722  -16.9101   23.0642 C   0  0  0  0  0  0  0  0  0  0  0  0
  -28.7828  -31.2643   19.4321 C   0  0  0  0  0  0  0  0  0  0  0  0
  -29.8030  -22.0509   19.6254 C   0  0  0  0  0  0  0  0  0  0  0  0
  -28.9800  -24.3360   20.4056 C   0  0  0  0  0  0  0  0  0  0  0  0
  -17.3443  -28.3054   23.4295 C   0  0  0  0  0  0  0  0  0  0  0  0
  -23.3257  -29.2777   20.1219 C   0  0  0  0  0  0  0  0  0  0  0  0
  -18.6244  -28.4487   22.8567 C   0  0  0  0  0  0  0  0  0  0  0  0
  -24.3094  -28.2869   20.2519 C   0  0  0  0  0  0  0  0  0  0  0  0
  -30.0077  -31.5789   19.9982 C   0  0  0  0  0  0  0  0  0  0  0  0
  -30.0802  -19.2827   19.8317 C   0  0  0  0  0  0  0  0  0  0  0  0
  -25.6939  -29.8433   21.5052 C   0  0  0  0  0  0  0  0  0  0  0  0
  -29.3838  -17.2659   20.8166 C   0  0  0  0  0  0  0  0  0  0  0  0
  -27.7052  -15.9232   22.5948 C   0  0  0  0  0  0  0  0  0  0  0  0
  -29.4115  -17.5814   22.1751 C   0  0  0  0  0  0  0  0  0  0  0  0
  -29.6605  -23.4807   19.5183 C   0  0  0  0  0  0  0  0  0  0  0  0
  -27.9157  -30.6072   21.4560 C   0  0  0  0  0  0  0  0  0  1  0  0
  -29.1362  -25.5881   19.8631 C   0  0  0  0  0  0  0  0  0  0  0  0
  -28.2703  -24.0263   21.6123 C   0  0  0  0  0  0  0  0  0  0  0  0
  -21.1763  -26.9808   20.5773 C   0  0  0  0  0  0  0  0  0  0  0  0
  -22.6898  -25.6028   18.0608 C   0  0  0  0  0  0  0  0  0  0  0  0
  -25.5284  -25.3222   16.1871 C   0  0  0  0  0  0  0  0  0  0  0  0
  -32.3261  -29.4912   17.4682 C   0  0  0  0  0  0  0  0  0  0  0  0
  -16.6014  -26.9931   23.3946 C   0  0  0  0  0  0  0  0  0  0  0  0
  -22.0617  -29.0003   19.3553 C   0  0  0  0  0  0  0  0  0  0  0  0
  -24.1311  -26.9109   19.6660 C   0  0  0  0  0  0  0  0  0  0  0  0
  -17.5172  -25.7979   23.1512 C   0  0  0  0  0  0  0  0  0  0  0  0
  -30.8930  -27.0214   15.3414 C   0  0  0  0  0  0  0  0  0  0  0  0
  -18.4219  -26.0706   21.9588 C   0  0  0  0  0  0  0  0  0  0  0  0
  -30.3945  -25.9484   16.3110 C   0  0  0  0  0  0  0  0  0  0  0  0
  -32.2016  -27.6483   15.8176 C   0  0  0  0  0  0  0  0  0  0  0  0
  -31.6706  -27.1069   18.1625 C   0  0  0  0  0  0  0  0  0  0  0  0
  -19.3435  -27.2654   22.2346 C   0  0  1  0  0  0  0  0  0  0  0  0
  -21.7206  -27.5151   19.2828 C   0  0  1  0  0  0  0  0  0  0  0  0
  -30.3245  -26.4850   17.7534 C   0  0  2  0  0  0  0  0  0  0  0  0
  -26.4751  -24.0874   14.2183 C   0  0  0  0  0  0  0  0  0  0  0  0
  -23.0278  -23.1111   19.7891 C   0  0  0  0  0  0  0  0  0  0  0  0
  -24.7575  -22.3062   18.1678 C   0  0  0  0  0  0  0  0  0  0  0  0
  -22.4064  -22.6541   17.4102 C   0  0  0  0  0  0  0  0  0  0  0  0
  -25.9563  -27.8290   14.6733 C   0  0  0  0  0  0  0  0  0  0  0  0
  -32.3930  -31.2338   19.2340 C   0  0  0  0  0  0  0  0  0  0  0  0
  -31.1235  -32.1064   19.1687 C   0  0  2  0  0  0  0  0  0  0  0  0
  -23.8606  -24.6632   17.9013 C   0  0  1  0  0  0  0  0  0  0  0  0
  -25.7499  -25.3399   14.6854 C   0  0  2  0  0  0  0  0  0  0  0  0
  -23.5159  -23.2089   18.3299 C   0  0  0  0  0  0  0  0  0  0  0  0
  -27.7292  -30.7816   20.1283 N   0  0  0  0  0  0  0  0  0  0  0  0
  -30.2080  -24.1342   18.4901 N   0  0  0  0  0  0  0  0  0  0  0  0
  -29.8717  -25.4135   18.7279 N   0  0  0  0  0  0  0  0  0  0  0  0
  -22.8755  -26.6865   18.9308 N   0  0  0  0  0  0  0  0  0  0  0  0
  -32.0676  -28.1386   17.1915 N   0  0  0  0  0  0  0  0  0  0  0  0
  -28.7146  -26.8104   20.2511 N   0  0  0  0  0  0  0  0  0  0  0  0
  -28.9761  -24.0338   22.8231 N   0  0  0  0  0  0  0  0  0  0  0  0
  -20.0326  -27.6217   21.0139 N   0  0  0  0  0  0  0  0  0  0  0  0
  -24.2997  -24.7896   16.5159 N   0  0  0  0  0  0  0  0  0  0  0  0
  -32.1694  -29.8745   18.7946 N   0  0  0  0  0  0  0  0  0  0  0  0
  -31.5181  -33.5147   19.5338 N   0  3  0  0  0  0  0  0  0  0  0  0
  -26.5629  -26.5265   14.2957 N   0  3  0  0  0  0  0  0  0  0  0  0
  -27.0502  -23.7350   21.6146 O   0  0  0  0  0  0  0  0  0  0  0  0
  -21.7505  -26.0545   21.1377 O   0  0  0  0  0  0  0  0  0  0  0  0
  -21.6513  -25.3873   17.4309 O   0  0  0  0  0  0  0  0  0  0  0  0
  -26.3633  -25.7358   16.9885 O   0  0  0  0  0  0  0  0  0  0  0  0
  -32.6658  -30.2988   16.5968 O   0  0  0  0  0  0  0  0  0  0  0  0
  -30.2159  -17.9321   19.9325 O   0  0  0  0  0  0  0  0  0  0  0  0
  -26.8440  -30.1132   22.1807 O   0  0  0  0  0  0  0  0  0  1  0  0
  -26.8981  -15.2795   23.4483 F   0  0  0  0  0  0  0  0  0  0  0  0
  -30.2414  -18.5293   22.6317 F   0  0  0  0  0  0  0  0  0  0  0  0
  1  2  1  0  0  0  0
  1  5  2  0  0  0  0
  2  6  2  0  0  0  0
  3  9  2  0  0  0  0
  3 18  1  0  0  0  0
  4 10  1  0  0  0  0
  4 18  2  0  0  0  0
  5 20  1  0  0  0  0
  6 22  1  0  0  0  0
  7 11  2  0  0  0  0
  7 21  1  0  0  0  0
  8 14  2  0  0  0  0
  8 24  1  0  0  0  0
  9 25  1  0  0  0  0
 10 25  2  0  0  0  0
 11 26  1  0  0  0  0
 12 13  2  0  0  0  0
 12 27  1  0  0  0  0
 13 28  1  0  0  0  0
 14 31  1  0  0  0  0
 15 23  1  0  0  0  0
 15 26  2  0  0  0  0
 16 28  2  0  0  0  0
 16 29  1  0  0  0  0
 17 24  2  0  0  0  0
 17 60  1  0  0  0  0
 18 30  1  0  0  0  0
 19 30  1  0  0  0  0
 19 32  2  0  0  0  0
 19 33  1  0  0  0  0
 20 22  2  0  0  0  0
 20 38  1  0  0  0  0
 21 23  2  0  0  0  0
 21 39  1  0  0  0  0
 22 47  1  0  0  0  0
 23 40  1  0  0  0  0
 24 56  1  0  0  0  0
 25 77  1  0  0  0  0
 26 78  1  0  0  0  0
 27 29  2  0  0  0  0
 27 77  1  0  0  0  0
 28 79  1  0  0  0  0
 29 80  1  0  0  0  0
 30 61  2  0  0  0  0
 31 60  2  0  0  0  0
 31 78  1  0  0  0  0
 32 62  1  0  0  0  0
 32 65  1  0  0  0  0
 33 66  1  0  0  0  0
 33 72  2  0  0  0  0
 34 48  1  0  0  0  0
 34 67  1  0  0  0  0
 34 73  2  0  0  0  0
 35 57  1  0  0  0  0
 35 63  1  0  0  0  0
 35 74  2  0  0  0  0
 36 58  1  0  0  0  0
 36 68  1  0  0  0  0
 36 75  2  0  0  0  0
 37 64  1  0  0  0  0
 37 69  1  0  0  0  0
 37 76  2  0  0  0  0
 38 41  1  0  0  0  0
 39 48  1  0  0  0  0
 40 63  1  0  0  0  0
 41 43  1  0  0  0  0
 42 44  1  0  0  0  0
 42 45  1  0  0  0  0
 43 47  1  0  0  0  0
 44 49  1  0  0  0  0
 45 64  1  0  0  0  0
 46 49  1  0  0  0  0
 46 64  1  0  0  0  0
 47 67  1  0  0  0  0
 48 63  1  0  0  0  0
 49 62  1  0  0  0  0
 50 58  1  0  0  0  0
 51 59  1  0  0  0  0
 52 59  1  0  0  0  0
 53 59  1  0  0  0  0
 54 71  1  0  0  0  0
 55 56  1  0  0  0  0
 55 69  1  0  0  0  0
 56 70  1  0  0  0  0
 57 59  1  0  0  0  0
 57 68  1  0  0  0  0
 58 71  1  0  0  0  0
 61 62  1  0  0  0  0
M  CHG  2  70   1  71   1
M  ISO  4  31 101  37 100  69 100  78 101
M  END
> <Batch ID>
0133

> <Smiles>
CNC(C)C(=O)NC(C(=O)N1Cc2cc([101O:1][101c:1]3ccc(C(N)C[100NH:0][100C:0](=O)N4CCCC(n5nc(-c6ccc(Oc7ccc(F)cc7F)cc6)c(C(N)=O)c5N)C4)cn3)ccc2CC1C(=O)NC1CCCc2ccccc21)C(C)(C)C

> <Shape>
0.215

> <Color>
0.068

> <Negative vol penalty>
0.000

$$$$

  -OEChem-04052320553D

 89 98  0     1  0  0  0  0  0999 V2000
  -18.8151  -25.2813   24.5814 C   0  0  0  0  0  0  0  0  0  0  0  0
  -20.1934  -25.2468   24.3953 C   0  0  0  0  0  0  0  0  0  0  0  0
  -23.8820   -9.2211   20.3173 C   0  0  0  0  0  0  0  0  0  0  0  0
  -22.9056  -10.9856   21.6478 C   0  0  0  0  0  0  0  0  0  0  0  0
  -18.0466  -26.2348   23.9149 C   0  0  0  0  0  0  0  0  0  0  0  0
  -20.8038  -26.1650   23.5417 C   0  0  0  0  0  0  0  0  0  0  0  0
  -26.3400  -28.6966   24.2101 C   0  0  0  0  0  0  0  0  0  0  0  0
  -30.5210  -26.5002   19.4521 C   0  0  0  0  0  0  0  0  0  0  0  0
  -23.0736   -8.2862   20.9637 C   0  0  0  0  0  0  0  0  0  0  0  0
  -22.0971  -10.0507   22.2942 C   0  0  0  0  0  0  0  0  0  0  0  0
  -27.5823  -28.3962   23.6530 C   0  0  0  0  0  0  0  0  0  0  0  0
  -23.0355   -6.6477   23.9197 C   0  0  0  0  0  0  0  0  0  0  0  0
  -23.6318   -5.4610   24.3460 C   0  0  0  0  0  0  0  0  0  0  0  0
  -30.5004  -27.4899   20.4287 C   0  0  0  0  0  0  0  0  0  0  0  0
  -27.2206  -30.0732   21.9571 C   0  0  0  0  0  0  0  0  0  0  0  0
  -27.5701  -19.0828   18.5928 C   0  0  0  0  0  0  0  0  0  0  0  0
  -22.1219   -4.1988   22.9445 C   0  0  0  0  0  0  0  0  0  0  0  0
  -23.7981  -10.5708   20.6593 C   0  0  0  0  0  0  0  0  0  0  0  0
  -24.3325  -12.2551   18.8194 C   0  0  0  0  0  0  0  0  0  0  0  0
  -18.6490  -27.1713   23.0601 C   0  0  0  0  0  0  0  0  0  0  0  0
  -25.5226  -29.6817   23.6374 C   0  0  0  0  0  0  0  0  0  0  0  0
  -20.0424  -27.1310   22.8621 C   0  0  0  0  0  0  0  0  0  0  0  0
  -25.9695  -30.3860   22.5103 C   0  0  0  0  0  0  0  0  0  0  0  0
  -29.3377  -25.8696   19.0841 C   0  0  0  0  0  0  0  0  0  0  0  0
  -27.7305  -20.3515   18.0470 C   0  0  0  0  0  0  0  0  0  0  0  0
  -28.9602  -20.9933   18.1436 C   0  0  0  0  0  0  0  0  0  0  0  0
  -22.1811   -8.7010   21.9522 C   0  0  0  0  0  0  0  0  0  0  0  0
  -28.0215  -29.0825   22.5246 C   0  0  0  0  0  0  0  0  0  0  0  0
  -21.9823   -6.6100   23.0059 C   0  0  0  0  0  0  0  0  0  0  0  0
  -23.1751   -4.2365   23.8584 C   0  0  0  0  0  0  0  0  0  0  0  0
  -21.5255   -5.3855   22.5183 C   0  0  0  0  0  0  0  0  0  0  0  0
  -24.6334  -11.5370   19.9923 C   0  0  0  0  0  0  0  0  0  0  0  0
  -28.1696  -26.2618   19.7178 C   0  0  0  0  0  0  0  0  0  0  0  0
  -29.9895  -20.3289   18.7907 C   0  0  0  0  0  0  0  0  0  0  0  0
  -28.6617  -18.5038   19.2197 C   0  0  0  0  0  0  0  0  0  0  0  0
  -29.2803  -27.8095   21.0023 C   0  0  0  0  0  0  0  0  0  1  0  0
  -25.4416  -13.0352   18.6005 C   0  0  0  0  0  0  0  0  0  0  0  0
  -23.1557  -12.2203   18.0012 C   0  0  0  0  0  0  0  0  0  0  0  0
  -22.6336  -29.7070   22.3120 C   0  0  0  0  0  0  0  0  0  0  0  0
  -23.1110  -32.9152   22.2640 C   0  0  0  0  0  0  0  0  0  0  0  0
  -25.3211  -35.5157   22.2574 C   0  0  0  0  0  0  0  0  0  0  0  0
  -29.4402  -16.4438   20.4432 C   0  0  0  0  0  0  0  0  0  0  0  0
  -17.7713  -28.1529   22.3247 C   0  0  0  0  0  0  0  0  0  0  0  0
  -24.1969  -30.0125   24.2662 C   0  0  0  0  0  0  0  0  0  0  0  0
  -25.1386  -31.4665   21.8696 C   0  0  0  0  0  0  0  0  0  0  0  0
  -18.5400  -29.3290   21.7280 C   0  0  0  0  0  0  0  0  0  0  0  0
  -30.0130  -12.9451   20.7721 C   0  0  0  0  0  0  0  0  0  0  0  0
  -19.7869  -28.8375   20.9997 C   0  0  0  0  0  0  0  0  0  0  0  0
  -28.6397  -12.3260   20.5021 C   0  0  0  0  0  0  0  0  0  0  0  0
  -29.9007  -14.2616   21.5390 C   0  0  0  0  0  0  0  0  0  0  0  0
  -27.6259  -14.6348   20.6700 C   0  0  0  0  0  0  0  0  0  0  0  0
  -20.7443  -28.1260   21.9635 C   0  0  1  0  0  0  0  0  0  0  0  0
  -23.2246  -30.6766   23.2961 C   0  0  1  0  0  0  0  0  0  0  0  0
  -27.6841  -13.3400   19.8432 C   0  0  2  0  0  0  0  0  0  0  0  0
  -26.5721  -21.0017   17.3656 C   0  0  0  0  0  0  0  0  0  0  0  0
  -26.8692  -25.6182   19.3631 C   0  0  0  0  0  0  0  0  0  0  0  0
  -31.3325  -20.9696   18.9260 C   0  0  0  0  0  0  0  0  0  0  0  0
  -25.4135  -38.0221   22.1756 C   0  0  0  0  0  0  0  0  0  0  0  0
  -22.4772  -32.8388   19.2803 C   0  0  0  0  0  0  0  0  0  0  0  0
  -23.4929  -35.1181   19.0772 C   0  0  0  0  0  0  0  0  0  0  0  0
  -21.4796  -34.7749   20.5095 C   0  0  0  0  0  0  0  0  0  0  0  0
  -26.6648  -35.6677   24.8899 C   0  0  0  0  0  0  0  0  0  0  0  0
  -29.3540  -24.8061   18.0412 C   0  0  0  0  0  0  0  0  0  0  0  0
  -29.1636  -22.3619   17.5634 C   0  0  0  0  0  0  0  0  0  0  0  0
  -23.7178  -33.8912   21.2852 C   0  0  1  0  0  0  0  0  0  0  0  0
  -25.3737  -36.7949   23.0729 C   0  0  2  0  0  0  0  0  0  0  0  0
  -22.8069  -34.1341   20.0487 C   0  0  0  0  0  0  0  0  0  0  0  0
  -25.8392  -11.8343   20.4839 N   0  0  0  0  0  0  0  0  0  0  0  0
  -29.8716  -19.0963   19.3332 N   0  0  0  0  0  0  0  0  0  0  0  0
  -28.1102  -27.2189   20.6707 N   0  0  0  0  0  0  0  0  0  0  0  0
  -26.3058  -12.7478   19.6157 N   0  0  0  0  0  0  0  0  0  0  0  0
  -23.8472  -31.7491   22.5175 N   0  0  0  0  0  0  0  0  0  0  0  0
  -28.9825  -15.1739   20.8537 N   0  0  0  0  0  0  0  0  0  0  0  0
  -25.7522  -13.9320   17.6404 N   0  0  0  0  0  0  0  0  0  0  0  0
  -22.1105  -11.3626   18.3702 N   0  0  0  0  0  0  0  0  0  0  0  0
  -28.4879  -17.2109   19.7728 N   0  0  0  0  0  0  0  0  0  0  0  0
  -21.4772  -29.0924   22.7530 N   0  0  0  0  0  0  0  0  0  0  0  0
  -24.0242  -35.0967   22.0476 N   0  0  0  0  0  0  0  0  0  0  0  0
  -26.5859  -36.8070   23.9398 N   0  3  0  0  0  0  0  0  0  0  0  0
  -29.2065  -23.4309   18.5945 N   0  3  0  0  0  0  0  0  0  0  0  0
  -23.0414  -12.9167   16.9641 O   0  0  0  0  0  0  0  0  0  0  0  0
  -23.1851  -29.5308   21.2320 O   0  0  0  0  0  0  0  0  0  0  0  0
  -22.0273  -33.1810   22.7899 O   0  0  0  0  0  0  0  0  0  0  0  0
  -26.3293  -34.9471   21.8443 O   0  0  0  0  0  0  0  0  0  0  0  0
  -30.6001  -16.8122   20.6455 O   0  0  0  0  0  0  0  0  0  0  0  0
  -21.3918   -7.7890   22.5831 O   0  0  0  0  0  0  0  0  0  0  0  0
  -29.2333  -28.7907   21.9785 O   0  0  0  0  0  0  0  0  0  1  0  0
  -23.7488   -3.0971   24.2667 F   0  0  0  0  0  0  0  0  0  0  0  0
  -20.5149   -5.3430   21.6393 F   0  0  0  0  0  0  0  0  0  0  0  0
  1  2  1  0  0  0  0
  1  5  2  0  0  0  0
  2  6  2  0  0  0  0
  3  9  2  0  0  0  0
  3 18  1  0  0  0  0
  4 10  1  0  0  0  0
  4 18  2  0  0  0  0
  5 20  1  0  0  0  0
  6 22  1  0  0  0  0
  7 11  2  0  0  0  0
  7 21  1  0  0  0  0
  8 14  2  0  0  0  0
  8 24  1  0  0  0  0
  9 27  1  0  0  0  0
 10 27  2  0  0  0  0
 11 28  1  0  0  0  0
 12 13  2  0  0  0  0
 12 29  1  0  0  0  0
 13 30  1  0  0  0  0
 14 36  1  0  0  0  0
 15 23  1  0  0  0  0
 15 28  2  0  0  0  0
 16 25  2  0  0  0  0
 16 35  1  0  0  0  0
 17 30  2  0  0  0  0
 17 31  1  0  0  0  0
 18 32  1  0  0  0  0
 19 32  1  0  0  0  0
 19 37  2  0  0  0  0
 19 38  1  0  0  0  0
 20 22  2  0  0  0  0
 20 43  1  0  0  0  0
 21 23  2  0  0  0  0
 21 44  1  0  0  0  0
 22 52  1  0  0  0  0
 23 45  1  0  0  0  0
 24 33  2  0  0  0  0
 24 63  1  0  0  0  0
 25 26  1  0  0  0  0
 25 55  1  0  0  0  0
 26 34  2  0  0  0  0
 26 64  1  0  0  0  0
 27 86  1  0  0  0  0
 28 87  1  0  0  0  0
 29 31  2  0  0  0  0
 29 86  1  0  0  0  0
 30 88  1  0  0  0  0
 31 89  1  0  0  0  0
 32 68  2  0  0  0  0
 33 56  1  0  0  0  0
 33 70  1  0  0  0  0
 34 57  1  0  0  0  0
 34 69  1  0  0  0  0
 35 69  2  0  0  0  0
 35 76  1  0  0  0  0
 36 70  2  0  0  0  0
 36 87  1  0  0  0  0
 37 71  1  0  0  0  0
 37 74  1  0  0  0  0
 38 75  1  0  0  0  0
 38 81  2  0  0  0  0
 39 53  1  0  0  0  0
 39 77  1  0  0  0  0
 39 82  2  0  0  0  0
 40 65  1  0  0  0  0
 40 72  1  0  0  0  0
 40 83  2  0  0  0  0
 41 66  1  0  0  0  0
 41 78  1  0  0  0  0
 41 84  2  0  0  0  0
 42 73  1  0  0  0  0
 42 76  1  0  0  0  0
 42 85  2  0  0  0  0
 43 46  1  0  0  0  0
 44 53  1  0  0  0  0
 45 72  1  0  0  0  0
 46 48  1  0  0  0  0
 47 49  1  0  0  0  0
 47 50  1  0  0  0  0
 48 52  1  0  0  0  0
 49 54  1  0  0  0  0
 50 73  1  0  0  0  0
 51 54  1  0  0  0  0
 51 73  1  0  0  0  0
 52 77  1  0  0  0  0
 53 72  1  0  0  0  0
 54 71  1  0  0  0  0
 58 66  1  0  0  0  0
 59 67  1  0  0  0  0
 60 67  1  0  0  0  0
 61 67  1  0  0  0  0
 62 79  1  0  0  0  0
 63 80  1  0  0  0  0
 64 80  1  0  0  0  0
 65 67  1  0  0  0  0
 65 78  1  0  0  0  0
 66 79  1  0  0  0  0
 68 71  1  0  0  0  0
M  CHG  2  79   1  80   1
M  ISO  4  36 101  42 100  76 100  87 101
M  END
> <Batch ID>
0133

> <Smiles>
CNC(C)C(=O)NC(C(=O)N1Cc2cc([101O:1][101c:1]3ccc(CNCc4c(C)cc([100NH:0][100C:0](=O)N5CCCC(n6nc(-c7ccc(Oc8ccc(F)cc8F)cc7)c(C(N)=O)c6N)C5)nc4C)c(C)n3)ccc2CC1C(=O)NC1CCCc2ccccc21)C(C)(C)C

> <Shape>
0.352

> <Color>
0.138

> <Negative vol penalty>
0.000

$$$$

  -OEChem-04052320553D

 81 89  0     1  0  0  0  0  0999 V2000
  -28.1870  -23.6610   17.5154 C   0  0  0  0  0  0  0  0  0  0  0  0
  -27.0606  -23.8552   18.3085 C   0  0  0  0  0  0  0  0  0  0  0  0
  -26.8449  -13.2571   20.3990 C   0  0  0  0  0  0  0  0  0  0  0  0
  -24.5132  -13.8162   20.6946 C   0  0  0  0  0  0  0  0  0  0  0  0
  -29.3680  -24.3432   17.8048 C   0  0  0  0  0  0  0  0  0  0  0  0
  -27.1150  -24.7311   19.3922 C   0  0  0  0  0  0  0  0  0  0  0  0
  -23.0629  -27.7577   19.6489 C   0  0  0  0  0  0  0  0  0  0  0  0
  -22.5954  -24.1136   23.5940 C   0  0  0  0  0  0  0  0  0  0  0  0
  -21.0667  -22.3818   22.8861 C   0  0  0  0  0  0  0  0  0  0  0  0
  -23.6754  -23.2885   23.2802 C   0  0  0  0  0  0  0  0  0  0  0  0
  -22.1467  -21.5568   22.5723 C   0  0  0  0  0  0  0  0  0  0  0  0
  -26.6066  -11.9864   20.9224 C   0  0  0  0  0  0  0  0  0  0  0  0
  -24.2748  -12.5454   21.2180 C   0  0  0  0  0  0  0  0  0  0  0  0
  -21.8888  -27.2077   20.1615 C   0  0  0  0  0  0  0  0  0  0  0  0
  -23.8350   -9.4095   20.0376 C   0  0  0  0  0  0  0  0  0  0  0  0
  -22.7083   -8.7241   19.5835 C   0  0  0  0  0  0  0  0  0  0  0  0
  -22.3393  -28.2466   22.2915 C   0  0  0  0  0  0  0  0  0  0  0  0
  -21.8508   -8.6383   21.8406 C   0  0  0  0  0  0  0  0  0  0  0  0
  -25.7982  -14.1721   20.2851 C   0  0  0  0  0  0  0  0  0  0  0  0
  -25.9665  -15.8772   18.3952 C   0  0  0  0  0  0  0  0  0  0  0  0
  -29.4340  -25.2352   18.8867 C   0  0  0  0  0  0  0  0  0  0  0  0
  -23.8910  -28.5486   20.4582 C   0  0  0  0  0  0  0  0  0  0  0  0
  -28.2983  -25.4249   19.6971 C   0  0  0  0  0  0  0  0  0  0  0  0
  -23.5221  -28.8076   21.7860 C   0  0  0  0  0  0  0  0  0  0  0  0
  -21.2910  -23.6602   23.3970 C   0  0  0  0  0  0  0  0  0  0  0  0
  -23.4511  -22.0102   22.7693 C   0  0  0  0  0  0  0  0  0  0  0  0
  -25.3216  -11.6305   21.3319 C   0  0  0  0  0  0  0  0  0  0  0  0
  -21.5283  -27.4497   21.4838 C   0  0  0  0  0  0  0  0  0  0  0  0
  -23.9698   -9.7093   21.3933 C   0  0  0  0  0  0  0  0  0  0  0  0
  -21.7162   -8.3386   20.4850 C   0  0  0  0  0  0  0  0  0  0  0  0
  -22.9776   -9.3237   22.2947 C   0  0  0  0  0  0  0  0  0  0  0  0
  -26.0439  -15.4851   19.7450 C   0  0  0  0  0  0  0  0  0  0  0  0
  -26.2873  -17.2127   18.4067 C   0  0  0  0  0  0  0  0  0  0  0  0
  -25.6343  -15.1035   17.2347 C   0  0  0  0  0  0  0  0  0  0  0  0
  -26.8855  -28.3240   21.5004 C   0  0  0  0  0  0  0  0  0  0  0  0
  -26.2928  -31.2952   22.6595 C   0  0  0  0  0  0  0  0  0  0  0  0
  -23.9953  -33.5933   23.7018 C   0  0  0  0  0  0  0  0  0  0  0  0
  -25.9042  -21.4673   22.5848 C   0  0  0  0  0  0  0  0  0  0  0  0
  -30.7464  -25.9141   19.1888 C   0  0  0  0  0  0  0  0  0  0  0  0
  -25.1405  -29.1566   19.8825 C   0  0  0  0  0  0  0  0  0  0  0  0
  -24.3661  -29.6666   22.6905 C   0  0  0  0  0  0  0  0  0  0  0  0
  -30.6119  -27.1086   20.1298 C   0  0  0  0  0  0  0  0  0  0  0  0
  -28.8447  -20.4287   20.8667 C   0  0  0  0  0  0  0  0  0  0  0  0
  -29.7283  -26.7528   21.3212 C   0  0  0  0  0  0  0  0  0  0  0  0
  -28.4511  -19.0816   20.2562 C   0  0  0  0  0  0  0  0  0  0  0  0
  -28.2194  -20.6306   22.2458 C   0  0  0  0  0  0  0  0  0  0  0  0
  -26.3697  -19.1015   21.6894 C   0  0  0  0  0  0  0  0  0  0  0  0
  -28.3106  -26.3855   20.8664 C   0  0  1  0  0  0  0  0  0  0  0  0
  -26.1710  -29.5238   20.9457 C   0  0  1  0  0  0  0  0  0  0  0  0
  -26.9231  -18.8805   20.2722 C   0  0  2  0  0  0  0  0  0  0  0  0
  -19.2757  -23.9402   24.8633 C   0  0  0  0  0  0  0  0  0  0  0  0
  -23.8154  -35.9185   24.6285 C   0  0  0  0  0  0  0  0  0  0  0  0
  -27.1979  -30.2748   25.3889 C   0  0  0  0  0  0  0  0  0  0  0  0
  -26.1189  -32.2848   26.4205 C   0  0  0  0  0  0  0  0  0  0  0  0
  -28.0052  -32.5707   24.8134 C   0  0  0  0  0  0  0  0  0  0  0  0
  -22.4128  -34.5213   21.3794 C   0  0  0  0  0  0  0  0  0  0  0  0
  -19.2260  -24.8798   22.5219 C   0  0  0  0  0  0  0  0  0  0  0  0
  -19.9523  -25.6693   21.4368 C   0  0  0  0  0  0  0  0  0  1  0  0
  -20.1150  -24.5587   23.7389 C   0  0  2  0  0  0  0  0  0  0  0  0
  -25.7409  -31.8484   23.9511 C   0  0  1  0  0  0  0  0  0  0  0  0
  -23.8200  -35.0643   23.3702 C   0  0  2  0  0  0  0  0  0  0  0  0
  -26.7506  -31.7268   25.1273 C   0  0  0  0  0  0  0  0  0  0  0  0
  -26.3870  -16.4902   20.5551 N   0  0  0  0  0  0  0  0  0  0  0  0
  -26.5283  -17.5270   19.7118 N   0  0  0  0  0  0  0  0  0  0  0  0
  -25.5816  -30.2333   22.0830 N   0  0  0  0  0  0  0  0  0  0  0  0
  -26.7702  -20.4284   22.1829 N   0  0  0  0  0  0  0  0  0  0  0  0
  -26.3841  -18.1370   17.4276 N   0  0  0  0  0  0  0  0  0  0  0  0
  -25.3306  -13.7455   17.4016 N   0  0  0  0  0  0  0  0  0  0  0  0
  -24.5480  -21.1719   22.4501 N   0  0  0  0  0  0  0  0  0  0  0  0
  -27.5564  -27.5792   20.5493 N   0  0  0  0  0  0  0  0  0  0  0  0
  -25.3208  -33.2155   23.6632 N   0  0  0  0  0  0  0  0  0  0  0  0
  -22.5344  -35.2831   22.6489 N   0  3  0  0  0  0  0  0  0  0  0  0
  -25.6236  -15.5978   16.0819 O   0  0  0  0  0  0  0  0  0  0  0  0
  -26.8333  -28.0921   22.7025 O   0  0  0  0  0  0  0  0  0  0  0  0
  -27.3133  -31.7917   22.1761 O   0  0  0  0  0  0  0  0  0  0  0  0
  -23.0511  -32.8543   23.9720 O   0  0  0  0  0  0  0  0  0  0  0  0
  -26.3341  -22.5500   22.9909 O   0  0  0  0  0  0  0  0  0  0  0  0
  -25.0886  -10.3905   21.8425 O   0  0  0  0  0  0  0  0  0  0  0  0
  -20.3832  -26.9135   21.9869 O   0  0  0  0  0  0  0  0  0  1  0  0
  -20.6335   -7.6817   20.0485 F   0  0  0  0  0  0  0  0  0  0  0  0
  -23.1009   -9.6099   23.5981 F   0  0  0  0  0  0  0  0  0  0  0  0
  1  2  1  0  0  0  0
  1  5  2  0  0  0  0
  2  6  2  0  0  0  0
  3 12  2  0  0  0  0
  3 19  1  0  0  0  0
  4 13  1  0  0  0  0
  4 19  2  0  0  0  0
  5 21  1  0  0  0  0
  6 23  1  0  0  0  0
  7 14  2  0  0  0  0
  7 22  1  0  0  0  0
  8 10  2  0  0  0  0
  8 25  1  0  0  0  0
  9 11  1  0  0  0  0
  9 25  2  0  0  0  0
 10 26  1  0  0  0  0
 11 26  2  0  0  0  0
 12 27  1  0  0  0  0
 13 27  2  0  0  0  0
 14 28  1  0  0  0  0
 15 16  2  0  0  0  0
 15 29  1  0  0  0  0
 16 30  1  0  0  0  0
 17 24  1  0  0  0  0
 17 28  2  0  0  0  0
 18 30  2  0  0  0  0
 18 31  1  0  0  0  0
 19 32  1  0  0  0  0
 20 32  1  0  0  0  0
 20 33  2  0  0  0  0
 20 34  1  0  0  0  0
 21 23  2  0  0  0  0
 21 39  1  0  0  0  0
 22 24  2  0  0  0  0
 22 40  1  0  0  0  0
 23 48  1  0  0  0  0
 24 41  1  0  0  0  0
 25 59  1  0  0  0  0
 26 69  1  0  0  0  0
 27 78  1  0  0  0  0
 28 79  1  0  0  0  0
 29 31  2  0  0  0  0
 29 78  1  0  0  0  0
 30 80  1  0  0  0  0
 31 81  1  0  0  0  0
 32 63  2  0  0  0  0
 33 64  1  0  0  0  0
 33 67  1  0  0  0  0
 34 68  1  0  0  0  0
 34 73  2  0  0  0  0
 35 49  1  0  0  0  0
 35 70  1  0  0  0  0
 35 74  2  0  0  0  0
 36 60  1  0  0  0  0
 36 65  1  0  0  0  0
 36 75  2  0  0  0  0
 37 61  1  0  0  0  0
 37 71  1  0  0  0  0
 37 76  2  0  0  0  0
 38 66  1  0  0  0  0
 38 69  1  0  0  0  0
 38 77  2  0  0  0  0
 39 42  1  0  0  0  0
 40 49  1  0  0  0  0
 41 65  1  0  0  0  0
 42 44  1  0  0  0  0
 43 45  1  0  0  0  0
 43 46  1  0  0  0  0
 44 48  1  0  0  0  0
 45 50  1  0  0  0  0
 46 66  1  0  0  0  0
 47 50  1  0  0  0  0
 47 66  1  0  0  0  0
 48 70  1  0  0  0  0
 49 65  1  0  0  0  0
 50 64  1  0  0  0  0
 51 59  1  0  0  0  0
 52 61  1  0  0  0  0
 53 62  1  0  0  0  0
 54 62  1  0  0  0  0
 55 62  1  0  0  0  0
 56 72  1  0  0  0  0
 57 58  1  0  0  0  0
 57 59  1  0  0  0  0
 58 79  1  0  0  0  0
 60 62  1  0  0  0  0
 60 71  1  0  0  0  0
 61 72  1  0  0  0  0
 63 64  1  0  0  0  0
M  CHG  1  72   1
M  ISO  4  38 100  58 101  69 100  79 101
M  END
> <Batch ID>
0133

> <Smiles>
CNC(C)C(=O)NC(C(=O)N1Cc2cc([101O:1][101CH2:1]CC(C)c3ccc([100NH:0][100C:0](=O)N4CCCC(n5nc(-c6ccc(Oc7ccc(F)cc7F)cc6)c(C(N)=O)c5N)C4)cc3)ccc2CC1C(=O)NC1CCCc2ccccc21)C(C)(C)C

> <Shape>
0.284

> <Color>
0.076

> <Negative vol penalty>
0.000

$$$$

  -OEChem-04052320553D

 91101  0     1  0  0  0  0  0999 V2000
  -22.4999  -29.6254   23.5833 C   0  0  0  0  0  0  0  0  0  0  0  0
  -23.1446  -28.3948   23.6575 C   0  0  0  0  0  0  0  0  0  0  0  0
  -22.8635  -10.0007   20.0599 C   0  0  0  0  0  0  0  0  0  0  0  0
  -24.3144   -9.4436   21.9096 C   0  0  0  0  0  0  0  0  0  0  0  0
  -22.8929  -30.5604   22.6267 C   0  0  0  0  0  0  0  0  0  0  0  0
  -24.1820  -28.0982   22.7741 C   0  0  0  0  0  0  0  0  0  0  0  0
  -28.1508  -25.9645   25.0851 C   0  0  0  0  0  0  0  0  0  0  0  0
  -31.0336  -17.2172   25.0184 C   0  0  0  0  0  0  0  0  0  0  0  0
  -22.1772   -8.7993   20.2363 C   0  0  0  0  0  0  0  0  0  0  0  0
  -23.6281   -8.2422   22.0861 C   0  0  0  0  0  0  0  0  0  0  0  0
  -28.0484  -24.6120   25.4077 C   0  0  0  0  0  0  0  0  0  0  0  0
  -30.7379  -18.4998   25.4802 C   0  0  0  0  0  0  0  0  0  0  0  0
  -22.0286   -5.1931   23.2537 C   0  0  0  0  0  0  0  0  0  0  0  0
  -21.6842   -4.8272   24.5549 C   0  0  0  0  0  0  0  0  0  0  0  0
  -29.3541  -24.0542   23.4575 C   0  0  0  0  0  0  0  0  0  0  0  0
  -28.4770  -17.8024   25.9692 C   0  0  0  0  0  0  0  0  0  0  0  0
  -20.3776   -6.8473   24.7772 C   0  0  0  0  0  0  0  0  0  0  0  0
  -23.9322  -10.3228   20.8965 C   0  0  0  0  0  0  0  0  0  0  0  0
  -24.1115  -12.8653   20.7900 C   0  0  0  0  0  0  0  0  0  0  0  0
  -23.9420  -30.2788   21.7375 C   0  0  0  0  0  0  0  0  0  0  0  0
  -28.8477  -26.3719   23.9384 C   0  0  0  0  0  0  0  0  0  0  0  0
  -24.5885  -29.0298   21.8038 C   0  0  0  0  0  0  0  0  0  0  0  0
  -29.4661  -25.4126   23.1240 C   0  0  0  0  0  0  0  0  0  0  0  0
  -28.7727  -16.5199   25.5074 C   0  0  0  0  0  0  0  0  0  0  0  0
  -30.0510  -16.2273   25.0320 C   0  0  0  0  0  0  0  0  0  0  0  0
  -22.5595   -7.9200   21.2494 C   0  0  0  0  0  0  0  0  0  0  0  0
  -28.6476  -23.6564   24.5923 C   0  0  0  0  0  0  0  0  0  0  0  0
  -29.4596  -18.7924   25.9556 C   0  0  0  0  0  0  0  0  0  0  0  0
  -21.5476   -6.3862   22.7143 C   0  0  0  0  0  0  0  0  0  0  0  0
  -20.8587   -5.6543   25.3166 C   0  0  0  0  0  0  0  0  0  0  0  0
  -20.7221   -7.2132   23.4760 C   0  0  0  0  0  0  0  0  0  0  0  0
  -24.6419  -11.5635   20.7144 C   0  0  0  0  0  0  0  0  0  0  0  0
  -25.1836  -13.6878   20.5436 C   0  0  0  0  0  0  0  0  0  0  0  0
  -22.7697  -13.2929   21.0590 C   0  0  0  0  0  0  0  0  0  0  0  0
  -28.0675  -27.9070   21.2666 C   0  0  0  0  0  0  0  0  0  0  0  0
  -31.2642  -27.7908   20.7283 C   0  0  0  0  0  0  0  0  0  0  0  0
  -34.2505  -26.2543   21.3353 C   0  0  0  0  0  0  0  0  0  0  0  0
  -31.0929  -12.9952   21.2151 C   0  0  0  0  0  0  0  0  0  0  0  0
  -24.3000  -31.3027   20.6895 C   0  0  0  0  0  0  0  0  0  0  0  0
  -28.9717  -27.8365   23.6189 C   0  0  0  0  0  0  0  0  0  0  0  0
  -30.2428  -25.7994   21.8929 C   0  0  0  0  0  0  0  0  0  0  0  0
  -25.6572  -31.0562   20.0357 C   0  0  0  0  0  0  0  0  0  0  0  0
  -29.3593  -13.7988   18.2109 C   0  0  0  0  0  0  0  0  0  0  0  0
  -25.8033  -29.5888   19.6457 C   0  0  0  0  0  0  0  0  0  0  0  0
  -27.9059  -13.4345   18.5186 C   0  0  0  0  0  0  0  0  0  0  0  0
  -25.5782  -14.7752   26.9792 C   0  0  0  0  0  0  0  0  0  0  0  0
  -26.8295  -15.3729   24.2756 C   0  0  0  0  0  0  0  0  0  0  0  0
  -27.9899  -14.1474   26.2527 C   0  0  0  0  0  0  0  0  0  0  0  0
  -30.3360  -12.8225   18.8627 C   0  0  0  0  0  0  0  0  0  0  0  0
  -28.6996  -12.2760   20.6226 C   0  0  0  0  0  0  0  0  0  0  0  0
  -24.6856  -15.9279   26.5452 C   0  0  0  0  0  0  0  0  0  0  0  0
  -25.7085  -16.4045   24.2476 C   0  0  0  0  0  0  0  0  0  0  0  0
  -25.7346  -28.6806   20.8794 C   0  0  1  0  0  0  0  0  0  0  0  0
  -29.2693  -28.1038   22.1467 C   0  0  1  0  0  0  0  0  0  0  0  0
  -27.0305  -15.1186   26.8719 C   0  0  1  0  0  0  0  0  0  0  0  0
  -27.6790  -13.2644   20.0329 C   0  0  2  0  0  0  0  0  0  0  0  0
  -27.6773  -15.4534   25.5334 C   0  0  1  0  0  0  0  0  0  0  0  0
  -36.6817  -26.3622   20.7230 C   0  0  0  0  0  0  0  0  0  0  0  0
  -30.6362  -26.5292   18.0221 C   0  0  0  0  0  0  0  0  0  0  0  0
  -33.0286  -25.8044   17.8830 C   0  0  0  0  0  0  0  0  0  0  0  0
  -32.4664  -28.2329   17.9792 C   0  0  0  0  0  0  0  0  0  0  0  0
  -35.0545  -26.7463   24.1407 C   0  0  0  0  0  0  0  0  0  0  0  0
  -31.6649  -14.5889   24.0642 C   0  0  0  0  0  0  0  0  0  0  0  0
  -31.6980  -13.1351   23.6179 C   0  0  0  0  0  0  0  0  0  0  0  0
  -27.8158  -21.9997   26.0820 C   0  0  0  0  0  0  0  0  0  1  0  0
  -27.8257  -20.4936   26.2586 C   0  0  0  0  0  0  0  0  0  0  0  0
  -32.2004  -26.8158   20.0560 C   0  0  1  0  0  0  0  0  0  0  0  0
  -35.6127  -26.8114   21.7070 C   0  0  2  0  0  0  0  0  0  0  0  0
  -32.0667  -26.8378   18.5071 C   0  0  0  0  0  0  0  0  0  0  0  0
  -25.9493  -11.5545   20.4411 N   0  0  0  0  0  0  0  0  0  0  0  0
  -26.2494  -12.8608   20.3428 N   0  0  0  0  0  0  0  0  0  0  0  0
  -30.3303  -27.2433   21.6193 N   0  0  0  0  0  0  0  0  0  0  0  0
  -30.0682  -12.7079   20.2984 N   0  0  0  0  0  0  0  0  0  0  0  0
  -25.3091  -15.0304   20.4811 N   0  0  0  0  0  0  0  0  0  0  0  0
  -22.3965  -13.5249   22.3899 N   0  0  0  0  0  0  0  0  0  0  0  0
  -30.3700  -14.9349   24.5601 N   0  0  0  0  0  0  0  0  0  0  0  0
  -26.9908  -28.7075   21.5974 N   0  0  0  0  0  0  0  0  0  0  0  0
  -33.5383  -27.1314   20.5448 N   0  0  0  0  0  0  0  0  0  0  0  0
  -30.7532  -12.8679   22.5564 N   0  0  0  0  0  0  0  0  0  0  0  0
  -24.5360  -15.9488   25.0566 N   0  3  0  0  0  0  0  0  0  0  0  0
  -36.0057  -26.3530   23.0695 N   0  3  0  0  0  0  0  0  0  0  0  0
  -21.9218  -13.4484   20.1477 O   0  0  0  0  0  0  0  0  0  0  0  0
  -28.1141  -27.0905   20.3540 O   0  0  0  0  0  0  0  0  0  0  0  0
  -31.3628  -28.9946   20.4778 O   0  0  0  0  0  0  0  0  0  0  0  0
  -33.8588  -25.1498   21.7057 O   0  0  0  0  0  0  0  0  0  0  0  0
  -32.2251  -13.3448   20.8644 O   0  0  0  0  0  0  0  0  0  0  0  0
  -21.8898   -6.7477   21.4220 O   0  0  0  0  0  0  0  0  0  0  0  0
  -28.5485  -22.3356   24.9044 O   0  0  0  0  0  0  0  0  0  1  0  0
  -29.1695  -20.0522   26.4091 O   0  0  0  0  0  0  0  0  0  0  0  0
  -20.5268   -5.3020   26.5656 F   0  0  0  0  0  0  0  0  0  0  0  0
  -20.2560   -8.3600   22.9627 F   0  0  0  0  0  0  0  0  0  0  0  0
  1  2  1  0  0  0  0
  1  5  2  0  0  0  0
  2  6  2  0  0  0  0
  3  9  2  0  0  0  0
  3 18  1  0  0  0  0
  4 10  1  0  0  0  0
  4 18  2  0  0  0  0
  5 20  1  0  0  0  0
  6 22  1  0  0  0  0
  7 11  2  0  0  0  0
  7 21  1  0  0  0  0
  8 12  2  0  0  0  0
  8 25  1  0  0  0  0
  9 26  1  0  0  0  0
 10 26  2  0  0  0  0
 11 27  1  0  0  0  0
 12 28  1  0  0  0  0
 13 14  2  0  0  0  0
 13 29  1  0  0  0  0
 14 30  1  0  0  0  0
 15 23  1  0  0  0  0
 15 27  2  0  0  0  0
 16 24  1  0  0  0  0
 16 28  2  0  0  0  0
 17 30  2  0  0  0  0
 17 31  1  0  0  0  0
 18 32  1  0  0  0  0
 19 32  1  0  0  0  0
 19 33  2  0  0  0  0
 19 34  1  0  0  0  0
 20 22  2  0  0  0  0
 20 39  1  0  0  0  0
 21 23  2  0  0  0  0
 21 40  1  0  0  0  0
 22 53  1  0  0  0  0
 23 41  1  0  0  0  0
 24 25  2  0  0  0  0
 24 57  1  0  0  0  0
 25 76  1  0  0  0  0
 26 87  1  0  0  0  0
 27 88  1  0  0  0  0
 28 89  1  0  0  0  0
 29 31  2  0  0  0  0
 29 87  1  0  0  0  0
 30 90  1  0  0  0  0
 31 91  1  0  0  0  0
 32 70  2  0  0  0  0
 33 71  1  0  0  0  0
 33 74  1  0  0  0  0
 34 75  1  0  0  0  0
 34 82  2  0  0  0  0
 35 54  1  0  0  0  0
 35 77  1  0  0  0  0
 35 83  2  0  0  0  0
 36 67  1  0  0  0  0
 36 72  1  0  0  0  0
 36 84  2  0  0  0  0
 37 68  1  0  0  0  0
 37 78  1  0  0  0  0
 37 85  2  0  0  0  0
 38 73  1  0  0  0  0
 38 79  1  0  0  0  0
 38 86  2  0  0  0  0
 39 42  1  0  0  0  0
 40 54  1  0  0  0  0
 41 72  1  0  0  0  0
 42 44  1  0  0  0  0
 43 45  1  0  0  0  0
 43 49  1  0  0  0  0
 44 53  1  0  0  0  0
 45 56  1  0  0  0  0
 46 51  1  0  0  0  0
 46 55  1  0  0  0  0
 47 52  1  0  0  0  0
 47 57  1  0  0  0  0
 48 55  1  0  0  0  0
 48 57  1  0  0  0  0
 49 73  1  0  0  0  0
 50 56  1  0  0  0  0
 50 73  1  0  0  0  0
 51 80  1  0  0  0  0
 52 80  1  0  0  0  0
 53 77  1  0  0  0  0
 54 72  1  0  0  0  0
 55 57  1  0  0  0  0
 56 71  1  0  0  0  0
 58 68  1  0  0  0  0
 59 69  1  0  0  0  0
 60 69  1  0  0  0  0
 61 69  1  0  0  0  0
 62 81  1  0  0  0  0
 63 64  1  0  0  0  0
 63 76  1  0  0  0  0
 64 79  1  0  0  0  0
 65 66  1  0  0  0  0
 65 88  1  0  0  0  0
 66 89  1  0  0  0  0
 67 69  1  0  0  0  0
 67 78  1  0  0  0  0
 68 81  1  0  0  0  0
 70 71  1  0  0  0  0
M  CHG  2  80   1  81   1
M  ISO  4  38 100  65 101  79 100  88 101
M  END
> <Batch ID>
0133

> <Smiles>
CNC(C)C(=O)NC(C(=O)N1Cc2cc([101O:1][101CH2:1]COc3ccc(NCC[100NH:0][100C:0](=O)N4CCCC(n5nc(-c6ccc(Oc7ccc(F)cc7F)cc6)c(C(N)=O)c5N)C4)c(C45CCNCCC4C5)c3)ccc2CC1C(=O)NC1CCCc2ccccc21)C(C)(C)C

> <Shape>
0.244

> <Color>
0.188

> <Negative vol penalty>
0.000

$$$$

  -OEChem-04052320553D

 84 93  0     1  0  0  0  0  0999 V2000
  -22.1685  -31.3885   14.2791 C   0  0  0  0  0  0  0  0  0  0  0  0
  -23.2932  -30.8326   14.8803 C   0  0  0  0  0  0  0  0  0  0  0  0
  -24.3187   -8.0146   21.1614 C   0  0  0  0  0  0  0  0  0  0  0  0
  -23.2468  -10.1372   20.7343 C   0  0  0  0  0  0  0  0  0  0  0  0
  -21.5465  -32.4953   14.8554 C   0  0  0  0  0  0  0  0  0  0  0  0
  -23.7972  -31.3839   16.0578 C   0  0  0  0  0  0  0  0  0  0  0  0
  -24.9781  -27.8634   19.5012 C   0  0  0  0  0  0  0  0  0  0  0  0
  -23.2601   -7.6471   21.9919 C   0  0  0  0  0  0  0  0  0  0  0  0
  -22.1881   -9.7697   21.5647 C   0  0  0  0  0  0  0  0  0  0  0  0
  -26.1755  -27.1725   19.3206 C   0  0  0  0  0  0  0  0  0  0  0  0
  -20.1022   -6.4912   21.6385 C   0  0  0  0  0  0  0  0  0  0  0  0
  -19.5802   -5.2060   21.4929 C   0  0  0  0  0  0  0  0  0  0  0  0
  -27.2361  -28.5960   20.9540 C   0  0  0  0  0  0  0  0  0  0  0  0
  -20.1418   -4.7175   23.7914 C   0  0  0  0  0  0  0  0  0  0  0  0
  -24.3122   -9.2597   20.5326 C   0  0  0  0  0  0  0  0  0  0  0  0
  -25.8375   -8.9847   18.5065 C   0  0  0  0  0  0  0  0  0  0  0  0
  -22.0374  -33.0544   16.0458 C   0  0  0  0  0  0  0  0  0  0  0  0
  -24.9034  -28.9346   20.4031 C   0  0  0  0  0  0  0  0  0  0  0  0
  -23.1820  -32.5000   16.6500 C   0  0  0  0  0  0  0  0  0  0  0  0
  -26.0359  -29.2971   21.1461 C   0  0  0  0  0  0  0  0  0  0  0  0
  -22.1947   -8.5246   22.1935 C   0  0  0  0  0  0  0  0  0  0  0  0
  -27.3055  -27.5406   20.0449 C   0  0  0  0  0  0  0  0  0  0  0  0
  -20.6442   -6.8896   22.8605 C   0  0  0  0  0  0  0  0  0  0  0  0
  -19.5999   -4.3191   22.5694 C   0  0  0  0  0  0  0  0  0  0  0  0
  -20.6639   -6.0027   23.9370 C   0  0  0  0  0  0  0  0  0  0  0  0
  -25.4058   -9.6402   19.6751 C   0  0  0  0  0  0  0  0  0  0  0  0
  -26.9000   -9.7345   18.0648 C   0  0  0  0  0  0  0  0  0  0  0  0
  -25.3239   -7.8035   17.8765 C   0  0  0  0  0  0  0  0  0  0  0  0
  -24.2697  -32.0392   20.1510 C   0  0  0  0  0  0  0  0  0  0  0  0
  -24.4098  -31.9332   23.3901 C   0  0  0  0  0  0  0  0  0  0  0  0
  -24.9747  -31.2304   26.6815 C   0  0  0  0  0  0  0  0  0  0  0  0
  -28.2739  -15.4284   18.8053 C   0  0  0  0  0  0  0  0  0  0  0  0
  -21.3595  -34.2797   16.6059 C   0  0  0  0  0  0  0  0  0  0  0  0
  -23.5973  -29.6524   20.6060 C   0  0  0  0  0  0  0  0  0  0  0  0
  -26.0028  -30.4268   22.1418 C   0  0  0  0  0  0  0  0  0  0  0  0
  -21.7338  -34.5736   18.0563 C   0  0  0  0  0  0  0  0  0  0  0  0
  -30.3759  -12.6102   19.6637 C   0  0  0  0  0  0  0  0  0  0  0  0
  -23.2435  -34.4708   18.2493 C   0  0  0  0  0  0  0  0  0  0  0  0
  -29.3654  -11.4618   19.6504 C   0  0  0  0  0  0  0  0  0  0  0  0
  -31.2455  -22.2982   17.0836 C   0  0  0  0  0  0  0  0  0  0  0  0
  -28.5388  -18.6823   19.1010 C   0  0  0  0  0  0  0  0  0  0  0  0
  -30.5462  -18.1221   17.6812 C   0  0  0  0  0  0  0  0  0  0  0  0
  -29.7556  -13.8859   20.2259 C   0  0  0  0  0  0  0  0  0  0  0  0
  -31.3041  -23.7598   17.5298 C   0  0  0  0  0  0  0  0  0  0  0  0
  -27.5041  -13.1814   19.5131 C   0  0  0  0  0  0  0  0  0  0  0  0
  -29.3785  -22.8490   18.4922 C   0  0  0  0  0  0  0  0  0  0  0  0
  -28.4613  -20.0521   18.4395 C   0  0  0  0  0  0  0  0  0  0  0  0
  -30.4594  -19.4953   17.0280 C   0  0  0  0  0  0  0  0  0  0  0  0
  -23.7438  -33.0544   17.9411 C   0  0  1  0  0  0  0  0  0  0  0  0
  -23.7698  -31.0580   21.1733 C   0  0  1  0  0  0  0  0  0  0  0  0
  -28.0638  -11.8690   18.9346 C   0  0  2  0  0  0  0  0  0  0  0  0
  -29.1798  -17.6474   18.1757 C   0  0  0  0  0  0  0  0  0  0  0  0
  -29.8400  -21.8464   17.4535 C   0  0  2  0  0  0  0  0  0  0  0  0
  -25.0415  -32.3141   28.9439 C   0  0  0  0  0  0  0  0  0  0  0  0
  -27.1123  -33.1768   22.7119 C   0  0  0  0  0  0  0  0  0  0  0  0
  -27.5486  -33.3974   25.1673 C   0  0  0  0  0  0  0  0  0  0  0  0
  -25.6311  -34.6091   24.1293 C   0  0  0  0  0  0  0  0  0  0  0  0
  -22.8008  -29.5009   27.7024 C   0  0  0  0  0  0  0  0  0  0  0  0
  -29.8716  -25.1981   18.8665 C   0  0  0  0  0  0  0  0  0  0  0  0
  -28.4745  -25.7964   18.9283 C   0  0  0  0  0  0  0  0  0  1  0  0
  -25.5016  -32.1009   24.4190 C   0  0  1  0  0  0  0  0  0  0  0  0
  -24.1849  -31.5672   27.9334 C   0  0  2  0  0  0  0  0  0  0  0  0
  -26.4425  -33.2957   24.0954 C   0  0  0  0  0  0  0  0  0  0  0  0
  -26.1347  -10.7231   19.9581 N   0  0  0  0  0  0  0  0  0  0  0  0
  -27.0351  -10.7537   18.9610 N   0  0  0  0  0  0  0  0  0  0  0  0
  -24.7041  -31.1020   22.3000 N   0  0  0  0  0  0  0  0  0  0  0  0
  -28.5310  -14.2284   19.4890 N   0  0  0  0  0  0  0  0  0  0  0  0
  -29.9317  -24.0845   17.9323 N   0  0  1  0  0  0  0  0  0  0  0  0
  -27.7227   -9.6149   17.0011 N   0  0  0  0  0  0  0  0  0  0  0  0
  -24.3174   -7.9449   16.9115 N   0  0  0  0  0  0  0  0  0  0  0  0
  -23.4520  -32.1641   19.0441 N   0  0  0  0  0  0  0  0  0  0  0  0
  -24.8326  -32.2001   25.7116 N   0  0  0  0  0  0  0  0  0  0  0  0
  -29.2948  -16.3705   18.8366 N   0  0  0  0  0  0  0  0  0  0  0  0
  -29.8408  -20.4754   17.9954 N   0  3  0  0  0  0  0  0  0  0  0  0
  -23.6775  -30.3222   28.5764 N   0  3  0  0  0  0  0  0  0  0  0  0
  -25.7335   -6.6555   18.1727 O   0  0  0  0  0  0  0  0  0  0  0  0
  -25.3189  -32.6396   20.3522 O   0  0  0  0  0  0  0  0  0  0  0  0
  -23.3327  -32.5126   23.5513 O   0  0  0  0  0  0  0  0  0  0  0  0
  -25.6530  -30.2109   26.5760 O   0  0  0  0  0  0  0  0  0  0  0  0
  -27.2144  -15.6425   18.2064 O   0  0  0  0  0  0  0  0  0  0  0  0
  -21.1614   -8.1662   23.0037 O   0  0  0  0  0  0  0  0  0  0  0  0
  -28.4758  -26.8684   19.8701 O   0  0  0  0  0  0  0  0  0  1  0  0
  -19.0971   -3.0854   22.4299 F   0  0  0  0  0  0  0  0  0  0  0  0
  -21.1821   -6.3802   25.1137 F   0  0  0  0  0  0  0  0  0  0  0  0
  1  2  1  0  0  0  0
  1  5  2  0  0  0  0
  2  6  2  0  0  0  0
  3  8  2  0  0  0  0
  3 15  1  0  0  0  0
  4  9  1  0  0  0  0
  4 15  2  0  0  0  0
  5 17  1  0  0  0  0
  6 19  1  0  0  0  0
  7 10  2  0  0  0  0
  7 18  1  0  0  0  0
  8 21  1  0  0  0  0
  9 21  2  0  0  0  0
 10 22  1  0  0  0  0
 11 12  2  0  0  0  0
 11 23  1  0  0  0  0
 12 24  1  0  0  0  0
 13 20  1  0  0  0  0
 13 22  2  0  0  0  0
 14 24  2  0  0  0  0
 14 25  1  0  0  0  0
 15 26  1  0  0  0  0
 16 26  1  0  0  0  0
 16 27  2  0  0  0  0
 16 28  1  0  0  0  0
 17 19  2  0  0  0  0
 17 33  1  0  0  0  0
 18 20  2  0  0  0  0
 18 34  1  0  0  0  0
 19 49  1  0  0  0  0
 20 35  1  0  0  0  0
 21 81  1  0  0  0  0
 22 82  1  0  0  0  0
 23 25  2  0  0  0  0
 23 81  1  0  0  0  0
 24 83  1  0  0  0  0
 25 84  1  0  0  0  0
 26 64  2  0  0  0  0
 27 65  1  0  0  0  0
 27 69  1  0  0  0  0
 28 70  1  0  0  0  0
 28 76  2  0  0  0  0
 29 50  1  0  0  0  0
 29 71  1  0  0  0  0
 29 77  2  0  0  0  0
 30 61  1  0  0  0  0
 30 66  1  0  0  0  0
 30 78  2  0  0  0  0
 31 62  1  0  0  0  0
 31 72  1  0  0  0  0
 31 79  2  0  0  0  0
 32 67  1  0  0  0  0
 32 73  1  0  0  0  0
 32 80  2  0  0  0  0
 33 36  1  0  0  0  0
 34 50  1  0  0  0  0
 35 66  1  0  0  0  0
 36 38  1  0  0  0  0
 37 39  1  0  0  0  0
 37 43  1  0  0  0  0
 38 49  1  0  0  0  0
 39 51  1  0  0  0  0
 40 44  1  0  0  0  0
 40 53  1  0  0  0  0
 41 47  1  0  0  0  0
 41 52  1  0  0  0  0
 42 48  1  0  0  0  0
 42 52  1  0  0  0  0
 43 67  1  0  0  0  0
 44 68  1  0  0  0  0
 45 51  1  0  0  0  0
 45 67  1  0  0  0  0
 46 53  1  0  0  0  0
 46 68  1  0  0  0  0
 47 74  1  0  0  0  0
 48 74  1  0  0  0  0
 49 71  1  0  0  0  0
 50 66  1  0  0  0  0
 51 65  1  0  0  0  0
 52 73  1  0  0  0  0
 53 74  1  0  0  0  0
 54 62  1  0  0  0  0
 55 63  1  0  0  0  0
 56 63  1  0  0  0  0
 57 63  1  0  0  0  0
 58 75  1  0  0  0  0
 59 60  1  0  0  0  0
 59 68  1  0  0  0  0
 60 82  1  0  0  0  0
 61 63  1  0  0  0  0
 61 72  1  0  0  0  0
 62 75  1  0  0  0  0
 64 65  1  0  0  0  0
M  CHG  2  74   1  75   1
M  ISO  4  32 100  60 101  73 100  82 101
M  END
> <Batch ID>
0133

> <Smiles>
CNC(C)C(=O)NC(C(=O)N1Cc2cc([101O:1][101CH2:1]CN3CCC(N4CCC([100NH:0][100C:0](=O)N5CCCC(n6nc(-c7ccc(Oc8ccc(F)cc8F)cc7)c(C(N)=O)c6N)C5)CC4)C3)ccc2CC1C(=O)NC1CCCc2ccccc21)C(C)(C)C

> <Shape>
0.281

> <Color>
0.111

> <Negative vol penalty>
0.000

$$$$

  -OEChem-04052320553D

 82 90  0     1  0  0  0  0  0999 V2000
  -18.1213  -32.5186   20.9860 C   0  0  0  0  0  0  0  0  0  0  0  0
  -19.4650  -32.4987   20.6260 C   0  0  0  0  0  0  0  0  0  0  0  0
  -31.4893  -25.6393   20.8997 C   0  0  0  0  0  0  0  0  0  0  0  0
  -26.0027  -15.7805   20.6097 C   0  0  0  0  0  0  0  0  0  0  0  0
  -27.8893  -14.8936   19.3886 C   0  0  0  0  0  0  0  0  0  0  0  0
  -17.6794  -31.7586   22.0681 C   0  0  0  0  0  0  0  0  0  0  0  0
  -20.3677  -31.7196   21.3488 C   0  0  0  0  0  0  0  0  0  0  0  0
  -25.2562  -28.7566   19.1512 C   0  0  0  0  0  0  0  0  0  0  0  0
  -31.2560  -26.9738   20.5677 C   0  0  0  0  0  0  0  0  0  0  0  0
  -31.5854  -24.6771   19.8945 C   0  0  0  0  0  0  0  0  0  0  0  0
  -25.5590  -14.4833   20.8663 C   0  0  0  0  0  0  0  0  0  0  0  0
  -27.4456  -13.5964   19.6452 C   0  0  0  0  0  0  0  0  0  0  0  0
  -26.6131  -29.0756   19.1256 C   0  0  0  0  0  0  0  0  0  0  0  0
  -23.9106  -12.0416   19.2094 C   0  0  0  0  0  0  0  0  0  0  0  0
  -22.5529  -11.7750   19.0325 C   0  0  0  0  0  0  0  0  0  0  0  0
  -26.9509  -27.7733   21.1279 C   0  0  0  0  0  0  0  0  0  0  0  0
  -31.2147  -26.3838   18.2252 C   0  0  0  0  0  0  0  0  0  0  0  0
  -22.3740  -11.1440   21.3578 C   0  0  0  0  0  0  0  0  0  0  0  0
  -27.1679  -15.9857   19.8708 C   0  0  0  0  0  0  0  0  0  0  0  0
  -28.5003  -18.0973   20.3940 C   0  0  0  0  0  0  0  0  0  0  0  0
  -18.5754  -30.9623   22.7985 C   0  0  0  0  0  0  0  0  0  0  0  0
  -24.7335  -27.9511   20.1732 C   0  0  0  0  0  0  0  0  0  0  0  0
  -19.9376  -30.9492   22.4425 C   0  0  0  0  0  0  0  0  0  0  0  0
  -25.5874  -27.4435   21.1628 C   0  0  0  0  0  0  0  0  0  0  0  0
  -31.1186  -27.3461   19.2305 C   0  0  0  0  0  0  0  0  0  0  0  0
  -31.4481  -25.0493   18.5573 C   0  0  0  0  0  0  0  0  0  0  0  0
  -26.2804  -13.3912   20.3841 C   0  0  0  0  0  0  0  0  0  0  0  0
  -27.4602  -28.5863   20.1156 C   0  0  0  0  0  0  0  0  0  0  0  0
  -24.5000  -11.8593   20.4604 C   0  0  0  0  0  0  0  0  0  0  0  0
  -21.7846  -11.3262   20.1067 C   0  0  0  0  0  0  0  0  0  0  0  0
  -23.7317  -11.4106   21.5346 C   0  0  0  0  0  0  0  0  0  0  0  0
  -27.6265  -17.3255   19.6049 C   0  0  0  0  0  0  0  0  0  0  0  0
  -28.6192  -19.2845   19.7137 C   0  0  0  0  0  0  0  0  0  0  0  0
  -29.1467  -17.7701   21.6312 C   0  0  0  0  0  0  0  0  0  0  0  0
  -22.5743  -28.3608   22.4696 C   0  0  0  0  0  0  0  0  0  0  0  0
  -23.0745  -25.1947   22.9674 C   0  0  0  0  0  0  0  0  0  0  0  0
  -25.1511  -22.5049   22.6520 C   0  0  0  0  0  0  0  0  0  0  0  0
  -29.3149  -22.1198   14.9574 C   0  0  0  0  0  0  0  0  0  0  0  0
  -18.0595  -30.1946   23.9898 C   0  0  0  0  0  0  0  0  0  0  0  0
  -23.2724  -27.5942   20.1716 C   0  0  0  0  0  0  0  0  0  0  0  0
  -25.0797  -26.5581   22.2703 C   0  0  0  0  0  0  0  0  0  0  0  0
  -19.0132  -29.1043   24.4714 C   0  0  0  0  0  0  0  0  0  0  0  0
  -26.0042  -21.1038   15.7845 C   0  0  0  0  0  0  0  0  0  0  0  0
  -20.4376  -29.6425   24.5610 C   0  0  0  0  0  0  0  0  0  0  0  0
  -26.2038  -20.0898   16.9123 C   0  0  0  0  0  0  0  0  0  0  0  0
  -27.1118  -21.0086   14.7375 C   0  0  0  0  0  0  0  0  0  0  0  0
  -28.6814  -20.0932   16.4025 C   0  0  0  0  0  0  0  0  0  0  0  0
  -20.9430  -30.0974   23.1866 C   0  0  1  0  0  0  0  0  0  0  0  0
  -22.7550  -27.1879   21.5480 C   0  0  1  0  0  0  0  0  0  0  0  0
  -27.6196  -20.1889   17.5114 C   0  0  2  0  0  0  0  0  0  0  0  0
  -25.8896  -20.1087   22.7543 C   0  0  0  0  0  0  0  0  0  0  0  0
  -23.6325  -25.8700   25.8901 C   0  0  0  0  0  0  0  0  0  0  0  0
  -24.6774  -23.6087   26.1407 C   0  0  0  0  0  0  0  0  0  0  0  0
  -22.2645  -23.8060   25.5391 C   0  0  0  0  0  0  0  0  0  0  0  0
  -24.1116  -21.9476   19.9376 C   0  0  0  0  0  0  0  0  0  0  0  0
  -30.8654  -28.7902   18.8717 C   0  0  0  0  0  0  0  0  0  0  0  0
  -31.4149  -24.3888   16.1514 C   0  0  0  0  0  0  0  0  0  0  0  0
  -31.5535  -23.1336   15.3035 C   0  0  0  0  0  0  0  0  0  0  0  0
  -29.3781  -29.1214   18.8151 C   0  0  0  0  0  0  0  0  0  1  0  0
  -24.0227  -24.3826   23.8162 C   0  0  1  0  0  0  0  0  0  0  0  0
  -24.9033  -21.0946   22.1477 C   0  0  2  0  0  0  0  0  0  0  0  0
  -23.6588  -24.4351   25.3269 C   0  0  0  0  0  0  0  0  0  0  0  0
  -27.2190  -17.9685   18.5074 N   0  0  0  0  0  0  0  0  0  0  0  0
  -27.8394  -19.1569   18.6020 N   0  0  0  0  0  0  0  0  0  0  0  0
  -23.6422  -26.2426   22.2289 N   0  0  0  0  0  0  0  0  0  0  0  0
  -28.4289  -21.1112   15.3706 N   0  0  0  0  0  0  0  0  0  0  0  0
  -29.3135  -20.4149   19.9641 N   0  0  0  0  0  0  0  0  0  0  0  0
  -28.9152  -16.5069   22.1925 N   0  0  0  0  0  0  0  0  0  0  0  0
  -31.5457  -24.0763   17.5408 N   0  0  0  0  0  0  0  0  0  0  0  0
  -21.3295  -28.9549   22.3867 N   0  0  0  0  0  0  0  0  0  0  0  0
  -24.0286  -23.0383   23.2493 N   0  0  0  0  0  0  0  0  0  0  0  0
  -30.5395  -22.1504   15.6133 N   0  0  0  0  0  0  0  0  0  0  0  0
  -25.0396  -21.0434   20.6646 N   0  3  0  0  0  0  0  0  0  0  0  0
  -29.8942  -18.5803   22.2300 O   0  0  0  0  0  0  0  0  0  0  0  0
  -23.4955  -28.7007   23.2028 O   0  0  0  0  0  0  0  0  0  0  0  0
  -21.8754  -24.9052   22.9543 O   0  0  0  0  0  0  0  0  0  0  0  0
  -26.2334  -23.0747   22.5316 O   0  0  0  0  0  0  0  0  0  0  0  0
  -29.0332  -22.9360   14.0735 O   0  0  0  0  0  0  0  0  0  0  0  0
  -25.8478  -12.1252   20.6345 O   0  0  0  0  0  0  0  0  0  0  0  0
  -28.7850  -28.8967   20.0934 O   0  0  0  0  0  0  0  0  0  1  0  0
  -20.4805  -11.0717   19.9372 F   0  0  0  0  0  0  0  0  0  0  0  0
  -24.2921  -11.2347   22.7391 F   0  0  0  0  0  0  0  0  0  0  0  0
  1  2  1  0  0  0  0
  1  6  2  0  0  0  0
  2  7  2  0  0  0  0
  3  9  2  0  0  0  0
  3 10  1  0  0  0  0
  4 11  2  0  0  0  0
  4 19  1  0  0  0  0
  5 12  1  0  0  0  0
  5 19  2  0  0  0  0
  6 21  1  0  0  0  0
  7 23  1  0  0  0  0
  8 13  2  0  0  0  0
  8 22  1  0  0  0  0
  9 25  1  0  0  0  0
 10 26  2  0  0  0  0
 11 27  1  0  0  0  0
 12 27  2  0  0  0  0
 13 28  1  0  0  0  0
 14 15  2  0  0  0  0
 14 29  1  0  0  0  0
 15 30  1  0  0  0  0
 16 24  1  0  0  0  0
 16 28  2  0  0  0  0
 17 25  2  0  0  0  0
 17 26  1  0  0  0  0
 18 30  2  0  0  0  0
 18 31  1  0  0  0  0
 19 32  1  0  0  0  0
 20 32  1  0  0  0  0
 20 33  2  0  0  0  0
 20 34  1  0  0  0  0
 21 23  2  0  0  0  0
 21 39  1  0  0  0  0
 22 24  2  0  0  0  0
 22 40  1  0  0  0  0
 23 48  1  0  0  0  0
 24 41  1  0  0  0  0
 25 56  1  0  0  0  0
 26 69  1  0  0  0  0
 27 79  1  0  0  0  0
 28 80  1  0  0  0  0
 29 31  2  0  0  0  0
 29 79  1  0  0  0  0
 30 81  1  0  0  0  0
 31 82  1  0  0  0  0
 32 63  2  0  0  0  0
 33 64  1  0  0  0  0
 33 67  1  0  0  0  0
 34 68  1  0  0  0  0
 34 74  2  0  0  0  0
 35 49  1  0  0  0  0
 35 70  1  0  0  0  0
 35 75  2  0  0  0  0
 36 60  1  0  0  0  0
 36 65  1  0  0  0  0
 36 76  2  0  0  0  0
 37 61  1  0  0  0  0
 37 71  1  0  0  0  0
 37 77  2  0  0  0  0
 38 66  1  0  0  0  0
 38 72  1  0  0  0  0
 38 78  2  0  0  0  0
 39 42  1  0  0  0  0
 40 49  1  0  0  0  0
 41 65  1  0  0  0  0
 42 44  1  0  0  0  0
 43 45  1  0  0  0  0
 43 46  1  0  0  0  0
 44 48  1  0  0  0  0
 45 50  1  0  0  0  0
 46 66  1  0  0  0  0
 47 50  1  0  0  0  0
 47 66  1  0  0  0  0
 48 70  1  0  0  0  0
 49 65  1  0  0  0  0
 50 64  1  0  0  0  0
 51 61  1  0  0  0  0
 52 62  1  0  0  0  0
 53 62  1  0  0  0  0
 54 62  1  0  0  0  0
 55 73  1  0  0  0  0
 56 59  1  0  0  0  0
 57 58  1  0  0  0  0
 57 69  1  0  0  0  0
 58 72  1  0  0  0  0
 59 80  1  0  0  0  0
 60 62  1  0  0  0  0
 60 71  1  0  0  0  0
 61 73  1  0  0  0  0
 63 64  1  0  0  0  0
M  CHG  1  73   1
M  ISO  4  38 100  59 101  72 100  80 101
M  END
> <Batch ID>
0133

> <Smiles>
CNC(C)C(=O)NC(C(=O)N1Cc2cc([101O:1][101CH2:1]Cc3cccc(NCC[100NH:0][100C:0](=O)N4CCCC(n5nc(-c6ccc(Oc7ccc(F)cc7F)cc6)c(C(N)=O)c5N)C4)c3)ccc2CC1C(=O)NC1CCCc2ccccc21)C(C)(C)C

> <Shape>
0.206

> <Color>
0.093

> <Negative vol penalty>
0.000

$$$$

  -OEChem-04052320553D

 82 90  0     1  0  0  0  0  0999 V2000
  -30.9978  -32.4605   17.6292 C   0  0  0  0  0  0  0  0  0  0  0  0
  -30.4610  -31.2495   18.0541 C   0  0  0  0  0  0  0  0  0  0  0  0
  -24.2161   -8.7720   19.9609 C   0  0  0  0  0  0  0  0  0  0  0  0
  -23.0903  -10.5740   21.1109 C   0  0  0  0  0  0  0  0  0  0  0  0
  -30.8567  -33.6000   18.4201 C   0  0  0  0  0  0  0  0  0  0  0  0
  -29.7837  -31.1769   19.2708 C   0  0  0  0  0  0  0  0  0  0  0  0
  -25.4662  -28.5515   18.9373 C   0  0  0  0  0  0  0  0  0  0  0  0
  -29.0497  -20.5488   19.6196 C   0  0  0  0  0  0  0  0  0  0  0  0
  -27.2115  -20.2077   18.0894 C   0  0  0  0  0  0  0  0  0  0  0  0
  -29.2064  -19.1679   19.7392 C   0  0  0  0  0  0  0  0  0  0  0  0
  -27.3682  -18.8268   18.2089 C   0  0  0  0  0  0  0  0  0  0  0  0
  -23.4074   -7.8462   20.6198 C   0  0  0  0  0  0  0  0  0  0  0  0
  -22.2814   -9.6481   21.7698 C   0  0  0  0  0  0  0  0  0  0  0  0
  -25.5664  -27.1610   18.9184 C   0  0  0  0  0  0  0  0  0  0  0  0
  -20.2558   -6.6521   20.3467 C   0  0  0  0  0  0  0  0  0  0  0  0
  -19.7015   -5.6204   19.5890 C   0  0  0  0  0  0  0  0  0  0  0  0
  -24.9940  -27.0940   21.2608 C   0  0  0  0  0  0  0  0  0  0  0  0
  -20.8388   -3.9959   20.9691 C   0  0  0  0  0  0  0  0  0  0  0  0
  -24.0576  -10.1360   20.2064 C   0  0  0  0  0  0  0  0  0  0  0  0
  -24.6365  -11.7202   18.2927 C   0  0  0  0  0  0  0  0  0  0  0  0
  -30.1689  -33.5436   19.6426 C   0  0  0  0  0  0  0  0  0  0  0  0
  -25.1393  -29.2255   20.1227 C   0  0  0  0  0  0  0  0  0  0  0  0
  -29.6344  -32.3164   20.0794 C   0  0  0  0  0  0  0  0  0  0  0  0
  -24.8878  -28.4929   21.2915 C   0  0  0  0  0  0  0  0  0  0  0  0
  -28.0522  -21.0687   18.7948 C   0  0  0  0  0  0  0  0  0  0  0  0
  -28.3657  -18.3070   19.0339 C   0  0  0  0  0  0  0  0  0  0  0  0
  -22.4400   -8.2842   21.5243 C   0  0  0  0  0  0  0  0  0  0  0  0
  -25.3331  -26.4323   20.0810 C   0  0  0  0  0  0  0  0  0  0  0  0
  -21.1016   -6.3556   21.4155 C   0  0  0  0  0  0  0  0  0  0  0  0
  -19.9930   -4.2923   19.9002 C   0  0  0  0  0  0  0  0  0  0  0  0
  -21.3931   -5.0276   21.7267 C   0  0  0  0  0  0  0  0  0  0  0  0
  -24.8931  -11.0929   19.5265 C   0  0  0  0  0  0  0  0  0  0  0  0
  -25.7250  -12.5324   18.0875 C   0  0  0  0  0  0  0  0  0  0  0  0
  -23.5146  -11.5814   17.4109 C   0  0  0  0  0  0  0  0  0  0  0  0
  -26.6039  -31.3615   21.9655 C   0  0  0  0  0  0  0  0  0  0  0  0
  -23.7621  -31.3830   23.5295 C   0  0  0  0  0  0  0  0  0  0  0  0
  -20.8671  -29.7487   24.3006 C   0  0  0  0  0  0  0  0  0  0  0  0
  -29.4639  -16.2243   19.9297 C   0  0  0  0  0  0  0  0  0  0  0  0
  -30.0829  -34.7913   20.4854 C   0  0  0  0  0  0  0  0  0  0  0  0
  -25.0090  -30.7240   20.1201 C   0  0  0  0  0  0  0  0  0  0  0  0
  -24.5138  -29.1675   22.5852 C   0  0  0  0  0  0  0  0  0  0  0  0
  -29.0265  -34.7122   21.5846 C   0  0  0  0  0  0  0  0  0  0  0  0
  -30.1543  -12.7824   20.5248 C   0  0  0  0  0  0  0  0  0  0  0  0
  -29.1266  -33.3833   22.3266 C   0  0  0  0  0  0  0  0  0  0  0  0
  -28.8260  -12.0876   20.2167 C   0  0  0  0  0  0  0  0  0  0  0  0
  -29.9428  -14.1393   21.1941 C   0  0  0  0  0  0  0  0  0  0  0  0
  -27.7126  -14.3559   20.1701 C   0  0  0  0  0  0  0  0  0  0  0  0
  -28.8714  -32.2031   21.3814 C   0  0  1  0  0  0  0  0  0  0  0  0
  -25.1736  -31.3405   21.5058 C   0  0  1  0  0  0  0  0  0  0  0  0
  -27.8730  -13.0143   19.4366 C   0  0  2  0  0  0  0  0  0  0  0  0
  -18.7548  -30.0047   25.6311 C   0  0  0  0  0  0  0  0  0  0  0  0
  -25.3122  -30.8141   26.0954 C   0  0  0  0  0  0  0  0  0  0  0  0
  -23.1516  -30.1476   27.1703 C   0  0  0  0  0  0  0  0  0  0  0  0
  -23.4629  -32.4796   26.3413 C   0  0  0  0  0  0  0  0  0  0  0  0
  -19.1793  -29.5471   21.8779 C   0  0  0  0  0  0  0  0  0  0  0  0
  -27.8827  -22.5628   18.6655 C   0  0  0  0  0  0  0  0  0  0  0  0
  -27.5131  -23.3402   21.1039 C   0  0  0  0  0  0  0  0  0  0  0  0
  -26.3521  -24.5007   19.1393 C   0  0  0  0  0  0  0  0  0  1  0  0
  -23.1665  -30.6011   24.6753 C   0  0  1  0  0  0  0  0  0  0  0  0
  -19.4181  -30.2008   24.2767 C   0  0  2  0  0  0  0  0  0  0  0  0
  -26.9107  -23.1800   19.6956 C   0  0  1  0  0  0  0  0  0  0  0  0
  -23.7822  -30.9977   26.0468 C   0  0  0  0  0  0  0  0  0  0  0  0
  -26.0537  -11.4736   20.0671 N   0  0  0  0  0  0  0  0  0  0  0  0
  -26.5360  -12.3490   19.1686 N   0  0  0  0  0  0  0  0  0  0  0  0
  -24.4052  -30.6348   22.5333 N   0  0  0  0  0  0  0  0  0  0  0  0
  -29.0328  -14.9645   20.3967 N   0  0  0  0  0  0  0  0  0  0  0  0
  -26.0580  -13.3783   17.0895 N   0  0  0  0  0  0  0  0  0  0  0  0
  -22.4836  -10.7042   17.7744 N   0  0  0  0  0  0  0  0  0  0  0  0
  -28.5248  -16.9042   19.1549 N   0  0  0  0  0  0  0  0  0  0  0  0
  -27.4543  -32.0566   21.1270 N   0  0  0  0  0  0  0  0  0  0  0  0
  -21.7223  -30.7904   24.5916 N   0  0  0  0  0  0  0  0  0  0  0  0
  -28.6972  -24.2316   21.1052 N   0  3  0  0  0  0  0  0  0  0  0  0
  -18.6505  -29.4262   23.2609 N   0  3  0  0  0  0  0  0  0  0  0  0
  -23.4365  -12.2039   16.3247 O   0  0  0  0  0  0  0  0  0  0  0  0
  -26.9129  -30.7906   23.0049 O   0  0  0  0  0  0  0  0  0  0  0  0
  -23.6544  -32.6117   23.5152 O   0  0  0  0  0  0  0  0  0  0  0  0
  -21.2060  -28.5869   24.0865 O   0  0  0  0  0  0  0  0  0  0  0  0
  -30.5936  -16.6554   20.1747 O   0  0  0  0  0  0  0  0  0  0  0  0
  -21.6505   -7.3810   22.1673 O   0  0  0  0  0  0  0  0  0  0  0  0
  -25.4308  -25.0750   20.0655 O   0  0  0  0  0  0  0  0  0  1  0  0
  -19.4594   -3.3017   19.1735 F   0  0  0  0  0  0  0  0  0  0  0  0
  -22.2040   -4.7365   22.7531 F   0  0  0  0  0  0  0  0  0  0  0  0
  1  2  1  0  0  0  0
  1  5  2  0  0  0  0
  2  6  2  0  0  0  0
  3 12  2  0  0  0  0
  3 19  1  0  0  0  0
  4 13  1  0  0  0  0
  4 19  2  0  0  0  0
  5 21  1  0  0  0  0
  6 23  1  0  0  0  0
  7 14  2  0  0  0  0
  7 22  1  0  0  0  0
  8 10  2  0  0  0  0
  8 25  1  0  0  0  0
  9 11  1  0  0  0  0
  9 25  2  0  0  0  0
 10 26  1  0  0  0  0
 11 26  2  0  0  0  0
 12 27  1  0  0  0  0
 13 27  2  0  0  0  0
 14 28  1  0  0  0  0
 15 16  2  0  0  0  0
 15 29  1  0  0  0  0
 16 30  1  0  0  0  0
 17 24  1  0  0  0  0
 17 28  2  0  0  0  0
 18 30  2  0  0  0  0
 18 31  1  0  0  0  0
 19 32  1  0  0  0  0
 20 32  1  0  0  0  0
 20 33  2  0  0  0  0
 20 34  1  0  0  0  0
 21 23  2  0  0  0  0
 21 39  1  0  0  0  0
 22 24  2  0  0  0  0
 22 40  1  0  0  0  0
 23 48  1  0  0  0  0
 24 41  1  0  0  0  0
 25 56  1  0  0  0  0
 26 69  1  0  0  0  0
 27 79  1  0  0  0  0
 28 80  1  0  0  0  0
 29 31  2  0  0  0  0
 29 79  1  0  0  0  0
 30 81  1  0  0  0  0
 31 82  1  0  0  0  0
 32 63  2  0  0  0  0
 33 64  1  0  0  0  0
 33 67  1  0  0  0  0
 34 68  1  0  0  0  0
 34 74  2  0  0  0  0
 35 49  1  0  0  0  0
 35 70  1  0  0  0  0
 35 75  2  0  0  0  0
 36 59  1  0  0  0  0
 36 65  1  0  0  0  0
 36 76  2  0  0  0  0
 37 60  1  0  0  0  0
 37 71  1  0  0  0  0
 37 77  2  0  0  0  0
 38 66  1  0  0  0  0
 38 69  1  0  0  0  0
 38 78  2  0  0  0  0
 39 42  1  0  0  0  0
 40 49  1  0  0  0  0
 41 65  1  0  0  0  0
 42 44  1  0  0  0  0
 43 45  1  0  0  0  0
 43 46  1  0  0  0  0
 44 48  1  0  0  0  0
 45 50  1  0  0  0  0
 46 66  1  0  0  0  0
 47 50  1  0  0  0  0
 47 66  1  0  0  0  0
 48 70  1  0  0  0  0
 49 65  1  0  0  0  0
 50 64  1  0  0  0  0
 51 60  1  0  0  0  0
 52 62  1  0  0  0  0
 53 62  1  0  0  0  0
 54 62  1  0  0  0  0
 55 73  1  0  0  0  0
 56 61  1  0  0  0  0
 57 61  1  0  0  0  0
 57 72  1  0  0  0  0
 58 61  1  0  0  0  0
 58 80  1  0  0  0  0
 59 62  1  0  0  0  0
 59 71  1  0  0  0  0
 60 73  1  0  0  0  0
 63 64  1  0  0  0  0
M  CHG  2  72   1  73   1
M  ISO  4  38 100  58 101  69 100  80 101
M  END
> <Batch ID>
0133

> <Smiles>
CNC(C)C(=O)NC(C(=O)N1Cc2cc([101O:1][101CH2:1]C(CN)Cc3ccc([100NH:0][100C:0](=O)N4CCCC(n5nc(-c6ccc(Oc7ccc(F)cc7F)cc6)c(C(N)=O)c5N)C4)cc3)ccc2CC1C(=O)NC1CCCc2ccccc21)C(C)(C)C

> <Shape>
0.254

> <Color>
0.093

> <Negative vol penalty>
0.000

$$$$

  -OEChem-04052320553D

 83 91  0     1  0  0  0  0  0999 V2000
  -27.4481  -28.4977   18.9198 C   0  0  0  0  0  0  0  0  0  0  0  0
  -27.0068  -27.4226   19.6846 C   0  0  0  0  0  0  0  0  0  0  0  0
  -32.0742  -19.1346   18.9811 C   0  0  0  0  0  0  0  0  0  0  0  0
  -29.9484  -20.1093   19.5880 C   0  0  0  0  0  0  0  0  0  0  0  0
  -26.9015  -29.7647   19.1196 C   0  0  0  0  0  0  0  0  0  0  0  0
  -26.0194  -27.6141   20.6504 C   0  0  0  0  0  0  0  0  0  0  0  0
  -22.4641  -24.0098   20.5350 C   0  0  0  0  0  0  0  0  0  0  0  0
  -32.3231  -20.2090   18.1272 C   0  0  0  0  0  0  0  0  0  0  0  0
  -30.1973  -21.1838   18.7340 C   0  0  0  0  0  0  0  0  0  0  0  0
  -22.7826  -22.7824   21.1145 C   0  0  0  0  0  0  0  0  0  0  0  0
  -32.0211  -24.0285   18.7791 C   0  0  0  0  0  0  0  0  0  0  0  0
  -31.7533  -25.3107   19.2583 C   0  0  0  0  0  0  0  0  0  0  0  0
  -21.5594  -23.4079   23.0973 C   0  0  0  0  0  0  0  0  0  0  0  0
  -22.3916  -16.6316   23.0773 C   0  0  0  0  0  0  0  0  0  0  0  0
  -22.4020  -17.4195   20.7934 C   0  0  0  0  0  0  0  0  0  0  0  0
  -30.1652  -25.6478   17.4691 C   0  0  0  0  0  0  0  0  0  0  0  0
  -30.8868  -19.0847   19.7115 C   0  0  0  0  0  0  0  0  0  0  0  0
  -30.9711  -17.8737   21.9551 C   0  0  0  0  0  0  0  0  0  0  0  0
  -25.9000  -29.9699   20.0816 C   0  0  0  0  0  0  0  0  0  0  0  0
  -21.6986  -24.9514   21.2377 C   0  0  0  0  0  0  0  0  0  0  0  0
  -25.4598  -28.8853   20.8641 C   0  0  0  0  0  0  0  0  0  0  0  0
  -21.2303  -24.6454   22.5235 C   0  0  0  0  0  0  0  0  0  0  0  0
  -22.9974  -15.4430   22.6700 C   0  0  0  0  0  0  0  0  0  0  0  0
  -23.0078  -16.2309   20.3861 C   0  0  0  0  0  0  0  0  0  0  0  0
  -23.3055  -15.2427   21.3245 C   0  0  0  0  0  0  0  0  0  0  0  0
  -31.3847  -21.2336   18.0036 C   0  0  0  0  0  0  0  0  0  0  0  0
  -22.3327  -22.4824   22.3969 C   0  0  0  0  0  0  0  0  0  0  0  0
  -31.3610  -23.5559   17.6448 C   0  0  0  0  0  0  0  0  0  0  0  0
  -22.0939  -17.6199   22.1389 C   0  0  0  0  0  0  0  0  0  0  0  0
  -30.8254  -26.1204   18.6034 C   0  0  0  0  0  0  0  0  0  0  0  0
  -30.4330  -24.3655   16.9898 C   0  0  0  0  0  0  0  0  0  0  0  0
  -30.6289  -17.9748   20.5933 C   0  0  0  0  0  0  0  0  0  0  0  0
  -30.5109  -16.6362   22.3338 C   0  0  0  0  0  0  0  0  0  0  0  0
  -31.6446  -18.8142   22.8021 C   0  0  0  0  0  0  0  0  0  0  0  0
  -22.1960  -27.9078   22.2941 C   0  0  0  0  0  0  0  0  0  0  0  0
  -19.0519  -27.7405   23.0744 C   0  0  0  0  0  0  0  0  0  0  0  0
  -16.3530  -25.7916   23.8260 C   0  0  0  0  0  0  0  0  0  0  0  0
  -26.1772  -13.0791   20.2322 C   0  0  0  0  0  0  0  0  0  0  0  0
  -25.3728  -31.3669   20.2941 C   0  0  0  0  0  0  0  0  0  0  0  0
  -21.3411  -26.2601   20.5882 C   0  0  0  0  0  0  0  0  0  0  0  0
  -20.3883  -25.6138   23.3120 C   0  0  0  0  0  0  0  0  0  0  0  0
  -24.0642  -31.4113   21.0788 C   0  0  0  0  0  0  0  0  0  0  0  0
  -29.6273  -12.2726   20.5820 C   0  0  0  0  0  0  0  0  0  0  0  0
  -24.1474  -30.5105   22.3070 C   0  0  0  0  0  0  0  0  0  0  0  0
  -30.3061  -13.6334   20.7475 C   0  0  0  0  0  0  0  0  0  0  0  0
  -28.4568  -12.3410   19.6037 C   0  0  0  0  0  0  0  0  0  0  0  0
  -28.1318  -14.7379   20.0760 C   0  0  0  0  0  0  0  0  0  0  0  0
  -24.3728  -29.0481   21.9043 C   0  0  1  0  0  0  0  0  0  0  0  0
  -20.9883  -27.3503   21.5953 C   0  0  1  0  0  0  0  0  0  0  0  0
  -29.2834  -14.7315   21.0958 C   0  0  2  0  0  0  0  0  0  0  0  0
  -23.3065  -14.4018   23.6955 C   0  0  0  0  0  0  0  0  0  0  0  0
  -23.3259  -16.0395   18.9393 C   0  0  0  0  0  0  0  0  0  0  0  0
  -13.9285  -25.9424   24.4556 C   0  0  0  0  0  0  0  0  0  0  0  0
  -19.8406  -28.5516   25.9081 C   0  0  0  0  0  0  0  0  0  0  0  0
  -17.5913  -27.7713   26.6828 C   0  0  0  0  0  0  0  0  0  0  0  0
  -17.7637  -29.6484   25.0489 C   0  0  0  0  0  0  0  0  0  0  0  0
  -15.5133  -24.3045   21.4089 C   0  0  0  0  0  0  0  0  0  0  0  0
  -23.9547  -13.9677   20.8881 C   0  0  0  0  0  0  0  0  0  0  0  0
  -21.7060  -20.7468   23.8972 C   0  0  0  0  0  0  0  0  0  1  0  0
  -21.7838  -19.2329   23.8588 C   0  0  0  0  0  0  0  0  0  0  0  0
  -18.2739  -27.2920   24.2879 C   0  0  1  0  0  0  0  0  0  0  0  0
  -14.9241  -25.8089   23.3138 C   0  0  2  0  0  0  0  0  0  0  0  0
  -18.3849  -28.2982   25.4681 C   0  0  0  0  0  0  0  0  0  0  0  0
  -30.0000  -16.8881   20.1376 N   0  0  0  0  0  0  0  0  0  0  0  0
  -29.9434  -16.0924   21.2192 N   0  0  0  0  0  0  0  0  0  0  0  0
  -20.0707  -26.8826   22.6363 N   0  0  0  0  0  0  0  0  0  0  0  0
  -27.5231  -13.4011   19.9915 N   0  0  0  0  0  0  0  0  0  0  0  0
  -30.5403  -15.9711   23.5082 N   0  0  0  0  0  0  0  0  0  0  0  0
  -32.0496  -20.0381   22.2520 N   0  0  0  0  0  0  0  0  0  0  0  0
  -23.1364  -28.4548   21.4421 N   0  0  0  0  0  0  0  0  0  0  0  0
  -16.9086  -27.0535   23.8324 N   0  0  0  0  0  0  0  0  0  0  0  0
  -25.3612  -14.1415   20.6012 N   0  0  0  0  0  0  0  0  0  0  0  0
  -14.6241  -24.5509   22.5732 N   0  3  0  0  0  0  0  0  0  0  0  0
  -31.8950  -18.5698   24.0067 O   0  0  0  0  0  0  0  0  0  0  0  0
  -22.2686  -27.8476   23.5159 O   0  0  0  0  0  0  0  0  0  0  0  0
  -18.7614  -28.8090   22.5308 O   0  0  0  0  0  0  0  0  0  0  0  0
  -16.9184  -24.7621   24.1881 O   0  0  0  0  0  0  0  0  0  0  0  0
  -25.7365  -11.9290   20.1312 O   0  0  0  0  0  0  0  0  0  0  0  0
  -31.6273  -22.2823   17.1706 O   0  0  0  0  0  0  0  0  0  0  0  0
  -22.6428  -21.2854   22.9652 O   0  0  0  0  0  0  0  0  0  1  0  0
  -21.4969  -18.7863   22.5391 O   0  0  0  0  0  0  0  0  0  0  0  0
  -30.5672  -27.3512   19.0646 F   0  0  0  0  0  0  0  0  0  0  0  0
  -29.7948  -23.9166   15.9003 F   0  0  0  0  0  0  0  0  0  0  0  0
  1  2  1  0  0  0  0
  1  5  2  0  0  0  0
  2  6  2  0  0  0  0
  3  8  2  0  0  0  0
  3 17  1  0  0  0  0
  4  9  1  0  0  0  0
  4 17  2  0  0  0  0
  5 19  1  0  0  0  0
  6 21  1  0  0  0  0
  7 10  2  0  0  0  0
  7 20  1  0  0  0  0
  8 26  1  0  0  0  0
  9 26  2  0  0  0  0
 10 27  1  0  0  0  0
 11 12  2  0  0  0  0
 11 28  1  0  0  0  0
 12 30  1  0  0  0  0
 13 22  1  0  0  0  0
 13 27  2  0  0  0  0
 14 23  2  0  0  0  0
 14 29  1  0  0  0  0
 15 24  1  0  0  0  0
 15 29  2  0  0  0  0
 16 30  2  0  0  0  0
 16 31  1  0  0  0  0
 17 32  1  0  0  0  0
 18 32  1  0  0  0  0
 18 33  2  0  0  0  0
 18 34  1  0  0  0  0
 19 21  2  0  0  0  0
 19 39  1  0  0  0  0
 20 22  2  0  0  0  0
 20 40  1  0  0  0  0
 21 48  1  0  0  0  0
 22 41  1  0  0  0  0
 23 25  1  0  0  0  0
 23 51  1  0  0  0  0
 24 25  2  0  0  0  0
 24 52  1  0  0  0  0
 25 58  1  0  0  0  0
 26 79  1  0  0  0  0
 27 80  1  0  0  0  0
 28 31  2  0  0  0  0
 28 79  1  0  0  0  0
 29 81  1  0  0  0  0
 30 82  1  0  0  0  0
 31 83  1  0  0  0  0
 32 64  2  0  0  0  0
 33 65  1  0  0  0  0
 33 68  1  0  0  0  0
 34 69  1  0  0  0  0
 34 74  2  0  0  0  0
 35 49  1  0  0  0  0
 35 70  1  0  0  0  0
 35 75  2  0  0  0  0
 36 61  1  0  0  0  0
 36 66  1  0  0  0  0
 36 76  2  0  0  0  0
 37 62  1  0  0  0  0
 37 71  1  0  0  0  0
 37 77  2  0  0  0  0
 38 67  1  0  0  0  0
 38 72  1  0  0  0  0
 38 78  2  0  0  0  0
 39 42  1  0  0  0  0
 40 49  1  0  0  0  0
 41 66  1  0  0  0  0
 42 44  1  0  0  0  0
 43 45  1  0  0  0  0
 43 46  1  0  0  0  0
 44 48  1  0  0  0  0
 45 50  1  0  0  0  0
 46 67  1  0  0  0  0
 47 50  1  0  0  0  0
 47 67  1  0  0  0  0
 48 70  1  0  0  0  0
 49 66  1  0  0  0  0
 50 65  1  0  0  0  0
 53 62  1  0  0  0  0
 54 63  1  0  0  0  0
 55 63  1  0  0  0  0
 56 63  1  0  0  0  0
 57 73  1  0  0  0  0
 58 72  1  0  0  0  0
 59 60  1  0  0  0  0
 59 80  1  0  0  0  0
 60 81  1  0  0  0  0
 61 63  1  0  0  0  0
 61 71  1  0  0  0  0
 62 73  1  0  0  0  0
 64 65  1  0  0  0  0
M  CHG  1  73   1
M  ISO  4  38 100  59 101  72 100  80 101
M  END
> <Batch ID>
0133

> <Smiles>
CNC(C)C(=O)NC(C(=O)N1Cc2cc([101O:1][101CH2:1]COc3cc(C)c(C[100NH:0][100C:0](=O)N4CCCC(n5nc(-c6ccc(Oc7ccc(F)cc7F)cc6)c(C(N)=O)c5N)C4)c(C)c3)ccc2CC1C(=O)NC1CCCc2ccccc21)C(C)(C)C

> <Shape>
0.238

> <Color>
0.069

> <Negative vol penalty>
0.000

$$$$

  -OEChem-04052320553D

 79 87  0     1  0  0  0  0  0999 V2000
  -23.3441   -6.3416   24.2992 C   0  0  0  0  0  0  0  0  0  0  0  0
  -24.5661   -7.0065   24.3070 C   0  0  0  0  0  0  0  0  0  0  0  0
  -26.1003  -30.7071   20.8867 C   0  0  0  0  0  0  0  0  0  0  0  0
  -23.9565  -29.6755   20.4660 C   0  0  0  0  0  0  0  0  0  0  0  0
  -22.4219   -6.5924   23.2841 C   0  0  0  0  0  0  0  0  0  0  0  0
  -24.8671   -7.9217   23.2989 C   0  0  0  0  0  0  0  0  0  0  0  0
  -28.4368  -14.0326   22.1904 C   0  0  0  0  0  0  0  0  0  0  0  0
  -25.5635  -31.3733   21.9884 C   0  0  0  0  0  0  0  0  0  0  0  0
  -23.4197  -30.3416   21.5677 C   0  0  0  0  0  0  0  0  0  0  0  0
  -29.3998  -14.5790   21.3430 C   0  0  0  0  0  0  0  0  0  0  0  0
  -23.6394  -34.0928   22.5597 C   0  0  0  0  0  0  0  0  0  0  0  0
  -23.9427  -35.4460   22.7088 C   0  0  0  0  0  0  0  0  0  0  0  0
  -27.6975  -14.9908   19.6840 C   0  0  0  0  0  0  0  0  0  0  0  0
  -24.9681  -34.9807   24.8464 C   0  0  0  0  0  0  0  0  0  0  0  0
  -25.2967  -29.8583   20.1254 C   0  0  0  0  0  0  0  0  0  0  0  0
  -26.4278  -29.7503   17.8414 C   0  0  0  0  0  0  0  0  0  0  0  0
  -22.7077   -7.5183   22.2684 C   0  0  0  0  0  0  0  0  0  0  0  0
  -27.0966  -13.9512   21.7859 C   0  0  0  0  0  0  0  0  0  0  0  0
  -23.9484   -8.1840   22.2685 C   0  0  0  0  0  0  0  0  0  0  0  0
  -26.7191  -14.4453   20.5292 C   0  0  0  0  0  0  0  0  0  0  0  0
  -24.2233  -31.1905   22.3289 C   0  0  0  0  0  0  0  0  0  0  0  0
  -29.0307  -15.0555   20.0885 C   0  0  0  0  0  0  0  0  0  0  0  0
  -24.0004  -33.1834   23.5540 C   0  0  0  0  0  0  0  0  0  0  0  0
  -24.6070  -35.8900   23.8521 C   0  0  0  0  0  0  0  0  0  0  0  0
  -24.6647  -33.6274   24.6973 C   0  0  0  0  0  0  0  0  0  0  0  0
  -25.8505  -29.1704   18.9869 C   0  0  0  0  0  0  0  0  0  0  0  0
  -26.7967  -28.6802   17.0635 C   0  0  0  0  0  0  0  0  0  0  0  0
  -26.6141  -31.1328   17.5102 C   0  0  0  0  0  0  0  0  0  0  0  0
  -25.0427  -11.5758   21.2932 C   0  0  0  0  0  0  0  0  0  0  0  0
  -22.9352  -14.0053   20.8708 C   0  0  0  0  0  0  0  0  0  0  0  0
  -22.9226  -17.2285   19.2497 C   0  0  0  0  0  0  0  0  0  0  0  0
  -28.1883  -23.1105   18.4410 C   0  0  0  0  0  0  0  0  0  0  0  0
  -21.6987   -7.7210   21.1659 C   0  0  0  0  0  0  0  0  0  0  0  0
  -26.0655  -13.3835   22.7223 C   0  0  0  0  0  0  0  0  0  0  0  0
  -25.2901  -14.3996   20.0557 C   0  0  0  0  0  0  0  0  0  0  0  0
  -21.9420   -8.9830   20.3421 C   0  0  0  0  0  0  0  0  0  0  0  0
  -25.6013  -24.1408   16.1295 C   0  0  0  0  0  0  0  0  0  0  0  0
  -23.4144   -9.0954   19.9598 C   0  0  0  0  0  0  0  0  0  0  0  0
  -25.4315  -25.6151   16.5005 C   0  0  0  0  0  0  0  0  0  0  0  0
  -29.2525  -20.2273   19.5815 C   0  0  0  0  0  0  0  0  0  0  0  0
  -29.5976  -19.9654   17.0972 C   0  0  0  0  0  0  0  0  0  0  0  0
  -25.8631  -23.2862   17.3661 C   0  0  0  0  0  0  0  0  0  0  0  0
  -26.8605  -25.2000   18.5561 C   0  0  0  0  0  0  0  0  0  0  0  0
  -30.4258  -19.2903   19.8368 C   0  0  0  0  0  0  0  0  0  0  0  0
  -30.7683  -19.0287   17.3651 C   0  0  0  0  0  0  0  0  0  0  0  0
  -24.3014   -9.2023   21.2061 C   0  0  1  0  0  0  0  0  0  0  0  0
  -24.8175  -12.8808   22.0031 C   0  0  1  0  0  0  0  0  0  0  0  0
  -26.6155  -26.1201   17.3463 C   0  0  2  0  0  0  0  0  0  0  0  0
  -29.3957  -20.9553   18.2445 C   0  0  0  0  0  0  0  0  0  0  0  0
  -21.5812  -19.2932   19.7343 C   0  0  0  0  0  0  0  0  0  0  0  0
  -21.0233  -12.9074   18.7614 C   0  0  0  0  0  0  0  0  0  0  0  0
  -20.6754  -15.2526   17.9567 C   0  0  0  0  0  0  0  0  0  0  0  0
  -20.0252  -14.6242   20.2816 C   0  0  0  0  0  0  0  0  0  0  0  0
  -25.3579  -18.8899   19.5108 C   0  0  0  0  0  0  0  0  0  0  0  0
  -31.6287  -17.2991   18.9408 C   0  0  0  0  0  0  0  0  0  0  0  0
  -31.0861  -16.2319   19.8707 C   0  0  0  0  0  0  0  0  0  1  0  0
  -22.4753  -14.8288   19.6922 C   0  0  1  0  0  0  0  0  0  0  0  0
  -22.9139  -18.5867   19.9277 C   0  0  2  0  0  0  0  0  0  0  0  0
  -21.0759  -14.3920   19.1740 C   0  0  0  0  0  0  0  0  0  0  0  0
  -25.8502  -27.8354   18.9445 N   0  0  0  0  0  0  0  0  0  0  0  0
  -26.4318  -27.5676   17.7629 N   0  0  0  0  0  0  0  0  0  0  0  0
  -24.3197  -13.8295   21.0049 N   0  0  0  0  0  0  0  0  0  0  0  0
  -27.0136  -23.8091   18.1165 N   0  0  0  0  0  0  0  0  0  0  0  0
  -27.3944  -28.5917   15.8563 N   0  0  0  0  0  0  0  0  0  0  0  0
  -25.5972  -31.7946   16.8084 N   0  0  0  0  0  0  0  0  0  0  0  0
  -24.2482  -10.5420   21.7509 N   0  0  0  0  0  0  0  0  0  0  0  0
  -22.5473  -16.2231   20.1154 N   0  0  0  0  0  0  0  0  0  0  0  0
  -28.2511  -21.7965   17.9937 N   0  0  0  0  0  0  0  0  0  0  0  0
  -30.5588  -18.3245   18.6840 N   0  3  0  0  0  0  0  0  0  0  0  0
  -23.9903  -19.4521   19.3677 N   0  3  0  0  0  0  0  0  0  0  0  0
  -27.6585  -31.7583   17.8127 O   0  0  0  0  0  0  0  0  0  0  0  0
  -25.8746  -11.5119   20.3957 O   0  0  0  0  0  0  0  0  0  0  0  0
  -22.0973  -13.5412   21.6481 O   0  0  0  0  0  0  0  0  0  0  0  0
  -23.2280  -17.0753   18.0691 O   0  0  0  0  0  0  0  0  0  0  0  0
  -29.1156  -23.6217   19.0781 O   0  0  0  0  0  0  0  0  0  0  0  0
  -23.6993  -31.8401   23.4041 O   0  0  0  0  0  0  0  0  0  0  0  0
  -29.9687  -15.5887   19.2591 O   0  0  0  0  0  0  0  0  0  1  0  0
  -24.8996  -37.1894   23.9945 F   0  0  0  0  0  0  0  0  0  0  0  0
  -25.0151  -32.7583   25.6553 F   0  0  0  0  0  0  0  0  0  0  0  0
  1  2  1  0  0  0  0
  1  5  2  0  0  0  0
  2  6  2  0  0  0  0
  3  8  2  0  0  0  0
  3 15  1  0  0  0  0
  4  9  1  0  0  0  0
  4 15  2  0  0  0  0
  5 17  1  0  0  0  0
  6 19  1  0  0  0  0
  7 10  2  0  0  0  0
  7 18  1  0  0  0  0
  8 21  1  0  0  0  0
  9 21  2  0  0  0  0
 10 22  1  0  0  0  0
 11 12  2  0  0  0  0
 11 23  1  0  0  0  0
 12 24  1  0  0  0  0
 13 20  1  0  0  0  0
 13 22  2  0  0  0  0
 14 24  2  0  0  0  0
 14 25  1  0  0  0  0
 15 26  1  0  0  0  0
 16 26  1  0  0  0  0
 16 27  2  0  0  0  0
 16 28  1  0  0  0  0
 17 19  2  0  0  0  0
 17 33  1  0  0  0  0
 18 20  2  0  0  0  0
 18 34  1  0  0  0  0
 19 46  1  0  0  0  0
 20 35  1  0  0  0  0
 21 76  1  0  0  0  0
 22 77  1  0  0  0  0
 23 25  2  0  0  0  0
 23 76  1  0  0  0  0
 24 78  1  0  0  0  0
 25 79  1  0  0  0  0
 26 60  2  0  0  0  0
 27 61  1  0  0  0  0
 27 64  1  0  0  0  0
 28 65  1  0  0  0  0
 28 71  2  0  0  0  0
 29 47  1  0  0  0  0
 29 66  1  0  0  0  0
 29 72  2  0  0  0  0
 30 57  1  0  0  0  0
 30 62  1  0  0  0  0
 30 73  2  0  0  0  0
 31 58  1  0  0  0  0
 31 67  1  0  0  0  0
 31 74  2  0  0  0  0
 32 63  1  0  0  0  0
 32 68  1  0  0  0  0
 32 75  2  0  0  0  0
 33 36  1  0  0  0  0
 34 47  1  0  0  0  0
 35 62  1  0  0  0  0
 36 38  1  0  0  0  0
 37 39  1  0  0  0  0
 37 42  1  0  0  0  0
 38 46  1  0  0  0  0
 39 48  1  0  0  0  0
 40 44  1  0  0  0  0
 40 49  1  0  0  0  0
 41 45  1  0  0  0  0
 41 49  1  0  0  0  0
 42 63  1  0  0  0  0
 43 48  1  0  0  0  0
 43 63  1  0  0  0  0
 44 69  1  0  0  0  0
 45 69  1  0  0  0  0
 46 66  1  0  0  0  0
 47 62  1  0  0  0  0
 48 61  1  0  0  0  0
 49 68  1  0  0  0  0
 50 58  1  0  0  0  0
 51 59  1  0  0  0  0
 52 59  1  0  0  0  0
 53 59  1  0  0  0  0
 54 70  1  0  0  0  0
 55 56  1  0  0  0  0
 55 69  1  0  0  0  0
 56 77  1  0  0  0  0
 57 59  1  0  0  0  0
 57 67  1  0  0  0  0
 58 70  1  0  0  0  0
 60 61  1  0  0  0  0
M  CHG  2  69   1  70   1
M  ISO  4  32 100  56 101  68 100  77 101
M  END
> <Batch ID>
0133

> <Smiles>
CNC(C)C(=O)NC(C(=O)N1Cc2cc([101O:1][101CH2:1]CN3CCC([100NH:0][100C:0](=O)N4CCCC(n5nc(-c6ccc(Oc7ccc(F)cc7F)cc6)c(C(N)=O)c5N)C4)CC3)ccc2CC1C(=O)NC1CCCc2ccccc21)C(C)(C)C

> <Shape>
0.238

> <Color>
0.076

> <Negative vol penalty>
0.000

$$$$

  -OEChem-04052320553D

 86 95  0     1  0  0  0  0  0999 V2000
  -24.5760  -25.2869   29.0496 C   0  0  0  0  0  0  0  0  0  0  0  0
  -24.5787  -24.9250   27.7063 C   0  0  0  0  0  0  0  0  0  0  0  0
  -23.4686  -11.1405   23.0401 C   0  0  0  0  0  0  0  0  0  0  0  0
  -24.4866   -9.3087   21.8379 C   0  0  0  0  0  0  0  0  0  0  0  0
  -24.1436  -26.5574   29.4272 C   0  0  0  0  0  0  0  0  0  0  0  0
  -24.1479  -25.8332   26.7398 C   0  0  0  0  0  0  0  0  0  0  0  0
  -27.2839  -26.0180   22.6627 C   0  0  0  0  0  0  0  0  0  0  0  0
  -22.9262  -10.2384   23.9553 C   0  0  0  0  0  0  0  0  0  0  0  0
  -23.9442   -8.4066   22.7531 C   0  0  0  0  0  0  0  0  0  0  0  0
  -27.1978  -25.0000   21.7140 C   0  0  0  0  0  0  0  0  0  0  0  0
  -20.9506   -6.9484   23.3386 C   0  0  0  0  0  0  0  0  0  0  0  0
  -20.3495   -5.7955   22.8337 C   0  0  0  0  0  0  0  0  0  0  0  0
  -25.8154  -26.4131   20.3319 C   0  0  0  0  0  0  0  0  0  0  0  0
  -21.9268   -4.4364   24.0592 C   0  0  0  0  0  0  0  0  0  0  0  0
  -24.2488  -10.6756   21.9813 C   0  0  0  0  0  0  0  0  0  0  0  0
  -24.1068  -12.5009   20.2049 C   0  0  0  0  0  0  0  0  0  0  0  0
  -23.7165  -27.4851   28.4640 C   0  0  0  0  0  0  0  0  0  0  0  0
  -26.6268  -27.2399   22.4580 C   0  0  0  0  0  0  0  0  0  0  0  0
  -23.7081  -27.1169   27.1050 C   0  0  0  0  0  0  0  0  0  0  0  0
  -25.8987  -27.4466   21.2773 C   0  0  0  0  0  0  0  0  0  0  0  0
  -23.1640   -8.8715   23.8119 C   0  0  0  0  0  0  0  0  0  0  0  0
  -26.4616  -25.1967   20.5495 C   0  0  0  0  0  0  0  0  0  0  0  0
  -22.0399   -6.8454   24.2038 C   0  0  0  0  0  0  0  0  0  0  0  0
  -20.8376   -4.5395   23.1939 C   0  0  0  0  0  0  0  0  0  0  0  0
  -22.5280   -5.5894   24.5641 C   0  0  0  0  0  0  0  0  0  0  0  0
  -24.8089  -11.6069   21.0353 C   0  0  0  0  0  0  0  0  0  0  0  0
  -25.0866  -13.1576   19.5013 C   0  0  0  0  0  0  0  0  0  0  0  0
  -22.6950  -12.7184   20.0808 C   0  0  0  0  0  0  0  0  0  0  0  0
  -24.3531  -28.9283   23.9497 C   0  0  0  0  0  0  0  0  0  0  0  0
  -25.1681  -31.1264   21.5923 C   0  0  0  0  0  0  0  0  0  0  0  0
  -23.4210  -33.5166   23.2876 C   0  0  0  0  0  0  0  0  0  0  0  0
  -30.8590  -14.2805   20.6285 C   0  0  0  0  0  0  0  0  0  0  0  0
  -23.2133  -28.8302   28.9246 C   0  0  0  0  0  0  0  0  0  0  0  0
  -26.7574  -28.3365   23.4802 C   0  0  0  0  0  0  0  0  0  0  0  0
  -25.1789  -28.7406   21.0090 C   0  0  0  0  0  0  0  0  0  0  0  0
  -23.1264  -29.8640   27.8048 C   0  0  0  0  0  0  0  0  0  0  0  0
  -29.4677  -17.3523   17.6086 C   0  0  0  0  0  0  0  0  0  0  0  0
  -30.4222  -18.4506   17.1793 C   0  0  0  0  0  0  0  0  0  0  0  0
  -29.5229  -12.5599   17.8122 C   0  0  0  0  0  0  0  0  0  0  0  0
  -22.4583  -29.2618   26.5728 C   0  0  0  0  0  0  0  0  0  0  0  0
  -27.0265  -20.5083   19.4457 C   0  0  0  0  0  0  0  0  0  0  0  0
  -29.2301  -21.7464   19.5287 C   0  0  0  0  0  0  0  0  0  0  0  0
  -28.1000  -12.2013   18.2440 C   0  0  0  0  0  0  0  0  0  0  0  0
  -26.2918  -21.8347   19.2771 C   0  0  0  0  0  0  0  0  0  0  0  0
  -28.4892  -23.0696   19.3606 C   0  0  0  0  0  0  0  0  0  0  0  0
  -28.4315  -18.0909   18.4465 C   0  0  0  0  0  0  0  0  0  0  0  0
  -30.5839  -19.2764   18.4474 C   0  0  0  0  0  0  0  0  0  0  0  0
  -30.5062  -12.4681   18.9770 C   0  0  0  0  0  0  0  0  0  0  0  0
  -28.7023  -12.8859   20.6034 C   0  0  0  0  0  0  0  0  0  0  0  0
  -23.2716  -28.0829   26.0250 C   0  0  1  0  0  0  0  0  0  0  0  0
  -25.6625  -29.3967   23.3810 C   0  0  1  0  0  0  0  0  0  0  0  0
  -28.4576  -20.5810   18.8952 C   0  0  0  0  0  0  0  0  0  0  0  0
  -27.6649  -13.0183   19.4754 C   0  0  2  0  0  0  0  0  0  0  0  0
  -27.0646  -22.9915   19.9052 C   0  0  0  0  0  0  0  0  0  1  0  0
  -29.1945  -19.2541   19.1246 C   0  0  0  0  0  0  0  0  0  0  0  0
  -22.9772  -35.9863   23.3122 C   0  0  0  0  0  0  0  0  0  0  0  0
  -27.9201  -31.6053   22.8182 C   0  0  0  0  0  0  0  0  0  0  0  0
  -27.0793  -33.8036   23.6719 C   0  0  0  0  0  0  0  0  0  0  0  0
  -27.1693  -33.3731   21.2164 C   0  0  0  0  0  0  0  0  0  0  0  0
  -20.5230  -33.1177   22.8388 C   0  0  0  0  0  0  0  0  0  0  0  0
  -29.3357  -19.0135   20.6326 C   0  0  0  0  0  0  0  0  0  0  0  0
  -31.0595  -16.0711   22.3351 C   0  0  0  0  0  0  0  0  0  0  0  0
  -30.3120  -17.3894   22.2598 C   0  0  0  0  0  0  0  0  0  0  0  0
  -25.4172  -32.2056   22.6161 C   0  0  1  0  0  0  0  0  0  0  0  0
  -22.5099  -34.6309   22.8051 C   0  0  2  0  0  0  0  0  0  0  0  0
  -26.8832  -32.7226   22.5875 C   0  0  0  0  0  0  0  0  0  0  0  0
  -26.1326  -11.6857   20.8750 N   0  0  0  0  0  0  0  0  0  0  0  0
  -26.2700  -12.6371   19.9358 N   0  0  0  0  0  0  0  0  0  0  0  0
  -25.4063  -29.8058   21.9942 N   0  0  0  0  0  0  0  0  0  0  0  0
  -30.0359  -13.2662   20.1118 N   0  0  0  0  0  0  0  0  0  0  0  0
  -25.0428  -14.1237   18.5594 N   0  0  0  0  0  0  0  0  0  0  0  0
  -21.9820  -11.9591   19.1430 N   0  0  0  0  0  0  0  0  0  0  0  0
  -24.4167  -28.5614   25.2805 N   0  0  0  0  0  0  0  0  0  0  0  0
  -24.4148  -33.2375   22.3735 N   0  0  0  0  0  0  0  0  0  0  0  0
  -30.3346  -14.9933   21.6998 N   0  0  0  0  0  0  0  0  0  0  0  0
  -21.1168  -34.4047   23.2837 N   0  3  0  0  0  0  0  0  0  0  0  0
  -30.0456  -17.7379   20.8331 N   0  3  0  0  0  0  0  0  0  0  0  0
  -22.0868  -13.5726   20.7691 O   0  0  0  0  0  0  0  0  0  0  0  0
  -23.3583  -28.9030   23.2346 O   0  0  0  0  0  0  0  0  0  0  0  0
  -24.7804  -31.4433   20.4643 O   0  0  0  0  0  0  0  0  0  0  0  0
  -23.2686  -32.9528   24.3691 O   0  0  0  0  0  0  0  0  0  0  0  0
  -31.9760  -14.5356   20.1657 O   0  0  0  0  0  0  0  0  0  0  0  0
  -22.6351   -7.9910   24.7049 O   0  0  0  0  0  0  0  0  0  0  0  0
  -26.3764  -24.2048   19.6216 O   0  0  0  0  0  0  0  0  0  1  0  0
  -20.2592   -3.4324   22.7102 F   0  0  0  0  0  0  0  0  0  0  0  0
  -23.5734   -5.4840   25.3958 F   0  0  0  0  0  0  0  0  0  0  0  0
  1  2  1  0  0  0  0
  1  5  2  0  0  0  0
  2  6  2  0  0  0  0
  3  8  2  0  0  0  0
  3 15  1  0  0  0  0
  4  9  1  0  0  0  0
  4 15  2  0  0  0  0
  5 17  1  0  0  0  0
  6 19  1  0  0  0  0
  7 10  2  0  0  0  0
  7 18  1  0  0  0  0
  8 21  1  0  0  0  0
  9 21  2  0  0  0  0
 10 22  1  0  0  0  0
 11 12  2  0  0  0  0
 11 23  1  0  0  0  0
 12 24  1  0  0  0  0
 13 20  1  0  0  0  0
 13 22  2  0  0  0  0
 14 24  2  0  0  0  0
 14 25  1  0  0  0  0
 15 26  1  0  0  0  0
 16 26  1  0  0  0  0
 16 27  2  0  0  0  0
 16 28  1  0  0  0  0
 17 19  2  0  0  0  0
 17 33  1  0  0  0  0
 18 20  2  0  0  0  0
 18 34  1  0  0  0  0
 19 50  1  0  0  0  0
 20 35  1  0  0  0  0
 21 83  1  0  0  0  0
 22 84  1  0  0  0  0
 23 25  2  0  0  0  0
 23 83  1  0  0  0  0
 24 85  1  0  0  0  0
 25 86  1  0  0  0  0
 26 67  2  0  0  0  0
 27 68  1  0  0  0  0
 27 71  1  0  0  0  0
 28 72  1  0  0  0  0
 28 78  2  0  0  0  0
 29 51  1  0  0  0  0
 29 73  1  0  0  0  0
 29 79  2  0  0  0  0
 30 64  1  0  0  0  0
 30 69  1  0  0  0  0
 30 80  2  0  0  0  0
 31 65  1  0  0  0  0
 31 74  1  0  0  0  0
 31 81  2  0  0  0  0
 32 70  1  0  0  0  0
 32 75  1  0  0  0  0
 32 82  2  0  0  0  0
 33 36  1  0  0  0  0
 34 51  1  0  0  0  0
 35 69  1  0  0  0  0
 36 40  1  0  0  0  0
 37 38  1  0  0  0  0
 37 46  1  0  0  0  0
 38 47  1  0  0  0  0
 39 43  1  0  0  0  0
 39 48  1  0  0  0  0
 40 50  1  0  0  0  0
 41 44  1  0  0  0  0
 41 52  1  0  0  0  0
 42 45  1  0  0  0  0
 42 52  1  0  0  0  0
 43 53  1  0  0  0  0
 44 54  1  0  0  0  0
 45 54  1  0  0  0  0
 46 55  1  0  0  0  0
 47 55  1  0  0  0  0
 48 70  1  0  0  0  0
 49 53  1  0  0  0  0
 49 70  1  0  0  0  0
 50 73  1  0  0  0  0
 51 69  1  0  0  0  0
 52 55  1  0  0  0  0
 53 68  1  0  0  0  0
 54 84  1  0  0  0  0
 55 61  1  0  0  0  0
 56 65  1  0  0  0  0
 57 66  1  0  0  0  0
 58 66  1  0  0  0  0
 59 66  1  0  0  0  0
 60 76  1  0  0  0  0
 61 77  1  0  0  0  0
 62 63  1  0  0  0  0
 62 75  1  0  0  0  0
 63 77  1  0  0  0  0
 64 66  1  0  0  0  0
 64 74  1  0  0  0  0
 65 76  1  0  0  0  0
 67 68  1  0  0  0  0
M  CHG  2  76   1  77   1
M  ISO  4  32 100  54 101  75 100  84 101
M  END
> <Batch ID>
0133

> <Smiles>
CNC(C)C(=O)NC(C(=O)N1Cc2cc([101O:1][101CH:1]3CCC(C4(CNCC[100NH:0][100C:0](=O)N5CCCC(n6nc(-c7ccc(Oc8ccc(F)cc8F)cc7)c(C(N)=O)c6N)C5)CCCC4)CC3)ccc2CC1C(=O)NC1CCCc2ccccc21)C(C)(C)C

> <Shape>
0.283

> <Color>
0.116

> <Negative vol penalty>
0.000

$$$$

  -OEChem-04052320553D

 83 91  0     1  0  0  0  0  0999 V2000
  -31.2358  -24.5539   17.6272 C   0  0  0  0  0  0  0  0  0  0  0  0
  -30.6995  -24.3018   18.8859 C   0  0  0  0  0  0  0  0  0  0  0  0
  -27.2795  -16.0899   19.0397 C   0  0  0  0  0  0  0  0  0  0  0  0
  -27.3986  -16.2894   21.4445 C   0  0  0  0  0  0  0  0  0  0  0  0
  -31.0167  -25.7854   17.0112 C   0  0  0  0  0  0  0  0  0  0  0  0
  -29.9446  -25.2816   19.5298 C   0  0  0  0  0  0  0  0  0  0  0  0
  -25.7192  -23.4225   21.6119 C   0  0  0  0  0  0  0  0  0  0  0  0
  -28.4879  -16.7766   18.9228 C   0  0  0  0  0  0  0  0  0  0  0  0
  -28.6071  -16.9761   21.3276 C   0  0  0  0  0  0  0  0  0  0  0  0
  -25.8518  -22.7405   22.8207 C   0  0  0  0  0  0  0  0  0  0  0  0
  -31.5420  -19.0962   21.6470 C   0  0  0  0  0  0  0  0  0  0  0  0
  -31.7135  -20.2430   22.4221 C   0  0  0  0  0  0  0  0  0  0  0  0
  -25.1267  -24.7124   24.0059 C   0  0  0  0  0  0  0  0  0  0  0  0
  -23.3032  -21.9247   25.0800 C   0  0  0  0  0  0  0  0  0  0  0  0
  -29.8022  -21.2561   21.3461 C   0  0  0  0  0  0  0  0  0  0  0  0
  -24.5547  -21.3168   26.8506 C   0  0  0  0  0  0  0  0  0  0  0  0
  -26.7348  -15.8463   20.3005 C   0  0  0  0  0  0  0  0  0  0  0  0
  -25.3068  -13.7468   20.5463 C   0  0  0  0  0  0  0  0  0  0  0  0
  -30.2507  -26.7772   17.6438 C   0  0  0  0  0  0  0  0  0  0  0  0
  -25.2991  -24.7603   21.5919 C   0  0  0  0  0  0  0  0  0  0  0  0
  -29.7162  -26.5280   18.9223 C   0  0  0  0  0  0  0  0  0  0  0  0
  -24.9871  -25.4084   22.7955 C   0  0  0  0  0  0  0  0  0  0  0  0
  -29.1518  -17.2197   20.0668 C   0  0  0  0  0  0  0  0  0  0  0  0
  -25.5584  -23.3863   24.0181 C   0  0  0  0  0  0  0  0  0  0  0  0
  -30.5006  -19.0293   20.7213 C   0  0  0  0  0  0  0  0  0  0  0  0
  -24.5843  -22.0344   25.6752 C   0  0  0  0  0  0  0  0  0  1  0  0
  -30.8437  -21.3230   22.2717 C   0  0  0  0  0  0  0  0  0  0  0  0
  -29.6307  -20.1092   20.5709 C   0  0  0  0  0  0  0  0  0  0  0  0
  -25.4862  -15.1375   20.4219 C   0  0  0  0  0  0  0  0  0  0  0  0
  -22.5299  -21.1430   25.9095 C   0  0  0  0  0  0  0  0  0  0  0  0
  -23.9457  -13.5821   20.6283 C   0  0  0  0  0  0  0  0  0  0  0  0
  -26.2833  -12.6976   20.5845 C   0  0  0  0  0  0  0  0  0  0  0  0
  -26.5894  -27.5024   20.6331 C   0  0  0  0  0  0  0  0  0  0  0  0
  -23.6502  -28.6811   21.3359 C   0  0  0  0  0  0  0  0  0  0  0  0
  -20.7480  -28.3635   23.1031 C   0  0  0  0  0  0  0  0  0  0  0  0
  -19.5032  -17.1800   22.4088 C   0  0  0  0  0  0  0  0  0  0  0  0
  -30.0807  -28.1101   16.9589 C   0  0  0  0  0  0  0  0  0  0  0  0
  -25.1355  -25.4737   20.2778 C   0  0  0  0  0  0  0  0  0  0  0  0
  -24.5129  -26.8376   22.8267 C   0  0  0  0  0  0  0  0  0  0  0  0
  -28.9557  -28.9579   17.5469 C   0  0  0  0  0  0  0  0  0  0  0  0
  -19.8389  -15.6026   19.2346 C   0  0  0  0  0  0  0  0  0  0  0  0
  -29.0362  -28.9696   19.0702 C   0  0  0  0  0  0  0  0  0  0  0  0
  -21.3081  -15.1791   19.1901 C   0  0  0  0  0  0  0  0  0  0  0  0
  -19.6586  -16.9407   19.9481 C   0  0  0  0  0  0  0  0  0  0  0  0
  -21.7182  -16.5836   21.2536 C   0  0  0  0  0  0  0  0  0  0  0  0
  -28.8711  -27.5564   19.6422 C   0  0  1  0  0  0  0  0  0  0  0  0
  -25.1937  -26.9923   20.4112 C   0  0  1  0  0  0  0  0  0  0  0  0
  -21.9441  -15.2129   20.5929 C   0  0  2  0  0  0  0  0  0  0  0  0
  -18.5467  -29.5023   23.4968 C   0  0  0  0  0  0  0  0  0  0  0  0
  -22.9094  -20.7199   29.4183 C   0  0  0  0  0  0  0  0  0  0  0  0
  -23.6652  -18.6496   28.1738 C   0  0  0  0  0  0  0  0  0  0  0  0
  -25.0388  -30.7519   23.0948 C   0  0  0  0  0  0  0  0  0  0  0  0
  -22.8271  -31.2182   24.1715 C   0  0  0  0  0  0  0  0  0  0  0  0
  -23.1401  -31.6442   21.7336 C   0  0  0  0  0  0  0  0  0  0  0  0
  -19.2299  -26.0355   22.0860 C   0  0  0  0  0  0  0  0  0  0  0  0
  -21.1233  -20.7144   25.7674 C   0  0  0  0  0  0  0  0  0  0  0  0
  -19.5031  -17.3706   24.8832 C   0  0  0  0  0  0  0  0  0  0  0  0
  -19.5528  -18.8348   25.2780 C   0  0  0  0  0  0  0  0  0  0  0  0
  -22.9976  -29.2616   22.5672 C   0  0  1  0  0  0  0  0  0  0  0  0
  -19.2940  -28.4612   22.6780 C   0  0  2  0  0  0  0  0  0  0  0  0
  -22.8740  -19.9565   28.0929 C   0  0  0  0  0  0  0  0  0  0  0  0
  -23.5117  -30.6927   22.8916 C   0  0  0  0  0  0  0  0  0  0  0  0
  -24.3314  -15.8086   20.4240 N   0  0  0  0  0  0  0  0  0  0  0  0
  -23.3008  -20.7796   26.9828 N   0  0  0  0  0  0  0  0  0  0  0  0
  -23.4133  -14.8354   20.5506 N   0  0  0  0  0  0  0  0  0  0  0  0
  -24.3748  -27.4944   21.5164 N   0  0  0  0  0  0  0  0  0  0  0  0
  -20.2827  -16.9058   21.2730 N   0  0  0  0  0  0  0  0  0  0  0  0
  -23.1643  -12.4890   20.7584 N   0  0  0  0  0  0  0  0  0  0  0  0
  -27.6384  -13.0421   20.4880 N   0  0  0  0  0  0  0  0  0  0  0  0
  -27.4777  -27.1657   19.6295 N   0  0  0  0  0  0  0  0  0  0  0  0
  -21.5583  -29.1803   22.3431 N   0  0  0  0  0  0  0  0  0  0  0  0
  -20.1712  -17.1194   23.6257 N   0  0  0  0  0  0  0  0  0  0  0  0
  -18.6133  -27.1472   22.8545 N   0  3  0  0  0  0  0  0  0  0  0  0
  -20.9644  -19.2834   25.3661 N   0  3  0  0  0  0  0  0  0  0  0  0
  -25.9627  -11.4889   20.6842 O   0  0  0  0  0  0  0  0  0  0  0  0
  -26.8415  -28.1546   21.6395 O   0  0  0  0  0  0  0  0  0  0  0  0
  -23.5159  -29.2555   20.2525 O   0  0  0  0  0  0  0  0  0  0  0  0
  -21.1265  -27.6382   24.0203 O   0  0  0  0  0  0  0  0  0  0  0  0
  -18.2998  -17.4531   22.3437 O   0  0  0  0  0  0  0  0  0  0  0  0
  -30.3311  -17.8896   19.9531 O   0  0  0  0  0  0  0  0  0  0  0  0
  -25.6876  -22.7232   25.1994 O   0  0  0  0  0  0  0  0  0  1  0  0
  -31.0076  -22.4237   23.0172 F   0  0  0  0  0  0  0  0  0  0  0  0
  -28.6277  -20.0504   19.6842 F   0  0  0  0  0  0  0  0  0  0  0  0
  1  2  1  0  0  0  0
  1  5  2  0  0  0  0
  2  6  2  0  0  0  0
  3  8  2  0  0  0  0
  3 17  1  0  0  0  0
  4  9  1  0  0  0  0
  4 17  2  0  0  0  0
  5 19  1  0  0  0  0
  6 21  1  0  0  0  0
  7 10  2  0  0  0  0
  7 20  1  0  0  0  0
  8 23  1  0  0  0  0
  9 23  2  0  0  0  0
 10 24  1  0  0  0  0
 11 12  2  0  0  0  0
 11 25  1  0  0  0  0
 12 27  1  0  0  0  0
 13 22  1  0  0  0  0
 13 24  2  0  0  0  0
 14 26  1  0  0  0  0
 14 30  2  0  0  0  0
 15 27  2  0  0  0  0
 15 28  1  0  0  0  0
 16 26  2  0  0  0  0
 16 64  1  0  0  0  0
 17 29  1  0  0  0  0
 18 29  1  0  0  0  0
 18 31  2  0  0  0  0
 18 32  1  0  0  0  0
 19 21  2  0  0  0  0
 19 37  1  0  0  0  0
 20 22  2  0  0  0  0
 20 38  1  0  0  0  0
 21 46  1  0  0  0  0
 22 39  1  0  0  0  0
 23 80  1  0  0  0  0
 24 81  1  0  0  0  0
 25 28  2  0  0  0  0
 25 80  1  0  0  0  0
 26 81  1  0  0  0  0
 27 82  1  0  0  0  0
 28 83  1  0  0  0  0
 29 63  2  0  0  0  0
 30 56  1  0  0  0  0
 30 64  1  0  0  0  0
 31 65  1  0  0  0  0
 31 68  1  0  0  0  0
 32 69  1  0  0  0  0
 32 75  2  0  0  0  0
 33 47  1  0  0  0  0
 33 70  1  0  0  0  0
 33 76  2  0  0  0  0
 34 59  1  0  0  0  0
 34 66  1  0  0  0  0
 34 77  2  0  0  0  0
 35 60  1  0  0  0  0
 35 71  1  0  0  0  0
 35 78  2  0  0  0  0
 36 67  1  0  0  0  0
 36 72  1  0  0  0  0
 36 79  2  0  0  0  0
 37 40  1  0  0  0  0
 38 47  1  0  0  0  0
 39 66  1  0  0  0  0
 40 42  1  0  0  0  0
 41 43  1  0  0  0  0
 41 44  1  0  0  0  0
 42 46  1  0  0  0  0
 43 48  1  0  0  0  0
 44 67  1  0  0  0  0
 45 48  1  0  0  0  0
 45 67  1  0  0  0  0
 46 70  1  0  0  0  0
 47 66  1  0  0  0  0
 48 65  1  0  0  0  0
 49 60  1  0  0  0  0
 50 61  1  0  0  0  0
 51 61  1  0  0  0  0
 52 62  1  0  0  0  0
 53 62  1  0  0  0  0
 54 62  1  0  0  0  0
 55 73  1  0  0  0  0
 56 74  1  0  0  0  0
 57 58  1  0  0  0  0
 57 72  1  0  0  0  0
 58 74  1  0  0  0  0
 59 62  1  0  0  0  0
 59 71  1  0  0  0  0
 60 73  1  0  0  0  0
 61 64  1  0  0  0  0
 63 65  1  0  0  0  0
M  CHG  2  73   1  74   1
M  ISO  4  26 101  36 100  72 100  81 101
M  END
> <Batch ID>
0133

> <Smiles>
CNC(C)C(=O)NC(C(=O)N1Cc2cc([101O:1][101c:1]3cc(CNCC[100NH:0][100C:0](=O)N4CCCC(n5nc(-c6ccc(Oc7ccc(F)cc7F)cc6)c(C(N)=O)c5N)C4)n(C(C)C)c3)ccc2CC1C(=O)NC1CCCc2ccccc21)C(C)(C)C

> <Shape>
0.227

> <Color>
0.059

> <Negative vol penalty>
0.000

$$$$

  -OEChem-04052320553D

 84 92  0     1  0  0  0  0  0999 V2000
  -29.9443  -35.1638   15.3908 C   0  0  0  0  0  0  0  0  0  0  0  0
  -29.6538  -33.8068   15.4895 C   0  0  0  0  0  0  0  0  0  0  0  0
  -23.0111   -9.9278   19.8632 C   0  0  0  0  0  0  0  0  0  0  0  0
  -24.0487   -9.4460   21.9912 C   0  0  0  0  0  0  0  0  0  0  0  0
  -30.1188  -35.9240   16.5465 C   0  0  0  0  0  0  0  0  0  0  0  0
  -29.5387  -33.2091   16.7441 C   0  0  0  0  0  0  0  0  0  0  0  0
  -25.7443  -28.6693   18.3248 C   0  0  0  0  0  0  0  0  0  0  0  0
  -22.2954   -8.7332   19.9416 C   0  0  0  0  0  0  0  0  0  0  0  0
  -23.3329   -8.2513   22.0697 C   0  0  0  0  0  0  0  0  0  0  0  0
  -25.9290  -27.2930   18.4496 C   0  0  0  0  0  0  0  0  0  0  0  0
  -20.1983   -7.2757   22.8711 C   0  0  0  0  0  0  0  0  0  0  0  0
  -19.5916   -6.9641   24.0879 C   0  0  0  0  0  0  0  0  0  0  0  0
  -26.2995  -27.5636   20.8178 C   0  0  0  0  0  0  0  0  0  0  0  0
  -26.6029  -20.6043   21.0949 C   0  0  0  0  0  0  0  0  0  0  0  0
  -20.9003   -4.9377   24.2216 C   0  0  0  0  0  0  0  0  0  0  0  0
  -29.2695  -20.1798   20.7017 C   0  0  0  0  0  0  0  0  0  0  0  0
  -23.8878  -10.2842   20.8880 C   0  0  0  0  0  0  0  0  0  0  0  0
  -24.2306  -12.7804   21.2870 C   0  0  0  0  0  0  0  0  0  0  0  0
  -29.9962  -35.3373   17.8159 C   0  0  0  0  0  0  0  0  0  0  0  0
  -25.8468  -29.5057   19.4456 C   0  0  0  0  0  0  0  0  0  0  0  0
  -29.7130  -33.9619   17.9178 C   0  0  0  0  0  0  0  0  0  0  0  0
  -26.1132  -28.9498   20.7051 C   0  0  0  0  0  0  0  0  0  0  0  0
  -27.1938  -19.4556   21.6092 C   0  0  0  0  0  0  0  0  0  0  0  0
  -28.5521  -19.2318   21.4132 C   0  0  0  0  0  0  0  0  0  0  0  0
  -22.4563   -7.8949   21.0449 C   0  0  0  0  0  0  0  0  0  0  0  0
  -26.2095  -26.7403   19.6957 C   0  0  0  0  0  0  0  0  0  0  0  0
  -21.1559   -6.4181   22.3295 C   0  0  0  0  0  0  0  0  0  0  0  0
  -19.9426   -5.7952   24.7631 C   0  0  0  0  0  0  0  0  0  0  0  0
  -21.5069   -5.2492   23.0048 C   0  0  0  0  0  0  0  0  0  0  0  0
  -24.6278  -11.5179   20.8072 C   0  0  0  0  0  0  0  0  0  0  0  0
  -27.4076  -21.4910   20.3978 C   0  0  0  0  0  0  0  0  0  0  0  0
  -25.2750  -13.6133   20.9673 C   0  0  0  0  0  0  0  0  0  0  0  0
  -23.0255  -13.1658   21.9613 C   0  0  0  0  0  0  0  0  0  0  0  0
  -27.7465  -31.9131   20.2817 C   0  0  0  0  0  0  0  0  0  0  0  0
  -25.7222  -32.1205   22.8079 C   0  0  0  0  0  0  0  0  0  0  0  0
  -23.4650  -30.5726   24.8465 C   0  0  0  0  0  0  0  0  0  0  0  0
  -30.7473  -14.6764   20.7044 C   0  0  0  0  0  0  0  0  0  0  0  0
  -30.2402  -36.1895   19.0361 C   0  0  0  0  0  0  0  0  0  0  0  0
  -25.6184  -30.9851   19.2989 C   0  0  0  0  0  0  0  0  0  0  0  0
  -26.2135  -29.8020   21.9429 C   0  0  0  0  0  0  0  0  0  0  0  0
  -29.7314  -35.5600   20.3303 C   0  0  0  0  0  0  0  0  0  0  0  0
  -29.3059  -12.8522   18.0078 C   0  0  0  0  0  0  0  0  0  0  0  0
  -30.1541  -34.0967   20.4144 C   0  0  0  0  0  0  0  0  0  0  0  0
  -27.9309  -12.4416   18.5376 C   0  0  0  0  0  0  0  0  0  0  0  0
  -30.3661  -12.8222   19.1065 C   0  0  0  0  0  0  0  0  0  0  0  0
  -28.6557  -13.1922   20.8419 C   0  0  0  0  0  0  0  0  0  0  0  0
  -29.5557  -33.2825   19.2609 C   0  0  1  0  0  0  0  0  0  0  0  0
  -26.2544  -31.8020   20.4195 C   0  0  1  0  0  0  0  0  0  0  0  0
  -27.5422  -13.2611   19.7828 C   0  0  2  0  0  0  0  0  0  0  0  0
  -26.3504  -18.4818   22.3647 C   0  0  0  0  0  0  0  0  0  0  0  0
  -22.0073  -30.9889   26.8463 C   0  0  0  0  0  0  0  0  0  0  0  0
  -28.1701  -31.9612   24.6225 C   0  0  0  0  0  0  0  0  0  0  0  0
  -26.6364  -31.4267   26.5278 C   0  0  0  0  0  0  0  0  0  0  0  0
  -26.4401  -33.6154   25.3473 C   0  0  0  0  0  0  0  0  0  0  0  0
  -21.0000  -29.9890   23.3161 C   0  0  0  0  0  0  0  0  0  0  0  0
  -30.5894  -17.8255   21.7254 C   0  0  0  0  0  0  0  0  0  0  0  0
  -30.9812  -16.5035   22.3676 C   0  0  0  0  0  0  0  0  0  0  0  0
  -26.9278  -24.7072   18.6925 C   0  0  0  0  0  0  0  0  0  1  0  0
  -27.7194  -23.5079   19.1768 C   0  0  0  0  0  0  0  0  0  0  0  0
  -25.6662  -31.5071   24.1862 C   0  0  1  0  0  0  0  0  0  0  0  0
  -22.0881  -30.9933   25.3276 C   0  0  2  0  0  0  0  0  0  0  0  0
  -26.7283  -32.1115   25.1475 C   0  0  0  0  0  0  0  0  0  0  0  0
  -28.7304  -21.3077   20.1871 N   0  0  0  0  0  0  0  0  0  0  0  0
  -25.8305  -11.5419   20.2268 N   0  0  0  0  0  0  0  0  0  0  0  0
  -26.1981  -12.8296   20.3397 N   0  0  0  0  0  0  0  0  0  0  0  0
  -25.9885  -31.2437   21.7468 N   0  0  0  0  0  0  0  0  0  0  0  0
  -29.9368  -13.6196   20.2580 N   0  0  0  0  0  0  0  0  0  0  0  0
  -25.4845  -14.9322   21.1646 N   0  0  0  0  0  0  0  0  0  0  0  0
  -22.0564  -12.1845   22.2108 N   0  0  0  0  0  0  0  0  0  0  0  0
  -29.1929  -18.0842   21.9128 N   0  0  0  0  0  0  0  0  0  0  0  0
  -28.1626  -32.9880   19.5195 N   0  0  0  0  0  0  0  0  0  0  0  0
  -24.2897  -31.6592   24.6450 N   0  0  0  0  0  0  0  0  0  0  0  0
  -30.2636  -15.3852   21.7973 N   0  0  0  0  0  0  0  0  0  0  0  0
  -21.0487  -30.0653   24.7990 N   0  3  0  0  0  0  0  0  0  0  0  0
  -22.8072  -14.3487   22.3171 O   0  0  0  0  0  0  0  0  0  0  0  0
  -28.4670  -31.0859   20.8279 O   0  0  0  0  0  0  0  0  0  0  0  0
  -25.5295  -33.3319   22.6768 O   0  0  0  0  0  0  0  0  0  0  0  0
  -23.7789  -29.3974   24.6709 O   0  0  0  0  0  0  0  0  0  0  0  0
  -31.8197  -14.9702   20.1653 O   0  0  0  0  0  0  0  0  0  0  0  0
  -21.7579   -6.7292   21.1218 O   0  0  0  0  0  0  0  0  0  0  0  0
  -26.3908  -25.3974   19.8202 O   0  0  0  0  0  0  0  0  0  1  0  0
  -26.8497  -22.6318   19.8835 O   0  0  0  0  0  0  0  0  0  0  0  0
  -19.3610   -5.4969   25.9323 F   0  0  0  0  0  0  0  0  0  0  0  0
  -22.4271   -4.4221   22.4900 F   0  0  0  0  0  0  0  0  0  0  0  0
  1  2  1  0  0  0  0
  1  5  2  0  0  0  0
  2  6  2  0  0  0  0
  3  8  2  0  0  0  0
  3 17  1  0  0  0  0
  4  9  1  0  0  0  0
  4 17  2  0  0  0  0
  5 19  1  0  0  0  0
  6 21  1  0  0  0  0
  7 10  2  0  0  0  0
  7 20  1  0  0  0  0
  8 25  1  0  0  0  0
  9 25  2  0  0  0  0
 10 26  1  0  0  0  0
 11 12  2  0  0  0  0
 11 27  1  0  0  0  0
 12 28  1  0  0  0  0
 13 22  1  0  0  0  0
 13 26  2  0  0  0  0
 14 23  2  0  0  0  0
 14 31  1  0  0  0  0
 15 28  2  0  0  0  0
 15 29  1  0  0  0  0
 16 24  2  0  0  0  0
 16 63  1  0  0  0  0
 17 30  1  0  0  0  0
 18 30  1  0  0  0  0
 18 32  2  0  0  0  0
 18 33  1  0  0  0  0
 19 21  2  0  0  0  0
 19 38  1  0  0  0  0
 20 22  2  0  0  0  0
 20 39  1  0  0  0  0
 21 47  1  0  0  0  0
 22 40  1  0  0  0  0
 23 24  1  0  0  0  0
 23 50  1  0  0  0  0
 24 70  1  0  0  0  0
 25 80  1  0  0  0  0
 26 81  1  0  0  0  0
 27 29  2  0  0  0  0
 27 80  1  0  0  0  0
 28 83  1  0  0  0  0
 29 84  1  0  0  0  0
 30 64  2  0  0  0  0
 31 63  2  0  0  0  0
 31 82  1  0  0  0  0
 32 65  1  0  0  0  0
 32 68  1  0  0  0  0
 33 69  1  0  0  0  0
 33 75  2  0  0  0  0
 34 48  1  0  0  0  0
 34 71  1  0  0  0  0
 34 76  2  0  0  0  0
 35 60  1  0  0  0  0
 35 66  1  0  0  0  0
 35 77  2  0  0  0  0
 36 61  1  0  0  0  0
 36 72  1  0  0  0  0
 36 78  2  0  0  0  0
 37 67  1  0  0  0  0
 37 73  1  0  0  0  0
 37 79  2  0  0  0  0
 38 41  1  0  0  0  0
 39 48  1  0  0  0  0
 40 66  1  0  0  0  0
 41 43  1  0  0  0  0
 42 44  1  0  0  0  0
 42 45  1  0  0  0  0
 43 47  1  0  0  0  0
 44 49  1  0  0  0  0
 45 67  1  0  0  0  0
 46 49  1  0  0  0  0
 46 67  1  0  0  0  0
 47 71  1  0  0  0  0
 48 66  1  0  0  0  0
 49 65  1  0  0  0  0
 51 61  1  0  0  0  0
 52 62  1  0  0  0  0
 53 62  1  0  0  0  0
 54 62  1  0  0  0  0
 55 74  1  0  0  0  0
 56 57  1  0  0  0  0
 56 70  1  0  0  0  0
 57 73  1  0  0  0  0
 58 59  1  0  0  0  0
 58 81  1  0  0  0  0
 59 82  1  0  0  0  0
 60 62  1  0  0  0  0
 60 72  1  0  0  0  0
 61 74  1  0  0  0  0
 64 65  1  0  0  0  0
M  CHG  1  74   1
M  ISO  4  37 100  58 101  73 100  81 101
M  END
> <Batch ID>
0133

> <Smiles>
CNC(C)C(=O)NC(C(=O)N1Cc2cc([101O:1][101CH2:1]COc3cc(C)c(NCC[100NH:0][100C:0](=O)N4CCCC(n5nc(-c6ccc(Oc7ccc(F)cc7F)cc6)c(C(N)=O)c5N)C4)cn3)ccc2CC1C(=O)NC1CCCc2ccccc21)C(C)(C)C

> <Shape>
0.339

> <Color>
0.189

> <Negative vol penalty>
0.000

$$$$

  -OEChem-04052320553D

 81 90  0     1  0  0  0  0  0999 V2000
  -18.6264  -27.4568   23.2817 C   0  0  0  0  0  0  0  0  0  0  0  0
  -19.6259  -26.4892   23.2830 C   0  0  0  0  0  0  0  0  0  0  0  0
  -23.2006   -9.8422   19.8927 C   0  0  0  0  0  0  0  0  0  0  0  0
  -23.9331   -9.8378   22.1949 C   0  0  0  0  0  0  0  0  0  0  0  0
  -18.6851  -28.5169   22.3781 C   0  0  0  0  0  0  0  0  0  0  0  0
  -20.6843  -26.5805   22.3797 C   0  0  0  0  0  0  0  0  0  0  0  0
  -31.4590  -19.0801   22.0740 C   0  0  0  0  0  0  0  0  0  0  0  0
  -29.8432  -18.6058   20.3416 C   0  0  0  0  0  0  0  0  0  0  0  0
  -26.5006  -24.9230   23.3439 C   0  0  0  0  0  0  0  0  0  0  0  0
  -30.6556  -20.1216   22.5382 C   0  0  0  0  0  0  0  0  0  0  0  0
  -29.0397  -19.6472   20.8059 C   0  0  0  0  0  0  0  0  0  0  0  0
  -22.5288   -8.6382   20.1041 C   0  0  0  0  0  0  0  0  0  0  0  0
  -23.2613   -8.6338   22.4064 C   0  0  0  0  0  0  0  0  0  0  0  0
  -27.2171  -23.7755   23.0069 C   0  0  0  0  0  0  0  0  0  0  0  0
  -19.6213   -7.6194   21.4975 C   0  0  0  0  0  0  0  0  0  0  0  0
  -18.3254   -7.5032   20.9947 C   0  0  0  0  0  0  0  0  0  0  0  0
  -28.0507  -24.8831   21.0327 C   0  0  0  0  0  0  0  0  0  0  0  0
  -19.0220   -5.6343   19.6312 C   0  0  0  0  0  0  0  0  0  0  0  0
  -23.9028  -10.4420   20.9381 C   0  0  0  0  0  0  0  0  0  0  0  0
  -24.0848  -12.9860   20.8860 C   0  0  0  0  0  0  0  0  0  0  0  0
  -31.0528  -18.3222   20.9756 C   0  0  0  0  0  0  0  0  0  0  0  0
  -19.7498  -28.6265   21.4697 C   0  0  0  0  0  0  0  0  0  0  0  0
  -26.5452  -26.0574   22.5207 C   0  0  0  0  0  0  0  0  0  0  0  0
  -20.7566  -27.6423   21.4621 C   0  0  0  0  0  0  0  0  0  0  0  0
  -27.3359  -26.0447   21.3628 C   0  0  0  0  0  0  0  0  0  0  0  0
  -29.4460  -20.4051   21.9042 C   0  0  0  0  0  0  0  0  0  0  0  0
  -22.5591   -8.0340   21.3610 C   0  0  0  0  0  0  0  0  0  0  0  0
  -27.9900  -23.7544   21.8496 C   0  0  0  0  0  0  0  0  0  0  0  0
  -20.6176   -6.7431   21.0670 C   0  0  0  0  0  0  0  0  0  0  0  0
  -18.0258   -6.5107   20.0616 C   0  0  0  0  0  0  0  0  0  0  0  0
  -20.3179   -5.7506   20.1339 C   0  0  0  0  0  0  0  0  0  0  0  0
  -24.5975  -11.6854   20.7201 C   0  0  0  0  0  0  0  0  0  0  0  0
  -25.1310  -13.8122   20.5555 C   0  0  0  0  0  0  0  0  0  0  0  0
  -22.7795  -13.4094   21.3016 C   0  0  0  0  0  0  0  0  0  0  0  0
  -24.3996  -27.7000   20.8467 C   0  0  0  0  0  0  0  0  0  0  0  0
  -26.8992  -29.7066   20.3492 C   0  0  0  0  0  0  0  0  0  0  0  0
  -30.2811  -30.1435   20.2126 C   0  0  0  0  0  0  0  0  0  0  0  0
  -30.4326  -15.1491   21.0075 C   0  0  0  0  0  0  0  0  0  0  0  0
  -19.7455  -29.7646   20.4801 C   0  0  0  0  0  0  0  0  0  0  0  0
  -25.7877  -27.2965   22.9122 C   0  0  0  0  0  0  0  0  0  0  0  0
  -27.4336  -27.2432   20.4560 C   0  0  0  0  0  0  0  0  0  0  0  0
  -21.0968  -29.9920   19.8074 C   0  0  0  0  0  0  0  0  0  0  0  0
  -29.5836  -12.7807   18.3842 C   0  0  0  0  0  0  0  0  0  0  0  0
  -21.6871  -28.6675   19.3340 C   0  0  0  0  0  0  0  0  0  0  0  0
  -28.1556  -12.3947   18.7758 C   0  0  0  0  0  0  0  0  0  0  0  0
  -32.3082  -17.1095   18.9452 C   0  0  0  0  0  0  0  0  0  0  0  0
  -30.4485  -12.9891   19.6218 C   0  0  0  0  0  0  0  0  0  0  0  0
  -31.9899  -15.6154   18.9408 C   0  0  0  0  0  0  0  0  0  0  0  0
  -28.5031  -13.6103   20.9816 C   0  0  0  0  0  0  0  0  0  0  0  0
  -31.9667  -17.1380   20.4480 C   0  0  2  0  0  0  0  0  0  0  0  0
  -21.9338  -27.7202   20.5143 C   0  0  1  0  0  0  0  0  0  0  0  0
  -25.4981  -28.2179   21.7313 C   0  0  1  0  0  0  0  0  0  0  0  0
  -27.5594  -13.3968   19.7827 C   0  0  2  0  0  0  0  0  0  0  0  0
  -32.0249  -31.8863   19.7444 C   0  0  0  0  0  0  0  0  0  0  0  0
  -26.3438  -29.4556   17.3594 C   0  0  0  0  0  0  0  0  0  0  0  0
  -28.6208  -30.4027   16.9278 C   0  0  0  0  0  0  0  0  0  0  0  0
  -26.9103  -31.7681   18.1247 C   0  0  0  0  0  0  0  0  0  0  0  0
  -31.4109  -29.9117   22.9382 C   0  0  0  0  0  0  0  0  0  0  0  0
  -28.5871  -21.5192   22.4003 C   0  0  0  0  0  0  0  0  0  1  0  0
  -27.9921  -29.8167   19.3136 C   0  0  1  0  0  0  0  0  0  0  0  0
  -31.1846  -31.2052   20.8134 C   0  0  2  0  0  0  0  0  0  0  0  0
  -27.4636  -30.3374   17.9472 C   0  0  0  0  0  0  0  0  0  0  0  0
  -25.8704  -11.6806   20.3156 N   0  0  0  0  0  0  0  0  0  0  0  0
  -26.1664  -12.9883   20.2244 N   0  0  0  0  0  0  0  0  0  0  0  0
  -26.6696  -28.4287   20.8784 N   0  0  0  0  0  0  0  0  0  0  0  0
  -29.8433  -13.9833   20.5123 N   0  0  0  0  0  0  0  0  0  0  0  0
  -31.3595  -15.8094   20.2337 N   0  0  0  0  0  0  0  0  0  0  0  0
  -25.2572  -15.1557   20.5187 N   0  0  0  0  0  0  0  0  0  0  0  0
  -21.8238  -12.4296   21.6031 N   0  0  0  0  0  0  0  0  0  0  0  0
  -23.1337  -28.1028   21.2272 N   0  0  0  0  0  0  0  0  0  0  0  0
  -29.0344  -30.6473   19.9069 N   0  0  0  0  0  0  0  0  0  0  0  0
  -32.1036  -30.5962   21.8162 N   0  3  0  0  0  0  0  0  0  0  0  0
  -22.4649  -14.6207   21.3869 O   0  0  0  0  0  0  0  0  0  0  0  0
  -24.6798  -26.9887   19.8890 O   0  0  0  0  0  0  0  0  0  0  0  0
  -26.2770  -30.7186   20.6817 O   0  0  0  0  0  0  0  0  0  0  0  0
  -30.6459  -28.9843   20.0292 O   0  0  0  0  0  0  0  0  0  0  0  0
  -30.1059  -15.6120   22.1095 O   0  0  0  0  0  0  0  0  0  0  0  0
  -21.9035   -6.8593   21.5677 O   0  0  0  0  0  0  0  0  0  0  0  0
  -28.6946  -22.6277   21.5157 O   0  0  0  0  0  0  0  0  0  1  0  0
  -16.7809   -6.3982   19.5800 F   0  0  0  0  0  0  0  0  0  0  0  0
  -21.2706   -4.9051   19.7176 F   0  0  0  0  0  0  0  0  0  0  0  0
  1  2  1  0  0  0  0
  1  5  2  0  0  0  0
  2  6  2  0  0  0  0
  3 12  2  0  0  0  0
  3 19  1  0  0  0  0
  4 13  1  0  0  0  0
  4 19  2  0  0  0  0
  5 22  1  0  0  0  0
  6 24  1  0  0  0  0
  7 10  2  0  0  0  0
  7 21  1  0  0  0  0
  8 11  1  0  0  0  0
  8 21  2  0  0  0  0
  9 14  2  0  0  0  0
  9 23  1  0  0  0  0
 10 26  1  0  0  0  0
 11 26  2  0  0  0  0
 12 27  1  0  0  0  0
 13 27  2  0  0  0  0
 14 28  1  0  0  0  0
 15 16  2  0  0  0  0
 15 29  1  0  0  0  0
 16 30  1  0  0  0  0
 17 25  1  0  0  0  0
 17 28  2  0  0  0  0
 18 30  2  0  0  0  0
 18 31  1  0  0  0  0
 19 32  1  0  0  0  0
 20 32  1  0  0  0  0
 20 33  2  0  0  0  0
 20 34  1  0  0  0  0
 21 50  1  0  0  0  0
 22 24  2  0  0  0  0
 22 39  1  0  0  0  0
 23 25  2  0  0  0  0
 23 40  1  0  0  0  0
 24 51  1  0  0  0  0
 25 41  1  0  0  0  0
 26 59  1  0  0  0  0
 27 78  1  0  0  0  0
 28 79  1  0  0  0  0
 29 31  2  0  0  0  0
 29 78  1  0  0  0  0
 30 80  1  0  0  0  0
 31 81  1  0  0  0  0
 32 63  2  0  0  0  0
 33 64  1  0  0  0  0
 33 68  1  0  0  0  0
 34 69  1  0  0  0  0
 34 73  2  0  0  0  0
 35 52  1  0  0  0  0
 35 70  1  0  0  0  0
 35 74  2  0  0  0  0
 36 60  1  0  0  0  0
 36 65  1  0  0  0  0
 36 75  2  0  0  0  0
 37 61  1  0  0  0  0
 37 71  1  0  0  0  0
 37 76  2  0  0  0  0
 38 66  1  0  0  0  0
 38 67  1  0  0  0  0
 38 77  2  0  0  0  0
 39 42  1  0  0  0  0
 40 52  1  0  0  0  0
 41 65  1  0  0  0  0
 42 44  1  0  0  0  0
 43 45  1  0  0  0  0
 43 47  1  0  0  0  0
 44 51  1  0  0  0  0
 45 53  1  0  0  0  0
 46 48  1  0  0  0  0
 46 50  1  0  0  0  0
 47 66  1  0  0  0  0
 48 67  1  0  0  0  0
 49 53  1  0  0  0  0
 49 66  1  0  0  0  0
 50 67  1  0  0  0  0
 51 70  1  0  0  0  0
 52 65  1  0  0  0  0
 53 64  1  0  0  0  0
 54 61  1  0  0  0  0
 55 62  1  0  0  0  0
 56 62  1  0  0  0  0
 57 62  1  0  0  0  0
 58 72  1  0  0  0  0
 59 79  1  0  0  0  0
 60 62  1  0  0  0  0
 60 71  1  0  0  0  0
 61 72  1  0  0  0  0
 63 64  1  0  0  0  0
M  CHG  1  72   1
M  ISO  4  38 100  59 101  67 100  79 101
M  END
> <Batch ID>
0133

> <Smiles>
CNC(C)C(=O)NC(C(=O)N1Cc2cc([101O:1][101CH2:1]c3ccc(C4CC[100N:0]4[100C:0](=O)N4CCCC(n5nc(-c6ccc(Oc7ccc(F)cc7F)cc6)c(C(N)=O)c5N)C4)cc3)ccc2CC1C(=O)NC1CCCc2ccccc21)C(C)(C)C

> <Shape>
0.266

> <Color>
0.193

> <Negative vol penalty>
0.000

$$$$

  -OEChem-04052320553D

 83 91  0     1  0  0  0  0  0999 V2000
  -28.7158  -36.0191   18.2299 C   0  0  0  0  0  0  0  0  0  0  0  0
  -28.6003  -34.6899   17.8358 C   0  0  0  0  0  0  0  0  0  0  0  0
  -23.0921   -9.9741   19.9147 C   0  0  0  0  0  0  0  0  0  0  0  0
  -23.8482   -9.9453   22.2092 C   0  0  0  0  0  0  0  0  0  0  0  0
  -28.6637  -36.3508   19.5831 C   0  0  0  0  0  0  0  0  0  0  0  0
  -28.4336  -33.6915   18.7949 C   0  0  0  0  0  0  0  0  0  0  0  0
  -25.1333  -28.5631   18.2353 C   0  0  0  0  0  0  0  0  0  0  0  0
  -29.3352  -20.2732   19.4420 C   0  0  0  0  0  0  0  0  0  0  0  0
  -27.1297  -19.6910   20.2382 C   0  0  0  0  0  0  0  0  0  0  0  0
  -22.3581   -8.8100   20.1420 C   0  0  0  0  0  0  0  0  0  0  0  0
  -23.1142   -8.7812   22.4365 C   0  0  0  0  0  0  0  0  0  0  0  0
  -25.4858  -27.2496   17.9281 C   0  0  0  0  0  0  0  0  0  0  0  0
  -28.7836  -21.2802   18.6502 C   0  0  0  0  0  0  0  0  0  0  0  0
  -26.5780  -20.6981   19.4463 C   0  0  0  0  0  0  0  0  0  0  0  0
  -19.4147   -7.9607   21.5731 C   0  0  0  0  0  0  0  0  0  0  0  0
  -18.1091   -7.9119   21.0848 C   0  0  0  0  0  0  0  0  0  0  0  0
  -25.5636  -26.7264   20.2817 C   0  0  0  0  0  0  0  0  0  0  0  0
  -18.6881   -5.9986   19.7278 C   0  0  0  0  0  0  0  0  0  0  0  0
  -23.8373  -10.5417   20.9483 C   0  0  0  0  0  0  0  0  0  0  0  0
  -24.1569  -13.0716   20.8755 C   0  0  0  0  0  0  0  0  0  0  0  0
  -28.4866  -35.3570   20.5586 C   0  0  0  0  0  0  0  0  0  0  0  0
  -25.0037  -28.9715   19.5705 C   0  0  0  0  0  0  0  0  0  0  0  0
  -28.3804  -34.0101   20.1625 C   0  0  0  0  0  0  0  0  0  0  0  0
  -25.2068  -28.0450   20.6031 C   0  0  0  0  0  0  0  0  0  0  0  0
  -28.5083  -19.4785   20.2360 C   0  0  0  0  0  0  0  0  0  0  0  0
  -22.3691   -8.2136   21.4029 C   0  0  0  0  0  0  0  0  0  0  0  0
  -27.4050  -21.4927   18.6523 C   0  0  0  0  0  0  0  0  0  0  0  0
  -25.7038  -26.3318   18.9514 C   0  0  0  0  0  0  0  0  0  0  0  0
  -20.3571   -7.0285   21.1388 C   0  0  0  0  0  0  0  0  0  0  0  0
  -17.7457   -6.9309   20.1622 C   0  0  0  0  0  0  0  0  0  0  0  0
  -19.9938   -6.0474   20.2162 C   0  0  0  0  0  0  0  0  0  0  0  0
  -24.5962  -11.7439   20.7140 C   0  0  0  0  0  0  0  0  0  0  0  0
  -25.2429  -13.8373   20.5281 C   0  0  0  0  0  0  0  0  0  0  0  0
  -22.8812  -13.5683   21.3017 C   0  0  0  0  0  0  0  0  0  0  0  0
  -26.4655  -31.1086   21.4144 C   0  0  0  0  0  0  0  0  0  0  0  0
  -24.1752  -30.2569   23.5478 C   0  0  0  0  0  0  0  0  0  0  0  0
  -21.9415  -27.9090   24.6177 C   0  0  0  0  0  0  0  0  0  0  0  0
  -30.7171  -14.9010   20.7449 C   0  0  0  0  0  0  0  0  0  0  0  0
  -28.4838  -35.7590   22.0123 C   0  0  0  0  0  0  0  0  0  0  0  0
  -24.5967  -30.3851   19.8846 C   0  0  0  0  0  0  0  0  0  0  0  0
  -25.0606  -28.4280   22.0524 C   0  0  0  0  0  0  0  0  0  0  0  0
  -27.9292  -34.6819   22.9410 C   0  0  0  0  0  0  0  0  0  0  0  0
  -29.6045  -12.5511   18.3125 C   0  0  0  0  0  0  0  0  0  0  0  0
  -28.5322  -33.3224   22.6018 C   0  0  0  0  0  0  0  0  0  0  0  0
  -28.1691  -12.2368   18.7374 C   0  0  0  0  0  0  0  0  0  0  0  0
  -30.5177  -12.7578   19.5189 C   0  0  0  0  0  0  0  0  0  0  0  0
  -28.6074  -13.4463   20.9154 C   0  0  0  0  0  0  0  0  0  0  0  0
  -28.1737  -32.9013   21.1715 C   0  0  1  0  0  0  0  0  0  0  0  0
  -24.9955  -30.8233   21.2904 C   0  0  1  0  0  0  0  0  0  0  0  0
  -27.6367  -13.2849   19.7330 C   0  0  2  0  0  0  0  0  0  0  0  0
  -20.2373  -27.4836   26.4100 C   0  0  0  0  0  0  0  0  0  0  0  0
  -26.4160  -29.7077   25.5446 C   0  0  0  0  0  0  0  0  0  0  0  0
  -24.7740  -28.4184   26.9266 C   0  0  0  0  0  0  0  0  0  0  0  0
  -24.4136  -30.8518   26.5122 C   0  0  0  0  0  0  0  0  0  0  0  0
  -19.7528  -27.6645   22.6406 C   0  0  0  0  0  0  0  0  0  0  0  0
  -30.4696  -18.1888   21.0819 C   0  0  0  0  0  0  0  0  0  0  0  0
  -30.7620  -17.0288   22.0215 C   0  0  0  0  0  0  0  0  0  0  0  0
  -27.6783  -23.6213   17.6275 C   0  0  0  0  0  0  0  0  0  0  0  0
  -26.7895  -24.8376   17.4532 C   0  0  0  0  0  0  0  0  0  1  0  0
  -24.0556  -29.2069   24.6259 C   0  0  1  0  0  0  0  0  0  0  0  0
  -20.4775  -28.0142   25.0052 C   0  0  2  0  0  0  0  0  0  0  0  0
  -24.9195  -29.5392   25.8752 C   0  0  0  0  0  0  0  0  0  0  0  0
  -25.8625  -11.6670   20.2962 N   0  0  0  0  0  0  0  0  0  0  0  0
  -26.2282  -12.9560   20.1923 N   0  0  0  0  0  0  0  0  0  0  0  0
  -24.6672  -29.8234   22.3086 N   0  0  0  0  0  0  0  0  0  0  0  0
  -29.9567  -13.7648   20.4228 N   0  0  0  0  0  0  0  0  0  0  0  0
  -25.4417  -15.1717   20.4801 N   0  0  0  0  0  0  0  0  0  0  0  0
  -21.8769  -12.6442   21.6203 N   0  0  0  0  0  0  0  0  0  0  0  0
  -29.0661  -18.4602   21.0367 N   0  0  0  0  0  0  0  0  0  0  0  0
  -26.8128  -32.4121   21.1148 N   0  0  0  0  0  0  0  0  0  0  0  0
  -22.6303  -29.0685   24.9046 N   0  0  0  0  0  0  0  0  0  0  0  0
  -30.1084  -15.8088   21.6029 N   0  0  0  0  0  0  0  0  0  0  0  0
  -19.6333  -27.2333   24.0572 N   0  3  0  0  0  0  0  0  0  0  0  0
  -22.6340  -14.7955   21.3813 O   0  0  0  0  0  0  0  0  0  0  0  0
  -27.2279  -30.2129   21.7580 O   0  0  0  0  0  0  0  0  0  0  0  0
  -23.8374  -31.4175   23.7940 O   0  0  0  0  0  0  0  0  0  0  0  0
  -22.4263  -26.8979   24.1145 O   0  0  0  0  0  0  0  0  0  0  0  0
  -31.8522  -15.0949   20.2966 O   0  0  0  0  0  0  0  0  0  0  0  0
  -21.6528   -7.0778   21.6251 O   0  0  0  0  0  0  0  0  0  0  0  0
  -26.8632  -22.4819   17.8745 O   0  0  0  0  0  0  0  0  0  0  0  0
  -26.0486  -25.0493   18.6543 O   0  0  0  0  0  0  0  0  0  1  0  0
  -16.4915   -6.8832   19.6945 F   0  0  0  0  0  0  0  0  0  0  0  0
  -20.8944   -5.1485   19.7961 F   0  0  0  0  0  0  0  0  0  0  0  0
  1  2  1  0  0  0  0
  1  5  2  0  0  0  0
  2  6  2  0  0  0  0
  3 10  2  0  0  0  0
  3 19  1  0  0  0  0
  4 11  1  0  0  0  0
  4 19  2  0  0  0  0
  5 21  1  0  0  0  0
  6 23  1  0  0  0  0
  7 12  2  0  0  0  0
  7 22  1  0  0  0  0
  8 13  2  0  0  0  0
  8 25  1  0  0  0  0
  9 14  1  0  0  0  0
  9 25  2  0  0  0  0
 10 26  1  0  0  0  0
 11 26  2  0  0  0  0
 12 28  1  0  0  0  0
 13 27  1  0  0  0  0
 14 27  2  0  0  0  0
 15 16  2  0  0  0  0
 15 29  1  0  0  0  0
 16 30  1  0  0  0  0
 17 24  1  0  0  0  0
 17 28  2  0  0  0  0
 18 30  2  0  0  0  0
 18 31  1  0  0  0  0
 19 32  1  0  0  0  0
 20 32  1  0  0  0  0
 20 33  2  0  0  0  0
 20 34  1  0  0  0  0
 21 23  2  0  0  0  0
 21 39  1  0  0  0  0
 22 24  2  0  0  0  0
 22 40  1  0  0  0  0
 23 48  1  0  0  0  0
 24 41  1  0  0  0  0
 25 69  1  0  0  0  0
 26 79  1  0  0  0  0
 27 80  1  0  0  0  0
 28 81  1  0  0  0  0
 29 31  2  0  0  0  0
 29 79  1  0  0  0  0
 30 82  1  0  0  0  0
 31 83  1  0  0  0  0
 32 63  2  0  0  0  0
 33 64  1  0  0  0  0
 33 67  1  0  0  0  0
 34 68  1  0  0  0  0
 34 74  2  0  0  0  0
 35 49  1  0  0  0  0
 35 70  1  0  0  0  0
 35 75  2  0  0  0  0
 36 60  1  0  0  0  0
 36 65  1  0  0  0  0
 36 76  2  0  0  0  0
 37 61  1  0  0  0  0
 37 71  1  0  0  0  0
 37 77  2  0  0  0  0
 38 66  1  0  0  0  0
 38 72  1  0  0  0  0
 38 78  2  0  0  0  0
 39 42  1  0  0  0  0
 40 49  1  0  0  0  0
 41 65  1  0  0  0  0
 42 44  1  0  0  0  0
 43 45  1  0  0  0  0
 43 46  1  0  0  0  0
 44 48  1  0  0  0  0
 45 50  1  0  0  0  0
 46 66  1  0  0  0  0
 47 50  1  0  0  0  0
 47 66  1  0  0  0  0
 48 70  1  0  0  0  0
 49 65  1  0  0  0  0
 50 64  1  0  0  0  0
 51 61  1  0  0  0  0
 52 62  1  0  0  0  0
 53 62  1  0  0  0  0
 54 62  1  0  0  0  0
 55 73  1  0  0  0  0
 56 57  1  0  0  0  0
 56 69  1  0  0  0  0
 57 72  1  0  0  0  0
 58 59  1  0  0  0  0
 58 80  1  0  0  0  0
 59 81  1  0  0  0  0
 60 62  1  0  0  0  0
 60 71  1  0  0  0  0
 61 73  1  0  0  0  0
 63 64  1  0  0  0  0
M  CHG  1  73   1
M  ISO  4  38 100  59 101  72 100  81 101
M  END
> <Batch ID>
0133

> <Smiles>
CNC(C)C(=O)NC(C(=O)N1Cc2cc([101O:1][101CH2:1]COc3ccc(NCC[100NH:0][100C:0](=O)N4CCCC(n5nc(-c6ccc(Oc7ccc(F)cc7F)cc6)c(C(N)=O)c5N)C4)cc3)ccc2CC1C(=O)NC1CCCc2ccccc21)C(C)(C)C

> <Shape>
0.303

> <Color>
0.224

> <Negative vol penalty>
0.000

$$$$

  -OEChem-04052320553D

 88 97  0     1  0  0  0  0  0999 V2000
  -31.2251  -32.6697   28.2128 C   0  0  0  0  0  0  0  0  0  0  0  0
  -31.6679  -31.3521   28.2711 C   0  0  0  0  0  0  0  0  0  0  0  0
  -23.0050   -9.8861   19.9783 C   0  0  0  0  0  0  0  0  0  0  0  0
  -23.7282   -9.9401   22.2828 C   0  0  0  0  0  0  0  0  0  0  0  0
  -30.3013  -33.0510   27.2407 C   0  0  0  0  0  0  0  0  0  0  0  0
  -31.1863  -30.4149   27.3578 C   0  0  0  0  0  0  0  0  0  0  0  0
  -33.2191  -24.5518   23.7789 C   0  0  0  0  0  0  0  0  0  0  0  0
  -22.2411   -8.7499   20.2446 C   0  0  0  0  0  0  0  0  0  0  0  0
  -22.9643   -8.8039   22.5492 C   0  0  0  0  0  0  0  0  0  0  0  0
  -32.8110  -23.2403   23.5399 C   0  0  0  0  0  0  0  0  0  0  0  0
  -23.2174   -5.4653   22.0792 C   0  0  0  0  0  0  0  0  0  0  0  0
  -23.8069   -4.4500   22.8323 C   0  0  0  0  0  0  0  0  0  0  0  0
  -31.2774  -24.0311   21.8541 C   0  0  0  0  0  0  0  0  0  0  0  0
  -29.7461  -17.7046   22.6719 C   0  0  0  0  0  0  0  0  0  0  0  0
  -22.0810   -4.6894   24.5060 C   0  0  0  0  0  0  0  0  0  0  0  0
  -23.7486  -10.4813   20.9974 C   0  0  0  0  0  0  0  0  0  0  0  0
  -24.1277  -12.9977   20.8204 C   0  0  0  0  0  0  0  0  0  0  0  0
  -29.8155  -32.1202   26.3090 C   0  0  0  0  0  0  0  0  0  0  0  0
  -32.6506  -25.6156   23.0638 C   0  0  0  0  0  0  0  0  0  0  0  0
  -30.2542  -30.7838   26.3731 C   0  0  0  0  0  0  0  0  0  0  0  0
  -31.6818  -25.3549   22.0842 C   0  0  0  0  0  0  0  0  0  0  0  0
  -30.2312  -18.9425   23.0789 C   0  0  0  0  0  0  0  0  0  0  0  0
  -31.5061  -19.3436   22.6956 C   0  0  0  0  0  0  0  0  0  0  0  0
  -22.2207   -8.2087   21.5300 C   0  0  0  0  0  0  0  0  0  0  0  0
  -31.8379  -22.9800   22.5794 C   0  0  0  0  0  0  0  0  0  0  0  0
  -22.0597   -6.0928   22.5395 C   0  0  0  0  0  0  0  0  0  0  0  0
  -23.2387   -4.0620   24.0457 C   0  0  0  0  0  0  0  0  0  0  0  0
  -21.4916   -5.7048   23.7529 C   0  0  0  0  0  0  0  0  0  0  0  0
  -24.5383  -11.6547   20.7228 C   0  0  0  0  0  0  0  0  0  0  0  0
  -32.2502  -18.4771   21.9112 C   0  0  0  0  0  0  0  0  0  0  0  0
  -30.5689  -16.9116   21.8883 C   0  0  0  0  0  0  0  0  0  0  0  0
  -25.2359  -13.7229   20.4565 C   0  0  0  0  0  0  0  0  0  0  0  0
  -22.8581  -13.5411   21.2056 C   0  0  0  0  0  0  0  0  0  0  0  0
  -30.9459  -28.1836   23.8407 C   0  0  0  0  0  0  0  0  0  0  0  0
  -31.3205  -28.9019   20.6997 C   0  0  0  0  0  0  0  0  0  0  0  0
  -31.9103  -27.7966   17.5252 C   0  0  0  0  0  0  0  0  0  0  0  0
  -30.7128  -14.6979   20.6944 C   0  0  0  0  0  0  0  0  0  0  0  0
  -28.7820  -32.5685   25.3061 C   0  0  0  0  0  0  0  0  0  0  0  0
  -33.1209  -27.0221   23.3147 C   0  0  0  0  0  0  0  0  0  0  0  0
  -31.0550  -26.4598   21.2750 C   0  0  0  0  0  0  0  0  0  0  0  0
  -28.6046  -31.5998   24.1398 C   0  0  0  0  0  0  0  0  0  0  0  0
  -29.6026  -12.2410   18.3688 C   0  0  0  0  0  0  0  0  0  0  0  0
  -28.4964  -30.1658   24.6486 C   0  0  0  0  0  0  0  0  0  0  0  0
  -28.1523  -11.9800   18.7819 C   0  0  0  0  0  0  0  0  0  0  0  0
  -26.3704  -20.6369   24.7491 C   0  0  0  0  0  0  0  0  0  0  0  0
  -30.5015  -12.4873   19.5792 C   0  0  0  0  0  0  0  0  0  0  0  0
  -25.2013  -21.6170   24.8253 C   0  0  0  0  0  0  0  0  0  0  0  0
  -28.5831  -13.2721   20.9108 C   0  0  0  0  0  0  0  0  0  0  0  0
  -29.7738  -29.7437   25.3844 C   0  0  1  0  0  0  0  0  0  0  0  0
  -32.1041  -28.0770   22.8894 C   0  0  1  0  0  0  0  0  0  0  0  0
  -27.6268  -13.0827   19.7219 C   0  0  2  0  0  0  0  0  0  0  0  0
  -27.4325  -21.3974   23.9749 C   0  0  2  0  0  0  0  0  0  0  0  0
  -26.6238  -22.3416   23.1026 C   0  0  2  0  0  0  0  0  0  0  0  0
  -33.6270  -18.8537   21.4699 C   0  0  0  0  0  0  0  0  0  0  0  0
  -26.5606  -24.4781   21.8065 C   0  0  0  0  0  0  0  0  0  0  0  0
  -32.1202  -28.6139   15.1619 C   0  0  0  0  0  0  0  0  0  0  0  0
  -28.2876  -29.1914   20.5329 C   0  0  0  0  0  0  0  0  0  0  0  0
  -28.4818  -29.0591   18.0404 C   0  0  0  0  0  0  0  0  0  0  0  0
  -29.5722  -30.9311   19.2770 C   0  0  0  0  0  0  0  0  0  0  0  0
  -34.7051  -26.8444   17.3214 C   0  0  0  0  0  0  0  0  0  0  0  0
  -29.3680  -19.8194   23.9245 C   0  0  0  0  0  0  0  0  0  0  0  0
  -32.0560  -20.6740   23.1186 C   0  0  0  0  0  0  0  0  0  1  0  0
  -27.4254  -23.5070   22.5469 C   0  0  0  0  0  0  0  0  0  0  0  0
  -30.5500  -28.6051   19.4358 C   0  0  1  0  0  0  0  0  0  0  0  0
  -32.8618  -28.2863   16.4486 C   0  0  2  0  0  0  0  0  0  0  0  0
  -29.2332  -29.4258   19.3380 C   0  0  0  0  0  0  0  0  0  0  0  0
  -25.8082  -11.5312   20.3277 N   0  0  0  0  0  0  0  0  0  0  0  0
  -31.8129  -17.2671   21.4962 N   0  0  0  0  0  0  0  0  0  0  0  0
  -26.2051  -12.8059   20.1737 N   0  0  0  0  0  0  0  0  0  0  0  0
  -25.6073  -22.7978   24.0570 N   0  0  0  0  0  0  0  0  0  0  0  0
  -31.5436  -27.8187   21.5615 N   0  0  0  0  0  0  0  0  0  0  0  0
  -29.9431  -13.5473   20.4215 N   0  0  0  0  0  0  0  0  0  0  0  0
  -25.4662  -15.0492   20.3539 N   0  0  0  0  0  0  0  0  0  0  0  0
  -21.8282  -12.6546   21.5487 N   0  0  0  0  0  0  0  0  0  0  0  0
  -30.0655  -15.6519   21.4789 N   0  0  0  0  0  0  0  0  0  0  0  0
  -30.8203  -29.4236   24.4374 N   0  0  0  0  0  0  0  0  0  0  0  0
  -31.4765  -28.8279   18.3311 N   0  0  0  0  0  0  0  0  0  0  0  0
  -28.2696  -20.4752   23.1637 N   0  3  0  0  0  0  0  0  0  0  0  0
  -33.8853  -27.2453   16.1492 N   0  3  0  0  0  0  0  0  0  0  0  0
  -22.6382  -14.7759   21.2285 O   0  0  0  0  0  0  0  0  0  0  0  0
  -30.2192  -27.2132   24.0190 O   0  0  0  0  0  0  0  0  0  0  0  0
  -31.7162  -30.0510   20.9109 O   0  0  0  0  0  0  0  0  0  0  0  0
  -31.5816  -26.6176   17.6376 O   0  0  0  0  0  0  0  0  0  0  0  0
  -31.8515  -14.8395   20.2412 O   0  0  0  0  0  0  0  0  0  0  0  0
  -21.4752   -7.1001   21.7903 O   0  0  0  0  0  0  0  0  0  0  0  0
  -31.4373  -21.7008   22.3446 O   0  0  0  0  0  0  0  0  0  1  0  0
  -23.8041   -3.0859   24.7681 F   0  0  0  0  0  0  0  0  0  0  0  0
  -20.3788   -6.3031   24.1997 F   0  0  0  0  0  0  0  0  0  0  0  0
  1  2  1  0  0  0  0
  1  5  2  0  0  0  0
  2  6  2  0  0  0  0
  3  8  2  0  0  0  0
  3 16  1  0  0  0  0
  4  9  1  0  0  0  0
  4 16  2  0  0  0  0
  5 18  1  0  0  0  0
  6 20  1  0  0  0  0
  7 10  2  0  0  0  0
  7 19  1  0  0  0  0
  8 24  1  0  0  0  0
  9 24  2  0  0  0  0
 10 25  1  0  0  0  0
 11 12  2  0  0  0  0
 11 26  1  0  0  0  0
 12 27  1  0  0  0  0
 13 21  1  0  0  0  0
 13 25  2  0  0  0  0
 14 22  1  0  0  0  0
 14 31  2  0  0  0  0
 15 27  2  0  0  0  0
 15 28  1  0  0  0  0
 16 29  1  0  0  0  0
 17 29  1  0  0  0  0
 17 32  2  0  0  0  0
 17 33  1  0  0  0  0
 18 20  2  0  0  0  0
 18 38  1  0  0  0  0
 19 21  2  0  0  0  0
 19 39  1  0  0  0  0
 20 49  1  0  0  0  0
 21 40  1  0  0  0  0
 22 23  2  0  0  0  0
 22 61  1  0  0  0  0
 23 30  1  0  0  0  0
 23 62  1  0  0  0  0
 24 85  1  0  0  0  0
 25 86  1  0  0  0  0
 26 28  2  0  0  0  0
 26 85  1  0  0  0  0
 27 87  1  0  0  0  0
 28 88  1  0  0  0  0
 29 67  2  0  0  0  0
 30 54  1  0  0  0  0
 30 68  2  0  0  0  0
 31 68  1  0  0  0  0
 31 75  1  0  0  0  0
 32 69  1  0  0  0  0
 32 73  1  0  0  0  0
 33 74  1  0  0  0  0
 33 80  2  0  0  0  0
 34 50  1  0  0  0  0
 34 76  1  0  0  0  0
 34 81  2  0  0  0  0
 35 64  1  0  0  0  0
 35 71  1  0  0  0  0
 35 82  2  0  0  0  0
 36 65  1  0  0  0  0
 36 77  1  0  0  0  0
 36 83  2  0  0  0  0
 37 72  1  0  0  0  0
 37 75  1  0  0  0  0
 37 84  2  0  0  0  0
 38 41  1  0  0  0  0
 39 50  1  0  0  0  0
 40 71  1  0  0  0  0
 41 43  1  0  0  0  0
 42 44  1  0  0  0  0
 42 46  1  0  0  0  0
 43 49  1  0  0  0  0
 44 51  1  0  0  0  0
 45 47  1  0  0  0  0
 45 52  1  0  0  0  0
 46 72  1  0  0  0  0
 47 70  1  0  0  0  0
 48 51  1  0  0  0  0
 48 72  1  0  0  0  0
 49 76  1  0  0  0  0
 50 71  1  0  0  0  0
 51 69  1  0  0  0  0
 52 53  1  0  0  0  0
 52 78  1  0  0  0  0
 53 63  1  0  0  0  0
 53 70  1  0  0  0  0
 55 63  1  0  0  0  0
 56 65  1  0  0  0  0
 57 66  1  0  0  0  0
 58 66  1  0  0  0  0
 59 66  1  0  0  0  0
 60 79  1  0  0  0  0
 61 78  1  0  0  0  0
 62 86  1  0  0  0  0
 64 66  1  0  0  0  0
 64 77  1  0  0  0  0
 65 79  1  0  0  0  0
 67 69  1  0  0  0  0
M  CHG  2  78   1  79   1
M  ISO  4  37 100  62 101  75 100  86 101
M  END
> <Batch ID>
0133

> <Smiles>
CCC1NCCC1NCc1cc([100NH:0][100C:0](=O)N2CCCC(n3nc(-c4ccc(Oc5ccc(F)cc5F)cc4)c(C(N)=O)c3N)C2)nc(C)c1[101CH2:1][101O:1]c1ccc2c(c1)CN(C(=O)C(NC(=O)C(C)NC)C(C)(C)C)C(C(=O)NC1CCCc3ccccc31)C2

> <Shape>
0.215

> <Color>
0.179

> <Negative vol penalty>
0.000

$$$$

  -OEChem-04052320553D

 87 96  0     1  0  0  0  0  0999 V2000
  -25.8580  -35.4226   16.3998 C   0  0  0  0  0  0  0  0  0  0  0  0
  -24.9718  -34.6631   17.1570 C   0  0  0  0  0  0  0  0  0  0  0  0
  -23.9836   -9.7925   22.0032 C   0  0  0  0  0  0  0  0  0  0  0  0
  -24.4730  -11.1843   23.9164 C   0  0  0  0  0  0  0  0  0  0  0  0
  -26.7517  -34.7924   15.5349 C   0  0  0  0  0  0  0  0  0  0  0  0
  -24.9781  -33.2729   17.0488 C   0  0  0  0  0  0  0  0  0  0  0  0
  -30.2258  -19.3963   24.7137 C   0  0  0  0  0  0  0  0  0  0  0  0
  -26.1829  -29.1111   22.8038 C   0  0  0  0  0  0  0  0  0  0  0  0
  -29.5033  -20.5364   25.0654 C   0  0  0  0  0  0  0  0  0  0  0  0
  -23.5288   -8.7843   22.8529 C   0  0  0  0  0  0  0  0  0  0  0  0
  -24.0181  -10.1760   24.7662 C   0  0  0  0  0  0  0  0  0  0  0  0
  -26.1963  -28.2436   23.8962 C   0  0  0  0  0  0  0  0  0  0  0  0
  -20.7369   -8.0975   24.6324 C   0  0  0  0  0  0  0  0  0  0  0  0
  -19.5411   -7.4606   24.3007 C   0  0  0  0  0  0  0  0  0  0  0  0
  -26.0741  -26.3449   22.4036 C   0  0  0  0  0  0  0  0  0  0  0  0
  -30.7155  -21.8146   23.4119 C   0  0  0  0  0  0  0  0  0  0  0  0
  -20.7031   -5.3462   24.1718 C   0  0  0  0  0  0  0  0  0  0  0  0
  -24.4558  -10.9926   22.5349 C   0  0  0  0  0  0  0  0  0  0  0  0
  -24.1679  -13.0773   21.0932 C   0  0  0  0  0  0  0  0  0  0  0  0
  -26.7756  -33.3933   15.4233 C   0  0  0  0  0  0  0  0  0  0  0  0
  -26.1305  -28.5976   21.5049 C   0  0  0  0  0  0  0  0  0  0  0  0
  -25.8721  -32.6234   16.1806 C   0  0  0  0  0  0  0  0  0  0  0  0
  -31.1933  -19.4653   23.7112 C   0  0  0  0  0  0  0  0  0  0  0  0
  -26.0730  -27.2085   21.3050 C   0  0  0  0  0  0  0  0  0  0  0  0
  -31.4381  -20.6744   23.0603 C   0  0  0  0  0  0  0  0  0  0  0  0
  -29.7481  -21.7455   24.4145 C   0  0  0  0  0  0  0  0  0  0  0  0
  -23.5460   -8.9760   24.2344 C   0  0  0  0  0  0  0  0  0  0  0  0
  -26.1418  -26.8640   23.6966 C   0  0  0  0  0  0  0  0  0  0  0  0
  -21.9158   -7.3588   24.7337 C   0  0  0  0  0  0  0  0  0  0  0  0
  -19.5242   -6.0849   24.0704 C   0  0  0  0  0  0  0  0  0  0  0  0
  -21.8989   -5.9832   24.5034 C   0  0  0  0  0  0  0  0  0  0  0  0
  -24.9263  -12.0343   21.6577 C   0  0  0  0  0  0  0  0  0  0  0  0
  -25.0705  -13.7915   20.3438 C   0  0  0  0  0  0  0  0  0  0  0  0
  -22.7722  -13.3741   21.2337 C   0  0  0  0  0  0  0  0  0  0  0  0
  -26.0628  -29.3195   17.8239 C   0  0  0  0  0  0  0  0  0  0  0  0
  -27.8899  -26.8876   18.2215 C   0  0  0  0  0  0  0  0  0  0  0  0
  -30.1532  -24.5017   19.1283 C   0  0  0  0  0  0  0  0  0  0  0  0
  -31.0110  -14.4666   20.6696 C   0  0  0  0  0  0  0  0  0  0  0  0
  -27.7274  -32.7596   14.4398 C   0  0  0  0  0  0  0  0  0  0  0  0
  -26.0520  -29.4963   20.3008 C   0  0  0  0  0  0  0  0  0  0  0  0
  -25.9826  -26.7023   19.8914 C   0  0  0  0  0  0  0  0  0  0  0  0
  -27.9256  -31.2625   14.6622 C   0  0  0  0  0  0  0  0  0  0  0  0
  -29.1420  -13.2680   17.8862 C   0  0  0  0  0  0  0  0  0  0  0  0
  -32.1581  -17.2225   24.5144 C   0  0  0  0  0  0  0  0  0  0  0  0
  -26.5816  -30.5705   14.8662 C   0  0  0  0  0  0  0  0  0  0  0  0
  -27.7812  -12.9100   18.4862 C   0  0  0  0  0  0  0  0  0  0  0  0
  -31.4668  -15.9325   24.0814 C   0  0  0  0  0  0  0  0  0  0  0  0
  -31.2888  -17.4110   22.2216 C   0  0  0  0  0  0  0  0  0  0  0  0
  -30.2842  -12.9518   18.8492 C   0  0  0  0  0  0  0  0  0  0  0  0
  -28.7854  -13.1905   20.7909 C   0  0  0  0  0  0  0  0  0  0  0  0
  -31.9644  -18.2161   23.3484 C   0  0  1  0  0  0  0  0  0  0  0  0
  -25.8655  -31.1118   16.1094 C   0  0  1  0  0  0  0  0  0  0  0  0
  -26.7924  -28.9302   19.0759 C   0  0  1  0  0  0  0  0  0  0  0  0
  -27.5982  -13.5433   19.8786 C   0  0  2  0  0  0  0  0  0  0  0  0
  -31.5947  -15.9581   22.5653 C   0  0  2  0  0  0  0  0  0  0  0  0
  -32.4699  -20.7727   21.9850 C   0  0  0  0  0  0  0  0  0  0  0  0
  -31.8171  -22.8942   18.1561 C   0  0  0  0  0  0  0  0  0  0  0  0
  -25.6091  -25.0587   17.3516 C   0  0  0  0  0  0  0  0  0  0  0  0
  -27.2449  -23.1642   17.2935 C   0  0  0  0  0  0  0  0  0  0  0  0
  -27.5530  -25.1226   15.7795 C   0  0  0  0  0  0  0  0  0  0  0  0
  -32.4020  -25.7782   20.5680 C   0  0  0  0  0  0  0  0  0  0  0  0
  -27.3708  -24.2769   25.8833 C   0  0  0  0  0  0  0  0  0  0  0  0
  -28.0113  -22.8976   25.7863 C   0  0  0  0  0  0  0  0  0  0  0  0
  -26.7450  -24.7360   24.5715 C   0  0  0  0  0  0  0  0  0  1  0  0
  -28.0065  -25.3847   18.2529 C   0  0  1  0  0  0  0  0  0  0  0  0
  -31.6025  -24.2854   18.7319 C   0  0  2  0  0  0  0  0  0  0  0  0
  -27.0996  -24.6977   17.1932 C   0  0  0  0  0  0  0  0  0  0  0  0
  -26.2118  -12.0782   21.2976 N   0  0  0  0  0  0  0  0  0  0  0  0
  -26.2680  -13.1574   20.4987 N   0  0  0  0  0  0  0  0  0  0  0  0
  -26.8984  -27.4621   19.0261 N   0  0  0  0  0  0  0  0  0  0  0  0
  -30.0504  -13.5831   20.1502 N   0  0  0  0  0  0  0  0  0  0  0  0
  -24.9488  -14.8938   19.5740 N   0  0  0  0  0  0  0  0  0  0  0  0
  -21.9893  -12.5379   22.0413 N   0  0  0  0  0  0  0  0  0  0  0  0
  -29.0292  -22.8781   24.7636 N   0  0  0  0  0  0  0  0  0  0  0  0
  -26.4406  -30.5456   17.3107 N   0  0  0  0  0  0  0  0  0  0  0  0
  -29.4265  -25.0823   18.1104 N   0  0  0  0  0  0  0  0  0  0  0  0
  -30.7082  -15.0261   21.9049 N   0  0  0  0  0  0  0  0  0  0  0  0
  -32.4930  -24.4464   19.9160 N   0  3  0  0  0  0  0  0  0  0  0  0
  -22.2319  -14.3423   20.6470 O   0  0  0  0  0  0  0  0  0  0  0  0
  -25.2198  -28.5631   17.3559 O   0  0  0  0  0  0  0  0  0  0  0  0
  -28.6522  -27.5367   17.4998 O   0  0  0  0  0  0  0  0  0  0  0  0
  -29.7092  -24.1838   20.2293 O   0  0  0  0  0  0  0  0  0  0  0  0
  -32.0583  -14.7409   20.0738 O   0  0  0  0  0  0  0  0  0  0  0  0
  -23.1020   -7.9925   25.0639 O   0  0  0  0  0  0  0  0  0  0  0  0
  -26.1598  -26.0226   24.7674 O   0  0  0  0  0  0  0  0  0  1  0  0
  -18.3755   -5.4732   23.7533 F   0  0  0  0  0  0  0  0  0  0  0  0
  -23.0280   -5.2680   24.6005 F   0  0  0  0  0  0  0  0  0  0  0  0
  1  2  1  0  0  0  0
  1  5  2  0  0  0  0
  2  6  2  0  0  0  0
  3 10  2  0  0  0  0
  3 18  1  0  0  0  0
  4 11  1  0  0  0  0
  4 18  2  0  0  0  0
  5 20  1  0  0  0  0
  6 22  1  0  0  0  0
  7  9  2  0  0  0  0
  7 23  1  0  0  0  0
  8 12  2  0  0  0  0
  8 21  1  0  0  0  0
  9 26  1  0  0  0  0
 10 27  1  0  0  0  0
 11 27  2  0  0  0  0
 12 28  1  0  0  0  0
 13 14  2  0  0  0  0
 13 29  1  0  0  0  0
 14 30  1  0  0  0  0
 15 24  1  0  0  0  0
 15 28  2  0  0  0  0
 16 25  1  0  0  0  0
 16 26  2  0  0  0  0
 17 30  2  0  0  0  0
 17 31  1  0  0  0  0
 18 32  1  0  0  0  0
 19 32  1  0  0  0  0
 19 33  2  0  0  0  0
 19 34  1  0  0  0  0
 20 22  2  0  0  0  0
 20 39  1  0  0  0  0
 21 24  2  0  0  0  0
 21 40  1  0  0  0  0
 22 52  1  0  0  0  0
 23 25  2  0  0  0  0
 23 51  1  0  0  0  0
 24 41  1  0  0  0  0
 25 56  1  0  0  0  0
 26 74  1  0  0  0  0
 27 84  1  0  0  0  0
 28 85  1  0  0  0  0
 29 31  2  0  0  0  0
 29 84  1  0  0  0  0
 30 86  1  0  0  0  0
 31 87  1  0  0  0  0
 32 68  2  0  0  0  0
 33 69  1  0  0  0  0
 33 72  1  0  0  0  0
 34 73  1  0  0  0  0
 34 79  2  0  0  0  0
 35 53  1  0  0  0  0
 35 75  1  0  0  0  0
 35 80  2  0  0  0  0
 36 65  1  0  0  0  0
 36 70  1  0  0  0  0
 36 81  2  0  0  0  0
 37 66  1  0  0  0  0
 37 76  1  0  0  0  0
 37 82  2  0  0  0  0
 38 71  1  0  0  0  0
 38 77  1  0  0  0  0
 38 83  2  0  0  0  0
 39 42  1  0  0  0  0
 40 53  1  0  0  0  0
 41 70  1  0  0  0  0
 42 45  1  0  0  0  0
 43 46  1  0  0  0  0
 43 49  1  0  0  0  0
 44 47  1  0  0  0  0
 44 51  1  0  0  0  0
 45 52  1  0  0  0  0
 46 54  1  0  0  0  0
 47 55  1  0  0  0  0
 48 51  1  0  0  0  0
 48 55  1  0  0  0  0
 49 71  1  0  0  0  0
 50 54  1  0  0  0  0
 50 71  1  0  0  0  0
 52 75  1  0  0  0  0
 53 70  1  0  0  0  0
 54 69  1  0  0  0  0
 55 77  1  0  0  0  0
 57 66  1  0  0  0  0
 58 67  1  0  0  0  0
 59 67  1  0  0  0  0
 60 67  1  0  0  0  0
 61 78  1  0  0  0  0
 62 63  1  0  0  0  0
 62 64  1  0  0  0  0
 63 74  1  0  0  0  0
 64 85  1  0  0  0  0
 65 67  1  0  0  0  0
 65 76  1  0  0  0  0
 66 78  1  0  0  0  0
 68 69  1  0  0  0  0
M  CHG  1  78   1
M  ISO  4  38 100  64 101  77 100  85 101
M  END
> <Batch ID>
0133

> <Smiles>
CNC(C)C(=O)NC(C(=O)N1Cc2cc([101O:1][101CH2:1]CCNc3ccc(C4CCC([100NH:0][100C:0](=O)N5CCCC(n6nc(-c7ccc(Oc8ccc(F)cc8F)cc7)c(C(N)=O)c6N)C5)C4)c(C)c3)ccc2CC1C(=O)NC1CCCc2ccccc21)C(C)(C)C

> <Shape>
0.199

> <Color>
0.133

> <Negative vol penalty>
0.000

$$$$

  -OEChem-04052320553D

 86 95  0     1  0  0  0  0  0999 V2000
  -21.7202  -35.4991   23.0885 C   0  0  0  0  0  0  0  0  0  0  0  0
  -22.6695  -34.7523   22.3983 C   0  0  0  0  0  0  0  0  0  0  0  0
  -24.8399   -8.8230   21.6419 C   0  0  0  0  0  0  0  0  0  0  0  0
  -23.1746  -10.4441   20.9818 C   0  0  0  0  0  0  0  0  0  0  0  0
  -21.0002  -34.9170   24.1309 C   0  0  0  0  0  0  0  0  0  0  0  0
  -22.9003  -33.4230   22.7510 C   0  0  0  0  0  0  0  0  0  0  0  0
  -24.3540  -28.8151   18.9881 C   0  0  0  0  0  0  0  0  0  0  0  0
  -30.2157  -21.6761   17.6699 C   0  0  0  0  0  0  0  0  0  0  0  0
  -23.8667   -7.8238   21.6435 C   0  0  0  0  0  0  0  0  0  0  0  0
  -22.2013   -9.4449   20.9833 C   0  0  0  0  0  0  0  0  0  0  0  0
  -25.5714  -28.2191   18.6617 C   0  0  0  0  0  0  0  0  0  0  0  0
  -29.5824  -22.8719   17.3346 C   0  0  0  0  0  0  0  0  0  0  0  0
  -21.3843   -6.7685   23.6802 C   0  0  0  0  0  0  0  0  0  0  0  0
  -21.3638   -5.8864   24.7605 C   0  0  0  0  0  0  0  0  0  0  0  0
  -25.1673  -26.5048   20.3100 C   0  0  0  0  0  0  0  0  0  0  0  0
  -27.5625  -22.0882   18.3911 C   0  0  0  0  0  0  0  0  0  0  0  0
  -21.7285   -4.0330   23.2542 C   0  0  0  0  0  0  0  0  0  0  0  0
  -24.4938  -10.1332   21.3111 C   0  0  0  0  0  0  0  0  0  0  0  0
  -26.6682  -11.2131   20.5278 C   0  0  0  0  0  0  0  0  0  0  0  0
  -21.2153  -33.5771   24.4902 C   0  0  0  0  0  0  0  0  0  0  0  0
  -23.5378  -28.2656   19.9872 C   0  0  0  0  0  0  0  0  0  0  0  0
  -29.5276  -20.6673   18.3642 C   0  0  0  0  0  0  0  0  0  0  0  0
  -22.1834  -32.8228   23.8000 C   0  0  0  0  0  0  0  0  0  0  0  0
  -23.9388  -27.0943   20.6455 C   0  0  0  0  0  0  0  0  0  0  0  0
  -28.1862  -20.8753   18.7326 C   0  0  0  0  0  0  0  0  0  0  0  0
  -22.5474   -8.1347   21.3142 C   0  0  0  0  0  0  0  0  0  0  0  0
  -25.9796  -27.0655   19.3246 C   0  0  0  0  0  0  0  0  0  0  0  0
  -28.2558  -23.0785   17.6965 C   0  0  0  0  0  0  0  0  0  0  0  0
  -21.5767   -6.2828   22.3868 C   0  0  0  0  0  0  0  0  0  0  0  0
  -21.5360   -4.5187   24.5475 C   0  0  0  0  0  0  0  0  0  0  0  0
  -21.7488   -4.9151   22.1738 C   0  0  0  0  0  0  0  0  0  0  0  0
  -25.4986  -11.1659   21.3099 C   0  0  0  0  0  0  0  0  0  0  0  0
  -27.2798  -12.3867   20.8952 C   0  0  0  0  0  0  0  0  0  0  0  0
  -27.1579  -10.2796   19.5560 C   0  0  0  0  0  0  0  0  0  0  0  0
  -22.4375  -29.2769   22.7926 C   0  0  0  0  0  0  0  0  0  0  0  0
  -20.7690  -26.4966   22.7005 C   0  0  0  0  0  0  0  0  0  0  0  0
  -20.5045  -23.3151   21.4943 C   0  0  0  0  0  0  0  0  0  0  0  0
  -27.0405  -17.8329   22.0901 C   0  0  0  0  0  0  0  0  0  0  0  0
  -20.4464  -33.0053   25.6548 C   0  0  0  0  0  0  0  0  0  0  0  0
  -22.2151  -28.9055   20.3090 C   0  0  0  0  0  0  0  0  0  0  0  0
  -30.2797  -19.4208   18.7502 C   0  0  0  0  0  0  0  0  0  0  0  0
  -23.0896  -26.4534   21.7116 C   0  0  0  0  0  0  0  0  0  0  0  0
  -20.4847  -31.4807   25.7204 C   0  0  0  0  0  0  0  0  0  0  0  0
  -26.3063  -15.5492   24.7211 C   0  0  0  0  0  0  0  0  0  0  0  0
  -21.9089  -30.9733   25.5175 C   0  0  0  0  0  0  0  0  0  0  0  0
  -26.1212  -14.2112   24.0031 C   0  0  0  0  0  0  0  0  0  0  0  0
  -25.7647  -16.7131   23.8942 C   0  0  0  0  0  0  0  0  0  0  0  0
  -26.1081  -15.4572   21.8017 C   0  0  0  0  0  0  0  0  0  0  0  0
  -27.3849  -19.8092   19.4611 C   0  0  2  0  0  0  0  0  0  0  0  0
  -22.4446  -31.3707   24.1367 C   0  0  1  0  0  0  0  0  0  0  0  0
  -21.7028  -28.5507   21.7015 C   0  0  1  0  0  0  0  0  0  0  0  0
  -26.6897  -14.2594   22.5721 C   0  0  2  0  0  0  0  0  0  0  0  0
  -28.3104  -18.8154   20.1976 C   0  0  2  0  0  0  0  0  0  0  0  0
  -29.4039  -18.2780   19.2672 C   0  0  2  0  0  0  0  0  0  0  0  0
  -26.4253  -19.1289   18.4712 C   0  0  0  0  0  0  0  0  0  0  0  0
  -19.0532  -21.2722   21.6276 C   0  0  0  0  0  0  0  0  0  0  0  0
  -21.9291  -25.8547   25.4486 C   0  0  0  0  0  0  0  0  0  0  0  0
  -21.2382  -23.4727   25.1069 C   0  0  0  0  0  0  0  0  0  0  0  0
  -19.5124  -25.2726   25.1746 C   0  0  0  0  0  0  0  0  0  0  0  0
  -19.9037  -23.4109   18.5980 C   0  0  0  0  0  0  0  0  0  0  0  0
  -27.6263  -26.6293   17.6652 C   0  0  0  0  0  0  0  0  0  1  0  0
  -28.4495  -25.4132   17.2869 C   0  0  0  0  0  0  0  0  0  0  0  0
  -21.0246  -25.0807   23.1576 C   0  0  1  0  0  0  0  0  0  0  0  0
  -19.3370  -22.5650   20.8788 C   0  0  2  0  0  0  0  0  0  0  0  0
  -20.9432  -24.9331   24.7032 C   0  0  0  0  0  0  0  0  0  0  0  0
  -25.3727  -12.2252   22.1136 N   0  0  0  0  0  0  0  0  0  0  0  0
  -26.4711  -12.9491   21.8385 N   0  0  0  0  0  0  0  0  0  0  0  0
  -21.8079  -27.1200   21.9949 N   0  0  0  0  0  0  0  0  0  0  0  0
  -26.3443  -16.7025   22.5489 N   0  0  0  0  0  0  0  0  0  0  0  0
  -28.4252  -12.9822   20.5002 N   0  0  0  0  0  0  0  0  0  0  0  0
  -26.7707  -10.4422   18.2188 N   0  0  0  0  0  0  0  0  0  0  0  0
  -21.8955  -30.5068   23.1137 N   0  0  0  0  0  0  0  0  0  0  0  0
  -20.0831  -24.2395   22.4266 N   0  0  0  0  0  0  0  0  0  0  0  0
  -27.5636  -17.7371   20.8063 N   0  0  0  0  0  0  0  0  0  0  0  0
  -19.6287  -22.2299   19.4563 N   0  3  0  0  0  0  0  0  0  0  0  0
  -27.9032   -9.3197   19.8668 O   0  0  0  0  0  0  0  0  0  0  0  0
  -23.4221  -28.7590   23.3063 O   0  0  0  0  0  0  0  0  0  0  0  0
  -19.6846  -27.0274   22.9538 O   0  0  0  0  0  0  0  0  0  0  0  0
  -21.6735  -23.0997   21.1822 O   0  0  0  0  0  0  0  0  0  0  0  0
  -27.1899  -18.8499   22.7758 O   0  0  0  0  0  0  0  0  0  0  0  0
  -30.2529  -17.3751   19.9737 O   0  0  0  0  0  0  0  0  0  0  0  0
  -21.5975   -7.1599   21.3154 O   0  0  0  0  0  0  0  0  0  0  0  0
  -27.1676  -26.4821   19.0084 O   0  0  0  0  0  0  0  0  0  1  0  0
  -27.6305  -24.2533   17.3709 O   0  0  0  0  0  0  0  0  0  0  0  0
  -21.5179   -3.6719   25.5852 F   0  0  0  0  0  0  0  0  0  0  0  0
  -21.9353   -4.4428   20.9337 F   0  0  0  0  0  0  0  0  0  0  0  0
  1  2  1  0  0  0  0
  1  5  2  0  0  0  0
  2  6  2  0  0  0  0
  3  9  2  0  0  0  0
  3 18  1  0  0  0  0
  4 10  1  0  0  0  0
  4 18  2  0  0  0  0
  5 20  1  0  0  0  0
  6 23  1  0  0  0  0
  7 11  2  0  0  0  0
  7 21  1  0  0  0  0
  8 12  2  0  0  0  0
  8 22  1  0  0  0  0
  9 26  1  0  0  0  0
 10 26  2  0  0  0  0
 11 27  1  0  0  0  0
 12 28  1  0  0  0  0
 13 14  2  0  0  0  0
 13 29  1  0  0  0  0
 14 30  1  0  0  0  0
 15 24  1  0  0  0  0
 15 27  2  0  0  0  0
 16 25  1  0  0  0  0
 16 28  2  0  0  0  0
 17 30  2  0  0  0  0
 17 31  1  0  0  0  0
 18 32  1  0  0  0  0
 19 32  1  0  0  0  0
 19 33  2  0  0  0  0
 19 34  1  0  0  0  0
 20 23  2  0  0  0  0
 20 39  1  0  0  0  0
 21 24  2  0  0  0  0
 21 40  1  0  0  0  0
 22 25  2  0  0  0  0
 22 41  1  0  0  0  0
 23 50  1  0  0  0  0
 24 42  1  0  0  0  0
 25 49  1  0  0  0  0
 26 82  1  0  0  0  0
 27 83  1  0  0  0  0
 28 84  1  0  0  0  0
 29 31  2  0  0  0  0
 29 82  1  0  0  0  0
 30 85  1  0  0  0  0
 31 86  1  0  0  0  0
 32 66  2  0  0  0  0
 33 67  1  0  0  0  0
 33 70  1  0  0  0  0
 34 71  1  0  0  0  0
 34 76  2  0  0  0  0
 35 51  1  0  0  0  0
 35 72  1  0  0  0  0
 35 77  2  0  0  0  0
 36 63  1  0  0  0  0
 36 68  1  0  0  0  0
 36 78  2  0  0  0  0
 37 64  1  0  0  0  0
 37 73  1  0  0  0  0
 37 79  2  0  0  0  0
 38 69  1  0  0  0  0
 38 74  1  0  0  0  0
 38 80  2  0  0  0  0
 39 43  1  0  0  0  0
 40 51  1  0  0  0  0
 41 54  1  0  0  0  0
 42 68  1  0  0  0  0
 43 45  1  0  0  0  0
 44 46  1  0  0  0  0
 44 47  1  0  0  0  0
 45 50  1  0  0  0  0
 46 52  1  0  0  0  0
 47 69  1  0  0  0  0
 48 52  1  0  0  0  0
 48 69  1  0  0  0  0
 49 53  1  0  0  0  0
 49 55  1  0  0  0  0
 50 72  1  0  0  0  0
 51 68  1  0  0  0  0
 52 67  1  0  0  0  0
 53 54  1  0  0  0  0
 53 74  1  0  0  0  0
 54 81  1  0  0  0  0
 56 64  1  0  0  0  0
 57 65  1  0  0  0  0
 58 65  1  0  0  0  0
 59 65  1  0  0  0  0
 60 75  1  0  0  0  0
 61 62  1  0  0  0  0
 61 83  1  0  0  0  0
 62 84  1  0  0  0  0
 63 65  1  0  0  0  0
 63 73  1  0  0  0  0
 64 75  1  0  0  0  0
 66 67  1  0  0  0  0
M  CHG  1  75   1
M  ISO  4  38 100  61 101  74 100  83 101
M  END
> <Batch ID>
0133

> <Smiles>
CNC(C)C(=O)NC(C(=O)N1Cc2cc([101O:1][101CH2:1]COc3ccc4c(c3)C(C)C([100NH:0][100C:0](=O)N3CCCC(n5nc(-c6ccc(Oc7ccc(F)cc7F)cc6)c(C(N)=O)c5N)C3)C(O)C4)ccc2CC1C(=O)NC1CCCc2ccccc21)C(C)(C)C

> <Shape>
0.240

> <Color>
0.097

> <Negative vol penalty>
0.000

$$$$

  -OEChem-04052320553D

 88 97  0     1  0  0  0  0  0999 V2000
  -26.0860  -25.5807   15.7610 C   0  0  0  0  0  0  0  0  0  0  0  0
  -26.2353  -24.4118   16.5004 C   0  0  0  0  0  0  0  0  0  0  0  0
  -28.4466  -14.6656   26.3275 C   0  0  0  0  0  0  0  0  0  0  0  0
  -23.1412  -10.1870   22.1019 C   0  0  0  0  0  0  0  0  0  0  0  0
  -23.7818   -9.4712   19.8851 C   0  0  0  0  0  0  0  0  0  0  0  0
  -26.7686  -26.7359   16.1400 C   0  0  0  0  0  0  0  0  0  0  0  0
  -27.0683  -24.3970   17.6186 C   0  0  0  0  0  0  0  0  0  0  0  0
  -26.2410  -21.2119   22.7836 C   0  0  0  0  0  0  0  0  0  0  0  0
  -29.6832  -14.2307   25.8508 C   0  0  0  0  0  0  0  0  0  0  0  0
  -27.8229  -15.7686   25.7443 C   0  0  0  0  0  0  0  0  0  0  0  0
  -22.4004   -9.0165   22.2658 C   0  0  0  0  0  0  0  0  0  0  0  0
  -23.0410   -8.3007   20.0490 C   0  0  0  0  0  0  0  0  0  0  0  0
  -26.7660  -20.0011   23.2332 C   0  0  0  0  0  0  0  0  0  0  0  0
  -23.0007   -5.7708   22.9990 C   0  0  0  0  0  0  0  0  0  0  0  0
  -23.1293   -5.0861   24.2073 C   0  0  0  0  0  0  0  0  0  0  0  0
  -28.4635  -21.1993   24.4588 C   0  0  0  0  0  0  0  0  0  0  0  0
  -20.7644   -5.3638   24.6164 C   0  0  0  0  0  0  0  0  0  0  0  0
  -23.8318  -10.4144   20.9115 C   0  0  0  0  0  0  0  0  0  0  0  0
  -24.1171  -12.9463   20.7866 C   0  0  0  0  0  0  0  0  0  0  0  0
  -27.6028  -26.7379   17.2691 C   0  0  0  0  0  0  0  0  0  0  0  0
  -26.8309  -22.4271   23.1600 C   0  0  0  0  0  0  0  0  0  0  0  0
  -27.7637  -25.5529   18.0123 C   0  0  0  0  0  0  0  0  0  0  0  0
  -27.9425  -22.4242   24.0146 C   0  0  0  0  0  0  0  0  0  0  0  0
  -30.2963  -14.8990   24.7910 C   0  0  0  0  0  0  0  0  0  0  0  0
  -28.4360  -16.4368   24.6845 C   0  0  0  0  0  0  0  0  0  0  0  0
  -29.6727  -16.0020   24.2078 C   0  0  0  0  0  0  0  0  0  0  0  0
  -22.3503   -8.0734   21.2393 C   0  0  0  0  0  0  0  0  0  0  0  0
  -27.8792  -19.9946   24.0686 C   0  0  0  0  0  0  0  0  0  0  0  0
  -21.7540   -6.2521   22.5993 C   0  0  0  0  0  0  0  0  0  0  0  0
  -22.0112   -4.8825   25.0161 C   0  0  0  0  0  0  0  0  0  0  0  0
  -20.6358   -6.0486   23.4080 C   0  0  0  0  0  0  0  0  0  0  0  0
  -24.5968  -11.6235   20.7414 C   0  0  0  0  0  0  0  0  0  0  0  0
  -25.2292  -13.7224   20.5685 C   0  0  0  0  0  0  0  0  0  0  0  0
  -22.7855  -13.4302   21.0061 C   0  0  0  0  0  0  0  0  0  0  0  0
  -28.2329  -24.8173   21.6028 C   0  0  0  0  0  0  0  0  0  0  0  0
  -28.2539  -26.2003   24.5370 C   0  0  0  0  0  0  0  0  0  0  0  0
  -28.1900  -25.8059   27.9262 C   0  0  0  0  0  0  0  0  0  0  0  0
  -31.0801  -12.8011   21.4453 C   0  0  0  0  0  0  0  0  0  0  0  0
  -28.3570  -27.9981   17.6122 C   0  0  0  0  0  0  0  0  0  0  0  0
  -26.2363  -23.7256   22.6880 C   0  0  0  0  0  0  0  0  0  0  0  0
  -28.6005  -23.7023   24.4642 C   0  0  0  0  0  0  0  0  0  0  0  0
  -28.9278  -28.0000   19.0280 C   0  0  0  0  0  0  0  0  0  0  0  0
  -29.4813  -13.6404   18.3767 C   0  0  0  0  0  0  0  0  0  0  0  0
  -33.9672  -21.1821   23.6587 C   0  0  0  0  0  0  0  0  0  0  0  0
  -29.6247  -26.6759   19.3244 C   0  0  0  0  0  0  0  0  0  0  0  0
  -28.0049  -13.3380   18.6389 C   0  0  0  0  0  0  0  0  0  0  0  0
  -32.8631  -20.1598   23.8527 C   0  0  0  0  0  0  0  0  0  0  0  0
  -30.3955  -12.6330   19.0705 C   0  0  0  0  0  0  0  0  0  0  0  0
  -28.6807  -12.1719   20.7795 C   0  0  0  0  0  0  0  0  0  0  0  0
  -34.1290  -21.2335   22.1526 C   0  0  0  0  0  0  0  0  0  0  0  0
  -28.6388  -25.5039   19.2460 C   0  0  1  0  0  0  0  0  0  0  0  0
  -27.2291  -24.8835   22.7189 C   0  0  1  0  0  0  0  0  0  0  0  0
  -27.7211  -13.1938   20.1462 C   0  0  2  0  0  0  0  0  0  0  0  0
  -33.2338  -19.0718   22.8557 C   0  0  1  0  0  0  0  0  0  0  0  0
  -28.2581  -27.1187   30.0638 C   0  0  0  0  0  0  0  0  0  0  0  0
  -31.2538  -26.6259   24.1771 C   0  0  0  0  0  0  0  0  0  0  0  0
  -31.4196  -27.0426   26.6402 C   0  0  0  0  0  0  0  0  0  0  0  0
  -30.0431  -28.5545   25.2112 C   0  0  0  0  0  0  0  0  0  0  0  0
  -25.5218  -24.8249   28.7495 C   0  0  0  0  0  0  0  0  0  0  0  0
  -31.6205  -14.4129   24.2991 C   0  0  0  0  0  0  0  0  0  0  0  0
  -30.3301  -16.7186   23.0714 C   0  0  0  0  0  0  0  0  0  0  0  0
  -27.7438  -17.6202   24.0747 C   0  0  0  0  0  0  0  0  0  1  0  0
  -32.0629  -18.2319   22.3875 C   0  0  0  0  0  0  0  0  0  0  0  0
  -31.6101  -12.9431   23.8657 C   0  0  0  0  0  0  0  0  0  0  0  0
  -29.2119  -26.2181   25.7036 C   0  0  1  0  0  0  0  0  0  0  0  0
  -27.3676  -26.4883   29.0044 C   0  0  2  0  0  0  0  0  0  0  0  0
  -30.4711  -27.0860   25.4232 C   0  0  0  0  0  0  0  0  0  0  0  0
  -25.9111  -11.5591   20.5125 N   0  0  0  0  0  0  0  0  0  0  0  0
  -26.2668  -12.8512   20.4117 N   0  0  0  0  0  0  0  0  0  0  0  0
  -27.9860  -24.9459   23.9708 N   0  0  0  0  0  0  0  0  0  0  0  0
  -30.0757  -12.5450   20.4974 N   0  0  0  0  0  0  0  0  0  0  0  0
  -25.4109  -15.0582   20.4973 N   0  0  0  0  0  0  0  0  0  0  0  0
  -21.7610  -12.4966   21.2136 N   0  0  0  0  0  0  0  0  0  0  0  0
  -27.8258  -25.4465   20.4418 N   0  0  0  0  0  0  0  0  0  0  0  0
  -28.4362  -26.6475   26.8622 N   0  0  0  0  0  0  0  0  0  0  0  0
  -30.6911  -12.7023   22.7756 N   0  0  0  0  0  0  0  0  0  0  0  0
  -31.4234  -17.5455   23.5100 N   0  0  0  0  0  0  0  0  0  0  0  0
  -33.8225  -19.8345   21.6968 N   0  3  0  0  0  0  0  0  0  0  0  0
  -26.4686  -25.5042   29.6710 N   0  3  0  0  0  0  0  0  0  0  0  0
  -22.5093  -14.6538   21.0016 O   0  0  0  0  0  0  0  0  0  0  0  0
  -29.2986  -24.2395   21.7822 O   0  0  0  0  0  0  0  0  0  0  0  0
  -27.7560  -27.2593   24.1471 O   0  0  0  0  0  0  0  0  0  0  0  0
  -28.5785  -24.6437   28.0204 O   0  0  0  0  0  0  0  0  0  0  0  0
  -32.2365  -13.1012   21.1295 O   0  0  0  0  0  0  0  0  0  0  0  0
  -21.6278   -6.9310   21.3990 O   0  0  0  0  0  0  0  0  0  0  0  0
  -28.3940  -18.8142   24.5084 O   0  0  0  0  0  0  0  0  0  1  0  0
  -22.1346   -4.2236   26.1757 F   0  0  0  0  0  0  0  0  0  0  0  0
  -19.4353   -6.5076   23.0288 F   0  0  0  0  0  0  0  0  0  0  0  0
  1  2  1  0  0  0  0
  1  6  2  0  0  0  0
  2  7  2  0  0  0  0
  3  9  1  0  0  0  0
  3 10  2  0  0  0  0
  4 11  2  0  0  0  0
  4 18  1  0  0  0  0
  5 12  1  0  0  0  0
  5 18  2  0  0  0  0
  6 20  1  0  0  0  0
  7 22  1  0  0  0  0
  8 13  2  0  0  0  0
  8 21  1  0  0  0  0
  9 24  2  0  0  0  0
 10 25  1  0  0  0  0
 11 27  1  0  0  0  0
 12 27  2  0  0  0  0
 13 28  1  0  0  0  0
 14 15  2  0  0  0  0
 14 29  1  0  0  0  0
 15 30  1  0  0  0  0
 16 23  1  0  0  0  0
 16 28  2  0  0  0  0
 17 30  2  0  0  0  0
 17 31  1  0  0  0  0
 18 32  1  0  0  0  0
 19 32  1  0  0  0  0
 19 33  2  0  0  0  0
 19 34  1  0  0  0  0
 20 22  2  0  0  0  0
 20 39  1  0  0  0  0
 21 23  2  0  0  0  0
 21 40  1  0  0  0  0
 22 51  1  0  0  0  0
 23 41  1  0  0  0  0
 24 26  1  0  0  0  0
 24 60  1  0  0  0  0
 25 26  2  0  0  0  0
 25 62  1  0  0  0  0
 26 61  1  0  0  0  0
 27 85  1  0  0  0  0
 28 86  1  0  0  0  0
 29 31  2  0  0  0  0
 29 85  1  0  0  0  0
 30 87  1  0  0  0  0
 31 88  1  0  0  0  0
 32 68  2  0  0  0  0
 33 69  1  0  0  0  0
 33 72  1  0  0  0  0
 34 73  1  0  0  0  0
 34 80  2  0  0  0  0
 35 52  1  0  0  0  0
 35 74  1  0  0  0  0
 35 81  2  0  0  0  0
 36 65  1  0  0  0  0
 36 70  1  0  0  0  0
 36 82  2  0  0  0  0
 37 66  1  0  0  0  0
 37 75  1  0  0  0  0
 37 83  2  0  0  0  0
 38 71  1  0  0  0  0
 38 76  1  0  0  0  0
 38 84  2  0  0  0  0
 39 42  1  0  0  0  0
 40 52  1  0  0  0  0
 41 70  1  0  0  0  0
 42 45  1  0  0  0  0
 43 46  1  0  0  0  0
 43 48  1  0  0  0  0
 44 47  1  0  0  0  0
 44 50  1  0  0  0  0
 45 51  1  0  0  0  0
 46 53  1  0  0  0  0
 47 54  1  0  0  0  0
 48 71  1  0  0  0  0
 49 53  1  0  0  0  0
 49 71  1  0  0  0  0
 50 78  1  0  0  0  0
 51 74  1  0  0  0  0
 52 70  1  0  0  0  0
 53 69  1  0  0  0  0
 54 63  1  0  0  0  0
 54 78  1  0  0  0  0
 55 66  1  0  0  0  0
 56 67  1  0  0  0  0
 57 67  1  0  0  0  0
 58 67  1  0  0  0  0
 59 79  1  0  0  0  0
 60 64  1  0  0  0  0
 61 77  1  0  0  0  0
 62 86  1  0  0  0  0
 63 77  1  0  0  0  0
 64 76  1  0  0  0  0
 65 67  1  0  0  0  0
 65 75  1  0  0  0  0
 66 79  1  0  0  0  0
 68 69  1  0  0  0  0
M  CHG  2  78   1  79   1
M  ISO  4  38 100  62 101  76 100  86 101
M  END
> <Batch ID>
0133

> <Smiles>
CNC(C)C(=O)NC(C(=O)N1Cc2cc([101O:1][101CH2:1]c3cccc(CC[100NH:0][100C:0](=O)N4CCCC(n5nc(-c6ccc(Oc7ccc(F)cc7F)cc6)c(C(N)=O)c5N)C4)c3CNCC3CCCN3)ccc2CC1C(=O)NC1CCCc2ccccc21)C(C)(C)C

> <Shape>
0.171

> <Color>
0.180

> <Negative vol penalty>
0.000

$$$$

  -OEChem-04052320553D

 80 88  0     1  0  0  0  0  0999 V2000
  -29.3943  -34.3631   25.1012 C   0  0  0  0  0  0  0  0  0  0  0  0
  -29.8932  -33.6637   24.0070 C   0  0  0  0  0  0  0  0  0  0  0  0
  -23.9245   -9.6533   22.3637 C   0  0  0  0  0  0  0  0  0  0  0  0
  -23.6478  -11.8278   23.3794 C   0  0  0  0  0  0  0  0  0  0  0  0
  -28.4622  -33.7615   25.9456 C   0  0  0  0  0  0  0  0  0  0  0  0
  -29.4610  -32.3616   23.7572 C   0  0  0  0  0  0  0  0  0  0  0  0
  -28.1449  -27.8580   18.3442 C   0  0  0  0  0  0  0  0  0  0  0  0
  -23.3392   -9.0570   23.4806 C   0  0  0  0  0  0  0  0  0  0  0  0
  -23.0624  -11.2316   24.4963 C   0  0  0  0  0  0  0  0  0  0  0  0
  -28.4651  -26.5721   17.9108 C   0  0  0  0  0  0  0  0  0  0  0  0
  -20.2236   -8.5856   24.7069 C   0  0  0  0  0  0  0  0  0  0  0  0
  -19.2637   -7.5979   24.4861 C   0  0  0  0  0  0  0  0  0  0  0  0
  -26.7921  -25.6629   19.3920 C   0  0  0  0  0  0  0  0  0  0  0  0
  -20.6263   -6.0051   25.6874 C   0  0  0  0  0  0  0  0  0  0  0  0
  -24.0789  -11.0387   22.3131 C   0  0  0  0  0  0  0  0  0  0  0  0
  -24.0308  -12.1139   20.0002 C   0  0  0  0  0  0  0  0  0  0  0  0
  -28.0110  -32.4550   25.7005 C   0  0  0  0  0  0  0  0  0  0  0  0
  -27.1518  -28.0555   19.3143 C   0  0  0  0  0  0  0  0  0  0  0  0
  -28.5229  -31.7415   24.5999 C   0  0  0  0  0  0  0  0  0  0  0  0
  -26.4595  -26.9525   19.8341 C   0  0  0  0  0  0  0  0  0  0  0  0
  -22.9081   -9.8462   24.5469 C   0  0  0  0  0  0  0  0  0  0  0  0
  -27.7907  -25.4741   18.4368 C   0  0  0  0  0  0  0  0  0  0  0  0
  -21.3849   -8.2830   25.4178 C   0  0  0  0  0  0  0  0  0  0  0  0
  -19.4650   -6.3077   24.9764 C   0  0  0  0  0  0  0  0  0  0  0  0
  -21.5863   -6.9927   25.9081 C   0  0  0  0  0  0  0  0  0  0  0  0
  -24.6840  -11.6551   21.1599 C   0  0  0  0  0  0  0  0  0  0  0  0
  -25.0396  -12.6113   19.2120 C   0  0  0  0  0  0  0  0  0  0  0  0
  -22.6368  -12.0923   19.6655 C   0  0  0  0  0  0  0  0  0  0  0  0
  -27.0940  -29.2746   22.2493 C   0  0  0  0  0  0  0  0  0  0  0  0
  -23.8930  -28.8484   21.9428 C   0  0  0  0  0  0  0  0  0  0  0  0
  -21.3228  -27.1872   20.4323 C   0  0  0  0  0  0  0  0  0  0  0  0
  -30.4815  -14.7842   20.4432 C   0  0  0  0  0  0  0  0  0  0  0  0
  -27.0380  -31.8294   26.6683 C   0  0  0  0  0  0  0  0  0  0  0  0
  -26.7997  -29.4509   19.7516 C   0  0  0  0  0  0  0  0  0  0  0  0
  -25.3711  -27.1123   20.8628 C   0  0  0  0  0  0  0  0  0  0  0  0
  -26.3502  -30.5819   26.1196 C   0  0  0  0  0  0  0  0  0  0  0  0
  -29.7027  -12.0494   18.3006 C   0  0  0  0  0  0  0  0  0  0  0  0
  -27.3699  -29.6530   25.4684 C   0  0  0  0  0  0  0  0  0  0  0  0
  -28.2693  -11.6796   18.6858 C   0  0  0  0  0  0  0  0  0  0  0  0
  -28.8406  -20.8644   19.5929 C   0  0  0  0  0  0  0  0  0  0  0  0
  -30.5182  -12.4878   19.5151 C   0  0  0  0  0  0  0  0  0  0  0  0
  -28.4762  -13.1997   20.6971 C   0  0  0  0  0  0  0  0  0  0  0  0
  -31.1148  -21.5487   19.6066 C   0  0  0  0  0  0  0  0  0  0  0  0
  -28.0599  -30.3364   24.2817 C   0  0  1  0  0  0  0  0  0  0  0  0
  -26.1275  -29.4964   21.1204 C   0  0  1  0  0  0  0  0  0  0  0  0
  -27.5987  -12.8045   19.4970 C   0  0  2  0  0  0  0  0  0  0  0  0
  -30.2542  -20.2987   19.5312 C   0  0  1  0  0  0  0  0  0  0  0  0
  -28.9211  -22.0588   18.6498 C   0  0  1  0  0  0  0  0  0  0  0  0
  -18.8184  -27.0300   20.4158 C   0  0  0  0  0  0  0  0  0  0  0  0
  -23.9761  -27.2877   24.5633 C   0  0  0  0  0  0  0  0  0  0  0  0
  -21.7119  -26.3737   24.0101 C   0  0  0  0  0  0  0  0  0  0  0  0
  -22.0204  -28.8286   24.3284 C   0  0  0  0  0  0  0  0  0  0  0  0
  -21.1755  -27.9874   17.5868 C   0  0  0  0  0  0  0  0  0  0  0  0
  -27.9238  -23.1564   18.9530 C   0  0  0  0  0  0  0  0  0  1  0  0
  -30.2888  -17.0597   21.4150 C   0  0  0  0  0  0  0  0  0  0  0  0
  -29.9651  -18.0433   20.2995 C   0  0  0  0  0  0  0  0  0  0  0  0
  -22.9303  -27.7251   22.2436 C   0  0  1  0  0  0  0  0  0  0  0  0
  -20.0402  -27.6854   19.7910 C   0  0  2  0  0  0  0  0  0  0  0  0
  -22.6815  -27.5503   23.7684 C   0  0  0  0  0  0  0  0  0  0  0  0
  -26.0055  -11.8442   21.1163 N   0  0  0  0  0  0  0  0  0  0  0  0
  -26.1909  -12.4272   19.9197 N   0  0  0  0  0  0  0  0  0  0  0  0
  -25.0676  -28.4962   21.2631 N   0  0  0  0  0  0  0  0  0  0  0  0
  -29.8280  -13.5577   20.2396 N   0  0  0  0  0  0  0  0  0  0  0  0
  -25.0453  -13.1839   17.9895 N   0  0  0  0  0  0  0  0  0  0  0  0
  -21.7362  -11.5453   20.5896 N   0  0  0  0  0  0  0  0  0  0  0  0
  -27.1904  -30.3393   23.1248 N   0  0  0  0  0  0  0  0  0  0  0  0
  -21.7252  -28.0019   21.4694 N   0  0  0  0  0  0  0  0  0  0  0  0
  -29.7541  -15.7461   21.1335 N   0  0  0  0  0  0  0  0  0  0  0  0
  -30.5288  -19.3536   20.6005 N   0  0  0  0  0  0  0  0  0  0  0  0
  -30.3290  -22.5715   18.8315 N   0  3  0  0  0  0  0  0  0  0  0  0
  -20.0401  -27.3846   18.3314 N   0  3  0  0  0  0  0  0  0  0  0  0
  -22.2047  -12.5299   18.5722 O   0  0  0  0  0  0  0  0  0  0  0  0
  -27.7058  -28.2153   22.3216 O   0  0  0  0  0  0  0  0  0  0  0  0
  -23.6097  -29.9973   22.2915 O   0  0  0  0  0  0  0  0  0  0  0  0
  -21.9072  -26.1745   20.0536 O   0  0  0  0  0  0  0  0  0  0  0  0
  -31.6262  -15.0076   20.0351 O   0  0  0  0  0  0  0  0  0  0  0  0
  -22.3366   -9.2648   25.6368 O   0  0  0  0  0  0  0  0  0  0  0  0
  -28.1017  -24.2179   18.0160 O   0  0  0  0  0  0  0  0  0  1  0  0
  -18.5424   -5.3598   24.7657 F   0  0  0  0  0  0  0  0  0  0  0  0
  -22.6994   -6.6963   26.5928 F   0  0  0  0  0  0  0  0  0  0  0  0
  1  2  1  0  0  0  0
  1  5  2  0  0  0  0
  2  6  2  0  0  0  0
  3  8  2  0  0  0  0
  3 15  1  0  0  0  0
  4  9  1  0  0  0  0
  4 15  2  0  0  0  0
  5 17  1  0  0  0  0
  6 19  1  0  0  0  0
  7 10  2  0  0  0  0
  7 18  1  0  0  0  0
  8 21  1  0  0  0  0
  9 21  2  0  0  0  0
 10 22  1  0  0  0  0
 11 12  2  0  0  0  0
 11 23  1  0  0  0  0
 12 24  1  0  0  0  0
 13 20  1  0  0  0  0
 13 22  2  0  0  0  0
 14 24  2  0  0  0  0
 14 25  1  0  0  0  0
 15 26  1  0  0  0  0
 16 26  1  0  0  0  0
 16 27  2  0  0  0  0
 16 28  1  0  0  0  0
 17 19  2  0  0  0  0
 17 33  1  0  0  0  0
 18 20  2  0  0  0  0
 18 34  1  0  0  0  0
 19 44  1  0  0  0  0
 20 35  1  0  0  0  0
 21 77  1  0  0  0  0
 22 78  1  0  0  0  0
 23 25  2  0  0  0  0
 23 77  1  0  0  0  0
 24 79  1  0  0  0  0
 25 80  1  0  0  0  0
 26 60  2  0  0  0  0
 27 61  1  0  0  0  0
 27 64  1  0  0  0  0
 28 65  1  0  0  0  0
 28 72  2  0  0  0  0
 29 45  1  0  0  0  0
 29 66  1  0  0  0  0
 29 73  2  0  0  0  0
 30 57  1  0  0  0  0
 30 62  1  0  0  0  0
 30 74  2  0  0  0  0
 31 58  1  0  0  0  0
 31 67  1  0  0  0  0
 31 75  2  0  0  0  0
 32 63  1  0  0  0  0
 32 68  1  0  0  0  0
 32 76  2  0  0  0  0
 33 36  1  0  0  0  0
 34 45  1  0  0  0  0
 35 62  1  0  0  0  0
 36 38  1  0  0  0  0
 37 39  1  0  0  0  0
 37 41  1  0  0  0  0
 38 44  1  0  0  0  0
 39 46  1  0  0  0  0
 40 47  1  0  0  0  0
 40 48  1  0  0  0  0
 41 63  1  0  0  0  0
 42 46  1  0  0  0  0
 42 63  1  0  0  0  0
 43 47  1  0  0  0  0
 43 70  1  0  0  0  0
 44 66  1  0  0  0  0
 45 62  1  0  0  0  0
 46 61  1  0  0  0  0
 47 69  1  0  0  0  0
 48 54  1  0  0  0  0
 48 70  1  0  0  0  0
 49 58  1  0  0  0  0
 50 59  1  0  0  0  0
 51 59  1  0  0  0  0
 52 59  1  0  0  0  0
 53 71  1  0  0  0  0
 54 78  1  0  0  0  0
 55 56  1  0  0  0  0
 55 68  1  0  0  0  0
 56 69  1  0  0  0  0
 57 59  1  0  0  0  0
 57 67  1  0  0  0  0
 58 71  1  0  0  0  0
 60 61  1  0  0  0  0
M  CHG  2  70   1  71   1
M  ISO  4  32 100  54 101  68 100  78 101
M  END
> <Batch ID>
0133

> <Smiles>
CNC(C)C(=O)NC(C(=O)N1Cc2cc([101O:1][101CH2:1]C3CC(NCC[100NH:0][100C:0](=O)N4CCCC(n5nc(-c6ccc(Oc7ccc(F)cc7F)cc6)c(C(N)=O)c5N)C4)CN3)ccc2CC1C(=O)NC1CCCc2ccccc21)C(C)(C)C

> <Shape>
0.280

> <Color>
0.082

> <Negative vol penalty>
0.000

$$$$

  -OEChem-04052320553D

 85 94  0     1  0  0  0  0  0999 V2000
  -34.4301  -23.8167   28.2097 C   0  0  0  0  0  0  0  0  0  0  0  0
  -33.4399  -23.0272   27.6338 C   0  0  0  0  0  0  0  0  0  0  0  0
  -23.2009   -9.8495   19.9538 C   0  0  0  0  0  0  0  0  0  0  0  0
  -23.9108   -9.9315   22.2617 C   0  0  0  0  0  0  0  0  0  0  0  0
  -34.1074  -24.6916   29.2462 C   0  0  0  0  0  0  0  0  0  0  0  0
  -32.1266  -23.1114   28.0948 C   0  0  0  0  0  0  0  0  0  0  0  0
  -28.7528  -23.3103   24.3234 C   0  0  0  0  0  0  0  0  0  0  0  0
  -31.1721  -16.7082   25.0851 C   0  0  0  0  0  0  0  0  0  0  0  0
  -22.5088   -8.6657   20.2087 C   0  0  0  0  0  0  0  0  0  0  0  0
  -23.2186   -8.7476   22.5167 C   0  0  0  0  0  0  0  0  0  0  0  0
  -28.4432  -22.1117   23.6822 C   0  0  0  0  0  0  0  0  0  0  0  0
  -20.0209   -7.8030   23.0672 C   0  0  0  0  0  0  0  0  0  0  0  0
  -19.2421   -7.7454   24.2229 C   0  0  0  0  0  0  0  0  0  0  0  0
  -32.4492  -17.1509   24.7587 C   0  0  0  0  0  0  0  0  0  0  0  0
  -26.4215  -21.9427   24.9872 C   0  0  0  0  0  0  0  0  0  0  0  0
  -20.5602   -5.8834   25.0183 C   0  0  0  0  0  0  0  0  0  0  0  0
  -23.9020  -10.4824   20.9803 C   0  0  0  0  0  0  0  0  0  0  0  0
  -24.1233  -13.0189   20.8231 C   0  0  0  0  0  0  0  0  0  0  0  0
  -32.7876  -24.7936   29.7136 C   0  0  0  0  0  0  0  0  0  0  0  0
  -27.9031  -23.8295   25.3108 C   0  0  0  0  0  0  0  0  0  0  0  0
  -31.7862  -23.9875   29.1394 C   0  0  0  0  0  0  0  0  0  0  0  0
  -26.7212  -23.1494   25.6376 C   0  0  0  0  0  0  0  0  0  0  0  0
  -30.4993  -15.8483   24.2241 C   0  0  0  0  0  0  0  0  0  0  0  0
  -22.5176   -8.1147   21.4901 C   0  0  0  0  0  0  0  0  0  0  0  0
  -27.2789  -21.4262   24.0161 C   0  0  0  0  0  0  0  0  0  0  0  0
  -21.0693   -6.9007   22.8869 C   0  0  0  0  0  0  0  0  0  0  0  0
  -19.5118   -6.7857   25.1985 C   0  0  0  0  0  0  0  0  0  0  0  0
  -21.3390   -5.9410   23.8625 C   0  0  0  0  0  0  0  0  0  0  0  0
  -24.6177  -11.7050   20.7175 C   0  0  0  0  0  0  0  0  0  0  0  0
  -33.0049  -16.7080   23.5693 C   0  0  0  0  0  0  0  0  0  0  0  0
  -31.1423  -15.4639   23.0585 C   0  0  0  0  0  0  0  0  0  0  0  0
  -25.1853  -13.8148   20.4690 C   0  0  0  0  0  0  0  0  0  0  0  0
  -22.8207  -13.4788   21.2069 C   0  0  0  0  0  0  0  0  0  0  0  0
  -28.1981  -24.4808   28.4080 C   0  0  0  0  0  0  0  0  0  0  0  0
  -25.2318  -25.7374   28.0278 C   0  0  0  0  0  0  0  0  0  0  0  0
  -22.3159  -25.7969   26.2556 C   0  0  0  0  0  0  0  0  0  0  0  0
  -30.9338  -14.0863   20.9597 C   0  0  0  0  0  0  0  0  0  0  0  0
  -32.4959  -25.7192   30.8681 C   0  0  0  0  0  0  0  0  0  0  0  0
  -28.2378  -25.1373   25.9742 C   0  0  0  0  0  0  0  0  0  0  0  0
  -25.7654  -23.6748   26.6763 C   0  0  0  0  0  0  0  0  0  0  0  0
  -31.0103  -26.0217   31.0459 C   0  0  0  0  0  0  0  0  0  0  0  0
  -29.3649  -13.1157   17.9144 C   0  0  0  0  0  0  0  0  0  0  0  0
  -30.1908  -24.7376   30.9664 C   0  0  0  0  0  0  0  0  0  0  0  0
  -27.9320  -12.7811   18.3354 C   0  0  0  0  0  0  0  0  0  0  0  0
  -25.8454  -16.8043   24.4013 C   0  0  0  0  0  0  0  0  0  0  0  0
  -30.3804  -12.6961   18.9757 C   0  0  0  0  0  0  0  0  0  0  0  0
  -28.6783  -12.8682   20.7484 C   0  0  0  0  0  0  0  0  0  0  0  0
  -26.6443  -15.5497   24.0882 C   0  0  0  0  0  0  0  0  0  0  0  0
  -28.0391  -17.5494   23.9154 C   0  0  0  0  0  0  0  0  0  0  0  0
  -30.3455  -24.0685   29.5953 C   0  0  1  0  0  0  0  0  0  0  0  0
  -27.5599  -25.3103   27.3299 C   0  0  1  0  0  0  0  0  0  0  0  0
  -26.5855  -17.9079   23.6584 C   0  0  2  0  0  0  0  0  0  0  0  0
  -27.6143  -13.3311   19.7398 C   0  0  2  0  0  0  0  0  0  0  0  0
  -34.3738  -17.1630   23.1874 C   0  0  0  0  0  0  0  0  0  0  0  0
  -20.0619  -26.8990   26.2078 C   0  0  0  0  0  0  0  0  0  0  0  0
  -24.3256  -23.9794   30.3512 C   0  0  0  0  0  0  0  0  0  0  0  0
  -21.9582  -24.3912   29.6482 C   0  0  0  0  0  0  0  0  0  0  0  0
  -23.3922  -26.2995   30.3726 C   0  0  0  0  0  0  0  0  0  0  0  0
  -22.8158  -26.9664   23.5833 C   0  0  0  0  0  0  0  0  0  0  0  0
  -29.1215  -15.3728   24.5799 C   0  0  0  0  0  0  0  0  0  0  0  0
  -26.2254  -19.2976   24.1384 C   0  0  0  0  0  0  0  0  0  1  0  0
  -23.8233  -25.2047   28.1348 C   0  0  1  0  0  0  0  0  0  0  0  0
  -21.4959  -26.9490   25.7037 C   0  0  2  0  0  0  0  0  0  0  0  0
  -23.3936  -24.9576   29.6085 C   0  0  0  0  0  0  0  0  0  0  0  0
  -25.8943  -11.6643   20.3268 N   0  0  0  0  0  0  0  0  0  0  0  0
  -32.3821  -15.8729   22.7077 N   0  0  0  0  0  0  0  0  0  0  0  0
  -26.2111  -12.9624   20.1837 N   0  0  0  0  0  0  0  0  0  0  0  0
  -26.1399  -24.9541   27.3013 N   0  0  0  0  0  0  0  0  0  0  0  0
  -30.0173  -13.2573   20.2788 N   0  0  0  0  0  0  0  0  0  0  0  0
  -25.3323  -15.1536   20.3770 N   0  0  0  0  0  0  0  0  0  0  0  0
  -21.8472  -12.5270   21.5394 N   0  0  0  0  0  0  0  0  0  0  0  0
  -30.4658  -14.5879   22.1738 N   0  0  0  0  0  0  0  0  0  0  0  0
  -29.5387  -24.7506   28.6061 N   0  0  0  0  0  0  0  0  0  0  0  0
  -22.9744  -26.1480   27.4150 N   0  0  0  0  0  0  0  0  0  0  0  0
  -28.0475  -16.0417   23.7840 N   0  3  1  0  0  0  0  0  0  0  0  0
  -21.4725  -26.9015   24.2144 N   0  3  0  0  0  0  0  0  0  0  0  0
  -22.5239  -14.6972   21.2379 O   0  0  0  0  0  0  0  0  0  0  0  0
  -27.5237  -23.6579   29.0161 O   0  0  0  0  0  0  0  0  0  0  0  0
  -25.5141  -26.8124   28.5628 O   0  0  0  0  0  0  0  0  0  0  0  0
  -22.3642  -24.6944   25.7145 O   0  0  0  0  0  0  0  0  0  0  0  0
  -32.0412  -14.3550   20.4868 O   0  0  0  0  0  0  0  0  0  0  0  0
  -21.8421   -6.9597   21.7393 O   0  0  0  0  0  0  0  0  0  0  0  0
  -26.9746  -20.2557   23.3922 O   0  0  0  0  0  0  0  0  0  1  0  0
  -18.7648   -6.7315   26.3091 F   0  0  0  0  0  0  0  0  0  0  0  0
  -22.3456   -5.0722   23.6955 F   0  0  0  0  0  0  0  0  0  0  0  0
  1  2  1  0  0  0  0
  1  5  2  0  0  0  0
  2  6  2  0  0  0  0
  3  9  2  0  0  0  0
  3 17  1  0  0  0  0
  4 10  1  0  0  0  0
  4 17  2  0  0  0  0
  5 19  1  0  0  0  0
  6 21  1  0  0  0  0
  7 11  2  0  0  0  0
  7 20  1  0  0  0  0
  8 14  2  0  0  0  0
  8 23  1  0  0  0  0
  9 24  1  0  0  0  0
 10 24  2  0  0  0  0
 11 25  1  0  0  0  0
 12 13  2  0  0  0  0
 12 26  1  0  0  0  0
 13 27  1  0  0  0  0
 14 30  1  0  0  0  0
 15 22  1  0  0  0  0
 15 25  2  0  0  0  0
 16 27  2  0  0  0  0
 16 28  1  0  0  0  0
 17 29  1  0  0  0  0
 18 29  1  0  0  0  0
 18 32  2  0  0  0  0
 18 33  1  0  0  0  0
 19 21  2  0  0  0  0
 19 38  1  0  0  0  0
 20 22  2  0  0  0  0
 20 39  1  0  0  0  0
 21 50  1  0  0  0  0
 22 40  1  0  0  0  0
 23 31  2  0  0  0  0
 23 60  1  0  0  0  0
 24 82  1  0  0  0  0
 25 83  1  0  0  0  0
 26 28  2  0  0  0  0
 26 82  1  0  0  0  0
 27 84  1  0  0  0  0
 28 85  1  0  0  0  0
 29 65  2  0  0  0  0
 30 54  1  0  0  0  0
 30 66  2  0  0  0  0
 31 66  1  0  0  0  0
 31 72  1  0  0  0  0
 32 67  1  0  0  0  0
 32 70  1  0  0  0  0
 33 71  1  0  0  0  0
 33 77  2  0  0  0  0
 34 51  1  0  0  0  0
 34 73  1  0  0  0  0
 34 78  2  0  0  0  0
 35 62  1  0  0  0  0
 35 68  1  0  0  0  0
 35 79  2  0  0  0  0
 36 63  1  0  0  0  0
 36 74  1  0  0  0  0
 36 80  2  0  0  0  0
 37 69  1  0  0  0  0
 37 72  1  0  0  0  0
 37 81  2  0  0  0  0
 38 41  1  0  0  0  0
 39 51  1  0  0  0  0
 40 68  1  0  0  0  0
 41 43  1  0  0  0  0
 42 44  1  0  0  0  0
 42 46  1  0  0  0  0
 43 50  1  0  0  0  0
 44 53  1  0  0  0  0
 45 48  1  0  0  0  0
 45 52  1  0  0  0  0
 46 69  1  0  0  0  0
 47 53  1  0  0  0  0
 47 69  1  0  0  0  0
 48 75  1  0  0  0  0
 49 52  1  0  0  0  0
 49 75  1  0  0  0  0
 50 73  1  0  0  0  0
 51 68  1  0  0  0  0
 52 61  1  0  0  0  0
 53 67  1  0  0  0  0
 55 63  1  0  0  0  0
 56 64  1  0  0  0  0
 57 64  1  0  0  0  0
 58 64  1  0  0  0  0
 59 76  1  0  0  0  0
 60 75  1  0  0  0  0
 61 83  1  0  0  0  0
 62 64  1  0  0  0  0
 62 74  1  0  0  0  0
 63 76  1  0  0  0  0
 65 67  1  0  0  0  0
M  CHG  2  75   1  76   1
M  ISO  4  37 100  61 101  72 100  83 101
M  END
> <Batch ID>
0133

> <Smiles>
CNC(C)C(=O)NC(C(=O)N1Cc2cc([101O:1][101CH2:1]C3CCN(Cc4ccc(C)nc4[100NH:0][100C:0](=O)N4CCCC(n5nc(-c6ccc(Oc7ccc(F)cc7F)cc6)c(C(N)=O)c5N)C4)C3)ccc2CC1C(=O)NC1CCCc2ccccc21)C(C)(C)C

> <Shape>
0.163

> <Color>
0.178

> <Negative vol penalty>
0.000

$$$$

  -OEChem-04052320553D

 82 91  0     1  0  0  0  0  0999 V2000
  -21.7509  -34.9734   27.1024 C   0  0  0  0  0  0  0  0  0  0  0  0
  -21.5640  -34.1597   25.9896 C   0  0  0  0  0  0  0  0  0  0  0  0
  -24.4546   -9.2739   21.6705 C   0  0  0  0  0  0  0  0  0  0  0  0
  -22.7051  -10.2388   20.3120 C   0  0  0  0  0  0  0  0  0  0  0  0
  -22.9438  -35.6786   27.2564 C   0  0  0  0  0  0  0  0  0  0  0  0
  -22.5695  -34.0515   25.0296 C   0  0  0  0  0  0  0  0  0  0  0  0
  -23.3677  -29.2644   23.5834 C   0  0  0  0  0  0  0  0  0  0  0  0
  -23.6895   -8.1195   21.8359 C   0  0  0  0  0  0  0  0  0  0  0  0
  -21.9399   -9.0842   20.4774 C   0  0  0  0  0  0  0  0  0  0  0  0
  -22.4584  -28.7112   22.6829 C   0  0  0  0  0  0  0  0  0  0  0  0
  -21.0632   -7.1203   23.7144 C   0  0  0  0  0  0  0  0  0  0  0  0
  -20.9748   -6.5807   24.9976 C   0  0  0  0  0  0  0  0  0  0  0  0
  -24.0040  -29.1246   20.8775 C   0  0  0  0  0  0  0  0  0  0  0  0
  -21.9553   -4.5219   24.1994 C   0  0  0  0  0  0  0  0  0  0  0  0
  -23.9623  -10.3336   20.9086 C   0  0  0  0  0  0  0  0  0  0  0  0
  -26.0308  -11.6239   20.1572 C   0  0  0  0  0  0  0  0  0  0  0  0
  -23.9682  -35.5714   26.3027 C   0  0  0  0  0  0  0  0  0  0  0  0
  -24.5996  -29.7626   23.1354 C   0  0  0  0  0  0  0  0  0  0  0  0
  -23.7767  -34.7569   25.1703 C   0  0  0  0  0  0  0  0  0  0  0  0
  -24.9283  -29.6813   21.7747 C   0  0  0  0  0  0  0  0  0  0  0  0
  -22.4322   -8.0246   21.2394 C   0  0  0  0  0  0  0  0  0  0  0  0
  -22.7753  -28.6439   21.3293 C   0  0  0  0  0  0  0  0  0  0  0  0
  -21.5976   -6.3607   22.6736 C   0  0  0  0  0  0  0  0  0  0  0  0
  -21.4208   -5.2815   25.2401 C   0  0  0  0  0  0  0  0  0  0  0  0
  -22.0436   -5.0615   22.9162 C   0  0  0  0  0  0  0  0  0  0  0  0
  -24.7520  -11.5267   20.7378 C   0  0  0  0  0  0  0  0  0  0  0  0
  -26.3417  -12.9596   20.2332 C   0  0  0  0  0  0  0  0  0  0  0  0
  -26.8631  -10.5985   19.5991 C   0  0  0  0  0  0  0  0  0  0  0  0
  -26.0015  -32.6154   23.1413 C   0  0  0  0  0  0  0  0  0  0  0  0
  -28.5327  -30.9413   21.9956 C   0  0  0  0  0  0  0  0  0  0  0  0
  -29.6735  -28.1722   20.3593 C   0  0  0  0  0  0  0  0  0  0  0  0
  -22.7018  -17.7347   20.6841 C   0  0  0  0  0  0  0  0  0  0  0  0
  -25.2214  -36.3898   26.4884 C   0  0  0  0  0  0  0  0  0  0  0  0
  -25.5806  -30.3318   24.1233 C   0  0  0  0  0  0  0  0  0  0  0  0
  -26.2460  -30.1836   21.2458 C   0  0  0  0  0  0  0  0  0  0  0  0
  -26.3853  -35.9281   25.6151 C   0  0  0  0  0  0  0  0  0  0  0  0
  -24.6577  -15.9733   23.4862 C   0  0  0  0  0  0  0  0  0  0  0  0
  -25.9181  -35.6964   24.1817 C   0  0  0  0  0  0  0  0  0  0  0  0
  -25.7012  -15.4048   22.5292 C   0  0  0  0  0  0  0  0  0  0  0  0
  -21.0010  -20.9010   21.5880 C   0  0  0  0  0  0  0  0  0  0  0  0
  -22.7177  -20.8899   19.7587 C   0  0  0  0  0  0  0  0  0  0  0  0
  -21.6511  -25.7060   21.2099 C   0  0  0  0  0  0  0  0  0  0  0  0
  -23.8942  -17.1252   22.8399 C   0  0  0  0  0  0  0  0  0  0  0  0
  -20.3183  -22.0756   20.8825 C   0  0  0  0  0  0  0  0  0  0  0  0
  -21.9768  -22.0641   19.1137 C   0  0  0  0  0  0  0  0  0  0  0  0
  -23.6334  -15.4563   21.0043 C   0  0  0  0  0  0  0  0  0  0  0  0
  -24.8537  -34.5943   24.1197 C   0  0  1  0  0  0  0  0  0  0  0  0
  -26.5927  -31.2771   23.4833 C   0  0  1  0  0  0  0  0  0  0  0  0
  -25.1055  -15.0332   21.1536 C   0  0  2  0  0  0  0  0  0  0  0  0
  -21.7660  -20.0305   20.5914 C   0  0  0  0  0  0  0  0  0  0  0  0
  -20.4081  -25.1221   20.5168 C   0  0  2  0  0  0  0  0  0  0  0  0
  -21.0172  -27.0786   20.9438 C   0  0  2  0  0  0  0  0  0  1  0  0
  -31.7893  -27.1009   19.5390 C   0  0  0  0  0  0  0  0  0  0  0  0
  -28.6349  -32.9233   19.6780 C   0  0  0  0  0  0  0  0  0  0  0  0
  -30.0862  -31.2987   18.4441 C   0  0  0  0  0  0  0  0  0  0  0  0
  -30.8689  -32.2800   20.5998 C   0  0  0  0  0  0  0  0  0  0  0  0
  -29.2639  -25.7875   22.0635 C   0  0  0  0  0  0  0  0  0  0  0  0
  -20.6299  -24.0235   19.5000 C   0  0  0  0  0  0  0  0  0  0  0  0
  -29.0236  -30.5519   20.6222 C   0  0  1  0  0  0  0  0  0  0  0  0
  -30.7935  -27.2003   20.6841 C   0  0  2  0  0  0  0  0  0  0  0  0
  -29.6277  -31.7557   19.8454 C   0  0  0  0  0  0  0  0  0  0  0  0
  -24.2828  -12.7066   21.1521 N   0  0  0  0  0  0  0  0  0  0  0  0
  -25.2721  -13.5579   20.8316 N   0  0  0  0  0  0  0  0  0  0  0  0
  -27.1691  -30.7372   22.2502 N   0  0  0  0  0  0  0  0  0  0  0  0
  -23.4115  -16.8205   21.4869 N   0  0  0  0  0  0  0  0  0  0  0  0
  -21.2896  -22.8778   20.1260 N   0  0  0  0  0  0  0  0  0  0  0  0
  -27.4231  -13.6689   19.8459 N   0  0  0  0  0  0  0  0  0  0  0  0
  -26.3902   -9.2792   19.6013 N   0  0  0  0  0  0  0  0  0  0  0  0
  -25.4706  -33.2893   24.2245 N   0  0  0  0  0  0  0  0  0  0  0  0
  -29.9501  -29.4423   20.8192 N   0  0  0  0  0  0  0  0  0  0  0  0
  -22.4785  -18.9776   21.2711 N   0  0  0  0  0  0  0  0  0  0  0  0
  -20.2018  -26.4432   19.8887 N   0  3  0  0  0  0  0  0  0  0  0  0
  -30.2406  -25.8413   20.9454 N   0  3  0  0  0  0  0  0  0  0  0  0
  -27.9997  -10.8425   19.1278 O   0  0  0  0  0  0  0  0  0  0  0  0
  -26.0264  -33.0081   21.9808 O   0  0  0  0  0  0  0  0  0  0  0  0
  -29.3312  -31.4027   22.8149 O   0  0  0  0  0  0  0  0  0  0  0  0
  -28.6568  -27.8389   19.7546 O   0  0  0  0  0  0  0  0  0  0  0  0
  -22.3014  -17.4656   19.5476 O   0  0  0  0  0  0  0  0  0  0  0  0
  -21.6854   -6.8981   21.4004 O   0  0  0  0  0  0  0  0  0  0  0  0
  -21.8892  -28.1051   20.4481 O   0  0  0  0  0  0  0  0  0  1  0  0
  -21.3373   -4.7640   26.4727 F   0  0  0  0  0  0  0  0  0  0  0  0
  -22.5591   -4.3273   21.9206 F   0  0  0  0  0  0  0  0  0  0  0  0
  1  2  1  0  0  0  0
  1  5  2  0  0  0  0
  2  6  2  0  0  0  0
  3  8  2  0  0  0  0
  3 15  1  0  0  0  0
  4  9  1  0  0  0  0
  4 15  2  0  0  0  0
  5 17  1  0  0  0  0
  6 19  1  0  0  0  0
  7 10  2  0  0  0  0
  7 18  1  0  0  0  0
  8 21  1  0  0  0  0
  9 21  2  0  0  0  0
 10 22  1  0  0  0  0
 11 12  2  0  0  0  0
 11 23  1  0  0  0  0
 12 24  1  0  0  0  0
 13 20  1  0  0  0  0
 13 22  2  0  0  0  0
 14 24  2  0  0  0  0
 14 25  1  0  0  0  0
 15 26  1  0  0  0  0
 16 26  1  0  0  0  0
 16 27  2  0  0  0  0
 16 28  1  0  0  0  0
 17 19  2  0  0  0  0
 17 33  1  0  0  0  0
 18 20  2  0  0  0  0
 18 34  1  0  0  0  0
 19 47  1  0  0  0  0
 20 35  1  0  0  0  0
 21 79  1  0  0  0  0
 22 80  1  0  0  0  0
 23 25  2  0  0  0  0
 23 79  1  0  0  0  0
 24 81  1  0  0  0  0
 25 82  1  0  0  0  0
 26 62  2  0  0  0  0
 27 63  1  0  0  0  0
 27 67  1  0  0  0  0
 28 68  1  0  0  0  0
 28 74  2  0  0  0  0
 29 48  1  0  0  0  0
 29 69  1  0  0  0  0
 29 75  2  0  0  0  0
 30 59  1  0  0  0  0
 30 64  1  0  0  0  0
 30 76  2  0  0  0  0
 31 60  1  0  0  0  0
 31 70  1  0  0  0  0
 31 77  2  0  0  0  0
 32 65  1  0  0  0  0
 32 71  1  0  0  0  0
 32 78  2  0  0  0  0
 33 36  1  0  0  0  0
 34 48  1  0  0  0  0
 35 64  1  0  0  0  0
 36 38  1  0  0  0  0
 37 39  1  0  0  0  0
 37 43  1  0  0  0  0
 38 47  1  0  0  0  0
 39 49  1  0  0  0  0
 40 44  1  0  0  0  0
 40 50  1  0  0  0  0
 41 45  1  0  0  0  0
 41 50  1  0  0  0  0
 42 51  1  0  0  0  0
 42 52  1  0  0  0  0
 43 65  1  0  0  0  0
 44 66  1  0  0  0  0
 45 66  1  0  0  0  0
 46 49  1  0  0  0  0
 46 65  1  0  0  0  0
 47 69  1  0  0  0  0
 48 64  1  0  0  0  0
 49 63  1  0  0  0  0
 50 71  1  0  0  0  0
 51 58  1  0  0  0  0
 51 72  1  0  0  0  0
 52 72  1  0  0  0  0
 52 80  1  0  0  0  0
 53 60  1  0  0  0  0
 54 61  1  0  0  0  0
 55 61  1  0  0  0  0
 56 61  1  0  0  0  0
 57 73  1  0  0  0  0
 58 66  1  0  0  0  0
 59 61  1  0  0  0  0
 59 70  1  0  0  0  0
 60 73  1  0  0  0  0
 62 63  1  0  0  0  0
M  CHG  2  72   1  73   1
M  ISO  4  32 100  52 101  71 100  80 101
M  END
> <Batch ID>
0133

> <Smiles>
CNC(C)C(=O)NC(C(=O)N1Cc2cc([101O:1][101CH:1]3CC(CN4CCC([100NH:0][100C:0](=O)N5CCCC(n6nc(-c7ccc(Oc8ccc(F)cc8F)cc7)c(C(N)=O)c6N)C5)CC4)N3)ccc2CC1C(=O)NC1CCCc2ccccc21)C(C)(C)C

> <Shape>
0.266

> <Color>
0.086

> <Negative vol penalty>
0.000

$$$$

  -OEChem-04052320553D

 85 93  0     1  0  0  0  0  0999 V2000
  -36.1436  -19.0766   24.8016 C   0  0  0  0  0  0  0  0  0  0  0  0
  -35.1575  -19.8577   24.2075 C   0  0  0  0  0  0  0  0  0  0  0  0
  -31.3695  -26.1105   18.3973 C   0  0  0  0  0  0  0  0  0  0  0  0
  -30.8479  -24.3851   20.0061 C   0  0  0  0  0  0  0  0  0  0  0  0
  -36.2981  -17.7438   24.4224 C   0  0  0  0  0  0  0  0  0  0  0  0
  -34.3261  -19.3068   23.2330 C   0  0  0  0  0  0  0  0  0  0  0  0
  -28.4221  -20.6135   22.2633 C   0  0  0  0  0  0  0  0  0  0  0  0
  -24.6883  -23.3881   20.4107 C   0  0  0  0  0  0  0  0  0  0  0  0
  -32.7314  -25.8841   18.5960 C   0  0  0  0  0  0  0  0  0  0  0  0
  -32.2099  -24.1586   20.2047 C   0  0  0  0  0  0  0  0  0  0  0  0
  -27.7847  -21.4521   21.3499 C   0  0  0  0  0  0  0  0  0  0  0  0
  -34.7222  -22.5463   18.6206 C   0  0  0  0  0  0  0  0  0  0  0  0
  -35.1593  -21.2221   18.6537 C   0  0  0  0  0  0  0  0  0  0  0  0
  -23.8098  -24.0271   21.2787 C   0  0  0  0  0  0  0  0  0  0  0  0
  -27.4209  -19.5703   19.8852 C   0  0  0  0  0  0  0  0  0  0  0  0
  -35.9837  -21.5504   20.9009 C   0  0  0  0  0  0  0  0  0  0  0  0
  -30.4277  -25.3611   19.1024 C   0  0  0  0  0  0  0  0  0  0  0  0
  -28.1830  -24.9690   17.9556 C   0  0  0  0  0  0  0  0  0  0  0  0
  -35.4619  -17.1736   23.4497 C   0  0  0  0  0  0  0  0  0  0  0  0
  -28.5735  -19.2467   21.9891 C   0  0  0  0  0  0  0  0  0  0  0  0
  -34.4705  -17.9655   22.8394 C   0  0  0  0  0  0  0  0  0  0  0  0
  -28.0582  -18.7160   20.7979 C   0  0  0  0  0  0  0  0  0  0  0  0
  -24.3570  -22.1434   19.8870 C   0  0  0  0  0  0  0  0  0  0  0  0
  -33.1516  -24.9081   19.4996 C   0  0  0  0  0  0  0  0  0  0  0  0
  -27.2866  -20.9311   20.1593 C   0  0  0  0  0  0  0  0  0  0  0  0
  -34.9158  -23.3726   19.7276 C   0  0  0  0  0  0  0  0  0  0  0  0
  -35.7901  -20.7242   19.7938 C   0  0  0  0  0  0  0  0  0  0  0  0
  -35.5465  -22.8746   20.8678 C   0  0  0  0  0  0  0  0  0  0  0  0
  -29.0207  -25.5949   18.8981 C   0  0  0  0  0  0  0  0  0  0  0  0
  -23.1451  -21.5847   20.2596 C   0  0  0  0  0  0  0  0  0  0  0  0
  -22.6223  -23.3841   21.5888 C   0  0  0  0  0  0  0  0  0  0  0  0
  -26.9490  -25.5349   18.1637 C   0  0  0  0  0  0  0  0  0  0  0  0
  -28.4927  -23.9657   16.9792 C   0  0  0  0  0  0  0  0  0  0  0  0
  -31.0547  -17.2987   21.5984 C   0  0  0  0  0  0  0  0  0  0  0  0
  -28.7500  -15.0185   21.4897 C   0  0  0  0  0  0  0  0  0  0  0  0
  -25.4872  -14.2237   20.8822 C   0  0  0  0  0  0  0  0  0  0  0  0
  -24.4091  -28.1440   22.9169 C   0  0  0  0  0  0  0  0  0  0  0  0
  -35.6979  -15.7418   23.0385 C   0  0  0  0  0  0  0  0  0  0  0  0
  -29.2397  -18.3505   22.9968 C   0  0  0  0  0  0  0  0  0  0  0  0
  -28.1771  -17.2519   20.4653 C   0  0  0  0  0  0  0  0  0  0  0  0
  -34.5314  -15.1293   22.2676 C   0  0  0  0  0  0  0  0  0  0  0  0
  -24.8921  -29.5750   19.6927 C   0  0  0  0  0  0  0  0  0  0  0  0
  -34.0453  -16.0875   21.1848 C   0  0  0  0  0  0  0  0  0  0  0  0
  -25.9294  -28.6608   19.0384 C   0  0  0  0  0  0  0  0  0  0  0  0
  -25.1570  -29.7509   21.1863 C   0  0  0  0  0  0  0  0  0  0  0  0
  -26.3158  -27.5784   21.2918 C   0  0  0  0  0  0  0  0  0  0  0  0
  -33.5330  -17.3970   21.7964 C   0  0  1  0  0  0  0  0  0  0  0  0
  -29.7937  -17.0687   22.3825 C   0  0  1  0  0  0  0  0  0  0  0  0
  -26.0579  -27.3258   19.7965 C   0  0  2  0  0  0  0  0  0  0  0  0
  -22.7370  -20.2494   19.7287 C   0  0  0  0  0  0  0  0  0  0  0  0
  -25.0594  -21.8251   17.4894 C   0  0  0  0  0  0  0  0  0  0  0  0
  -23.9101  -12.2722   20.8398 C   0  0  0  0  0  0  0  0  0  0  0  0
  -20.7204  -25.9861   23.4633 C   0  0  0  0  0  0  0  0  0  0  0  0
  -29.9496  -14.1098   18.8354 C   0  0  0  0  0  0  0  0  0  0  0  0
  -27.8354  -12.8440   18.3930 C   0  0  0  0  0  0  0  0  0  0  0  0
  -29.2544  -12.2507   20.3569 C   0  0  0  0  0  0  0  0  0  0  0  0
  -23.7802  -15.4088   22.9895 C   0  0  0  0  0  0  0  0  0  0  0  0
  -22.9722  -25.1635   24.2429 C   0  0  0  0  0  0  0  0  0  0  0  0
  -23.7634  -26.4252   24.5866 C   0  0  0  0  0  0  0  0  0  0  0  0
  -25.3082  -21.4438   18.9432 C   0  0  1  0  0  0  0  0  0  1  0  0
  -27.9144  -14.3942   20.3984 C   0  0  1  0  0  0  0  0  0  0  0  0
  -24.4853  -13.4048   21.6760 C   0  0  2  0  0  0  0  0  0  0  0  0
  -22.0293  -25.3247   23.0407 C   0  0  1  0  0  0  0  0  0  0  0  0
  -28.7378  -13.4277   19.5010 C   0  0  0  0  0  0  0  0  0  0  0  0
  -28.3735  -26.4900   19.6490 N   0  0  0  0  0  0  0  0  0  0  0  0
  -22.2660  -22.1751   21.1000 N   0  0  0  0  0  0  0  0  0  0  0  0
  -27.1161  -26.4308   19.1785 N   0  0  0  0  0  0  0  0  0  0  0  0
  -28.8423  -16.4175   21.4797 N   0  0  0  0  0  0  0  0  0  0  0  0
  -25.2665  -28.4479   21.8467 N   0  0  0  0  0  0  0  0  0  0  0  0
  -25.7481  -25.3488   17.5758 N   0  0  0  0  0  0  0  0  0  0  0  0
  -29.8103  -23.4946   16.9001 N   0  0  0  0  0  0  0  0  0  0  0  0
  -21.7375  -24.0483   22.4744 N   0  0  0  0  0  0  0  0  0  0  0  0
  -32.2096  -17.2115   22.3521 N   0  0  0  0  0  0  0  0  0  0  0  0
  -26.7762  -13.7688   21.0631 N   0  0  0  0  0  0  0  0  0  0  0  0
  -24.5751  -26.8855   23.4821 N   0  0  0  0  0  0  0  0  0  0  0  0
  -23.3605  -14.2671   22.1366 N   0  3  0  0  0  0  0  0  0  0  0  0
  -27.6302  -23.5126   16.1891 O   0  0  0  0  0  0  0  0  0  0  0  0
  -30.9850  -17.5360   20.3982 O   0  0  0  0  0  0  0  0  0  0  0  0
  -29.2948  -14.2921   22.3247 O   0  0  0  0  0  0  0  0  0  0  0  0
  -25.1587  -15.1699   20.1699 O   0  0  0  0  0  0  0  0  0  0  0  0
  -23.5550  -28.9335   23.3341 O   0  0  0  0  0  0  0  0  0  0  0  0
  -34.4805  -24.6867   19.6935 O   0  0  0  0  0  0  0  0  0  0  0  0
  -26.6647  -21.7476   19.2658 O   0  0  0  0  0  0  0  0  0  1  0  0
  -36.2084  -19.4522   19.8260 F   0  0  0  0  0  0  0  0  0  0  0  0
  -35.7343  -23.6633   21.9348 F   0  0  0  0  0  0  0  0  0  0  0  0
  1  2  1  0  0  0  0
  1  5  2  0  0  0  0
  2  6  2  0  0  0  0
  3  9  2  0  0  0  0
  3 17  1  0  0  0  0
  4 10  1  0  0  0  0
  4 17  2  0  0  0  0
  5 19  1  0  0  0  0
  6 21  1  0  0  0  0
  7 11  2  0  0  0  0
  7 20  1  0  0  0  0
  8 14  2  0  0  0  0
  8 23  1  0  0  0  0
  9 24  1  0  0  0  0
 10 24  2  0  0  0  0
 11 25  1  0  0  0  0
 12 13  2  0  0  0  0
 12 26  1  0  0  0  0
 13 27  1  0  0  0  0
 14 31  1  0  0  0  0
 15 22  1  0  0  0  0
 15 25  2  0  0  0  0
 16 27  2  0  0  0  0
 16 28  1  0  0  0  0
 17 29  1  0  0  0  0
 18 29  1  0  0  0  0
 18 32  2  0  0  0  0
 18 33  1  0  0  0  0
 19 21  2  0  0  0  0
 19 38  1  0  0  0  0
 20 22  2  0  0  0  0
 20 39  1  0  0  0  0
 21 47  1  0  0  0  0
 22 40  1  0  0  0  0
 23 30  2  0  0  0  0
 23 60  1  0  0  0  0
 24 82  1  0  0  0  0
 25 83  1  0  0  0  0
 26 28  2  0  0  0  0
 26 82  1  0  0  0  0
 27 84  1  0  0  0  0
 28 85  1  0  0  0  0
 29 65  2  0  0  0  0
 30 50  1  0  0  0  0
 30 66  1  0  0  0  0
 31 66  2  0  0  0  0
 31 72  1  0  0  0  0
 32 67  1  0  0  0  0
 32 70  1  0  0  0  0
 33 71  1  0  0  0  0
 33 77  2  0  0  0  0
 34 48  1  0  0  0  0
 34 73  1  0  0  0  0
 34 78  2  0  0  0  0
 35 61  1  0  0  0  0
 35 68  1  0  0  0  0
 35 79  2  0  0  0  0
 36 62  1  0  0  0  0
 36 74  1  0  0  0  0
 36 80  2  0  0  0  0
 37 69  1  0  0  0  0
 37 75  1  0  0  0  0
 37 81  2  0  0  0  0
 38 41  1  0  0  0  0
 39 48  1  0  0  0  0
 40 68  1  0  0  0  0
 41 43  1  0  0  0  0
 42 44  1  0  0  0  0
 42 45  1  0  0  0  0
 43 47  1  0  0  0  0
 44 49  1  0  0  0  0
 45 69  1  0  0  0  0
 46 49  1  0  0  0  0
 46 69  1  0  0  0  0
 47 73  1  0  0  0  0
 48 68  1  0  0  0  0
 49 67  1  0  0  0  0
 51 60  1  0  0  0  0
 52 62  1  0  0  0  0
 53 63  1  0  0  0  0
 54 64  1  0  0  0  0
 55 64  1  0  0  0  0
 56 64  1  0  0  0  0
 57 76  1  0  0  0  0
 58 59  1  0  0  0  0
 58 63  1  0  0  0  0
 59 75  1  0  0  0  0
 60 83  1  0  0  0  0
 61 64  1  0  0  0  0
 61 74  1  0  0  0  0
 62 76  1  0  0  0  0
 63 72  1  0  0  0  0
 65 67  1  0  0  0  0
M  CHG  1  76   1
M  ISO  4  37 100  60 101  75 100  83 101
M  END
> <Batch ID>
0133

> <Smiles>
CNC(C)C(=O)NC(C(=O)N1Cc2cc([101O:1][101CH:1](C)c3ccc(NC(C)CC[100NH:0][100C:0](=O)N4CCCC(n5nc(-c6ccc(Oc7ccc(F)cc7F)cc6)c(C(N)=O)c5N)C4)nc3C)ccc2CC1C(=O)NC1CCCc2ccccc21)C(C)(C)C

> <Shape>
0.190

> <Color>
0.076

> <Negative vol penalty>
0.000

$$$$

  -OEChem-04052320553D

 83 92  0     1  0  0  0  0  0999 V2000
  -31.7001  -24.2338   15.4833 C   0  0  0  0  0  0  0  0  0  0  0  0
  -31.0684  -23.8854   16.6728 C   0  0  0  0  0  0  0  0  0  0  0  0
  -23.0640   -9.8345   19.8944 C   0  0  0  0  0  0  0  0  0  0  0  0
  -23.9163   -9.7084   22.1516 C   0  0  0  0  0  0  0  0  0  0  0  0
  -32.0191  -25.5671   15.2293 C   0  0  0  0  0  0  0  0  0  0  0  0
  -30.7563  -24.8701   17.6096 C   0  0  0  0  0  0  0  0  0  0  0  0
  -26.4798  -19.2120   22.7335 C   0  0  0  0  0  0  0  0  0  0  0  0
  -26.0770  -24.3608   19.4778 C   0  0  0  0  0  0  0  0  0  0  0  0
  -22.3397   -8.6607   20.1023 C   0  0  0  0  0  0  0  0  0  0  0  0
  -23.1919   -8.5346   22.3595 C   0  0  0  0  0  0  0  0  0  0  0  0
  -25.7428  -20.3902   22.8472 C   0  0  0  0  0  0  0  0  0  0  0  0
  -25.8834  -23.3826   20.4522 C   0  0  0  0  0  0  0  0  0  0  0  0
  -19.4588   -7.7471   21.6185 C   0  0  0  0  0  0  0  0  0  0  0  0
  -18.1337   -7.7176   21.1841 C   0  0  0  0  0  0  0  0  0  0  0  0
  -27.7279  -21.6715   22.3644 C   0  0  0  0  0  0  0  0  0  0  0  0
  -25.9842  -25.0779   22.1654 C   0  0  0  0  0  0  0  0  0  0  0  0
  -18.6540   -5.8650   19.7231 C   0  0  0  0  0  0  0  0  0  0  0  0
  -23.8524  -10.3583   20.9190 C   0  0  0  0  0  0  0  0  0  0  0  0
  -24.1700  -12.8893   20.9415 C   0  0  0  0  0  0  0  0  0  0  0  0
  -31.7021  -26.5698   16.1592 C   0  0  0  0  0  0  0  0  0  0  0  0
  -27.8489  -19.2497   22.4260 C   0  0  0  0  0  0  0  0  0  0  0  0
  -26.2368  -25.7057   19.8412 C   0  0  0  0  0  0  0  0  0  0  0  0
  -31.0726  -26.2178   17.3684 C   0  0  0  0  0  0  0  0  0  0  0  0
  -28.4829  -20.4931   22.2566 C   0  0  0  0  0  0  0  0  0  0  0  0
  -26.1772  -26.0715   21.1936 C   0  0  0  0  0  0  0  0  0  0  0  0
  -22.4035   -8.0108   21.3349 C   0  0  0  0  0  0  0  0  0  0  0  0
  -26.3664  -21.6198   22.6607 C   0  0  0  0  0  0  0  0  0  1  0  0
  -25.8399  -23.7407   21.7964 C   0  0  0  0  0  0  0  0  0  0  0  0
  -20.3816   -6.8356   21.1053 C   0  0  0  0  0  0  0  0  0  0  0  0
  -17.7313   -6.7765   20.2364 C   0  0  0  0  0  0  0  0  0  0  0  0
  -19.9791   -5.8945   20.1576 C   0  0  0  0  0  0  0  0  0  0  0  0
  -24.6014  -11.5704   20.7047 C   0  0  0  0  0  0  0  0  0  0  0  0
  -25.2408  -13.6706   20.5817 C   0  0  0  0  0  0  0  0  0  0  0  0
  -22.9137  -13.3657   21.4419 C   0  0  0  0  0  0  0  0  0  0  0  0
  -28.5584  -27.8539   19.5259 C   0  0  0  0  0  0  0  0  0  0  0  0
  -26.3300  -29.8675   20.7515 C   0  0  0  0  0  0  0  0  0  0  0  0
  -23.4948  -30.2668   22.6085 C   0  0  0  0  0  0  0  0  0  0  0  0
  -30.7198  -14.7312   20.6129 C   0  0  0  0  0  0  0  0  0  0  0  0
  -32.1093  -27.9911   15.8612 C   0  0  0  0  0  0  0  0  0  0  0  0
  -26.4181  -26.7524   18.7763 C   0  0  0  0  0  0  0  0  0  0  0  0
  -28.6147  -17.9499   22.3498 C   0  0  0  0  0  0  0  0  0  0  0  0
  -29.9431  -20.5946   21.8996 C   0  0  0  0  0  0  0  0  0  0  0  0
  -26.3230  -27.5042   21.6347 C   0  0  0  0  0  0  0  0  0  0  0  0
  -31.4073  -29.0229   16.7404 C   0  0  0  0  0  0  0  0  0  0  0  0
  -30.7221  -19.3033   22.1491 C   0  0  0  0  0  0  0  0  0  0  0  0
  -29.5044  -12.4863   18.1310 C   0  0  0  0  0  0  0  0  0  0  0  0
  -31.4378  -28.5879   18.2021 C   0  0  0  0  0  0  0  0  0  0  0  0
  -28.0879  -12.1521   18.6022 C   0  0  0  0  0  0  0  0  0  0  0  0
  -30.4678  -12.6422   19.3055 C   0  0  0  0  0  0  0  0  0  0  0  0
  -28.6184  -13.2677   20.8096 C   0  0  0  0  0  0  0  0  0  0  0  0
  -30.6955  -27.2605   18.3983 C   0  0  1  0  0  0  0  0  0  0  0  0
  -27.0834  -28.0235   19.2950 C   0  0  1  0  0  0  0  0  0  0  0  0
  -27.5986  -13.1559   19.6634 C   0  0  2  0  0  0  0  0  0  0  0  0
  -29.9832  -18.0504   21.6372 C   0  0  2  0  0  0  0  0  0  0  0  0
  -29.7953  -18.0964   20.1080 C   0  0  0  0  0  0  0  0  0  0  0  0
  -21.9339  -32.0351   23.4654 C   0  0  0  0  0  0  0  0  0  0  0  0
  -28.3836  -30.6513   22.8678 C   0  0  0  0  0  0  0  0  0  0  0  0
  -26.5189  -31.6494   24.2075 C   0  0  0  0  0  0  0  0  0  0  0  0
  -27.0541  -32.5590   21.9472 C   0  0  0  0  0  0  0  0  0  0  0  0
  -21.1953  -29.1081   21.1496 C   0  0  0  0  0  0  0  0  0  0  0  0
  -30.8196  -16.8024   21.9765 C   0  0  0  0  0  0  0  0  0  0  0  0
  -25.9308  -30.3023   22.1410 C   0  0  1  0  0  0  0  0  0  0  0  0
  -22.2196  -31.0472   22.3450 C   0  0  2  0  0  0  0  0  0  0  0  0
  -26.9710  -31.2632   22.7830 C   0  0  0  0  0  0  0  0  0  0  0  0
  -25.8489  -11.5131   20.2310 N   0  0  0  0  0  0  0  0  0  0  0  0
  -26.2106  -12.8058   20.1671 N   0  0  0  0  0  0  0  0  0  0  0  0
  -26.5046  -28.4901   20.5565 N   0  0  0  0  0  0  0  0  0  0  0  0
  -29.9459  -13.6089   20.2746 N   0  0  0  0  0  0  0  0  0  0  0  0
  -25.4380  -15.0061   20.5826 N   0  0  0  0  0  0  0  0  0  0  0  0
  -21.9232  -12.4274   21.7627 N   0  0  0  0  0  0  0  0  0  0  0  0
  -29.2646  -27.4770   18.3995 N   0  0  0  0  0  0  0  0  0  0  0  0
  -24.5902  -30.8655   22.0231 N   0  0  0  0  0  0  0  0  0  0  0  0
  -30.1483  -15.6005   21.5340 N   0  0  0  0  0  0  0  0  0  0  0  0
  -21.0591  -30.1195   22.2292 N   0  3  0  0  0  0  0  0  0  0  0  0
  -22.6707  -14.5880   21.5845 O   0  0  0  0  0  0  0  0  0  0  0  0
  -29.0217  -28.0519   20.6430 O   0  0  0  0  0  0  0  0  0  0  0  0
  -26.4745  -30.7181   19.8698 O   0  0  0  0  0  0  0  0  0  0  0  0
  -23.5174  -29.2318   23.2709 O   0  0  0  0  0  0  0  0  0  0  0  0
  -31.8351  -14.9455   20.1259 O   0  0  0  0  0  0  0  0  0  0  0  0
  -21.6966   -6.8656   21.5382 O   0  0  0  0  0  0  0  0  0  0  0  0
  -25.6484  -22.7710   22.7664 O   0  0  0  0  0  0  0  0  0  1  0  0
  -16.4584   -6.7473   19.8204 F   0  0  0  0  0  0  0  0  0  0  0  0
  -20.8608   -5.0155   19.6617 F   0  0  0  0  0  0  0  0  0  0  0  0
  1  2  1  0  0  0  0
  1  5  2  0  0  0  0
  2  6  2  0  0  0  0
  3  9  2  0  0  0  0
  3 18  1  0  0  0  0
  4 10  1  0  0  0  0
  4 18  2  0  0  0  0
  5 20  1  0  0  0  0
  6 23  1  0  0  0  0
  7 11  2  0  0  0  0
  7 21  1  0  0  0  0
  8 12  2  0  0  0  0
  8 22  1  0  0  0  0
  9 26  1  0  0  0  0
 10 26  2  0  0  0  0
 11 27  1  0  0  0  0
 12 28  1  0  0  0  0
 13 14  2  0  0  0  0
 13 29  1  0  0  0  0
 14 30  1  0  0  0  0
 15 24  1  0  0  0  0
 15 27  2  0  0  0  0
 16 25  1  0  0  0  0
 16 28  2  0  0  0  0
 17 30  2  0  0  0  0
 17 31  1  0  0  0  0
 18 32  1  0  0  0  0
 19 32  1  0  0  0  0
 19 33  2  0  0  0  0
 19 34  1  0  0  0  0
 20 23  2  0  0  0  0
 20 39  1  0  0  0  0
 21 24  2  0  0  0  0
 21 41  1  0  0  0  0
 22 25  2  0  0  0  0
 22 40  1  0  0  0  0
 23 51  1  0  0  0  0
 24 42  1  0  0  0  0
 25 43  1  0  0  0  0
 26 80  1  0  0  0  0
 27 81  1  0  0  0  0
 28 81  1  0  0  0  0
 29 31  2  0  0  0  0
 29 80  1  0  0  0  0
 30 82  1  0  0  0  0
 31 83  1  0  0  0  0
 32 65  2  0  0  0  0
 33 66  1  0  0  0  0
 33 69  1  0  0  0  0
 34 70  1  0  0  0  0
 34 75  2  0  0  0  0
 35 52  1  0  0  0  0
 35 71  1  0  0  0  0
 35 76  2  0  0  0  0
 36 62  1  0  0  0  0
 36 67  1  0  0  0  0
 36 77  2  0  0  0  0
 37 63  1  0  0  0  0
 37 72  1  0  0  0  0
 37 78  2  0  0  0  0
 38 68  1  0  0  0  0
 38 73  1  0  0  0  0
 38 79  2  0  0  0  0
 39 44  1  0  0  0  0
 40 52  1  0  0  0  0
 41 54  1  0  0  0  0
 42 45  1  0  0  0  0
 43 67  1  0  0  0  0
 44 47  1  0  0  0  0
 45 54  1  0  0  0  0
 46 48  1  0  0  0  0
 46 49  1  0  0  0  0
 47 51  1  0  0  0  0
 48 53  1  0  0  0  0
 49 68  1  0  0  0  0
 50 53  1  0  0  0  0
 50 68  1  0  0  0  0
 51 71  1  0  0  0  0
 52 67  1  0  0  0  0
 53 66  1  0  0  0  0
 54 55  1  0  0  0  0
 54 61  1  0  0  0  0
 56 63  1  0  0  0  0
 57 64  1  0  0  0  0
 58 64  1  0  0  0  0
 59 64  1  0  0  0  0
 60 74  1  0  0  0  0
 61 73  1  0  0  0  0
 62 64  1  0  0  0  0
 62 72  1  0  0  0  0
 63 74  1  0  0  0  0
 65 66  1  0  0  0  0
M  CHG  1  74   1
M  ISO  4  27 101  38 100  73 100  81 101
M  END
> <Batch ID>
0133

> <Smiles>
CNC(C)C(=O)NC(C(=O)N1Cc2cc([101O:1][101c:1]3ccc4c(c3)CCC(C)(C[100NH:0][100C:0](=O)N3CCCC(n5nc(-c6ccc(Oc7ccc(F)cc7F)cc6)c(C(N)=O)c5N)C3)C4)ccc2CC1C(=O)NC1CCCc2ccccc21)C(C)(C)C

> <Shape>
0.310

> <Color>
0.233

> <Negative vol penalty>
0.000

$$$$

  -OEChem-04052320553D

 86 95  0     1  0  0  0  0  0999 V2000
  -29.1193  -35.8166   17.9162 C   0  0  0  0  0  0  0  0  0  0  0  0
  -29.3327  -34.4902   17.5551 C   0  0  0  0  0  0  0  0  0  0  0  0
  -23.2158   -9.8175   21.5436 C   0  0  0  0  0  0  0  0  0  0  0  0
  -23.7731  -10.9028   23.6289 C   0  0  0  0  0  0  0  0  0  0  0  0
  -28.6131  -36.1213   19.1790 C   0  0  0  0  0  0  0  0  0  0  0  0
  -29.0409  -33.4676   18.4571 C   0  0  0  0  0  0  0  0  0  0  0  0
  -27.4942  -19.4274   21.3235 C   0  0  0  0  0  0  0  0  0  0  0  0
  -29.3022  -20.4915   22.5217 C   0  0  0  0  0  0  0  0  0  0  0  0
  -26.7174  -26.6943   18.6576 C   0  0  0  0  0  0  0  0  0  0  0  0
  -27.2491  -20.6167   20.6370 C   0  0  0  0  0  0  0  0  0  0  0  0
  -29.0573  -21.6808   21.8352 C   0  0  0  0  0  0  0  0  0  0  0  0
  -22.4931   -8.8493   22.2406 C   0  0  0  0  0  0  0  0  0  0  0  0
  -23.0503   -9.9346   24.3260 C   0  0  0  0  0  0  0  0  0  0  0  0
  -27.0661  -25.4512   19.1838 C   0  0  0  0  0  0  0  0  0  0  0  0
  -23.1516   -6.0606   24.0333 C   0  0  0  0  0  0  0  0  0  0  0  0
  -23.3350   -4.7273   23.6669 C   0  0  0  0  0  0  0  0  0  0  0  0
  -26.1211  -26.0923   21.3087 C   0  0  0  0  0  0  0  0  0  0  0  0
  -20.9857   -4.5515   23.1310 C   0  0  0  0  0  0  0  0  0  0  0  0
  -23.8559  -10.8442   22.2378 C   0  0  0  0  0  0  0  0  0  0  0  0
  -24.1199  -13.0658   21.0120 C   0  0  0  0  0  0  0  0  0  0  0  0
  -28.5207  -19.3648   22.2658 C   0  0  0  0  0  0  0  0  0  0  0  0
  -28.3058  -35.1015   20.0935 C   0  0  0  0  0  0  0  0  0  0  0  0
  -26.0767  -27.6514   19.4574 C   0  0  0  0  0  0  0  0  0  0  0  0
  -28.5313  -33.7590   19.7339 C   0  0  0  0  0  0  0  0  0  0  0  0
  -25.7631  -27.3459   20.7895 C   0  0  0  0  0  0  0  0  0  0  0  0
  -28.0307  -21.7433   20.8929 C   0  0  0  0  0  0  0  0  0  0  0  0
  -22.4103   -8.9078   23.6318 C   0  0  0  0  0  0  0  0  0  0  0  0
  -26.7705  -25.1511   20.5103 C   0  0  0  0  0  0  0  0  0  0  0  0
  -21.8852   -6.6393   23.9487 C   0  0  0  0  0  0  0  0  0  0  0  0
  -22.2520   -3.9727   23.2157 C   0  0  0  0  0  0  0  0  0  0  0  0
  -20.8023   -5.8848   23.4975 C   0  0  0  0  0  0  0  0  0  0  0  0
  -24.6031  -11.8444   21.5184 C   0  0  0  0  0  0  0  0  0  0  0  0
  -25.2131  -13.6477   20.4181 C   0  0  0  0  0  0  0  0  0  0  0  0
  -22.8009  -13.6245   21.0732 C   0  0  0  0  0  0  0  0  0  0  0  0
  -26.7976  -30.5789   20.4644 C   0  0  0  0  0  0  0  0  0  0  0  0
  -23.7719  -30.5010   21.6312 C   0  0  0  0  0  0  0  0  0  0  0  0
  -21.1265  -28.6290   22.7010 C   0  0  0  0  0  0  0  0  0  0  0  0
  -31.1102  -13.0762   21.2831 C   0  0  0  0  0  0  0  0  0  0  0  0
  -27.8051  -35.4822   21.4642 C   0  0  0  0  0  0  0  0  0  0  0  0
  -25.6833  -28.9778   18.8673 C   0  0  0  0  0  0  0  0  0  0  0  0
  -25.0580  -28.3311   21.6843 C   0  0  0  0  0  0  0  0  0  0  0  0
  -27.1693  -34.3213   22.2246 C   0  0  0  0  0  0  0  0  0  0  0  0
  -29.3296  -12.5368   18.2475 C   0  0  0  0  0  0  0  0  0  0  0  0
  -28.9446  -17.0431   25.2946 C   0  0  0  0  0  0  0  0  0  0  0  0
  -28.5879  -18.3037   24.5115 C   0  0  0  0  0  0  0  0  0  0  0  0
  -28.0473  -33.0774   22.1311 C   0  0  0  0  0  0  0  0  0  0  0  0
  -27.8727  -12.4084   18.6959 C   0  0  0  0  0  0  0  0  0  0  0  0
  -30.2883  -11.9105   19.2578 C   0  0  0  0  0  0  0  0  0  0  0  0
  -28.6792  -12.2705   21.0895 C   0  0  0  0  0  0  0  0  0  0  0  0
  -30.3508  -16.5592   24.9733 C   0  0  0  0  0  0  0  0  0  0  0  0
  -30.2036  -17.5985   22.6941 C   0  0  0  0  0  0  0  0  0  0  0  0
  -28.7833  -18.0937   23.0002 C   0  0  2  0  0  0  0  0  0  0  0  0
  -28.2038  -32.6206   20.6757 C   0  0  1  0  0  0  0  0  0  0  0  0
  -25.4946  -30.0672   19.9185 C   0  0  1  0  0  0  0  0  0  0  0  0
  -27.6787  -12.9370   20.1298 C   0  0  2  0  0  0  0  0  0  0  0  0
  -18.8058  -28.8483   23.6303 C   0  0  0  0  0  0  0  0  0  0  0  0
  -24.9343  -31.2554   24.3496 C   0  0  0  0  0  0  0  0  0  0  0  0
  -22.7755  -30.5370   25.3943 C   0  0  0  0  0  0  0  0  0  0  0  0
  -22.8030  -32.4260   23.7652 C   0  0  0  0  0  0  0  0  0  0  0  0
  -19.9436  -27.1959   20.3974 C   0  0  0  0  0  0  0  0  0  0  0  0
  -27.7676  -23.0218   20.1528 C   0  0  0  0  0  0  0  0  0  1  0  0
  -31.7806  -14.2413   23.3693 C   0  0  0  0  0  0  0  0  0  0  0  0
  -31.8101  -15.7387   23.1256 C   0  0  0  0  0  0  0  0  0  0  0  0
  -23.1376  -30.0635   22.9294 C   0  0  1  0  0  0  0  0  0  0  0  0
  -19.6461  -28.6966   22.3719 C   0  0  2  0  0  0  0  0  0  0  0  0
  -23.4276  -31.0524   24.0936 C   0  0  0  0  0  0  0  0  0  0  0  0
  -25.9020  -11.6600   21.2678 N   0  0  0  0  0  0  0  0  0  0  0  0
  -26.2443  -12.7733   20.5974 N   0  0  0  0  0  0  0  0  0  0  0  0
  -24.6996  -29.6168   21.0628 N   0  0  0  0  0  0  0  0  0  0  0  0
  -30.0532  -12.4558   20.5970 N   0  0  0  0  0  0  0  0  0  0  0  0
  -25.3832  -14.8169   19.7650 N   0  0  0  0  0  0  0  0  0  0  0  0
  -21.7953  -12.8942   21.7211 N   0  0  0  0  0  0  0  0  0  0  0  0
  -27.0147  -31.9240   20.2339 N   0  0  0  0  0  0  0  0  0  0  0  0
  -21.7191  -29.8728   22.6467 N   0  0  0  0  0  0  0  0  0  0  0  0
  -30.8005  -13.5713   22.5440 N   0  0  0  0  0  0  0  0  0  0  0  0
  -30.4789  -16.3390   23.4851 N   0  3  1  0  0  0  0  0  0  0  0  0
  -19.2153  -27.4569   21.6657 N   0  3  0  0  0  0  0  0  0  0  0  0
  -22.5185  -14.7309   20.5540 O   0  0  0  0  0  0  0  0  0  0  0  0
  -27.5496  -29.8106   21.0526 O   0  0  0  0  0  0  0  0  0  0  0  0
  -23.4505  -31.5841   21.1360 O   0  0  0  0  0  0  0  0  0  0  0  0
  -21.6991  -27.5784   22.9819 O   0  0  0  0  0  0  0  0  0  0  0  0
  -32.2445  -13.1860   20.8052 O   0  0  0  0  0  0  0  0  0  0  0  0
  -21.7049   -7.9633   24.3122 O   0  0  0  0  0  0  0  0  0  0  0  0
  -27.1102  -23.9387   21.0266 O   0  0  0  0  0  0  0  0  0  1  0  0
  -22.4286   -2.6928   22.8623 F   0  0  0  0  0  0  0  0  0  0  0  0
  -19.5836   -6.4356   23.4130 F   0  0  0  0  0  0  0  0  0  0  0  0
  1  2  1  0  0  0  0
  1  5  2  0  0  0  0
  2  6  2  0  0  0  0
  3 12  2  0  0  0  0
  3 19  1  0  0  0  0
  4 13  1  0  0  0  0
  4 19  2  0  0  0  0
  5 22  1  0  0  0  0
  6 24  1  0  0  0  0
  7 10  2  0  0  0  0
  7 21  1  0  0  0  0
  8 11  1  0  0  0  0
  8 21  2  0  0  0  0
  9 14  2  0  0  0  0
  9 23  1  0  0  0  0
 10 26  1  0  0  0  0
 11 26  2  0  0  0  0
 12 27  1  0  0  0  0
 13 27  2  0  0  0  0
 14 28  1  0  0  0  0
 15 16  2  0  0  0  0
 15 29  1  0  0  0  0
 16 30  1  0  0  0  0
 17 25  1  0  0  0  0
 17 28  2  0  0  0  0
 18 30  2  0  0  0  0
 18 31  1  0  0  0  0
 19 32  1  0  0  0  0
 20 32  1  0  0  0  0
 20 33  2  0  0  0  0
 20 34  1  0  0  0  0
 21 52  1  0  0  0  0
 22 24  2  0  0  0  0
 22 39  1  0  0  0  0
 23 25  2  0  0  0  0
 23 40  1  0  0  0  0
 24 53  1  0  0  0  0
 25 41  1  0  0  0  0
 26 61  1  0  0  0  0
 27 83  1  0  0  0  0
 28 84  1  0  0  0  0
 29 31  2  0  0  0  0
 29 83  1  0  0  0  0
 30 85  1  0  0  0  0
 31 86  1  0  0  0  0
 32 67  2  0  0  0  0
 33 68  1  0  0  0  0
 33 71  1  0  0  0  0
 34 72  1  0  0  0  0
 34 78  2  0  0  0  0
 35 54  1  0  0  0  0
 35 73  1  0  0  0  0
 35 79  2  0  0  0  0
 36 64  1  0  0  0  0
 36 69  1  0  0  0  0
 36 80  2  0  0  0  0
 37 65  1  0  0  0  0
 37 74  1  0  0  0  0
 37 81  2  0  0  0  0
 38 70  1  0  0  0  0
 38 75  1  0  0  0  0
 38 82  2  0  0  0  0
 39 42  1  0  0  0  0
 40 54  1  0  0  0  0
 41 69  1  0  0  0  0
 42 46  1  0  0  0  0
 43 47  1  0  0  0  0
 43 48  1  0  0  0  0
 44 45  1  0  0  0  0
 44 50  1  0  0  0  0
 45 52  1  0  0  0  0
 46 53  1  0  0  0  0
 47 55  1  0  0  0  0
 48 70  1  0  0  0  0
 49 55  1  0  0  0  0
 49 70  1  0  0  0  0
 50 76  1  0  0  0  0
 51 52  1  0  0  0  0
 51 76  1  0  0  0  0
 53 73  1  0  0  0  0
 54 69  1  0  0  0  0
 55 68  1  0  0  0  0
 56 65  1  0  0  0  0
 57 66  1  0  0  0  0
 58 66  1  0  0  0  0
 59 66  1  0  0  0  0
 60 77  1  0  0  0  0
 61 84  1  0  0  0  0
 62 63  1  0  0  0  0
 62 75  1  0  0  0  0
 63 76  1  0  0  0  0
 64 66  1  0  0  0  0
 64 74  1  0  0  0  0
 65 77  1  0  0  0  0
 67 68  1  0  0  0  0
M  CHG  2  76   1  77   1
M  ISO  4  38 100  61 101  75 100  84 101
M  END
> <Batch ID>
0133

> <Smiles>
CNC(C)C(=O)NC(C(=O)N1Cc2cc([101O:1][101CH2:1]c3ccc(C4CCCN(CC[100NH:0][100C:0](=O)N5CCCC(n6nc(-c7ccc(Oc8ccc(F)cc8F)cc7)c(C(N)=O)c6N)C5)C4)cc3)ccc2CC1C(=O)NC1CCCc2ccccc21)C(C)(C)C

> <Shape>
0.313

> <Color>
0.153

> <Negative vol penalty>
0.000

$$$$

  -OEChem-04052320553D

 87 95  0     1  0  0  0  0  0999 V2000
  -32.6132  -16.6587   16.7455 C   0  0  0  0  0  0  0  0  0  0  0  0
  -32.1835  -17.1022   17.9922 C   0  0  0  0  0  0  0  0  0  0  0  0
  -23.3011   -9.7898   19.8958 C   0  0  0  0  0  0  0  0  0  0  0  0
  -23.7437   -9.9182   22.2674 C   0  0  0  0  0  0  0  0  0  0  0  0
  -33.3985  -17.4871   15.9449 C   0  0  0  0  0  0  0  0  0  0  0  0
  -32.5398  -18.3740   18.4393 C   0  0  0  0  0  0  0  0  0  0  0  0
  -28.6471  -20.8678   20.5064 C   0  0  0  0  0  0  0  0  0  0  0  0
  -22.5835   -8.6102   20.0936 C   0  0  0  0  0  0  0  0  0  0  0  0
  -23.0260   -8.7386   22.4652 C   0  0  0  0  0  0  0  0  0  0  0  0
  -28.2863  -20.5194   21.8072 C   0  0  0  0  0  0  0  0  0  0  0  0
  -19.7856   -7.8005   22.6667 C   0  0  0  0  0  0  0  0  0  0  0  0
  -18.8803   -7.7646   23.7271 C   0  0  0  0  0  0  0  0  0  0  0  0
  -29.4823  -22.4388   22.6466 C   0  0  0  0  0  0  0  0  0  0  0  0
  -31.0258  -17.3185   25.0630 C   0  0  0  0  0  0  0  0  0  0  0  0
  -28.7471  -16.6509   25.5089 C   0  0  0  0  0  0  0  0  0  0  0  0
  -20.0977   -5.9205   24.7041 C   0  0  0  0  0  0  0  0  0  0  0  0
  -23.8813  -10.4438   20.9827 C   0  0  0  0  0  0  0  0  0  0  0  0
  -24.1212  -12.9770   20.8016 C   0  0  0  0  0  0  0  0  0  0  0  0
  -33.7565  -18.7733   16.3784 C   0  0  0  0  0  0  0  0  0  0  0  0
  -29.4386  -22.0002   20.2664 C   0  0  0  0  0  0  0  0  0  0  0  0
  -33.3317  -19.2199   17.6443 C   0  0  0  0  0  0  0  0  0  0  0  0
  -29.8496  -22.8009   21.3416 C   0  0  0  0  0  0  0  0  0  0  0  0
  -30.7281  -18.6150   25.4824 C   0  0  0  0  0  0  0  0  0  0  0  0
  -28.4493  -17.9475   25.9283 C   0  0  0  0  0  0  0  0  0  0  0  0
  -29.4398  -18.9295   25.9151 C   0  0  0  0  0  0  0  0  0  0  0  0
  -30.0353  -16.3364   25.0762 C   0  0  0  0  0  0  0  0  0  0  0  0
  -22.4459   -8.0846   21.3783 C   0  0  0  0  0  0  0  0  0  0  0  0
  -28.7064  -21.3033   22.8778 C   0  0  0  0  0  0  0  0  0  0  0  0
  -20.8470   -6.8963   22.6248 C   0  0  0  0  0  0  0  0  0  0  0  0
  -19.0363   -6.8247   24.7459 C   0  0  0  0  0  0  0  0  0  0  0  0
  -21.0030   -5.9564   23.6435 C   0  0  0  0  0  0  0  0  0  0  0  0
  -24.6233  -11.6620   20.7790 C   0  0  0  0  0  0  0  0  0  0  0  0
  -25.2172  -13.7673   20.5551 C   0  0  0  0  0  0  0  0  0  0  0  0
  -22.7837  -13.4426   21.0255 C   0  0  0  0  0  0  0  0  0  0  0  0
  -32.3107  -22.5019   19.0002 C   0  0  0  0  0  0  0  0  0  0  0  0
  -31.4871  -25.6207   19.3426 C   0  0  0  0  0  0  0  0  0  0  0  0
  -29.5931  -27.9568   20.9558 C   0  0  0  0  0  0  0  0  0  0  0  0
  -31.0922  -12.9653   21.3871 C   0  0  0  0  0  0  0  0  0  0  0  0
  -34.6463  -19.6146   15.4979 C   0  0  0  0  0  0  0  0  0  0  0  0
  -29.7969  -22.3774   18.8551 C   0  0  0  0  0  0  0  0  0  0  0  0
  -30.6838  -24.0379   21.1356 C   0  0  0  0  0  0  0  0  0  0  0  0
  -34.6675  -21.0907   15.8863 C   0  0  0  0  0  0  0  0  0  0  0  0
  -29.4467  -13.7120   18.3193 C   0  0  0  0  0  0  0  0  0  0  0  0
  -34.8441  -21.2436   17.3937 C   0  0  0  0  0  0  0  0  0  0  0  0
  -27.9786  -13.3899   18.6038 C   0  0  0  0  0  0  0  0  0  0  0  0
  -30.3856  -12.7353   19.0240 C   0  0  0  0  0  0  0  0  0  0  0  0
  -28.6972  -12.2811   20.7609 C   0  0  0  0  0  0  0  0  0  0  0  0
  -33.6768  -20.6024   18.1538 C   0  0  1  0  0  0  0  0  0  0  0  0
  -31.0360  -23.2632   18.7696 C   0  0  1  0  0  0  0  0  0  0  0  0
  -27.7133  -13.2728   20.1168 C   0  0  2  0  0  0  0  0  0  0  0  0
  -31.8066  -19.6483   25.4580 C   0  0  0  0  0  0  0  0  0  0  0  0
  -27.0621  -18.2585   26.3869 C   0  0  0  0  0  0  0  0  0  0  0  0
  -29.1672  -30.4282   21.0441 C   0  0  0  0  0  0  0  0  0  0  0  0
  -29.3420  -21.9545   28.3705 C   0  0  0  0  0  0  0  0  0  0  0  0
  -30.1163  -19.6003   28.6062 C   0  0  0  0  0  0  0  0  0  0  0  0
  -34.1027  -26.0147   20.8637 C   0  0  0  0  0  0  0  0  0  0  0  0
  -33.1949  -28.1839   21.7234 C   0  0  0  0  0  0  0  0  0  0  0  0
  -33.5327  -27.8588   19.2734 C   0  0  0  0  0  0  0  0  0  0  0  0
  -26.7535  -27.6118   20.1966 C   0  0  0  0  0  0  0  0  0  0  0  0
  -31.6352  -14.6350   24.1980 C   0  0  0  0  0  0  0  0  0  0  0  0
  -31.6452  -13.1675   23.7980 C   0  0  0  0  0  0  0  0  0  0  0  0
  -29.2628  -21.3257   25.1899 C   0  0  0  0  0  0  0  0  0  1  0  0
  -29.1133  -20.3497   26.3736 C   0  0  2  0  0  0  0  0  0  0  0  0
  -31.6380  -26.6526   20.4341 C   0  0  1  0  0  0  0  0  0  0  0  0
  -28.7444  -29.1015   20.4326 C   0  0  2  0  0  0  0  0  0  0  0  0
  -29.9562  -20.7668   27.6186 C   0  0  0  0  0  0  0  0  0  0  0  0
  -33.1030  -27.1532   20.5780 C   0  0  0  0  0  0  0  0  0  0  0  0
  -25.9360  -11.6154   20.5370 N   0  0  0  0  0  0  0  0  0  0  0  0
  -26.2681  -12.9109   20.4053 N   0  0  0  0  0  0  0  0  0  0  0  0
  -31.0135  -24.3616   19.7378 N   0  0  0  0  0  0  0  0  0  0  0  0
  -30.0824  -12.6720   20.4558 N   0  0  0  0  0  0  0  0  0  0  0  0
  -25.3749  -15.1042   20.4540 N   0  0  0  0  0  0  0  0  0  0  0  0
  -21.7779  -12.4961   21.2637 N   0  0  0  0  0  0  0  0  0  0  0  0
  -30.3365  -15.0254   24.6526 N   0  0  0  0  0  0  0  0  0  0  0  0
  -32.5136  -21.4624   18.1127 N   0  0  0  0  0  0  0  0  0  0  0  0
  -30.6733  -27.7058   20.1363 N   0  0  0  0  0  0  0  0  0  0  0  0
  -30.7191  -12.8880   22.7233 N   0  0  0  0  0  0  0  0  0  0  0  0
  -27.3080  -28.8713   20.7561 N   0  3  0  0  0  0  0  0  0  0  0  0
  -22.4863  -14.6609   20.9984 O   0  0  0  0  0  0  0  0  0  0  0  0
  -33.0558  -22.8340   19.9147 O   0  0  0  0  0  0  0  0  0  0  0  0
  -31.7720  -25.9229   18.1811 O   0  0  0  0  0  0  0  0  0  0  0  0
  -29.3268  -27.3487   21.9901 O   0  0  0  0  0  0  0  0  0  0  0  0
  -32.2398  -13.2784   21.0524 O   0  0  0  0  0  0  0  0  0  0  0  0
  -21.7454   -6.9337   21.5717 O   0  0  0  0  0  0  0  0  0  0  0  0
  -28.3562  -20.9651   24.1486 O   0  0  0  0  0  0  0  0  0  1  0  0
  -18.1677   -6.7914   25.7650 F   0  0  0  0  0  0  0  0  0  0  0  0
  -22.0214   -5.0860   23.6094 F   0  0  0  0  0  0  0  0  0  0  0  0
  1  2  1  0  0  0  0
  1  5  2  0  0  0  0
  2  6  2  0  0  0  0
  3  8  2  0  0  0  0
  3 17  1  0  0  0  0
  4  9  1  0  0  0  0
  4 17  2  0  0  0  0
  5 19  1  0  0  0  0
  6 21  1  0  0  0  0
  7 10  2  0  0  0  0
  7 20  1  0  0  0  0
  8 27  1  0  0  0  0
  9 27  2  0  0  0  0
 10 28  1  0  0  0  0
 11 12  2  0  0  0  0
 11 29  1  0  0  0  0
 12 30  1  0  0  0  0
 13 22  1  0  0  0  0
 13 28  2  0  0  0  0
 14 23  2  0  0  0  0
 14 26  1  0  0  0  0
 15 24  1  0  0  0  0
 15 26  2  0  0  0  0
 16 30  2  0  0  0  0
 16 31  1  0  0  0  0
 17 32  1  0  0  0  0
 18 32  1  0  0  0  0
 18 33  2  0  0  0  0
 18 34  1  0  0  0  0
 19 21  2  0  0  0  0
 19 39  1  0  0  0  0
 20 22  2  0  0  0  0
 20 40  1  0  0  0  0
 21 48  1  0  0  0  0
 22 41  1  0  0  0  0
 23 25  1  0  0  0  0
 23 51  1  0  0  0  0
 24 25  2  0  0  0  0
 24 52  1  0  0  0  0
 25 63  1  0  0  0  0
 26 74  1  0  0  0  0
 27 84  1  0  0  0  0
 28 85  1  0  0  0  0
 29 31  2  0  0  0  0
 29 84  1  0  0  0  0
 30 86  1  0  0  0  0
 31 87  1  0  0  0  0
 32 68  2  0  0  0  0
 33 69  1  0  0  0  0
 33 72  1  0  0  0  0
 34 73  1  0  0  0  0
 34 79  2  0  0  0  0
 35 49  1  0  0  0  0
 35 75  1  0  0  0  0
 35 80  2  0  0  0  0
 36 64  1  0  0  0  0
 36 70  1  0  0  0  0
 36 81  2  0  0  0  0
 37 65  1  0  0  0  0
 37 76  1  0  0  0  0
 37 82  2  0  0  0  0
 38 71  1  0  0  0  0
 38 77  1  0  0  0  0
 38 83  2  0  0  0  0
 39 42  1  0  0  0  0
 40 49  1  0  0  0  0
 41 70  1  0  0  0  0
 42 44  1  0  0  0  0
 43 45  1  0  0  0  0
 43 46  1  0  0  0  0
 44 48  1  0  0  0  0
 45 50  1  0  0  0  0
 46 71  1  0  0  0  0
 47 50  1  0  0  0  0
 47 71  1  0  0  0  0
 48 75  1  0  0  0  0
 49 70  1  0  0  0  0
 50 69  1  0  0  0  0
 53 65  1  0  0  0  0
 54 66  1  0  0  0  0
 55 66  1  0  0  0  0
 56 67  1  0  0  0  0
 57 67  1  0  0  0  0
 58 67  1  0  0  0  0
 59 78  1  0  0  0  0
 60 61  1  0  0  0  0
 60 74  1  0  0  0  0
 61 77  1  0  0  0  0
 62 63  1  0  0  0  0
 62 85  1  0  0  0  0
 63 66  1  0  0  0  0
 64 67  1  0  0  0  0
 64 76  1  0  0  0  0
 65 78  1  0  0  0  0
 68 69  1  0  0  0  0
M  CHG  1  78   1
M  ISO  4  38 100  62 101  77 100  85 101
M  END
> <Batch ID>
0133

> <Smiles>
CNC(C)C(=O)NC(C(=O)N1Cc2cc([101O:1][101CH2:1]C(c3c(C)cc(NCC[100NH:0][100C:0](=O)N4CCCC(n5nc(-c6ccc(Oc7ccc(F)cc7F)cc6)c(C(N)=O)c5N)C4)cc3C)C(C)C)ccc2CC1C(=O)NC1CCCc2ccccc21)C(C)(C)C

> <Shape>
0.231

> <Color>
0.175

> <Negative vol penalty>
0.000

$$$$

  -OEChem-04052320553D

 83 91  0     1  0  0  0  0  0999 V2000
  -28.4902  -35.8069   15.9776 C   0  0  0  0  0  0  0  0  0  0  0  0
  -29.2274  -34.6472   16.1943 C   0  0  0  0  0  0  0  0  0  0  0  0
  -24.5698   -9.5898   21.5339 C   0  0  0  0  0  0  0  0  0  0  0  0
  -24.8559  -10.7607   23.6278 C   0  0  0  0  0  0  0  0  0  0  0  0
  -27.4939  -36.1770   16.8801 C   0  0  0  0  0  0  0  0  0  0  0  0
  -28.9696  -33.8575   17.3142 C   0  0  0  0  0  0  0  0  0  0  0  0
  -29.3254  -27.7544   17.6764 C   0  0  0  0  0  0  0  0  0  0  0  0
  -24.3175   -8.4074   22.2296 C   0  0  0  0  0  0  0  0  0  0  0  0
  -24.6036   -9.5783   24.3234 C   0  0  0  0  0  0  0  0  0  0  0  0
  -30.3163  -26.8995   18.1570 C   0  0  0  0  0  0  0  0  0  0  0  0
  -21.7310   -6.9968   23.8887 C   0  0  0  0  0  0  0  0  0  0  0  0
  -20.6564   -6.2136   23.4676 C   0  0  0  0  0  0  0  0  0  0  0  0
  -29.1734  -26.7769   20.2778 C   0  0  0  0  0  0  0  0  0  0  0  0
  -27.8630  -22.1043   20.2553 C   0  0  0  0  0  0  0  0  0  0  0  0
  -26.9694  -19.9660   20.8983 C   0  0  0  0  0  0  0  0  0  0  0  0
  -22.1644   -4.3756   23.0378 C   0  0  0  0  0  0  0  0  0  0  0  0
  -24.8390  -10.7665   22.2330 C   0  0  0  0  0  0  0  0  0  0  0  0
  -24.1588  -12.9512   21.1053 C   0  0  0  0  0  0  0  0  0  0  0  0
  -27.2172  -35.3864   18.0065 C   0  0  0  0  0  0  0  0  0  0  0  0
  -28.2550  -28.1363   18.4978 C   0  0  0  0  0  0  0  0  0  0  0  0
  -27.9697  -34.2181   18.2333 C   0  0  0  0  0  0  0  0  0  0  0  0
  -28.1689  -27.6348   19.8044 C   0  0  0  0  0  0  0  0  0  0  0  0
  -26.8295  -21.3453   20.7928 C   0  0  0  0  0  0  0  0  0  0  0  0
  -24.3344   -8.4017   23.6243 C   0  0  0  0  0  0  0  0  0  0  0  0
  -30.2419  -26.4129   19.4588 C   0  0  0  0  0  0  0  0  0  0  0  0
  -23.0224   -6.4695   23.8843 C   0  0  0  0  0  0  0  0  0  0  0  0
  -20.8731   -4.9030   23.0422 C   0  0  0  0  0  0  0  0  0  0  0  0
  -23.2391   -5.1589   23.4589 C   0  0  0  0  0  0  0  0  0  0  0  0
  -25.1002  -11.9881   21.5150 C   0  0  0  0  0  0  0  0  0  0  0  0
  -29.0070  -21.4412   19.8411 C   0  0  0  0  0  0  0  0  0  0  0  0
  -28.1532  -19.3986   20.4552 C   0  0  0  0  0  0  0  0  0  0  0  0
  -24.9054  -13.9114   20.4673 C   0  0  0  0  0  0  0  0  0  0  0  0
  -22.7366  -12.9757   21.2854 C   0  0  0  0  0  0  0  0  0  0  0  0
  -27.1916  -30.8984   19.6570 C   0  0  0  0  0  0  0  0  0  0  0  0
  -24.7409  -29.0603   20.7239 C   0  0  0  0  0  0  0  0  0  0  0  0
  -23.6196  -25.9657   21.6253 C   0  0  0  0  0  0  0  0  0  0  0  0
  -29.3793  -17.2142   20.1876 C   0  0  0  0  0  0  0  0  0  0  0  0
  -26.1628  -35.8522   18.9791 C   0  0  0  0  0  0  0  0  0  0  0  0
  -27.1801  -29.0380   17.9556 C   0  0  0  0  0  0  0  0  0  0  0  0
  -27.0295  -27.9983   20.7199 C   0  0  0  0  0  0  0  0  0  0  0  0
  -25.6982  -34.7624   19.9418 C   0  0  0  0  0  0  0  0  0  0  0  0
  -29.7484  -13.8796   18.9955 C   0  0  0  0  0  0  0  0  0  0  0  0
  -26.8958  -34.0194   20.5253 C   0  0  0  0  0  0  0  0  0  0  0  0
  -28.4945  -13.1694   19.5110 C   0  0  0  0  0  0  0  0  0  0  0  0
  -30.2738  -14.9034   20.0002 C   0  0  0  0  0  0  0  0  0  0  0  0
  -28.0293  -15.1731   20.9793 C   0  0  0  0  0  0  0  0  0  0  0  0
  -27.7028  -33.3222   19.4234 C   0  0  1  0  0  0  0  0  0  0  0  0
  -26.4074  -29.7705   19.0482 C   0  0  1  0  0  0  0  0  0  0  0  0
  -27.4256  -14.1786   19.9743 C   0  0  2  0  0  0  0  0  0  0  0  0
  -25.5760  -22.0079   21.2542 C   0  0  0  0  0  0  0  0  0  0  0  0
  -21.9872  -24.1943   22.3288 C   0  0  0  0  0  0  0  0  0  0  0  0
  -25.2709  -30.1898   23.5083 C   0  0  0  0  0  0  0  0  0  0  0  0
  -23.8975  -28.3211   24.4517 C   0  0  0  0  0  0  0  0  0  0  0  0
  -22.8516  -29.9805   22.9106 C   0  0  0  0  0  0  0  0  0  0  0  0
  -22.9095  -25.3425   18.8206 C   0  0  0  0  0  0  0  0  0  0  0  0
  -30.1500  -22.2331   19.2515 C   0  0  0  0  0  0  0  0  0  0  0  0
  -32.3148  -23.4624   19.6876 C   0  0  0  0  0  0  0  0  0  0  0  0
  -31.8572  -24.7340   18.9813 C   0  0  0  0  0  0  0  0  0  1  0  0
  -24.4652  -28.2707   21.9806 C   0  0  1  0  0  0  0  0  0  0  0  0
  -22.3611  -25.2025   21.2534 C   0  0  2  0  0  0  0  0  0  0  0  0
  -31.1504  -22.6936   20.3209 C   0  0  2  0  0  0  0  0  0  0  0  0
  -24.1439  -29.1850   23.1964 C   0  0  0  0  0  0  0  0  0  0  0  0
  -26.3494  -12.3072   21.1664 N   0  0  0  0  0  0  0  0  0  0  0  0
  -29.1793  -20.1031   19.9275 N   0  0  0  0  0  0  0  0  0  0  0  0
  -26.1982  -13.4816   20.5309 N   0  0  0  0  0  0  0  0  0  0  0  0
  -26.0066  -28.8879   20.1457 N   0  0  0  0  0  0  0  0  0  0  0  0
  -29.2075  -15.8285   20.3902 N   0  0  0  0  0  0  0  0  0  0  0  0
  -24.5755  -15.0730   19.8636 N   0  0  0  0  0  0  0  0  0  0  0  0
  -22.1305  -11.9095   21.9636 N   0  0  0  0  0  0  0  0  0  0  0  0
  -28.2858  -17.9923   20.5665 N   0  0  0  0  0  0  0  0  0  0  0  0
  -27.0395  -32.1064   19.0035 N   0  0  0  0  0  0  0  0  0  0  0  0
  -23.4039  -27.3274   21.6454 N   0  0  0  0  0  0  0  0  0  0  0  0
  -22.5596  -24.4699   19.9709 N   0  3  0  0  0  0  0  0  0  0  0  0
  -22.0224  -13.9074   20.8432 O   0  0  0  0  0  0  0  0  0  0  0  0
  -27.8822  -30.6886   20.6473 O   0  0  0  0  0  0  0  0  0  0  0  0
  -23.8631  -29.7972   20.2678 O   0  0  0  0  0  0  0  0  0  0  0  0
  -24.6862  -25.4093   21.8768 O   0  0  0  0  0  0  0  0  0  0  0  0
  -30.4092  -17.6742   19.6878 O   0  0  0  0  0  0  0  0  0  0  0  0
  -31.6609  -21.5555   21.0149 O   0  0  0  0  0  0  0  0  0  0  0  0
  -24.0881   -7.2481   24.3034 O   0  0  0  0  0  0  0  0  0  0  0  0
  -31.2081  -25.5788   19.9307 O   0  0  0  0  0  0  0  0  0  1  0  0
  -19.8408   -4.1505   22.6393 F   0  0  0  0  0  0  0  0  0  0  0  0
  -24.4773   -4.6464   23.4535 F   0  0  0  0  0  0  0  0  0  0  0  0
  1  2  1  0  0  0  0
  1  5  2  0  0  0  0
  2  6  2  0  0  0  0
  3  8  2  0  0  0  0
  3 17  1  0  0  0  0
  4  9  1  0  0  0  0
  4 17  2  0  0  0  0
  5 19  1  0  0  0  0
  6 21  1  0  0  0  0
  7 10  2  0  0  0  0
  7 20  1  0  0  0  0
  8 24  1  0  0  0  0
  9 24  2  0  0  0  0
 10 25  1  0  0  0  0
 11 12  2  0  0  0  0
 11 26  1  0  0  0  0
 12 27  1  0  0  0  0
 13 22  1  0  0  0  0
 13 25  2  0  0  0  0
 14 23  2  0  0  0  0
 14 30  1  0  0  0  0
 15 23  1  0  0  0  0
 15 31  2  0  0  0  0
 16 27  2  0  0  0  0
 16 28  1  0  0  0  0
 17 29  1  0  0  0  0
 18 29  1  0  0  0  0
 18 32  2  0  0  0  0
 18 33  1  0  0  0  0
 19 21  2  0  0  0  0
 19 38  1  0  0  0  0
 20 22  2  0  0  0  0
 20 39  1  0  0  0  0
 21 47  1  0  0  0  0
 22 40  1  0  0  0  0
 23 50  1  0  0  0  0
 24 80  1  0  0  0  0
 25 81  1  0  0  0  0
 26 28  2  0  0  0  0
 26 80  1  0  0  0  0
 27 82  1  0  0  0  0
 28 83  1  0  0  0  0
 29 63  2  0  0  0  0
 30 56  1  0  0  0  0
 30 64  2  0  0  0  0
 31 64  1  0  0  0  0
 31 70  1  0  0  0  0
 32 65  1  0  0  0  0
 32 68  1  0  0  0  0
 33 69  1  0  0  0  0
 33 74  2  0  0  0  0
 34 48  1  0  0  0  0
 34 71  1  0  0  0  0
 34 75  2  0  0  0  0
 35 59  1  0  0  0  0
 35 66  1  0  0  0  0
 35 76  2  0  0  0  0
 36 60  1  0  0  0  0
 36 72  1  0  0  0  0
 36 77  2  0  0  0  0
 37 67  1  0  0  0  0
 37 70  1  0  0  0  0
 37 78  2  0  0  0  0
 38 41  1  0  0  0  0
 39 48  1  0  0  0  0
 40 66  1  0  0  0  0
 41 43  1  0  0  0  0
 42 44  1  0  0  0  0
 42 45  1  0  0  0  0
 43 47  1  0  0  0  0
 44 49  1  0  0  0  0
 45 67  1  0  0  0  0
 46 49  1  0  0  0  0
 46 67  1  0  0  0  0
 47 71  1  0  0  0  0
 48 66  1  0  0  0  0
 49 65  1  0  0  0  0
 51 60  1  0  0  0  0
 52 62  1  0  0  0  0
 53 62  1  0  0  0  0
 54 62  1  0  0  0  0
 55 73  1  0  0  0  0
 56 61  1  0  0  0  0
 57 58  1  0  0  0  0
 57 61  1  0  0  0  0
 58 81  1  0  0  0  0
 59 62  1  0  0  0  0
 59 72  1  0  0  0  0
 60 73  1  0  0  0  0
 61 79  1  0  0  0  0
 63 65  1  0  0  0  0
M  CHG  1  73   1
M  ISO  4  37 100  58 101  70 100  81 101
M  END
> <Batch ID>
0133

> <Smiles>
CNC(C)C(=O)NC(C(=O)N1Cc2cc([101O:1][101CH2:1]CC(O)Cc3cc(C)cc([100NH:0][100C:0](=O)N4CCCC(n5nc(-c6ccc(Oc7ccc(F)cc7F)cc6)c(C(N)=O)c5N)C4)n3)ccc2CC1C(=O)NC1CCCc2ccccc21)C(C)(C)C

> <Shape>
0.262

> <Color>
0.123

> <Negative vol penalty>
0.000

$$$$

  -OEChem-04052320553D

 81 89  0     1  0  0  0  0  0999 V2000
  -23.5157  -30.6099   21.5405 C   0  0  0  0  0  0  0  0  0  0  0  0
  -23.1963  -29.9146   20.3785 C   0  0  0  0  0  0  0  0  0  0  0  0
  -23.7102  -16.4104   22.1807 C   0  0  0  0  0  0  0  0  0  0  0  0
  -22.8260  -16.0856   19.9559 C   0  0  0  0  0  0  0  0  0  0  0  0
  -24.7881  -30.4874   22.0972 C   0  0  0  0  0  0  0  0  0  0  0  0
  -24.1495  -29.0974   19.7720 C   0  0  0  0  0  0  0  0  0  0  0  0
  -24.7175  -23.0337   16.0004 C   0  0  0  0  0  0  0  0  0  0  0  0
  -27.6725  -18.4807   12.0634 C   0  0  0  0  0  0  0  0  0  0  0  0
  -22.8620  -17.5034   22.3582 C   0  0  0  0  0  0  0  0  0  0  0  0
  -21.9778  -17.1786   20.1334 C   0  0  0  0  0  0  0  0  0  0  0  0
  -25.2742  -22.5491   14.8176 C   0  0  0  0  0  0  0  0  0  0  0  0
  -21.1842  -20.6003   23.2625 C   0  0  0  0  0  0  0  0  0  0  0  0
  -21.7227  -21.7559   23.8282 C   0  0  0  0  0  0  0  0  0  0  0  0
  -27.7018  -19.8586   12.2474 C   0  0  0  0  0  0  0  0  0  0  0  0
  -27.4146  -22.3522   15.9127 C   0  0  0  0  0  0  0  0  0  0  0  0
  -23.3009  -21.9127   22.0057 C   0  0  0  0  0  0  0  0  0  0  0  0
  -26.5797  -18.2755   14.1661 C   0  0  0  0  0  0  0  0  0  0  0  0
  -23.6923  -15.7015   20.9795 C   0  0  0  0  0  0  0  0  0  0  0  0
  -24.2955  -13.2258   21.1003 C   0  0  0  0  0  0  0  0  0  0  0  0
  -25.7543  -29.6607   21.5026 C   0  0  0  0  0  0  0  0  0  0  0  0
  -25.5090  -23.1917   17.1471 C   0  0  0  0  0  0  0  0  0  0  0  0
  -25.4364  -28.9648   20.3206 C   0  0  0  0  0  0  0  0  0  0  0  0
  -26.8649  -22.8366   17.1095 C   0  0  0  0  0  0  0  0  0  0  0  0
  -27.1021  -17.6671   13.0361 C   0  0  0  0  0  0  0  0  0  0  0  0
  -21.9958  -17.8875   21.3346 C   0  0  0  0  0  0  0  0  0  0  0  0
  -26.6236  -22.2110   14.7728 C   0  0  0  0  0  0  0  0  0  0  0  0
  -21.7041  -20.1008   22.0684 C   0  0  0  0  0  0  0  0  0  0  0  0
  -22.7811  -22.4121   23.1998 C   0  0  0  0  0  0  0  0  0  0  0  0
  -22.7624  -20.7570   21.4399 C   0  0  0  0  0  0  0  0  0  0  0  0
  -24.5686  -14.5728   20.7953 C   0  0  0  0  0  0  0  0  0  0  0  0
  -27.1523  -20.3692   13.4124 C   0  0  0  0  0  0  0  0  0  1  0  0
  -25.4391  -12.5542   20.7430 C   0  0  0  0  0  0  0  0  0  0  0  0
  -23.1138  -12.6346   21.6567 C   0  0  0  0  0  0  0  0  0  0  0  0
  -26.3683  -25.6595   18.9569 C   0  0  0  0  0  0  0  0  0  0  0  0
  -27.6766  -23.3428   20.8127 C   0  0  0  0  0  0  0  0  0  0  0  0
  -28.9392  -20.1803   21.0388 C   0  0  0  0  0  0  0  0  0  0  0  0
  -29.8083  -13.7398   16.8244 C   0  0  0  0  0  0  0  0  0  0  0  0
  -27.1312  -29.5970   22.1147 C   0  0  0  0  0  0  0  0  0  0  0  0
  -24.8873  -23.6904   18.4227 C   0  0  0  0  0  0  0  0  0  0  0  0
  -27.7530  -22.9684   18.3188 C   0  0  0  0  0  0  0  0  0  0  0  0
  -27.9644  -28.4179   21.6188 C   0  0  0  0  0  0  0  0  0  0  0  0
  -30.1651  -13.1683   20.3205 C   0  0  0  0  0  0  0  0  0  0  0  0
  -27.8780  -28.3045   20.1000 C   0  0  0  0  0  0  0  0  0  0  0  0
  -28.7466  -13.3419   20.8661 C   0  0  0  0  0  0  0  0  0  0  0  0
  -30.4549  -14.1433   19.1814 C   0  0  0  0  0  0  0  0  0  0  0  0
  -28.0588  -14.2877   18.6231 C   0  0  0  0  0  0  0  0  0  0  0  0
  -26.4354  -28.0490   19.6471 C   0  0  1  0  0  0  0  0  0  0  0  0
  -25.9035  -24.2964   19.3857 C   0  0  1  0  0  0  0  0  0  0  0  0
  -27.7007  -13.2882   19.7363 C   0  0  2  0  0  0  0  0  0  0  0  0
  -29.8651  -18.1147   22.1221 C   0  0  0  0  0  0  0  0  0  0  0  0
  -30.3070  -24.8816   20.6613 C   0  0  0  0  0  0  0  0  0  0  0  0
  -31.4778  -22.8226   21.4724 C   0  0  0  0  0  0  0  0  0  0  0  0
  -29.7779  -23.9394   22.9167 C   0  0  0  0  0  0  0  0  0  0  0  0
  -26.2349  -19.0718   21.5042 C   0  0  0  0  0  0  0  0  0  0  0  0
  -27.0551  -16.1903   12.8688 C   0  0  0  0  0  0  0  0  0  0  0  0
  -29.0043  -13.3468   14.5095 C   0  0  0  0  0  0  0  0  0  0  0  0
  -27.9711  -13.9844   13.5995 C   0  0  0  0  0  0  0  0  0  0  0  0
  -29.0187  -22.6545   20.8760 C   0  0  1  0  0  0  0  0  0  0  0  0
  -28.6770  -19.0594   22.0284 C   0  0  2  0  0  0  0  0  0  0  0  0
  -30.1293  -23.5738   21.4581 C   0  0  0  0  0  0  0  0  0  0  0  0
  -26.5905  -19.6104   14.3800 N   0  0  0  0  0  0  0  0  0  0  0  0
  -25.7899  -14.7482   20.2838 N   0  0  0  0  0  0  0  0  0  0  0  0
  -26.2944  -13.5028   20.2646 N   0  0  0  0  0  0  0  0  0  0  0  0
  -27.1000  -23.4666   19.5407 N   0  0  0  0  0  0  0  0  0  0  0  0
  -29.4273  -14.0411   18.1423 N   0  0  0  0  0  0  0  0  0  0  0  0
  -25.7864  -11.2507   20.7945 N   0  0  0  0  0  0  0  0  0  0  0  0
  -22.0312  -13.4693   21.9659 N   0  0  0  0  0  0  0  0  0  0  0  0
  -26.0765  -26.6634   19.8606 N   0  0  0  0  0  0  0  0  0  0  0  0
  -28.8098  -21.4210   21.6264 N   0  0  0  0  0  0  0  0  0  0  0  0
  -28.7717  -13.6553   15.9029 N   0  0  0  0  0  0  0  0  0  0  0  0
  -27.4818  -18.2716   21.6139 N   0  3  0  0  0  0  0  0  0  0  0  0
  -28.0452  -15.4636   13.7138 N   0  3  0  0  0  0  0  0  0  0  0  0
  -23.0267  -11.4049   21.8886 O   0  0  0  0  0  0  0  0  0  0  0  0
  -26.9499  -25.7904   17.8863 O   0  0  0  0  0  0  0  0  0  0  0  0
  -27.1557  -23.7492   21.8544 O   0  0  0  0  0  0  0  0  0  0  0  0
  -29.2334  -19.9757   19.8632 O   0  0  0  0  0  0  0  0  0  0  0  0
  -30.9846  -13.5543   16.4944 O   0  0  0  0  0  0  0  0  0  0  0  0
  -21.1678  -18.9538   21.5076 O   0  0  0  0  0  0  0  0  0  0  0  0
  -27.1697  -21.7385   13.6194 O   0  0  0  0  0  0  0  0  0  1  0  0
  -23.2971  -23.5228   23.7424 F   0  0  0  0  0  0  0  0  0  0  0  0
  -23.2652  -20.2825   20.2920 F   0  0  0  0  0  0  0  0  0  0  0  0
  1  2  1  0  0  0  0
  1  5  2  0  0  0  0
  2  6  2  0  0  0  0
  3  9  2  0  0  0  0
  3 18  1  0  0  0  0
  4 10  1  0  0  0  0
  4 18  2  0  0  0  0
  5 20  1  0  0  0  0
  6 22  1  0  0  0  0
  7 11  2  0  0  0  0
  7 21  1  0  0  0  0
  8 14  2  0  0  0  0
  8 24  1  0  0  0  0
  9 25  1  0  0  0  0
 10 25  2  0  0  0  0
 11 26  1  0  0  0  0
 12 13  2  0  0  0  0
 12 27  1  0  0  0  0
 13 28  1  0  0  0  0
 14 31  1  0  0  0  0
 15 23  1  0  0  0  0
 15 26  2  0  0  0  0
 16 28  2  0  0  0  0
 16 29  1  0  0  0  0
 17 24  2  0  0  0  0
 17 61  1  0  0  0  0
 18 30  1  0  0  0  0
 19 30  1  0  0  0  0
 19 32  2  0  0  0  0
 19 33  1  0  0  0  0
 20 22  2  0  0  0  0
 20 38  1  0  0  0  0
 21 23  2  0  0  0  0
 21 39  1  0  0  0  0
 22 47  1  0  0  0  0
 23 40  1  0  0  0  0
 24 55  1  0  0  0  0
 25 78  1  0  0  0  0
 26 79  1  0  0  0  0
 27 29  2  0  0  0  0
 27 78  1  0  0  0  0
 28 80  1  0  0  0  0
 29 81  1  0  0  0  0
 30 62  2  0  0  0  0
 31 61  2  0  0  0  0
 31 79  1  0  0  0  0
 32 63  1  0  0  0  0
 32 66  1  0  0  0  0
 33 67  1  0  0  0  0
 33 73  2  0  0  0  0
 34 48  1  0  0  0  0
 34 68  1  0  0  0  0
 34 74  2  0  0  0  0
 35 58  1  0  0  0  0
 35 64  1  0  0  0  0
 35 75  2  0  0  0  0
 36 59  1  0  0  0  0
 36 69  1  0  0  0  0
 36 76  2  0  0  0  0
 37 65  1  0  0  0  0
 37 70  1  0  0  0  0
 37 77  2  0  0  0  0
 38 41  1  0  0  0  0
 39 48  1  0  0  0  0
 40 64  1  0  0  0  0
 41 43  1  0  0  0  0
 42 44  1  0  0  0  0
 42 45  1  0  0  0  0
 43 47  1  0  0  0  0
 44 49  1  0  0  0  0
 45 65  1  0  0  0  0
 46 49  1  0  0  0  0
 46 65  1  0  0  0  0
 47 68  1  0  0  0  0
 48 64  1  0  0  0  0
 49 63  1  0  0  0  0
 50 59  1  0  0  0  0
 51 60  1  0  0  0  0
 52 60  1  0  0  0  0
 53 60  1  0  0  0  0
 54 71  1  0  0  0  0
 55 72  1  0  0  0  0
 56 57  1  0  0  0  0
 56 70  1  0  0  0  0
 57 72  1  0  0  0  0
 58 60  1  0  0  0  0
 58 69  1  0  0  0  0
 59 71  1  0  0  0  0
 62 63  1  0  0  0  0
M  CHG  2  71   1  72   1
M  ISO  4  31 101  37 100  70 100  79 101
M  END
> <Batch ID>
0133

> <Smiles>
CNC(C)C(=O)NC(C(=O)N1Cc2cc([101O:1][101c:1]3ccc(CNCC[100NH:0][100C:0](=O)N4CCCC(n5nc(-c6ccc(Oc7ccc(F)cc7F)cc6)c(C(N)=O)c5N)C4)cn3)ccc2CC1C(=O)NC1CCCc2ccccc21)C(C)(C)C

> <Shape>
0.197

> <Color>
0.090

> <Negative vol penalty>
0.000

$$$$

  -OEChem-04052320553D

 83 91  0     1  0  0  0  0  0999 V2000
  -28.6263  -23.4783   15.5420 C   0  0  0  0  0  0  0  0  0  0  0  0
  -27.9856  -23.0308   16.6930 C   0  0  0  0  0  0  0  0  0  0  0  0
  -27.6206  -17.0321   18.9658 C   0  0  0  0  0  0  0  0  0  0  0  0
  -27.9829  -17.0530   21.3544 C   0  0  0  0  0  0  0  0  0  0  0  0
  -20.7153  -17.6164   24.4004 C   0  0  0  0  0  0  0  0  0  0  0  0
  -23.0400  -17.8115   25.0288 C   0  0  0  0  0  0  0  0  0  0  0  0
  -28.9128  -24.8340   15.3875 C   0  0  0  0  0  0  0  0  0  0  0  0
  -27.6322  -23.9386   17.6907 C   0  0  0  0  0  0  0  0  0  0  0  0
  -22.9397  -23.1776   19.4361 C   0  0  0  0  0  0  0  0  0  0  0  0
  -20.9198  -18.5245   23.3617 C   0  0  0  0  0  0  0  0  0  0  0  0
  -23.2445  -18.7197   23.9901 C   0  0  0  0  0  0  0  0  0  0  0  0
  -28.3415  -18.2202   18.8460 C   0  0  0  0  0  0  0  0  0  0  0  0
  -28.7039  -18.2411   21.2346 C   0  0  0  0  0  0  0  0  0  0  0  0
  -22.7575  -22.1285   20.3361 C   0  0  0  0  0  0  0  0  0  0  0  0
  -30.3330  -21.4690   21.6042 C   0  0  0  0  0  0  0  0  0  0  0  0
  -30.0644  -22.4855   22.5208 C   0  0  0  0  0  0  0  0  0  0  0  0
  -22.7852  -23.7011   22.1652 C   0  0  0  0  0  0  0  0  0  0  0  0
  -27.7674  -22.5514   21.7746 C   0  0  0  0  0  0  0  0  0  0  0  0
  -27.4413  -16.4486   20.2200 C   0  0  0  0  0  0  0  0  0  0  0  0
  -21.7754  -17.2599   25.2340 C   0  0  0  0  0  0  0  0  0  0  0  0
  -27.2021  -13.9095   20.2793 C   0  0  0  0  0  0  0  0  0  0  0  0
  -28.5541  -25.7603   16.3795 C   0  0  0  0  0  0  0  0  0  0  0  0
  -23.0572  -24.4973   19.8954 C   0  0  0  0  0  0  0  0  0  0  0  0
  -27.9154  -25.3078   17.5498 C   0  0  0  0  0  0  0  0  0  0  0  0
  -22.9663  -24.7653   21.2688 C   0  0  0  0  0  0  0  0  0  0  0  0
  -22.1844  -19.0762   23.1565 C   0  0  0  0  0  0  0  0  0  0  0  0
  -28.8831  -18.8247   19.9804 C   0  0  0  0  0  0  0  0  0  0  0  0
  -22.6831  -22.3899   21.7011 C   0  0  0  0  0  0  0  0  0  0  0  0
  -29.3188  -20.9937   20.7728 C   0  0  0  0  0  0  0  0  0  0  0  0
  -28.7816  -23.0267   22.6060 C   0  0  0  0  0  0  0  0  0  0  0  0
  -28.0360  -21.5349   20.8580 C   0  0  0  0  0  0  0  0  0  0  0  0
  -26.6962  -15.2216   20.3444 C   0  0  0  0  0  0  0  0  0  0  0  0
  -26.1007  -13.1077   20.4543 C   0  0  0  0  0  0  0  0  0  0  0  0
  -21.5634  -16.3126   26.3171 C   0  0  0  0  0  0  0  0  0  0  0  0
  -28.5474  -13.4559   20.0788 C   0  0  0  0  0  0  0  0  0  0  0  0
  -25.3241  -26.7220   19.7719 C   0  0  0  0  0  0  0  0  0  0  0  0
  -23.0228  -28.5857   21.0959 C   0  0  0  0  0  0  0  0  0  0  0  0
  -20.1488  -28.7794   22.9262 C   0  0  0  0  0  0  0  0  0  0  0  0
  -20.8099  -13.9727   23.1207 C   0  0  0  0  0  0  0  0  0  0  0  0
  -28.9271  -27.2091   16.1888 C   0  0  0  0  0  0  0  0  0  0  0  0
  -23.2266  -25.6206   18.9096 C   0  0  0  0  0  0  0  0  0  0  0  0
  -23.0661  -26.1667   21.8115 C   0  0  0  0  0  0  0  0  0  0  0  0
  -28.1835  -28.1578   17.1255 C   0  0  0  0  0  0  0  0  0  0  0  0
  -21.3716  -13.0323   19.7330 C   0  0  0  0  0  0  0  0  0  0  0  0
  -28.2029  -27.6220   18.5536 C   0  0  0  0  0  0  0  0  0  0  0  0
  -22.8455  -13.3684   19.4997 C   0  0  0  0  0  0  0  0  0  0  0  0
  -20.6979  -14.0531   20.6474 C   0  0  0  0  0  0  0  0  0  0  0  0
  -22.8539  -14.6114   21.7028 C   0  0  0  0  0  0  0  0  0  0  0  0
  -27.4940  -26.2652   18.6434 C   0  0  1  0  0  0  0  0  0  0  0  0
  -23.8488  -26.8690   19.5275 C   0  0  1  0  0  0  0  0  0  0  0  0
  -23.5902  -13.5792   20.8317 C   0  0  2  0  0  0  0  0  0  0  0  0
  -19.8434  -14.8947   27.5702 C   0  0  0  0  0  0  0  0  0  0  0  0
  -18.5272  -30.4418   23.8769 C   0  0  0  0  0  0  0  0  0  0  0  0
  -25.0207  -29.2718   23.2976 C   0  0  0  0  0  0  0  0  0  0  0  0
  -23.1087  -30.1244   24.6708 C   0  0  0  0  0  0  0  0  0  0  0  0
  -23.6545  -31.2044   22.4894 C   0  0  0  0  0  0  0  0  0  0  0  0
  -17.9049  -27.6668   21.3495 C   0  0  0  0  0  0  0  0  0  0  0  0
  -22.4042  -20.0523   22.0383 C   0  0  0  0  0  0  0  0  0  1  0  0
  -21.0822  -13.9227   25.5870 C   0  0  0  0  0  0  0  0  0  0  0  0
  -20.4926  -15.1918   26.2136 C   0  0  2  0  0  0  0  0  0  0  0  0
  -22.5901  -28.9111   22.5051 C   0  0  1  0  0  0  0  0  0  0  0  0
  -18.8572  -29.5430   22.6955 C   0  0  2  0  0  0  0  0  0  0  0  0
  -23.5935  -29.8512   23.2310 C   0  0  0  0  0  0  0  0  0  0  0  0
  -25.3761  -15.2558   20.5449 N   0  0  0  0  0  0  0  0  0  0  0  0
  -25.0432  -13.9553   20.6072 N   0  0  0  0  0  0  0  0  0  0  0  0
  -23.2378  -27.2304   20.8082 N   0  0  0  0  0  0  0  0  0  0  0  0
  -21.4527  -14.2051   21.8936 N   0  0  0  0  0  0  0  0  0  0  0  0
  -25.9434  -11.7675   20.4906 N   0  0  0  0  0  0  0  0  0  0  0  0
  -29.5580  -14.4133   19.9163 N   0  0  0  0  0  0  0  0  0  0  0  0
  -26.0579  -26.4438   18.6346 N   0  0  0  0  0  0  0  0  0  0  0  0
  -21.2367  -29.4462   22.4033 N   0  0  0  0  0  0  0  0  0  0  0  0
  -21.5992  -14.1326   24.2531 N   0  0  0  0  0  0  0  0  0  0  0  0
  -17.7244  -28.5958   22.4946 N   0  3  0  0  0  0  0  0  0  0  0  0
  -22.2588  -16.3797   27.3540 O   0  0  0  0  0  0  0  0  0  0  0  0
  -28.8420  -12.2377   20.0282 O   0  0  0  0  0  0  0  0  0  0  0  0
  -25.7642  -26.8529   20.9081 O   0  0  0  0  0  0  0  0  0  0  0  0
  -23.1579  -29.4996   20.2785 O   0  0  0  0  0  0  0  0  0  0  0  0
  -20.1892  -27.7013   23.5148 O   0  0  0  0  0  0  0  0  0  0  0  0
  -19.6220  -13.6418   23.2010 O   0  0  0  0  0  0  0  0  0  0  0  0
  -29.5869  -19.9839   19.8639 O   0  0  0  0  0  0  0  0  0  0  0  0
  -22.5059  -21.3677   22.5819 O   0  0  0  0  0  0  0  0  0  1  0  0
  -28.5235  -24.0018   23.4873 F   0  0  0  0  0  0  0  0  0  0  0  0
  -27.0574  -21.0816   20.0627 F   0  0  0  0  0  0  0  0  0  0  0  0
  1  2  1  0  0  0  0
  1  7  2  0  0  0  0
  2  8  2  0  0  0  0
  3 12  2  0  0  0  0
  3 19  1  0  0  0  0
  4 13  1  0  0  0  0
  4 19  2  0  0  0  0
  5 10  2  0  0  0  0
  5 20  1  0  0  0  0
  6 11  1  0  0  0  0
  6 20  2  0  0  0  0
  7 22  1  0  0  0  0
  8 24  1  0  0  0  0
  9 14  2  0  0  0  0
  9 23  1  0  0  0  0
 10 26  1  0  0  0  0
 11 26  2  0  0  0  0
 12 27  1  0  0  0  0
 13 27  2  0  0  0  0
 14 28  1  0  0  0  0
 15 16  2  0  0  0  0
 15 29  1  0  0  0  0
 16 30  1  0  0  0  0
 17 25  1  0  0  0  0
 17 28  2  0  0  0  0
 18 30  2  0  0  0  0
 18 31  1  0  0  0  0
 19 32  1  0  0  0  0
 20 34  1  0  0  0  0
 21 32  1  0  0  0  0
 21 33  2  0  0  0  0
 21 35  1  0  0  0  0
 22 24  2  0  0  0  0
 22 40  1  0  0  0  0
 23 25  2  0  0  0  0
 23 41  1  0  0  0  0
 24 49  1  0  0  0  0
 25 42  1  0  0  0  0
 26 58  1  0  0  0  0
 27 80  1  0  0  0  0
 28 81  1  0  0  0  0
 29 31  2  0  0  0  0
 29 80  1  0  0  0  0
 30 82  1  0  0  0  0
 31 83  1  0  0  0  0
 32 64  2  0  0  0  0
 33 65  1  0  0  0  0
 33 68  1  0  0  0  0
 34 60  1  0  0  0  0
 34 74  2  0  0  0  0
 35 69  1  0  0  0  0
 35 75  2  0  0  0  0
 36 50  1  0  0  0  0
 36 70  1  0  0  0  0
 36 76  2  0  0  0  0
 37 61  1  0  0  0  0
 37 66  1  0  0  0  0
 37 77  2  0  0  0  0
 38 62  1  0  0  0  0
 38 71  1  0  0  0  0
 38 78  2  0  0  0  0
 39 67  1  0  0  0  0
 39 72  1  0  0  0  0
 39 79  2  0  0  0  0
 40 43  1  0  0  0  0
 41 50  1  0  0  0  0
 42 66  1  0  0  0  0
 43 45  1  0  0  0  0
 44 46  1  0  0  0  0
 44 47  1  0  0  0  0
 45 49  1  0  0  0  0
 46 51  1  0  0  0  0
 47 67  1  0  0  0  0
 48 51  1  0  0  0  0
 48 67  1  0  0  0  0
 49 70  1  0  0  0  0
 50 66  1  0  0  0  0
 51 65  1  0  0  0  0
 52 60  1  0  0  0  0
 53 62  1  0  0  0  0
 54 63  1  0  0  0  0
 55 63  1  0  0  0  0
 56 63  1  0  0  0  0
 57 73  1  0  0  0  0
 58 81  1  0  0  0  0
 59 60  1  0  0  0  0
 59 72  1  0  0  0  0
 61 63  1  0  0  0  0
 61 71  1  0  0  0  0
 62 73  1  0  0  0  0
 64 65  1  0  0  0  0
M  CHG  1  73   1
M  ISO  4  39 100  58 101  72 100  81 101
M  END
> <Batch ID>
0133

> <Smiles>
CNC(C)C(=O)NC(C(=O)N1Cc2cc([101O:1][101CH2:1]c3ccc(C(=O)C(C)C[100NH:0][100C:0](=O)N4CCCC(n5nc(-c6ccc(Oc7ccc(F)cc7F)cc6)c(C(N)=O)c5N)C4)cc3)ccc2CC1C(=O)NC1CCCc2ccccc21)C(C)(C)C

> <Shape>
0.218

> <Color>
0.071

> <Negative vol penalty>
0.000

$$$$

  -OEChem-04052320553D

 90100  0     1  0  0  0  0  0999 V2000
  -28.7645  -37.7834   24.9004 C   0  0  0  0  0  0  0  0  0  0  0  0
  -29.2686  -36.5190   24.6129 C   0  0  0  0  0  0  0  0  0  0  0  0
  -23.0434   -9.9301   19.9449 C   0  0  0  0  0  0  0  0  0  0  0  0
  -23.9755   -9.8552   22.1726 C   0  0  0  0  0  0  0  0  0  0  0  0
  -27.7142  -38.3023   24.1444 C   0  0  0  0  0  0  0  0  0  0  0  0
  -28.7219  -35.7723   23.5699 C   0  0  0  0  0  0  0  0  0  0  0  0
  -31.6973  -31.9412   19.8315 C   0  0  0  0  0  0  0  0  0  0  0  0
  -31.0983  -22.6374   23.2618 C   0  0  0  0  0  0  0  0  0  0  0  0
  -22.3381   -8.7542   20.2004 C   0  0  0  0  0  0  0  0  0  0  0  0
  -23.2701   -8.6793   22.4282 C   0  0  0  0  0  0  0  0  0  0  0  0
  -31.8411  -30.5545   19.8304 C   0  0  0  0  0  0  0  0  0  0  0  0
  -20.1095   -7.7985   23.2376 C   0  0  0  0  0  0  0  0  0  0  0  0
  -19.4446   -7.6960   24.4595 C   0  0  0  0  0  0  0  0  0  0  0  0
  -31.5375  -23.9326   23.0106 C   0  0  0  0  0  0  0  0  0  0  0  0
  -30.0138  -30.3722   18.2662 C   0  0  0  0  0  0  0  0  0  0  0  0
  -20.7673   -5.7524   25.0162 C   0  0  0  0  0  0  0  0  0  0  0  0
  -23.8622  -10.4806   20.9309 C   0  0  0  0  0  0  0  0  0  0  0  0
  -24.1561  -13.0143   20.8941 C   0  0  0  0  0  0  0  0  0  0  0  0
  -27.1608  -37.5655   23.0853 C   0  0  0  0  0  0  0  0  0  0  0  0
  -30.7019  -32.5542   19.0569 C   0  0  0  0  0  0  0  0  0  0  0  0
  -27.6623  -36.2813   22.7998 C   0  0  0  0  0  0  0  0  0  0  0  0
  -29.8611  -31.7671   18.2571 C   0  0  0  0  0  0  0  0  0  0  0  0
  -30.2545  -22.0071   22.3542 C   0  0  0  0  0  0  0  0  0  0  0  0
  -22.4514   -8.1288   21.4421 C   0  0  0  0  0  0  0  0  0  0  0  0
  -30.9975  -29.7695   19.0500 C   0  0  0  0  0  0  0  0  0  0  0  0
  -21.1033   -6.8779   22.9050 C   0  0  0  0  0  0  0  0  0  0  0  0
  -19.7735   -6.6730   25.3488 C   0  0  0  0  0  0  0  0  0  0  0  0
  -21.4322   -5.8549   23.7943 C   0  0  0  0  0  0  0  0  0  0  0  0
  -24.5915  -11.6949   20.6673 C   0  0  0  0  0  0  0  0  0  0  0  0
  -29.8818  -22.7095   21.2194 C   0  0  0  0  0  0  0  0  0  0  0  0
  -31.1076  -24.5486   21.8464 C   0  0  0  0  0  0  0  0  0  0  0  0
  -25.2061  -13.7980   20.4820 C   0  0  0  0  0  0  0  0  0  0  0  0
  -22.9136  -13.4890   21.4294 C   0  0  0  0  0  0  0  0  0  0  0  0
  -28.1569  -34.3508   19.6883 C   0  0  0  0  0  0  0  0  0  0  0  0
  -28.0058  -34.5856   16.4565 C   0  0  0  0  0  0  0  0  0  0  0  0
  -28.7876  -33.2498   13.4149 C   0  0  0  0  0  0  0  0  0  0  0  0
  -30.8375  -14.5659   20.7219 C   0  0  0  0  0  0  0  0  0  0  0  0
  -25.9951  -38.1487   22.3265 C   0  0  0  0  0  0  0  0  0  0  0  0
  -30.5772  -34.0531   19.0484 C   0  0  0  0  0  0  0  0  0  0  0  0
  -28.7899  -32.3776   17.3922 C   0  0  0  0  0  0  0  0  0  0  0  0
  -25.7209  -37.4477   20.9985 C   0  0  0  0  0  0  0  0  0  0  0  0
  -29.3889  -12.6418   17.9040 C   0  0  0  0  0  0  0  0  0  0  0  0
  -25.7381  -35.9333   21.1806 C   0  0  0  0  0  0  0  0  0  0  0  0
  -29.5776  -21.1943   19.1492 C   0  0  0  0  0  0  0  0  0  0  0  0
  -29.0272  -22.5381   18.7866 C   0  0  0  0  0  0  0  0  0  0  0  0
  -28.0042  -12.2732   18.4334 C   0  0  0  0  0  0  0  0  0  0  0  0
  -31.5931  -17.2783   22.7489 C   0  0  0  0  0  0  0  0  0  0  0  0
  -29.5162  -17.7620   21.3943 C   0  0  0  0  0  0  0  0  0  0  0  0
  -30.3985  -12.8199   19.0336 C   0  0  0  0  0  0  0  0  0  0  0  0
  -31.1571  -15.8180   22.8350 C   0  0  0  0  0  0  0  0  0  0  0  0
  -29.1337  -16.2817   21.4849 C   0  0  0  0  0  0  0  0  0  0  0  0
  -28.5853  -13.4297   20.6029 C   0  0  0  0  0  0  0  0  0  0  0  0
  -27.1123  -35.4510   21.6604 C   0  0  1  0  0  0  0  0  0  0  0  0
  -28.9777  -22.0699   20.2157 C   0  0  0  0  0  0  0  0  0  0  0  0
  -29.1952  -34.5352   18.6181 C   0  0  1  0  0  0  0  0  0  0  0  0
  -27.5349  -13.2867   19.4912 C   0  0  2  0  0  0  0  0  0  0  0  0
  -30.3734  -18.1830   22.5861 C   0  0  0  0  0  0  0  0  0  0  0  0
  -28.4962  -33.6488   10.9546 C   0  0  0  0  0  0  0  0  0  0  0  0
  -25.1118  -33.6379   16.6481 C   0  0  0  0  0  0  0  0  0  0  0  0
  -25.1824  -33.1494   14.1936 C   0  0  0  0  0  0  0  0  0  0  0  0
  -25.4979  -35.4860   15.0081 C   0  0  0  0  0  0  0  0  0  0  0  0
  -31.7091  -33.4399   12.9818 C   0  0  0  0  0  0  0  0  0  0  0  0
  -29.7805  -20.6090   22.6219 C   0  0  0  0  0  0  0  0  0  0  0  0
  -31.6272  -27.8106   20.2424 C   0  0  0  0  0  0  0  0  0  1  0  0
  -31.0564  -26.4114   20.3687 C   0  0  0  0  0  0  0  0  0  0  0  0
  -27.3422  -33.7922   15.3569 C   0  0  1  0  0  0  0  0  0  0  0  0
  -29.3878  -33.8706   12.1664 C   0  0  2  0  0  0  0  0  0  0  0  0
  -25.8024  -34.0044   15.3193 C   0  0  0  0  0  0  0  0  0  0  0  0
  -25.8222  -11.6397   20.1511 N   0  0  0  0  0  0  0  0  0  0  0  0
  -30.2880  -23.9685   20.9411 N   0  0  0  0  0  0  0  0  0  0  0  0
  -26.1690  -12.9341   20.0500 N   0  0  0  0  0  0  0  0  0  0  0  0
  -28.7034  -33.8470   17.4228 N   0  0  0  0  0  0  0  0  0  0  0  0
  -29.9102  -13.7514   20.0507 N   0  0  0  0  0  0  0  0  0  0  0  0
  -30.3268  -15.4464   21.6876 N   0  0  0  0  0  0  0  0  0  0  0  0
  -25.3904  -15.1350   20.4506 N   0  0  0  0  0  0  0  0  0  0  0  0
  -21.9440  -12.5484   21.8027 N   0  0  0  0  0  0  0  0  0  0  0  0
  -28.0498  -35.4189   20.5584 N   0  0  0  0  0  0  0  0  0  0  0  0
  -28.0259  -34.1570   14.1208 N   0  0  0  0  0  0  0  0  0  0  0  0
  -30.8305  -19.5824   22.3854 N   0  3  0  0  0  0  0  0  0  0  0  0
  -30.7238  -33.2743   11.8824 N   0  3  0  0  0  0  0  0  0  0  0  0
  -22.6640  -14.7117   21.5573 O   0  0  0  0  0  0  0  0  0  0  0  0
  -27.5003  -33.3166   19.7213 O   0  0  0  0  0  0  0  0  0  0  0  0
  -27.9147  -35.8157   16.4542 O   0  0  0  0  0  0  0  0  0  0  0  0
  -28.9726  -32.0765   13.7304 O   0  0  0  0  0  0  0  0  0  0  0  0
  -32.0478  -14.5102   20.4706 O   0  0  0  0  0  0  0  0  0  0  0  0
  -21.7631   -6.9815   21.6919 O   0  0  0  0  0  0  0  0  0  0  0  0
  -31.1362  -28.4065   19.0476 O   0  0  0  0  0  0  0  0  0  1  0  0
  -31.5266  -25.8250   21.5766 O   0  0  0  0  0  0  0  0  0  0  0  0
  -19.1359   -6.5756   26.5228 F   0  0  0  0  0  0  0  0  0  0  0  0
  -22.3869   -4.9682   23.4809 F   0  0  0  0  0  0  0  0  0  0  0  0
  1  2  1  0  0  0  0
  1  5  2  0  0  0  0
  2  6  2  0  0  0  0
  3  9  2  0  0  0  0
  3 17  1  0  0  0  0
  4 10  1  0  0  0  0
  4 17  2  0  0  0  0
  5 19  1  0  0  0  0
  6 21  1  0  0  0  0
  7 11  2  0  0  0  0
  7 20  1  0  0  0  0
  8 14  2  0  0  0  0
  8 23  1  0  0  0  0
  9 24  1  0  0  0  0
 10 24  2  0  0  0  0
 11 25  1  0  0  0  0
 12 13  2  0  0  0  0
 12 26  1  0  0  0  0
 13 27  1  0  0  0  0
 14 31  1  0  0  0  0
 15 22  1  0  0  0  0
 15 25  2  0  0  0  0
 16 27  2  0  0  0  0
 16 28  1  0  0  0  0
 17 29  1  0  0  0  0
 18 29  1  0  0  0  0
 18 32  2  0  0  0  0
 18 33  1  0  0  0  0
 19 21  2  0  0  0  0
 19 38  1  0  0  0  0
 20 22  2  0  0  0  0
 20 39  1  0  0  0  0
 21 53  1  0  0  0  0
 22 40  1  0  0  0  0
 23 30  2  0  0  0  0
 23 63  1  0  0  0  0
 24 86  1  0  0  0  0
 25 87  1  0  0  0  0
 26 28  2  0  0  0  0
 26 86  1  0  0  0  0
 27 89  1  0  0  0  0
 28 90  1  0  0  0  0
 29 69  2  0  0  0  0
 30 54  1  0  0  0  0
 30 70  1  0  0  0  0
 31 70  2  0  0  0  0
 31 88  1  0  0  0  0
 32 71  1  0  0  0  0
 32 75  1  0  0  0  0
 33 76  1  0  0  0  0
 33 81  2  0  0  0  0
 34 55  1  0  0  0  0
 34 77  1  0  0  0  0
 34 82  2  0  0  0  0
 35 66  1  0  0  0  0
 35 72  1  0  0  0  0
 35 83  2  0  0  0  0
 36 67  1  0  0  0  0
 36 78  1  0  0  0  0
 36 84  2  0  0  0  0
 37 73  1  0  0  0  0
 37 74  1  0  0  0  0
 37 85  2  0  0  0  0
 38 41  1  0  0  0  0
 39 55  1  0  0  0  0
 40 72  1  0  0  0  0
 41 43  1  0  0  0  0
 42 46  1  0  0  0  0
 42 49  1  0  0  0  0
 43 53  1  0  0  0  0
 44 45  1  0  0  0  0
 44 54  1  0  0  0  0
 45 54  1  0  0  0  0
 46 56  1  0  0  0  0
 47 50  1  0  0  0  0
 47 57  1  0  0  0  0
 48 51  1  0  0  0  0
 48 57  1  0  0  0  0
 49 73  1  0  0  0  0
 50 74  1  0  0  0  0
 51 74  1  0  0  0  0
 52 56  1  0  0  0  0
 52 73  1  0  0  0  0
 53 77  1  0  0  0  0
 55 72  1  0  0  0  0
 56 71  1  0  0  0  0
 57 79  1  0  0  0  0
 58 67  1  0  0  0  0
 59 68  1  0  0  0  0
 60 68  1  0  0  0  0
 61 68  1  0  0  0  0
 62 80  1  0  0  0  0
 63 79  1  0  0  0  0
 64 65  1  0  0  0  0
 64 87  1  0  0  0  0
 65 88  1  0  0  0  0
 66 68  1  0  0  0  0
 66 78  1  0  0  0  0
 67 80  1  0  0  0  0
 69 71  1  0  0  0  0
M  CHG  2  79   1  80   1
M  ISO  4  37 100  64 101  74 100  87 101
M  END
> <Batch ID>
0133

> <Smiles>
CNC(C)C(=O)NC(C(=O)N1Cc2cc([101O:1][101CH2:1]COc3ccc(CNC4CC[100N:0]([100C:0](=O)N5CCCC(n6nc(-c7ccc(Oc8ccc(F)cc8F)cc7)c(C(N)=O)c6N)C5)CC4)c(C4CC4)n3)ccc2CC1C(=O)NC1CCCc2ccccc21)C(C)(C)C

> <Shape>
0.253

> <Color>
0.174

> <Negative vol penalty>
0.000

$$$$

  -OEChem-04052320553D

 84 92  0     1  0  0  0  0  0999 V2000
  -27.8980  -17.5363   25.9442 C   0  0  0  0  0  0  0  0  0  0  0  0
  -27.9124  -18.4287   24.8771 C   0  0  0  0  0  0  0  0  0  0  0  0
  -22.8179  -10.2375   20.0626 C   0  0  0  0  0  0  0  0  0  0  0  0
  -23.6936  -10.0472   22.3062 C   0  0  0  0  0  0  0  0  0  0  0  0
  -26.7531  -17.4089   26.7296 C   0  0  0  0  0  0  0  0  0  0  0  0
  -26.7813  -19.1936   24.5941 C   0  0  0  0  0  0  0  0  0  0  0  0
  -27.9015  -24.0399   23.6435 C   0  0  0  0  0  0  0  0  0  0  0  0
  -30.0864  -19.8372   19.5285 C   0  0  0  0  0  0  0  0  0  0  0  0
  -27.8793  -19.4607   20.4364 C   0  0  0  0  0  0  0  0  0  0  0  0
  -21.9779   -9.1491   20.2981 C   0  0  0  0  0  0  0  0  0  0  0  0
  -22.8535   -8.9589   22.5418 C   0  0  0  0  0  0  0  0  0  0  0  0
  -28.4114  -24.3398   22.3810 C   0  0  0  0  0  0  0  0  0  0  0  0
  -29.6018  -20.9243   18.8012 C   0  0  0  0  0  0  0  0  0  0  0  0
  -27.3947  -20.5479   19.7091 C   0  0  0  0  0  0  0  0  0  0  0  0
  -22.7855   -5.6594   21.8070 C   0  0  0  0  0  0  0  0  0  0  0  0
  -23.3334   -4.5424   22.4376 C   0  0  0  0  0  0  0  0  0  0  0  0
  -26.2279  -25.0929   21.6848 C   0  0  0  0  0  0  0  0  0  0  0  0
  -21.7490   -4.7856   24.2452 C   0  0  0  0  0  0  0  0  0  0  0  0
  -23.6758  -10.6865   21.0666 C   0  0  0  0  0  0  0  0  0  0  0  0
  -24.2585  -13.1700   21.0507 C   0  0  0  0  0  0  0  0  0  0  0  0
  -25.6107  -18.1797   26.4620 C   0  0  0  0  0  0  0  0  0  0  0  0
  -26.5464  -24.2545   23.9332 C   0  0  0  0  0  0  0  0  0  0  0  0
  -25.6196  -19.0755   25.3758 C   0  0  0  0  0  0  0  0  0  0  0  0
  -25.7040  -24.7973   22.9525 C   0  0  0  0  0  0  0  0  0  0  0  0
  -29.2251  -19.1053   20.3461 C   0  0  0  0  0  0  0  0  0  0  0  0
  -21.9956   -8.5098   21.5377 C   0  0  0  0  0  0  0  0  0  0  0  0
  -28.2560  -21.2797   18.8915 C   0  0  0  0  0  0  0  0  0  0  0  0
  -27.5739  -24.8636   21.4005 C   0  0  0  0  0  0  0  0  0  0  0  0
  -21.7193   -6.3396   22.3956 C   0  0  0  0  0  0  0  0  0  0  0  0
  -22.8152   -4.1054   23.6566 C   0  0  0  0  0  0  0  0  0  0  0  0
  -21.2011   -5.9027   23.6147 C   0  0  0  0  0  0  0  0  0  0  0  0
  -24.5442  -11.8103   20.8237 C   0  0  0  0  0  0  0  0  0  0  0  0
  -25.3989  -13.8299   20.6625 C   0  0  0  0  0  0  0  0  0  0  0  0
  -23.0688  -13.7818   21.5665 C   0  0  0  0  0  0  0  0  0  0  0  0
  -24.1097  -22.3932   24.7710 C   0  0  0  0  0  0  0  0  0  0  0  0
  -22.5624  -25.2262   25.0916 C   0  0  0  0  0  0  0  0  0  0  0  0
  -22.3385  -28.5194   24.2246 C   0  0  0  0  0  0  0  0  0  0  0  0
  -30.9587  -14.3066   20.5859 C   0  0  0  0  0  0  0  0  0  0  0  0
  -24.3806  -17.9730   27.3098 C   0  0  0  0  0  0  0  0  0  0  0  0
  -26.0178  -23.9508   25.3083 C   0  0  0  0  0  0  0  0  0  0  0  0
  -24.2461  -25.0654   23.2194 C   0  0  0  0  0  0  0  0  0  0  0  0
  -23.3517  -19.0923   27.1733 C   0  0  0  0  0  0  0  0  0  0  0  0
  -29.4680  -12.1751   18.1545 C   0  0  0  0  0  0  0  0  0  0  0  0
  -23.1279  -19.4356   25.7040 C   0  0  0  0  0  0  0  0  0  0  0  0
  -28.0332  -11.9975   18.6543 C   0  0  0  0  0  0  0  0  0  0  0  0
  -30.4640  -12.2415   19.3102 C   0  0  0  0  0  0  0  0  0  0  0  0
  -28.7188  -13.0753   20.8376 C   0  0  0  0  0  0  0  0  0  0  0  0
  -24.4209  -19.9407   25.0524 C   0  0  1  0  0  0  0  0  0  0  0  0
  -24.5088  -23.7284   25.3327 C   0  0  1  0  0  0  0  0  0  0  0  0
  -27.6720  -13.0591   19.7106 C   0  0  2  0  0  0  0  0  0  0  0  0
  -20.9468  -30.5700   24.6191 C   0  0  0  0  0  0  0  0  0  0  0  0
  -20.4037  -24.1135   23.2444 C   0  0  0  0  0  0  0  0  0  0  0  0
  -19.5745  -26.4533   22.9187 C   0  0  0  0  0  0  0  0  0  0  0  0
  -19.5376  -25.4238   25.1906 C   0  0  0  0  0  0  0  0  0  0  0  0
  -24.6308  -29.9950   25.3764 C   0  0  0  0  0  0  0  0  0  0  0  0
  -27.9435  -24.7204   17.7974 C   0  0  0  0  0  0  0  0  0  0  0  0
  -31.0821  -17.5879   21.0351 C   0  0  0  0  0  0  0  0  0  0  0  0
  -31.3012  -16.3707   21.9206 C   0  0  0  0  0  0  0  0  0  0  0  0
  -28.6948  -23.4036   17.9157 C   0  0  0  0  0  0  0  0  0  0  0  0
  -27.1696  -25.0496   19.0643 C   0  0  0  0  0  0  0  0  0  1  0  0
  -21.7496  -26.1099   24.1765 C   0  0  1  0  0  0  0  0  0  0  0  0
  -22.1628  -29.7722   25.0637 C   0  0  2  0  0  0  0  0  0  0  0  0
  -20.3434  -25.5184   23.8766 C   0  0  0  0  0  0  0  0  0  0  0  0
  -25.7698  -11.6165   20.3295 N   0  0  0  0  0  0  0  0  0  0  0  0
  -26.2643  -12.8630   20.2426 N   0  0  0  0  0  0  0  0  0  0  0  0
  -23.7752  -24.7460   24.5773 N   0  0  0  0  0  0  0  0  0  0  0  0
  -30.0648  -13.2685   20.2755 N   0  0  0  0  0  0  0  0  0  0  0  0
  -25.7356  -15.1370   20.6427 N   0  0  0  0  0  0  0  0  0  0  0  0
  -21.9911  -12.9569   21.9164 N   0  0  0  0  0  0  0  0  0  0  0  0
  -29.7151  -18.0061   21.0813 N   0  0  0  0  0  0  0  0  0  0  0  0
  -24.6724  -21.3156   25.4278 N   0  0  0  0  0  0  0  0  0  0  0  0
  -21.7226  -27.4284   24.8005 N   0  0  0  0  0  0  0  0  0  0  0  0
  -30.4991  -15.2415   21.5052 N   0  0  0  0  0  0  0  0  0  0  0  0
  -23.3652  -30.6451   24.9492 N   0  3  0  0  0  0  0  0  0  0  0  0
  -22.9586  -15.0245   21.6973 O   0  0  0  0  0  0  0  0  0  0  0  0
  -23.3465  -22.3443   23.8134 O   0  0  0  0  0  0  0  0  0  0  0  0
  -22.1404  -24.9771   26.2236 O   0  0  0  0  0  0  0  0  0  0  0  0
  -22.9569  -28.5103   23.1625 O   0  0  0  0  0  0  0  0  0  0  0  0
  -32.0812  -14.3966   20.0770 O   0  0  0  0  0  0  0  0  0  0  0  0
  -21.1759   -7.4480   21.7680 O   0  0  0  0  0  0  0  0  0  0  0  0
  -27.7798  -22.3479   18.1769 O   0  0  0  0  0  0  0  0  0  0  0  0
  -28.0688  -25.1566   20.1671 O   0  0  0  0  0  0  0  0  0  1  0  0
  -23.3404   -3.0318   24.2613 F   0  0  0  0  0  0  0  0  0  0  0  0
  -20.1762   -6.5513   24.1844 F   0  0  0  0  0  0  0  0  0  0  0  0
  1  2  1  0  0  0  0
  1  5  2  0  0  0  0
  2  6  2  0  0  0  0
  3 10  2  0  0  0  0
  3 19  1  0  0  0  0
  4 11  1  0  0  0  0
  4 19  2  0  0  0  0
  5 21  1  0  0  0  0
  6 23  1  0  0  0  0
  7 12  2  0  0  0  0
  7 22  1  0  0  0  0
  8 13  2  0  0  0  0
  8 25  1  0  0  0  0
  9 14  1  0  0  0  0
  9 25  2  0  0  0  0
 10 26  1  0  0  0  0
 11 26  2  0  0  0  0
 12 28  1  0  0  0  0
 13 27  1  0  0  0  0
 14 27  2  0  0  0  0
 15 16  2  0  0  0  0
 15 29  1  0  0  0  0
 16 30  1  0  0  0  0
 17 24  1  0  0  0  0
 17 28  2  0  0  0  0
 18 30  2  0  0  0  0
 18 31  1  0  0  0  0
 19 32  1  0  0  0  0
 20 32  1  0  0  0  0
 20 33  2  0  0  0  0
 20 34  1  0  0  0  0
 21 23  2  0  0  0  0
 21 39  1  0  0  0  0
 22 24  2  0  0  0  0
 22 40  1  0  0  0  0
 23 48  1  0  0  0  0
 24 41  1  0  0  0  0
 25 70  1  0  0  0  0
 26 80  1  0  0  0  0
 27 81  1  0  0  0  0
 28 82  1  0  0  0  0
 29 31  2  0  0  0  0
 29 80  1  0  0  0  0
 30 83  1  0  0  0  0
 31 84  1  0  0  0  0
 32 64  2  0  0  0  0
 33 65  1  0  0  0  0
 33 68  1  0  0  0  0
 34 69  1  0  0  0  0
 34 75  2  0  0  0  0
 35 49  1  0  0  0  0
 35 71  1  0  0  0  0
 35 76  2  0  0  0  0
 36 61  1  0  0  0  0
 36 66  1  0  0  0  0
 36 77  2  0  0  0  0
 37 62  1  0  0  0  0
 37 72  1  0  0  0  0
 37 78  2  0  0  0  0
 38 67  1  0  0  0  0
 38 73  1  0  0  0  0
 38 79  2  0  0  0  0
 39 42  1  0  0  0  0
 40 49  1  0  0  0  0
 41 66  1  0  0  0  0
 42 44  1  0  0  0  0
 43 45  1  0  0  0  0
 43 46  1  0  0  0  0
 44 48  1  0  0  0  0
 45 50  1  0  0  0  0
 46 67  1  0  0  0  0
 47 50  1  0  0  0  0
 47 67  1  0  0  0  0
 48 71  1  0  0  0  0
 49 66  1  0  0  0  0
 50 65  1  0  0  0  0
 51 62  1  0  0  0  0
 52 63  1  0  0  0  0
 53 63  1  0  0  0  0
 54 63  1  0  0  0  0
 55 74  1  0  0  0  0
 56 59  1  0  0  0  0
 56 60  1  0  0  0  0
 57 58  1  0  0  0  0
 57 70  1  0  0  0  0
 58 73  1  0  0  0  0
 59 81  1  0  0  0  0
 60 82  1  0  0  0  0
 61 63  1  0  0  0  0
 61 72  1  0  0  0  0
 62 74  1  0  0  0  0
 64 65  1  0  0  0  0
M  CHG  1  74   1
M  ISO  4  38 100  60 101  73 100  82 101
M  END
> <Batch ID>
0133

> <Smiles>
CNC(C)C(=O)NC(C(=O)N1Cc2cc([101O:1][101CH2:1]CCOc3ccc(NCC[100NH:0][100C:0](=O)N4CCCC(n5nc(-c6ccc(Oc7ccc(F)cc7F)cc6)c(C(N)=O)c5N)C4)cc3)ccc2CC1C(=O)NC1CCCc2ccccc21)C(C)(C)C

> <Shape>
0.258

> <Color>
0.198

> <Negative vol penalty>
0.000

$$$$

  -OEChem-04052320553D

 87 95  0     1  0  0  0  0  0999 V2000
  -19.9760   -9.3355   19.6276 C   0  0  0  0  0  0  0  0  0  0  0  0
  -20.0721  -10.6513   20.0689 C   0  0  0  0  0  0  0  0  0  0  0  0
  -29.6101  -27.9109   21.1219 C   0  0  0  0  0  0  0  0  0  0  0  0
  -27.9735  -27.3530   19.4346 C   0  0  0  0  0  0  0  0  0  0  0  0
  -21.0407   -8.4566   19.8225 C   0  0  0  0  0  0  0  0  0  0  0  0
  -21.2325  -11.0888   20.7064 C   0  0  0  0  0  0  0  0  0  0  0  0
  -22.7847  -15.6079   19.0291 C   0  0  0  0  0  0  0  0  0  0  0  0
  -21.0034  -23.5555   21.9359 C   0  0  0  0  0  0  0  0  0  0  0  0
  -21.0544  -24.8999   21.5678 C   0  0  0  0  0  0  0  0  0  0  0  0
  -30.3435  -26.7727   20.7869 C   0  0  0  0  0  0  0  0  0  0  0  0
  -28.7069  -26.2148   19.0995 C   0  0  0  0  0  0  0  0  0  0  0  0
  -22.1087  -16.7303   19.5054 C   0  0  0  0  0  0  0  0  0  0  0  0
  -29.1665  -23.0973   20.3246 C   0  0  0  0  0  0  0  0  0  0  0  0
  -28.4665  -21.9036   20.1494 C   0  0  0  0  0  0  0  0  0  0  0  0
  -23.8854  -17.1209   21.0896 C   0  0  0  0  0  0  0  0  0  0  0  0
  -18.9898  -25.3036   22.7559 C   0  0  0  0  0  0  0  0  0  0  0  0
  -29.2583  -21.7737   17.8705 C   0  0  0  0  0  0  0  0  0  0  0  0
  -28.4250  -28.2010   20.4458 C   0  0  0  0  0  0  0  0  0  0  0  0
  -27.7965  -30.6648   20.2397 C   0  0  0  0  0  0  0  0  0  0  0  0
  -22.2185   -8.8861   20.4541 C   0  0  0  0  0  0  0  0  0  0  0  0
  -24.0131  -15.2266   19.5879 C   0  0  0  0  0  0  0  0  0  0  0  0
  -22.3134  -10.2144   20.9111 C   0  0  0  0  0  0  0  0  0  0  0  0
  -24.5763  -15.9947   20.6170 C   0  0  0  0  0  0  0  0  0  0  0  0
  -19.9456  -23.0851   22.7140 C   0  0  0  0  0  0  0  0  0  0  0  0
  -18.9388  -23.9591   23.1240 C   0  0  0  0  0  0  0  0  0  0  0  0
  -20.0476  -25.7740   21.9778 C   0  0  0  0  0  0  0  0  0  0  0  0
  -29.8919  -25.9247   19.7757 C   0  0  0  0  0  0  0  0  0  0  0  0
  -22.6576  -17.4854   20.5377 C   0  0  0  0  0  0  0  0  0  0  0  0
  -29.9124  -23.6293   19.2727 C   0  0  0  0  0  0  0  0  0  0  0  0
  -28.5124  -21.2418   18.9224 C   0  0  0  0  0  0  0  0  0  0  0  0
  -29.9582  -22.9674   18.0457 C   0  0  0  0  0  0  0  0  0  0  0  0
  -27.6667  -29.3763   20.7918 C   0  0  0  0  0  0  0  0  0  0  0  0
  -26.8571  -31.4178   20.9007 C   0  0  0  0  0  0  0  0  0  0  0  0
  -28.6866  -31.1386   19.2204 C   0  0  0  0  0  0  0  0  0  0  0  0
  -25.0728  -12.6614   21.1372 C   0  0  0  0  0  0  0  0  0  0  0  0
  -27.9303  -14.1778   20.8970 C   0  0  0  0  0  0  0  0  0  0  0  0
  -29.6297  -17.1135   20.5224 C   0  0  0  0  0  0  0  0  0  0  0  0
  -21.7367  -30.0301   23.6768 C   0  0  0  0  0  0  0  0  0  0  0  0
  -23.3244   -7.8869   20.6847 C   0  0  0  0  0  0  0  0  0  0  0  0
  -24.7426  -14.0286   19.0449 C   0  0  0  0  0  0  0  0  0  0  0  0
  -25.9021  -15.6394   21.2371 C   0  0  0  0  0  0  0  0  0  0  0  0
  -24.6638   -8.5305   21.0341 C   0  0  0  0  0  0  0  0  0  0  0  0
  -24.5503  -31.6985   25.0829 C   0  0  0  0  0  0  0  0  0  0  0  0
  -24.4765   -9.6103   22.0951 C   0  0  0  0  0  0  0  0  0  0  0  0
  -25.6797  -31.4088   24.0927 C   0  0  0  0  0  0  0  0  0  0  0  0
  -23.6079  -30.5057   25.2288 C   0  0  0  0  0  0  0  0  0  0  0  0
  -24.1845  -29.7048   22.9706 C   0  0  0  0  0  0  0  0  0  0  0  0
  -23.5653  -10.7332   21.5847 C   0  0  1  0  0  0  0  0  0  0  0  0
  -25.7397  -13.4363   20.0361 C   0  0  1  0  0  0  0  0  0  0  0  0
  -25.1290  -30.8983   22.7476 C   0  0  2  0  0  0  0  0  0  0  0  0
  -17.7958  -23.4779   23.9562 C   0  0  0  0  0  0  0  0  0  0  0  0
  -31.5932  -18.6425   20.1997 C   0  0  0  0  0  0  0  0  0  0  0  0
  -28.2095  -13.8637   23.9191 C   0  0  0  0  0  0  0  0  0  0  0  0
  -30.0191  -15.5930   23.8615 C   0  0  0  0  0  0  0  0  0  0  0  0
  -30.3100  -13.4443   22.6282 C   0  0  0  0  0  0  0  0  0  0  0  0
  -29.4551  -16.9055   17.5753 C   0  0  0  0  0  0  0  0  0  0  0  0
  -19.3771  -28.1560   22.2969 C   0  0  0  0  0  0  0  0  0  0  0  0
  -19.9730  -29.5249   22.0055 C   0  0  0  0  0  0  0  0  0  0  0  0
  -19.9951  -19.3380   22.0967 C   0  0  0  0  0  0  0  0  0  0  0  0
  -20.5745  -18.5642   20.9290 C   0  0  0  0  0  0  0  0  0  1  0  0
  -20.6782  -21.3387   24.3936 C   0  0  0  0  0  0  0  0  0  0  0  0
  -19.9117  -21.6242   23.0992 C   0  0  2  0  0  0  0  0  0  0  0  0
  -28.6882  -15.1708   21.7446 C   0  0  1  0  0  0  0  0  0  0  0  0
  -30.7772  -17.5036   19.6083 C   0  0  2  0  0  0  0  0  0  0  0  0
  -29.2808  -14.5238   23.0282 C   0  0  0  0  0  0  0  0  0  0  0  0
  -26.7196  -29.3109   21.7313 N   0  0  0  0  0  0  0  0  0  0  0  0
  -26.2458  -30.5678   21.7747 N   0  0  0  0  0  0  0  0  0  0  0  0
  -26.5738  -14.4556   20.6760 N   0  0  0  0  0  0  0  0  0  0  0  0
  -23.1199  -30.0717   23.9176 N   0  0  0  0  0  0  0  0  0  0  0  0
  -26.5026  -32.7175   20.8138 N   0  0  0  0  0  0  0  0  0  0  0  0
  -29.5883  -30.2319   18.6465 N   0  0  0  0  0  0  0  0  0  0  0  0
  -20.1001  -27.1335   21.6061 N   0  0  0  0  0  0  0  0  0  0  0  0
  -24.2942  -11.6096   20.6932 N   0  0  0  0  0  0  0  0  0  0  0  0
  -29.6831  -15.7799   20.8685 N   0  0  0  0  0  0  0  0  0  0  0  0
  -21.3595  -29.6135   22.4060 N   0  0  0  0  0  0  0  0  0  0  0  0
  -30.2574  -17.9378   18.2808 N   0  3  0  0  0  0  0  0  0  0  0  0
  -20.4621  -20.7458   22.0318 N   0  3  0  0  0  0  0  0  0  0  0  0
  -28.6936  -32.3344   18.8416 O   0  0  0  0  0  0  0  0  0  0  0  0
  -25.2526  -12.9922   22.3033 O   0  0  0  0  0  0  0  0  0  0  0  0
  -28.5217  -13.1958   20.4416 O   0  0  0  0  0  0  0  0  0  0  0  0
  -28.7739  -17.9129   20.8953 O   0  0  0  0  0  0  0  0  0  0  0  0
  -20.9000  -30.3463   24.5294 O   0  0  0  0  0  0  0  0  0  0  0  0
  -22.0492  -21.6932   24.2483 O   0  0  0  0  0  0  0  0  0  0  0  0
  -30.6074  -24.8140   19.4484 O   0  0  0  0  0  0  0  0  0  0  0  0
  -21.9994  -18.5811   21.0048 O   0  0  0  0  0  0  0  0  0  1  0  0
  -27.8414  -20.0947   18.7548 F   0  0  0  0  0  0  0  0  0  0  0  0
  -30.6740  -23.4730   17.0318 F   0  0  0  0  0  0  0  0  0  0  0  0
  1  2  1  0  0  0  0
  1  5  2  0  0  0  0
  2  6  2  0  0  0  0
  3 10  2  0  0  0  0
  3 18  1  0  0  0  0
  4 11  1  0  0  0  0
  4 18  2  0  0  0  0
  5 20  1  0  0  0  0
  6 22  1  0  0  0  0
  7 12  2  0  0  0  0
  7 21  1  0  0  0  0
  8  9  2  0  0  0  0
  8 24  1  0  0  0  0
  9 26  1  0  0  0  0
 10 27  1  0  0  0  0
 11 27  2  0  0  0  0
 12 28  1  0  0  0  0
 13 14  2  0  0  0  0
 13 29  1  0  0  0  0
 14 30  1  0  0  0  0
 15 23  1  0  0  0  0
 15 28  2  0  0  0  0
 16 25  1  0  0  0  0
 16 26  2  0  0  0  0
 17 30  2  0  0  0  0
 17 31  1  0  0  0  0
 18 32  1  0  0  0  0
 19 32  1  0  0  0  0
 19 33  2  0  0  0  0
 19 34  1  0  0  0  0
 20 22  2  0  0  0  0
 20 39  1  0  0  0  0
 21 23  2  0  0  0  0
 21 40  1  0  0  0  0
 22 48  1  0  0  0  0
 23 41  1  0  0  0  0
 24 25  2  0  0  0  0
 24 62  1  0  0  0  0
 25 51  1  0  0  0  0
 26 72  1  0  0  0  0
 27 84  1  0  0  0  0
 28 85  1  0  0  0  0
 29 31  2  0  0  0  0
 29 84  1  0  0  0  0
 30 86  1  0  0  0  0
 31 87  1  0  0  0  0
 32 66  2  0  0  0  0
 33 67  1  0  0  0  0
 33 70  1  0  0  0  0
 34 71  1  0  0  0  0
 34 78  2  0  0  0  0
 35 49  1  0  0  0  0
 35 73  1  0  0  0  0
 35 79  2  0  0  0  0
 36 63  1  0  0  0  0
 36 68  1  0  0  0  0
 36 80  2  0  0  0  0
 37 64  1  0  0  0  0
 37 74  1  0  0  0  0
 37 81  2  0  0  0  0
 38 69  1  0  0  0  0
 38 75  1  0  0  0  0
 38 82  2  0  0  0  0
 39 42  1  0  0  0  0
 40 49  1  0  0  0  0
 41 68  1  0  0  0  0
 42 44  1  0  0  0  0
 43 45  1  0  0  0  0
 43 46  1  0  0  0  0
 44 48  1  0  0  0  0
 45 50  1  0  0  0  0
 46 69  1  0  0  0  0
 47 50  1  0  0  0  0
 47 69  1  0  0  0  0
 48 73  1  0  0  0  0
 49 68  1  0  0  0  0
 50 67  1  0  0  0  0
 52 64  1  0  0  0  0
 53 65  1  0  0  0  0
 54 65  1  0  0  0  0
 55 65  1  0  0  0  0
 56 76  1  0  0  0  0
 57 58  1  0  0  0  0
 57 72  1  0  0  0  0
 58 75  1  0  0  0  0
 59 60  1  0  0  0  0
 59 77  1  0  0  0  0
 60 85  1  0  0  0  0
 61 62  1  0  0  0  0
 61 83  1  0  0  0  0
 62 77  1  0  0  0  0
 63 65  1  0  0  0  0
 63 74  1  0  0  0  0
 64 76  1  0  0  0  0
 66 67  1  0  0  0  0
M  CHG  2  76   1  77   1
M  ISO  4  38 100  60 101  75 100  85 101
M  END
> <Batch ID>
0133

> <Smiles>
CNC(C)C(=O)NC(C(=O)N1Cc2cc([101O:1][101CH2:1]CNC(CO)c3ccc(NCC[100NH:0][100C:0](=O)N4CCCC(n5nc(-c6ccc(Oc7ccc(F)cc7F)cc6)c(C(N)=O)c5N)C4)cc3C)ccc2CC1C(=O)NC1CCCc2ccccc21)C(C)(C)C

> <Shape>
0.306

> <Color>
0.047

> <Negative vol penalty>
0.000

$$$$

  -OEChem-04052320553D

 85 94  0     1  0  0  0  0  0999 V2000
  -23.3201  -23.7079   17.7619 C   0  0  0  0  0  0  0  0  0  0  0  0
  -24.4214  -23.0212   18.2628 C   0  0  0  0  0  0  0  0  0  0  0  0
  -22.0967  -26.2184   24.0615 C   0  0  0  0  0  0  0  0  0  0  0  0
  -22.0520  -25.2515   21.8479 C   0  0  0  0  0  0  0  0  0  0  0  0
  -22.0323  -23.3215   18.1308 C   0  0  0  0  0  0  0  0  0  0  0  0
  -24.2356  -21.9482   19.1338 C   0  0  0  0  0  0  0  0  0  0  0  0
  -27.1495  -17.9735   17.9694 C   0  0  0  0  0  0  0  0  0  0  0  0
  -33.5399  -20.3106   20.8225 C   0  0  0  0  0  0  0  0  0  0  0  0
  -32.9331  -21.5064   20.4355 C   0  0  0  0  0  0  0  0  0  0  0  0
  -20.7465  -26.5481   23.9448 C   0  0  0  0  0  0  0  0  0  0  0  0
  -20.7017  -25.5812   21.7312 C   0  0  0  0  0  0  0  0  0  0  0  0
  -28.4909  -18.0359   18.3441 C   0  0  0  0  0  0  0  0  0  0  0  0
  -17.4008  -27.9659   24.0864 C   0  0  0  0  0  0  0  0  0  0  0  0
  -17.0057  -29.2411   24.4907 C   0  0  0  0  0  0  0  0  0  0  0  0
  -30.7772  -20.4309   20.4997 C   0  0  0  0  0  0  0  0  0  0  0  0
  -28.0131  -16.6541   20.2628 C   0  0  0  0  0  0  0  0  0  0  0  0
  -18.4902  -30.2196   22.8548 C   0  0  0  0  0  0  0  0  0  0  0  0
  -22.7495  -25.5702   23.0130 C   0  0  0  0  0  0  0  0  0  0  0  0
  -24.6874  -24.0354   23.6433 C   0  0  0  0  0  0  0  0  0  0  0  0
  -21.8302  -22.2371   18.9992 C   0  0  0  0  0  0  0  0  0  0  0  0
  -26.2261  -17.2587   18.7459 C   0  0  0  0  0  0  0  0  0  0  0  0
  -22.9439  -21.5478   19.5157 C   0  0  0  0  0  0  0  0  0  0  0  0
  -31.3785  -19.2266   20.8966 C   0  0  0  0  0  0  0  0  0  0  0  0
  -26.6610  -16.5820   19.8944 C   0  0  0  0  0  0  0  0  0  0  0  0
  -32.7781  -19.1535   21.0434 C   0  0  0  0  0  0  0  0  0  0  0  0
  -31.5527  -21.5655   20.2708 C   0  0  0  0  0  0  0  0  0  0  0  0
  -20.0489  -26.2295   22.7797 C   0  0  0  0  0  0  0  0  0  0  0  0
  -28.9224  -17.3786   19.4925 C   0  0  0  0  0  0  0  0  0  0  0  0
  -18.3406  -27.8176   23.0664 C   0  0  0  0  0  0  0  0  0  0  0  0
  -17.5504  -30.3679   23.8749 C   0  0  0  0  0  0  0  0  0  0  0  0
  -18.8853  -28.9444   22.4506 C   0  0  0  0  0  0  0  0  0  0  0  0
  -24.1445  -25.2298   23.1328 C   0  0  0  0  0  0  0  0  0  0  0  0
  -26.0465  -24.2048   23.5409 C   0  0  0  0  0  0  0  0  0  0  0  0
  -24.0225  -22.8765   24.1634 C   0  0  0  0  0  0  0  0  0  0  0  0
  -23.6048  -18.0158   20.3766 C   0  0  0  0  0  0  0  0  0  0  0  0
  -23.3894  -14.8025   20.7652 C   0  0  0  0  0  0  0  0  0  0  0  0
  -24.9743  -11.7813   20.8461 C   0  0  0  0  0  0  0  0  0  0  0  0
  -30.0032  -26.5899   20.0524 C   0  0  0  0  0  0  0  0  0  0  0  0
  -20.4211  -21.8863   19.4066 C   0  0  0  0  0  0  0  0  0  0  0  0
  -24.7877  -17.1789   18.3135 C   0  0  0  0  0  0  0  0  0  0  0  0
  -25.7135  -15.7843   20.7513 C   0  0  0  0  0  0  0  0  0  0  0  0
  -20.2966  -20.5023   20.0387 C   0  0  0  0  0  0  0  0  0  0  0  0
  -29.0498  -28.1101   23.1275 C   0  0  0  0  0  0  0  0  0  0  0  0
  -21.3897  -20.2914   21.0815 C   0  0  0  0  0  0  0  0  0  0  0  0
  -27.7382  -27.4113   23.4898 C   0  0  0  0  0  0  0  0  0  0  0  0
  -29.1792  -28.3214   21.6207 C   0  0  0  0  0  0  0  0  0  0  0  0
  -32.6646  -16.7360   21.5204 C   0  0  0  0  0  0  0  0  0  0  0  0
  -27.6982  -26.4037   21.1699 C   0  0  0  0  0  0  0  0  0  0  0  0
  -22.7822  -20.3630   20.4433 C   0  0  1  0  0  0  0  0  0  0  0  0
  -30.5213  -18.0066   21.1381 C   0  0  2  0  0  0  0  0  0  1  0  0
  -23.8367  -16.8483   19.4597 C   0  0  1  0  0  0  0  0  0  0  0  0
  -31.2292  -16.9576   22.0181 C   0  0  2  0  0  0  0  0  0  0  0  0
  -27.5477  -26.1185   22.6740 C   0  0  2  0  0  0  0  0  0  0  0  0
  -31.1990  -17.3438   23.5009 C   0  0  0  0  0  0  0  0  0  0  0  0
  -24.5406   -9.3387   21.2245 C   0  0  0  0  0  0  0  0  0  0  0  0
  -23.1964  -15.3045   23.7687 C   0  0  0  0  0  0  0  0  0  0  0  0
  -23.7208  -12.8842   24.1364 C   0  0  0  0  0  0  0  0  0  0  0  0
  -21.6520  -13.5373   22.9050 C   0  0  0  0  0  0  0  0  0  0  0  0
  -25.8857  -11.0783   18.1196 C   0  0  0  0  0  0  0  0  0  0  0  0
  -31.6541  -23.8342   19.2371 C   0  0  0  0  0  0  0  0  0  0  0  0
  -30.6947  -24.7682   18.5154 C   0  0  0  0  0  0  0  0  0  0  0  0
  -23.9010  -13.8121   21.7832 C   0  0  1  0  0  0  0  0  0  0  0  0
  -24.6422  -10.4517   20.1932 C   0  0  2  0  0  0  0  0  0  0  0  0
  -23.1353  -13.9011   23.1335 C   0  0  0  0  0  0  0  0  0  0  0  0
  -25.0823  -26.0941   22.7358 N   0  0  0  0  0  0  0  0  0  0  0  0
  -26.2281  -25.4422   22.9969 N   0  0  0  0  0  0  0  0  0  0  0  0
  -33.4033  -17.9824   21.4519 N   0  0  0  0  0  0  0  0  0  0  0  0
  -24.3159  -15.7416   20.2903 N   0  0  0  0  0  0  0  0  0  0  0  0
  -28.9898  -27.0571   20.9054 N   0  0  0  0  0  0  0  0  0  0  0  0
  -27.0921  -23.4144   23.8642 N   0  0  0  0  0  0  0  0  0  0  0  0
  -22.6213  -22.8685   24.1960 N   0  0  0  0  0  0  0  0  0  0  0  0
  -30.9398  -22.7727   19.8766 N   0  0  0  0  0  0  0  0  0  0  0  0
  -23.0834  -19.1302   19.7477 N   0  0  0  0  0  0  0  0  0  0  0  0
  -23.8373  -12.5015   21.1454 N   0  0  0  0  0  0  0  0  0  0  0  0
  -29.7457  -25.3807   19.4182 N   0  0  0  0  0  0  0  0  0  0  0  0
  -25.6951  -10.0824   19.2053 N   0  3  0  0  0  0  0  0  0  0  0  0
  -24.6525  -21.8844   24.6018 O   0  0  0  0  0  0  0  0  0  0  0  0
  -23.8774  -17.9127   21.5669 O   0  0  0  0  0  0  0  0  0  0  0  0
  -22.2129  -14.7407   20.3995 O   0  0  0  0  0  0  0  0  0  0  0  0
  -26.1271  -12.1430   21.0718 O   0  0  0  0  0  0  0  0  0  0  0  0
  -31.0615  -27.2023   19.8735 O   0  0  0  0  0  0  0  0  0  0  0  0
  -18.7313  -26.5509   22.6656 O   0  0  0  0  0  0  0  0  0  0  0  0
  -30.2310  -17.4384   19.8608 O   0  0  0  0  0  0  0  0  0  1  0  0
  -17.1698  -31.5924   24.2622 F   0  0  0  0  0  0  0  0  0  0  0  0
  -19.7877  -28.8082   21.4693 F   0  0  0  0  0  0  0  0  0  0  0  0
  1  2  1  0  0  0  0
  1  5  2  0  0  0  0
  2  6  2  0  0  0  0
  3 10  2  0  0  0  0
  3 18  1  0  0  0  0
  4 11  1  0  0  0  0
  4 18  2  0  0  0  0
  5 20  1  0  0  0  0
  6 22  1  0  0  0  0
  7 12  2  0  0  0  0
  7 21  1  0  0  0  0
  8  9  2  0  0  0  0
  8 25  1  0  0  0  0
  9 26  1  0  0  0  0
 10 27  1  0  0  0  0
 11 27  2  0  0  0  0
 12 28  1  0  0  0  0
 13 14  2  0  0  0  0
 13 29  1  0  0  0  0
 14 30  1  0  0  0  0
 15 23  1  0  0  0  0
 15 26  2  0  0  0  0
 16 24  1  0  0  0  0
 16 28  2  0  0  0  0
 17 30  2  0  0  0  0
 17 31  1  0  0  0  0
 18 32  1  0  0  0  0
 19 32  1  0  0  0  0
 19 33  2  0  0  0  0
 19 34  1  0  0  0  0
 20 22  2  0  0  0  0
 20 39  1  0  0  0  0
 21 24  2  0  0  0  0
 21 40  1  0  0  0  0
 22 49  1  0  0  0  0
 23 25  2  0  0  0  0
 23 50  1  0  0  0  0
 24 41  1  0  0  0  0
 25 67  1  0  0  0  0
 26 72  1  0  0  0  0
 27 82  1  0  0  0  0
 28 83  1  0  0  0  0
 29 31  2  0  0  0  0
 29 82  1  0  0  0  0
 30 84  1  0  0  0  0
 31 85  1  0  0  0  0
 32 65  2  0  0  0  0
 33 66  1  0  0  0  0
 33 70  1  0  0  0  0
 34 71  1  0  0  0  0
 34 77  2  0  0  0  0
 35 51  1  0  0  0  0
 35 73  1  0  0  0  0
 35 78  2  0  0  0  0
 36 62  1  0  0  0  0
 36 68  1  0  0  0  0
 36 79  2  0  0  0  0
 37 63  1  0  0  0  0
 37 74  1  0  0  0  0
 37 80  2  0  0  0  0
 38 69  1  0  0  0  0
 38 75  1  0  0  0  0
 38 81  2  0  0  0  0
 39 42  1  0  0  0  0
 40 51  1  0  0  0  0
 41 68  1  0  0  0  0
 42 44  1  0  0  0  0
 43 45  1  0  0  0  0
 43 46  1  0  0  0  0
 44 49  1  0  0  0  0
 45 53  1  0  0  0  0
 46 69  1  0  0  0  0
 47 52  1  0  0  0  0
 47 67  1  0  0  0  0
 48 53  1  0  0  0  0
 48 69  1  0  0  0  0
 49 73  1  0  0  0  0
 50 52  1  0  0  0  0
 50 83  1  0  0  0  0
 51 68  1  0  0  0  0
 52 54  1  0  0  0  0
 53 66  1  0  0  0  0
 55 63  1  0  0  0  0
 56 64  1  0  0  0  0
 57 64  1  0  0  0  0
 58 64  1  0  0  0  0
 59 76  1  0  0  0  0
 60 61  1  0  0  0  0
 60 72  1  0  0  0  0
 61 75  1  0  0  0  0
 62 64  1  0  0  0  0
 62 74  1  0  0  0  0
 63 76  1  0  0  0  0
 65 66  1  0  0  0  0
M  CHG  1  76   1
M  ISO  4  38 100  50 101  75 100  83 101
M  END
> <Batch ID>
0133

> <Smiles>
CNC(C)C(=O)NC(C(=O)N1Cc2cc([101O:1][101CH:1]3c4cc(NCC[100NH:0][100C:0](=O)N5CCCC(n6nc(-c7ccc(Oc8ccc(F)cc8F)cc7)c(C(N)=O)c6N)C5)ccc4NCC3C)ccc2CC1C(=O)NC1CCCc2ccccc21)C(C)(C)C

> <Shape>
0.194

> <Color>
0.062

> <Negative vol penalty>
0.000

$$$$

  -OEChem-04052320553D

 86 94  0     1  0  0  0  0  0999 V2000
  -27.1976  -29.1320   19.1404 C   0  0  0  0  0  0  0  0  0  0  0  0
  -26.9630  -27.7848   18.8844 C   0  0  0  0  0  0  0  0  0  0  0  0
  -28.9561  -23.3993   20.9497 C   0  0  0  0  0  0  0  0  0  0  0  0
  -29.1747  -23.2738   18.5469 C   0  0  0  0  0  0  0  0  0  0  0  0
  -26.4768  -15.6473   23.9087 C   0  0  0  0  0  0  0  0  0  0  0  0
  -26.6303  -29.7364   20.2614 C   0  0  0  0  0  0  0  0  0  0  0  0
  -26.1619  -27.0410   19.7500 C   0  0  0  0  0  0  0  0  0  0  0  0
  -21.4965  -21.6049   19.7543 C   0  0  0  0  0  0  0  0  0  0  0  0
  -25.2153  -15.9370   24.4283 C   0  0  0  0  0  0  0  0  0  0  0  0
  -29.5977  -24.6378   20.9434 C   0  0  0  0  0  0  0  0  0  0  0  0
  -29.8162  -24.5124   18.5406 C   0  0  0  0  0  0  0  0  0  0  0  0
  -21.2630  -20.3865   20.3905 C   0  0  0  0  0  0  0  0  0  0  0  0
  -31.8322  -27.4739   17.9281 C   0  0  0  0  0  0  0  0  0  0  0  0
  -32.9796  -27.6057   17.1461 C   0  0  0  0  0  0  0  0  0  0  0  0
  -20.2711  -21.5559   22.2528 C   0  0  0  0  0  0  0  0  0  0  0  0
  -24.2208  -15.4631   22.2782 C   0  0  0  0  0  0  0  0  0  0  0  0
  -34.0504  -25.8559   18.4225 C   0  0  0  0  0  0  0  0  0  0  0  0
  -28.7447  -22.7172   19.7515 C   0  0  0  0  0  0  0  0  0  0  0  0
  -26.6105  -15.2654   22.5738 C   0  0  0  0  0  0  0  0  0  0  0  0
  -26.7004  -21.1950   19.6442 C   0  0  0  0  0  0  0  0  0  0  0  0
  -25.8140  -29.0020   21.1360 C   0  0  0  0  0  0  0  0  0  0  0  0
  -21.1283  -22.8106   20.3685 C   0  0  0  0  0  0  0  0  0  0  0  0
  -25.5843  -27.6358   20.8846 C   0  0  0  0  0  0  0  0  0  0  0  0
  -20.4987  -22.7881   21.6212 C   0  0  0  0  0  0  0  0  0  0  0  0
  -24.0872  -15.8449   23.6130 C   0  0  0  0  0  0  0  0  0  0  0  0
  -30.0277  -25.1944   19.7389 C   0  0  0  0  0  0  0  0  0  0  0  0
  -20.6528  -20.3620   21.6412 C   0  0  0  0  0  0  0  0  0  0  0  0
  -31.7938  -26.5332   18.9573 C   0  0  0  0  0  0  0  0  0  0  0  0
  -25.4825  -15.1734   21.7585 C   0  0  0  0  0  0  0  0  0  0  0  0
  -34.0888  -26.7967   17.3933 C   0  0  0  0  0  0  0  0  0  0  0  0
  -32.9029  -25.7242   19.2045 C   0  0  0  0  0  0  0  0  0  0  0  0
  -28.0825  -21.4375   19.7574 C   0  0  0  0  0  0  0  0  0  0  0  0
  -26.5858  -19.8276   19.7043 C   0  0  0  0  0  0  0  0  0  0  0  0
  -27.9478  -14.9630   22.0475 C   0  0  0  0  0  0  0  0  0  0  0  0
  -25.6172  -22.1227   19.4976 C   0  0  0  0  0  0  0  0  0  0  0  0
  -22.6972  -25.3836   21.3796 C   0  0  0  0  0  0  0  0  0  0  0  0
  -19.7056  -26.5182   21.9137 C   0  0  0  0  0  0  0  0  0  0  0  0
  -16.4129  -25.8419   22.5030 C   0  0  0  0  0  0  0  0  0  0  0  0
  -25.2613  -29.6871   22.3607 C   0  0  0  0  0  0  0  0  0  0  0  0
  -21.3629  -24.1150   19.6573 C   0  0  0  0  0  0  0  0  0  0  0  0
  -20.0659  -24.0534   22.3141 C   0  0  0  0  0  0  0  0  0  0  0  0
  -24.1194  -28.9213   23.0239 C   0  0  0  0  0  0  0  0  0  0  0  0
  -30.1048  -16.2018   19.4874 C   0  0  0  0  0  0  0  0  0  0  0  0
  -24.4757  -27.4444   23.1606 C   0  0  0  0  0  0  0  0  0  0  0  0
  -29.6728  -17.6610   19.3314 C   0  0  0  0  0  0  0  0  0  0  0  0
  -30.0163  -15.7400   20.9398 C   0  0  0  0  0  0  0  0  0  0  0  0
  -28.2612  -17.4125   21.4161 C   0  0  0  0  0  0  0  0  0  0  0  0
  -24.7007  -26.8017   21.7866 C   0  0  1  0  0  0  0  0  0  0  0  0
  -21.4128  -25.3109   20.6032 C   0  0  1  0  0  0  0  0  0  0  0  0
  -28.2871  -17.9026   19.9590 C   0  0  1  0  0  0  0  0  0  0  0  0
  -14.2158  -26.9749   22.9349 C   0  0  0  0  0  0  0  0  0  0  0  0
  -20.5764  -27.1097   24.7776 C   0  0  0  0  0  0  0  0  0  0  0  0
  -18.1595  -27.3281   25.3934 C   0  0  0  0  0  0  0  0  0  0  0  0
  -19.1662  -28.8883   23.7275 C   0  0  0  0  0  0  0  0  0  0  0  0
  -29.1418  -11.5453   18.4133 C   0  0  0  0  0  0  0  0  0  0  0  0
  -15.2003  -24.6745   20.0688 C   0  0  0  0  0  0  0  0  0  0  0  0
  -22.7306  -16.1573   24.1726 C   0  0  0  0  0  0  0  0  0  0  0  0
  -25.6412  -12.9713   18.9010 C   0  0  0  0  0  0  0  0  0  0  0  0
  -27.0596  -12.6021   19.3002 C   0  0  0  0  0  0  0  0  0  0  0  0
  -20.8388  -17.7876   24.2157 C   0  0  0  0  0  0  0  0  0  0  0  0
  -24.8922  -13.6233   20.0543 C   0  0  0  0  0  0  0  0  0  0  0  0
  -20.4318  -19.1619   23.7219 C   0  0  0  0  0  0  0  0  0  1  0  0
  -18.7403  -26.4834   23.0739 C   0  0  1  0  0  0  0  0  0  0  0  0
  -15.1438  -26.3942   21.8794 C   0  0  2  0  0  0  0  0  0  0  0  0
  -19.1704  -27.4285   24.2312 C   0  0  0  0  0  0  0  0  0  0  0  0
  -28.7948  -20.3143   19.8804 N   0  0  0  0  0  0  0  0  0  0  0  0
  -27.8566  -19.3528   19.8448 N   0  0  0  0  0  0  0  0  0  0  0  0
  -28.6871  -16.0077   21.4878 N   0  0  0  0  0  0  0  0  0  0  0  0
  -20.3227  -25.3040   21.5809 N   0  0  0  0  0  0  0  0  0  0  0  0
  -25.5228  -18.9971   19.6503 N   0  0  0  0  0  0  0  0  0  0  0  0
  -25.9117  -23.4923   19.4536 N   0  0  0  0  0  0  0  0  0  0  0  0
  -23.4337  -26.5285   21.1428 N   0  0  0  0  0  0  0  0  0  0  0  0
  -17.4240  -26.7793   22.5187 N   0  0  0  0  0  0  0  0  0  0  0  0
  -27.7269  -11.9320   18.1583 N   0  3  0  0  0  0  0  0  0  0  0  0
  -14.4133  -25.3179   21.1521 N   0  3  0  0  0  0  0  0  0  0  0  0
  -22.2055  -17.4760   23.7265 N   0  3  0  0  0  0  0  0  0  0  0  0
  -28.3127  -13.7913   22.1316 O   0  0  0  0  0  0  0  0  0  0  0  0
  -24.4219  -21.7492   19.4248 O   0  0  0  0  0  0  0  0  0  0  0  0
  -22.9971  -24.4693   22.1384 O   0  0  0  0  0  0  0  0  0  0  0  0
  -19.8994  -27.5819   21.3199 O   0  0  0  0  0  0  0  0  0  0  0  0
  -16.4975  -24.6950   22.9366 O   0  0  0  0  0  0  0  0  0  0  0  0
  -30.6535  -26.4030   19.7323 O   0  0  0  0  0  0  0  0  0  0  0  0
  -20.4243  -19.1741   22.2646 O   0  0  0  0  0  0  0  0  0  1  0  0
  -25.5918  -14.8004   20.4522 O   0  0  0  0  0  0  0  0  0  0  0  0
  -35.1901  -26.9223   16.6413 F   0  0  0  0  0  0  0  0  0  0  0  0
  -32.8715  -24.8179   20.1911 F   0  0  0  0  0  0  0  0  0  0  0  0
  1  2  1  0  0  0  0
  1  6  2  0  0  0  0
  2  7  2  0  0  0  0
  3 10  2  0  0  0  0
  3 18  1  0  0  0  0
  4 11  1  0  0  0  0
  4 18  2  0  0  0  0
  5  9  2  0  0  0  0
  5 19  1  0  0  0  0
  6 21  1  0  0  0  0
  7 23  1  0  0  0  0
  8 12  2  0  0  0  0
  8 22  1  0  0  0  0
  9 25  1  0  0  0  0
 10 26  1  0  0  0  0
 11 26  2  0  0  0  0
 12 27  1  0  0  0  0
 13 14  2  0  0  0  0
 13 28  1  0  0  0  0
 14 30  1  0  0  0  0
 15 24  1  0  0  0  0
 15 27  2  0  0  0  0
 16 25  2  0  0  0  0
 16 29  1  0  0  0  0
 17 30  2  0  0  0  0
 17 31  1  0  0  0  0
 18 32  1  0  0  0  0
 19 29  2  0  0  0  0
 19 34  1  0  0  0  0
 20 32  1  0  0  0  0
 20 33  2  0  0  0  0
 20 35  1  0  0  0  0
 21 23  2  0  0  0  0
 21 39  1  0  0  0  0
 22 24  2  0  0  0  0
 22 40  1  0  0  0  0
 23 48  1  0  0  0  0
 24 41  1  0  0  0  0
 25 57  1  0  0  0  0
 26 82  1  0  0  0  0
 27 83  1  0  0  0  0
 28 31  2  0  0  0  0
 28 82  1  0  0  0  0
 29 84  1  0  0  0  0
 30 85  1  0  0  0  0
 31 86  1  0  0  0  0
 32 66  2  0  0  0  0
 33 67  1  0  0  0  0
 33 70  1  0  0  0  0
 34 68  1  0  0  0  0
 34 77  2  0  0  0  0
 35 71  1  0  0  0  0
 35 78  2  0  0  0  0
 36 49  1  0  0  0  0
 36 72  1  0  0  0  0
 36 79  2  0  0  0  0
 37 63  1  0  0  0  0
 37 69  1  0  0  0  0
 37 80  2  0  0  0  0
 38 64  1  0  0  0  0
 38 73  1  0  0  0  0
 38 81  2  0  0  0  0
 39 42  1  0  0  0  0
 40 49  1  0  0  0  0
 41 69  1  0  0  0  0
 42 44  1  0  0  0  0
 43 45  1  0  0  0  0
 43 46  1  0  0  0  0
 44 48  1  0  0  0  0
 45 50  1  0  0  0  0
 46 68  1  0  0  0  0
 47 50  1  0  0  0  0
 47 68  1  0  0  0  0
 48 72  1  0  0  0  0
 49 69  1  0  0  0  0
 50 67  1  0  0  0  0
 51 64  1  0  0  0  0
 52 65  1  0  0  0  0
 53 65  1  0  0  0  0
 54 65  1  0  0  0  0
 55 74  1  0  0  0  0
 56 75  1  0  0  0  0
 57 76  1  0  0  0  0
 58 59  1  0  0  0  0
 58 61  1  0  0  0  0
 59 74  1  0  0  0  0
 60 62  1  0  0  0  0
 60 76  1  0  0  0  0
 61 84  1  0  0  0  0
 62 83  1  0  0  0  0
 63 65  1  0  0  0  0
 63 73  1  0  0  0  0
 64 75  1  0  0  0  0
 66 67  1  0  0  0  0
M  CHG  3  74   1  75   1  76   1
M  ISO  4  19 100  34 100  62 101  83 101
M  END
> <Batch ID>
0133

> <Smiles>
CNCCCOc1cc(CNC[101CH2:1][101O:1]c2ccc3c(c2)CN(C(=O)C(NC(=O)C(C)NC)C(C)(C)C)C(C(=O)NC2CCCc4ccccc42)C3)cc[100c:0]1[100C:0](=O)N1CCCC(n2nc(-c3ccc(Oc4ccc(F)cc4F)cc3)c(C(N)=O)c2N)C1

> <Shape>
0.213

> <Color>
0.049

> <Negative vol penalty>
0.000

$$$$

  -OEChem-04052320553D

 84 93  0     1  0  0  0  0  0999 V2000
  -24.7671  -21.7762   12.3537 C   0  0  0  0  0  0  0  0  0  0  0  0
  -25.2446  -21.6155   13.6505 C   0  0  0  0  0  0  0  0  0  0  0  0
  -22.9995   -9.8932   19.9814 C   0  0  0  0  0  0  0  0  0  0  0  0
  -23.7261   -9.9442   22.2850 C   0  0  0  0  0  0  0  0  0  0  0  0
  -25.3583  -22.7114   11.5053 C   0  0  0  0  0  0  0  0  0  0  0  0
  -26.3143  -22.3893   14.0993 C   0  0  0  0  0  0  0  0  0  0  0  0
  -27.1797  -24.5396   19.7679 C   0  0  0  0  0  0  0  0  0  0  0  0
  -22.2334   -8.7586   20.2482 C   0  0  0  0  0  0  0  0  0  0  0  0
  -22.9599   -8.8096   22.5518 C   0  0  0  0  0  0  0  0  0  0  0  0
  -27.9550  -24.0870   20.8345 C   0  0  0  0  0  0  0  0  0  0  0  0
  -23.2045   -5.4707   22.0797 C   0  0  0  0  0  0  0  0  0  0  0  0
  -23.7927   -4.4536   22.8314 C   0  0  0  0  0  0  0  0  0  0  0  0
  -29.7185  -25.6004   20.1869 C   0  0  0  0  0  0  0  0  0  0  0  0
  -29.7633  -17.6947   22.6696 C   0  0  0  0  0  0  0  0  0  0  0  0
  -22.0698   -4.6962   24.5077 C   0  0  0  0  0  0  0  0  0  0  0  0
  -32.2683  -18.4606   21.9052 C   0  0  0  0  0  0  0  0  0  0  0  0
  -23.7460  -10.4860   20.9998 C   0  0  0  0  0  0  0  0  0  0  0  0
  -24.1308  -13.0016   20.8236 C   0  0  0  0  0  0  0  0  0  0  0  0
  -26.4296  -23.5038   11.9471 C   0  0  0  0  0  0  0  0  0  0  0  0
  -27.6731  -25.5198   18.8948 C   0  0  0  0  0  0  0  0  0  0  0  0
  -26.9213  -23.3350   13.2555 C   0  0  0  0  0  0  0  0  0  0  0  0
  -28.9464  -26.0655   19.1115 C   0  0  0  0  0  0  0  0  0  0  0  0
  -30.2524  -18.9311   23.0763 C   0  0  0  0  0  0  0  0  0  0  0  0
  -31.5278  -19.3289   22.6911 C   0  0  0  0  0  0  0  0  0  0  0  0
  -22.2135   -8.2168   21.5334 C   0  0  0  0  0  0  0  0  0  0  0  0
  -29.2258  -24.6153   21.0425 C   0  0  0  0  0  0  0  0  0  0  0  0
  -22.0490   -6.1007   22.5420 C   0  0  0  0  0  0  0  0  0  0  0  0
  -23.2253   -4.0663   24.0454 C   0  0  0  0  0  0  0  0  0  0  0  0
  -21.4816   -5.7134   23.7559 C   0  0  0  0  0  0  0  0  0  0  0  0
  -24.5381  -11.6577   20.7247 C   0  0  0  0  0  0  0  0  0  0  0  0
  -30.5827  -16.8997   21.8845 C   0  0  0  0  0  0  0  0  0  0  0  0
  -25.2402  -13.7244   20.4585 C   0  0  0  0  0  0  0  0  0  0  0  0
  -22.8630  -13.5478   21.2109 C   0  0  0  0  0  0  0  0  0  0  0  0
  -28.3280  -25.6305   15.7863 C   0  0  0  0  0  0  0  0  0  0  0  0
  -28.8616  -28.7692   16.4075 C   0  0  0  0  0  0  0  0  0  0  0  0
  -29.6616  -31.1753   18.6917 C   0  0  0  0  0  0  0  0  0  0  0  0
  -30.7196  -14.6864   20.6891 C   0  0  0  0  0  0  0  0  0  0  0  0
  -27.0670  -24.4682   10.9784 C   0  0  0  0  0  0  0  0  0  0  0  0
  -26.8137  -26.0165   17.7647 C   0  0  0  0  0  0  0  0  0  0  0  0
  -29.5142  -27.1343   18.2149 C   0  0  0  0  0  0  0  0  0  0  0  0
  -27.9533  -25.5123   11.6526 C   0  0  0  0  0  0  0  0  0  0  0  0
  -29.6003  -12.2334   18.3638 C   0  0  0  0  0  0  0  0  0  0  0  0
  -29.5511  -19.7657   25.4185 C   0  0  0  0  0  0  0  0  0  0  0  0
  -28.3261  -19.1902   24.7794 C   0  0  0  0  0  0  0  0  0  0  0  0
  -28.8727  -24.8519   12.6752 C   0  0  0  0  0  0  0  0  0  0  0  0
  -28.1500  -11.9755   18.7789 C   0  0  0  0  0  0  0  0  0  0  0  0
  -30.5015  -12.4769   19.5730 C   0  0  0  0  0  0  0  0  0  0  0  0
  -28.5869  -13.2654   20.9078 C   0  0  0  0  0  0  0  0  0  0  0  0
  -29.3953  -19.8132   23.9216 C   0  0  0  0  0  0  0  0  0  0  0  0
  -28.0637  -24.1731   13.7871 C   0  0  1  0  0  0  0  0  0  0  0  0
  -27.6198  -26.6488   16.6343 C   0  0  1  0  0  0  0  0  0  0  0  0
  -27.6285  -13.0789   19.7202 C   0  0  2  0  0  0  0  0  0  0  0  0
  -30.0600  -33.6447   18.8942 C   0  0  0  0  0  0  0  0  0  0  0  0
  -31.6036  -28.4305   15.1125 C   0  0  0  0  0  0  0  0  0  0  0  0
  -32.2943  -30.5904   16.1737 C   0  0  0  0  0  0  0  0  0  0  0  0
  -30.4260  -30.5561   14.5212 C   0  0  0  0  0  0  0  0  0  0  0  0
  -27.4241  -31.4972   20.6019 C   0  0  0  0  0  0  0  0  0  0  0  0
  -32.1059  -20.6519   23.0990 C   0  0  0  0  0  0  0  0  0  0  0  0
  -32.0376  -23.1267   22.7682 C   0  0  0  0  0  0  0  0  0  0  0  0
  -31.4012  -24.2023   21.9102 C   0  0  0  0  0  0  0  0  0  1  0  0
  -30.0588  -29.5874   16.8275 C   0  0  1  0  0  0  0  0  0  0  0  0
  -29.0359  -32.5249   18.9942 C   0  0  2  0  0  0  0  0  0  0  0  0
  -31.0860  -29.7696   15.6747 C   0  0  0  0  0  0  0  0  0  0  0  0
  -31.8270  -17.2520   21.4904 N   0  0  0  0  0  0  0  0  0  0  0  0
  -25.8071  -11.5314   20.3277 N   0  0  0  0  0  0  0  0  0  0  0  0
  -26.2068  -12.8053   20.1739 N   0  0  0  0  0  0  0  0  0  0  0  0
  -28.6380  -27.5825   17.1199 N   0  0  0  0  0  0  0  0  0  0  0  0
  -29.9469  -13.5378   20.4167 N   0  0  0  0  0  0  0  0  0  0  0  0
  -25.4734  -15.0502   20.3563 N   0  0  0  0  0  0  0  0  0  0  0  0
  -21.8315  -12.6635   21.5551 N   0  0  0  0  0  0  0  0  0  0  0  0
  -30.0757  -15.6415   21.4751 N   0  0  0  0  0  0  0  0  0  0  0  0
  -27.5747  -25.1570   14.7290 N   0  0  0  0  0  0  0  0  0  0  0  0
  -29.5312  -30.8386   17.3610 N   0  0  0  0  0  0  0  0  0  0  0  0
  -28.4629  -32.5336   20.3699 N   0  3  0  0  0  0  0  0  0  0  0  0
  -31.5287  -21.7976   22.3453 N   0  3  0  0  0  0  0  0  0  0  0  0
  -22.6461  -14.7831   21.2349 O   0  0  0  0  0  0  0  0  0  0  0  0
  -29.4736  -25.2999   16.0694 O   0  0  0  0  0  0  0  0  0  0  0  0
  -28.1470  -29.1719   15.4862 O   0  0  0  0  0  0  0  0  0  0  0  0
  -30.2143  -30.4901   19.5494 O   0  0  0  0  0  0  0  0  0  0  0  0
  -31.8580  -14.8255   20.2344 O   0  0  0  0  0  0  0  0  0  0  0  0
  -21.4658   -7.1097   21.7941 O   0  0  0  0  0  0  0  0  0  0  0  0
  -29.9849  -24.1749   22.0825 O   0  0  0  0  0  0  0  0  0  1  0  0
  -23.7894   -3.0885   24.7664 F   0  0  0  0  0  0  0  0  0  0  0  0
  -20.3709   -6.3140   24.2047 F   0  0  0  0  0  0  0  0  0  0  0  0
  1  2  1  0  0  0  0
  1  5  2  0  0  0  0
  2  6  2  0  0  0  0
  3  8  2  0  0  0  0
  3 17  1  0  0  0  0
  4  9  1  0  0  0  0
  4 17  2  0  0  0  0
  5 19  1  0  0  0  0
  6 21  1  0  0  0  0
  7 10  2  0  0  0  0
  7 20  1  0  0  0  0
  8 25  1  0  0  0  0
  9 25  2  0  0  0  0
 10 26  1  0  0  0  0
 11 12  2  0  0  0  0
 11 27  1  0  0  0  0
 12 28  1  0  0  0  0
 13 22  1  0  0  0  0
 13 26  2  0  0  0  0
 14 23  1  0  0  0  0
 14 31  2  0  0  0  0
 15 28  2  0  0  0  0
 15 29  1  0  0  0  0
 16 24  1  0  0  0  0
 16 64  2  0  0  0  0
 17 30  1  0  0  0  0
 18 30  1  0  0  0  0
 18 32  2  0  0  0  0
 18 33  1  0  0  0  0
 19 21  2  0  0  0  0
 19 38  1  0  0  0  0
 20 22  2  0  0  0  0
 20 39  1  0  0  0  0
 21 50  1  0  0  0  0
 22 40  1  0  0  0  0
 23 24  2  0  0  0  0
 23 49  1  0  0  0  0
 24 58  1  0  0  0  0
 25 81  1  0  0  0  0
 26 82  1  0  0  0  0
 27 29  2  0  0  0  0
 27 81  1  0  0  0  0
 28 83  1  0  0  0  0
 29 84  1  0  0  0  0
 30 65  2  0  0  0  0
 31 64  1  0  0  0  0
 31 71  1  0  0  0  0
 32 66  1  0  0  0  0
 32 69  1  0  0  0  0
 33 70  1  0  0  0  0
 33 76  2  0  0  0  0
 34 51  1  0  0  0  0
 34 72  1  0  0  0  0
 34 77  2  0  0  0  0
 35 61  1  0  0  0  0
 35 67  1  0  0  0  0
 35 78  2  0  0  0  0
 36 62  1  0  0  0  0
 36 73  1  0  0  0  0
 36 79  2  0  0  0  0
 37 68  1  0  0  0  0
 37 71  1  0  0  0  0
 37 80  2  0  0  0  0
 38 41  1  0  0  0  0
 39 51  1  0  0  0  0
 40 67  1  0  0  0  0
 41 45  1  0  0  0  0
 42 46  1  0  0  0  0
 42 47  1  0  0  0  0
 43 44  1  0  0  0  0
 43 49  1  0  0  0  0
 44 49  1  0  0  0  0
 45 50  1  0  0  0  0
 46 52  1  0  0  0  0
 47 68  1  0  0  0  0
 48 52  1  0  0  0  0
 48 68  1  0  0  0  0
 50 72  1  0  0  0  0
 51 67  1  0  0  0  0
 52 66  1  0  0  0  0
 53 62  1  0  0  0  0
 54 63  1  0  0  0  0
 55 63  1  0  0  0  0
 56 63  1  0  0  0  0
 57 74  1  0  0  0  0
 58 75  1  0  0  0  0
 59 60  1  0  0  0  0
 59 75  1  0  0  0  0
 60 82  1  0  0  0  0
 61 63  1  0  0  0  0
 61 73  1  0  0  0  0
 62 74  1  0  0  0  0
 65 66  1  0  0  0  0
M  CHG  2  74   1  75   1
M  ISO  4  37 100  60 101  71 100  82 101
M  END
> <Batch ID>
0133

> <Smiles>
CNC(C)C(=O)NC(C(=O)N1Cc2cc([101O:1][101CH2:1]CNCc3cnc([100NH:0][100C:0](=O)N4CCCC(n5nc(-c6ccc(Oc7ccc(F)cc7F)cc6)c(C(N)=O)c5N)C4)cc3C3CC3)ccc2CC1C(=O)NC1CCCc2ccccc21)C(C)(C)C

> <Shape>
0.211

> <Color>
0.194

> <Negative vol penalty>
0.000

$$$$

  -OEChem-04052320553D

 90100  0     1  0  0  0  0  0999 V2000
  -25.8525  -32.4587   26.2599 C   0  0  0  0  0  0  0  0  0  0  0  0
  -26.2286  -31.1609   25.9291 C   0  0  0  0  0  0  0  0  0  0  0  0
  -23.2991   -9.7857   19.9287 C   0  0  0  0  0  0  0  0  0  0  0  0
  -23.7286   -9.9544   22.3002 C   0  0  0  0  0  0  0  0  0  0  0  0
  -25.7292  -33.4236   25.2611 C   0  0  0  0  0  0  0  0  0  0  0  0
  -26.4806  -30.8268   24.5989 C   0  0  0  0  0  0  0  0  0  0  0  0
  -30.6494  -26.8468   22.5287 C   0  0  0  0  0  0  0  0  0  0  0  0
  -30.9763  -21.5442   17.9298 C   0  0  0  0  0  0  0  0  0  0  0  0
  -28.9971  -21.4846   19.3141 C   0  0  0  0  0  0  0  0  0  0  0  0
  -30.8579  -20.1733   17.7014 C   0  0  0  0  0  0  0  0  0  0  0  0
  -28.8786  -20.1137   19.0856 C   0  0  0  0  0  0  0  0  0  0  0  0
  -22.5718   -8.6150   20.1437 C   0  0  0  0  0  0  0  0  0  0  0  0
  -23.0012   -8.7837   22.5152 C   0  0  0  0  0  0  0  0  0  0  0  0
  -30.5560  -25.5156   22.1251 C   0  0  0  0  0  0  0  0  0  0  0  0
  -19.7531   -7.8724   22.7142 C   0  0  0  0  0  0  0  0  0  0  0  0
  -18.8413   -7.8624   23.7697 C   0  0  0  0  0  0  0  0  0  0  0  0
  -30.3654  -26.2313   19.8293 C   0  0  0  0  0  0  0  0  0  0  0  0
  -20.0396   -6.0279   24.7875 C   0  0  0  0  0  0  0  0  0  0  0  0
  -23.8775  -10.4553   21.0070 C   0  0  0  0  0  0  0  0  0  0  0  0
  -24.1367  -12.9831   20.7811 C   0  0  0  0  0  0  0  0  0  0  0  0
  -25.9891  -33.1037   23.9192 C   0  0  0  0  0  0  0  0  0  0  0  0
  -30.5905  -27.8825   21.5851 C   0  0  0  0  0  0  0  0  0  0  0  0
  -26.3593  -31.7880   23.5810 C   0  0  0  0  0  0  0  0  0  0  0  0
  -30.4609  -27.5747   20.2233 C   0  0  0  0  0  0  0  0  0  0  0  0
  -30.0460  -22.1999   18.7363 C   0  0  0  0  0  0  0  0  0  0  0  0
  -29.8090  -19.4581   18.2792 C   0  0  0  0  0  0  0  0  0  0  0  0
  -22.4228   -8.1141   21.4369 C   0  0  0  0  0  0  0  0  0  0  0  0
  -30.4111  -25.2078   20.7756 C   0  0  0  0  0  0  0  0  0  0  0  0
  -20.8081   -6.9602   22.6953 C   0  0  0  0  0  0  0  0  0  0  0  0
  -18.9845   -6.9402   24.8063 C   0  0  0  0  0  0  0  0  0  0  0  0
  -20.9514   -6.0379   23.7319 C   0  0  0  0  0  0  0  0  0  0  0  0
  -24.6294  -11.6643   20.7855 C   0  0  0  0  0  0  0  0  0  0  0  0
  -25.2398  -13.7609   20.5268 C   0  0  0  0  0  0  0  0  0  0  0  0
  -22.8014  -13.4621   20.9884 C   0  0  0  0  0  0  0  0  0  0  0  0
  -28.6286  -30.3271   21.0573 C   0  0  0  0  0  0  0  0  0  0  0  0
  -30.8373  -31.1106   18.8145 C   0  0  0  0  0  0  0  0  0  0  0  0
  -33.3401  -30.0882   16.7318 C   0  0  0  0  0  0  0  0  0  0  0  0
  -29.8354  -14.4172   17.2396 C   0  0  0  0  0  0  0  0  0  0  0  0
  -25.7966  -34.1686   22.8686 C   0  0  0  0  0  0  0  0  0  0  0  0
  -30.7196  -29.3122   22.0341 C   0  0  0  0  0  0  0  0  0  0  0  0
  -30.4127  -28.6489   19.1686 C   0  0  0  0  0  0  0  0  0  0  0  0
  -26.4454  -33.8274   21.5296 C   0  0  0  0  0  0  0  0  0  0  0  0
  -27.6912  -21.4780   14.9705 C   0  0  0  0  0  0  0  0  0  0  0  0
  -28.6741  -21.0865   13.8627 C   0  0  0  0  0  0  0  0  0  0  0  0
  -30.1556  -12.6161   20.4620 C   0  0  0  0  0  0  0  0  0  0  0  0
  -26.1169  -32.3932   21.1273 C   0  0  0  0  0  0  0  0  0  0  0  0
  -28.7065  -12.2552   20.7842 C   0  0  0  0  0  0  0  0  0  0  0  0
  -27.4432  -20.2115   15.7856 C   0  0  0  0  0  0  0  0  0  0  0  0
  -28.9605  -19.6001   14.0561 C   0  0  0  0  0  0  0  0  0  0  0  0
  -30.3884  -12.7360   18.9592 C   0  0  0  0  0  0  0  0  0  0  0  0
  -28.9525  -15.6050   15.2555 C   0  0  0  0  0  0  0  0  0  0  0  0
  -28.0122  -13.3274   18.6042 C   0  0  0  0  0  0  0  0  0  0  0  0
  -27.9936  -16.1465   17.4610 C   0  0  0  0  0  0  0  0  0  0  0  0
  -29.3640  -17.0513   15.0335 C   0  0  0  0  0  0  0  0  0  0  0  0
  -26.6653  -31.3933   22.1525 C   0  0  1  0  0  0  0  0  0  0  0  0
  -30.1309  -30.3067   21.0381 C   0  0  1  0  0  0  0  0  0  0  0  0
  -27.7347  -13.2407   20.1127 C   0  0  1  0  0  0  0  0  0  0  0  0
  -28.6877  -19.3798   15.5330 C   0  0  0  0  0  0  0  0  0  0  0  0
  -28.3756  -17.6264   17.3074 C   0  0  1  0  0  0  0  0  0  0  0  0
  -29.8117  -17.1657   19.3275 C   0  0  0  0  0  0  0  0  0  0  0  0
  -34.9299  -30.9494   14.9916 C   0  0  0  0  0  0  0  0  0  0  0  0
  -28.5596  -31.2108   16.7867 C   0  0  0  0  0  0  0  0  0  0  0  0
  -30.2726  -31.1252   14.9628 C   0  0  0  0  0  0  0  0  0  0  0  0
  -30.2438  -33.0450   16.5553 C   0  0  0  0  0  0  0  0  0  0  0  0
  -35.7014  -29.3168   18.3405 C   0  0  0  0  0  0  0  0  0  0  0  0
  -30.1719  -23.6655   18.9811 C   0  0  0  0  0  0  0  0  0  1  0  0
  -29.6797  -17.9663   18.0286 C   0  0  2  0  0  0  0  0  0  0  0  0
  -31.0416  -30.7832   17.3551 C   0  0  1  0  0  0  0  0  0  0  0  0
  -34.7249  -30.6516   16.4688 C   0  0  2  0  0  0  0  0  0  0  0  0
  -30.0283  -31.5206   16.4348 C   0  0  0  0  0  0  0  0  0  0  0  0
  -25.9432  -11.6040   20.5524 N   0  0  0  0  0  0  0  0  0  0  0  0
  -26.2854  -12.8945   20.3990 N   0  0  0  0  0  0  0  0  0  0  0  0
  -30.5366  -30.0319   19.6582 N   0  0  0  0  0  0  0  0  0  0  0  0
  -29.4238  -13.6424   18.3363 N   0  0  0  0  0  0  0  0  0  0  0  0
  -28.8818  -15.2790   16.6773 N   0  0  0  0  0  0  0  0  0  0  0  0
  -25.4077  -15.0946   20.4023 N   0  0  0  0  0  0  0  0  0  0  0  0
  -21.7874  -12.5273   21.2378 N   0  0  0  0  0  0  0  0  0  0  0  0
  -28.0897  -31.2129   21.9707 N   0  0  0  0  0  0  0  0  0  0  0  0
  -32.4398  -31.0790   17.0622 N   0  0  0  0  0  0  0  0  0  0  0  0
  -28.4433  -17.9557   15.8220 N   0  3  2  0  0  0  0  0  0  0  0  0
  -35.7698  -29.6813   16.9020 N   0  3  0  0  0  0  0  0  0  0  0  0
  -22.5129  -14.6818   20.9372 O   0  0  0  0  0  0  0  0  0  0  0  0
  -28.0047  -29.5946   20.2986 O   0  0  0  0  0  0  0  0  0  0  0  0
  -30.9478  -32.2793   19.1933 O   0  0  0  0  0  0  0  0  0  0  0  0
  -33.0818  -28.8895   16.6485 O   0  0  0  0  0  0  0  0  0  0  0  0
  -30.9882  -14.3475   16.7951 O   0  0  0  0  0  0  0  0  0  0  0  0
  -21.7130   -6.9719   21.6471 O   0  0  0  0  0  0  0  0  0  0  0  0
  -30.3184  -23.9004   20.3762 O   0  0  0  0  0  0  0  0  0  1  0  0
  -18.1097   -6.9317   25.8206 F   0  0  0  0  0  0  0  0  0  0  0  0
  -21.9636   -5.1599   23.7198 F   0  0  0  0  0  0  0  0  0  0  0  0
  1  2  1  0  0  0  0
  1  5  2  0  0  0  0
  2  6  2  0  0  0  0
  3 12  2  0  0  0  0
  3 19  1  0  0  0  0
  4 13  1  0  0  0  0
  4 19  2  0  0  0  0
  5 21  1  0  0  0  0
  6 23  1  0  0  0  0
  7 14  2  0  0  0  0
  7 22  1  0  0  0  0
  8 10  2  0  0  0  0
  8 25  1  0  0  0  0
  9 11  1  0  0  0  0
  9 25  2  0  0  0  0
 10 26  1  0  0  0  0
 11 26  2  0  0  0  0
 12 27  1  0  0  0  0
 13 27  2  0  0  0  0
 14 28  1  0  0  0  0
 15 16  2  0  0  0  0
 15 29  1  0  0  0  0
 16 30  1  0  0  0  0
 17 24  1  0  0  0  0
 17 28  2  0  0  0  0
 18 30  2  0  0  0  0
 18 31  1  0  0  0  0
 19 32  1  0  0  0  0
 20 32  1  0  0  0  0
 20 33  2  0  0  0  0
 20 34  1  0  0  0  0
 21 23  2  0  0  0  0
 21 39  1  0  0  0  0
 22 24  2  0  0  0  0
 22 40  1  0  0  0  0
 23 55  1  0  0  0  0
 24 41  1  0  0  0  0
 25 66  1  0  0  0  0
 26 67  1  0  0  0  0
 27 87  1  0  0  0  0
 28 88  1  0  0  0  0
 29 31  2  0  0  0  0
 29 87  1  0  0  0  0
 30 89  1  0  0  0  0
 31 90  1  0  0  0  0
 32 71  2  0  0  0  0
 33 72  1  0  0  0  0
 33 76  1  0  0  0  0
 34 77  1  0  0  0  0
 34 82  2  0  0  0  0
 35 56  1  0  0  0  0
 35 78  1  0  0  0  0
 35 83  2  0  0  0  0
 36 68  1  0  0  0  0
 36 73  1  0  0  0  0
 36 84  2  0  0  0  0
 37 69  1  0  0  0  0
 37 79  1  0  0  0  0
 37 85  2  0  0  0  0
 38 74  1  0  0  0  0
 38 75  1  0  0  0  0
 38 86  2  0  0  0  0
 39 42  1  0  0  0  0
 40 56  1  0  0  0  0
 41 73  1  0  0  0  0
 42 46  1  0  0  0  0
 43 44  1  0  0  0  0
 43 48  1  0  0  0  0
 44 49  1  0  0  0  0
 45 47  1  0  0  0  0
 45 50  1  0  0  0  0
 46 55  1  0  0  0  0
 47 57  1  0  0  0  0
 48 58  1  0  0  0  0
 49 58  1  0  0  0  0
 50 74  1  0  0  0  0
 51 54  1  0  0  0  0
 51 75  1  0  0  0  0
 52 57  1  0  0  0  0
 52 74  1  0  0  0  0
 53 59  1  0  0  0  0
 53 75  1  0  0  0  0
 54 80  1  0  0  0  0
 55 78  1  0  0  0  0
 56 73  1  0  0  0  0
 57 72  1  0  0  0  0
 58 80  1  0  0  0  0
 59 67  1  0  0  0  0
 59 80  1  0  0  0  0
 60 67  1  0  0  0  0
 61 69  1  0  0  0  0
 62 70  1  0  0  0  0
 63 70  1  0  0  0  0
 64 70  1  0  0  0  0
 65 81  1  0  0  0  0
 66 88  1  0  0  0  0
 68 70  1  0  0  0  0
 68 79  1  0  0  0  0
 69 81  1  0  0  0  0
 71 72  1  0  0  0  0
M  CHG  2  80   1  81   1
M  ISO  4  38 100  66 101  75 100  88 101
M  END
> <Batch ID>
0133

> <Smiles>
CNC(C)C(=O)NC(C(=O)N1Cc2cc([101O:1][101CH2:1]c3ccc(C(C)C4C[100N:0]([100C:0](=O)N5CCCC(n6nc(-c7ccc(Oc8ccc(F)cc8F)cc7)c(C(N)=O)c6N)C5)CCN4C4CCCC4)cc3)ccc2CC1C(=O)NC1CCCc2ccccc21)C(C)(C)C

> <Shape>
0.278

> <Color>
0.167

> <Negative vol penalty>
0.000

$$$$

  -OEChem-04052320553D

 86 95  0     1  0  0  0  0  0999 V2000
  -23.3726   -8.2377   22.0016 C   0  0  0  0  0  0  0  0  0  0  0  0
  -24.3098   -9.2365   21.7579 C   0  0  0  0  0  0  0  0  0  0  0  0
  -18.9069  -28.6011   24.1969 C   0  0  0  0  0  0  0  0  0  0  0  0
  -18.7420  -26.9972   22.3977 C   0  0  0  0  0  0  0  0  0  0  0  0
  -22.0160   -8.4936   21.8059 C   0  0  0  0  0  0  0  0  0  0  0  0
  -23.8911  -10.4915   21.3175 C   0  0  0  0  0  0  0  0  0  0  0  0
  -30.1188  -20.4217   17.6078 C   0  0  0  0  0  0  0  0  0  0  0  0
  -26.3980  -15.9045   22.7033 C   0  0  0  0  0  0  0  0  0  0  0  0
  -29.0887  -19.7244   18.2375 C   0  0  0  0  0  0  0  0  0  0  0  0
  -17.5187  -28.7368   24.2032 C   0  0  0  0  0  0  0  0  0  0  0  0
  -17.3537  -27.1329   22.4040 C   0  0  0  0  0  0  0  0  0  0  0  0
  -27.2929  -16.7264   22.0195 C   0  0  0  0  0  0  0  0  0  0  0  0
  -14.8533  -27.0192   25.3771 C   0  0  0  0  0  0  0  0  0  0  0  0
  -14.2069  -27.0123   26.6131 C   0  0  0  0  0  0  0  0  0  0  0  0
  -28.4185  -21.7461   19.3688 C   0  0  0  0  0  0  0  0  0  0  0  0
  -25.4430  -18.0098   21.1534 C   0  0  0  0  0  0  0  0  0  0  0  0
  -13.3453  -29.2265   26.1748 C   0  0  0  0  0  0  0  0  0  0  0  0
  -19.5186  -27.7313   23.2941 C   0  0  0  0  0  0  0  0  0  0  0  0
  -21.7212  -26.6765   24.0314 C   0  0  0  0  0  0  0  0  0  0  0  0
  -21.5797   -9.7554   21.3721 C   0  0  0  0  0  0  0  0  0  0  0  0
  -30.3056  -21.7928   17.8442 C   0  0  0  0  0  0  0  0  0  0  0  0
  -25.0161  -16.1228   22.6084 C   0  0  0  0  0  0  0  0  0  0  0  0
  -22.5276  -10.7641   21.1146 C   0  0  0  0  0  0  0  0  0  0  0  0
  -29.4528  -22.4622   18.7427 C   0  0  0  0  0  0  0  0  0  0  0  0
  -24.5328  -17.1909   21.8390 C   0  0  0  0  0  0  0  0  0  0  0  0
  -28.2384  -20.3864   19.1173 C   0  0  0  0  0  0  0  0  0  0  0  0
  -16.7421  -28.0027   23.3068 C   0  0  0  0  0  0  0  0  0  0  0  0
  -26.8153  -17.7774   21.2421 C   0  0  0  0  0  0  0  0  0  0  0  0
  -14.7458  -28.1297   24.5400 C   0  0  0  0  0  0  0  0  0  0  0  0
  -13.4529  -28.1160   27.0120 C   0  0  0  0  0  0  0  0  0  0  0  0
  -13.9917  -29.2334   24.9388 C   0  0  0  0  0  0  0  0  0  0  0  0
  -20.9526  -27.5912   23.2867 C   0  0  0  0  0  0  0  0  0  0  0  0
  -23.0190  -26.9456   23.6714 C   0  0  0  0  0  0  0  0  0  0  0  0
  -21.2996  -25.6733   24.9649 C   0  0  0  0  0  0  0  0  0  0  0  0
  -22.5475  -14.4356   21.5298 C   0  0  0  0  0  0  0  0  0  0  0  0
  -20.8291  -16.9022   22.7487 C   0  0  0  0  0  0  0  0  0  0  0  0
  -28.0383  -25.8747   18.8874 C   0  0  0  0  0  0  0  0  0  0  0  0
  -20.7335  -20.1818   23.6876 C   0  0  0  0  0  0  0  0  0  0  0  0
  -26.1417  -28.5296   19.0612 C   0  0  0  0  0  0  0  0  0  0  0  0
  -20.1068   -9.9702   21.1295 C   0  0  0  0  0  0  0  0  0  0  0  0
  -31.4621  -22.4937   17.1766 C   0  0  0  0  0  0  0  0  0  0  0  0
  -24.0652  -15.2437   23.3736 C   0  0  0  0  0  0  0  0  0  0  0  0
  -23.0595  -17.4800   21.7205 C   0  0  0  0  0  0  0  0  0  0  0  0
  -19.7157  -11.4418   21.0205 C   0  0  0  0  0  0  0  0  0  0  0  0
  -31.3532  -24.0159   17.2099 C   0  0  0  0  0  0  0  0  0  0  0  0
  -25.3476  -30.8199   21.6689 C   0  0  0  0  0  0  0  0  0  0  0  0
  -20.6821  -12.1845   20.1034 C   0  0  0  0  0  0  0  0  0  0  0  0
  -30.9701  -24.4933   18.6071 C   0  0  0  0  0  0  0  0  0  0  0  0
  -24.2047  -30.1358   22.4212 C   0  0  0  0  0  0  0  0  0  0  0  0
  -25.2650  -30.5664   20.1653 C   0  0  0  0  0  0  0  0  0  0  0  0
  -24.0379  -28.4610   20.5328 C   0  0  0  0  0  0  0  0  0  0  0  0
  -22.1106  -12.1459   20.6597 C   0  0  1  0  0  0  0  0  0  0  0  0
  -29.6007  -23.9421   19.0223 C   0  0  1  0  0  0  0  0  0  0  0  0
  -22.6544  -15.2421   22.7931 C   0  0  1  0  0  0  0  0  0  0  0  0
  -24.1102  -28.6415   22.0587 C   0  0  2  0  0  0  0  0  0  0  0  0
  -19.1791  -21.9218   24.6114 C   0  0  0  0  0  0  0  0  0  0  0  0
  -19.5016  -17.1648   20.0140 C   0  0  0  0  0  0  0  0  0  0  0  0
  -18.7057  -19.4384   20.6961 C   0  0  0  0  0  0  0  0  0  0  0  0
  -17.9483  -17.4236   21.9568 C   0  0  0  0  0  0  0  0  0  0  0  0
  -22.4049  -20.5605   26.1004 C   0  0  0  0  0  0  0  0  0  0  0  0
  -27.1281  -19.6388   19.7952 C   0  0  0  0  0  0  0  0  0  1  0  0
  -26.9053  -26.4034   18.0338 C   0  0  0  0  0  0  0  0  0  0  0  0
  -20.3321  -18.2247   22.2169 C   0  0  1  0  0  0  0  0  0  0  0  0
  -20.2108  -20.8551   24.9437 C   0  0  2  0  0  0  0  0  0  0  0  0
  -19.1496  -18.0565   21.2214 C   0  0  0  0  0  0  0  0  0  0  0  0
  -21.6999  -28.3823   22.5123 N   0  0  0  0  0  0  0  0  0  0  0  0
  -22.9516  -27.9656   22.7685 N   0  0  0  0  0  0  0  0  0  0  0  0
  -22.1695  -16.5884   22.4825 N   0  0  0  0  0  0  0  0  0  0  0  0
  -25.1792  -29.1303   19.8893 N   0  0  0  0  0  0  0  0  0  0  0  0
  -24.2000  -26.4069   24.0424 N   0  0  0  0  0  0  0  0  0  0  0  0
  -19.9286  -25.5307   25.2187 N   0  0  0  0  0  0  0  0  0  0  0  0
  -22.2591  -13.1003   21.7375 N   0  0  0  0  0  0  0  0  0  0  0  0
  -28.5398  -24.6875   18.3794 N   0  0  0  0  0  0  0  0  0  0  0  0
  -20.0190  -19.0423   23.3839 N   0  0  0  0  0  0  0  0  0  0  0  0
  -25.9907  -27.1636   18.8563 N   0  0  0  0  0  0  0  0  0  0  0  0
  -21.3288  -21.4988   25.6898 N   0  3  0  0  0  0  0  0  0  0  0  0
  -22.1156  -24.9365   25.5688 O   0  0  0  0  0  0  0  0  0  0  0  0
  -22.7129  -14.9846   20.4467 O   0  0  0  0  0  0  0  0  0  0  0  0
  -20.0585  -16.1775   23.3832 O   0  0  0  0  0  0  0  0  0  0  0  0
  -28.4207  -26.4257   19.9164 O   0  0  0  0  0  0  0  0  0  0  0  0
  -21.6785  -20.6246   23.0384 O   0  0  0  0  0  0  0  0  0  0  0  0
  -27.0702  -29.1626   18.5471 O   0  0  0  0  0  0  0  0  0  0  0  0
  -15.3874  -28.1347   23.3128 O   0  0  0  0  0  0  0  0  0  0  0  0
  -27.6865  -18.5807   20.5731 O   0  0  0  0  0  0  0  0  0  1  0  0
  -12.8309  -28.1086   28.1983 F   0  0  0  0  0  0  0  0  0  0  0  0
  -13.8838  -30.3027   24.1383 F   0  0  0  0  0  0  0  0  0  0  0  0
  1  2  1  0  0  0  0
  1  5  2  0  0  0  0
  2  6  2  0  0  0  0
  3 10  2  0  0  0  0
  3 18  1  0  0  0  0
  4 11  1  0  0  0  0
  4 18  2  0  0  0  0
  5 20  1  0  0  0  0
  6 23  1  0  0  0  0
  7  9  2  0  0  0  0
  7 21  1  0  0  0  0
  8 12  2  0  0  0  0
  8 22  1  0  0  0  0
  9 26  1  0  0  0  0
 10 27  1  0  0  0  0
 11 27  2  0  0  0  0
 12 28  1  0  0  0  0
 13 14  2  0  0  0  0
 13 29  1  0  0  0  0
 14 30  1  0  0  0  0
 15 24  1  0  0  0  0
 15 26  2  0  0  0  0
 16 25  1  0  0  0  0
 16 28  2  0  0  0  0
 17 30  2  0  0  0  0
 17 31  1  0  0  0  0
 18 32  1  0  0  0  0
 19 32  1  0  0  0  0
 19 33  2  0  0  0  0
 19 34  1  0  0  0  0
 20 23  2  0  0  0  0
 20 40  1  0  0  0  0
 21 24  2  0  0  0  0
 21 41  1  0  0  0  0
 22 25  2  0  0  0  0
 22 42  1  0  0  0  0
 23 52  1  0  0  0  0
 24 53  1  0  0  0  0
 25 43  1  0  0  0  0
 26 61  1  0  0  0  0
 27 83  1  0  0  0  0
 28 84  1  0  0  0  0
 29 31  2  0  0  0  0
 29 83  1  0  0  0  0
 30 85  1  0  0  0  0
 31 86  1  0  0  0  0
 32 66  2  0  0  0  0
 33 67  1  0  0  0  0
 33 70  1  0  0  0  0
 34 71  1  0  0  0  0
 34 77  2  0  0  0  0
 35 54  1  0  0  0  0
 35 72  1  0  0  0  0
 35 78  2  0  0  0  0
 36 63  1  0  0  0  0
 36 68  1  0  0  0  0
 36 79  2  0  0  0  0
 37 62  1  0  0  0  0
 37 73  1  0  0  0  0
 37 80  2  0  0  0  0
 38 64  1  0  0  0  0
 38 74  1  0  0  0  0
 38 81  2  0  0  0  0
 39 69  1  0  0  0  0
 39 75  1  0  0  0  0
 39 82  2  0  0  0  0
 40 44  1  0  0  0  0
 41 45  1  0  0  0  0
 42 54  1  0  0  0  0
 43 68  1  0  0  0  0
 44 47  1  0  0  0  0
 45 48  1  0  0  0  0
 46 49  1  0  0  0  0
 46 50  1  0  0  0  0
 47 52  1  0  0  0  0
 48 53  1  0  0  0  0
 49 55  1  0  0  0  0
 50 69  1  0  0  0  0
 51 55  1  0  0  0  0
 51 69  1  0  0  0  0
 52 72  1  0  0  0  0
 53 73  1  0  0  0  0
 54 68  1  0  0  0  0
 55 67  1  0  0  0  0
 56 64  1  0  0  0  0
 57 65  1  0  0  0  0
 58 65  1  0  0  0  0
 59 65  1  0  0  0  0
 60 76  1  0  0  0  0
 61 84  1  0  0  0  0
 62 75  1  0  0  0  0
 63 65  1  0  0  0  0
 63 74  1  0  0  0  0
 64 76  1  0  0  0  0
 66 67  1  0  0  0  0
M  CHG  1  76   1
M  ISO  4  39 100  61 101  75 100  84 101
M  END
> <Batch ID>
0133

> <Smiles>
CNC(C)C(=O)NC(C(=O)N1Cc2cc([101O:1][101CH2:1]c3ccc4c(c3)C(NC(=O)C[100NH:0][100C:0](=O)N3CCCC(n5nc(-c6ccc(Oc7ccc(F)cc7F)cc6)c(C(N)=O)c5N)C3)CCC4)ccc2CC1C(=O)NC1CCCc2ccccc21)C(C)(C)C

> <Shape>
0.208

> <Color>
0.080

> <Negative vol penalty>
0.000

$$$$

  -OEChem-04052320553D

 84 93  0     1  0  0  0  0  0999 V2000
  -23.0277   -6.1691   23.3897 C   0  0  0  0  0  0  0  0  0  0  0  0
  -24.3485   -6.5935   23.4940 C   0  0  0  0  0  0  0  0  0  0  0  0
  -24.9592  -30.9977   21.0658 C   0  0  0  0  0  0  0  0  0  0  0  0
  -25.0527  -29.6592   23.0749 C   0  0  0  0  0  0  0  0  0  0  0  0
  -22.1571   -6.8128   22.5114 C   0  0  0  0  0  0  0  0  0  0  0  0
  -24.7997   -7.6614   22.7190 C   0  0  0  0  0  0  0  0  0  0  0  0
  -29.3901  -13.1572   22.9189 C   0  0  0  0  0  0  0  0  0  0  0  0
  -24.4334  -32.0615   21.7989 C   0  0  0  0  0  0  0  0  0  0  0  0
  -24.5269  -30.7230   23.8081 C   0  0  0  0  0  0  0  0  0  0  0  0
  -30.4284  -13.7208   22.1786 C   0  0  0  0  0  0  0  0  0  0  0  0
  -25.5867  -34.4614   23.8830 C   0  0  0  0  0  0  0  0  0  0  0  0
  -26.1182  -35.7308   23.6556 C   0  0  0  0  0  0  0  0  0  0  0  0
  -28.8139  -14.8080   20.7535 C   0  0  0  0  0  0  0  0  0  0  0  0
  -23.9379  -36.5228   22.9803 C   0  0  0  0  0  0  0  0  0  0  0  0
  -25.2688  -29.7965   21.7038 C   0  0  0  0  0  0  0  0  0  0  0  0
  -27.1702  -28.4228   20.7012 C   0  0  0  0  0  0  0  0  0  0  0  0
  -22.5953   -7.8953   21.7323 C   0  0  0  0  0  0  0  0  0  0  0  0
  -28.0537  -13.4064   22.5749 C   0  0  0  0  0  0  0  0  0  0  0  0
  -23.9344   -8.3193   21.8284 C   0  0  0  0  0  0  0  0  0  0  0  0
  -27.7606  -14.2484   21.4927 C   0  0  0  0  0  0  0  0  0  0  0  0
  -24.2173  -31.9242   23.1701 C   0  0  0  0  0  0  0  0  0  0  0  0
  -30.1404  -14.5440   21.0939 C   0  0  0  0  0  0  0  0  0  0  0  0
  -24.2308  -34.2227   23.6589 C   0  0  0  0  0  0  0  0  0  0  0  0
  -25.2939  -36.7615   23.2043 C   0  0  0  0  0  0  0  0  0  0  0  0
  -23.4064  -35.2534   23.2076 C   0  0  0  0  0  0  0  0  0  0  0  0
  -25.8114  -28.6971   20.9469 C   0  0  0  0  0  0  0  0  0  0  0  0
  -27.1575  -27.2791   19.9408 C   0  0  0  0  0  0  0  0  0  0  0  0
  -28.3392  -29.1378   21.1227 C   0  0  0  0  0  0  0  0  0  0  0  0
  -25.6067  -11.6085   21.6350 C   0  0  0  0  0  0  0  0  0  0  0  0
  -23.9614  -14.3905   21.9103 C   0  0  0  0  0  0  0  0  0  0  0  0
  -24.0231  -17.8026   21.9365 C   0  0  0  0  0  0  0  0  0  0  0  0
  -25.2290  -22.1459   18.9032 C   0  0  0  0  0  0  0  0  0  0  0  0
  -21.6300   -8.5293   20.7623 C   0  0  0  0  0  0  0  0  0  0  0  0
  -26.9452  -12.8123   23.4000 C   0  0  0  0  0  0  0  0  0  0  0  0
  -26.3426  -14.5637   21.0947 C   0  0  0  0  0  0  0  0  0  0  0  0
  -22.0874   -9.8932   20.2516 C   0  0  0  0  0  0  0  0  0  0  0  0
  -23.3310  -24.8875   17.6550 C   0  0  0  0  0  0  0  0  0  0  0  0
  -23.5534   -9.8423   19.8331 C   0  0  0  0  0  0  0  0  0  0  0  0
  -29.3201  -19.8241   18.4737 C   0  0  0  0  0  0  0  0  0  0  0  0
  -23.9149  -26.0987   18.3843 C   0  0  0  0  0  0  0  0  0  0  0  0
  -28.1728  -20.7762   18.1204 C   0  0  0  0  0  0  0  0  0  0  0  0
  -33.5698  -18.8775   20.4156 C   0  0  0  0  0  0  0  0  0  0  0  0
  -28.1810  -20.4952   20.5000 C   0  0  0  0  0  0  0  0  0  0  0  0
  -23.2941  -23.6523   18.5522 C   0  0  0  0  0  0  0  0  0  0  0  0
  -34.8530  -18.0552   20.5173 C   0  0  0  0  0  0  0  0  0  0  0  0
  -25.1681  -24.5108   19.9031 C   0  0  0  0  0  0  0  0  0  0  0  0
  -24.4547   -9.4899   21.0226 C   0  0  1  0  0  0  0  0  0  0  0  0
  -25.6224  -12.7203   22.6457 C   0  0  1  0  0  0  0  0  0  0  0  0
  -29.1024  -19.4145   19.9361 C   0  0  2  0  0  0  0  0  0  0  0  0
  -25.2777  -25.7665   19.0212 C   0  0  2  0  0  0  0  0  0  0  0  0
  -27.2430  -20.7602   19.3306 C   0  0  1  0  0  0  0  0  0  0  0  0
  -32.4778  -17.8972   20.8060 C   0  0  2  0  0  0  0  0  0  0  0  0
  -33.0530  -16.5507   20.4030 C   0  0  2  0  0  0  0  0  0  0  0  0
  -22.5161  -19.7985   22.1432 C   0  0  0  0  0  0  0  0  0  0  0  0
  -23.0108  -13.9668   19.0420 C   0  0  0  0  0  0  0  0  0  0  0  0
  -22.3284  -16.3750   18.9863 C   0  0  0  0  0  0  0  0  0  0  0  0
  -21.2549  -14.8135   20.6086 C   0  0  0  0  0  0  0  0  0  0  0  0
  -25.4071  -18.7399   24.3788 C   0  0  0  0  0  0  0  0  0  0  0  0
  -30.3918  -19.2680   20.7141 C   0  0  0  0  0  0  0  0  0  0  0  0
  -32.3704  -15.3696   21.0591 C   0  0  0  0  0  0  0  0  0  1  0  0
  -23.6462  -15.5421   20.9864 C   0  0  1  0  0  0  0  0  0  0  0  0
  -23.4061  -18.8140   22.8856 C   0  0  2  0  0  0  0  0  0  0  0  0
  -22.5869  -15.1671   19.9119 C   0  0  0  0  0  0  0  0  0  0  0  0
  -24.9950  -27.8000   20.3878 N   0  0  0  0  0  0  0  0  0  0  0  0
  -25.8431  -26.9508   19.7831 N   0  0  0  0  0  0  0  0  0  0  0  0
  -34.4384  -16.6923   20.8643 N   0  0  0  0  0  0  0  0  0  0  0  0
  -25.2936  -13.9539   21.9286 N   0  0  0  0  0  0  0  0  0  0  0  0
  -24.6175  -23.3911   19.1233 N   0  0  0  0  0  0  0  0  0  0  0  0
  -28.1426  -26.5322   19.3983 N   0  0  0  0  0  0  0  0  0  0  0  0
  -28.1724  -30.2928   21.8990 N   0  0  0  0  0  0  0  0  0  0  0  0
  -24.6446  -10.6456   21.8728 N   0  0  0  0  0  0  0  0  0  0  0  0
  -23.2596  -16.6583   21.8426 N   0  0  0  0  0  0  0  0  0  0  0  0
  -26.4853  -21.9833   19.4742 N   0  0  0  0  0  0  0  0  0  0  0  0
  -31.2190  -18.1910   20.0960 N   0  3  0  0  0  0  0  0  0  0  0  0
  -24.4723  -19.5820   23.5887 N   0  3  0  0  0  0  0  0  0  0  0  0
  -29.4969  -28.7729   20.8061 O   0  0  0  0  0  0  0  0  0  0  0  0
  -26.4072  -11.6241   20.7072 O   0  0  0  0  0  0  0  0  0  0  0  0
  -23.0602  -13.9012   22.5959 O   0  0  0  0  0  0  0  0  0  0  0  0
  -25.0750  -18.0087   21.3353 O   0  0  0  0  0  0  0  0  0  0  0  0
  -24.6972  -21.2476   18.2419 O   0  0  0  0  0  0  0  0  0  0  0  0
  -23.7044  -32.9621   23.8859 O   0  0  0  0  0  0  0  0  0  0  0  0
  -31.1519  -15.0949   20.3692 O   0  0  0  0  0  0  0  0  0  1  0  0
  -25.8041  -37.9809   22.9875 F   0  0  0  0  0  0  0  0  0  0  0  0
  -22.1028  -35.0303   22.9917 F   0  0  0  0  0  0  0  0  0  0  0  0
  1  2  1  0  0  0  0
  1  5  2  0  0  0  0
  2  6  2  0  0  0  0
  3  8  2  0  0  0  0
  3 15  1  0  0  0  0
  4  9  1  0  0  0  0
  4 15  2  0  0  0  0
  5 17  1  0  0  0  0
  6 19  1  0  0  0  0
  7 10  2  0  0  0  0
  7 18  1  0  0  0  0
  8 21  1  0  0  0  0
  9 21  2  0  0  0  0
 10 22  1  0  0  0  0
 11 12  2  0  0  0  0
 11 23  1  0  0  0  0
 12 24  1  0  0  0  0
 13 20  1  0  0  0  0
 13 22  2  0  0  0  0
 14 24  2  0  0  0  0
 14 25  1  0  0  0  0
 15 26  1  0  0  0  0
 16 26  1  0  0  0  0
 16 27  2  0  0  0  0
 16 28  1  0  0  0  0
 17 19  2  0  0  0  0
 17 33  1  0  0  0  0
 18 20  2  0  0  0  0
 18 34  1  0  0  0  0
 19 47  1  0  0  0  0
 20 35  1  0  0  0  0
 21 81  1  0  0  0  0
 22 82  1  0  0  0  0
 23 25  2  0  0  0  0
 23 81  1  0  0  0  0
 24 83  1  0  0  0  0
 25 84  1  0  0  0  0
 26 64  2  0  0  0  0
 27 65  1  0  0  0  0
 27 69  1  0  0  0  0
 28 70  1  0  0  0  0
 28 76  2  0  0  0  0
 29 48  1  0  0  0  0
 29 71  1  0  0  0  0
 29 77  2  0  0  0  0
 30 61  1  0  0  0  0
 30 67  1  0  0  0  0
 30 78  2  0  0  0  0
 31 62  1  0  0  0  0
 31 72  1  0  0  0  0
 31 79  2  0  0  0  0
 32 68  1  0  0  0  0
 32 73  1  0  0  0  0
 32 80  2  0  0  0  0
 33 36  1  0  0  0  0
 34 48  1  0  0  0  0
 35 67  1  0  0  0  0
 36 38  1  0  0  0  0
 37 40  1  0  0  0  0
 37 44  1  0  0  0  0
 38 47  1  0  0  0  0
 39 41  1  0  0  0  0
 39 49  1  0  0  0  0
 40 50  1  0  0  0  0
 41 51  1  0  0  0  0
 42 45  1  0  0  0  0
 42 52  1  0  0  0  0
 43 49  1  0  0  0  0
 43 51  1  0  0  0  0
 44 68  1  0  0  0  0
 45 66  1  0  0  0  0
 46 50  1  0  0  0  0
 46 68  1  0  0  0  0
 47 71  1  0  0  0  0
 48 67  1  0  0  0  0
 49 59  1  0  0  0  0
 50 65  1  0  0  0  0
 51 73  1  0  0  0  0
 52 53  1  0  0  0  0
 52 74  1  0  0  0  0
 53 60  1  0  0  0  0
 53 66  1  0  0  0  0
 54 62  1  0  0  0  0
 55 63  1  0  0  0  0
 56 63  1  0  0  0  0
 57 63  1  0  0  0  0
 58 75  1  0  0  0  0
 59 74  1  0  0  0  0
 60 82  1  0  0  0  0
 61 63  1  0  0  0  0
 61 72  1  0  0  0  0
 62 75  1  0  0  0  0
 64 65  1  0  0  0  0
M  CHG  2  74   1  75   1
M  ISO  4  32 100  60 101  73 100  82 101
M  END
> <Batch ID>
0133

> <Smiles>
CNC(C)C(=O)NC(C(=O)N1Cc2cc([101O:1][101CH2:1]C3NCCC3NCC3CCC([100NH:0][100C:0](=O)N4CCCC(n5nc(-c6ccc(Oc7ccc(F)cc7F)cc6)c(C(N)=O)c5N)C4)C3)ccc2CC1C(=O)NC1CCCc2ccccc21)C(C)(C)C

> <Shape>
0.261

> <Color>
0.075

> <Negative vol penalty>
0.000

$$$$

  -OEChem-04052320553D

 83 92  0     1  0  0  0  0  0999 V2000
  -30.1165  -36.2410   24.6279 C   0  0  0  0  0  0  0  0  0  0  0  0
  -30.4292  -34.8986   24.4394 C   0  0  0  0  0  0  0  0  0  0  0  0
  -22.5122  -10.2648   20.9372 C   0  0  0  0  0  0  0  0  0  0  0  0
  -24.4934   -9.0068   21.5112 C   0  0  0  0  0  0  0  0  0  0  0  0
  -28.8458  -36.6039   25.0722 C   0  0  0  0  0  0  0  0  0  0  0  0
  -29.4715  -33.9181   24.6961 C   0  0  0  0  0  0  0  0  0  0  0  0
  -27.3695  -29.3474   19.5404 C   0  0  0  0  0  0  0  0  0  0  0  0
  -21.7556   -9.4633   21.7920 C   0  0  0  0  0  0  0  0  0  0  0  0
  -23.7368   -8.2053   22.3661 C   0  0  0  0  0  0  0  0  0  0  0  0
  -27.0694  -28.3021   18.6666 C   0  0  0  0  0  0  0  0  0  0  0  0
  -21.6096   -5.5912   22.0973 C   0  0  0  0  0  0  0  0  0  0  0  0
  -21.8136   -4.2125   22.0425 C   0  0  0  0  0  0  0  0  0  0  0  0
  -25.5002  -27.3985   20.2694 C   0  0  0  0  0  0  0  0  0  0  0  0
  -22.4656   -4.2165   24.3689 C   0  0  0  0  0  0  0  0  0  0  0  0
  -23.8812  -10.0366   20.7968 C   0  0  0  0  0  0  0  0  0  0  0  0
  -24.4871  -11.0302   18.5267 C   0  0  0  0  0  0  0  0  0  0  0  0
  -27.8690  -35.6280   25.3253 C   0  0  0  0  0  0  0  0  0  0  0  0
  -26.7239  -29.4308   20.7772 C   0  0  0  0  0  0  0  0  0  0  0  0
  -28.1869  -34.2682   25.1455 C   0  0  0  0  0  0  0  0  0  0  0  0
  -25.7875  -28.4501   21.1436 C   0  0  0  0  0  0  0  0  0  0  0  0
  -22.3679   -8.4335   22.5064 C   0  0  0  0  0  0  0  0  0  0  0  0
  -26.1373  -27.3300   19.0303 C   0  0  0  0  0  0  0  0  0  0  0  0
  -21.8337   -6.2827   23.2878 C   0  0  0  0  0  0  0  0  0  0  0  0
  -22.2415   -3.5251   23.1783 C   0  0  0  0  0  0  0  0  0  0  0  0
  -22.2617   -5.5953   24.4236 C   0  0  0  0  0  0  0  0  0  0  0  0
  -24.6632  -10.8638   19.9135 C   0  0  0  0  0  0  0  0  0  0  0  0
  -25.4756  -11.9098   18.1582 C   0  0  0  0  0  0  0  0  0  0  0  0
  -23.5167  -10.4424   17.6501 C   0  0  0  0  0  0  0  0  0  0  0  0
  -26.2863  -31.3175   23.9904 C   0  0  0  0  0  0  0  0  0  0  0  0
  -23.4955  -30.3970   23.1104 C   0  0  0  0  0  0  0  0  0  0  0  0
  -20.5638  -29.5620   21.5790 C   0  0  0  0  0  0  0  0  0  0  0  0
  -28.5193  -16.1096   21.1495 C   0  0  0  0  0  0  0  0  0  0  0  0
  -26.5242  -36.0657   25.8494 C   0  0  0  0  0  0  0  0  0  0  0  0
  -27.0610  -30.5049   21.7754 C   0  0  0  0  0  0  0  0  0  0  0  0
  -25.1433  -28.5610   22.4985 C   0  0  0  0  0  0  0  0  0  0  0  0
  -25.4479  -34.9888   25.7399 C   0  0  0  0  0  0  0  0  0  0  0  0
  -29.8760  -13.3276   19.3898 C   0  0  0  0  0  0  0  0  0  0  0  0
  -25.9805  -33.6490   26.2382 C   0  0  0  0  0  0  0  0  0  0  0  0
  -24.8257  -22.6985   18.1557 C   0  0  0  0  0  0  0  0  0  0  0  0
  -26.2692  -23.1565   20.1812 C   0  0  0  0  0  0  0  0  0  0  0  0
  -28.6780  -12.3957   19.1994 C   0  0  0  0  0  0  0  0  0  0  0  0
  -25.4902  -19.7059   18.5701 C   0  0  0  0  0  0  0  0  0  0  0  0
  -25.1435  -24.0909   17.6190 C   0  0  0  0  0  0  0  0  0  0  0  0
  -26.5824  -24.5480   19.6392 C   0  0  0  0  0  0  0  0  0  0  0  0
  -25.7773  -18.4514   19.3746 C   0  0  0  0  0  0  0  0  0  0  0  0
  -29.8245  -14.0450   20.7370 C   0  0  0  0  0  0  0  0  0  0  0  0
  -27.3700  -13.8373   20.8148 C   0  0  0  0  0  0  0  0  0  0  0  0
  -27.1672  -33.1770   25.3895 C   0  0  1  0  0  0  0  0  0  0  0  0
  -25.8456  -30.9654   22.6000 C   0  0  1  0  0  0  0  0  0  0  0  0
  -25.9537  -22.1670   19.0509 C   0  0  0  0  0  0  0  0  0  0  0  0
  -27.3486  -13.1337   19.4470 C   0  0  2  0  0  0  0  0  0  0  0  0
  -25.5933  -20.8077   19.6151 C   0  0  2  0  0  0  0  0  0  0  0  0
  -25.4599  -25.0711   18.7454 C   0  0  0  0  0  0  0  0  0  1  0  0
  -26.9511  -18.8721   20.2475 C   0  0  2  0  0  0  0  0  0  0  0  0
  -18.0764  -29.6761   21.8908 C   0  0  0  0  0  0  0  0  0  0  0  0
  -23.6450  -28.1009   25.1127 C   0  0  0  0  0  0  0  0  0  0  0  0
  -21.2259  -27.6419   24.6593 C   0  0  0  0  0  0  0  0  0  0  0  0
  -21.9165  -29.8309   25.6359 C   0  0  0  0  0  0  0  0  0  0  0  0
  -20.2186  -31.2174   19.1501 C   0  0  0  0  0  0  0  0  0  0  0  0
  -27.0759  -18.0904   21.5396 C   0  0  0  0  0  0  0  0  0  0  0  0
  -22.4224  -29.3424   23.2075 C   0  0  1  0  0  0  0  0  0  0  0  0
  -19.3029  -30.3638   21.3115 C   0  0  2  0  0  0  0  0  0  0  0  0
  -22.3214  -28.7290   24.6326 C   0  0  0  0  0  0  0  0  0  0  0  0
  -25.6834  -11.5800   20.3934 N   0  0  0  0  0  0  0  0  0  0  0  0
  -26.1573  -12.2050   19.3020 N   0  0  0  0  0  0  0  0  0  0  0  0
  -24.7817  -29.9612   22.7697 N   0  0  0  0  0  0  0  0  0  0  0  0
  -28.5389  -14.7259   20.9088 N   0  0  0  0  0  0  0  0  0  0  0  0
  -25.8195  -12.4517   16.9706 N   0  0  0  0  0  0  0  0  0  0  0  0
  -23.8268   -9.2236   17.0314 N   0  0  0  0  0  0  0  0  0  0  0  0
  -26.7034  -32.6271   24.1337 N   0  0  0  0  0  0  0  0  0  0  0  0
  -21.1912  -29.9683   22.7377 N   0  0  0  0  0  0  0  0  0  0  0  0
  -27.2593  -16.6773   21.2940 N   0  0  0  0  0  0  0  0  0  0  0  0
  -26.6800  -20.3261   20.5440 N   0  3  0  0  0  0  0  0  0  0  0  0
  -19.0980  -30.5331   19.8451 N   0  3  0  0  0  0  0  0  0  0  0  0
  -22.4142  -10.9901   17.4093 O   0  0  0  0  0  0  0  0  0  0  0  0
  -26.2497  -30.4650   24.8700 O   0  0  0  0  0  0  0  0  0  0  0  0
  -23.2053  -31.5753   23.3357 O   0  0  0  0  0  0  0  0  0  0  0  0
  -20.9514  -28.6626   20.8365 O   0  0  0  0  0  0  0  0  0  0  0  0
  -29.5483  -16.7897   21.2245 O   0  0  0  0  0  0  0  0  0  0  0  0
  -21.6300   -7.6514   23.3408 O   0  0  0  0  0  0  0  0  0  0  0  0
  -25.8458  -26.3148   18.1706 O   0  0  0  0  0  0  0  0  0  1  0  0
  -22.4359   -2.2008   23.1259 F   0  0  0  0  0  0  0  0  0  0  0  0
  -22.4774   -6.2539   25.5705 F   0  0  0  0  0  0  0  0  0  0  0  0
  1  2  1  0  0  0  0
  1  5  2  0  0  0  0
  2  6  2  0  0  0  0
  3  8  2  0  0  0  0
  3 15  1  0  0  0  0
  4  9  1  0  0  0  0
  4 15  2  0  0  0  0
  5 17  1  0  0  0  0
  6 19  1  0  0  0  0
  7 10  2  0  0  0  0
  7 18  1  0  0  0  0
  8 21  1  0  0  0  0
  9 21  2  0  0  0  0
 10 22  1  0  0  0  0
 11 12  2  0  0  0  0
 11 23  1  0  0  0  0
 12 24  1  0  0  0  0
 13 20  1  0  0  0  0
 13 22  2  0  0  0  0
 14 24  2  0  0  0  0
 14 25  1  0  0  0  0
 15 26  1  0  0  0  0
 16 26  1  0  0  0  0
 16 27  2  0  0  0  0
 16 28  1  0  0  0  0
 17 19  2  0  0  0  0
 17 33  1  0  0  0  0
 18 20  2  0  0  0  0
 18 34  1  0  0  0  0
 19 48  1  0  0  0  0
 20 35  1  0  0  0  0
 21 80  1  0  0  0  0
 22 81  1  0  0  0  0
 23 25  2  0  0  0  0
 23 80  1  0  0  0  0
 24 82  1  0  0  0  0
 25 83  1  0  0  0  0
 26 64  2  0  0  0  0
 27 65  1  0  0  0  0
 27 68  1  0  0  0  0
 28 69  1  0  0  0  0
 28 75  2  0  0  0  0
 29 49  1  0  0  0  0
 29 70  1  0  0  0  0
 29 76  2  0  0  0  0
 30 61  1  0  0  0  0
 30 66  1  0  0  0  0
 30 77  2  0  0  0  0
 31 62  1  0  0  0  0
 31 71  1  0  0  0  0
 31 78  2  0  0  0  0
 32 67  1  0  0  0  0
 32 72  1  0  0  0  0
 32 79  2  0  0  0  0
 33 36  1  0  0  0  0
 34 49  1  0  0  0  0
 35 66  1  0  0  0  0
 36 38  1  0  0  0  0
 37 41  1  0  0  0  0
 37 46  1  0  0  0  0
 38 48  1  0  0  0  0
 39 43  1  0  0  0  0
 39 50  1  0  0  0  0
 40 44  1  0  0  0  0
 40 50  1  0  0  0  0
 41 51  1  0  0  0  0
 42 45  1  0  0  0  0
 42 52  1  0  0  0  0
 43 53  1  0  0  0  0
 44 53  1  0  0  0  0
 45 54  1  0  0  0  0
 46 67  1  0  0  0  0
 47 51  1  0  0  0  0
 47 67  1  0  0  0  0
 48 70  1  0  0  0  0
 49 66  1  0  0  0  0
 50 52  1  0  0  0  0
 51 65  1  0  0  0  0
 52 73  1  0  0  0  0
 53 81  1  0  0  0  0
 54 60  1  0  0  0  0
 54 73  1  0  0  0  0
 55 62  1  0  0  0  0
 56 63  1  0  0  0  0
 57 63  1  0  0  0  0
 58 63  1  0  0  0  0
 59 74  1  0  0  0  0
 60 72  1  0  0  0  0
 61 63  1  0  0  0  0
 61 71  1  0  0  0  0
 62 74  1  0  0  0  0
 64 65  1  0  0  0  0
M  CHG  2  73   1  74   1
M  ISO  4  32 100  53 101  72 100  81 101
M  END
> <Batch ID>
0133

> <Smiles>
CNC(C)C(=O)NC(C(=O)N1Cc2cc([101O:1][101CH:1]3CCC(C4CCC(C[100NH:0][100C:0](=O)N5CCCC(n6nc(-c7ccc(Oc8ccc(F)cc8F)cc7)c(C(N)=O)c6N)C5)N4)CC3)ccc2CC1C(=O)NC1CCCc2ccccc21)C(C)(C)C

> <Shape>
0.278

> <Color>
0.094

> <Negative vol penalty>
0.000

$$$$

  -OEChem-04052320553D

 86 95  0     1  0  0  0  0  0999 V2000
  -27.5257  -37.2137   24.0954 C   0  0  0  0  0  0  0  0  0  0  0  0
  -28.2008  -36.0350   23.7949 C   0  0  0  0  0  0  0  0  0  0  0  0
  -23.1292   -9.7860   20.0027 C   0  0  0  0  0  0  0  0  0  0  0  0
  -23.6697  -10.0460   22.3431 C   0  0  0  0  0  0  0  0  0  0  0  0
  -26.1792  -37.1723   24.4547 C   0  0  0  0  0  0  0  0  0  0  0  0
  -27.5300  -34.8140   23.8547 C   0  0  0  0  0  0  0  0  0  0  0  0
  -27.3614  -28.3774   20.7149 C   0  0  0  0  0  0  0  0  0  0  0  0
  -28.1528  -22.3944   23.0325 C   0  0  0  0  0  0  0  0  0  0  0  0
  -26.5178  -22.1431   21.2717 C   0  0  0  0  0  0  0  0  0  0  0  0
  -28.0123  -21.0448   23.3556 C   0  0  0  0  0  0  0  0  0  0  0  0
  -26.3773  -20.7935   21.5947 C   0  0  0  0  0  0  0  0  0  0  0  0
  -22.3816   -8.6471   20.3018 C   0  0  0  0  0  0  0  0  0  0  0  0
  -22.9220   -8.9071   22.6422 C   0  0  0  0  0  0  0  0  0  0  0  0
  -27.4075  -27.0213   21.0352 C   0  0  0  0  0  0  0  0  0  0  0  0
  -23.3113   -5.5534   22.4633 C   0  0  0  0  0  0  0  0  0  0  0  0
  -23.8710   -4.6220   23.3378 C   0  0  0  0  0  0  0  0  0  0  0  0
  -25.0608  -27.0790   21.5910 C   0  0  0  0  0  0  0  0  0  0  0  0
  -22.0142   -4.9288   24.8529 C   0  0  0  0  0  0  0  0  0  0  0  0
  -23.7733  -10.4855   21.0233 C   0  0  0  0  0  0  0  0  0  0  0  0
  -24.0890  -12.9925   20.6728 C   0  0  0  0  0  0  0  0  0  0  0  0
  -25.4890  -35.9511   24.5095 C   0  0  0  0  0  0  0  0  0  0  0  0
  -26.1652  -29.0983   20.8409 C   0  0  0  0  0  0  0  0  0  0  0  0
  -26.1733  -34.7561   24.2163 C   0  0  0  0  0  0  0  0  0  0  0  0
  -25.0016  -28.4436   21.2693 C   0  0  0  0  0  0  0  0  0  0  0  0
  -27.4055  -22.9436   21.9906 C   0  0  0  0  0  0  0  0  0  0  0  0
  -27.1246  -20.2443   22.6367 C   0  0  0  0  0  0  0  0  0  0  0  0
  -22.2779   -8.2076   21.6216 C   0  0  0  0  0  0  0  0  0  0  0  0
  -26.2578  -26.3725   21.4760 C   0  0  0  0  0  0  0  0  0  0  0  0
  -22.1031   -6.1726   22.7836 C   0  0  0  0  0  0  0  0  0  0  0  0
  -23.2224   -4.3096   24.5326 C   0  0  0  0  0  0  0  0  0  0  0  0
  -21.4545   -5.8602   23.9783 C   0  0  0  0  0  0  0  0  0  0  0  0
  -24.5462  -11.6617   20.7148 C   0  0  0  0  0  0  0  0  0  0  0  0
  -25.1997  -13.7267   20.3356 C   0  0  0  0  0  0  0  0  0  0  0  0
  -22.7775  -13.5180   20.9169 C   0  0  0  0  0  0  0  0  0  0  0  0
  -25.2169  -31.5842   22.5800 C   0  0  0  0  0  0  0  0  0  0  0  0
  -22.5306  -31.3218   20.7807 C   0  0  0  0  0  0  0  0  0  0  0  0
  -20.5064  -29.3501   18.8672 C   0  0  0  0  0  0  0  0  0  0  0  0
  -30.5205  -14.9503   20.7392 C   0  0  0  0  0  0  0  0  0  0  0  0
  -24.0462  -35.9518   24.9489 C   0  0  0  0  0  0  0  0  0  0  0  0
  -26.1258  -30.5544   20.4659 C   0  0  0  0  0  0  0  0  0  0  0  0
  -23.6876  -29.1676   21.4022 C   0  0  0  0  0  0  0  0  0  0  0  0
  -23.3102  -34.6543   24.6247 C   0  0  0  0  0  0  0  0  0  0  0  0
  -29.7500  -12.2717   18.6935 C   0  0  0  0  0  0  0  0  0  0  0  0
  -24.1534  -33.4478   25.0250 C   0  0  0  0  0  0  0  0  0  0  0  0
  -28.2876  -11.9726   19.0227 C   0  0  0  0  0  0  0  0  0  0  0  0
  -28.7469  -18.1531   21.3077 C   0  0  0  0  0  0  0  0  0  0  0  0
  -28.1466  -16.5472   23.1542 C   0  0  0  0  0  0  0  0  0  0  0  0
  -30.5376  -12.6008   19.9565 C   0  0  0  0  0  0  0  0  0  0  0  0
  -30.0151  -17.3463   21.0436 C   0  0  0  0  0  0  0  0  0  0  0  0
  -29.4280  -15.7744   22.8592 C   0  0  0  0  0  0  0  0  0  0  0  0
  -28.5056  -13.4506   21.0810 C   0  0  0  0  0  0  0  0  0  0  0  0
  -25.4737  -33.4145   24.2458 C   0  0  1  0  0  0  0  0  0  0  0  0
  -24.9745  -31.3096   21.1228 C   0  0  1  0  0  0  0  0  0  0  0  0
  -28.2862  -18.0252   22.7655 C   0  0  0  0  0  0  0  0  0  0  0  0
  -27.6589  -13.1180   19.8360 C   0  0  2  0  0  0  0  0  0  0  0  0
  -25.1044  -19.1914   24.6931 C   0  0  0  0  0  0  0  0  0  0  0  0
  -18.3630  -29.4063   17.5633 C   0  0  0  0  0  0  0  0  0  0  0  0
  -20.9459  -31.2212   23.3862 C   0  0  0  0  0  0  0  0  0  0  0  0
  -18.9970  -30.3390   22.0855 C   0  0  0  0  0  0  0  0  0  0  0  0
  -19.9042  -32.6080   21.5845 C   0  0  0  0  0  0  0  0  0  0  0  0
  -21.8920  -28.6841   16.3382 C   0  0  0  0  0  0  0  0  0  0  0  0
  -27.5551  -24.3865   21.6445 C   0  0  0  0  0  0  0  0  0  1  0  0
  -26.4602  -18.5480   24.4283 C   0  0  0  0  0  0  0  0  0  0  0  0
  -26.9733  -18.7719   22.9886 C   0  0  1  0  0  0  0  0  0  0  0  0
  -21.2302  -30.5653   20.9053 C   0  0  1  0  0  0  0  0  0  0  0  0
  -19.8731  -29.5774   17.5064 C   0  0  2  0  0  0  0  0  0  0  0  0
  -20.2944  -31.1699   21.9898 C   0  0  0  0  0  0  0  0  0  0  0  0
  -25.8461  -11.5538   20.4272 N   0  0  0  0  0  0  0  0  0  0  0  0
  -26.2151  -12.8261   20.2011 N   0  0  0  0  0  0  0  0  0  0  0  0
  -23.7015  -30.5918   21.0296 N   0  0  0  0  0  0  0  0  0  0  0  0
  -29.9064  -13.6893   20.7024 N   0  0  0  0  0  0  0  0  0  0  0  0
  -29.8627  -15.9552   21.4677 N   0  0  0  0  0  0  0  0  0  0  0  0
  -25.3971  -15.0483   20.1440 N   0  0  0  0  0  0  0  0  0  0  0  0
  -21.7514  -12.6242   21.2524 N   0  0  0  0  0  0  0  0  0  0  0  0
  -25.2546  -32.9278   22.9006 N   0  0  0  0  0  0  0  0  0  0  0  0
  -20.6492  -30.5292   19.5675 N   0  0  0  0  0  0  0  0  0  0  0  0
  -20.4186  -28.6097   16.5130 N   0  3  0  0  0  0  0  0  0  0  0  0
  -22.5195  -14.7420   20.8237 O   0  0  0  0  0  0  0  0  0  0  0  0
  -25.3579  -30.6466   23.3563 O   0  0  0  0  0  0  0  0  0  0  0  0
  -22.5088  -32.5146   20.4670 O   0  0  0  0  0  0  0  0  0  0  0  0
  -20.8377  -28.2372   19.2702 O   0  0  0  0  0  0  0  0  0  0  0  0
  -31.5887  -15.1691   20.1542 O   0  0  0  0  0  0  0  0  0  0  0  0
  -21.5483   -7.0965   21.9139 O   0  0  0  0  0  0  0  0  0  0  0  0
  -26.3004  -25.0400   21.7921 O   0  0  0  0  0  0  0  0  0  1  0  0
  -23.7593   -3.4140   25.3716 F   0  0  0  0  0  0  0  0  0  0  0  0
  -20.2930   -6.4509   24.2909 F   0  0  0  0  0  0  0  0  0  0  0  0
  1  2  1  0  0  0  0
  1  5  2  0  0  0  0
  2  6  2  0  0  0  0
  3 12  2  0  0  0  0
  3 19  1  0  0  0  0
  4 13  1  0  0  0  0
  4 19  2  0  0  0  0
  5 21  1  0  0  0  0
  6 23  1  0  0  0  0
  7 14  2  0  0  0  0
  7 22  1  0  0  0  0
  8 10  2  0  0  0  0
  8 25  1  0  0  0  0
  9 11  1  0  0  0  0
  9 25  2  0  0  0  0
 10 26  1  0  0  0  0
 11 26  2  0  0  0  0
 12 27  1  0  0  0  0
 13 27  2  0  0  0  0
 14 28  1  0  0  0  0
 15 16  2  0  0  0  0
 15 29  1  0  0  0  0
 16 30  1  0  0  0  0
 17 24  1  0  0  0  0
 17 28  2  0  0  0  0
 18 30  2  0  0  0  0
 18 31  1  0  0  0  0
 19 32  1  0  0  0  0
 20 32  1  0  0  0  0
 20 33  2  0  0  0  0
 20 34  1  0  0  0  0
 21 23  2  0  0  0  0
 21 39  1  0  0  0  0
 22 24  2  0  0  0  0
 22 40  1  0  0  0  0
 23 52  1  0  0  0  0
 24 41  1  0  0  0  0
 25 62  1  0  0  0  0
 26 64  1  0  0  0  0
 27 83  1  0  0  0  0
 28 84  1  0  0  0  0
 29 31  2  0  0  0  0
 29 83  1  0  0  0  0
 30 85  1  0  0  0  0
 31 86  1  0  0  0  0
 32 68  2  0  0  0  0
 33 69  1  0  0  0  0
 33 73  1  0  0  0  0
 34 74  1  0  0  0  0
 34 78  2  0  0  0  0
 35 53  1  0  0  0  0
 35 75  1  0  0  0  0
 35 79  2  0  0  0  0
 36 65  1  0  0  0  0
 36 70  1  0  0  0  0
 36 80  2  0  0  0  0
 37 66  1  0  0  0  0
 37 76  1  0  0  0  0
 37 81  2  0  0  0  0
 38 71  1  0  0  0  0
 38 72  1  0  0  0  0
 38 82  2  0  0  0  0
 39 42  1  0  0  0  0
 40 53  1  0  0  0  0
 41 70  1  0  0  0  0
 42 44  1  0  0  0  0
 43 45  1  0  0  0  0
 43 48  1  0  0  0  0
 44 52  1  0  0  0  0
 45 55  1  0  0  0  0
 46 49  1  0  0  0  0
 46 54  1  0  0  0  0
 47 50  1  0  0  0  0
 47 54  1  0  0  0  0
 48 71  1  0  0  0  0
 49 72  1  0  0  0  0
 50 72  1  0  0  0  0
 51 55  1  0  0  0  0
 51 71  1  0  0  0  0
 52 75  1  0  0  0  0
 53 70  1  0  0  0  0
 54 64  1  0  0  0  0
 55 69  1  0  0  0  0
 56 63  1  0  0  0  0
 57 66  1  0  0  0  0
 58 67  1  0  0  0  0
 59 67  1  0  0  0  0
 60 67  1  0  0  0  0
 61 77  1  0  0  0  0
 62 84  1  0  0  0  0
 63 64  1  0  0  0  0
 65 67  1  0  0  0  0
 65 76  1  0  0  0  0
 66 77  1  0  0  0  0
 68 69  1  0  0  0  0
M  CHG  1  77   1
M  ISO  4  38 100  62 101  72 100  84 101
M  END
> <Batch ID>
0133

> <Smiles>
CCC(c1ccc([101CH2:1][101O:1]c2ccc3c(c2)CN(C(=O)C(NC(=O)C(C)NC)C(C)(C)C)C(C(=O)NC2CCCc4ccccc42)C3)cc1)C1CC[100N:0]([100C:0](=O)N2CCCC(n3nc(-c4ccc(Oc5ccc(F)cc5F)cc4)c(C(N)=O)c3N)C2)CC1

> <Shape>
0.331

> <Color>
0.225

> <Negative vol penalty>
0.000

$$$$

  -OEChem-04052320553D

 85 93  0     1  0  0  0  0  0999 V2000
  -17.2055  -25.5803   22.7937 C   0  0  0  0  0  0  0  0  0  0  0  0
  -18.5244  -25.1875   22.5899 C   0  0  0  0  0  0  0  0  0  0  0  0
  -24.0061  -10.7115   23.3937 C   0  0  0  0  0  0  0  0  0  0  0  0
  -24.2268  -12.9067   24.3782 C   0  0  0  0  0  0  0  0  0  0  0  0
  -16.8375  -26.9109   22.5986 C   0  0  0  0  0  0  0  0  0  0  0  0
  -19.4760  -26.1250   22.1899 C   0  0  0  0  0  0  0  0  0  0  0  0
  -23.8130  -25.7139   24.7719 C   0  0  0  0  0  0  0  0  0  0  0  0
  -30.6121  -19.0059   22.4233 C   0  0  0  0  0  0  0  0  0  0  0  0
  -23.5254  -10.2162   24.6058 C   0  0  0  0  0  0  0  0  0  0  0  0
  -23.7461  -12.4115   25.5903 C   0  0  0  0  0  0  0  0  0  0  0  0
  -24.6797  -24.6867   24.4013 C   0  0  0  0  0  0  0  0  0  0  0  0
  -29.9145  -20.1375   22.8456 C   0  0  0  0  0  0  0  0  0  0  0  0
  -20.6131  -10.2317   26.3237 C   0  0  0  0  0  0  0  0  0  0  0  0
  -19.4927   -9.4017   26.2862 C   0  0  0  0  0  0  0  0  0  0  0  0
  -26.0054  -26.2653   23.1484 C   0  0  0  0  0  0  0  0  0  0  0  0
  -28.5552  -20.0441   20.8503 C   0  0  0  0  0  0  0  0  0  0  0  0
  -20.7759   -7.6238   27.3010 C   0  0  0  0  0  0  0  0  0  0  0  0
  -24.3569  -12.0568   23.2799 C   0  0  0  0  0  0  0  0  0  0  0  0
  -24.0991  -13.1176   20.9743 C   0  0  0  0  0  0  0  0  0  0  0  0
  -17.7871  -27.8671   22.2054 C   0  0  0  0  0  0  0  0  0  0  0  0
  -24.0302  -27.0248   24.3238 C   0  0  0  0  0  0  0  0  0  0  0  0
  -19.1202  -27.4693   21.9881 C   0  0  0  0  0  0  0  0  0  0  0  0
  -25.1414  -27.3079   23.5169 C   0  0  0  0  0  0  0  0  0  0  0  0
  -30.2814  -18.3934   21.2144 C   0  0  0  0  0  0  0  0  0  0  0  0
  -29.2530  -18.9125   20.4280 C   0  0  0  0  0  0  0  0  0  0  0  0
  -23.3954  -11.0662   25.7041 C   0  0  0  0  0  0  0  0  0  0  0  0
  -25.7745  -24.9618   23.5871 C   0  0  0  0  0  0  0  0  0  0  0  0
  -28.8860  -20.6566   22.0592 C   0  0  0  0  0  0  0  0  0  0  0  0
  -21.8149   -9.7578   26.8498 C   0  0  0  0  0  0  0  0  0  0  0  0
  -19.5741   -8.0978   26.7748 C   0  0  0  0  0  0  0  0  0  0  0  0
  -21.8963   -8.4539   27.3384 C   0  0  0  0  0  0  0  0  0  0  0  0
  -24.8540  -12.5688   22.0282 C   0  0  0  0  0  0  0  0  0  0  0  0
  -25.0309  -13.4518   20.0222 C   0  0  0  0  0  0  0  0  0  0  0  0
  -22.6822  -13.3083   20.8657 C   0  0  0  0  0  0  0  0  0  0  0  0
  -22.4013  -29.0805   22.5281 C   0  0  0  0  0  0  0  0  0  0  0  0
  -30.8925  -14.7167   20.4145 C   0  0  0  0  0  0  0  0  0  0  0  0
  -24.7796  -31.1131   23.3848 C   0  0  0  0  0  0  0  0  0  0  0  0
  -27.9946  -31.5246   24.4534 C   0  0  0  0  0  0  0  0  0  0  0  0
  -17.3323  -29.2842   21.9612 C   0  0  0  0  0  0  0  0  0  0  0  0
  -23.1011  -28.1265   24.7544 C   0  0  0  0  0  0  0  0  0  0  0  0
  -25.4304  -28.7021   23.0258 C   0  0  0  0  0  0  0  0  0  0  0  0
  -18.4790  -30.2900   21.9001 C   0  0  0  0  0  0  0  0  0  0  0  0
  -29.3419  -12.2001   18.3891 C   0  0  0  0  0  0  0  0  0  0  0  0
  -19.6040  -29.7637   21.0146 C   0  0  0  0  0  0  0  0  0  0  0  0
  -27.9569  -12.0389   19.0145 C   0  0  0  0  0  0  0  0  0  0  0  0
  -30.4012  -12.4950   19.4464 C   0  0  0  0  0  0  0  0  0  0  0  0
  -28.7069  -13.5210   20.9292 C   0  0  0  0  0  0  0  0  0  0  0  0
  -20.1865  -28.4618   21.5780 C   0  0  1  0  0  0  0  0  0  0  0  0
  -23.1286  -29.3312   23.8188 C   0  0  1  0  0  0  0  0  0  0  0  0
  -27.6021  -13.2524   19.8921 C   0  0  2  0  0  0  0  0  0  0  0  0
  -29.0969  -19.2159   17.9306 C   0  0  0  0  0  0  0  0  0  0  0  0
  -27.4364  -17.7448   19.1279 C   0  0  0  0  0  0  0  0  0  0  0  0
  -30.8173  -15.5662   22.7227 C   0  0  0  0  0  0  0  0  0  0  0  0
  -29.6669  -33.3053   25.0278 C   0  0  0  0  0  0  0  0  0  0  0  0
  -25.2044  -31.6689   20.4148 C   0  0  0  0  0  0  0  0  0  0  0  0
  -27.4278  -32.6655   20.9906 C   0  0  0  0  0  0  0  0  0  0  0  0
  -25.3354  -33.6890   21.8834 C   0  0  0  0  0  0  0  0  0  0  0  0
  -28.2314  -30.5651   27.2431 C   0  0  0  0  0  0  0  0  0  0  0  0
  -31.0426  -17.1831   20.7833 C   0  0  0  0  0  0  0  0  0  0  0  0
  -26.0678  -22.6508   23.1083 C   0  0  0  0  0  0  0  0  0  1  0  0
  -26.8438  -21.8752   22.0615 C   0  0  0  0  0  0  0  0  0  0  0  0
  -28.8821  -18.2744   19.1297 C   0  0  0  0  0  0  0  0  0  0  0  0
  -30.4249  -15.8605   21.2788 C   0  0  1  0  0  0  0  0  0  0  0  0
  -26.1302  -31.4781   22.8175 C   0  0  1  0  0  0  0  0  0  0  0  0
  -28.5865  -32.3772   25.5611 C   0  0  2  0  0  0  0  0  0  0  0  0
  -26.0182  -32.3487   21.5341 C   0  0  0  0  0  0  0  0  0  0  0  0
  -26.1644  -12.5533   21.7702 N   0  0  0  0  0  0  0  0  0  0  0  0
  -26.2402  -13.0964   20.5433 N   0  0  0  0  0  0  0  0  0  0  0  0
  -24.4893  -29.7440   23.4688 N   0  0  0  0  0  0  0  0  0  0  0  0
  -30.0166  -13.6402   20.2735 N   0  0  0  0  0  0  0  0  0  0  0  0
  -24.9256  -14.0120   18.7985 N   0  0  0  0  0  0  0  0  0  0  0  0
  -21.8703  -12.9090   21.9361 N   0  0  0  0  0  0  0  0  0  0  0  0
  -21.0709  -28.7428   22.6885 N   0  0  0  0  0  0  0  0  0  0  0  0
  -26.8726  -32.1081   23.9039 N   0  0  0  0  0  0  0  0  0  0  0  0
  -29.1882  -31.5124   26.6151 N   0  3  0  0  0  0  0  0  0  0  0  0
  -22.1503  -13.8025   19.8428 O   0  0  0  0  0  0  0  0  0  0  0  0
  -23.0021  -29.1870   21.4654 O   0  0  0  0  0  0  0  0  0  0  0  0
  -32.0022  -14.7811   19.8793 O   0  0  0  0  0  0  0  0  0  0  0  0
  -24.0135  -32.0096   23.7469 O   0  0  0  0  0  0  0  0  0  0  0  0
  -28.4811  -30.4503   24.1074 O   0  0  0  0  0  0  0  0  0  0  0  0
  -22.9261  -10.5833   26.8870 O   0  0  0  0  0  0  0  0  0  0  0  0
  -26.6217  -23.9608   23.2233 O   0  0  0  0  0  0  0  0  0  1  0  0
  -28.2010  -21.7684   22.4736 O   0  0  0  0  0  0  0  0  0  0  0  0
  -18.4977   -7.3013   26.7402 F   0  0  0  0  0  0  0  0  0  0  0  0
  -23.0478   -7.9933   27.8461 F   0  0  0  0  0  0  0  0  0  0  0  0
  1  2  1  0  0  0  0
  1  5  2  0  0  0  0
  2  6  2  0  0  0  0
  3  9  2  0  0  0  0
  3 18  1  0  0  0  0
  4 10  1  0  0  0  0
  4 18  2  0  0  0  0
  5 20  1  0  0  0  0
  6 22  1  0  0  0  0
  7 11  2  0  0  0  0
  7 21  1  0  0  0  0
  8 12  2  0  0  0  0
  8 24  1  0  0  0  0
  9 26  1  0  0  0  0
 10 26  2  0  0  0  0
 11 27  1  0  0  0  0
 12 28  1  0  0  0  0
 13 14  2  0  0  0  0
 13 29  1  0  0  0  0
 14 30  1  0  0  0  0
 15 23  1  0  0  0  0
 15 27  2  0  0  0  0
 16 25  1  0  0  0  0
 16 28  2  0  0  0  0
 17 30  2  0  0  0  0
 17 31  1  0  0  0  0
 18 32  1  0  0  0  0
 19 32  1  0  0  0  0
 19 33  2  0  0  0  0
 19 34  1  0  0  0  0
 20 22  2  0  0  0  0
 20 39  1  0  0  0  0
 21 23  2  0  0  0  0
 21 40  1  0  0  0  0
 22 48  1  0  0  0  0
 23 41  1  0  0  0  0
 24 25  2  0  0  0  0
 24 59  1  0  0  0  0
 25 62  1  0  0  0  0
 26 81  1  0  0  0  0
 27 82  1  0  0  0  0
 28 83  1  0  0  0  0
 29 31  2  0  0  0  0
 29 81  1  0  0  0  0
 30 84  1  0  0  0  0
 31 85  1  0  0  0  0
 32 67  2  0  0  0  0
 33 68  1  0  0  0  0
 33 71  1  0  0  0  0
 34 72  1  0  0  0  0
 34 76  2  0  0  0  0
 35 49  1  0  0  0  0
 35 73  1  0  0  0  0
 35 77  2  0  0  0  0
 36 63  1  0  0  0  0
 36 70  1  0  0  0  0
 36 78  2  0  0  0  0
 37 64  1  0  0  0  0
 37 69  1  0  0  0  0
 37 79  2  0  0  0  0
 38 65  1  0  0  0  0
 38 74  1  0  0  0  0
 38 80  2  0  0  0  0
 39 42  1  0  0  0  0
 40 49  1  0  0  0  0
 41 69  1  0  0  0  0
 42 44  1  0  0  0  0
 43 45  1  0  0  0  0
 43 46  1  0  0  0  0
 44 48  1  0  0  0  0
 45 50  1  0  0  0  0
 46 70  1  0  0  0  0
 47 50  1  0  0  0  0
 47 70  1  0  0  0  0
 48 73  1  0  0  0  0
 49 69  1  0  0  0  0
 50 68  1  0  0  0  0
 51 62  1  0  0  0  0
 52 62  1  0  0  0  0
 53 63  1  0  0  0  0
 54 65  1  0  0  0  0
 55 66  1  0  0  0  0
 56 66  1  0  0  0  0
 57 66  1  0  0  0  0
 58 75  1  0  0  0  0
 59 63  1  0  0  0  0
 60 61  1  0  0  0  0
 60 82  1  0  0  0  0
 61 83  1  0  0  0  0
 64 66  1  0  0  0  0
 64 74  1  0  0  0  0
 65 75  1  0  0  0  0
 67 68  1  0  0  0  0
M  CHG  1  75   1
M  ISO  4  36 100  60 101  63 100  82 101
M  END
> <Batch ID>
0133

> <Smiles>
CNC(C)C(=O)NC(C(=O)N1Cc2cc([101O:1][101CH2:1]COc3ccc(C[100CH:0](C)[100C:0](=O)N4CCCC(n5nc(-c6ccc(Oc7ccc(F)cc7F)cc6)c(C(N)=O)c5N)C4)c(C(C)C)c3)ccc2CC1C(=O)NC1CCCc2ccccc21)C(C)(C)C

> <Shape>
0.277

> <Color>
0.110

> <Negative vol penalty>
0.000

$$$$
