
  -OEChem-04052320573D

 86 94  0     1  0  0  0  0  0999 V2000
  -28.7092  -34.2813   19.8574 C   0  0  0  0  0  0  0  0  0  0  0  0
  -29.6956  -33.5953   20.5587 C   0  0  0  0  0  0  0  0  0  0  0  0
  -23.0679   -9.9280   19.9266 C   0  0  0  0  0  0  0  0  0  0  0  0
  -23.8411   -9.8991   22.2153 C   0  0  0  0  0  0  0  0  0  0  0  0
  -27.4549  -33.7010   19.6734 C   0  0  0  0  0  0  0  0  0  0  0  0
  -29.4278  -32.3289   21.0774 C   0  0  0  0  0  0  0  0  0  0  0  0
  -32.6276  -26.0696   22.4555 C   0  0  0  0  0  0  0  0  0  0  0  0
  -32.7646  -17.3852   23.4547 C   0  0  0  0  0  0  0  0  0  0  0  0
  -32.1439  -16.5257   22.5483 C   0  0  0  0  0  0  0  0  0  0  0  0
  -22.3131   -8.7800   20.1671 C   0  0  0  0  0  0  0  0  0  0  0  0
  -23.0862   -8.7511   22.4559 C   0  0  0  0  0  0  0  0  0  0  0  0
  -32.8094  -25.1588   23.4953 C   0  0  0  0  0  0  0  0  0  0  0  0
  -19.8532   -7.9809   23.0679 C   0  0  0  0  0  0  0  0  0  0  0  0
  -19.1026   -7.9350   24.2427 C   0  0  0  0  0  0  0  0  0  0  0  0
  -30.6319  -24.2221   23.0474 C   0  0  0  0  0  0  0  0  0  0  0  0
  -30.6089  -18.2719   24.0901 C   0  0  0  0  0  0  0  0  0  0  0  0
  -20.3273   -5.9756   24.9485 C   0  0  0  0  0  0  0  0  0  0  0  0
  -23.8320  -10.4876   20.9507 C   0  0  0  0  0  0  0  0  0  0  0  0
  -24.2005  -13.0101   20.8589 C   0  0  0  0  0  0  0  0  0  0  0  0
  -27.1747  -32.4228   20.1818 C   0  0  0  0  0  0  0  0  0  0  0  0
  -31.4401  -26.0706   21.7097 C   0  0  0  0  0  0  0  0  0  0  0  0
  -28.1682  -31.7315   20.9012 C   0  0  0  0  0  0  0  0  0  0  0  0
  -30.4386  -25.1322   21.9970 C   0  0  0  0  0  0  0  0  0  0  0  0
  -31.9971  -18.2583   24.2257 C   0  0  0  0  0  0  0  0  0  0  0  0
  -29.9882  -17.4125   23.1836 C   0  0  0  0  0  0  0  0  0  0  0  0
  -30.7557  -16.5394   22.4127 C   0  0  0  0  0  0  0  0  0  0  0  0
  -22.3222   -8.1916   21.4317 C   0  0  0  0  0  0  0  0  0  0  0  0
  -31.8103  -24.2368   23.7933 C   0  0  0  0  0  0  0  0  0  0  0  0
  -20.8407   -7.0241   22.8333 C   0  0  0  0  0  0  0  0  0  0  0  0
  -19.3397   -6.9323   25.1830 C   0  0  0  0  0  0  0  0  0  0  0  0
  -21.0778   -6.0214   23.7736 C   0  0  0  0  0  0  0  0  0  0  0  0
  -24.6124  -11.6731   20.7027 C   0  0  0  0  0  0  0  0  0  0  0  0
  -25.2985  -13.7522   20.4982 C   0  0  0  0  0  0  0  0  0  0  0  0
  -22.9381  -13.5345   21.2915 C   0  0  0  0  0  0  0  0  0  0  0  0
  -29.1076  -28.1712   21.2088 C   0  0  0  0  0  0  0  0  0  0  0  0
  -28.0752  -25.9341   19.0988 C   0  0  0  0  0  0  0  0  0  0  0  0
  -28.0413  -22.6617   18.1308 C   0  0  0  0  0  0  0  0  0  0  0  0
  -30.7767  -14.7367   20.6530 C   0  0  0  0  0  0  0  0  0  0  0  0
  -25.7891  -31.8563   19.9984 C   0  0  0  0  0  0  0  0  0  0  0  0
  -31.2705  -27.0421   20.5739 C   0  0  0  0  0  0  0  0  0  0  0  0
  -29.1536  -25.0786   21.2131 C   0  0  0  0  0  0  0  0  0  0  0  0
  -25.7061  -30.3541   20.2567 C   0  0  0  0  0  0  0  0  0  0  0  0
  -29.6225  -12.3638   18.2626 C   0  0  0  0  0  0  0  0  0  0  0  0
  -26.4342  -29.9933   21.5476 C   0  0  0  0  0  0  0  0  0  0  0  0
  -28.1823  -12.0825   18.6972 C   0  0  0  0  0  0  0  0  0  0  0  0
  -30.5470  -12.5682   19.4615 C   0  0  0  0  0  0  0  0  0  0  0  0
  -28.6560  -13.2964   20.8626 C   0  0  0  0  0  0  0  0  0  0  0  0
  -27.9240  -30.3456   21.4576 C   0  0  1  0  0  0  0  0  0  0  0  0
  -29.8091  -27.2908   20.2135 C   0  0  1  0  0  0  0  0  0  0  0  0
  -27.6745  -13.1479   19.6886 C   0  0  2  0  0  0  0  0  0  0  0  0
  -27.0787  -21.1324   16.3895 C   0  0  0  0  0  0  0  0  0  0  0  0
  -25.7294  -15.0583   24.4373 C   0  0  0  0  0  0  0  0  0  0  0  0
  -25.6903  -17.5550   24.2781 C   0  0  0  0  0  0  0  0  0  0  0  0
  -25.3740  -26.0259   20.5149 C   0  0  0  0  0  0  0  0  0  0  0  0
  -24.7893  -23.8671   19.3898 C   0  0  0  0  0  0  0  0  0  0  0  0
  -25.2406  -25.9028   18.0206 C   0  0  0  0  0  0  0  0  0  0  0  0
  -30.7271  -21.9020   17.1468 C   0  0  0  0  0  0  0  0  0  0  0  0
  -28.4996  -17.4508   23.0570 C   0  0  0  0  0  0  0  0  0  0  0  0
  -32.6650  -19.1843   25.1989 C   0  0  0  0  0  0  0  0  0  0  0  0
  -27.8317  -16.2634   23.7729 C   0  0  0  0  0  0  0  0  0  0  0  0
  -33.3091  -21.5462   25.6945 C   0  0  0  0  0  0  0  0  0  0  0  0
  -33.3223  -22.9355   25.0881 C   0  0  0  0  0  0  0  0  0  1  0  0
  -27.1627  -24.7338   19.1743 C   0  0  1  0  0  0  0  0  0  0  0  0
  -28.2591  -22.0093   16.7775 C   0  0  2  0  0  0  0  0  0  0  0  0
  -26.2935  -16.2746   23.6986 C   0  0  0  0  0  0  0  0  0  0  0  0
  -25.6649  -25.1344   19.2911 C   0  0  0  0  0  0  0  0  0  0  0  0
  -25.8737  -11.5687   20.2758 N   0  0  0  0  0  0  0  0  0  0  0  0
  -26.2638  -12.8496   20.1606 N   0  0  0  0  0  0  0  0  0  0  0  0
  -29.0324  -26.0532   20.1163 N   0  0  0  0  0  0  0  0  0  0  0  0
  -30.0043  -13.5943   20.3545 N   0  0  0  0  0  0  0  0  0  0  0  0
  -25.5229  -15.0821   20.4399 N   0  0  0  0  0  0  0  0  0  0  0  0
  -21.9184  -12.6323   21.6239 N   0  0  0  0  0  0  0  0  0  0  0  0
  -30.1441  -15.6588   21.4863 N   0  0  0  0  0  0  0  0  0  0  0  0
  -28.6314  -29.3540   20.6761 N   0  0  0  0  0  0  0  0  0  0  0  0
  -27.4723  -23.9118   18.0095 N   0  0  0  0  0  0  0  0  0  0  0  0
  -29.4854  -21.1628   16.8020 N   0  3  0  0  0  0  0  0  0  0  0  0
  -32.7073  -20.5947   24.7267 N   0  3  0  0  0  0  0  0  0  0  0  0
  -22.7155  -14.7668   21.3650 O   0  0  0  0  0  0  0  0  0  0  0  0
  -29.0047  -27.8039   22.3733 O   0  0  0  0  0  0  0  0  0  0  0  0
  -27.9481  -26.7327   18.1673 O   0  0  0  0  0  0  0  0  0  0  0  0
  -28.3421  -22.1154   19.1898 O   0  0  0  0  0  0  0  0  0  0  0  0
  -31.9048  -14.8989   20.1808 O   0  0  0  0  0  0  0  0  0  0  0  0
  -21.5856   -7.0715   21.6669 O   0  0  0  0  0  0  0  0  0  0  0  0
  -31.9849  -23.3471   24.8081 O   0  0  0  0  0  0  0  0  0  1  0  0
  -18.6199   -6.8893   26.3118 F   0  0  0  0  0  0  0  0  0  0  0  0
  -22.0260   -5.1002   23.5544 F   0  0  0  0  0  0  0  0  0  0  0  0
  1  2  1  0  0  0  0
  1  5  2  0  0  0  0
  2  6  2  0  0  0  0
  3 10  2  0  0  0  0
  3 18  1  0  0  0  0
  4 11  1  0  0  0  0
  4 18  2  0  0  0  0
  5 20  1  0  0  0  0
  6 22  1  0  0  0  0
  7 12  2  0  0  0  0
  7 21  1  0  0  0  0
  8  9  2  0  0  0  0
  8 24  1  0  0  0  0
  9 26  1  0  0  0  0
 10 27  1  0  0  0  0
 11 27  2  0  0  0  0
 12 28  1  0  0  0  0
 13 14  2  0  0  0  0
 13 29  1  0  0  0  0
 14 30  1  0  0  0  0
 15 23  1  0  0  0  0
 15 28  2  0  0  0  0
 16 24  2  0  0  0  0
 16 25  1  0  0  0  0
 17 30  2  0  0  0  0
 17 31  1  0  0  0  0
 18 32  1  0  0  0  0
 19 32  1  0  0  0  0
 19 33  2  0  0  0  0
 19 34  1  0  0  0  0
 20 22  2  0  0  0  0
 20 39  1  0  0  0  0
 21 23  2  0  0  0  0
 21 40  1  0  0  0  0
 22 48  1  0  0  0  0
 23 41  1  0  0  0  0
 24 59  1  0  0  0  0
 25 26  2  0  0  0  0
 25 58  1  0  0  0  0
 26 73  1  0  0  0  0
 27 83  1  0  0  0  0
 28 84  1  0  0  0  0
 29 31  2  0  0  0  0
 29 83  1  0  0  0  0
 30 85  1  0  0  0  0
 31 86  1  0  0  0  0
 32 67  2  0  0  0  0
 33 68  1  0  0  0  0
 33 71  1  0  0  0  0
 34 72  1  0  0  0  0
 34 78  2  0  0  0  0
 35 49  1  0  0  0  0
 35 74  1  0  0  0  0
 35 79  2  0  0  0  0
 36 63  1  0  0  0  0
 36 69  1  0  0  0  0
 36 80  2  0  0  0  0
 37 64  1  0  0  0  0
 37 75  1  0  0  0  0
 37 81  2  0  0  0  0
 38 70  1  0  0  0  0
 38 73  1  0  0  0  0
 38 82  2  0  0  0  0
 39 42  1  0  0  0  0
 40 49  1  0  0  0  0
 41 69  1  0  0  0  0
 42 44  1  0  0  0  0
 43 45  1  0  0  0  0
 43 46  1  0  0  0  0
 44 48  1  0  0  0  0
 45 50  1  0  0  0  0
 46 70  1  0  0  0  0
 47 50  1  0  0  0  0
 47 70  1  0  0  0  0
 48 74  1  0  0  0  0
 49 69  1  0  0  0  0
 50 68  1  0  0  0  0
 51 64  1  0  0  0  0
 52 65  1  0  0  0  0
 53 65  1  0  0  0  0
 54 66  1  0  0  0  0
 55 66  1  0  0  0  0
 56 66  1  0  0  0  0
 57 76  1  0  0  0  0
 58 60  1  0  0  0  0
 59 77  1  0  0  0  0
 60 65  1  0  0  0  0
 61 62  1  0  0  0  0
 61 77  1  0  0  0  0
 62 84  1  0  0  0  0
 63 66  1  0  0  0  0
 63 75  1  0  0  0  0
 64 76  1  0  0  0  0
 67 68  1  0  0  0  0
M  CHG  2  76   1  77   1
M  ISO  4  38 100  62 101  73 100  84 101
M  END
> <Batch ID>
0134

> <Smiles>
CNC(C)C(=O)NC(C(=O)N1Cc2cc([101O:1][101CH2:1]CNCc3ccc([100NH:0][100C:0](=O)N4CCCC(n5nc(-c6ccc(Oc7ccc(F)cc7F)cc6)c(C(N)=O)c5N)C4)c(CCC(C)C)c3)ccc2CC1C(=O)NC1CCCc2ccccc21)C(C)(C)C

> <Shape>
0.258

> <Color>
0.195

> <Negative vol penalty>
0.000

$$$$

  -OEChem-04052320573D

 84 92  0     1  0  0  0  0  0999 V2000
  -30.6250  -11.4577   17.7112 C   0  0  0  0  0  0  0  0  0  0  0  0
  -30.4988  -11.9778   18.9953 C   0  0  0  0  0  0  0  0  0  0  0  0
  -26.4659  -28.4878   18.9525 C   0  0  0  0  0  0  0  0  0  0  0  0
  -26.1324  -27.5307   21.1457 C   0  0  0  0  0  0  0  0  0  0  0  0
  -29.7388  -11.8529   16.7101 C   0  0  0  0  0  0  0  0  0  0  0  0
  -29.4869  -12.8944   19.2787 C   0  0  0  0  0  0  0  0  0  0  0  0
  -27.1034  -11.8737   23.6287 C   0  0  0  0  0  0  0  0  0  0  0  0
  -27.8615  -18.5896   23.4601 C   0  0  0  0  0  0  0  0  0  0  0  0
  -28.7421  -17.1421   21.7378 C   0  0  0  0  0  0  0  0  0  0  0  0
  -27.4182  -19.4816   22.4838 C   0  0  0  0  0  0  0  0  0  0  0  0
  -28.2987  -18.0341   20.7614 C   0  0  0  0  0  0  0  0  0  0  0  0
  -25.4931  -29.4497   19.2244 C   0  0  0  0  0  0  0  0  0  0  0  0
  -25.1597  -28.4927   21.4176 C   0  0  0  0  0  0  0  0  0  0  0  0
  -27.7510  -12.2345   24.8094 C   0  0  0  0  0  0  0  0  0  0  0  0
  -25.0620  -31.7449   22.3310 C   0  0  0  0  0  0  0  0  0  0  0  0
  -25.1057  -32.3750   23.5746 C   0  0  0  0  0  0  0  0  0  0  0  0
  -26.3784  -14.2132   24.9505 C   0  0  0  0  0  0  0  0  0  0  0  0
  -22.8904  -31.5485   24.0712 C   0  0  0  0  0  0  0  0  0  0  0  0
  -26.7855  -27.5282   19.9132 C   0  0  0  0  0  0  0  0  0  0  0  0
  -29.1719  -26.6272   19.8837 C   0  0  0  0  0  0  0  0  0  0  0  0
  -28.7095  -12.7674   16.9837 C   0  0  0  0  0  0  0  0  0  0  0  0
  -26.0942  -12.6869   23.0933 C   0  0  0  0  0  0  0  0  0  0  0  0
  -28.5869  -13.3033   18.2799 C   0  0  0  0  0  0  0  0  0  0  0  0
  -25.7177  -13.8591   23.7642 C   0  0  0  0  0  0  0  0  0  0  0  0
  -28.5236  -17.4198   23.0872 C   0  0  0  0  0  0  0  0  0  0  0  0
  -27.6367  -19.2039   21.1344 C   0  0  0  0  0  0  0  0  0  0  0  0
  -24.8400  -29.4522   20.4569 C   0  0  0  0  0  0  0  0  0  0  0  0
  -27.3906  -13.4059   25.4690 C   0  0  0  0  0  0  0  0  0  0  0  0
  -23.9325  -31.0166   21.9574 C   0  0  0  0  0  0  0  0  0  0  0  0
  -24.0199  -32.2768   24.4447 C   0  0  0  0  0  0  0  0  0  0  0  0
  -22.8467  -30.9184   22.8275 C   0  0  0  0  0  0  0  0  0  0  0  0
  -27.7899  -26.5338   19.6327 C   0  0  0  0  0  0  0  0  0  0  0  0
  -29.6829  -25.4317   19.4407 C   0  0  0  0  0  0  0  0  0  0  0  0
  -29.9264  -27.6986   20.4655 C   0  0  0  0  0  0  0  0  0  0  0  0
  -25.7194  -14.3058   20.3836 C   0  0  0  0  0  0  0  0  0  0  0  0
  -22.7438  -14.8302   21.5639 C   0  0  0  0  0  0  0  0  0  0  0  0
  -20.7016  -15.0245   24.2913 C   0  0  0  0  0  0  0  0  0  0  0  0
  -27.3220  -19.9848   18.7601 C   0  0  0  0  0  0  0  0  0  0  0  0
  -27.8049  -13.2006   15.8573 C   0  0  0  0  0  0  0  0  0  0  0  0
  -25.3869  -12.2699   21.8330 C   0  0  0  0  0  0  0  0  0  0  0  0
  -24.6266  -14.7563   23.2418 C   0  0  0  0  0  0  0  0  0  0  0  0
  -26.5289  -13.8910   16.3321 C   0  0  0  0  0  0  0  0  0  0  0  0
  -28.8653  -21.9672   16.2370 C   0  0  0  0  0  0  0  0  0  0  0  0
  -26.8508  -14.9328   17.3988 C   0  0  0  0  0  0  0  0  0  0  0  0
  -28.8960  -23.3705   16.8468 C   0  0  0  0  0  0  0  0  0  0  0  0
  -27.5928  -21.2118   16.6162 C   0  0  0  0  0  0  0  0  0  0  0  0
  -27.3428  -22.5551   18.6661 C   0  0  0  0  0  0  0  0  0  0  0  0
  -27.4868  -14.2809   18.6325 C   0  0  1  0  0  0  0  0  0  0  0  0
  -24.7277  -13.4366   21.1039 C   0  0  1  0  0  0  0  0  0  0  0  0
  -28.6356  -23.3310   18.3654 C   0  0  2  0  0  0  0  0  0  0  0  0
  -18.3272  -15.5082   24.9438 C   0  0  0  0  0  0  0  0  0  0  0  0
  -23.2378  -17.8115   21.1423 C   0  0  0  0  0  0  0  0  0  0  0  0
  -21.2944  -18.2758   22.6508 C   0  0  0  0  0  0  0  0  0  0  0  0
  -20.9447  -17.0351   20.5151 C   0  0  0  0  0  0  0  0  0  0  0  0
  -20.3460  -12.3224   25.4450 C   0  0  0  0  0  0  0  0  0  0  0  0
  -30.3337  -16.8572   27.8012 C   0  0  0  0  0  0  0  0  0  0  0  0
  -29.0029  -16.4556   24.1428 C   0  0  0  0  0  0  0  0  0  0  0  0
  -30.4284  -16.7344   24.6373 C   0  0  0  0  0  0  0  0  0  0  0  0
  -30.9698  -15.7459   25.6655 C   0  0  0  0  0  0  0  0  0  0  0  0
  -30.1379  -14.3846   27.5775 C   0  0  0  0  0  0  0  0  0  0  0  0
  -29.3793  -13.3485   26.7719 C   0  0  0  0  0  0  0  0  0  1  0  0
  -22.1118  -15.8845   22.4403 C   0  0  1  0  0  0  0  0  0  0  0  0
  -19.3325  -14.4304   24.5688 C   0  0  2  0  0  0  0  0  0  0  0  0
  -21.9191  -17.2360   21.6962 C   0  0  0  0  0  0  0  0  0  0  0  0
  -27.4447  -25.3711   19.0733 N   0  0  0  0  0  0  0  0  0  0  0  0
  -28.6173  -24.7228   18.9692 N   0  0  0  0  0  0  0  0  0  0  0  0
  -23.9692  -14.3089   22.0028 N   0  0  0  0  0  0  0  0  0  0  0  0
  -27.4139  -21.2119   18.0697 N   0  0  0  0  0  0  0  0  0  0  0  0
  -30.9351  -24.9283   19.4122 N   0  0  0  0  0  0  0  0  0  0  0  0
  -29.2442  -28.8556   20.8659 N   0  0  0  0  0  0  0  0  0  0  0  0
  -27.1861  -20.1097   20.1423 N   0  0  0  0  0  0  0  0  0  0  0  0
  -26.4751  -13.6350   19.4410 N   0  0  0  0  0  0  0  0  0  0  0  0
  -20.8757  -15.3026   22.9520 N   0  0  0  0  0  0  0  0  0  0  0  0
  -19.4104  -13.4504   25.6888 N   0  3  0  0  0  0  0  0  0  0  0  0
  -30.0735  -15.6926   26.8780 N   0  3  1  0  0  0  0  0  0  0  0  0
  -31.1709  -27.6385   20.6105 O   0  0  0  0  0  0  0  0  0  0  0  0
  -25.7925  -15.4971   20.6613 O   0  0  0  0  0  0  0  0  0  0  0  0
  -22.1679  -14.4769   20.5319 O   0  0  0  0  0  0  0  0  0  0  0  0
  -21.5320  -15.2255   25.1747 O   0  0  0  0  0  0  0  0  0  0  0  0
  -27.3884  -18.9026   18.1716 O   0  0  0  0  0  0  0  0  0  0  0  0
  -23.8909  -30.3910   20.7227 O   0  0  0  0  0  0  0  0  0  0  0  0
  -28.0215  -13.7608   26.6213 O   0  0  0  0  0  0  0  0  0  1  0  0
  -24.0626  -32.8807   25.6396 F   0  0  0  0  0  0  0  0  0  0  0  0
  -21.7594  -30.2191   22.4747 F   0  0  0  0  0  0  0  0  0  0  0  0
  1  2  1  0  0  0  0
  1  5  2  0  0  0  0
  2  6  2  0  0  0  0
  3 12  2  0  0  0  0
  3 19  1  0  0  0  0
  4 13  1  0  0  0  0
  4 19  2  0  0  0  0
  5 21  1  0  0  0  0
  6 23  1  0  0  0  0
  7 14  2  0  0  0  0
  7 22  1  0  0  0  0
  8 10  2  0  0  0  0
  8 25  1  0  0  0  0
  9 11  1  0  0  0  0
  9 25  2  0  0  0  0
 10 26  1  0  0  0  0
 11 26  2  0  0  0  0
 12 27  1  0  0  0  0
 13 27  2  0  0  0  0
 14 28  1  0  0  0  0
 15 16  2  0  0  0  0
 15 29  1  0  0  0  0
 16 30  1  0  0  0  0
 17 24  1  0  0  0  0
 17 28  2  0  0  0  0
 18 30  2  0  0  0  0
 18 31  1  0  0  0  0
 19 32  1  0  0  0  0
 20 32  1  0  0  0  0
 20 33  2  0  0  0  0
 20 34  1  0  0  0  0
 21 23  2  0  0  0  0
 21 39  1  0  0  0  0
 22 24  2  0  0  0  0
 22 40  1  0  0  0  0
 23 48  1  0  0  0  0
 24 41  1  0  0  0  0
 25 57  1  0  0  0  0
 26 71  1  0  0  0  0
 27 81  1  0  0  0  0
 28 82  1  0  0  0  0
 29 31  2  0  0  0  0
 29 81  1  0  0  0  0
 30 83  1  0  0  0  0
 31 84  1  0  0  0  0
 32 65  2  0  0  0  0
 33 66  1  0  0  0  0
 33 69  1  0  0  0  0
 34 70  1  0  0  0  0
 34 76  2  0  0  0  0
 35 49  1  0  0  0  0
 35 72  1  0  0  0  0
 35 77  2  0  0  0  0
 36 62  1  0  0  0  0
 36 67  1  0  0  0  0
 36 78  2  0  0  0  0
 37 63  1  0  0  0  0
 37 73  1  0  0  0  0
 37 79  2  0  0  0  0
 38 68  1  0  0  0  0
 38 71  1  0  0  0  0
 38 80  2  0  0  0  0
 39 42  1  0  0  0  0
 40 49  1  0  0  0  0
 41 67  1  0  0  0  0
 42 44  1  0  0  0  0
 43 45  1  0  0  0  0
 43 46  1  0  0  0  0
 44 48  1  0  0  0  0
 45 50  1  0  0  0  0
 46 68  1  0  0  0  0
 47 50  1  0  0  0  0
 47 68  1  0  0  0  0
 48 72  1  0  0  0  0
 49 67  1  0  0  0  0
 50 66  1  0  0  0  0
 51 63  1  0  0  0  0
 52 64  1  0  0  0  0
 53 64  1  0  0  0  0
 54 64  1  0  0  0  0
 55 74  1  0  0  0  0
 56 75  1  0  0  0  0
 57 58  1  0  0  0  0
 58 59  1  0  0  0  0
 59 75  1  0  0  0  0
 60 61  1  0  0  0  0
 60 75  1  0  0  0  0
 61 82  1  0  0  0  0
 62 64  1  0  0  0  0
 62 73  1  0  0  0  0
 63 74  1  0  0  0  0
 65 66  1  0  0  0  0
M  CHG  2  74   1  75   1
M  ISO  4  38 100  61 101  71 100  82 101
M  END
> <Batch ID>
0134

> <Smiles>
CNC(C)C(=O)NC(C(=O)N1Cc2cc([101O:1][101CH2:1]CN(C)CCCc3ccc([100NH:0][100C:0](=O)N4CCCC(n5nc(-c6ccc(Oc7ccc(F)cc7F)cc6)c(C(N)=O)c5N)C4)cc3)ccc2CC1C(=O)NC1CCCc2ccccc21)C(C)(C)C

> <Shape>
0.217

> <Color>
0.067

> <Negative vol penalty>
0.000

$$$$

  -OEChem-04052320573D

 83 91  0     1  0  0  0  0  0999 V2000
  -19.3816  -29.5798   23.4021 C   0  0  0  0  0  0  0  0  0  0  0  0
  -19.6001  -28.3071   22.8845 C   0  0  0  0  0  0  0  0  0  0  0  0
  -22.9964   -9.9308   20.0171 C   0  0  0  0  0  0  0  0  0  0  0  0
  -23.7172  -10.0271   22.3211 C   0  0  0  0  0  0  0  0  0  0  0  0
  -20.2050  -30.6377   23.0192 C   0  0  0  0  0  0  0  0  0  0  0  0
  -20.6417  -28.0918   21.9827 C   0  0  0  0  0  0  0  0  0  0  0  0
  -24.0963  -23.0599   21.4814 C   0  0  0  0  0  0  0  0  0  0  0  0
  -22.2205   -8.8084   20.3068 C   0  0  0  0  0  0  0  0  0  0  0  0
  -22.9413   -8.9047   22.6107 C   0  0  0  0  0  0  0  0  0  0  0  0
  -24.0421  -21.9671   20.6173 C   0  0  0  0  0  0  0  0  0  0  0  0
  -23.1606   -5.5544   22.2133 C   0  0  0  0  0  0  0  0  0  0  0  0
  -23.7387   -4.5496   22.9890 C   0  0  0  0  0  0  0  0  0  0  0  0
  -25.6854  -23.0164   19.1969 C   0  0  0  0  0  0  0  0  0  0  0  0
  -27.2133  -19.1554   20.9869 C   0  0  0  0  0  0  0  0  0  0  0  0
  -22.0133   -4.8428   24.6546 C   0  0  0  0  0  0  0  0  0  0  0  0
  -23.7448  -10.5401   21.0243 C   0  0  0  0  0  0  0  0  0  0  0  0
  -24.1501  -13.0481   20.7935 C   0  0  0  0  0  0  0  0  0  0  0  0
  -21.2632  -30.4333   22.1197 C   0  0  0  0  0  0  0  0  0  0  0  0
  -24.9389  -24.1458   21.2036 C   0  0  0  0  0  0  0  0  0  0  0  0
  -21.4793  -29.1483   21.5864 C   0  0  0  0  0  0  0  0  0  0  0  0
  -25.7504  -24.1206   20.0604 C   0  0  0  0  0  0  0  0  0  0  0  0
  -27.1716  -18.4079   19.7841 C   0  0  0  0  0  0  0  0  0  0  0  0
  -22.1930   -8.2954   21.6036 C   0  0  0  0  0  0  0  0  0  0  0  0
  -24.8345  -21.9465   19.4733 C   0  0  0  0  0  0  0  0  0  0  0  0
  -22.0089   -6.2035   22.6583 C   0  0  0  0  0  0  0  0  0  0  0  0
  -23.1651   -4.1938   24.2097 C   0  0  0  0  0  0  0  0  0  0  0  0
  -21.4353   -5.8477   23.8789 C   0  0  0  0  0  0  0  0  0  0  0  0
  -24.5469  -11.6992   20.7255 C   0  0  0  0  0  0  0  0  0  0  0  0
  -28.4969  -19.0710   21.4794 C   0  0  0  0  0  0  0  0  0  0  0  0
  -28.4310  -17.8894   19.5783 C   0  0  0  0  0  0  0  0  0  0  0  0
  -25.2662  -13.7539   20.4157 C   0  0  0  0  0  0  0  0  0  0  0  0
  -22.8856  -13.6128   21.1651 C   0  0  0  0  0  0  0  0  0  0  0  0
  -24.4941  -27.2398   20.6264 C   0  0  0  0  0  0  0  0  0  0  0  0
  -27.7356  -27.3235   20.7153 C   0  0  0  0  0  0  0  0  0  0  0  0
  -30.6875  -25.6449   20.3753 C   0  0  0  0  0  0  0  0  0  0  0  0
  -30.7691  -14.6512   20.6557 C   0  0  0  0  0  0  0  0  0  0  0  0
  -22.0973  -31.6173   21.6990 C   0  0  0  0  0  0  0  0  0  0  0  0
  -25.0057  -25.3051   22.1597 C   0  0  0  0  0  0  0  0  0  0  0  0
  -26.6869  -25.2523   19.7275 C   0  0  0  0  0  0  0  0  0  0  0  0
  -23.4118  -31.2285   21.0273 C   0  0  0  0  0  0  0  0  0  0  0  0
  -29.6144  -12.1851   18.3618 C   0  0  0  0  0  0  0  0  0  0  0  0
  -23.1764  -30.1432   19.9815 C   0  0  0  0  0  0  0  0  0  0  0  0
  -28.1631  -11.9459   18.7819 C   0  0  0  0  0  0  0  0  0  0  0  0
  -30.5161  -12.4402   19.5676 C   0  0  0  0  0  0  0  0  0  0  0  0
  -28.6095  -13.2799   20.8842 C   0  0  0  0  0  0  0  0  0  0  0  0
  -22.6143  -28.8698   20.6249 C   0  0  1  0  0  0  0  0  0  0  0  0
  -25.5188  -26.5865   21.5102 C   0  0  1  0  0  0  0  0  0  0  0  0
  -27.6515  -13.0734   19.6985 C   0  0  2  0  0  0  0  0  0  0  0  0
  -29.0832  -19.6626   22.6996 C   0  0  0  0  0  0  0  0  0  0  0  0
  -28.9438  -17.0388   18.4830 C   0  0  0  0  0  0  0  0  0  0  0  0
  -33.1715  -25.9890   20.4701 C   0  0  0  0  0  0  0  0  0  0  0  0
  -27.6512  -28.6702   17.9786 C   0  0  0  0  0  0  0  0  0  0  0  0
  -30.0809  -28.1274   17.7139 C   0  0  0  0  0  0  0  0  0  0  0  0
  -29.3340  -29.6282   19.5612 C   0  0  0  0  0  0  0  0  0  0  0  0
  -30.9854  -23.7227   22.6058 C   0  0  0  0  0  0  0  0  0  0  0  0
  -25.9663  -18.2201   18.8978 C   0  0  0  0  0  0  0  0  0  0  0  0
  -25.9981  -19.0712   17.6265 C   0  0  0  0  0  0  0  0  0  0  0  0
  -30.6286  -17.9668   20.7739 C   0  0  0  0  0  0  0  0  0  0  0  0
  -30.8664  -16.8551   21.7926 C   0  0  0  0  0  0  0  0  0  0  0  0
  -25.9717  -20.5700   17.9024 C   0  0  0  0  0  0  0  0  0  1  0  0
  -28.8378  -27.1529   19.6978 C   0  0  1  0  0  0  0  0  0  0  0  0
  -31.9265  -25.5984   21.2513 C   0  0  2  0  0  0  0  0  0  0  0  0
  -28.9570  -28.3740   18.7428 C   0  0  0  0  0  0  0  0  0  0  0  0
  -25.8160  -11.5541   20.3351 N   0  0  0  0  0  0  0  0  0  0  0  0
  -29.2282  -18.2987   20.6152 N   0  0  0  0  0  0  0  0  0  0  0  0
  -26.2262  -12.8211   20.1542 N   0  0  0  0  0  0  0  0  0  0  0  0
  -26.7117  -26.3661   20.6900 N   0  0  0  0  0  0  0  0  0  0  0  0
  -29.9759  -13.5217   20.3948 N   0  0  0  0  0  0  0  0  0  0  0  0
  -25.5101  -15.0751   20.2849 N   0  0  0  0  0  0  0  0  0  0  0  0
  -21.8463  -12.7444   21.5258 N   0  0  0  0  0  0  0  0  0  0  0  0
  -23.6680  -28.1299   21.2857 N   0  0  0  0  0  0  0  0  0  0  0  0
  -30.0513  -26.8657   20.4549 N   0  0  0  0  0  0  0  0  0  0  0  0
  -30.1786  -15.6322   21.4428 N   0  0  0  0  0  0  0  0  0  0  0  0
  -32.1247  -24.2253   21.7956 N   0  3  0  0  0  0  0  0  0  0  0  0
  -22.6785  -14.8499   21.1610 O   0  0  0  0  0  0  0  0  0  0  0  0
  -24.4568  -26.9583   19.4343 O   0  0  0  0  0  0  0  0  0  0  0  0
  -27.7852  -28.2673   21.5080 O   0  0  0  0  0  0  0  0  0  0  0  0
  -30.3228  -24.6948   19.6863 O   0  0  0  0  0  0  0  0  0  0  0  0
  -31.9165  -14.7785   20.2150 O   0  0  0  0  0  0  0  0  0  0  0  0
  -21.4358   -7.2004   21.8866 O   0  0  0  0  0  0  0  0  0  0  0  0
  -24.7830  -20.8815   18.6279 O   0  0  0  0  0  0  0  0  0  1  0  0
  -23.7194   -3.2277   24.9538 F   0  0  0  0  0  0  0  0  0  0  0  0
  -20.3282   -6.4669   24.3111 F   0  0  0  0  0  0  0  0  0  0  0  0
  1  2  1  0  0  0  0
  1  5  2  0  0  0  0
  2  6  2  0  0  0  0
  3  8  2  0  0  0  0
  3 16  1  0  0  0  0
  4  9  1  0  0  0  0
  4 16  2  0  0  0  0
  5 18  1  0  0  0  0
  6 20  1  0  0  0  0
  7 10  2  0  0  0  0
  7 19  1  0  0  0  0
  8 23  1  0  0  0  0
  9 23  2  0  0  0  0
 10 24  1  0  0  0  0
 11 12  2  0  0  0  0
 11 25  1  0  0  0  0
 12 26  1  0  0  0  0
 13 21  1  0  0  0  0
 13 24  2  0  0  0  0
 14 22  1  0  0  0  0
 14 29  2  0  0  0  0
 15 26  2  0  0  0  0
 15 27  1  0  0  0  0
 16 28  1  0  0  0  0
 17 28  1  0  0  0  0
 17 31  2  0  0  0  0
 17 32  1  0  0  0  0
 18 20  2  0  0  0  0
 18 37  1  0  0  0  0
 19 21  2  0  0  0  0
 19 38  1  0  0  0  0
 20 46  1  0  0  0  0
 21 39  1  0  0  0  0
 22 30  2  0  0  0  0
 22 56  1  0  0  0  0
 23 80  1  0  0  0  0
 24 81  1  0  0  0  0
 25 27  2  0  0  0  0
 25 80  1  0  0  0  0
 26 82  1  0  0  0  0
 27 83  1  0  0  0  0
 28 64  2  0  0  0  0
 29 49  1  0  0  0  0
 29 65  1  0  0  0  0
 30 50  1  0  0  0  0
 30 65  1  0  0  0  0
 31 66  1  0  0  0  0
 31 69  1  0  0  0  0
 32 70  1  0  0  0  0
 32 75  2  0  0  0  0
 33 47  1  0  0  0  0
 33 71  1  0  0  0  0
 33 76  2  0  0  0  0
 34 61  1  0  0  0  0
 34 67  1  0  0  0  0
 34 77  2  0  0  0  0
 35 62  1  0  0  0  0
 35 72  1  0  0  0  0
 35 78  2  0  0  0  0
 36 68  1  0  0  0  0
 36 73  1  0  0  0  0
 36 79  2  0  0  0  0
 37 40  1  0  0  0  0
 38 47  1  0  0  0  0
 39 67  1  0  0  0  0
 40 42  1  0  0  0  0
 41 43  1  0  0  0  0
 41 44  1  0  0  0  0
 42 46  1  0  0  0  0
 43 48  1  0  0  0  0
 44 68  1  0  0  0  0
 45 48  1  0  0  0  0
 45 68  1  0  0  0  0
 46 71  1  0  0  0  0
 47 67  1  0  0  0  0
 48 66  1  0  0  0  0
 51 62  1  0  0  0  0
 52 63  1  0  0  0  0
 53 63  1  0  0  0  0
 54 63  1  0  0  0  0
 55 74  1  0  0  0  0
 56 57  1  0  0  0  0
 57 60  1  0  0  0  0
 58 59  1  0  0  0  0
 58 65  1  0  0  0  0
 59 73  1  0  0  0  0
 60 81  1  0  0  0  0
 61 63  1  0  0  0  0
 61 72  1  0  0  0  0
 62 74  1  0  0  0  0
 64 66  1  0  0  0  0
M  CHG  1  74   1
M  ISO  4  36 100  60 101  73 100  81 101
M  END
> <Batch ID>
0134

> <Smiles>
CNC(C)C(=O)NC(C(=O)N1Cc2cc([101O:1][101CH2:1]CCc3cc(C)n(CC[100NH:0][100C:0](=O)N4CCCC(n5nc(-c6ccc(Oc7ccc(F)cc7F)cc6)c(C(N)=O)c5N)C4)c3C)ccc2CC1C(=O)NC1CCCc2ccccc21)C(C)(C)C

> <Shape>
0.341

> <Color>
0.220

> <Negative vol penalty>
0.000

$$$$

  -OEChem-04052320573D

 82 91  0     1  0  0  0  0  0999 V2000
  -29.2952  -35.9446   24.5897 C   0  0  0  0  0  0  0  0  0  0  0  0
  -29.4793  -34.6673   24.0700 C   0  0  0  0  0  0  0  0  0  0  0  0
  -24.4026   -9.4745   21.2167 C   0  0  0  0  0  0  0  0  0  0  0  0
  -24.9497  -10.3777   23.3897 C   0  0  0  0  0  0  0  0  0  0  0  0
  -28.0632  -36.3031   25.1351 C   0  0  0  0  0  0  0  0  0  0  0  0
  -28.4317  -33.7474   24.0964 C   0  0  0  0  0  0  0  0  0  0  0  0
  -28.1679  -21.8864   18.4655 C   0  0  0  0  0  0  0  0  0  0  0  0
  -27.1831  -29.4680   19.8972 C   0  0  0  0  0  0  0  0  0  0  0  0
  -28.0719  -23.2775   18.4773 C   0  0  0  0  0  0  0  0  0  0  0  0
  -24.0960   -8.2471   21.8041 C   0  0  0  0  0  0  0  0  0  0  0  0
  -24.6430   -9.1503   23.9771 C   0  0  0  0  0  0  0  0  0  0  0  0
  -27.4648  -28.1040   19.8355 C   0  0  0  0  0  0  0  0  0  0  0  0
  -21.5222   -6.8797   23.5184 C   0  0  0  0  0  0  0  0  0  0  0  0
  -20.3522   -6.2398   23.1097 C   0  0  0  0  0  0  0  0  0  0  0  0
  -28.3463  -23.2722   20.8740 C   0  0  0  0  0  0  0  0  0  0  0  0
  -25.2734  -27.6175   20.7187 C   0  0  0  0  0  0  0  0  0  0  0  0
  -21.6499   -4.3425   22.3656 C   0  0  0  0  0  0  0  0  0  0  0  0
  -24.8295  -10.5398   22.0096 C   0  0  0  0  0  0  0  0  0  0  0  0
  -24.2696  -12.8851   21.1767 C   0  0  0  0  0  0  0  0  0  0  0  0
  -26.9970  -35.3903   25.1596 C   0  0  0  0  0  0  0  0  0  0  0  0
  -28.3624  -21.1728   19.6581 C   0  0  0  0  0  0  0  0  0  0  0  0
  -25.9463  -29.9182   20.3811 C   0  0  0  0  0  0  0  0  0  0  0  0
  -27.1847  -34.0936   24.6440 C   0  0  0  0  0  0  0  0  0  0  0  0
  -28.4340  -21.8717   20.8770 C   0  0  0  0  0  0  0  0  0  0  0  0
  -24.9774  -28.9877   20.7831 C   0  0  0  0  0  0  0  0  0  0  0  0
  -28.1636  -23.9703   19.6808 C   0  0  0  0  0  0  0  0  0  0  0  0
  -24.2161   -8.0849   23.1843 C   0  0  0  0  0  0  0  0  0  0  0  0
  -26.5110  -27.1786   20.2490 C   0  0  0  0  0  0  0  0  0  0  0  0
  -22.7561   -6.2511   23.3507 C   0  0  0  0  0  0  0  0  0  0  0  0
  -20.4160   -4.9712   22.5333 C   0  0  0  0  0  0  0  0  0  0  0  0
  -22.8199   -4.9825   22.7743 C   0  0  0  0  0  0  0  0  0  0  0  0
  -25.1470  -11.8078   21.4034 C   0  0  0  0  0  0  0  0  0  0  0  0
  -25.0511  -13.8452   20.5818 C   0  0  0  0  0  0  0  0  0  0  0  0
  -22.8729  -13.0071   21.4771 C   0  0  0  0  0  0  0  0  0  0  0  0
  -25.0158  -31.7103   22.8360 C   0  0  0  0  0  0  0  0  0  0  0  0
  -22.1027  -31.4240   21.4381 C   0  0  0  0  0  0  0  0  0  0  0  0
  -20.0380  -29.6478   19.3817 C   0  0  0  0  0  0  0  0  0  0  0  0
  -29.7995  -16.7632   20.2932 C   0  0  0  0  0  0  0  0  0  0  0  0
  -25.6982  -35.8082   25.8024 C   0  0  0  0  0  0  0  0  0  0  0  0
  -25.6479  -31.3920   20.4162 C   0  0  0  0  0  0  0  0  0  0  0  0
  -28.4269  -19.6652   19.6067 C   0  0  0  0  0  0  0  0  0  0  0  0
  -28.6655  -21.1564   22.1842 C   0  0  0  0  0  0  0  0  0  0  0  0
  -23.6268  -29.4187   21.2915 C   0  0  0  0  0  0  0  0  0  0  0  0
  -24.5246  -34.8968   25.4525 C   0  0  0  0  0  0  0  0  0  0  0  0
  -28.3692  -19.6581   22.1161 C   0  0  0  0  0  0  0  0  0  0  0  0
  -29.7419  -13.5756   18.7082 C   0  0  0  0  0  0  0  0  0  0  0  0
  -24.9254  -33.4319   25.5946 C   0  0  0  0  0  0  0  0  0  0  0  0
  -28.4730  -12.9185   19.2541 C   0  0  0  0  0  0  0  0  0  0  0  0
  -30.4368  -14.4278   19.7679 C   0  0  0  0  0  0  0  0  0  0  0  0
  -28.3077  -14.7810   20.9578 C   0  0  0  0  0  0  0  0  0  0  0  0
  -26.0648  -33.0758   24.6320 C   0  0  1  0  0  0  0  0  0  0  0  0
  -24.5479  -31.7554   21.4089 C   0  0  1  0  0  0  0  0  0  0  0  0
  -27.5417  -13.9561   19.9094 C   0  0  2  0  0  0  0  0  0  0  0  0
  -29.0189  -19.0457   20.8764 C   0  0  1  0  0  0  0  0  0  0  0  0
  -17.7030  -29.6415   18.4625 C   0  0  0  0  0  0  0  0  0  0  0  0
  -21.0510  -30.4271   24.1232 C   0  0  0  0  0  0  0  0  0  0  0  0
  -19.0292  -29.5576   22.9296 C   0  0  0  0  0  0  0  0  0  0  0  0
  -19.5231  -32.0027   22.9243 C   0  0  0  0  0  0  0  0  0  0  0  0
  -21.0104  -29.8596   16.5945 C   0  0  0  0  0  0  0  0  0  0  0  0
  -28.0670  -25.4676   19.6948 C   0  0  0  0  0  0  0  0  0  1  0  0
  -20.9580  -30.4454   21.5431 C   0  0  1  0  0  0  0  0  0  0  0  0
  -19.1411  -30.0812   18.2362 C   0  0  2  0  0  0  0  0  0  0  0  0
  -20.1664  -30.5998   22.8723 C   0  0  0  0  0  0  0  0  0  0  0  0
  -26.3907  -12.0592   20.9863 N   0  0  0  0  0  0  0  0  0  0  0  0
  -26.3004  -13.3055   20.4915 N   0  0  0  0  0  0  0  0  0  0  0  0
  -23.3849  -30.8708   21.3127 N   0  0  0  0  0  0  0  0  0  0  0  0
  -29.4995  -15.3921   20.3489 N   0  0  0  0  0  0  0  0  0  0  0  0
  -24.7847  -15.0899   20.1323 N   0  0  0  0  0  0  0  0  0  0  0  0
  -22.2242  -11.9259   22.0890 N   0  0  0  0  0  0  0  0  0  0  0  0
  -25.5552  -32.8991   23.2891 N   0  0  0  0  0  0  0  0  0  0  0  0
  -20.1510  -30.6308   20.3420 N   0  0  0  0  0  0  0  0  0  0  0  0
  -28.8550  -17.6092   20.8615 N   0  0  0  0  0  0  0  0  0  0  0  0
  -19.6170  -29.4903   16.9535 N   0  3  0  0  0  0  0  0  0  0  0  0
  -22.2159  -14.0380   21.1959 O   0  0  0  0  0  0  0  0  0  0  0  0
  -24.8951  -30.6741   23.4790 O   0  0  0  0  0  0  0  0  0  0  0  0
  -21.8672  -32.6347   21.4591 O   0  0  0  0  0  0  0  0  0  0  0  0
  -20.5808  -28.5459   19.4224 O   0  0  0  0  0  0  0  0  0  0  0  0
  -30.8300  -17.2014   19.7707 O   0  0  0  0  0  0  0  0  0  0  0  0
  -23.9168   -6.8874   23.7578 O   0  0  0  0  0  0  0  0  0  0  0  0
  -26.7837  -25.8466   20.1905 O   0  0  0  0  0  0  0  0  0  1  0  0
  -19.2922   -4.3561   22.1422 F   0  0  0  0  0  0  0  0  0  0  0  0
  -24.0023   -4.3731   22.6117 F   0  0  0  0  0  0  0  0  0  0  0  0
  1  2  1  0  0  0  0
  1  5  2  0  0  0  0
  2  6  2  0  0  0  0
  3 10  2  0  0  0  0
  3 18  1  0  0  0  0
  4 11  1  0  0  0  0
  4 18  2  0  0  0  0
  5 20  1  0  0  0  0
  6 23  1  0  0  0  0
  7  9  2  0  0  0  0
  7 21  1  0  0  0  0
  8 12  2  0  0  0  0
  8 22  1  0  0  0  0
  9 26  1  0  0  0  0
 10 27  1  0  0  0  0
 11 27  2  0  0  0  0
 12 28  1  0  0  0  0
 13 14  2  0  0  0  0
 13 29  1  0  0  0  0
 14 30  1  0  0  0  0
 15 24  1  0  0  0  0
 15 26  2  0  0  0  0
 16 25  1  0  0  0  0
 16 28  2  0  0  0  0
 17 30  2  0  0  0  0
 17 31  1  0  0  0  0
 18 32  1  0  0  0  0
 19 32  1  0  0  0  0
 19 33  2  0  0  0  0
 19 34  1  0  0  0  0
 20 23  2  0  0  0  0
 20 39  1  0  0  0  0
 21 24  2  0  0  0  0
 21 41  1  0  0  0  0
 22 25  2  0  0  0  0
 22 40  1  0  0  0  0
 23 51  1  0  0  0  0
 24 42  1  0  0  0  0
 25 43  1  0  0  0  0
 26 60  1  0  0  0  0
 27 79  1  0  0  0  0
 28 80  1  0  0  0  0
 29 31  2  0  0  0  0
 29 79  1  0  0  0  0
 30 81  1  0  0  0  0
 31 82  1  0  0  0  0
 32 64  2  0  0  0  0
 33 65  1  0  0  0  0
 33 68  1  0  0  0  0
 34 69  1  0  0  0  0
 34 74  2  0  0  0  0
 35 52  1  0  0  0  0
 35 70  1  0  0  0  0
 35 75  2  0  0  0  0
 36 61  1  0  0  0  0
 36 66  1  0  0  0  0
 36 76  2  0  0  0  0
 37 62  1  0  0  0  0
 37 71  1  0  0  0  0
 37 77  2  0  0  0  0
 38 67  1  0  0  0  0
 38 72  1  0  0  0  0
 38 78  2  0  0  0  0
 39 44  1  0  0  0  0
 40 52  1  0  0  0  0
 41 54  1  0  0  0  0
 42 45  1  0  0  0  0
 43 66  1  0  0  0  0
 44 47  1  0  0  0  0
 45 54  1  0  0  0  0
 46 48  1  0  0  0  0
 46 49  1  0  0  0  0
 47 51  1  0  0  0  0
 48 53  1  0  0  0  0
 49 67  1  0  0  0  0
 50 53  1  0  0  0  0
 50 67  1  0  0  0  0
 51 70  1  0  0  0  0
 52 66  1  0  0  0  0
 53 65  1  0  0  0  0
 54 72  1  0  0  0  0
 55 62  1  0  0  0  0
 56 63  1  0  0  0  0
 57 63  1  0  0  0  0
 58 63  1  0  0  0  0
 59 73  1  0  0  0  0
 60 80  1  0  0  0  0
 61 63  1  0  0  0  0
 61 71  1  0  0  0  0
 62 73  1  0  0  0  0
 64 65  1  0  0  0  0
M  CHG  1  73   1
M  ISO  4  38 100  60 101  72 100  80 101
M  END
> <Batch ID>
0134

> <Smiles>
CNC(C)C(=O)NC(C(=O)N1Cc2cc([101O:1][101CH2:1]c3ccc4c(c3)CCC([100NH:0][100C:0](=O)N3CCCC(n5nc(-c6ccc(Oc7ccc(F)cc7F)cc6)c(C(N)=O)c5N)C3)C4)ccc2CC1C(=O)NC1CCCc2ccccc21)C(C)(C)C

> <Shape>
0.342

> <Color>
0.146

> <Negative vol penalty>
0.000

$$$$

  -OEChem-04052320573D

 89 98  0     1  0  0  0  0  0999 V2000
  -20.8554  -33.0449   18.9114 C   0  0  0  0  0  0  0  0  0  0  0  0
  -21.1311  -31.7171   18.6010 C   0  0  0  0  0  0  0  0  0  0  0  0
  -22.9349  -10.0116   19.9906 C   0  0  0  0  0  0  0  0  0  0  0  0
  -23.7556   -9.9225   22.2611 C   0  0  0  0  0  0  0  0  0  0  0  0
  -21.0795  -33.5185   20.2035 C   0  0  0  0  0  0  0  0  0  0  0  0
  -21.6321  -30.8624   19.5822 C   0  0  0  0  0  0  0  0  0  0  0  0
  -21.4405  -24.0031   21.6387 C   0  0  0  0  0  0  0  0  0  0  0  0
  -22.1493   -8.8842   20.2302 C   0  0  0  0  0  0  0  0  0  0  0  0
  -22.9699   -8.7951   22.5009 C   0  0  0  0  0  0  0  0  0  0  0  0
  -22.2966  -22.9508   21.9605 C   0  0  0  0  0  0  0  0  0  0  0  0
  -23.1033   -5.4807   21.8467 C   0  0  0  0  0  0  0  0  0  0  0  0
  -23.6934   -4.4108   22.5195 C   0  0  0  0  0  0  0  0  0  0  0  0
  -22.5696  -23.8591   24.1785 C   0  0  0  0  0  0  0  0  0  0  0  0
  -31.8207  -19.0730   22.8237 C   0  0  0  0  0  0  0  0  0  0  0  0
  -30.0136  -17.4862   22.7923 C   0  0  0  0  0  0  0  0  0  0  0  0
  -22.0473   -4.6080   24.2770 C   0  0  0  0  0  0  0  0  0  0  0  0
  -23.7381  -10.5307   21.0060 C   0  0  0  0  0  0  0  0  0  0  0  0
  -24.1843  -13.0416   20.9442 C   0  0  0  0  0  0  0  0  0  0  0  0
  -21.5744  -32.6667   21.2035 C   0  0  0  0  0  0  0  0  0  0  0  0
  -21.1506  -24.9989   22.5826 C   0  0  0  0  0  0  0  0  0  0  0  0
  -21.8643  -31.3254   20.8885 C   0  0  0  0  0  0  0  0  0  0  0  0
  -21.7075  -24.9216   23.8671 C   0  0  0  0  0  0  0  0  0  0  0  0
  -30.5518  -18.6870   23.2413 C   0  0  0  0  0  0  0  0  0  0  0  0
  -22.1668   -8.2760   21.4854 C   0  0  0  0  0  0  0  0  0  0  0  0
  -22.8636  -22.8803   23.2296 C   0  0  0  0  0  0  0  0  0  0  0  0
  -21.9853   -6.1144   22.3892 C   0  0  0  0  0  0  0  0  0  0  0  0
  -23.1654   -3.9744   23.7345 C   0  0  0  0  0  0  0  0  0  0  0  0
  -21.4573   -5.6780   23.6042 C   0  0  0  0  0  0  0  0  0  0  0  0
  -24.5502  -11.6950   20.7589 C   0  0  0  0  0  0  0  0  0  0  0  0
  -32.5049  -18.2294   21.9636 C   0  0  0  0  0  0  0  0  0  0  0  0
  -30.7787  -16.7137   21.9334 C   0  0  0  0  0  0  0  0  0  0  0  0
  -25.2975  -13.7544   20.5707 C   0  0  0  0  0  0  0  0  0  0  0  0
  -22.9488  -13.5985   21.4122 C   0  0  0  0  0  0  0  0  0  0  0  0
  -21.6123  -28.1397   22.7434 C   0  0  0  0  0  0  0  0  0  0  0  0
  -19.8547  -27.8662   25.4560 C   0  0  0  0  0  0  0  0  0  0  0  0
  -18.7603  -25.8872   28.0119 C   0  0  0  0  0  0  0  0  0  0  0  0
  -30.8061  -14.5638   20.6204 C   0  0  0  0  0  0  0  0  0  0  0  0
  -21.8452  -33.2362   22.5736 C   0  0  0  0  0  0  0  0  0  0  0  0
  -20.2041  -26.1129   22.2285 C   0  0  0  0  0  0  0  0  0  0  0  0
  -21.4122  -25.9543   24.9229 C   0  0  0  0  0  0  0  0  0  0  0  0
  -22.0243  -32.1704   23.6517 C   0  0  0  0  0  0  0  0  0  0  0  0
  -28.4354  -23.3563   23.3731 C   0  0  0  0  0  0  0  0  0  0  0  0
  -29.5263  -12.2662   18.2204 C   0  0  0  0  0  0  0  0  0  0  0  0
  -22.9611  -31.0699   23.1639 C   0  0  0  0  0  0  0  0  0  0  0  0
  -27.1464  -22.8197   22.7442 C   0  0  0  0  0  0  0  0  0  0  0  0
  -28.0875  -12.0236   18.6821 C   0  0  0  0  0  0  0  0  0  0  0  0
  -28.7159  -22.4851   24.5986 C   0  0  0  0  0  0  0  0  0  0  0  0
  -30.4822  -12.4226   19.4017 C   0  0  0  0  0  0  0  0  0  0  0  0
  -28.6458  -13.1878   20.8546 C   0  0  0  0  0  0  0  0  0  0  0  0
  -22.3853  -30.3611   21.9320 C   0  0  1  0  0  0  0  0  0  0  0  0
  -20.3848  -27.3507   23.1017 C   0  0  1  0  0  0  0  0  0  0  0  0
  -26.6363  -21.7392   23.7038 C   0  0  2  0  0  0  0  0  0  0  0  0
  -27.6352  -13.0886   19.7003 C   0  0  2  0  0  0  0  0  0  0  0  0
  -27.9043  -21.2144   24.3805 C   0  0  1  0  0  0  0  0  0  0  0  0
  -33.8689  -18.6119   21.4941 C   0  0  0  0  0  0  0  0  0  0  0  0
  -17.3672  -25.9548   30.0981 C   0  0  0  0  0  0  0  0  0  0  0  0
  -22.1170  -29.3004   26.9173 C   0  0  0  0  0  0  0  0  0  0  0  0
  -21.1329  -28.5043   29.0774 C   0  0  0  0  0  0  0  0  0  0  0  0
  -19.8186  -30.0182   27.5929 C   0  0  0  0  0  0  0  0  0  0  0  0
  -16.8674  -23.8739   26.9523 C   0  0  0  0  0  0  0  0  0  0  0  0
  -24.5929  -18.5399   23.4839 C   0  0  0  0  0  0  0  0  0  0  0  0
  -29.7665  -19.5628   24.1726 C   0  0  0  0  0  0  0  0  0  0  0  0
  -24.4685  -21.2916   22.4835 C   0  0  0  0  0  0  0  0  0  1  0  0
  -20.1665  -27.6087   26.9105 C   0  0  1  0  0  0  0  0  0  0  0  0
  -17.3777  -25.6779   28.6028 C   0  0  2  0  0  0  0  0  0  0  0  0
  -25.7651  -20.6963   23.0206 C   0  0  2  0  0  0  0  0  0  0  0  0
  -20.8160  -28.8393   27.6042 C   0  0  0  0  0  0  0  0  0  0  0  0
  -25.7982  -11.5577   20.3029 N   0  0  0  0  0  0  0  0  0  0  0  0
  -32.0149  -17.0555   21.5060 N   0  0  0  0  0  0  0  0  0  0  0  0
  -26.2261  -12.8274   20.1986 N   0  0  0  0  0  0  0  0  0  0  0  0
  -20.4857  -27.0275   24.5264 N   0  0  0  0  0  0  0  0  0  0  0  0
  -29.9916  -13.4511   20.3216 N   0  0  0  0  0  0  0  0  0  0  0  0
  -25.5626  -15.0773   20.5276 N   0  0  0  0  0  0  0  0  0  0  0  0
  -21.9083  -12.7236   21.7531 N   0  0  0  0  0  0  0  0  0  0  0  0
  -30.2211  -15.4921   21.4811 N   0  0  0  0  0  0  0  0  0  0  0  0
  -21.3492  -29.4295   22.3231 N   0  0  0  0  0  0  0  0  0  0  0  0
  -18.9186  -27.1669   27.5235 N   0  0  0  0  0  0  0  0  0  0  0  0
  -28.6641  -20.2944   23.4936 N   0  3  0  0  0  0  0  0  0  0  0  0
  -16.9269  -24.2747   28.3816 N   0  3  0  0  0  0  0  0  0  0  0  0
  -25.4241  -19.6460   24.0234 N   0  3  0  0  0  0  0  0  0  0  0  0
  -22.7671  -14.8359   21.5091 O   0  0  0  0  0  0  0  0  0  0  0  0
  -22.7164  -27.6174   22.8423 O   0  0  0  0  0  0  0  0  0  0  0  0
  -19.0744  -28.7733   25.1562 O   0  0  0  0  0  0  0  0  0  0  0  0
  -19.6157  -25.0049   27.9895 O   0  0  0  0  0  0  0  0  0  0  0  0
  -31.9284  -14.6979   20.1261 O   0  0  0  0  0  0  0  0  0  0  0  0
  -21.4001   -7.1760   21.7197 O   0  0  0  0  0  0  0  0  0  0  0  0
  -23.7001  -21.8546   23.5461 O   0  0  0  0  0  0  0  0  0  1  0  0
  -23.7312   -2.9458   24.3797 F   0  0  0  0  0  0  0  0  0  0  0  0
  -20.3827   -6.2820   24.1297 F   0  0  0  0  0  0  0  0  0  0  0  0
  1  2  1  0  0  0  0
  1  5  2  0  0  0  0
  2  6  2  0  0  0  0
  3  8  2  0  0  0  0
  3 17  1  0  0  0  0
  4  9  1  0  0  0  0
  4 17  2  0  0  0  0
  5 19  1  0  0  0  0
  6 21  1  0  0  0  0
  7 10  2  0  0  0  0
  7 20  1  0  0  0  0
  8 24  1  0  0  0  0
  9 24  2  0  0  0  0
 10 25  1  0  0  0  0
 11 12  2  0  0  0  0
 11 26  1  0  0  0  0
 12 27  1  0  0  0  0
 13 22  1  0  0  0  0
 13 25  2  0  0  0  0
 14 23  1  0  0  0  0
 14 30  2  0  0  0  0
 15 23  2  0  0  0  0
 15 31  1  0  0  0  0
 16 27  2  0  0  0  0
 16 28  1  0  0  0  0
 17 29  1  0  0  0  0
 18 29  1  0  0  0  0
 18 32  2  0  0  0  0
 18 33  1  0  0  0  0
 19 21  2  0  0  0  0
 19 38  1  0  0  0  0
 20 22  2  0  0  0  0
 20 39  1  0  0  0  0
 21 50  1  0  0  0  0
 22 40  1  0  0  0  0
 23 62  1  0  0  0  0
 24 86  1  0  0  0  0
 25 87  1  0  0  0  0
 26 28  2  0  0  0  0
 26 86  1  0  0  0  0
 27 88  1  0  0  0  0
 28 89  1  0  0  0  0
 29 68  2  0  0  0  0
 30 55  1  0  0  0  0
 30 69  1  0  0  0  0
 31 69  2  0  0  0  0
 31 75  1  0  0  0  0
 32 70  1  0  0  0  0
 32 73  1  0  0  0  0
 33 74  1  0  0  0  0
 33 81  2  0  0  0  0
 34 51  1  0  0  0  0
 34 76  1  0  0  0  0
 34 82  2  0  0  0  0
 35 64  1  0  0  0  0
 35 71  1  0  0  0  0
 35 83  2  0  0  0  0
 36 65  1  0  0  0  0
 36 77  1  0  0  0  0
 36 84  2  0  0  0  0
 37 72  1  0  0  0  0
 37 75  1  0  0  0  0
 37 85  2  0  0  0  0
 38 41  1  0  0  0  0
 39 51  1  0  0  0  0
 40 71  1  0  0  0  0
 41 44  1  0  0  0  0
 42 45  1  0  0  0  0
 42 47  1  0  0  0  0
 43 46  1  0  0  0  0
 43 48  1  0  0  0  0
 44 50  1  0  0  0  0
 45 52  1  0  0  0  0
 46 53  1  0  0  0  0
 47 54  1  0  0  0  0
 48 72  1  0  0  0  0
 49 53  1  0  0  0  0
 49 72  1  0  0  0  0
 50 76  1  0  0  0  0
 51 71  1  0  0  0  0
 52 54  1  0  0  0  0
 52 66  1  0  0  0  0
 53 70  1  0  0  0  0
 54 78  1  0  0  0  0
 56 65  1  0  0  0  0
 57 67  1  0  0  0  0
 58 67  1  0  0  0  0
 59 67  1  0  0  0  0
 60 79  1  0  0  0  0
 61 80  1  0  0  0  0
 62 78  1  0  0  0  0
 63 66  1  0  0  0  0
 63 87  1  0  0  0  0
 64 67  1  0  0  0  0
 64 77  1  0  0  0  0
 65 79  1  0  0  0  0
 66 80  1  0  0  0  0
 68 70  1  0  0  0  0
M  CHG  3  78   1  79   1  80   1
M  ISO  4  37 100  63 101  75 100  87 101
M  END
> <Batch ID>
0134

> <Smiles>
CNC(C)C(=O)NC(C(=O)N1Cc2cc([101O:1][101CH2:1]C(NC)C3CCCC3NCc3cc(C)nc([100NH:0][100C:0](=O)N4CCCC(n5nc(-c6ccc(Oc7ccc(F)cc7F)cc6)c(C(N)=O)c5N)C4)c3)ccc2CC1C(=O)NC1CCCc2ccccc21)C(C)(C)C

> <Shape>
0.239

> <Color>
0.204

> <Negative vol penalty>
0.000

$$$$

  -OEChem-04052320573D

 85 93  0     1  0  0  0  0  0999 V2000
  -21.9244  -31.3656   22.7718 C   0  0  0  0  0  0  0  0  0  0  0  0
  -21.5544  -30.0325   22.9173 C   0  0  0  0  0  0  0  0  0  0  0  0
  -26.4434  -12.9069   21.5298 C   0  0  0  0  0  0  0  0  0  0  0  0
  -26.0977  -13.6894   19.2704 C   0  0  0  0  0  0  0  0  0  0  0  0
  -23.0968  -31.6922   22.0916 C   0  0  0  0  0  0  0  0  0  0  0  0
  -22.3560  -29.0251   22.3817 C   0  0  0  0  0  0  0  0  0  0  0  0
  -24.4132  -22.2759   23.6201 C   0  0  0  0  0  0  0  0  0  0  0  0
  -23.6040  -18.2029   18.7668 C   0  0  0  0  0  0  0  0  0  0  0  0
  -25.1883  -12.2986   21.5112 C   0  0  0  0  0  0  0  0  0  0  0  0
  -24.8426  -13.0811   19.2517 C   0  0  0  0  0  0  0  0  0  0  0  0
  -24.4824  -21.0372   22.9842 C   0  0  0  0  0  0  0  0  0  0  0  0
  -23.8069   -9.4749   20.2656 C   0  0  0  0  0  0  0  0  0  0  0  0
  -23.7090   -8.1754   20.7627 C   0  0  0  0  0  0  0  0  0  0  0  0
  -24.2143  -18.3044   20.0121 C   0  0  0  0  0  0  0  0  0  0  0  0
  -26.5265  -21.7158   21.8977 C   0  0  0  0  0  0  0  0  0  0  0  0
  -22.1280   -8.9308   22.4261 C   0  0  0  0  0  0  0  0  0  0  0  0
  -26.8981  -13.6023   20.4094 C   0  0  0  0  0  0  0  0  0  0  0  0
  -29.4219  -13.6605   20.0425 C   0  0  0  0  0  0  0  0  0  0  0  0
  -23.9183  -30.6878   21.5557 C   0  0  0  0  0  0  0  0  0  0  0  0
  -25.3959  -23.2496   23.3908 C   0  0  0  0  0  0  0  0  0  0  0  0
  -23.5398  -29.3386   21.6924 C   0  0  0  0  0  0  0  0  0  0  0  0
  -26.4688  -22.9652   22.5339 C   0  0  0  0  0  0  0  0  0  0  0  0
  -23.7855  -19.2102   17.8256 C   0  0  0  0  0  0  0  0  0  0  0  0
  -24.3879  -12.3857   20.3722 C   0  0  0  0  0  0  0  0  0  0  0  0
  -25.5376  -20.7580   22.1206 C   0  0  0  0  0  0  0  0  0  0  0  0
  -23.0655  -10.5025   20.8488 C   0  0  0  0  0  0  0  0  0  0  0  0
  -22.8695   -7.9033   21.8429 C   0  0  0  0  0  0  0  0  0  0  0  0
  -22.2260  -10.2304   21.9290 C   0  0  0  0  0  0  0  0  0  0  0  0
  -28.1942  -14.2314   20.4283 C   0  0  0  0  0  0  0  0  0  0  0  0
  -24.5803  -20.2897   18.1761 C   0  0  0  0  0  0  0  0  0  0  0  0
  -24.9899  -19.4244   20.2647 C   0  0  0  0  0  0  0  0  0  1  0  0
  -30.3435  -14.6583   20.2461 C   0  0  0  0  0  0  0  0  0  0  0  0
  -29.7039  -12.3459   19.5445 C   0  0  0  0  0  0  0  0  0  0  0  0
  -25.4041  -26.1842   22.1694 C   0  0  0  0  0  0  0  0  0  0  0  0
  -28.5064  -26.1492   23.1164 C   0  0  0  0  0  0  0  0  0  0  0  0
  -31.2772  -24.3155   23.8955 C   0  0  0  0  0  0  0  0  0  0  0  0
  -29.9221  -20.6290   20.4002 C   0  0  0  0  0  0  0  0  0  0  0  0
  -25.1517  -31.0918   20.7875 C   0  0  0  0  0  0  0  0  0  0  0  0
  -25.3212  -24.5712   24.1051 C   0  0  0  0  0  0  0  0  0  0  0  0
  -27.5602  -23.9689   22.2697 C   0  0  0  0  0  0  0  0  0  0  0  0
  -26.1389  -29.9471   20.5747 C   0  0  0  0  0  0  0  0  0  0  0  0
  -31.1586  -18.5030   22.9746 C   0  0  0  0  0  0  0  0  0  0  0  0
  -25.4094  -28.6943   20.1002 C   0  0  0  0  0  0  0  0  0  0  0  0
  -30.6498  -17.1156   22.5792 C   0  0  0  0  0  0  0  0  0  0  0  0
  -30.1431  -19.5932   22.6395 C   0  0  0  0  0  0  0  0  0  0  0  0
  -29.1727  -18.2127   20.8433 C   0  0  0  0  0  0  0  0  0  0  0  0
  -24.3959  -28.2162   21.1469 C   0  0  1  0  0  0  0  0  0  0  0  0
  -26.1010  -25.6765   23.3999 C   0  0  1  0  0  0  0  0  0  0  0  0
  -30.1856  -17.0863   21.1105 C   0  0  2  0  0  0  0  0  0  0  0  0
  -21.5932  -19.0922   16.5872 C   0  0  0  0  0  0  0  0  0  0  0  0
  -23.6160  -17.8869   15.6869 C   0  0  0  0  0  0  0  0  0  0  0  0
  -33.6736  -24.5680   24.5963 C   0  0  0  0  0  0  0  0  0  0  0  0
  -29.2557  -26.9307   20.2637 C   0  0  0  0  0  0  0  0  0  0  0  0
  -31.6103  -26.2459   20.7688 C   0  0  0  0  0  0  0  0  0  0  0  0
  -30.5551  -28.1119   22.0444 C   0  0  0  0  0  0  0  0  0  0  0  0
  -30.8102  -22.8613   26.4306 C   0  0  0  0  0  0  0  0  0  0  0  0
  -24.8095  -21.4012   17.2051 C   0  0  0  0  0  0  0  0  0  0  0  0
  -29.6498  -21.5219   18.1007 C   0  0  0  0  0  0  0  0  0  0  0  0
  -25.9584  -22.3351   17.5849 C   0  0  0  0  0  0  0  0  0  0  0  0
  -28.4132  -22.3993   18.0417 C   0  0  0  0  0  0  0  0  0  0  0  0
  -23.1312  -19.1089   16.4912 C   0  0  0  0  0  0  0  0  0  0  0  0
  -29.8129  -25.7352   22.4833 C   0  0  1  0  0  0  0  0  0  0  0  0
  -32.2386  -24.3916   25.0679 C   0  0  2  0  0  0  0  0  0  0  0  0
  -30.2871  -26.7375   21.3933 C   0  0  0  0  0  0  0  0  0  0  0  0
  -28.3211  -15.4938   20.8455 N   0  0  0  0  0  0  0  0  0  0  0  0
  -25.1893  -20.4232   19.3756 N   0  0  0  0  0  0  0  0  0  0  0  0
  -29.6394  -15.7245   20.7232 N   0  0  0  0  0  0  0  0  0  0  0  0
  -27.4393  -25.2490   22.9869 N   0  0  0  0  0  0  0  0  0  0  0  0
  -29.7453  -19.5111   21.2320 N   0  0  0  0  0  0  0  0  0  0  0  0
  -31.6795  -14.7188   20.0619 N   0  0  0  0  0  0  0  0  0  0  0  0
  -28.6403  -11.4453   19.3962 N   0  0  0  0  0  0  0  0  0  0  0  0
  -25.0703  -27.5240   22.2242 N   0  0  0  0  0  0  0  0  0  0  0  0
  -30.7581  -25.5532   23.5795 N   0  0  0  0  0  0  0  0  0  0  0  0
  -29.5249  -20.4644   19.0789 N   0  0  0  0  0  0  0  0  0  0  0  0
  -32.1614  -23.1462   25.8828 N   0  3  0  0  0  0  0  0  0  0  0  0
  -27.2199  -21.5671   17.7276 N   0  3  0  0  0  0  0  0  0  0  0  0
  -30.8670  -11.9753   19.2557 O   0  0  0  0  0  0  0  0  0  0  0  0
  -25.1867  -25.4175   21.2385 O   0  0  0  0  0  0  0  0  0  0  0  0
  -28.4373  -27.2281   23.7103 O   0  0  0  0  0  0  0  0  0  0  0  0
  -31.0159  -23.2639   23.3156 O   0  0  0  0  0  0  0  0  0  0  0  0
  -30.4037  -21.6931   20.8037 O   0  0  0  0  0  0  0  0  0  0  0  0
  -23.1632  -11.7920   20.3536 O   0  0  0  0  0  0  0  0  0  0  0  0
  -25.6072  -19.5499   21.4981 O   0  0  0  0  0  0  0  0  0  1  0  0
  -22.7743   -6.6550   22.3192 F   0  0  0  0  0  0  0  0  0  0  0  0
  -21.5103  -11.2133   22.4926 F   0  0  0  0  0  0  0  0  0  0  0  0
  1  2  1  0  0  0  0
  1  5  2  0  0  0  0
  2  6  2  0  0  0  0
  3  9  2  0  0  0  0
  3 17  1  0  0  0  0
  4 10  1  0  0  0  0
  4 17  2  0  0  0  0
  5 19  1  0  0  0  0
  6 21  1  0  0  0  0
  7 11  2  0  0  0  0
  7 20  1  0  0  0  0
  8 14  2  0  0  0  0
  8 23  1  0  0  0  0
  9 24  1  0  0  0  0
 10 24  2  0  0  0  0
 11 25  1  0  0  0  0
 12 13  2  0  0  0  0
 12 26  1  0  0  0  0
 13 27  1  0  0  0  0
 14 31  1  0  0  0  0
 15 22  1  0  0  0  0
 15 25  2  0  0  0  0
 16 27  2  0  0  0  0
 16 28  1  0  0  0  0
 17 29  1  0  0  0  0
 18 29  1  0  0  0  0
 18 32  2  0  0  0  0
 18 33  1  0  0  0  0
 19 21  2  0  0  0  0
 19 38  1  0  0  0  0
 20 22  2  0  0  0  0
 20 39  1  0  0  0  0
 21 47  1  0  0  0  0
 22 40  1  0  0  0  0
 23 30  2  0  0  0  0
 23 61  1  0  0  0  0
 24 82  1  0  0  0  0
 25 83  1  0  0  0  0
 26 28  2  0  0  0  0
 26 82  1  0  0  0  0
 27 84  1  0  0  0  0
 28 85  1  0  0  0  0
 29 65  2  0  0  0  0
 30 57  1  0  0  0  0
 30 66  1  0  0  0  0
 31 66  2  0  0  0  0
 31 83  1  0  0  0  0
 32 67  1  0  0  0  0
 32 70  1  0  0  0  0
 33 71  1  0  0  0  0
 33 77  2  0  0  0  0
 34 48  1  0  0  0  0
 34 72  1  0  0  0  0
 34 78  2  0  0  0  0
 35 62  1  0  0  0  0
 35 68  1  0  0  0  0
 35 79  2  0  0  0  0
 36 63  1  0  0  0  0
 36 73  1  0  0  0  0
 36 80  2  0  0  0  0
 37 69  1  0  0  0  0
 37 74  1  0  0  0  0
 37 81  2  0  0  0  0
 38 41  1  0  0  0  0
 39 48  1  0  0  0  0
 40 68  1  0  0  0  0
 41 43  1  0  0  0  0
 42 44  1  0  0  0  0
 42 45  1  0  0  0  0
 43 47  1  0  0  0  0
 44 49  1  0  0  0  0
 45 69  1  0  0  0  0
 46 49  1  0  0  0  0
 46 69  1  0  0  0  0
 47 72  1  0  0  0  0
 48 68  1  0  0  0  0
 49 67  1  0  0  0  0
 50 61  1  0  0  0  0
 51 61  1  0  0  0  0
 52 63  1  0  0  0  0
 53 64  1  0  0  0  0
 54 64  1  0  0  0  0
 55 64  1  0  0  0  0
 56 75  1  0  0  0  0
 57 59  1  0  0  0  0
 58 60  1  0  0  0  0
 58 74  1  0  0  0  0
 59 76  1  0  0  0  0
 60 76  1  0  0  0  0
 62 64  1  0  0  0  0
 62 73  1  0  0  0  0
 63 75  1  0  0  0  0
 65 67  1  0  0  0  0
M  CHG  2  75   1  76   1
M  ISO  4  31 101  37 100  74 100  83 101
M  END
> <Batch ID>
0134

> <Smiles>
CNC(C)C(=O)NC(C(=O)N1Cc2cc([101O:1][101c:1]3ccc(C(C)C)c(CCNCC[100NH:0][100C:0](=O)N4CCCC(n5nc(-c6ccc(Oc7ccc(F)cc7F)cc6)c(C(N)=O)c5N)C4)n3)ccc2CC1C(=O)NC1CCCc2ccccc21)C(C)(C)C

> <Shape>
0.225

> <Color>
0.064

> <Negative vol penalty>
0.000

$$$$

  -OEChem-04052320573D

 84 93  0     1  0  0  0  0  0999 V2000
  -27.6028  -24.1218   17.0629 C   0  0  0  0  0  0  0  0  0  0  0  0
  -26.4247  -24.4489   17.7267 C   0  0  0  0  0  0  0  0  0  0  0  0
  -25.4233  -13.3733   19.3101 C   0  0  0  0  0  0  0  0  0  0  0  0
  -24.6102  -13.5751   21.5762 C   0  0  0  0  0  0  0  0  0  0  0  0
  -28.8297  -24.5429   17.5742 C   0  0  0  0  0  0  0  0  0  0  0  0
  -26.4730  -25.1965   18.9028 C   0  0  0  0  0  0  0  0  0  0  0  0
  -23.0078  -28.8880   19.0018 C   0  0  0  0  0  0  0  0  0  0  0  0
  -21.2949  -25.2879   21.9877 C   0  0  0  0  0  0  0  0  0  0  0  0
  -22.2599  -24.2982   21.8009 C   0  0  0  0  0  0  0  0  0  0  0  0
  -25.9134  -12.0998   19.5993 C   0  0  0  0  0  0  0  0  0  0  0  0
  -25.1002  -12.3016   21.8654 C   0  0  0  0  0  0  0  0  0  0  0  0
  -21.6954  -28.5216   19.2971 C   0  0  0  0  0  0  0  0  0  0  0  0
  -25.8186   -8.9581   23.0997 C   0  0  0  0  0  0  0  0  0  0  0  0
  -24.9906   -8.0901   23.8115 C   0  0  0  0  0  0  0  0  0  0  0  0
  -22.0077  -29.2592   21.5725 C   0  0  0  0  0  0  0  0  0  0  0  0
  -19.5712  -23.5961   22.0478 C   0  0  0  0  0  0  0  0  0  0  0  0
  -23.3378   -8.2259   22.0545 C   0  0  0  0  0  0  0  0  0  0  0  0
  -24.7718  -14.1110   20.2985 C   0  0  0  0  0  0  0  0  0  0  0  0
  -22.9869  -15.7554   19.5125 C   0  0  0  0  0  0  0  0  0  0  0  0
  -28.8923  -25.3042   18.7520 C   0  0  0  0  0  0  0  0  0  0  0  0
  -23.8348  -29.4336   19.9942 C   0  0  0  0  0  0  0  0  0  0  0  0
  -27.7019  -25.6270   19.4311 C   0  0  0  0  0  0  0  0  0  0  0  0
  -23.3294  -29.6340   21.2867 C   0  0  0  0  0  0  0  0  0  0  0  0
  -19.9506  -24.9369   22.1112 C   0  0  0  0  0  0  0  0  0  0  0  0
  -20.5362  -22.6064   21.8610 C   0  0  0  0  0  0  0  0  0  0  0  0
  -21.8805  -22.9574   21.7376 C   0  0  0  0  0  0  0  0  0  0  0  0
  -25.7518  -11.5639   20.8770 C   0  0  0  0  0  0  0  0  0  0  0  0
  -21.1961  -28.7045   20.5833 C   0  0  0  0  0  0  0  0  0  0  0  0
  -25.4061   -9.4601   21.8653 C   0  0  0  0  0  0  0  0  0  0  0  0
  -23.7503   -7.7240   23.2889 C   0  0  0  0  0  0  0  0  0  0  0  0
  -24.1658   -9.0940   21.3428 C   0  0  0  0  0  0  0  0  0  0  0  0
  -24.2659  -15.4268   20.0005 C   0  0  0  0  0  0  0  0  0  0  0  0
  -23.0045  -17.1240   19.3978 C   0  0  0  0  0  0  0  0  0  0  0  0
  -21.8819  -14.9001   19.1917 C   0  0  0  0  0  0  0  0  0  0  0  0
  -26.5652  -28.5611   21.3681 C   0  0  0  0  0  0  0  0  0  0  0  0
  -26.3325  -31.4718   22.7807 C   0  0  0  0  0  0  0  0  0  0  0  0
  -24.3392  -34.0523   23.7880 C   0  0  0  0  0  0  0  0  0  0  0  0
  -24.2490  -22.1650   21.4084 C   0  0  0  0  0  0  0  0  0  0  0  0
  -30.2449  -25.6964   19.2918 C   0  0  0  0  0  0  0  0  0  0  0  0
  -25.2397  -29.8484   19.6529 C   0  0  0  0  0  0  0  0  0  0  0  0
  -24.1701  -30.2346   22.3826 C   0  0  0  0  0  0  0  0  0  0  0  0
  -30.1843  -26.8038   20.3407 C   0  0  0  0  0  0  0  0  0  0  0  0
  -26.8435  -20.4075   19.7180 C   0  0  0  0  0  0  0  0  0  0  0  0
  -29.0911  -26.5112   21.3634 C   0  0  0  0  0  0  0  0  0  0  0  0
  -18.8294  -19.5961   20.1268 C   0  0  0  0  0  0  0  0  0  0  0  0
  -18.4110  -21.0006   19.7917 C   0  0  0  0  0  0  0  0  0  0  0  0
  -26.2989  -18.9821   19.6006 C   0  0  0  0  0  0  0  0  0  0  0  0
  -26.4442  -21.0601   21.0403 C   0  0  0  0  0  0  0  0  0  0  0  0
  -24.4615  -19.6087   21.2188 C   0  0  0  0  0  0  0  0  0  0  0  0
  -27.7115  -26.4574   20.6961 C   0  0  1  0  0  0  0  0  0  0  0  0
  -26.1548  -29.9185   20.8715 C   0  0  1  0  0  0  0  0  0  0  0  0
  -19.7743  -20.7402   20.3698 C   0  0  0  0  0  0  0  0  0  0  0  0
  -24.7831  -18.9334   19.8755 C   0  0  2  0  0  0  0  0  0  0  0  0
  -24.4311  -36.2756   24.9482 C   0  0  0  0  0  0  0  0  0  0  0  0
  -26.6476  -30.0554   25.4648 C   0  0  0  0  0  0  0  0  0  0  0  0
  -25.7940  -32.1281   26.5799 C   0  0  0  0  0  0  0  0  0  0  0  0
  -27.9120  -32.2038   25.2642 C   0  0  0  0  0  0  0  0  0  0  0  0
  -23.2897  -35.4672   21.4098 C   0  0  0  0  0  0  0  0  0  0  0  0
  -20.1008  -21.1783   21.7940 C   0  0  0  0  0  0  0  0  0  0  0  0
  -18.9073  -26.0071   22.3107 C   0  0  0  0  0  0  0  0  0  0  0  0
  -18.3276  -26.5534   21.0042 C   0  0  0  0  0  0  0  0  0  0  0  0
  -19.3605  -27.2605   20.1344 C   0  0  0  0  0  0  0  0  0  1  0  0
  -25.7046  -31.9976   24.0489 C   0  0  1  0  0  0  0  0  0  0  0  0
  -24.4691  -35.5543   23.6099 C   0  0  2  0  0  0  0  0  0  0  0  0
  -26.4991  -31.5831   25.3195 C   0  0  0  0  0  0  0  0  0  0  0  0
  -25.0396  -16.5001   20.1831 N   0  0  0  0  0  0  0  0  0  0  0  0
  -24.2446  -17.5166   19.8077 N   0  0  0  0  0  0  0  0  0  0  0  0
  -25.5393  -30.6182   22.0010 N   0  0  0  0  0  0  0  0  0  0  0  0
  -24.9943  -20.9801   21.2308 N   0  0  0  0  0  0  0  0  0  0  0  0
  -22.0799  -18.0178   18.9871 N   0  0  0  0  0  0  0  0  0  0  0  0
  -22.0335  -13.5180   19.3684 N   0  0  0  0  0  0  0  0  0  0  0  0
  -22.8757  -21.9669   21.5472 N   0  0  0  0  0  0  0  0  0  0  0  0
  -27.2272  -27.7946   20.4280 N   0  0  0  0  0  0  0  0  0  0  0  0
  -25.5716  -33.4395   23.8712 N   0  0  0  0  0  0  0  0  0  0  0  0
  -23.3572  -36.0737   22.7643 N   0  3  0  0  0  0  0  0  0  0  0  0
  -20.7979  -15.3467   18.7455 O   0  0  0  0  0  0  0  0  0  0  0  0
  -26.3020  -28.2339   22.5193 O   0  0  0  0  0  0  0  0  0  0  0  0
  -27.4818  -31.8119   22.4889 O   0  0  0  0  0  0  0  0  0  0  0  0
  -23.2532  -33.4805   23.8510 O   0  0  0  0  0  0  0  0  0  0  0  0
  -24.7861  -23.2756   21.4080 O   0  0  0  0  0  0  0  0  0  0  0  0
  -26.2296  -10.3212   21.1595 O   0  0  0  0  0  0  0  0  0  0  0  0
  -19.9156  -28.3471   20.8743 O   0  0  0  0  0  0  0  0  0  1  0  0
  -22.9560   -6.8892   23.9719 F   0  0  0  0  0  0  0  0  0  0  0  0
  -23.7646   -9.5720   20.1569 F   0  0  0  0  0  0  0  0  0  0  0  0
  1  2  1  0  0  0  0
  1  5  2  0  0  0  0
  2  6  2  0  0  0  0
  3 10  2  0  0  0  0
  3 18  1  0  0  0  0
  4 11  1  0  0  0  0
  4 18  2  0  0  0  0
  5 20  1  0  0  0  0
  6 22  1  0  0  0  0
  7 12  2  0  0  0  0
  7 21  1  0  0  0  0
  8  9  2  0  0  0  0
  8 24  1  0  0  0  0
  9 26  1  0  0  0  0
 10 27  1  0  0  0  0
 11 27  2  0  0  0  0
 12 28  1  0  0  0  0
 13 14  2  0  0  0  0
 13 29  1  0  0  0  0
 14 30  1  0  0  0  0
 15 23  1  0  0  0  0
 15 28  2  0  0  0  0
 16 24  2  0  0  0  0
 16 25  1  0  0  0  0
 17 30  2  0  0  0  0
 17 31  1  0  0  0  0
 18 32  1  0  0  0  0
 19 32  1  0  0  0  0
 19 33  2  0  0  0  0
 19 34  1  0  0  0  0
 20 22  2  0  0  0  0
 20 39  1  0  0  0  0
 21 23  2  0  0  0  0
 21 40  1  0  0  0  0
 22 50  1  0  0  0  0
 23 41  1  0  0  0  0
 24 60  1  0  0  0  0
 25 26  2  0  0  0  0
 25 59  1  0  0  0  0
 26 72  1  0  0  0  0
 27 81  1  0  0  0  0
 28 82  1  0  0  0  0
 29 31  2  0  0  0  0
 29 81  1  0  0  0  0
 30 83  1  0  0  0  0
 31 84  1  0  0  0  0
 32 66  2  0  0  0  0
 33 67  1  0  0  0  0
 33 70  1  0  0  0  0
 34 71  1  0  0  0  0
 34 76  2  0  0  0  0
 35 51  1  0  0  0  0
 35 73  1  0  0  0  0
 35 77  2  0  0  0  0
 36 63  1  0  0  0  0
 36 68  1  0  0  0  0
 36 78  2  0  0  0  0
 37 64  1  0  0  0  0
 37 74  1  0  0  0  0
 37 79  2  0  0  0  0
 38 69  1  0  0  0  0
 38 72  1  0  0  0  0
 38 80  2  0  0  0  0
 39 42  1  0  0  0  0
 40 51  1  0  0  0  0
 41 68  1  0  0  0  0
 42 44  1  0  0  0  0
 43 47  1  0  0  0  0
 43 48  1  0  0  0  0
 44 50  1  0  0  0  0
 45 46  1  0  0  0  0
 45 52  1  0  0  0  0
 46 52  1  0  0  0  0
 47 53  1  0  0  0  0
 48 69  1  0  0  0  0
 49 53  1  0  0  0  0
 49 69  1  0  0  0  0
 50 73  1  0  0  0  0
 51 68  1  0  0  0  0
 52 59  1  0  0  0  0
 53 67  1  0  0  0  0
 54 64  1  0  0  0  0
 55 65  1  0  0  0  0
 56 65  1  0  0  0  0
 57 65  1  0  0  0  0
 58 75  1  0  0  0  0
 60 61  1  0  0  0  0
 61 62  1  0  0  0  0
 62 82  1  0  0  0  0
 63 65  1  0  0  0  0
 63 74  1  0  0  0  0
 64 75  1  0  0  0  0
 66 67  1  0  0  0  0
M  CHG  1  75   1
M  ISO  4  38 100  62 101  72 100  82 101
M  END
> <Batch ID>
0134

> <Smiles>
CNC(C)C(=O)NC(C(=O)N1Cc2cc([101O:1][101CH2:1]CCc3ccc([100NH:0][100C:0](=O)N4CCCC(n5nc(-c6ccc(Oc7ccc(F)cc7F)cc6)c(C(N)=O)c5N)C4)c(CC4CC4)c3)ccc2CC1C(=O)NC1CCCc2ccccc21)C(C)(C)C

> <Shape>
0.274

> <Color>
0.080

> <Negative vol penalty>
0.000

$$$$

  -OEChem-04052320573D

 85 94  0     1  0  0  0  0  0999 V2000
  -18.9755  -24.2960   22.0836 C   0  0  0  0  0  0  0  0  0  0  0  0
  -20.2077  -24.5463   21.4883 C   0  0  0  0  0  0  0  0  0  0  0  0
  -23.8533  -20.5535   14.7703 C   0  0  0  0  0  0  0  0  0  0  0  0
  -20.6653  -12.9944   22.0449 C   0  0  0  0  0  0  0  0  0  0  0  0
  -20.3844  -13.3250   19.6682 C   0  0  0  0  0  0  0  0  0  0  0  0
  -18.1790  -25.3587   22.5081 C   0  0  0  0  0  0  0  0  0  0  0  0
  -20.6436  -25.8596   21.3161 C   0  0  0  0  0  0  0  0  0  0  0  0
  -24.7821  -21.5941   14.7704 C   0  0  0  0  0  0  0  0  0  0  0  0
  -25.4957  -26.4835   22.6251 C   0  0  0  0  0  0  0  0  0  0  0  0
  -23.3010  -20.1114   15.9725 C   0  0  0  0  0  0  0  0  0  0  0  0
  -19.4872  -12.2485   22.0805 C   0  0  0  0  0  0  0  0  0  0  0  0
  -19.2062  -12.5791   19.7037 C   0  0  0  0  0  0  0  0  0  0  0  0
  -26.4609  -26.0515   21.7165 C   0  0  0  0  0  0  0  0  0  0  0  0
  -18.5028   -9.1082   21.3045 C   0  0  0  0  0  0  0  0  0  0  0  0
  -18.5138   -7.9127   22.0231 C   0  0  0  0  0  0  0  0  0  0  0  0
  -24.6066  -21.7505   17.1749 C   0  0  0  0  0  0  0  0  0  0  0  0
  -26.7572  -28.3231   20.9607 C   0  0  0  0  0  0  0  0  0  0  0  0
  -16.7559   -8.7547   23.4506 C   0  0  0  0  0  0  0  0  0  0  0  0
  -21.1139  -13.5327   20.8388 C   0  0  0  0  0  0  0  0  0  0  0  0
  -23.6351  -13.8232   20.5803 C   0  0  0  0  0  0  0  0  0  0  0  0
  -25.1588  -22.1926   15.9727 C   0  0  0  0  0  0  0  0  0  0  0  0
  -18.6096  -26.6854   22.3497 C   0  0  0  0  0  0  0  0  0  0  0  0
  -25.1456  -27.8392   22.7009 C   0  0  0  0  0  0  0  0  0  0  0  0
  -19.8515  -26.9411   21.7376 C   0  0  0  0  0  0  0  0  0  0  0  0
  -25.7891  -28.7701   21.8729 C   0  0  0  0  0  0  0  0  0  0  0  0
  -23.6777  -20.7099   17.1748 C   0  0  0  0  0  0  0  0  0  0  0  0
  -18.7577  -12.0409   20.9099 C   0  0  0  0  0  0  0  0  0  0  0  0
  -27.0898  -26.9710   20.8821 C   0  0  0  0  0  0  0  0  0  0  0  0
  -17.6184  -10.1269   21.6590 C   0  0  0  0  0  0  0  0  0  0  0  0
  -17.6403   -7.7360   23.0961 C   0  0  0  0  0  0  0  0  0  0  0  0
  -16.7449   -9.9502   22.7320 C   0  0  0  0  0  0  0  0  0  0  0  0
  -22.3305  -14.3037   20.8016 C   0  0  0  0  0  0  0  0  0  0  0  0
  -24.4284  -14.9427   20.6415 C   0  0  0  0  0  0  0  0  0  0  0  0
  -24.0892  -12.4845   20.3409 C   0  0  0  0  0  0  0  0  0  0  0  0
  -22.4758  -29.4967   22.2224 C   0  0  0  0  0  0  0  0  0  0  0  0
  -24.2686  -31.9608   23.3342 C   0  0  0  0  0  0  0  0  0  0  0  0
  -27.3708  -33.2939   23.8302 C   0  0  0  0  0  0  0  0  0  0  0  0
  -23.3808  -20.7458   19.6762 C   0  0  0  0  0  0  0  0  0  0  0  0
  -17.6930  -27.8026   22.7813 C   0  0  0  0  0  0  0  0  0  0  0  0
  -24.1216  -28.2928   23.7050 C   0  0  0  0  0  0  0  0  0  0  0  0
  -25.4639  -30.2396   21.9292 C   0  0  0  0  0  0  0  0  0  0  0  0
  -18.3939  -29.1533   22.9022 C   0  0  0  0  0  0  0  0  0  0  0  0
  -24.6383  -19.2776   22.6662 C   0  0  0  0  0  0  0  0  0  0  0  0
  -19.2694  -29.4116   21.6801 C   0  0  0  0  0  0  0  0  0  0  0  0
  -24.3133  -17.7908   22.5045 C   0  0  0  0  0  0  0  0  0  0  0  0
  -25.5198  -24.5871   16.5410 C   0  0  0  0  0  0  0  0  0  0  0  0
  -27.3961  -22.9122   16.7873 C   0  0  0  0  0  0  0  0  0  0  0  0
  -23.5377  -20.1649   22.0872 C   0  0  0  0  0  0  0  0  0  0  0  0
  -22.8434  -18.3818   20.5354 C   0  0  0  0  0  0  0  0  0  0  0  0
  -26.5331  -25.7210   16.6311 C   0  0  0  0  0  0  0  0  0  0  0  0
  -28.3951  -24.0589   16.8752 C   0  0  0  0  0  0  0  0  0  0  0  0
  -26.1542  -23.3076   15.9723 C   0  0  0  0  0  0  0  0  0  0  0  0
  -20.3701  -28.3511   21.5558 C   0  0  1  0  0  0  0  0  0  0  0  0
  -23.4741  -29.6245   23.3381 C   0  0  1  0  0  0  0  0  0  0  0  0
  -23.9532  -17.4481   21.0456 C   0  0  2  0  0  0  0  0  0  0  0  0
  -28.5156  -35.3393   24.7264 C   0  0  0  0  0  0  0  0  0  0  0  0
  -23.5055  -33.4919   20.8077 C   0  0  0  0  0  0  0  0  0  0  0  0
  -25.3816  -35.0791   21.2867 C   0  0  0  0  0  0  0  0  0  0  0  0
  -23.4923  -34.8604   22.9008 C   0  0  0  0  0  0  0  0  0  0  0  0
  -28.7890  -31.7325   25.9062 C   0  0  0  0  0  0  0  0  0  0  0  0
  -28.6881  -26.3981   17.6856 C   0  0  0  0  0  0  0  0  0  0  0  0
  -28.1632  -27.2997   18.7855 C   0  0  0  0  0  0  0  0  0  1  0  0
  -25.1800  -32.9880   22.7072 C   0  0  1  0  0  0  0  0  0  0  0  0
  -28.0054  -33.9430   25.0469 C   0  0  2  0  0  0  0  0  0  0  0  0
  -24.3948  -34.0770   21.9229 C   0  0  0  0  0  0  0  0  0  0  0  0
  -22.2929  -15.6256   20.9895 N   0  0  0  0  0  0  0  0  0  0  0  0
  -23.5837  -15.9852   20.8865 N   0  0  0  0  0  0  0  0  0  0  0  0
  -24.4514  -30.6329   22.9231 N   0  0  0  0  0  0  0  0  0  0  0  0
  -23.2530  -19.7852   20.7016 N   0  0  0  0  0  0  0  0  0  0  0  0
  -25.7591  -15.1273   20.5091 N   0  0  0  0  0  0  0  0  0  0  0  0
  -23.1411  -11.4528   20.3102 N   0  0  0  0  0  0  0  0  0  0  0  0
  -23.1160  -20.2610   18.3958 N   0  0  0  0  0  0  0  0  0  0  0  0
  -21.4406  -28.6217   22.4913 N   0  0  0  0  0  0  0  0  0  0  0  0
  -26.0098  -33.5109   23.7871 N   0  0  0  0  0  0  0  0  0  0  0  0
  -27.7273  -25.2888   17.4609 N   0  3  0  0  0  0  0  0  0  0  0  0
  -29.1518  -33.1237   25.5323 N   0  3  0  0  0  0  0  0  0  0  0  0
  -25.3018  -12.2090   20.1758 O   0  0  0  0  0  0  0  0  0  0  0  0
  -22.6323  -30.1450   21.1944 O   0  0  0  0  0  0  0  0  0  0  0  0
  -23.4303  -32.3223   24.1638 O   0  0  0  0  0  0  0  0  0  0  0  0
  -28.0182  -32.6610   22.9991 O   0  0  0  0  0  0  0  0  0  0  0  0
  -23.7279  -21.9057   19.9131 O   0  0  0  0  0  0  0  0  0  0  0  0
  -17.6081  -11.3129   20.9441 O   0  0  0  0  0  0  0  0  0  0  0  0
  -28.0318  -26.5520   19.9939 O   0  0  0  0  0  0  0  0  0  1  0  0
  -17.6499   -6.5873   23.7851 F   0  0  0  0  0  0  0  0  0  0  0  0
  -15.8922  -10.9248   23.0766 F   0  0  0  0  0  0  0  0  0  0  0  0
  1  2  1  0  0  0  0
  1  6  2  0  0  0  0
  2  7  2  0  0  0  0
  3  8  2  0  0  0  0
  3 10  1  0  0  0  0
  4 11  2  0  0  0  0
  4 19  1  0  0  0  0
  5 12  1  0  0  0  0
  5 19  2  0  0  0  0
  6 22  1  0  0  0  0
  7 24  1  0  0  0  0
  8 21  1  0  0  0  0
  9 13  2  0  0  0  0
  9 23  1  0  0  0  0
 10 26  2  0  0  0  0
 11 27  1  0  0  0  0
 12 27  2  0  0  0  0
 13 28  1  0  0  0  0
 14 15  2  0  0  0  0
 14 29  1  0  0  0  0
 15 30  1  0  0  0  0
 16 21  2  0  0  0  0
 16 26  1  0  0  0  0
 17 25  1  0  0  0  0
 17 28  2  0  0  0  0
 18 30  2  0  0  0  0
 18 31  1  0  0  0  0
 19 32  1  0  0  0  0
 20 32  1  0  0  0  0
 20 33  2  0  0  0  0
 20 34  1  0  0  0  0
 21 52  1  0  0  0  0
 22 24  2  0  0  0  0
 22 39  1  0  0  0  0
 23 25  2  0  0  0  0
 23 40  1  0  0  0  0
 24 53  1  0  0  0  0
 25 41  1  0  0  0  0
 26 72  1  0  0  0  0
 27 82  1  0  0  0  0
 28 83  1  0  0  0  0
 29 31  2  0  0  0  0
 29 82  1  0  0  0  0
 30 84  1  0  0  0  0
 31 85  1  0  0  0  0
 32 66  2  0  0  0  0
 33 67  1  0  0  0  0
 33 70  1  0  0  0  0
 34 71  1  0  0  0  0
 34 77  2  0  0  0  0
 35 54  1  0  0  0  0
 35 73  1  0  0  0  0
 35 78  2  0  0  0  0
 36 63  1  0  0  0  0
 36 68  1  0  0  0  0
 36 79  2  0  0  0  0
 37 64  1  0  0  0  0
 37 74  1  0  0  0  0
 37 80  2  0  0  0  0
 38 69  1  0  0  0  0
 38 72  1  0  0  0  0
 38 81  2  0  0  0  0
 39 42  1  0  0  0  0
 40 54  1  0  0  0  0
 41 68  1  0  0  0  0
 42 44  1  0  0  0  0
 43 45  1  0  0  0  0
 43 48  1  0  0  0  0
 44 53  1  0  0  0  0
 45 55  1  0  0  0  0
 46 50  1  0  0  0  0
 46 52  1  0  0  0  0
 47 51  1  0  0  0  0
 47 52  1  0  0  0  0
 48 69  1  0  0  0  0
 49 55  1  0  0  0  0
 49 69  1  0  0  0  0
 50 75  1  0  0  0  0
 51 75  1  0  0  0  0
 53 73  1  0  0  0  0
 54 68  1  0  0  0  0
 55 67  1  0  0  0  0
 56 64  1  0  0  0  0
 57 65  1  0  0  0  0
 58 65  1  0  0  0  0
 59 65  1  0  0  0  0
 60 76  1  0  0  0  0
 61 62  1  0  0  0  0
 61 75  1  0  0  0  0
 62 83  1  0  0  0  0
 63 65  1  0  0  0  0
 63 74  1  0  0  0  0
 64 76  1  0  0  0  0
 66 67  1  0  0  0  0
M  CHG  2  75   1  76   1
M  ISO  4  38 100  62 101  72 100  83 101
M  END
> <Batch ID>
0134

> <Smiles>
CNC(C)C(=O)NC(C(=O)N1Cc2cc([101O:1][101CH2:1]CN3CCC(c4cccc([100NH:0][100C:0](=O)N5CCCC(n6nc(-c7ccc(Oc8ccc(F)cc8F)cc7)c(C(N)=O)c6N)C5)c4)CC3)ccc2CC1C(=O)NC1CCCc2ccccc21)C(C)(C)C

> <Shape>
0.190

> <Color>
0.118

> <Negative vol penalty>
0.000

$$$$

  -OEChem-04052320573D

 84 92  0     1  0  0  0  0  0999 V2000
  -32.4120  -14.4413   21.5396 C   0  0  0  0  0  0  0  0  0  0  0  0
  -31.5770  -15.5538   21.5160 C   0  0  0  0  0  0  0  0  0  0  0  0
  -30.0042  -24.0485   19.7123 C   0  0  0  0  0  0  0  0  0  0  0  0
  -27.7244  -23.8694   18.9329 C   0  0  0  0  0  0  0  0  0  0  0  0
  -31.9526  -13.2161   21.0583 C   0  0  0  0  0  0  0  0  0  0  0  0
  -30.2824  -15.4420   21.0101 C   0  0  0  0  0  0  0  0  0  0  0  0
  -25.2956  -18.4090   22.9682 C   0  0  0  0  0  0  0  0  0  0  0  0
  -20.4172  -25.7447   22.1837 C   0  0  0  0  0  0  0  0  0  0  0  0
  -21.9217  -25.3585   24.0343 C   0  0  0  0  0  0  0  0  0  0  0  0
  -30.0639  -22.6624   19.8562 C   0  0  0  0  0  0  0  0  0  0  0  0
  -27.7841  -22.4833   19.0768 C   0  0  0  0  0  0  0  0  0  0  0  0
  -24.6387  -19.5476   22.5036 C   0  0  0  0  0  0  0  0  0  0  0  0
  -20.3684  -24.3727   21.9371 C   0  0  0  0  0  0  0  0  0  0  0  0
  -21.8728  -23.9865   23.7877 C   0  0  0  0  0  0  0  0  0  0  0  0
  -29.0470  -19.8554   17.3680 C   0  0  0  0  0  0  0  0  0  0  0  0
  -28.5377  -19.0751   16.3301 C   0  0  0  0  0  0  0  0  0  0  0  0
  -23.1030  -18.1524   21.2731 C   0  0  0  0  0  0  0  0  0  0  0  0
  -26.9454  -18.0865   17.8547 C   0  0  0  0  0  0  0  0  0  0  0  0
  -28.8345  -24.6520   19.2506 C   0  0  0  0  0  0  0  0  0  0  0  0
  -29.1037  -26.8353   17.9590 C   0  0  0  0  0  0  0  0  0  0  0  0
  -30.6484  -13.0868   20.5552 C   0  0  0  0  0  0  0  0  0  0  0  0
  -24.8671  -17.1316   22.5793 C   0  0  0  0  0  0  0  0  0  0  0  0
  -29.8056  -14.2141   20.5205 C   0  0  0  0  0  0  0  0  0  0  0  0
  -23.7545  -16.9990   21.7361 C   0  0  0  0  0  0  0  0  0  0  0  0
  -21.1939  -26.2376   23.2323 C   0  0  0  0  0  0  0  0  0  0  0  0
  -28.9539  -21.8798   19.5385 C   0  0  0  0  0  0  0  0  0  0  0  0
  -21.0961  -23.4936   22.7390 C   0  0  0  0  0  0  0  0  0  0  0  0
  -23.5441  -19.4195   21.6537 C   0  0  0  0  0  0  0  0  0  0  0  0
  -28.5056  -19.7512   18.6494 C   0  0  0  0  0  0  0  0  0  0  0  0
  -27.4869  -18.1906   16.5734 C   0  0  0  0  0  0  0  0  0  0  0  0
  -27.4548  -18.8668   18.8927 C   0  0  0  0  0  0  0  0  0  0  0  0
  -28.7720  -26.0839   19.1023 C   0  0  0  0  0  0  0  0  0  0  0  0
  -28.8748  -28.1388   18.3265 C   0  0  0  0  0  0  0  0  0  0  0  0
  -29.5764  -26.3945   16.6791 C   0  0  0  0  0  0  0  0  0  0  0  0
  -26.1735  -14.7199   20.9729 C   0  0  0  0  0  0  0  0  0  0  0  0
  -23.4426  -13.1880   21.8201 C   0  0  0  0  0  0  0  0  0  0  0  0
  -20.1676  -13.4081   22.7544 C   0  0  0  0  0  0  0  0  0  0  0  0
  -25.3134  -30.6524   22.4312 C   0  0  0  0  0  0  0  0  0  0  0  0
  -30.2125  -11.7531   20.0024 C   0  0  0  0  0  0  0  0  0  0  0  0
  -25.5698  -15.9125   23.1105 C   0  0  0  0  0  0  0  0  0  0  0  0
  -23.2424  -15.6497   21.3053 C   0  0  0  0  0  0  0  0  0  0  0  0
  -28.7008  -11.6304   19.8286 C   0  0  0  0  0  0  0  0  0  0  0  0
  -28.8468  -30.9978   22.1627 C   0  0  0  0  0  0  0  0  0  0  0  0
  -28.1386  -12.8759   19.1508 C   0  0  0  0  0  0  0  0  0  0  0  0
  -29.2582  -29.8454   21.2447 C   0  0  0  0  0  0  0  0  0  0  0  0
  -27.7008  -30.5992   23.0899 C   0  0  0  0  0  0  0  0  0  0  0  0
  -26.9284  -28.8912   21.4899 C   0  0  0  0  0  0  0  0  0  0  0  0
  -28.3864  -14.1269   20.0023 C   0  0  1  0  0  0  0  0  0  0  0  0
  -25.3650  -14.6774   22.2387 C   0  0  1  0  0  0  0  0  0  0  0  0
  -28.0436  -29.2626   20.4976 C   0  0  2  0  0  0  0  0  0  0  0  0
  -18.1863  -11.9839   23.3406 C   0  0  0  0  0  0  0  0  0  0  0  0
  -23.0386  -12.5384   18.8664 C   0  0  0  0  0  0  0  0  0  0  0  0
  -20.6539  -11.9811   19.3867 C   0  0  0  0  0  0  0  0  0  0  0  0
  -22.4971  -10.6635   20.4303 C   0  0  0  0  0  0  0  0  0  0  0  0
  -19.9990  -14.5590   25.4757 C   0  0  0  0  0  0  0  0  0  0  0  0
  -21.2458  -27.7044   23.4965 C   0  0  0  0  0  0  0  0  0  0  0  0
  -22.9537  -30.5857   21.6653 C   0  0  0  0  0  0  0  0  0  0  0  0
  -22.0955  -29.9235   22.7271 C   0  0  0  0  0  0  0  0  0  0  0  0
  -20.8348  -21.7441   21.1494 C   0  0  0  0  0  0  0  0  0  0  0  0
  -21.5074  -20.4045   20.9202 C   0  0  0  0  0  0  0  0  0  1  0  0
  -22.0712  -13.0309   21.2089 C   0  0  1  0  0  0  0  0  0  0  0  0
  -19.3928  -12.7395   23.8756 C   0  0  2  0  0  0  0  0  0  0  0  0
  -22.0758  -12.0791   19.9795 C   0  0  0  0  0  0  0  0  0  0  0  0
  -28.3637  -26.8465   20.1200 N   0  0  0  0  0  0  0  0  0  0  0  0
  -28.4373  -28.0907   19.6174 N   0  0  0  0  0  0  0  0  0  0  0  0
  -23.9670  -14.4880   21.8464 N   0  0  0  0  0  0  0  0  0  0  0  0
  -26.5800  -30.0558   22.3189 N   0  0  0  0  0  0  0  0  0  0  0  0
  -29.0072  -29.3099   17.6682 N   0  0  0  0  0  0  0  0  0  0  0  0
  -29.7564  -25.0203   16.4704 N   0  0  0  0  0  0  0  0  0  0  0  0
  -27.4426  -14.1877   21.0978 N   0  0  0  0  0  0  0  0  0  0  0  0
  -21.1886  -12.6061   22.2901 N   0  0  0  0  0  0  0  0  0  0  0  0
  -24.3082  -30.0796   21.6617 N   0  0  0  0  0  0  0  0  0  0  0  0
  -18.9142  -13.7574   24.8532 N   0  3  0  0  0  0  0  0  0  0  0  0
  -22.0776  -28.4529   22.5140 N   0  3  0  0  0  0  0  0  0  0  0  0
  -29.8471  -27.1967   15.7536 O   0  0  0  0  0  0  0  0  0  0  0  0
  -25.6816  -15.1986   19.9577 O   0  0  0  0  0  0  0  0  0  0  0  0
  -24.0239  -12.1949   22.2646 O   0  0  0  0  0  0  0  0  0  0  0  0
  -19.8920  -14.5282   22.3301 O   0  0  0  0  0  0  0  0  0  0  0  0
  -25.0957  -31.6270   23.1591 O   0  0  0  0  0  0  0  0  0  0  0  0
  -29.0118  -20.5272   19.6786 O   0  0  0  0  0  0  0  0  0  0  0  0
  -21.0470  -22.1459   22.4974 O   0  0  0  0  0  0  0  0  0  0  0  0
  -22.9015  -20.5293   21.1983 O   0  0  0  0  0  0  0  0  0  1  0  0
  -26.9968  -17.4425   15.5763 F   0  0  0  0  0  0  0  0  0  0  0  0
  -26.9297  -18.7632   20.1213 F   0  0  0  0  0  0  0  0  0  0  0  0
  1  2  1  0  0  0  0
  1  5  2  0  0  0  0
  2  6  2  0  0  0  0
  3 10  2  0  0  0  0
  3 19  1  0  0  0  0
  4 11  1  0  0  0  0
  4 19  2  0  0  0  0
  5 21  1  0  0  0  0
  6 23  1  0  0  0  0
  7 12  2  0  0  0  0
  7 22  1  0  0  0  0
  8 13  2  0  0  0  0
  8 25  1  0  0  0  0
  9 14  1  0  0  0  0
  9 25  2  0  0  0  0
 10 26  1  0  0  0  0
 11 26  2  0  0  0  0
 12 28  1  0  0  0  0
 13 27  1  0  0  0  0
 14 27  2  0  0  0  0
 15 16  2  0  0  0  0
 15 29  1  0  0  0  0
 16 30  1  0  0  0  0
 17 24  1  0  0  0  0
 17 28  2  0  0  0  0
 18 30  2  0  0  0  0
 18 31  1  0  0  0  0
 19 32  1  0  0  0  0
 20 32  1  0  0  0  0
 20 33  2  0  0  0  0
 20 34  1  0  0  0  0
 21 23  2  0  0  0  0
 21 39  1  0  0  0  0
 22 24  2  0  0  0  0
 22 40  1  0  0  0  0
 23 48  1  0  0  0  0
 24 41  1  0  0  0  0
 25 56  1  0  0  0  0
 26 80  1  0  0  0  0
 27 81  1  0  0  0  0
 28 82  1  0  0  0  0
 29 31  2  0  0  0  0
 29 80  1  0  0  0  0
 30 83  1  0  0  0  0
 31 84  1  0  0  0  0
 32 64  2  0  0  0  0
 33 65  1  0  0  0  0
 33 68  1  0  0  0  0
 34 69  1  0  0  0  0
 34 75  2  0  0  0  0
 35 49  1  0  0  0  0
 35 70  1  0  0  0  0
 35 76  2  0  0  0  0
 36 61  1  0  0  0  0
 36 66  1  0  0  0  0
 36 77  2  0  0  0  0
 37 62  1  0  0  0  0
 37 71  1  0  0  0  0
 37 78  2  0  0  0  0
 38 67  1  0  0  0  0
 38 72  1  0  0  0  0
 38 79  2  0  0  0  0
 39 42  1  0  0  0  0
 40 49  1  0  0  0  0
 41 66  1  0  0  0  0
 42 44  1  0  0  0  0
 43 45  1  0  0  0  0
 43 46  1  0  0  0  0
 44 48  1  0  0  0  0
 45 50  1  0  0  0  0
 46 67  1  0  0  0  0
 47 50  1  0  0  0  0
 47 67  1  0  0  0  0
 48 70  1  0  0  0  0
 49 66  1  0  0  0  0
 50 65  1  0  0  0  0
 51 62  1  0  0  0  0
 52 63  1  0  0  0  0
 53 63  1  0  0  0  0
 54 63  1  0  0  0  0
 55 73  1  0  0  0  0
 56 74  1  0  0  0  0
 57 58  1  0  0  0  0
 57 72  1  0  0  0  0
 58 74  1  0  0  0  0
 59 60  1  0  0  0  0
 59 81  1  0  0  0  0
 60 82  1  0  0  0  0
 61 63  1  0  0  0  0
 61 71  1  0  0  0  0
 62 73  1  0  0  0  0
 64 65  1  0  0  0  0
M  CHG  2  73   1  74   1
M  ISO  4  38 100  60 101  72 100  82 101
M  END
> <Batch ID>
0134

> <Smiles>
CNC(C)C(=O)NC(C(=O)N1Cc2cc([101O:1][101CH2:1]COc3ccc(CNCC[100NH:0][100C:0](=O)N4CCCC(n5nc(-c6ccc(Oc7ccc(F)cc7F)cc6)c(C(N)=O)c5N)C4)cc3)ccc2CC1C(=O)NC1CCCc2ccccc21)C(C)(C)C

> <Shape>
0.247

> <Color>
0.076

> <Negative vol penalty>
0.000

$$$$

  -OEChem-04052320573D

 86 95  0     1  0  0  0  0  0999 V2000
  -17.0566  -29.7337   24.4342 C   0  0  0  0  0  0  0  0  0  0  0  0
  -17.3088  -28.3978   24.1389 C   0  0  0  0  0  0  0  0  0  0  0  0
  -23.5464  -10.2113   22.3073 C   0  0  0  0  0  0  0  0  0  0  0  0
  -23.1305  -12.5581   22.7033 C   0  0  0  0  0  0  0  0  0  0  0  0
  -17.7741  -30.7375   23.7850 C   0  0  0  0  0  0  0  0  0  0  0  0
  -18.2780  -28.0649   23.1933 C   0  0  0  0  0  0  0  0  0  0  0  0
  -21.9871  -23.1925   23.2814 C   0  0  0  0  0  0  0  0  0  0  0  0
  -22.7732   -9.8862   23.4218 C   0  0  0  0  0  0  0  0  0  0  0  0
  -22.3572  -12.2330   23.8178 C   0  0  0  0  0  0  0  0  0  0  0  0
  -21.9260  -21.9555   22.6412 C   0  0  0  0  0  0  0  0  0  0  0  0
  -19.4894   -9.6363   24.1881 C   0  0  0  0  0  0  0  0  0  0  0  0
  -18.5677   -8.5976   24.0570 C   0  0  0  0  0  0  0  0  0  0  0  0
  -29.2189  -19.6646   20.9631 C   0  0  0  0  0  0  0  0  0  0  0  0
  -23.3673  -22.7934   20.8977 C   0  0  0  0  0  0  0  0  0  0  0  0
  -19.6871   -7.3818   25.8194 C   0  0  0  0  0  0  0  0  0  0  0  0
  -30.5395  -20.0058   20.7192 C   0  0  0  0  0  0  0  0  0  0  0  0
  -23.7251  -11.5473   21.9481 C   0  0  0  0  0  0  0  0  0  0  0  0
  -24.0823  -12.0299   19.4688 C   0  0  0  0  0  0  0  0  0  0  0  0
  -18.7594  -30.4165   22.8379 C   0  0  0  0  0  0  0  0  0  0  0  0
  -22.7312  -24.2444   22.7279 C   0  0  0  0  0  0  0  0  0  0  0  0
  -19.0085  -29.0654   22.5298 C   0  0  0  0  0  0  0  0  0  0  0  0
  -23.4383  -24.0420   21.5341 C   0  0  0  0  0  0  0  0  0  0  0  0
  -28.8746  -18.3184   20.9134 C   0  0  0  0  0  0  0  0  0  0  0  0
  -29.8477  -17.3679   20.6254 C   0  0  0  0  0  0  0  0  0  0  0  0
  -22.1786  -10.8970   24.1770 C   0  0  0  0  0  0  0  0  0  0  0  0
  -22.6138  -21.7567   21.4477 C   0  0  0  0  0  0  0  0  0  0  0  0
  -20.5100   -9.5477   25.1349 C   0  0  0  0  0  0  0  0  0  0  0  0
  -18.6666   -7.4703   24.8726 C   0  0  0  0  0  0  0  0  0  0  0  0
  -20.6088   -8.4205   25.9505 C   0  0  0  0  0  0  0  0  0  0  0  0
  -24.5243  -11.8838   20.7973 C   0  0  0  0  0  0  0  0  0  0  0  0
  -31.1401  -17.8119   20.3964 C   0  0  0  0  0  0  0  0  0  0  0  0
  -25.2161  -12.3507   18.7631 C   0  0  0  0  0  0  0  0  0  0  0  0
  -22.7647  -11.8882   18.9215 C   0  0  0  0  0  0  0  0  0  0  0  0
  -22.0415  -27.1510   21.6418 C   0  0  0  0  0  0  0  0  0  0  0  0
  -25.2663  -27.3986   21.3932 C   0  0  0  0  0  0  0  0  0  0  0  0
  -28.2771  -25.8234   21.0759 C   0  0  0  0  0  0  0  0  0  0  0  0
  -30.3846  -14.9290   20.2942 C   0  0  0  0  0  0  0  0  0  0  0  0
  -19.4761  -31.5373   22.1276 C   0  0  0  0  0  0  0  0  0  0  0  0
  -22.8086  -25.5645   23.4447 C   0  0  0  0  0  0  0  0  0  0  0  0
  -24.2678  -25.1328   20.9092 C   0  0  0  0  0  0  0  0  0  0  0  0
  -20.7480  -31.0900   21.4118 C   0  0  0  0  0  0  0  0  0  0  0  0
  -29.9629  -11.7185   18.8136 C   0  0  0  0  0  0  0  0  0  0  0  0
  -20.4903  -29.8179   20.6105 C   0  0  0  0  0  0  0  0  0  0  0  0
  -33.4199  -17.2937   19.2972 C   0  0  0  0  0  0  0  0  0  0  0  0
  -32.4151  -16.3872   18.6577 C   0  0  0  0  0  0  0  0  0  0  0  0
  -28.4788  -11.4125   19.0280 C   0  0  0  0  0  0  0  0  0  0  0  0
  -30.5647  -12.4679   20.0009 C   0  0  0  0  0  0  0  0  0  0  0  0
  -28.3584  -13.3771   20.6132 C   0  0  0  0  0  0  0  0  0  0  0  0
  -20.0693  -28.6636   21.5281 C   0  0  1  0  0  0  0  0  0  0  0  0
  -32.2239  -16.8298   20.0823 C   0  0  0  0  0  0  0  0  0  0  0  0
  -23.1798  -26.7232   22.5244 C   0  0  1  0  0  0  0  0  0  0  0  0
  -27.6923  -12.6801   19.4156 C   0  0  2  0  0  0  0  0  0  0  0  0
  -30.7328  -26.2928   20.8604 C   0  0  0  0  0  0  0  0  0  0  0  0
  -24.8546  -28.2016   18.4785 C   0  0  0  0  0  0  0  0  0  0  0  0
  -27.2809  -27.7309   18.0787 C   0  0  0  0  0  0  0  0  0  0  0  0
  -26.6068  -29.5162   19.6852 C   0  0  0  0  0  0  0  0  0  0  0  0
  -28.8927  -24.3704   23.5796 C   0  0  0  0  0  0  0  0  0  0  0  0
  -27.4437  -17.9216   21.1753 C   0  0  0  0  0  0  0  0  0  0  0  0
  -26.6348  -17.6384   19.9026 C   0  0  0  0  0  0  0  0  0  0  0  0
  -25.1665  -17.2883   20.1243 C   0  0  0  0  0  0  0  0  0  0  0  0
  -22.9929  -18.1901   20.9615 C   0  0  0  0  0  0  0  0  0  0  0  0
  -22.3815  -19.3980   21.6438 C   0  0  0  0  0  0  0  0  0  1  0  0
  -26.2827  -27.0906   20.3203 C   0  0  1  0  0  0  0  0  0  0  0  0
  -29.5892  -25.9993   21.8188 C   0  0  2  0  0  0  0  0  0  0  0  0
  -26.2391  -28.1147   19.1512 C   0  0  0  0  0  0  0  0  0  0  0  0
  -31.5124  -19.1109   20.4361 N   0  0  0  0  0  0  0  0  0  0  0  0
  -25.8365  -12.0944   20.9303 N   0  0  0  0  0  0  0  0  0  0  0  0
  -26.2289  -12.3760   19.6762 N   0  0  0  0  0  0  0  0  0  0  0  0
  -24.3070  -26.4075   21.6447 N   0  0  0  0  0  0  0  0  0  0  0  0
  -29.7698  -13.6591   20.3078 N   0  0  0  0  0  0  0  0  0  0  0  0
  -25.4356  -12.6108   17.4567 N   0  0  0  0  0  0  0  0  0  0  0  0
  -21.7139  -11.5552   19.7871 N   0  0  0  0  0  0  0  0  0  0  0  0
  -29.5224  -15.9899   20.5691 N   0  0  0  0  0  0  0  0  0  0  0  0
  -21.2222  -28.1103   22.2056 N   0  0  0  0  0  0  0  0  0  0  0  0
  -27.5743  -27.0068   20.9935 N   0  0  0  0  0  0  0  0  0  0  0  0
  -29.9216  -24.7636   22.5827 N   0  3  0  0  0  0  0  0  0  0  0  0
  -24.4457  -18.4226   20.7628 N   0  3  0  0  0  0  0  0  0  0  0  0
  -22.5290  -12.0361   17.6983 O   0  0  0  0  0  0  0  0  0  0  0  0
  -21.9168  -26.6491   20.5308 O   0  0  0  0  0  0  0  0  0  0  0  0
  -25.3259  -28.4759   21.9912 O   0  0  0  0  0  0  0  0  0  0  0  0
  -27.9139  -24.7450   20.6115 O   0  0  0  0  0  0  0  0  0  0  0  0
  -31.5815  -15.0677   20.0294 O   0  0  0  0  0  0  0  0  0  0  0  0
  -21.4238  -10.5802   25.2644 O   0  0  0  0  0  0  0  0  0  0  0  0
  -22.5554  -20.5504   20.8204 O   0  0  0  0  0  0  0  0  0  1  0  0
  -17.7805   -6.4736   24.7476 F   0  0  0  0  0  0  0  0  0  0  0  0
  -21.5864   -8.3303   26.8626 F   0  0  0  0  0  0  0  0  0  0  0  0
  1  2  1  0  0  0  0
  1  5  2  0  0  0  0
  2  6  2  0  0  0  0
  3  8  2  0  0  0  0
  3 17  1  0  0  0  0
  4  9  1  0  0  0  0
  4 17  2  0  0  0  0
  5 19  1  0  0  0  0
  6 21  1  0  0  0  0
  7 10  2  0  0  0  0
  7 20  1  0  0  0  0
  8 25  1  0  0  0  0
  9 25  2  0  0  0  0
 10 26  1  0  0  0  0
 11 12  2  0  0  0  0
 11 27  1  0  0  0  0
 12 28  1  0  0  0  0
 13 16  2  0  0  0  0
 13 23  1  0  0  0  0
 14 22  1  0  0  0  0
 14 26  2  0  0  0  0
 15 28  2  0  0  0  0
 15 29  1  0  0  0  0
 16 66  1  0  0  0  0
 17 30  1  0  0  0  0
 18 30  1  0  0  0  0
 18 32  2  0  0  0  0
 18 33  1  0  0  0  0
 19 21  2  0  0  0  0
 19 38  1  0  0  0  0
 20 22  2  0  0  0  0
 20 39  1  0  0  0  0
 21 49  1  0  0  0  0
 22 40  1  0  0  0  0
 23 24  2  0  0  0  0
 23 58  1  0  0  0  0
 24 31  1  0  0  0  0
 24 73  1  0  0  0  0
 25 83  1  0  0  0  0
 26 84  1  0  0  0  0
 27 29  2  0  0  0  0
 27 83  1  0  0  0  0
 28 85  1  0  0  0  0
 29 86  1  0  0  0  0
 30 67  2  0  0  0  0
 31 50  1  0  0  0  0
 31 66  2  0  0  0  0
 32 68  1  0  0  0  0
 32 71  1  0  0  0  0
 33 72  1  0  0  0  0
 33 78  2  0  0  0  0
 34 51  1  0  0  0  0
 34 74  1  0  0  0  0
 34 79  2  0  0  0  0
 35 63  1  0  0  0  0
 35 69  1  0  0  0  0
 35 80  2  0  0  0  0
 36 64  1  0  0  0  0
 36 75  1  0  0  0  0
 36 81  2  0  0  0  0
 37 70  1  0  0  0  0
 37 73  1  0  0  0  0
 37 82  2  0  0  0  0
 38 41  1  0  0  0  0
 39 51  1  0  0  0  0
 40 69  1  0  0  0  0
 41 43  1  0  0  0  0
 42 46  1  0  0  0  0
 42 47  1  0  0  0  0
 43 49  1  0  0  0  0
 44 45  1  0  0  0  0
 44 50  1  0  0  0  0
 45 50  1  0  0  0  0
 46 52  1  0  0  0  0
 47 70  1  0  0  0  0
 48 52  1  0  0  0  0
 48 70  1  0  0  0  0
 49 74  1  0  0  0  0
 51 69  1  0  0  0  0
 52 68  1  0  0  0  0
 53 64  1  0  0  0  0
 54 65  1  0  0  0  0
 55 65  1  0  0  0  0
 56 65  1  0  0  0  0
 57 76  1  0  0  0  0
 58 59  1  0  0  0  0
 59 60  1  0  0  0  0
 60 77  1  0  0  0  0
 61 62  1  0  0  0  0
 61 77  1  0  0  0  0
 62 84  1  0  0  0  0
 63 65  1  0  0  0  0
 63 75  1  0  0  0  0
 64 76  1  0  0  0  0
 67 68  1  0  0  0  0
M  CHG  2  76   1  77   1
M  ISO  4  37 100  62 101  73 100  84 101
M  END
> <Batch ID>
0134

> <Smiles>
CNC(C)C(=O)NC(C(=O)N1Cc2cc([101O:1][101CH2:1]CNCCCc3ccnc(C4CC4)c3[100NH:0][100C:0](=O)N3CCCC(n4nc(-c5ccc(Oc6ccc(F)cc6F)cc5)c(C(N)=O)c4N)C3)ccc2CC1C(=O)NC1CCCc2ccccc21)C(C)(C)C

> <Shape>
0.212

> <Color>
0.079

> <Negative vol penalty>
0.000

$$$$

  -OEChem-04052320573D

 84 92  0     1  0  0  0  0  0999 V2000
  -19.5887   -9.5281   21.6981 C   0  0  0  0  0  0  0  0  0  0  0  0
  -19.9965  -10.7401   22.2460 C   0  0  0  0  0  0  0  0  0  0  0  0
  -28.5707  -25.7976   19.8588 C   0  0  0  0  0  0  0  0  0  0  0  0
  -26.4561  -25.0162   18.9902 C   0  0  0  0  0  0  0  0  0  0  0  0
  -20.5290   -8.6703   21.1289 C   0  0  0  0  0  0  0  0  0  0  0  0
  -21.3449  -11.0945   22.2260 C   0  0  0  0  0  0  0  0  0  0  0  0
  -22.0687  -15.9054   20.8202 C   0  0  0  0  0  0  0  0  0  0  0  0
  -19.7568  -23.9418   22.4823 C   0  0  0  0  0  0  0  0  0  0  0  0
  -20.7946  -24.2732   24.6387 C   0  0  0  0  0  0  0  0  0  0  0  0
  -20.4998  -22.7749   22.3040 C   0  0  0  0  0  0  0  0  0  0  0  0
  -21.5376  -23.1062   24.4605 C   0  0  0  0  0  0  0  0  0  0  0  0
  -29.0785  -24.5003   19.7898 C   0  0  0  0  0  0  0  0  0  0  0  0
  -26.9638  -23.7189   18.9211 C   0  0  0  0  0  0  0  0  0  0  0  0
  -21.8313  -16.8911   21.7772 C   0  0  0  0  0  0  0  0  0  0  0  0
  -30.8153  -21.3293   20.1804 C   0  0  0  0  0  0  0  0  0  0  0  0
  -31.5387  -20.8554   21.2747 C   0  0  0  0  0  0  0  0  0  0  0  0
  -24.2016  -17.0452   22.1978 C   0  0  0  0  0  0  0  0  0  0  0  0
  -29.6065  -21.1731   22.6898 C   0  0  0  0  0  0  0  0  0  0  0  0
  -27.2595  -26.0556   19.4590 C   0  0  0  0  0  0  0  0  0  0  0  0
  -26.7817  -28.3818   18.5274 C   0  0  0  0  0  0  0  0  0  0  0  0
  -21.8884   -9.0187   21.0933 C   0  0  0  0  0  0  0  0  0  0  0  0
  -23.3757  -15.4738   20.5520 C   0  0  0  0  0  0  0  0  0  0  0  0
  -22.3044  -10.2400   21.6570 C   0  0  0  0  0  0  0  0  0  0  0  0
  -24.4532  -16.0558   21.2350 C   0  0  0  0  0  0  0  0  0  0  0  0
  -19.9042  -24.6910   23.6496 C   0  0  0  0  0  0  0  0  0  0  0  0
  -21.3902  -22.3570   23.2931 C   0  0  0  0  0  0  0  0  0  0  0  0
  -28.2750  -23.4609   19.3209 C   0  0  0  0  0  0  0  0  0  0  0  0
  -22.8975  -17.4590   22.4683 C   0  0  0  0  0  0  0  0  0  0  0  0
  -29.4874  -21.7253   20.3408 C   0  0  0  0  0  0  0  0  0  0  0  0
  -30.9344  -20.7772   22.5294 C   0  0  0  0  0  0  0  0  0  0  0  0
  -28.8830  -21.6471   21.5955 C   0  0  0  0  0  0  0  0  0  0  0  0
  -26.7343  -27.3954   19.5306 C   0  0  0  0  0  0  0  0  0  0  0  0
  -26.1510  -29.4678   19.0835 C   0  0  0  0  0  0  0  0  0  0  0  0
  -27.3454  -28.3217   17.2104 C   0  0  0  0  0  0  0  0  0  0  0  0
  -24.9189  -12.7060   20.7990 C   0  0  0  0  0  0  0  0  0  0  0  0
  -27.3025  -14.3504   19.3373 C   0  0  0  0  0  0  0  0  0  0  0  0
  -28.7369  -17.3679   18.6417 C   0  0  0  0  0  0  0  0  0  0  0  0
  -22.0523  -30.0274   23.4123 C   0  0  0  0  0  0  0  0  0  0  0  0
  -22.8741   -8.0377   20.5097 C   0  0  0  0  0  0  0  0  0  0  0  0
  -23.6172  -14.4287   19.4976 C   0  0  0  0  0  0  0  0  0  0  0  0
  -25.8768  -15.6419   20.9697 C   0  0  0  0  0  0  0  0  0  0  0  0
  -24.2336   -8.6557   20.1931 C   0  0  0  0  0  0  0  0  0  0  0  0
  -25.2778  -31.5315   23.3108 C   0  0  0  0  0  0  0  0  0  0  0  0
  -24.7176   -9.5083   21.3617 C   0  0  0  0  0  0  0  0  0  0  0  0
  -26.0211  -30.7310   22.2399 C   0  0  0  0  0  0  0  0  0  0  0  0
  -24.3414  -30.6454   24.1294 C   0  0  0  0  0  0  0  0  0  0  0  0
  -24.1307  -29.0504   22.2625 C   0  0  0  0  0  0  0  0  0  0  0  0
  -23.7549  -10.6709   21.6323 C   0  0  1  0  0  0  0  0  0  0  0  0
  -24.9459  -13.6996   19.6723 C   0  0  1  0  0  0  0  0  0  0  0  0
  -25.0454  -29.9112   21.3744 C   0  0  2  0  0  0  0  0  0  0  0  0
  -30.6984  -18.3902   17.4563 C   0  0  0  0  0  0  0  0  0  0  0  0
  -29.1311  -13.4842   21.6211 C   0  0  0  0  0  0  0  0  0  0  0  0
  -30.7443  -15.2623   20.9111 C   0  0  0  0  0  0  0  0  0  0  0  0
  -30.1816  -13.3971   19.3532 C   0  0  0  0  0  0  0  0  0  0  0  0
  -26.9829  -18.8879   16.8054 C   0  0  0  0  0  0  0  0  0  0  0  0
  -19.1106  -25.9390   23.8410 C   0  0  0  0  0  0  0  0  0  0  0  0
  -23.0699  -20.6923   24.0886 C   0  0  0  0  0  0  0  0  0  0  0  0
  -19.8260  -29.3230   22.5717 C   0  0  0  0  0  0  0  0  0  0  0  0
  -23.6920  -19.3965   23.5957 C   0  0  0  0  0  0  0  0  0  1  0  0
  -19.2603  -28.2586   23.4948 C   0  0  0  0  0  0  0  0  0  0  0  0
  -28.4626  -15.1948   19.8064 C   0  0  1  0  0  0  0  0  0  0  0  0
  -29.2420  -17.9674   17.3417 C   0  0  2  0  0  0  0  0  0  0  0  0
  -29.6030  -14.3412   20.4296 C   0  0  0  0  0  0  0  0  0  0  0  0
  -26.1220  -27.8174   20.6402 N   0  0  0  0  0  0  0  0  0  0  0  0
  -25.7790  -29.0810   20.3374 N   0  0  0  0  0  0  0  0  0  0  0  0
  -26.0610  -14.6119   19.9340 N   0  0  0  0  0  0  0  0  0  0  0  0
  -23.4412  -29.8964   23.2493 N   0  0  0  0  0  0  0  0  0  0  0  0
  -25.8840  -30.7063   18.6175 N   0  0  0  0  0  0  0  0  0  0  0  0
  -27.9560  -27.1292   16.7988 N   0  0  0  0  0  0  0  0  0  0  0  0
  -22.1268  -21.1974   23.1173 N   0  0  0  0  0  0  0  0  0  0  0  0
  -23.9531  -11.7272   20.6630 N   0  0  0  0  0  0  0  0  0  0  0  0
  -28.8746  -15.9961   18.6590 N   0  0  0  0  0  0  0  0  0  0  0  0
  -21.2710  -29.2880   22.5328 N   0  0  0  0  0  0  0  0  0  0  0  0
  -28.4329  -19.1636   16.9740 N   0  3  0  0  0  0  0  0  0  0  0  0
  -27.3232  -29.3020   16.4281 O   0  0  0  0  0  0  0  0  0  0  0  0
  -25.7165  -12.8181   21.7226 O   0  0  0  0  0  0  0  0  0  0  0  0
  -27.4894  -13.4954   18.4680 O   0  0  0  0  0  0  0  0  0  0  0  0
  -28.2705  -18.0490   19.5523 O   0  0  0  0  0  0  0  0  0  0  0  0
  -21.5459  -30.7540   24.2741 O   0  0  0  0  0  0  0  0  0  0  0  0
  -28.7702  -22.1949   19.2532 O   0  0  0  0  0  0  0  0  0  0  0  0
  -22.6686  -18.4208   23.4034 O   0  0  0  0  0  0  0  0  0  1  0  0
  -19.6567  -26.9747   23.0333 O   0  0  0  0  0  0  0  0  0  0  0  0
  -31.6288  -20.3206   23.5798 F   0  0  0  0  0  0  0  0  0  0  0  0
  -27.6073  -22.0249   21.7555 F   0  0  0  0  0  0  0  0  0  0  0  0
  1  2  1  0  0  0  0
  1  5  2  0  0  0  0
  2  6  2  0  0  0  0
  3 12  2  0  0  0  0
  3 19  1  0  0  0  0
  4 13  1  0  0  0  0
  4 19  2  0  0  0  0
  5 21  1  0  0  0  0
  6 23  1  0  0  0  0
  7 14  2  0  0  0  0
  7 22  1  0  0  0  0
  8 10  2  0  0  0  0
  8 25  1  0  0  0  0
  9 11  1  0  0  0  0
  9 25  2  0  0  0  0
 10 26  1  0  0  0  0
 11 26  2  0  0  0  0
 12 27  1  0  0  0  0
 13 27  2  0  0  0  0
 14 28  1  0  0  0  0
 15 16  2  0  0  0  0
 15 29  1  0  0  0  0
 16 30  1  0  0  0  0
 17 24  1  0  0  0  0
 17 28  2  0  0  0  0
 18 30  2  0  0  0  0
 18 31  1  0  0  0  0
 19 32  1  0  0  0  0
 20 32  1  0  0  0  0
 20 33  2  0  0  0  0
 20 34  1  0  0  0  0
 21 23  2  0  0  0  0
 21 39  1  0  0  0  0
 22 24  2  0  0  0  0
 22 40  1  0  0  0  0
 23 48  1  0  0  0  0
 24 41  1  0  0  0  0
 25 56  1  0  0  0  0
 26 70  1  0  0  0  0
 27 80  1  0  0  0  0
 28 81  1  0  0  0  0
 29 31  2  0  0  0  0
 29 80  1  0  0  0  0
 30 83  1  0  0  0  0
 31 84  1  0  0  0  0
 32 64  2  0  0  0  0
 33 65  1  0  0  0  0
 33 68  1  0  0  0  0
 34 69  1  0  0  0  0
 34 75  2  0  0  0  0
 35 49  1  0  0  0  0
 35 71  1  0  0  0  0
 35 76  2  0  0  0  0
 36 61  1  0  0  0  0
 36 66  1  0  0  0  0
 36 77  2  0  0  0  0
 37 62  1  0  0  0  0
 37 72  1  0  0  0  0
 37 78  2  0  0  0  0
 38 67  1  0  0  0  0
 38 73  1  0  0  0  0
 38 79  2  0  0  0  0
 39 42  1  0  0  0  0
 40 49  1  0  0  0  0
 41 66  1  0  0  0  0
 42 44  1  0  0  0  0
 43 45  1  0  0  0  0
 43 46  1  0  0  0  0
 44 48  1  0  0  0  0
 45 50  1  0  0  0  0
 46 67  1  0  0  0  0
 47 50  1  0  0  0  0
 47 67  1  0  0  0  0
 48 71  1  0  0  0  0
 49 66  1  0  0  0  0
 50 65  1  0  0  0  0
 51 62  1  0  0  0  0
 52 63  1  0  0  0  0
 53 63  1  0  0  0  0
 54 63  1  0  0  0  0
 55 74  1  0  0  0  0
 56 82  1  0  0  0  0
 57 59  1  0  0  0  0
 57 70  1  0  0  0  0
 58 60  1  0  0  0  0
 58 73  1  0  0  0  0
 59 81  1  0  0  0  0
 60 82  1  0  0  0  0
 61 63  1  0  0  0  0
 61 72  1  0  0  0  0
 62 74  1  0  0  0  0
 64 65  1  0  0  0  0
M  CHG  1  74   1
M  ISO  4  38 100  59 101  73 100  81 101
M  END
> <Batch ID>
0134

> <Smiles>
CNC(C)C(=O)NC(C(=O)N1Cc2cc([101O:1][101CH2:1]CNc3ccc(COCC[100NH:0][100C:0](=O)N4CCCC(n5nc(-c6ccc(Oc7ccc(F)cc7F)cc6)c(C(N)=O)c5N)C4)cc3)ccc2CC1C(=O)NC1CCCc2ccccc21)C(C)(C)C

> <Shape>
0.255

> <Color>
0.060

> <Negative vol penalty>
0.000

$$$$

  -OEChem-04052320573D

 82 90  0     1  0  0  0  0  0999 V2000
  -16.6597  -26.7572   22.2673 C   0  0  0  0  0  0  0  0  0  0  0  0
  -17.9076  -26.1944   22.0195 C   0  0  0  0  0  0  0  0  0  0  0  0
  -24.1933  -12.8915   21.5022 C   0  0  0  0  0  0  0  0  0  0  0  0
  -26.2108  -12.7745   20.1783 C   0  0  0  0  0  0  0  0  0  0  0  0
  -16.5677  -28.0666   22.7374 C   0  0  0  0  0  0  0  0  0  0  0  0
  -19.0643  -26.9411   22.2405 C   0  0  0  0  0  0  0  0  0  0  0  0
  -22.6468  -24.3033   24.6598 C   0  0  0  0  0  0  0  0  0  0  0  0
  -23.9271  -11.5528   21.2150 C   0  0  0  0  0  0  0  0  0  0  0  0
  -25.9447  -11.4357   19.8911 C   0  0  0  0  0  0  0  0  0  0  0  0
  -23.3867  -23.3939   23.9053 C   0  0  0  0  0  0  0  0  0  0  0  0
  -24.9828   -8.5203   22.2743 C   0  0  0  0  0  0  0  0  0  0  0  0
  -24.5824   -7.6985   23.3278 C   0  0  0  0  0  0  0  0  0  0  0  0
  -25.1867  -24.9929   23.7545 C   0  0  0  0  0  0  0  0  0  0  0  0
  -22.5051   -7.2415   22.1819 C   0  0  0  0  0  0  0  0  0  0  0  0
  -25.3351  -13.5024   20.9839 C   0  0  0  0  0  0  0  0  0  0  0  0
  -25.8055  -15.4606   22.5498 C   0  0  0  0  0  0  0  0  0  0  0  0
  -17.7242  -28.8265   22.9735 C   0  0  0  0  0  0  0  0  0  0  0  0
  -23.1677  -25.5705   24.9585 C   0  0  0  0  0  0  0  0  0  0  0  0
  -18.9877  -28.2624   22.7129 C   0  0  0  0  0  0  0  0  0  0  0  0
  -24.4524  -25.9156   24.5151 C   0  0  0  0  0  0  0  0  0  0  0  0
  -24.8028  -10.8249   20.4094 C   0  0  0  0  0  0  0  0  0  0  0  0
  -24.6557  -23.7397   23.4501 C   0  0  0  0  0  0  0  0  0  0  0  0
  -24.1443   -8.7028   21.1746 C   0  0  0  0  0  0  0  0  0  0  0  0
  -23.3436   -7.0590   23.2816 C   0  0  0  0  0  0  0  0  0  0  0  0
  -22.9054   -8.0634   21.1284 C   0  0  0  0  0  0  0  0  0  0  0  0
  -25.6103  -14.8855   21.2797 C   0  0  0  0  0  0  0  0  0  0  0  0
  -26.0322  -16.7907   22.2932 C   0  0  0  0  0  0  0  0  0  0  0  0
  -25.7839  -14.8472   23.8456 C   0  0  0  0  0  0  0  0  0  0  0  0
  -22.3101  -28.5601   24.3022 C   0  0  0  0  0  0  0  0  0  0  0  0
  -24.7676  -29.2887   26.2901 C   0  0  0  0  0  0  0  0  0  0  0  0
  -27.7168  -28.3381   27.7202 C   0  0  0  0  0  0  0  0  0  0  0  0
  -28.1182  -19.7223   17.5073 C   0  0  0  0  0  0  0  0  0  0  0  0
  -17.5730  -30.2537   23.4368 C   0  0  0  0  0  0  0  0  0  0  0  0
  -22.3677  -26.5301   25.7962 C   0  0  0  0  0  0  0  0  0  0  0  0
  -25.0653  -27.2558   24.8259 C   0  0  0  0  0  0  0  0  0  0  0  0
  -18.8596  -30.8504   24.0016 C   0  0  0  0  0  0  0  0  0  0  0  0
  -24.9889  -20.2248   19.1295 C   0  0  0  0  0  0  0  0  0  0  0  0
  -20.0383  -30.5438   23.0832 C   0  0  0  0  0  0  0  0  0  0  0  0
  -28.9541  -22.4037   21.6453 C   0  0  0  0  0  0  0  0  0  0  0  0
  -27.9272  -24.3224   20.3568 C   0  0  0  0  0  0  0  0  0  0  0  0
  -24.8109  -18.9653   19.9792 C   0  0  0  0  0  0  0  0  0  0  0  0
  -27.5803  -22.0508   22.2073 C   0  0  0  0  0  0  0  0  0  0  0  0
  -26.5563  -23.9645   20.9230 C   0  0  0  0  0  0  0  0  0  0  0  0
  -25.6655  -19.9151   17.7960 C   0  0  0  0  0  0  0  0  0  0  0  0
  -26.7666  -17.9293   18.7540 C   0  0  0  0  0  0  0  0  0  0  0  0
  -20.2662  -29.0321   22.9640 C   0  0  1  0  0  0  0  0  0  0  0  0
  -22.7882  -27.9841   25.6050 C   0  0  1  0  0  0  0  0  0  0  0  0
  -28.8451  -23.0945   20.2788 C   0  0  0  0  0  0  0  0  0  0  0  0
  -26.1391  -18.1999   20.1322 C   0  0  2  0  0  0  0  0  0  0  0  0
  -26.6694  -23.2734   22.2802 C   0  0  0  0  0  0  0  0  0  1  0  0
  -29.5093  -29.1611   29.2717 C   0  0  0  0  0  0  0  0  0  0  0  0
  -25.8805  -31.0539   24.0640 C   0  0  0  0  0  0  0  0  0  0  0  0
  -28.0729  -31.0761   25.2728 C   0  0  0  0  0  0  0  0  0  0  0  0
  -26.0432  -32.0395   26.3567 C   0  0  0  0  0  0  0  0  0  0  0  0
  -27.2113  -26.1525   29.6507 C   0  0  0  0  0  0  0  0  0  0  0  0
  -30.2277  -23.4868   19.7611 C   0  0  0  0  0  0  0  0  0  0  0  0
  -30.5706  -19.3956   17.3121 C   0  0  0  0  0  0  0  0  0  0  0  0
  -31.1099  -22.2697   19.5530 C   0  0  0  0  0  0  0  0  0  0  0  0
  -31.2709  -20.2603   18.3451 C   0  0  0  0  0  0  0  0  0  0  0  0
  -26.2475  -29.5310   26.1164 C   0  0  1  0  0  0  0  0  0  0  0  0
  -28.2027  -28.3914   29.1574 C   0  0  2  0  0  0  0  0  0  0  0  0
  -26.5490  -30.9005   25.4448 C   0  0  0  0  0  0  0  0  0  0  0  0
  -25.7047  -15.7773   20.2899 N   0  0  0  0  0  0  0  0  0  0  0  0
  -25.9615  -16.9262   20.9380 N   0  0  0  0  0  0  0  0  0  0  0  0
  -24.2412  -28.1619   25.6428 N   0  0  0  0  0  0  0  0  0  0  0  0
  -26.9200  -19.1901   18.0114 N   0  0  0  0  0  0  0  0  0  0  0  0
  -26.2831  -17.8459   23.0970 N   0  0  0  0  0  0  0  0  0  0  0  0
  -25.5364  -13.4702   23.9289 N   0  0  0  0  0  0  0  0  0  0  0  0
  -20.9379  -28.5278   24.1426 N   0  0  0  0  0  0  0  0  0  0  0  0
  -26.8456  -29.3686   27.4371 N   0  0  0  0  0  0  0  0  0  0  0  0
  -29.2620  -18.9753   17.7611 N   0  0  0  0  0  0  0  0  0  0  0  0
  -28.4215  -27.0136   29.6817 N   0  3  0  0  0  0  0  0  0  0  0  0
  -25.9619  -15.5039   24.8994 O   0  0  0  0  0  0  0  0  0  0  0  0
  -23.1257  -29.0025   23.5016 O   0  0  0  0  0  0  0  0  0  0  0  0
  -24.1045  -30.0665   26.9808 O   0  0  0  0  0  0  0  0  0  0  0  0
  -28.0772  -27.4712   26.9270 O   0  0  0  0  0  0  0  0  0  0  0  0
  -28.1659  -20.7873   16.8824 O   0  0  0  0  0  0  0  0  0  0  0  0
  -24.5435   -9.5185   20.1291 O   0  0  0  0  0  0  0  0  0  0  0  0
  -25.3798  -22.8542   22.7129 O   0  0  0  0  0  0  0  0  0  1  0  0
  -30.4946  -21.4254   18.5899 O   0  0  0  0  0  0  0  0  0  0  0  0
  -22.9600   -6.2686   24.2927 F   0  0  0  0  0  0  0  0  0  0  0  0
  -22.0961   -8.2340   20.0741 F   0  0  0  0  0  0  0  0  0  0  0  0
  1  2  1  0  0  0  0
  1  5  2  0  0  0  0
  2  6  2  0  0  0  0
  3  8  2  0  0  0  0
  3 15  1  0  0  0  0
  4  9  1  0  0  0  0
  4 15  2  0  0  0  0
  5 17  1  0  0  0  0
  6 19  1  0  0  0  0
  7 10  2  0  0  0  0
  7 18  1  0  0  0  0
  8 21  1  0  0  0  0
  9 21  2  0  0  0  0
 10 22  1  0  0  0  0
 11 12  2  0  0  0  0
 11 23  1  0  0  0  0
 12 24  1  0  0  0  0
 13 20  1  0  0  0  0
 13 22  2  0  0  0  0
 14 24  2  0  0  0  0
 14 25  1  0  0  0  0
 15 26  1  0  0  0  0
 16 26  1  0  0  0  0
 16 27  2  0  0  0  0
 16 28  1  0  0  0  0
 17 19  2  0  0  0  0
 17 33  1  0  0  0  0
 18 20  2  0  0  0  0
 18 34  1  0  0  0  0
 19 46  1  0  0  0  0
 20 35  1  0  0  0  0
 21 78  1  0  0  0  0
 22 79  1  0  0  0  0
 23 25  2  0  0  0  0
 23 78  1  0  0  0  0
 24 81  1  0  0  0  0
 25 82  1  0  0  0  0
 26 63  2  0  0  0  0
 27 64  1  0  0  0  0
 27 67  1  0  0  0  0
 28 68  1  0  0  0  0
 28 73  2  0  0  0  0
 29 47  1  0  0  0  0
 29 69  1  0  0  0  0
 29 74  2  0  0  0  0
 30 60  1  0  0  0  0
 30 65  1  0  0  0  0
 30 75  2  0  0  0  0
 31 61  1  0  0  0  0
 31 70  1  0  0  0  0
 31 76  2  0  0  0  0
 32 66  1  0  0  0  0
 32 71  1  0  0  0  0
 32 77  2  0  0  0  0
 33 36  1  0  0  0  0
 34 47  1  0  0  0  0
 35 65  1  0  0  0  0
 36 38  1  0  0  0  0
 37 41  1  0  0  0  0
 37 44  1  0  0  0  0
 38 46  1  0  0  0  0
 39 42  1  0  0  0  0
 39 48  1  0  0  0  0
 40 43  1  0  0  0  0
 40 48  1  0  0  0  0
 41 49  1  0  0  0  0
 42 50  1  0  0  0  0
 43 50  1  0  0  0  0
 44 66  1  0  0  0  0
 45 49  1  0  0  0  0
 45 66  1  0  0  0  0
 46 69  1  0  0  0  0
 47 65  1  0  0  0  0
 48 56  1  0  0  0  0
 49 64  1  0  0  0  0
 50 79  1  0  0  0  0
 51 61  1  0  0  0  0
 52 62  1  0  0  0  0
 53 62  1  0  0  0  0
 54 62  1  0  0  0  0
 55 72  1  0  0  0  0
 56 58  1  0  0  0  0
 57 59  1  0  0  0  0
 57 71  1  0  0  0  0
 58 80  1  0  0  0  0
 59 80  1  0  0  0  0
 60 62  1  0  0  0  0
 60 70  1  0  0  0  0
 61 72  1  0  0  0  0
 63 64  1  0  0  0  0
M  CHG  1  72   1
M  ISO  4  32 100  50 101  71 100  79 101
M  END
> <Batch ID>
0134

> <Smiles>
CNC(C)C(=O)NC(C(=O)N1Cc2cc([101O:1][101CH:1]3CCC(CCOCC[100NH:0][100C:0](=O)N4CCCC(n5nc(-c6ccc(Oc7ccc(F)cc7F)cc6)c(C(N)=O)c5N)C4)CC3)ccc2CC1C(=O)NC1CCCc2ccccc21)C(C)(C)C

> <Shape>
0.216

> <Color>
0.072

> <Negative vol penalty>
0.000

$$$$

  -OEChem-04052320573D

 84 93  0     1  0  0  0  0  0999 V2000
  -24.1969  -30.8083   20.5371 C   0  0  0  0  0  0  0  0  0  0  0  0
  -23.3963  -29.6785   20.4029 C   0  0  0  0  0  0  0  0  0  0  0  0
  -30.2995  -19.9613   20.3333 C   0  0  0  0  0  0  0  0  0  0  0  0
  -27.9567  -19.4568   20.0274 C   0  0  0  0  0  0  0  0  0  0  0  0
  -25.5699  -30.6688   20.7355 C   0  0  0  0  0  0  0  0  0  0  0  0
  -23.9685  -28.4084   20.4660 C   0  0  0  0  0  0  0  0  0  0  0  0
  -22.5169  -21.7319   22.6185 C   0  0  0  0  0  0  0  0  0  0  0  0
  -23.3461  -16.1981   19.5553 C   0  0  0  0  0  0  0  0  0  0  0  0
  -23.5505  -14.8807   19.1453 C   0  0  0  0  0  0  0  0  0  0  0  0
  -30.0943  -21.2354   19.8042 C   0  0  0  0  0  0  0  0  0  0  0  0
  -27.7514  -20.7310   19.4983 C   0  0  0  0  0  0  0  0  0  0  0  0
  -22.5316  -20.4205   22.1453 C   0  0  0  0  0  0  0  0  0  0  0  0
  -29.7316  -22.6343   16.7487 C   0  0  0  0  0  0  0  0  0  0  0  0
  -30.6532  -23.1025   15.8123 C   0  0  0  0  0  0  0  0  0  0  0  0
  -24.9030  -20.2999   22.5708 C   0  0  0  0  0  0  0  0  0  0  0  0
  -22.2998  -15.4048   21.5833 C   0  0  0  0  0  0  0  0  0  0  0  0
  -31.1808  -24.9624   17.2614 C   0  0  0  0  0  0  0  0  0  0  0  0
  -29.2307  -19.0719   20.4449 C   0  0  0  0  0  0  0  0  0  0  0  0
  -29.9219  -17.4346   22.2749 C   0  0  0  0  0  0  0  0  0  0  0  0
  -26.1578  -29.3962   20.8107 C   0  0  0  0  0  0  0  0  0  0  0  0
  -23.6992  -22.3418   23.0619 C   0  0  0  0  0  0  0  0  0  0  0  0
  -25.3508  -28.2518   20.6642 C   0  0  0  0  0  0  0  0  0  0  0  0
  -24.9002  -21.6182   23.0516 C   0  0  0  0  0  0  0  0  0  0  0  0
  -22.7208  -16.4602   20.7743 C   0  0  0  0  0  0  0  0  0  0  0  0
  -23.1296  -13.8252   19.9543 C   0  0  0  0  0  0  0  0  0  0  0  0
  -22.5042  -14.0873   21.1733 C   0  0  0  0  0  0  0  0  0  0  0  0
  -28.8203  -21.6203   19.3867 C   0  0  0  0  0  0  0  0  0  0  0  0
  -23.7253  -19.7053   22.1187 C   0  0  0  0  0  0  0  0  0  0  0  0
  -29.5344  -23.3302   17.9415 C   0  0  0  0  0  0  0  0  0  0  0  0
  -31.3779  -24.2665   16.0686 C   0  0  0  0  0  0  0  0  0  0  0  0
  -30.2591  -24.4942   18.1978 C   0  0  0  0  0  0  0  0  0  0  0  0
  -29.4422  -17.7554   20.9909 C   0  0  0  0  0  0  0  0  0  0  0  0
  -29.9403  -16.0614   22.3014 C   0  0  0  0  0  0  0  0  0  0  0  0
  -30.3156  -18.3003   23.3478 C   0  0  0  0  0  0  0  0  0  0  0  0
  -25.3978  -24.8692   22.1504 C   0  0  0  0  0  0  0  0  0  0  0  0
  -27.1149  -24.1886   24.8170 C   0  0  0  0  0  0  0  0  0  0  0  0
  -28.0900  -21.8675   27.1211 C   0  0  0  0  0  0  0  0  0  0  0  0
  -26.8775  -11.8839   19.2983 C   0  0  0  0  0  0  0  0  0  0  0  0
  -27.6532  -29.2962   20.9791 C   0  0  0  0  0  0  0  0  0  0  0  0
  -23.6617  -23.7481   23.5944 C   0  0  0  0  0  0  0  0  0  0  0  0
  -26.1931  -22.2205   23.5355 C   0  0  0  0  0  0  0  0  0  0  0  0
  -28.1264  -27.9099   21.4085 C   0  0  0  0  0  0  0  0  0  0  0  0
  -30.4150  -12.2669   19.4262 C   0  0  0  0  0  0  0  0  0  0  0  0
  -27.4528  -26.8312   20.5662 C   0  0  0  0  0  0  0  0  0  0  0  0
  -30.6101  -13.6880   19.9576 C   0  0  0  0  0  0  0  0  0  0  0  0
  -21.4507  -12.2145   24.3513 C   0  0  0  0  0  0  0  0  0  0  0  0
  -22.2164  -13.4942   24.5150 C   0  0  0  0  0  0  0  0  0  0  0  0
  -29.2047  -12.1719   18.4998 C   0  0  0  0  0  0  0  0  0  0  0  0
  -28.1393  -14.0998   19.6051 C   0  0  0  0  0  0  0  0  0  0  0  0
  -25.9308  -26.8567   20.7517 C   0  0  1  0  0  0  0  0  0  0  0  0
  -25.0184  -24.4437   23.5406 C   0  0  1  0  0  0  0  0  0  0  0  0
  -29.3148  -14.2335   20.5883 C   0  0  2  0  0  0  0  0  0  0  0  0
  -21.4249  -13.2490   23.2609 C   0  0  0  0  0  0  0  0  0  0  0  0
  -29.5272  -21.5996   29.1607 C   0  0  0  0  0  0  0  0  0  0  0  0
  -29.6063  -24.1673   23.0557 C   0  0  0  0  0  0  0  0  0  0  0  0
  -30.8171  -22.9881   24.9028 C   0  0  0  0  0  0  0  0  0  0  0  0
  -29.9070  -25.2808   25.2748 C   0  0  0  0  0  0  0  0  0  0  0  0
  -25.7706  -21.1165   28.7990 C   0  0  0  0  0  0  0  0  0  0  0  0
  -23.3596  -12.4240   19.4895 C   0  0  0  0  0  0  0  0  0  0  0  0
  -22.5011  -17.8776   21.2149 C   0  0  0  0  0  0  0  0  0  1  0  0
  -24.5559  -11.7446   20.1643 C   0  0  0  0  0  0  0  0  0  0  0  0
  -28.3133  -23.3238   25.1251 C   0  0  1  0  0  0  0  0  0  0  0  0
  -28.1333  -21.9104   28.6379 C   0  0  2  0  0  0  0  0  0  0  0  0
  -29.6371  -23.9290   24.5786 C   0  0  0  0  0  0  0  0  0  0  0  0
  -29.1752  -16.6732   20.2549 N   0  0  0  0  0  0  0  0  0  0  0  0
  -29.4884  -15.6590   21.0791 N   0  0  0  0  0  0  0  0  0  0  0  0
  -26.1061  -23.6005   24.0409 N   0  0  0  0  0  0  0  0  0  0  0  0
  -28.0093  -12.7040   19.1584 N   0  0  0  0  0  0  0  0  0  0  0  0
  -30.2989  -15.1712   23.2507 N   0  0  0  0  0  0  0  0  0  0  0  0
  -29.3444  -18.6965   24.2774 N   0  0  0  0  0  0  0  0  0  0  0  0
  -22.0700  -13.0313   22.0042 N   0  0  0  0  0  0  0  0  0  0  0  0
  -25.5639  -26.2333   22.0052 N   0  0  0  0  0  0  0  0  0  0  0  0
  -28.3040  -23.1126   26.5686 N   0  0  0  0  0  0  0  0  0  0  0  0
  -25.7900  -12.4640   19.9398 N   0  0  0  0  0  0  0  0  0  0  0  0
  -27.1835  -20.9155   29.2116 N   0  3  0  0  0  0  0  0  0  0  0  0
  -31.4902  -18.7237   23.4689 O   0  0  0  0  0  0  0  0  0  0  0  0
  -25.5315  -24.0224   21.2747 O   0  0  0  0  0  0  0  0  0  0  0  0
  -27.0721  -25.3410   25.2550 O   0  0  0  0  0  0  0  0  0  0  0  0
  -27.8902  -20.8323   26.4894 O   0  0  0  0  0  0  0  0  0  0  0  0
  -26.8409  -10.7193   18.8870 O   0  0  0  0  0  0  0  0  0  0  0  0
  -28.6196  -22.8636   18.8705 O   0  0  0  0  0  0  0  0  0  0  0  0
  -23.7425  -18.4254   21.6568 O   0  0  0  0  0  0  0  0  0  1  0  0
  -32.2640  -24.7152   15.1700 F   0  0  0  0  0  0  0  0  0  0  0  0
  -30.0749  -25.1663   19.3424 F   0  0  0  0  0  0  0  0  0  0  0  0
  1  2  1  0  0  0  0
  1  5  2  0  0  0  0
  2  6  2  0  0  0  0
  3 10  2  0  0  0  0
  3 18  1  0  0  0  0
  4 11  1  0  0  0  0
  4 18  2  0  0  0  0
  5 20  1  0  0  0  0
  6 22  1  0  0  0  0
  7 12  2  0  0  0  0
  7 21  1  0  0  0  0
  8  9  2  0  0  0  0
  8 24  1  0  0  0  0
  9 25  1  0  0  0  0
 10 27  1  0  0  0  0
 11 27  2  0  0  0  0
 12 28  1  0  0  0  0
 13 14  2  0  0  0  0
 13 29  1  0  0  0  0
 14 30  1  0  0  0  0
 15 23  1  0  0  0  0
 15 28  2  0  0  0  0
 16 24  2  0  0  0  0
 16 26  1  0  0  0  0
 17 30  2  0  0  0  0
 17 31  1  0  0  0  0
 18 32  1  0  0  0  0
 19 32  1  0  0  0  0
 19 33  2  0  0  0  0
 19 34  1  0  0  0  0
 20 22  2  0  0  0  0
 20 39  1  0  0  0  0
 21 23  2  0  0  0  0
 21 40  1  0  0  0  0
 22 50  1  0  0  0  0
 23 41  1  0  0  0  0
 24 60  1  0  0  0  0
 25 26  2  0  0  0  0
 25 59  1  0  0  0  0
 26 71  1  0  0  0  0
 27 81  1  0  0  0  0
 28 82  1  0  0  0  0
 29 31  2  0  0  0  0
 29 81  1  0  0  0  0
 30 83  1  0  0  0  0
 31 84  1  0  0  0  0
 32 65  2  0  0  0  0
 33 66  1  0  0  0  0
 33 69  1  0  0  0  0
 34 70  1  0  0  0  0
 34 76  2  0  0  0  0
 35 51  1  0  0  0  0
 35 72  1  0  0  0  0
 35 77  2  0  0  0  0
 36 62  1  0  0  0  0
 36 67  1  0  0  0  0
 36 78  2  0  0  0  0
 37 63  1  0  0  0  0
 37 73  1  0  0  0  0
 37 79  2  0  0  0  0
 38 68  1  0  0  0  0
 38 74  1  0  0  0  0
 38 80  2  0  0  0  0
 39 42  1  0  0  0  0
 40 51  1  0  0  0  0
 41 67  1  0  0  0  0
 42 44  1  0  0  0  0
 43 45  1  0  0  0  0
 43 48  1  0  0  0  0
 44 50  1  0  0  0  0
 45 52  1  0  0  0  0
 46 47  1  0  0  0  0
 46 53  1  0  0  0  0
 47 53  1  0  0  0  0
 48 68  1  0  0  0  0
 49 52  1  0  0  0  0
 49 68  1  0  0  0  0
 50 72  1  0  0  0  0
 51 67  1  0  0  0  0
 52 66  1  0  0  0  0
 53 71  1  0  0  0  0
 54 63  1  0  0  0  0
 55 64  1  0  0  0  0
 56 64  1  0  0  0  0
 57 64  1  0  0  0  0
 58 75  1  0  0  0  0
 59 61  1  0  0  0  0
 60 82  1  0  0  0  0
 61 74  1  0  0  0  0
 62 64  1  0  0  0  0
 62 73  1  0  0  0  0
 63 75  1  0  0  0  0
 65 66  1  0  0  0  0
M  CHG  1  75   1
M  ISO  4  38 100  60 101  74 100  82 101
M  END
> <Batch ID>
0134

> <Smiles>
CNC(C)C(=O)NC(C(=O)N1Cc2cc([101O:1][101CH2:1]c3ccc(CC[100NH:0][100C:0](=O)N4CCCC(n5nc(-c6ccc(Oc7ccc(F)cc7F)cc6)c(C(N)=O)c5N)C4)c(NC4CC4)c3)ccc2CC1C(=O)NC1CCCc2ccccc21)C(C)(C)C

> <Shape>
0.225

> <Color>
0.071

> <Negative vol penalty>
0.000

$$$$

  -OEChem-04052320573D

 86 94  0     1  0  0  0  0  0999 V2000
  -17.1345  -25.8543   25.3727 C   0  0  0  0  0  0  0  0  0  0  0  0
  -18.3597  -25.2008   25.4590 C   0  0  0  0  0  0  0  0  0  0  0  0
  -22.8869  -10.2040   19.9517 C   0  0  0  0  0  0  0  0  0  0  0  0
  -23.8521   -9.8530   22.1385 C   0  0  0  0  0  0  0  0  0  0  0  0
  -16.8901  -26.7389   24.3232 C   0  0  0  0  0  0  0  0  0  0  0  0
  -19.3407  -25.4309   24.4951 C   0  0  0  0  0  0  0  0  0  0  0  0
  -23.9322  -26.1109   26.5202 C   0  0  0  0  0  0  0  0  0  0  0  0
  -22.0791   -9.0807   20.1279 C   0  0  0  0  0  0  0  0  0  0  0  0
  -23.0442   -8.7297   22.3148 C   0  0  0  0  0  0  0  0  0  0  0  0
  -24.6193  -24.9717   26.9372 C   0  0  0  0  0  0  0  0  0  0  0  0
  -19.8314   -8.0783   23.1358 C   0  0  0  0  0  0  0  0  0  0  0  0
  -26.9814  -18.5139   25.7289 C   0  0  0  0  0  0  0  0  0  0  0  0
  -19.1842   -7.9334   24.3629 C   0  0  0  0  0  0  0  0  0  0  0  0
  -27.9062  -17.6413   25.1664 C   0  0  0  0  0  0  0  0  0  0  0  0
  -25.9159  -25.0167   24.9035 C   0  0  0  0  0  0  0  0  0  0  0  0
  -20.3286   -5.8355   24.7186 C   0  0  0  0  0  0  0  0  0  0  0  0
  -23.7735  -10.5902   20.9570 C   0  0  0  0  0  0  0  0  0  0  0  0
  -24.3042  -13.0798   21.1233 C   0  0  0  0  0  0  0  0  0  0  0  0
  -17.8721  -26.9873   23.3513 C   0  0  0  0  0  0  0  0  0  0  0  0
  -24.2248  -26.7062   25.2847 C   0  0  0  0  0  0  0  0  0  0  0  0
  -19.1087  -26.3187   23.4309 C   0  0  0  0  0  0  0  0  0  0  0  0
  -25.2329  -26.1649   24.4743 C   0  0  0  0  0  0  0  0  0  0  0  0
  -22.1577   -8.3435   21.3094 C   0  0  0  0  0  0  0  0  0  0  0  0
  -25.6093  -24.4227   26.1275 C   0  0  0  0  0  0  0  0  0  0  0  0
  -20.7271   -7.1018   22.7000 C   0  0  0  0  0  0  0  0  0  0  0  0
  -26.8363  -19.7949   25.2079 C   0  0  0  0  0  0  0  0  0  0  0  0
  -19.4329   -6.8120   25.1543 C   0  0  0  0  0  0  0  0  0  0  0  0
  -20.9757   -5.9804   23.4914 C   0  0  0  0  0  0  0  0  0  0  0  0
  -24.6087  -11.7502   20.7753 C   0  0  0  0  0  0  0  0  0  0  0  0
  -27.6335  -20.1517   24.1324 C   0  0  0  0  0  0  0  0  0  0  0  0
  -28.6555  -18.0945   24.0926 C   0  0  0  0  0  0  0  0  0  0  0  0
  -25.4150  -13.7957   20.7489 C   0  0  0  0  0  0  0  0  0  0  0  0
  -23.1230  -13.6196   21.7308 C   0  0  0  0  0  0  0  0  0  0  0  0
  -22.5895  -27.2512   22.6140 C   0  0  0  0  0  0  0  0  0  0  0  0
  -25.2739  -28.8599   21.7607 C   0  0  0  0  0  0  0  0  0  0  0  0
  -28.6344  -29.3041   22.1563 C   0  0  0  0  0  0  0  0  0  0  0  0
  -30.9569  -14.4078   20.5076 C   0  0  0  0  0  0  0  0  0  0  0  0
  -17.5445  -27.9161   22.2091 C   0  0  0  0  0  0  0  0  0  0  0  0
  -23.4931  -27.9503   24.8614 C   0  0  0  0  0  0  0  0  0  0  0  0
  -25.5990  -26.7779   23.1481 C   0  0  0  0  0  0  0  0  0  0  0  0
  -18.7735  -28.3894   21.4372 C   0  0  0  0  0  0  0  0  0  0  0  0
  -29.4177  -12.4461   17.9661 C   0  0  0  0  0  0  0  0  0  0  0  0
  -19.6956  -27.2140   21.1288 C   0  0  0  0  0  0  0  0  0  0  0  0
  -28.0071  -12.1949   18.5019 C   0  0  0  0  0  0  0  0  0  0  0  0
  -30.4558  -12.4419   19.0861 C   0  0  0  0  0  0  0  0  0  0  0  0
  -28.7540  -13.1078   20.7397 C   0  0  0  0  0  0  0  0  0  0  0  0
  -20.2071  -26.5608   22.4184 C   0  0  1  0  0  0  0  0  0  0  0  0
  -23.5176  -28.1737   23.3525 C   0  0  1  0  0  0  0  0  0  0  0  0
  -27.6651  -13.1584   19.6543 C   0  0  2  0  0  0  0  0  0  0  0  0
  -26.2830  -21.6559   22.6492 C   0  0  0  0  0  0  0  0  0  0  0  0
  -30.5563  -30.6675   21.2933 C   0  0  0  0  0  0  0  0  0  0  0  0
  -32.2595  -15.9056   23.0945 C   0  0  0  0  0  0  0  0  0  0  0  0
  -25.3262  -27.1729   19.2188 C   0  0  0  0  0  0  0  0  0  0  0  0
  -27.7047  -27.8786   18.8826 C   0  0  0  0  0  0  0  0  0  0  0  0
  -25.8866  -29.5866   18.8806 C   0  0  0  0  0  0  0  0  0  0  0  0
  -29.1629  -30.4629   24.8278 C   0  0  0  0  0  0  0  0  0  0  0  0
  -27.5168  -21.5159   23.5356 C   0  0  0  0  0  0  0  0  0  0  0  0
  -30.4245  -17.5388   22.4230 C   0  0  0  0  0  0  0  0  0  0  0  0
  -25.5765  -22.3949   27.3696 C   0  0  0  0  0  0  0  0  0  1  0  0
  -26.1048  -20.9943   27.1268 C   0  0  0  0  0  0  0  0  0  0  0  0
  -26.5607  -28.4965   21.0599 C   0  0  1  0  0  0  0  0  0  0  0  0
  -29.4688  -30.5573   22.3507 C   0  0  2  0  0  0  0  0  0  0  0  0
  -31.3081  -16.3643   21.9935 C   0  0  2  0  0  0  0  0  0  0  0  0
  -26.3616  -28.2707   19.5345 C   0  0  0  0  0  0  0  0  0  0  0  0
  -25.8181  -11.6259   20.2222 N   0  0  0  0  0  0  0  0  0  0  0  0
  -28.5426  -19.3316   23.5592 N   0  0  0  0  0  0  0  0  0  0  0  0
  -26.2833  -12.8867   20.2197 N   0  0  0  0  0  0  0  0  0  0  0  0
  -24.8508  -27.9898   22.7754 N   0  0  0  0  0  0  0  0  0  0  0  0
  -30.0731  -13.3776   20.1463 N   0  0  0  0  0  0  0  0  0  0  0  0
  -25.7239  -15.1077   20.8240 N   0  0  0  0  0  0  0  0  0  0  0  0
  -22.0767  -12.7439   22.0512 N   0  0  0  0  0  0  0  0  0  0  0  0
  -29.5935  -17.1936   23.5301 N   0  0  0  0  0  0  0  0  0  0  0  0
  -21.2671  -27.3552   23.0013 N   0  0  0  0  0  0  0  0  0  0  0  0
  -27.5158  -29.5493   21.3884 N   0  0  0  0  0  0  0  0  0  0  0  0
  -30.5139  -15.2540   21.5168 N   0  0  0  0  0  0  0  0  0  0  0  0
  -30.1174  -30.5448   23.6924 N   0  3  0  0  0  0  0  0  0  0  0  0
  -22.9924  -14.8446   21.9670 O   0  0  0  0  0  0  0  0  0  0  0  0
  -23.0396  -26.5016   21.7554 O   0  0  0  0  0  0  0  0  0  0  0  0
  -24.6703  -29.8819   21.4250 O   0  0  0  0  0  0  0  0  0  0  0  0
  -28.9459  -28.2156   22.6346 O   0  0  0  0  0  0  0  0  0  0  0  0
  -32.0569  -14.5652   19.9670 O   0  0  0  0  0  0  0  0  0  0  0  0
  -21.3693   -7.2475   21.4818 O   0  0  0  0  0  0  0  0  0  0  0  0
  -26.2810  -23.3104   26.5318 O   0  0  0  0  0  0  0  0  0  1  0  0
  -25.9278  -20.6624   25.7550 O   0  0  0  0  0  0  0  0  0  0  0  0
  -18.8126   -6.6737   26.3334 F   0  0  0  0  0  0  0  0  0  0  0  0
  -21.8360   -5.0395   23.0786 F   0  0  0  0  0  0  0  0  0  0  0  0
  1  2  1  0  0  0  0
  1  5  2  0  0  0  0
  2  6  2  0  0  0  0
  3  8  2  0  0  0  0
  3 17  1  0  0  0  0
  4  9  1  0  0  0  0
  4 17  2  0  0  0  0
  5 19  1  0  0  0  0
  6 21  1  0  0  0  0
  7 10  2  0  0  0  0
  7 20  1  0  0  0  0
  8 23  1  0  0  0  0
  9 23  2  0  0  0  0
 10 24  1  0  0  0  0
 11 13  2  0  0  0  0
 11 25  1  0  0  0  0
 12 14  2  0  0  0  0
 12 26  1  0  0  0  0
 13 27  1  0  0  0  0
 14 31  1  0  0  0  0
 15 22  1  0  0  0  0
 15 24  2  0  0  0  0
 16 27  2  0  0  0  0
 16 28  1  0  0  0  0
 17 29  1  0  0  0  0
 18 29  1  0  0  0  0
 18 32  2  0  0  0  0
 18 33  1  0  0  0  0
 19 21  2  0  0  0  0
 19 38  1  0  0  0  0
 20 22  2  0  0  0  0
 20 39  1  0  0  0  0
 21 47  1  0  0  0  0
 22 40  1  0  0  0  0
 23 82  1  0  0  0  0
 24 83  1  0  0  0  0
 25 28  2  0  0  0  0
 25 82  1  0  0  0  0
 26 30  2  0  0  0  0
 26 84  1  0  0  0  0
 27 85  1  0  0  0  0
 28 86  1  0  0  0  0
 29 65  2  0  0  0  0
 30 57  1  0  0  0  0
 30 66  1  0  0  0  0
 31 66  2  0  0  0  0
 31 72  1  0  0  0  0
 32 67  1  0  0  0  0
 32 70  1  0  0  0  0
 33 71  1  0  0  0  0
 33 77  2  0  0  0  0
 34 48  1  0  0  0  0
 34 73  1  0  0  0  0
 34 78  2  0  0  0  0
 35 61  1  0  0  0  0
 35 68  1  0  0  0  0
 35 79  2  0  0  0  0
 36 62  1  0  0  0  0
 36 74  1  0  0  0  0
 36 80  2  0  0  0  0
 37 69  1  0  0  0  0
 37 75  1  0  0  0  0
 37 81  2  0  0  0  0
 38 41  1  0  0  0  0
 39 48  1  0  0  0  0
 40 68  1  0  0  0  0
 41 43  1  0  0  0  0
 42 44  1  0  0  0  0
 42 45  1  0  0  0  0
 43 47  1  0  0  0  0
 44 49  1  0  0  0  0
 45 69  1  0  0  0  0
 46 49  1  0  0  0  0
 46 69  1  0  0  0  0
 47 73  1  0  0  0  0
 48 68  1  0  0  0  0
 49 67  1  0  0  0  0
 50 57  1  0  0  0  0
 51 62  1  0  0  0  0
 52 63  1  0  0  0  0
 53 64  1  0  0  0  0
 54 64  1  0  0  0  0
 55 64  1  0  0  0  0
 56 76  1  0  0  0  0
 58 63  1  0  0  0  0
 58 72  1  0  0  0  0
 59 60  1  0  0  0  0
 59 83  1  0  0  0  0
 60 84  1  0  0  0  0
 61 64  1  0  0  0  0
 61 74  1  0  0  0  0
 62 76  1  0  0  0  0
 63 75  1  0  0  0  0
 65 67  1  0  0  0  0
M  CHG  1  76   1
M  ISO  4  37 100  59 101  75 100  83 101
M  END
> <Batch ID>
0134

> <Smiles>
CCc1nc(NCC(C)[100NH:0][100C:0](=O)N2CCCC(n3nc(-c4ccc(Oc5ccc(F)cc5F)cc4)c(C(N)=O)c3N)C2)ccc1OC[101CH2:1][101O:1]c1ccc2c(c1)CN(C(=O)C(NC(=O)C(C)NC)C(C)(C)C)C(C(=O)NC1CCCc3ccccc31)C2

> <Shape>
0.273

> <Color>
0.177

> <Negative vol penalty>
0.000

$$$$

  -OEChem-04052320573D

 86 95  0     1  0  0  0  0  0999 V2000
  -22.1218  -37.1375   18.1808 C   0  0  0  0  0  0  0  0  0  0  0  0
  -22.4338  -35.9194   17.5854 C   0  0  0  0  0  0  0  0  0  0  0  0
  -23.8988  -12.7091   23.9657 C   0  0  0  0  0  0  0  0  0  0  0  0
  -23.1836  -14.7324   22.8559 C   0  0  0  0  0  0  0  0  0  0  0  0
  -22.7773  -37.5302   19.3470 C   0  0  0  0  0  0  0  0  0  0  0  0
  -23.4024  -35.0939   18.1553 C   0  0  0  0  0  0  0  0  0  0  0  0
  -25.0246  -28.1716   19.0307 C   0  0  0  0  0  0  0  0  0  0  0  0
  -23.1912  -13.0851   25.1074 C   0  0  0  0  0  0  0  0  0  0  0  0
  -22.4760  -15.1085   23.9976 C   0  0  0  0  0  0  0  0  0  0  0  0
  -26.0771  -27.2787   18.8335 C   0  0  0  0  0  0  0  0  0  0  0  0
  -19.5307  -14.3406   25.4662 C   0  0  0  0  0  0  0  0  0  0  0  0
  -18.2364  -14.8306   25.2925 C   0  0  0  0  0  0  0  0  0  0  0  0
  -27.0879  -28.0246   20.8929 C   0  0  0  0  0  0  0  0  0  0  0  0
  -30.4772  -18.5873   18.1944 C   0  0  0  0  0  0  0  0  0  0  0  0
  -28.1012  -18.7918   17.8075 C   0  0  0  0  0  0  0  0  0  0  0  0
  -18.8889  -16.9183   26.3186 C   0  0  0  0  0  0  0  0  0  0  0  0
  -23.8951  -13.5328   22.8399 C   0  0  0  0  0  0  0  0  0  0  0  0
  -24.1498  -12.3828   20.5771 C   0  0  0  0  0  0  0  0  0  0  0  0
  -23.7475  -36.7047   19.9368 C   0  0  0  0  0  0  0  0  0  0  0  0
  -25.0014  -29.0069   20.1569 C   0  0  0  0  0  0  0  0  0  0  0  0
  -24.0725  -35.4766   19.3298 C   0  0  0  0  0  0  0  0  0  0  0  0
  -26.0327  -28.9254   21.1034 C   0  0  0  0  0  0  0  0  0  0  0  0
  -30.6433  -19.9381   17.8888 C   0  0  0  0  0  0  0  0  0  0  0  0
  -28.2672  -20.1427   17.5020 C   0  0  0  0  0  0  0  0  0  0  0  0
  -29.5383  -20.7158   17.5426 C   0  0  0  0  0  0  0  0  0  0  0  0
  -29.2062  -18.0142   18.1537 C   0  0  0  0  0  0  0  0  0  0  0  0
  -22.4798  -14.2848   25.1234 C   0  0  0  0  0  0  0  0  0  0  0  0
  -27.1104  -27.2072   19.7632 C   0  0  0  0  0  0  0  0  0  0  0  0
  -20.5042  -15.1395   26.0661 C   0  0  0  0  0  0  0  0  0  0  0  0
  -17.9155  -16.1194   25.7186 C   0  0  0  0  0  0  0  0  0  0  0  0
  -20.1833  -16.4283   26.4923 C   0  0  0  0  0  0  0  0  0  0  0  0
  -24.6263  -13.1452   21.6605 C   0  0  0  0  0  0  0  0  0  0  0  0
  -25.2213  -12.2938   19.7224 C   0  0  0  0  0  0  0  0  0  0  0  0
  -22.8545  -11.8068   20.3626 C   0  0  0  0  0  0  0  0  0  0  0  0
  -25.0403  -32.1516   20.6184 C   0  0  0  0  0  0  0  0  0  0  0  0
  -24.5800  -31.3101   23.7172 C   0  0  0  0  0  0  0  0  0  0  0  0
  -24.8973  -28.9420   26.1540 C   0  0  0  0  0  0  0  0  0  0  0  0
  -30.0272  -15.7303   18.8291 C   0  0  0  0  0  0  0  0  0  0  0  0
  -24.4631  -37.1933   21.1713 C   0  0  0  0  0  0  0  0  0  0  0  0
  -23.8455  -29.9457   20.3687 C   0  0  0  0  0  0  0  0  0  0  0  0
  -26.0444  -29.7860   22.3394 C   0  0  0  0  0  0  0  0  0  0  0  0
  -25.2092  -36.0913   21.9191 C   0  0  0  0  0  0  0  0  0  0  0  0
  -30.0102  -12.2804   19.7094 C   0  0  0  0  0  0  0  0  0  0  0  0
  -26.0159  -35.2375   20.9459 C   0  0  0  0  0  0  0  0  0  0  0  0
  -28.5825  -12.0398   20.2053 C   0  0  0  0  0  0  0  0  0  0  0  0
  -30.3707  -26.7160   18.7621 C   0  0  0  0  0  0  0  0  0  0  0  0
  -30.5253  -13.6611   20.1118 C   0  0  0  0  0  0  0  0  0  0  0  0
  -28.2276  -14.5419   20.2307 C   0  0  0  0  0  0  0  0  0  0  0  0
  -30.8575  -25.3139   19.0680 C   0  0  0  0  0  0  0  0  0  0  0  0
  -28.9129  -25.2075   17.5823 C   0  0  0  0  0  0  0  0  0  0  0  0
  -25.0996  -34.5423   19.9316 C   0  0  1  0  0  0  0  0  0  0  0  0
  -24.1854  -31.1138   21.2892 C   0  0  1  0  0  0  0  0  0  0  0  0
  -27.6418  -13.1893   19.7938 C   0  0  2  0  0  0  0  0  0  0  0  0
  -28.9152  -26.4984   18.3862 C   0  0  1  0  0  0  0  0  0  1  0  0
  -32.0148  -20.5275   17.9391 C   0  0  0  0  0  0  0  0  0  0  0  0
  -27.0677  -20.9533   17.1344 C   0  0  0  0  0  0  0  0  0  0  0  0
  -24.4667  -28.5586   28.5963 C   0  0  0  0  0  0  0  0  0  0  0  0
  -27.0117  -33.0173   24.4115 C   0  0  0  0  0  0  0  0  0  0  0  0
  -27.1026  -31.8615   26.6305 C   0  0  0  0  0  0  0  0  0  0  0  0
  -25.1029  -33.2197   26.0146 C   0  0  0  0  0  0  0  0  0  0  0  0
  -23.0431  -26.7042   25.5946 C   0  0  0  0  0  0  0  0  0  0  0  0
  -29.7171  -22.1699   17.2143 C   0  0  0  0  0  0  0  0  0  0  0  0
  -29.9435  -23.0546   18.4360 C   0  0  0  0  0  0  0  0  0  0  0  0
  -25.4834  -30.9907   24.8837 C   0  0  1  0  0  0  0  0  0  0  0  0
  -23.9139  -28.4208   27.1863 C   0  0  2  0  0  0  0  0  0  0  0  0
  -26.1762  -32.2573   25.4609 C   0  0  0  0  0  0  0  0  0  0  0  0
  -25.9012  -13.5140   21.5102 N   0  0  0  0  0  0  0  0  0  0  0  0
  -26.2350  -12.9811   20.3225 N   0  0  0  0  0  0  0  0  0  0  0  0
  -24.8953  -30.6925   22.4986 N   0  0  0  0  0  0  0  0  0  0  0  0
  -29.5851  -14.7000   19.6857 N   0  0  0  0  0  0  0  0  0  0  0  0
  -25.3858  -11.6953   18.5236 N   0  0  0  0  0  0  0  0  0  0  0  0
  -21.8693  -11.9945   21.3415 N   0  0  0  0  0  0  0  0  0  0  0  0
  -29.0370  -16.6423   18.4652 N   0  0  0  0  0  0  0  0  0  0  0  0
  -24.4512  -33.3989   20.5371 N   0  0  0  0  0  0  0  0  0  0  0  0
  -24.6634  -30.2661   25.8486 N   0  0  0  0  0  0  0  0  0  0  0  0
  -30.1719  -24.4715   18.0176 N   0  3  2  0  0  0  0  0  0  0  0  0
  -23.6151  -26.9822   26.9371 N   0  3  0  0  0  0  0  0  0  0  0  0
  -22.5839  -11.1312   19.3408 O   0  0  0  0  0  0  0  0  0  0  0  0
  -26.1526  -31.8438   20.2065 O   0  0  0  0  0  0  0  0  0  0  0  0
  -23.6255  -32.0736   23.8828 O   0  0  0  0  0  0  0  0  0  0  0  0
  -25.7866  -28.2453   25.6700 O   0  0  0  0  0  0  0  0  0  0  0  0
  -31.1916  -15.7831   18.4247 O   0  0  0  0  0  0  0  0  0  0  0  0
  -21.7890  -14.6519   26.2372 O   0  0  0  0  0  0  0  0  0  0  0  0
  -28.1391  -26.3370   19.5728 O   0  0  0  0  0  0  0  0  0  1  0  0
  -16.6729  -16.5903   25.5504 F   0  0  0  0  0  0  0  0  0  0  0  0
  -21.1145  -17.2008   27.0683 F   0  0  0  0  0  0  0  0  0  0  0  0
  1  2  1  0  0  0  0
  1  5  2  0  0  0  0
  2  6  2  0  0  0  0
  3  8  2  0  0  0  0
  3 17  1  0  0  0  0
  4  9  1  0  0  0  0
  4 17  2  0  0  0  0
  5 19  1  0  0  0  0
  6 21  1  0  0  0  0
  7 10  2  0  0  0  0
  7 20  1  0  0  0  0
  8 27  1  0  0  0  0
  9 27  2  0  0  0  0
 10 28  1  0  0  0  0
 11 12  2  0  0  0  0
 11 29  1  0  0  0  0
 12 30  1  0  0  0  0
 13 22  1  0  0  0  0
 13 28  2  0  0  0  0
 14 23  2  0  0  0  0
 14 26  1  0  0  0  0
 15 24  1  0  0  0  0
 15 26  2  0  0  0  0
 16 30  2  0  0  0  0
 16 31  1  0  0  0  0
 17 32  1  0  0  0  0
 18 32  1  0  0  0  0
 18 33  2  0  0  0  0
 18 34  1  0  0  0  0
 19 21  2  0  0  0  0
 19 39  1  0  0  0  0
 20 22  2  0  0  0  0
 20 40  1  0  0  0  0
 21 51  1  0  0  0  0
 22 41  1  0  0  0  0
 23 25  1  0  0  0  0
 23 55  1  0  0  0  0
 24 25  2  0  0  0  0
 24 56  1  0  0  0  0
 25 62  1  0  0  0  0
 26 73  1  0  0  0  0
 27 83  1  0  0  0  0
 28 84  1  0  0  0  0
 29 31  2  0  0  0  0
 29 83  1  0  0  0  0
 30 85  1  0  0  0  0
 31 86  1  0  0  0  0
 32 67  2  0  0  0  0
 33 68  1  0  0  0  0
 33 71  1  0  0  0  0
 34 72  1  0  0  0  0
 34 78  2  0  0  0  0
 35 52  1  0  0  0  0
 35 74  1  0  0  0  0
 35 79  2  0  0  0  0
 36 64  1  0  0  0  0
 36 69  1  0  0  0  0
 36 80  2  0  0  0  0
 37 65  1  0  0  0  0
 37 75  1  0  0  0  0
 37 81  2  0  0  0  0
 38 70  1  0  0  0  0
 38 73  1  0  0  0  0
 38 82  2  0  0  0  0
 39 42  1  0  0  0  0
 40 52  1  0  0  0  0
 41 69  1  0  0  0  0
 42 44  1  0  0  0  0
 43 45  1  0  0  0  0
 43 47  1  0  0  0  0
 44 51  1  0  0  0  0
 45 53  1  0  0  0  0
 46 49  1  0  0  0  0
 46 54  1  0  0  0  0
 47 70  1  0  0  0  0
 48 53  1  0  0  0  0
 48 70  1  0  0  0  0
 49 76  1  0  0  0  0
 50 54  1  0  0  0  0
 50 76  1  0  0  0  0
 51 74  1  0  0  0  0
 52 69  1  0  0  0  0
 53 68  1  0  0  0  0
 54 84  1  0  0  0  0
 57 65  1  0  0  0  0
 58 66  1  0  0  0  0
 59 66  1  0  0  0  0
 60 66  1  0  0  0  0
 61 77  1  0  0  0  0
 62 63  1  0  0  0  0
 63 76  1  0  0  0  0
 64 66  1  0  0  0  0
 64 75  1  0  0  0  0
 65 77  1  0  0  0  0
 67 68  1  0  0  0  0
M  CHG  2  76   1  77   1
M  ISO  4  38 100  54 101  73 100  84 101
M  END
> <Batch ID>
0134

> <Smiles>
CNC(C)C(=O)NC(C(=O)N1Cc2cc([101O:1][101CH:1]3CCN(CCc4c(C)cc([100NH:0][100C:0](=O)N5CCCC(n6nc(-c7ccc(Oc8ccc(F)cc8F)cc7)c(C(N)=O)c6N)C5)cc4C)C3)ccc2CC1C(=O)NC1CCCc2ccccc21)C(C)(C)C

> <Shape>
0.249

> <Color>
0.108

> <Negative vol penalty>
0.000

$$$$

  -OEChem-04052320573D

 90 99  0     1  0  0  0  0  0999 V2000
  -29.7995  -12.6564   19.3306 C   0  0  0  0  0  0  0  0  0  0  0  0
  -29.7138  -14.0049   19.6618 C   0  0  0  0  0  0  0  0  0  0  0  0
  -29.1481  -23.6734   18.7599 C   0  0  0  0  0  0  0  0  0  0  0  0
  -27.6809  -23.4129   20.6616 C   0  0  0  0  0  0  0  0  0  0  0  0
  -28.6567  -11.9632   18.9340 C   0  0  0  0  0  0  0  0  0  0  0  0
  -28.4852  -14.6612   19.5953 C   0  0  0  0  0  0  0  0  0  0  0  0
  -24.7641  -19.8808   22.7931 C   0  0  0  0  0  0  0  0  0  0  0  0
  -18.5579  -26.7231   21.9804 C   0  0  0  0  0  0  0  0  0  0  0  0
  -18.1219  -27.6300   22.9464 C   0  0  0  0  0  0  0  0  0  0  0  0
  -29.6995  -22.4175   19.0132 C   0  0  0  0  0  0  0  0  0  0  0  0
  -28.2323  -22.1569   20.9149 C   0  0  0  0  0  0  0  0  0  0  0  0
  -24.0662  -21.0485   22.4878 C   0  0  0  0  0  0  0  0  0  0  0  0
  -31.2420  -19.1264   18.9442 C   0  0  0  0  0  0  0  0  0  0  0  0
  -31.4283  -18.2693   17.8597 C   0  0  0  0  0  0  0  0  0  0  0  0
  -20.7832  -27.6550   22.1097 C   0  0  0  0  0  0  0  0  0  0  0  0
  -22.1444  -19.7299   21.8656 C   0  0  0  0  0  0  0  0  0  0  0  0
  -29.0552  -18.3231   17.4096 C   0  0  0  0  0  0  0  0  0  0  0  0
  -28.1389  -24.1712   19.5842 C   0  0  0  0  0  0  0  0  0  0  0  0
  -26.4599  -25.7619   18.5078 C   0  0  0  0  0  0  0  0  0  0  0  0
  -27.4118  -12.6089   18.8720 C   0  0  0  0  0  0  0  0  0  0  0  0
  -24.1601  -18.6263   22.6263 C   0  0  0  0  0  0  0  0  0  0  0  0
  -27.3250  -13.9763   19.1962 C   0  0  0  0  0  0  0  0  0  0  0  0
  -20.3473  -28.5619   23.0757 C   0  0  0  0  0  0  0  0  0  0  0  0
  -22.8359  -18.5479   22.1719 C   0  0  0  0  0  0  0  0  0  0  0  0
  -19.8885  -26.7356   21.5621 C   0  0  0  0  0  0  0  0  0  0  0  0
  -19.0166  -28.5494   23.4940 C   0  0  0  0  0  0  0  0  0  0  0  0
  -29.2416  -21.6592   20.0907 C   0  0  0  0  0  0  0  0  0  0  0  0
  -22.7571  -20.9730   22.0212 C   0  0  0  0  0  0  0  0  0  0  0  0
  -29.9623  -19.5819   19.2615 C   0  0  0  0  0  0  0  0  0  0  0  0
  -30.3349  -17.8676   17.0924 C   0  0  0  0  0  0  0  0  0  0  0  0
  -28.8689  -19.1802   18.4942 C   0  0  0  0  0  0  0  0  0  0  0  0
  -27.5693  -25.4688   19.3233 C   0  0  0  0  0  0  0  0  0  0  0  0
  -26.3237  -27.1261   18.5907 C   0  0  0  0  0  0  0  0  0  0  0  0
  -25.6269  -24.8798   17.7438 C   0  0  0  0  0  0  0  0  0  0  0  0
  -24.7589  -16.0686   20.8365 C   0  0  0  0  0  0  0  0  0  0  0  0
  -22.3351  -14.7763   22.5619 C   0  0  0  0  0  0  0  0  0  0  0  0
  -19.5275  -15.2737   24.4372 C   0  0  0  0  0  0  0  0  0  0  0  0
  -27.9322  -31.1403   22.7320 C   0  0  0  0  0  0  0  0  0  0  0  0
  -26.2130  -11.8297   18.3921 C   0  0  0  0  0  0  0  0  0  0  0  0
  -24.9174  -17.3773   22.9855 C   0  0  0  0  0  0  0  0  0  0  0  0
  -22.1352  -17.2265   21.9948 C   0  0  0  0  0  0  0  0  0  0  0  0
  -24.8811  -12.5052   18.7084 C   0  0  0  0  0  0  0  0  0  0  0  0
  -28.8795  -31.1080   19.3000 C   0  0  0  0  0  0  0  0  0  0  0  0
  -21.8737  -30.4494   22.5380 C   0  0  0  0  0  0  0  0  0  0  0  0
  -22.4641  -28.7905   24.3594 C   0  0  0  0  0  0  0  0  0  0  0  0
  -24.9334  -13.9855   18.3441 C   0  0  0  0  0  0  0  0  0  0  0  0
  -22.9300  -31.4133   23.0776 C   0  0  0  0  0  0  0  0  0  0  0  0
  -23.5190  -29.7584   24.8948 C   0  0  0  0  0  0  0  0  0  0  0  0
  -28.5510  -29.6856   18.8432 C   0  0  0  0  0  0  0  0  0  0  0  0
  -29.3990  -31.1339   20.7357 C   0  0  0  0  0  0  0  0  0  0  0  0
  -28.1975  -29.0484   21.2656 C   0  0  0  0  0  0  0  0  0  0  0  0
  -21.3230  -29.5373   23.6477 C   0  0  0  0  0  0  0  0  0  0  0  0
  -26.0058  -14.7170   19.1604 C   0  0  1  0  0  0  0  0  0  0  0  0
  -24.3793  -16.1312   22.2889 C   0  0  1  0  0  0  0  0  0  0  0  0
  -24.0677  -30.6684   23.7881 C   0  0  0  0  0  0  0  0  0  0  0  0
  -27.6170  -28.9772   19.8428 C   0  0  2  0  0  0  0  0  0  0  0  0
  -18.5265  -29.5114   24.5260 C   0  0  0  0  0  0  0  0  0  0  0  0
  -17.7413  -14.0234   25.6796 C   0  0  0  0  0  0  0  0  0  0  0  0
  -21.0012  -14.0556   19.9139 C   0  0  0  0  0  0  0  0  0  0  0  0
  -18.8642  -13.6971   21.1680 C   0  0  0  0  0  0  0  0  0  0  0  0
  -20.8561  -12.2825   21.6717 C   0  0  0  0  0  0  0  0  0  0  0  0
  -20.2765  -16.5287   27.0107 C   0  0  0  0  0  0  0  0  0  0  0  0
  -20.3570  -25.7603   20.5227 C   0  0  0  0  0  0  0  0  0  0  0  0
  -25.0850  -31.6555   24.3574 C   0  0  0  0  0  0  0  0  0  0  0  0
  -26.4154  -30.9956   24.6909 C   0  0  0  0  0  0  0  0  0  0  0  0
  -20.9248  -23.3781   20.0315 C   0  0  0  0  0  0  0  0  0  0  0  0
  -21.0862  -22.0249   20.6955 C   0  0  0  0  0  0  0  0  0  1  0  0
  -20.8351  -14.7010   22.4083 C   0  0  1  0  0  0  0  0  0  0  0  0
  -19.0974  -14.7047   25.7773 C   0  0  2  0  0  0  0  0  0  0  0  0
  -20.4027  -13.7090   21.2919 C   0  0  0  0  0  0  0  0  0  0  0  0
  -28.1003  -26.5591   19.8830 N   0  0  0  0  0  0  0  0  0  0  0  0
  -27.3212  -27.5507   19.4183 N   0  0  0  0  0  0  0  0  0  0  0  0
  -22.9197  -16.0335   22.3534 N   0  0  0  0  0  0  0  0  0  0  0  0
  -28.4666  -30.4474   21.6331 N   0  0  0  0  0  0  0  0  0  0  0  0
  -25.4493  -27.9919   18.0356 N   0  0  0  0  0  0  0  0  0  0  0  0
  -25.9064  -23.5067   17.7704 N   0  0  0  0  0  0  0  0  0  0  0  0
  -25.5317  -14.9724   20.5037 N   0  0  0  0  0  0  0  0  0  0  0  0
  -20.3051  -14.3817   23.7295 N   0  0  0  0  0  0  0  0  0  0  0  0
  -27.0517  -30.4180   23.5281 N   0  0  0  0  0  0  0  0  0  0  0  0
  -19.0061  -15.7893   26.7953 N   0  3  0  0  0  0  0  0  0  0  0  0
  -20.5195  -24.3788   21.0506 N   0  3  0  0  0  0  0  0  0  0  0  0
  -24.6733  -25.2988   17.0447 O   0  0  0  0  0  0  0  0  0  0  0  0
  -24.3777  -16.9488   20.0739 O   0  0  0  0  0  0  0  0  0  0  0  0
  -22.9639  -13.7587   22.8629 O   0  0  0  0  0  0  0  0  0  0  0  0
  -19.2029  -16.3957   24.0548 O   0  0  0  0  0  0  0  0  0  0  0  0
  -28.2145  -32.3171   22.9818 O   0  0  0  0  0  0  0  0  0  0  0  0
  -29.7792  -20.4335   20.3380 O   0  0  0  0  0  0  0  0  0  0  0  0
  -22.0738  -22.1112   21.7219 O   0  0  0  0  0  0  0  0  0  1  0  0
  -30.5141  -17.0457   16.0501 F   0  0  0  0  0  0  0  0  0  0  0  0
  -27.6373  -19.6154   18.7934 F   0  0  0  0  0  0  0  0  0  0  0  0
  1  2  1  0  0  0  0
  1  5  2  0  0  0  0
  2  6  2  0  0  0  0
  3 10  2  0  0  0  0
  3 18  1  0  0  0  0
  4 11  1  0  0  0  0
  4 18  2  0  0  0  0
  5 20  1  0  0  0  0
  6 22  1  0  0  0  0
  7 12  2  0  0  0  0
  7 21  1  0  0  0  0
  8  9  2  0  0  0  0
  8 25  1  0  0  0  0
  9 26  1  0  0  0  0
 10 27  1  0  0  0  0
 11 27  2  0  0  0  0
 12 28  1  0  0  0  0
 13 14  2  0  0  0  0
 13 29  1  0  0  0  0
 14 30  1  0  0  0  0
 15 23  1  0  0  0  0
 15 25  2  0  0  0  0
 16 24  1  0  0  0  0
 16 28  2  0  0  0  0
 17 30  2  0  0  0  0
 17 31  1  0  0  0  0
 18 32  1  0  0  0  0
 19 32  1  0  0  0  0
 19 33  2  0  0  0  0
 19 34  1  0  0  0  0
 20 22  2  0  0  0  0
 20 39  1  0  0  0  0
 21 24  2  0  0  0  0
 21 40  1  0  0  0  0
 22 53  1  0  0  0  0
 23 26  2  0  0  0  0
 23 52  1  0  0  0  0
 24 41  1  0  0  0  0
 25 63  1  0  0  0  0
 26 57  1  0  0  0  0
 27 87  1  0  0  0  0
 28 88  1  0  0  0  0
 29 31  2  0  0  0  0
 29 87  1  0  0  0  0
 30 89  1  0  0  0  0
 31 90  1  0  0  0  0
 32 71  2  0  0  0  0
 33 72  1  0  0  0  0
 33 75  1  0  0  0  0
 34 76  1  0  0  0  0
 34 82  2  0  0  0  0
 35 54  1  0  0  0  0
 35 77  1  0  0  0  0
 35 83  2  0  0  0  0
 36 68  1  0  0  0  0
 36 73  1  0  0  0  0
 36 84  2  0  0  0  0
 37 69  1  0  0  0  0
 37 78  1  0  0  0  0
 37 85  2  0  0  0  0
 38 74  1  0  0  0  0
 38 79  1  0  0  0  0
 38 86  2  0  0  0  0
 39 42  1  0  0  0  0
 40 54  1  0  0  0  0
 41 73  1  0  0  0  0
 42 46  1  0  0  0  0
 43 49  1  0  0  0  0
 43 50  1  0  0  0  0
 44 47  1  0  0  0  0
 44 52  1  0  0  0  0
 45 48  1  0  0  0  0
 45 52  1  0  0  0  0
 46 53  1  0  0  0  0
 47 55  1  0  0  0  0
 48 55  1  0  0  0  0
 49 56  1  0  0  0  0
 50 74  1  0  0  0  0
 51 56  1  0  0  0  0
 51 74  1  0  0  0  0
 53 77  1  0  0  0  0
 54 73  1  0  0  0  0
 55 64  1  0  0  0  0
 56 72  1  0  0  0  0
 58 69  1  0  0  0  0
 59 70  1  0  0  0  0
 60 70  1  0  0  0  0
 61 70  1  0  0  0  0
 62 80  1  0  0  0  0
 63 81  1  0  0  0  0
 64 65  1  0  0  0  0
 65 79  1  0  0  0  0
 66 67  1  0  0  0  0
 66 81  1  0  0  0  0
 67 88  1  0  0  0  0
 68 70  1  0  0  0  0
 68 78  1  0  0  0  0
 69 80  1  0  0  0  0
 71 72  1  0  0  0  0
M  CHG  2  80   1  81   1
M  ISO  4  38 100  67 101  79 100  88 101
M  END
> <Batch ID>
0134

> <Smiles>
CNC(C)C(=O)NC(C(=O)N1Cc2cc([101O:1][101CH2:1]CNCc3ccc(C)c(C4CCC(CC[100NH:0][100C:0](=O)N5CCCC(n6nc(-c7ccc(Oc8ccc(F)cc8F)cc7)c(C(N)=O)c6N)C5)CC4)c3)ccc2CC1C(=O)NC1CCCc2ccccc21)C(C)(C)C

> <Shape>
0.245

> <Color>
0.077

> <Negative vol penalty>
0.000

$$$$

  -OEChem-04052320573D

 85 93  0     1  0  0  0  0  0999 V2000
  -31.6540  -34.0570   20.9379 C   0  0  0  0  0  0  0  0  0  0  0  0
  -31.2006  -32.7694   20.6700 C   0  0  0  0  0  0  0  0  0  0  0  0
  -26.6255  -11.9354   21.3263 C   0  0  0  0  0  0  0  0  0  0  0  0
  -25.8243  -13.5863   19.7547 C   0  0  0  0  0  0  0  0  0  0  0  0
  -31.1136  -34.7779   22.0019 C   0  0  0  0  0  0  0  0  0  0  0  0
  -30.2071  -32.2014   21.4668 C   0  0  0  0  0  0  0  0  0  0  0  0
  -26.6309  -29.8679   18.7446 C   0  0  0  0  0  0  0  0  0  0  0  0
  -25.3133  -11.5295   21.5689 C   0  0  0  0  0  0  0  0  0  0  0  0
  -24.5120  -13.1804   19.9974 C   0  0  0  0  0  0  0  0  0  0  0  0
  -26.9377  -28.6052   18.2395 C   0  0  0  0  0  0  0  0  0  0  0  0
  -22.9791   -9.6094   20.0531 C   0  0  0  0  0  0  0  0  0  0  0  0
  -22.7200   -8.2392   20.0861 C   0  0  0  0  0  0  0  0  0  0  0  0
  -25.7035  -27.5894   20.0462 C   0  0  0  0  0  0  0  0  0  0  0  0
  -29.3693  -22.8735   20.9313 C   0  0  0  0  0  0  0  0  0  0  0  0
  -21.9402   -8.4416   22.3639 C   0  0  0  0  0  0  0  0  0  0  0  0
  -26.8810  -12.9638   20.4192 C   0  0  0  0  0  0  0  0  0  0  0  0
  -29.1154  -12.8804   19.1911 C   0  0  0  0  0  0  0  0  0  0  0  0
  -30.1063  -34.2221   22.8063 C   0  0  0  0  0  0  0  0  0  0  0  0
  -25.8660  -30.0009   19.9124 C   0  0  0  0  0  0  0  0  0  0  0  0
  -29.6537  -32.9150   22.5435 C   0  0  0  0  0  0  0  0  0  0  0  0
  -25.3863  -28.8550   20.5626 C   0  0  0  0  0  0  0  0  0  0  0  0
  -30.1119  -20.6954   20.2321 C   0  0  0  0  0  0  0  0  0  0  0  0
  -24.2565  -12.1519   20.9045 C   0  0  0  0  0  0  0  0  0  0  0  0
  -26.4764  -27.4656   18.8920 C   0  0  0  0  0  0  0  0  0  0  0  0
  -22.7189  -10.3957   21.1755 C   0  0  0  0  0  0  0  0  0  0  0  0
  -29.8470  -21.6068   21.2483 C   0  0  0  0  0  0  0  0  0  0  0  0
  -22.2005   -7.6553   21.2415 C   0  0  0  0  0  0  0  0  0  0  0  0
  -22.1994   -9.8118   22.3308 C   0  0  0  0  0  0  0  0  0  0  0  0
  -28.2363  -13.3839   20.1685 C   0  0  0  0  0  0  0  0  0  0  0  0
  -29.8843  -21.0965   18.9256 C   0  0  0  0  0  0  0  0  0  0  0  0
  -29.1751  -23.1772   19.5934 C   0  0  0  0  0  0  0  0  0  0  0  0
  -30.2699  -13.6045   19.3619 C   0  0  0  0  0  0  0  0  0  0  0  0
  -28.9070  -11.8502   18.2159 C   0  0  0  0  0  0  0  0  0  0  0  0
  -26.3735  -31.2333   22.7981 C   0  0  0  0  0  0  0  0  0  0  0  0
  -23.2227  -30.5778   23.2045 C   0  0  0  0  0  0  0  0  0  0  0  0
  -20.5065  -28.7269   22.2859 C   0  0  0  0  0  0  0  0  0  0  0  0
  -31.3940  -19.0240   21.6137 C   0  0  0  0  0  0  0  0  0  0  0  0
  -29.5861  -35.0218   23.9744 C   0  0  0  0  0  0  0  0  0  0  0  0
  -25.5213  -31.3707   20.4294 C   0  0  0  0  0  0  0  0  0  0  0  0
  -24.5443  -28.9440   21.8083 C   0  0  0  0  0  0  0  0  0  0  0  0
  -28.2720  -34.4895   24.5401 C   0  0  0  0  0  0  0  0  0  0  0  0
  -32.7687  -15.9314   22.7199 C   0  0  0  0  0  0  0  0  0  0  0  0
  -28.3405  -32.9758   24.7155 C   0  0  0  0  0  0  0  0  0  0  0  0
  -31.8460  -14.8811   22.0972 C   0  0  0  0  0  0  0  0  0  0  0  0
  -31.9974  -17.1745   23.1599 C   0  0  0  0  0  0  0  0  0  0  0  0
  -30.2324  -16.7320   21.4991 C   0  0  0  0  0  0  0  0  0  0  0  0
  -28.5600  -32.2739   23.3699 C   0  0  1  0  0  0  0  0  0  0  0  0
  -25.1676  -31.3777   21.9134 C   0  0  1  0  0  0  0  0  0  0  0  0
  -30.9732  -15.4883   20.9813 C   0  0  2  0  0  0  0  0  0  0  0  0
  -30.1484  -20.1630   17.7889 C   0  0  0  0  0  0  0  0  0  0  0  0
  -27.9187  -20.3015   25.4888 C   0  0  0  0  0  0  0  0  0  0  0  0
  -18.0784  -28.3914   22.8233 C   0  0  0  0  0  0  0  0  0  0  0  0
  -23.9952  -29.0454   25.7273 C   0  0  0  0  0  0  0  0  0  0  0  0
  -21.7355  -27.9684   25.6812 C   0  0  0  0  0  0  0  0  0  0  0  0
  -21.9315  -30.4411   25.9454 C   0  0  0  0  0  0  0  0  0  0  0  0
  -19.6758  -29.4946   19.5511 C   0  0  0  0  0  0  0  0  0  0  0  0
  -29.1002  -20.3158   24.5357 C   0  0  0  0  0  0  0  0  0  0  0  0
  -28.9132  -21.3302   23.4179 C   0  0  0  0  0  0  0  0  0  0  0  0
  -28.0069  -26.0946   17.6944 C   0  0  0  0  0  0  0  0  0  1  0  0
  -28.5230  -24.6794   17.8689 C   0  0  0  0  0  0  0  0  0  0  0  0
  -22.4330  -29.3908   23.7010 C   0  0  1  0  0  0  0  0  0  0  0  0
  -19.0816  -29.1278   21.9492 C   0  0  2  0  0  0  0  0  0  0  0  0
  -22.5413  -29.2094   25.2413 C   0  0  0  0  0  0  0  0  0  0  0  0
  -28.7854  -14.3529   20.9058 N   0  0  0  0  0  0  0  0  0  0  0  0
  -29.4210  -22.3183   18.5788 N   0  0  0  0  0  0  0  0  0  0  0  0
  -30.0220  -14.4640   20.3914 N   0  0  0  0  0  0  0  0  0  0  0  0
  -24.2395  -30.3055   22.2783 N   0  0  0  0  0  0  0  0  0  0  0  0
  -31.1968  -17.6968   22.0504 N   0  0  0  0  0  0  0  0  0  0  0  0
  -31.4629  -13.5834   18.7304 N   0  0  0  0  0  0  0  0  0  0  0  0
  -27.6616  -11.2084   18.1777 N   0  0  0  0  0  0  0  0  0  0  0  0
  -30.5992  -19.3989   20.5310 N   0  0  0  0  0  0  0  0  0  0  0  0
  -27.3235  -32.2208   22.6199 N   0  0  0  0  0  0  0  0  0  0  0  0
  -21.0697  -29.5755   23.2154 N   0  0  0  0  0  0  0  0  0  0  0  0
  -18.7794  -28.8176   20.5232 N   0  3  0  0  0  0  0  0  0  0  0  0
  -29.8042  -11.4977   17.4132 O   0  0  0  0  0  0  0  0  0  0  0  0
  -26.4366  -30.2962   23.5852 O   0  0  0  0  0  0  0  0  0  0  0  0
  -22.9428  -31.7059   23.6176 O   0  0  0  0  0  0  0  0  0  0  0  0
  -21.0629  -27.7558   21.7781 O   0  0  0  0  0  0  0  0  0  0  0  0
  -32.2274  -19.7640   22.1426 O   0  0  0  0  0  0  0  0  0  0  0  0
  -22.9759  -11.7560   21.1408 O   0  0  0  0  0  0  0  0  0  0  0  0
  -26.7749  -26.2318   18.4015 O   0  0  0  0  0  0  0  0  0  1  0  0
  -30.0481  -21.2806   22.5556 O   0  0  0  0  0  0  0  0  0  0  0  0
  -28.7048  -24.4188   19.2554 O   0  0  0  0  0  0  0  0  0  0  0  0
  -21.9503   -6.3398   21.2725 F   0  0  0  0  0  0  0  0  0  0  0  0
  -21.9462  -10.5623   23.4118 F   0  0  0  0  0  0  0  0  0  0  0  0
  1  2  1  0  0  0  0
  1  5  2  0  0  0  0
  2  6  2  0  0  0  0
  3  8  2  0  0  0  0
  3 16  1  0  0  0  0
  4  9  1  0  0  0  0
  4 16  2  0  0  0  0
  5 18  1  0  0  0  0
  6 20  1  0  0  0  0
  7 10  2  0  0  0  0
  7 19  1  0  0  0  0
  8 23  1  0  0  0  0
  9 23  2  0  0  0  0
 10 24  1  0  0  0  0
 11 12  2  0  0  0  0
 11 25  1  0  0  0  0
 12 27  1  0  0  0  0
 13 21  1  0  0  0  0
 13 24  2  0  0  0  0
 14 26  1  0  0  0  0
 14 31  2  0  0  0  0
 15 27  2  0  0  0  0
 15 28  1  0  0  0  0
 16 29  1  0  0  0  0
 17 29  1  0  0  0  0
 17 32  2  0  0  0  0
 17 33  1  0  0  0  0
 18 20  2  0  0  0  0
 18 38  1  0  0  0  0
 19 21  2  0  0  0  0
 19 39  1  0  0  0  0
 20 47  1  0  0  0  0
 21 40  1  0  0  0  0
 22 26  2  0  0  0  0
 22 30  1  0  0  0  0
 22 71  1  0  0  0  0
 23 80  1  0  0  0  0
 24 81  1  0  0  0  0
 25 28  2  0  0  0  0
 25 80  1  0  0  0  0
 26 82  1  0  0  0  0
 27 84  1  0  0  0  0
 28 85  1  0  0  0  0
 29 64  2  0  0  0  0
 30 50  1  0  0  0  0
 30 65  2  0  0  0  0
 31 65  1  0  0  0  0
 31 83  1  0  0  0  0
 32 66  1  0  0  0  0
 32 69  1  0  0  0  0
 33 70  1  0  0  0  0
 33 75  2  0  0  0  0
 34 48  1  0  0  0  0
 34 72  1  0  0  0  0
 34 76  2  0  0  0  0
 35 61  1  0  0  0  0
 35 67  1  0  0  0  0
 35 77  2  0  0  0  0
 36 62  1  0  0  0  0
 36 73  1  0  0  0  0
 36 78  2  0  0  0  0
 37 68  1  0  0  0  0
 37 71  1  0  0  0  0
 37 79  2  0  0  0  0
 38 41  1  0  0  0  0
 39 48  1  0  0  0  0
 40 67  1  0  0  0  0
 41 43  1  0  0  0  0
 42 44  1  0  0  0  0
 42 45  1  0  0  0  0
 43 47  1  0  0  0  0
 44 49  1  0  0  0  0
 45 68  1  0  0  0  0
 46 49  1  0  0  0  0
 46 68  1  0  0  0  0
 47 72  1  0  0  0  0
 48 67  1  0  0  0  0
 49 66  1  0  0  0  0
 51 57  1  0  0  0  0
 52 62  1  0  0  0  0
 53 63  1  0  0  0  0
 54 63  1  0  0  0  0
 55 63  1  0  0  0  0
 56 74  1  0  0  0  0
 57 58  1  0  0  0  0
 58 82  1  0  0  0  0
 59 60  1  0  0  0  0
 59 81  1  0  0  0  0
 60 83  1  0  0  0  0
 61 63  1  0  0  0  0
 61 73  1  0  0  0  0
 62 74  1  0  0  0  0
 64 66  1  0  0  0  0
M  CHG  1  74   1
M  ISO  4  37 100  59 101  71 100  81 101
M  END
> <Batch ID>
0134

> <Smiles>
CCCOc1cc(OC[101CH2:1][101O:1]c2ccc3c(c2)CN(C(=O)C(NC(=O)C(C)NC)C(C)(C)C)C(C(=O)NC2CCCc4ccccc42)C3)nc(C)c1[100NH:0][100C:0](=O)N1CCCC(n2nc(-c3ccc(Oc4ccc(F)cc4F)cc3)c(C(N)=O)c2N)C1

> <Shape>
0.312

> <Color>
0.089

> <Negative vol penalty>
0.000

$$$$

  -OEChem-04052320573D

 84 93  0     1  0  0  0  0  0999 V2000
  -22.0817  -36.6764   23.2174 C   0  0  0  0  0  0  0  0  0  0  0  0
  -22.9798  -36.2058   22.2649 C   0  0  0  0  0  0  0  0  0  0  0  0
  -23.1789   -9.8027   20.2918 C   0  0  0  0  0  0  0  0  0  0  0  0
  -23.8240  -10.1950   22.5868 C   0  0  0  0  0  0  0  0  0  0  0  0
  -22.3529  -36.5048   24.5742 C   0  0  0  0  0  0  0  0  0  0  0  0
  -24.1502  -35.5643   22.6686 C   0  0  0  0  0  0  0  0  0  0  0  0
  -25.5903  -28.8203   20.5863 C   0  0  0  0  0  0  0  0  0  0  0  0
  -22.4556   -8.6776   20.6874 C   0  0  0  0  0  0  0  0  0  0  0  0
  -23.1006   -9.0698   22.9824 C   0  0  0  0  0  0  0  0  0  0  0  0
  -26.0375  -27.6086   20.0590 C   0  0  0  0  0  0  0  0  0  0  0  0
  -19.8698   -8.2638   23.5591 C   0  0  0  0  0  0  0  0  0  0  0  0
  -19.0573   -8.3812   24.6868 C   0  0  0  0  0  0  0  0  0  0  0  0
  -28.0255  -27.7335   21.4304 C   0  0  0  0  0  0  0  0  0  0  0  0
  -20.3136   -6.6274   25.7744 C   0  0  0  0  0  0  0  0  0  0  0  0
  -23.8632  -10.5614   21.2415 C   0  0  0  0  0  0  0  0  0  0  0  0
  -24.1409  -13.0471   20.7395 C   0  0  0  0  0  0  0  0  0  0  0  0
  -23.5225  -35.8523   24.9947 C   0  0  0  0  0  0  0  0  0  0  0  0
  -26.3525  -29.4863   21.5501 C   0  0  0  0  0  0  0  0  0  0  0  0
  -24.4379  -35.3850   24.0324 C   0  0  0  0  0  0  0  0  0  0  0  0
  -27.5766  -28.9413   21.9712 C   0  0  0  0  0  0  0  0  0  0  0  0
  -22.4164   -8.3112   22.0327 C   0  0  0  0  0  0  0  0  0  0  0  0
  -27.2522  -27.0667   20.4799 C   0  0  0  0  0  0  0  0  0  0  0  0
  -20.9042   -7.3282   23.5391 C   0  0  0  0  0  0  0  0  0  0  0  0
  -19.2792   -7.5630   25.7944 C   0  0  0  0  0  0  0  0  0  0  0  0
  -21.1261   -6.5100   24.6467 C   0  0  0  0  0  0  0  0  0  0  0  0
  -24.6110  -11.7234   20.8334 C   0  0  0  0  0  0  0  0  0  0  0  0
  -25.2287  -13.7682   20.3114 C   0  0  0  0  0  0  0  0  0  0  0  0
  -22.8376  -13.5774   21.0148 C   0  0  0  0  0  0  0  0  0  0  0  0
  -26.6740  -32.4506   23.8271 C   0  0  0  0  0  0  0  0  0  0  0  0
  -27.6530  -30.0069   25.4021 C   0  0  0  0  0  0  0  0  0  0  0  0
  -28.2491  -27.0134   26.9254 C   0  0  0  0  0  0  0  0  0  0  0  0
  -30.6663  -14.9951   20.5802 C   0  0  0  0  0  0  0  0  0  0  0  0
  -23.7954  -35.7323   26.4732 C   0  0  0  0  0  0  0  0  0  0  0  0
  -25.9394  -30.8244   22.1002 C   0  0  0  0  0  0  0  0  0  0  0  0
  -28.3797  -29.7100   22.9846 C   0  0  0  0  0  0  0  0  0  0  0  0
  -24.8767  -34.7095   26.8119 C   0  0  0  0  0  0  0  0  0  0  0  0
  -29.7141  -12.2283   18.5518 C   0  0  0  0  0  0  0  0  0  0  0  0
  -26.0856  -34.8885   25.8990 C   0  0  0  0  0  0  0  0  0  0  0  0
  -28.6203  -22.7671   21.8452 C   0  0  0  0  0  0  0  0  0  0  0  0
  -30.7122  -23.8745   20.9542 C   0  0  0  0  0  0  0  0  0  0  0  0
  -28.2656  -11.9558   18.9613 C   0  0  0  0  0  0  0  0  0  0  0  0
  -27.7660  -23.7412   21.0396 C   0  0  0  0  0  0  0  0  0  0  0  0
  -29.8520  -24.8460   20.1515 C   0  0  0  0  0  0  0  0  0  0  0  0
  -30.3589  -18.2454   20.2795 C   0  0  0  0  0  0  0  0  0  0  0  0
  -30.1025  -17.9247   22.7677 C   0  0  0  0  0  0  0  0  0  0  0  0
  -30.5643  -12.6661   19.7423 C   0  0  0  0  0  0  0  0  0  0  0  0
  -28.5770  -13.5383   20.9100 C   0  0  0  0  0  0  0  0  0  0  0  0
  -30.9466  -19.6289   20.5249 C   0  0  0  0  0  0  0  0  0  0  0  0
  -30.6903  -19.3104   23.0003 C   0  0  0  0  0  0  0  0  0  0  0  0
  -25.7063  -34.6620   24.4306 C   0  0  1  0  0  0  0  0  0  0  0  0
  -26.3224  -31.0132   23.5790 C   0  0  1  0  0  0  0  0  0  0  0  0
  -29.9897  -22.5407   21.1895 C   0  0  0  0  0  0  0  0  0  0  0  0
  -27.6674  -13.1476   19.7326 C   0  0  2  0  0  0  0  0  0  0  0  0
  -30.6103  -17.3105   21.4631 C   0  0  0  0  0  0  0  0  0  0  0  0
  -28.4890  -25.0648   20.8048 C   0  0  0  0  0  0  0  0  0  1  0  0
  -28.9595  -26.0275   29.1211 C   0  0  0  0  0  0  0  0  0  0  0  0
  -30.5366  -30.8204   24.8302 C   0  0  0  0  0  0  0  0  0  0  0  0
  -31.2790  -29.0657   26.4544 C   0  0  0  0  0  0  0  0  0  0  0  0
  -29.8679  -30.9687   27.2354 C   0  0  0  0  0  0  0  0  0  0  0  0
  -25.7014  -25.5363   27.2186 C   0  0  0  0  0  0  0  0  0  0  0  0
  -30.8471  -21.6058   22.0404 C   0  0  0  0  0  0  0  0  0  0  0  0
  -28.8267  -29.1551   25.8146 C   0  0  1  0  0  0  0  0  0  0  0  0
  -27.7825  -26.4490   28.2552 C   0  0  2  0  0  0  0  0  0  0  0  0
  -30.1113  -29.9956   26.0613 C   0  0  0  0  0  0  0  0  0  0  0  0
  -25.8971  -11.6076   20.4922 N   0  0  0  0  0  0  0  0  0  0  0  0
  -26.2445  -12.8676   20.1796 N   0  0  0  0  0  0  0  0  0  0  0  0
  -27.4922  -30.2410   24.0310 N   0  0  0  0  0  0  0  0  0  0  0  0
  -29.9425  -13.8007   20.4294 N   0  0  0  0  0  0  0  0  0  0  0  0
  -25.4057  -15.0783   20.0384 N   0  0  0  0  0  0  0  0  0  0  0  0
  -21.8356  -12.6974   21.4460 N   0  0  0  0  0  0  0  0  0  0  0  0
  -25.5919  -33.2468   24.1506 N   0  0  0  0  0  0  0  0  0  0  0  0
  -28.3851  -28.3848   26.9722 N   0  0  0  0  0  0  0  0  0  0  0  0
  -30.0009  -16.0227   21.2375 N   0  0  0  0  0  0  0  0  0  0  0  0
  -30.3908  -20.1910   21.8112 N   0  3  0  0  0  0  0  0  0  0  0  0
  -26.9107  -25.2603   28.0361 N   0  3  0  0  0  0  0  0  0  0  0  0
  -22.5650  -14.7928   20.8665 O   0  0  0  0  0  0  0  0  0  0  0  0
  -27.8413  -32.8119   23.7339 O   0  0  0  0  0  0  0  0  0  0  0  0
  -26.9009  -30.4586   26.2702 O   0  0  0  0  0  0  0  0  0  0  0  0
  -28.4743  -26.3079   25.9446 O   0  0  0  0  0  0  0  0  0  0  0  0
  -31.8180  -15.1370   20.1556 O   0  0  0  0  0  0  0  0  0  0  0  0
  -21.7105   -7.2135   22.4191 O   0  0  0  0  0  0  0  0  0  0  0  0
  -27.6808  -25.8812   19.9644 O   0  0  0  0  0  0  0  0  0  1  0  0
  -18.4998   -7.6768   26.8779 F   0  0  0  0  0  0  0  0  0  0  0  0
  -22.1190   -5.6102   24.6338 F   0  0  0  0  0  0  0  0  0  0  0  0
  1  2  1  0  0  0  0
  1  5  2  0  0  0  0
  2  6  2  0  0  0  0
  3  8  2  0  0  0  0
  3 15  1  0  0  0  0
  4  9  1  0  0  0  0
  4 15  2  0  0  0  0
  5 17  1  0  0  0  0
  6 19  1  0  0  0  0
  7 10  2  0  0  0  0
  7 18  1  0  0  0  0
  8 21  1  0  0  0  0
  9 21  2  0  0  0  0
 10 22  1  0  0  0  0
 11 12  2  0  0  0  0
 11 23  1  0  0  0  0
 12 24  1  0  0  0  0
 13 20  1  0  0  0  0
 13 22  2  0  0  0  0
 14 24  2  0  0  0  0
 14 25  1  0  0  0  0
 15 26  1  0  0  0  0
 16 26  1  0  0  0  0
 16 27  2  0  0  0  0
 16 28  1  0  0  0  0
 17 19  2  0  0  0  0
 17 33  1  0  0  0  0
 18 20  2  0  0  0  0
 18 34  1  0  0  0  0
 19 50  1  0  0  0  0
 20 35  1  0  0  0  0
 21 81  1  0  0  0  0
 22 82  1  0  0  0  0
 23 25  2  0  0  0  0
 23 81  1  0  0  0  0
 24 83  1  0  0  0  0
 25 84  1  0  0  0  0
 26 65  2  0  0  0  0
 27 66  1  0  0  0  0
 27 69  1  0  0  0  0
 28 70  1  0  0  0  0
 28 76  2  0  0  0  0
 29 51  1  0  0  0  0
 29 71  1  0  0  0  0
 29 77  2  0  0  0  0
 30 62  1  0  0  0  0
 30 67  1  0  0  0  0
 30 78  2  0  0  0  0
 31 63  1  0  0  0  0
 31 72  1  0  0  0  0
 31 79  2  0  0  0  0
 32 68  1  0  0  0  0
 32 73  1  0  0  0  0
 32 80  2  0  0  0  0
 33 36  1  0  0  0  0
 34 51  1  0  0  0  0
 35 67  1  0  0  0  0
 36 38  1  0  0  0  0
 37 41  1  0  0  0  0
 37 46  1  0  0  0  0
 38 50  1  0  0  0  0
 39 42  1  0  0  0  0
 39 52  1  0  0  0  0
 40 43  1  0  0  0  0
 40 52  1  0  0  0  0
 41 53  1  0  0  0  0
 42 55  1  0  0  0  0
 43 55  1  0  0  0  0
 44 48  1  0  0  0  0
 44 54  1  0  0  0  0
 45 49  1  0  0  0  0
 45 54  1  0  0  0  0
 46 68  1  0  0  0  0
 47 53  1  0  0  0  0
 47 68  1  0  0  0  0
 48 74  1  0  0  0  0
 49 74  1  0  0  0  0
 50 71  1  0  0  0  0
 51 67  1  0  0  0  0
 52 61  1  0  0  0  0
 53 66  1  0  0  0  0
 54 73  1  0  0  0  0
 55 82  1  0  0  0  0
 56 63  1  0  0  0  0
 57 64  1  0  0  0  0
 58 64  1  0  0  0  0
 59 64  1  0  0  0  0
 60 75  1  0  0  0  0
 61 74  1  0  0  0  0
 62 64  1  0  0  0  0
 62 72  1  0  0  0  0
 63 75  1  0  0  0  0
 65 66  1  0  0  0  0
M  CHG  2  74   1  75   1
M  ISO  4  32 100  55 101  73 100  82 101
M  END
> <Batch ID>
0134

> <Smiles>
CNC(C)C(=O)NC(C(=O)N1Cc2cc([101O:1][101CH:1]3CCC(CN4CCC([100NH:0][100C:0](=O)N5CCCC(n6nc(-c7ccc(Oc8ccc(F)cc8F)cc7)c(C(N)=O)c6N)C5)CC4)CC3)ccc2CC1C(=O)NC1CCCc2ccccc21)C(C)(C)C

> <Shape>
0.330

> <Color>
0.196

> <Negative vol penalty>
0.000

$$$$

  -OEChem-04052320573D

 86 94  0     1  0  0  0  0  0999 V2000
  -28.1065  -30.6701   22.7302 C   0  0  0  0  0  0  0  0  0  0  0  0
  -28.1357  -29.2827   22.6318 C   0  0  0  0  0  0  0  0  0  0  0  0
  -20.9415  -20.3346   21.6810 C   0  0  0  0  0  0  0  0  0  0  0  0
  -23.0881  -20.5895   22.7600 C   0  0  0  0  0  0  0  0  0  0  0  0
  -27.0231  -31.3815   22.2164 C   0  0  0  0  0  0  0  0  0  0  0  0
  -27.0809  -28.6058   22.0206 C   0  0  0  0  0  0  0  0  0  0  0  0
  -28.6700  -25.0050   18.8340 C   0  0  0  0  0  0  0  0  0  0  0  0
  -28.0065  -18.8958   21.9226 C   0  0  0  0  0  0  0  0  0  0  0  0
  -28.5979  -17.7959   22.5440 C   0  0  0  0  0  0  0  0  0  0  0  0
  -20.4117  -21.3322   22.4994 C   0  0  0  0  0  0  0  0  0  0  0  0
  -22.5583  -21.5871   23.5784 C   0  0  0  0  0  0  0  0  0  0  0  0
  -29.1054  -23.8052   19.3950 C   0  0  0  0  0  0  0  0  0  0  0  0
  -20.4411  -24.7101   22.6463 C   0  0  0  0  0  0  0  0  0  0  0  0
  -19.6456  -25.6862   22.0464 C   0  0  0  0  0  0  0  0  0  0  0  0
  -26.9734  -22.7993   18.8830 C   0  0  0  0  0  0  0  0  0  0  0  0
  -29.3688  -18.5211   19.9628 C   0  0  0  0  0  0  0  0  0  0  0  0
  -17.7924  -25.0426   23.4565 C   0  0  0  0  0  0  0  0  0  0  0  0
  -22.2797  -19.9632   21.8114 C   0  0  0  0  0  0  0  0  0  0  0  0
  -23.4396  -19.0991   19.7100 C   0  0  0  0  0  0  0  0  0  0  0  0
  -25.9590  -30.7137   21.5899 C   0  0  0  0  0  0  0  0  0  0  0  0
  -27.3771  -25.1143   18.3022 C   0  0  0  0  0  0  0  0  0  0  0  0
  -25.9816  -29.3089   21.4991 C   0  0  0  0  0  0  0  0  0  0  0  0
  -26.5250  -24.0008   18.3135 C   0  0  0  0  0  0  0  0  0  0  0  0
  -28.3919  -19.2584   20.6320 C   0  0  0  0  0  0  0  0  0  0  0  0
  -29.5747  -17.0586   21.8748 C   0  0  0  0  0  0  0  0  0  0  0  0
  -29.9602  -17.4212   20.5842 C   0  0  0  0  0  0  0  0  0  0  0  0
  -21.2201  -21.9585   23.4480 C   0  0  0  0  0  0  0  0  0  0  0  0
  -28.2560  -22.7029   19.4222 C   0  0  0  0  0  0  0  0  0  0  0  0
  -19.9122  -23.9002   23.6514 C   0  0  0  0  0  0  0  0  0  0  0  0
  -18.3212  -25.8525   22.4514 C   0  0  0  0  0  0  0  0  0  0  0  0
  -18.5879  -24.0665   24.0564 C   0  0  0  0  0  0  0  0  0  0  0  0
  -22.8275  -18.9324   20.9667 C   0  0  0  0  0  0  0  0  0  0  0  0
  -23.7851  -17.8269   19.3248 C   0  0  0  0  0  0  0  0  0  0  0  0
  -23.6748  -20.2970   18.9580 C   0  0  0  0  0  0  0  0  0  0  0  0
  -24.8194  -26.8800   18.9687 C   0  0  0  0  0  0  0  0  0  0  0  0
  -23.6406  -25.4855   16.2877 C   0  0  0  0  0  0  0  0  0  0  0  0
  -23.7270  -22.8588   14.1106 C   0  0  0  0  0  0  0  0  0  0  0  0
  -25.9482  -12.8124   20.4748 C   0  0  0  0  0  0  0  0  0  0  0  0
  -24.7872  -31.5221   21.0919 C   0  0  0  0  0  0  0  0  0  0  0  0
  -26.9320  -26.4077   17.6766 C   0  0  0  0  0  0  0  0  0  0  0  0
  -25.1347  -24.0603   17.7374 C   0  0  0  0  0  0  0  0  0  0  0  0
  -23.8864  -30.7573   20.1255 C   0  0  0  0  0  0  0  0  0  0  0  0
  -22.5202  -13.3369   21.2811 C   0  0  0  0  0  0  0  0  0  0  0  0
  -23.5835  -29.3639   20.6673 C   0  0  0  0  0  0  0  0  0  0  0  0
  -22.3470  -14.8530   21.1737 C   0  0  0  0  0  0  0  0  0  0  0  0
  -23.8897  -12.9639   21.8445 C   0  0  0  0  0  0  0  0  0  0  0  0
  -24.8623  -15.0743   21.0236 C   0  0  0  0  0  0  0  0  0  0  0  0
  -24.8680  -28.5405   20.8211 C   0  0  1  0  0  0  0  0  0  0  0  0
  -25.4145  -26.5567   17.6275 C   0  0  1  0  0  0  0  0  0  0  0  0
  -23.5178  -15.4983   20.4081 C   0  0  2  0  0  0  0  0  0  0  0  0
  -31.8369  -15.1197   24.3300 C   0  0  0  0  0  0  0  0  0  0  0  0
  -22.6180  -21.9811   12.0376 C   0  0  0  0  0  0  0  0  0  0  0  0
  -21.2234  -24.6346   17.9439 C   0  0  0  0  0  0  0  0  0  0  0  0
  -20.6453  -23.0036   16.1345 C   0  0  0  0  0  0  0  0  0  0  0  0
  -20.6771  -25.4491   15.6434 C   0  0  0  0  0  0  0  0  0  0  0  0
  -26.2610  -22.9334   12.5835 C   0  0  0  0  0  0  0  0  0  0  0  0
  -30.1945  -15.8857   22.5608 C   0  0  0  0  0  0  0  0  0  0  0  0
  -31.0042  -16.6470   19.8484 C   0  0  0  0  0  0  0  0  0  0  0  0
  -27.7560  -20.4419   19.9640 C   0  0  0  0  0  0  0  0  0  1  0  0
  -31.2316  -16.3137   23.6091 C   0  0  0  0  0  0  0  0  0  0  0  0
  -28.0003  -12.8221   19.0791 C   0  0  0  0  0  0  0  0  0  0  0  0
  -30.4493  -15.7295   18.7590 C   0  0  0  0  0  0  0  0  0  0  0  0
  -28.9278  -13.7881   18.3658 C   0  0  0  0  0  0  0  0  0  0  0  0
  -22.8625  -24.2263   15.9913 C   0  0  1  0  0  0  0  0  0  0  0  0
  -23.7664  -22.8085   12.5939 C   0  0  2  0  0  0  0  0  0  0  0  0
  -21.3775  -24.3275   16.4410 C   0  0  0  0  0  0  0  0  0  0  0  0
  -22.7850  -17.6548   21.3541 N   0  0  0  0  0  0  0  0  0  0  0  0
  -23.3747  -17.0072   20.3348 N   0  0  0  0  0  0  0  0  0  0  0  0
  -24.7435  -25.3489   17.1425 N   0  0  0  0  0  0  0  0  0  0  0  0
  -24.9562  -13.6068   21.0729 N   0  0  0  0  0  0  0  0  0  0  0  0
  -24.3969  -17.3404   18.2242 N   0  0  0  0  0  0  0  0  0  0  0  0
  -23.2561  -21.5196   19.5006 N   0  0  0  0  0  0  0  0  0  0  0  0
  -25.3063  -28.0428   19.5348 N   0  0  0  0  0  0  0  0  0  0  0  0
  -23.0389  -23.9630   14.5672 N   0  0  0  0  0  0  0  0  0  0  0  0
  -26.9181  -13.5009   19.7564 N   0  0  0  0  0  0  0  0  0  0  0  0
  -25.0479  -22.2064   12.1288 N   0  3  0  0  0  0  0  0  0  0  0  0
  -29.5646  -14.6987   19.3559 N   0  3  0  0  0  0  0  0  0  0  0  0
  -24.2249  -20.2819   17.8308 O   0  0  0  0  0  0  0  0  0  0  0  0
  -23.9795  -26.1309   19.4535 O   0  0  0  0  0  0  0  0  0  0  0  0
  -23.2872  -26.5498   15.7738 O   0  0  0  0  0  0  0  0  0  0  0  0
  -24.2507  -22.0021   14.8193 O   0  0  0  0  0  0  0  0  0  0  0  0
  -25.9651  -11.5805   20.5691 O   0  0  0  0  0  0  0  0  0  0  0  0
  -20.7035  -22.9321   24.2466 O   0  0  0  0  0  0  0  0  0  0  0  0
  -28.6782  -21.5308   19.9697 O   0  0  0  0  0  0  0  0  0  1  0  0
  -17.5579  -26.7909   21.8762 F   0  0  0  0  0  0  0  0  0  0  0  0
  -18.0746  -23.2922   25.0223 F   0  0  0  0  0  0  0  0  0  0  0  0
  1  2  1  0  0  0  0
  1  5  2  0  0  0  0
  2  6  2  0  0  0  0
  3 10  2  0  0  0  0
  3 18  1  0  0  0  0
  4 11  1  0  0  0  0
  4 18  2  0  0  0  0
  5 20  1  0  0  0  0
  6 22  1  0  0  0  0
  7 12  2  0  0  0  0
  7 21  1  0  0  0  0
  8  9  2  0  0  0  0
  8 24  1  0  0  0  0
  9 25  1  0  0  0  0
 10 27  1  0  0  0  0
 11 27  2  0  0  0  0
 12 28  1  0  0  0  0
 13 14  2  0  0  0  0
 13 29  1  0  0  0  0
 14 30  1  0  0  0  0
 15 23  1  0  0  0  0
 15 28  2  0  0  0  0
 16 24  2  0  0  0  0
 16 26  1  0  0  0  0
 17 30  2  0  0  0  0
 17 31  1  0  0  0  0
 18 32  1  0  0  0  0
 19 32  1  0  0  0  0
 19 33  2  0  0  0  0
 19 34  1  0  0  0  0
 20 22  2  0  0  0  0
 20 39  1  0  0  0  0
 21 23  2  0  0  0  0
 21 40  1  0  0  0  0
 22 48  1  0  0  0  0
 23 41  1  0  0  0  0
 24 59  1  0  0  0  0
 25 26  2  0  0  0  0
 25 57  1  0  0  0  0
 26 58  1  0  0  0  0
 27 83  1  0  0  0  0
 28 84  1  0  0  0  0
 29 31  2  0  0  0  0
 29 83  1  0  0  0  0
 30 85  1  0  0  0  0
 31 86  1  0  0  0  0
 32 67  2  0  0  0  0
 33 68  1  0  0  0  0
 33 71  1  0  0  0  0
 34 72  1  0  0  0  0
 34 78  2  0  0  0  0
 35 49  1  0  0  0  0
 35 73  1  0  0  0  0
 35 79  2  0  0  0  0
 36 64  1  0  0  0  0
 36 69  1  0  0  0  0
 36 80  2  0  0  0  0
 37 65  1  0  0  0  0
 37 74  1  0  0  0  0
 37 81  2  0  0  0  0
 38 70  1  0  0  0  0
 38 75  1  0  0  0  0
 38 82  2  0  0  0  0
 39 42  1  0  0  0  0
 40 49  1  0  0  0  0
 41 69  1  0  0  0  0
 42 44  1  0  0  0  0
 43 45  1  0  0  0  0
 43 46  1  0  0  0  0
 44 48  1  0  0  0  0
 45 50  1  0  0  0  0
 46 70  1  0  0  0  0
 47 50  1  0  0  0  0
 47 70  1  0  0  0  0
 48 73  1  0  0  0  0
 49 69  1  0  0  0  0
 50 68  1  0  0  0  0
 51 60  1  0  0  0  0
 52 65  1  0  0  0  0
 53 66  1  0  0  0  0
 54 66  1  0  0  0  0
 55 66  1  0  0  0  0
 56 76  1  0  0  0  0
 57 60  1  0  0  0  0
 58 62  1  0  0  0  0
 59 84  1  0  0  0  0
 61 63  1  0  0  0  0
 61 75  1  0  0  0  0
 62 77  1  0  0  0  0
 63 77  1  0  0  0  0
 64 66  1  0  0  0  0
 64 74  1  0  0  0  0
 65 76  1  0  0  0  0
 67 68  1  0  0  0  0
M  CHG  2  76   1  77   1
M  ISO  4  38 100  59 101  75 100  84 101
M  END
> <Batch ID>
0134

> <Smiles>
CCCc1ccc([101CH2:1][101O:1]c2ccc3c(c2)CN(C(=O)C(NC(=O)C(C)NC)C(C)(C)C)C(C(=O)NC2CCCc4ccccc42)C3)cc1CCNCC[100NH:0][100C:0](=O)N1CCCC(n2nc(-c3ccc(Oc4ccc(F)cc4F)cc3)c(C(N)=O)c2N)C1

> <Shape>
0.208

> <Color>
0.040

> <Negative vol penalty>
0.000

$$$$

  -OEChem-04052320573D

 87 97  0     1  0  0  0  0  0999 V2000
  -15.9129  -24.9460   25.3790 C   0  0  0  0  0  0  0  0  0  0  0  0
  -17.0245  -24.1286   25.5573 C   0  0  0  0  0  0  0  0  0  0  0  0
  -23.1320   -9.8364   19.9106 C   0  0  0  0  0  0  0  0  0  0  0  0
  -23.8080   -9.8820   22.2297 C   0  0  0  0  0  0  0  0  0  0  0  0
  -15.9168  -25.9178   24.3793 C   0  0  0  0  0  0  0  0  0  0  0  0
  -18.1403  -24.2819   24.7352 C   0  0  0  0  0  0  0  0  0  0  0  0
  -24.0091  -23.5319   26.3165 C   0  0  0  0  0  0  0  0  0  0  0  0
  -29.9601  -18.7470   25.1723 C   0  0  0  0  0  0  0  0  0  0  0  0
  -28.9816  -19.7024   25.4912 C   0  0  0  0  0  0  0  0  0  0  0  0
  -22.3861   -8.6824   20.1507 C   0  0  0  0  0  0  0  0  0  0  0  0
  -23.0620   -8.7280   22.4698 C   0  0  0  0  0  0  0  0  0  0  0  0
  -24.8953  -22.4677   26.1555 C   0  0  0  0  0  0  0  0  0  0  0  0
  -19.8187   -7.9192   22.9667 C   0  0  0  0  0  0  0  0  0  0  0  0
  -19.0199   -7.8918   24.1099 C   0  0  0  0  0  0  0  0  0  0  0  0
  -25.7560  -23.4956   24.1501 C   0  0  0  0  0  0  0  0  0  0  0  0
  -20.2447   -5.9732   24.9198 C   0  0  0  0  0  0  0  0  0  0  0  0
  -23.8430  -10.4361   20.9501 C   0  0  0  0  0  0  0  0  0  0  0  0
  -24.1747  -12.9613   20.8047 C   0  0  0  0  0  0  0  0  0  0  0  0
  -17.0370  -26.0896   23.5508 C   0  0  0  0  0  0  0  0  0  0  0  0
  -23.9821  -24.5824   25.3879 C   0  0  0  0  0  0  0  0  0  0  0  0
  -18.1587  -25.2561   23.7226 C   0  0  0  0  0  0  0  0  0  0  0  0
  -24.8703  -24.5733   24.3029 C   0  0  0  0  0  0  0  0  0  0  0  0
  -28.2661  -17.0760   24.9933 C   0  0  0  0  0  0  0  0  0  0  0  0
  -27.2915  -18.0276   25.3110 C   0  0  0  0  0  0  0  0  0  0  0  0
  -29.6042  -17.4208   24.9170 C   0  0  0  0  0  0  0  0  0  0  0  0
  -27.6332  -19.3456   25.5593 C   0  0  0  0  0  0  0  0  0  0  0  0
  -22.3511   -8.1283   21.4303 C   0  0  0  0  0  0  0  0  0  0  0  0
  -25.7669  -22.4480   25.0706 C   0  0  0  0  0  0  0  0  0  0  0  0
  -20.8304   -6.9735   22.8001 C   0  0  0  0  0  0  0  0  0  0  0  0
  -19.2329   -6.9189   25.0864 C   0  0  0  0  0  0  0  0  0  0  0  0
  -21.0435   -6.0005   23.7766 C   0  0  0  0  0  0  0  0  0  0  0  0
  -24.6142  -11.6278   20.7026 C   0  0  0  0  0  0  0  0  0  0  0  0
  -25.2750  -13.7121   20.4701 C   0  0  0  0  0  0  0  0  0  0  0  0
  -22.8869  -13.4753   21.1695 C   0  0  0  0  0  0  0  0  0  0  0  0
  -21.8047  -25.7567   23.3921 C   0  0  0  0  0  0  0  0  0  0  0  0
  -24.0597  -28.0337   22.8899 C   0  0  0  0  0  0  0  0  0  0  0  0
  -27.3553  -28.9160   22.9751 C   0  0  0  0  0  0  0  0  0  0  0  0
  -30.7424  -14.7679   20.8419 C   0  0  0  0  0  0  0  0  0  0  0  0
  -16.9764  -27.1219   22.4529 C   0  0  0  0  0  0  0  0  0  0  0  0
  -23.0388  -25.7363   25.5904 C   0  0  0  0  0  0  0  0  0  0  0  0
  -24.8951  -25.6868   23.2890 C   0  0  0  0  0  0  0  0  0  0  0  0
  -27.6393  -15.7451   24.7459 C   0  0  0  0  0  0  0  0  0  0  0  0
  -25.9331  -17.4111   25.3024 C   0  0  0  0  0  0  0  0  0  0  0  0
  -18.3429  -27.4705   21.8686 C   0  0  0  0  0  0  0  0  0  0  0  0
  -29.7059  -12.3413   18.4515 C   0  0  0  0  0  0  0  0  0  0  0  0
  -19.1397  -26.2021   21.5805 C   0  0  0  0  0  0  0  0  0  0  0  0
  -28.2554  -12.0451   18.8364 C   0  0  0  0  0  0  0  0  0  0  0  0
  -24.9244  -13.7409   24.6201 C   0  0  0  0  0  0  0  0  0  0  0  0
  -23.8881  -14.7821   24.9355 C   0  0  0  0  0  0  0  0  0  0  0  0
  -30.5775  -12.5856   19.6814 C   0  0  0  0  0  0  0  0  0  0  0  0
  -28.6225  -13.3252   20.9870 C   0  0  0  0  0  0  0  0  0  0  0  0
  -19.3976  -25.4084   22.8670 C   0  0  1  0  0  0  0  0  0  0  0  0
  -22.7419  -26.4984   24.3026 C   0  0  1  0  0  0  0  0  0  0  0  0
  -27.6928  -13.1272   19.7776 C   0  0  2  0  0  0  0  0  0  0  0  0
  -25.1962  -15.1868   24.3180 C   0  0  0  0  0  0  0  0  0  0  0  0
  -28.8954  -30.8318   22.4697 C   0  0  0  0  0  0  0  0  0  0  0  0
  -23.8168  -27.4389   19.9071 C   0  0  0  0  0  0  0  0  0  0  0  0
  -25.9826  -28.6463   19.5609 C   0  0  0  0  0  0  0  0  0  0  0  0
  -24.0083  -29.8671   20.4744 C   0  0  0  0  0  0  0  0  0  0  0  0
  -28.2520  -29.0893   25.7902 C   0  0  0  0  0  0  0  0  0  0  0  0
  -30.6474  -16.4166   24.5712 C   0  0  0  0  0  0  0  0  0  0  0  0
  -26.5937  -20.3751   25.8923 C   0  0  0  0  0  0  0  0  0  1  0  0
  -31.5226  -16.7936   23.3582 C   0  0  0  0  0  0  0  0  0  0  0  0
  -30.7511  -16.9368   22.0480 C   0  0  0  0  0  0  0  0  0  0  0  0
  -25.2193  -28.1983   21.9374 C   0  0  1  0  0  0  0  0  0  0  0  0
  -28.0559  -30.1415   23.5334 C   0  0  2  0  0  0  0  0  0  0  0  0
  -24.7552  -28.5156   20.4878 C   0  0  0  0  0  0  0  0  0  0  0  0
  -25.8939  -11.5337   20.3320 N   0  0  0  0  0  0  0  0  0  0  0  0
  -26.2680  -12.8175   20.1982 N   0  0  0  0  0  0  0  0  0  0  0  0
  -23.9494  -26.7897   23.5271 N   0  0  0  0  0  0  0  0  0  0  0  0
  -29.9893  -13.6236   20.5313 N   0  0  0  0  0  0  0  0  0  0  0  0
  -25.4804  -15.0436   20.3848 N   0  0  0  0  0  0  0  0  0  0  0  0
  -21.8685  -12.5650   21.4835 N   0  0  0  0  0  0  0  0  0  0  0  0
  -20.4680  -26.0150   23.6290 N   0  0  0  0  0  0  0  0  0  0  0  0
  -26.0874  -29.2143   22.5228 N   0  0  0  0  0  0  0  0  0  0  0  0
  -30.1078  -15.7053   21.6477 N   0  0  0  0  0  0  0  0  0  0  0  0
  -26.1820  -15.9055   25.1851 N   0  3  1  0  0  0  0  0  0  0  0  0
  -28.9502  -29.7577   24.6621 N   0  3  0  0  0  0  0  0  0  0  0  0
  -22.6417  -14.7052   21.1998 O   0  0  0  0  0  0  0  0  0  0  0  0
  -22.2605  -25.0067   22.5368 O   0  0  0  0  0  0  0  0  0  0  0  0
  -23.2846  -28.9768   23.0676 O   0  0  0  0  0  0  0  0  0  0  0  0
  -27.8818  -27.8060   22.9400 O   0  0  0  0  0  0  0  0  0  0  0  0
  -31.8931  -14.9437   20.4272 O   0  0  0  0  0  0  0  0  0  0  0  0
  -21.6231   -7.0024   21.6650 O   0  0  0  0  0  0  0  0  0  0  0  0
  -26.6324  -21.4101   24.9108 O   0  0  0  0  0  0  0  0  0  1  0  0
  -18.4668   -6.8937   26.1849 F   0  0  0  0  0  0  0  0  0  0  0  0
  -22.0147   -5.0901   23.6227 F   0  0  0  0  0  0  0  0  0  0  0  0
  1  2  1  0  0  0  0
  1  5  2  0  0  0  0
  2  6  2  0  0  0  0
  3 10  2  0  0  0  0
  3 17  1  0  0  0  0
  4 11  1  0  0  0  0
  4 17  2  0  0  0  0
  5 19  1  0  0  0  0
  6 21  1  0  0  0  0
  7 12  2  0  0  0  0
  7 20  1  0  0  0  0
  8  9  2  0  0  0  0
  8 25  1  0  0  0  0
  9 26  1  0  0  0  0
 10 27  1  0  0  0  0
 11 27  2  0  0  0  0
 12 28  1  0  0  0  0
 13 14  2  0  0  0  0
 13 29  1  0  0  0  0
 14 30  1  0  0  0  0
 15 22  1  0  0  0  0
 15 28  2  0  0  0  0
 16 30  2  0  0  0  0
 16 31  1  0  0  0  0
 17 32  1  0  0  0  0
 18 32  1  0  0  0  0
 18 33  2  0  0  0  0
 18 34  1  0  0  0  0
 19 21  2  0  0  0  0
 19 39  1  0  0  0  0
 20 22  2  0  0  0  0
 20 40  1  0  0  0  0
 21 52  1  0  0  0  0
 22 41  1  0  0  0  0
 23 24  1  0  0  0  0
 23 25  2  0  0  0  0
 23 42  1  0  0  0  0
 24 26  2  0  0  0  0
 24 43  1  0  0  0  0
 25 61  1  0  0  0  0
 26 62  1  0  0  0  0
 27 84  1  0  0  0  0
 28 85  1  0  0  0  0
 29 31  2  0  0  0  0
 29 84  1  0  0  0  0
 30 86  1  0  0  0  0
 31 87  1  0  0  0  0
 32 68  2  0  0  0  0
 33 69  1  0  0  0  0
 33 72  1  0  0  0  0
 34 73  1  0  0  0  0
 34 79  2  0  0  0  0
 35 53  1  0  0  0  0
 35 74  1  0  0  0  0
 35 80  2  0  0  0  0
 36 65  1  0  0  0  0
 36 70  1  0  0  0  0
 36 81  2  0  0  0  0
 37 66  1  0  0  0  0
 37 75  1  0  0  0  0
 37 82  2  0  0  0  0
 38 71  1  0  0  0  0
 38 76  1  0  0  0  0
 38 83  2  0  0  0  0
 39 44  1  0  0  0  0
 40 53  1  0  0  0  0
 41 70  1  0  0  0  0
 42 77  1  0  0  0  0
 43 77  1  0  0  0  0
 44 46  1  0  0  0  0
 45 47  1  0  0  0  0
 45 50  1  0  0  0  0
 46 52  1  0  0  0  0
 47 54  1  0  0  0  0
 48 49  1  0  0  0  0
 48 55  1  0  0  0  0
 49 55  1  0  0  0  0
 50 71  1  0  0  0  0
 51 54  1  0  0  0  0
 51 71  1  0  0  0  0
 52 74  1  0  0  0  0
 53 70  1  0  0  0  0
 54 69  1  0  0  0  0
 55 77  1  0  0  0  0
 56 66  1  0  0  0  0
 57 67  1  0  0  0  0
 58 67  1  0  0  0  0
 59 67  1  0  0  0  0
 60 78  1  0  0  0  0
 61 63  1  0  0  0  0
 62 85  1  0  0  0  0
 63 64  1  0  0  0  0
 64 76  1  0  0  0  0
 65 67  1  0  0  0  0
 65 75  1  0  0  0  0
 66 78  1  0  0  0  0
 68 69  1  0  0  0  0
M  CHG  2  77   1  78   1
M  ISO  4  38 100  62 101  76 100  85 101
M  END
> <Batch ID>
0134

> <Smiles>
CNC(C)C(=O)NC(C(=O)N1Cc2cc([101O:1][101CH2:1]c3ccc(CCC[100NH:0][100C:0](=O)N4CCCC(n5nc(-c6ccc(Oc7ccc(F)cc7F)cc6)c(C(N)=O)c5N)C4)c4c3CN(C3CC3)C4)ccc2CC1C(=O)NC1CCCc2ccccc21)C(C)(C)C

> <Shape>
0.250

> <Color>
0.209

> <Negative vol penalty>
0.000

$$$$

  -OEChem-04052320573D

 87 95  0     1  0  0  0  0  0999 V2000
  -14.1582  -28.2801   24.6042 C   0  0  0  0  0  0  0  0  0  0  0  0
  -14.4107  -27.6114   23.4107 C   0  0  0  0  0  0  0  0  0  0  0  0
  -22.8980  -10.1106   19.9791 C   0  0  0  0  0  0  0  0  0  0  0  0
  -23.8303   -9.8253   22.1896 C   0  0  0  0  0  0  0  0  0  0  0  0
  -15.0311  -29.2748   25.0428 C   0  0  0  0  0  0  0  0  0  0  0  0
  -15.5358  -27.9379   22.6544 C   0  0  0  0  0  0  0  0  0  0  0  0
  -20.5158  -22.9758   21.0833 C   0  0  0  0  0  0  0  0  0  0  0  0
  -29.9184  -19.9060   19.7932 C   0  0  0  0  0  0  0  0  0  0  0  0
  -29.3908  -21.0171   19.1354 C   0  0  0  0  0  0  0  0  0  0  0  0
  -22.0902   -8.9905   20.1752 C   0  0  0  0  0  0  0  0  0  0  0  0
  -23.0225   -8.7052   22.3858 C   0  0  0  0  0  0  0  0  0  0  0  0
  -21.4058  -22.0359   20.5631 C   0  0  0  0  0  0  0  0  0  0  0  0
  -23.0168   -5.4481   21.4792 C   0  0  0  0  0  0  0  0  0  0  0  0
  -23.6061   -4.3138   22.0375 C   0  0  0  0  0  0  0  0  0  0  0  0
  -22.6585  -23.8022   19.4864 C   0  0  0  0  0  0  0  0  0  0  0  0
  -27.7430  -19.4266   20.7285 C   0  0  0  0  0  0  0  0  0  0  0  0
  -22.0590   -4.4219   23.8901 C   0  0  0  0  0  0  0  0  0  0  0  0
  -23.7681  -10.5280   20.9863 C   0  0  0  0  0  0  0  0  0  0  0  0
  -24.2903  -13.0229   21.0889 C   0  0  0  0  0  0  0  0  0  0  0  0
  -16.1727  -29.6070   24.2964 C   0  0  0  0  0  0  0  0  0  0  0  0
  -20.7029  -24.3355   20.8194 C   0  0  0  0  0  0  0  0  0  0  0  0
  -16.4241  -28.9390   23.0828 C   0  0  0  0  0  0  0  0  0  0  0  0
  -21.7774  -24.7494   20.0151 C   0  0  0  0  0  0  0  0  0  0  0  0
  -29.0945  -19.1107   20.5897 C   0  0  0  0  0  0  0  0  0  0  0  0
  -28.0393  -21.3329   19.2742 C   0  0  0  0  0  0  0  0  0  0  0  0
  -22.1524   -8.2878   21.3786 C   0  0  0  0  0  0  0  0  0  0  0  0
  -22.4743  -22.4481   19.7664 C   0  0  0  0  0  0  0  0  0  0  0  0
  -21.9486   -6.0694   22.1264 C   0  0  0  0  0  0  0  0  0  0  0  0
  -27.2154  -20.5377   20.0707 C   0  0  0  0  0  0  0  0  0  0  0  0
  -23.1272   -3.8007   23.2429 C   0  0  0  0  0  0  0  0  0  0  0  0
  -21.4697   -5.5563   23.3318 C   0  0  0  0  0  0  0  0  0  0  0  0
  -24.6032  -11.6846   20.7841 C   0  0  0  0  0  0  0  0  0  0  0  0
  -25.4050  -13.7308   20.7111 C   0  0  0  0  0  0  0  0  0  0  0  0
  -23.0986  -13.5765   21.6625 C   0  0  0  0  0  0  0  0  0  0  0  0
  -19.4943  -27.8490   21.3396 C   0  0  0  0  0  0  0  0  0  0  0  0
  -22.5568  -27.9271   21.5005 C   0  0  0  0  0  0  0  0  0  0  0  0
  -25.9024  -27.5164   22.0253 C   0  0  0  0  0  0  0  0  0  0  0  0
  -30.9485  -14.3514   20.5370 C   0  0  0  0  0  0  0  0  0  0  0  0
  -17.0618  -30.7221   24.7872 C   0  0  0  0  0  0  0  0  0  0  0  0
  -19.7338  -25.3775   21.3081 C   0  0  0  0  0  0  0  0  0  0  0  0
  -21.9195  -26.2194   19.7291 C   0  0  0  0  0  0  0  0  0  0  0  0
  -18.4325  -30.7486   24.1157 C   0  0  0  0  0  0  0  0  0  0  0  0
  -29.4531  -12.3130   18.0298 C   0  0  0  0  0  0  0  0  0  0  0  0
  -18.2900  -30.5932   22.6050 C   0  0  0  0  0  0  0  0  0  0  0  0
  -28.0351  -12.0733   18.5510 C   0  0  0  0  0  0  0  0  0  0  0  0
  -30.4740  -12.3440   19.1652 C   0  0  0  0  0  0  0  0  0  0  0  0
  -28.7454  -13.0524   20.7727 C   0  0  0  0  0  0  0  0  0  0  0  0
  -17.6474  -29.2477   22.2469 C   0  0  1  0  0  0  0  0  0  0  0  0
  -20.4129  -26.7101   21.6718 C   0  0  1  0  0  0  0  0  0  0  0  0
  -27.6732  -13.0686   19.6698 C   0  0  2  0  0  0  0  0  0  0  0  0
  -26.9312  -25.3768   18.2522 C   0  0  0  0  0  0  0  0  0  0  0  0
  -27.9837  -28.8077   22.5713 C   0  0  0  0  0  0  0  0  0  0  0  0
  -22.6594  -28.9663   18.6346 C   0  0  0  0  0  0  0  0  0  0  0  0
  -25.1044  -29.4000   18.9546 C   0  0  0  0  0  0  0  0  0  0  0  0
  -23.4318  -30.5986   20.3648 C   0  0  0  0  0  0  0  0  0  0  0  0
  -26.3243  -26.0010   24.5322 C   0  0  0  0  0  0  0  0  0  0  0  0
  -27.5220  -24.4652   17.1860 C   0  0  0  0  0  0  0  0  0  0  0  0
  -28.3197  -23.3085   17.7762 C   0  0  0  0  0  0  0  0  0  0  0  0
  -31.0031  -17.6067   21.1564 C   0  0  0  0  0  0  0  0  0  0  0  0
  -31.2722  -16.3508   21.9711 C   0  0  0  0  0  0  0  0  0  0  0  0
  -23.5488  -20.3435   20.0375 C   0  0  0  0  0  0  0  0  0  1  0  0
  -24.9587  -19.8376   19.8006 C   0  0  0  0  0  0  0  0  0  0  0  0
  -23.8570  -28.1390   20.7671 C   0  0  1  0  0  0  0  0  0  0  0  0
  -26.8167  -28.0100   23.1321 C   0  0  2  0  0  0  0  0  0  0  0  0
  -23.7524  -29.2499   19.6843 C   0  0  0  0  0  0  0  0  0  0  0  0
  -25.8213  -11.5479   20.2533 N   0  0  0  0  0  0  0  0  0  0  0  0
  -26.2835  -12.8094   20.2216 N   0  0  0  0  0  0  0  0  0  0  0  0
  -21.6660  -26.9960   20.9527 N   0  0  0  0  0  0  0  0  0  0  0  0
  -30.0728  -13.3087   20.1920 N   0  0  0  0  0  0  0  0  0  0  0  0
  -25.7096  -15.0453   20.7530 N   0  0  0  0  0  0  0  0  0  0  0  0
  -22.0495  -12.7075   21.9919 N   0  0  0  0  0  0  0  0  0  0  0  0
  -29.6280  -17.9873   21.2548 N   0  0  0  0  0  0  0  0  0  0  0  0
  -27.5191  -22.4610   18.6031 N   0  0  0  0  0  0  0  0  0  0  0  0
  -18.6177  -28.1794   22.3553 N   0  0  0  0  0  0  0  0  0  0  0  0
  -24.8656  -28.3944   21.7898 N   0  0  0  0  0  0  0  0  0  0  0  0
  -30.4880  -15.2250   21.5145 N   0  0  0  0  0  0  0  0  0  0  0  0
  -27.3626  -26.8586   23.9050 N   0  3  0  0  0  0  0  0  0  0  0  0
  -22.9615  -14.8075   21.8613 O   0  0  0  0  0  0  0  0  0  0  0  0
  -19.5750  -28.3903   20.2431 O   0  0  0  0  0  0  0  0  0  0  0  0
  -22.3319  -28.5725   22.5282 O   0  0  0  0  0  0  0  0  0  0  0  0
  -26.0913  -26.4597   21.4268 O   0  0  0  0  0  0  0  0  0  0  0  0
  -32.0562  -14.4963   20.0089 O   0  0  0  0  0  0  0  0  0  0  0  0
  -21.3641   -7.1950   21.5704 O   0  0  0  0  0  0  0  0  0  0  0  0
  -23.3421  -21.5257   19.2655 O   0  0  0  0  0  0  0  0  0  1  0  0
  -25.8856  -20.8316   20.2204 O   0  0  0  0  0  0  0  0  0  0  0  0
  -23.6922   -2.7106   23.7782 F   0  0  0  0  0  0  0  0  0  0  0  0
  -20.4431   -6.1481   23.9575 F   0  0  0  0  0  0  0  0  0  0  0  0
  1  2  1  0  0  0  0
  1  5  2  0  0  0  0
  2  6  2  0  0  0  0
  3 10  2  0  0  0  0
  3 18  1  0  0  0  0
  4 11  1  0  0  0  0
  4 18  2  0  0  0  0
  5 20  1  0  0  0  0
  6 22  1  0  0  0  0
  7 12  2  0  0  0  0
  7 21  1  0  0  0  0
  8  9  2  0  0  0  0
  8 24  1  0  0  0  0
  9 25  1  0  0  0  0
 10 26  1  0  0  0  0
 11 26  2  0  0  0  0
 12 27  1  0  0  0  0
 13 14  2  0  0  0  0
 13 28  1  0  0  0  0
 14 30  1  0  0  0  0
 15 23  1  0  0  0  0
 15 27  2  0  0  0  0
 16 24  2  0  0  0  0
 16 29  1  0  0  0  0
 17 30  2  0  0  0  0
 17 31  1  0  0  0  0
 18 32  1  0  0  0  0
 19 32  1  0  0  0  0
 19 33  2  0  0  0  0
 19 34  1  0  0  0  0
 20 22  2  0  0  0  0
 20 39  1  0  0  0  0
 21 23  2  0  0  0  0
 21 40  1  0  0  0  0
 22 48  1  0  0  0  0
 23 41  1  0  0  0  0
 24 72  1  0  0  0  0
 25 29  2  0  0  0  0
 25 73  1  0  0  0  0
 26 83  1  0  0  0  0
 27 84  1  0  0  0  0
 28 31  2  0  0  0  0
 28 83  1  0  0  0  0
 29 85  1  0  0  0  0
 30 86  1  0  0  0  0
 31 87  1  0  0  0  0
 32 66  2  0  0  0  0
 33 67  1  0  0  0  0
 33 70  1  0  0  0  0
 34 71  1  0  0  0  0
 34 78  2  0  0  0  0
 35 49  1  0  0  0  0
 35 74  1  0  0  0  0
 35 79  2  0  0  0  0
 36 63  1  0  0  0  0
 36 68  1  0  0  0  0
 36 80  2  0  0  0  0
 37 64  1  0  0  0  0
 37 75  1  0  0  0  0
 37 81  2  0  0  0  0
 38 69  1  0  0  0  0
 38 76  1  0  0  0  0
 38 82  2  0  0  0  0
 39 42  1  0  0  0  0
 40 49  1  0  0  0  0
 41 68  1  0  0  0  0
 42 44  1  0  0  0  0
 43 45  1  0  0  0  0
 43 46  1  0  0  0  0
 44 48  1  0  0  0  0
 45 50  1  0  0  0  0
 46 69  1  0  0  0  0
 47 50  1  0  0  0  0
 47 69  1  0  0  0  0
 48 74  1  0  0  0  0
 49 68  1  0  0  0  0
 50 67  1  0  0  0  0
 51 57  1  0  0  0  0
 52 64  1  0  0  0  0
 53 65  1  0  0  0  0
 54 65  1  0  0  0  0
 55 65  1  0  0  0  0
 56 77  1  0  0  0  0
 57 58  1  0  0  0  0
 58 73  1  0  0  0  0
 59 60  1  0  0  0  0
 59 72  1  0  0  0  0
 60 76  1  0  0  0  0
 61 62  1  0  0  0  0
 61 84  1  0  0  0  0
 62 85  1  0  0  0  0
 63 65  1  0  0  0  0
 63 75  1  0  0  0  0
 64 77  1  0  0  0  0
 66 67  1  0  0  0  0
M  CHG  1  77   1
M  ISO  4  38 100  61 101  76 100  84 101
M  END
> <Batch ID>
0134

> <Smiles>
CCCNc1ccc(NCC[100NH:0][100C:0](=O)N2CCCC(n3nc(-c4ccc(Oc5ccc(F)cc5F)cc4)c(C(N)=O)c3N)C2)cc1OC[101CH2:1][101O:1]c1ccc2c(c1)CN(C(=O)C(NC(=O)C(C)NC)C(C)(C)C)C(C(=O)NC1CCCc3ccccc31)C2

> <Shape>
0.341

> <Color>
0.186

> <Negative vol penalty>
0.000

$$$$

  -OEChem-04052320573D

 86 95  0     1  0  0  0  0  0999 V2000
  -24.8104  -24.4787   37.6911 C   0  0  0  0  0  0  0  0  0  0  0  0
  -25.4884  -23.7917   36.6892 C   0  0  0  0  0  0  0  0  0  0  0  0
  -23.0753   -9.8688   19.9403 C   0  0  0  0  0  0  0  0  0  0  0  0
  -23.8353   -9.8744   22.2337 C   0  0  0  0  0  0  0  0  0  0  0  0
  -24.8941  -24.0431   39.0129 C   0  0  0  0  0  0  0  0  0  0  0  0
  -26.2514  -22.6691   37.0088 C   0  0  0  0  0  0  0  0  0  0  0  0
  -25.5049  -18.8321   33.7893 C   0  0  0  0  0  0  0  0  0  0  0  0
  -32.6524  -17.4913   23.4561 C   0  0  0  0  0  0  0  0  0  0  0  0
  -32.0650  -16.6062   22.5522 C   0  0  0  0  0  0  0  0  0  0  0  0
  -22.3310   -8.7158   20.1898 C   0  0  0  0  0  0  0  0  0  0  0  0
  -23.0910   -8.7214   22.4831 C   0  0  0  0  0  0  0  0  0  0  0  0
  -26.1438  -18.9053   32.5523 C   0  0  0  0  0  0  0  0  0  0  0  0
  -19.8626   -7.9246   23.0854 C   0  0  0  0  0  0  0  0  0  0  0  0
  -19.1057   -7.8843   24.2563 C   0  0  0  0  0  0  0  0  0  0  0  0
  -27.8584  -17.4110   33.3563 C   0  0  0  0  0  0  0  0  0  0  0  0
  -29.8809  -17.4557   23.1396 C   0  0  0  0  0  0  0  0  0  0  0  0
  -20.3464   -5.9461   24.9918 C   0  0  0  0  0  0  0  0  0  0  0  0
  -23.8275  -10.4481   20.9623 C   0  0  0  0  0  0  0  0  0  0  0  0
  -24.1703  -12.9732   20.8434 C   0  0  0  0  0  0  0  0  0  0  0  0
  -25.6507  -22.9089   39.3474 C   0  0  0  0  0  0  0  0  0  0  0  0
  -26.0446  -18.0551   34.8243 C   0  0  0  0  0  0  0  0  0  0  0  0
  -26.3463  -22.2187   38.3365 C   0  0  0  0  0  0  0  0  0  0  0  0
  -27.2230  -17.3275   34.6046 C   0  0  0  0  0  0  0  0  0  0  0  0
  -31.8540  -18.3586   24.2019 C   0  0  0  0  0  0  0  0  0  0  0  0
  -30.4683  -18.3408   24.0436 C   0  0  0  0  0  0  0  0  0  0  0  0
  -30.6793  -16.5884   22.3939 C   0  0  0  0  0  0  0  0  0  0  0  0
  -22.3388   -8.1421   21.4612 C   0  0  0  0  0  0  0  0  0  0  0  0
  -27.3223  -18.1970   32.3366 C   0  0  0  0  0  0  0  0  0  0  0  0
  -20.8613   -6.9755   22.8676 C   0  0  0  0  0  0  0  0  0  0  0  0
  -19.3476   -6.8951   25.2095 C   0  0  0  0  0  0  0  0  0  0  0  0
  -21.1032   -5.9863   23.8208 C   0  0  0  0  0  0  0  0  0  0  0  0
  -24.5970  -11.6388   20.7051 C   0  0  0  0  0  0  0  0  0  0  0  0
  -25.2627  -13.7224   20.4805 C   0  0  0  0  0  0  0  0  0  0  0  0
  -22.9000  -13.4893   21.2627 C   0  0  0  0  0  0  0  0  0  0  0  0
  -27.1505  -18.6616   37.7420 C   0  0  0  0  0  0  0  0  0  0  0  0
  -27.3321  -15.4279   37.9225 C   0  0  0  0  0  0  0  0  0  0  0  0
  -27.5833  -12.4443   36.2847 C   0  0  0  0  0  0  0  0  0  0  0  0
  -30.7293  -14.7659   20.6554 C   0  0  0  0  0  0  0  0  0  0  0  0
  -25.7495  -22.5038   40.7968 C   0  0  0  0  0  0  0  0  0  0  0  0
  -25.3289  -17.9653   36.1442 C   0  0  0  0  0  0  0  0  0  0  0  0
  -27.8325  -16.4627   35.6765 C   0  0  0  0  0  0  0  0  0  0  0  0
  -26.2759  -21.0852   40.9982 C   0  0  0  0  0  0  0  0  0  0  0  0
  -29.6139  -12.3536   18.2860 C   0  0  0  0  0  0  0  0  0  0  0  0
  -27.5055  -20.8436   40.1284 C   0  0  0  0  0  0  0  0  0  0  0  0
  -28.1741  -12.0624   18.7155 C   0  0  0  0  0  0  0  0  0  0  0  0
  -27.7771  -19.8890   29.3415 C   0  0  0  0  0  0  0  0  0  0  0  0
  -30.5291  -12.5815   19.4877 C   0  0  0  0  0  0  0  0  0  0  0  0
  -28.6225  -13.3060   20.8694 C   0  0  0  0  0  0  0  0  0  0  0  0
  -29.8715  -19.5216   30.4353 C   0  0  0  0  0  0  0  0  0  0  0  0
  -27.1641  -20.9820   38.6399 C   0  0  1  0  0  0  0  0  0  0  0  0
  -26.2435  -17.5511   37.2929 C   0  0  1  0  0  0  0  0  0  0  0  0
  -27.6496  -13.1337   19.6916 C   0  0  2  0  0  0  0  0  0  0  0  0
  -28.3770  -19.5526   30.6973 C   0  0  2  0  0  0  0  0  0  1  0  0
  -28.6235  -19.0699   28.3758 C   0  0  1  0  0  0  0  0  0  0  0  0
  -32.5057  -19.2968   25.1640 C   0  0  0  0  0  0  0  0  0  0  0  0
  -27.7483   -9.9755   36.7028 C   0  0  0  0  0  0  0  0  0  0  0  0
  -30.2563  -15.7620   38.7269 C   0  0  0  0  0  0  0  0  0  0  0  0
  -30.6043  -13.3381   38.2053 C   0  0  0  0  0  0  0  0  0  0  0  0
  -29.0157  -14.0086   40.0079 C   0  0  0  0  0  0  0  0  0  0  0  0
  -25.0645  -11.9114   34.8252 C   0  0  0  0  0  0  0  0  0  0  0  0
  -29.5897  -19.2659   24.8333 C   0  0  0  0  0  0  0  0  0  0  0  0
  -28.6777  -19.6294   26.9685 C   0  0  0  0  0  0  0  0  0  0  0  0
  -28.3829  -14.3959   37.5910 C   0  0  1  0  0  0  0  0  0  0  0  0
  -26.8134  -11.1447   36.4352 C   0  0  2  0  0  0  0  0  0  0  0  0
  -29.5546  -14.3939   38.6130 C   0  0  0  0  0  0  0  0  0  0  0  0
  -25.8618  -11.5427   20.2867 N   0  0  0  0  0  0  0  0  0  0  0  0
  -26.2392  -12.8262   20.1589 N   0  0  0  0  0  0  0  0  0  0  0  0
  -27.0988  -16.4126   36.9520 N   0  0  0  0  0  0  0  0  0  0  0  0
  -29.9706  -13.6121   20.3656 N   0  0  0  0  0  0  0  0  0  0  0  0
  -25.4736  -15.0538   20.4081 N   0  0  0  0  0  0  0  0  0  0  0  0
  -21.8878  -12.5803   21.5995 N   0  0  0  0  0  0  0  0  0  0  0  0
  -30.0823  -15.6908   21.4743 N   0  0  0  0  0  0  0  0  0  0  0  0
  -26.4844  -19.7960   38.1648 N   0  0  0  0  0  0  0  0  0  0  0  0
  -27.6826  -13.1207   37.4822 N   0  0  0  0  0  0  0  0  0  0  0  0
  -29.9948  -19.0918   28.9962 N   0  3  0  0  0  0  0  0  0  0  0  0
  -26.0404  -10.8540   35.1947 N   0  3  0  0  0  0  0  0  0  0  0  0
  -22.6642  -14.7200   21.3206 O   0  0  0  0  0  0  0  0  0  0  0  0
  -28.3649  -18.5006   37.7089 O   0  0  0  0  0  0  0  0  0  0  0  0
  -26.7350  -15.3586   38.9996 O   0  0  0  0  0  0  0  0  0  0  0  0
  -28.0531  -12.8200   35.2129 O   0  0  0  0  0  0  0  0  0  0  0  0
  -31.8584  -14.9344   20.1878 O   0  0  0  0  0  0  0  0  0  0  0  0
  -21.6125   -7.0172   21.7050 O   0  0  0  0  0  0  0  0  0  0  0  0
  -27.9484  -18.2673   31.1303 O   0  0  0  0  0  0  0  0  0  1  0  0
  -29.4993  -18.7912   26.1706 O   0  0  0  0  0  0  0  0  0  0  0  0
  -18.6217   -6.8576   26.3346 F   0  0  0  0  0  0  0  0  0  0  0  0
  -22.0622   -5.0725   23.6177 F   0  0  0  0  0  0  0  0  0  0  0  0
  1  2  1  0  0  0  0
  1  5  2  0  0  0  0
  2  6  2  0  0  0  0
  3 10  2  0  0  0  0
  3 18  1  0  0  0  0
  4 11  1  0  0  0  0
  4 18  2  0  0  0  0
  5 20  1  0  0  0  0
  6 22  1  0  0  0  0
  7 12  2  0  0  0  0
  7 21  1  0  0  0  0
  8  9  2  0  0  0  0
  8 24  1  0  0  0  0
  9 26  1  0  0  0  0
 10 27  1  0  0  0  0
 11 27  2  0  0  0  0
 12 28  1  0  0  0  0
 13 14  2  0  0  0  0
 13 29  1  0  0  0  0
 14 30  1  0  0  0  0
 15 23  1  0  0  0  0
 15 28  2  0  0  0  0
 16 25  1  0  0  0  0
 16 26  2  0  0  0  0
 17 30  2  0  0  0  0
 17 31  1  0  0  0  0
 18 32  1  0  0  0  0
 19 32  1  0  0  0  0
 19 33  2  0  0  0  0
 19 34  1  0  0  0  0
 20 22  2  0  0  0  0
 20 39  1  0  0  0  0
 21 23  2  0  0  0  0
 21 40  1  0  0  0  0
 22 50  1  0  0  0  0
 23 41  1  0  0  0  0
 24 25  2  0  0  0  0
 24 55  1  0  0  0  0
 25 61  1  0  0  0  0
 26 72  1  0  0  0  0
 27 82  1  0  0  0  0
 28 83  1  0  0  0  0
 29 31  2  0  0  0  0
 29 82  1  0  0  0  0
 30 85  1  0  0  0  0
 31 86  1  0  0  0  0
 32 66  2  0  0  0  0
 33 67  1  0  0  0  0
 33 70  1  0  0  0  0
 34 71  1  0  0  0  0
 34 77  2  0  0  0  0
 35 51  1  0  0  0  0
 35 73  1  0  0  0  0
 35 78  2  0  0  0  0
 36 63  1  0  0  0  0
 36 68  1  0  0  0  0
 36 79  2  0  0  0  0
 37 64  1  0  0  0  0
 37 74  1  0  0  0  0
 37 80  2  0  0  0  0
 38 69  1  0  0  0  0
 38 72  1  0  0  0  0
 38 81  2  0  0  0  0
 39 42  1  0  0  0  0
 40 51  1  0  0  0  0
 41 68  1  0  0  0  0
 42 44  1  0  0  0  0
 43 45  1  0  0  0  0
 43 47  1  0  0  0  0
 44 50  1  0  0  0  0
 45 52  1  0  0  0  0
 46 53  1  0  0  0  0
 46 54  1  0  0  0  0
 47 69  1  0  0  0  0
 48 52  1  0  0  0  0
 48 69  1  0  0  0  0
 49 53  1  0  0  0  0
 49 75  1  0  0  0  0
 50 73  1  0  0  0  0
 51 68  1  0  0  0  0
 52 67  1  0  0  0  0
 53 83  1  0  0  0  0
 54 62  1  0  0  0  0
 54 75  1  0  0  0  0
 56 64  1  0  0  0  0
 57 65  1  0  0  0  0
 58 65  1  0  0  0  0
 59 65  1  0  0  0  0
 60 76  1  0  0  0  0
 61 84  1  0  0  0  0
 62 84  1  0  0  0  0
 63 65  1  0  0  0  0
 63 74  1  0  0  0  0
 64 76  1  0  0  0  0
 66 67  1  0  0  0  0
M  CHG  2  75   1  76   1
M  ISO  4  38 100  53 101  72 100  83 101
M  END
> <Batch ID>
0134

> <Smiles>
CNC(C)C(=O)NC(C(=O)N1Cc2cc([101O:1][101CH:1]3CNC(COCc4cc([100NH:0][100C:0](=O)N5CCCC(n6nc(-c7ccc(Oc8ccc(F)cc8F)cc7)c(C(N)=O)c6N)C5)ccc4C)C3)ccc2CC1C(=O)NC1CCCc2ccccc21)C(C)(C)C

> <Shape>
0.164

> <Color>
0.184

> <Negative vol penalty>
0.000

$$$$

  -OEChem-04052320573D

 86 95  0     1  0  0  0  0  0999 V2000
  -14.6790  -21.4873   10.7332 C   0  0  0  0  0  0  0  0  0  0  0  0
  -15.7688  -21.0449   11.4761 C   0  0  0  0  0  0  0  0  0  0  0  0
  -23.3065  -10.2151   22.2379 C   0  0  0  0  0  0  0  0  0  0  0  0
  -23.5977   -9.5322   19.9388 C   0  0  0  0  0  0  0  0  0  0  0  0
  -14.3709  -22.8465   10.6912 C   0  0  0  0  0  0  0  0  0  0  0  0
  -16.5520  -21.9616   12.1766 C   0  0  0  0  0  0  0  0  0  0  0  0
  -19.3266  -21.0745   17.5637 C   0  0  0  0  0  0  0  0  0  0  0  0
  -25.6295  -20.2224   18.0690 C   0  0  0  0  0  0  0  0  0  0  0  0
  -24.9179  -19.4147   20.2319 C   0  0  0  0  0  0  0  0  0  0  0  0
  -26.9625  -20.0827   18.4553 C   0  0  0  0  0  0  0  0  0  0  0  0
  -26.2509  -19.2750   20.6183 C   0  0  0  0  0  0  0  0  0  0  0  0
  -22.5598   -9.0633   22.4855 C   0  0  0  0  0  0  0  0  0  0  0  0
  -22.8510   -8.3803   20.1864 C   0  0  0  0  0  0  0  0  0  0  0  0
  -20.6383  -20.7422   17.8997 C   0  0  0  0  0  0  0  0  0  0  0  0
  -19.4069   -7.9742   21.9405 C   0  0  0  0  0  0  0  0  0  0  0  0
  -18.2242   -8.1130   22.6667 C   0  0  0  0  0  0  0  0  0  0  0  0
  -21.1385  -23.0784   18.2327 C   0  0  0  0  0  0  0  0  0  0  0  0
  -19.0875   -6.6194   24.3582 C   0  0  0  0  0  0  0  0  0  0  0  0
  -23.8254  -10.4496   20.9645 C   0  0  0  0  0  0  0  0  0  0  0  0
  -24.1709  -12.9744   20.8465 C   0  0  0  0  0  0  0  0  0  0  0  0
  -15.1449  -23.7792   11.3994 C   0  0  0  0  0  0  0  0  0  0  0  0
  -18.9133  -22.4144   17.5490 C   0  0  0  0  0  0  0  0  0  0  0  0
  -16.2548  -23.3347   12.1430 C   0  0  0  0  0  0  0  0  0  0  0  0
  -19.8204  -23.4249   17.8986 C   0  0  0  0  0  0  0  0  0  0  0  0
  -24.6072  -19.8884   18.9573 C   0  0  0  0  0  0  0  0  0  0  0  0
  -27.2732  -19.6090   19.7300 C   0  0  0  0  0  0  0  0  0  0  0  0
  -22.3321   -8.1458   21.4598 C   0  0  0  0  0  0  0  0  0  0  0  0
  -21.5452  -21.7444   18.2315 C   0  0  0  0  0  0  0  0  0  0  0  0
  -20.4299   -7.1578   22.4230 C   0  0  0  0  0  0  0  0  0  0  0  0
  -18.0645   -7.4357   23.8756 C   0  0  0  0  0  0  0  0  0  0  0  0
  -20.2702   -6.4805   23.6319 C   0  0  0  0  0  0  0  0  0  0  0  0
  -24.5962  -11.6396   20.7079 C   0  0  0  0  0  0  0  0  0  0  0  0
  -25.2642  -13.7226   20.4842 C   0  0  0  0  0  0  0  0  0  0  0  0
  -22.9010  -13.4917   21.2655 C   0  0  0  0  0  0  0  0  0  0  0  0
  -17.8065  -24.3962   15.3239 C   0  0  0  0  0  0  0  0  0  0  0  0
  -17.4005  -26.3864   17.8531 C   0  0  0  0  0  0  0  0  0  0  0  0
  -18.3127  -27.2688   21.0211 C   0  0  0  0  0  0  0  0  0  0  0  0
  -30.7343  -14.7526   20.6518 C   0  0  0  0  0  0  0  0  0  0  0  0
  -14.8013  -25.2433   11.2855 C   0  0  0  0  0  0  0  0  0  0  0  0
  -17.4878  -22.7542   17.2103 C   0  0  0  0  0  0  0  0  0  0  0  0
  -19.4211  -24.8771   17.9178 C   0  0  0  0  0  0  0  0  0  0  0  0
  -15.4576  -26.1083   12.3586 C   0  0  0  0  0  0  0  0  0  0  0  0
  -29.6125  -12.3518   18.2894 C   0  0  0  0  0  0  0  0  0  0  0  0
  -16.9347  -25.7547   12.4996 C   0  0  0  0  0  0  0  0  0  0  0  0
  -28.1732  -12.0606   18.7189 C   0  0  0  0  0  0  0  0  0  0  0  0
  -30.9758  -20.1458   19.8866 C   0  0  0  0  0  0  0  0  0  0  0  0
  -30.5268  -12.5732   19.4925 C   0  0  0  0  0  0  0  0  0  0  0  0
  -28.6237  -13.3043   20.8748 C   0  0  0  0  0  0  0  0  0  0  0  0
  -31.3592  -19.1526   20.9712 C   0  0  0  0  0  0  0  0  0  0  0  0
  -28.9640  -18.4262   21.0828 C   0  0  0  0  0  0  0  0  0  0  0  0
  -17.1134  -24.2956   12.9364 C   0  0  1  0  0  0  0  0  0  0  0  0
  -17.3144  -24.1914   16.7287 C   0  0  1  0  0  0  0  0  0  0  0  0
  -27.6509  -13.1315   19.6960 C   0  0  2  0  0  0  0  0  0  0  0  0
  -29.5191  -20.6226   19.9833 C   0  0  2  0  0  0  0  0  0  0  0  0
  -29.3170  -21.5968   21.1494 C   0  0  0  0  0  0  0  0  0  0  0  0
  -17.8312  -28.9609   22.8105 C   0  0  0  0  0  0  0  0  0  0  0  0
  -19.0083  -28.4712   16.3109 C   0  0  0  0  0  0  0  0  0  0  0  0
  -19.3035  -29.7285   18.4557 C   0  0  0  0  0  0  0  0  0  0  0  0
  -17.0169  -29.3767   17.5228 C   0  0  0  0  0  0  0  0  0  0  0  0
  -17.4175  -25.1802   22.9173 C   0  0  0  0  0  0  0  0  0  0  0  0
  -23.1730  -20.0387   18.5427 C   0  0  0  0  0  0  0  0  0  1  0  0
  -30.7737  -16.9239   21.8653 C   0  0  0  0  0  0  0  0  0  0  0  0
  -18.2524  -27.4225   18.5458 C   0  0  1  0  0  0  0  0  0  0  0  0
  -17.4878  -27.5875   22.2549 C   0  0  2  0  0  0  0  0  0  0  0  0
  -18.4036  -28.7226   17.7066 C   0  0  0  0  0  0  0  0  0  0  0  0
  -25.8611  -11.5423   20.2900 N   0  0  0  0  0  0  0  0  0  0  0  0
  -26.2399  -12.8254   20.1628 N   0  0  0  0  0  0  0  0  0  0  0  0
  -28.6116  -19.4669   20.1177 N   0  0  2  0  0  0  0  0  0  0  0  0
  -18.0179  -25.1591   17.5730 N   0  0  0  0  0  0  0  0  0  0  0  0
  -29.9739  -13.6047   20.3734 N   0  0  0  0  0  0  0  0  0  0  0  0
  -25.4766  -15.0538   20.4123 N   0  0  0  0  0  0  0  0  0  0  0  0
  -21.8877  -12.5837   21.6017 N   0  0  0  0  0  0  0  0  0  0  0  0
  -16.8528  -24.1566   14.3531 N   0  0  0  0  0  0  0  0  0  0  0  0
  -17.6572  -27.6267   19.8620 N   0  0  0  0  0  0  0  0  0  0  0  0
  -30.1315  -15.6853   21.4880 N   0  0  0  0  0  0  0  0  0  0  0  0
  -30.4029  -17.9929   20.9135 N   0  3  2  0  0  0  0  0  0  0  0  0
  -17.7355  -26.5745   23.3195 N   0  3  0  0  0  0  0  0  0  0  0  0
  -22.6665  -14.7226   21.3237 O   0  0  0  0  0  0  0  0  0  0  0  0
  -18.9653  -24.7472   15.1348 O   0  0  0  0  0  0  0  0  0  0  0  0
  -16.2282  -26.6535   17.5773 O   0  0  0  0  0  0  0  0  0  0  0  0
  -19.4286  -26.7571   21.0798 O   0  0  0  0  0  0  0  0  0  0  0  0
  -31.8626  -14.9355   20.1825 O   0  0  0  0  0  0  0  0  0  0  0  0
  -21.6038   -7.0216   21.7012 O   0  0  0  0  0  0  0  0  0  0  0  0
  -22.8263  -21.4229   18.5592 O   0  0  0  0  0  0  0  0  0  1  0  0
  -16.9293   -7.5704   24.5737 F   0  0  0  0  0  0  0  0  0  0  0  0
  -21.2499   -5.6958   24.1011 F   0  0  0  0  0  0  0  0  0  0  0  0
  1  2  1  0  0  0  0
  1  5  2  0  0  0  0
  2  6  2  0  0  0  0
  3 12  2  0  0  0  0
  3 19  1  0  0  0  0
  4 13  1  0  0  0  0
  4 19  2  0  0  0  0
  5 21  1  0  0  0  0
  6 23  1  0  0  0  0
  7 14  2  0  0  0  0
  7 22  1  0  0  0  0
  8 10  2  0  0  0  0
  8 25  1  0  0  0  0
  9 11  1  0  0  0  0
  9 25  2  0  0  0  0
 10 26  1  0  0  0  0
 11 26  2  0  0  0  0
 12 27  1  0  0  0  0
 13 27  2  0  0  0  0
 14 28  1  0  0  0  0
 15 16  2  0  0  0  0
 15 29  1  0  0  0  0
 16 30  1  0  0  0  0
 17 24  1  0  0  0  0
 17 28  2  0  0  0  0
 18 30  2  0  0  0  0
 18 31  1  0  0  0  0
 19 32  1  0  0  0  0
 20 32  1  0  0  0  0
 20 33  2  0  0  0  0
 20 34  1  0  0  0  0
 21 23  2  0  0  0  0
 21 39  1  0  0  0  0
 22 24  2  0  0  0  0
 22 40  1  0  0  0  0
 23 51  1  0  0  0  0
 24 41  1  0  0  0  0
 25 61  1  0  0  0  0
 26 68  1  0  0  0  0
 27 83  1  0  0  0  0
 28 84  1  0  0  0  0
 29 31  2  0  0  0  0
 29 83  1  0  0  0  0
 30 85  1  0  0  0  0
 31 86  1  0  0  0  0
 32 66  2  0  0  0  0
 33 67  1  0  0  0  0
 33 71  1  0  0  0  0
 34 72  1  0  0  0  0
 34 78  2  0  0  0  0
 35 52  1  0  0  0  0
 35 73  1  0  0  0  0
 35 79  2  0  0  0  0
 36 63  1  0  0  0  0
 36 69  1  0  0  0  0
 36 80  2  0  0  0  0
 37 64  1  0  0  0  0
 37 74  1  0  0  0  0
 37 81  2  0  0  0  0
 38 70  1  0  0  0  0
 38 75  1  0  0  0  0
 38 82  2  0  0  0  0
 39 42  1  0  0  0  0
 40 52  1  0  0  0  0
 41 69  1  0  0  0  0
 42 44  1  0  0  0  0
 43 45  1  0  0  0  0
 43 47  1  0  0  0  0
 44 51  1  0  0  0  0
 45 53  1  0  0  0  0
 46 49  1  0  0  0  0
 46 54  1  0  0  0  0
 47 70  1  0  0  0  0
 48 53  1  0  0  0  0
 48 70  1  0  0  0  0
 49 76  1  0  0  0  0
 50 68  1  0  0  0  0
 50 76  1  0  0  0  0
 51 73  1  0  0  0  0
 52 69  1  0  0  0  0
 53 67  1  0  0  0  0
 54 55  1  0  0  0  0
 54 68  1  0  0  0  0
 56 64  1  0  0  0  0
 57 65  1  0  0  0  0
 58 65  1  0  0  0  0
 59 65  1  0  0  0  0
 60 77  1  0  0  0  0
 61 84  1  0  0  0  0
 62 75  1  0  0  0  0
 62 76  1  0  0  0  0
 63 65  1  0  0  0  0
 63 74  1  0  0  0  0
 64 77  1  0  0  0  0
 66 67  1  0  0  0  0
M  CHG  2  76   1  77   1
M  ISO  4  38 100  61 101  75 100  84 101
M  END
> <Batch ID>
0134

> <Smiles>
CNC(C)C(=O)NC(C(=O)N1Cc2cc([101O:1][101CH2:1]c3ccc(N4CN(C[100NH:0][100C:0](=O)N5CCCC(n6nc(-c7ccc(Oc8ccc(F)cc8F)cc7)c(C(N)=O)c6N)C5)CCC4C)cc3)ccc2CC1C(=O)NC1CCCc2ccccc21)C(C)(C)C

> <Shape>
0.221

> <Color>
0.187

> <Negative vol penalty>
0.000

$$$$

  -OEChem-04052320573D

 91101  0     1  0  0  0  0  0999 V2000
  -31.5579  -25.0921   17.4547 C   0  0  0  0  0  0  0  0  0  0  0  0
  -30.2790  -25.2059   16.9191 C   0  0  0  0  0  0  0  0  0  0  0  0
  -27.2490  -15.2053   21.8970 C   0  0  0  0  0  0  0  0  0  0  0  0
  -26.1699  -15.6847   19.7892 C   0  0  0  0  0  0  0  0  0  0  0  0
  -31.7411  -25.1441   18.8359 C   0  0  0  0  0  0  0  0  0  0  0  0
  -29.1824  -25.3707   17.7645 C   0  0  0  0  0  0  0  0  0  0  0  0
  -22.7711  -28.5548   18.0357 C   0  0  0  0  0  0  0  0  0  0  0  0
  -26.7855  -13.8912   21.8355 C   0  0  0  0  0  0  0  0  0  0  0  0
  -25.7064  -14.3705   19.7277 C   0  0  0  0  0  0  0  0  0  0  0  0
  -21.4342  -28.2633   18.3031 C   0  0  0  0  0  0  0  0  0  0  0  0
  -26.1893  -10.3119   22.0559 C   0  0  0  0  0  0  0  0  0  0  0  0
  -27.0887   -9.2918   22.3656 C   0  0  0  0  0  0  0  0  0  0  0  0
  -21.8799  -28.4186   20.6688 C   0  0  0  0  0  0  0  0  0  0  0  0
  -18.8552  -23.0725   19.9599 C   0  0  0  0  0  0  0  0  0  0  0  0
  -21.0740  -22.2941   19.4052 C   0  0  0  0  0  0  0  0  0  0  0  0
  -20.7503  -24.5508   20.2050 C   0  0  0  0  0  0  0  0  0  0  0  0
  -28.5210  -10.0053   20.5554 C   0  0  0  0  0  0  0  0  0  0  0  0
  -26.9412  -16.1021   20.8739 C   0  0  0  0  0  0  0  0  0  0  0  0
  -28.6336  -17.9581   20.4285 C   0  0  0  0  0  0  0  0  0  0  0  0
  -30.6473  -25.3194   19.6981 C   0  0  0  0  0  0  0  0  0  0  0  0
  -23.6763  -28.7700   19.0849 C   0  0  0  0  0  0  0  0  0  0  0  0
  -29.3510  -25.4238   19.1586 C   0  0  0  0  0  0  0  0  0  0  0  0
  -23.2272  -28.7152   20.4120 C   0  0  0  0  0  0  0  0  0  0  0  0
  -19.7027  -22.0608   19.5084 C   0  0  0  0  0  0  0  0  0  0  0  0
  -19.3789  -24.3175   20.3081 C   0  0  0  0  0  0  0  0  0  0  0  0
  -21.5979  -23.5392   19.7536 C   0  0  0  0  0  0  0  0  0  0  0  0
  -26.0142  -13.4738   20.7508 C   0  0  0  0  0  0  0  0  0  0  0  0
  -20.9890  -28.1923   19.6199 C   0  0  0  0  0  0  0  0  0  0  0  0
  -26.4556  -11.1787   20.9960 C   0  0  0  0  0  0  0  0  0  0  0  0
  -28.2546   -9.1385   21.6154 C   0  0  0  0  0  0  0  0  0  0  0  0
  -27.6215  -11.0254   20.2457 C   0  0  0  0  0  0  0  0  0  0  0  0
  -27.4192  -17.4599   20.9372 C   0  0  0  0  0  0  0  0  0  0  0  0
  -28.6141  -19.2953   20.7417 C   0  0  0  0  0  0  0  0  0  0  0  0
  -29.6852  -17.2735   19.7349 C   0  0  0  0  0  0  0  0  0  0  0  0
  -26.3282  -27.3340   20.0895 C   0  0  0  0  0  0  0  0  0  0  0  0
  -26.4475  -29.8466   22.1377 C   0  0  0  0  0  0  0  0  0  0  0  0
  -24.7713  -32.3099   23.8019 C   0  0  0  0  0  0  0  0  0  0  0  0
  -24.1738  -23.1764   21.7770 C   0  0  0  0  0  0  0  0  0  0  0  0
  -30.8896  -25.3222   21.1867 C   0  0  0  0  0  0  0  0  0  0  0  0
  -25.1093  -29.1098   18.7791 C   0  0  0  0  0  0  0  0  0  0  0  0
  -24.1544  -28.9582   21.5737 C   0  0  0  0  0  0  0  0  0  0  0  0
  -29.7174  -25.8748   21.9936 C   0  0  0  0  0  0  0  0  0  0  0  0
  -26.8583  -22.3602   23.9688 C   0  0  0  0  0  0  0  0  0  0  0  0
  -16.0699  -18.1972   17.0222 C   0  0  0  0  0  0  0  0  0  0  0  0
  -28.4036  -25.2700   21.5090 C   0  0  0  0  0  0  0  0  0  0  0  0
  -27.4160  -21.0567   23.3945 C   0  0  0  0  0  0  0  0  0  0  0  0
  -16.9325  -18.9239   18.0360 C   0  0  0  0  0  0  0  0  0  0  0  0
  -25.3390  -22.4324   23.8326 C   0  0  0  0  0  0  0  0  0  0  0  0
  -25.3867  -20.9153   21.8910 C   0  0  0  0  0  0  0  0  0  0  0  0
  -16.4160  -18.8919   15.7214 C   0  0  0  0  0  0  0  0  0  0  0  0
  -18.7181  -18.0197   15.6262 C   0  0  0  0  0  0  0  0  0  0  0  0
  -28.1392  -25.6285   20.0416 C   0  0  1  0  0  0  0  0  0  0  0  0
  -26.0559  -28.8037   19.9357 C   0  0  1  0  0  0  0  0  0  0  0  0
  -19.3254  -18.2319   17.0212 C   0  0  1  0  0  0  0  0  0  0  0  0
  -26.9208  -20.8210   21.9549 C   0  0  2  0  0  0  0  0  0  0  0  0
  -18.2065  -19.2894   17.2665 C   0  0  2  0  0  0  0  0  0  0  0  0
  -19.4155  -17.0094   17.9151 C   0  0  0  0  0  0  0  0  0  0  0  0
  -25.1323  -34.1833   25.4321 C   0  0  0  0  0  0  0  0  0  0  0  0
  -26.6717  -27.8227   24.4100 C   0  0  0  0  0  0  0  0  0  0  0  0
  -26.0756  -29.6555   26.0080 C   0  0  0  0  0  0  0  0  0  0  0  0
  -28.1568  -29.8214   24.6428 C   0  0  0  0  0  0  0  0  0  0  0  0
  -23.8244  -34.3350   21.8625 C   0  0  0  0  0  0  0  0  0  0  0  0
  -19.1421  -20.7297   19.1364 C   0  0  0  0  0  0  0  0  0  0  0  0
  -18.4633  -25.4113   20.7967 C   0  0  0  0  0  0  0  0  0  0  0  0
  -23.0643  -23.7883   19.6431 C   0  0  0  0  0  0  0  0  0  0  0  0
  -18.7479  -20.6628   17.6531 C   0  0  0  0  0  0  0  0  0  0  0  0
  -17.9149  -26.3006   19.6786 C   0  0  0  0  0  0  0  0  0  0  0  0
  -18.9971  -27.0829   18.9437 C   0  0  0  0  0  0  0  0  0  1  0  0
  -25.9113  -30.1245   23.5212 C   0  0  1  0  0  0  0  0  0  0  0  0
  -25.0593  -33.7915   23.9645 C   0  0  2  0  0  0  0  0  0  0  0  0
  -26.6865  -29.3495   24.6239 C   0  0  0  0  0  0  0  0  0  0  0  0
  -26.6820  -18.4036   21.5287 N   0  0  0  0  0  0  0  0  0  0  0  0
  -27.4353  -19.5083   21.3938 N   0  0  0  0  0  0  0  0  0  0  0  0
  -25.5475  -29.2807   21.2235 N   0  0  0  0  0  0  0  0  0  0  0  0
  -24.9352  -22.2021   22.4434 N   0  0  0  0  0  0  0  0  0  0  0  0
  -29.4906  -20.2979   20.5202 N   0  0  0  0  0  0  0  0  0  0  0  0
  -29.5440  -15.8998   19.4957 N   0  0  0  0  0  0  0  0  0  0  0  0
  -27.6570  -26.9887   19.9326 N   0  0  0  0  0  0  0  0  0  0  0  0
  -25.9315  -31.5742   23.6833 N   0  0  0  0  0  0  0  0  0  0  0  0
  -23.8389  -22.8818   20.4611 N   0  0  0  0  0  0  0  0  0  0  0  0
  -17.8746  -19.2179   15.8110 N   0  3  2  0  0  0  0  0  0  0  0  0
  -23.9903  -34.6013   23.3145 N   0  3  0  0  0  0  0  0  0  0  0  0
  -30.7269  -17.8592   19.3536 O   0  0  0  0  0  0  0  0  0  0  0  0
  -25.4017  -26.5702   20.3339 O   0  0  0  0  0  0  0  0  0  0  0  0
  -27.6195  -30.1282   21.8755 O   0  0  0  0  0  0  0  0  0  0  0  0
  -23.6314  -31.8507   23.7857 O   0  0  0  0  0  0  0  0  0  0  0  0
  -23.8233  -24.2330   22.3133 O   0  0  0  0  0  0  0  0  0  0  0  0
  -25.5620  -12.1914   20.6903 O   0  0  0  0  0  0  0  0  0  0  0  0
  -19.6848  -27.9074   19.8837 O   0  0  0  0  0  0  0  0  0  1  0  0
  -29.1191   -8.1598   21.9138 F   0  0  0  0  0  0  0  0  0  0  0  0
  -27.8833  -11.8557   19.2270 F   0  0  0  0  0  0  0  0  0  0  0  0
  1  2  1  0  0  0  0
  1  5  2  0  0  0  0
  2  6  2  0  0  0  0
  3  8  2  0  0  0  0
  3 18  1  0  0  0  0
  4  9  1  0  0  0  0
  4 18  2  0  0  0  0
  5 20  1  0  0  0  0
  6 22  1  0  0  0  0
  7 10  2  0  0  0  0
  7 21  1  0  0  0  0
  8 27  1  0  0  0  0
  9 27  2  0  0  0  0
 10 28  1  0  0  0  0
 11 12  2  0  0  0  0
 11 29  1  0  0  0  0
 12 30  1  0  0  0  0
 13 23  1  0  0  0  0
 13 28  2  0  0  0  0
 14 24  2  0  0  0  0
 14 25  1  0  0  0  0
 15 24  1  0  0  0  0
 15 26  2  0  0  0  0
 16 25  2  0  0  0  0
 16 26  1  0  0  0  0
 17 30  2  0  0  0  0
 17 31  1  0  0  0  0
 18 32  1  0  0  0  0
 19 32  1  0  0  0  0
 19 33  2  0  0  0  0
 19 34  1  0  0  0  0
 20 22  2  0  0  0  0
 20 39  1  0  0  0  0
 21 23  2  0  0  0  0
 21 40  1  0  0  0  0
 22 52  1  0  0  0  0
 23 41  1  0  0  0  0
 24 63  1  0  0  0  0
 25 64  1  0  0  0  0
 26 65  1  0  0  0  0
 27 88  1  0  0  0  0
 28 89  1  0  0  0  0
 29 31  2  0  0  0  0
 29 88  1  0  0  0  0
 30 90  1  0  0  0  0
 31 91  1  0  0  0  0
 32 72  2  0  0  0  0
 33 73  1  0  0  0  0
 33 76  1  0  0  0  0
 34 77  1  0  0  0  0
 34 83  2  0  0  0  0
 35 53  1  0  0  0  0
 35 78  1  0  0  0  0
 35 84  2  0  0  0  0
 36 69  1  0  0  0  0
 36 74  1  0  0  0  0
 36 85  2  0  0  0  0
 37 70  1  0  0  0  0
 37 79  1  0  0  0  0
 37 86  2  0  0  0  0
 38 75  1  0  0  0  0
 38 80  1  0  0  0  0
 38 87  2  0  0  0  0
 39 42  1  0  0  0  0
 40 53  1  0  0  0  0
 41 74  1  0  0  0  0
 42 45  1  0  0  0  0
 43 46  1  0  0  0  0
 43 48  1  0  0  0  0
 44 47  1  0  0  0  0
 44 50  1  0  0  0  0
 45 52  1  0  0  0  0
 46 55  1  0  0  0  0
 47 56  1  0  0  0  0
 48 75  1  0  0  0  0
 49 55  1  0  0  0  0
 49 75  1  0  0  0  0
 50 81  1  0  0  0  0
 51 54  1  0  0  0  0
 51 81  1  0  0  0  0
 52 78  1  0  0  0  0
 53 74  1  0  0  0  0
 54 56  1  0  0  0  0
 54 57  1  0  0  0  0
 55 73  1  0  0  0  0
 56 66  1  0  0  0  0
 56 81  1  0  0  0  0
 58 70  1  0  0  0  0
 59 71  1  0  0  0  0
 60 71  1  0  0  0  0
 61 71  1  0  0  0  0
 62 82  1  0  0  0  0
 63 66  1  0  0  0  0
 64 67  1  0  0  0  0
 65 80  1  0  0  0  0
 67 68  1  0  0  0  0
 68 89  1  0  0  0  0
 69 71  1  0  0  0  0
 69 79  1  0  0  0  0
 70 82  1  0  0  0  0
 72 73  1  0  0  0  0
M  CHG  2  81   1  82   1
M  ISO  4  38 100  68 101  80 100  89 101
M  END
> <Batch ID>
0134

> <Smiles>
CNC(C)C(=O)NC(C(=O)N1Cc2cc([101O:1][101CH2:1]CCc3cc(CCC45CCCN4CC5C)cc(C[100NH:0][100C:0](=O)N4CCCC(n5nc(-c6ccc(Oc7ccc(F)cc7F)cc6)c(C(N)=O)c5N)C4)c3)ccc2CC1C(=O)NC1CCCc2ccccc21)C(C)(C)C

> <Shape>
0.222

> <Color>
0.053

> <Negative vol penalty>
0.000

$$$$

  -OEChem-04052320573D

 82 90  0     1  0  0  0  0  0999 V2000
  -23.5170  -30.6252   21.4977 C   0  0  0  0  0  0  0  0  0  0  0  0
  -23.1859  -29.9224   20.3437 C   0  0  0  0  0  0  0  0  0  0  0  0
  -23.6827  -16.2658   22.2071 C   0  0  0  0  0  0  0  0  0  0  0  0
  -22.7886  -15.9444   19.9857 C   0  0  0  0  0  0  0  0  0  0  0  0
  -24.7942  -30.5046   22.0437 C   0  0  0  0  0  0  0  0  0  0  0  0
  -24.1323  -29.0993   19.7343 C   0  0  0  0  0  0  0  0  0  0  0  0
  -24.6567  -23.0086   16.0001 C   0  0  0  0  0  0  0  0  0  0  0  0
  -27.5700  -18.4232   12.0693 C   0  0  0  0  0  0  0  0  0  0  0  0
  -22.8236  -17.3482   22.3963 C   0  0  0  0  0  0  0  0  0  0  0  0
  -21.9294  -17.0268   20.1749 C   0  0  0  0  0  0  0  0  0  0  0  0
  -25.2019  -22.5149   14.8157 C   0  0  0  0  0  0  0  0  0  0  0  0
  -22.6829  -20.6031   21.4962 C   0  0  0  0  0  0  0  0  0  0  0  0
  -23.2153  -21.7606   22.0638 C   0  0  0  0  0  0  0  0  0  0  0  0
  -27.6022  -19.8025   12.2427 C   0  0  0  0  0  0  0  0  0  0  0  0
  -27.3518  -22.3222   15.8927 C   0  0  0  0  0  0  0  0  0  0  0  0
  -21.6523  -21.5804   23.8973 C   0  0  0  0  0  0  0  0  0  0  0  0
  -23.6653  -15.5639   21.0017 C   0  0  0  0  0  0  0  0  0  0  0  0
  -24.2967  -13.0944   21.1040 C   0  0  0  0  0  0  0  0  0  0  0  0
  -25.7537  -29.6722   21.4461 C   0  0  0  0  0  0  0  0  0  0  0  0
  -25.4588  -23.1733   17.1385 C   0  0  0  0  0  0  0  0  0  0  0  0
  -25.4240  -28.9685   20.2720 C   0  0  0  0  0  0  0  0  0  0  0  0
  -26.8138  -22.8158   17.0910 C   0  0  0  0  0  0  0  0  0  0  0  0
  -27.0081  -17.6174   13.0533 C   0  0  0  0  0  0  0  0  0  0  0  0
  -21.9469  -17.7287   21.3802 C   0  0  0  0  0  0  0  0  0  0  0  0
  -26.5502  -22.1743   14.7610 C   0  0  0  0  0  0  0  0  0  0  0  0
  -21.6352  -19.9342   22.1290 C   0  0  0  0  0  0  0  0  0  0  0  0
  -22.7001  -22.2493   23.2644 C   0  0  0  0  0  0  0  0  0  0  0  0
  -21.1199  -20.4229   23.3296 C   0  0  0  0  0  0  0  0  0  0  0  0
  -24.5530  -14.4460   20.8055 C   0  0  0  0  0  0  0  0  0  0  0  0
  -26.4960  -18.2349   14.1831 C   0  0  0  0  0  0  0  0  0  0  0  0
  -27.0637  -20.3222   13.4088 C   0  0  0  0  0  0  0  0  0  1  0  0
  -25.4454  -12.4376   20.7358 C   0  0  0  0  0  0  0  0  0  0  0  0
  -23.1250  -12.4868   21.6640 C   0  0  0  0  0  0  0  0  0  0  0  0
  -26.3383  -25.6523   18.9231 C   0  0  0  0  0  0  0  0  0  0  0  0
  -27.6599  -23.3466   20.7830 C   0  0  0  0  0  0  0  0  0  0  0  0
  -28.9197  -20.1837   21.0198 C   0  0  0  0  0  0  0  0  0  0  0  0
  -29.7772  -13.6949   16.7980 C   0  0  0  0  0  0  0  0  0  0  0  0
  -27.1360  -29.6106   22.0461 C   0  0  0  0  0  0  0  0  0  0  0  0
  -24.8495  -23.6820   18.4161 C   0  0  0  0  0  0  0  0  0  0  0  0
  -27.7131  -22.9547   18.2912 C   0  0  0  0  0  0  0  0  0  0  0  0
  -27.9628  -28.4267   21.5509 C   0  0  0  0  0  0  0  0  0  0  0  0
  -30.1616  -13.1067   20.2884 C   0  0  0  0  0  0  0  0  0  0  0  0
  -27.8624  -28.3028   20.0339 C   0  0  0  0  0  0  0  0  0  0  0  0
  -28.7447  -13.2613   20.8437 C   0  0  0  0  0  0  0  0  0  0  0  0
  -30.4336  -14.0916   19.1535 C   0  0  0  0  0  0  0  0  0  0  0  0
  -28.0327  -14.2126   18.6105 C   0  0  0  0  0  0  0  0  0  0  0  0
  -26.4154  -28.0465   19.5958 C   0  0  1  0  0  0  0  0  0  0  0  0
  -25.8754  -24.2930   19.3656 C   0  0  1  0  0  0  0  0  0  0  0  0
  -27.6926  -13.2027   19.7199 C   0  0  2  0  0  0  0  0  0  0  0  0
  -25.8813  -17.4189   15.2726 C   0  0  0  0  0  0  0  0  0  0  0  0
  -29.9593  -18.5951   22.6608 C   0  0  0  0  0  0  0  0  0  0  0  0
  -30.2912  -24.8801   20.5970 C   0  0  0  0  0  0  0  0  0  0  0  0
  -31.4661  -22.8249   21.4118 C   0  0  0  0  0  0  0  0  0  0  0  0
  -29.7812  -23.9545   22.8636 C   0  0  0  0  0  0  0  0  0  0  0  0
  -26.7242  -18.2263   20.6925 C   0  0  0  0  0  0  0  0  0  0  0  0
  -26.9739  -16.1388   12.8749 C   0  0  0  0  0  0  0  0  0  0  0  0
  -28.9634  -13.3068   14.4858 C   0  0  0  0  0  0  0  0  0  0  0  0
  -27.9177  -13.9383   13.5858 C   0  0  0  0  0  0  0  0  0  0  0  0
  -29.0015  -22.6566   20.8389 C   0  0  1  0  0  0  0  0  0  0  0  0
  -28.6647  -19.0701   22.0195 C   0  0  2  0  0  0  0  0  0  0  0  0
  -30.1188  -23.5781   21.4045 C   0  0  0  0  0  0  0  0  0  0  0  0
  -25.7691  -14.6381   20.2876 N   0  0  0  0  0  0  0  0  0  0  0  0
  -26.5095  -19.5713   14.3868 N   0  0  0  0  0  0  0  0  0  0  0  0
  -26.2872  -13.3984   20.2580 N   0  0  0  0  0  0  0  0  0  0  0  0
  -27.0719  -23.4624   19.5155 N   0  0  0  0  0  0  0  0  0  0  0  0
  -29.4009  -13.9841   18.1201 N   0  0  0  0  0  0  0  0  0  0  0  0
  -25.8074  -11.1378   20.7774 N   0  0  0  0  0  0  0  0  0  0  0  0
  -22.0351  -13.3075   21.9847 N   0  0  0  0  0  0  0  0  0  0  0  0
  -26.0563  -26.6630   19.8223 N   0  0  0  0  0  0  0  0  0  0  0  0
  -28.7976  -21.4287   21.5998 N   0  0  0  0  0  0  0  0  0  0  0  0
  -28.7359  -13.6044   15.8824 N   0  0  0  0  0  0  0  0  0  0  0  0
  -28.0194  -17.9076   21.3465 N   0  3  0  0  0  0  0  0  0  0  0  0
  -27.9761  -15.4179   13.7086 N   0  3  0  0  0  0  0  0  0  0  0  0
  -23.0529  -11.2548   21.8890 O   0  0  0  0  0  0  0  0  0  0  0  0
  -26.9104  -25.7749   17.8463 O   0  0  0  0  0  0  0  0  0  0  0  0
  -27.1491  -23.7610   21.8265 O   0  0  0  0  0  0  0  0  0  0  0  0
  -29.2028  -19.9705   19.8430 O   0  0  0  0  0  0  0  0  0  0  0  0
  -30.9534  -13.5244   16.4598 O   0  0  0  0  0  0  0  0  0  0  0  0
  -21.1082  -18.7847   21.5646 O   0  0  0  0  0  0  0  0  0  0  0  0
  -27.0851  -21.6929   13.6060 O   0  0  0  0  0  0  0  0  0  1  0  0
  -23.2125  -23.3600   23.8101 F   0  0  0  0  0  0  0  0  0  0  0  0
  -20.1142  -19.7839   23.9428 F   0  0  0  0  0  0  0  0  0  0  0  0
  1  2  1  0  0  0  0
  1  5  2  0  0  0  0
  2  6  2  0  0  0  0
  3  9  2  0  0  0  0
  3 17  1  0  0  0  0
  4 10  1  0  0  0  0
  4 17  2  0  0  0  0
  5 19  1  0  0  0  0
  6 21  1  0  0  0  0
  7 11  2  0  0  0  0
  7 20  1  0  0  0  0
  8 14  2  0  0  0  0
  8 23  1  0  0  0  0
  9 24  1  0  0  0  0
 10 24  2  0  0  0  0
 11 25  1  0  0  0  0
 12 13  2  0  0  0  0
 12 26  1  0  0  0  0
 13 27  1  0  0  0  0
 14 31  1  0  0  0  0
 15 22  1  0  0  0  0
 15 25  2  0  0  0  0
 16 27  2  0  0  0  0
 16 28  1  0  0  0  0
 17 29  1  0  0  0  0
 18 29  1  0  0  0  0
 18 32  2  0  0  0  0
 18 33  1  0  0  0  0
 19 21  2  0  0  0  0
 19 38  1  0  0  0  0
 20 22  2  0  0  0  0
 20 39  1  0  0  0  0
 21 47  1  0  0  0  0
 22 40  1  0  0  0  0
 23 30  2  0  0  0  0
 23 56  1  0  0  0  0
 24 79  1  0  0  0  0
 25 80  1  0  0  0  0
 26 28  2  0  0  0  0
 26 79  1  0  0  0  0
 27 81  1  0  0  0  0
 28 82  1  0  0  0  0
 29 62  2  0  0  0  0
 30 50  1  0  0  0  0
 30 63  1  0  0  0  0
 31 63  2  0  0  0  0
 31 80  1  0  0  0  0
 32 64  1  0  0  0  0
 32 67  1  0  0  0  0
 33 68  1  0  0  0  0
 33 74  2  0  0  0  0
 34 48  1  0  0  0  0
 34 69  1  0  0  0  0
 34 75  2  0  0  0  0
 35 59  1  0  0  0  0
 35 65  1  0  0  0  0
 35 76  2  0  0  0  0
 36 60  1  0  0  0  0
 36 70  1  0  0  0  0
 36 77  2  0  0  0  0
 37 66  1  0  0  0  0
 37 71  1  0  0  0  0
 37 78  2  0  0  0  0
 38 41  1  0  0  0  0
 39 48  1  0  0  0  0
 40 65  1  0  0  0  0
 41 43  1  0  0  0  0
 42 44  1  0  0  0  0
 42 45  1  0  0  0  0
 43 47  1  0  0  0  0
 44 49  1  0  0  0  0
 45 66  1  0  0  0  0
 46 49  1  0  0  0  0
 46 66  1  0  0  0  0
 47 69  1  0  0  0  0
 48 65  1  0  0  0  0
 49 64  1  0  0  0  0
 51 60  1  0  0  0  0
 52 61  1  0  0  0  0
 53 61  1  0  0  0  0
 54 61  1  0  0  0  0
 55 72  1  0  0  0  0
 56 73  1  0  0  0  0
 57 58  1  0  0  0  0
 57 71  1  0  0  0  0
 58 73  1  0  0  0  0
 59 61  1  0  0  0  0
 59 70  1  0  0  0  0
 60 72  1  0  0  0  0
 62 64  1  0  0  0  0
M  CHG  2  72   1  73   1
M  ISO  4  31 101  37 100  71 100  80 101
M  END
> <Batch ID>
0134

> <Smiles>
CNC(C)C(=O)NC(C(=O)N1Cc2cc([101O:1][101c:1]3ccc(CNCC[100NH:0][100C:0](=O)N4CCCC(n5nc(-c6ccc(Oc7ccc(F)cc7F)cc6)c(C(N)=O)c5N)C4)c(C)n3)ccc2CC1C(=O)NC1CCCc2ccccc21)C(C)(C)C

> <Shape>
0.199

> <Color>
0.093

> <Negative vol penalty>
0.000

$$$$

  -OEChem-04052320573D

 87 96  0     1  0  0  0  0  0999 V2000
  -30.0875  -22.4189   14.7726 C   0  0  0  0  0  0  0  0  0  0  0  0
  -29.6218  -22.2115   16.0670 C   0  0  0  0  0  0  0  0  0  0  0  0
  -29.7509  -16.9259   22.2719 C   0  0  0  0  0  0  0  0  0  0  0  0
  -32.1468  -17.0724   21.9970 C   0  0  0  0  0  0  0  0  0  0  0  0
  -30.4605  -23.6986   14.3639 C   0  0  0  0  0  0  0  0  0  0  0  0
  -29.5299  -23.2836   16.9539 C   0  0  0  0  0  0  0  0  0  0  0  0
  -25.1677  -23.3089   19.5260 C   0  0  0  0  0  0  0  0  0  0  0  0
  -29.7953  -15.5725   21.9375 C   0  0  0  0  0  0  0  0  0  0  0  0
  -32.1912  -15.7189   21.6627 C   0  0  0  0  0  0  0  0  0  0  0  0
  -25.0547  -22.4229   20.5966 C   0  0  0  0  0  0  0  0  0  0  0  0
  -30.0374  -13.7078   19.1288 C   0  0  0  0  0  0  0  0  0  0  0  0
  -29.0832  -13.2315   18.2299 C   0  0  0  0  0  0  0  0  0  0  0  0
  -25.5408  -24.2217   22.1287 C   0  0  0  0  0  0  0  0  0  0  0  0
  -30.9396  -21.4931   31.0018 C   0  0  0  0  0  0  0  0  0  0  0  0
  -28.2772  -11.6871   19.9040 C   0  0  0  0  0  0  0  0  0  0  0  0
  -30.9267  -17.6759   22.3016 C   0  0  0  0  0  0  0  0  0  0  0  0
  -30.1771  -20.0926   21.9766 C   0  0  0  0  0  0  0  0  0  0  0  0
  -30.3641  -24.7887   15.2432 C   0  0  0  0  0  0  0  0  0  0  0  0
  -25.4795  -24.6579   19.7484 C   0  0  0  0  0  0  0  0  0  0  0  0
  -29.9033  -24.5789   16.5570 C   0  0  0  0  0  0  0  0  0  0  0  0
  -25.6547  -25.1233   21.0594 C   0  0  0  0  0  0  0  0  0  0  0  0
  -28.9411  -20.7317   29.9016 C   0  0  0  0  0  0  0  0  0  0  0  0
  -30.2154  -21.2837   29.8335 C   0  0  0  0  0  0  0  0  0  0  0  0
  -31.0154  -14.9690   21.6329 C   0  0  0  0  0  0  0  0  0  0  0  0
  -25.2441  -22.8787   21.8979 C   0  0  0  0  0  0  0  0  0  0  0  0
  -30.1117  -13.1737   20.4153 C   0  0  0  0  0  0  0  0  0  0  0  0
  -28.2030  -12.2211   18.6175 C   0  0  0  0  0  0  0  0  0  0  0  0
  -29.2315  -12.1634   20.8028 C   0  0  0  0  0  0  0  0  0  0  0  0
  -30.8814  -19.0742   22.6464 C   0  0  0  0  0  0  0  0  0  0  0  0
  -30.3494  -21.1362   32.2035 C   0  0  0  0  0  0  0  0  0  0  0  0
  -28.4404  -20.4087   31.1525 C   0  0  0  0  0  0  0  0  0  0  0  0
  -30.4568  -21.2312   22.6919 C   0  0  0  0  0  0  0  0  0  0  0  0
  -29.3444  -20.0161   20.8119 C   0  0  0  0  0  0  0  0  0  0  0  0
  -27.8762  -26.5729   18.9166 C   0  0  0  0  0  0  0  0  0  0  0  0
  -26.0156  -28.8511   20.2840 C   0  0  0  0  0  0  0  0  0  0  0  0
  -23.5354  -29.6218   22.4980 C   0  0  0  0  0  0  0  0  0  0  0  0
  -32.0507  -22.1970   28.3692 C   0  0  0  0  0  0  0  0  0  0  0  0
  -30.8237  -26.1452   14.7709 C   0  0  0  0  0  0  0  0  0  0  0  0
  -25.5715  -25.6064   18.5847 C   0  0  0  0  0  0  0  0  0  0  0  0
  -25.9710  -26.5662   21.3530 C   0  0  0  0  0  0  0  0  0  0  0  0
  -30.3423  -27.2932   15.6545 C   0  0  0  0  0  0  0  0  0  0  0  0
  -33.8480  -23.1783   25.4565 C   0  0  0  0  0  0  0  0  0  0  0  0
  -30.5646  -26.9629   17.1270 C   0  0  0  0  0  0  0  0  0  0  0  0
  -25.7693  -22.7235   26.5799 C   0  0  0  0  0  0  0  0  0  0  0  0
  -27.6553  -21.3145   25.6560 C   0  0  0  0  0  0  0  0  0  0  0  0
  -33.2230  -22.3343   24.3433 C   0  0  0  0  0  0  0  0  0  0  0  0
  -24.9924  -22.5285   25.2813 C   0  0  0  0  0  0  0  0  0  0  0  0
  -26.8735  -21.1239   24.3597 C   0  0  0  0  0  0  0  0  0  0  0  0
  -33.9416  -22.4045   26.7704 C   0  0  0  0  0  0  0  0  0  0  0  0
  -32.0574  -20.9592   26.1146 C   0  0  0  0  0  0  0  0  0  0  0  0
  -29.7659  -25.7208   17.5404 C   0  0  1  0  0  0  0  0  0  0  0  0
  -26.3997  -26.8503   18.8917 C   0  0  1  0  0  0  0  0  0  0  0  0
  -26.7208  -21.5499   26.8508 C   0  0  0  0  0  0  0  0  0  0  0  0
  -31.8825  -21.7176   24.7888 C   0  0  2  0  0  0  0  0  0  0  0  0
  -25.9248  -22.2913   24.0963 C   0  0  0  0  0  0  0  0  0  1  0  0
  -31.0975  -21.3468   33.4774 C   0  0  0  0  0  0  0  0  0  0  0  0
  -27.0774  -19.8126   31.2889 C   0  0  0  0  0  0  0  0  0  0  0  0
  -22.2581  -31.5731   23.4244 C   0  0  0  0  0  0  0  0  0  0  0  0
  -28.4211  -29.6070   22.0022 C   0  0  0  0  0  0  0  0  0  0  0  0
  -26.8620  -30.8533   23.5136 C   0  0  0  0  0  0  0  0  0  0  0  0
  -27.1095  -31.5500   21.1311 C   0  0  0  0  0  0  0  0  0  0  0  0
  -20.9608  -28.5613   21.4952 C   0  0  0  0  0  0  0  0  0  0  0  0
  -28.1287  -20.4915   28.6542 C   0  0  0  0  0  0  0  0  0  0  0  0
  -27.5264  -21.7921   28.1259 C   0  0  0  0  0  0  0  0  0  0  0  0
  -25.8670  -29.4166   21.6759 C   0  0  1  0  0  0  0  0  0  0  0  0
  -22.2956  -30.4869   22.3607 C   0  0  2  0  0  0  0  0  0  0  0  0
  -27.0609  -30.3290   22.0754 C   0  0  0  0  0  0  0  0  0  0  0  0
  -31.5579  -19.5260   23.7058 N   0  0  0  0  0  0  0  0  0  0  0  0
  -29.1140  -20.5975   32.3093 N   0  0  0  0  0  0  0  0  0  0  0  0
  -31.2799  -20.8409   23.7070 N   0  0  0  0  0  0  0  0  0  0  0  0
  -26.0568  -27.4534   20.1813 N   0  0  0  0  0  0  0  0  0  0  0  0
  -32.6338  -21.8529   27.1313 N   0  0  0  0  0  0  0  0  0  0  0  0
  -30.0767  -22.5182   22.5453 N   0  0  0  0  0  0  0  0  0  0  0  0
  -29.9376  -20.1886   19.5539 N   0  0  0  0  0  0  0  0  0  0  0  0
  -30.7919  -21.6385   28.5887 N   0  0  0  0  0  0  0  0  0  0  0  0
  -28.3719  -26.0577   17.7340 N   0  0  0  0  0  0  0  0  0  0  0  0
  -24.5690  -30.0818   21.7098 N   0  0  0  0  0  0  0  0  0  0  0  0
  -21.0662  -29.6552   22.4947 N   0  3  0  0  0  0  0  0  0  0  0  0
  -28.1080  -19.8174   20.8856 O   0  0  0  0  0  0  0  0  0  0  0  0
  -28.5185  -26.8102   19.9329 O   0  0  0  0  0  0  0  0  0  0  0  0
  -26.0850  -29.6210   19.3227 O   0  0  0  0  0  0  0  0  0  0  0  0
  -23.5835  -28.6386   23.2340 O   0  0  0  0  0  0  0  0  0  0  0  0
  -32.6137  -22.9547   29.1635 O   0  0  0  0  0  0  0  0  0  0  0  0
  -31.0591  -13.6483   21.3068 O   0  0  0  0  0  0  0  0  0  0  0  0
  -25.1349  -22.0159   22.9446 O   0  0  0  0  0  0  0  0  0  1  0  0
  -27.2856  -11.7649   17.7547 F   0  0  0  0  0  0  0  0  0  0  0  0
  -29.2972  -11.6473   22.0378 F   0  0  0  0  0  0  0  0  0  0  0  0
  1  2  1  0  0  0  0
  1  5  2  0  0  0  0
  2  6  2  0  0  0  0
  3  8  2  0  0  0  0
  3 16  1  0  0  0  0
  4  9  1  0  0  0  0
  4 16  2  0  0  0  0
  5 18  1  0  0  0  0
  6 20  1  0  0  0  0
  7 10  2  0  0  0  0
  7 19  1  0  0  0  0
  8 24  1  0  0  0  0
  9 24  2  0  0  0  0
 10 25  1  0  0  0  0
 11 12  2  0  0  0  0
 11 26  1  0  0  0  0
 12 27  1  0  0  0  0
 13 21  1  0  0  0  0
 13 25  2  0  0  0  0
 14 23  2  0  0  0  0
 14 30  1  0  0  0  0
 15 27  2  0  0  0  0
 15 28  1  0  0  0  0
 16 29  1  0  0  0  0
 17 29  1  0  0  0  0
 17 32  2  0  0  0  0
 17 33  1  0  0  0  0
 18 20  2  0  0  0  0
 18 38  1  0  0  0  0
 19 21  2  0  0  0  0
 19 39  1  0  0  0  0
 20 51  1  0  0  0  0
 21 40  1  0  0  0  0
 22 23  1  0  0  0  0
 22 31  2  0  0  0  0
 22 63  1  0  0  0  0
 23 75  1  0  0  0  0
 24 84  1  0  0  0  0
 25 85  1  0  0  0  0
 26 28  2  0  0  0  0
 26 84  1  0  0  0  0
 27 86  1  0  0  0  0
 28 87  1  0  0  0  0
 29 68  2  0  0  0  0
 30 56  1  0  0  0  0
 30 69  2  0  0  0  0
 31 57  1  0  0  0  0
 31 69  1  0  0  0  0
 32 70  1  0  0  0  0
 32 73  1  0  0  0  0
 33 74  1  0  0  0  0
 33 79  2  0  0  0  0
 34 52  1  0  0  0  0
 34 76  1  0  0  0  0
 34 80  2  0  0  0  0
 35 65  1  0  0  0  0
 35 71  1  0  0  0  0
 35 81  2  0  0  0  0
 36 66  1  0  0  0  0
 36 77  1  0  0  0  0
 36 82  2  0  0  0  0
 37 72  1  0  0  0  0
 37 75  1  0  0  0  0
 37 83  2  0  0  0  0
 38 41  1  0  0  0  0
 39 52  1  0  0  0  0
 40 71  1  0  0  0  0
 41 43  1  0  0  0  0
 42 46  1  0  0  0  0
 42 49  1  0  0  0  0
 43 51  1  0  0  0  0
 44 47  1  0  0  0  0
 44 53  1  0  0  0  0
 45 48  1  0  0  0  0
 45 53  1  0  0  0  0
 46 54  1  0  0  0  0
 47 55  1  0  0  0  0
 48 55  1  0  0  0  0
 49 72  1  0  0  0  0
 50 54  1  0  0  0  0
 50 72  1  0  0  0  0
 51 76  1  0  0  0  0
 52 71  1  0  0  0  0
 53 64  1  0  0  0  0
 54 70  1  0  0  0  0
 55 85  1  0  0  0  0
 58 66  1  0  0  0  0
 59 67  1  0  0  0  0
 60 67  1  0  0  0  0
 61 67  1  0  0  0  0
 62 78  1  0  0  0  0
 63 64  1  0  0  0  0
 65 67  1  0  0  0  0
 65 77  1  0  0  0  0
 66 78  1  0  0  0  0
 68 70  1  0  0  0  0
M  CHG  1  78   1
M  ISO  4  37 100  55 101  75 100  85 101
M  END
> <Batch ID>
0134

> <Smiles>
CNC(C)C(=O)NC(C(=O)N1Cc2cc([101O:1][101CH:1]3CCC(CCc4c([100NH:0][100C:0](=O)N5CCCC(n6nc(-c7ccc(Oc8ccc(F)cc8F)cc7)c(C(N)=O)c6N)C5)cc(C)nc4C)CC3)ccc2CC1C(=O)NC1CCCc2ccccc21)C(C)(C)C

> <Shape>
0.192

> <Color>
0.073

> <Negative vol penalty>
0.000

$$$$

  -OEChem-04052320573D

 83 92  0     1  0  0  0  0  0999 V2000
  -30.4535  -24.9183   18.2505 C   0  0  0  0  0  0  0  0  0  0  0  0
  -29.0706  -25.0472   18.1708 C   0  0  0  0  0  0  0  0  0  0  0  0
  -23.4572  -15.9123   19.6913 C   0  0  0  0  0  0  0  0  0  0  0  0
  -25.0845  -16.3896   21.4122 C   0  0  0  0  0  0  0  0  0  0  0  0
  -31.1312  -25.3759   19.3798 C   0  0  0  0  0  0  0  0  0  0  0  0
  -28.3644  -25.6328   19.2209 C   0  0  0  0  0  0  0  0  0  0  0  0
  -23.3498  -29.1221   18.7915 C   0  0  0  0  0  0  0  0  0  0  0  0
  -18.1584  -27.9046   23.3545 C   0  0  0  0  0  0  0  0  0  0  0  0
  -24.0570  -14.6730   19.4679 C   0  0  0  0  0  0  0  0  0  0  0  0
  -25.6843  -15.1502   21.1887 C   0  0  0  0  0  0  0  0  0  0  0  0
  -21.9939  -28.8392   18.9496 C   0  0  0  0  0  0  0  0  0  0  0  0
  -18.5478  -28.5721   22.1941 C   0  0  0  0  0  0  0  0  0  0  0  0
  -25.1065  -11.9220   22.0046 C   0  0  0  0  0  0  0  0  0  0  0  0
  -25.4469  -11.1578   23.1207 C   0  0  0  0  0  0  0  0  0  0  0  0
  -22.1075  -29.6017   21.2354 C   0  0  0  0  0  0  0  0  0  0  0  0
  -20.3900  -27.0355   21.9309 C   0  0  0  0  0  0  0  0  0  0  0  0
  -27.7647  -11.1961   22.4400 C   0  0  0  0  0  0  0  0  0  0  0  0
  -23.9710  -16.7707   20.6635 C   0  0  0  0  0  0  0  0  0  0  0  0
  -22.3123  -18.3424   21.7974 C   0  0  0  0  0  0  0  0  0  0  0  0
  -30.4340  -25.9762   20.4401 C   0  0  0  0  0  0  0  0  0  0  0  0
  -24.0986  -29.6377   19.8592 C   0  0  0  0  0  0  0  0  0  0  0  0
  -18.8863  -26.7998   23.8191 C   0  0  0  0  0  0  0  0  0  0  0  0
  -29.0332  -26.0976   20.3661 C   0  0  0  0  0  0  0  0  0  0  0  0
  -23.4722  -29.8928   21.0875 C   0  0  0  0  0  0  0  0  0  0  0  0
  -20.0106  -26.3540   23.0982 C   0  0  0  0  0  0  0  0  0  0  0  0
  -25.1705  -14.2919   20.2166 C   0  0  0  0  0  0  0  0  0  0  0  0
  -21.3731  -29.0763   20.1725 C   0  0  0  0  0  0  0  0  0  0  0  0
  -19.6627  -28.1379   21.4827 C   0  0  0  0  0  0  0  0  0  1  0  0
  -26.0952  -12.3232   21.1061 C   0  0  0  0  0  0  0  0  0  0  0  0
  -26.7760  -10.7949   23.3385 C   0  0  0  0  0  0  0  0  0  0  0  0
  -27.4243  -11.9603   21.3239 C   0  0  0  0  0  0  0  0  0  0  0  0
  -23.3523  -18.0512   20.8944 C   0  0  0  0  0  0  0  0  0  0  0  0
  -22.0865  -19.6879   21.6389 C   0  0  0  0  0  0  0  0  0  0  0  0
  -21.6128  -17.4742   22.6989 C   0  0  0  0  0  0  0  0  0  0  0  0
  -26.6105  -28.6338   21.5284 C   0  0  0  0  0  0  0  0  0  0  0  0
  -26.4057  -31.5804   22.8693 C   0  0  0  0  0  0  0  0  0  0  0  0
  -24.4765  -34.2926   23.6234 C   0  0  0  0  0  0  0  0  0  0  0  0
  -23.9804  -24.9074   21.0771 C   0  0  0  0  0  0  0  0  0  0  0  0
  -31.2047  -26.4127   21.6608 C   0  0  0  0  0  0  0  0  0  0  0  0
  -25.5542  -29.9626   19.6644 C   0  0  0  0  0  0  0  0  0  0  0  0
  -24.2269  -30.4644   22.2589 C   0  0  0  0  0  0  0  0  0  0  0  0
  -18.4151  -26.0762   25.0494 C   0  0  0  0  0  0  0  0  0  0  0  0
  -30.4238  -27.3607   22.5673 C   0  0  0  0  0  0  0  0  0  0  0  0
  -23.7738  -22.9185   18.1313 C   0  0  0  0  0  0  0  0  0  0  0  0
  -29.0091  -26.8377   22.7945 C   0  0  0  0  0  0  0  0  0  0  0  0
  -23.5663  -21.4989   18.6622 C   0  0  0  0  0  0  0  0  0  0  0  0
  -24.7117  -23.7246   19.0271 C   0  0  0  0  0  0  0  0  0  0  0  0
  -24.1192  -22.3446   20.9812 C   0  0  0  0  0  0  0  0  0  0  0  0
  -20.0372  -24.2646   24.5268 C   0  0  0  0  0  0  0  0  0  0  0  0
  -20.8320  -25.1710   23.5793 C   0  0  2  0  0  0  0  0  0  0  0  0
  -28.2347  -26.7497   21.4739 C   0  0  1  0  0  0  0  0  0  0  0  0
  -26.3377  -30.0029   20.9728 C   0  0  1  0  0  0  0  0  0  0  0  0
  -23.1364  -21.5107   20.1415 C   0  0  2  0  0  0  0  0  0  0  0  0
  -24.5791  -36.5290   24.7571 C   0  0  0  0  0  0  0  0  0  0  0  0
  -26.3488  -30.2010   25.5903 C   0  0  0  0  0  0  0  0  0  0  0  0
  -25.5086  -32.3417   26.5801 C   0  0  0  0  0  0  0  0  0  0  0  0
  -27.7547  -32.2672   25.4974 C   0  0  0  0  0  0  0  0  0  0  0  0
  -23.7720  -35.7195   21.1281 C   0  0  0  0  0  0  0  0  0  0  0  0
  -22.1358  -25.6551   24.2254 C   0  0  0  0  0  0  0  0  0  0  0  0
  -23.2166  -25.9465   23.1975 C   0  0  0  0  0  0  0  0  0  0  0  0
  -25.6800  -32.1668   24.0560 C   0  0  1  0  0  0  0  0  0  0  0  0
  -24.7149  -35.7806   23.4402 C   0  0  2  0  0  0  0  0  0  0  0  0
  -26.3090  -31.7316   25.4097 C   0  0  0  0  0  0  0  0  0  0  0  0
  -23.7590  -19.1254   20.2126 N   0  0  0  0  0  0  0  0  0  0  0  0
  -22.9704  -20.1046   20.6874 N   0  0  0  0  0  0  0  0  0  0  0  0
  -25.6494  -30.7596   22.0207 N   0  0  0  0  0  0  0  0  0  0  0  0
  -24.2469  -23.6970   20.4160 N   0  0  0  0  0  0  0  0  0  0  0  0
  -21.2202  -20.5434   22.2219 N   0  0  0  0  0  0  0  0  0  0  0  0
  -21.9709  -16.1197   22.7349 N   0  0  0  0  0  0  0  0  0  0  0  0
  -27.7803  -28.0618   21.0660 N   0  0  0  0  0  0  0  0  0  0  0  0
  -25.6539  -33.6103   23.8460 N   0  0  0  0  0  0  0  0  0  0  0  0
  -23.5379  -24.7914   22.3892 N   0  0  0  0  0  0  0  0  0  0  0  0
  -19.4026  -25.0923   25.5940 N   0  3  0  0  0  0  0  0  0  0  0  0
  -23.7322  -36.3475   22.4739 N   0  3  0  0  0  0  0  0  0  0  0  0
  -20.6863  -17.8842   23.4385 O   0  0  0  0  0  0  0  0  0  0  0  0
  -25.8190  -28.1339   22.3192 O   0  0  0  0  0  0  0  0  0  0  0  0
  -27.5979  -31.8467   22.6975 O   0  0  0  0  0  0  0  0  0  0  0  0
  -23.3573  -33.7867   23.5776 O   0  0  0  0  0  0  0  0  0  0  0  0
  -24.1210  -26.0095   20.5363 O   0  0  0  0  0  0  0  0  0  0  0  0
  -25.7558  -13.0826   19.9989 O   0  0  0  0  0  0  0  0  0  0  0  0
  -20.0499  -28.8004   20.3298 O   0  0  0  0  0  0  0  0  0  1  0  0
  -27.1029  -10.0623   24.4111 F   0  0  0  0  0  0  0  0  0  0  0  0
  -28.3787  -12.3438   20.4649 F   0  0  0  0  0  0  0  0  0  0  0  0
  1  2  1  0  0  0  0
  1  5  2  0  0  0  0
  2  6  2  0  0  0  0
  3  9  2  0  0  0  0
  3 18  1  0  0  0  0
  4 10  1  0  0  0  0
  4 18  2  0  0  0  0
  5 20  1  0  0  0  0
  6 23  1  0  0  0  0
  7 11  2  0  0  0  0
  7 21  1  0  0  0  0
  8 12  2  0  0  0  0
  8 22  1  0  0  0  0
  9 26  1  0  0  0  0
 10 26  2  0  0  0  0
 11 27  1  0  0  0  0
 12 28  1  0  0  0  0
 13 14  2  0  0  0  0
 13 29  1  0  0  0  0
 14 30  1  0  0  0  0
 15 24  1  0  0  0  0
 15 27  2  0  0  0  0
 16 25  1  0  0  0  0
 16 28  2  0  0  0  0
 17 30  2  0  0  0  0
 17 31  1  0  0  0  0
 18 32  1  0  0  0  0
 19 32  1  0  0  0  0
 19 33  2  0  0  0  0
 19 34  1  0  0  0  0
 20 23  2  0  0  0  0
 20 39  1  0  0  0  0
 21 24  2  0  0  0  0
 21 40  1  0  0  0  0
 22 25  2  0  0  0  0
 22 42  1  0  0  0  0
 23 51  1  0  0  0  0
 24 41  1  0  0  0  0
 25 50  1  0  0  0  0
 26 80  1  0  0  0  0
 27 81  1  0  0  0  0
 28 81  1  0  0  0  0
 29 31  2  0  0  0  0
 29 80  1  0  0  0  0
 30 82  1  0  0  0  0
 31 83  1  0  0  0  0
 32 64  2  0  0  0  0
 33 65  1  0  0  0  0
 33 68  1  0  0  0  0
 34 69  1  0  0  0  0
 34 75  2  0  0  0  0
 35 52  1  0  0  0  0
 35 70  1  0  0  0  0
 35 76  2  0  0  0  0
 36 61  1  0  0  0  0
 36 66  1  0  0  0  0
 36 77  2  0  0  0  0
 37 62  1  0  0  0  0
 37 71  1  0  0  0  0
 37 78  2  0  0  0  0
 38 67  1  0  0  0  0
 38 72  1  0  0  0  0
 38 79  2  0  0  0  0
 39 43  1  0  0  0  0
 40 52  1  0  0  0  0
 41 66  1  0  0  0  0
 42 73  1  0  0  0  0
 43 45  1  0  0  0  0
 44 46  1  0  0  0  0
 44 47  1  0  0  0  0
 45 51  1  0  0  0  0
 46 53  1  0  0  0  0
 47 67  1  0  0  0  0
 48 53  1  0  0  0  0
 48 67  1  0  0  0  0
 49 50  1  0  0  0  0
 49 73  1  0  0  0  0
 50 59  1  0  0  0  0
 51 70  1  0  0  0  0
 52 66  1  0  0  0  0
 53 65  1  0  0  0  0
 54 62  1  0  0  0  0
 55 63  1  0  0  0  0
 56 63  1  0  0  0  0
 57 63  1  0  0  0  0
 58 74  1  0  0  0  0
 59 60  1  0  0  0  0
 60 72  1  0  0  0  0
 61 63  1  0  0  0  0
 61 71  1  0  0  0  0
 62 74  1  0  0  0  0
 64 65  1  0  0  0  0
M  CHG  2  73   1  74   1
M  ISO  4  28 101  38 100  72 100  81 101
M  END
> <Batch ID>
0134

> <Smiles>
CNC(C)C(=O)NC(C(=O)N1Cc2cc([101O:1][101c:1]3ccc4c(c3)C(CC[100NH:0][100C:0](=O)N3CCCC(n5nc(-c6ccc(Oc7ccc(F)cc7F)cc6)c(C(N)=O)c5N)C3)CNC4)ccc2CC1C(=O)NC1CCCc2ccccc21)C(C)(C)C

> <Shape>
0.263

> <Color>
0.070

> <Negative vol penalty>
0.000

$$$$

  -OEChem-04052320573D

 83 92  0     1  0  0  0  0  0999 V2000
  -18.6509  -31.7974   26.2047 C   0  0  0  0  0  0  0  0  0  0  0  0
  -19.9980  -31.4692   26.3180 C   0  0  0  0  0  0  0  0  0  0  0  0
  -24.7532   -9.9931   22.2492 C   0  0  0  0  0  0  0  0  0  0  0  0
  -24.7949  -11.4951   24.1412 C   0  0  0  0  0  0  0  0  0  0  0  0
  -17.8912  -31.2694   25.1616 C   0  0  0  0  0  0  0  0  0  0  0  0
  -20.5861  -30.6117   25.3888 C   0  0  0  0  0  0  0  0  0  0  0  0
  -26.8184  -29.4037   22.0698 C   0  0  0  0  0  0  0  0  0  0  0  0
  -24.4560   -8.9290   23.1005 C   0  0  0  0  0  0  0  0  0  0  0  0
  -24.4977  -10.4308   24.9925 C   0  0  0  0  0  0  0  0  0  0  0  0
  -27.7265  -28.3746   21.8248 C   0  0  0  0  0  0  0  0  0  0  0  0
  -21.7427   -7.7048   24.7042 C   0  0  0  0  0  0  0  0  0  0  0  0
  -20.7349   -6.8234   24.3128 C   0  0  0  0  0  0  0  0  0  0  0  0
  -26.3356  -27.5855   20.0188 C   0  0  0  0  0  0  0  0  0  0  0  0
  -27.0922  -21.7042   20.9107 C   0  0  0  0  0  0  0  0  0  0  0  0
  -22.3191   -4.9996   24.3406 C   0  0  0  0  0  0  0  0  0  0  0  0
  -29.4746  -20.3931   20.6844 C   0  0  0  0  0  0  0  0  0  0  0  0
  -24.9227  -11.2762   22.7696 C   0  0  0  0  0  0  0  0  0  0  0  0
  -24.3158  -13.2239   21.2380 C   0  0  0  0  0  0  0  0  0  0  0  0
  -18.4726  -30.4127   24.2135 C   0  0  0  0  0  0  0  0  0  0  0  0
  -25.6547  -29.5252   21.2969 C   0  0  0  0  0  0  0  0  0  0  0  0
  -19.8332  -30.0707   24.3328 C   0  0  0  0  0  0  0  0  0  0  0  0
  -25.4156  -28.6186   20.2543 C   0  0  0  0  0  0  0  0  0  0  0  0
  -27.0970  -20.3362   20.6617 C   0  0  0  0  0  0  0  0  0  0  0  0
  -28.3067  -19.6607   20.5450 C   0  0  0  0  0  0  0  0  0  0  0  0
  -24.3282   -9.1478   24.4722 C   0  0  0  0  0  0  0  0  0  0  0  0
  -27.4837  -27.4635   20.8011 C   0  0  0  0  0  0  0  0  0  0  0  0
  -23.0387   -7.2335   24.9138 C   0  0  0  0  0  0  0  0  0  0  0  0
  -21.0231   -5.4708   24.1310 C   0  0  0  0  0  0  0  0  0  0  0  0
  -23.3269   -5.8809   24.7320 C   0  0  0  0  0  0  0  0  0  0  0  0
  -25.2303  -12.3758   21.8907 C   0  0  0  0  0  0  0  0  0  0  0  0
  -28.3144  -22.3451   21.0339 C   0  0  0  0  0  0  0  0  0  0  0  0
  -25.1034  -14.0972   20.5284 C   0  0  0  0  0  0  0  0  0  0  0  0
  -22.8823  -13.2224   21.2701 C   0  0  0  0  0  0  0  0  0  0  0  0
  -22.5367  -29.4069   21.9031 C   0  0  0  0  0  0  0  0  0  0  0  0
  -22.2936  -30.2690   18.7853 C   0  0  0  0  0  0  0  0  0  0  0  0
  -23.7111  -30.3463   15.6818 C   0  0  0  0  0  0  0  0  0  0  0  0
  -29.5092  -17.4815   20.1559 C   0  0  0  0  0  0  0  0  0  0  0  0
  -17.5999  -29.8292   23.1307 C   0  0  0  0  0  0  0  0  0  0  0  0
  -24.6985  -30.6569   21.5565 C   0  0  0  0  0  0  0  0  0  0  0  0
  -24.1914  -28.7174   19.3826 C   0  0  0  0  0  0  0  0  0  0  0  0
  -18.3889  -29.2255   21.9718 C   0  0  0  0  0  0  0  0  0  0  0  0
  -30.0725  -14.0154   19.5677 C   0  0  0  0  0  0  0  0  0  0  0  0
  -25.5307  -18.8189   19.2768 C   0  0  0  0  0  0  0  0  0  0  0  0
  -24.7967  -20.1028   19.5073 C   0  0  0  0  0  0  0  0  0  0  0  0
  -19.5193  -28.3459   22.4964 C   0  0  0  0  0  0  0  0  0  0  0  0
  -28.7878  -13.3496   20.0660 C   0  0  0  0  0  0  0  0  0  0  0  0
  -30.4684  -15.2066   20.4384 C   0  0  0  0  0  0  0  0  0  0  0  0
  -28.1291  -15.5436   21.1334 C   0  0  0  0  0  0  0  0  0  0  0  0
  -25.7949  -19.6182   20.5246 C   0  0  0  0  0  0  0  0  0  0  0  0
  -20.5131  -29.1637   23.3302 C   0  0  1  0  0  0  0  0  0  0  0  0
  -23.2900  -30.3794   21.0402 C   0  0  1  0  0  0  0  0  0  0  0  0
  -27.6548  -14.3782   20.2499 C   0  0  2  0  0  0  0  0  0  0  0  0
  -23.2557  -31.0812   13.3260 C   0  0  0  0  0  0  0  0  0  0  0  0
  -20.4538  -27.8665   18.3941 C   0  0  0  0  0  0  0  0  0  0  0  0
  -20.8015  -28.0905   15.9249 C   0  0  0  0  0  0  0  0  0  0  0  0
  -19.7262  -29.9424   17.2043 C   0  0  0  0  0  0  0  0  0  0  0  0
  -26.0061  -32.2148   15.6979 C   0  0  0  0  0  0  0  0  0  0  0  0
  -29.4842  -24.5126   21.4328 C   0  0  0  0  0  0  0  0  0  0  0  0
  -29.1114  -25.9657   21.6746 C   0  0  0  0  0  0  0  0  0  1  0  0
  -22.2052  -29.5257   17.4744 C   0  0  1  0  0  0  0  0  0  0  0  0
  -23.8566  -31.4673   14.6686 C   0  0  2  0  0  0  0  0  0  0  0  0
  -20.8189  -28.8530   17.2669 C   0  0  0  0  0  0  0  0  0  0  0  0
  -29.5098  -21.7227   20.9267 N   0  0  0  0  0  0  0  0  0  0  0  0
  -26.5018  -12.6826   21.6199 N   0  0  0  0  0  0  0  0  0  0  0  0
  -26.3917  -13.7331   20.7889 N   0  0  0  0  0  0  0  0  0  0  0  0
  -23.2832  -29.8374   19.6799 N   0  0  0  0  0  0  0  0  0  0  0  0
  -29.3475  -16.1407   20.5644 N   0  0  0  0  0  0  0  0  0  0  0  0
  -24.8128  -15.1332   19.7133 N   0  0  0  0  0  0  0  0  0  0  0  0
  -22.2325  -12.2563   22.0504 N   0  0  0  0  0  0  0  0  0  0  0  0
  -28.3656  -18.2677   20.2924 N   0  0  0  0  0  0  0  0  0  0  0  0
  -28.2938  -23.7079   21.2801 N   0  0  0  0  0  0  0  0  0  0  0  0
  -21.3880  -29.9281   22.4673 N   0  0  0  0  0  0  0  0  0  0  0  0
  -22.5651  -30.4851   16.4360 N   0  0  0  0  0  0  0  0  0  0  0  0
  -25.2956  -31.7956   14.4625 N   0  3  0  0  0  0  0  0  0  0  0  0
  -22.1978  -14.0428   20.6131 O   0  0  0  0  0  0  0  0  0  0  0  0
  -22.9650  -28.2676   22.0451 O   0  0  0  0  0  0  0  0  0  0  0  0
  -21.5181  -31.2029   19.0045 O   0  0  0  0  0  0  0  0  0  0  0  0
  -24.5300  -29.4363   15.7907 O   0  0  0  0  0  0  0  0  0  0  0  0
  -30.5750  -17.8945   19.6918 O   0  0  0  0  0  0  0  0  0  0  0  0
  -24.0380   -8.1096   25.3031 O   0  0  0  0  0  0  0  0  0  0  0  0
  -28.3680  -26.4576   20.5602 O   0  0  0  0  0  0  0  0  0  1  0  0
  -20.0549   -4.6243   23.7565 F   0  0  0  0  0  0  0  0  0  0  0  0
  -24.5699   -5.4221   24.9330 F   0  0  0  0  0  0  0  0  0  0  0  0
  1  2  1  0  0  0  0
  1  5  2  0  0  0  0
  2  6  2  0  0  0  0
  3  8  2  0  0  0  0
  3 17  1  0  0  0  0
  4  9  1  0  0  0  0
  4 17  2  0  0  0  0
  5 19  1  0  0  0  0
  6 21  1  0  0  0  0
  7 10  2  0  0  0  0
  7 20  1  0  0  0  0
  8 25  1  0  0  0  0
  9 25  2  0  0  0  0
 10 26  1  0  0  0  0
 11 12  2  0  0  0  0
 11 27  1  0  0  0  0
 12 28  1  0  0  0  0
 13 22  1  0  0  0  0
 13 26  2  0  0  0  0
 14 23  2  0  0  0  0
 14 31  1  0  0  0  0
 15 28  2  0  0  0  0
 15 29  1  0  0  0  0
 16 24  2  0  0  0  0
 16 63  1  0  0  0  0
 17 30  1  0  0  0  0
 18 30  1  0  0  0  0
 18 32  2  0  0  0  0
 18 33  1  0  0  0  0
 19 21  2  0  0  0  0
 19 38  1  0  0  0  0
 20 22  2  0  0  0  0
 20 39  1  0  0  0  0
 21 50  1  0  0  0  0
 22 40  1  0  0  0  0
 23 24  1  0  0  0  0
 23 49  1  0  0  0  0
 24 70  1  0  0  0  0
 25 80  1  0  0  0  0
 26 81  1  0  0  0  0
 27 29  2  0  0  0  0
 27 80  1  0  0  0  0
 28 82  1  0  0  0  0
 29 83  1  0  0  0  0
 30 64  2  0  0  0  0
 31 63  2  0  0  0  0
 31 71  1  0  0  0  0
 32 65  1  0  0  0  0
 32 68  1  0  0  0  0
 33 69  1  0  0  0  0
 33 75  2  0  0  0  0
 34 51  1  0  0  0  0
 34 72  1  0  0  0  0
 34 76  2  0  0  0  0
 35 60  1  0  0  0  0
 35 66  1  0  0  0  0
 35 77  2  0  0  0  0
 36 61  1  0  0  0  0
 36 73  1  0  0  0  0
 36 78  2  0  0  0  0
 37 67  1  0  0  0  0
 37 70  1  0  0  0  0
 37 79  2  0  0  0  0
 38 41  1  0  0  0  0
 39 51  1  0  0  0  0
 40 66  1  0  0  0  0
 41 45  1  0  0  0  0
 42 46  1  0  0  0  0
 42 47  1  0  0  0  0
 43 44  1  0  0  0  0
 43 49  1  0  0  0  0
 44 49  1  0  0  0  0
 45 50  1  0  0  0  0
 46 52  1  0  0  0  0
 47 67  1  0  0  0  0
 48 52  1  0  0  0  0
 48 67  1  0  0  0  0
 50 72  1  0  0  0  0
 51 66  1  0  0  0  0
 52 65  1  0  0  0  0
 53 61  1  0  0  0  0
 54 62  1  0  0  0  0
 55 62  1  0  0  0  0
 56 62  1  0  0  0  0
 57 74  1  0  0  0  0
 58 59  1  0  0  0  0
 58 71  1  0  0  0  0
 59 81  1  0  0  0  0
 60 62  1  0  0  0  0
 60 73  1  0  0  0  0
 61 74  1  0  0  0  0
 64 65  1  0  0  0  0
M  CHG  1  74   1
M  ISO  4  37 100  59 101  70 100  81 101
M  END
> <Batch ID>
0134

> <Smiles>
CNC(C)C(=O)NC(C(=O)N1Cc2cc([101O:1][101CH2:1]CNc3cc(C4CC4)c([100NH:0][100C:0](=O)N4CCCC(n5nc(-c6ccc(Oc7ccc(F)cc7F)cc6)c(C(N)=O)c5N)C4)cn3)ccc2CC1C(=O)NC1CCCc2ccccc21)C(C)(C)C

> <Shape>
0.285

> <Color>
0.133

> <Negative vol penalty>
0.000

$$$$

  -OEChem-04052320573D

 83 91  0     1  0  0  0  0  0999 V2000
  -28.7158  -36.0191   18.2299 C   0  0  0  0  0  0  0  0  0  0  0  0
  -28.6003  -34.6899   17.8358 C   0  0  0  0  0  0  0  0  0  0  0  0
  -23.0921   -9.9741   19.9147 C   0  0  0  0  0  0  0  0  0  0  0  0
  -23.8482   -9.9453   22.2092 C   0  0  0  0  0  0  0  0  0  0  0  0
  -28.6637  -36.3508   19.5831 C   0  0  0  0  0  0  0  0  0  0  0  0
  -28.4336  -33.6915   18.7949 C   0  0  0  0  0  0  0  0  0  0  0  0
  -25.1333  -28.5631   18.2353 C   0  0  0  0  0  0  0  0  0  0  0  0
  -29.3352  -20.2732   19.4420 C   0  0  0  0  0  0  0  0  0  0  0  0
  -27.1297  -19.6910   20.2382 C   0  0  0  0  0  0  0  0  0  0  0  0
  -22.3581   -8.8100   20.1420 C   0  0  0  0  0  0  0  0  0  0  0  0
  -23.1142   -8.7812   22.4365 C   0  0  0  0  0  0  0  0  0  0  0  0
  -25.4858  -27.2496   17.9281 C   0  0  0  0  0  0  0  0  0  0  0  0
  -28.7836  -21.2802   18.6502 C   0  0  0  0  0  0  0  0  0  0  0  0
  -26.5780  -20.6981   19.4463 C   0  0  0  0  0  0  0  0  0  0  0  0
  -19.4147   -7.9607   21.5731 C   0  0  0  0  0  0  0  0  0  0  0  0
  -18.1091   -7.9119   21.0848 C   0  0  0  0  0  0  0  0  0  0  0  0
  -25.5636  -26.7264   20.2817 C   0  0  0  0  0  0  0  0  0  0  0  0
  -18.6881   -5.9986   19.7278 C   0  0  0  0  0  0  0  0  0  0  0  0
  -23.8373  -10.5417   20.9483 C   0  0  0  0  0  0  0  0  0  0  0  0
  -24.1569  -13.0716   20.8755 C   0  0  0  0  0  0  0  0  0  0  0  0
  -28.4866  -35.3570   20.5586 C   0  0  0  0  0  0  0  0  0  0  0  0
  -25.0037  -28.9715   19.5705 C   0  0  0  0  0  0  0  0  0  0  0  0
  -28.3804  -34.0101   20.1625 C   0  0  0  0  0  0  0  0  0  0  0  0
  -25.2068  -28.0450   20.6031 C   0  0  0  0  0  0  0  0  0  0  0  0
  -28.5083  -19.4785   20.2360 C   0  0  0  0  0  0  0  0  0  0  0  0
  -22.3691   -8.2136   21.4029 C   0  0  0  0  0  0  0  0  0  0  0  0
  -27.4050  -21.4927   18.6523 C   0  0  0  0  0  0  0  0  0  0  0  0
  -25.7038  -26.3318   18.9514 C   0  0  0  0  0  0  0  0  0  0  0  0
  -20.3571   -7.0285   21.1388 C   0  0  0  0  0  0  0  0  0  0  0  0
  -17.7457   -6.9309   20.1622 C   0  0  0  0  0  0  0  0  0  0  0  0
  -19.9938   -6.0474   20.2162 C   0  0  0  0  0  0  0  0  0  0  0  0
  -24.5962  -11.7439   20.7140 C   0  0  0  0  0  0  0  0  0  0  0  0
  -25.2429  -13.8373   20.5281 C   0  0  0  0  0  0  0  0  0  0  0  0
  -22.8812  -13.5683   21.3017 C   0  0  0  0  0  0  0  0  0  0  0  0
  -26.4655  -31.1086   21.4144 C   0  0  0  0  0  0  0  0  0  0  0  0
  -24.1752  -30.2569   23.5478 C   0  0  0  0  0  0  0  0  0  0  0  0
  -21.9415  -27.9090   24.6177 C   0  0  0  0  0  0  0  0  0  0  0  0
  -30.7171  -14.9010   20.7449 C   0  0  0  0  0  0  0  0  0  0  0  0
  -28.4838  -35.7590   22.0123 C   0  0  0  0  0  0  0  0  0  0  0  0
  -24.5967  -30.3851   19.8846 C   0  0  0  0  0  0  0  0  0  0  0  0
  -25.0606  -28.4280   22.0524 C   0  0  0  0  0  0  0  0  0  0  0  0
  -27.9292  -34.6819   22.9410 C   0  0  0  0  0  0  0  0  0  0  0  0
  -29.6045  -12.5511   18.3125 C   0  0  0  0  0  0  0  0  0  0  0  0
  -28.5322  -33.3224   22.6018 C   0  0  0  0  0  0  0  0  0  0  0  0
  -28.1691  -12.2368   18.7374 C   0  0  0  0  0  0  0  0  0  0  0  0
  -30.5177  -12.7578   19.5189 C   0  0  0  0  0  0  0  0  0  0  0  0
  -28.6074  -13.4463   20.9154 C   0  0  0  0  0  0  0  0  0  0  0  0
  -28.1737  -32.9013   21.1715 C   0  0  1  0  0  0  0  0  0  0  0  0
  -24.9955  -30.8233   21.2904 C   0  0  1  0  0  0  0  0  0  0  0  0
  -27.6367  -13.2849   19.7330 C   0  0  2  0  0  0  0  0  0  0  0  0
  -20.2373  -27.4836   26.4100 C   0  0  0  0  0  0  0  0  0  0  0  0
  -26.4160  -29.7077   25.5446 C   0  0  0  0  0  0  0  0  0  0  0  0
  -24.7740  -28.4184   26.9266 C   0  0  0  0  0  0  0  0  0  0  0  0
  -24.4136  -30.8518   26.5122 C   0  0  0  0  0  0  0  0  0  0  0  0
  -19.7528  -27.6645   22.6406 C   0  0  0  0  0  0  0  0  0  0  0  0
  -30.4696  -18.1888   21.0819 C   0  0  0  0  0  0  0  0  0  0  0  0
  -30.7620  -17.0288   22.0215 C   0  0  0  0  0  0  0  0  0  0  0  0
  -27.6783  -23.6213   17.6275 C   0  0  0  0  0  0  0  0  0  0  0  0
  -26.7895  -24.8376   17.4532 C   0  0  0  0  0  0  0  0  0  1  0  0
  -24.0556  -29.2069   24.6259 C   0  0  1  0  0  0  0  0  0  0  0  0
  -20.4775  -28.0142   25.0052 C   0  0  2  0  0  0  0  0  0  0  0  0
  -24.9195  -29.5392   25.8752 C   0  0  0  0  0  0  0  0  0  0  0  0
  -25.8625  -11.6670   20.2962 N   0  0  0  0  0  0  0  0  0  0  0  0
  -26.2282  -12.9560   20.1923 N   0  0  0  0  0  0  0  0  0  0  0  0
  -24.6672  -29.8234   22.3086 N   0  0  0  0  0  0  0  0  0  0  0  0
  -29.9567  -13.7648   20.4228 N   0  0  0  0  0  0  0  0  0  0  0  0
  -25.4417  -15.1717   20.4801 N   0  0  0  0  0  0  0  0  0  0  0  0
  -21.8769  -12.6442   21.6203 N   0  0  0  0  0  0  0  0  0  0  0  0
  -29.0661  -18.4602   21.0367 N   0  0  0  0  0  0  0  0  0  0  0  0
  -26.8128  -32.4121   21.1148 N   0  0  0  0  0  0  0  0  0  0  0  0
  -22.6303  -29.0685   24.9046 N   0  0  0  0  0  0  0  0  0  0  0  0
  -30.1084  -15.8088   21.6029 N   0  0  0  0  0  0  0  0  0  0  0  0
  -19.6333  -27.2333   24.0572 N   0  3  0  0  0  0  0  0  0  0  0  0
  -22.6340  -14.7955   21.3813 O   0  0  0  0  0  0  0  0  0  0  0  0
  -27.2279  -30.2129   21.7580 O   0  0  0  0  0  0  0  0  0  0  0  0
  -23.8374  -31.4175   23.7940 O   0  0  0  0  0  0  0  0  0  0  0  0
  -22.4263  -26.8979   24.1145 O   0  0  0  0  0  0  0  0  0  0  0  0
  -31.8522  -15.0949   20.2966 O   0  0  0  0  0  0  0  0  0  0  0  0
  -21.6528   -7.0778   21.6251 O   0  0  0  0  0  0  0  0  0  0  0  0
  -26.8632  -22.4819   17.8745 O   0  0  0  0  0  0  0  0  0  0  0  0
  -26.0486  -25.0493   18.6543 O   0  0  0  0  0  0  0  0  0  1  0  0
  -16.4915   -6.8832   19.6945 F   0  0  0  0  0  0  0  0  0  0  0  0
  -20.8944   -5.1485   19.7961 F   0  0  0  0  0  0  0  0  0  0  0  0
  1  2  1  0  0  0  0
  1  5  2  0  0  0  0
  2  6  2  0  0  0  0
  3 10  2  0  0  0  0
  3 19  1  0  0  0  0
  4 11  1  0  0  0  0
  4 19  2  0  0  0  0
  5 21  1  0  0  0  0
  6 23  1  0  0  0  0
  7 12  2  0  0  0  0
  7 22  1  0  0  0  0
  8 13  2  0  0  0  0
  8 25  1  0  0  0  0
  9 14  1  0  0  0  0
  9 25  2  0  0  0  0
 10 26  1  0  0  0  0
 11 26  2  0  0  0  0
 12 28  1  0  0  0  0
 13 27  1  0  0  0  0
 14 27  2  0  0  0  0
 15 16  2  0  0  0  0
 15 29  1  0  0  0  0
 16 30  1  0  0  0  0
 17 24  1  0  0  0  0
 17 28  2  0  0  0  0
 18 30  2  0  0  0  0
 18 31  1  0  0  0  0
 19 32  1  0  0  0  0
 20 32  1  0  0  0  0
 20 33  2  0  0  0  0
 20 34  1  0  0  0  0
 21 23  2  0  0  0  0
 21 39  1  0  0  0  0
 22 24  2  0  0  0  0
 22 40  1  0  0  0  0
 23 48  1  0  0  0  0
 24 41  1  0  0  0  0
 25 69  1  0  0  0  0
 26 79  1  0  0  0  0
 27 80  1  0  0  0  0
 28 81  1  0  0  0  0
 29 31  2  0  0  0  0
 29 79  1  0  0  0  0
 30 82  1  0  0  0  0
 31 83  1  0  0  0  0
 32 63  2  0  0  0  0
 33 64  1  0  0  0  0
 33 67  1  0  0  0  0
 34 68  1  0  0  0  0
 34 74  2  0  0  0  0
 35 49  1  0  0  0  0
 35 70  1  0  0  0  0
 35 75  2  0  0  0  0
 36 60  1  0  0  0  0
 36 65  1  0  0  0  0
 36 76  2  0  0  0  0
 37 61  1  0  0  0  0
 37 71  1  0  0  0  0
 37 77  2  0  0  0  0
 38 66  1  0  0  0  0
 38 72  1  0  0  0  0
 38 78  2  0  0  0  0
 39 42  1  0  0  0  0
 40 49  1  0  0  0  0
 41 65  1  0  0  0  0
 42 44  1  0  0  0  0
 43 45  1  0  0  0  0
 43 46  1  0  0  0  0
 44 48  1  0  0  0  0
 45 50  1  0  0  0  0
 46 66  1  0  0  0  0
 47 50  1  0  0  0  0
 47 66  1  0  0  0  0
 48 70  1  0  0  0  0
 49 65  1  0  0  0  0
 50 64  1  0  0  0  0
 51 61  1  0  0  0  0
 52 62  1  0  0  0  0
 53 62  1  0  0  0  0
 54 62  1  0  0  0  0
 55 73  1  0  0  0  0
 56 57  1  0  0  0  0
 56 69  1  0  0  0  0
 57 72  1  0  0  0  0
 58 59  1  0  0  0  0
 58 80  1  0  0  0  0
 59 81  1  0  0  0  0
 60 62  1  0  0  0  0
 60 71  1  0  0  0  0
 61 73  1  0  0  0  0
 63 64  1  0  0  0  0
M  CHG  1  73   1
M  ISO  4  38 100  59 101  72 100  81 101
M  END
> <Batch ID>
0134

> <Smiles>
CNC(C)C(=O)NC(C(=O)N1Cc2cc([101O:1][101CH2:1]COc3ccc(NCC[100NH:0][100C:0](=O)N4CCCC(n5nc(-c6ccc(Oc7ccc(F)cc7F)cc6)c(C(N)=O)c5N)C4)cc3)ccc2CC1C(=O)NC1CCCc2ccccc21)C(C)(C)C

> <Shape>
0.303

> <Color>
0.224

> <Negative vol penalty>
0.000

$$$$

  -OEChem-04052320573D

 82 91  0     1  0  0  0  0  0999 V2000
  -25.1613  -13.5408   37.4311 C   0  0  0  0  0  0  0  0  0  0  0  0
  -25.7922  -13.7125   36.2031 C   0  0  0  0  0  0  0  0  0  0  0  0
  -22.8078  -10.1476   20.1720 C   0  0  0  0  0  0  0  0  0  0  0  0
  -24.2212   -9.6087   22.0559 C   0  0  0  0  0  0  0  0  0  0  0  0
  -23.8104  -13.8565   37.5697 C   0  0  0  0  0  0  0  0  0  0  0  0
  -25.0721  -14.1990   35.1127 C   0  0  0  0  0  0  0  0  0  0  0  0
  -27.1579  -17.8404   30.6522 C   0  0  0  0  0  0  0  0  0  0  0  0
  -22.0801   -8.9764   20.3830 C   0  0  0  0  0  0  0  0  0  0  0  0
  -23.4934   -8.4375   22.2669 C   0  0  0  0  0  0  0  0  0  0  0  0
  -27.6074  -17.5765   29.3591 C   0  0  0  0  0  0  0  0  0  0  0  0
  -19.6504   -7.8956   22.4713 C   0  0  0  0  0  0  0  0  0  0  0  0
  -18.2589   -7.9790   22.4211 C   0  0  0  0  0  0  0  0  0  0  0  0
  -25.4119  -18.0846   28.4986 C   0  0  0  0  0  0  0  0  0  0  0  0
  -18.2296   -6.3934   20.5984 C   0  0  0  0  0  0  0  0  0  0  0  0
  -23.8784  -10.4637   21.0085 C   0  0  0  0  0  0  0  0  0  0  0  0
  -24.1434  -12.9935   20.8149 C   0  0  0  0  0  0  0  0  0  0  0  0
  -23.0757  -14.3562   36.4829 C   0  0  0  0  0  0  0  0  0  0  0  0
  -25.8268  -18.2185   30.8797 C   0  0  0  0  0  0  0  0  0  0  0  0
  -23.7097  -14.5204   35.2365 C   0  0  0  0  0  0  0  0  0  0  0  0
  -24.9486  -18.3553   29.7952 C   0  0  0  0  0  0  0  0  0  0  0  0
  -22.4229   -8.1214   21.4304 C   0  0  0  0  0  0  0  0  0  0  0  0
  -26.7336  -17.6958   28.2824 C   0  0  0  0  0  0  0  0  0  0  0  0
  -20.3315   -7.0611   21.5850 C   0  0  0  0  0  0  0  0  0  0  0  0
  -17.5485   -7.2280   21.4846 C   0  0  0  0  0  0  0  0  0  0  0  0
  -19.6211   -6.3100   20.6486 C   0  0  0  0  0  0  0  0  0  0  0  0
  -24.6308  -11.6730   20.7907 C   0  0  0  0  0  0  0  0  0  0  0  0
  -25.2447  -13.7708   20.5515 C   0  0  0  0  0  0  0  0  0  0  0  0
  -22.8141  -13.4744   21.0541 C   0  0  0  0  0  0  0  0  0  0  0  0
  -23.3871  -16.9768   32.4952 C   0  0  0  0  0  0  0  0  0  0  0  0
  -21.9398  -19.7657   31.6889 C   0  0  0  0  0  0  0  0  0  0  0  0
  -21.7625  -22.4287   29.5620 C   0  0  0  0  0  0  0  0  0  0  0  0
  -31.1208  -12.9079   21.3113 C   0  0  0  0  0  0  0  0  0  0  0  0
  -21.6059  -14.6387   36.6687 C   0  0  0  0  0  0  0  0  0  0  0  0
  -25.3645  -18.5256   32.2777 C   0  0  0  0  0  0  0  0  0  0  0  0
  -23.5153  -18.7778   29.9839 C   0  0  0  0  0  0  0  0  0  0  0  0
  -21.0071  -15.5028   35.5619 C   0  0  0  0  0  0  0  0  0  0  0  0
  -29.4443  -13.6614   18.2620 C   0  0  0  0  0  0  0  0  0  0  0  0
  -21.4447  -14.9943   34.1919 C   0  0  0  0  0  0  0  0  0  0  0  0
  -27.9766  -13.3564   18.5665 C   0  0  0  0  0  0  0  0  0  0  0  0
  -26.9974  -19.5870   24.3328 C   0  0  0  0  0  0  0  0  0  0  0  0
  -27.9051  -19.8376   23.1641 C   0  0  0  0  0  0  0  0  0  0  0  0
  -30.3815  -12.6771   18.9583 C   0  0  0  0  0  0  0  0  0  0  0  0
  -28.7107  -12.2475   20.7183 C   0  0  0  0  0  0  0  0  0  0  0  0
  -30.0918  -17.3490   23.8497 C   0  0  0  0  0  0  0  0  0  0  0  0
  -22.9685  -15.0691   34.0366 C   0  0  1  0  0  0  0  0  0  0  0  0
  -23.8532  -18.4045   32.4474 C   0  0  1  0  0  0  0  0  0  0  0  0
  -27.7295  -13.2476   20.0832 C   0  0  2  0  0  0  0  0  0  0  0  0
  -27.9053  -18.4941   23.8400 C   0  0  0  0  0  0  0  0  0  0  0  0
  -30.2548  -16.3768   25.0350 C   0  0  1  0  0  0  0  0  0  0  0  0
  -28.8090  -16.7977   25.3993 C   0  0  1  0  0  0  0  0  0  0  0  0
  -20.4524  -24.5263   29.1367 C   0  0  0  0  0  0  0  0  0  0  0  0
  -19.6545  -18.1024   30.5395 C   0  0  0  0  0  0  0  0  0  0  0  0
  -18.8753  -20.1443   29.3182 C   0  0  0  0  0  0  0  0  0  0  0  0
  -18.9314  -20.1303   31.8121 C   0  0  0  0  0  0  0  0  0  0  0  0
  -24.1541  -24.1340   29.9239 C   0  0  0  0  0  0  0  0  0  0  0  0
  -28.5348  -17.0502   26.8699 C   0  0  0  0  0  0  0  0  0  1  0  0
  -31.7068  -13.1127   23.7141 C   0  0  0  0  0  0  0  0  0  0  0  0
  -31.7191  -14.5777   24.1090 C   0  0  0  0  0  0  0  0  0  0  0  0
  -21.1042  -20.2388   30.5240 C   0  0  1  0  0  0  0  0  0  0  0  0
  -21.6675  -23.9212   29.8223 C   0  0  2  0  0  0  0  0  0  0  0  0
  -19.6678  -19.6441   30.5448 C   0  0  0  0  0  0  0  0  0  0  0  0
  -25.9398  -11.6112   20.5322 N   0  0  0  0  0  0  0  0  0  0  0  0
  -26.2842  -12.9025   20.3915 N   0  0  0  0  0  0  0  0  0  0  0  0
  -23.1092  -19.0608   31.3704 N   0  0  0  0  0  0  0  0  0  0  0  0
  -30.0961  -12.6223   20.3940 N   0  0  0  0  0  0  0  0  0  0  0  0
  -29.0640  -18.0612   24.6510 N   0  0  1  0  0  0  0  0  0  0  0  0
  -25.4156  -15.1056   20.4434 N   0  0  0  0  0  0  0  0  0  0  0  0
  -21.8012  -12.5397   21.3087 N   0  0  0  0  0  0  0  0  0  0  0  0
  -23.3826  -16.4287   33.7636 N   0  0  0  0  0  0  0  0  0  0  0  0
  -21.1479  -21.6967   30.5558 N   0  0  0  0  0  0  0  0  0  0  0  0
  -30.7640  -12.8394   22.6524 N   0  0  0  0  0  0  0  0  0  0  0  0
  -30.3751  -14.9715   24.6336 N   0  3  0  0  0  0  0  0  0  0  0  0
  -22.8862  -24.6139   29.3164 N   0  3  0  0  0  0  0  0  0  0  0  0
  -22.5295  -14.6958   21.0263 O   0  0  0  0  0  0  0  0  0  0  0  0
  -23.0546  -16.4148   31.4582 O   0  0  0  0  0  0  0  0  0  0  0  0
  -21.5722  -20.0186   32.8389 O   0  0  0  0  0  0  0  0  0  0  0  0
  -22.3225  -21.9592   28.5738 O   0  0  0  0  0  0  0  0  0  0  0  0
  -32.2674  -13.2073   20.9608 O   0  0  0  0  0  0  0  0  0  0  0  0
  -21.7128   -6.9787   21.6367 O   0  0  0  0  0  0  0  0  0  0  0  0
  -27.1697  -17.4382   27.0193 O   0  0  0  0  0  0  0  0  0  1  0  0
  -16.2123   -7.3071   21.4375 F   0  0  0  0  0  0  0  0  0  0  0  0
  -20.2698   -5.5057   19.7954 F   0  0  0  0  0  0  0  0  0  0  0  0
  1  2  1  0  0  0  0
  1  5  2  0  0  0  0
  2  6  2  0  0  0  0
  3  8  2  0  0  0  0
  3 15  1  0  0  0  0
  4  9  1  0  0  0  0
  4 15  2  0  0  0  0
  5 17  1  0  0  0  0
  6 19  1  0  0  0  0
  7 10  2  0  0  0  0
  7 18  1  0  0  0  0
  8 21  1  0  0  0  0
  9 21  2  0  0  0  0
 10 22  1  0  0  0  0
 11 12  2  0  0  0  0
 11 23  1  0  0  0  0
 12 24  1  0  0  0  0
 13 20  1  0  0  0  0
 13 22  2  0  0  0  0
 14 24  2  0  0  0  0
 14 25  1  0  0  0  0
 15 26  1  0  0  0  0
 16 26  1  0  0  0  0
 16 27  2  0  0  0  0
 16 28  1  0  0  0  0
 17 19  2  0  0  0  0
 17 33  1  0  0  0  0
 18 20  2  0  0  0  0
 18 34  1  0  0  0  0
 19 45  1  0  0  0  0
 20 35  1  0  0  0  0
 21 79  1  0  0  0  0
 22 80  1  0  0  0  0
 23 25  2  0  0  0  0
 23 79  1  0  0  0  0
 24 81  1  0  0  0  0
 25 82  1  0  0  0  0
 26 62  2  0  0  0  0
 27 63  1  0  0  0  0
 27 67  1  0  0  0  0
 28 68  1  0  0  0  0
 28 74  2  0  0  0  0
 29 46  1  0  0  0  0
 29 69  1  0  0  0  0
 29 75  2  0  0  0  0
 30 59  1  0  0  0  0
 30 64  1  0  0  0  0
 30 76  2  0  0  0  0
 31 60  1  0  0  0  0
 31 70  1  0  0  0  0
 31 77  2  0  0  0  0
 32 65  1  0  0  0  0
 32 71  1  0  0  0  0
 32 78  2  0  0  0  0
 33 36  1  0  0  0  0
 34 46  1  0  0  0  0
 35 64  1  0  0  0  0
 36 38  1  0  0  0  0
 37 39  1  0  0  0  0
 37 42  1  0  0  0  0
 38 45  1  0  0  0  0
 39 47  1  0  0  0  0
 40 41  1  0  0  0  0
 40 48  1  0  0  0  0
 41 48  1  0  0  0  0
 42 65  1  0  0  0  0
 43 47  1  0  0  0  0
 43 65  1  0  0  0  0
 44 49  1  0  0  0  0
 44 66  1  0  0  0  0
 45 69  1  0  0  0  0
 46 64  1  0  0  0  0
 47 63  1  0  0  0  0
 48 66  1  0  0  0  0
 49 50  1  0  0  0  0
 49 72  1  0  0  0  0
 50 56  1  0  0  0  0
 50 66  1  0  0  0  0
 51 60  1  0  0  0  0
 52 61  1  0  0  0  0
 53 61  1  0  0  0  0
 54 61  1  0  0  0  0
 55 73  1  0  0  0  0
 56 80  1  0  0  0  0
 57 58  1  0  0  0  0
 57 71  1  0  0  0  0
 58 72  1  0  0  0  0
 59 61  1  0  0  0  0
 59 70  1  0  0  0  0
 60 73  1  0  0  0  0
 62 63  1  0  0  0  0
M  CHG  2  72   1  73   1
M  ISO  4  32 100  56 101  71 100  80 101
M  END
> <Batch ID>
0134

> <Smiles>
CNC(C)C(=O)NC(C(=O)N1Cc2cc([101O:1][101CH2:1]C3C(NCC[100NH:0][100C:0](=O)N4CCCC(n5nc(-c6ccc(Oc7ccc(F)cc7F)cc6)c(C(N)=O)c5N)C4)CN3C3CC3)ccc2CC1C(=O)NC1CCCc2ccccc21)C(C)(C)C

> <Shape>
0.126

> <Color>
0.170

> <Negative vol penalty>
0.000

$$$$

  -OEChem-04052320573D

 83 91  0     1  0  0  0  0  0999 V2000
  -34.4376  -20.7233   23.3176 C   0  0  0  0  0  0  0  0  0  0  0  0
  -33.3588  -20.7592   22.4400 C   0  0  0  0  0  0  0  0  0  0  0  0
  -22.6760  -10.0958   20.3050 C   0  0  0  0  0  0  0  0  0  0  0  0
  -24.2729   -9.5468   22.0328 C   0  0  0  0  0  0  0  0  0  0  0  0
  -35.0357  -21.9118   23.7342 C   0  0  0  0  0  0  0  0  0  0  0  0
  -32.8768  -21.9839   21.9792 C   0  0  0  0  0  0  0  0  0  0  0  0
  -31.9641  -21.9628   16.9981 C   0  0  0  0  0  0  0  0  0  0  0  0
  -21.9562   -8.9386   20.6025 C   0  0  0  0  0  0  0  0  0  0  0  0
  -23.5532   -8.3896   22.3304 C   0  0  0  0  0  0  0  0  0  0  0  0
  -30.7892  -21.3470   16.5687 C   0  0  0  0  0  0  0  0  0  0  0  0
  -19.7455   -7.9138   22.9467 C   0  0  0  0  0  0  0  0  0  0  0  0
  -18.3581   -8.0203   23.0438 C   0  0  0  0  0  0  0  0  0  0  0  0
  -29.7335  -23.5077   16.3784 C   0  0  0  0  0  0  0  0  0  0  0  0
  -18.1098   -6.4223   21.2489 C   0  0  0  0  0  0  0  0  0  0  0  0
  -23.8344  -10.3998   21.0201 C   0  0  0  0  0  0  0  0  0  0  0  0
  -24.1177  -12.9234   20.7768 C   0  0  0  0  0  0  0  0  0  0  0  0
  -34.5670  -23.1512   23.2708 C   0  0  0  0  0  0  0  0  0  0  0  0
  -32.0291  -23.3572   17.1316 C   0  0  0  0  0  0  0  0  0  0  0  0
  -33.4684  -23.1902   22.3911 C   0  0  0  0  0  0  0  0  0  0  0  0
  -30.9111  -24.1389   16.8073 C   0  0  0  0  0  0  0  0  0  0  0  0
  -22.3948   -8.0855   21.6152 C   0  0  0  0  0  0  0  0  0  0  0  0
  -29.6728  -22.1193   16.2615 C   0  0  0  0  0  0  0  0  0  0  0  0
  -20.3151   -7.0616   22.0006 C   0  0  0  0  0  0  0  0  0  0  0  0
  -17.5403   -7.2746   22.1949 C   0  0  0  0  0  0  0  0  0  0  0  0
  -19.4972   -6.3159   21.1517 C   0  0  0  0  0  0  0  0  0  0  0  0
  -24.5786  -11.5947   20.7128 C   0  0  0  0  0  0  0  0  0  0  0  0
  -25.1969  -13.6802   20.3910 C   0  0  0  0  0  0  0  0  0  0  0  0
  -22.8291  -13.4283   21.1515 C   0  0  0  0  0  0  0  0  0  0  0  0
  -32.5290  -25.3582   19.5502 C   0  0  0  0  0  0  0  0  0  0  0  0
  -32.5122  -27.5904   17.1967 C   0  0  0  0  0  0  0  0  0  0  0  0
  -31.5182  -28.4816   14.0559 C   0  0  0  0  0  0  0  0  0  0  0  0
  -30.6514  -14.8418   20.6025 C   0  0  0  0  0  0  0  0  0  0  0  0
  -35.2157  -24.4115   23.7861 C   0  0  0  0  0  0  0  0  0  0  0  0
  -33.3122  -24.0080   17.5704 C   0  0  0  0  0  0  0  0  0  0  0  0
  -30.9357  -25.6410   16.9144 C   0  0  0  0  0  0  0  0  0  0  0  0
  -34.8834  -25.6501   22.9581 C   0  0  0  0  0  0  0  0  0  0  0  0
  -24.7991  -22.2275   18.1108 C   0  0  0  0  0  0  0  0  0  0  0  0
  -29.6067  -12.3128   18.3244 C   0  0  0  0  0  0  0  0  0  0  0  0
  -33.3872  -25.7126   22.6679 C   0  0  0  0  0  0  0  0  0  0  0  0
  -24.8441  -21.7655   16.6566 C   0  0  0  0  0  0  0  0  0  0  0  0
  -28.1704  -12.0061   18.7520 C   0  0  0  0  0  0  0  0  0  0  0  0
  -30.5003  -12.6164   19.5250 C   0  0  0  0  0  0  0  0  0  0  0  0
  -25.2298  -21.1144   19.0670 C   0  0  0  0  0  0  0  0  0  0  0  0
  -26.5603  -20.0518   17.3442 C   0  0  0  0  0  0  0  0  0  0  0  0
  -28.5612  -13.3695   20.8465 C   0  0  0  0  0  0  0  0  0  0  0  0
  -32.9326  -24.4979   21.8498 C   0  0  1  0  0  0  0  0  0  0  0  0
  -33.1047  -25.3984   18.1629 C   0  0  1  0  0  0  0  0  0  0  0  0
  -26.1923  -21.1238   16.3027 C   0  0  2  0  0  0  0  0  0  0  0  0
  -27.6091  -13.1119   19.6660 C   0  0  2  0  0  0  0  0  0  0  0  0
  -31.6234  -30.3831   12.4217 C   0  0  0  0  0  0  0  0  0  0  0  0
  -30.3828  -29.0796   18.7961 C   0  0  0  0  0  0  0  0  0  0  0  0
  -29.8571  -30.3996   16.7347 C   0  0  0  0  0  0  0  0  0  0  0  0
  -32.1257  -30.5450   17.7619 C   0  0  0  0  0  0  0  0  0  0  0  0
  -32.9711  -26.8430   12.0652 C   0  0  0  0  0  0  0  0  0  0  0  0
  -27.2974  -22.1758   16.1607 C   0  0  0  0  0  0  0  0  0  1  0  0
  -26.9691  -19.5606   19.6682 C   0  0  0  0  0  0  0  0  0  0  0  0
  -30.6475  -17.0530   21.7295 C   0  0  0  0  0  0  0  0  0  0  0  0
  -28.4790  -19.4137   19.6613 C   0  0  0  0  0  0  0  0  0  0  0  0
  -30.3526  -18.1391   20.7118 C   0  0  0  0  0  0  0  0  0  0  0  0
  -31.4530  -28.4389   16.5355 C   0  0  1  0  0  0  0  0  0  0  0  0
  -32.2793  -29.0952   12.8946 C   0  0  2  0  0  0  0  0  0  0  0  0
  -30.9533  -29.5874   17.4568 C   0  0  0  0  0  0  0  0  0  0  0  0
  -25.8515  -11.5090   20.3173 N   0  0  0  0  0  0  0  0  0  0  0  0
  -26.1996  -12.7934   20.1292 N   0  0  0  0  0  0  0  0  0  0  0  0
  -32.2114  -26.2300   17.3539 N   0  0  0  0  0  0  0  0  0  0  0  0
  -29.9122  -13.6744   20.3500 N   0  0  0  0  0  0  0  0  0  0  0  0
  -26.5557  -20.5887   18.7134 N   0  0  2  0  0  0  0  0  0  0  0  0
  -25.3766  -15.0110   20.2534 N   0  0  0  0  0  0  0  0  0  0  0  0
  -21.8343  -12.5127   21.5206 N   0  0  0  0  0  0  0  0  0  0  0  0
  -33.2999  -24.6590   20.4592 N   0  0  0  0  0  0  0  0  0  0  0  0
  -32.0233  -28.8921   15.2715 N   0  0  0  0  0  0  0  0  0  0  0  0
  -30.0178  -15.7969   21.3880 N   0  0  0  0  0  0  0  0  0  0  0  0
  -32.3291  -28.1446   11.7479 N   0  3  0  0  0  0  0  0  0  0  0  0
  -28.8891  -18.4067   20.6708 N   0  3  0  0  0  0  0  0  0  0  0  0
  -22.5628  -14.6540   21.1431 O   0  0  0  0  0  0  0  0  0  0  0  0
  -31.4649  -25.9211   19.7794 O   0  0  0  0  0  0  0  0  0  0  0  0
  -33.5705  -28.1139   17.5539 O   0  0  0  0  0  0  0  0  0  0  0  0
  -30.5680  -27.7178   13.9003 O   0  0  0  0  0  0  0  0  0  0  0  0
  -31.7895  -15.0221   20.1562 O   0  0  0  0  0  0  0  0  0  0  0  0
  -21.6926   -6.9564   21.9060 O   0  0  0  0  0  0  0  0  0  0  0  0
  -28.5246  -21.5207   15.8427 O   0  0  0  0  0  0  0  0  0  1  0  0
  -16.2080   -7.3758   22.2893 F   0  0  0  0  0  0  0  0  0  0  0  0
  -20.0386   -5.4946   20.2417 F   0  0  0  0  0  0  0  0  0  0  0  0
  1  2  1  0  0  0  0
  1  5  2  0  0  0  0
  2  6  2  0  0  0  0
  3  8  2  0  0  0  0
  3 15  1  0  0  0  0
  4  9  1  0  0  0  0
  4 15  2  0  0  0  0
  5 17  1  0  0  0  0
  6 19  1  0  0  0  0
  7 10  2  0  0  0  0
  7 18  1  0  0  0  0
  8 21  1  0  0  0  0
  9 21  2  0  0  0  0
 10 22  1  0  0  0  0
 11 12  2  0  0  0  0
 11 23  1  0  0  0  0
 12 24  1  0  0  0  0
 13 20  1  0  0  0  0
 13 22  2  0  0  0  0
 14 24  2  0  0  0  0
 14 25  1  0  0  0  0
 15 26  1  0  0  0  0
 16 26  1  0  0  0  0
 16 27  2  0  0  0  0
 16 28  1  0  0  0  0
 17 19  2  0  0  0  0
 17 33  1  0  0  0  0
 18 20  2  0  0  0  0
 18 34  1  0  0  0  0
 19 46  1  0  0  0  0
 20 35  1  0  0  0  0
 21 80  1  0  0  0  0
 22 81  1  0  0  0  0
 23 25  2  0  0  0  0
 23 80  1  0  0  0  0
 24 82  1  0  0  0  0
 25 83  1  0  0  0  0
 26 63  2  0  0  0  0
 27 64  1  0  0  0  0
 27 68  1  0  0  0  0
 28 69  1  0  0  0  0
 28 75  2  0  0  0  0
 29 47  1  0  0  0  0
 29 70  1  0  0  0  0
 29 76  2  0  0  0  0
 30 60  1  0  0  0  0
 30 65  1  0  0  0  0
 30 77  2  0  0  0  0
 31 61  1  0  0  0  0
 31 71  1  0  0  0  0
 31 78  2  0  0  0  0
 32 66  1  0  0  0  0
 32 72  1  0  0  0  0
 32 79  2  0  0  0  0
 33 36  1  0  0  0  0
 34 47  1  0  0  0  0
 35 65  1  0  0  0  0
 36 39  1  0  0  0  0
 37 40  1  0  0  0  0
 37 43  1  0  0  0  0
 38 41  1  0  0  0  0
 38 42  1  0  0  0  0
 39 46  1  0  0  0  0
 40 48  1  0  0  0  0
 41 49  1  0  0  0  0
 42 66  1  0  0  0  0
 43 67  1  0  0  0  0
 44 48  1  0  0  0  0
 44 67  1  0  0  0  0
 45 49  1  0  0  0  0
 45 66  1  0  0  0  0
 46 70  1  0  0  0  0
 47 65  1  0  0  0  0
 48 55  1  0  0  0  0
 49 64  1  0  0  0  0
 50 61  1  0  0  0  0
 51 62  1  0  0  0  0
 52 62  1  0  0  0  0
 53 62  1  0  0  0  0
 54 73  1  0  0  0  0
 55 81  1  0  0  0  0
 56 58  1  0  0  0  0
 56 67  1  0  0  0  0
 57 59  1  0  0  0  0
 57 72  1  0  0  0  0
 58 74  1  0  0  0  0
 59 74  1  0  0  0  0
 60 62  1  0  0  0  0
 60 71  1  0  0  0  0
 61 73  1  0  0  0  0
 63 64  1  0  0  0  0
M  CHG  2  73   1  74   1
M  ISO  4  32 100  55 101  72 100  81 101
M  END
> <Batch ID>
0134

> <Smiles>
CNC(C)C(=O)NC(C(=O)N1Cc2cc([101O:1][101CH2:1]C3CCCN(CCNCC[100NH:0][100C:0](=O)N4CCCC(n5nc(-c6ccc(Oc7ccc(F)cc7F)cc6)c(C(N)=O)c5N)C4)C3)ccc2CC1C(=O)NC1CCCc2ccccc21)C(C)(C)C

> <Shape>
0.197

> <Color>
0.193

> <Negative vol penalty>
0.000

$$$$

  -OEChem-04052320573D

 83 91  0     1  0  0  0  0  0999 V2000
  -29.4193  -30.7888   13.9110 C   0  0  0  0  0  0  0  0  0  0  0  0
  -29.3466  -29.7369   14.8185 C   0  0  0  0  0  0  0  0  0  0  0  0
  -22.8956  -10.1498   19.9581 C   0  0  0  0  0  0  0  0  0  0  0  0
  -23.8241   -9.8568   22.1693 C   0  0  0  0  0  0  0  0  0  0  0  0
  -28.8784  -32.0309   14.2405 C   0  0  0  0  0  0  0  0  0  0  0  0
  -28.7339  -29.9269   16.0567 C   0  0  0  0  0  0  0  0  0  0  0  0
  -25.6347  -26.1183   17.2953 C   0  0  0  0  0  0  0  0  0  0  0  0
  -29.2887  -21.1430   19.2321 C   0  0  0  0  0  0  0  0  0  0  0  0
  -29.8058  -20.0271   19.8900 C   0  0  0  0  0  0  0  0  0  0  0  0
  -22.1023   -9.0172   20.1412 C   0  0  0  0  0  0  0  0  0  0  0  0
  -23.0308   -8.7242   22.3523 C   0  0  0  0  0  0  0  0  0  0  0  0
  -26.2232  -24.9485   17.7741 C   0  0  0  0  0  0  0  0  0  0  0  0
  -23.0721   -5.4758   21.4160 C   0  0  0  0  0  0  0  0  0  0  0  0
  -23.6748   -4.3445   21.9660 C   0  0  0  0  0  0  0  0  0  0  0  0
  -25.7015  -25.6175   20.0323 C   0  0  0  0  0  0  0  0  0  0  0  0
  -27.1003  -20.6618   20.1357 C   0  0  0  0  0  0  0  0  0  0  0  0
  -22.1200   -4.4147   23.8140 C   0  0  0  0  0  0  0  0  0  0  0  0
  -23.7565  -10.5696   20.9722 C   0  0  0  0  0  0  0  0  0  0  0  0
  -24.2447  -13.0702   21.0994 C   0  0  0  0  0  0  0  0  0  0  0  0
  -28.2502  -32.2335   15.4794 C   0  0  0  0  0  0  0  0  0  0  0  0
  -25.0840  -27.0532   18.1836 C   0  0  0  0  0  0  0  0  0  0  0  0
  -28.1853  -31.1732   16.4036 C   0  0  0  0  0  0  0  0  0  0  0  0
  -25.1044  -26.7971   19.5621 C   0  0  0  0  0  0  0  0  0  0  0  0
  -27.9359  -21.4604   19.3549 C   0  0  0  0  0  0  0  0  0  0  0  0
  -28.9702  -19.2285   20.6708 C   0  0  0  0  0  0  0  0  0  0  0  0
  -27.6174  -19.5458   20.7936 C   0  0  0  0  0  0  0  0  0  0  0  0
  -22.1699   -8.3044   21.3383 C   0  0  0  0  0  0  0  0  0  0  0  0
  -26.2592  -24.6994   19.1429 C   0  0  0  0  0  0  0  0  0  0  0  0
  -21.9935   -6.0767   22.0651 C   0  0  0  0  0  0  0  0  0  0  0  0
  -23.1987   -3.8139   23.1650 C   0  0  0  0  0  0  0  0  0  0  0  0
  -21.5174   -5.5461   23.2640 C   0  0  0  0  0  0  0  0  0  0  0  0
  -24.5767  -11.7392   20.7835 C   0  0  0  0  0  0  0  0  0  0  0  0
  -25.3510  -13.7965   20.7320 C   0  0  0  0  0  0  0  0  0  0  0  0
  -23.0437  -13.6025   21.6738 C   0  0  0  0  0  0  0  0  0  0  0  0
  -25.6845  -30.0914   18.8992 C   0  0  0  0  0  0  0  0  0  0  0  0
  -23.0139  -29.7853   20.7150 C   0  0  0  0  0  0  0  0  0  0  0  0
  -20.8864  -27.7285   22.4150 C   0  0  0  0  0  0  0  0  0  0  0  0
  -30.8861  -14.4932   20.5831 C   0  0  0  0  0  0  0  0  0  0  0  0
  -27.7221  -33.6070   15.8095 C   0  0  0  0  0  0  0  0  0  0  0  0
  -24.4291  -28.2974   17.6496 C   0  0  0  0  0  0  0  0  0  0  0  0
  -24.5090  -27.7592   20.5562 C   0  0  0  0  0  0  0  0  0  0  0  0
  -26.7580  -33.6207   16.9930 C   0  0  0  0  0  0  0  0  0  0  0  0
  -29.4270  -12.4580   18.0522 C   0  0  0  0  0  0  0  0  0  0  0  0
  -27.3210  -32.8010   18.1497 C   0  0  0  0  0  0  0  0  0  0  0  0
  -28.0105  -12.1945   18.5662 C   0  0  0  0  0  0  0  0  0  0  0  0
  -30.4434  -12.4923   19.1914 C   0  0  0  0  0  0  0  0  0  0  0  0
  -28.7000  -13.1626   20.7992 C   0  0  0  0  0  0  0  0  0  0  0  0
  -27.5067  -31.3332   17.7467 C   0  0  1  0  0  0  0  0  0  0  0  0
  -24.3573  -29.4229   18.6770 C   0  0  1  0  0  0  0  0  0  0  0  0
  -27.6314  -13.1745   19.6927 C   0  0  2  0  0  0  0  0  0  0  0  0
  -18.8153  -27.7729   23.8312 C   0  0  0  0  0  0  0  0  0  0  0  0
  -24.6534  -30.8089   23.0761 C   0  0  0  0  0  0  0  0  0  0  0  0
  -22.8664  -29.9445   24.6018 C   0  0  0  0  0  0  0  0  0  0  0  0
  -22.3314  -31.7279   22.9418 C   0  0  0  0  0  0  0  0  0  0  0  0
  -25.6107  -19.2825   22.2529 C   0  0  0  0  0  0  0  0  0  0  0  0
  -19.3918  -26.0532   20.4867 C   0  0  0  0  0  0  0  0  0  0  0  0
  -27.3798  -22.6611   18.6474 C   0  0  0  0  0  0  0  0  0  1  0  0
  -30.8948  -17.7432   21.2324 C   0  0  0  0  0  0  0  0  0  0  0  0
  -31.1780  -16.4836   22.0366 C   0  0  0  0  0  0  0  0  0  0  0  0
  -22.7303  -29.3647   22.1368 C   0  0  1  0  0  0  0  0  0  0  0  0
  -19.3715  -27.6308   22.4230 C   0  0  2  0  0  0  0  0  0  0  0  0
  -23.1584  -30.4441   23.1708 C   0  0  0  0  0  0  0  0  0  0  0  0
  -25.7982  -11.6238   20.2558 N   0  0  0  0  0  0  0  0  0  0  0  0
  -26.2435  -12.8916   20.2372 N   0  0  0  0  0  0  0  0  0  0  0  0
  -23.8856  -28.9646   19.9853 N   0  0  0  0  0  0  0  0  0  0  0  0
  -30.0258  -13.4421   20.2255 N   0  0  0  0  0  0  0  0  0  0  0  0
  -25.6377  -15.1145   20.7870 N   0  0  0  0  0  0  0  0  0  0  0  0
  -22.0053  -12.7164   21.9916 N   0  0  0  0  0  0  0  0  0  0  0  0
  -26.7540  -18.7512   21.5802 N   0  0  0  0  0  0  0  0  0  0  0  0
  -29.5156  -18.1040   21.3294 N   0  0  0  0  0  0  0  0  0  0  0  0
  -26.2356  -30.6414   17.7576 N   0  0  0  0  0  0  0  0  0  0  0  0
  -21.3137  -29.0193   22.1854 N   0  0  0  0  0  0  0  0  0  0  0  0
  -30.4106  -15.3516   21.5669 N   0  0  0  0  0  0  0  0  0  0  0  0
  -18.9344  -26.3155   21.8755 N   0  3  0  0  0  0  0  0  0  0  0  0
  -22.8893  -14.8296   21.8833 O   0  0  0  0  0  0  0  0  0  0  0  0
  -26.1717  -30.1084   20.0235 O   0  0  0  0  0  0  0  0  0  0  0  0
  -22.4761  -30.8006   20.2660 O   0  0  0  0  0  0  0  0  0  0  0  0
  -21.6175  -26.7577   22.5980 O   0  0  0  0  0  0  0  0  0  0  0  0
  -31.9936  -14.6579   20.0603 O   0  0  0  0  0  0  0  0  0  0  0  0
  -21.3958   -7.1993   21.5173 O   0  0  0  0  0  0  0  0  0  0  0  0
  -26.8335  -23.5587   19.6129 O   0  0  0  0  0  0  0  0  0  1  0  0
  -23.7765   -2.7266   23.6923 F   0  0  0  0  0  0  0  0  0  0  0  0
  -20.4808   -6.1183   23.8915 F   0  0  0  0  0  0  0  0  0  0  0  0
  1  2  1  0  0  0  0
  1  5  2  0  0  0  0
  2  6  2  0  0  0  0
  3 10  2  0  0  0  0
  3 18  1  0  0  0  0
  4 11  1  0  0  0  0
  4 18  2  0  0  0  0
  5 20  1  0  0  0  0
  6 22  1  0  0  0  0
  7 12  2  0  0  0  0
  7 21  1  0  0  0  0
  8  9  2  0  0  0  0
  8 24  1  0  0  0  0
  9 25  1  0  0  0  0
 10 27  1  0  0  0  0
 11 27  2  0  0  0  0
 12 28  1  0  0  0  0
 13 14  2  0  0  0  0
 13 29  1  0  0  0  0
 14 30  1  0  0  0  0
 15 23  1  0  0  0  0
 15 28  2  0  0  0  0
 16 24  2  0  0  0  0
 16 26  1  0  0  0  0
 17 30  2  0  0  0  0
 17 31  1  0  0  0  0
 18 32  1  0  0  0  0
 19 32  1  0  0  0  0
 19 33  2  0  0  0  0
 19 34  1  0  0  0  0
 20 22  2  0  0  0  0
 20 39  1  0  0  0  0
 21 23  2  0  0  0  0
 21 40  1  0  0  0  0
 22 48  1  0  0  0  0
 23 41  1  0  0  0  0
 24 57  1  0  0  0  0
 25 26  2  0  0  0  0
 25 70  1  0  0  0  0
 26 69  1  0  0  0  0
 27 80  1  0  0  0  0
 28 81  1  0  0  0  0
 29 31  2  0  0  0  0
 29 80  1  0  0  0  0
 30 82  1  0  0  0  0
 31 83  1  0  0  0  0
 32 63  2  0  0  0  0
 33 64  1  0  0  0  0
 33 67  1  0  0  0  0
 34 68  1  0  0  0  0
 34 75  2  0  0  0  0
 35 49  1  0  0  0  0
 35 71  1  0  0  0  0
 35 76  2  0  0  0  0
 36 60  1  0  0  0  0
 36 65  1  0  0  0  0
 36 77  2  0  0  0  0
 37 61  1  0  0  0  0
 37 72  1  0  0  0  0
 37 78  2  0  0  0  0
 38 66  1  0  0  0  0
 38 73  1  0  0  0  0
 38 79  2  0  0  0  0
 39 42  1  0  0  0  0
 40 49  1  0  0  0  0
 41 65  1  0  0  0  0
 42 44  1  0  0  0  0
 43 45  1  0  0  0  0
 43 46  1  0  0  0  0
 44 48  1  0  0  0  0
 45 50  1  0  0  0  0
 46 66  1  0  0  0  0
 47 50  1  0  0  0  0
 47 66  1  0  0  0  0
 48 71  1  0  0  0  0
 49 65  1  0  0  0  0
 50 64  1  0  0  0  0
 51 61  1  0  0  0  0
 52 62  1  0  0  0  0
 53 62  1  0  0  0  0
 54 62  1  0  0  0  0
 55 69  1  0  0  0  0
 56 74  1  0  0  0  0
 57 81  1  0  0  0  0
 58 59  1  0  0  0  0
 58 70  1  0  0  0  0
 59 73  1  0  0  0  0
 60 62  1  0  0  0  0
 60 72  1  0  0  0  0
 61 74  1  0  0  0  0
 63 64  1  0  0  0  0
M  CHG  1  74   1
M  ISO  4  38 100  57 101  73 100  81 101
M  END
> <Batch ID>
0134

> <Smiles>
CNc1cc([101CH2:1][101O:1]c2ccc3c(c2)CN(C(=O)C(NC(=O)C(C)NC)C(C)(C)C)C(C(=O)NC2CCCc4ccccc42)C3)ccc1NCC[100NH:0][100C:0](=O)N1CCCC(n2nc(-c3ccc(Oc4ccc(F)cc4F)cc3)c(C(N)=O)c2N)C1

> <Shape>
0.350

> <Color>
0.202

> <Negative vol penalty>
0.000

$$$$

  -OEChem-04052320573D

 86 94  0     1  0  0  0  0  0999 V2000
  -32.3643  -13.9176   21.1426 C   0  0  0  0  0  0  0  0  0  0  0  0
  -31.6022  -15.0547   21.3910 C   0  0  0  0  0  0  0  0  0  0  0  0
  -29.1721  -25.9913   20.3327 C   0  0  0  0  0  0  0  0  0  0  0  0
  -27.2313  -24.5561   20.2317 C   0  0  0  0  0  0  0  0  0  0  0  0
  -31.7956  -12.8292   20.4824 C   0  0  0  0  0  0  0  0  0  0  0  0
  -30.2712  -15.1044   20.9783 C   0  0  0  0  0  0  0  0  0  0  0  0
  -25.6308  -17.8933   23.8410 C   0  0  0  0  0  0  0  0  0  0  0  0
  -21.6086  -26.8539   24.8968 C   0  0  0  0  0  0  0  0  0  0  0  0
  -29.9472  -24.9131   20.7596 C   0  0  0  0  0  0  0  0  0  0  0  0
  -28.0064  -23.4778   20.6586 C   0  0  0  0  0  0  0  0  0  0  0  0
  -25.0172  -19.1302   23.6479 C   0  0  0  0  0  0  0  0  0  0  0  0
  -22.2386  -25.6272   25.1062 C   0  0  0  0  0  0  0  0  0  0  0  0
  -29.5517  -20.2659   21.3753 C   0  0  0  0  0  0  0  0  0  0  0  0
  -29.3973  -19.0509   20.7081 C   0  0  0  0  0  0  0  0  0  0  0  0
  -23.3143  -18.0695   22.3084 C   0  0  0  0  0  0  0  0  0  0  0  0
  -20.5244  -24.5254   23.8081 C   0  0  0  0  0  0  0  0  0  0  0  0
  -30.0733  -20.1007   18.6398 C   0  0  0  0  0  0  0  0  0  0  0  0
  -27.8141  -25.8128   20.0688 C   0  0  0  0  0  0  0  0  0  0  0  0
  -26.7802  -27.3340   18.3011 C   0  0  0  0  0  0  0  0  0  0  0  0
  -30.4542  -12.8618   20.0700 C   0  0  0  0  0  0  0  0  0  0  0  0
  -25.0960  -16.7349   23.2592 C   0  0  0  0  0  0  0  0  0  0  0  0
  -29.6844  -14.0159   20.3107 C   0  0  0  0  0  0  0  0  0  0  0  0
  -23.9216  -16.8187   22.4977 C   0  0  0  0  0  0  0  0  0  0  0  0
  -20.4365  -26.9164   24.1431 C   0  0  0  0  0  0  0  0  0  0  0  0
  -19.8945  -25.7522   23.5988 C   0  0  0  0  0  0  0  0  0  0  0  0
  -29.3644  -23.6564   20.9226 C   0  0  0  0  0  0  0  0  0  0  0  0
  -23.8604  -19.2189   22.8792 C   0  0  0  0  0  0  0  0  0  0  0  0
  -21.6965  -24.4629   24.5618 C   0  0  0  0  0  0  0  0  0  0  0  0
  -29.9669  -21.3985   20.6748 C   0  0  0  0  0  0  0  0  0  0  0  0
  -29.6581  -18.9682   19.3403 C   0  0  0  0  0  0  0  0  0  0  0  0
  -30.2277  -21.3159   19.3071 C   0  0  0  0  0  0  0  0  0  0  0  0
  -27.0128  -26.9264   19.6283 C   0  0  0  0  0  0  0  0  0  0  0  0
  -25.9619  -28.4310   18.4172 C   0  0  0  0  0  0  0  0  0  0  0  0
  -27.2608  -26.7712   17.0731 C   0  0  0  0  0  0  0  0  0  0  0  0
  -26.1319  -14.6069   21.1373 C   0  0  0  0  0  0  0  0  0  0  0  0
  -23.3743  -13.0803   21.9037 C   0  0  0  0  0  0  0  0  0  0  0  0
  -20.1925  -13.2828   23.1211 C   0  0  0  0  0  0  0  0  0  0  0  0
  -22.1160  -30.2200   22.6433 C   0  0  0  0  0  0  0  0  0  0  0  0
  -29.8970  -11.6793   19.3178 C   0  0  0  0  0  0  0  0  0  0  0  0
  -25.7549  -15.4042   23.4991 C   0  0  0  0  0  0  0  0  0  0  0  0
  -23.2960  -15.6018   21.8683 C   0  0  0  0  0  0  0  0  0  0  0  0
  -28.3722  -11.6667   19.2458 C   0  0  0  0  0  0  0  0  0  0  0  0
  -24.9197  -32.0263   21.3968 C   0  0  0  0  0  0  0  0  0  0  0  0
  -27.8448  -13.0439   18.8559 C   0  0  0  0  0  0  0  0  0  0  0  0
  -25.7530  -30.9609   20.6825 C   0  0  0  0  0  0  0  0  0  0  0  0
  -24.2533  -31.4723   22.6542 C   0  0  0  0  0  0  0  0  0  0  0  0
  -24.2832  -29.1882   21.7293 C   0  0  0  0  0  0  0  0  0  0  0  0
  -28.2301  -14.0983   19.9005 C   0  0  1  0  0  0  0  0  0  0  0  0
  -25.4120  -14.3670   22.4342 C   0  0  1  0  0  0  0  0  0  0  0  0
  -24.9297  -29.6846   20.4247 C   0  0  2  0  0  0  0  0  0  0  0  0
  -18.1700  -11.8737   23.5917 C   0  0  0  0  0  0  0  0  0  0  0  0
  -17.0803  -25.4097   24.7690 C   0  0  0  0  0  0  0  0  0  0  0  0
  -16.2638  -25.0115   22.4370 C   0  0  0  0  0  0  0  0  0  0  0  0
  -22.7262  -13.0193   18.9227 C   0  0  0  0  0  0  0  0  0  0  0  0
  -20.3526  -12.4930   19.5205 C   0  0  0  0  0  0  0  0  0  0  0  0
  -22.1761  -10.9127   20.1531 C   0  0  0  0  0  0  0  0  0  0  0  0
  -20.2864  -13.9076   26.0124 C   0  0  0  0  0  0  0  0  0  0  0  0
  -19.7802  -28.2412   23.9326 C   0  0  0  0  0  0  0  0  0  0  0  0
  -18.6400  -25.7945   22.7895 C   0  0  0  0  0  0  0  0  0  0  0  0
  -20.0513  -28.8461   22.5508 C   0  0  0  0  0  0  0  0  0  0  0  0
  -23.3961  -21.3903   23.7307 C   0  0  0  0  0  0  0  0  0  1  0  0
  -22.1676  -22.2792   23.7461 C   0  0  0  0  0  0  0  0  0  0  0  0
  -21.9566  -13.1093   21.3855 C   0  0  1  0  0  0  0  0  0  0  0  0
  -19.4563  -12.4542   24.1584 C   0  0  2  0  0  0  0  0  0  0  0  0
  -17.4793  -24.9478   23.3652 C   0  0  0  0  0  0  0  0  0  0  0  0
  -21.8155  -12.4070   20.0056 C   0  0  0  0  0  0  0  0  0  0  0  0
  -26.3925  -27.7014   20.5220 N   0  0  0  0  0  0  0  0  0  0  0  0
  -25.7622  -28.6071   19.7548 N   0  0  0  0  0  0  0  0  0  0  0  0
  -23.9810  -14.3245   22.1267 N   0  0  0  0  0  0  0  0  0  0  0  0
  -23.4871  -30.2638   22.3409 N   0  0  0  0  0  0  0  0  0  0  0  0
  -25.4011  -29.2525   17.5046 N   0  0  0  0  0  0  0  0  0  0  0  0
  -28.0918  -25.6443   17.1346 N   0  0  0  0  0  0  0  0  0  0  0  0
  -27.3702  -13.9985   21.0603 N   0  0  0  0  0  0  0  0  0  0  0  0
  -21.1258  -12.5329   22.4371 N   0  0  0  0  0  0  0  0  0  0  0  0
  -21.4635  -29.0400   22.3079 N   0  0  0  0  0  0  0  0  0  0  0  0
  -19.1123  -13.2923   25.3417 N   0  3  0  0  0  0  0  0  0  0  0  0
  -26.9754  -27.2633   15.9550 O   0  0  0  0  0  0  0  0  0  0  0  0
  -25.6024  -15.2920   20.2701 O   0  0  0  0  0  0  0  0  0  0  0  0
  -23.9206  -11.9937   22.1099 O   0  0  0  0  0  0  0  0  0  0  0  0
  -19.9601  -14.4750   22.9336 O   0  0  0  0  0  0  0  0  0  0  0  0
  -21.5167  -31.1647   23.1680 O   0  0  0  0  0  0  0  0  0  0  0  0
  -30.1205  -22.6040   21.3389 O   0  0  0  0  0  0  0  0  0  0  0  0
  -23.2598  -20.4251   22.6886 O   0  0  0  0  0  0  0  0  0  1  0  0
  -22.3149  -23.2578   24.7678 O   0  0  0  0  0  0  0  0  0  0  0  0
  -29.5113  -17.8009   18.7000 F   0  0  0  0  0  0  0  0  0  0  0  0
  -30.6280  -22.4002   18.6290 F   0  0  0  0  0  0  0  0  0  0  0  0
  1  2  1  0  0  0  0
  1  5  2  0  0  0  0
  2  6  2  0  0  0  0
  3  9  2  0  0  0  0
  3 18  1  0  0  0  0
  4 10  1  0  0  0  0
  4 18  2  0  0  0  0
  5 20  1  0  0  0  0
  6 22  1  0  0  0  0
  7 11  2  0  0  0  0
  7 21  1  0  0  0  0
  8 12  2  0  0  0  0
  8 24  1  0  0  0  0
  9 26  1  0  0  0  0
 10 26  2  0  0  0  0
 11 27  1  0  0  0  0
 12 28  1  0  0  0  0
 13 14  2  0  0  0  0
 13 29  1  0  0  0  0
 14 30  1  0  0  0  0
 15 23  1  0  0  0  0
 15 27  2  0  0  0  0
 16 25  1  0  0  0  0
 16 28  2  0  0  0  0
 17 30  2  0  0  0  0
 17 31  1  0  0  0  0
 18 32  1  0  0  0  0
 19 32  1  0  0  0  0
 19 33  2  0  0  0  0
 19 34  1  0  0  0  0
 20 22  2  0  0  0  0
 20 39  1  0  0  0  0
 21 23  2  0  0  0  0
 21 40  1  0  0  0  0
 22 48  1  0  0  0  0
 23 41  1  0  0  0  0
 24 25  2  0  0  0  0
 24 58  1  0  0  0  0
 25 59  1  0  0  0  0
 26 82  1  0  0  0  0
 27 83  1  0  0  0  0
 28 84  1  0  0  0  0
 29 31  2  0  0  0  0
 29 82  1  0  0  0  0
 30 85  1  0  0  0  0
 31 86  1  0  0  0  0
 32 67  2  0  0  0  0
 33 68  1  0  0  0  0
 33 71  1  0  0  0  0
 34 72  1  0  0  0  0
 34 77  2  0  0  0  0
 35 49  1  0  0  0  0
 35 73  1  0  0  0  0
 35 78  2  0  0  0  0
 36 63  1  0  0  0  0
 36 69  1  0  0  0  0
 36 79  2  0  0  0  0
 37 64  1  0  0  0  0
 37 74  1  0  0  0  0
 37 80  2  0  0  0  0
 38 70  1  0  0  0  0
 38 75  1  0  0  0  0
 38 81  2  0  0  0  0
 39 42  1  0  0  0  0
 40 49  1  0  0  0  0
 41 69  1  0  0  0  0
 42 44  1  0  0  0  0
 43 45  1  0  0  0  0
 43 46  1  0  0  0  0
 44 48  1  0  0  0  0
 45 50  1  0  0  0  0
 46 70  1  0  0  0  0
 47 50  1  0  0  0  0
 47 70  1  0  0  0  0
 48 73  1  0  0  0  0
 49 69  1  0  0  0  0
 50 68  1  0  0  0  0
 51 64  1  0  0  0  0
 52 65  1  0  0  0  0
 53 65  1  0  0  0  0
 54 66  1  0  0  0  0
 55 66  1  0  0  0  0
 56 66  1  0  0  0  0
 57 76  1  0  0  0  0
 58 60  1  0  0  0  0
 59 65  1  0  0  0  0
 60 75  1  0  0  0  0
 61 62  1  0  0  0  0
 61 83  1  0  0  0  0
 62 84  1  0  0  0  0
 63 66  1  0  0  0  0
 63 74  1  0  0  0  0
 64 76  1  0  0  0  0
 67 68  1  0  0  0  0
M  CHG  1  76   1
M  ISO  4  38 100  61 101  75 100  83 101
M  END
> <Batch ID>
0134

> <Smiles>
CNC(C)C(=O)NC(C(=O)N1Cc2cc([101O:1][101CH2:1]COc3ccc(CC[100NH:0][100C:0](=O)N4CCCC(n5nc(-c6ccc(Oc7ccc(F)cc7F)cc6)c(C(N)=O)c5N)C4)c(CC(C)C)c3)ccc2CC1C(=O)NC1CCCc2ccccc21)C(C)(C)C

> <Shape>
0.262

> <Color>
0.080

> <Negative vol penalty>
0.000

$$$$

  -OEChem-04052320573D

 85 93  0     1  0  0  0  0  0999 V2000
  -16.6273  -25.3252   23.1832 C   0  0  0  0  0  0  0  0  0  0  0  0
  -17.4345  -24.8595   22.1502 C   0  0  0  0  0  0  0  0  0  0  0  0
  -23.9587  -14.8870   23.4062 C   0  0  0  0  0  0  0  0  0  0  0  0
  -23.1537  -15.7250   21.2880 C   0  0  0  0  0  0  0  0  0  0  0  0
  -16.8807  -26.5704   23.7571 C   0  0  0  0  0  0  0  0  0  0  0  0
  -18.4949  -25.6392   21.6898 C   0  0  0  0  0  0  0  0  0  0  0  0
  -22.7378  -22.9543   21.0311 C   0  0  0  0  0  0  0  0  0  0  0  0
  -27.6526  -18.0187   14.6159 C   0  0  0  0  0  0  0  0  0  0  0  0
  -23.2183  -15.8627   24.0736 C   0  0  0  0  0  0  0  0  0  0  0  0
  -22.4133  -16.7008   21.9553 C   0  0  0  0  0  0  0  0  0  0  0  0
  -22.8236  -22.1712   19.8808 C   0  0  0  0  0  0  0  0  0  0  0  0
  -26.6823  -18.9122   15.0696 C   0  0  0  0  0  0  0  0  0  0  0  0
  -19.9996  -16.3598   24.9823 C   0  0  0  0  0  0  0  0  0  0  0  0
  -19.2643  -15.9643   26.0996 C   0  0  0  0  0  0  0  0  0  0  0  0
  -24.1761  -23.8710   18.8318 C   0  0  0  0  0  0  0  0  0  0  0  0
  -28.6542  -17.9899   16.8143 C   0  0  0  0  0  0  0  0  0  0  0  0
  -20.5180  -17.5083   27.4713 C   0  0  0  0  0  0  0  0  0  0  0  0
  -23.9264  -14.8182   22.0133 C   0  0  0  0  0  0  0  0  0  0  0  0
  -24.2687  -12.5151   20.9711 C   0  0  0  0  0  0  0  0  0  0  0  0
  -17.9506  -27.3615   23.3100 C   0  0  0  0  0  0  0  0  0  0  0  0
  -23.3624  -24.2085   21.0865 C   0  0  0  0  0  0  0  0  0  0  0  0
  -18.7620  -26.8967   22.2573 C   0  0  0  0  0  0  0  0  0  0  0  0
  -24.0989  -24.6669   19.9848 C   0  0  0  0  0  0  0  0  0  0  0  0
  -28.6385  -17.5575   15.4882 C   0  0  0  0  0  0  0  0  0  0  0  0
  -27.6840  -18.8835   17.2680 C   0  0  0  0  0  0  0  0  0  0  0  0
  -22.4456  -16.7696   23.3482 C   0  0  0  0  0  0  0  0  0  0  0  0
  -23.5404  -22.6307   18.7799 C   0  0  0  0  0  0  0  0  0  0  0  0
  -26.6980  -19.3447   16.3956 C   0  0  0  0  0  0  0  0  0  0  0  0
  -20.9942  -17.3295   25.1095 C   0  0  0  0  0  0  0  0  0  0  0  0
  -19.5234  -16.5385   27.3441 C   0  0  0  0  0  0  0  0  0  0  0  0
  -21.2534  -17.9038   26.3539 C   0  0  0  0  0  0  0  0  0  0  0  0
  -24.6914  -13.8108   21.3233 C   0  0  0  0  0  0  0  0  0  0  0  0
  -25.3539  -11.9600   20.3382 C   0  0  0  0  0  0  0  0  0  0  0  0
  -23.0077  -11.8708   21.1959 C   0  0  0  0  0  0  0  0  0  0  0  0
  -22.3568  -27.2008   21.4590 C   0  0  0  0  0  0  0  0  0  0  0  0
  -25.5347  -27.8441   21.5573 C   0  0  0  0  0  0  0  0  0  0  0  0
  -28.7078  -26.9056   20.7221 C   0  0  0  0  0  0  0  0  0  0  0  0
  -30.0037  -14.3187   17.3942 C   0  0  0  0  0  0  0  0  0  0  0  0
  -18.1564  -28.7213   23.9292 C   0  0  0  0  0  0  0  0  0  0  0  0
  -23.2827  -25.0294   22.3443 C   0  0  0  0  0  0  0  0  0  0  0  0
  -24.8047  -25.9973   20.0010 C   0  0  0  0  0  0  0  0  0  0  0  0
  -19.5288  -29.3223   23.6369 C   0  0  0  0  0  0  0  0  0  0  0  0
  -30.1327  -12.1651   20.2265 C   0  0  0  0  0  0  0  0  0  0  0  0
  -19.8703  -29.1786   22.1572 C   0  0  0  0  0  0  0  0  0  0  0  0
  -28.7146  -12.2257   20.7970 C   0  0  0  0  0  0  0  0  0  0  0  0
  -30.5742  -13.5157   19.6671 C   0  0  0  0  0  0  0  0  0  0  0  0
  -28.2347  -14.1688   19.2501 C   0  0  0  0  0  0  0  0  0  0  0  0
  -19.9369  -27.7025   21.7471 C   0  0  1  0  0  0  0  0  0  0  0  0
  -23.5282  -26.5158   22.1043 C   0  0  1  0  0  0  0  0  0  0  0  0
  -27.7241  -12.8162   19.7755 C   0  0  2  0  0  0  0  0  0  0  0  0
  -29.0025  -20.1065   19.0341 C   0  0  0  0  0  0  0  0  0  0  0  0
  -27.5220  -18.1713   19.6806 C   0  0  0  0  0  0  0  0  0  0  0  0
  -31.0961  -27.6535   20.9063 C   0  0  0  0  0  0  0  0  0  0  0  0
  -25.0611  -29.8930   19.3465 C   0  0  0  0  0  0  0  0  0  0  0  0
  -27.5287  -29.9036   18.9235 C   0  0  0  0  0  0  0  0  0  0  0  0
  -26.6413  -30.6364   21.1367 C   0  0  0  0  0  0  0  0  0  0  0  0
  -29.4617  -24.5032   22.2774 C   0  0  0  0  0  0  0  0  0  0  0  0
  -29.6746  -16.6011   15.0029 C   0  0  0  0  0  0  0  0  0  0  0  0
  -29.2758  -15.1292   15.1643 C   0  0  0  0  0  0  0  0  0  0  0  0
  -23.5759  -20.4527   17.8255 C   0  0  0  0  0  0  0  0  0  1  0  0
  -24.3861  -19.7935   16.7261 C   0  0  0  0  0  0  0  0  0  0  0  0
  -27.7150  -19.3350   18.6910 C   0  0  0  0  0  0  0  0  0  0  0  0
  -26.5893  -28.1822   20.5313 C   0  0  1  0  0  0  0  0  0  0  0  0
  -29.9846  -26.8316   21.5400 C   0  0  2  0  0  0  0  0  0  0  0  0
  -26.4403  -29.6296   19.9832 C   0  0  0  0  0  0  0  0  0  0  0  0
  -25.9474  -14.0639   20.9456 N   0  0  0  0  0  0  0  0  0  0  0  0
  -26.3231  -12.9195   20.3496 N   0  0  0  0  0  0  0  0  0  0  0  0
  -24.6920  -26.7660   21.2515 N   0  0  0  0  0  0  0  0  0  0  0  0
  -29.5925  -14.0196   18.7036 N   0  0  0  0  0  0  0  0  0  0  0  0
  -25.5642  -10.7496   19.7786 N   0  0  0  0  0  0  0  0  0  0  0  0
  -22.0019  -12.5848   21.8615 N   0  0  0  0  0  0  0  0  0  0  0  0
  -21.1839  -27.1123   22.1842 N   0  0  0  0  0  0  0  0  0  0  0  0
  -27.8758  -27.9124   21.1641 N   0  0  0  0  0  0  0  0  0  0  0  0
  -29.0092  -14.7850   16.5431 N   0  0  0  0  0  0  0  0  0  0  0  0
  -30.4482  -25.4196   21.6498 N   0  3  0  0  0  0  0  0  0  0  0  0
  -22.7852  -10.6910   20.8324 O   0  0  0  0  0  0  0  0  0  0  0  0
  -22.5064  -27.7688   20.3835 O   0  0  0  0  0  0  0  0  0  0  0  0
  -25.4660  -28.5074   22.5950 O   0  0  0  0  0  0  0  0  0  0  0  0
  -28.4738  -26.1487   19.7826 O   0  0  0  0  0  0  0  0  0  0  0  0
  -31.1695  -14.1754   17.0104 O   0  0  0  0  0  0  0  0  0  0  0  0
  -21.7229  -17.7217   23.9991 O   0  0  0  0  0  0  0  0  0  0  0  0
  -23.6252  -21.8687   17.6556 O   0  0  0  0  0  0  0  0  0  1  0  0
  -25.7384  -20.2237   16.8238 O   0  0  0  0  0  0  0  0  0  0  0  0
  -18.8161  -16.1598   28.4167 F   0  0  0  0  0  0  0  0  0  0  0  0
  -22.2068  -18.8367   26.4821 F   0  0  0  0  0  0  0  0  0  0  0  0
  1  2  1  0  0  0  0
  1  5  2  0  0  0  0
  2  6  2  0  0  0  0
  3  9  2  0  0  0  0
  3 18  1  0  0  0  0
  4 10  1  0  0  0  0
  4 18  2  0  0  0  0
  5 20  1  0  0  0  0
  6 22  1  0  0  0  0
  7 11  2  0  0  0  0
  7 21  1  0  0  0  0
  8 12  2  0  0  0  0
  8 24  1  0  0  0  0
  9 26  1  0  0  0  0
 10 26  2  0  0  0  0
 11 27  1  0  0  0  0
 12 28  1  0  0  0  0
 13 14  2  0  0  0  0
 13 29  1  0  0  0  0
 14 30  1  0  0  0  0
 15 23  1  0  0  0  0
 15 27  2  0  0  0  0
 16 24  2  0  0  0  0
 16 25  1  0  0  0  0
 17 30  2  0  0  0  0
 17 31  1  0  0  0  0
 18 32  1  0  0  0  0
 19 32  1  0  0  0  0
 19 33  2  0  0  0  0
 19 34  1  0  0  0  0
 20 22  2  0  0  0  0
 20 39  1  0  0  0  0
 21 23  2  0  0  0  0
 21 40  1  0  0  0  0
 22 48  1  0  0  0  0
 23 41  1  0  0  0  0
 24 58  1  0  0  0  0
 25 28  2  0  0  0  0
 25 62  1  0  0  0  0
 26 81  1  0  0  0  0
 27 82  1  0  0  0  0
 28 83  1  0  0  0  0
 29 31  2  0  0  0  0
 29 81  1  0  0  0  0
 30 84  1  0  0  0  0
 31 85  1  0  0  0  0
 32 66  2  0  0  0  0
 33 67  1  0  0  0  0
 33 70  1  0  0  0  0
 34 71  1  0  0  0  0
 34 76  2  0  0  0  0
 35 49  1  0  0  0  0
 35 72  1  0  0  0  0
 35 77  2  0  0  0  0
 36 63  1  0  0  0  0
 36 68  1  0  0  0  0
 36 78  2  0  0  0  0
 37 64  1  0  0  0  0
 37 73  1  0  0  0  0
 37 79  2  0  0  0  0
 38 69  1  0  0  0  0
 38 74  1  0  0  0  0
 38 80  2  0  0  0  0
 39 42  1  0  0  0  0
 40 49  1  0  0  0  0
 41 68  1  0  0  0  0
 42 44  1  0  0  0  0
 43 45  1  0  0  0  0
 43 46  1  0  0  0  0
 44 48  1  0  0  0  0
 45 50  1  0  0  0  0
 46 69  1  0  0  0  0
 47 50  1  0  0  0  0
 47 69  1  0  0  0  0
 48 72  1  0  0  0  0
 49 68  1  0  0  0  0
 50 67  1  0  0  0  0
 51 62  1  0  0  0  0
 52 62  1  0  0  0  0
 53 64  1  0  0  0  0
 54 65  1  0  0  0  0
 55 65  1  0  0  0  0
 56 65  1  0  0  0  0
 57 75  1  0  0  0  0
 58 59  1  0  0  0  0
 59 74  1  0  0  0  0
 60 61  1  0  0  0  0
 60 82  1  0  0  0  0
 61 83  1  0  0  0  0
 63 65  1  0  0  0  0
 63 73  1  0  0  0  0
 64 75  1  0  0  0  0
 66 67  1  0  0  0  0
M  CHG  1  75   1
M  ISO  4  38 100  60 101  74 100  82 101
M  END
> <Batch ID>
0134

> <Smiles>
CNC(C)C(=O)NC(C(=O)N1Cc2cc([101O:1][101CH2:1]COc3ccc(CC[100NH:0][100C:0](=O)N4CCCC(n5nc(-c6ccc(Oc7ccc(F)cc7F)cc6)c(C(N)=O)c5N)C4)cc3C(C)C)ccc2CC1C(=O)NC1CCCc2ccccc21)C(C)(C)C

> <Shape>
0.212

> <Color>
0.083

> <Negative vol penalty>
0.000

$$$$

  -OEChem-04052320573D

 87 95  0     1  0  0  0  0  0999 V2000
  -18.8294  -24.8788   21.8243 C   0  0  0  0  0  0  0  0  0  0  0  0
  -20.0892  -25.1071   21.2800 C   0  0  0  0  0  0  0  0  0  0  0  0
  -25.0409  -12.0777   21.8139 C   0  0  0  0  0  0  0  0  0  0  0  0
  -26.3801  -12.8920   19.9753 C   0  0  0  0  0  0  0  0  0  0  0  0
  -18.0441  -25.9546   22.2367 C   0  0  0  0  0  0  0  0  0  0  0  0
  -20.5640  -26.4114   21.1468 C   0  0  0  0  0  0  0  0  0  0  0  0
  -25.3769  -26.8894   22.6477 C   0  0  0  0  0  0  0  0  0  0  0  0
  -26.0507  -23.1510   18.4929 C   0  0  0  0  0  0  0  0  0  0  0  0
  -25.9010  -22.3447   19.6211 C   0  0  0  0  0  0  0  0  0  0  0  0
  -24.5362  -11.0653   20.9979 C   0  0  0  0  0  0  0  0  0  0  0  0
  -25.8755  -11.8795   19.1593 C   0  0  0  0  0  0  0  0  0  0  0  0
  -26.3648  -26.4477   21.7687 C   0  0  0  0  0  0  0  0  0  0  0  0
  -25.5640   -8.0638   19.8285 C   0  0  0  0  0  0  0  0  0  0  0  0
  -25.5019   -6.7749   20.3581 C   0  0  0  0  0  0  0  0  0  0  0  0
  -26.7464  -28.7229   21.0637 C   0  0  0  0  0  0  0  0  0  0  0  0
  -27.7661  -21.6674   17.6602 C   0  0  0  0  0  0  0  0  0  0  0  0
  -23.1082   -6.7559   20.0314 C   0  0  0  0  0  0  0  0  0  0  0  0
  -25.9628  -12.9912   21.3026 C   0  0  0  0  0  0  0  0  0  0  0  0
  -27.6327  -13.9824   22.9568 C   0  0  0  0  0  0  0  0  0  0  0  0
  -18.5135  -27.2722   22.1173 C   0  0  0  0  0  0  0  0  0  0  0  0
  -25.0582  -28.2523   22.7335 C   0  0  0  0  0  0  0  0  0  0  0  0
  -19.7837  -27.5058   21.5568 C   0  0  0  0  0  0  0  0  0  0  0  0
  -25.7558  -29.1796   21.9464 C   0  0  0  0  0  0  0  0  0  0  0  0
  -26.9833  -22.8124   17.5124 C   0  0  0  0  0  0  0  0  0  0  0  0
  -27.6164  -20.8610   18.7884 C   0  0  0  0  0  0  0  0  0  0  0  0
  -26.6838  -21.1997   19.7689 C   0  0  0  0  0  0  0  0  0  0  0  0
  -24.9535  -10.9661   19.6707 C   0  0  0  0  0  0  0  0  0  0  0  0
  -27.0477  -27.3641   20.9744 C   0  0  0  0  0  0  0  0  0  0  0  0
  -24.3981   -8.6988   19.4005 C   0  0  0  0  0  0  0  0  0  0  0  0
  -24.2740   -6.1209   20.4595 C   0  0  0  0  0  0  0  0  0  0  0  0
  -23.1702   -8.0449   19.5019 C   0  0  0  0  0  0  0  0  0  0  0  0
  -26.4840  -14.0376   22.1448 C   0  0  0  0  0  0  0  0  0  0  0  0
  -27.6944  -15.2202   23.5489 C   0  0  0  0  0  0  0  0  0  0  0  0
  -28.5609  -12.9084   23.1579 C   0  0  0  0  0  0  0  0  0  0  0  0
  -22.4508  -29.9851   22.1836 C   0  0  0  0  0  0  0  0  0  0  0  0
  -24.2611  -32.3842   23.4040 C   0  0  0  0  0  0  0  0  0  0  0  0
  -27.3746  -33.6292   24.0390 C   0  0  0  0  0  0  0  0  0  0  0  0
  -25.6312  -20.6038   21.9788 C   0  0  0  0  0  0  0  0  0  0  0  0
  -17.6093  -28.4054   22.5333 C   0  0  0  0  0  0  0  0  0  0  0  0
  -24.0085  -28.7157   23.7060 C   0  0  0  0  0  0  0  0  0  0  0  0
  -25.4655  -30.6559   22.0156 C   0  0  0  0  0  0  0  0  0  0  0  0
  -18.3387  -29.7355   22.7035 C   0  0  0  0  0  0  0  0  0  0  0  0
  -24.8928  -18.8319   24.9775 C   0  0  0  0  0  0  0  0  0  0  0  0
  -19.2662  -29.9911   21.5198 C   0  0  0  0  0  0  0  0  0  0  0  0
  -25.3272  -17.3976   24.6674 C   0  0  0  0  0  0  0  0  0  0  0  0
  -24.2790  -19.5151   23.7567 C   0  0  0  0  0  0  0  0  0  0  0  0
  -25.5411  -18.0461   22.2341 C   0  0  0  0  0  0  0  0  0  0  0  0
  -20.3439  -28.9049   21.4188 C   0  0  1  0  0  0  0  0  0  0  0  0
  -23.4089  -30.0693   23.3380 C   0  0  1  0  0  0  0  0  0  0  0  0
  -26.2246  -17.3387   23.4157 C   0  0  2  0  0  0  0  0  0  0  0  0
  -30.7206  -16.1598   20.5685 C   0  0  0  0  0  0  0  0  0  0  0  0
  -28.5353  -35.6298   25.0124 C   0  0  0  0  0  0  0  0  0  0  0  0
  -23.6330  -33.9750   20.8772 C   0  0  0  0  0  0  0  0  0  0  0  0
  -25.5286  -35.5057   21.4534 C   0  0  0  0  0  0  0  0  0  0  0  0
  -23.5745  -35.3094   22.9915 C   0  0  0  0  0  0  0  0  0  0  0  0
  -28.6734  -31.9985   26.1397 C   0  0  0  0  0  0  0  0  0  0  0  0
  -27.1461  -23.6818   16.2992 C   0  0  0  0  0  0  0  0  0  0  0  0
  -28.4705  -19.6420   18.9220 C   0  0  0  0  0  0  0  0  0  0  0  0
  -29.8110  -17.3731   20.4583 C   0  0  0  0  0  0  0  0  0  0  0  0
  -29.6576  -19.8261   19.8749 C   0  0  0  0  0  0  0  0  0  0  0  0
  -30.5704  -18.5978   19.9466 C   0  0  0  0  0  0  0  0  0  0  0  0
  -28.1827  -24.7880   16.4679 C   0  0  0  0  0  0  0  0  0  0  0  0
  -28.7516  -26.8023   17.8309 C   0  0  0  0  0  0  0  0  0  0  0  0
  -28.2080  -27.6990   18.9256 C   0  0  0  0  0  0  0  0  0  1  0  0
  -25.2211  -33.3977   22.8293 C   0  0  1  0  0  0  0  0  0  0  0  0
  -27.9786  -34.2420   25.2896 C   0  0  2  0  0  0  0  0  0  0  0  0
  -24.4937  -34.5190   22.0349 C   0  0  0  0  0  0  0  0  0  0  0  0
  -25.8608  -15.2171   22.2126 N   0  0  0  0  0  0  0  0  0  0  0  0
  -26.6206  -15.9144   23.0743 N   0  0  0  0  0  0  0  0  0  0  0  0
  -24.4261  -31.0589   22.9773 N   0  0  0  0  0  0  0  0  0  0  0  0
  -25.1868  -19.4234   22.6111 N   0  0  0  0  0  0  0  0  0  0  0  0
  -28.5619  -15.7717   24.4240 N   0  0  0  0  0  0  0  0  0  0  0  0
  -28.3490  -11.7049   22.4715 N   0  0  0  0  0  0  0  0  0  0  0  0
  -26.5167  -20.3936   20.9222 N   0  0  0  0  0  0  0  0  0  0  0  0
  -21.3846  -29.1328   22.3983 N   0  0  0  0  0  0  0  0  0  0  0  0
  -26.0221  -33.8817   23.9485 N   0  0  0  0  0  0  0  0  0  0  0  0
  -29.0848  -33.3859   25.8036 N   0  3  0  0  0  0  0  0  0  0  0  0
  -27.7725  -25.7217   17.5513 N   0  3  0  0  0  0  0  0  0  0  0  0
  -29.5398  -13.0072   23.9361 O   0  0  0  0  0  0  0  0  0  0  0  0
  -22.6624  -30.6458   21.1734 O   0  0  0  0  0  0  0  0  0  0  0  0
  -23.4011  -32.7537   24.2076 O   0  0  0  0  0  0  0  0  0  0  0  0
  -28.0371  -32.9934   23.2220 O   0  0  0  0  0  0  0  0  0  0  0  0
  -25.2754  -21.7203   22.3647 O   0  0  0  0  0  0  0  0  0  0  0  0
  -24.4615   -9.9782   18.8742 O   0  0  0  0  0  0  0  0  0  0  0  0
  -28.0120  -26.9355   20.1152 O   0  0  0  0  0  0  0  0  0  1  0  0
  -24.2148   -4.8826   20.9666 F   0  0  0  0  0  0  0  0  0  0  0  0
  -22.0470   -8.6494   19.0912 F   0  0  0  0  0  0  0  0  0  0  0  0
  1  2  1  0  0  0  0
  1  5  2  0  0  0  0
  2  6  2  0  0  0  0
  3 10  2  0  0  0  0
  3 18  1  0  0  0  0
  4 11  1  0  0  0  0
  4 18  2  0  0  0  0
  5 20  1  0  0  0  0
  6 22  1  0  0  0  0
  7 12  2  0  0  0  0
  7 21  1  0  0  0  0
  8  9  2  0  0  0  0
  8 24  1  0  0  0  0
  9 26  1  0  0  0  0
 10 27  1  0  0  0  0
 11 27  2  0  0  0  0
 12 28  1  0  0  0  0
 13 14  2  0  0  0  0
 13 29  1  0  0  0  0
 14 30  1  0  0  0  0
 15 23  1  0  0  0  0
 15 28  2  0  0  0  0
 16 24  2  0  0  0  0
 16 25  1  0  0  0  0
 17 30  2  0  0  0  0
 17 31  1  0  0  0  0
 18 32  1  0  0  0  0
 19 32  1  0  0  0  0
 19 33  2  0  0  0  0
 19 34  1  0  0  0  0
 20 22  2  0  0  0  0
 20 39  1  0  0  0  0
 21 23  2  0  0  0  0
 21 40  1  0  0  0  0
 22 48  1  0  0  0  0
 23 41  1  0  0  0  0
 24 57  1  0  0  0  0
 25 26  2  0  0  0  0
 25 58  1  0  0  0  0
 26 74  1  0  0  0  0
 27 84  1  0  0  0  0
 28 85  1  0  0  0  0
 29 31  2  0  0  0  0
 29 84  1  0  0  0  0
 30 86  1  0  0  0  0
 31 87  1  0  0  0  0
 32 68  2  0  0  0  0
 33 69  1  0  0  0  0
 33 72  1  0  0  0  0
 34 73  1  0  0  0  0
 34 79  2  0  0  0  0
 35 49  1  0  0  0  0
 35 75  1  0  0  0  0
 35 80  2  0  0  0  0
 36 65  1  0  0  0  0
 36 70  1  0  0  0  0
 36 81  2  0  0  0  0
 37 66  1  0  0  0  0
 37 76  1  0  0  0  0
 37 82  2  0  0  0  0
 38 71  1  0  0  0  0
 38 74  1  0  0  0  0
 38 83  2  0  0  0  0
 39 42  1  0  0  0  0
 40 49  1  0  0  0  0
 41 70  1  0  0  0  0
 42 44  1  0  0  0  0
 43 45  1  0  0  0  0
 43 46  1  0  0  0  0
 44 48  1  0  0  0  0
 45 50  1  0  0  0  0
 46 71  1  0  0  0  0
 47 50  1  0  0  0  0
 47 71  1  0  0  0  0
 48 75  1  0  0  0  0
 49 70  1  0  0  0  0
 50 69  1  0  0  0  0
 51 59  1  0  0  0  0
 52 66  1  0  0  0  0
 53 67  1  0  0  0  0
 54 67  1  0  0  0  0
 55 67  1  0  0  0  0
 56 77  1  0  0  0  0
 57 62  1  0  0  0  0
 58 60  1  0  0  0  0
 59 61  1  0  0  0  0
 60 61  1  0  0  0  0
 62 78  1  0  0  0  0
 63 64  1  0  0  0  0
 63 78  1  0  0  0  0
 64 85  1  0  0  0  0
 65 67  1  0  0  0  0
 65 76  1  0  0  0  0
 66 77  1  0  0  0  0
 68 69  1  0  0  0  0
M  CHG  2  77   1  78   1
M  ISO  4  38 100  64 101  74 100  85 101
M  END
> <Batch ID>
0134

> <Smiles>
CCCCCc1cc(CCNC[101CH2:1][101O:1]c2ccc3c(c2)CN(C(=O)C(NC(=O)C(C)NC)C(C)(C)C)C(C(=O)NC2CCCc4ccccc42)C3)ccc1[100NH:0][100C:0](=O)N1CCCC(n2nc(-c3ccc(Oc4ccc(F)cc4F)cc3)c(C(N)=O)c2N)C1

> <Shape>
0.233

> <Color>
0.076

> <Negative vol penalty>
0.000

$$$$

  -OEChem-04052320573D

 86 95  0     1  0  0  0  0  0999 V2000
  -24.0495  -30.4704   28.3800 C   0  0  0  0  0  0  0  0  0  0  0  0
  -24.5106  -29.6482   27.3568 C   0  0  0  0  0  0  0  0  0  0  0  0
  -23.2331   -9.8098   21.6762 C   0  0  0  0  0  0  0  0  0  0  0  0
  -23.9719  -10.9146   23.6938 C   0  0  0  0  0  0  0  0  0  0  0  0
  -22.9425  -31.2910   28.1679 C   0  0  0  0  0  0  0  0  0  0  0  0
  -23.8642  -29.6454   26.1213 C   0  0  0  0  0  0  0  0  0  0  0  0
  -27.1053  -29.7881   22.2328 C   0  0  0  0  0  0  0  0  0  0  0  0
  -28.9230  -23.8031   20.9800 C   0  0  0  0  0  0  0  0  0  0  0  0
  -29.4431  -22.6096   20.4795 C   0  0  0  0  0  0  0  0  0  0  0  0
  -22.5345   -8.8771   22.4426 C   0  0  0  0  0  0  0  0  0  0  0  0
  -23.2733   -9.9818   24.4603 C   0  0  0  0  0  0  0  0  0  0  0  0
  -27.7448  -28.5968   21.8929 C   0  0  0  0  0  0  0  0  0  0  0  0
  -19.6084   -8.7308   24.1306 C   0  0  0  0  0  0  0  0  0  0  0  0
  -18.3088   -8.4117   23.7374 C   0  0  0  0  0  0  0  0  0  0  0  0
  -26.1733  -28.2743   20.0913 C   0  0  0  0  0  0  0  0  0  0  0  0
  -30.7668  -25.0179   19.9994 C   0  0  0  0  0  0  0  0  0  0  0  0
  -18.9585   -6.1005   23.4660 C   0  0  0  0  0  0  0  0  0  0  0  0
  -23.9519  -10.8286   22.3017 C   0  0  0  0  0  0  0  0  0  0  0  0
  -24.1919  -13.0186   21.0157 C   0  0  0  0  0  0  0  0  0  0  0  0
  -22.2881  -31.3054   26.9261 C   0  0  0  0  0  0  0  0  0  0  0  0
  -25.9865  -30.2267   21.5102 C   0  0  0  0  0  0  0  0  0  0  0  0
  -22.7466  -30.4660   25.8928 C   0  0  0  0  0  0  0  0  0  0  0  0
  -25.5229  -29.4729   20.4225 C   0  0  0  0  0  0  0  0  0  0  0  0
  -29.5848  -25.0073   20.7399 C   0  0  0  0  0  0  0  0  0  0  0  0
  -31.2870  -23.8243   19.4989 C   0  0  0  0  0  0  0  0  0  0  0  0
  -30.6251  -22.6202   19.7390 C   0  0  0  0  0  0  0  0  0  0  0  0
  -22.5546   -8.9631   23.8347 C   0  0  0  0  0  0  0  0  0  0  0  0
  -27.2770  -27.8382   20.8238 C   0  0  0  0  0  0  0  0  0  0  0  0
  -20.5832   -7.7349   24.1916 C   0  0  0  0  0  0  0  0  0  0  0  0
  -17.9838   -7.0965   23.4050 C   0  0  0  0  0  0  0  0  0  0  0  0
  -20.2582   -6.4197   23.8593 C   0  0  0  0  0  0  0  0  0  0  0  0
  -24.6742  -11.7921   21.5105 C   0  0  0  0  0  0  0  0  0  0  0  0
  -25.2559  -13.5557   20.3331 C   0  0  0  0  0  0  0  0  0  0  0  0
  -22.8979  -13.6189   21.1604 C   0  0  0  0  0  0  0  0  0  0  0  0
  -22.9387  -30.7881   22.2169 C   0  0  0  0  0  0  0  0  0  0  0  0
  -22.8405  -31.8940   19.1690 C   0  0  0  0  0  0  0  0  0  0  0  0
  -24.1754  -31.8548   16.0284 C   0  0  0  0  0  0  0  0  0  0  0  0
  -30.6919  -14.7637   19.9641 C   0  0  0  0  0  0  0  0  0  0  0  0
  -21.0667  -32.1743   26.7592 C   0  0  0  0  0  0  0  0  0  0  0  0
  -25.3242  -31.5276   21.8728 C   0  0  0  0  0  0  0  0  0  0  0  0
  -24.3380  -29.9102   19.6021 C   0  0  0  0  0  0  0  0  0  0  0  0
  -20.6668  -32.3895   25.3017 C   0  0  0  0  0  0  0  0  0  0  0  0
  -29.6731  -11.4986   18.9753 C   0  0  0  0  0  0  0  0  0  0  0  0
  -20.6817  -31.0662   24.5431 C   0  0  0  0  0  0  0  0  0  0  0  0
  -28.2450  -11.3831   19.5112 C   0  0  0  0  0  0  0  0  0  0  0  0
  -30.8016  -19.6288   20.8741 C   0  0  0  0  0  0  0  0  0  0  0  0
  -30.9506  -19.1292   18.4008 C   0  0  0  0  0  0  0  0  0  0  0  0
  -30.2018  -18.2436   21.1193 C   0  0  0  0  0  0  0  0  0  0  0  0
  -30.3514  -17.7434   18.6436 C   0  0  0  0  0  0  0  0  0  0  0  0
  -30.5699  -12.2899   19.9249 C   0  0  0  0  0  0  0  0  0  0  0  0
  -28.6279  -13.5058   20.8325 C   0  0  0  0  0  0  0  0  0  0  0  0
  -22.0873  -30.4532   24.5308 C   0  0  1  0  0  0  0  0  0  0  0  0
  -23.8798  -31.6177   21.3901 C   0  0  1  0  0  0  0  0  0  0  0  0
  -27.6720  -12.7640   19.8826 C   0  0  2  0  0  0  0  0  0  0  0  0
  -30.4873  -20.1284   19.4624 C   0  0  0  0  0  0  0  0  0  0  0  0
  -30.6582  -17.2409   20.0568 C   0  0  0  0  0  0  0  0  0  0  0  0
  -32.5546  -23.8646   18.7089 C   0  0  0  0  0  0  0  0  0  0  0  0
  -23.8563  -32.8340   13.7400 C   0  0  0  0  0  0  0  0  0  0  0  0
  -20.4861  -30.0119   18.6947 C   0  0  0  0  0  0  0  0  0  0  0  0
  -20.8272  -30.3181   16.2333 C   0  0  0  0  0  0  0  0  0  0  0  0
  -20.2365  -32.2759   17.6619 C   0  0  0  0  0  0  0  0  0  0  0  0
  -26.8412  -33.1394   16.0796 C   0  0  0  0  0  0  0  0  0  0  0  0
  -29.0250  -26.2910   21.2785 C   0  0  0  0  0  0  0  0  0  1  0  0
  -22.5560  -31.2823   17.8185 C   0  0  1  0  0  0  0  0  0  0  0  0
  -24.5569  -32.9788   15.0820 C   0  0  2  0  0  0  0  0  0  0  0  0
  -21.0476  -30.9626   17.6186 C   0  0  0  0  0  0  0  0  0  0  0  0
  -25.9455  -11.5632   21.1709 N   0  0  0  0  0  0  0  0  0  0  0  0
  -26.2711  -12.6532   20.4554 N   0  0  0  0  0  0  0  0  0  0  0  0
  -23.7205  -31.1861   19.9999 N   0  0  0  0  0  0  0  0  0  0  0  0
  -29.9702  -13.5897   20.2360 N   0  0  0  0  0  0  0  0  0  0  0  0
  -25.4127  -14.7071   19.6461 N   0  0  0  0  0  0  0  0  0  0  0  0
  -21.9208  -12.9317   21.8935 N   0  0  0  0  0  0  0  0  0  0  0  0
  -31.1369  -21.4022   19.2401 N   0  0  0  0  0  0  0  0  0  0  0  0
  -22.9225  -31.1235   23.5573 N   0  0  0  0  0  0  0  0  0  0  0  0
  -23.1081  -32.2019   16.8295 N   0  0  0  0  0  0  0  0  0  0  0  0
  -30.0481  -15.9530   20.2833 N   0  0  0  0  0  0  0  0  0  0  0  0
  -26.0284  -32.9804   14.8462 N   0  3  0  0  0  0  0  0  0  0  0  0
  -22.6114  -14.7240   20.6406 O   0  0  0  0  0  0  0  0  0  0  0  0
  -22.2751  -29.9098   21.6784 O   0  0  0  0  0  0  0  0  0  0  0  0
  -22.3073  -32.9641   19.4727 O   0  0  0  0  0  0  0  0  0  0  0  0
  -24.7629  -30.7756   16.0519 O   0  0  0  0  0  0  0  0  0  0  0  0
  -31.8237  -14.7530   19.4684 O   0  0  0  0  0  0  0  0  0  0  0  0
  -21.8728   -8.0532   24.5830 O   0  0  0  0  0  0  0  0  0  0  0  0
  -27.8990  -26.6747   20.4903 O   0  0  0  0  0  0  0  0  0  1  0  0
  -16.7354   -6.7899   23.0289 F   0  0  0  0  0  0  0  0  0  0  0  0
  -21.1901   -5.4584   23.9170 F   0  0  0  0  0  0  0  0  0  0  0  0
  1  2  1  0  0  0  0
  1  5  2  0  0  0  0
  2  6  2  0  0  0  0
  3 10  2  0  0  0  0
  3 18  1  0  0  0  0
  4 11  1  0  0  0  0
  4 18  2  0  0  0  0
  5 20  1  0  0  0  0
  6 22  1  0  0  0  0
  7 12  2  0  0  0  0
  7 21  1  0  0  0  0
  8  9  2  0  0  0  0
  8 24  1  0  0  0  0
  9 26  1  0  0  0  0
 10 27  1  0  0  0  0
 11 27  2  0  0  0  0
 12 28  1  0  0  0  0
 13 14  2  0  0  0  0
 13 29  1  0  0  0  0
 14 30  1  0  0  0  0
 15 23  1  0  0  0  0
 15 28  2  0  0  0  0
 16 24  2  0  0  0  0
 16 25  1  0  0  0  0
 17 30  2  0  0  0  0
 17 31  1  0  0  0  0
 18 32  1  0  0  0  0
 19 32  1  0  0  0  0
 19 33  2  0  0  0  0
 19 34  1  0  0  0  0
 20 22  2  0  0  0  0
 20 39  1  0  0  0  0
 21 23  2  0  0  0  0
 21 40  1  0  0  0  0
 22 52  1  0  0  0  0
 23 41  1  0  0  0  0
 24 63  1  0  0  0  0
 25 26  2  0  0  0  0
 25 57  1  0  0  0  0
 26 73  1  0  0  0  0
 27 83  1  0  0  0  0
 28 84  1  0  0  0  0
 29 31  2  0  0  0  0
 29 83  1  0  0  0  0
 30 85  1  0  0  0  0
 31 86  1  0  0  0  0
 32 67  2  0  0  0  0
 33 68  1  0  0  0  0
 33 71  1  0  0  0  0
 34 72  1  0  0  0  0
 34 78  2  0  0  0  0
 35 53  1  0  0  0  0
 35 74  1  0  0  0  0
 35 79  2  0  0  0  0
 36 64  1  0  0  0  0
 36 69  1  0  0  0  0
 36 80  2  0  0  0  0
 37 65  1  0  0  0  0
 37 75  1  0  0  0  0
 37 81  2  0  0  0  0
 38 70  1  0  0  0  0
 38 76  1  0  0  0  0
 38 82  2  0  0  0  0
 39 42  1  0  0  0  0
 40 53  1  0  0  0  0
 41 69  1  0  0  0  0
 42 44  1  0  0  0  0
 43 45  1  0  0  0  0
 43 50  1  0  0  0  0
 44 52  1  0  0  0  0
 45 54  1  0  0  0  0
 46 48  1  0  0  0  0
 46 55  1  0  0  0  0
 47 49  1  0  0  0  0
 47 55  1  0  0  0  0
 48 56  1  0  0  0  0
 49 56  1  0  0  0  0
 50 70  1  0  0  0  0
 51 54  1  0  0  0  0
 51 70  1  0  0  0  0
 52 74  1  0  0  0  0
 53 69  1  0  0  0  0
 54 68  1  0  0  0  0
 55 73  1  0  0  0  0
 56 76  1  0  0  0  0
 58 65  1  0  0  0  0
 59 66  1  0  0  0  0
 60 66  1  0  0  0  0
 61 66  1  0  0  0  0
 62 77  1  0  0  0  0
 63 84  1  0  0  0  0
 64 66  1  0  0  0  0
 64 75  1  0  0  0  0
 65 77  1  0  0  0  0
 67 68  1  0  0  0  0
M  CHG  1  77   1
M  ISO  4  38 100  63 101  76 100  84 101
M  END
> <Batch ID>
0134

> <Smiles>
CNC(C)C(=O)NC(C(=O)N1Cc2cc([101O:1][101CH2:1]c3ccc(NC4CCC([100NH:0][100C:0](=O)N5CCCC(n6nc(-c7ccc(Oc8ccc(F)cc8F)cc7)c(C(N)=O)c6N)C5)CC4)c(C)c3)ccc2CC1C(=O)NC1CCCc2ccccc21)C(C)(C)C

> <Shape>
0.267

> <Color>
0.153

> <Negative vol penalty>
0.000

$$$$

  -OEChem-04052320573D

 86 95  0     1  0  0  0  0  0999 V2000
  -20.8053  -20.7425   22.8927 C   0  0  0  0  0  0  0  0  0  0  0  0
  -22.0921  -21.2626   22.9872 C   0  0  0  0  0  0  0  0  0  0  0  0
  -22.9346  -10.0461   21.1286 C   0  0  0  0  0  0  0  0  0  0  0  0
  -23.7437  -10.7312   23.2995 C   0  0  0  0  0  0  0  0  0  0  0  0
  -19.8588  -21.3698   22.0837 C   0  0  0  0  0  0  0  0  0  0  0  0
  -22.4335  -22.4098   22.2718 C   0  0  0  0  0  0  0  0  0  0  0  0
  -25.0478  -25.7320   25.0598 C   0  0  0  0  0  0  0  0  0  0  0  0
  -22.1483   -9.0643   21.7315 C   0  0  0  0  0  0  0  0  0  0  0  0
  -22.9573   -9.7495   23.9024 C   0  0  0  0  0  0  0  0  0  0  0  0
  -26.4009  -25.4659   25.2647 C   0  0  0  0  0  0  0  0  0  0  0  0
  -19.2012   -8.8986   23.3807 C   0  0  0  0  0  0  0  0  0  0  0  0
  -17.8833   -8.7649   22.9438 C   0  0  0  0  0  0  0  0  0  0  0  0
  -26.9675  -27.0401   23.5269 C   0  0  0  0  0  0  0  0  0  0  0  0
  -30.5986  -24.5490   24.1393 C   0  0  0  0  0  0  0  0  0  0  0  0
  -18.3316   -6.4827   22.2899 C   0  0  0  0  0  0  0  0  0  0  0  0
  -23.7324  -10.8795   21.9126 C   0  0  0  0  0  0  0  0  0  0  0  0
  -24.1780  -13.2227   21.0080 C   0  0  0  0  0  0  0  0  0  0  0  0
  -20.1860  -22.5308   21.3655 C   0  0  0  0  0  0  0  0  0  0  0  0
  -24.6432  -26.6477   24.0778 C   0  0  0  0  0  0  0  0  0  0  0  0
  -21.4909  -23.0525   21.4513 C   0  0  0  0  0  0  0  0  0  0  0  0
  -25.6088  -27.3180   23.3133 C   0  0  0  0  0  0  0  0  0  0  0  0
  -31.1507  -23.5156   23.3904 C   0  0  0  0  0  0  0  0  0  0  0  0
  -30.3538  -22.8108   22.4951 C   0  0  0  0  0  0  0  0  0  0  0  0
  -22.1596   -8.9161   23.1184 C   0  0  0  0  0  0  0  0  0  0  0  0
  -27.3609  -26.1177   24.4962 C   0  0  0  0  0  0  0  0  0  0  0  0
  -20.0843   -7.8243   23.2721 C   0  0  0  0  0  0  0  0  0  0  0  0
  -17.4485   -7.5569   22.3985 C   0  0  0  0  0  0  0  0  0  0  0  0
  -19.6495   -6.6164   22.7268 C   0  0  0  0  0  0  0  0  0  0  0  0
  -24.5453  -11.8934   21.2904 C   0  0  0  0  0  0  0  0  0  0  0  0
  -29.0214  -23.1753   22.3868 C   0  0  0  0  0  0  0  0  0  0  0  0
  -29.2553  -24.8358   23.9575 C   0  0  0  0  0  0  0  0  0  1  0  0
  -25.2927  -13.7697   20.4209 C   0  0  0  0  0  0  0  0  0  0  0  0
  -22.9398  -13.9024   21.2545 C   0  0  0  0  0  0  0  0  0  0  0  0
  -22.8972  -26.4693   21.4277 C   0  0  0  0  0  0  0  0  0  0  0  0
  -23.2768  -29.6908   21.4264 C   0  0  0  0  0  0  0  0  0  0  0  0
  -25.1127  -32.3921   22.4160 C   0  0  0  0  0  0  0  0  0  0  0  0
  -30.8174  -14.5383   20.2411 C   0  0  0  0  0  0  0  0  0  0  0  0
  -19.1429  -23.1467   20.4670 C   0  0  0  0  0  0  0  0  0  0  0  0
  -23.1808  -26.9436   23.8875 C   0  0  0  0  0  0  0  0  0  0  0  0
  -25.2274  -28.3250   22.2601 C   0  0  0  0  0  0  0  0  0  0  0  0
  -19.4764  -24.5721   20.0345 C   0  0  0  0  0  0  0  0  0  0  0  0
  -29.5285  -11.5852   18.7262 C   0  0  0  0  0  0  0  0  0  0  0  0
  -20.9272  -24.6641   19.5723 C   0  0  0  0  0  0  0  0  0  0  0  0
  -28.0897  -11.5087   19.2398 C   0  0  0  0  0  0  0  0  0  0  0  0
  -30.7510  -17.7890   19.4777 C   0  0  0  0  0  0  0  0  0  0  0  0
  -30.6728  -19.2505   19.9356 C   0  0  0  0  0  0  0  0  0  0  0  0
  -30.6171  -17.8818   21.9000 C   0  0  0  0  0  0  0  0  0  0  0  0
  -30.4800  -12.1257   19.7913 C   0  0  0  0  0  0  0  0  0  0  0  0
  -28.6414  -13.3406   20.8946 C   0  0  0  0  0  0  0  0  0  0  0  0
  -21.8922  -24.3092   20.7100 C   0  0  1  0  0  0  0  0  0  0  0  0
  -22.8609  -27.5124   22.5085 C   0  0  1  0  0  0  0  0  0  0  0  0
  -27.6354  -12.8539   19.8375 C   0  0  2  0  0  0  0  0  0  0  0  0
  -31.0009  -16.9615   20.7445 C   0  0  1  0  0  0  0  0  0  0  0  0
  -31.1131  -19.2244   21.3916 C   0  0  2  0  0  0  0  0  0  0  0  0
  -32.5958  -23.1832   23.5657 C   0  0  0  0  0  0  0  0  0  0  0  0
  -28.1164  -22.4543   21.4419 C   0  0  0  0  0  0  0  0  0  0  0  0
  -25.1950  -34.8933   22.2293 C   0  0  0  0  0  0  0  0  0  0  0  0
  -24.3235  -29.4408   18.5712 C   0  0  0  0  0  0  0  0  0  0  0  0
  -25.2562  -31.7544   18.7847 C   0  0  0  0  0  0  0  0  0  0  0  0
  -22.7955  -31.3829   18.9558 C   0  0  0  0  0  0  0  0  0  0  0  0
  -24.8528  -32.7352   25.3441 C   0  0  0  0  0  0  0  0  0  0  0  0
  -30.9189  -21.6981   21.6779 C   0  0  0  0  0  0  0  0  0  0  0  0
  -24.2950  -30.6471   20.8538 C   0  0  1  0  0  0  0  0  0  0  0  0
  -24.7046  -33.7101   23.0492 C   0  0  2  0  0  0  0  0  0  0  0  0
  -24.1750  -30.7859   19.3098 C   0  0  0  0  0  0  0  0  0  0  0  0
  -25.7957  -11.6129   20.9135 N   0  0  0  0  0  0  0  0  0  0  0  0
  -28.4497  -24.1733   23.0974 N   0  0  0  0  0  0  0  0  0  0  0  0
  -26.2236  -12.7735   20.3882 N   0  0  0  0  0  0  0  0  0  0  0  0
  -23.7847  -28.5753   22.1073 N   0  0  0  0  0  0  0  0  0  0  0  0
  -29.9927  -13.4036   20.3161 N   0  0  0  0  0  0  0  0  0  0  0  0
  -25.5575  -15.0008   19.9344 N   0  0  0  0  0  0  0  0  0  0  0  0
  -21.8979  -13.1920   21.8661 N   0  0  0  0  0  0  0  0  0  0  0  0
  -22.0207  -25.4201   21.6287 N   0  0  0  0  0  0  0  0  0  0  0  0
  -24.1313  -31.9011   21.5810 N   0  0  0  0  0  0  0  0  0  0  0  0
  -30.2764  -15.7102   20.7556 N   0  0  0  0  0  0  0  0  0  0  0  0
  -30.5142  -20.3480   22.1581 N   0  3  0  0  0  0  0  0  0  0  0  0
  -25.2720  -33.8225   24.4226 N   0  3  0  0  0  0  0  0  0  0  0  0
  -22.7571  -15.0993   20.9266 O   0  0  0  0  0  0  0  0  0  0  0  0
  -23.6627  -26.6069   20.4807 O   0  0  0  0  0  0  0  0  0  0  0  0
  -22.0752  -29.9286   21.2812 O   0  0  0  0  0  0  0  0  0  0  0  0
  -26.1953  -31.8540   22.6369 O   0  0  0  0  0  0  0  0  0  0  0  0
  -31.9496  -14.5102   19.7469 O   0  0  0  0  0  0  0  0  0  0  0  0
  -21.3922   -7.9584   23.7070 O   0  0  0  0  0  0  0  0  0  0  0  0
  -28.6823  -25.8593   24.6937 O   0  0  0  0  0  0  0  0  0  1  0  0
  -16.1824   -7.4282   21.9804 F   0  0  0  0  0  0  0  0  0  0  0  0
  -20.4930   -5.5804   22.6210 F   0  0  0  0  0  0  0  0  0  0  0  0
  1  2  1  0  0  0  0
  1  5  2  0  0  0  0
  2  6  2  0  0  0  0
  3  8  2  0  0  0  0
  3 16  1  0  0  0  0
  4  9  1  0  0  0  0
  4 16  2  0  0  0  0
  5 18  1  0  0  0  0
  6 20  1  0  0  0  0
  7 10  2  0  0  0  0
  7 19  1  0  0  0  0
  8 24  1  0  0  0  0
  9 24  2  0  0  0  0
 10 25  1  0  0  0  0
 11 12  2  0  0  0  0
 11 26  1  0  0  0  0
 12 27  1  0  0  0  0
 13 21  1  0  0  0  0
 13 25  2  0  0  0  0
 14 22  2  0  0  0  0
 14 31  1  0  0  0  0
 15 27  2  0  0  0  0
 15 28  1  0  0  0  0
 16 29  1  0  0  0  0
 17 29  1  0  0  0  0
 17 32  2  0  0  0  0
 17 33  1  0  0  0  0
 18 20  2  0  0  0  0
 18 38  1  0  0  0  0
 19 21  2  0  0  0  0
 19 39  1  0  0  0  0
 20 50  1  0  0  0  0
 21 40  1  0  0  0  0
 22 23  1  0  0  0  0
 22 55  1  0  0  0  0
 23 30  2  0  0  0  0
 23 62  1  0  0  0  0
 24 83  1  0  0  0  0
 25 84  1  0  0  0  0
 26 28  2  0  0  0  0
 26 83  1  0  0  0  0
 27 85  1  0  0  0  0
 28 86  1  0  0  0  0
 29 66  2  0  0  0  0
 30 56  1  0  0  0  0
 30 67  1  0  0  0  0
 31 67  2  0  0  0  0
 31 84  1  0  0  0  0
 32 68  1  0  0  0  0
 32 71  1  0  0  0  0
 33 72  1  0  0  0  0
 33 78  2  0  0  0  0
 34 51  1  0  0  0  0
 34 73  1  0  0  0  0
 34 79  2  0  0  0  0
 35 63  1  0  0  0  0
 35 69  1  0  0  0  0
 35 80  2  0  0  0  0
 36 64  1  0  0  0  0
 36 74  1  0  0  0  0
 36 81  2  0  0  0  0
 37 70  1  0  0  0  0
 37 75  1  0  0  0  0
 37 82  2  0  0  0  0
 38 41  1  0  0  0  0
 39 51  1  0  0  0  0
 40 69  1  0  0  0  0
 41 43  1  0  0  0  0
 42 44  1  0  0  0  0
 42 48  1  0  0  0  0
 43 50  1  0  0  0  0
 44 52  1  0  0  0  0
 45 46  1  0  0  0  0
 45 53  1  0  0  0  0
 46 54  1  0  0  0  0
 47 53  1  0  0  0  0
 47 54  1  0  0  0  0
 48 70  1  0  0  0  0
 49 52  1  0  0  0  0
 49 70  1  0  0  0  0
 50 73  1  0  0  0  0
 51 69  1  0  0  0  0
 52 68  1  0  0  0  0
 53 75  1  0  0  0  0
 54 76  1  0  0  0  0
 57 64  1  0  0  0  0
 58 65  1  0  0  0  0
 59 65  1  0  0  0  0
 60 65  1  0  0  0  0
 61 77  1  0  0  0  0
 62 76  1  0  0  0  0
 63 65  1  0  0  0  0
 63 74  1  0  0  0  0
 64 77  1  0  0  0  0
 66 68  1  0  0  0  0
M  CHG  2  76   1  77   1
M  ISO  4  31 101  37 100  75 100  84 101
M  END
> <Batch ID>
0134

> <Smiles>
CNC(C)C(=O)NC(C(=O)N1Cc2cc([101O:1][101c:1]3cc(C)c(CNC4CCC([100NH:0][100C:0](=O)N5CCCC(n6nc(-c7ccc(Oc8ccc(F)cc8F)cc7)c(C(N)=O)c6N)C5)C4)c(C)n3)ccc2CC1C(=O)NC1CCCc2ccccc21)C(C)(C)C

> <Shape>
0.231

> <Color>
0.149

> <Negative vol penalty>
0.000

$$$$

  -OEChem-04052320573D

 86 95  0     1  0  0  0  0  0999 V2000
  -31.4666  -22.7123    7.3234 C   0  0  0  0  0  0  0  0  0  0  0  0
  -32.0601  -22.3580    8.5307 C   0  0  0  0  0  0  0  0  0  0  0  0
  -30.2382  -18.9565   22.9439 C   0  0  0  0  0  0  0  0  0  0  0  0
  -23.2799  -10.2348   22.2793 C   0  0  0  0  0  0  0  0  0  0  0  0
  -23.5812   -9.4722   20.0067 C   0  0  0  0  0  0  0  0  0  0  0  0
  -30.8682  -23.9638    7.1829 C   0  0  0  0  0  0  0  0  0  0  0  0
  -32.0567  -23.2555    9.5979 C   0  0  0  0  0  0  0  0  0  0  0  0
  -30.8323  -21.0487   13.9883 C   0  0  0  0  0  0  0  0  0  0  0  0
  -22.5275   -9.0949   22.5621 C   0  0  0  0  0  0  0  0  0  0  0  0
  -22.8289   -8.3322   20.2895 C   0  0  0  0  0  0  0  0  0  0  0  0
  -31.8247  -20.3055   14.6260 C   0  0  0  0  0  0  0  0  0  0  0  0
  -19.3735   -7.9990   22.0369 C   0  0  0  0  0  0  0  0  0  0  0  0
  -18.1874   -8.1670   22.7513 C   0  0  0  0  0  0  0  0  0  0  0  0
  -31.5062  -19.3645   22.5453 C   0  0  0  0  0  0  0  0  0  0  0  0
  -29.7590  -17.7117   22.5512 C   0  0  0  0  0  0  0  0  0  0  0  0
  -32.2566  -22.1620   16.1045 C   0  0  0  0  0  0  0  0  0  0  0  0
  -19.0356   -6.7293   24.4979 C   0  0  0  0  0  0  0  0  0  0  0  0
  -23.8067  -10.4236   21.0016 C   0  0  0  0  0  0  0  0  0  0  0  0
  -24.1624  -12.9415   20.7989 C   0  0  0  0  0  0  0  0  0  0  0  0
  -30.8490  -24.8733    8.2520 C   0  0  0  0  0  0  0  0  0  0  0  0
  -30.5516  -22.3602   14.3976 C   0  0  0  0  0  0  0  0  0  0  0  0
  -31.4588  -24.5208    9.4711 C   0  0  0  0  0  0  0  0  0  0  0  0
  -31.2584  -22.9188   15.4721 C   0  0  0  0  0  0  0  0  0  0  0  0
  -22.3020   -8.1435   21.5672 C   0  0  0  0  0  0  0  0  0  0  0  0
  -32.5390  -20.8631   15.6823 C   0  0  0  0  0  0  0  0  0  0  0  0
  -20.3908   -7.1961   22.5530 C   0  0  0  0  0  0  0  0  0  0  0  0
  -18.0184   -7.5322   23.9818 C   0  0  0  0  0  0  0  0  0  0  0  0
  -20.2218   -6.5613   23.7835 C   0  0  0  0  0  0  0  0  0  0  0  0
  -24.5835  -11.6012   20.7086 C   0  0  0  0  0  0  0  0  0  0  0  0
  -32.2496  -18.4976   21.7605 C   0  0  0  0  0  0  0  0  0  0  0  0
  -30.5805  -16.9189   21.7660 C   0  0  0  0  0  0  0  0  0  0  0  0
  -25.2606  -13.6729   20.4173 C   0  0  0  0  0  0  0  0  0  0  0  0
  -22.8922  -13.4775   21.1926 C   0  0  0  0  0  0  0  0  0  0  0  0
  -30.6995  -25.2205   13.0189 C   0  0  0  0  0  0  0  0  0  0  0  0
  -33.4411  -18.7586   18.8173 C   0  0  0  0  0  0  0  0  0  0  0  0
  -29.3058  -26.1929   15.7819 C   0  0  0  0  0  0  0  0  0  0  0  0
  -29.6590  -25.4827   19.3016 C   0  0  0  0  0  0  0  0  0  0  0  0
  -30.7310  -14.6963   20.5898 C   0  0  0  0  0  0  0  0  0  0  0  0
  -30.2319  -26.2327    8.0375 C   0  0  0  0  0  0  0  0  0  0  0  0
  -29.4597  -23.1392   13.7169 C   0  0  0  0  0  0  0  0  0  0  0  0
  -30.9815  -24.3155   15.9631 C   0  0  0  0  0  0  0  0  0  0  0  0
  -29.9419  -26.9816    9.3357 C   0  0  0  0  0  0  0  0  0  0  0  0
  -35.2181  -17.1198   21.6428 C   0  0  0  0  0  0  0  0  0  0  0  0
  -29.6179  -12.2099   18.2972 C   0  0  0  0  0  0  0  0  0  0  0  0
  -31.1425  -26.9086   10.2737 C   0  0  0  0  0  0  0  0  0  0  0  0
  -34.7429  -18.4324   22.2568 C   0  0  0  0  0  0  0  0  0  0  0  0
  -28.1743  -11.9401   18.7276 C   0  0  0  0  0  0  0  0  0  0  0  0
  -35.0925  -17.3665   20.1472 C   0  0  0  0  0  0  0  0  0  0  0  0
  -30.5271  -12.4743   19.4960 C   0  0  0  0  0  0  0  0  0  0  0  0
  -28.6159  -13.2544   20.8406 C   0  0  0  0  0  0  0  0  0  0  0  0
  -31.4537  -25.4575   10.6597 C   0  0  1  0  0  0  0  0  0  0  0  0
  -33.6396  -18.9099   21.3064 C   0  0  1  0  0  0  0  0  0  0  0  0
  -29.6105  -24.6483   13.8817 C   0  0  1  0  0  0  0  0  0  0  0  0
  -27.6491  -13.0465   19.6634 C   0  0  2  0  0  0  0  0  0  0  0  0
  -27.9931  -25.6354   21.1721 C   0  0  0  0  0  0  0  0  0  0  0  0
  -30.4674  -28.9830   16.2014 C   0  0  0  0  0  0  0  0  0  0  0  0
  -30.2537  -28.6249   18.6701 C   0  0  0  0  0  0  0  0  0  0  0  0
  -28.2165  -28.6246   17.2306 C   0  0  0  0  0  0  0  0  0  0  0  0
  -30.1008  -22.6618   20.0806 C   0  0  0  0  0  0  0  0  0  0  0  0
  -34.0385  -18.1631   17.5676 C   0  0  0  0  0  0  0  0  0  0  0  0
  -33.3418  -18.7234   16.3402 C   0  0  0  0  0  0  0  0  0  1  0  0
  -29.8089  -26.6637   17.1251 C   0  0  1  0  0  0  0  0  0  0  0  0
  -28.6834  -24.7163   20.1764 C   0  0  2  0  0  0  0  0  0  0  0  0
  -29.7017  -28.2060   17.2908 C   0  0  0  0  0  0  0  0  0  0  0  0
  -25.8502  -11.4851   20.3014 N   0  0  0  0  0  0  0  0  0  0  0  0
  -31.8179  -17.2810   21.3592 N   0  0  0  0  0  0  0  0  0  0  0  0
  -26.2346  -12.7617   20.1324 N   0  0  0  0  0  0  0  0  0  0  0  0
  -29.9087  -25.0393   15.2610 N   0  0  0  0  0  0  0  0  0  0  0  0
  -33.9962  -18.3231   20.0115 N   0  0  0  0  0  0  0  0  0  0  0  0
  -29.9684  -13.5369   20.3349 N   0  0  0  0  0  0  0  0  0  0  0  0
  -25.4783  -15.0001   20.3009 N   0  0  0  0  0  0  0  0  0  0  0  0
  -21.9201  -13.6867   20.2048 N   0  0  0  0  0  0  0  0  0  0  0  0
  -30.0837  -15.6516   21.3727 N   0  0  0  0  0  0  0  0  0  0  0  0
  -30.5248  -24.9923   11.6673 N   0  0  0  0  0  0  0  0  0  0  0  0
  -29.0709  -25.9024   18.1272 N   0  0  0  0  0  0  0  0  0  0  0  0
  -29.3960  -23.6507   20.9365 N   0  3  0  0  0  0  0  0  0  0  0  0
  -22.6328  -13.7778   22.3826 O   0  0  0  0  0  0  0  0  0  0  0  0
  -31.6286  -25.8256   13.5407 O   0  0  0  0  0  0  0  0  0  0  0  0
  -32.5153  -19.5680   18.7399 O   0  0  0  0  0  0  0  0  0  0  0  0
  -28.4059  -26.8214   15.2191 O   0  0  0  0  0  0  0  0  0  0  0  0
  -30.8251  -25.6916   19.6291 O   0  0  0  0  0  0  0  0  0  0  0  0
  -31.8637  -14.8435   20.1236 O   0  0  0  0  0  0  0  0  0  0  0  0
  -21.5681   -7.0309   21.8429 O   0  0  0  0  0  0  0  0  0  0  0  0
  -33.5087  -20.1402   16.3060 O   0  0  0  0  0  0  0  0  0  1  0  0
  -16.8799   -7.6949   24.6684 F   0  0  0  0  0  0  0  0  0  0  0  0
  -21.1960   -5.7897   24.2850 F   0  0  0  0  0  0  0  0  0  0  0  0
  1  2  1  0  0  0  0
  1  6  2  0  0  0  0
  2  7  2  0  0  0  0
  3 14  2  0  0  0  0
  3 15  1  0  0  0  0
  4  9  2  0  0  0  0
  4 18  1  0  0  0  0
  5 10  1  0  0  0  0
  5 18  2  0  0  0  0
  6 20  1  0  0  0  0
  7 22  1  0  0  0  0
  8 11  2  0  0  0  0
  8 21  1  0  0  0  0
  9 24  1  0  0  0  0
 10 24  2  0  0  0  0
 11 25  1  0  0  0  0
 12 13  2  0  0  0  0
 12 26  1  0  0  0  0
 13 27  1  0  0  0  0
 14 30  1  0  0  0  0
 15 31  2  0  0  0  0
 16 23  1  0  0  0  0
 16 25  2  0  0  0  0
 17 27  2  0  0  0  0
 17 28  1  0  0  0  0
 18 29  1  0  0  0  0
 19 29  1  0  0  0  0
 19 32  2  0  0  0  0
 19 33  1  0  0  0  0
 20 22  2  0  0  0  0
 20 39  1  0  0  0  0
 21 23  2  0  0  0  0
 21 40  1  0  0  0  0
 22 51  1  0  0  0  0
 23 41  1  0  0  0  0
 24 83  1  0  0  0  0
 25 84  1  0  0  0  0
 26 28  2  0  0  0  0
 26 83  1  0  0  0  0
 27 85  1  0  0  0  0
 28 86  1  0  0  0  0
 29 65  2  0  0  0  0
 30 52  1  0  0  0  0
 30 66  2  0  0  0  0
 31 66  1  0  0  0  0
 31 73  1  0  0  0  0
 32 67  1  0  0  0  0
 32 71  1  0  0  0  0
 33 72  1  0  0  0  0
 33 77  2  0  0  0  0
 34 53  1  0  0  0  0
 34 74  1  0  0  0  0
 34 78  2  0  0  0  0
 35 60  1  0  0  0  0
 35 69  1  0  0  0  0
 35 79  2  0  0  0  0
 36 62  1  0  0  0  0
 36 68  1  0  0  0  0
 36 80  2  0  0  0  0
 37 63  1  0  0  0  0
 37 75  1  0  0  0  0
 37 81  2  0  0  0  0
 38 70  1  0  0  0  0
 38 73  1  0  0  0  0
 38 82  2  0  0  0  0
 39 42  1  0  0  0  0
 40 53  1  0  0  0  0
 41 68  1  0  0  0  0
 42 45  1  0  0  0  0
 43 46  1  0  0  0  0
 43 48  1  0  0  0  0
 44 47  1  0  0  0  0
 44 49  1  0  0  0  0
 45 51  1  0  0  0  0
 46 52  1  0  0  0  0
 47 54  1  0  0  0  0
 48 69  1  0  0  0  0
 49 70  1  0  0  0  0
 50 54  1  0  0  0  0
 50 70  1  0  0  0  0
 51 74  1  0  0  0  0
 52 69  1  0  0  0  0
 53 68  1  0  0  0  0
 54 67  1  0  0  0  0
 55 63  1  0  0  0  0
 56 64  1  0  0  0  0
 57 64  1  0  0  0  0
 58 64  1  0  0  0  0
 59 76  1  0  0  0  0
 60 61  1  0  0  0  0
 61 84  1  0  0  0  0
 62 64  1  0  0  0  0
 62 75  1  0  0  0  0
 63 76  1  0  0  0  0
 65 67  1  0  0  0  0
M  CHG  1  76   1
M  ISO  4  38 100  61 101  73 100  84 101
M  END
> <Batch ID>
0134

> <Smiles>
CNC(C)C(=O)NC(C(=O)N1Cc2cc([101O:1][101CH2:1]CC(=O)N3CCCC3c3cccc([100NH:0][100C:0](=O)N4CCCC(n5nc(-c6ccc(Oc7ccc(F)cc7F)cc6)c(C(N)=O)c5N)C4)n3)ccc2CC1C(=O)NC1CCCc2ccccc21)C(C)(C)C

> <Shape>
0.195

> <Color>
0.173

> <Negative vol penalty>
0.000

$$$$

  -OEChem-04052320573D

 84 92  0     1  0  0  0  0  0999 V2000
  -20.0552  -30.7087   27.5817 C   0  0  0  0  0  0  0  0  0  0  0  0
  -20.9035  -29.7296   28.0892 C   0  0  0  0  0  0  0  0  0  0  0  0
  -23.4856   -9.7043   20.0037 C   0  0  0  0  0  0  0  0  0  0  0  0
  -24.0267   -9.9611   22.3443 C   0  0  0  0  0  0  0  0  0  0  0  0
  -19.7713  -30.7443   26.2172 C   0  0  0  0  0  0  0  0  0  0  0  0
  -21.4674  -28.7850   27.2324 C   0  0  0  0  0  0  0  0  0  0  0  0
  -27.4132  -24.8864   26.3582 C   0  0  0  0  0  0  0  0  0  0  0  0
  -30.3754  -19.2931   25.3180 C   0  0  0  0  0  0  0  0  0  0  0  0
  -30.7588  -18.0110   24.9243 C   0  0  0  0  0  0  0  0  0  0  0  0
  -22.8972   -8.4692   20.2752 C   0  0  0  0  0  0  0  0  0  0  0  0
  -23.4382   -8.7259   22.6158 C   0  0  0  0  0  0  0  0  0  0  0  0
  -27.8163  -23.5666   26.1598 C   0  0  0  0  0  0  0  0  0  0  0  0
  -20.3187   -7.4884   23.0127 C   0  0  0  0  0  0  0  0  0  0  0  0
  -19.4731   -7.4042   24.1188 C   0  0  0  0  0  0  0  0  0  0  0  0
  -27.3171  -23.7739   23.8088 C   0  0  0  0  0  0  0  0  0  0  0  0
  -28.0525  -18.6631   25.1078 C   0  0  0  0  0  0  0  0  0  0  0  0
  -20.9107   -5.7226   25.0898 C   0  0  0  0  0  0  0  0  0  0  0  0
  -24.0504  -10.4503   21.0382 C   0  0  0  0  0  0  0  0  0  0  0  0
  -24.0322  -12.9866   20.7651 C   0  0  0  0  0  0  0  0  0  0  0  0
  -20.3396  -29.8055   25.3418 C   0  0  0  0  0  0  0  0  0  0  0  0
  -26.9480  -25.6577   25.2835 C   0  0  0  0  0  0  0  0  0  0  0  0
  -21.1897  -28.8073   25.8551 C   0  0  0  0  0  0  0  0  0  0  0  0
  -26.9111  -25.1040   23.9958 C   0  0  0  0  0  0  0  0  0  0  0  0
  -29.0223  -19.6191   25.4098 C   0  0  0  0  0  0  0  0  0  0  0  0
  -28.4358  -17.3810   24.7140 C   0  0  0  0  0  0  0  0  0  0  0  0
  -29.7890  -17.0550   24.6223 C   0  0  0  0  0  0  0  0  0  0  0  0
  -22.8735   -7.9800   21.5812 C   0  0  0  0  0  0  0  0  0  0  0  0
  -27.7656  -23.0092   24.8855 C   0  0  0  0  0  0  0  0  0  0  0  0
  -21.4603   -6.6896   22.9450 C   0  0  0  0  0  0  0  0  0  0  0  0
  -19.7691   -6.5214   25.1574 C   0  0  0  0  0  0  0  0  0  0  0  0
  -21.7562   -5.8067   23.9836 C   0  0  0  0  0  0  0  0  0  0  0  0
  -24.6589  -11.7260   20.7583 C   0  0  0  0  0  0  0  0  0  0  0  0
  -25.0325  -13.8691   20.4379 C   0  0  0  0  0  0  0  0  0  0  0  0
  -22.6679  -13.3291   21.0425 C   0  0  0  0  0  0  0  0  0  0  0  0
  -24.2007  -27.0908   24.5744 C   0  0  0  0  0  0  0  0  0  0  0  0
  -25.9009  -28.2478   22.0659 C   0  0  0  0  0  0  0  0  0  0  0  0
  -28.5545  -27.8852   19.9508 C   0  0  0  0  0  0  0  0  0  0  0  0
  -30.9909  -13.6670   20.9924 C   0  0  0  0  0  0  0  0  0  0  0  0
  -19.9657  -29.8552   23.8816 C   0  0  0  0  0  0  0  0  0  0  0  0
  -26.5421  -27.0883   25.5094 C   0  0  0  0  0  0  0  0  0  0  0  0
  -26.4388  -25.8963   22.8051 C   0  0  0  0  0  0  0  0  0  0  0  0
  -20.9004  -29.0466   22.9856 C   0  0  0  0  0  0  0  0  0  0  0  0
  -29.1349  -14.1396   17.9910 C   0  0  0  0  0  0  0  0  0  0  0  0
  -21.1556  -27.6680   23.5865 C   0  0  0  0  0  0  0  0  0  0  0  0
  -27.7208  -13.6883   18.3605 C   0  0  0  0  0  0  0  0  0  0  0  0
  -30.1976  -13.2841   18.6771 C   0  0  0  0  0  0  0  0  0  0  0  0
  -28.6471  -12.7331   20.5118 C   0  0  0  0  0  0  0  0  0  0  0  0
  -21.8404  -27.7803   24.9539 C   0  0  1  0  0  0  0  0  0  0  0  0
  -25.6002  -27.6193   24.4331 C   0  0  1  0  0  0  0  0  0  0  0  0
  -27.5411  -13.6014   19.8880 C   0  0  2  0  0  0  0  0  0  0  0  0
  -26.5022  -16.8038   23.2035 C   0  0  0  0  0  0  0  0  0  0  0  0
  -26.4863  -16.0590   25.6118 C   0  0  0  0  0  0  0  0  0  0  0  0
  -29.6639  -28.9696   17.9782 C   0  0  0  0  0  0  0  0  0  0  0  0
  -23.7047  -27.1710   20.2419 C   0  0  0  0  0  0  0  0  0  0  0  0
  -25.2813  -27.4196   18.3129 C   0  0  0  0  0  0  0  0  0  0  0  0
  -24.5722  -29.4296   19.6090 C   0  0  0  0  0  0  0  0  0  0  0  0
  -31.0700  -28.3090   21.4513 C   0  0  0  0  0  0  0  0  0  0  0  0
  -28.6104  -20.9983   25.8334 C   0  0  0  0  0  0  0  0  0  1  0  0
  -31.5020  -15.4825   23.7177 C   0  0  0  0  0  0  0  0  0  0  0  0
  -31.6364  -14.0091   23.3642 C   0  0  0  0  0  0  0  0  0  0  0  0
  -27.3762  -16.3765   24.3965 C   0  0  0  0  0  0  0  0  0  0  0  0
  -26.1786  -27.7823   20.6569 C   0  0  1  0  0  0  0  0  0  0  0  0
  -29.6204  -28.8652   19.4948 C   0  0  2  0  0  0  0  0  0  0  0  0
  -24.9413  -27.9348   19.7277 C   0  0  0  0  0  0  0  0  0  0  0  0
  -25.9568  -11.7971   20.4510 N   0  0  0  0  0  0  0  0  0  0  0  0
  -26.1538  -13.1129   20.2616 N   0  0  0  0  0  0  0  0  0  0  0  0
  -26.0466  -27.2888   23.0782 N   0  0  0  0  0  0  0  0  0  0  0  0
  -29.9712  -13.2442   20.1239 N   0  0  0  0  0  0  0  0  0  0  0  0
  -25.0535  -15.2104   20.2866 N   0  0  0  0  0  0  0  0  0  0  0  0
  -21.7721  -12.2996   21.3617 N   0  0  0  0  0  0  0  0  0  0  0  0
  -30.1956  -15.7622   24.2253 N   0  0  0  0  0  0  0  0  0  0  0  0
  -23.2492  -28.0690   24.7915 N   0  0  0  0  0  0  0  0  0  0  0  0
  -27.3565  -28.5172   20.2089 N   0  0  0  0  0  0  0  0  0  0  0  0
  -30.6916  -13.6028   22.3478 N   0  0  0  0  0  0  0  0  0  0  0  0
  -30.9628  -28.4308   19.9746 N   0  3  0  0  0  0  0  0  0  0  0  0
  -22.2516  -14.5114   20.9921 O   0  0  0  0  0  0  0  0  0  0  0  0
  -23.9990  -25.8849   24.4911 O   0  0  0  0  0  0  0  0  0  0  0  0
  -25.5740  -29.4210   22.2618 O   0  0  0  0  0  0  0  0  0  0  0  0
  -28.7627  -26.6792   20.0629 O   0  0  0  0  0  0  0  0  0  0  0  0
  -32.0849  -14.0766   20.5897 O   0  0  0  0  0  0  0  0  0  0  0  0
  -22.2992   -6.7748   21.8466 O   0  0  0  0  0  0  0  0  0  0  0  0
  -28.1578  -21.7210   24.6892 O   0  0  0  0  0  0  0  0  0  1  0  0
  -18.9578   -6.4418   26.2202 F   0  0  0  0  0  0  0  0  0  0  0  0
  -22.8521   -5.0377   23.9249 F   0  0  0  0  0  0  0  0  0  0  0  0
  1  2  1  0  0  0  0
  1  5  2  0  0  0  0
  2  6  2  0  0  0  0
  3 10  2  0  0  0  0
  3 18  1  0  0  0  0
  4 11  1  0  0  0  0
  4 18  2  0  0  0  0
  5 20  1  0  0  0  0
  6 22  1  0  0  0  0
  7 12  2  0  0  0  0
  7 21  1  0  0  0  0
  8  9  2  0  0  0  0
  8 24  1  0  0  0  0
  9 26  1  0  0  0  0
 10 27  1  0  0  0  0
 11 27  2  0  0  0  0
 12 28  1  0  0  0  0
 13 14  2  0  0  0  0
 13 29  1  0  0  0  0
 14 30  1  0  0  0  0
 15 23  1  0  0  0  0
 15 28  2  0  0  0  0
 16 24  2  0  0  0  0
 16 25  1  0  0  0  0
 17 30  2  0  0  0  0
 17 31  1  0  0  0  0
 18 32  1  0  0  0  0
 19 32  1  0  0  0  0
 19 33  2  0  0  0  0
 19 34  1  0  0  0  0
 20 22  2  0  0  0  0
 20 39  1  0  0  0  0
 21 23  2  0  0  0  0
 21 40  1  0  0  0  0
 22 48  1  0  0  0  0
 23 41  1  0  0  0  0
 24 58  1  0  0  0  0
 25 26  2  0  0  0  0
 25 61  1  0  0  0  0
 26 71  1  0  0  0  0
 27 81  1  0  0  0  0
 28 82  1  0  0  0  0
 29 31  2  0  0  0  0
 29 81  1  0  0  0  0
 30 83  1  0  0  0  0
 31 84  1  0  0  0  0
 32 65  2  0  0  0  0
 33 66  1  0  0  0  0
 33 69  1  0  0  0  0
 34 70  1  0  0  0  0
 34 76  2  0  0  0  0
 35 49  1  0  0  0  0
 35 72  1  0  0  0  0
 35 77  2  0  0  0  0
 36 62  1  0  0  0  0
 36 67  1  0  0  0  0
 36 78  2  0  0  0  0
 37 63  1  0  0  0  0
 37 73  1  0  0  0  0
 37 79  2  0  0  0  0
 38 68  1  0  0  0  0
 38 74  1  0  0  0  0
 38 80  2  0  0  0  0
 39 42  1  0  0  0  0
 40 49  1  0  0  0  0
 41 67  1  0  0  0  0
 42 44  1  0  0  0  0
 43 45  1  0  0  0  0
 43 46  1  0  0  0  0
 44 48  1  0  0  0  0
 45 50  1  0  0  0  0
 46 68  1  0  0  0  0
 47 50  1  0  0  0  0
 47 68  1  0  0  0  0
 48 72  1  0  0  0  0
 49 67  1  0  0  0  0
 50 66  1  0  0  0  0
 51 61  1  0  0  0  0
 52 61  1  0  0  0  0
 53 63  1  0  0  0  0
 54 64  1  0  0  0  0
 55 64  1  0  0  0  0
 56 64  1  0  0  0  0
 57 75  1  0  0  0  0
 58 82  1  0  0  0  0
 59 60  1  0  0  0  0
 59 71  1  0  0  0  0
 60 74  1  0  0  0  0
 62 64  1  0  0  0  0
 62 73  1  0  0  0  0
 63 75  1  0  0  0  0
 65 66  1  0  0  0  0
M  CHG  1  75   1
M  ISO  4  38 100  58 101  74 100  82 101
M  END
> <Batch ID>
0134

> <Smiles>
CNC(C)C(=O)NC(C(=O)N1Cc2cc([101O:1][101CH2:1]c3ccc(NCC[100NH:0][100C:0](=O)N4CCCC(n5nc(-c6ccc(Oc7ccc(F)cc7F)cc6)c(C(N)=O)c5N)C4)c(C(C)C)c3)ccc2CC1C(=O)NC1CCCc2ccccc21)C(C)(C)C

> <Shape>
0.232

> <Color>
0.177

> <Negative vol penalty>
0.000

$$$$

  -OEChem-04052320573D

 84 93  0     1  0  0  0  0  0999 V2000
  -18.5040  -32.0189   19.8796 C   0  0  0  0  0  0  0  0  0  0  0  0
  -19.7843  -31.6458   19.4831 C   0  0  0  0  0  0  0  0  0  0  0  0
  -25.6765  -15.4864   22.5754 C   0  0  0  0  0  0  0  0  0  0  0  0
  -25.3593  -14.9330   20.2451 C   0  0  0  0  0  0  0  0  0  0  0  0
  -18.1056  -31.8396   21.2037 C   0  0  0  0  0  0  0  0  0  0  0  0
  -20.6673  -31.0943   20.4107 C   0  0  0  0  0  0  0  0  0  0  0  0
  -24.8792  -26.7729   19.3661 C   0  0  0  0  0  0  0  0  0  0  0  0
  -31.4836  -24.8618   17.2902 C   0  0  0  0  0  0  0  0  0  0  0  0
  -31.2139  -25.8468   18.2537 C   0  0  0  0  0  0  0  0  0  0  0  0
  -24.7019  -14.5536   22.9296 C   0  0  0  0  0  0  0  0  0  0  0  0
  -24.3847  -14.0000   20.5994 C   0  0  0  0  0  0  0  0  0  0  0  0
  -26.2518  -26.8383   19.1310 C   0  0  0  0  0  0  0  0  0  0  0  0
  -22.0693  -11.2150   20.9160 C   0  0  0  0  0  0  0  0  0  0  0  0
  -22.1142   -9.9638   20.3012 C   0  0  0  0  0  0  0  0  0  0  0  0
  -26.6663  -26.4200   21.4704 C   0  0  0  0  0  0  0  0  0  0  0  0
  -24.3237   -9.5979   21.2074 C   0  0  0  0  0  0  0  0  0  0  0  0
  -26.0052  -15.6762   21.2331 C   0  0  0  0  0  0  0  0  0  0  0  0
  -28.3946  -16.4155   20.7314 C   0  0  0  0  0  0  0  0  0  0  0  0
  -18.9809  -31.2767   22.1458 C   0  0  0  0  0  0  0  0  0  0  0  0
  -24.3887  -26.5410   20.6592 C   0  0  0  0  0  0  0  0  0  0  0  0
  -20.2807  -30.9086   21.7489 C   0  0  0  0  0  0  0  0  0  0  0  0
  -25.2870  -26.3496   21.7188 C   0  0  0  0  0  0  0  0  0  0  0  0
  -31.5589  -23.2054   19.0079 C   0  0  0  0  0  0  0  0  0  0  0  0
  -31.2894  -24.1874   19.9685 C   0  0  0  0  0  0  0  0  0  0  0  0
  -31.6523  -23.5269   17.6643 C   0  0  0  0  0  0  0  0  0  0  0  0
  -31.1085  -25.5111   19.6053 C   0  0  0  0  0  0  0  0  0  0  0  0
  -24.0560  -13.8104   21.9416 C   0  0  0  0  0  0  0  0  0  0  0  0
  -27.1456  -26.6647   20.1837 C   0  0  0  0  0  0  0  0  0  0  0  0
  -23.1516  -11.6577   21.6765 C   0  0  0  0  0  0  0  0  0  0  0  0
  -23.2414   -9.1552   20.4469 C   0  0  0  0  0  0  0  0  0  0  0  0
  -24.2788  -10.8491   21.8222 C   0  0  0  0  0  0  0  0  0  0  0  0
  -27.0115  -16.6401   20.8665 C   0  0  0  0  0  0  0  0  0  0  0  0
  -28.9073  -17.6375   20.3705 C   0  0  0  0  0  0  0  0  0  0  0  0
  -29.1486  -15.2100   20.9156 C   0  0  0  0  0  0  0  0  0  0  0  0
  -22.5779  -28.1745   22.6979 C   0  0  0  0  0  0  0  0  0  0  0  0
  -22.7555  -25.4432   24.4388 C   0  0  0  0  0  0  0  0  0  0  0  0
  -24.4483  -22.5670   25.1519 C   0  0  0  0  0  0  0  0  0  0  0  0
  -28.6746  -22.3033   17.3173 C   0  0  0  0  0  0  0  0  0  0  0  0
  -18.5215  -31.1462   23.5764 C   0  0  0  0  0  0  0  0  0  0  0  0
  -22.9056  -26.4467   20.8914 C   0  0  0  0  0  0  0  0  0  0  0  0
  -31.6634  -21.8544   19.6419 C   0  0  0  0  0  0  0  0  0  0  0  0
  -31.1875  -23.5838   21.3336 C   0  0  0  0  0  0  0  0  0  0  0  0
  -24.8119  -26.0778   23.1219 C   0  0  0  0  0  0  0  0  0  0  0  0
  -19.3896  -30.2089   24.4118 C   0  0  0  0  0  0  0  0  0  0  0  0
  -31.8854  -22.2331   21.1140 C   0  0  0  0  0  0  0  0  0  0  0  0
  -26.7684  -22.2211   20.3233 C   0  0  0  0  0  0  0  0  0  0  0  0
  -20.8683  -30.5078   24.1861 C   0  0  0  0  0  0  0  0  0  0  0  0
  -26.7707  -20.7431   20.7176 C   0  0  0  0  0  0  0  0  0  0  0  0
  -26.6989  -22.4010   18.8085 C   0  0  0  0  0  0  0  0  0  0  0  0
  -27.7359  -20.1951   18.4446 C   0  0  0  0  0  0  0  0  0  0  0  0
  -21.2588  -30.2841   22.7202 C   0  0  1  0  0  0  0  0  0  0  0  0
  -22.5092  -26.7169   22.3396 C   0  0  1  0  0  0  0  0  0  0  0  0
  -27.8614  -19.9623   19.9600 C   0  0  2  0  0  0  0  0  0  0  0  0
  -24.9054  -20.3329   26.1995 C   0  0  0  0  0  0  0  0  0  0  0  0
  -23.7289  -27.1449   26.7769 C   0  0  0  0  0  0  0  0  0  0  0  0
  -24.5215  -25.0444   27.8851 C   0  0  0  0  0  0  0  0  0  0  0  0
  -22.0950  -25.3561   27.3976 C   0  0  0  0  0  0  0  0  0  0  0  0
  -23.0386  -21.1310   22.9817 C   0  0  0  0  0  0  0  0  0  0  0  0
  -31.9199  -22.4881   16.6316 C   0  0  0  0  0  0  0  0  0  0  0  0
  -30.8003  -26.5759   20.6298 C   0  0  0  0  0  0  0  0  0  0  0  0
  -30.6682  -22.0471   15.8616 C   0  0  0  0  0  0  0  0  0  0  0  0
  -29.3444  -26.5417   21.0816 C   0  0  0  0  0  0  0  0  0  1  0  0
  -23.6942  -24.9058   25.4919 C   0  0  1  0  0  0  0  0  0  0  0  0
  -23.9781  -21.1308   25.2960 C   0  0  2  0  0  0  0  0  0  0  0  0
  -23.5192  -25.6198   26.8619 C   0  0  0  0  0  0  0  0  0  0  0  0
  -26.6673  -17.9053   20.6123 N   0  0  0  0  0  0  0  0  0  0  0  0
  -27.8416  -18.4868   20.3139 N   0  0  0  0  0  0  0  0  0  0  0  0
  -23.3524  -26.0012   23.2994 N   0  0  0  0  0  0  0  0  0  0  0  0
  -27.7609  -21.6364   18.1500 N   0  0  0  0  0  0  0  0  0  0  0  0
  -30.1612  -18.0577   20.0993 N   0  0  0  0  0  0  0  0  0  0  0  0
  -28.4646  -14.0442   21.2864 N   0  0  0  0  0  0  0  0  0  0  0  0
  -21.4109  -28.8709   22.4477 N   0  0  0  0  0  0  0  0  0  0  0  0
  -23.4747  -23.4642   25.5371 N   0  0  0  0  0  0  0  0  0  0  0  0
  -29.6533  -21.5053   16.7375 N   0  0  0  0  0  0  0  0  0  0  0  0
  -23.9322  -20.4646   23.9637 N   0  3  0  0  0  0  0  0  0  0  0  0
  -30.3942  -15.1716   20.7721 O   0  0  0  0  0  0  0  0  0  0  0  0
  -23.6126  -28.6331   23.1679 O   0  0  0  0  0  0  0  0  0  0  0  0
  -21.5375  -25.3642   24.6173 O   0  0  0  0  0  0  0  0  0  0  0  0
  -25.5686  -22.8631   24.7424 O   0  0  0  0  0  0  0  0  0  0  0  0
  -28.6252  -23.5205   17.1104 O   0  0  0  0  0  0  0  0  0  0  0  0
  -23.1051  -12.8998   22.2870 O   0  0  0  0  0  0  0  0  0  0  0  0
  -28.4859  -26.7287   19.9572 O   0  0  0  0  0  0  0  0  0  1  0  0
  -23.2838   -7.9531   19.8577 F   0  0  0  0  0  0  0  0  0  0  0  0
  -25.3211  -11.2685   22.5526 F   0  0  0  0  0  0  0  0  0  0  0  0
  1  2  1  0  0  0  0
  1  5  2  0  0  0  0
  2  6  2  0  0  0  0
  3 10  2  0  0  0  0
  3 17  1  0  0  0  0
  4 11  1  0  0  0  0
  4 17  2  0  0  0  0
  5 19  1  0  0  0  0
  6 21  1  0  0  0  0
  7 12  2  0  0  0  0
  7 20  1  0  0  0  0
  8  9  2  0  0  0  0
  8 25  1  0  0  0  0
  9 26  1  0  0  0  0
 10 27  1  0  0  0  0
 11 27  2  0  0  0  0
 12 28  1  0  0  0  0
 13 14  2  0  0  0  0
 13 29  1  0  0  0  0
 14 30  1  0  0  0  0
 15 22  1  0  0  0  0
 15 28  2  0  0  0  0
 16 30  2  0  0  0  0
 16 31  1  0  0  0  0
 17 32  1  0  0  0  0
 18 32  1  0  0  0  0
 18 33  2  0  0  0  0
 18 34  1  0  0  0  0
 19 21  2  0  0  0  0
 19 39  1  0  0  0  0
 20 22  2  0  0  0  0
 20 40  1  0  0  0  0
 21 51  1  0  0  0  0
 22 43  1  0  0  0  0
 23 24  1  0  0  0  0
 23 25  2  0  0  0  0
 23 41  1  0  0  0  0
 24 26  2  0  0  0  0
 24 42  1  0  0  0  0
 25 59  1  0  0  0  0
 26 60  1  0  0  0  0
 27 81  1  0  0  0  0
 28 82  1  0  0  0  0
 29 31  2  0  0  0  0
 29 81  1  0  0  0  0
 30 83  1  0  0  0  0
 31 84  1  0  0  0  0
 32 66  2  0  0  0  0
 33 67  1  0  0  0  0
 33 70  1  0  0  0  0
 34 71  1  0  0  0  0
 34 76  2  0  0  0  0
 35 52  1  0  0  0  0
 35 72  1  0  0  0  0
 35 77  2  0  0  0  0
 36 63  1  0  0  0  0
 36 68  1  0  0  0  0
 36 78  2  0  0  0  0
 37 64  1  0  0  0  0
 37 73  1  0  0  0  0
 37 79  2  0  0  0  0
 38 69  1  0  0  0  0
 38 74  1  0  0  0  0
 38 80  2  0  0  0  0
 39 44  1  0  0  0  0
 40 52  1  0  0  0  0
 41 45  1  0  0  0  0
 42 45  1  0  0  0  0
 43 68  1  0  0  0  0
 44 47  1  0  0  0  0
 46 48  1  0  0  0  0
 46 49  1  0  0  0  0
 47 51  1  0  0  0  0
 48 53  1  0  0  0  0
 49 69  1  0  0  0  0
 50 53  1  0  0  0  0
 50 69  1  0  0  0  0
 51 72  1  0  0  0  0
 52 68  1  0  0  0  0
 53 67  1  0  0  0  0
 54 64  1  0  0  0  0
 55 65  1  0  0  0  0
 56 65  1  0  0  0  0
 57 65  1  0  0  0  0
 58 75  1  0  0  0  0
 59 61  1  0  0  0  0
 60 62  1  0  0  0  0
 61 74  1  0  0  0  0
 62 82  1  0  0  0  0
 63 65  1  0  0  0  0
 63 73  1  0  0  0  0
 64 75  1  0  0  0  0
 66 67  1  0  0  0  0
M  CHG  1  75   1
M  ISO  4  38 100  62 101  74 100  82 101
M  END
> <Batch ID>
0134

> <Smiles>
CNC(C)C(=O)NC(C(=O)N1Cc2cc([101O:1][101CH2:1]Cc3ccc(CC[100NH:0][100C:0](=O)N4CCCC(n5nc(-c6ccc(Oc7ccc(F)cc7F)cc6)c(C(N)=O)c5N)C4)c4c3CCC4)ccc2CC1C(=O)NC1CCCc2ccccc21)C(C)(C)C

> <Shape>
0.216

> <Color>
0.077

> <Negative vol penalty>
0.000

$$$$

  -OEChem-04052320573D

 89 99  0     1  0  0  0  0  0999 V2000
  -17.0386  -27.2457   26.0538 C   0  0  0  0  0  0  0  0  0  0  0  0
  -18.1549  -26.4229   25.9433 C   0  0  0  0  0  0  0  0  0  0  0  0
  -23.1820  -10.2160   22.1410 C   0  0  0  0  0  0  0  0  0  0  0  0
  -23.6960   -9.5477   19.8769 C   0  0  0  0  0  0  0  0  0  0  0  0
  -16.7586  -28.1768   25.0545 C   0  0  0  0  0  0  0  0  0  0  0  0
  -18.9913  -26.5300   24.8327 C   0  0  0  0  0  0  0  0  0  0  0  0
  -25.0675  -25.7735   24.7137 C   0  0  0  0  0  0  0  0  0  0  0  0
  -28.7979  -16.8059   22.1386 C   0  0  0  0  0  0  0  0  0  0  0  0
  -29.8467  -15.9926   22.5773 C   0  0  0  0  0  0  0  0  0  0  0  0
  -22.4158   -9.0624   22.3076 C   0  0  0  0  0  0  0  0  0  0  0  0
  -22.9299   -8.3940   20.0435 C   0  0  0  0  0  0  0  0  0  0  0  0
  -25.8713  -24.6932   24.3524 C   0  0  0  0  0  0  0  0  0  0  0  0
  -22.9548   -5.7811   22.9205 C   0  0  0  0  0  0  0  0  0  0  0  0
  -23.1202   -5.0581   24.1017 C   0  0  0  0  0  0  0  0  0  0  0  0
  -28.9059  -14.9886   25.9168 C   0  0  0  0  0  0  0  0  0  0  0  0
  -27.6170  -16.5162   24.2406 C   0  0  0  0  0  0  0  0  0  0  0  0
  -26.1273  -25.6300   22.1442 C   0  0  0  0  0  0  0  0  0  0  0  0
  -20.7864   -5.3897   24.6315 C   0  0  0  0  0  0  0  0  0  0  0  0
  -30.1148  -14.3440   25.7908 C   0  0  0  0  0  0  0  0  0  0  0  0
  -28.6623  -15.6931   24.7047 C   0  0  0  0  0  0  0  0  0  0  0  0
  -23.8221  -10.4587   20.9256 C   0  0  0  0  0  0  0  0  0  0  0  0
  -24.1752  -12.9842   20.8576 C   0  0  0  0  0  0  0  0  0  0  0  0
  -17.5974  -28.3020   23.9358 C   0  0  0  0  0  0  0  0  0  0  0  0
  -24.7781  -26.7864   23.7881 C   0  0  0  0  0  0  0  0  0  0  0  0
  -18.7216  -27.4627   23.8169 C   0  0  0  0  0  0  0  0  0  0  0  0
  -25.3216  -26.7234   22.4970 C   0  0  0  0  0  0  0  0  0  0  0  0
  -27.6993  -17.0650   22.9557 C   0  0  0  0  0  0  0  0  0  0  0  0
  -29.7508  -15.4508   23.8640 C   0  0  0  0  0  0  0  0  0  0  0  0
  -22.2898   -8.1514   21.2589 C   0  0  0  0  0  0  0  0  0  0  0  0
  -26.3990  -24.6198   23.0666 C   0  0  0  0  0  0  0  0  0  0  0  0
  -21.7052   -6.3086   22.5947 C   0  0  0  0  0  0  0  0  0  0  0  0
  -22.0360   -4.8624   24.9572 C   0  0  0  0  0  0  0  0  0  0  0  0
  -20.6210   -6.1128   23.4502 C   0  0  0  0  0  0  0  0  0  0  0  0
  -24.6132  -11.6505   20.7527 C   0  0  0  0  0  0  0  0  0  0  0  0
  -25.2979  -13.7350   20.6081 C   0  0  0  0  0  0  0  0  0  0  0  0
  -22.8701  -13.4986   21.1543 C   0  0  0  0  0  0  0  0  0  0  0  0
  -22.1237  -27.9061   22.4450 C   0  0  0  0  0  0  0  0  0  0  0  0
  -24.1436  -30.1342   21.2293 C   0  0  0  0  0  0  0  0  0  0  0  0
  -27.3279  -30.9797   20.3392 C   0  0  0  0  0  0  0  0  0  0  0  0
  -31.1542  -12.6255   21.1769 C   0  0  0  0  0  0  0  0  0  0  0  0
  -17.2277  -29.2904   22.8583 C   0  0  0  0  0  0  0  0  0  0  0  0
  -23.9312  -27.9586   24.2017 C   0  0  0  0  0  0  0  0  0  0  0  0
  -25.0576  -27.7952   21.4724 C   0  0  0  0  0  0  0  0  0  0  0  0
  -18.3721  -29.5991   21.8963 C   0  0  0  0  0  0  0  0  0  0  0  0
  -29.4376  -13.5984   18.2132 C   0  0  0  0  0  0  0  0  0  0  0  0
  -19.0541  -28.3108   21.4470 C   0  0  0  0  0  0  0  0  0  0  0  0
  -27.9670  -13.3298   18.5375 C   0  0  0  0  0  0  0  0  0  0  0  0
  -26.6018  -21.6205   21.4076 C   0  0  0  0  0  0  0  0  0  0  0  0
  -27.3947  -21.4353   23.7888 C   0  0  0  0  0  0  0  0  0  0  0  0
  -30.3537  -12.5460   18.8340 C   0  0  0  0  0  0  0  0  0  0  0  0
  -28.7087  -12.0833   20.6098 C   0  0  0  0  0  0  0  0  0  0  0  0
  -26.1163  -20.1805   21.4601 C   0  0  0  0  0  0  0  0  0  0  0  0
  -26.9071  -19.9958   23.8367 C   0  0  0  0  0  0  0  0  0  0  0  0
  -19.6666  -27.5660   22.6394 C   0  0  1  0  0  0  0  0  0  0  0  0
  -23.2810  -28.6723   23.0205 C   0  0  1  0  0  0  0  0  0  0  0  0
  -27.7506  -13.1497   20.0521 C   0  0  2  0  0  0  0  0  0  0  0  0
  -26.6010  -22.2700   22.7887 C   0  0  0  0  0  0  0  0  0  1  0  0
  -28.6613  -32.8552   19.3383 C   0  0  0  0  0  0  0  0  0  0  0  0
  -23.0636  -29.4239   18.4655 C   0  0  0  0  0  0  0  0  0  0  0  0
  -25.0421  -30.5905   17.4691 C   0  0  0  0  0  0  0  0  0  0  0  0
  -23.4086  -31.8703   18.8536 C   0  0  0  0  0  0  0  0  0  0  0  0
  -28.9871  -31.2543   22.7745 C   0  0  0  0  0  0  0  0  0  0  0  0
  -26.5913  -17.9440   22.4552 C   0  0  0  0  0  0  0  0  0  0  0  0
  -31.8790  -14.1306   24.0468 C   0  0  0  0  0  0  0  0  0  0  0  0
  -31.8018  -12.6819   23.5721 C   0  0  0  0  0  0  0  0  0  0  0  0
  -24.9851  -30.2467   19.9810 C   0  0  1  0  0  0  0  0  0  0  0  0
  -28.1583  -32.2180   20.6243 C   0  0  2  0  0  0  0  0  0  0  0  0
  -24.1284  -30.5115   18.7108 C   0  0  0  0  0  0  0  0  0  0  0  0
  -25.9128  -11.5561   20.4592 N   0  0  0  0  0  0  0  0  0  0  0  0
  -30.6169  -14.6290   24.5494 N   0  0  0  0  0  0  0  0  0  0  0  0
  -26.3010  -12.8401   20.3775 N   0  0  0  0  0  0  0  0  0  0  0  0
  -24.2186  -28.9179   21.9228 N   0  0  0  0  0  0  0  0  0  0  0  0
  -30.0991  -12.4254   20.2716 N   0  0  0  0  0  0  0  0  0  0  0  0
  -25.5151  -15.0667   20.5655 N   0  0  0  0  0  0  0  0  0  0  0  0
  -21.8297  -12.5882   21.3846 N   0  0  0  0  0  0  0  0  0  0  0  0
  -20.9094  -28.1896   23.0405 N   0  0  0  0  0  0  0  0  0  0  0  0
  -25.9837  -31.2748   20.2532 N   0  0  0  0  0  0  0  0  0  0  0  0
  -30.8257  -12.4988   22.5211 N   0  0  0  0  0  0  0  0  0  0  0  0
  -26.9545  -19.4035   22.4478 N   0  3  0  0  0  0  0  0  0  0  0  0
  -29.3363  -31.8689   21.4678 N   0  3  0  0  0  0  0  0  0  0  0  0
  -22.6300  -14.7290   21.1971 O   0  0  0  0  0  0  0  0  0  0  0  0
  -22.3177  -27.1172   21.5275 O   0  0  0  0  0  0  0  0  0  0  0  0
  -23.4510  -31.0927   21.5802 O   0  0  0  0  0  0  0  0  0  0  0  0
  -27.8225  -29.8629   20.2024 O   0  0  0  0  0  0  0  0  0  0  0  0
  -32.3027  -12.9023   20.8144 O   0  0  0  0  0  0  0  0  0  0  0  0
  -21.5424   -7.0255   21.4212 O   0  0  0  0  0  0  0  0  0  0  0  0
  -27.1833  -23.5661   22.7111 O   0  0  0  0  0  0  0  0  0  1  0  0
  -22.1946   -4.1667   26.0908 F   0  0  0  0  0  0  0  0  0  0  0  0
  -19.4178   -6.6161   23.1420 F   0  0  0  0  0  0  0  0  0  0  0  0
  1  2  1  0  0  0  0
  1  5  2  0  0  0  0
  2  6  2  0  0  0  0
  3 10  2  0  0  0  0
  3 21  1  0  0  0  0
  4 11  1  0  0  0  0
  4 21  2  0  0  0  0
  5 23  1  0  0  0  0
  6 25  1  0  0  0  0
  7 12  2  0  0  0  0
  7 24  1  0  0  0  0
  8  9  2  0  0  0  0
  8 27  1  0  0  0  0
  9 28  1  0  0  0  0
 10 29  1  0  0  0  0
 11 29  2  0  0  0  0
 12 30  1  0  0  0  0
 13 14  2  0  0  0  0
 13 31  1  0  0  0  0
 14 32  1  0  0  0  0
 15 19  2  0  0  0  0
 15 20  1  0  0  0  0
 16 20  1  0  0  0  0
 16 27  2  0  0  0  0
 17 26  1  0  0  0  0
 17 30  2  0  0  0  0
 18 32  2  0  0  0  0
 18 33  1  0  0  0  0
 19 70  1  0  0  0  0
 20 28  2  0  0  0  0
 21 34  1  0  0  0  0
 22 34  1  0  0  0  0
 22 35  2  0  0  0  0
 22 36  1  0  0  0  0
 23 25  2  0  0  0  0
 23 41  1  0  0  0  0
 24 26  2  0  0  0  0
 24 42  1  0  0  0  0
 25 54  1  0  0  0  0
 26 43  1  0  0  0  0
 27 63  1  0  0  0  0
 28 70  1  0  0  0  0
 29 86  1  0  0  0  0
 30 87  1  0  0  0  0
 31 33  2  0  0  0  0
 31 86  1  0  0  0  0
 32 88  1  0  0  0  0
 33 89  1  0  0  0  0
 34 69  2  0  0  0  0
 35 71  1  0  0  0  0
 35 74  1  0  0  0  0
 36 75  1  0  0  0  0
 36 81  2  0  0  0  0
 37 55  1  0  0  0  0
 37 76  1  0  0  0  0
 37 82  2  0  0  0  0
 38 66  1  0  0  0  0
 38 72  1  0  0  0  0
 38 83  2  0  0  0  0
 39 67  1  0  0  0  0
 39 77  1  0  0  0  0
 39 84  2  0  0  0  0
 40 73  1  0  0  0  0
 40 78  1  0  0  0  0
 40 85  2  0  0  0  0
 41 44  1  0  0  0  0
 42 55  1  0  0  0  0
 43 72  1  0  0  0  0
 44 46  1  0  0  0  0
 45 47  1  0  0  0  0
 45 50  1  0  0  0  0
 46 54  1  0  0  0  0
 47 56  1  0  0  0  0
 48 52  1  0  0  0  0
 48 57  1  0  0  0  0
 49 53  1  0  0  0  0
 49 57  1  0  0  0  0
 50 73  1  0  0  0  0
 51 56  1  0  0  0  0
 51 73  1  0  0  0  0
 52 79  1  0  0  0  0
 53 79  1  0  0  0  0
 54 76  1  0  0  0  0
 55 72  1  0  0  0  0
 56 71  1  0  0  0  0
 57 87  1  0  0  0  0
 58 67  1  0  0  0  0
 59 68  1  0  0  0  0
 60 68  1  0  0  0  0
 61 68  1  0  0  0  0
 62 80  1  0  0  0  0
 63 79  1  0  0  0  0
 64 65  1  0  0  0  0
 64 70  1  0  0  0  0
 65 78  1  0  0  0  0
 66 68  1  0  0  0  0
 66 77  1  0  0  0  0
 67 80  1  0  0  0  0
 69 71  1  0  0  0  0
M  CHG  2  79   1  80   1
M  ISO  4  40 100  57 101  78 100  87 101
M  END
> <Batch ID>
0134

> <Smiles>
CNC(C)C(=O)NC(C(=O)N1Cc2cc([101O:1][101CH:1]3CCN(Cc4ccc5c(ccn5CC[100NH:0][100C:0](=O)N5CCCC(n6nc(-c7ccc(Oc8ccc(F)cc8F)cc7)c(C(N)=O)c6N)C5)c4)CC3)ccc2CC1C(=O)NC1CCCc2ccccc21)C(C)(C)C

> <Shape>
0.257

> <Color>
0.194

> <Negative vol penalty>
0.000

$$$$

  -OEChem-04052320573D

 87 96  0     1  0  0  0  0  0999 V2000
  -27.0378  -34.6889   17.9622 C   0  0  0  0  0  0  0  0  0  0  0  0
  -27.7567  -33.5009   17.8774 C   0  0  0  0  0  0  0  0  0  0  0  0
  -23.4441   -9.6634   20.3784 C   0  0  0  0  0  0  0  0  0  0  0  0
  -24.0673  -10.1541   22.6605 C   0  0  0  0  0  0  0  0  0  0  0  0
  -26.3976  -35.0315   19.1524 C   0  0  0  0  0  0  0  0  0  0  0  0
  -27.8366  -32.6552   18.9832 C   0  0  0  0  0  0  0  0  0  0  0  0
  -28.0344  -26.5344   18.9301 C   0  0  0  0  0  0  0  0  0  0  0  0
  -22.8406   -8.4780   20.7980 C   0  0  0  0  0  0  0  0  0  0  0  0
  -23.4638   -8.9686   23.0802 C   0  0  0  0  0  0  0  0  0  0  0  0
  -29.0903  -25.6292   19.0278 C   0  0  0  0  0  0  0  0  0  0  0  0
  -20.3352   -7.8529   23.7026 C   0  0  0  0  0  0  0  0  0  0  0  0
  -19.5252   -7.9061   24.8369 C   0  0  0  0  0  0  0  0  0  0  0  0
  -28.6790  -25.4141   21.3950 C   0  0  0  0  0  0  0  0  0  0  0  0
  -29.4417  -19.5901   21.8215 C   0  0  0  0  0  0  0  0  0  0  0  0
  -20.9604   -6.3039   25.9369 C   0  0  0  0  0  0  0  0  0  0  0  0
  -31.7588  -18.2301   21.3447 C   0  0  0  0  0  0  0  0  0  0  0  0
  -24.0575  -10.5014   21.3096 C   0  0  0  0  0  0  0  0  0  0  0  0
  -24.0806  -12.9942   20.7683 C   0  0  0  0  0  0  0  0  0  0  0  0
  -26.4616  -34.1849   20.2704 C   0  0  0  0  0  0  0  0  0  0  0  0
  -27.2987  -26.8952   20.0680 C   0  0  0  0  0  0  0  0  0  0  0  0
  -27.1977  -32.9874   20.1899 C   0  0  0  0  0  0  0  0  0  0  0  0
  -27.6126  -26.3222   21.3087 C   0  0  0  0  0  0  0  0  0  0  0  0
  -29.6185  -18.3278   22.3771 C   0  0  0  0  0  0  0  0  0  0  0  0
  -30.7962  -17.6282   22.1390 C   0  0  0  0  0  0  0  0  0  0  0  0
  -22.8504   -8.1306   22.1489 C   0  0  0  0  0  0  0  0  0  0  0  0
  -29.4145  -25.0711   20.2609 C   0  0  0  0  0  0  0  0  0  0  0  0
  -21.4578   -7.0251   23.6854 C   0  0  0  0  0  0  0  0  0  0  0  0
  -19.8378   -7.1316   25.9541 C   0  0  0  0  0  0  0  0  0  0  0  0
  -21.7704   -6.2507   24.8026 C   0  0  0  0  0  0  0  0  0  0  0  0
  -24.6816  -11.7258   20.8766 C   0  0  0  0  0  0  0  0  0  0  0  0
  -30.4651  -20.1043   21.0415 C   0  0  0  0  0  0  0  0  0  0  0  0
  -25.0868  -13.8137   20.3182 C   0  0  0  0  0  0  0  0  0  0  0  0
  -22.7333  -13.3959   21.0494 C   0  0  0  0  0  0  0  0  0  0  0  0
  -26.7763  -29.6121   21.6331 C   0  0  0  0  0  0  0  0  0  0  0  0
  -24.7191  -27.7773   23.3431 C   0  0  0  0  0  0  0  0  0  0  0  0
  -23.8156  -24.6650   24.4126 C   0  0  0  0  0  0  0  0  0  0  0  0
  -30.7930  -14.6092   20.8847 C   0  0  0  0  0  0  0  0  0  0  0  0
  -25.7927  -34.6204   21.5500 C   0  0  0  0  0  0  0  0  0  0  0  0
  -26.1456  -27.8527   19.9412 C   0  0  0  0  0  0  0  0  0  0  0  0
  -26.8407  -26.6610   22.5568 C   0  0  0  0  0  0  0  0  0  0  0  0
  -25.6141  -33.4893   22.5595 C   0  0  0  0  0  0  0  0  0  0  0  0
  -29.3864  -13.0933   17.9864 C   0  0  0  0  0  0  0  0  0  0  0  0
  -28.2189  -18.6309   24.4456 C   0  0  0  0  0  0  0  0  0  0  0  0
  -26.9032  -32.6848   22.6934 C   0  0  0  0  0  0  0  0  0  0  0  0
  -26.7859  -19.1148   24.2480 C   0  0  0  0  0  0  0  0  0  0  0  0
  -27.9739  -12.7040   18.4262 C   0  0  0  0  0  0  0  0  0  0  0  0
  -27.2160  -17.6304   22.4372 C   0  0  0  0  0  0  0  0  0  0  0  0
  -30.3977  -12.9191   19.1173 C   0  0  0  0  0  0  0  0  0  0  0  0
  -28.6346  -13.2190   20.8130 C   0  0  0  0  0  0  0  0  0  0  0  0
  -28.5351  -17.7451   23.2229 C   0  0  1  0  0  0  0  0  0  0  0  0
  -27.2870  -32.0319   21.3600 C   0  0  1  0  0  0  0  0  0  0  0  0
  -25.7927  -28.5406   21.2563 C   0  0  1  0  0  0  0  0  0  0  0  0
  -26.1341  -17.9876   23.4546 C   0  0  2  0  0  0  0  0  0  0  0  0
  -27.5701  -13.4310   19.7230 C   0  0  2  0  0  0  0  0  0  0  0  0
  -24.8187  -18.3930   22.8125 C   0  0  0  0  0  0  0  0  0  0  0  0
  -22.1126  -23.4863   25.8296 C   0  0  0  0  0  0  0  0  0  0  0  0
  -26.1557  -28.7326   25.8598 C   0  0  0  0  0  0  0  0  0  0  0  0
  -25.0779  -26.8477   27.1063 C   0  0  0  0  0  0  0  0  0  0  0  0
  -23.6655  -28.6177   26.0600 C   0  0  0  0  0  0  0  0  0  0  0  0
  -22.8242  -23.0871   22.1133 C   0  0  0  0  0  0  0  0  0  0  0  0
  -31.0375  -16.2737   22.7092 C   0  0  0  0  0  0  0  0  0  0  0  0
  -31.2488  -22.0296   19.6615 C   0  0  0  0  0  0  0  0  0  0  0  0
  -30.7219  -23.3827   19.2139 C   0  0  0  0  0  0  0  0  0  1  0  0
  -24.8257  -26.9243   24.5841 C   0  0  1  0  0  0  0  0  0  0  0  0
  -22.4736  -23.9557   24.4288 C   0  0  2  0  0  0  0  0  0  0  0  0
  -24.9471  -27.7755   25.8795 C   0  0  0  0  0  0  0  0  0  0  0  0
  -31.6231  -19.4545   20.7879 N   0  0  0  0  0  0  0  0  0  0  0  0
  -25.9698  -11.7338   20.5237 N   0  0  0  0  0  0  0  0  0  0  0  0
  -26.1864  -13.0172   20.1890 N   0  0  0  0  0  0  0  0  0  0  0  0
  -25.7261  -27.6069   22.3824 N   0  0  0  0  0  0  0  0  0  0  0  0
  -29.9563  -13.6340   20.3173 N   0  0  0  0  0  0  0  0  0  0  0  0
  -25.1294  -15.1305   20.0242 N   0  0  0  0  0  0  0  0  0  0  0  0
  -21.8283  -12.4270   21.5040 N   0  0  0  0  0  0  0  0  0  0  0  0
  -30.2748  -21.3625   20.4947 N   0  0  0  0  0  0  0  0  0  0  0  0
  -26.4744  -30.8588   21.1193 N   0  0  0  0  0  0  0  0  0  0  0  0
  -23.6746  -26.0283   24.5636 N   0  0  0  0  0  0  0  0  0  0  0  0
  -30.2959  -15.2436   22.0166 N   0  0  0  0  0  0  0  0  0  0  0  0
  -22.5043  -22.7684   23.5286 N   0  3  0  0  0  0  0  0  0  0  0  0
  -22.3391  -14.5755   20.8861 O   0  0  0  0  0  0  0  0  0  0  0  0
  -27.7372  -29.3290   22.3390 O   0  0  0  0  0  0  0  0  0  0  0  0
  -23.7733  -28.5606   23.2270 O   0  0  0  0  0  0  0  0  0  0  0  0
  -24.8826  -24.0689   24.2829 O   0  0  0  0  0  0  0  0  0  0  0  0
  -31.8987  -14.8972   20.4141 O   0  0  0  0  0  0  0  0  0  0  0  0
  -22.2614   -6.9740   22.5588 O   0  0  0  0  0  0  0  0  0  0  0  0
  -30.4451  -24.1878   20.3591 O   0  0  0  0  0  0  0  0  0  1  0  0
  -19.0607   -7.1840   27.0438 F   0  0  0  0  0  0  0  0  0  0  0  0
  -22.8482   -5.4545   24.7925 F   0  0  0  0  0  0  0  0  0  0  0  0
  1  2  1  0  0  0  0
  1  5  2  0  0  0  0
  2  6  2  0  0  0  0
  3  8  2  0  0  0  0
  3 17  1  0  0  0  0
  4  9  1  0  0  0  0
  4 17  2  0  0  0  0
  5 19  1  0  0  0  0
  6 21  1  0  0  0  0
  7 10  2  0  0  0  0
  7 20  1  0  0  0  0
  8 25  1  0  0  0  0
  9 25  2  0  0  0  0
 10 26  1  0  0  0  0
 11 12  2  0  0  0  0
 11 27  1  0  0  0  0
 12 28  1  0  0  0  0
 13 22  1  0  0  0  0
 13 26  2  0  0  0  0
 14 23  2  0  0  0  0
 14 31  1  0  0  0  0
 15 28  2  0  0  0  0
 15 29  1  0  0  0  0
 16 24  2  0  0  0  0
 16 67  1  0  0  0  0
 17 30  1  0  0  0  0
 18 30  1  0  0  0  0
 18 32  2  0  0  0  0
 18 33  1  0  0  0  0
 19 21  2  0  0  0  0
 19 38  1  0  0  0  0
 20 22  2  0  0  0  0
 20 39  1  0  0  0  0
 21 51  1  0  0  0  0
 22 40  1  0  0  0  0
 23 24  1  0  0  0  0
 23 50  1  0  0  0  0
 24 61  1  0  0  0  0
 25 84  1  0  0  0  0
 26 85  1  0  0  0  0
 27 29  2  0  0  0  0
 27 84  1  0  0  0  0
 28 86  1  0  0  0  0
 29 87  1  0  0  0  0
 30 68  2  0  0  0  0
 31 67  2  0  0  0  0
 31 74  1  0  0  0  0
 32 69  1  0  0  0  0
 32 72  1  0  0  0  0
 33 73  1  0  0  0  0
 33 79  2  0  0  0  0
 34 52  1  0  0  0  0
 34 75  1  0  0  0  0
 34 80  2  0  0  0  0
 35 64  1  0  0  0  0
 35 70  1  0  0  0  0
 35 81  2  0  0  0  0
 36 65  1  0  0  0  0
 36 76  1  0  0  0  0
 36 82  2  0  0  0  0
 37 71  1  0  0  0  0
 37 77  1  0  0  0  0
 37 83  2  0  0  0  0
 38 41  1  0  0  0  0
 39 52  1  0  0  0  0
 40 70  1  0  0  0  0
 41 44  1  0  0  0  0
 42 46  1  0  0  0  0
 42 48  1  0  0  0  0
 43 45  1  0  0  0  0
 43 50  1  0  0  0  0
 44 51  1  0  0  0  0
 45 53  1  0  0  0  0
 46 54  1  0  0  0  0
 47 50  1  0  0  0  0
 47 53  1  0  0  0  0
 48 71  1  0  0  0  0
 49 54  1  0  0  0  0
 49 71  1  0  0  0  0
 51 75  1  0  0  0  0
 52 70  1  0  0  0  0
 53 55  1  0  0  0  0
 54 69  1  0  0  0  0
 56 65  1  0  0  0  0
 57 66  1  0  0  0  0
 58 66  1  0  0  0  0
 59 66  1  0  0  0  0
 60 78  1  0  0  0  0
 61 77  1  0  0  0  0
 62 63  1  0  0  0  0
 62 74  1  0  0  0  0
 63 85  1  0  0  0  0
 64 66  1  0  0  0  0
 64 76  1  0  0  0  0
 65 78  1  0  0  0  0
 68 69  1  0  0  0  0
M  CHG  1  78   1
M  ISO  4  37 100  63 101  77 100  85 101
M  END
> <Batch ID>
0134

> <Smiles>
CNC(C)C(=O)NC(C(=O)N1Cc2cc([101O:1][101CH2:1]CNc3cc(C4CCC(C)C4)c(C[100NH:0][100C:0](=O)N4CCCC(n5nc(-c6ccc(Oc7ccc(F)cc7F)cc6)c(C(N)=O)c5N)C4)cn3)ccc2CC1C(=O)NC1CCCc2ccccc21)C(C)(C)C

> <Shape>
0.270

> <Color>
0.180

> <Negative vol penalty>
0.000

$$$$

  -OEChem-04052320573D

 82 90  0     1  0  0  0  0  0999 V2000
  -32.4868  -23.7770   28.0475 C   0  0  0  0  0  0  0  0  0  0  0  0
  -32.0790  -23.9221   26.7254 C   0  0  0  0  0  0  0  0  0  0  0  0
  -27.8015  -13.8600   21.9466 C   0  0  0  0  0  0  0  0  0  0  0  0
  -27.4012  -14.4725   19.6440 C   0  0  0  0  0  0  0  0  0  0  0  0
  -31.5747  -23.3577   29.0151 C   0  0  0  0  0  0  0  0  0  0  0  0
  -30.7590  -23.6469   26.3699 C   0  0  0  0  0  0  0  0  0  0  0  0
  -28.7951  -27.1737   23.3121 C   0  0  0  0  0  0  0  0  0  0  0  0
  -28.1373  -26.6301   15.1324 C   0  0  0  0  0  0  0  0  0  0  0  0
  -27.6185  -26.5997   16.4268 C   0  0  0  0  0  0  0  0  0  0  0  0
  -26.9151  -12.7909   21.8163 C   0  0  0  0  0  0  0  0  0  0  0  0
  -26.5149  -13.4033   19.5137 C   0  0  0  0  0  0  0  0  0  0  0  0
  -29.1598  -27.1251   21.9673 C   0  0  0  0  0  0  0  0  0  0  0  0
  -23.5684  -12.3180   21.8037 C   0  0  0  0  0  0  0  0  0  0  0  0
  -22.6422  -12.1166   22.8271 C   0  0  0  0  0  0  0  0  0  0  0  0
  -27.0701  -26.0385   21.4461 C   0  0  0  0  0  0  0  0  0  0  0  0
  -30.0230  -25.3049   15.8570 C   0  0  0  0  0  0  0  0  0  0  0  0
  -23.5547   -9.9142   23.2194 C   0  0  0  0  0  0  0  0  0  0  0  0
  -28.0445  -14.7009   20.8605 C   0  0  0  0  0  0  0  0  0  0  0  0
  -30.3460  -15.7957   20.7507 C   0  0  0  0  0  0  0  0  0  0  0  0
  -30.2405  -23.0865   28.6731 C   0  0  0  0  0  0  0  0  0  0  0  0
  -27.5678  -26.6443   23.7363 C   0  0  0  0  0  0  0  0  0  0  0  0
  -29.8285  -23.2223   27.3336 C   0  0  0  0  0  0  0  0  0  0  0  0
  -26.6910  -26.0839   22.7964 C   0  0  0  0  0  0  0  0  0  0  0  0
  -29.3395  -25.9826   14.8475 C   0  0  0  0  0  0  0  0  0  0  0  0
  -28.3020  -25.9220   17.4364 C   0  0  0  0  0  0  0  0  0  0  0  0
  -29.5042  -25.2745   17.1515 C   0  0  0  0  0  0  0  0  0  0  0  0
  -26.2718  -12.5626   20.5999 C   0  0  0  0  0  0  0  0  0  0  0  0
  -28.2985  -26.5548   21.0345 C   0  0  0  0  0  0  0  0  0  0  0  0
  -24.4877  -11.3175   21.4881 C   0  0  0  0  0  0  0  0  0  0  0  0
  -22.6354  -10.9147   23.5349 C   0  0  0  0  0  0  0  0  0  0  0  0
  -24.4809  -10.1156   22.1959 C   0  0  0  0  0  0  0  0  0  0  0  0
  -28.9596  -15.8057   20.9946 C   0  0  0  0  0  0  0  0  0  0  0  0
  -30.7515  -17.0799   21.0209 C   0  0  0  0  0  0  0  0  0  0  0  0
  -31.1917  -14.7216   20.3185 C   0  0  0  0  0  0  0  0  0  0  0  0
  -26.6933  -24.3102   25.7088 C   0  0  0  0  0  0  0  0  0  0  0  0
  -23.7160  -25.4532   25.1159 C   0  0  0  0  0  0  0  0  0  0  0  0
  -21.6348  -27.1702   23.0261 C   0  0  0  0  0  0  0  0  0  0  0  0
  -30.0294  -22.5988   20.6139 C   0  0  0  0  0  0  0  0  0  0  0  0
  -29.3027  -22.5904   29.7450 C   0  0  0  0  0  0  0  0  0  0  0  0
  -27.1775  -26.7286   25.1865 C   0  0  0  0  0  0  0  0  0  0  0  0
  -25.3533  -25.5200   23.1974 C   0  0  0  0  0  0  0  0  0  0  0  0
  -27.8296  -22.6798   29.3547 C   0  0  0  0  0  0  0  0  0  0  0  0
  -28.2955  -20.9125   23.2267 C   0  0  0  0  0  0  0  0  0  0  0  0
  -27.6169  -22.1361   27.9455 C   0  0  0  0  0  0  0  0  0  0  0  0
  -28.4228  -19.4340   22.8554 C   0  0  0  0  0  0  0  0  0  0  0  0
  -28.1334  -21.7931   21.9897 C   0  0  0  0  0  0  0  0  0  0  0  0
  -29.3025  -20.1355   20.5899 C   0  0  0  0  0  0  0  0  0  0  0  0
  -28.3991  -22.9573   26.9134 C   0  0  1  0  0  0  0  0  0  0  0  0
  -26.1268  -25.6962   25.5834 C   0  0  1  0  0  0  0  0  0  0  0  0
  -29.5241  -19.2134   21.8011 C   0  0  2  0  0  0  0  0  0  0  0  0
  -29.8937  -26.0154   13.4634 C   0  0  0  0  0  0  0  0  0  0  0  0
  -19.2477  -27.9080   22.7927 C   0  0  0  0  0  0  0  0  0  0  0  0
  -22.9175  -22.6140   24.3342 C   0  0  0  0  0  0  0  0  0  0  0  0
  -20.8794  -23.5647   23.2340 C   0  0  0  0  0  0  0  0  0  0  0  0
  -21.2121  -23.8413   25.6907 C   0  0  0  0  0  0  0  0  0  0  0  0
  -22.3983  -30.0295   23.0131 C   0  0  0  0  0  0  0  0  0  0  0  0
  -27.7218  -25.9072   18.8200 C   0  0  0  0  0  0  0  0  0  1  0  0
  -31.4460  -23.9086   17.9192 C   0  0  0  0  0  0  0  0  0  0  0  0
  -31.9563  -23.2508   19.1922 C   0  0  0  0  0  0  0  0  0  0  0  0
  -22.6471  -25.1698   24.0882 C   0  0  1  0  0  0  0  0  0  0  0  0
  -20.6354  -28.2819   23.2899 C   0  0  2  0  0  0  0  0  0  0  0  0
  -21.9400  -23.8062   24.3292 C   0  0  0  0  0  0  0  0  0  0  0  0
  -28.5141  -17.0014   21.3895 N   0  0  0  0  0  0  0  0  0  0  0  0
  -29.6271  -17.7546   21.3959 N   0  0  0  0  0  0  0  0  0  0  0  0
  -25.0198  -25.6202   24.6279 N   0  0  0  0  0  0  0  0  0  0  0  0
  -29.2103  -21.5363   21.0303 N   0  0  0  0  0  0  0  0  0  0  0  0
  -31.9565  -17.6863   20.9720 N   0  0  0  0  0  0  0  0  0  0  0  0
  -30.6121  -13.4668   20.0862 N   0  0  0  0  0  0  0  0  0  0  0  0
  -30.2105  -24.5851   18.1614 N   0  0  0  0  0  0  0  0  0  0  0  0
  -27.7145  -24.2012   26.6333 N   0  0  0  0  0  0  0  0  0  0  0  0
  -21.7494  -26.3197   24.1053 N   0  0  0  0  0  0  0  0  0  0  0  0
  -31.0298  -22.2678   19.7082 N   0  0  0  0  0  0  0  0  0  0  0  0
  -21.0596  -29.5339   22.6017 N   0  3  0  0  0  0  0  0  0  0  0  0
  -32.4276  -14.8660   20.1592 O   0  0  0  0  0  0  0  0  0  0  0  0
  -26.2367  -23.4061   25.0189 O   0  0  0  0  0  0  0  0  0  0  0  0
  -23.4045  -25.5309   26.3069 O   0  0  0  0  0  0  0  0  0  0  0  0
  -22.2495  -27.0645   21.9670 O   0  0  0  0  0  0  0  0  0  0  0  0
  -29.8836  -23.7555   21.0234 O   0  0  0  0  0  0  0  0  0  0  0  0
  -25.4070  -11.5193   20.4724 O   0  0  0  0  0  0  0  0  0  0  0  0
  -28.6523  -26.5055   19.7214 O   0  0  0  0  0  0  0  0  0  1  0  0
  -21.7470  -10.7220   24.5187 F   0  0  0  0  0  0  0  0  0  0  0  0
  -25.3624   -9.1512   21.8981 F   0  0  0  0  0  0  0  0  0  0  0  0
  1  2  1  0  0  0  0
  1  5  2  0  0  0  0
  2  6  2  0  0  0  0
  3 10  2  0  0  0  0
  3 18  1  0  0  0  0
  4 11  1  0  0  0  0
  4 18  2  0  0  0  0
  5 20  1  0  0  0  0
  6 22  1  0  0  0  0
  7 12  2  0  0  0  0
  7 21  1  0  0  0  0
  8  9  2  0  0  0  0
  8 24  1  0  0  0  0
  9 25  1  0  0  0  0
 10 27  1  0  0  0  0
 11 27  2  0  0  0  0
 12 28  1  0  0  0  0
 13 14  2  0  0  0  0
 13 29  1  0  0  0  0
 14 30  1  0  0  0  0
 15 23  1  0  0  0  0
 15 28  2  0  0  0  0
 16 24  2  0  0  0  0
 16 26  1  0  0  0  0
 17 30  2  0  0  0  0
 17 31  1  0  0  0  0
 18 32  1  0  0  0  0
 19 32  1  0  0  0  0
 19 33  2  0  0  0  0
 19 34  1  0  0  0  0
 20 22  2  0  0  0  0
 20 39  1  0  0  0  0
 21 23  2  0  0  0  0
 21 40  1  0  0  0  0
 22 48  1  0  0  0  0
 23 41  1  0  0  0  0
 24 51  1  0  0  0  0
 25 26  2  0  0  0  0
 25 57  1  0  0  0  0
 26 69  1  0  0  0  0
 27 79  1  0  0  0  0
 28 80  1  0  0  0  0
 29 31  2  0  0  0  0
 29 79  1  0  0  0  0
 30 81  1  0  0  0  0
 31 82  1  0  0  0  0
 32 63  2  0  0  0  0
 33 64  1  0  0  0  0
 33 67  1  0  0  0  0
 34 68  1  0  0  0  0
 34 74  2  0  0  0  0
 35 49  1  0  0  0  0
 35 70  1  0  0  0  0
 35 75  2  0  0  0  0
 36 60  1  0  0  0  0
 36 65  1  0  0  0  0
 36 76  2  0  0  0  0
 37 61  1  0  0  0  0
 37 71  1  0  0  0  0
 37 77  2  0  0  0  0
 38 66  1  0  0  0  0
 38 72  1  0  0  0  0
 38 78  2  0  0  0  0
 39 42  1  0  0  0  0
 40 49  1  0  0  0  0
 41 65  1  0  0  0  0
 42 44  1  0  0  0  0
 43 45  1  0  0  0  0
 43 46  1  0  0  0  0
 44 48  1  0  0  0  0
 45 50  1  0  0  0  0
 46 66  1  0  0  0  0
 47 50  1  0  0  0  0
 47 66  1  0  0  0  0
 48 70  1  0  0  0  0
 49 65  1  0  0  0  0
 50 64  1  0  0  0  0
 52 61  1  0  0  0  0
 53 62  1  0  0  0  0
 54 62  1  0  0  0  0
 55 62  1  0  0  0  0
 56 73  1  0  0  0  0
 57 80  1  0  0  0  0
 58 59  1  0  0  0  0
 58 69  1  0  0  0  0
 59 72  1  0  0  0  0
 60 62  1  0  0  0  0
 60 71  1  0  0  0  0
 61 73  1  0  0  0  0
 63 64  1  0  0  0  0
M  CHG  1  73   1
M  ISO  4  38 100  57 101  72 100  80 101
M  END
> <Batch ID>
0134

> <Smiles>
CNC(C)C(=O)NC(C(=O)N1Cc2cc([101O:1][101CH2:1]c3ccc(C)cc3NCC[100NH:0][100C:0](=O)N3CCCC(n4nc(-c5ccc(Oc6ccc(F)cc6F)cc5)c(C(N)=O)c4N)C3)ccc2CC1C(=O)NC1CCCc2ccccc21)C(C)(C)C

> <Shape>
0.199

> <Color>
0.059

> <Negative vol penalty>
0.000

$$$$

  -OEChem-04052320573D

 83 92  0     1  0  0  0  0  0999 V2000
  -28.7524  -35.9281   22.2989 C   0  0  0  0  0  0  0  0  0  0  0  0
  -28.9304  -34.5573   22.1419 C   0  0  0  0  0  0  0  0  0  0  0  0
  -24.9597  -14.9668   21.4245 C   0  0  0  0  0  0  0  0  0  0  0  0
  -23.9349  -14.1380   19.3997 C   0  0  0  0  0  0  0  0  0  0  0  0
  -27.6431  -36.4109   22.9918 C   0  0  0  0  0  0  0  0  0  0  0  0
  -27.9997  -33.6685   22.6787 C   0  0  0  0  0  0  0  0  0  0  0  0
  -28.7490  -24.4896   17.3210 C   0  0  0  0  0  0  0  0  0  0  0  0
  -26.7583  -29.9702   19.4497 C   0  0  0  0  0  0  0  0  0  0  0  0
  -28.0755  -23.3752   16.8176 C   0  0  0  0  0  0  0  0  0  0  0  0
  -25.3323  -13.6672   21.7679 C   0  0  0  0  0  0  0  0  0  0  0  0
  -24.3075  -12.8384   19.7431 C   0  0  0  0  0  0  0  0  0  0  0  0
  -27.6650  -28.9213   19.3039 C   0  0  0  0  0  0  0  0  0  0  0  0
  -23.2230  -10.4030   21.8224 C   0  0  0  0  0  0  0  0  0  0  0  0
  -22.2693   -9.3955   21.6768 C   0  0  0  0  0  0  0  0  0  0  0  0
  -29.0082  -22.0268   18.5768 C   0  0  0  0  0  0  0  0  0  0  0  0
  -26.3296  -27.5684   20.7890 C   0  0  0  0  0  0  0  0  0  0  0  0
  -23.7170   -8.2505   20.1178 C   0  0  0  0  0  0  0  0  0  0  0  0
  -24.2610  -15.2022   20.2404 C   0  0  0  0  0  0  0  0  0  0  0  0
  -23.0449  -17.4124   20.6192 C   0  0  0  0  0  0  0  0  0  0  0  0
  -26.6932  -35.5279   23.5291 C   0  0  0  0  0  0  0  0  0  0  0  0
  -25.6342  -29.8296   20.2762 C   0  0  0  0  0  0  0  0  0  0  0  0
  -29.5492  -24.4012   18.4754 C   0  0  0  0  0  0  0  0  0  0  0  0
  -26.8773  -34.1399   23.3807 C   0  0  0  0  0  0  0  0  0  0  0  0
  -29.6968  -23.1403   19.0925 C   0  0  0  0  0  0  0  0  0  0  0  0
  -25.4087  -28.6161   20.9416 C   0  0  0  0  0  0  0  0  0  0  0  0
  -28.2007  -22.1445   17.4488 C   0  0  0  0  0  0  0  0  0  0  0  0
  -25.0062  -12.6030   20.9272 C   0  0  0  0  0  0  0  0  0  0  0  0
  -27.4524  -27.7211   19.9758 C   0  0  0  0  0  0  0  0  0  0  0  0
  -24.4236  -10.3342   21.1156 C   0  0  0  0  0  0  0  0  0  0  0  0
  -22.5163   -8.3193   20.8245 C   0  0  0  0  0  0  0  0  0  0  0  0
  -24.6706   -9.2580   20.2634 C   0  0  0  0  0  0  0  0  0  0  0  0
  -23.8754  -16.5443   19.8854 C   0  0  0  0  0  0  0  0  0  0  0  0
  -22.9903  -18.5570   19.8620 C   0  0  0  0  0  0  0  0  0  0  0  0
  -22.3821  -17.2029   21.8731 C   0  0  0  0  0  0  0  0  0  0  0  0
  -24.5847  -31.2821   22.9016 C   0  0  0  0  0  0  0  0  0  0  0  0
  -21.9732  -29.4197   22.4179 C   0  0  0  0  0  0  0  0  0  0  0  0
  -20.6474  -26.5875   21.0513 C   0  0  0  0  0  0  0  0  0  0  0  0
  -26.6818  -20.9606   15.8246 C   0  0  0  0  0  0  0  0  0  0  0  0
  -25.5350  -36.0954   24.3110 C   0  0  0  0  0  0  0  0  0  0  0  0
  -24.6514  -30.9613   20.4019 C   0  0  0  0  0  0  0  0  0  0  0  0
  -24.2067  -28.4074   21.8248 C   0  0  0  0  0  0  0  0  0  0  0  0
  -24.3987  -35.0990   24.5258 C   0  0  0  0  0  0  0  0  0  0  0  0
  -23.2730  -20.0625   15.3245 C   0  0  0  0  0  0  0  0  0  0  0  0
  -30.9103  -25.4340   20.3782 C   0  0  0  0  0  0  0  0  0  0  0  0
  -24.9489  -33.7528   24.9860 C   0  0  0  0  0  0  0  0  0  0  0  0
  -31.5759  -24.0712   20.5054 C   0  0  0  0  0  0  0  0  0  0  0  0
  -22.9632  -19.1422   16.5075 C   0  0  0  0  0  0  0  0  0  0  0  0
  -24.6971  -19.8634   14.8088 C   0  0  0  0  0  0  0  0  0  0  0  0
  -25.4377  -19.0484   17.0126 C   0  0  0  0  0  0  0  0  0  0  0  0
  -30.3040  -25.6265   18.9764 C   0  0  2  0  0  0  0  0  0  0  0  0
  -25.8766  -33.1449   23.9271 C   0  0  1  0  0  0  0  0  0  0  0  0
  -30.5610  -22.9432   20.3160 C   0  0  1  0  0  0  0  0  0  0  0  0
  -23.8133  -30.8863   21.6744 C   0  0  1  0  0  0  0  0  0  0  0  0
  -24.0360  -19.2587   17.6080 C   0  0  2  0  0  0  0  0  0  0  0  0
  -18.4923  -25.3166   20.8567 C   0  0  0  0  0  0  0  0  0  0  0  0
  -22.2936  -28.4415   25.2902 C   0  0  0  0  0  0  0  0  0  0  0  0
  -20.7638  -26.5378   24.7388 C   0  0  0  0  0  0  0  0  0  0  0  0
  -19.9321  -28.8853   24.5966 C   0  0  0  0  0  0  0  0  0  0  0  0
  -20.6329  -26.8353   18.1021 C   0  0  0  0  0  0  0  0  0  0  0  0
  -29.4582  -26.9077   18.9905 C   0  0  0  0  0  0  0  0  0  1  0  0
  -21.5517  -28.0363   22.8507 C   0  0  1  0  0  0  0  0  0  0  0  0
  -19.3975  -26.3598   20.2203 C   0  0  2  0  0  0  0  0  0  0  0  0
  -21.1591  -27.9795   24.3540 C   0  0  0  0  0  0  0  0  0  0  0  0
  -24.3166  -17.0906   18.7492 N   0  0  0  0  0  0  0  0  0  0  0  0
  -23.7611  -18.3143   18.7633 N   0  0  0  0  0  0  0  0  0  0  0  0
  -23.2780  -29.5457   21.9205 N   0  0  0  0  0  0  0  0  0  0  0  0
  -25.6590  -19.9921   15.9056 N   0  0  0  0  0  0  0  0  0  0  0  0
  -22.3585  -19.7374   20.0354 N   0  0  0  0  0  0  0  0  0  0  0  0
  -21.0879  -16.6650   21.8631 N   0  0  0  0  0  0  0  0  0  0  0  0
  -27.5164  -21.0126   16.9406 N   0  0  0  0  0  0  0  0  0  0  0  0
  -25.1028  -32.5621   22.8519 N   0  0  0  0  0  0  0  0  0  0  0  0
  -20.4873  -27.6301   21.9394 N   0  0  0  0  0  0  0  0  0  0  0  0
  -29.7396  -22.8210   21.5618 N   0  3  0  0  0  0  0  0  0  0  0  0
  -19.7626  -25.8938   18.8526 N   0  3  0  0  0  0  0  0  0  0  0  0
  -22.9151  -17.4996   22.9692 O   0  0  0  0  0  0  0  0  0  0  0  0
  -24.6999  -30.4857   23.8258 O   0  0  0  0  0  0  0  0  0  0  0  0
  -21.1717  -30.3529   22.5108 O   0  0  0  0  0  0  0  0  0  0  0  0
  -21.6627  -25.9061   20.9277 O   0  0  0  0  0  0  0  0  0  0  0  0
  -26.7914  -21.7087   14.8497 O   0  0  0  0  0  0  0  0  0  0  0  0
  -25.3697  -11.3348   21.2619 O   0  0  0  0  0  0  0  0  0  0  0  0
  -28.3445  -26.6863   19.8344 O   0  0  0  0  0  0  0  0  0  1  0  0
  -21.6011   -7.3511   20.6860 F   0  0  0  0  0  0  0  0  0  0  0  0
  -25.8227   -9.1858   19.5827 F   0  0  0  0  0  0  0  0  0  0  0  0
  1  2  1  0  0  0  0
  1  5  2  0  0  0  0
  2  6  2  0  0  0  0
  3 10  2  0  0  0  0
  3 18  1  0  0  0  0
  4 11  1  0  0  0  0
  4 18  2  0  0  0  0
  5 20  1  0  0  0  0
  6 23  1  0  0  0  0
  7  9  2  0  0  0  0
  7 22  1  0  0  0  0
  8 12  2  0  0  0  0
  8 21  1  0  0  0  0
  9 26  1  0  0  0  0
 10 27  1  0  0  0  0
 11 27  2  0  0  0  0
 12 28  1  0  0  0  0
 13 14  2  0  0  0  0
 13 29  1  0  0  0  0
 14 30  1  0  0  0  0
 15 24  1  0  0  0  0
 15 26  2  0  0  0  0
 16 25  1  0  0  0  0
 16 28  2  0  0  0  0
 17 30  2  0  0  0  0
 17 31  1  0  0  0  0
 18 32  1  0  0  0  0
 19 32  1  0  0  0  0
 19 33  2  0  0  0  0
 19 34  1  0  0  0  0
 20 23  2  0  0  0  0
 20 39  1  0  0  0  0
 21 25  2  0  0  0  0
 21 40  1  0  0  0  0
 22 24  2  0  0  0  0
 22 50  1  0  0  0  0
 23 51  1  0  0  0  0
 24 52  1  0  0  0  0
 25 41  1  0  0  0  0
 26 70  1  0  0  0  0
 27 80  1  0  0  0  0
 28 81  1  0  0  0  0
 29 31  2  0  0  0  0
 29 80  1  0  0  0  0
 30 82  1  0  0  0  0
 31 83  1  0  0  0  0
 32 64  2  0  0  0  0
 33 65  1  0  0  0  0
 33 68  1  0  0  0  0
 34 69  1  0  0  0  0
 34 75  2  0  0  0  0
 35 53  1  0  0  0  0
 35 71  1  0  0  0  0
 35 76  2  0  0  0  0
 36 61  1  0  0  0  0
 36 66  1  0  0  0  0
 36 77  2  0  0  0  0
 37 62  1  0  0  0  0
 37 72  1  0  0  0  0
 37 78  2  0  0  0  0
 38 67  1  0  0  0  0
 38 70  1  0  0  0  0
 38 79  2  0  0  0  0
 39 42  1  0  0  0  0
 40 53  1  0  0  0  0
 41 66  1  0  0  0  0
 42 45  1  0  0  0  0
 43 47  1  0  0  0  0
 43 48  1  0  0  0  0
 44 46  1  0  0  0  0
 44 50  1  0  0  0  0
 45 51  1  0  0  0  0
 46 52  1  0  0  0  0
 47 54  1  0  0  0  0
 48 67  1  0  0  0  0
 49 54  1  0  0  0  0
 49 67  1  0  0  0  0
 50 60  1  0  0  0  0
 51 71  1  0  0  0  0
 52 73  1  0  0  0  0
 53 66  1  0  0  0  0
 54 65  1  0  0  0  0
 55 62  1  0  0  0  0
 56 63  1  0  0  0  0
 57 63  1  0  0  0  0
 58 63  1  0  0  0  0
 59 74  1  0  0  0  0
 60 81  1  0  0  0  0
 61 63  1  0  0  0  0
 61 72  1  0  0  0  0
 62 74  1  0  0  0  0
 64 65  1  0  0  0  0
M  CHG  2  73   1  74   1
M  ISO  4  38 100  60 101  70 100  81 101
M  END
> <Batch ID>
0134

> <Smiles>
CNC(C)C(=O)NC(C(=O)N1Cc2cc([101O:1][101CH2:1]C3CCC(N)c4cc([100NH:0][100C:0](=O)N5CCCC(n6nc(-c7ccc(Oc8ccc(F)cc8F)cc7)c(C(N)=O)c6N)C5)ccc43)ccc2CC1C(=O)NC1CCCc2ccccc21)C(C)(C)C

> <Shape>
0.269

> <Color>
0.072

> <Negative vol penalty>
0.000

$$$$

  -OEChem-04052320573D

 86 95  0     1  0  0  0  0  0999 V2000
  -40.2715  -18.8780   23.0179 C   0  0  0  0  0  0  0  0  0  0  0  0
  -39.2055  -19.6560   23.4580 C   0  0  0  0  0  0  0  0  0  0  0  0
  -23.1060   -9.8889   19.9270 C   0  0  0  0  0  0  0  0  0  0  0  0
  -23.8785   -9.8861   22.2162 C   0  0  0  0  0  0  0  0  0  0  0  0
  -40.5624  -18.8023   21.6564 C   0  0  0  0  0  0  0  0  0  0  0  0
  -38.4303  -20.3596   22.5370 C   0  0  0  0  0  0  0  0  0  0  0  0
  -28.9576  -18.2117   25.0279 C   0  0  0  0  0  0  0  0  0  0  0  0
  -28.4536  -19.7306   23.2179 C   0  0  0  0  0  0  0  0  0  0  0  0
  -33.4668  -19.9288   23.4443 C   0  0  0  0  0  0  0  0  0  0  0  0
  -29.7493  -17.4501   24.1684 C   0  0  0  0  0  0  0  0  0  0  0  0
  -29.2454  -18.9691   22.3584 C   0  0  0  0  0  0  0  0  0  0  0  0
  -22.3817   -8.7219   20.1700 C   0  0  0  0  0  0  0  0  0  0  0  0
  -23.1542   -8.7191   22.4592 C   0  0  0  0  0  0  0  0  0  0  0  0
  -32.9377  -20.7068   24.4730 C   0  0  0  0  0  0  0  0  0  0  0  0
  -21.2199   -5.9385   23.7803 C   0  0  0  0  0  0  0  0  0  0  0  0
  -20.4710   -5.8720   24.9551 C   0  0  0  0  0  0  0  0  0  0  0  0
  -32.1269  -22.2941   22.8475 C   0  0  0  0  0  0  0  0  0  0  0  0
  -19.1921   -7.7963   24.2490 C   0  0  0  0  0  0  0  0  0  0  0  0
  -23.8545  -10.4710   20.9501 C   0  0  0  0  0  0  0  0  0  0  0  0
  -24.1561  -13.0023   20.8525 C   0  0  0  0  0  0  0  0  0  0  0  0
  -28.3097  -19.3519   24.5526 C   0  0  0  0  0  0  0  0  0  0  0  0
  -39.7844  -19.4977   20.7174 C   0  0  0  0  0  0  0  0  0  0  0  0
  -33.3392  -20.3337   22.1078 C   0  0  0  0  0  0  0  0  0  0  0  0
  -38.7118  -20.2942   21.1618 C   0  0  0  0  0  0  0  0  0  0  0  0
  -32.6530  -21.5181   21.8034 C   0  0  0  0  0  0  0  0  0  0  0  0
  -29.8933  -17.8288   22.8337 C   0  0  0  0  0  0  0  0  0  0  0  0
  -22.4058   -8.1370   21.4360 C   0  0  0  0  0  0  0  0  0  0  0  0
  -32.2701  -21.8912   24.1749 C   0  0  0  0  0  0  0  0  0  0  0  0
  -20.9550   -6.9341   22.8398 C   0  0  0  0  0  0  0  0  0  0  0  0
  -19.4571   -6.8008   25.1895 C   0  0  0  0  0  0  0  0  0  0  0  0
  -19.9411   -7.8629   23.0741 C   0  0  0  0  0  0  0  0  0  0  0  0
  -24.6034  -11.6762   20.6996 C   0  0  0  0  0  0  0  0  0  0  0  0
  -25.2343  -13.7722   20.4904 C   0  0  0  0  0  0  0  0  0  0  0  0
  -22.8800  -13.4940   21.2832 C   0  0  0  0  0  0  0  0  0  0  0  0
  -35.3768  -21.1060   19.7936 C   0  0  0  0  0  0  0  0  0  0  0  0
  -32.6823  -21.2152   17.9908 C   0  0  0  0  0  0  0  0  0  0  0  0
  -29.2944  -21.6067   17.8651 C   0  0  0  0  0  0  0  0  0  0  0  0
  -30.7024  -14.8755   20.6586 C   0  0  0  0  0  0  0  0  0  0  0  0
  -40.1664  -19.4227   19.2603 C   0  0  0  0  0  0  0  0  0  0  0  0
  -33.8922  -19.4696   21.0078 C   0  0  0  0  0  0  0  0  0  0  0  0
  -32.4712  -21.9867   20.3836 C   0  0  0  0  0  0  0  0  0  0  0  0
  -39.0656  -19.9004   18.3167 C   0  0  0  0  0  0  0  0  0  0  0  0
  -29.5889  -12.4962   18.2554 C   0  0  0  0  0  0  0  0  0  0  0  0
  -38.4752  -21.2180   18.8088 C   0  0  0  0  0  0  0  0  0  0  0  0
  -28.1587  -12.1758   18.6933 C   0  0  0  0  0  0  0  0  0  0  0  0
  -25.9870  -20.2748   25.0491 C   0  0  0  0  0  0  0  0  0  0  0  0
  -30.5092  -12.7199   19.4533 C   0  0  0  0  0  0  0  0  0  0  0  0
  -28.6040  -13.4078   20.8572 C   0  0  0  0  0  0  0  0  0  0  0  0
  -25.4442  -21.3970   25.9135 C   0  0  0  0  0  0  0  0  0  0  0  0
  -27.4517  -20.1775   25.4831 C   0  0  2  0  0  0  0  0  0  0  0  0
  -37.8324  -21.0523   20.1912 C   0  0  1  0  0  0  0  0  0  0  0  0
  -34.1517  -20.2394   19.7165 C   0  0  1  0  0  0  0  0  0  0  0  0
  -27.6261  -13.2292   19.6833 C   0  0  2  0  0  0  0  0  0  0  0  0
  -27.8547  -21.6519   25.5899 C   0  0  1  0  0  0  0  0  0  0  0  0
  -26.9922  -21.6616   16.8680 C   0  0  0  0  0  0  0  0  0  0  0  0
  -33.5051  -24.0323   17.1561 C   0  0  0  0  0  0  0  0  0  0  0  0
  -31.1651  -24.4003   16.3452 C   0  0  0  0  0  0  0  0  0  0  0  0
  -32.5782  -22.6255   15.3078 C   0  0  0  0  0  0  0  0  0  0  0  0
  -28.8842  -18.7182   18.3623 C   0  0  0  0  0  0  0  0  0  0  0  0
  -30.7415  -17.0149   21.9157 C   0  0  0  0  0  0  0  0  0  0  0  0
  -30.5907  -23.4229   24.8744 C   0  0  0  0  0  0  0  0  0  1  0  0
  -29.7294  -23.5788   26.1176 C   0  0  0  0  0  0  0  0  0  0  0  0
  -31.6715  -22.2810   17.6426 C   0  0  1  0  0  0  0  0  0  0  0  0
  -28.2131  -20.8045   17.1641 C   0  0  2  0  0  0  0  0  0  0  0  0
  -32.2349  -23.3272   16.6399 C   0  0  0  0  0  0  0  0  0  0  0  0
  -25.8672  -11.6043   20.2736 N   0  0  0  0  0  0  0  0  0  0  0  0
  -26.2232  -12.8948   20.1555 N   0  0  0  0  0  0  0  0  0  0  0  0
  -33.0353  -21.1105   19.3437 N   0  0  0  0  0  0  0  0  0  0  0  0
  -29.9475  -13.7312   20.3521 N   0  0  0  0  0  0  0  0  0  0  0  0
  -25.4234  -15.1075   20.4290 N   0  0  0  0  0  0  0  0  0  0  0  0
  -21.8844  -12.5659   21.6173 N   0  0  0  0  0  0  0  0  0  0  0  0
  -36.5392  -20.4133   20.0739 N   0  0  0  0  0  0  0  0  0  0  0  0
  -30.4841  -21.5782   17.1686 N   0  0  0  0  0  0  0  0  0  0  0  0
  -30.0935  -15.7867   21.5128 N   0  0  0  0  0  0  0  0  0  0  0  0
  -26.6097  -22.3250   26.0990 N   0  3  0  0  0  0  0  0  0  0  0  0
  -27.7866  -19.6567   18.0136 N   0  3  0  0  0  0  0  0  0  0  0  0
  -22.6248  -14.7202   21.3536 O   0  0  0  0  0  0  0  0  0  0  0  0
  -35.2752  -22.3134   19.6108 O   0  0  0  0  0  0  0  0  0  0  0  0
  -33.1364  -20.4971   17.0965 O   0  0  0  0  0  0  0  0  0  0  0  0
  -29.1019  -22.2024   18.9228 O   0  0  0  0  0  0  0  0  0  0  0  0
  -31.8329  -15.0731   20.2005 O   0  0  0  0  0  0  0  0  0  0  0  0
  -21.6989   -6.9984   21.6735 O   0  0  0  0  0  0  0  0  0  0  0  0
  -31.7533  -22.6528   25.1773 O   0  0  0  0  0  0  0  0  0  1  0  0
  -18.7369   -6.7358   26.3170 F   0  0  0  0  0  0  0  0  0  0  0  0
  -19.6812   -8.8208   22.1738 F   0  0  0  0  0  0  0  0  0  0  0  0
  -29.1959  -21.9618   26.7567 S   0  0  0  0  0  0  0  0  0  0  0  0
  1  2  1  0  0  0  0
  1  5  2  0  0  0  0
  2  6  2  0  0  0  0
  3 12  2  0  0  0  0
  3 19  1  0  0  0  0
  4 13  1  0  0  0  0
  4 19  2  0  0  0  0
  5 22  1  0  0  0  0
  6 24  1  0  0  0  0
  7 10  2  0  0  0  0
  7 21  1  0  0  0  0
  8 11  1  0  0  0  0
  8 21  2  0  0  0  0
  9 14  2  0  0  0  0
  9 23  1  0  0  0  0
 10 26  1  0  0  0  0
 11 26  2  0  0  0  0
 12 27  1  0  0  0  0
 13 27  2  0  0  0  0
 14 28  1  0  0  0  0
 15 16  2  0  0  0  0
 15 29  1  0  0  0  0
 16 30  1  0  0  0  0
 17 25  1  0  0  0  0
 17 28  2  0  0  0  0
 18 30  2  0  0  0  0
 18 31  1  0  0  0  0
 19 32  1  0  0  0  0
 20 32  1  0  0  0  0
 20 33  2  0  0  0  0
 20 34  1  0  0  0  0
 21 50  1  0  0  0  0
 22 24  2  0  0  0  0
 22 39  1  0  0  0  0
 23 25  2  0  0  0  0
 23 40  1  0  0  0  0
 24 51  1  0  0  0  0
 25 41  1  0  0  0  0
 26 60  1  0  0  0  0
 27 82  1  0  0  0  0
 28 83  1  0  0  0  0
 29 31  2  0  0  0  0
 29 82  1  0  0  0  0
 30 84  1  0  0  0  0
 31 85  1  0  0  0  0
 32 66  2  0  0  0  0
 33 67  1  0  0  0  0
 33 70  1  0  0  0  0
 34 71  1  0  0  0  0
 34 77  2  0  0  0  0
 35 52  1  0  0  0  0
 35 72  1  0  0  0  0
 35 78  2  0  0  0  0
 36 63  1  0  0  0  0
 36 68  1  0  0  0  0
 36 79  2  0  0  0  0
 37 64  1  0  0  0  0
 37 73  1  0  0  0  0
 37 80  2  0  0  0  0
 38 69  1  0  0  0  0
 38 74  1  0  0  0  0
 38 81  2  0  0  0  0
 39 42  1  0  0  0  0
 40 52  1  0  0  0  0
 41 68  1  0  0  0  0
 42 44  1  0  0  0  0
 43 45  1  0  0  0  0
 43 47  1  0  0  0  0
 44 51  1  0  0  0  0
 45 53  1  0  0  0  0
 46 49  1  0  0  0  0
 46 50  1  0  0  0  0
 47 69  1  0  0  0  0
 48 53  1  0  0  0  0
 48 69  1  0  0  0  0
 49 75  1  0  0  0  0
 50 54  1  0  0  0  0
 51 72  1  0  0  0  0
 52 68  1  0  0  0  0
 53 67  1  0  0  0  0
 54 75  1  0  0  0  0
 54 86  1  0  0  0  0
 55 64  1  0  0  0  0
 56 65  1  0  0  0  0
 57 65  1  0  0  0  0
 58 65  1  0  0  0  0
 59 76  1  0  0  0  0
 60 74  1  0  0  0  0
 61 62  1  0  0  0  0
 61 83  1  0  0  0  0
 62 86  1  0  0  0  0
 63 65  1  0  0  0  0
 63 73  1  0  0  0  0
 64 76  1  0  0  0  0
 66 67  1  0  0  0  0
M  CHG  2  75   1  76   1
M  ISO  4  38 100  61 101  74 100  83 101
M  END
> <Batch ID>
0134

> <Smiles>
CNC(C)C(=O)NC(C(=O)N1Cc2cc([101O:1][101CH2:1]CSC3NCCC3c3ccc(C[100NH:0][100C:0](=O)N4CCCC(n5nc(-c6ccc(Oc7ccc(F)cc7F)cc6)c(C(N)=O)c5N)C4)cc3)ccc2CC1C(=O)NC1CCCc2ccccc21)C(C)(C)C

> <Shape>
0.186

> <Color>
0.200

> <Negative vol penalty>
0.000

$$$$

  -OEChem-04052320573D

 85 94  0     1  0  0  0  0  0999 V2000
  -17.9991  -31.8680   24.7490 C   0  0  0  0  0  0  0  0  0  0  0  0
  -18.5994  -30.7046   25.2197 C   0  0  0  0  0  0  0  0  0  0  0  0
  -28.0772  -18.3136   18.8010 C   0  0  0  0  0  0  0  0  0  0  0  0
  -28.2995  -18.5922   21.1906 C   0  0  0  0  0  0  0  0  0  0  0  0
  -18.0853  -32.1977   23.3970 C   0  0  0  0  0  0  0  0  0  0  0  0
  -19.2854  -29.8696   24.3385 C   0  0  0  0  0  0  0  0  0  0  0  0
  -24.5305  -18.4853   24.9467 C   0  0  0  0  0  0  0  0  0  0  0  0
  -26.6777  -19.0531   25.8976 C   0  0  0  0  0  0  0  0  0  0  0  0
  -24.3012  -26.5693   25.5448 C   0  0  0  0  0  0  0  0  0  0  0  0
  -24.4106  -19.7808   24.4437 C   0  0  0  0  0  0  0  0  0  0  0  0
  -26.5579  -20.3486   25.3946 C   0  0  0  0  0  0  0  0  0  0  0  0
  -28.0136  -19.6982   18.6454 C   0  0  0  0  0  0  0  0  0  0  0  0
  -28.2359  -19.9769   21.0350 C   0  0  0  0  0  0  0  0  0  0  0  0
  -24.4842  -25.2265   25.8724 C   0  0  0  0  0  0  0  0  0  0  0  0
  -29.7094  -22.7652   18.1299 C   0  0  0  0  0  0  0  0  0  0  0  0
  -30.9087  -23.4507   17.9370 C   0  0  0  0  0  0  0  0  0  0  0  0
  -24.9352  -24.7289   23.5554 C   0  0  0  0  0  0  0  0  0  0  0  0
  -31.1329  -23.7309   20.3262 C   0  0  0  0  0  0  0  0  0  0  0  0
  -28.2201  -17.7605   20.0736 C   0  0  0  0  0  0  0  0  0  0  0  0
  -29.4399  -15.5250   20.2217 C   0  0  0  0  0  0  0  0  0  0  0  0
  -25.6640  -18.1214   25.6737 C   0  0  0  0  0  0  0  0  0  0  0  0
  -18.7809  -31.3713   22.5005 C   0  0  0  0  0  0  0  0  0  0  0  0
  -24.4234  -27.0008   24.2161 C   0  0  0  0  0  0  0  0  0  0  0  0
  -19.3799  -30.1879   22.9730 C   0  0  0  0  0  0  0  0  0  0  0  0
  -24.7558  -26.0781   23.2140 C   0  0  0  0  0  0  0  0  0  0  0  0
  -25.4243  -20.7124   24.6676 C   0  0  0  0  0  0  0  0  0  0  0  0
  -28.0930  -20.5299   19.7624 C   0  0  0  0  0  0  0  0  0  0  0  0
  -24.7984  -24.3056   24.8772 C   0  0  0  0  0  0  0  0  0  0  0  0
  -29.2217  -22.5626   19.4210 C   0  0  0  0  0  0  0  0  0  0  0  0
  -31.6205  -23.9335   19.0351 C   0  0  0  0  0  0  0  0  0  0  0  0
  -29.9335  -23.0454   20.5191 C   0  0  0  0  0  0  0  0  0  0  0  0
  -28.2852  -16.3302   20.2350 C   0  0  0  0  0  0  0  0  0  0  0  0
  -28.9706  -14.2487   20.4150 C   0  0  0  0  0  0  0  0  0  0  0  0
  -30.8138  -15.8973   20.0500 C   0  0  0  0  0  0  0  0  0  0  0  0
  -22.4644  -28.3475   22.1060 C   0  0  0  0  0  0  0  0  0  0  0  0
  -25.1581  -28.5321   20.3081 C   0  0  0  0  0  0  0  0  0  0  0  0
  -28.2786  -27.3269   19.6323 C   0  0  0  0  0  0  0  0  0  0  0  0
  -24.0288  -12.0692   22.9995 C   0  0  0  0  0  0  0  0  0  0  0  0
  -18.8068  -31.7449   21.0395 C   0  0  0  0  0  0  0  0  0  0  0  0
  -24.2492  -28.4572   23.8832 C   0  0  0  0  0  0  0  0  0  0  0  0
  -24.9182  -26.4939   21.7755 C   0  0  0  0  0  0  0  0  0  0  0  0
  -19.8711  -30.9990   20.2388 C   0  0  0  0  0  0  0  0  0  0  0  0
  -25.1141  -11.5216   19.6530 C   0  0  0  0  0  0  0  0  0  0  0  0
  -19.8430  -29.5103   20.5704 C   0  0  0  0  0  0  0  0  0  0  0  0
  -26.1540  -12.6192   19.4215 C   0  0  0  0  0  0  0  0  0  0  0  0
  -26.0581  -16.5463   27.6847 C   0  0  0  0  0  0  0  0  0  0  0  0
  -23.9597  -12.0125   20.5239 C   0  0  0  0  0  0  0  0  0  0  0  0
  -25.4048  -13.7075   21.5786 C   0  0  0  0  0  0  0  0  0  0  0  0
  -25.7922  -16.7375   26.2116 C   0  0  1  0  0  0  0  0  0  0  0  0
  -20.1539  -29.2693   22.0526 C   0  0  1  0  0  0  0  0  0  0  0  0
  -23.8917  -28.6970   22.4196 C   0  0  1  0  0  0  0  0  0  0  0  0
  -26.6162  -13.2433   20.7519 C   0  0  2  0  0  0  0  0  0  0  0  0
  -24.7125  -16.2041   27.1221 C   0  0  1  0  0  0  0  0  0  0  0  0
  -30.2236  -27.6548   18.0810 C   0  0  0  0  0  0  0  0  0  0  0  0
  -23.6224  -27.1122   18.0865 C   0  0  0  0  0  0  0  0  0  0  0  0
  -25.8138  -26.6263   16.9775 C   0  0  0  0  0  0  0  0  0  0  0  0
  -25.0831  -28.9880   17.3106 C   0  0  0  0  0  0  0  0  0  0  0  0
  -30.0966  -28.0031   21.8676 C   0  0  0  0  0  0  0  0  0  0  0  0
  -25.2970  -22.1054   24.1248 C   0  0  0  0  0  0  0  0  0  1  0  0
  -23.0035  -12.9849   26.0214 C   0  0  0  0  0  0  0  0  0  0  0  0
  -24.2139  -12.2406   25.4684 C   0  0  0  0  0  0  0  0  0  0  0  0
  -23.2268  -14.4909   26.0750 C   0  0  0  0  0  0  0  0  0  0  0  0
  -25.8382  -27.6312   19.3058 C   0  0  1  0  0  0  0  0  0  0  0  0
  -29.6061  -28.0316   19.4187 C   0  0  2  0  0  0  0  0  0  0  0  0
  -25.0845  -27.5809   17.9468 C   0  0  0  0  0  0  0  0  0  0  0  0
  -27.1666  -15.6246   20.4218 N   0  0  0  0  0  0  0  0  0  0  0  0
  -27.6162  -14.3626   20.5276 N   0  0  0  0  0  0  0  0  0  0  0  0
  -24.7318  -27.9279   21.4993 N   0  0  0  0  0  0  0  0  0  0  0  0
  -24.4656  -12.5913   21.7708 N   0  0  0  0  0  0  0  0  0  0  0  0
  -29.5886  -13.0513   20.4979 N   0  0  0  0  0  0  0  0  0  0  0  0
  -31.1204  -17.2520   19.8628 N   0  0  0  0  0  0  0  0  0  0  0  0
  -21.5755  -29.3882   22.2965 N   0  0  0  0  0  0  0  0  0  0  0  0
  -27.2171  -28.0976   19.2074 N   0  0  0  0  0  0  0  0  0  0  0  0
  -24.5621  -12.6711   24.1326 N   0  0  0  0  0  0  0  0  0  0  0  0
  -24.3673  -14.7824   26.9961 N   0  3  0  0  0  0  0  0  0  0  0  0
  -30.5659  -27.6668   20.4988 N   0  3  0  0  0  0  0  0  0  0  0  0
  -31.7404  -15.0518   20.0459 O   0  0  0  0  0  0  0  0  0  0  0  0
  -22.1902  -27.2178   21.7184 O   0  0  0  0  0  0  0  0  0  0  0  0
  -25.0168  -29.7294   20.0468 O   0  0  0  0  0  0  0  0  0  0  0  0
  -28.1922  -26.2035   20.1233 O   0  0  0  0  0  0  0  0  0  0  0  0
  -23.2273  -11.1321   23.0805 O   0  0  0  0  0  0  0  0  0  0  0  0
  -28.0313  -21.8812   19.6109 O   0  0  0  0  0  0  0  0  0  0  0  0
  -24.9768  -22.9943   25.1942 O   0  0  0  0  0  0  0  0  0  1  0  0
  -32.7730  -24.5905   18.8498 F   0  0  0  0  0  0  0  0  0  0  0  0
  -29.4707  -22.8528   21.7619 F   0  0  0  0  0  0  0  0  0  0  0  0
  1  2  1  0  0  0  0
  1  5  2  0  0  0  0
  2  6  2  0  0  0  0
  3 12  2  0  0  0  0
  3 19  1  0  0  0  0
  4 13  1  0  0  0  0
  4 19  2  0  0  0  0
  5 22  1  0  0  0  0
  6 24  1  0  0  0  0
  7 10  2  0  0  0  0
  7 21  1  0  0  0  0
  8 11  1  0  0  0  0
  8 21  2  0  0  0  0
  9 14  2  0  0  0  0
  9 23  1  0  0  0  0
 10 26  1  0  0  0  0
 11 26  2  0  0  0  0
 12 27  1  0  0  0  0
 13 27  2  0  0  0  0
 14 28  1  0  0  0  0
 15 16  2  0  0  0  0
 15 29  1  0  0  0  0
 16 30  1  0  0  0  0
 17 25  1  0  0  0  0
 17 28  2  0  0  0  0
 18 30  2  0  0  0  0
 18 31  1  0  0  0  0
 19 32  1  0  0  0  0
 20 32  1  0  0  0  0
 20 33  2  0  0  0  0
 20 34  1  0  0  0  0
 21 49  1  0  0  0  0
 22 24  2  0  0  0  0
 22 39  1  0  0  0  0
 23 25  2  0  0  0  0
 23 40  1  0  0  0  0
 24 50  1  0  0  0  0
 25 41  1  0  0  0  0
 26 59  1  0  0  0  0
 27 82  1  0  0  0  0
 28 83  1  0  0  0  0
 29 31  2  0  0  0  0
 29 82  1  0  0  0  0
 30 84  1  0  0  0  0
 31 85  1  0  0  0  0
 32 66  2  0  0  0  0
 33 67  1  0  0  0  0
 33 70  1  0  0  0  0
 34 71  1  0  0  0  0
 34 77  2  0  0  0  0
 35 51  1  0  0  0  0
 35 72  1  0  0  0  0
 35 78  2  0  0  0  0
 36 63  1  0  0  0  0
 36 68  1  0  0  0  0
 36 79  2  0  0  0  0
 37 64  1  0  0  0  0
 37 73  1  0  0  0  0
 37 80  2  0  0  0  0
 38 69  1  0  0  0  0
 38 74  1  0  0  0  0
 38 81  2  0  0  0  0
 39 42  1  0  0  0  0
 40 51  1  0  0  0  0
 41 68  1  0  0  0  0
 42 44  1  0  0  0  0
 43 45  1  0  0  0  0
 43 47  1  0  0  0  0
 44 50  1  0  0  0  0
 45 52  1  0  0  0  0
 46 49  1  0  0  0  0
 46 53  1  0  0  0  0
 47 69  1  0  0  0  0
 48 52  1  0  0  0  0
 48 69  1  0  0  0  0
 49 53  1  0  0  0  0
 50 72  1  0  0  0  0
 51 68  1  0  0  0  0
 52 67  1  0  0  0  0
 53 75  1  0  0  0  0
 54 64  1  0  0  0  0
 55 65  1  0  0  0  0
 56 65  1  0  0  0  0
 57 65  1  0  0  0  0
 58 76  1  0  0  0  0
 59 83  1  0  0  0  0
 60 61  1  0  0  0  0
 60 62  1  0  0  0  0
 61 74  1  0  0  0  0
 62 75  1  0  0  0  0
 63 65  1  0  0  0  0
 63 73  1  0  0  0  0
 64 76  1  0  0  0  0
 66 67  1  0  0  0  0
M  CHG  2  75   1  76   1
M  ISO  4  38 100  59 101  74 100  83 101
M  END
> <Batch ID>
0134

> <Smiles>
CNC(C)C(=O)NC(C(=O)N1Cc2cc([101O:1][101CH2:1]c3ccc(C4CC4NCCC[100NH:0][100C:0](=O)N4CCCC(n5nc(-c6ccc(Oc7ccc(F)cc7F)cc6)c(C(N)=O)c5N)C4)cc3)ccc2CC1C(=O)NC1CCCc2ccccc21)C(C)(C)C

> <Shape>
0.232

> <Color>
0.071

> <Negative vol penalty>
0.000

$$$$

  -OEChem-04052320573D

 90 99  0     1  0  0  0  0  0999 V2000
  -27.1023  -18.7483   15.1651 C   0  0  0  0  0  0  0  0  0  0  0  0
  -27.8377  -18.1093   16.1582 C   0  0  0  0  0  0  0  0  0  0  0  0
  -30.2663  -15.9153   23.4861 C   0  0  0  0  0  0  0  0  0  0  0  0
  -25.3015  -31.6191   21.3281 C   0  0  0  0  0  0  0  0  0  0  0  0
  -24.2530  -29.9401   22.7132 C   0  0  0  0  0  0  0  0  0  0  0  0
  -25.7090  -18.7387   15.2157 C   0  0  0  0  0  0  0  0  0  0  0  0
  -27.1801  -17.4611   17.2032 C   0  0  0  0  0  0  0  0  0  0  0  0
  -29.1474  -12.9039   18.2067 C   0  0  0  0  0  0  0  0  0  0  0  0
  -30.9938  -14.8524   22.9507 C   0  0  0  0  0  0  0  0  0  0  0  0
  -29.9893  -17.0356   22.7027 C   0  0  0  0  0  0  0  0  0  0  0  0
  -24.6699  -32.6212   22.0647 C   0  0  0  0  0  0  0  0  0  0  0  0
  -23.6214  -30.9421   23.4498 C   0  0  0  0  0  0  0  0  0  0  0  0
  -30.3323  -12.8695   18.9406 C   0  0  0  0  0  0  0  0  0  0  0  0
  -25.0938  -34.1675   25.0416 C   0  0  0  0  0  0  0  0  0  0  0  0
  -25.8600  -35.2656   25.4322 C   0  0  0  0  0  0  0  0  0  0  0  0
  -29.0753  -12.3566   20.9346 C   0  0  0  0  0  0  0  0  0  0  0  0
  -27.9875  -20.5374   19.3955 C   0  0  0  0  0  0  0  0  0  0  0  0
  -31.1676  -16.0303   20.8485 C   0  0  0  0  0  0  0  0  0  0  0  0
  -24.3859  -36.7318   24.2016 C   0  0  0  0  0  0  0  0  0  0  0  0
  -28.9063  -22.3016   18.0916 C   0  0  0  0  0  0  0  0  0  0  0  0
  -25.0930  -30.2785   21.6523 C   0  0  0  0  0  0  0  0  0  0  0  0
  -27.0034  -28.6659   21.1452 C   0  0  0  0  0  0  0  0  0  0  0  0
  -25.0339  -18.0818   16.2566 C   0  0  0  0  0  0  0  0  0  0  0  0
  -27.9145  -12.6753   18.8345 C   0  0  0  0  0  0  0  0  0  0  0  0
  -25.7765  -17.4438   17.2685 C   0  0  0  0  0  0  0  0  0  0  0  0
  -27.8765  -12.3861   20.2060 C   0  0  0  0  0  0  0  0  0  0  0  0
  -31.4445  -14.9099   21.6320 C   0  0  0  0  0  0  0  0  0  0  0  0
  -27.8177  -21.5072   18.4137 C   0  0  0  0  0  0  0  0  0  0  0  0
  -29.2233  -20.3936   20.0164 C   0  0  0  0  0  0  0  0  0  0  0  0
  -30.4400  -17.0932   21.3839 C   0  0  0  0  0  0  0  0  0  0  0  0
  -23.8299  -32.2827   23.1256 C   0  0  0  0  0  0  0  0  0  0  0  0
  -30.2962  -12.5987   20.3053 C   0  0  0  0  0  0  0  0  0  0  0  0
  -23.9737  -34.3514   24.2310 C   0  0  0  0  0  0  0  0  0  0  0  0
  -25.5061  -36.5478   25.0122 C   0  0  0  0  0  0  0  0  0  0  0  0
  -23.6197  -35.6336   23.8110 C   0  0  0  0  0  0  0  0  0  0  0  0
  -25.7447  -29.2429   20.8915 C   0  0  0  0  0  0  0  0  0  0  0  0
  -30.2490  -21.2377   19.6224 C   0  0  0  0  0  0  0  0  0  0  0  0
  -27.1642  -27.7389   20.1445 C   0  0  0  0  0  0  0  0  0  0  0  0
  -27.9433  -28.9430   22.1918 C   0  0  0  0  0  0  0  0  0  0  0  0
  -25.2742  -14.3874   19.2833 C   0  0  0  0  0  0  0  0  0  0  0  0
  -24.1448  -11.6040   20.5075 C   0  0  0  0  0  0  0  0  0  0  0  0
  -24.8237   -8.5871   21.9512 C   0  0  0  0  0  0  0  0  0  0  0  0
  -25.1577  -23.6200   16.9580 C   0  0  0  0  0  0  0  0  0  0  0  0
  -23.5272  -18.1388   16.2944 C   0  0  0  0  0  0  0  0  0  0  0  0
  -26.6477  -12.6896   18.0236 C   0  0  0  0  0  0  0  0  0  0  0  0
  -26.5805  -12.1136   20.9233 C   0  0  0  0  0  0  0  0  0  0  0  0
  -22.9022  -17.1096   17.2327 C   0  0  0  0  0  0  0  0  0  0  0  0
  -24.4960  -26.9603   15.9183 C   0  0  0  0  0  0  0  0  0  0  0  0
  -23.6267  -17.1015   18.5750 C   0  0  0  0  0  0  0  0  0  0  0  0
  -24.8596  -27.8031   17.1420 C   0  0  0  0  0  0  0  0  0  0  0  0
  -23.8601  -25.6306   16.3176 C   0  0  0  0  0  0  0  0  0  0  0  0
  -25.0121  -25.6718   18.4959 C   0  0  0  0  0  0  0  0  0  0  0  0
  -25.0992  -16.7087   18.4047 C   0  0  1  0  0  0  0  0  0  0  0  0
  -25.4023  -12.9499   18.8654 C   0  0  1  0  0  0  0  0  0  0  0  0
  -25.7076  -26.9983   18.1452 C   0  0  2  0  0  0  0  0  0  0  0  0
  -33.5089  -13.4821   21.8384 C   0  0  0  0  0  0  0  0  0  0  0  0
  -23.6928   -6.5457   22.8739 C   0  0  0  0  0  0  0  0  0  0  0  0
  -23.3909  -13.1607   23.0211 C   0  0  0  0  0  0  0  0  0  0  0  0
  -23.1657  -10.9757   24.2225 C   0  0  0  0  0  0  0  0  0  0  0  0
  -21.6866  -11.4872   22.2801 C   0  0  0  0  0  0  0  0  0  0  0  0
  -26.1332   -6.8232   19.9681 C   0  0  0  0  0  0  0  0  0  0  0  0
  -32.4886  -22.0260   19.7596 C   0  0  0  0  0  0  0  0  0  0  0  0
  -26.5081  -21.6870   17.7320 C   0  0  0  0  0  0  0  0  0  0  0  0
  -29.4193  -19.3492   21.0770 C   0  0  0  0  0  0  0  0  0  0  0  0
  -32.2335  -13.7583   21.0524 C   0  0  1  0  0  0  0  0  0  1  0  0
  -24.1275  -10.9670   21.8761 C   0  0  1  0  0  0  0  0  0  0  0  0
  -24.3194   -7.1881   21.6461 C   0  0  2  0  0  0  0  0  0  0  0  0
  -23.1171  -11.6547   22.8371 C   0  0  0  0  0  0  0  0  0  0  0  0
  -30.1219  -22.1915   18.6728 N   0  0  0  0  0  0  0  0  0  0  0  0
  -25.1482  -28.7259   19.8140 N   0  0  0  0  0  0  0  0  0  0  0  0
  -26.0360  -27.8143   19.3818 N   0  0  0  0  0  0  0  0  0  0  0  0
  -25.3684  -12.1451   20.0883 N   0  0  0  0  0  0  0  0  0  0  0  0
  -24.7149  -24.9163   17.2689 N   0  0  0  0  0  0  0  0  0  0  0  0
  -28.1591  -26.8748   19.8514 N   0  0  0  0  0  0  0  0  0  0  0  0
  -27.6200  -29.9259   23.1372 N   0  0  0  0  0  0  0  0  0  0  0  0
  -30.1596  -18.2259   20.5917 N   0  0  0  0  0  0  0  0  0  0  0  0
  -25.2234  -15.2778   18.2277 N   0  0  0  0  0  0  0  0  0  0  0  0
  -23.8761   -9.5460   21.6618 N   0  0  0  0  0  0  0  0  0  0  0  0
  -25.9691  -23.0167   17.9111 N   0  0  0  0  0  0  0  0  0  0  0  0
  -25.4410   -6.3226   21.1835 N   0  3  0  0  0  0  0  0  0  0  0  0
  -29.0447  -28.3485   22.2764 O   0  0  0  0  0  0  0  0  0  0  0  0
  -25.2237  -14.6680   20.4751 O   0  0  0  0  0  0  0  0  0  0  0  0
  -23.1125  -11.6144   19.8323 O   0  0  0  0  0  0  0  0  0  0  0  0
  -25.9447   -8.8069   22.4046 O   0  0  0  0  0  0  0  0  0  0  0  0
  -24.8569  -23.0451   15.9063 O   0  0  0  0  0  0  0  0  0  0  0  0
  -23.2136  -33.2602   23.8447 O   0  0  0  0  0  0  0  0  0  0  0  0
  -31.4512  -12.5651   21.0241 O   0  0  0  0  0  0  0  0  0  1  0  0
  -31.4819  -21.1285   20.2115 O   0  0  0  0  0  0  0  0  0  0  0  0
  -26.2410  -37.6024   25.3887 F   0  0  0  0  0  0  0  0  0  0  0  0
  -22.5440  -35.8167   23.0331 F   0  0  0  0  0  0  0  0  0  0  0  0
  1  2  1  0  0  0  0
  1  6  2  0  0  0  0
  2  7  2  0  0  0  0
  3  9  2  0  0  0  0
  3 10  1  0  0  0  0
  4 11  2  0  0  0  0
  4 21  1  0  0  0  0
  5 12  1  0  0  0  0
  5 21  2  0  0  0  0
  6 23  1  0  0  0  0
  7 25  1  0  0  0  0
  8 13  2  0  0  0  0
  8 24  1  0  0  0  0
  9 27  1  0  0  0  0
 10 30  2  0  0  0  0
 11 31  1  0  0  0  0
 12 31  2  0  0  0  0
 13 32  1  0  0  0  0
 14 15  2  0  0  0  0
 14 33  1  0  0  0  0
 15 34  1  0  0  0  0
 16 26  1  0  0  0  0
 16 32  2  0  0  0  0
 17 28  2  0  0  0  0
 17 29  1  0  0  0  0
 18 27  2  0  0  0  0
 18 30  1  0  0  0  0
 19 34  2  0  0  0  0
 19 35  1  0  0  0  0
 20 28  1  0  0  0  0
 20 69  2  0  0  0  0
 21 36  1  0  0  0  0
 22 36  1  0  0  0  0
 22 38  2  0  0  0  0
 22 39  1  0  0  0  0
 23 25  2  0  0  0  0
 23 44  1  0  0  0  0
 24 26  2  0  0  0  0
 24 45  1  0  0  0  0
 25 53  1  0  0  0  0
 26 46  1  0  0  0  0
 27 65  1  0  0  0  0
 28 63  1  0  0  0  0
 29 37  2  0  0  0  0
 29 64  1  0  0  0  0
 30 76  1  0  0  0  0
 31 86  1  0  0  0  0
 32 87  1  0  0  0  0
 33 35  2  0  0  0  0
 33 86  1  0  0  0  0
 34 89  1  0  0  0  0
 35 90  1  0  0  0  0
 36 70  2  0  0  0  0
 37 69  1  0  0  0  0
 37 88  1  0  0  0  0
 38 71  1  0  0  0  0
 38 74  1  0  0  0  0
 39 75  1  0  0  0  0
 39 81  2  0  0  0  0
 40 54  1  0  0  0  0
 40 77  1  0  0  0  0
 40 82  2  0  0  0  0
 41 66  1  0  0  0  0
 41 72  1  0  0  0  0
 41 83  2  0  0  0  0
 42 67  1  0  0  0  0
 42 78  1  0  0  0  0
 42 84  2  0  0  0  0
 43 73  1  0  0  0  0
 43 79  1  0  0  0  0
 43 85  2  0  0  0  0
 44 47  1  0  0  0  0
 45 54  1  0  0  0  0
 46 72  1  0  0  0  0
 47 49  1  0  0  0  0
 48 50  1  0  0  0  0
 48 51  1  0  0  0  0
 49 53  1  0  0  0  0
 50 55  1  0  0  0  0
 51 73  1  0  0  0  0
 52 55  1  0  0  0  0
 52 73  1  0  0  0  0
 53 77  1  0  0  0  0
 54 72  1  0  0  0  0
 55 71  1  0  0  0  0
 56 65  1  0  0  0  0
 57 67  1  0  0  0  0
 58 68  1  0  0  0  0
 59 68  1  0  0  0  0
 60 68  1  0  0  0  0
 61 80  1  0  0  0  0
 62 88  1  0  0  0  0
 63 79  1  0  0  0  0
 64 76  1  0  0  0  0
 65 87  1  0  0  0  0
 66 68  1  0  0  0  0
 66 78  1  0  0  0  0
 67 80  1  0  0  0  0
 70 71  1  0  0  0  0
M  CHG  1  80   1
M  ISO  4  43 100  65 101  79 100  87 101
M  END
> <Batch ID>
0134

> <Smiles>
CNC(C)C(=O)NC(C(=O)N1Cc2cc([101O:1][101CH:1](C)c3cccc(NCc4cc(C[100NH:0][100C:0](=O)N5CCCC(n6nc(-c7ccc(Oc8ccc(F)cc8F)cc7)c(C(N)=O)c6N)C5)cnc4OC)c3)ccc2CC1C(=O)NC1CCCc2ccccc21)C(C)(C)C

> <Shape>
0.297

> <Color>
0.075

> <Negative vol penalty>
0.000

$$$$

  -OEChem-04052320573D

 84 93  0     1  0  0  0  0  0999 V2000
  -39.9118  -25.6152   23.6005 C   0  0  0  0  0  0  0  0  0  0  0  0
  -40.2698  -24.2924   23.8400 C   0  0  0  0  0  0  0  0  0  0  0  0
  -23.2884   -9.7998   19.9133 C   0  0  0  0  0  0  0  0  0  0  0  0
  -23.7422   -9.9397   22.2822 C   0  0  0  0  0  0  0  0  0  0  0  0
  -33.5922  -11.9630   24.7979 C   0  0  0  0  0  0  0  0  0  0  0  0
  -31.6672  -12.2874   26.2214 C   0  0  0  0  0  0  0  0  0  0  0  0
  -38.6750  -26.0909   24.0340 C   0  0  0  0  0  0  0  0  0  0  0  0
  -39.3916  -23.4447   24.5141 C   0  0  0  0  0  0  0  0  0  0  0  0
  -37.3589  -16.5808   24.7827 C   0  0  0  0  0  0  0  0  0  0  0  0
  -32.8184  -12.2752   23.6802 C   0  0  0  0  0  0  0  0  0  0  0  0
  -30.8933  -12.5997   25.1036 C   0  0  0  0  0  0  0  0  0  0  0  0
  -22.5629   -8.6268   20.1215 C   0  0  0  0  0  0  0  0  0  0  0  0
  -23.0166   -8.7667   22.4904 C   0  0  0  0  0  0  0  0  0  0  0  0
  -37.1917  -15.5420   25.6974 C   0  0  0  0  0  0  0  0  0  0  0  0
  -20.9804   -6.0051   23.6927 C   0  0  0  0  0  0  0  0  0  0  0  0
  -20.0801   -5.9790   24.7578 C   0  0  0  0  0  0  0  0  0  0  0  0
  -35.0491  -16.4520   26.3301 C   0  0  0  0  0  0  0  0  0  0  0  0
  -18.8685   -7.8259   23.7791 C   0  0  0  0  0  0  0  0  0  0  0  0
  -23.8781  -10.4562   20.9936 C   0  0  0  0  0  0  0  0  0  0  0  0
  -33.0166  -11.9690   26.0685 C   0  0  0  0  0  0  0  0  0  0  0  0
  -24.1360  -12.9864   20.7957 C   0  0  0  0  0  0  0  0  0  0  0  0
  -37.7772  -25.2460   24.7053 C   0  0  0  0  0  0  0  0  0  0  0  0
  -36.3757  -17.5707   24.6423 C   0  0  0  0  0  0  0  0  0  0  0  0
  -38.1421  -23.9099   24.9582 C   0  0  0  0  0  0  0  0  0  0  0  0
  -35.2051  -17.5009   25.4110 C   0  0  0  0  0  0  0  0  0  0  0  0
  -31.4689  -12.5936   23.8331 C   0  0  0  0  0  0  0  0  0  0  0  0
  -22.4270   -8.1103   21.4100 C   0  0  0  0  0  0  0  0  0  0  0  0
  -36.0380  -15.4791   26.4734 C   0  0  0  0  0  0  0  0  0  0  0  0
  -20.8247   -6.9417   22.6708 C   0  0  0  0  0  0  0  0  0  0  0  0
  -19.0242   -6.8893   24.8010 C   0  0  0  0  0  0  0  0  0  0  0  0
  -19.7688   -7.8520   22.7140 C   0  0  0  0  0  0  0  0  0  0  0  0
  -24.6282  -11.6676   20.7791 C   0  0  0  0  0  0  0  0  0  0  0  0
  -25.2368  -13.7669   20.5396 C   0  0  0  0  0  0  0  0  0  0  0  0
  -33.8335  -11.6402   27.2499 C   0  0  0  0  0  0  0  0  0  0  0  0
  -34.5099  -12.5759   27.9530 C   0  0  0  0  0  0  0  0  0  0  0  0
  -22.8030  -13.4633   21.0224 C   0  0  0  0  0  0  0  0  0  0  0  0
  -36.2838  -20.7184   25.0756 C   0  0  0  0  0  0  0  0  0  0  0  0
  -33.3124  -20.4137   23.8104 C   0  0  0  0  0  0  0  0  0  0  0  0
  -30.6152  -18.4144   23.1983 C   0  0  0  0  0  0  0  0  0  0  0  0
  -31.0986  -12.9552   21.3676 C   0  0  0  0  0  0  0  0  0  0  0  0
  -36.4711  -25.8182   25.1966 C   0  0  0  0  0  0  0  0  0  0  0  0
  -36.5591  -18.6699   23.6321 C   0  0  0  0  0  0  0  0  0  0  0  0
  -34.1104  -18.5276   25.2839 C   0  0  0  0  0  0  0  0  0  0  0  0
  -33.8571  -10.1697   27.5994 C   0  0  0  0  0  0  0  0  0  0  0  0
  -35.3335  -12.2035   29.1691 C   0  0  0  0  0  0  0  0  0  0  0  0
  -35.4433  -24.7542   25.5734 C   0  0  0  0  0  0  0  0  0  0  0  0
  -34.9860   -9.7923   28.5575 C   0  0  0  0  0  0  0  0  0  0  0  0
  -35.0752  -10.7933   29.6989 C   0  0  0  0  0  0  0  0  0  0  0  0
  -29.4609  -13.6600   18.2857 C   0  0  0  0  0  0  0  0  0  0  0  0
  -36.0878  -23.6693   26.4305 C   0  0  0  0  0  0  0  0  0  0  0  0
  -27.9901  -13.3549   18.5786 C   0  0  0  0  0  0  0  0  0  0  0  0
  -30.3954  -12.6850   18.9996 C   0  0  0  0  0  0  0  0  0  0  0  0
  -28.7047  -12.2554   20.7391 C   0  0  0  0  0  0  0  0  0  0  0  0
  -37.2064  -22.9529   25.6644 C   0  0  1  0  0  0  0  0  0  0  0  0
  -35.7246  -19.9094   23.9395 C   0  0  1  0  0  0  0  0  0  0  0  0
  -27.7270  -13.2511   20.0938 C   0  0  2  0  0  0  0  0  0  0  0  0
  -28.3842  -17.7327   22.2733 C   0  0  0  0  0  0  0  0  0  0  0  0
  -32.2523  -21.8822   26.2658 C   0  0  0  0  0  0  0  0  0  0  0  0
  -29.9593  -21.0680   25.6766 C   0  0  0  0  0  0  0  0  0  0  0  0
  -31.1924  -22.5623   24.1052 C   0  0  0  0  0  0  0  0  0  0  0  0
  -31.8247  -17.4576   20.6723 C   0  0  0  0  0  0  0  0  0  0  0  0
  -34.5346  -14.0495   27.6361 C   0  0  0  0  0  0  0  0  0  1  0  0
  -31.9333  -20.1596   24.3693 C   0  0  1  0  0  0  0  0  0  0  0  0
  -29.7983  -18.1823   21.9400 C   0  0  2  0  0  0  0  0  0  0  0  0
  -31.3556  -21.3996   25.1082 C   0  0  0  0  0  0  0  0  0  0  0  0
  -25.9395  -11.6097   20.5319 N   0  0  0  0  0  0  0  0  0  0  0  0
  -26.2807  -12.9019   20.3907 N   0  0  0  0  0  0  0  0  0  0  0  0
  -34.3392  -19.5863   24.2867 N   0  0  0  0  0  0  0  0  0  0  0  0
  -30.0904  -12.6424   20.4314 N   0  0  0  0  0  0  0  0  0  0  0  0
  -25.4039  -15.1020   20.4295 N   0  0  0  0  0  0  0  0  0  0  0  0
  -21.7912  -12.5258   21.2708 N   0  0  0  0  0  0  0  0  0  0  0  0
  -30.6831  -12.9129   22.6981 N   0  0  0  0  0  0  0  0  0  0  0  0
  -36.6481  -22.0043   24.7247 N   0  0  0  0  0  0  0  0  0  0  0  0
  -31.1185  -19.6971   23.2511 N   0  0  0  0  0  0  0  0  0  0  0  0
  -30.4371  -17.1352   21.0935 N   0  3  0  0  0  0  0  0  0  0  0  0
  -22.5145  -14.6836   20.9889 O   0  0  0  0  0  0  0  0  0  0  0  0
  -36.3763  -20.2138   26.1885 O   0  0  0  0  0  0  0  0  0  0  0  0
  -33.4715  -21.3084   22.9762 O   0  0  0  0  0  0  0  0  0  0  0  0
  -30.7864  -17.5460   24.0510 O   0  0  0  0  0  0  0  0  0  0  0  0
  -32.2388  -13.2662   21.0139 O   0  0  0  0  0  0  0  0  0  0  0  0
  -21.7189   -6.9659   21.6136 O   0  0  0  0  0  0  0  0  0  0  0  0
  -35.8726  -14.4666   27.3674 O   0  0  0  0  0  0  0  0  0  1  0  0
  -18.1589   -6.8631   25.8231 F   0  0  0  0  0  0  0  0  0  0  0  0
  -19.6134   -8.7534   21.7345 F   0  0  0  0  0  0  0  0  0  0  0  0
  1  2  1  0  0  0  0
  1  7  2  0  0  0  0
  2  8  2  0  0  0  0
  3 12  2  0  0  0  0
  3 19  1  0  0  0  0
  4 13  1  0  0  0  0
  4 19  2  0  0  0  0
  5 10  2  0  0  0  0
  5 20  1  0  0  0  0
  6 11  1  0  0  0  0
  6 20  2  0  0  0  0
  7 22  1  0  0  0  0
  8 24  1  0  0  0  0
  9 14  2  0  0  0  0
  9 23  1  0  0  0  0
 10 26  1  0  0  0  0
 11 26  2  0  0  0  0
 12 27  1  0  0  0  0
 13 27  2  0  0  0  0
 14 28  1  0  0  0  0
 15 16  2  0  0  0  0
 15 29  1  0  0  0  0
 16 30  1  0  0  0  0
 17 25  1  0  0  0  0
 17 28  2  0  0  0  0
 18 30  2  0  0  0  0
 18 31  1  0  0  0  0
 19 32  1  0  0  0  0
 20 34  1  0  0  0  0
 21 32  1  0  0  0  0
 21 33  2  0  0  0  0
 21 36  1  0  0  0  0
 22 24  2  0  0  0  0
 22 41  1  0  0  0  0
 23 25  2  0  0  0  0
 23 42  1  0  0  0  0
 24 54  1  0  0  0  0
 25 43  1  0  0  0  0
 26 72  1  0  0  0  0
 27 81  1  0  0  0  0
 28 82  1  0  0  0  0
 29 31  2  0  0  0  0
 29 81  1  0  0  0  0
 30 83  1  0  0  0  0
 31 84  1  0  0  0  0
 32 66  2  0  0  0  0
 33 67  1  0  0  0  0
 33 70  1  0  0  0  0
 34 35  2  0  0  0  0
 34 44  1  0  0  0  0
 35 45  1  0  0  0  0
 35 62  1  0  0  0  0
 36 71  1  0  0  0  0
 36 76  2  0  0  0  0
 37 55  1  0  0  0  0
 37 73  1  0  0  0  0
 37 77  2  0  0  0  0
 38 63  1  0  0  0  0
 38 68  1  0  0  0  0
 38 78  2  0  0  0  0
 39 64  1  0  0  0  0
 39 74  1  0  0  0  0
 39 79  2  0  0  0  0
 40 69  1  0  0  0  0
 40 72  1  0  0  0  0
 40 80  2  0  0  0  0
 41 46  1  0  0  0  0
 42 55  1  0  0  0  0
 43 68  1  0  0  0  0
 44 47  1  0  0  0  0
 45 48  1  0  0  0  0
 46 50  1  0  0  0  0
 47 48  1  0  0  0  0
 49 51  1  0  0  0  0
 49 52  1  0  0  0  0
 50 54  1  0  0  0  0
 51 56  1  0  0  0  0
 52 69  1  0  0  0  0
 53 56  1  0  0  0  0
 53 69  1  0  0  0  0
 54 73  1  0  0  0  0
 55 68  1  0  0  0  0
 56 67  1  0  0  0  0
 57 64  1  0  0  0  0
 58 65  1  0  0  0  0
 59 65  1  0  0  0  0
 60 65  1  0  0  0  0
 61 75  1  0  0  0  0
 62 82  1  0  0  0  0
 63 65  1  0  0  0  0
 63 74  1  0  0  0  0
 64 75  1  0  0  0  0
 66 67  1  0  0  0  0
M  CHG  1  75   1
M  ISO  4  40 100  62 101  72 100  82 101
M  END
> <Batch ID>
0134

> <Smiles>
CNC(C)C(=O)NC(C(=O)N1Cc2cc([101O:1][101CH2:1]C3=C(c4ccc([100NH:0][100C:0](=O)N5CCCC(n6nc(-c7ccc(Oc8ccc(F)cc8F)cc7)c(C(N)=O)c6N)C5)cc4)CCCC3)ccc2CC1C(=O)NC1CCCc2ccccc21)C(C)(C)C

> <Shape>
0.150

> <Color>
0.178

> <Negative vol penalty>
0.000

$$$$

  -OEChem-04052320573D

 86 95  0     1  0  0  0  0  0999 V2000
  -46.6675  -19.6625   26.0038 C   0  0  0  0  0  0  0  0  0  0  0  0
  -45.3516  -19.7789   26.4402 C   0  0  0  0  0  0  0  0  0  0  0  0
  -34.5424  -23.9039   24.4369 C   0  0  0  0  0  0  0  0  0  0  0  0
  -35.7058  -23.6190   25.1517 C   0  0  0  0  0  0  0  0  0  0  0  0
  -23.0001   -9.8921   19.9819 C   0  0  0  0  0  0  0  0  0  0  0  0
  -23.7257   -9.9451   22.2857 C   0  0  0  0  0  0  0  0  0  0  0  0
  -46.9787  -19.8875   24.6635 C   0  0  0  0  0  0  0  0  0  0  0  0
  -44.3463  -20.1214   25.5366 C   0  0  0  0  0  0  0  0  0  0  0  0
  -38.5449  -18.1597   25.5664 C   0  0  0  0  0  0  0  0  0  0  0  0
  -30.2475  -18.9344   23.0730 C   0  0  0  0  0  0  0  0  0  0  0  0
  -33.6534  -22.8786   24.1143 C   0  0  0  0  0  0  0  0  0  0  0  0
  -35.9801  -22.3089   25.5441 C   0  0  0  0  0  0  0  0  0  0  0  0
  -22.2342   -8.7574   20.2492 C   0  0  0  0  0  0  0  0  0  0  0  0
  -22.9598   -8.8105   22.5531 C   0  0  0  0  0  0  0  0  0  0  0  0
  -37.3637  -18.7317   26.0371 C   0  0  0  0  0  0  0  0  0  0  0  0
  -23.2056   -5.4713   22.0836 C   0  0  0  0  0  0  0  0  0  0  0  0
  -23.7938   -4.4550   22.8363 C   0  0  0  0  0  0  0  0  0  0  0  0
  -29.7598  -17.6972   22.6668 C   0  0  0  0  0  0  0  0  0  0  0  0
  -36.8840  -19.5514   23.8196 C   0  0  0  0  0  0  0  0  0  0  0  0
  -22.0702   -4.6983   24.5117 C   0  0  0  0  0  0  0  0  0  0  0  0
  -23.7459  -10.4859   21.0001 C   0  0  0  0  0  0  0  0  0  0  0  0
  -24.1300  -13.0016   20.8221 C   0  0  0  0  0  0  0  0  0  0  0  0
  -45.9752  -20.2235   23.7411 C   0  0  0  0  0  0  0  0  0  0  0  0
  -38.9105  -18.2889   24.2188 C   0  0  0  0  0  0  0  0  0  0  0  0
  -44.6446  -20.3524   24.1830 C   0  0  0  0  0  0  0  0  0  0  0  0
  -38.0690  -18.9780   23.3338 C   0  0  0  0  0  0  0  0  0  0  0  0
  -31.5228  -19.3330   22.6881 C   0  0  0  0  0  0  0  0  0  0  0  0
  -33.9277  -21.5684   24.5067 C   0  0  0  0  0  0  0  0  0  0  0  0
  -22.2140   -8.2166   21.5348 C   0  0  0  0  0  0  0  0  0  0  0  0
  -36.5345  -19.4301   25.1643 C   0  0  0  0  0  0  0  0  0  0  0  0
  -35.0910  -21.2836   25.2216 C   0  0  0  0  0  0  0  0  0  1  0  0
  -22.0497   -6.1012   22.5449 C   0  0  0  0  0  0  0  0  0  0  0  0
  -23.2261   -4.0684   24.0504 C   0  0  0  0  0  0  0  0  0  0  0  0
  -21.4820   -5.7147   23.7590 C   0  0  0  0  0  0  0  0  0  0  0  0
  -24.5378  -11.6577   20.7244 C   0  0  0  0  0  0  0  0  0  0  0  0
  -32.2644  -18.4650   21.9032 C   0  0  0  0  0  0  0  0  0  0  0  0
  -30.5803  -16.9025   21.8826 C   0  0  0  0  0  0  0  0  0  0  0  0
  -25.2393  -13.7244   20.4569 C   0  0  0  0  0  0  0  0  0  0  0  0
  -22.8619  -13.5477   21.2085 C   0  0  0  0  0  0  0  0  0  0  0  0
  -41.3544  -19.6100   22.6742 C   0  0  0  0  0  0  0  0  0  0  0  0
  -39.9531  -18.2437   20.0873 C   0  0  0  0  0  0  0  0  0  0  0  0
  -37.1165  -17.0197   18.6374 C   0  0  0  0  0  0  0  0  0  0  0  0
  -30.7184  -14.6883   20.6890 C   0  0  0  0  0  0  0  0  0  0  0  0
  -46.3671  -20.5035   22.3119 C   0  0  0  0  0  0  0  0  0  0  0  0
  -40.1745  -17.6433   23.7210 C   0  0  0  0  0  0  0  0  0  0  0  0
  -38.4060  -19.1278   21.8735 C   0  0  0  0  0  0  0  0  0  0  0  0
  -45.1868  -20.4957   21.3439 C   0  0  0  0  0  0  0  0  0  0  0  0
  -29.6008  -12.2331   18.3651 C   0  0  0  0  0  0  0  0  0  0  0  0
  -44.0249  -21.3041   21.9123 C   0  0  0  0  0  0  0  0  0  0  0  0
  -28.1504  -11.9751   18.7798 C   0  0  0  0  0  0  0  0  0  0  0  0
  -30.5014  -12.4779   19.5745 C   0  0  0  0  0  0  0  0  0  0  0  0
  -28.5860  -13.2668   20.9079 C   0  0  0  0  0  0  0  0  0  0  0  0
  -43.5225  -20.6978   23.2282 C   0  0  1  0  0  0  0  0  0  0  0  0
  -40.7037  -18.2765   22.4379 C   0  0  1  0  0  0  0  0  0  0  0  0
  -27.6282  -13.0791   19.7200 C   0  0  2  0  0  0  0  0  0  0  0  0
  -33.6410  -18.8409   21.4616 C   0  0  0  0  0  0  0  0  0  0  0  0
  -36.2759  -16.0056   16.5014 C   0  0  0  0  0  0  0  0  0  0  0  0
  -39.9983  -20.9939   18.7666 C   0  0  0  0  0  0  0  0  0  0  0  0
  -38.3370  -20.1429   17.0981 C   0  0  0  0  0  0  0  0  0  0  0  0
  -40.5971  -19.0981   17.2495 C   0  0  0  0  0  0  0  0  0  0  0  0
  -36.3171  -14.5190   20.0035 C   0  0  0  0  0  0  0  0  0  0  0  0
  -32.0563  -20.6669   23.1244 C   0  0  0  0  0  0  0  0  0  0  0  0
  -38.9102  -18.6742   19.0843 C   0  0  1  0  0  0  0  0  0  0  0  0
  -36.8464  -15.7298   17.8840 C   0  0  2  0  0  0  0  0  0  0  0  0
  -39.4550  -19.7263   18.0775 C   0  0  0  0  0  0  0  0  0  0  0  0
  -25.8070  -11.5315   20.3280 N   0  0  0  0  0  0  0  0  0  0  0  0
  -31.8245  -17.2556   21.4890 N   0  0  0  0  0  0  0  0  0  0  0  0
  -26.2064  -12.8054   20.1734 N   0  0  0  0  0  0  0  0  0  0  0  0
  -39.6559  -18.4841   21.4363 N   0  0  0  0  0  0  0  0  0  0  0  0
  -29.9461  -13.5392   20.4172 N   0  0  0  0  0  0  0  0  0  0  0  0
  -25.4722  -15.0501   20.3538 N   0  0  0  0  0  0  0  0  0  0  0  0
  -21.8306  -12.6633   21.5529 N   0  0  0  0  0  0  0  0  0  0  0  0
  -33.0186  -20.5409   24.1739 N   0  0  0  0  0  0  0  0  0  0  0  0
  -30.0738  -15.6438   21.4740 N   0  0  0  0  0  0  0  0  0  0  0  0
  -42.7025  -19.5341   22.9679 N   0  0  0  0  0  0  0  0  0  0  0  0
  -38.4140  -17.4519   18.4613 N   0  0  0  0  0  0  0  0  0  0  0  0
  -35.8736  -14.8859   18.6340 N   0  3  0  0  0  0  0  0  0  0  0  0
  -22.6446  -14.7829   21.2314 O   0  0  0  0  0  0  0  0  0  0  0  0
  -40.6833  -20.6323   22.5945 O   0  0  0  0  0  0  0  0  0  0  0  0
  -40.9900  -17.7072   19.6891 O   0  0  0  0  0  0  0  0  0  0  0  0
  -36.2610  -17.5891   19.3115 O   0  0  0  0  0  0  0  0  0  0  0  0
  -31.8569  -14.8274   20.2346 O   0  0  0  0  0  0  0  0  0  0  0  0
  -21.4665   -7.1096   21.7961 O   0  0  0  0  0  0  0  0  0  0  0  0
  -35.3814  -19.9898   25.6213 O   0  0  0  0  0  0  0  0  0  1  0  0
  -23.7902   -3.0913   24.7724 F   0  0  0  0  0  0  0  0  0  0  0  0
  -20.3709   -6.3153   24.2068 F   0  0  0  0  0  0  0  0  0  0  0  0
  1  2  1  0  0  0  0
  1  7  2  0  0  0  0
  2  8  2  0  0  0  0
  3  4  1  0  0  0  0
  3 11  2  0  0  0  0
  4 12  2  0  0  0  0
  5 13  2  0  0  0  0
  5 21  1  0  0  0  0
  6 14  1  0  0  0  0
  6 21  2  0  0  0  0
  7 23  1  0  0  0  0
  8 25  1  0  0  0  0
  9 15  2  0  0  0  0
  9 24  1  0  0  0  0
 10 18  2  0  0  0  0
 10 27  1  0  0  0  0
 11 28  1  0  0  0  0
 12 31  1  0  0  0  0
 13 29  1  0  0  0  0
 14 29  2  0  0  0  0
 15 30  1  0  0  0  0
 16 17  2  0  0  0  0
 16 32  1  0  0  0  0
 17 33  1  0  0  0  0
 18 37  1  0  0  0  0
 19 26  1  0  0  0  0
 19 30  2  0  0  0  0
 20 33  2  0  0  0  0
 20 34  1  0  0  0  0
 21 35  1  0  0  0  0
 22 35  1  0  0  0  0
 22 38  2  0  0  0  0
 22 39  1  0  0  0  0
 23 25  2  0  0  0  0
 23 44  1  0  0  0  0
 24 26  2  0  0  0  0
 24 45  1  0  0  0  0
 25 53  1  0  0  0  0
 26 46  1  0  0  0  0
 27 36  2  0  0  0  0
 27 62  1  0  0  0  0
 28 31  2  0  0  0  0
 28 73  1  0  0  0  0
 29 83  1  0  0  0  0
 30 84  1  0  0  0  0
 31 84  1  0  0  0  0
 32 34  2  0  0  0  0
 32 83  1  0  0  0  0
 33 85  1  0  0  0  0
 34 86  1  0  0  0  0
 35 66  2  0  0  0  0
 36 56  1  0  0  0  0
 36 67  1  0  0  0  0
 37 67  2  0  0  0  0
 37 74  1  0  0  0  0
 38 68  1  0  0  0  0
 38 71  1  0  0  0  0
 39 72  1  0  0  0  0
 39 78  2  0  0  0  0
 40 54  1  0  0  0  0
 40 75  1  0  0  0  0
 40 79  2  0  0  0  0
 41 63  1  0  0  0  0
 41 69  1  0  0  0  0
 41 80  2  0  0  0  0
 42 64  1  0  0  0  0
 42 76  1  0  0  0  0
 42 81  2  0  0  0  0
 43 70  1  0  0  0  0
 43 74  1  0  0  0  0
 43 82  2  0  0  0  0
 44 47  1  0  0  0  0
 45 54  1  0  0  0  0
 46 69  1  0  0  0  0
 47 49  1  0  0  0  0
 48 50  1  0  0  0  0
 48 51  1  0  0  0  0
 49 53  1  0  0  0  0
 50 55  1  0  0  0  0
 51 70  1  0  0  0  0
 52 55  1  0  0  0  0
 52 70  1  0  0  0  0
 53 75  1  0  0  0  0
 54 69  1  0  0  0  0
 55 68  1  0  0  0  0
 57 64  1  0  0  0  0
 58 65  1  0  0  0  0
 59 65  1  0  0  0  0
 60 65  1  0  0  0  0
 61 77  1  0  0  0  0
 62 73  1  0  0  0  0
 63 65  1  0  0  0  0
 63 76  1  0  0  0  0
 64 77  1  0  0  0  0
 66 68  1  0  0  0  0
M  CHG  1  77   1
M  ISO  4  31 101  43 100  74 100  84 101
M  END
> <Batch ID>
0134

> <Smiles>
CNC(C)C(=O)NC(C(=O)N1Cc2cc([101O:1][101c:1]3ccccc3NCc3ccc([100NH:0][100C:0](=O)N4CCCC(n5nc(-c6ccc(Oc7ccc(F)cc7F)cc6)c(C(N)=O)c5N)C4)nc3C)ccc2CC1C(=O)NC1CCCc2ccccc21)C(C)(C)C

> <Shape>
0.173

> <Color>
0.194

> <Negative vol penalty>
0.000

$$$$

  -OEChem-04052320573D

 88 97  0     1  0  0  0  0  0999 V2000
  -24.0402  -39.5660   19.8917 C   0  0  0  0  0  0  0  0  0  0  0  0
  -25.0931  -38.8547   20.4580 C   0  0  0  0  0  0  0  0  0  0  0  0
  -24.7766   -8.2003   21.2448 C   0  0  0  0  0  0  0  0  0  0  0  0
  -23.8071  -10.3210   21.8771 C   0  0  0  0  0  0  0  0  0  0  0  0
  -22.7246  -39.1731   20.1346 C   0  0  0  0  0  0  0  0  0  0  0  0
  -24.8311  -37.7506   21.2685 C   0  0  0  0  0  0  0  0  0  0  0  0
  -27.4433  -31.2414   19.6260 C   0  0  0  0  0  0  0  0  0  0  0  0
  -27.9217  -18.7575   21.0217 C   0  0  0  0  0  0  0  0  0  0  0  0
  -24.1040   -7.5790   22.2970 C   0  0  0  0  0  0  0  0  0  0  0  0
  -23.1343   -9.6997   22.9293 C   0  0  0  0  0  0  0  0  0  0  0  0
  -28.0809  -30.0076   19.4938 C   0  0  0  0  0  0  0  0  0  0  0  0
  -20.9769   -6.4670   22.9433 C   0  0  0  0  0  0  0  0  0  0  0  0
  -20.3329   -5.2587   22.6774 C   0  0  0  0  0  0  0  0  0  0  0  0
  -27.9550  -17.3793   20.8403 C   0  0  0  0  0  0  0  0  0  0  0  0
  -26.8787  -29.1682   21.4169 C   0  0  0  0  0  0  0  0  0  0  0  0
  -21.7114   -4.1604   24.3300 C   0  0  0  0  0  0  0  0  0  0  0  0
  -24.6283   -9.5713   21.0349 C   0  0  0  0  0  0  0  0  0  0  0  0
  -24.8599  -10.3948   18.6316 C   0  0  0  0  0  0  0  0  0  0  0  0
  -22.4466  -38.0579   20.9406 C   0  0  0  0  0  0  0  0  0  0  0  0
  -26.5084  -31.4385   20.6461 C   0  0  0  0  0  0  0  0  0  0  0  0
  -23.5105  -37.3433   21.5234 C   0  0  0  0  0  0  0  0  0  0  0  0
  -26.2276  -30.3979   21.5466 C   0  0  0  0  0  0  0  0  0  0  0  0
  -29.0789  -19.5056   20.8364 C   0  0  0  0  0  0  0  0  0  0  0  0
  -23.2828   -8.3287   23.1392 C   0  0  0  0  0  0  0  0  0  0  0  0
  -27.7995  -28.9737   20.3872 C   0  0  0  0  0  0  0  0  0  0  0  0
  -21.9882   -6.5221   23.9025 C   0  0  0  0  0  0  0  0  0  0  0  0
  -20.7001   -4.1054   23.3707 C   0  0  0  0  0  0  0  0  0  0  0  0
  -22.3554   -5.3688   24.5958 C   0  0  0  0  0  0  0  0  0  0  0  0
  -25.3233  -10.2138   19.9486 C   0  0  0  0  0  0  0  0  0  0  0  0
  -30.2346  -18.8333   20.4728 C   0  0  0  0  0  0  0  0  0  0  0  0
  -29.1610  -16.8022   20.4764 C   0  0  0  0  0  0  0  0  0  0  0  0
  -25.8833  -11.0535   17.9950 C   0  0  0  0  0  0  0  0  0  0  0  0
  -23.6156  -10.0027   18.0370 C   0  0  0  0  0  0  0  0  0  0  0  0
  -24.0872  -33.7776   22.3022 C   0  0  0  0  0  0  0  0  0  0  0  0
  -22.7562  -31.0145   22.2404 C   0  0  0  0  0  0  0  0  0  0  0  0
  -21.4780  -27.9176   21.5977 C   0  0  0  0  0  0  0  0  0  0  0  0
  -30.2770  -14.6105   19.9312 C   0  0  0  0  0  0  0  0  0  0  0  0
  -21.0071  -37.6998   21.2128 C   0  0  0  0  0  0  0  0  0  0  0  0
  -25.8430  -32.7704   20.8637 C   0  0  0  0  0  0  0  0  0  0  0  0
  -25.2405  -30.6664   22.6496 C   0  0  0  0  0  0  0  0  0  0  0  0
  -20.8258  -36.2937   21.7788 C   0  0  0  0  0  0  0  0  0  0  0  0
  -30.6425  -11.5752   18.1062 C   0  0  0  0  0  0  0  0  0  0  0  0
  -21.8254  -36.0373   22.9021 C   0  0  0  0  0  0  0  0  0  0  0  0
  -27.3737  -25.3123   19.1552 C   0  0  0  0  0  0  0  0  0  0  0  0
  -29.8282  -25.2423   19.7690 C   0  0  0  0  0  0  0  0  0  0  0  0
  -29.2759  -10.9009   18.2466 C   0  0  0  0  0  0  0  0  0  0  0  0
  -27.3392  -23.7844   19.1206 C   0  0  0  0  0  0  0  0  0  0  0  0
  -29.7929  -23.7145   19.7342 C   0  0  0  0  0  0  0  0  0  0  0  0
  -31.0453  -12.3118   19.3825 C   0  0  0  0  0  0  0  0  0  0  0  0
  -28.6845  -12.5930   20.0282 C   0  0  0  0  0  0  0  0  0  0  0  0
  -23.2675  -36.1252   22.3880 C   0  0  1  0  0  0  0  0  0  0  0  0
  -24.3934  -32.6459   21.3658 C   0  0  1  0  0  0  0  0  0  0  0  0
  -28.7740  -25.8554   18.8359 C   0  0  0  0  0  0  0  0  0  0  0  0
  -28.2068  -11.8927   18.7457 C   0  0  2  0  0  0  0  0  0  0  0  0
  -28.3937  -23.1952   20.0534 C   0  0  0  0  0  0  0  0  0  0  0  0
  -32.5714  -18.7409   19.5687 C   0  0  0  0  0  0  0  0  0  0  0  0
  -19.4163  -26.5281   21.9383 C   0  0  0  0  0  0  0  0  0  0  0  0
  -23.5199  -30.6049   25.1649 C   0  0  0  0  0  0  0  0  0  0  0  0
  -22.0769  -28.5590   25.1815 C   0  0  0  0  0  0  0  0  0  0  0  0
  -21.0619  -30.7955   24.7450 C   0  0  0  0  0  0  0  0  0  0  0  0
  -21.0613  -27.6128   18.6835 C   0  0  0  0  0  0  0  0  0  0  0  0
  -29.0504  -20.9929   21.0318 C   0  0  0  0  0  0  0  0  0  0  0  0
  -31.5072  -19.5864   20.2616 C   0  0  0  0  0  0  0  0  0  0  0  0
  -28.7943  -27.3800   18.9285 C   0  0  0  0  0  0  0  0  0  1  0  0
  -22.4988  -29.7179   22.9657 C   0  0  1  0  0  0  0  0  0  0  0  0
  -20.1510  -27.4784   21.0056 C   0  0  2  0  0  0  0  0  0  0  0  0
  -22.3106  -29.9219   24.4955 C   0  0  0  0  0  0  0  0  0  0  0  0
  -26.5460  -10.7167   20.1386 N   0  0  0  0  0  0  0  0  0  0  0  0
  -30.3057  -17.4961   20.2874 N   0  0  0  0  0  0  0  0  0  0  0  0
  -26.8596  -11.2201   18.9327 N   0  0  0  0  0  0  0  0  0  0  0  0
  -24.0914  -31.4193   22.1231 N   0  0  0  0  0  0  0  0  0  0  0  0
  -29.9865  -13.2367   19.7929 N   0  0  0  0  0  0  0  0  0  0  0  0
  -26.0344  -11.5005   16.7302 N   0  0  0  0  0  0  0  0  0  0  0  0
  -22.6756   -9.3346   18.8335 N   0  0  0  0  0  0  0  0  0  0  0  0
  -29.1843  -15.3972   20.2941 N   0  0  0  0  0  0  0  0  0  0  0  0
  -23.6240  -34.9179   21.6741 N   0  0  0  0  0  0  0  0  0  0  0  0
  -21.3579  -29.0977   22.3007 N   0  0  0  0  0  0  0  0  0  0  0  0
  -28.3863  -21.7148   19.9143 N   0  3  0  0  0  0  0  0  0  0  0  0
  -20.3685  -26.7852   19.7044 N   0  3  0  0  0  0  0  0  0  0  0  0
  -23.3520  -10.2233   16.8306 O   0  0  0  0  0  0  0  0  0  0  0  0
  -24.2570  -33.6280   23.5066 O   0  0  0  0  0  0  0  0  0  0  0  0
  -21.8009  -31.6558   21.7939 O   0  0  0  0  0  0  0  0  0  0  0  0
  -22.5164  -27.2760   21.4543 O   0  0  0  0  0  0  0  0  0  0  0  0
  -31.4053  -15.0601   19.7151 O   0  0  0  0  0  0  0  0  0  0  0  0
  -22.6260   -7.7227   24.1659 O   0  0  0  0  0  0  0  0  0  0  0  0
  -28.4222  -27.7704   20.2496 O   0  0  0  0  0  0  0  0  0  1  0  0
  -20.0805   -2.9454   23.1164 F   0  0  0  0  0  0  0  0  0  0  0  0
  -23.3254   -5.4157   25.5192 F   0  0  0  0  0  0  0  0  0  0  0  0
  1  2  1  0  0  0  0
  1  5  2  0  0  0  0
  2  6  2  0  0  0  0
  3  9  2  0  0  0  0
  3 17  1  0  0  0  0
  4 10  1  0  0  0  0
  4 17  2  0  0  0  0
  5 19  1  0  0  0  0
  6 21  1  0  0  0  0
  7 11  2  0  0  0  0
  7 20  1  0  0  0  0
  8 14  2  0  0  0  0
  8 23  1  0  0  0  0
  9 24  1  0  0  0  0
 10 24  2  0  0  0  0
 11 25  1  0  0  0  0
 12 13  2  0  0  0  0
 12 26  1  0  0  0  0
 13 27  1  0  0  0  0
 14 31  1  0  0  0  0
 15 22  1  0  0  0  0
 15 25  2  0  0  0  0
 16 27  2  0  0  0  0
 16 28  1  0  0  0  0
 17 29  1  0  0  0  0
 18 29  1  0  0  0  0
 18 32  2  0  0  0  0
 18 33  1  0  0  0  0
 19 21  2  0  0  0  0
 19 38  1  0  0  0  0
 20 22  2  0  0  0  0
 20 39  1  0  0  0  0
 21 51  1  0  0  0  0
 22 40  1  0  0  0  0
 23 30  2  0  0  0  0
 23 62  1  0  0  0  0
 24 85  1  0  0  0  0
 25 86  1  0  0  0  0
 26 28  2  0  0  0  0
 26 85  1  0  0  0  0
 27 87  1  0  0  0  0
 28 88  1  0  0  0  0
 29 68  2  0  0  0  0
 30 63  1  0  0  0  0
 30 69  1  0  0  0  0
 31 69  2  0  0  0  0
 31 75  1  0  0  0  0
 32 70  1  0  0  0  0
 32 73  1  0  0  0  0
 33 74  1  0  0  0  0
 33 80  2  0  0  0  0
 34 52  1  0  0  0  0
 34 76  1  0  0  0  0
 34 81  2  0  0  0  0
 35 65  1  0  0  0  0
 35 71  1  0  0  0  0
 35 82  2  0  0  0  0
 36 66  1  0  0  0  0
 36 77  1  0  0  0  0
 36 83  2  0  0  0  0
 37 72  1  0  0  0  0
 37 75  1  0  0  0  0
 37 84  2  0  0  0  0
 38 41  1  0  0  0  0
 39 52  1  0  0  0  0
 40 71  1  0  0  0  0
 41 43  1  0  0  0  0
 42 46  1  0  0  0  0
 42 49  1  0  0  0  0
 43 51  1  0  0  0  0
 44 47  1  0  0  0  0
 44 53  1  0  0  0  0
 45 48  1  0  0  0  0
 45 53  1  0  0  0  0
 46 54  1  0  0  0  0
 47 55  1  0  0  0  0
 48 55  1  0  0  0  0
 49 72  1  0  0  0  0
 50 54  1  0  0  0  0
 50 72  1  0  0  0  0
 51 76  1  0  0  0  0
 52 71  1  0  0  0  0
 53 64  1  0  0  0  0
 54 70  1  0  0  0  0
 55 78  1  0  0  0  0
 56 63  1  0  0  0  0
 57 66  1  0  0  0  0
 58 67  1  0  0  0  0
 59 67  1  0  0  0  0
 60 67  1  0  0  0  0
 61 79  1  0  0  0  0
 62 78  1  0  0  0  0
 64 86  1  0  0  0  0
 65 67  1  0  0  0  0
 65 77  1  0  0  0  0
 66 79  1  0  0  0  0
 68 70  1  0  0  0  0
M  CHG  2  78   1  79   1
M  ISO  4  37 100  64 101  75 100  86 101
M  END
> <Batch ID>
0134

> <Smiles>
CCc1nc([100NH:0][100C:0](=O)N2CCCC(n3nc(-c4ccc(Oc5ccc(F)cc5F)cc4)c(C(N)=O)c3N)C2)ccc1CNC1CCC([101CH2:1][101O:1]c2ccc3c(c2)CN(C(=O)C(NC(=O)C(C)NC)C(C)(C)C)C(C(=O)NC2CCCc4ccccc42)C3)CC1

> <Shape>
0.297

> <Color>
0.085

> <Negative vol penalty>
0.000

$$$$

  -OEChem-04052320573D

 85 94  0     1  0  0  0  0  0999 V2000
  -24.2752   -8.7234   22.2412 C   0  0  0  0  0  0  0  0  0  0  0  0
  -24.7629   -9.6595   21.3349 C   0  0  0  0  0  0  0  0  0  0  0  0
  -22.5620  -27.8755   22.0952 C   0  0  0  0  0  0  0  0  0  0  0  0
  -23.3229  -30.1204   21.6278 C   0  0  0  0  0  0  0  0  0  0  0  0
  -23.0076   -8.8883   22.7978 C   0  0  0  0  0  0  0  0  0  0  0  0
  -23.9826  -10.7606   20.9839 C   0  0  0  0  0  0  0  0  0  0  0  0
  -26.6216  -15.0826   20.9585 C   0  0  0  0  0  0  0  0  0  0  0  0
  -21.5459  -28.3878   22.9018 C   0  0  0  0  0  0  0  0  0  0  0  0
  -22.3067  -30.6328   22.4343 C   0  0  0  0  0  0  0  0  0  0  0  0
  -27.4416  -15.3215   19.8566 C   0  0  0  0  0  0  0  0  0  0  0  0
  -18.5082  -29.8114   22.4782 C   0  0  0  0  0  0  0  0  0  0  0  0
  -17.2293  -29.2754   22.3283 C   0  0  0  0  0  0  0  0  0  0  0  0
  -25.7572  -16.7762   18.9261 C   0  0  0  0  0  0  0  0  0  0  0  0
  -30.7869  -18.5989   20.9523 C   0  0  0  0  0  0  0  0  0  0  0  0
  -17.2478  -28.5838   24.6432 C   0  0  0  0  0  0  0  0  0  0  0  0
  -30.8096  -16.8277   19.5623 C   0  0  0  0  0  0  0  0  0  0  0  0
  -23.4506  -28.7418   21.4583 C   0  0  0  0  0  0  0  0  0  0  0  0
  -24.4381  -27.9470   19.2445 C   0  0  0  0  0  0  0  0  0  0  0  0
  -22.2154   -9.9971   22.4608 C   0  0  0  0  0  0  0  0  0  0  0  0
  -25.3566  -15.6812   21.0475 C   0  0  0  0  0  0  0  0  0  0  0  0
  -22.7027  -10.9398   21.5355 C   0  0  0  0  0  0  0  0  0  0  0  0
  -24.9241  -16.5453   20.0314 C   0  0  0  0  0  0  0  0  0  0  0  0
  -31.1658  -17.2395   20.8275 C   0  0  0  0  0  0  0  0  0  0  0  0
  -21.4182  -29.7665   23.0713 C   0  0  0  0  0  0  0  0  0  0  0  0
  -27.0083  -16.1661   18.8388 C   0  0  0  0  0  0  0  0  0  0  0  0
  -19.1571  -29.7335   23.7106 C   0  0  0  0  0  0  0  0  0  0  0  0
  -16.5990  -28.6616   23.4108 C   0  0  0  0  0  0  0  0  0  0  0  0
  -18.5268  -29.1197   24.7930 C   0  0  0  0  0  0  0  0  0  0  0  0
  -24.5009  -28.2131   20.6255 C   0  0  0  0  0  0  0  0  0  0  0  0
  -30.2104  -18.9764   19.7596 C   0  0  0  0  0  0  0  0  0  0  0  0
  -25.6839  -27.4606   18.9317 C   0  0  0  0  0  0  0  0  0  0  0  0
  -23.3510  -28.1239   18.3266 C   0  0  0  0  0  0  0  0  0  0  0  0
  -22.3695  -14.6030   21.1845 C   0  0  0  0  0  0  0  0  0  0  0  0
  -21.6737  -17.7357   21.6581 C   0  0  0  0  0  0  0  0  0  0  0  0
  -22.5900  -20.9991   21.2617 C   0  0  0  0  0  0  0  0  0  0  0  0
  -30.0799  -24.3471   19.9324 C   0  0  0  0  0  0  0  0  0  0  0  0
  -20.8325  -10.1079   23.0524 C   0  0  0  0  0  0  0  0  0  0  0  0
  -24.4951  -15.4344   22.2555 C   0  0  0  0  0  0  0  0  0  0  0  0
  -23.5831  -17.2285   20.0889 C   0  0  0  0  0  0  0  0  0  0  0  0
  -20.2202  -11.4993   22.9136 C   0  0  0  0  0  0  0  0  0  0  0  0
  -29.9608  -27.3631   21.6171 C   0  0  0  0  0  0  0  0  0  0  0  0
  -20.4084  -12.0262   21.4945 C   0  0  0  0  0  0  0  0  0  0  0  0
  -28.5257  -27.8433   21.4015 C   0  0  0  0  0  0  0  0  0  0  0  0
  -28.9920  -21.0631   20.5230 C   0  0  0  0  0  0  0  0  0  0  0  0
  -30.6719  -21.1996   18.6339 C   0  0  0  0  0  0  0  0  0  0  0  0
  -29.9994  -25.8636   21.8881 C   0  0  0  0  0  0  0  0  0  0  0  0
  -28.4366  -22.4255   20.0982 C   0  0  0  0  0  0  0  0  0  0  0  0
  -30.0621  -22.5415   18.2389 C   0  0  0  0  0  0  0  0  0  0  0  0
  -27.9238  -25.5086   20.5904 C   0  0  0  0  0  0  0  0  0  0  0  0
  -21.8963  -12.1605   21.1486 C   0  0  1  0  0  0  0  0  0  0  0  0
  -29.6294  -20.3133   19.3394 C   0  0  0  0  0  0  0  0  0  0  0  0
  -23.0139  -15.6914   21.9956 C   0  0  1  0  0  0  0  0  0  0  0  0
  -27.8264  -27.0210   20.3046 C   0  0  1  0  0  0  0  0  0  0  0  0
  -31.8216  -16.4159   21.8610 C   0  0  0  0  0  0  0  0  0  0  0  0
  -21.7991  -23.3366   21.7176 C   0  0  0  0  0  0  0  0  0  0  0  0
  -27.6546  -18.1859   16.1662 C   0  0  0  0  0  0  0  0  0  0  0  0
  -19.7081  -17.5213   19.3341 C   0  0  0  0  0  0  0  0  0  0  0  0
  -19.6732  -20.0223   19.2241 C   0  0  0  0  0  0  0  0  0  0  0  0
  -18.8802  -18.8549   21.2811 C   0  0  0  0  0  0  0  0  0  0  0  0
  -24.9265  -21.5780   22.9834 C   0  0  0  0  0  0  0  0  0  0  0  0
  -29.7207  -17.8568   17.5686 C   0  0  0  0  0  0  0  0  0  0  0  0
  -21.3539  -18.9072   20.7613 C   0  0  1  0  0  0  0  0  0  0  0  0
  -22.6164  -22.1634   22.2354 C   0  0  2  0  0  0  0  0  0  0  0  0
  -28.1920  -17.7571   17.5259 C   0  0  2  0  0  0  0  0  0  1  0  0
  -19.9284  -18.8122   20.1478 C   0  0  0  0  0  0  0  0  0  0  0  0
  -25.6922  -27.9199   21.1535 N   0  0  0  0  0  0  0  0  0  0  0  0
  -30.2293  -17.8916   18.9223 N   0  0  0  0  0  0  0  0  0  0  0  0
  -26.3895  -27.4644   20.0989 N   0  0  0  0  0  0  0  0  0  0  0  0
  -22.7745  -16.9504   21.2874 N   0  0  0  0  0  0  0  0  0  0  0  0
  -29.3225  -25.1185   20.8268 N   0  0  0  0  0  0  0  0  0  0  0  0
  -29.4624  -23.2078   19.3947 N   0  0  0  0  0  0  0  0  0  0  0  0
  -26.2336  -27.0341   17.7748 N   0  0  0  0  0  0  0  0  0  0  0  0
  -22.1407  -28.6349   18.8148 N   0  0  0  0  0  0  0  0  0  0  0  0
  -22.4518  -13.3491   21.7594 N   0  0  0  0  0  0  0  0  0  0  0  0
  -21.5820  -20.1067   21.5597 N   0  0  0  0  0  0  0  0  0  0  0  0
  -24.0165  -22.6254   22.4525 N   0  3  0  0  0  0  0  0  0  0  0  0
  -23.4447  -27.8218   17.1127 O   0  0  0  0  0  0  0  0  0  0  0  0
  -21.8358  -14.8805   20.1169 O   0  0  0  0  0  0  0  0  0  0  0  0
  -20.9769  -17.5293   22.6548 O   0  0  0  0  0  0  0  0  0  0  0  0
  -23.3818  -20.8939   20.3276 O   0  0  0  0  0  0  0  0  0  0  0  0
  -31.2391  -24.6578   19.6310 O   0  0  0  0  0  0  0  0  0  0  0  0
  -20.4265  -30.2668   23.8580 O   0  0  0  0  0  0  0  0  0  0  0  0
  -27.8108  -16.4018   17.7559 O   0  0  0  0  0  0  0  0  0  1  0  0
  -15.3701  -28.1483   23.2671 F   0  0  0  0  0  0  0  0  0  0  0  0
  -19.1446  -29.0429   25.9797 F   0  0  0  0  0  0  0  0  0  0  0  0
  1  2  1  0  0  0  0
  1  5  2  0  0  0  0
  2  6  2  0  0  0  0
  3  8  2  0  0  0  0
  3 17  1  0  0  0  0
  4  9  1  0  0  0  0
  4 17  2  0  0  0  0
  5 19  1  0  0  0  0
  6 21  1  0  0  0  0
  7 10  2  0  0  0  0
  7 20  1  0  0  0  0
  8 24  1  0  0  0  0
  9 24  2  0  0  0  0
 10 25  1  0  0  0  0
 11 12  2  0  0  0  0
 11 26  1  0  0  0  0
 12 27  1  0  0  0  0
 13 22  1  0  0  0  0
 13 25  2  0  0  0  0
 14 23  1  0  0  0  0
 14 30  2  0  0  0  0
 15 27  2  0  0  0  0
 15 28  1  0  0  0  0
 16 23  2  0  0  0  0
 16 67  1  0  0  0  0
 17 29  1  0  0  0  0
 18 29  1  0  0  0  0
 18 31  2  0  0  0  0
 18 32  1  0  0  0  0
 19 21  2  0  0  0  0
 19 37  1  0  0  0  0
 20 22  2  0  0  0  0
 20 38  1  0  0  0  0
 21 50  1  0  0  0  0
 22 39  1  0  0  0  0
 23 54  1  0  0  0  0
 24 82  1  0  0  0  0
 25 83  1  0  0  0  0
 26 28  2  0  0  0  0
 26 82  1  0  0  0  0
 27 84  1  0  0  0  0
 28 85  1  0  0  0  0
 29 66  2  0  0  0  0
 30 51  1  0  0  0  0
 30 67  1  0  0  0  0
 31 68  1  0  0  0  0
 31 72  1  0  0  0  0
 32 73  1  0  0  0  0
 32 77  2  0  0  0  0
 33 52  1  0  0  0  0
 33 74  1  0  0  0  0
 33 78  2  0  0  0  0
 34 62  1  0  0  0  0
 34 69  1  0  0  0  0
 34 79  2  0  0  0  0
 35 63  1  0  0  0  0
 35 75  1  0  0  0  0
 35 80  2  0  0  0  0
 36 70  1  0  0  0  0
 36 71  1  0  0  0  0
 36 81  2  0  0  0  0
 37 40  1  0  0  0  0
 38 52  1  0  0  0  0
 39 69  1  0  0  0  0
 40 42  1  0  0  0  0
 41 43  1  0  0  0  0
 41 46  1  0  0  0  0
 42 50  1  0  0  0  0
 43 53  1  0  0  0  0
 44 47  1  0  0  0  0
 44 51  1  0  0  0  0
 45 48  1  0  0  0  0
 45 51  1  0  0  0  0
 46 70  1  0  0  0  0
 47 71  1  0  0  0  0
 48 71  1  0  0  0  0
 49 53  1  0  0  0  0
 49 70  1  0  0  0  0
 50 74  1  0  0  0  0
 52 69  1  0  0  0  0
 53 68  1  0  0  0  0
 55 63  1  0  0  0  0
 56 64  1  0  0  0  0
 57 65  1  0  0  0  0
 58 65  1  0  0  0  0
 59 65  1  0  0  0  0
 60 76  1  0  0  0  0
 61 64  1  0  0  0  0
 61 67  1  0  0  0  0
 62 65  1  0  0  0  0
 62 75  1  0  0  0  0
 63 76  1  0  0  0  0
 64 83  1  0  0  0  0
 66 68  1  0  0  0  0
M  CHG  1  76   1
M  ISO  4  36 100  64 101  71 100  83 101
M  END
> <Batch ID>
0134

> <Smiles>
CNC(C)C(=O)NC(C(=O)N1Cc2cc([101O:1][101CH:1](C)Cn3cc(C)cc3C3CC[100N:0]([100C:0](=O)N4CCCC(n5nc(-c6ccc(Oc7ccc(F)cc7F)cc6)c(C(N)=O)c5N)C4)CC3)ccc2CC1C(=O)NC1CCCc2ccccc21)C(C)(C)C

> <Shape>
0.255

> <Color>
0.068

> <Negative vol penalty>
0.000

$$$$

  -OEChem-04052320573D

 87 96  0     1  0  0  0  0  0999 V2000
  -21.9965  -17.1507   14.9340 C   0  0  0  0  0  0  0  0  0  0  0  0
  -23.3512  -17.0117   15.2184 C   0  0  0  0  0  0  0  0  0  0  0  0
  -22.4056  -25.3030   20.3664 C   0  0  0  0  0  0  0  0  0  0  0  0
  -23.8011  -24.9962   22.3146 C   0  0  0  0  0  0  0  0  0  0  0  0
  -21.0502  -16.9465   15.9373 C   0  0  0  0  0  0  0  0  0  0  0  0
  -23.7604  -16.6693   16.5068 C   0  0  0  0  0  0  0  0  0  0  0  0
  -28.5843  -13.1011   18.0538 C   0  0  0  0  0  0  0  0  0  0  0  0
  -32.5713  -20.2732   20.8508 C   0  0  0  0  0  0  0  0  0  0  0  0
  -21.3373  -25.6620   21.1881 C   0  0  0  0  0  0  0  0  0  0  0  0
  -22.7328  -25.3553   23.1364 C   0  0  0  0  0  0  0  0  0  0  0  0
  -29.8847  -13.3788   18.4729 C   0  0  0  0  0  0  0  0  0  0  0  0
  -18.3456  -27.0085   22.7541 C   0  0  0  0  0  0  0  0  0  0  0  0
  -17.5902  -28.1218   22.3862 C   0  0  0  0  0  0  0  0  0  0  0  0
  -33.2551  -19.4084   20.0036 C   0  0  0  0  0  0  0  0  0  0  0  0
  -29.1764  -13.1964   20.7714 C   0  0  0  0  0  0  0  0  0  0  0  0
  -19.5631  -29.5087   22.5320 C   0  0  0  0  0  0  0  0  0  0  0  0
  -23.6376  -24.9700   20.9296 C   0  0  0  0  0  0  0  0  0  0  0  0
  -25.7097  -25.4541   19.5226 C   0  0  0  0  0  0  0  0  0  0  0  0
  -21.4475  -16.5920   17.2362 C   0  0  0  0  0  0  0  0  0  0  0  0
  -27.5658  -12.8787   18.9918 C   0  0  0  0  0  0  0  0  0  0  0  0
  -22.8185  -16.4614   17.5287 C   0  0  0  0  0  0  0  0  0  0  0  0
  -31.2771  -19.9637   21.2541 C   0  0  0  0  0  0  0  0  0  0  0  0
  -27.8651  -12.9113   20.3615 C   0  0  0  0  0  0  0  0  0  0  0  0
  -21.5009  -25.6882   22.5731 C   0  0  0  0  0  0  0  0  0  0  0  0
  -30.1804  -13.4288   19.8318 C   0  0  0  0  0  0  0  0  0  0  0  0
  -19.7098  -27.1452   23.0110 C   0  0  0  0  0  0  0  0  0  0  0  0
  -18.1989  -29.3719   22.2751 C   0  0  0  0  0  0  0  0  0  0  0  0
  -20.3186  -28.3953   22.8999 C   0  0  0  0  0  0  0  0  0  0  0  0
  -24.7414  -24.5985   20.0813 C   0  0  0  0  0  0  0  0  0  0  0  0
  -32.6055  -18.2561   19.5912 C   0  0  0  0  0  0  0  0  0  0  0  0
  -30.7160  -18.7866   20.7856 C   0  0  0  0  0  0  0  0  0  0  0  0
  -26.5311  -24.6202   18.8040 C   0  0  0  0  0  0  0  0  0  0  0  0
  -25.8539  -26.8755   19.6426 C   0  0  0  0  0  0  0  0  0  0  0  0
  -24.7711  -14.2440   19.7476 C   0  0  0  0  0  0  0  0  0  0  0  0
  -24.6260  -11.6111   21.7725 C   0  0  0  0  0  0  0  0  0  0  0  0
  -21.3210  -12.2679   22.3072 C   0  0  0  0  0  0  0  0  0  0  0  0
  -27.8252  -18.7915   19.2538 C   0  0  0  0  0  0  0  0  0  0  0  0
  -20.3903  -16.4278   18.2993 C   0  0  0  0  0  0  0  0  0  0  0  0
  -26.1756  -12.5505   18.5184 C   0  0  0  0  0  0  0  0  0  0  0  0
  -26.8088  -12.6760   21.4072 C   0  0  0  0  0  0  0  0  0  0  0  0
  -20.8879  -15.7008   19.5459 C   0  0  0  0  0  0  0  0  0  0  0  0
  -26.4937  -20.4759   16.4136 C   0  0  0  0  0  0  0  0  0  0  0  0
  -31.7119  -22.6274   23.4088 C   0  0  0  0  0  0  0  0  0  0  0  0
  -22.2335  -16.2647   19.9914 C   0  0  0  0  0  0  0  0  0  0  0  0
  -31.2515  -21.1810   23.4971 C   0  0  0  0  0  0  0  0  0  0  0  0
  -25.9810  -21.8006   16.9811 C   0  0  0  0  0  0  0  0  0  0  0  0
  -26.2803  -19.3226   17.3917 C   0  0  0  0  0  0  0  0  0  0  0  0
  -26.3181  -20.8704   19.3092 C   0  0  0  0  0  0  0  0  0  0  0  0
  -30.6116  -23.2962   22.6179 C   0  0  0  0  0  0  0  0  0  0  0  0
  -23.3005  -16.0669   18.9079 C   0  0  1  0  0  0  0  0  0  0  0  0
  -30.5288  -20.8997   22.1732 C   0  0  1  0  0  0  0  0  0  0  0  0
  -25.0991  -12.7879   19.5754 C   0  0  1  0  0  0  0  0  0  0  0  0
  -26.5621  -22.0731   18.3816 C   0  0  2  0  0  0  0  0  0  0  0  0
  -19.2655  -11.2938   23.3670 C   0  0  0  0  0  0  0  0  0  0  0  0
  -24.3422   -9.6736   19.4335 C   0  0  0  0  0  0  0  0  0  0  0  0
  -21.9174   -9.4414   20.0117 C   0  0  0  0  0  0  0  0  0  0  0  0
  -23.6615   -8.7391   21.6510 C   0  0  0  0  0  0  0  0  0  0  0  0
  -21.0631  -14.5479   24.1763 C   0  0  0  0  0  0  0  0  0  0  0  0
  -33.3179  -17.2947   18.6735 C   0  0  0  0  0  0  0  0  0  0  0  0
  -29.3303  -18.4012   21.1881 C   0  0  0  0  0  0  0  0  0  0  0  0
  -34.1205  -16.2160   19.4093 C   0  0  0  0  0  0  0  0  0  0  0  0
  -33.2447  -15.2911   20.2557 C   0  0  0  0  0  0  0  0  0  0  0  0
  -32.2432  -14.5299   19.3978 C   0  0  0  0  0  0  0  0  0  1  0  0
  -23.2819  -11.2019   21.2240 C   0  0  1  0  0  0  0  0  0  0  0  0
  -20.4707  -12.2002   23.5629 C   0  0  2  0  0  0  0  0  0  0  0  0
  -23.3119   -9.7896   20.5745 C   0  0  0  0  0  0  0  0  0  0  0  0
  -24.9288  -23.3192   19.7462 N   0  0  0  0  0  0  0  0  0  0  0  0
  -31.3491  -17.9217   19.9617 N   0  0  0  0  0  0  0  0  0  0  0  0
  -26.0244  -23.3647   18.9692 N   0  0  0  0  0  0  0  0  0  0  0  0
  -25.4912  -12.2773   20.8952 N   0  0  0  0  0  0  0  0  0  0  0  0
  -26.8559  -19.6439   18.6999 N   0  0  0  0  0  0  0  0  0  0  0  0
  -27.6301  -24.8457   18.0532 N   0  0  0  0  0  0  0  0  0  0  0  0
  -24.9227  -27.5783   20.4194 N   0  0  0  0  0  0  0  0  0  0  0  0
  -23.7728  -14.6989   18.9074 N   0  0  0  0  0  0  0  0  0  0  0  0
  -22.3344  -11.3330   22.3256 N   0  0  0  0  0  0  0  0  0  0  0  0
  -28.3235  -19.1725   20.4936 N   0  0  0  0  0  0  0  0  0  0  0  0
  -30.2699  -22.2721   21.5825 N   0  3  0  0  0  0  0  0  0  0  0  0
  -19.9819  -13.5590   23.9312 N   0  3  0  0  0  0  0  0  0  0  0  0
  -26.7714  -27.5059   19.0644 O   0  0  0  0  0  0  0  0  0  0  0  0
  -25.3777  -14.9054   20.5820 O   0  0  0  0  0  0  0  0  0  0  0  0
  -24.9065  -11.3420   22.9439 O   0  0  0  0  0  0  0  0  0  0  0  0
  -21.1054  -13.0674   21.3990 O   0  0  0  0  0  0  0  0  0  0  0  0
  -28.2214  -17.7695   18.6831 O   0  0  0  0  0  0  0  0  0  0  0  0
  -20.4587  -26.0388   23.3753 O   0  0  0  0  0  0  0  0  0  0  0  0
  -31.4490  -13.6991   20.2436 O   0  0  0  0  0  0  0  0  0  1  0  0
  -17.4736  -30.4407   21.9204 F   0  0  0  0  0  0  0  0  0  0  0  0
  -21.6290  -28.5327   23.1443 F   0  0  0  0  0  0  0  0  0  0  0  0
  1  2  1  0  0  0  0
  1  5  2  0  0  0  0
  2  6  2  0  0  0  0
  3  9  2  0  0  0  0
  3 17  1  0  0  0  0
  4 10  1  0  0  0  0
  4 17  2  0  0  0  0
  5 19  1  0  0  0  0
  6 21  1  0  0  0  0
  7 11  2  0  0  0  0
  7 20  1  0  0  0  0
  8 14  2  0  0  0  0
  8 22  1  0  0  0  0
  9 24  1  0  0  0  0
 10 24  2  0  0  0  0
 11 25  1  0  0  0  0
 12 13  2  0  0  0  0
 12 26  1  0  0  0  0
 13 27  1  0  0  0  0
 14 30  1  0  0  0  0
 15 23  1  0  0  0  0
 15 25  2  0  0  0  0
 16 27  2  0  0  0  0
 16 28  1  0  0  0  0
 17 29  1  0  0  0  0
 18 29  1  0  0  0  0
 18 32  2  0  0  0  0
 18 33  1  0  0  0  0
 19 21  2  0  0  0  0
 19 38  1  0  0  0  0
 20 23  2  0  0  0  0
 20 39  1  0  0  0  0
 21 50  1  0  0  0  0
 22 31  2  0  0  0  0
 22 51  1  0  0  0  0
 23 40  1  0  0  0  0
 24 84  1  0  0  0  0
 25 85  1  0  0  0  0
 26 28  2  0  0  0  0
 26 84  1  0  0  0  0
 27 86  1  0  0  0  0
 28 87  1  0  0  0  0
 29 67  2  0  0  0  0
 30 59  1  0  0  0  0
 30 68  2  0  0  0  0
 31 60  1  0  0  0  0
 31 68  1  0  0  0  0
 32 69  1  0  0  0  0
 32 72  1  0  0  0  0
 33 73  1  0  0  0  0
 33 79  2  0  0  0  0
 34 52  1  0  0  0  0
 34 74  1  0  0  0  0
 34 80  2  0  0  0  0
 35 64  1  0  0  0  0
 35 70  1  0  0  0  0
 35 81  2  0  0  0  0
 36 65  1  0  0  0  0
 36 75  1  0  0  0  0
 36 82  2  0  0  0  0
 37 71  1  0  0  0  0
 37 76  1  0  0  0  0
 37 83  2  0  0  0  0
 38 41  1  0  0  0  0
 39 52  1  0  0  0  0
 40 70  1  0  0  0  0
 41 44  1  0  0  0  0
 42 46  1  0  0  0  0
 42 47  1  0  0  0  0
 43 45  1  0  0  0  0
 43 49  1  0  0  0  0
 44 50  1  0  0  0  0
 45 51  1  0  0  0  0
 46 53  1  0  0  0  0
 47 71  1  0  0  0  0
 48 53  1  0  0  0  0
 48 71  1  0  0  0  0
 49 77  1  0  0  0  0
 50 74  1  0  0  0  0
 51 77  1  0  0  0  0
 52 70  1  0  0  0  0
 53 69  1  0  0  0  0
 54 65  1  0  0  0  0
 55 66  1  0  0  0  0
 56 66  1  0  0  0  0
 57 66  1  0  0  0  0
 58 78  1  0  0  0  0
 59 61  1  0  0  0  0
 60 76  1  0  0  0  0
 61 62  1  0  0  0  0
 62 63  1  0  0  0  0
 63 85  1  0  0  0  0
 64 66  1  0  0  0  0
 64 75  1  0  0  0  0
 65 78  1  0  0  0  0
 67 69  1  0  0  0  0
M  CHG  2  77   1  78   1
M  ISO  4  37 100  63 101  76 100  85 101
M  END
> <Batch ID>
0134

> <Smiles>
CNC(C)C(=O)NC(C(=O)N1Cc2cc([101O:1][101CH2:1]CCCc3ccc(C4CCCN4)c(C[100NH:0][100C:0](=O)N4CCCC(n5nc(-c6ccc(Oc7ccc(F)cc7F)cc6)c(C(N)=O)c5N)C4)n3)ccc2CC1C(=O)NC1CCCc2ccccc21)C(C)(C)C

> <Shape>
0.228

> <Color>
0.060

> <Negative vol penalty>
0.000

$$$$

  -OEChem-04052320573D

 82 90  0     1  0  0  0  0  0999 V2000
  -30.2766  -35.7812   25.1366 C   0  0  0  0  0  0  0  0  0  0  0  0
  -30.4575  -34.8997   24.0756 C   0  0  0  0  0  0  0  0  0  0  0  0
  -24.2946   -9.2349   21.6514 C   0  0  0  0  0  0  0  0  0  0  0  0
  -22.3870  -10.1332   20.4720 C   0  0  0  0  0  0  0  0  0  0  0  0
  -29.3654  -35.4765   26.1469 C   0  0  0  0  0  0  0  0  0  0  0  0
  -29.7280  -33.7124   24.0249 C   0  0  0  0  0  0  0  0  0  0  0  0
  -26.7416  -29.1907   19.3396 C   0  0  0  0  0  0  0  0  0  0  0  0
  -24.0537  -20.6013   17.9088 C   0  0  0  0  0  0  0  0  0  0  0  0
  -23.2583  -21.7987   19.8507 C   0  0  0  0  0  0  0  0  0  0  0  0
  -24.3657  -19.5049   18.7126 C   0  0  0  0  0  0  0  0  0  0  0  0
  -23.5702  -20.7022   20.6545 C   0  0  0  0  0  0  0  0  0  0  0  0
  -23.6555   -7.9985   21.7434 C   0  0  0  0  0  0  0  0  0  0  0  0
  -21.7479   -8.8968   20.5640 C   0  0  0  0  0  0  0  0  0  0  0  0
  -26.7176  -27.8345   19.0169 C   0  0  0  0  0  0  0  0  0  0  0  0
  -21.2470   -6.5751   23.6401 C   0  0  0  0  0  0  0  0  0  0  0  0
  -21.2828   -5.9179   24.8699 C   0  0  0  0  0  0  0  0  0  0  0  0
  -25.1136  -27.4504   20.7774 C   0  0  0  0  0  0  0  0  0  0  0  0
  -22.4125   -4.0482   23.8378 C   0  0  0  0  0  0  0  0  0  0  0  0
  -23.6603  -10.3023   21.0157 C   0  0  0  0  0  0  0  0  0  0  0  0
  -25.1672  -12.0245   19.8883 C   0  0  0  0  0  0  0  0  0  0  0  0
  -28.6173  -34.2894   26.1035 C   0  0  0  0  0  0  0  0  0  0  0  0
  -25.9588  -29.6858   20.3924 C   0  0  0  0  0  0  0  0  0  0  0  0
  -28.8069  -33.3909   25.0362 C   0  0  0  0  0  0  0  0  0  0  0  0
  -25.1276  -28.8136   21.1097 C   0  0  0  0  0  0  0  0  0  0  0  0
  -23.5000  -21.7483   18.4778 C   0  0  0  0  0  0  0  0  0  0  0  0
  -24.1239  -19.5553   20.0855 C   0  0  0  0  0  0  0  0  0  0  0  0
  -22.3822   -7.8294   21.1997 C   0  0  0  0  0  0  0  0  0  0  0  0
  -25.9057  -26.9637   19.7377 C   0  0  0  0  0  0  0  0  0  0  0  0
  -21.7939   -5.9689   22.5092 C   0  0  0  0  0  0  0  0  0  0  0  0
  -21.8655   -4.6545   24.9688 C   0  0  0  0  0  0  0  0  0  0  0  0
  -22.3767   -4.7055   22.6080 C   0  0  0  0  0  0  0  0  0  0  0  0
  -24.3198  -11.5799   20.9208 C   0  0  0  0  0  0  0  0  0  0  0  0
  -25.5309  -13.2941   20.2655 C   0  0  0  0  0  0  0  0  0  0  0  0
  -25.5880  -11.3502   18.6951 C   0  0  0  0  0  0  0  0  0  0  0  0
  -26.5723  -31.1241   23.1599 C   0  0  0  0  0  0  0  0  0  0  0  0
  -23.3431  -31.4057   23.2834 C   0  0  0  0  0  0  0  0  0  0  0  0
  -20.2934  -30.2472   22.2814 C   0  0  0  0  0  0  0  0  0  0  0  0
  -24.2639  -18.3277   22.2808 C   0  0  0  0  0  0  0  0  0  0  0  0
  -27.6787  -33.9808   27.2430 C   0  0  0  0  0  0  0  0  0  0  0  0
  -25.9758  -31.1558   20.7105 C   0  0  0  0  0  0  0  0  0  0  0  0
  -24.2528  -29.2985   22.2358 C   0  0  0  0  0  0  0  0  0  0  0  0
  -26.6719  -32.8793   26.9216 C   0  0  0  0  0  0  0  0  0  0  0  0
  -24.8821  -15.7414   24.6486 C   0  0  0  0  0  0  0  0  0  0  0  0
  -27.3697  -31.6943   26.2617 C   0  0  0  0  0  0  0  0  0  0  0  0
  -24.8606  -14.4648   23.8049 C   0  0  0  0  0  0  0  0  0  0  0  0
  -23.8512  -16.7592   24.1635 C   0  0  0  0  0  0  0  0  0  0  0  0
  -23.9063  -15.8107   21.8905 C   0  0  0  0  0  0  0  0  0  0  0  0
  -28.0162  -32.1047   24.9331 C   0  0  1  0  0  0  0  0  0  0  0  0
  -25.5268  -31.4640   22.1356 C   0  0  1  0  0  0  0  0  0  0  0  0
  -24.9722  -14.7814   22.3006 C   0  0  2  0  0  0  0  0  0  0  0  0
  -21.6848  -23.3147   17.6755 C   0  0  0  0  0  0  0  0  0  0  0  0
  -17.8356  -30.6571   22.5789 C   0  0  0  0  0  0  0  0  0  0  0  0
  -23.4585  -30.0875   26.0327 C   0  0  0  0  0  0  0  0  0  0  0  0
  -20.9972  -29.6644   25.8561 C   0  0  0  0  0  0  0  0  0  0  0  0
  -21.8614  -32.0044   25.8611 C   0  0  0  0  0  0  0  0  0  0  0  0
  -19.9229  -30.8230   19.4021 C   0  0  0  0  0  0  0  0  0  0  0  0
  -25.4268  -23.9806   17.7446 C   0  0  0  0  0  0  0  0  0  0  0  0
  -26.1235  -25.2887   18.0635 C   0  0  0  0  0  0  0  0  0  1  0  0
  -23.1621  -22.9362   17.6068 C   0  0  1  0  0  0  0  0  0  0  0  0
  -22.2156  -30.5566   23.8189 C   0  0  1  0  0  0  0  0  0  0  0  0
  -19.0691  -30.9668   21.7450 C   0  0  2  0  0  0  0  0  0  0  0  0
  -22.1510  -30.5685   25.3723 C   0  0  0  0  0  0  0  0  0  0  0  0
  -24.1549  -12.4928   21.8817 N   0  0  0  0  0  0  0  0  0  0  0  0
  -24.9039  -13.5237   21.4547 N   0  0  0  0  0  0  0  0  0  0  0  0
  -24.3092  -30.7434   22.5129 N   0  0  0  0  0  0  0  0  0  0  0  0
  -24.0204  -17.0128   22.7311 N   0  0  0  0  0  0  0  0  0  0  0  0
  -26.3227  -14.2254   19.6926 N   0  0  0  0  0  0  0  0  0  0  0  0
  -25.1204  -10.0496   18.4623 N   0  0  0  0  0  0  0  0  0  0  0  0
  -24.4405  -18.4416   20.9022 N   0  0  0  0  0  0  0  0  0  0  0  0
  -27.0141  -32.2081   23.8941 N   0  0  0  0  0  0  0  0  0  0  0  0
  -21.0006  -31.0329   23.1667 N   0  0  0  0  0  0  0  0  0  0  0  0
  -18.8009  -30.5546   20.3382 N   0  3  0  0  0  0  0  0  0  0  0  0
  -23.9646  -24.1427   17.9447 N   0  3  0  0  0  0  0  0  0  0  0  0
  -26.3690  -11.8789   17.8680 O   0  0  0  0  0  0  0  0  0  0  0  0
  -26.9491  -29.9638   23.2765 O   0  0  0  0  0  0  0  0  0  0  0  0
  -23.3619  -32.6135   23.5333 O   0  0  0  0  0  0  0  0  0  0  0  0
  -20.5905  -29.1012   21.9512 O   0  0  0  0  0  0  0  0  0  0  0  0
  -24.3394  -19.2782   23.0636 O   0  0  0  0  0  0  0  0  0  0  0  0
  -21.7583   -6.6230   21.2891 O   0  0  0  0  0  0  0  0  0  0  0  0
  -25.8808  -25.6394   19.4253 O   0  0  0  0  0  0  0  0  0  1  0  0
  -21.9012   -4.0241   26.1501 F   0  0  0  0  0  0  0  0  0  0  0  0
  -22.9048   -4.1185   21.5253 F   0  0  0  0  0  0  0  0  0  0  0  0
  1  2  1  0  0  0  0
  1  5  2  0  0  0  0
  2  6  2  0  0  0  0
  3 12  2  0  0  0  0
  3 19  1  0  0  0  0
  4 13  1  0  0  0  0
  4 19  2  0  0  0  0
  5 21  1  0  0  0  0
  6 23  1  0  0  0  0
  7 14  2  0  0  0  0
  7 22  1  0  0  0  0
  8 10  2  0  0  0  0
  8 25  1  0  0  0  0
  9 11  1  0  0  0  0
  9 25  2  0  0  0  0
 10 26  1  0  0  0  0
 11 26  2  0  0  0  0
 12 27  1  0  0  0  0
 13 27  2  0  0  0  0
 14 28  1  0  0  0  0
 15 16  2  0  0  0  0
 15 29  1  0  0  0  0
 16 30  1  0  0  0  0
 17 24  1  0  0  0  0
 17 28  2  0  0  0  0
 18 30  2  0  0  0  0
 18 31  1  0  0  0  0
 19 32  1  0  0  0  0
 20 32  1  0  0  0  0
 20 33  2  0  0  0  0
 20 34  1  0  0  0  0
 21 23  2  0  0  0  0
 21 39  1  0  0  0  0
 22 24  2  0  0  0  0
 22 40  1  0  0  0  0
 23 48  1  0  0  0  0
 24 41  1  0  0  0  0
 25 59  1  0  0  0  0
 26 69  1  0  0  0  0
 27 79  1  0  0  0  0
 28 80  1  0  0  0  0
 29 31  2  0  0  0  0
 29 79  1  0  0  0  0
 30 81  1  0  0  0  0
 31 82  1  0  0  0  0
 32 63  2  0  0  0  0
 33 64  1  0  0  0  0
 33 67  1  0  0  0  0
 34 68  1  0  0  0  0
 34 74  2  0  0  0  0
 35 49  1  0  0  0  0
 35 70  1  0  0  0  0
 35 75  2  0  0  0  0
 36 60  1  0  0  0  0
 36 65  1  0  0  0  0
 36 76  2  0  0  0  0
 37 61  1  0  0  0  0
 37 71  1  0  0  0  0
 37 77  2  0  0  0  0
 38 66  1  0  0  0  0
 38 69  1  0  0  0  0
 38 78  2  0  0  0  0
 39 42  1  0  0  0  0
 40 49  1  0  0  0  0
 41 65  1  0  0  0  0
 42 44  1  0  0  0  0
 43 45  1  0  0  0  0
 43 46  1  0  0  0  0
 44 48  1  0  0  0  0
 45 50  1  0  0  0  0
 46 66  1  0  0  0  0
 47 50  1  0  0  0  0
 47 66  1  0  0  0  0
 48 70  1  0  0  0  0
 49 65  1  0  0  0  0
 50 64  1  0  0  0  0
 51 59  1  0  0  0  0
 52 61  1  0  0  0  0
 53 62  1  0  0  0  0
 54 62  1  0  0  0  0
 55 62  1  0  0  0  0
 56 72  1  0  0  0  0
 57 58  1  0  0  0  0
 57 73  1  0  0  0  0
 58 80  1  0  0  0  0
 59 73  1  0  0  0  0
 60 62  1  0  0  0  0
 60 71  1  0  0  0  0
 61 72  1  0  0  0  0
 63 64  1  0  0  0  0
M  CHG  2  72   1  73   1
M  ISO  4  38 100  58 101  69 100  80 101
M  END
> <Batch ID>
0134

> <Smiles>
CNC(C)C(=O)NC(C(=O)N1Cc2cc([101O:1][101CH2:1]CNC(C)c3ccc([100NH:0][100C:0](=O)N4CCCC(n5nc(-c6ccc(Oc7ccc(F)cc7F)cc6)c(C(N)=O)c5N)C4)cc3)ccc2CC1C(=O)NC1CCCc2ccccc21)C(C)(C)C

> <Shape>
0.237

> <Color>
0.123

> <Negative vol penalty>
0.000

$$$$

  -OEChem-04052320573D

 81 89  0     1  0  0  0  0  0999 V2000
  -24.5038  -29.2185   11.1059 C   0  0  0  0  0  0  0  0  0  0  0  0
  -24.8705  -28.0928   11.8364 C   0  0  0  0  0  0  0  0  0  0  0  0
  -22.9457  -10.0885   20.2330 C   0  0  0  0  0  0  0  0  0  0  0  0
  -24.2748   -9.2997   22.0901 C   0  0  0  0  0  0  0  0  0  0  0  0
  -24.3892  -30.4540   11.7418 C   0  0  0  0  0  0  0  0  0  0  0  0
  -25.1240  -28.2022   13.2033 C   0  0  0  0  0  0  0  0  0  0  0  0
  -23.9285  -24.0210   17.5154 C   0  0  0  0  0  0  0  0  0  0  0  0
  -28.5057  -20.5144   20.2454 C   0  0  0  0  0  0  0  0  0  0  0  0
  -26.5586  -19.2270   20.8687 C   0  0  0  0  0  0  0  0  0  0  0  0
  -22.2256   -8.8939   20.2410 C   0  0  0  0  0  0  0  0  0  0  0  0
  -23.5546   -8.1052   22.0981 C   0  0  0  0  0  0  0  0  0  0  0  0
  -24.7277  -23.0673   18.1443 C   0  0  0  0  0  0  0  0  0  0  0  0
  -29.3058  -19.6845   21.0307 C   0  0  0  0  0  0  0  0  0  0  0  0
  -27.3588  -18.3971   21.6540 C   0  0  0  0  0  0  0  0  0  0  0  0
  -20.5527   -7.0158   23.2039 C   0  0  0  0  0  0  0  0  0  0  0  0
  -20.1252   -6.5269   24.4383 C   0  0  0  0  0  0  0  0  0  0  0  0
  -25.0908  -24.5906   19.9793 C   0  0  0  0  0  0  0  0  0  0  0  0
  -21.3986   -4.5054   24.0786 C   0  0  0  0  0  0  0  0  0  0  0  0
  -23.9704  -10.2913   21.1575 C   0  0  0  0  0  0  0  0  0  0  0  0
  -24.4180  -12.7019   21.8621 C   0  0  0  0  0  0  0  0  0  0  0  0
  -24.6321  -30.5767   13.1190 C   0  0  0  0  0  0  0  0  0  0  0  0
  -23.7130  -25.2728   18.1095 C   0  0  0  0  0  0  0  0  0  0  0  0
  -25.0139  -29.4407   13.8580 C   0  0  0  0  0  0  0  0  0  0  0  0
  -24.2865  -25.5575   19.3570 C   0  0  0  0  0  0  0  0  0  0  0  0
  -27.1321  -20.2857   20.1645 C   0  0  0  0  0  0  0  0  0  0  0  0
  -22.5300   -7.9023   21.1736 C   0  0  0  0  0  0  0  0  0  0  0  0
  -28.7324  -18.6258   21.7350 C   0  0  0  0  0  0  0  0  0  0  0  0
  -25.3113  -23.3531   19.3751 C   0  0  0  0  0  0  0  0  0  0  0  0
  -21.4031   -6.2495   22.4068 C   0  0  0  0  0  0  0  0  0  0  0  0
  -20.5482   -5.2717   24.8757 C   0  0  0  0  0  0  0  0  0  0  0  0
  -21.8261   -4.9944   22.8442 C   0  0  0  0  0  0  0  0  0  0  0  0
  -24.7150  -11.5248   21.1493 C   0  0  0  0  0  0  0  0  0  0  0  0
  -25.4205  -13.5749   21.5165 C   0  0  0  0  0  0  0  0  0  0  0  0
  -23.3329  -12.9812   22.7567 C   0  0  0  0  0  0  0  0  0  0  0  0
  -24.3585  -28.2791   17.3038 C   0  0  0  0  0  0  0  0  0  0  0  0
  -22.6349  -28.9527   19.9680 C   0  0  0  0  0  0  0  0  0  0  0  0
  -21.4717  -27.9173   23.0048 C   0  0  0  0  0  0  0  0  0  0  0  0
  -30.8149  -14.6758   20.6038 C   0  0  0  0  0  0  0  0  0  0  0  0
  -24.5416  -31.9421   13.7532 C   0  0  0  0  0  0  0  0  0  0  0  0
  -22.8267  -26.2808   17.4308 C   0  0  0  0  0  0  0  0  0  0  0  0
  -24.0697  -26.8789   20.0465 C   0  0  0  0  0  0  0  0  0  0  0  0
  -24.4627  -31.9018   15.2772 C   0  0  0  0  0  0  0  0  0  0  0  0
  -28.9570  -13.2669   17.9131 C   0  0  0  0  0  0  0  0  0  0  0  0
  -25.5100  -30.9467   15.8408 C   0  0  0  0  0  0  0  0  0  0  0  0
  -27.6668  -12.7799   18.5750 C   0  0  0  0  0  0  0  0  0  0  0  0
  -30.1662  -13.0771   18.8263 C   0  0  0  0  0  0  0  0  0  0  0  0
  -28.7370  -13.1835   20.8312 C   0  0  0  0  0  0  0  0  0  0  0  0
  -25.2730  -29.5143   15.3471 C   0  0  1  0  0  0  0  0  0  0  0  0
  -23.0937  -27.7127   17.8844 C   0  0  1  0  0  0  0  0  0  0  0  0
  -27.4816  -13.4058   19.9705 C   0  0  2  0  0  0  0  0  0  0  0  0
  -20.1209  -28.7020   24.9687 C   0  0  0  0  0  0  0  0  0  0  0  0
  -25.0012  -30.6248   20.9244 C   0  0  0  0  0  0  0  0  0  0  0  0
  -24.0098  -30.5864   23.2230 C   0  0  0  0  0  0  0  0  0  0  0  0
  -22.7602  -31.6519   21.3453 C   0  0  0  0  0  0  0  0  0  0  0  0
  -19.4475  -25.7950   22.6082 C   0  0  0  0  0  0  0  0  0  0  0  0
  -26.2713  -21.1779   19.3193 C   0  0  0  0  0  0  0  0  0  1  0  0
  -31.3272  -16.2377   22.4632 C   0  0  0  0  0  0  0  0  0  0  0  0
  -30.8653  -17.6328   22.0817 C   0  0  0  0  0  0  0  0  0  0  0  0
  -22.9562  -29.1327   21.4320 C   0  0  1  0  0  0  0  0  0  0  0  0
  -20.0897  -27.9821   23.6295 C   0  0  2  0  0  0  0  0  0  0  0  0
  -23.6877  -30.4747   21.7176 C   0  0  0  0  0  0  0  0  0  0  0  0
  -25.8197  -11.6366   20.4069 N   0  0  0  0  0  0  0  0  0  0  0  0
  -26.2255  -12.8942   20.6512 N   0  0  0  0  0  0  0  0  0  0  0  0
  -23.2002  -27.8339   19.3398 N   0  0  0  0  0  0  0  0  0  0  0  0
  -29.9267  -13.6948   20.1327 N   0  0  0  0  0  0  0  0  0  0  0  0
  -25.6830  -14.8506   21.8714 N   0  0  0  0  0  0  0  0  0  0  0  0
  -22.3915  -11.9720   23.0008 N   0  0  0  0  0  0  0  0  0  0  0  0
  -24.1877  -28.8998   16.0811 N   0  0  0  0  0  0  0  0  0  0  0  0
  -21.6955  -28.9751   22.1490 N   0  0  0  0  0  0  0  0  0  0  0  0
  -30.5113  -15.2145   21.8481 N   0  0  0  0  0  0  0  0  0  0  0  0
  -19.5546  -26.6083   23.8468 N   0  3  0  0  0  0  0  0  0  0  0  0
  -23.1929  -14.0982   23.3101 O   0  0  0  0  0  0  0  0  0  0  0  0
  -25.4112  -28.1630   17.9203 O   0  0  0  0  0  0  0  0  0  0  0  0
  -21.9034  -29.7705   19.4044 O   0  0  0  0  0  0  0  0  0  0  0  0
  -22.2740  -27.0203   23.2540 O   0  0  0  0  0  0  0  0  0  0  0  0
  -31.8022  -15.0479   19.9606 O   0  0  0  0  0  0  0  0  0  0  0  0
  -21.8273   -6.7367   21.1819 O   0  0  0  0  0  0  0  0  0  0  0  0
  -26.0923  -22.4242   19.9909 O   0  0  0  0  0  0  0  0  0  1  0  0
  -29.5135  -17.8154   22.5001 O   0  0  0  0  0  0  0  0  0  0  0  0
  -20.1388   -4.8030   26.0618 F   0  0  0  0  0  0  0  0  0  0  0  0
  -22.6440   -4.2541   22.0833 F   0  0  0  0  0  0  0  0  0  0  0  0
  1  2  1  0  0  0  0
  1  5  2  0  0  0  0
  2  6  2  0  0  0  0
  3 10  2  0  0  0  0
  3 19  1  0  0  0  0
  4 11  1  0  0  0  0
  4 19  2  0  0  0  0
  5 21  1  0  0  0  0
  6 23  1  0  0  0  0
  7 12  2  0  0  0  0
  7 22  1  0  0  0  0
  8 13  2  0  0  0  0
  8 25  1  0  0  0  0
  9 14  1  0  0  0  0
  9 25  2  0  0  0  0
 10 26  1  0  0  0  0
 11 26  2  0  0  0  0
 12 28  1  0  0  0  0
 13 27  1  0  0  0  0
 14 27  2  0  0  0  0
 15 16  2  0  0  0  0
 15 29  1  0  0  0  0
 16 30  1  0  0  0  0
 17 24  1  0  0  0  0
 17 28  2  0  0  0  0
 18 30  2  0  0  0  0
 18 31  1  0  0  0  0
 19 32  1  0  0  0  0
 20 32  1  0  0  0  0
 20 33  2  0  0  0  0
 20 34  1  0  0  0  0
 21 23  2  0  0  0  0
 21 39  1  0  0  0  0
 22 24  2  0  0  0  0
 22 40  1  0  0  0  0
 23 48  1  0  0  0  0
 24 41  1  0  0  0  0
 25 56  1  0  0  0  0
 26 77  1  0  0  0  0
 27 79  1  0  0  0  0
 28 78  1  0  0  0  0
 29 31  2  0  0  0  0
 29 77  1  0  0  0  0
 30 80  1  0  0  0  0
 31 81  1  0  0  0  0
 32 62  2  0  0  0  0
 33 63  1  0  0  0  0
 33 66  1  0  0  0  0
 34 67  1  0  0  0  0
 34 72  2  0  0  0  0
 35 49  1  0  0  0  0
 35 68  1  0  0  0  0
 35 73  2  0  0  0  0
 36 59  1  0  0  0  0
 36 64  1  0  0  0  0
 36 74  2  0  0  0  0
 37 60  1  0  0  0  0
 37 69  1  0  0  0  0
 37 75  2  0  0  0  0
 38 65  1  0  0  0  0
 38 70  1  0  0  0  0
 38 76  2  0  0  0  0
 39 42  1  0  0  0  0
 40 49  1  0  0  0  0
 41 64  1  0  0  0  0
 42 44  1  0  0  0  0
 43 45  1  0  0  0  0
 43 46  1  0  0  0  0
 44 48  1  0  0  0  0
 45 50  1  0  0  0  0
 46 65  1  0  0  0  0
 47 50  1  0  0  0  0
 47 65  1  0  0  0  0
 48 68  1  0  0  0  0
 49 64  1  0  0  0  0
 50 63  1  0  0  0  0
 51 60  1  0  0  0  0
 52 61  1  0  0  0  0
 53 61  1  0  0  0  0
 54 61  1  0  0  0  0
 55 71  1  0  0  0  0
 56 78  1  0  0  0  0
 57 58  1  0  0  0  0
 57 70  1  0  0  0  0
 58 79  1  0  0  0  0
 59 61  1  0  0  0  0
 59 69  1  0  0  0  0
 60 71  1  0  0  0  0
 62 63  1  0  0  0  0
M  CHG  1  71   1
M  ISO  4  38 100  56 101  70 100  78 101
M  END
> <Batch ID>
0134

> <Smiles>
CNC(C)C(=O)NC(C(=O)N1Cc2cc([101O:1][101CH2:1]c3ccc(OCC[100NH:0][100C:0](=O)N4CCCC(n5nc(-c6ccc(Oc7ccc(F)cc7F)cc6)c(C(N)=O)c5N)C4)cc3)ccc2CC1C(=O)NC1CCCc2ccccc21)C(C)(C)C

> <Shape>
0.290

> <Color>
0.141

> <Negative vol penalty>
0.000

$$$$

  -OEChem-04052320573D

 82 90  0     1  0  0  0  0  0999 V2000
  -25.4662  -30.9357   20.3001 C   0  0  0  0  0  0  0  0  0  0  0  0
  -25.6135  -29.6679   19.7466 C   0  0  0  0  0  0  0  0  0  0  0  0
  -30.0258  -23.2022   21.0617 C   0  0  0  0  0  0  0  0  0  0  0  0
  -28.6267  -23.1770   19.0921 C   0  0  0  0  0  0  0  0  0  0  0  0
  -24.7564  -31.0978   21.4891 C   0  0  0  0  0  0  0  0  0  0  0  0
  -25.0519  -28.5612   20.3824 C   0  0  0  0  0  0  0  0  0  0  0  0
  -22.0755  -22.2074   18.9379 C   0  0  0  0  0  0  0  0  0  0  0  0
  -30.4927  -24.4697   20.7138 C   0  0  0  0  0  0  0  0  0  0  0  0
  -29.0936  -24.4445   18.7443 C   0  0  0  0  0  0  0  0  0  0  0  0
  -22.1903  -20.8611   19.2817 C   0  0  0  0  0  0  0  0  0  0  0  0
  -30.1861  -27.5208   17.1466 C   0  0  0  0  0  0  0  0  0  0  0  0
  -30.5448  -27.7370   15.8162 C   0  0  0  0  0  0  0  0  0  0  0  0
  -20.9176  -21.2717   21.2894 C   0  0  0  0  0  0  0  0  0  0  0  0
  -23.6151  -16.1693   20.7331 C   0  0  0  0  0  0  0  0  0  0  0  0
  -32.2105  -25.9948   15.9821 C   0  0  0  0  0  0  0  0  0  0  0  0
  -21.2391  -16.1573   20.6297 C   0  0  0  0  0  0  0  0  0  0  0  0
  -29.0928  -22.5558   20.2508 C   0  0  0  0  0  0  0  0  0  0  0  0
  -27.4918  -20.9415   21.4077 C   0  0  0  0  0  0  0  0  0  0  0  0
  -24.1775  -29.9938   22.1347 C   0  0  0  0  0  0  0  0  0  0  0  0
  -21.3891  -23.0996   19.7741 C   0  0  0  0  0  0  0  0  0  0  0  0
  -24.3348  -28.7085   21.5819 C   0  0  0  0  0  0  0  0  0  0  0  0
  -20.7934  -22.6283   20.9527 C   0  0  0  0  0  0  0  0  0  0  0  0
  -22.4319  -16.8332   20.4293 C   0  0  0  0  0  0  0  0  0  0  0  0
  -23.5701  -14.8681   21.2211 C   0  0  0  0  0  0  0  0  0  0  0  0
  -30.0266  -25.0908   19.5551 C   0  0  0  0  0  0  0  0  0  0  0  0
  -21.6137  -20.3937   20.4591 C   0  0  0  0  0  0  0  0  0  0  0  0
  -30.8397  -26.5417   17.8949 C   0  0  0  0  0  0  0  0  0  0  0  0
  -31.5570  -26.9740   15.2339 C   0  0  0  0  0  0  0  0  0  0  0  0
  -31.8518  -25.7787   17.3127 C   0  0  0  0  0  0  0  0  0  0  0  0
  -28.6105  -21.2462   20.6093 C   0  0  0  0  0  0  0  0  0  0  0  0
  -22.3264  -14.2801   21.3862 C   0  0  0  0  0  0  0  0  0  0  0  0
  -27.4610  -19.5689   21.4461 C   0  0  0  0  0  0  0  0  0  0  0  0
  -26.5633  -21.8205   22.0565 C   0  0  0  0  0  0  0  0  0  0  0  0
  -22.1860  -25.7076   21.4072 C   0  0  0  0  0  0  0  0  0  0  0  0
  -18.9984  -25.8413   21.9934 C   0  0  0  0  0  0  0  0  0  0  0  0
  -16.0234  -24.1854   22.2257 C   0  0  0  0  0  0  0  0  0  0  0  0
  -27.8462  -14.6191   18.8972 C   0  0  0  0  0  0  0  0  0  0  0  0
  -23.4595  -30.2122   23.4429 C   0  0  0  0  0  0  0  0  0  0  0  0
  -21.2514  -24.5434   19.3756 C   0  0  0  0  0  0  0  0  0  0  0  0
  -20.0285  -23.5412   21.8746 C   0  0  0  0  0  0  0  0  0  0  0  0
  -22.5762  -29.0379   23.8564 C   0  0  0  0  0  0  0  0  0  0  0  0
  -30.8809  -16.1560   19.9484 C   0  0  0  0  0  0  0  0  0  0  0  0
  -23.3281  -27.7208   23.6930 C   0  0  0  0  0  0  0  0  0  0  0  0
  -30.4696  -17.5930   20.2737 C   0  0  0  0  0  0  0  0  0  0  0  0
  -30.1129  -15.6071   18.7480 C   0  0  0  0  0  0  0  0  0  0  0  0
  -28.2338  -17.1423   19.1797 C   0  0  0  0  0  0  0  0  0  0  0  0
  -23.7191  -27.4868   22.2288 C   0  0  1  0  0  0  0  0  0  0  0  0
  -20.9703  -25.4654   20.5581 C   0  0  1  0  0  0  0  0  0  0  0  0
  -28.9411  -17.7198   20.4176 C   0  0  2  0  0  0  0  0  0  0  0  0
  -13.5994  -24.5553   22.7595 C   0  0  0  0  0  0  0  0  0  0  0  0
  -19.6780  -25.9911   24.9643 C   0  0  0  0  0  0  0  0  0  0  0  0
  -17.2967  -25.4040   25.4672 C   0  0  0  0  0  0  0  0  0  0  0  0
  -17.8277  -27.5095   24.2394 C   0  0  0  0  0  0  0  0  0  0  0  0
  -15.1761  -23.3078   19.5293 C   0  0  0  0  0  0  0  0  0  0  0  0
  -24.8410  -14.1591   21.5452 C   0  0  0  0  0  0  0  0  0  0  0  0
  -22.4458  -18.2371   19.8999 C   0  0  0  0  0  0  0  0  0  1  0  0
  -25.3073  -13.1596   20.4680 C   0  0  0  0  0  0  0  0  0  0  0  0
  -25.5193  -13.7773   19.0875 C   0  0  0  0  0  0  0  0  0  0  0  0
  -18.0833  -25.2884   23.0592 C   0  0  1  0  0  0  0  0  0  0  0  0
  -14.6496  -24.4984   21.6609 C   0  0  2  0  0  0  0  0  0  0  0  0
  -18.2374  -26.0312   24.4163 C   0  0  0  0  0  0  0  0  0  0  0  0
  -21.1555  -14.8933   21.1019 N   0  0  0  0  0  0  0  0  0  0  0  0
  -29.2447  -20.1550   20.1722 N   0  0  0  0  0  0  0  0  0  0  0  0
  -28.5221  -19.1512   20.6978 N   0  0  0  0  0  0  0  0  0  0  0  0
  -19.9271  -24.9456   21.4445 N   0  0  0  0  0  0  0  0  0  0  0  0
  -28.6694  -15.7560   18.9486 N   0  0  0  0  0  0  0  0  0  0  0  0
  -22.2756  -12.9538   21.8835 N   0  0  0  0  0  0  0  0  0  0  0  0
  -26.6302  -18.6905   22.0466 N   0  0  0  0  0  0  0  0  0  0  0  0
  -26.7410  -23.2034   21.9135 N   0  0  0  0  0  0  0  0  0  0  0  0
  -22.5759  -27.0320   21.4668 N   0  0  0  0  0  0  0  0  0  0  0  0
  -16.7353  -25.3332   22.5031 N   0  0  0  0  0  0  0  0  0  0  0  0
  -26.4913  -14.8477   19.1041 N   0  0  0  0  0  0  0  0  0  0  0  0
  -14.2441  -23.4554   20.6768 N   0  3  0  0  0  0  0  0  0  0  0  0
  -25.6142  -21.3926   22.7561 O   0  0  0  0  0  0  0  0  0  0  0  0
  -22.7293  -24.7631   21.9679 O   0  0  0  0  0  0  0  0  0  0  0  0
  -18.8885  -27.0224   21.6552 O   0  0  0  0  0  0  0  0  0  0  0  0
  -16.4235  -23.0374   22.4065 O   0  0  0  0  0  0  0  0  0  0  0  0
  -28.2867  -13.4837   18.6881 O   0  0  0  0  0  0  0  0  0  0  0  0
  -30.4819  -26.3278   19.2155 O   0  0  0  0  0  0  0  0  0  0  0  0
  -21.7248  -19.0803   20.7974 O   0  0  0  0  0  0  0  0  0  1  0  0
  -31.9002  -27.1807   13.9558 F   0  0  0  0  0  0  0  0  0  0  0  0
  -32.4824  -24.8358   18.0261 F   0  0  0  0  0  0  0  0  0  0  0  0
  1  2  1  0  0  0  0
  1  5  2  0  0  0  0
  2  6  2  0  0  0  0
  3  8  2  0  0  0  0
  3 17  1  0  0  0  0
  4  9  1  0  0  0  0
  4 17  2  0  0  0  0
  5 19  1  0  0  0  0
  6 21  1  0  0  0  0
  7 10  2  0  0  0  0
  7 20  1  0  0  0  0
  8 25  1  0  0  0  0
  9 25  2  0  0  0  0
 10 26  1  0  0  0  0
 11 12  2  0  0  0  0
 11 27  1  0  0  0  0
 12 28  1  0  0  0  0
 13 22  1  0  0  0  0
 13 26  2  0  0  0  0
 14 23  2  0  0  0  0
 14 24  1  0  0  0  0
 15 28  2  0  0  0  0
 15 29  1  0  0  0  0
 16 23  1  0  0  0  0
 16 62  2  0  0  0  0
 17 30  1  0  0  0  0
 18 30  1  0  0  0  0
 18 32  2  0  0  0  0
 18 33  1  0  0  0  0
 19 21  2  0  0  0  0
 19 38  1  0  0  0  0
 20 22  2  0  0  0  0
 20 39  1  0  0  0  0
 21 47  1  0  0  0  0
 22 40  1  0  0  0  0
 23 56  1  0  0  0  0
 24 31  2  0  0  0  0
 24 55  1  0  0  0  0
 25 79  1  0  0  0  0
 26 80  1  0  0  0  0
 27 29  2  0  0  0  0
 27 79  1  0  0  0  0
 28 81  1  0  0  0  0
 29 82  1  0  0  0  0
 30 63  2  0  0  0  0
 31 62  1  0  0  0  0
 31 67  1  0  0  0  0
 32 64  1  0  0  0  0
 32 68  1  0  0  0  0
 33 69  1  0  0  0  0
 33 74  2  0  0  0  0
 34 48  1  0  0  0  0
 34 70  1  0  0  0  0
 34 75  2  0  0  0  0
 35 59  1  0  0  0  0
 35 65  1  0  0  0  0
 35 76  2  0  0  0  0
 36 60  1  0  0  0  0
 36 71  1  0  0  0  0
 36 77  2  0  0  0  0
 37 66  1  0  0  0  0
 37 72  1  0  0  0  0
 37 78  2  0  0  0  0
 38 41  1  0  0  0  0
 39 48  1  0  0  0  0
 40 65  1  0  0  0  0
 41 43  1  0  0  0  0
 42 44  1  0  0  0  0
 42 45  1  0  0  0  0
 43 47  1  0  0  0  0
 44 49  1  0  0  0  0
 45 66  1  0  0  0  0
 46 49  1  0  0  0  0
 46 66  1  0  0  0  0
 47 70  1  0  0  0  0
 48 65  1  0  0  0  0
 49 64  1  0  0  0  0
 50 60  1  0  0  0  0
 51 61  1  0  0  0  0
 52 61  1  0  0  0  0
 53 61  1  0  0  0  0
 54 73  1  0  0  0  0
 55 57  1  0  0  0  0
 56 80  1  0  0  0  0
 57 58  1  0  0  0  0
 58 72  1  0  0  0  0
 59 61  1  0  0  0  0
 59 71  1  0  0  0  0
 60 73  1  0  0  0  0
 63 64  1  0  0  0  0
M  CHG  1  73   1
M  ISO  4  37 100  56 101  72 100  80 101
M  END
> <Batch ID>
0134

> <Smiles>
CNC(C)C(=O)NC(C(=O)N1Cc2cc([101O:1][101CH2:1]c3cnc(N)c(CCC[100NH:0][100C:0](=O)N4CCCC(n5nc(-c6ccc(Oc7ccc(F)cc7F)cc6)c(C(N)=O)c5N)C4)c3)ccc2CC1C(=O)NC1CCCc2ccccc21)C(C)(C)C

> <Shape>
0.207

> <Color>
0.060

> <Negative vol penalty>
0.000

$$$$

  -OEChem-04052320573D

 92101  0     1  0  0  0  0  0999 V2000
  -23.0534  -32.5444   25.6948 C   0  0  0  0  0  0  0  0  0  0  0  0
  -23.6330  -31.2830   25.6028 C   0  0  0  0  0  0  0  0  0  0  0  0
  -23.0694   -9.8361   19.9691 C   0  0  0  0  0  0  0  0  0  0  0  0
  -23.7384   -9.9584   22.2874 C   0  0  0  0  0  0  0  0  0  0  0  0
  -21.8001  -32.7773   25.1300 C   0  0  0  0  0  0  0  0  0  0  0  0
  -22.9591  -30.2535   24.9468 C   0  0  0  0  0  0  0  0  0  0  0  0
  -25.4508  -25.7601   21.6141 C   0  0  0  0  0  0  0  0  0  0  0  0
  -22.3299   -8.6856   20.2431 C   0  0  0  0  0  0  0  0  0  0  0  0
  -22.9989   -8.8079   22.5614 C   0  0  0  0  0  0  0  0  0  0  0  0
  -25.7643  -24.4347   21.9119 C   0  0  0  0  0  0  0  0  0  0  0  0
  -23.3506   -5.4682   22.1701 C   0  0  0  0  0  0  0  0  0  0  0  0
  -23.9495   -4.4852   22.9580 C   0  0  0  0  0  0  0  0  0  0  0  0
  -23.6634  -23.7299   20.9586 C   0  0  0  0  0  0  0  0  0  0  0  0
  -22.1803   -4.7136   24.5875 C   0  0  0  0  0  0  0  0  0  0  0  0
  -23.7737  -10.4725   20.9912 C   0  0  0  0  0  0  0  0  0  0  0  0
  -24.0902  -12.9940   20.7678 C   0  0  0  0  0  0  0  0  0  0  0  0
  -21.1149  -31.7527   24.4583 C   0  0  0  0  0  0  0  0  0  0  0  0
  -24.2344  -26.0820   20.9951 C   0  0  0  0  0  0  0  0  0  0  0  0
  -21.6950  -30.4725   24.3736 C   0  0  0  0  0  0  0  0  0  0  0  0
  -23.3380  -25.0599   20.6517 C   0  0  0  0  0  0  0  0  0  0  0  0
  -22.2946   -8.1715   21.5393 C   0  0  0  0  0  0  0  0  0  0  0  0
  -24.8693  -23.4196   21.5868 C   0  0  0  0  0  0  0  0  0  0  0  0
  -22.1667   -6.0739   22.5909 C   0  0  0  0  0  0  0  0  0  0  0  0
  -23.3643   -4.1080   24.1667 C   0  0  0  0  0  0  0  0  0  0  0  0
  -21.5815   -5.6966   23.7995 C   0  0  0  0  0  0  0  0  0  0  0  0
  -24.5382  -11.6607   20.7086 C   0  0  0  0  0  0  0  0  0  0  0  0
  -25.1868  -13.7408   20.4128 C   0  0  0  0  0  0  0  0  0  0  0  0
  -22.7982  -13.5111   21.1129 C   0  0  0  0  0  0  0  0  0  0  0  0
  -21.6978  -27.8195   21.8017 C   0  0  0  0  0  0  0  0  0  0  0  0
  -20.7768  -27.1775   18.7584 C   0  0  0  0  0  0  0  0  0  0  0  0
  -20.9979  -25.1332   16.0347 C   0  0  0  0  0  0  0  0  0  0  0  0
  -30.6465  -14.8419   20.7662 C   0  0  0  0  0  0  0  0  0  0  0  0
  -19.7415  -32.0395   23.9047 C   0  0  0  0  0  0  0  0  0  0  0  0
  -23.9229  -27.5140   20.6564 C   0  0  0  0  0  0  0  0  0  0  0  0
  -22.0278  -25.3507   19.9680 C   0  0  0  0  0  0  0  0  0  0  0  0
  -19.2590  -30.9952   22.9013 C   0  0  0  0  0  0  0  0  0  0  0  0
  -29.6319  -12.3354   18.4500 C   0  0  0  0  0  0  0  0  0  0  0  0
  -19.5087  -29.5878   23.4337 C   0  0  0  0  0  0  0  0  0  0  0  0
  -26.5617  -19.5183   21.3986 C   0  0  0  0  0  0  0  0  0  0  0  0
  -28.1821  -12.0422   18.8400 C   0  0  0  0  0  0  0  0  0  0  0  0
  -25.0561  -19.7499   21.5340 C   0  0  0  0  0  0  0  0  0  0  0  0
  -25.1244  -21.3523   19.5866 C   0  0  0  0  0  0  0  0  0  0  0  0
  -30.4984  -12.6234   19.6740 C   0  0  0  0  0  0  0  0  0  0  0  0
  -30.8732  -18.9473   16.9017 C   0  0  0  0  0  0  0  0  0  0  0  0
  -28.5351  -13.3912   20.9506 C   0  0  0  0  0  0  0  0  0  0  0  0
  -30.5568  -17.4805   16.6513 C   0  0  0  0  0  0  0  0  0  0  0  0
  -28.6593  -17.6737   18.2323 C   0  0  0  0  0  0  0  0  0  0  0  0
  -21.0062  -29.3368   23.6485 C   0  0  1  0  0  0  0  0  0  0  0  0
  -22.4294  -27.7774   20.4900 C   0  0  1  0  0  0  0  0  0  0  0  0
  -27.0459  -19.7363   19.9587 C   0  0  1  0  0  0  0  0  0  0  0  0
  -27.6101  -13.1497   19.7454 C   0  0  2  0  0  0  0  0  0  0  0  0
  -24.6353  -21.1231   21.0145 C   0  0  2  0  0  0  0  0  0  1  0  0
  -26.6330  -21.1257   19.4441 C   0  0  1  0  0  0  0  0  0  0  0  0
  -29.0136  -19.1502   18.4626 C   0  0  1  0  0  0  0  0  0  0  0  0
  -20.0988  -24.8452   13.7096 C   0  0  0  0  0  0  0  0  0  0  0  0
  -30.5714  -21.5570   17.1800 C   0  0  0  0  0  0  0  0  0  0  0  0
  -32.3228  -20.8250   18.8361 C   0  0  0  0  0  0  0  0  0  0  0  0
  -18.1485  -26.1363   19.9064 C   0  0  0  0  0  0  0  0  0  0  0  0
  -17.7120  -25.0187   17.7089 C   0  0  0  0  0  0  0  0  0  0  0  0
  -17.9094  -27.5027   17.8254 C   0  0  0  0  0  0  0  0  0  0  0  0
  -23.6927  -25.3830   14.8369 C   0  0  0  0  0  0  0  0  0  0  0  0
  -27.0615  -22.6299   17.6901 C   0  0  0  0  0  0  0  0  0  0  0  0
  -30.6383  -17.0475   21.9038 C   0  0  0  0  0  0  0  0  0  0  0  0
  -30.3806  -18.1416   20.8847 C   0  0  0  0  0  0  0  0  0  0  0  0
  -19.9830  -26.0808   18.0905 C   0  0  1  0  0  0  0  0  0  0  0  0
  -21.2106  -25.4361   14.5625 C   0  0  2  0  0  0  0  0  0  0  0  0
  -28.5608  -19.5265   19.8801 C   0  0  2  0  0  0  0  0  0  0  0  0
  -30.8508  -20.7728   18.4538 C   0  0  0  0  0  0  0  0  0  0  0  0
  -18.4620  -26.1790   18.3974 C   0  0  0  0  0  0  0  0  0  0  0  0
  -25.8196  -11.5630   20.3445 N   0  0  0  0  0  0  0  0  0  0  0  0
  -26.1861  -12.8444   20.1717 N   0  0  0  0  0  0  0  0  0  0  0  0
  -21.7660  -26.7671   19.6633 N   0  0  0  0  0  0  0  0  0  0  0  0
  -29.9013  -13.6838   20.4894 N   0  0  0  0  0  0  0  0  0  0  0  0
  -30.4625  -19.3742   18.2513 N   0  0  2  0  0  0  0  0  0  0  0  0
  -25.3842  -15.0703   20.2865 N   0  0  0  0  0  0  0  0  0  0  0  0
  -21.7846  -12.6046   21.4524 N   0  0  0  0  0  0  0  0  0  0  0  0
  -21.6605  -29.0716   22.3851 N   0  0  0  0  0  0  0  0  0  0  0  0
  -20.3115  -26.1459   16.6705 N   0  0  0  0  0  0  0  0  0  0  0  0
  -30.0038  -15.8000   21.5405 N   0  0  0  0  0  0  0  0  0  0  0  0
  -29.1016  -17.2608   16.8709 N   0  3  0  0  0  0  0  0  0  0  0  0
  -22.5093  -24.8703   14.0996 N   0  3  0  0  0  0  0  0  0  0  0  0
  -28.9221  -18.4252   20.8086 N   0  3  0  0  0  0  0  0  0  0  0  0
  -22.5454  -14.7397   21.1040 O   0  0  0  0  0  0  0  0  0  0  0  0
  -21.2025  -26.7924   22.2506 O   0  0  0  0  0  0  0  0  0  0  0  0
  -20.5331  -28.3547   18.4819 O   0  0  0  0  0  0  0  0  0  0  0  0
  -21.3973  -24.0997   16.5665 O   0  0  0  0  0  0  0  0  0  0  0  0
  -31.7973  -15.0118   20.3492 O   0  0  0  0  0  0  0  0  0  0  0  0
  -21.5730   -7.0490   21.8071 O   0  0  0  0  0  0  0  0  0  0  0  0
  -25.1726  -22.1251   21.8769 O   0  0  0  0  0  0  0  0  0  1  0  0
  -26.9567  -21.2641   18.0627 O   0  0  0  0  0  0  0  0  0  0  0  0
  -23.9387   -3.1629   24.9225 F   0  0  0  0  0  0  0  0  0  0  0  0
  -20.4435   -6.2741   24.2084 F   0  0  0  0  0  0  0  0  0  0  0  0
  1  2  1  0  0  0  0
  1  5  2  0  0  0  0
  2  6  2  0  0  0  0
  3  8  2  0  0  0  0
  3 15  1  0  0  0  0
  4  9  1  0  0  0  0
  4 15  2  0  0  0  0
  5 17  1  0  0  0  0
  6 19  1  0  0  0  0
  7 10  2  0  0  0  0
  7 18  1  0  0  0  0
  8 21  1  0  0  0  0
  9 21  2  0  0  0  0
 10 22  1  0  0  0  0
 11 12  2  0  0  0  0
 11 23  1  0  0  0  0
 12 24  1  0  0  0  0
 13 20  1  0  0  0  0
 13 22  2  0  0  0  0
 14 24  2  0  0  0  0
 14 25  1  0  0  0  0
 15 26  1  0  0  0  0
 16 26  1  0  0  0  0
 16 27  2  0  0  0  0
 16 28  1  0  0  0  0
 17 19  2  0  0  0  0
 17 33  1  0  0  0  0
 18 20  2  0  0  0  0
 18 34  1  0  0  0  0
 19 48  1  0  0  0  0
 20 35  1  0  0  0  0
 21 88  1  0  0  0  0
 22 89  1  0  0  0  0
 23 25  2  0  0  0  0
 23 88  1  0  0  0  0
 24 91  1  0  0  0  0
 25 92  1  0  0  0  0
 26 70  2  0  0  0  0
 27 71  1  0  0  0  0
 27 75  1  0  0  0  0
 28 76  1  0  0  0  0
 28 83  2  0  0  0  0
 29 49  1  0  0  0  0
 29 77  1  0  0  0  0
 29 84  2  0  0  0  0
 30 65  1  0  0  0  0
 30 72  1  0  0  0  0
 30 85  2  0  0  0  0
 31 66  1  0  0  0  0
 31 78  1  0  0  0  0
 31 86  2  0  0  0  0
 32 73  1  0  0  0  0
 32 79  1  0  0  0  0
 32 87  2  0  0  0  0
 33 36  1  0  0  0  0
 34 49  1  0  0  0  0
 35 72  1  0  0  0  0
 36 38  1  0  0  0  0
 37 40  1  0  0  0  0
 37 43  1  0  0  0  0
 38 48  1  0  0  0  0
 39 41  1  0  0  0  0
 39 50  1  0  0  0  0
 40 51  1  0  0  0  0
 41 52  1  0  0  0  0
 42 52  1  0  0  0  0
 42 53  1  0  0  0  0
 43 73  1  0  0  0  0
 44 46  1  0  0  0  0
 44 74  1  0  0  0  0
 45 51  1  0  0  0  0
 45 73  1  0  0  0  0
 46 80  1  0  0  0  0
 47 54  1  0  0  0  0
 47 80  1  0  0  0  0
 48 77  1  0  0  0  0
 49 72  1  0  0  0  0
 50 53  1  0  0  0  0
 50 67  1  0  0  0  0
 51 71  1  0  0  0  0
 52 89  1  0  0  0  0
 53 90  1  0  0  0  0
 54 67  1  0  0  0  0
 54 74  1  0  0  0  0
 55 66  1  0  0  0  0
 56 68  1  0  0  0  0
 57 68  1  0  0  0  0
 58 69  1  0  0  0  0
 59 69  1  0  0  0  0
 60 69  1  0  0  0  0
 61 81  1  0  0  0  0
 62 90  1  0  0  0  0
 63 64  1  0  0  0  0
 63 79  1  0  0  0  0
 64 82  1  0  0  0  0
 65 69  1  0  0  0  0
 65 78  1  0  0  0  0
 66 81  1  0  0  0  0
 67 82  1  0  0  0  0
 68 74  1  0  0  0  0
 70 71  1  0  0  0  0
M  CHG  3  80   1  81   1  82   1
M  ISO  4  32 100  52 101  79 100  89 101
M  END
> <Batch ID>
0134

> <Smiles>
CNC(C)C(=O)NC(C(=O)N1Cc2cc([101O:1][101CH:1]3CCC(C(NCC[100NH:0][100C:0](=O)N4CCCC(n5nc(-c6ccc(Oc7ccc(F)cc7F)cc6)c(C(N)=O)c5N)C4)C4CNCCN4C(C)C)C(OC)C3)ccc2CC1C(=O)NC1CCCc2ccccc21)C(C)(C)C

> <Shape>
0.266

> <Color>
0.192

> <Negative vol penalty>
0.000

$$$$

  -OEChem-04052320573D

 81 89  0     1  0  0  0  0  0999 V2000
  -16.8365  -30.9380   23.3687 C   0  0  0  0  0  0  0  0  0  0  0  0
  -17.9904  -31.4366   22.7726 C   0  0  0  0  0  0  0  0  0  0  0  0
  -27.8767  -13.5504   22.1033 C   0  0  0  0  0  0  0  0  0  0  0  0
  -27.2100  -14.4434   19.9597 C   0  0  0  0  0  0  0  0  0  0  0  0
  -16.8984  -29.7822   24.1460 C   0  0  0  0  0  0  0  0  0  0  0  0
  -19.2072  -30.7802   22.9545 C   0  0  0  0  0  0  0  0  0  0  0  0
  -25.3535  -29.3719   19.5551 C   0  0  0  0  0  0  0  0  0  0  0  0
  -31.4698  -24.8961   18.3287 C   0  0  0  0  0  0  0  0  0  0  0  0
  -30.9261  -23.7884   17.6783 C   0  0  0  0  0  0  0  0  0  0  0  0
  -27.0202  -12.4653   21.9177 C   0  0  0  0  0  0  0  0  0  0  0  0
  -26.3535  -13.3582   19.7740 C   0  0  0  0  0  0  0  0  0  0  0  0
  -26.7322  -29.4731   19.7362 C   0  0  0  0  0  0  0  0  0  0  0  0
  -24.7394   -9.6440   22.1675 C   0  0  0  0  0  0  0  0  0  0  0  0
  -23.9366   -9.2585   23.2410 C   0  0  0  0  0  0  0  0  0  0  0  0
  -26.7046  -27.4404   21.0349 C   0  0  0  0  0  0  0  0  0  0  0  0
  -30.3301  -24.2617   20.3623 C   0  0  0  0  0  0  0  0  0  0  0  0
  -22.9060  -11.4436   23.2549 C   0  0  0  0  0  0  0  0  0  0  0  0
  -27.9716  -14.5395   21.1244 C   0  0  0  0  0  0  0  0  0  0  0  0
  -30.2075  -15.7527   20.9335 C   0  0  0  0  0  0  0  0  0  0  0  0
  -18.1147  -29.1059   24.3296 C   0  0  0  0  0  0  0  0  0  0  0  0
  -24.6372  -28.3083   20.1226 C   0  0  0  0  0  0  0  0  0  0  0  0
  -19.2856  -29.6150   23.7361 C   0  0  0  0  0  0  0  0  0  0  0  0
  -25.3173  -27.3266   20.8573 C   0  0  0  0  0  0  0  0  0  0  0  0
  -31.1719  -25.1327   19.6707 C   0  0  0  0  0  0  0  0  0  0  0  0
  -30.0843  -22.9173   18.3700 C   0  0  0  0  0  0  0  0  0  0  0  0
  -29.7863  -23.1539   19.7120 C   0  0  0  0  0  0  0  0  0  0  0  0
  -26.2586  -12.3692   20.7531 C   0  0  0  0  0  0  0  0  0  0  0  0
  -27.4075  -28.5088   20.4786 C   0  0  0  0  0  0  0  0  0  0  0  0
  -24.6256  -10.9293   21.6377 C   0  0  0  0  0  0  0  0  0  0  0  0
  -23.0198  -10.1582   23.7846 C   0  0  0  0  0  0  0  0  0  0  0  0
  -23.7089  -11.8291   22.1814 C   0  0  0  0  0  0  0  0  0  0  0  0
  -28.8558  -15.6609   21.3158 C   0  0  0  0  0  0  0  0  0  0  0  0
  -30.5936  -17.0080   21.3354 C   0  0  0  0  0  0  0  0  0  0  0  0
  -31.0397  -14.7894   20.2738 C   0  0  0  0  0  0  0  0  0  0  0  0
  -22.3005  -28.0671   22.2640 C   0  0  0  0  0  0  0  0  0  0  0  0
  -22.3902  -24.9330   21.4325 C   0  0  0  0  0  0  0  0  0  0  0  0
  -24.1781  -22.3276   20.1433 C   0  0  0  0  0  0  0  0  0  0  0  0
  -28.5514  -22.3931   21.7717 C   0  0  0  0  0  0  0  0  0  0  0  0
  -18.1408  -27.8869   25.2173 C   0  0  0  0  0  0  0  0  0  0  0  0
  -23.1544  -28.1990   19.8955 C   0  0  0  0  0  0  0  0  0  0  0  0
  -24.5976  -26.1541   21.4703 C   0  0  0  0  0  0  0  0  0  0  0  0
  -19.4008  -27.0408   25.0532 C   0  0  0  0  0  0  0  0  0  0  0  0
  -28.8937  -20.2906   24.6246 C   0  0  0  0  0  0  0  0  0  0  0  0
  -20.6429  -27.9261   25.0594 C   0  0  0  0  0  0  0  0  0  0  0  0
  -29.0511  -18.8907   24.0265 C   0  0  0  0  0  0  0  0  0  0  0  0
  -27.9124  -21.1431   23.8221 C   0  0  0  0  0  0  0  0  0  0  0  0
  -28.3538  -19.8287   21.7857 C   0  0  0  0  0  0  0  0  0  0  0  0
  -20.6197  -28.9174   23.8896 C   0  0  1  0  0  0  0  0  0  0  0  0
  -22.4491  -27.3524   20.9506 C   0  0  1  0  0  0  0  0  0  0  0  0
  -29.3818  -18.9544   22.5224 C   0  0  2  0  0  0  0  0  0  0  0  0
  -23.9961  -19.8791   19.6244 C   0  0  0  0  0  0  0  0  0  0  0  0
  -22.6994  -24.2841   24.3978 C   0  0  0  0  0  0  0  0  0  0  0  0
  -23.4542  -21.9879   23.7452 C   0  0  0  0  0  0  0  0  0  0  0  0
  -21.1576  -22.7596   23.1516 C   0  0  0  0  0  0  0  0  0  0  0  0
  -24.6376  -22.7868   17.2559 C   0  0  0  0  0  0  0  0  0  0  0  0
  -31.7599  -26.3302   20.3733 C   0  0  0  0  0  0  0  0  0  0  0  0
  -30.8923  -27.5872   20.2790 C   0  0  0  0  0  0  0  0  0  0  0  0
  -29.4775  -27.3854   20.8092 C   0  0  0  0  0  0  0  0  0  1  0  0
  -23.1450  -23.7192   21.9182 C   0  0  1  0  0  0  0  0  0  0  0  0
  -23.8318  -21.2926   19.0881 C   0  0  2  0  0  0  0  0  0  0  0  0
  -22.6276  -23.2107   23.2934 C   0  0  0  0  0  0  0  0  0  0  0  0
  -28.4130  -16.7696   21.9148 N   0  0  0  0  0  0  0  0  0  0  0  0
  -29.4926  -17.5699   21.9120 N   0  0  0  0  0  0  0  0  0  0  0  0
  -23.1471  -26.0949   21.2254 N   0  0  0  0  0  0  0  0  0  0  0  0
  -28.2911  -21.1607   22.4074 N   0  0  0  0  0  0  0  0  0  0  0  0
  -29.5452  -21.8014   17.6914 N   0  0  0  0  0  0  0  0  0  0  0  0
  -31.7640  -17.6750   21.2485 N   0  0  0  0  0  0  0  0  0  0  0  0
  -30.4837  -13.5493   19.9310 N   0  0  0  0  0  0  0  0  0  0  0  0
  -28.9344  -22.2829   20.4353 N   0  0  0  0  0  0  0  0  0  0  0  0
  -20.9892  -28.2540   22.6576 N   0  0  0  0  0  0  0  0  0  0  0  0
  -23.0635  -22.7321   20.8470 N   0  0  0  0  0  0  0  0  0  0  0  0
  -24.7158  -21.4497   17.8986 N   0  3  0  0  0  0  0  0  0  0  0  0
  -32.2454  -15.0152   20.0114 O   0  0  0  0  0  0  0  0  0  0  0  0
  -23.3016  -28.4214   22.8757 O   0  0  0  0  0  0  0  0  0  0  0  0
  -21.1750  -24.8511   21.2369 O   0  0  0  0  0  0  0  0  0  0  0  0
  -25.3234  -22.7336   20.3274 O   0  0  0  0  0  0  0  0  0  0  0  0
  -28.4689  -23.4654   22.3762 O   0  0  0  0  0  0  0  0  0  0  0  0
  -25.4229  -11.3103   20.5714 O   0  0  0  0  0  0  0  0  0  0  0  0
  -28.7531  -28.6055   20.6575 O   0  0  0  0  0  0  0  0  0  1  0  0
  -22.2478   -9.7874   24.8145 F   0  0  0  0  0  0  0  0  0  0  0  0
  -23.5942  -13.0649   21.6759 F   0  0  0  0  0  0  0  0  0  0  0  0
  1  2  1  0  0  0  0
  1  5  2  0  0  0  0
  2  6  2  0  0  0  0
  3 10  2  0  0  0  0
  3 18  1  0  0  0  0
  4 11  1  0  0  0  0
  4 18  2  0  0  0  0
  5 20  1  0  0  0  0
  6 22  1  0  0  0  0
  7 12  2  0  0  0  0
  7 21  1  0  0  0  0
  8  9  2  0  0  0  0
  8 24  1  0  0  0  0
  9 25  1  0  0  0  0
 10 27  1  0  0  0  0
 11 27  2  0  0  0  0
 12 28  1  0  0  0  0
 13 14  2  0  0  0  0
 13 29  1  0  0  0  0
 14 30  1  0  0  0  0
 15 23  1  0  0  0  0
 15 28  2  0  0  0  0
 16 24  2  0  0  0  0
 16 26  1  0  0  0  0
 17 30  2  0  0  0  0
 17 31  1  0  0  0  0
 18 32  1  0  0  0  0
 19 32  1  0  0  0  0
 19 33  2  0  0  0  0
 19 34  1  0  0  0  0
 20 22  2  0  0  0  0
 20 39  1  0  0  0  0
 21 23  2  0  0  0  0
 21 40  1  0  0  0  0
 22 48  1  0  0  0  0
 23 41  1  0  0  0  0
 24 56  1  0  0  0  0
 25 26  2  0  0  0  0
 25 66  1  0  0  0  0
 26 69  1  0  0  0  0
 27 78  1  0  0  0  0
 28 79  1  0  0  0  0
 29 31  2  0  0  0  0
 29 78  1  0  0  0  0
 30 80  1  0  0  0  0
 31 81  1  0  0  0  0
 32 62  2  0  0  0  0
 33 63  1  0  0  0  0
 33 67  1  0  0  0  0
 34 68  1  0  0  0  0
 34 73  2  0  0  0  0
 35 49  1  0  0  0  0
 35 70  1  0  0  0  0
 35 74  2  0  0  0  0
 36 59  1  0  0  0  0
 36 64  1  0  0  0  0
 36 75  2  0  0  0  0
 37 60  1  0  0  0  0
 37 71  1  0  0  0  0
 37 76  2  0  0  0  0
 38 65  1  0  0  0  0
 38 69  1  0  0  0  0
 38 77  2  0  0  0  0
 39 42  1  0  0  0  0
 40 49  1  0  0  0  0
 41 64  1  0  0  0  0
 42 44  1  0  0  0  0
 43 45  1  0  0  0  0
 43 46  1  0  0  0  0
 44 48  1  0  0  0  0
 45 50  1  0  0  0  0
 46 65  1  0  0  0  0
 47 50  1  0  0  0  0
 47 65  1  0  0  0  0
 48 70  1  0  0  0  0
 49 64  1  0  0  0  0
 50 63  1  0  0  0  0
 51 60  1  0  0  0  0
 52 61  1  0  0  0  0
 53 61  1  0  0  0  0
 54 61  1  0  0  0  0
 55 72  1  0  0  0  0
 56 57  1  0  0  0  0
 57 58  1  0  0  0  0
 58 79  1  0  0  0  0
 59 61  1  0  0  0  0
 59 71  1  0  0  0  0
 60 72  1  0  0  0  0
 62 63  1  0  0  0  0
M  CHG  1  72   1
M  ISO  4  38 100  58 101  69 100  79 101
M  END
> <Batch ID>
0134

> <Smiles>
CNC(C)C(=O)NC(C(=O)N1Cc2cc([101O:1][101CH2:1]CCc3ccc(N)c([100NH:0][100C:0](=O)N4CCCC(n5nc(-c6ccc(Oc7ccc(F)cc7F)cc6)c(C(N)=O)c5N)C4)c3)ccc2CC1C(=O)NC1CCCc2ccccc21)C(C)(C)C

> <Shape>
0.266

> <Color>
0.074

> <Negative vol penalty>
0.000

$$$$

  -OEChem-04052320573D

 81 89  0     1  0  0  0  0  0999 V2000
  -33.3535  -30.1324   29.2264 C   0  0  0  0  0  0  0  0  0  0  0  0
  -32.4053  -29.9737   28.2208 C   0  0  0  0  0  0  0  0  0  0  0  0
  -23.0804   -9.8543   19.9612 C   0  0  0  0  0  0  0  0  0  0  0  0
  -23.8335   -9.8963   22.2565 C   0  0  0  0  0  0  0  0  0  0  0  0
  -34.3837  -29.2032   29.3645 C   0  0  0  0  0  0  0  0  0  0  0  0
  -32.4875  -28.8861   27.3519 C   0  0  0  0  0  0  0  0  0  0  0  0
  -28.3377  -24.4107   23.6014 C   0  0  0  0  0  0  0  0  0  0  0  0
  -22.3377   -8.7037   20.2259 C   0  0  0  0  0  0  0  0  0  0  0  0
  -23.0907   -8.7457   22.5212 C   0  0  0  0  0  0  0  0  0  0  0  0
  -28.1766  -23.9220   22.3057 C   0  0  0  0  0  0  0  0  0  0  0  0
  -21.1064   -6.0252   23.8921 C   0  0  0  0  0  0  0  0  0  0  0  0
  -20.3467   -5.9976   25.0616 C   0  0  0  0  0  0  0  0  0  0  0  0
  -29.9543  -22.3370   22.6889 C   0  0  0  0  0  0  0  0  0  0  0  0
  -19.1011   -7.9218   24.2980 C   0  0  0  0  0  0  0  0  0  0  0  0
  -23.8284  -10.4506   20.9765 C   0  0  0  0  0  0  0  0  0  0  0  0
  -24.1664  -12.9743   20.8203 C   0  0  0  0  0  0  0  0  0  0  0  0
  -34.4730  -28.0985   28.5030 C   0  0  0  0  0  0  0  0  0  0  0  0
  -29.3174  -23.8727   24.4484 C   0  0  0  0  0  0  0  0  0  0  0  0
  -33.5207  -27.9420   27.4778 C   0  0  0  0  0  0  0  0  0  0  0  0
  -30.1242  -22.8190   23.9958 C   0  0  0  0  0  0  0  0  0  0  0  0
  -22.3428   -8.1494   21.5059 C   0  0  0  0  0  0  0  0  0  0  0  0
  -28.9869  -22.8870   21.8482 C   0  0  0  0  0  0  0  0  0  0  0  0
  -20.8635   -7.0012   22.9255 C   0  0  0  0  0  0  0  0  0  0  0  0
  -19.3441   -6.9459   25.2646 C   0  0  0  0  0  0  0  0  0  0  0  0
  -19.8608   -7.9495   23.1285 C   0  0  0  0  0  0  0  0  0  0  0  0
  -24.5962  -11.6389   20.7035 C   0  0  0  0  0  0  0  0  0  0  0  0
  -25.2584  -13.7202   20.4492 C   0  0  0  0  0  0  0  0  0  0  0  0
  -22.8938  -13.4941   21.2278 C   0  0  0  0  0  0  0  0  0  0  0  0
  -31.9023  -25.0187   25.9004 C   0  0  0  0  0  0  0  0  0  0  0  0
  -31.9605  -22.0778   27.2679 C   0  0  0  0  0  0  0  0  0  0  0  0
  -31.0722  -18.7869   27.1009 C   0  0  0  0  0  0  0  0  0  0  0  0
  -30.7398  -14.7512   20.6387 C   0  0  0  0  0  0  0  0  0  0  0  0
  -35.6317  -27.1461   28.6614 C   0  0  0  0  0  0  0  0  0  0  0  0
  -29.4606  -24.3929   25.8524 C   0  0  0  0  0  0  0  0  0  0  0  0
  -31.1769  -22.1932   24.8725 C   0  0  0  0  0  0  0  0  0  0  0  0
  -35.4323  -25.8181   27.9355 C   0  0  0  0  0  0  0  0  0  0  0  0
  -29.6132  -12.3299   18.2839 C   0  0  0  0  0  0  0  0  0  0  0  0
  -34.9231  -26.0561   26.5175 C   0  0  0  0  0  0  0  0  0  0  0  0
  -28.1750  -12.0401   18.7169 C   0  0  0  0  0  0  0  0  0  0  0  0
  -30.5265  -12.5699   19.4841 C   0  0  0  0  0  0  0  0  0  0  0  0
  -25.9708  -21.3124   18.3710 C   0  0  0  0  0  0  0  0  0  0  0  0
  -28.6194  -13.3181   20.8542 C   0  0  0  0  0  0  0  0  0  0  0  0
  -26.7508  -19.0900   18.6351 C   0  0  0  0  0  0  0  0  0  0  0  0
  -33.5618  -26.7619   26.5313 C   0  0  1  0  0  0  0  0  0  0  0  0
  -30.8351  -24.1176   26.4543 C   0  0  1  0  0  0  0  0  0  0  0  0
  -27.3517  -21.3415   19.0330 C   0  0  2  0  0  0  0  0  0  0  0  0
  -27.6490  -13.1245   19.6764 C   0  0  2  0  0  0  0  0  0  0  0  0
  -27.4467  -19.9595   19.6594 C   0  0  2  0  0  0  0  0  0  0  0  0
  -31.2955  -16.6205   28.3476 C   0  0  0  0  0  0  0  0  0  0  0  0
  -34.8468  -21.8273   26.3106 C   0  0  0  0  0  0  0  0  0  0  0  0
  -34.6973  -19.3629   26.7261 C   0  0  0  0  0  0  0  0  0  0  0  0
  -34.4354  -20.9636   28.6213 C   0  0  0  0  0  0  0  0  0  0  0  0
  -28.1418  -18.5437   27.4359 C   0  0  0  0  0  0  0  0  0  0  0  0
  -27.5235  -22.4773   20.0189 C   0  0  0  0  0  0  0  0  0  1  0  0
  -30.5179  -18.0559   20.8663 C   0  0  0  0  0  0  0  0  0  0  0  0
  -30.7985  -16.9198   21.8440 C   0  0  0  0  0  0  0  0  0  0  0  0
  -29.0350  -18.3957   20.7865 C   0  0  0  0  0  0  0  0  0  0  0  0
  -32.5812  -20.7474   26.9163 C   0  0  1  0  0  0  0  0  0  0  0  0
  -30.4431  -17.8602   28.1255 C   0  0  2  0  0  0  0  0  0  0  0  0
  -34.1218  -20.7381   27.1262 C   0  0  0  0  0  0  0  0  0  0  0  0
  -25.8625  -11.5390   20.2904 N   0  0  0  0  0  0  0  0  0  0  0  0
  -26.2376  -12.8212   20.1443 N   0  0  0  0  0  0  0  0  0  0  0  0
  -25.5814  -19.8980   18.2810 N   0  0  0  0  0  0  0  0  0  0  0  0
  -31.2827  -22.7407   26.2350 N   0  0  0  0  0  0  0  0  0  0  0  0
  -29.9716  -13.6104   20.3532 N   0  0  0  0  0  0  0  0  0  0  0  0
  -25.4668  -15.0508   20.3573 N   0  0  0  0  0  0  0  0  0  0  0  0
  -21.8824  -12.5883   21.5755 N   0  0  0  0  0  0  0  0  0  0  0  0
  -32.5082  -25.8217   26.8478 N   0  0  0  0  0  0  0  0  0  0  0  0
  -31.8658  -19.7440   27.6972 N   0  0  0  0  0  0  0  0  0  0  0  0
  -30.1367  -15.6913   21.4652 N   0  0  0  0  0  0  0  0  0  0  0  0
  -28.8482  -19.5432   19.8511 N   0  3  0  0  0  0  0  0  0  0  0  0
  -29.0919  -17.4261   27.6706 N   0  3  0  0  0  0  0  0  0  0  0  0
  -22.6554  -14.7250   21.2664 O   0  0  0  0  0  0  0  0  0  0  0  0
  -32.1582  -24.9867   24.7024 O   0  0  0  0  0  0  0  0  0  0  0  0
  -32.0669  -22.5095   28.4186 O   0  0  0  0  0  0  0  0  0  0  0  0
  -30.8819  -18.6710   25.8922 O   0  0  0  0  0  0  0  0  0  0  0  0
  -31.8769  -14.9219   20.1859 O   0  0  0  0  0  0  0  0  0  0  0  0
  -21.6180   -7.0268   21.7647 O   0  0  0  0  0  0  0  0  0  0  0  0
  -28.8322  -22.4085   20.5837 O   0  0  0  0  0  0  0  0  0  1  0  0
  -18.6136   -6.9183   26.3870 F   0  0  0  0  0  0  0  0  0  0  0  0
  -19.6221   -8.8887   22.2030 F   0  0  0  0  0  0  0  0  0  0  0  0
  1  2  1  0  0  0  0
  1  5  2  0  0  0  0
  2  6  2  0  0  0  0
  3  8  2  0  0  0  0
  3 15  1  0  0  0  0
  4  9  1  0  0  0  0
  4 15  2  0  0  0  0
  5 17  1  0  0  0  0
  6 19  1  0  0  0  0
  7 10  2  0  0  0  0
  7 18  1  0  0  0  0
  8 21  1  0  0  0  0
  9 21  2  0  0  0  0
 10 22  1  0  0  0  0
 11 12  2  0  0  0  0
 11 23  1  0  0  0  0
 12 24  1  0  0  0  0
 13 20  1  0  0  0  0
 13 22  2  0  0  0  0
 14 24  2  0  0  0  0
 14 25  1  0  0  0  0
 15 26  1  0  0  0  0
 16 26  1  0  0  0  0
 16 27  2  0  0  0  0
 16 28  1  0  0  0  0
 17 19  2  0  0  0  0
 17 33  1  0  0  0  0
 18 20  2  0  0  0  0
 18 34  1  0  0  0  0
 19 44  1  0  0  0  0
 20 35  1  0  0  0  0
 21 78  1  0  0  0  0
 22 79  1  0  0  0  0
 23 25  2  0  0  0  0
 23 78  1  0  0  0  0
 24 80  1  0  0  0  0
 25 81  1  0  0  0  0
 26 61  2  0  0  0  0
 27 62  1  0  0  0  0
 27 66  1  0  0  0  0
 28 67  1  0  0  0  0
 28 73  2  0  0  0  0
 29 45  1  0  0  0  0
 29 68  1  0  0  0  0
 29 74  2  0  0  0  0
 30 58  1  0  0  0  0
 30 64  1  0  0  0  0
 30 75  2  0  0  0  0
 31 59  1  0  0  0  0
 31 69  1  0  0  0  0
 31 76  2  0  0  0  0
 32 65  1  0  0  0  0
 32 70  1  0  0  0  0
 32 77  2  0  0  0  0
 33 36  1  0  0  0  0
 34 45  1  0  0  0  0
 35 64  1  0  0  0  0
 36 38  1  0  0  0  0
 37 39  1  0  0  0  0
 37 40  1  0  0  0  0
 38 44  1  0  0  0  0
 39 47  1  0  0  0  0
 40 65  1  0  0  0  0
 41 46  1  0  0  0  0
 41 63  1  0  0  0  0
 42 47  1  0  0  0  0
 42 65  1  0  0  0  0
 43 48  1  0  0  0  0
 43 63  1  0  0  0  0
 44 68  1  0  0  0  0
 45 64  1  0  0  0  0
 46 48  1  0  0  0  0
 46 54  1  0  0  0  0
 47 62  1  0  0  0  0
 48 71  1  0  0  0  0
 49 59  1  0  0  0  0
 50 60  1  0  0  0  0
 51 60  1  0  0  0  0
 52 60  1  0  0  0  0
 53 72  1  0  0  0  0
 54 79  1  0  0  0  0
 55 56  1  0  0  0  0
 55 57  1  0  0  0  0
 56 70  1  0  0  0  0
 57 71  1  0  0  0  0
 58 60  1  0  0  0  0
 58 69  1  0  0  0  0
 59 72  1  0  0  0  0
 61 62  1  0  0  0  0
M  CHG  2  71   1  72   1
M  ISO  4  32 100  54 101  70 100  79 101
M  END
> <Batch ID>
0134

> <Smiles>
CNC(C)C(=O)NC(C(=O)N1Cc2cc([101O:1][101CH2:1]C3CNCC3NCCC[100NH:0][100C:0](=O)N3CCCC(n4nc(-c5ccc(Oc6ccc(F)cc6F)cc5)c(C(N)=O)c4N)C3)ccc2CC1C(=O)NC1CCCc2ccccc21)C(C)(C)C

> <Shape>
0.203

> <Color>
0.185

> <Negative vol penalty>
0.000

$$$$

  -OEChem-04052320573D

 91100  0     1  0  0  0  0  0999 V2000
  -21.9686  -31.0331   19.3215 C   0  0  0  0  0  0  0  0  0  0  0  0
  -22.8654  -30.3168   18.5353 C   0  0  0  0  0  0  0  0  0  0  0  0
  -25.9890  -12.7925   21.7386 C   0  0  0  0  0  0  0  0  0  0  0  0
  -25.1805  -13.9169   19.7589 C   0  0  0  0  0  0  0  0  0  0  0  0
  -21.6185  -30.5594   20.5852 C   0  0  0  0  0  0  0  0  0  0  0  0
  -23.4135  -29.1269   19.0129 C   0  0  0  0  0  0  0  0  0  0  0  0
  -24.8407  -24.1545   15.7350 C   0  0  0  0  0  0  0  0  0  0  0  0
  -24.8626  -11.9699   21.7314 C   0  0  0  0  0  0  0  0  0  0  0  0
  -24.0541  -13.0943   19.7516 C   0  0  0  0  0  0  0  0  0  0  0  0
  -26.0458  -23.6929   15.2075 C   0  0  0  0  0  0  0  0  0  0  0  0
  -23.7900   -9.2295   20.0662 C   0  0  0  0  0  0  0  0  0  0  0  0
  -23.9831   -7.8641   20.2757 C   0  0  0  0  0  0  0  0  0  0  0  0
  -26.3442  -22.2811   17.1406 C   0  0  0  0  0  0  0  0  0  0  0  0
  -29.6703  -25.0287   20.5245 C   0  0  0  0  0  0  0  0  0  0  0  0
  -22.5709   -7.9649   22.2334 C   0  0  0  0  0  0  0  0  0  0  0  0
  -26.1480  -13.7661   20.7523 C   0  0  0  0  0  0  0  0  0  0  0  0
  -28.5427  -14.3779   20.1208 C   0  0  0  0  0  0  0  0  0  0  0  0
  -22.1551  -29.3581   21.0746 C   0  0  0  0  0  0  0  0  0  0  0  0
  -24.3828  -23.6903   16.9765 C   0  0  0  0  0  0  0  0  0  0  0  0
  -23.0713  -28.6374   20.2849 C   0  0  0  0  0  0  0  0  0  0  0  0
  -25.1316  -22.7365   17.6805 C   0  0  0  0  0  0  0  0  0  0  0  0
  -29.3465  -25.7290   18.2465 C   0  0  0  0  0  0  0  0  0  0  0  0
  -23.8952  -12.1207   20.7379 C   0  0  0  0  0  0  0  0  0  0  0  0
  -26.7992  -22.7582   15.9117 C   0  0  0  0  0  0  0  0  0  0  0  0
  -22.9874   -9.9627   20.9403 C   0  0  0  0  0  0  0  0  0  0  0  0
  -29.0979  -25.8994   19.6039 C   0  0  0  0  0  0  0  0  0  0  0  0
  -23.3735   -7.2318   21.3593 C   0  0  0  0  0  0  0  0  0  0  0  0
  -22.3778   -9.3303   22.0239 C   0  0  0  0  0  0  0  0  0  0  0  0
  -27.3111  -14.6165   20.7596 C   0  0  0  0  0  0  0  0  0  0  0  0
  -30.4774  -24.0118   20.0404 C   0  0  0  0  0  0  0  0  0  0  0  0
  -30.1682  -24.6809   17.8644 C   0  0  0  0  0  0  0  0  0  0  0  0
  -29.3083  -15.4753   20.4304 C   0  0  0  0  0  0  0  0  0  0  0  0
  -28.9574  -13.2638   19.3192 C   0  0  0  0  0  0  0  0  0  0  0  0
  -23.7580  -25.0413   19.7850 C   0  0  0  0  0  0  0  0  0  0  0  0
  -22.6627  -22.0795   20.5267 C   0  0  0  0  0  0  0  0  0  0  0  0
  -22.7409  -18.7235   19.9118 C   0  0  0  0  0  0  0  0  0  0  0  0
  -29.8939  -20.8995   20.8577 C   0  0  0  0  0  0  0  0  0  0  0  0
  -21.7832  -28.9104   22.4660 C   0  0  0  0  0  0  0  0  0  0  0  0
  -23.0675  -24.1781   17.5192 C   0  0  0  0  0  0  0  0  0  0  0  0
  -24.6741  -22.1912   19.0078 C   0  0  0  0  0  0  0  0  0  0  0  0
  -22.1206  -27.4482   22.7460 C   0  0  0  0  0  0  0  0  0  0  0  0
  -28.5220  -19.2109   23.7498 C   0  0  0  0  0  0  0  0  0  0  0  0
  -29.6519  -27.3639   16.2697 C   0  0  0  0  0  0  0  0  0  0  0  0
  -28.9782  -28.1302   17.3648 C   0  0  0  0  0  0  0  0  0  0  0  0
  -23.5343  -27.1264   22.2719 C   0  0  0  0  0  0  0  0  0  0  0  0
  -28.1856  -17.8365   23.1684 C   0  0  0  0  0  0  0  0  0  0  0  0
  -28.2461  -20.3209   22.7399 C   0  0  0  0  0  0  0  0  0  0  0  0
  -28.6090  -18.7802   20.8510 C   0  0  0  0  0  0  0  0  0  0  0  0
  -28.7459  -26.6477   17.2362 C   0  0  0  0  0  0  0  0  0  0  0  0
  -23.6681  -27.3296   20.7579 C   0  0  1  0  0  0  0  0  0  0  0  0
  -22.9507  -24.0220   19.0322 C   0  0  1  0  0  0  0  0  0  0  0  0
  -28.8876  -17.6132   21.8158 C   0  0  2  0  0  0  0  0  0  0  0  0
  -21.7647  -16.5522   20.7054 C   0  0  0  0  0  0  0  0  0  0  0  0
  -24.4994  -22.1467   22.9623 C   0  0  0  0  0  0  0  0  0  0  0  0
  -24.2099  -19.6679   23.1620 C   0  0  0  0  0  0  0  0  0  0  0  0
  -22.2351  -21.1748   23.3898 C   0  0  0  0  0  0  0  0  0  0  0  0
  -21.5095  -18.1803   17.2760 C   0  0  0  0  0  0  0  0  0  0  0  0
  -27.9076  -30.8041   22.7295 C   0  0  0  0  0  0  0  0  0  0  0  0
  -31.1081  -23.0587   20.9998 C   0  0  0  0  0  0  0  0  0  0  0  0
  -30.1995  -22.9344   14.7034 C   0  0  0  0  0  0  0  0  0  0  0  0
  -28.7092  -23.2040   14.5666 C   0  0  0  0  0  0  0  0  0  1  0  0
  -30.6861  -23.1390   16.1295 C   0  0  0  0  0  0  0  0  0  0  0  0
  -28.1019  -28.8941   21.3742 C   0  0  0  0  0  0  0  0  0  0  0  0
  -23.2739  -20.8289   21.1109 C   0  0  1  0  0  0  0  0  0  0  0  0
  -21.6286  -17.7074   19.7257 C   0  0  2  0  0  0  0  0  0  0  0  0
  -28.5702  -27.4506   21.3424 C   0  0  2  0  0  0  0  0  0  0  0  0
  -23.5644  -20.9661   22.6322 C   0  0  0  0  0  0  0  0  0  0  0  0
  -27.2911  -15.7746   21.4248 N   0  0  0  0  0  0  0  0  0  0  0  0
  -30.7420  -23.8148   18.7294 N   0  0  0  0  0  0  0  0  0  0  0  0
  -28.5197  -16.2733   21.2059 N   0  0  0  0  0  0  0  0  0  0  0  0
  -23.3846  -22.7038   19.4996 N   0  0  0  0  0  0  0  0  0  0  0  0
  -28.9580  -20.0577   21.4814 N   0  0  0  0  0  0  0  0  0  0  0  0
  -30.5726  -15.8258   20.1123 N   0  0  0  0  0  0  0  0  0  0  0  0
  -28.0459  -12.2219   19.1006 N   0  0  0  0  0  0  0  0  0  0  0  0
  -23.0792  -26.2166   20.0445 N   0  0  0  0  0  0  0  0  0  0  0  0
  -22.3695  -19.7356   20.7715 N   0  0  0  0  0  0  0  0  0  0  0  0
  -30.1634  -22.0932   21.5158 N   0  0  0  0  0  0  0  0  0  0  0  0
  -21.6572  -17.1557   18.3416 N   0  3  0  0  0  0  0  0  0  0  0  0
  -30.1080  -13.1867   18.8255 O   0  0  0  0  0  0  0  0  0  0  0  0
  -24.9110  -24.7803   20.1079 O   0  0  0  0  0  0  0  0  0  0  0  0
  -21.5810  -22.4835   20.9607 O   0  0  0  0  0  0  0  0  0  0  0  0
  -23.8316  -18.6270   19.3535 O   0  0  0  0  0  0  0  0  0  0  0  0
  -30.4526  -20.6064   19.7951 O   0  0  0  0  0  0  0  0  0  0  0  0
  -22.7960  -11.3180   20.7304 O   0  0  0  0  0  0  0  0  0  0  0  0
  -27.9762  -22.3064   15.3994 O   0  0  0  0  0  0  0  0  0  1  0  0
  -28.2994  -26.9093   20.0487 O   0  0  0  0  0  0  0  0  0  0  0  0
  -30.4388  -24.4781   16.5361 O   0  0  0  0  0  0  0  0  0  0  0  0
  -28.3622  -29.4594   22.6503 O   0  0  0  0  0  0  0  0  0  0  0  0
  -23.5578   -5.9202   21.5596 F   0  0  0  0  0  0  0  0  0  0  0  0
  -21.6047  -10.0291   22.8664 F   0  0  0  0  0  0  0  0  0  0  0  0
  -27.8390  -26.7528   22.2550 F   0  0  0  0  0  0  0  0  0  0  0  0
  1  2  1  0  0  0  0
  1  5  2  0  0  0  0
  2  6  2  0  0  0  0
  3  8  2  0  0  0  0
  3 16  1  0  0  0  0
  4  9  1  0  0  0  0
  4 16  2  0  0  0  0
  5 18  1  0  0  0  0
  6 20  1  0  0  0  0
  7 10  2  0  0  0  0
  7 19  1  0  0  0  0
  8 23  1  0  0  0  0
  9 23  2  0  0  0  0
 10 24  1  0  0  0  0
 11 12  2  0  0  0  0
 11 25  1  0  0  0  0
 12 27  1  0  0  0  0
 13 21  1  0  0  0  0
 13 24  2  0  0  0  0
 14 26  2  0  0  0  0
 14 30  1  0  0  0  0
 15 27  2  0  0  0  0
 15 28  1  0  0  0  0
 16 29  1  0  0  0  0
 17 29  1  0  0  0  0
 17 32  2  0  0  0  0
 17 33  1  0  0  0  0
 18 20  2  0  0  0  0
 18 38  1  0  0  0  0
 19 21  2  0  0  0  0
 19 39  1  0  0  0  0
 20 50  1  0  0  0  0
 21 40  1  0  0  0  0
 22 26  1  0  0  0  0
 22 31  2  0  0  0  0
 22 49  1  0  0  0  0
 23 84  1  0  0  0  0
 24 85  1  0  0  0  0
 25 28  2  0  0  0  0
 25 84  1  0  0  0  0
 26 86  1  0  0  0  0
 27 89  1  0  0  0  0
 28 90  1  0  0  0  0
 29 68  2  0  0  0  0
 30 59  1  0  0  0  0
 30 69  2  0  0  0  0
 31 69  1  0  0  0  0
 31 87  1  0  0  0  0
 32 70  1  0  0  0  0
 32 73  1  0  0  0  0
 33 74  1  0  0  0  0
 33 79  2  0  0  0  0
 34 51  1  0  0  0  0
 34 75  1  0  0  0  0
 34 80  2  0  0  0  0
 35 64  1  0  0  0  0
 35 71  1  0  0  0  0
 35 81  2  0  0  0  0
 36 65  1  0  0  0  0
 36 76  1  0  0  0  0
 36 82  2  0  0  0  0
 37 72  1  0  0  0  0
 37 77  1  0  0  0  0
 37 83  2  0  0  0  0
 38 41  1  0  0  0  0
 39 51  1  0  0  0  0
 40 71  1  0  0  0  0
 41 45  1  0  0  0  0
 42 46  1  0  0  0  0
 42 47  1  0  0  0  0
 43 44  1  0  0  0  0
 43 49  1  0  0  0  0
 44 49  1  0  0  0  0
 45 50  1  0  0  0  0
 46 52  1  0  0  0  0
 47 72  1  0  0  0  0
 48 52  1  0  0  0  0
 48 72  1  0  0  0  0
 50 75  1  0  0  0  0
 51 71  1  0  0  0  0
 52 70  1  0  0  0  0
 53 65  1  0  0  0  0
 54 67  1  0  0  0  0
 55 67  1  0  0  0  0
 56 67  1  0  0  0  0
 57 78  1  0  0  0  0
 58 88  1  0  0  0  0
 59 77  1  0  0  0  0
 60 61  1  0  0  0  0
 60 62  1  0  0  0  0
 61 85  1  0  0  0  0
 62 87  1  0  0  0  0
 63 66  1  0  0  0  0
 63 88  1  0  0  0  0
 64 67  1  0  0  0  0
 64 76  1  0  0  0  0
 65 78  1  0  0  0  0
 66 86  1  0  0  0  0
 66 91  1  0  0  0  0
 68 70  1  0  0  0  0
M  CHG  1  78   1
M  ISO  4  37 100  61 101  77 100  85 101
M  END
> <Batch ID>
0134

> <Smiles>
CNC(C)C(=O)NC(C(=O)N1Cc2cc([101O:1][101CH2:1]CCOc3nc(C[100NH:0][100C:0](=O)N4CCCC(n5nc(-c6ccc(Oc7ccc(F)cc7F)cc6)c(C(N)=O)c5N)C4)cc(OC(F)COC)c3C3CC3)ccc2CC1C(=O)NC1CCCc2ccccc21)C(C)(C)C

> <Shape>
0.219

> <Color>
0.054

> <Negative vol penalty>
0.000

$$$$

  -OEChem-04052320573D

 84 92  0     1  0  0  0  0  0999 V2000
  -17.4325  -29.6597   24.8787 C   0  0  0  0  0  0  0  0  0  0  0  0
  -18.1970  -28.7600   25.6145 C   0  0  0  0  0  0  0  0  0  0  0  0
  -29.3716  -17.2218   18.1375 C   0  0  0  0  0  0  0  0  0  0  0  0
  -28.2645  -18.6583   19.7337 C   0  0  0  0  0  0  0  0  0  0  0  0
  -17.5344  -29.6853   23.4884 C   0  0  0  0  0  0  0  0  0  0  0  0
  -19.0630  -27.8845   24.9603 C   0  0  0  0  0  0  0  0  0  0  0  0
  -25.3628  -24.5838   25.8174 C   0  0  0  0  0  0  0  0  0  0  0  0
  -29.6052  -18.3205   17.3106 C   0  0  0  0  0  0  0  0  0  0  0  0
  -28.4981  -19.7571   18.9069 C   0  0  0  0  0  0  0  0  0  0  0  0
  -25.9290  -23.3112   25.7569 C   0  0  0  0  0  0  0  0  0  0  0  0
  -29.1206  -22.9993   17.3842 C   0  0  0  0  0  0  0  0  0  0  0  0
  -29.5901  -24.1707   17.9783 C   0  0  0  0  0  0  0  0  0  0  0  0
  -26.0811  -23.4996   23.3568 C   0  0  0  0  0  0  0  0  0  0  0  0
  -31.5457  -22.9888   18.7631 C   0  0  0  0  0  0  0  0  0  0  0  0
  -28.7013  -17.3906   19.3491 C   0  0  0  0  0  0  0  0  0  0  0  0
  -29.2960  -15.7666   21.2243 C   0  0  0  0  0  0  0  0  0  0  0  0
  -18.4093  -28.8164   22.8175 C   0  0  0  0  0  0  0  0  0  0  0  0
  -25.1411  -25.3207   24.6451 C   0  0  0  0  0  0  0  0  0  0  0  0
  -19.1757  -27.8976   23.5597 C   0  0  0  0  0  0  0  0  0  0  0  0
  -25.5143  -24.7824   23.4054 C   0  0  0  0  0  0  0  0  0  0  0  0
  -29.1684  -19.5882   17.6953 C   0  0  0  0  0  0  0  0  0  0  0  0
  -26.2856  -22.7678   24.5262 C   0  0  0  0  0  0  0  0  0  0  0  0
  -29.8635  -21.8226   17.4797 C   0  0  0  0  0  0  0  0  0  0  0  0
  -30.8027  -24.1655   18.6677 C   0  0  0  0  0  0  0  0  0  0  0  0
  -31.0761  -21.8174   18.1691 C   0  0  0  0  0  0  0  0  0  0  0  0
  -28.4592  -16.2559   20.2034 C   0  0  0  0  0  0  0  0  0  0  0  0
  -28.6209  -14.6836   21.7321 C   0  0  0  0  0  0  0  0  0  0  0  0
  -30.5695  -16.2482   21.6736 C   0  0  0  0  0  0  0  0  0  0  0  0
  -22.5728  -26.4933   23.1848 C   0  0  0  0  0  0  0  0  0  0  0  0
  -24.7812  -27.8394   21.2269 C   0  0  0  0  0  0  0  0  0  0  0  0
  -27.9377  -27.7591   19.9320 C   0  0  0  0  0  0  0  0  0  0  0  0
  -22.8252  -13.1856   21.8607 C   0  0  0  0  0  0  0  0  0  0  0  0
  -18.4502  -28.8486   21.3102 C   0  0  0  0  0  0  0  0  0  0  0  0
  -24.5540  -26.7029   24.7297 C   0  0  0  0  0  0  0  0  0  0  0  0
  -25.3158  -25.5409   22.1194 C   0  0  0  0  0  0  0  0  0  0  0  0
  -19.6687  -28.1445   20.7187 C   0  0  0  0  0  0  0  0  0  0  0  0
  -25.4961  -11.2891   20.4657 C   0  0  0  0  0  0  0  0  0  0  0  0
  -19.8783  -26.7891   21.3863 C   0  0  0  0  0  0  0  0  0  0  0  0
  -24.0727  -19.3943   24.0953 C   0  0  0  0  0  0  0  0  0  0  0  0
  -25.4475  -17.4791   25.0161 C   0  0  0  0  0  0  0  0  0  0  0  0
  -26.6339  -12.3028   20.3324 C   0  0  0  0  0  0  0  0  0  0  0  0
  -22.9439  -19.0564   25.0701 C   0  0  0  0  0  0  0  0  0  0  0  0
  -24.3215  -17.1364   25.9926 C   0  0  0  0  0  0  0  0  0  0  0  0
  -24.1374  -11.9249   20.1799 C   0  0  0  0  0  0  0  0  0  0  0  0
  -24.9773  -14.1459   20.8396 C   0  0  0  0  0  0  0  0  0  0  0  0
  -20.1448  -26.9491   22.8880 C   0  0  1  0  0  0  0  0  0  0  0  0
  -23.8998  -27.1550   23.4278 C   0  0  1  0  0  0  0  0  0  0  0  0
  -25.4416  -18.9669   24.6411 C   0  0  0  0  0  0  0  0  0  0  0  0
  -26.3619  -13.5647   21.1732 C   0  0  2  0  0  0  0  0  0  0  0  0
  -22.9457  -17.5922   25.5076 C   0  0  0  0  0  0  0  0  0  0  0  0
  -29.4400  -28.9695   18.3271 C   0  0  0  0  0  0  0  0  0  0  0  0
  -27.8974  -18.8052   24.1600 C   0  0  0  0  0  0  0  0  0  0  0  0
  -20.4282  -15.1728   22.8258 C   0  0  0  0  0  0  0  0  0  0  0  0
  -23.2873  -26.5807   18.8830 C   0  0  0  0  0  0  0  0  0  0  0  0
  -25.3041  -27.0033   17.4609 C   0  0  0  0  0  0  0  0  0  0  0  0
  -24.0762  -28.9197   18.4820 C   0  0  0  0  0  0  0  0  0  0  0  0
  -29.8886  -28.4024   22.0625 C   0  0  0  0  0  0  0  0  0  0  0  0
  -22.0862  -15.3708   24.7565 C   0  0  0  0  0  0  0  0  0  0  0  0
  -26.5895  -20.7625   23.2843 C   0  0  0  0  0  0  0  0  0  1  0  0
  -25.4803  -27.4205   19.9561 C   0  0  1  0  0  0  0  0  0  0  0  0
  -28.9896  -28.8422   19.7741 C   0  0  2  0  0  0  0  0  0  0  0  0
  -26.5439  -19.2711   23.6279 C   0  0  2  0  0  0  0  0  0  0  0  0
  -21.6281  -14.5621   23.5434 C   0  0  2  0  0  0  0  0  0  0  0  0
  -24.5391  -27.4657   18.7194 C   0  0  0  0  0  0  0  0  0  0  0  0
  -27.3383  -15.5421   20.0690 N   0  0  0  0  0  0  0  0  0  0  0  0
  -27.4660  -14.5933   21.0122 N   0  0  0  0  0  0  0  0  0  0  0  0
  -24.7324  -26.8859   22.2537 N   0  0  0  0  0  0  0  0  0  0  0  0
  -23.9412  -13.1154   21.0106 N   0  0  0  0  0  0  0  0  0  0  0  0
  -28.9085  -13.8092   22.7195 N   0  0  0  0  0  0  0  0  0  0  0  0
  -31.1194  -17.3722   21.0424 N   0  0  0  0  0  0  0  0  0  0  0  0
  -21.5095  -27.3732   23.1167 N   0  0  0  0  0  0  0  0  0  0  0  0
  -26.6604  -28.2703   19.8403 N   0  0  0  0  0  0  0  0  0  0  0  0
  -22.7179  -14.3456   22.6180 N   0  0  0  0  0  0  0  0  0  0  0  0
  -22.5187  -16.7360   24.3634 N   0  3  0  0  0  0  0  0  0  0  0  0
  -30.1823  -28.5321   20.6120 N   0  3  0  0  0  0  0  0  0  0  0  0
  -31.2088  -15.6881   22.5963 O   0  0  0  0  0  0  0  0  0  0  0  0
  -22.5179  -25.2748   23.0662 O   0  0  0  0  0  0  0  0  0  0  0  0
  -24.3025  -28.9733   21.3081 O   0  0  0  0  0  0  0  0  0  0  0  0
  -28.2209  -26.5771   20.1145 O   0  0  0  0  0  0  0  0  0  0  0  0
  -21.9894  -12.2791   21.9429 O   0  0  0  0  0  0  0  0  0  0  0  0
  -29.3963  -20.6606   16.8888 O   0  0  0  0  0  0  0  0  0  0  0  0
  -26.8379  -21.5256   24.4643 O   0  0  0  0  0  0  0  0  0  1  0  0
  -31.2543  -25.2909   19.2368 F   0  0  0  0  0  0  0  0  0  0  0  0
  -31.7948  -20.6903   18.2632 F   0  0  0  0  0  0  0  0  0  0  0  0
  1  2  1  0  0  0  0
  1  5  2  0  0  0  0
  2  6  2  0  0  0  0
  3  8  2  0  0  0  0
  3 15  1  0  0  0  0
  4  9  1  0  0  0  0
  4 15  2  0  0  0  0
  5 17  1  0  0  0  0
  6 19  1  0  0  0  0
  7 10  2  0  0  0  0
  7 18  1  0  0  0  0
  8 21  1  0  0  0  0
  9 21  2  0  0  0  0
 10 22  1  0  0  0  0
 11 12  2  0  0  0  0
 11 23  1  0  0  0  0
 12 24  1  0  0  0  0
 13 20  1  0  0  0  0
 13 22  2  0  0  0  0
 14 24  2  0  0  0  0
 14 25  1  0  0  0  0
 15 26  1  0  0  0  0
 16 26  1  0  0  0  0
 16 27  2  0  0  0  0
 16 28  1  0  0  0  0
 17 19  2  0  0  0  0
 17 33  1  0  0  0  0
 18 20  2  0  0  0  0
 18 34  1  0  0  0  0
 19 46  1  0  0  0  0
 20 35  1  0  0  0  0
 21 81  1  0  0  0  0
 22 82  1  0  0  0  0
 23 25  2  0  0  0  0
 23 81  1  0  0  0  0
 24 83  1  0  0  0  0
 25 84  1  0  0  0  0
 26 65  2  0  0  0  0
 27 66  1  0  0  0  0
 27 69  1  0  0  0  0
 28 70  1  0  0  0  0
 28 76  2  0  0  0  0
 29 47  1  0  0  0  0
 29 71  1  0  0  0  0
 29 77  2  0  0  0  0
 30 60  1  0  0  0  0
 30 67  1  0  0  0  0
 30 78  2  0  0  0  0
 31 61  1  0  0  0  0
 31 72  1  0  0  0  0
 31 79  2  0  0  0  0
 32 68  1  0  0  0  0
 32 73  1  0  0  0  0
 32 80  2  0  0  0  0
 33 36  1  0  0  0  0
 34 47  1  0  0  0  0
 35 67  1  0  0  0  0
 36 38  1  0  0  0  0
 37 41  1  0  0  0  0
 37 44  1  0  0  0  0
 38 46  1  0  0  0  0
 39 42  1  0  0  0  0
 39 48  1  0  0  0  0
 40 43  1  0  0  0  0
 40 48  1  0  0  0  0
 41 49  1  0  0  0  0
 42 50  1  0  0  0  0
 43 50  1  0  0  0  0
 44 68  1  0  0  0  0
 45 49  1  0  0  0  0
 45 68  1  0  0  0  0
 46 71  1  0  0  0  0
 47 67  1  0  0  0  0
 48 62  1  0  0  0  0
 49 66  1  0  0  0  0
 50 74  1  0  0  0  0
 51 61  1  0  0  0  0
 52 62  1  0  0  0  0
 53 63  1  0  0  0  0
 54 64  1  0  0  0  0
 55 64  1  0  0  0  0
 56 64  1  0  0  0  0
 57 75  1  0  0  0  0
 58 63  1  0  0  0  0
 58 74  1  0  0  0  0
 59 62  1  0  0  0  0
 59 82  1  0  0  0  0
 60 64  1  0  0  0  0
 60 72  1  0  0  0  0
 61 75  1  0  0  0  0
 63 73  1  0  0  0  0
 65 66  1  0  0  0  0
M  CHG  2  74   1  75   1
M  ISO  4  32 100  59 101  73 100  82 101
M  END
> <Batch ID>
0134

> <Smiles>
CNC(C)C(=O)NC(C(=O)N1Cc2cc([101O:1][101CH2:1]C(C)C3CCC(NCC(C)[100NH:0][100C:0](=O)N4CCCC(n5nc(-c6ccc(Oc7ccc(F)cc7F)cc6)c(C(N)=O)c5N)C4)CC3)ccc2CC1C(=O)NC1CCCc2ccccc21)C(C)(C)C

> <Shape>
0.237

> <Color>
0.057

> <Negative vol penalty>
0.000

$$$$

  -OEChem-04052320573D

 85 94  0     1  0  0  0  0  0999 V2000
  -18.3477  -33.2322   20.8839 C   0  0  0  0  0  0  0  0  0  0  0  0
  -19.6796  -33.0616   20.5199 C   0  0  0  0  0  0  0  0  0  0  0  0
  -26.9870  -17.4499   20.2561 C   0  0  0  0  0  0  0  0  0  0  0  0
  -29.3020  -16.8792   19.8661 C   0  0  0  0  0  0  0  0  0  0  0  0
  -17.8471  -32.5874   22.0142 C   0  0  0  0  0  0  0  0  0  0  0  0
  -20.5119  -32.2468   21.2867 C   0  0  0  0  0  0  0  0  0  0  0  0
  -31.8694  -27.6555   15.9657 C   0  0  0  0  0  0  0  0  0  0  0  0
  -25.0735  -28.6986   19.2599 C   0  0  0  0  0  0  0  0  0  0  0  0
  -32.3492  -26.5294   15.2936 C   0  0  0  0  0  0  0  0  0  0  0  0
  -26.7627  -16.1790   20.7853 C   0  0  0  0  0  0  0  0  0  0  0  0
  -29.0778  -15.6082   20.3954 C   0  0  0  0  0  0  0  0  0  0  0  0
  -26.4542  -28.8845   19.2079 C   0  0  0  0  0  0  0  0  0  0  0  0
  -25.4957  -12.9607   21.9083 C   0  0  0  0  0  0  0  0  0  0  0  0
  -24.3479  -12.2804   21.5016 C   0  0  0  0  0  0  0  0  0  0  0  0
  -32.3650  -25.2486   17.3613 C   0  0  0  0  0  0  0  0  0  0  0  0
  -26.6879  -27.6844   21.2874 C   0  0  0  0  0  0  0  0  0  0  0  0
  -25.1097  -12.3651   19.2103 C   0  0  0  0  0  0  0  0  0  0  0  0
  -28.2566  -17.8000   19.7965 C   0  0  0  0  0  0  0  0  0  0  0  0
  -28.8911  -20.2662   19.9485 C   0  0  0  0  0  0  0  0  0  0  0  0
  -18.6712  -31.7567   22.7897 C   0  0  0  0  0  0  0  0  0  0  0  0
  -31.6336  -27.5582   17.3272 C   0  0  0  0  0  0  0  0  0  0  0  0
  -24.4875  -28.0126   20.3334 C   0  0  0  0  0  0  0  0  0  0  0  0
  -20.0221  -31.5914   22.4291 C   0  0  0  0  0  0  0  0  0  0  0  0
  -31.8788  -26.3674   18.0177 C   0  0  0  0  0  0  0  0  0  0  0  0
  -25.2997  -27.4890   21.3493 C   0  0  0  0  0  0  0  0  0  0  0  0
  -32.5954  -25.3342   15.9867 C   0  0  0  0  0  0  0  0  0  0  0  0
  -27.8081  -15.2581   20.8550 C   0  0  0  0  0  0  0  0  0  0  0  0
  -27.2614  -28.3798   20.2233 C   0  0  0  0  0  0  0  0  0  0  0  0
  -26.4504  -13.3433   20.9660 C   0  0  0  0  0  0  0  0  0  0  0  0
  -24.1549  -11.9826   20.1526 C   0  0  0  0  0  0  0  0  0  0  0  0
  -26.2574  -13.0455   19.6171 C   0  0  0  0  0  0  0  0  0  0  0  0
  -28.4887  -19.1125   19.2492 C   0  0  0  0  0  0  0  0  0  0  0  0
  -28.9701  -21.2417   18.9849 C   0  0  0  0  0  0  0  0  0  0  0  0
  -29.1687  -20.4404   21.3443 C   0  0  0  0  0  0  0  0  0  0  0  0
  -22.4013  -28.7700   22.6088 C   0  0  0  0  0  0  0  0  0  0  0  0
  -29.3023  -27.5362   19.5094 C   0  0  0  0  0  0  0  0  0  1  0  0
  -22.6038  -25.6081   23.3046 C   0  0  0  0  0  0  0  0  0  0  0  0
  -24.4122  -22.7180   23.1515 C   0  0  0  0  0  0  0  0  0  0  0  0
  -30.4685  -21.9314   13.4357 C   0  0  0  0  0  0  0  0  0  0  0  0
  -18.0972  -31.1181   24.0297 C   0  0  0  0  0  0  0  0  0  0  0  0
  -22.9991  -27.7973   20.3610 C   0  0  0  0  0  0  0  0  0  0  0  0
  -31.1551  -28.6331   18.2536 C   0  0  0  0  0  0  0  0  0  0  0  0
  -31.5892  -26.5190   19.4790 C   0  0  0  0  0  0  0  0  0  0  0  0
  -24.7219  -26.7274   22.5133 C   0  0  0  0  0  0  0  0  0  0  0  0
  -18.9481  -29.9742   24.5753 C   0  0  0  0  0  0  0  0  0  0  0  0
  -27.0610  -21.8355   14.4632 C   0  0  0  0  0  0  0  0  0  0  0  0
  -20.4181  -30.3786   24.6241 C   0  0  0  0  0  0  0  0  0  0  0  0
  -27.1192  -21.2308   15.8671 C   0  0  0  0  0  0  0  0  0  0  0  0
  -28.1008  -21.2102   13.5359 C   0  0  0  0  0  0  0  0  0  0  0  0
  -29.5422  -20.6358   15.4506 C   0  0  0  0  0  0  0  0  0  0  0  0
  -20.9499  -30.6959   23.2213 C   0  0  1  0  0  0  0  0  0  0  0  0
  -22.4601  -27.5296   21.7628 C   0  0  1  0  0  0  0  0  0  0  0  0
  -30.7777  -27.8272   19.5105 C   0  0  2  0  0  0  0  0  0  0  0  0
  -28.5496  -21.2739   16.4374 C   0  0  2  0  0  0  0  0  0  0  0  0
  -24.3335  -20.3062   23.8403 C   0  0  0  0  0  0  0  0  0  0  0  0
  -23.2542  -26.4095   26.1759 C   0  0  0  0  0  0  0  0  0  0  0  0
  -24.0822  -24.0790   26.5650 C   0  0  0  0  0  0  0  0  0  0  0  0
  -21.6928  -24.4675   25.9630 C   0  0  0  0  0  0  0  0  0  0  0  0
  -24.5450  -21.7915   20.3438 C   0  0  0  0  0  0  0  0  0  0  0  0
  -32.9665  -24.0657   13.8703 C   0  0  0  0  0  0  0  0  0  0  0  0
  -32.8587  -22.5975   13.4876 C   0  0  0  0  0  0  0  0  0  0  0  0
  -23.4795  -24.7642   24.1990 C   0  0  1  0  0  0  0  0  0  0  0  0
  -24.0263  -21.3089   22.7390 C   0  0  2  0  0  0  0  0  0  0  0  0
  -23.1382  -24.9461   25.7049 C   0  0  0  0  0  0  0  0  0  0  0  0
  -28.3234  -19.3331   17.9423 N   0  0  0  0  0  0  0  0  0  0  0  0
  -28.6234  -20.6367   17.8127 N   0  0  0  0  0  0  0  0  0  0  0  0
  -23.2606  -26.5486   22.4984 N   0  0  0  0  0  0  0  0  0  0  0  0
  -29.4357  -21.2850   14.1346 N   0  0  0  0  0  0  0  0  0  0  0  0
  -29.3016  -22.5494   19.0343 N   0  0  0  0  0  0  0  0  0  0  0  0
  -29.0384  -19.3339   22.1946 N   0  0  0  0  0  0  0  0  0  0  0  0
  -33.0866  -24.2100   15.2872 N   0  0  0  0  0  0  0  0  0  0  0  0
  -21.2176  -29.4737   22.4939 N   0  0  0  0  0  0  0  0  0  0  0  0
  -23.3518  -23.3926   23.7188 N   0  0  0  0  0  0  0  0  0  0  0  0
  -31.7008  -21.9630   14.0770 N   0  0  0  0  0  0  0  0  0  0  0  0
  -24.7728  -20.9050   21.5140 N   0  3  0  0  0  0  0  0  0  0  0  0
  -29.5060  -21.5484   21.8259 O   0  0  0  0  0  0  0  0  0  0  0  0
  -23.3583  -29.0658   23.3147 O   0  0  0  0  0  0  0  0  0  0  0  0
  -28.7967  -26.5450   18.9999 O   0  0  0  0  0  0  0  0  0  0  0  0
  -21.3826  -25.4342   23.3153 O   0  0  0  0  0  0  0  0  0  0  0  0
  -25.5423  -23.1733   22.9903 O   0  0  0  0  0  0  0  0  0  0  0  0
  -30.3034  -22.4471   12.3250 O   0  0  0  0  0  0  0  0  0  0  0  0
  -27.5898  -14.0179   21.3715 O   0  0  0  0  0  0  0  0  0  0  0  0
  -28.6094  -28.5604   20.1754 O   0  0  0  0  0  0  0  0  0  1  0  0
  -23.0534  -11.3279   19.7624 F   0  0  0  0  0  0  0  0  0  0  0  0
  -27.1717  -13.4094   18.7074 F   0  0  0  0  0  0  0  0  0  0  0  0
  1  2  1  0  0  0  0
  1  5  2  0  0  0  0
  2  6  2  0  0  0  0
  3 10  2  0  0  0  0
  3 18  1  0  0  0  0
  4 11  1  0  0  0  0
  4 18  2  0  0  0  0
  5 20  1  0  0  0  0
  6 23  1  0  0  0  0
  7  9  2  0  0  0  0
  7 21  1  0  0  0  0
  8 12  2  0  0  0  0
  8 22  1  0  0  0  0
  9 26  1  0  0  0  0
 10 27  1  0  0  0  0
 11 27  2  0  0  0  0
 12 28  1  0  0  0  0
 13 14  2  0  0  0  0
 13 29  1  0  0  0  0
 14 30  1  0  0  0  0
 15 24  1  0  0  0  0
 15 26  2  0  0  0  0
 16 25  1  0  0  0  0
 16 28  2  0  0  0  0
 17 30  2  0  0  0  0
 17 31  1  0  0  0  0
 18 32  1  0  0  0  0
 19 32  1  0  0  0  0
 19 33  2  0  0  0  0
 19 34  1  0  0  0  0
 20 23  2  0  0  0  0
 20 40  1  0  0  0  0
 21 24  2  0  0  0  0
 21 42  1  0  0  0  0
 22 25  2  0  0  0  0
 22 41  1  0  0  0  0
 23 51  1  0  0  0  0
 24 43  1  0  0  0  0
 25 44  1  0  0  0  0
 26 71  1  0  0  0  0
 27 82  1  0  0  0  0
 28 83  1  0  0  0  0
 29 31  2  0  0  0  0
 29 82  1  0  0  0  0
 30 84  1  0  0  0  0
 31 85  1  0  0  0  0
 32 65  2  0  0  0  0
 33 66  1  0  0  0  0
 33 69  1  0  0  0  0
 34 70  1  0  0  0  0
 34 76  2  0  0  0  0
 35 52  1  0  0  0  0
 35 72  1  0  0  0  0
 35 77  2  0  0  0  0
 36 53  1  0  0  0  0
 36 78  2  0  0  0  0
 36 83  1  0  0  0  0
 37 62  1  0  0  0  0
 37 67  1  0  0  0  0
 37 79  2  0  0  0  0
 38 63  1  0  0  0  0
 38 73  1  0  0  0  0
 38 80  2  0  0  0  0
 39 68  1  0  0  0  0
 39 74  1  0  0  0  0
 39 81  2  0  0  0  0
 40 45  1  0  0  0  0
 41 52  1  0  0  0  0
 42 53  1  0  0  0  0
 43 53  1  0  0  0  0
 44 67  1  0  0  0  0
 45 47  1  0  0  0  0
 46 48  1  0  0  0  0
 46 49  1  0  0  0  0
 47 51  1  0  0  0  0
 48 54  1  0  0  0  0
 49 68  1  0  0  0  0
 50 54  1  0  0  0  0
 50 68  1  0  0  0  0
 51 72  1  0  0  0  0
 52 67  1  0  0  0  0
 54 66  1  0  0  0  0
 55 63  1  0  0  0  0
 56 64  1  0  0  0  0
 57 64  1  0  0  0  0
 58 64  1  0  0  0  0
 59 75  1  0  0  0  0
 60 61  1  0  0  0  0
 60 71  1  0  0  0  0
 61 74  1  0  0  0  0
 62 64  1  0  0  0  0
 62 73  1  0  0  0  0
 63 75  1  0  0  0  0
 65 66  1  0  0  0  0
M  CHG  1  75   1
M  ISO  4  36 101  39 100  74 100  83 101
M  END
> <Batch ID>
0134

> <Smiles>
CNC(C)C(=O)NC(C(=O)N1Cc2cc([101O:1][101C:1](=O)C3Cc4ccc(NCC[100NH:0][100C:0](=O)N5CCCC(n6nc(-c7ccc(Oc8ccc(F)cc8F)cc7)c(C(N)=O)c6N)C5)cc4C3)ccc2CC1C(=O)NC1CCCc2ccccc21)C(C)(C)C

> <Shape>
0.191

> <Color>
0.095

> <Negative vol penalty>
0.000

$$$$

  -OEChem-04052320573D

 93103  0     1  0  0  0  0  0999 V2000
  -29.8559  -23.2650   19.3920 C   0  0  0  0  0  0  0  0  0  0  0  0
  -28.5500  -23.7331   19.3007 C   0  0  0  0  0  0  0  0  0  0  0  0
  -24.3612   -9.2642   21.7755 C   0  0  0  0  0  0  0  0  0  0  0  0
  -22.6572  -10.2039   20.3435 C   0  0  0  0  0  0  0  0  0  0  0  0
  -30.6613  -23.6610   20.4576 C   0  0  0  0  0  0  0  0  0  0  0  0
  -28.0529  -24.6068   20.2685 C   0  0  0  0  0  0  0  0  0  0  0  0
  -19.5828  -21.0404   25.9450 C   0  0  0  0  0  0  0  0  0  0  0  0
  -22.4775  -26.9547   20.9966 C   0  0  0  0  0  0  0  0  0  0  0  0
  -20.5358  -20.5478   25.0547 C   0  0  0  0  0  0  0  0  0  0  0  0
  -23.6304   -8.0797   21.8678 C   0  0  0  0  0  0  0  0  0  0  0  0
  -21.9264   -9.0194   20.4357 C   0  0  0  0  0  0  0  0  0  0  0  0
  -21.3060  -26.6315   21.6799 C   0  0  0  0  0  0  0  0  0  0  0  0
  -23.0803   -5.3378   19.9671 C   0  0  0  0  0  0  0  0  0  0  0  0
  -23.7735   -4.1358   19.8244 C   0  0  0  0  0  0  0  0  0  0  0  0
  -19.7538  -22.0930   23.3794 C   0  0  0  0  0  0  0  0  0  0  0  0
  -21.9610  -28.0946   23.4825 C   0  0  0  0  0  0  0  0  0  0  0  0
  -23.0822   -3.4740   22.0428 C   0  0  0  0  0  0  0  0  0  0  0  0
  -23.8745  -10.3264   21.0134 C   0  0  0  0  0  0  0  0  0  0  0  0
  -25.6098  -11.8722   19.9614 C   0  0  0  0  0  0  0  0  0  0  0  0
  -30.1691  -24.5302   21.4452 C   0  0  0  0  0  0  0  0  0  0  0  0
  -18.7047  -22.0700   25.5656 C   0  0  0  0  0  0  0  0  0  0  0  0
  -23.4063  -27.8433   21.5570 C   0  0  0  0  0  0  0  0  0  0  0  0
  -28.8580  -25.0371   21.3387 C   0  0  0  0  0  0  0  0  0  0  0  0
  -18.7890  -22.5999   24.2662 C   0  0  0  0  0  0  0  0  0  0  0  0
  -23.1423  -28.4294   22.8031 C   0  0  0  0  0  0  0  0  0  0  0  0
  -20.6219  -21.0749   23.7715 C   0  0  0  0  0  0  0  0  0  0  0  0
  -22.4131   -7.9573   21.1979 C   0  0  0  0  0  0  0  0  0  0  0  0
  -21.0489  -27.1993   22.9243 C   0  0  0  0  0  0  0  0  0  0  0  0
  -22.3882   -5.6080   21.1476 C   0  0  0  0  0  0  0  0  0  0  0  0
  -23.7744   -3.2039   20.8623 C   0  0  0  0  0  0  0  0  0  0  0  0
  -22.3891   -4.6760   22.1855 C   0  0  0  0  0  0  0  0  0  0  0  0
  -24.6286  -11.5505   20.9182 C   0  0  0  0  0  0  0  0  0  0  0  0
  -26.0200  -13.1379   20.3025 C   0  0  0  0  0  0  0  0  0  0  0  0
  -26.1061  -11.0964   18.8626 C   0  0  0  0  0  0  0  0  0  0  0  0
  -26.4413  -27.6306   22.4772 C   0  0  0  0  0  0  0  0  0  0  0  0
  -26.1201  -30.8260   22.9342 C   0  0  0  0  0  0  0  0  0  0  0  0
  -24.0499  -33.4755   23.5177 C   0  0  0  0  0  0  0  0  0  0  0  0
  -24.3105  -18.3184   21.6854 C   0  0  0  0  0  0  0  0  0  0  0  0
  -31.0866  -24.9327   22.5728 C   0  0  0  0  0  0  0  0  0  0  0  0
  -17.6878  -22.5736   26.5581 C   0  0  0  0  0  0  0  0  0  0  0  0
  -24.6526  -28.2023   20.7951 C   0  0  0  0  0  0  0  0  0  0  0  0
  -24.0976  -29.4048   23.4391 C   0  0  0  0  0  0  0  0  0  0  0  0
  -17.8659  -23.6938   23.8003 C   0  0  0  0  0  0  0  0  0  0  0  0
  -30.3381  -25.4989   23.7750 C   0  0  0  0  0  0  0  0  0  0  0  0
  -17.8639  -24.0525   26.9008 C   0  0  0  0  0  0  0  0  0  0  0  0
  -25.1223  -15.9033   24.4288 C   0  0  0  0  0  0  0  0  0  0  0  0
  -26.6193  -20.5115   23.2924 C   0  0  0  0  0  0  0  0  0  0  0  0
  -29.3534  -26.5652   23.3191 C   0  0  0  0  0  0  0  0  0  0  0  0
  -25.0722  -14.5770   23.6721 C   0  0  0  0  0  0  0  0  0  0  0  0
  -26.1309  -21.8817   22.8307 C   0  0  0  0  0  0  0  0  0  0  0  0
  -24.2003  -16.9370   23.7932 C   0  0  0  0  0  0  0  0  0  0  0  0
  -25.4620  -19.5539   23.5741 C   0  0  0  0  0  0  0  0  0  0  0  0
  -24.4215  -15.8538   21.5796 C   0  0  0  0  0  0  0  0  0  0  0  0
  -17.2634  -25.0141   25.8814 C   0  0  0  0  0  0  0  0  0  0  0  0
  -28.2859  -25.9639   22.3960 C   0  0  1  0  0  0  0  0  0  0  0  0
  -25.7719  -28.7226   21.6916 C   0  0  1  0  0  0  0  0  0  0  0  0
  -25.3551  -14.7870   22.1749 C   0  0  2  0  0  0  0  0  0  0  0  0
  -25.1810  -21.7294   21.6449 C   0  0  1  0  0  0  0  0  0  0  0  0
  -24.0075  -20.7794   21.9395 C   0  0  2  0  0  0  0  0  0  0  0  0
  -24.0825  -35.9584   23.8807 C   0  0  0  0  0  0  0  0  0  0  0  0
  -27.1327  -30.3943   25.7799 C   0  0  0  0  0  0  0  0  0  0  0  0
  -26.2564  -32.6662   26.3620 C   0  0  0  0  0  0  0  0  0  0  0  0
  -28.0486  -32.4251   24.6436 C   0  0  0  0  0  0  0  0  0  0  0  0
  -23.7918  -23.0752   20.0644 C   0  0  0  0  0  0  0  0  0  0  0  0
  -22.3833  -33.9646   21.1214 C   0  0  0  0  0  0  0  0  0  0  0  0
  -21.6515  -20.5463   22.8050 C   0  0  0  0  0  0  0  0  0  0  0  0
  -22.9577  -21.3263   22.9147 C   0  0  0  0  0  0  0  0  0  0  0  0
  -17.6079  -26.1748   23.7150 C   0  0  0  0  0  0  0  0  0  0  0  0
  -18.7629  -26.5537   22.8092 C   0  0  0  0  0  0  0  0  0  1  0  0
  -25.6907  -31.7035   24.0851 C   0  0  1  0  0  0  0  0  0  0  0  0
  -23.9495  -34.8396   22.8592 C   0  0  2  0  0  0  0  0  0  0  0  0
  -26.7648  -31.7774   25.2068 C   0  0  0  0  0  0  0  0  0  0  0  0
  -24.4276  -12.5325   21.8010 N   0  0  0  0  0  0  0  0  0  0  0  0
  -25.2883  -13.4837   21.4003 N   0  0  0  0  0  0  0  0  0  0  0  0
  -25.3052  -29.7190   22.6578 N   0  0  0  0  0  0  0  0  0  0  0  0
  -24.4677  -17.0940   22.3570 N   0  0  0  0  0  0  0  0  0  0  0  0
  -24.5281  -19.4863   22.4369 N   0  0  0  0  0  0  0  0  0  0  0  0
  -26.9317  -13.9776   19.7675 N   0  0  0  0  0  0  0  0  0  0  0  0
  -25.5753   -9.8159   18.6551 N   0  0  0  0  0  0  0  0  0  0  0  0
  -27.5015  -27.0345   21.8213 N   0  0  0  0  0  0  0  0  0  0  0  0
  -25.3426  -32.9961   23.5050 N   0  0  0  0  0  0  0  0  0  0  0  0
  -18.0097  -24.9954   24.5682 N   0  3  2  0  0  0  0  0  0  0  0  0
  -24.6853  -23.0751   21.2532 N   0  3  0  0  0  0  0  0  0  0  0  0
  -22.6367  -34.9865   22.1695 N   0  3  0  0  0  0  0  0  0  0  0  0
  -27.0056  -11.5195   18.0974 O   0  0  0  0  0  0  0  0  0  0  0  0
  -26.0277  -27.3506   23.5962 O   0  0  0  0  0  0  0  0  0  0  0  0
  -27.1371  -31.1161   22.2992 O   0  0  0  0  0  0  0  0  0  0  0  0
  -23.0792  -32.8951   23.9989 O   0  0  0  0  0  0  0  0  0  0  0  0
  -23.9995  -18.3619   20.4888 O   0  0  0  0  0  0  0  0  0  0  0  0
  -21.6999   -6.8014   21.2874 O   0  0  0  0  0  0  0  0  0  0  0  0
  -19.8983  -26.8828   23.5985 O   0  0  0  0  0  0  0  0  0  1  0  0
  -24.4387   -2.0490   20.7245 F   0  0  0  0  0  0  0  0  0  0  0  0
  -21.7250   -4.9294   23.3215 F   0  0  0  0  0  0  0  0  0  0  0  0
  1  2  1  0  0  0  0
  1  5  2  0  0  0  0
  2  6  2  0  0  0  0
  3 10  2  0  0  0  0
  3 18  1  0  0  0  0
  4 11  1  0  0  0  0
  4 18  2  0  0  0  0
  5 20  1  0  0  0  0
  6 23  1  0  0  0  0
  7  9  2  0  0  0  0
  7 21  1  0  0  0  0
  8 12  2  0  0  0  0
  8 22  1  0  0  0  0
  9 26  1  0  0  0  0
 10 27  1  0  0  0  0
 11 27  2  0  0  0  0
 12 28  1  0  0  0  0
 13 14  2  0  0  0  0
 13 29  1  0  0  0  0
 14 30  1  0  0  0  0
 15 24  1  0  0  0  0
 15 26  2  0  0  0  0
 16 25  1  0  0  0  0
 16 28  2  0  0  0  0
 17 30  2  0  0  0  0
 17 31  1  0  0  0  0
 18 32  1  0  0  0  0
 19 32  1  0  0  0  0
 19 33  2  0  0  0  0
 19 34  1  0  0  0  0
 20 23  2  0  0  0  0
 20 39  1  0  0  0  0
 21 24  2  0  0  0  0
 21 40  1  0  0  0  0
 22 25  2  0  0  0  0
 22 41  1  0  0  0  0
 23 55  1  0  0  0  0
 24 43  1  0  0  0  0
 25 42  1  0  0  0  0
 26 66  1  0  0  0  0
 27 90  1  0  0  0  0
 28 91  1  0  0  0  0
 29 31  2  0  0  0  0
 29 90  1  0  0  0  0
 30 92  1  0  0  0  0
 31 93  1  0  0  0  0
 32 73  2  0  0  0  0
 33 74  1  0  0  0  0
 33 78  1  0  0  0  0
 34 79  1  0  0  0  0
 34 85  2  0  0  0  0
 35 56  1  0  0  0  0
 35 80  1  0  0  0  0
 35 86  2  0  0  0  0
 36 70  1  0  0  0  0
 36 75  1  0  0  0  0
 36 87  2  0  0  0  0
 37 71  1  0  0  0  0
 37 81  1  0  0  0  0
 37 88  2  0  0  0  0
 38 76  1  0  0  0  0
 38 77  1  0  0  0  0
 38 89  2  0  0  0  0
 39 44  1  0  0  0  0
 40 45  1  0  0  0  0
 41 56  1  0  0  0  0
 42 75  1  0  0  0  0
 43 82  1  0  0  0  0
 44 48  1  0  0  0  0
 45 54  1  0  0  0  0
 46 49  1  0  0  0  0
 46 51  1  0  0  0  0
 47 50  1  0  0  0  0
 47 52  1  0  0  0  0
 48 55  1  0  0  0  0
 49 57  1  0  0  0  0
 50 58  1  0  0  0  0
 51 76  1  0  0  0  0
 52 77  1  0  0  0  0
 53 57  1  0  0  0  0
 53 76  1  0  0  0  0
 54 82  1  0  0  0  0
 55 80  1  0  0  0  0
 56 75  1  0  0  0  0
 57 74  1  0  0  0  0
 58 59  1  0  0  0  0
 58 83  1  0  0  0  0
 59 67  1  0  0  0  0
 59 77  1  0  0  0  0
 60 71  1  0  0  0  0
 61 72  1  0  0  0  0
 62 72  1  0  0  0  0
 63 72  1  0  0  0  0
 64 83  1  0  0  0  0
 65 84  1  0  0  0  0
 66 67  1  0  0  0  0
 68 69  1  0  0  0  0
 68 82  1  0  0  0  0
 69 91  1  0  0  0  0
 70 72  1  0  0  0  0
 70 81  1  0  0  0  0
 71 84  1  0  0  0  0
 73 74  1  0  0  0  0
M  CHG  3  82   1  83   1  84   1
M  ISO  4  38 100  69 101  77 100  91 101
M  END
> <Batch ID>
0134

> <Smiles>
CNC(C)C(=O)NC(C(=O)N1Cc2cc([101O:1][101CH2:1]CN3CCCc4ccc(CCC5C(NC)CCC[100N:0]5[100C:0](=O)N5CCCC(n6nc(-c7ccc(Oc8ccc(F)cc8F)cc7)c(C(N)=O)c6N)C5)cc4C3)ccc2CC1C(=O)NC1CCCc2ccccc21)C(C)(C)C

> <Shape>
0.233

> <Color>
0.080

> <Negative vol penalty>
0.000

$$$$

  -OEChem-04052320573D

 87 97  0     1  0  0  0  0  0999 V2000
  -27.9778  -37.6898   21.4974 C   0  0  0  0  0  0  0  0  0  0  0  0
  -28.4439  -36.4463   21.0829 C   0  0  0  0  0  0  0  0  0  0  0  0
  -31.5456  -23.6317   20.0524 C   0  0  0  0  0  0  0  0  0  0  0  0
  -24.1951  -11.8190   24.0464 C   0  0  0  0  0  0  0  0  0  0  0  0
  -23.6049  -14.1250   23.6329 C   0  0  0  0  0  0  0  0  0  0  0  0
  -27.0402  -37.7742   22.5258 C   0  0  0  0  0  0  0  0  0  0  0  0
  -27.9735  -35.2864   21.6975 C   0  0  0  0  0  0  0  0  0  0  0  0
  -31.2713  -22.6393   19.1114 C   0  0  0  0  0  0  0  0  0  0  0  0
  -27.0216  -29.8453   19.0528 C   0  0  0  0  0  0  0  0  0  0  0  0
  -28.4152  -20.2137   18.3128 C   0  0  0  0  0  0  0  0  0  0  0  0
  -30.9061  -24.8685   19.9683 C   0  0  0  0  0  0  0  0  0  0  0  0
  -23.6535  -11.9102   25.3285 C   0  0  0  0  0  0  0  0  0  0  0  0
  -23.0632  -14.2162   24.9150 C   0  0  0  0  0  0  0  0  0  0  0  0
  -27.7869  -28.6812   19.0003 C   0  0  0  0  0  0  0  0  0  0  0  0
  -24.5687  -13.1516   28.3361 C   0  0  0  0  0  0  0  0  0  0  0  0
  -25.3074  -12.6153   29.3907 C   0  0  0  0  0  0  0  0  0  0  0  0
  -28.2770  -18.9255   18.8267 C   0  0  0  0  0  0  0  0  0  0  0  0
  -29.7179  -24.1205   18.0022 C   0  0  0  0  0  0  0  0  0  0  0  0
  -26.5452  -27.7879   20.8656 C   0  0  0  0  0  0  0  0  0  0  0  0
  -23.4900  -11.1057   29.8961 C   0  0  0  0  0  0  0  0  0  0  0  0
  -24.1709  -12.9264   23.1986 C   0  0  0  0  0  0  0  0  0  0  0  0
  -24.0643  -12.4510   20.6945 C   0  0  0  0  0  0  0  0  0  0  0  0
  -30.3574  -22.8837   18.0863 C   0  0  0  0  0  0  0  0  0  0  0  0
  -26.5508  -36.6142   23.1468 C   0  0  0  0  0  0  0  0  0  0  0  0
  -26.0179  -29.9942   20.0207 C   0  0  0  0  0  0  0  0  0  0  0  0
  -27.0294  -35.3554   22.7361 C   0  0  0  0  0  0  0  0  0  0  0  0
  -29.5962  -20.5324   17.6739 C   0  0  0  0  0  0  0  0  0  0  0  0
  -25.7668  -28.9538   20.9266 C   0  0  0  0  0  0  0  0  0  0  0  0
  -29.9922  -25.1129   18.9432 C   0  0  0  0  0  0  0  0  0  0  0  0
  -23.0875  -13.1088   25.7629 C   0  0  0  0  0  0  0  0  0  0  0  0
  -27.5508  -27.6534   19.9086 C   0  0  0  0  0  0  0  0  0  0  0  0
  -23.2905  -12.6651   28.0616 C   0  0  0  0  0  0  0  0  0  0  0  0
  -24.7682  -11.5923   30.1706 C   0  0  0  0  0  0  0  0  0  0  0  0
  -22.7512  -11.6422   28.8415 C   0  0  0  0  0  0  0  0  0  0  0  0
  -24.7308  -12.8329   21.8742 C   0  0  0  0  0  0  0  0  0  0  0  0
  -29.3352  -18.0280   18.6768 C   0  0  0  0  0  0  0  0  0  0  0  0
  -30.5773  -19.5672   17.5730 C   0  0  0  0  0  0  0  0  0  0  0  0
  -25.0270  -12.5231   19.7176 C   0  0  0  0  0  0  0  0  0  0  0  0
  -22.6972  -12.0656   20.4993 C   0  0  0  0  0  0  0  0  0  0  0  0
  -25.5051  -32.0035   22.4297 C   0  0  0  0  0  0  0  0  0  0  0  0
  -22.6755  -30.4298   22.6277 C   0  0  0  0  0  0  0  0  0  0  0  0
  -20.8878  -27.5926   21.9942 C   0  0  0  0  0  0  0  0  0  0  0  0
  -30.0758  -15.6746   19.1863 C   0  0  0  0  0  0  0  0  0  0  0  0
  -25.5732  -36.7581   24.2862 C   0  0  0  0  0  0  0  0  0  0  0  0
  -25.1831  -31.2452   20.0470 C   0  0  0  0  0  0  0  0  0  0  0  0
  -24.6874  -29.0559   21.9721 C   0  0  0  0  0  0  0  0  0  0  0  0
  -24.8452  -35.4616   24.6315 C   0  0  0  0  0  0  0  0  0  0  0  0
  -29.7578  -12.1298   19.0857 C   0  0  0  0  0  0  0  0  0  0  0  0
  -25.8311  -34.3003   24.7101 C   0  0  0  0  0  0  0  0  0  0  0  0
  -28.3694  -11.8734   19.6764 C   0  0  0  0  0  0  0  0  0  0  0  0
  -30.4636  -13.2931   19.7801 C   0  0  0  0  0  0  0  0  0  0  0  0
  -28.3041  -14.2850   20.4295 C   0  0  0  0  0  0  0  0  0  0  0  0
  -31.2861  -21.2588   16.3065 C   0  0  0  0  0  0  0  0  0  0  0  0
  -30.0591  -21.8056   17.0663 C   0  0  2  0  0  0  0  0  0  0  0  0
  -26.5246  -34.0731   23.3614 C   0  0  1  0  0  0  0  0  0  0  0  0
  -24.5310  -31.4999   21.4024 C   0  0  1  0  0  0  0  0  0  0  0  0
  -27.5280  -13.1641   19.7189 C   0  0  2  0  0  0  0  0  0  0  0  0
  -18.6089  -26.5893   22.3065 C   0  0  0  0  0  0  0  0  0  0  0  0
  -23.2992  -29.9358   25.5733 C   0  0  0  0  0  0  0  0  0  0  0  0
  -21.5210  -28.1734   25.5825 C   0  0  0  0  0  0  0  0  0  0  0  0
  -20.9208  -30.5459   25.0987 C   0  0  0  0  0  0  0  0  0  0  0  0
  -20.4800  -27.3212   19.0755 C   0  0  0  0  0  0  0  0  0  0  0  0
  -29.3049  -26.4435   18.8525 C   0  0  0  0  0  0  0  0  0  1  0  0
  -22.1811  -29.2075   23.3630 C   0  0  1  0  0  0  0  0  0  0  0  0
  -19.5160  -27.3827   21.3789 C   0  0  2  0  0  0  0  0  0  0  0  0
  -22.0022  -29.4642   24.8860 C   0  0  0  0  0  0  0  0  0  0  0  0
  -26.0175  -13.1257   21.6678 N   0  0  0  0  0  0  0  0  0  0  0  0
  -30.5040  -18.3170   18.0568 N   0  0  0  0  0  0  0  0  0  0  0  0
  -26.1673  -12.9277   20.3470 N   0  0  0  0  0  0  0  0  0  0  0  0
  -23.9024  -30.3013   21.9614 N   0  0  0  0  0  0  0  0  0  0  0  0
  -29.6087  -14.4822   19.7784 N   0  0  0  0  0  0  0  0  0  0  0  0
  -25.0009  -12.2791   18.3901 N   0  0  0  0  0  0  0  0  0  0  0  0
  -21.8434  -12.0456   21.6105 N   0  0  0  0  0  0  0  0  0  0  0  0
  -29.1634  -16.7288   19.2157 N   0  0  0  0  0  0  0  0  0  0  0  0
  -25.6411  -33.3784   22.4496 N   0  0  0  0  0  0  0  0  0  0  0  0
  -20.9623  -28.7859   22.6809 N   0  0  0  0  0  0  0  0  0  0  0  0
  -19.6339  -26.6427   20.0907 N   0  3  0  0  0  0  0  0  0  0  0  0
  -22.2501  -11.7326   19.3755 O   0  0  0  0  0  0  0  0  0  0  0  0
  -26.0888  -31.2039   23.1519 O   0  0  0  0  0  0  0  0  0  0  0  0
  -21.9945  -31.4583   22.6379 O   0  0  0  0  0  0  0  0  0  0  0  0
  -21.8006  -26.7775   21.8805 O   0  0  0  0  0  0  0  0  0  0  0  0
  -31.1918  -15.7467   18.6654 O   0  0  0  0  0  0  0  0  0  0  0  0
  -31.7164  -20.0172   16.9187 O   0  0  0  0  0  0  0  0  0  0  0  0
  -22.5586  -13.1982   27.0138 O   0  0  0  0  0  0  0  0  0  0  0  0
  -28.2968  -26.5163   19.8600 O   0  0  0  0  0  0  0  0  0  1  0  0
  -25.4784  -11.0762   31.1823 F   0  0  0  0  0  0  0  0  0  0  0  0
  -21.5243  -11.1698   28.5819 F   0  0  0  0  0  0  0  0  0  0  0  0
  1  2  1  0  0  0  0
  1  6  2  0  0  0  0
  2  7  2  0  0  0  0
  3  8  1  0  0  0  0
  3 11  2  0  0  0  0
  4 12  2  0  0  0  0
  4 21  1  0  0  0  0
  5 13  1  0  0  0  0
  5 21  2  0  0  0  0
  6 24  1  0  0  0  0
  7 26  1  0  0  0  0
  8 23  2  0  0  0  0
  9 14  2  0  0  0  0
  9 25  1  0  0  0  0
 10 17  2  0  0  0  0
 10 27  1  0  0  0  0
 11 29  1  0  0  0  0
 12 30  1  0  0  0  0
 13 30  2  0  0  0  0
 14 31  1  0  0  0  0
 15 16  2  0  0  0  0
 15 32  1  0  0  0  0
 16 33  1  0  0  0  0
 17 36  1  0  0  0  0
 18 23  1  0  0  0  0
 18 29  2  0  0  0  0
 19 28  1  0  0  0  0
 19 31  2  0  0  0  0
 20 33  2  0  0  0  0
 20 34  1  0  0  0  0
 21 35  1  0  0  0  0
 22 35  1  0  0  0  0
 22 38  2  0  0  0  0
 22 39  1  0  0  0  0
 23 54  1  0  0  0  0
 24 26  2  0  0  0  0
 24 44  1  0  0  0  0
 25 28  2  0  0  0  0
 25 45  1  0  0  0  0
 26 55  1  0  0  0  0
 27 37  2  0  0  0  0
 27 54  1  0  0  0  0
 28 46  1  0  0  0  0
 29 63  1  0  0  0  0
 30 84  1  0  0  0  0
 31 85  1  0  0  0  0
 32 34  2  0  0  0  0
 32 84  1  0  0  0  0
 33 86  1  0  0  0  0
 34 87  1  0  0  0  0
 35 67  2  0  0  0  0
 36 68  2  0  0  0  0
 36 74  1  0  0  0  0
 37 68  1  0  0  0  0
 37 83  1  0  0  0  0
 38 69  1  0  0  0  0
 38 72  1  0  0  0  0
 39 73  1  0  0  0  0
 39 78  2  0  0  0  0
 40 56  1  0  0  0  0
 40 75  1  0  0  0  0
 40 79  2  0  0  0  0
 41 64  1  0  0  0  0
 41 70  1  0  0  0  0
 41 80  2  0  0  0  0
 42 65  1  0  0  0  0
 42 76  1  0  0  0  0
 42 81  2  0  0  0  0
 43 71  1  0  0  0  0
 43 74  1  0  0  0  0
 43 82  2  0  0  0  0
 44 47  1  0  0  0  0
 45 56  1  0  0  0  0
 46 70  1  0  0  0  0
 47 49  1  0  0  0  0
 48 50  1  0  0  0  0
 48 51  1  0  0  0  0
 49 55  1  0  0  0  0
 50 57  1  0  0  0  0
 51 71  1  0  0  0  0
 52 57  1  0  0  0  0
 52 71  1  0  0  0  0
 53 54  1  0  0  0  0
 53 83  1  0  0  0  0
 55 75  1  0  0  0  0
 56 70  1  0  0  0  0
 57 69  1  0  0  0  0
 58 65  1  0  0  0  0
 59 66  1  0  0  0  0
 60 66  1  0  0  0  0
 61 66  1  0  0  0  0
 62 77  1  0  0  0  0
 63 85  1  0  0  0  0
 64 66  1  0  0  0  0
 64 76  1  0  0  0  0
 65 77  1  0  0  0  0
 67 69  1  0  0  0  0
M  CHG  1  77   1
M  ISO  4  43 100  63 101  74 100  85 101
M  END
> <Batch ID>
0134

> <Smiles>
CNC(C)C(=O)NC(C(=O)N1Cc2cc([101O:1][101CH2:1]c3cccc(C4COc5nc([100NH:0][100C:0](=O)N6CCCC(n7nc(-c8ccc(Oc9ccc(F)cc9F)cc8)c(C(N)=O)c7N)C6)ccc54)c3)ccc2CC1C(=O)NC1CCCc2ccccc21)C(C)(C)C

> <Shape>
0.300

> <Color>
0.097

> <Negative vol penalty>
0.000

$$$$

  -OEChem-04052320573D

 84 92  0     1  0  0  0  0  0999 V2000
  -22.7030  -23.5165   19.8188 C   0  0  0  0  0  0  0  0  0  0  0  0
  -23.8745  -22.8100   20.0716 C   0  0  0  0  0  0  0  0  0  0  0  0
  -21.2997  -26.8622   20.8442 C   0  0  0  0  0  0  0  0  0  0  0  0
  -22.3322  -26.6468   23.0179 C   0  0  0  0  0  0  0  0  0  0  0  0
  -21.4741  -22.9917   20.2165 C   0  0  0  0  0  0  0  0  0  0  0  0
  -23.8177  -21.5786   20.7234 C   0  0  0  0  0  0  0  0  0  0  0  0
  -26.7544  -18.0833   18.5316 C   0  0  0  0  0  0  0  0  0  0  0  0
  -20.1854  -26.1605   21.3040 C   0  0  0  0  0  0  0  0  0  0  0  0
  -21.2178  -25.9451   23.4776 C   0  0  0  0  0  0  0  0  0  0  0  0
  -28.1229  -18.1487   18.7897 C   0  0  0  0  0  0  0  0  0  0  0  0
  -16.9147  -24.7391   22.0095 C   0  0  0  0  0  0  0  0  0  0  0  0
  -15.6539  -25.2405   21.6862 C   0  0  0  0  0  0  0  0  0  0  0  0
  -27.8917  -16.3933   20.4281 C   0  0  0  0  0  0  0  0  0  0  0  0
  -31.5698  -19.9133   20.3564 C   0  0  0  0  0  0  0  0  0  0  0  0
  -16.1743  -27.2960   22.8443 C   0  0  0  0  0  0  0  0  0  0  0  0
  -22.3731  -27.1054   21.7012 C   0  0  0  0  0  0  0  0  0  0  0  0
  -23.7295  -29.2219   21.2676 C   0  0  0  0  0  0  0  0  0  0  0  0
  -21.4014  -21.7487   20.8649 C   0  0  0  0  0  0  0  0  0  0  0  0
  -25.9411  -17.1784   19.2287 C   0  0  0  0  0  0  0  0  0  0  0  0
  -22.5868  -21.0372   21.1314 C   0  0  0  0  0  0  0  0  0  0  0  0
  -26.5136  -16.3165   20.1751 C   0  0  0  0  0  0  0  0  0  0  0  0
  -31.6049  -19.2600   21.5833 C   0  0  0  0  0  0  0  0  0  0  0  0
  -31.4309  -21.2962   20.3151 C   0  0  0  0  0  0  0  0  0  0  0  0
  -20.1444  -25.7019   22.6207 C   0  0  0  0  0  0  0  0  0  0  0  0
  -28.6913  -17.3057   19.7401 C   0  0  0  0  0  0  0  0  0  0  0  0
  -17.8054  -25.5162   22.7502 C   0  0  0  0  0  0  0  0  0  0  0  0
  -15.2837  -26.5189   22.1036 C   0  0  0  0  0  0  0  0  0  0  0  0
  -17.4352  -26.7946   23.1676 C   0  0  0  0  0  0  0  0  0  0  0  0
  -23.5248  -27.8297   21.2267 C   0  0  0  0  0  0  0  0  0  0  0  0
  -31.4981  -20.0291   22.7308 C   0  0  0  0  0  0  0  0  0  0  0  0
  -31.3317  -21.9741   21.5194 C   0  0  0  0  0  0  0  0  0  0  0  0
  -24.9665  -29.4039   20.6990 C   0  0  0  0  0  0  0  0  0  0  0  0
  -22.8778  -30.2580   21.7743 C   0  0  0  0  0  0  0  0  0  0  0  0
  -23.4668  -17.4493   21.2057 C   0  0  0  0  0  0  0  0  0  0  0  0
  -23.4161  -14.2151   20.9612 C   0  0  0  0  0  0  0  0  0  0  0  0
  -25.1177  -11.3331   20.2940 C   0  0  0  0  0  0  0  0  0  0  0  0
  -29.7544  -25.8538   20.1295 C   0  0  0  0  0  0  0  0  0  0  0  0
  -20.0544  -21.2441   21.3182 C   0  0  0  0  0  0  0  0  0  0  0  0
  -24.4711  -17.1016   18.9195 C   0  0  0  0  0  0  0  0  0  0  0  0
  -25.6874  -15.3133   20.9362 C   0  0  0  0  0  0  0  0  0  0  0  0
  -20.0471  -19.7585   21.6692 C   0  0  0  0  0  0  0  0  0  0  0  0
  -27.9456  -27.4456   17.5082 C   0  0  0  0  0  0  0  0  0  0  0  0
  -21.2455  -19.4113   22.5467 C   0  0  0  0  0  0  0  0  0  0  0  0
  -26.6260  -27.8502   18.1677 C   0  0  0  0  0  0  0  0  0  0  0  0
  -28.4531  -26.1058   18.0367 C   0  0  0  0  0  0  0  0  0  0  0  0
  -27.2513  -26.4281   20.1640 C   0  0  0  0  0  0  0  0  0  0  0  0
  -22.5641  -19.6867   21.8139 C   0  0  1  0  0  0  0  0  0  0  0  0
  -23.6519  -16.4989   20.0567 C   0  0  1  0  0  0  0  0  0  0  0  0
  -26.7282  -27.7996   19.7040 C   0  0  2  0  0  0  0  0  0  0  0  0
  -31.3935  -21.9935   18.9978 C   0  0  0  0  0  0  0  0  0  0  0  0
  -31.5301  -19.3811   24.0762 C   0  0  0  0  0  0  0  0  0  0  0  0
  -24.8190   -8.8427   20.2133 C   0  0  0  0  0  0  0  0  0  0  0  0
  -23.5023  -14.1084   24.0094 C   0  0  0  0  0  0  0  0  0  0  0  0
  -24.1544  -11.6973   23.8371 C   0  0  0  0  0  0  0  0  0  0  0  0
  -21.9499  -12.4577   22.9512 C   0  0  0  0  0  0  0  0  0  0  0  0
  -25.7810  -11.2304   17.4116 C   0  0  0  0  0  0  0  0  0  0  0  0
  -31.7555  -17.7591   21.6347 C   0  0  0  0  0  0  0  0  0  0  0  0
  -31.0792  -24.1773   22.6629 C   0  0  0  0  0  0  0  0  0  0  0  0
  -30.9248  -25.6484   22.3082 C   0  0  0  0  0  0  0  0  0  0  0  0
  -30.4526  -17.0343   21.3150 C   0  0  0  0  0  0  0  0  0  1  0  0
  -24.0642  -13.0761   21.7106 C   0  0  1  0  0  0  0  0  0  0  0  0
  -24.7745  -10.1398   19.4206 C   0  0  2  0  0  0  0  0  0  0  0  0
  -23.4332  -12.8550   23.1143 C   0  0  0  0  0  0  0  0  0  0  0  0
  -24.5495  -27.1738   20.6755 N   0  0  0  0  0  0  0  0  0  0  0  0
  -31.3619  -21.3741   22.7305 N   0  0  0  0  0  0  0  0  0  0  0  0
  -25.4100  -28.1582   20.3648 N   0  0  0  0  0  0  0  0  0  0  0  0
  -24.2538  -15.2808   20.6029 N   0  0  0  0  0  0  0  0  0  0  0  0
  -28.5284  -26.1246   19.4995 N   0  0  0  0  0  0  0  0  0  0  0  0
  -25.7072  -30.5063   20.4573 N   0  0  0  0  0  0  0  0  0  0  0  0
  -21.6409  -29.8963   22.3252 N   0  0  0  0  0  0  0  0  0  0  0  0
  -31.1895  -23.3839   21.4827 N   0  0  0  0  0  0  0  0  0  0  0  0
  -22.8426  -18.6331   20.8616 N   0  0  0  0  0  0  0  0  0  0  0  0
  -23.9887  -11.9140   20.8318 N   0  0  0  0  0  0  0  0  0  0  0  0
  -29.7399  -25.8984   21.5182 N   0  0  0  0  0  0  0  0  0  0  0  0
  -25.7379  -10.0322   18.2887 N   0  3  0  0  0  0  0  0  0  0  0  0
  -23.1969  -31.4701   21.7247 O   0  0  0  0  0  0  0  0  0  0  0  0
  -23.8597  -17.1315   22.3220 O   0  0  0  0  0  0  0  0  0  0  0  0
  -22.2125  -14.1580   20.6971 O   0  0  0  0  0  0  0  0  0  0  0  0
  -26.2722  -11.7097   20.4835 O   0  0  0  0  0  0  0  0  0  0  0  0
  -30.7867  -25.5969   19.5007 O   0  0  0  0  0  0  0  0  0  0  0  0
  -19.0571  -25.0173   23.0697 O   0  0  0  0  0  0  0  0  0  0  0  0
  -30.0267  -17.3679   19.9945 O   0  0  0  0  0  0  0  0  0  1  0  0
  -14.0734  -27.0008   21.7918 F   0  0  0  0  0  0  0  0  0  0  0  0
  -18.2870  -27.5462   23.8785 F   0  0  0  0  0  0  0  0  0  0  0  0
  1  2  1  0  0  0  0
  1  5  2  0  0  0  0
  2  6  2  0  0  0  0
  3  8  2  0  0  0  0
  3 16  1  0  0  0  0
  4  9  1  0  0  0  0
  4 16  2  0  0  0  0
  5 18  1  0  0  0  0
  6 20  1  0  0  0  0
  7 10  2  0  0  0  0
  7 19  1  0  0  0  0
  8 24  1  0  0  0  0
  9 24  2  0  0  0  0
 10 25  1  0  0  0  0
 11 12  2  0  0  0  0
 11 26  1  0  0  0  0
 12 27  1  0  0  0  0
 13 21  1  0  0  0  0
 13 25  2  0  0  0  0
 14 22  1  0  0  0  0
 14 23  2  0  0  0  0
 15 27  2  0  0  0  0
 15 28  1  0  0  0  0
 16 29  1  0  0  0  0
 17 29  1  0  0  0  0
 17 32  2  0  0  0  0
 17 33  1  0  0  0  0
 18 20  2  0  0  0  0
 18 38  1  0  0  0  0
 19 21  2  0  0  0  0
 19 39  1  0  0  0  0
 20 47  1  0  0  0  0
 21 40  1  0  0  0  0
 22 30  2  0  0  0  0
 22 57  1  0  0  0  0
 23 31  1  0  0  0  0
 23 50  1  0  0  0  0
 24 81  1  0  0  0  0
 25 82  1  0  0  0  0
 26 28  2  0  0  0  0
 26 81  1  0  0  0  0
 27 83  1  0  0  0  0
 28 84  1  0  0  0  0
 29 64  2  0  0  0  0
 30 51  1  0  0  0  0
 30 65  1  0  0  0  0
 31 65  2  0  0  0  0
 31 71  1  0  0  0  0
 32 66  1  0  0  0  0
 32 69  1  0  0  0  0
 33 70  1  0  0  0  0
 33 76  2  0  0  0  0
 34 48  1  0  0  0  0
 34 72  1  0  0  0  0
 34 77  2  0  0  0  0
 35 61  1  0  0  0  0
 35 67  1  0  0  0  0
 35 78  2  0  0  0  0
 36 62  1  0  0  0  0
 36 73  1  0  0  0  0
 36 79  2  0  0  0  0
 37 68  1  0  0  0  0
 37 74  1  0  0  0  0
 37 80  2  0  0  0  0
 38 41  1  0  0  0  0
 39 48  1  0  0  0  0
 40 67  1  0  0  0  0
 41 43  1  0  0  0  0
 42 44  1  0  0  0  0
 42 45  1  0  0  0  0
 43 47  1  0  0  0  0
 44 49  1  0  0  0  0
 45 68  1  0  0  0  0
 46 49  1  0  0  0  0
 46 68  1  0  0  0  0
 47 72  1  0  0  0  0
 48 67  1  0  0  0  0
 49 66  1  0  0  0  0
 52 62  1  0  0  0  0
 53 63  1  0  0  0  0
 54 63  1  0  0  0  0
 55 63  1  0  0  0  0
 56 75  1  0  0  0  0
 57 60  1  0  0  0  0
 58 59  1  0  0  0  0
 58 71  1  0  0  0  0
 59 74  1  0  0  0  0
 60 82  1  0  0  0  0
 61 63  1  0  0  0  0
 61 73  1  0  0  0  0
 62 75  1  0  0  0  0
 64 66  1  0  0  0  0
M  CHG  1  75   1
M  ISO  4  37 100  60 101  74 100  82 101
M  END
> <Batch ID>
0134

> <Smiles>
CNC(C)C(=O)NC(C(=O)N1Cc2cc([101O:1][101CH2:1]Cc3cc(C)c(NCC[100NH:0][100C:0](=O)N4CCCC(n5nc(-c6ccc(Oc7ccc(F)cc7F)cc6)c(C(N)=O)c5N)C4)nc3C)ccc2CC1C(=O)NC1CCCc2ccccc21)C(C)(C)C

> <Shape>
0.213

> <Color>
0.082

> <Negative vol penalty>
0.000

$$$$

  -OEChem-04052320573D

 89 98  0     1  0  0  0  0  0999 V2000
  -24.8514  -24.9484   24.1825 C   0  0  0  0  0  0  0  0  0  0  0  0
  -26.1277  -24.4264   23.9983 C   0  0  0  0  0  0  0  0  0  0  0  0
  -23.0109  -10.0228   19.8826 C   0  0  0  0  0  0  0  0  0  0  0  0
  -23.8248   -9.8379   22.1498 C   0  0  0  0  0  0  0  0  0  0  0  0
  -23.9733  -25.0369   23.1031 C   0  0  0  0  0  0  0  0  0  0  0  0
  -26.5263  -23.9915   22.7348 C   0  0  0  0  0  0  0  0  0  0  0  0
  -31.1875  -25.5562   21.5227 C   0  0  0  0  0  0  0  0  0  0  0  0
  -22.2259   -8.8854   20.0716 C   0  0  0  0  0  0  0  0  0  0  0  0
  -23.0398   -8.7006   22.3389 C   0  0  0  0  0  0  0  0  0  0  0  0
  -32.2583  -24.8665   22.0899 C   0  0  0  0  0  0  0  0  0  0  0  0
  -19.7965   -7.9914   22.9705 C   0  0  0  0  0  0  0  0  0  0  0  0
  -19.0666   -7.8992   24.1555 C   0  0  0  0  0  0  0  0  0  0  0  0
  -32.5404  -23.6293   20.0384 C   0  0  0  0  0  0  0  0  0  0  0  0
  -20.2436   -5.8669   24.7223 C   0  0  0  0  0  0  0  0  0  0  0  0
  -23.8104  -10.4990   20.9216 C   0  0  0  0  0  0  0  0  0  0  0  0
  -24.2539  -13.0107   20.9681 C   0  0  0  0  0  0  0  0  0  0  0  0
  -24.3647  -24.6118   21.8237 C   0  0  0  0  0  0  0  0  0  0  0  0
  -30.7776  -25.2793   20.2105 C   0  0  0  0  0  0  0  0  0  0  0  0
  -25.6521  -24.0731   21.6376 C   0  0  0  0  0  0  0  0  0  0  0  0
  -31.4658  -24.3186   19.4559 C   0  0  0  0  0  0  0  0  0  0  0  0
  -31.9913  -18.9357   23.1489 C   0  0  0  0  0  0  0  0  0  0  0  0
  -30.1268  -17.4059   23.0446 C   0  0  0  0  0  0  0  0  0  0  0  0
  -30.7043  -18.5675   23.5459 C   0  0  0  0  0  0  0  0  0  0  0  0
  -22.2403   -8.2243   21.2998 C   0  0  0  0  0  0  0  0  0  0  0  0
  -32.9330  -23.9009   21.3487 C   0  0  0  0  0  0  0  0  0  0  0  0
  -20.7499   -7.0212   22.6613 C   0  0  0  0  0  0  0  0  0  0  0  0
  -19.2902   -6.8370   25.0315 C   0  0  0  0  0  0  0  0  0  0  0  0
  -20.9735   -5.9590   23.5372 C   0  0  0  0  0  0  0  0  0  0  0  0
  -24.6219  -11.6735   20.7268 C   0  0  0  0  0  0  0  0  0  0  0  0
  -32.6855  -18.1037   22.2628 C   0  0  0  0  0  0  0  0  0  0  0  0
  -25.3673  -13.7399   20.6288 C   0  0  0  0  0  0  0  0  0  0  0  0
  -30.8527  -16.6286   22.1561 C   0  0  0  0  0  0  0  0  0  0  0  0
  -23.0163  -13.5459   21.4556 C   0  0  0  0  0  0  0  0  0  0  0  0
  -28.1077  -24.1830   18.8788 C   0  0  0  0  0  0  0  0  0  0  0  0
  -29.6756  -24.8449   16.1173 C   0  0  0  0  0  0  0  0  0  0  0  0
  -32.6538  -25.2962   14.5132 C   0  0  0  0  0  0  0  0  0  0  0  0
  -30.8749  -14.5522   20.7298 C   0  0  0  0  0  0  0  0  0  0  0  0
  -23.3643  -24.6834   20.6974 C   0  0  0  0  0  0  0  0  0  0  0  0
  -29.6377  -26.0509   19.6041 C   0  0  0  0  0  0  0  0  0  0  0  0
  -31.0779  -23.9985   18.0362 C   0  0  0  0  0  0  0  0  0  0  0  0
  -32.6431  -20.1684   23.7059 C   0  0  0  0  0  0  0  0  0  0  0  0
  -34.0573  -18.4359   21.7633 C   0  0  0  0  0  0  0  0  0  0  0  0
  -23.9943  -24.5477   19.3136 C   0  0  0  0  0  0  0  0  0  0  0  0
  -29.6050  -12.3575   18.2303 C   0  0  0  0  0  0  0  0  0  0  0  0
  -24.9809  -23.3845   19.2879 C   0  0  0  0  0  0  0  0  0  0  0  0
  -28.1651  -12.0939   18.6768 C   0  0  0  0  0  0  0  0  0  0  0  0
  -30.5572  -12.4645   19.4201 C   0  0  0  0  0  0  0  0  0  0  0  0
  -28.7154  -13.1651   20.8986 C   0  0  0  0  0  0  0  0  0  0  0  0
  -34.7936  -19.4093   22.6780 C   0  0  0  0  0  0  0  0  0  0  0  0
  -26.1299  -23.6138   20.2771 C   0  0  1  0  0  0  0  0  0  0  0  0
  -28.9790  -25.3241   18.4356 C   0  0  1  0  0  0  0  0  0  0  0  0
  -27.7085  -13.1141   19.7380 C   0  0  2  0  0  0  0  0  0  0  0  0
  -27.7109  -17.3052   22.3813 C   0  0  0  0  0  0  0  0  0  0  0  0
  -33.6169  -25.7883   12.2487 C   0  0  0  0  0  0  0  0  0  0  0  0
  -30.6311  -18.3254   26.5295 C   0  0  0  0  0  0  0  0  0  0  0  0
  -29.4511  -20.5505   26.4830 C   0  0  0  0  0  0  0  0  0  0  0  0
  -29.1180  -21.9707   15.2582 C   0  0  0  0  0  0  0  0  0  0  0  0
  -30.8694  -22.2336   13.4885 C   0  0  0  0  0  0  0  0  0  0  0  0
  -28.8331  -23.6741   13.4494 C   0  0  0  0  0  0  0  0  0  0  0  0
  -33.9103  -27.8014   15.4639 C   0  0  0  0  0  0  0  0  0  0  0  0
  -28.7470  -17.0036   23.4587 C   0  0  0  0  0  0  0  0  0  0  0  0
  -34.6168  -21.7077   23.6522 C   0  0  0  0  0  0  0  0  0  0  0  0
  -33.9491  -23.0256   23.3128 C   0  0  0  0  0  0  0  0  0  1  0  0
  -30.6053  -24.0805   15.2061 C   0  0  1  0  0  0  0  0  0  0  0  0
  -33.1324  -26.3795   13.5635 C   0  0  2  0  0  0  0  0  0  0  0  0
  -30.4502  -19.6399   25.7844 C   0  0  0  0  0  0  0  0  0  0  0  0
  -29.8628  -22.9942   14.3779 C   0  0  0  0  0  0  0  0  0  0  0  0
  -25.8714  -11.5571   20.2693 N   0  0  0  0  0  0  0  0  0  0  0  0
  -26.2982  -12.8305   20.2204 N   0  0  0  0  0  0  0  0  0  0  0  0
  -32.0894  -16.9939   21.7938 N   0  3  0  0  0  0  0  0  0  0  0  0
  -29.9530  -24.7753   17.4899 N   0  0  0  0  0  0  0  0  0  0  0  0
  -30.0626  -13.4524   20.3815 N   0  0  0  0  0  0  0  0  0  0  0  0
  -25.6311  -15.0638   20.6428 N   0  0  0  0  0  0  0  0  0  0  0  0
  -21.9758  -12.6562   21.7558 N   0  0  0  0  0  0  0  0  0  0  0  0
  -29.9827  -19.3680   24.4634 N   0  0  0  0  0  0  0  0  0  0  0  0
  -30.2862  -15.4423   21.6274 N   0  0  0  0  0  0  0  0  0  0  0  0
  -27.0860  -24.5537   19.7322 N   0  0  0  0  0  0  0  0  0  0  0  0
  -31.2971  -25.0790   14.3980 N   0  0  0  0  0  0  0  0  0  0  0  0
  -33.8933  -20.5912   22.9548 N   0  3  2  0  0  0  0  0  0  0  0  0
  -34.2540  -27.1464   14.1756 N   0  3  0  0  0  0  0  0  0  0  0  0
  -22.8329  -14.7779   21.6045 O   0  0  0  0  0  0  0  0  0  0  0  0
  -28.3439  -23.0503   18.4752 O   0  0  0  0  0  0  0  0  0  0  0  0
  -28.7419  -25.4862   15.6286 O   0  0  0  0  0  0  0  0  0  0  0  0
  -33.4087  -24.6996   15.2778 O   0  0  0  0  0  0  0  0  0  0  0  0
  -31.9985  -14.7084   20.2451 O   0  0  0  0  0  0  0  0  0  0  0  0
  -21.4742   -7.1146   21.4847 O   0  0  0  0  0  0  0  0  0  0  0  0
  -33.9781  -23.2259   21.9002 O   0  0  0  0  0  0  0  0  0  1  0  0
  -18.5904   -6.7495   26.1702 F   0  0  0  0  0  0  0  0  0  0  0  0
  -21.8889   -5.0246   23.2462 F   0  0  0  0  0  0  0  0  0  0  0  0
  1  2  1  0  0  0  0
  1  5  2  0  0  0  0
  2  6  2  0  0  0  0
  3  8  2  0  0  0  0
  3 15  1  0  0  0  0
  4  9  1  0  0  0  0
  4 15  2  0  0  0  0
  5 17  1  0  0  0  0
  6 19  1  0  0  0  0
  7 10  2  0  0  0  0
  7 18  1  0  0  0  0
  8 24  1  0  0  0  0
  9 24  2  0  0  0  0
 10 25  1  0  0  0  0
 11 12  2  0  0  0  0
 11 26  1  0  0  0  0
 12 27  1  0  0  0  0
 13 20  1  0  0  0  0
 13 25  2  0  0  0  0
 14 27  2  0  0  0  0
 14 28  1  0  0  0  0
 15 29  1  0  0  0  0
 16 29  1  0  0  0  0
 16 31  2  0  0  0  0
 16 33  1  0  0  0  0
 17 19  2  0  0  0  0
 17 38  1  0  0  0  0
 18 20  2  0  0  0  0
 18 39  1  0  0  0  0
 19 50  1  0  0  0  0
 20 40  1  0  0  0  0
 21 23  1  0  0  0  0
 21 30  2  0  0  0  0
 21 41  1  0  0  0  0
 22 23  2  0  0  0  0
 22 32  1  0  0  0  0
 22 61  1  0  0  0  0
 23 75  1  0  0  0  0
 24 86  1  0  0  0  0
 25 87  1  0  0  0  0
 26 28  2  0  0  0  0
 26 86  1  0  0  0  0
 27 88  1  0  0  0  0
 28 89  1  0  0  0  0
 29 68  2  0  0  0  0
 30 42  1  0  0  0  0
 30 70  1  0  0  0  0
 31 69  1  0  0  0  0
 31 73  1  0  0  0  0
 32 70  2  0  0  0  0
 32 76  1  0  0  0  0
 33 74  1  0  0  0  0
 33 81  2  0  0  0  0
 34 51  1  0  0  0  0
 34 77  1  0  0  0  0
 34 82  2  0  0  0  0
 35 64  1  0  0  0  0
 35 71  1  0  0  0  0
 35 83  2  0  0  0  0
 36 65  1  0  0  0  0
 36 78  1  0  0  0  0
 36 84  2  0  0  0  0
 37 72  1  0  0  0  0
 37 76  1  0  0  0  0
 37 85  2  0  0  0  0
 38 43  1  0  0  0  0
 39 51  1  0  0  0  0
 40 71  1  0  0  0  0
 41 79  1  0  0  0  0
 42 49  1  0  0  0  0
 43 45  1  0  0  0  0
 44 46  1  0  0  0  0
 44 47  1  0  0  0  0
 45 50  1  0  0  0  0
 46 52  1  0  0  0  0
 47 72  1  0  0  0  0
 48 52  1  0  0  0  0
 48 72  1  0  0  0  0
 49 79  1  0  0  0  0
 50 77  1  0  0  0  0
 51 71  1  0  0  0  0
 52 69  1  0  0  0  0
 53 61  1  0  0  0  0
 54 65  1  0  0  0  0
 55 66  1  0  0  0  0
 56 66  1  0  0  0  0
 57 67  1  0  0  0  0
 58 67  1  0  0  0  0
 59 67  1  0  0  0  0
 60 80  1  0  0  0  0
 62 63  1  0  0  0  0
 62 79  1  0  0  0  0
 63 87  1  0  0  0  0
 64 67  1  0  0  0  0
 64 78  1  0  0  0  0
 65 80  1  0  0  0  0
 66 75  1  0  0  0  0
 68 69  1  0  0  0  0
M  CHG  3  70   1  79   1  80   1
M  ISO  4  37 100  63 101  76 100  87 101
M  END
> <Batch ID>
0134

> <Smiles>
CCc1c([100NH:0][100C:0](=O)N2CCCC(n3nc(-c4ccc(Oc5ccc(F)cc5F)cc4)c(C(N)=O)c3N)C2)nc2c(c1NC(C)C)CN(C[101CH2:1][101O:1]c1ccc3c(c1)CN(C(=O)C(NC(=O)C(C)NC)C(C)(C)C)C(C(=O)NC1CCCc4ccccc41)C3)CC2

> <Shape>
0.215

> <Color>
0.179

> <Negative vol penalty>
0.000

$$$$

  -OEChem-04052320573D

 86 95  0     1  0  0  0  0  0999 V2000
  -33.6985  -13.1855   19.4067 C   0  0  0  0  0  0  0  0  0  0  0  0
  -32.7960  -14.2381   19.5204 C   0  0  0  0  0  0  0  0  0  0  0  0
  -21.3752  -28.9319   20.6283 C   0  0  0  0  0  0  0  0  0  0  0  0
  -22.4697  -27.5899   22.3130 C   0  0  0  0  0  0  0  0  0  0  0  0
  -33.2529  -11.9268   19.0054 C   0  0  0  0  0  0  0  0  0  0  0  0
  -31.4473  -14.0328   19.2316 C   0  0  0  0  0  0  0  0  0  0  0  0
  -28.3826  -16.1207   22.6802 C   0  0  0  0  0  0  0  0  0  0  0  0
  -29.9099  -23.7919   21.8340 C   0  0  0  0  0  0  0  0  0  0  0  0
  -28.7037  -24.3738   19.8232 C   0  0  0  0  0  0  0  0  0  0  0  0
  -28.8271  -23.0233   22.2611 C   0  0  0  0  0  0  0  0  0  0  0  0
  -27.6209  -23.6052   20.2502 C   0  0  0  0  0  0  0  0  0  0  0  0
  -20.2328  -28.1394   20.7392 C   0  0  0  0  0  0  0  0  0  0  0  0
  -21.3272  -26.7975   22.4240 C   0  0  0  0  0  0  0  0  0  0  0  0
  -28.1820  -17.4982   22.6030 C   0  0  0  0  0  0  0  0  0  0  0  0
  -18.5708  -24.6419   23.4107 C   0  0  0  0  0  0  0  0  0  0  0  0
  -18.1278  -24.3172   24.6928 C   0  0  0  0  0  0  0  0  0  0  0  0
  -26.0718  -17.1228   21.4960 C   0  0  0  0  0  0  0  0  0  0  0  0
  -17.8529  -26.6650   25.1924 C   0  0  0  0  0  0  0  0  0  0  0  0
  -22.4938  -28.6571   21.4151 C   0  0  0  0  0  0  0  0  0  0  0  0
  -23.9763  -30.6393   22.0321 C   0  0  0  0  0  0  0  0  0  0  0  0
  -31.8965  -11.7036   18.7209 C   0  0  0  0  0  0  0  0  0  0  0  0
  -27.4328  -15.2326   22.1553 C   0  0  0  0  0  0  0  0  0  0  0  0
  -30.9833  -12.7703   18.8248 C   0  0  0  0  0  0  0  0  0  0  0  0
  -26.2615  -15.7344   21.5701 C   0  0  0  0  0  0  0  0  0  0  0  0
  -29.8482  -24.4672   20.6151 C   0  0  0  0  0  0  0  0  0  0  0  0
  -27.6826  -22.9299   21.4692 C   0  0  0  0  0  0  0  0  0  0  0  0
  -20.2087  -27.0722   21.6371 C   0  0  0  0  0  0  0  0  0  0  0  0
  -27.0279  -17.9995   22.0082 C   0  0  0  0  0  0  0  0  0  0  0  0
  -18.6548  -25.9781   23.0193 C   0  0  0  0  0  0  0  0  0  0  0  0
  -17.7689  -25.3287   25.5837 C   0  0  0  0  0  0  0  0  0  0  0  0
  -18.2959  -26.9897   23.9102 C   0  0  0  0  0  0  0  0  0  0  0  0
  -23.6744  -29.4751   21.3006 C   0  0  0  0  0  0  0  0  0  0  0  0
  -25.2011  -31.0371   21.5544 C   0  0  0  0  0  0  0  0  0  0  0  0
  -23.2175  -31.3020   23.0523 C   0  0  0  0  0  0  0  0  0  0  0  0
  -27.4466  -13.0313   19.8623 C   0  0  0  0  0  0  0  0  0  0  0  0
  -24.4651  -12.4100   20.9790 C   0  0  0  0  0  0  0  0  0  0  0  0
  -21.7017  -13.5293   22.6396 C   0  0  0  0  0  0  0  0  0  0  0  0
  -29.7079  -28.0921   18.9340 C   0  0  0  0  0  0  0  0  0  0  0  0
  -31.4698  -10.3376   18.2450 C   0  0  0  0  0  0  0  0  0  0  0  0
  -27.6514  -13.7489   22.2705 C   0  0  0  0  0  0  0  0  0  0  0  0
  -25.2016  -14.8229   21.0097 C   0  0  0  0  0  0  0  0  0  0  0  0
  -29.9621  -10.1101   18.3193 C   0  0  0  0  0  0  0  0  0  0  0  0
  -27.9181  -30.8753   17.6196 C   0  0  0  0  0  0  0  0  0  0  0  0
  -29.2126  -11.3073   17.7431 C   0  0  0  0  0  0  0  0  0  0  0  0
  -23.6973  -23.2683   23.2863 C   0  0  0  0  0  0  0  0  0  0  0  0
  -22.9461  -22.3438   24.2032 C   0  0  0  0  0  0  0  0  0  0  0  0
  -26.6548  -30.9370   18.4800 C   0  0  0  0  0  0  0  0  0  0  0  0
  -28.3509  -29.4349   17.3553 C   0  0  0  0  0  0  0  0  0  0  0  0
  -27.2535  -28.6681   19.4244 C   0  0  0  0  0  0  0  0  0  0  0  0
  -29.5083  -12.5809   18.5443 C   0  0  1  0  0  0  0  0  0  0  0  0
  -26.8592  -12.9466   21.2427 C   0  0  1  0  0  0  0  0  0  0  0  0
  -24.4481  -22.2967   24.1540 C   0  0  0  0  0  0  0  0  0  0  0  0
  -26.8098  -30.1011   19.7647 C   0  0  2  0  0  0  0  0  0  0  0  0
  -19.4099  -12.8059   23.3618 C   0  0  0  0  0  0  0  0  0  0  0  0
  -23.4579  -12.7548   18.1195 C   0  0  0  0  0  0  0  0  0  0  0  0
  -21.1382  -12.9694   19.0365 C   0  0  0  0  0  0  0  0  0  0  0  0
  -22.4184  -10.8546   19.3697 C   0  0  0  0  0  0  0  0  0  0  0  0
  -22.3599  -13.8996   25.5012 C   0  0  0  0  0  0  0  0  0  0  0  0
  -31.0052  -25.2895   20.1578 C   0  0  0  0  0  0  0  0  0  0  0  0
  -25.1473  -21.1186   23.5406 C   0  0  0  0  0  0  0  0  0  0  0  0
  -30.9408  -26.7506   20.6189 C   0  0  0  0  0  0  0  0  0  0  0  0
  -27.4023  -20.1449   22.9638 C   0  0  0  0  0  0  0  0  0  1  0  0
  -23.0790  -12.9210   20.6680 C   0  0  1  0  0  0  0  0  0  0  0  0
  -20.8758  -12.9102   23.7527 C   0  0  2  0  0  0  0  0  0  0  0  0
  -26.5951  -21.4316   23.1420 C   0  0  1  0  0  0  0  0  0  0  0  0
  -22.5441  -12.3924   19.3071 C   0  0  0  0  0  0  0  0  0  0  0  0
  -24.6303  -29.1541   20.4246 N   0  0  0  0  0  0  0  0  0  0  0  0
  -25.5448  -30.1227   20.6026 N   0  0  0  0  0  0  0  0  0  0  0  0
  -25.4643  -13.3802   21.1405 N   0  0  0  0  0  0  0  0  0  0  0  0
  -28.4812  -28.6972   18.6142 N   0  0  0  0  0  0  0  0  0  0  0  0
  -26.0067  -32.0763   21.8599 N   0  0  0  0  0  0  0  0  0  0  0  0
  -21.9796  -30.7592   23.4231 N   0  0  0  0  0  0  0  0  0  0  0  0
  -26.6106  -22.1672   21.8910 N   0  0  0  0  0  0  0  0  0  0  0  0
  -28.7529  -12.5884   19.7786 N   0  0  0  0  0  0  0  0  0  0  0  0
  -22.2476  -12.5693   21.8141 N   0  0  0  0  0  0  0  0  0  0  0  0
  -29.7477  -27.4183   20.1485 N   0  0  0  0  0  0  0  0  0  0  0  0
  -20.9747  -13.7339   24.9907 N   0  3  0  0  0  0  0  0  0  0  0  0
  -23.6175  -32.3537   23.6067 O   0  0  0  0  0  0  0  0  0  0  0  0
  -26.7647  -13.4648   18.9411 O   0  0  0  0  0  0  0  0  0  0  0  0
  -24.6528  -11.1952   21.0821 O   0  0  0  0  0  0  0  0  0  0  0  0
  -21.8450  -14.7434   22.5128 O   0  0  0  0  0  0  0  0  0  0  0  0
  -30.6961  -28.1528   18.1945 O   0  0  0  0  0  0  0  0  0  0  0  0
  -19.0940  -26.2988   21.7458 O   0  0  0  0  0  0  0  0  0  0  0  0
  -26.8300  -19.3437   21.9309 O   0  0  0  0  0  0  0  0  0  1  0  0
  -17.3421  -25.0167   26.8144 F   0  0  0  0  0  0  0  0  0  0  0  0
  -18.3734  -28.2751   23.5395 F   0  0  0  0  0  0  0  0  0  0  0  0
  1  2  1  0  0  0  0
  1  5  2  0  0  0  0
  2  6  2  0  0  0  0
  3 12  2  0  0  0  0
  3 19  1  0  0  0  0
  4 13  1  0  0  0  0
  4 19  2  0  0  0  0
  5 21  1  0  0  0  0
  6 23  1  0  0  0  0
  7 14  2  0  0  0  0
  7 22  1  0  0  0  0
  8 10  2  0  0  0  0
  8 25  1  0  0  0  0
  9 11  1  0  0  0  0
  9 25  2  0  0  0  0
 10 26  1  0  0  0  0
 11 26  2  0  0  0  0
 12 27  1  0  0  0  0
 13 27  2  0  0  0  0
 14 28  1  0  0  0  0
 15 16  2  0  0  0  0
 15 29  1  0  0  0  0
 16 30  1  0  0  0  0
 17 24  1  0  0  0  0
 17 28  2  0  0  0  0
 18 30  2  0  0  0  0
 18 31  1  0  0  0  0
 19 32  1  0  0  0  0
 20 32  1  0  0  0  0
 20 33  2  0  0  0  0
 20 34  1  0  0  0  0
 21 23  2  0  0  0  0
 21 39  1  0  0  0  0
 22 24  2  0  0  0  0
 22 40  1  0  0  0  0
 23 50  1  0  0  0  0
 24 41  1  0  0  0  0
 25 59  1  0  0  0  0
 26 73  1  0  0  0  0
 27 83  1  0  0  0  0
 28 84  1  0  0  0  0
 29 31  2  0  0  0  0
 29 83  1  0  0  0  0
 30 85  1  0  0  0  0
 31 86  1  0  0  0  0
 32 67  2  0  0  0  0
 33 68  1  0  0  0  0
 33 71  1  0  0  0  0
 34 72  1  0  0  0  0
 34 78  2  0  0  0  0
 35 51  1  0  0  0  0
 35 74  1  0  0  0  0
 35 79  2  0  0  0  0
 36 63  1  0  0  0  0
 36 69  1  0  0  0  0
 36 80  2  0  0  0  0
 37 64  1  0  0  0  0
 37 75  1  0  0  0  0
 37 81  2  0  0  0  0
 38 70  1  0  0  0  0
 38 76  1  0  0  0  0
 38 82  2  0  0  0  0
 39 42  1  0  0  0  0
 40 51  1  0  0  0  0
 41 69  1  0  0  0  0
 42 44  1  0  0  0  0
 43 47  1  0  0  0  0
 43 48  1  0  0  0  0
 44 50  1  0  0  0  0
 45 46  1  0  0  0  0
 45 52  1  0  0  0  0
 46 52  1  0  0  0  0
 47 53  1  0  0  0  0
 48 70  1  0  0  0  0
 49 53  1  0  0  0  0
 49 70  1  0  0  0  0
 50 74  1  0  0  0  0
 51 69  1  0  0  0  0
 52 60  1  0  0  0  0
 53 68  1  0  0  0  0
 54 64  1  0  0  0  0
 55 66  1  0  0  0  0
 56 66  1  0  0  0  0
 57 66  1  0  0  0  0
 58 77  1  0  0  0  0
 59 61  1  0  0  0  0
 60 65  1  0  0  0  0
 61 76  1  0  0  0  0
 62 65  1  0  0  0  0
 62 84  1  0  0  0  0
 63 66  1  0  0  0  0
 63 75  1  0  0  0  0
 64 77  1  0  0  0  0
 65 73  1  0  0  0  0
 67 68  1  0  0  0  0
M  CHG  1  77   1
M  ISO  4  38 100  62 101  76 100  84 101
M  END
> <Batch ID>
0134

> <Smiles>
CNC(C)C(=O)NC(C(=O)N1Cc2cc([101O:1][101CH2:1]C(CC3CC3)Nc3ccc(CC[100NH:0][100C:0](=O)N4CCCC(n5nc(-c6ccc(Oc7ccc(F)cc7F)cc6)c(C(N)=O)c5N)C4)cc3)ccc2CC1C(=O)NC1CCCc2ccccc21)C(C)(C)C

> <Shape>
0.258

> <Color>
0.057

> <Negative vol penalty>
0.000

$$$$

  -OEChem-04052320573D

 85 94  0     1  0  0  0  0  0999 V2000
  -30.0656  -35.7900   23.5930 C   0  0  0  0  0  0  0  0  0  0  0  0
  -30.2891  -34.6670   22.8028 C   0  0  0  0  0  0  0  0  0  0  0  0
  -22.8602  -10.3542   20.0844 C   0  0  0  0  0  0  0  0  0  0  0  0
  -24.0715   -9.5360   22.0080 C   0  0  0  0  0  0  0  0  0  0  0  0
  -29.0383  -35.7844   24.5357 C   0  0  0  0  0  0  0  0  0  0  0  0
  -29.4861  -33.5373   22.9557 C   0  0  0  0  0  0  0  0  0  0  0  0
  -29.2474  -21.2819   21.2675 C   0  0  0  0  0  0  0  0  0  0  0  0
  -26.6718  -28.1364   19.1838 C   0  0  0  0  0  0  0  0  0  0  0  0
  -29.8531  -20.0587   21.5469 C   0  0  0  0  0  0  0  0  0  0  0  0
  -22.0784   -9.1991   20.0854 C   0  0  0  0  0  0  0  0  0  0  0  0
  -23.2896   -8.3808   22.0091 C   0  0  0  0  0  0  0  0  0  0  0  0
  -26.5842  -26.7450   19.1959 C   0  0  0  0  0  0  0  0  0  0  0  0
  -23.1463   -5.4679   20.2987 C   0  0  0  0  0  0  0  0  0  0  0  0
  -23.7968   -4.2452   20.4644 C   0  0  0  0  0  0  0  0  0  0  0  0
  -24.7887  -26.8781   20.8013 C   0  0  0  0  0  0  0  0  0  0  0  0
  -27.8166  -19.2970   22.5970 C   0  0  0  0  0  0  0  0  0  0  0  0
  -22.5055   -3.8293   22.4636 C   0  0  0  0  0  0  0  0  0  0  0  0
  -23.8568  -10.5226   21.0457 C   0  0  0  0  0  0  0  0  0  0  0  0
  -24.4027  -12.9207   21.7231 C   0  0  0  0  0  0  0  0  0  0  0  0
  -28.2162  -34.6575   24.6935 C   0  0  0  0  0  0  0  0  0  0  0  0
  -25.8244  -28.9100   19.9900 C   0  0  0  0  0  0  0  0  0  0  0  0
  -28.4477  -33.5161   23.9023 C   0  0  0  0  0  0  0  0  0  0  0  0
  -27.9172  -21.5169   21.6441 C   0  0  0  0  0  0  0  0  0  0  0  0
  -24.8658  -28.2792   20.7957 C   0  0  0  0  0  0  0  0  0  0  0  0
  -27.1942  -20.5269   22.3377 C   0  0  0  0  0  0  0  0  0  0  0  0
  -29.1367  -19.0651   22.2074 C   0  0  0  0  0  0  0  0  0  0  0  0
  -22.2930   -8.2124   21.0477 C   0  0  0  0  0  0  0  0  0  0  0  0
  -25.6445  -26.1155   20.0069 C   0  0  0  0  0  0  0  0  0  0  0  0
  -22.1755   -5.8714   21.2155 C   0  0  0  0  0  0  0  0  0  0  0  0
  -23.4764   -3.4259   21.5469 C   0  0  0  0  0  0  0  0  0  0  0  0
  -21.8551   -5.0521   22.2979 C   0  0  0  0  0  0  0  0  0  0  0  0
  -24.6652  -11.7153   21.0449 C   0  0  0  0  0  0  0  0  0  0  0  0
  -25.4627  -13.7331   21.4023 C   0  0  0  0  0  0  0  0  0  0  0  0
  -23.2994  -13.2743   22.5677 C   0  0  0  0  0  0  0  0  0  0  0  0
  -26.2576  -30.9576   22.3823 C   0  0  0  0  0  0  0  0  0  0  0  0
  -23.0604  -31.4034   22.0637 C   0  0  0  0  0  0  0  0  0  0  0  0
  -20.0522  -30.1695   21.0269 C   0  0  0  0  0  0  0  0  0  0  0  0
  -30.9395  -14.5334   20.6886 C   0  0  0  0  0  0  0  0  0  0  0  0
  -27.1485  -34.6812   25.7585 C   0  0  0  0  0  0  0  0  0  0  0  0
  -25.9135  -30.4108   19.9454 C   0  0  0  0  0  0  0  0  0  0  0  0
  -27.2805  -22.8516   21.3426 C   0  0  0  0  0  0  0  0  0  0  0  0
  -23.9190  -29.0649   21.6645 C   0  0  0  0  0  0  0  0  0  0  0  0
  -26.1035  -33.5801   25.5980 C   0  0  0  0  0  0  0  0  0  0  0  0
  -29.1175  -13.1677   17.9514 C   0  0  0  0  0  0  0  0  0  0  0  0
  -26.7783  -32.2393   25.3265 C   0  0  0  0  0  0  0  0  0  0  0  0
  -27.7783  -12.7621   18.5694 C   0  0  0  0  0  0  0  0  0  0  0  0
  -30.2780  -12.9342   18.9161 C   0  0  0  0  0  0  0  0  0  0  0  0
  -25.2717  -22.0456   22.6166 C   0  0  0  0  0  0  0  0  0  0  0  0
  -28.7784  -13.1560   20.8592 C   0  0  0  0  0  0  0  0  0  0  0  0
  -27.5822  -32.2805   24.0213 C   0  0  1  0  0  0  0  0  0  0  0  0
  -25.3468  -31.0804   21.1935 C   0  0  1  0  0  0  0  0  0  0  0  0
  -25.7472  -22.7588   21.3465 C   0  0  1  0  0  0  0  0  0  0  0  0
  -27.5715  -13.4254   19.9444 C   0  0  2  0  0  0  0  0  0  0  0  0
  -17.6122  -30.7483   20.9336 C   0  0  0  0  0  0  0  0  0  0  0  0
  -22.8058  -30.8001   25.0439 C   0  0  0  0  0  0  0  0  0  0  0  0
  -20.3509  -30.4557   24.6933 C   0  0  0  0  0  0  0  0  0  0  0  0
  -21.3739  -32.6841   24.2349 C   0  0  0  0  0  0  0  0  0  0  0  0
  -20.0141  -30.0334   18.0708 C   0  0  0  0  0  0  0  0  0  0  0  0
  -25.1215  -24.1474   21.2352 C   0  0  0  0  0  0  0  0  0  1  0  0
  -31.0938  -17.5199   22.1172 C   0  0  0  0  0  0  0  0  0  0  0  0
  -31.4595  -16.1046   22.5379 C   0  0  0  0  0  0  0  0  0  0  0  0
  -21.8276  -30.7633   22.6548 C   0  0  1  0  0  0  0  0  0  0  0  0
  -18.9419  -30.7880   20.1967 C   0  0  2  0  0  0  0  0  0  0  0  0
  -21.6085  -31.1606   24.1419 C   0  0  0  0  0  0  0  0  0  0  0  0
  -25.8027  -11.7542   20.3458 N   0  0  0  0  0  0  0  0  0  0  0  0
  -26.2642  -12.9939   20.5830 N   0  0  0  0  0  0  0  0  0  0  0  0
  -25.8756  -20.7309   22.7225 N   0  0  0  0  0  0  0  0  0  0  0  0
  -24.0496  -30.5295   21.5909 N   0  0  0  0  0  0  0  0  0  0  0  0
  -30.0201  -13.5904   20.2002 N   0  0  0  0  0  0  0  0  0  0  0  0
  -25.7779  -15.0005   21.7438 N   0  0  0  0  0  0  0  0  0  0  0  0
  -22.2972  -12.3206   22.7921 N   0  0  0  0  0  0  0  0  0  0  0  0
  -29.7457  -17.8233   22.4855 N   0  0  0  0  0  0  0  0  0  0  0  0
  -26.6992  -32.1686   22.8801 N   0  0  0  0  0  0  0  0  0  0  0  0
  -20.7209  -31.1173   21.7725 N   0  0  0  0  0  0  0  0  0  0  0  0
  -30.6158  -15.1127   21.9094 N   0  0  0  0  0  0  0  0  0  0  0  0
  -18.7877  -30.0539   18.9090 N   0  3  0  0  0  0  0  0  0  0  0  0
  -23.1967  -14.4083   23.0941 O   0  0  0  0  0  0  0  0  0  0  0  0
  -26.5377  -29.8465   22.8167 O   0  0  0  0  0  0  0  0  0  0  0  0
  -23.1396  -32.6335   22.0167 O   0  0  0  0  0  0  0  0  0  0  0  0
  -20.2990  -28.9656   21.0180 O   0  0  0  0  0  0  0  0  0  0  0  0
  -31.9696  -14.8405   20.0791 O   0  0  0  0  0  0  0  0  0  0  0  0
  -21.5301   -7.0852   21.0491 O   0  0  0  0  0  0  0  0  0  0  0  0
  -25.5573  -24.7576   20.0211 O   0  0  0  0  0  0  0  0  0  1  0  0
  -24.1000   -2.2511   21.7050 F   0  0  0  0  0  0  0  0  0  0  0  0
  -20.9225   -5.4337   23.1812 F   0  0  0  0  0  0  0  0  0  0  0  0
  1  2  1  0  0  0  0
  1  5  2  0  0  0  0
  2  6  2  0  0  0  0
  3 10  2  0  0  0  0
  3 18  1  0  0  0  0
  4 11  1  0  0  0  0
  4 18  2  0  0  0  0
  5 20  1  0  0  0  0
  6 22  1  0  0  0  0
  7  9  2  0  0  0  0
  7 23  1  0  0  0  0
  8 12  2  0  0  0  0
  8 21  1  0  0  0  0
  9 26  1  0  0  0  0
 10 27  1  0  0  0  0
 11 27  2  0  0  0  0
 12 28  1  0  0  0  0
 13 14  2  0  0  0  0
 13 29  1  0  0  0  0
 14 30  1  0  0  0  0
 15 24  1  0  0  0  0
 15 28  2  0  0  0  0
 16 25  1  0  0  0  0
 16 26  2  0  0  0  0
 17 30  2  0  0  0  0
 17 31  1  0  0  0  0
 18 32  1  0  0  0  0
 19 32  1  0  0  0  0
 19 33  2  0  0  0  0
 19 34  1  0  0  0  0
 20 22  2  0  0  0  0
 20 39  1  0  0  0  0
 21 24  2  0  0  0  0
 21 40  1  0  0  0  0
 22 50  1  0  0  0  0
 23 25  2  0  0  0  0
 23 41  1  0  0  0  0
 24 42  1  0  0  0  0
 25 67  1  0  0  0  0
 26 72  1  0  0  0  0
 27 82  1  0  0  0  0
 28 83  1  0  0  0  0
 29 31  2  0  0  0  0
 29 82  1  0  0  0  0
 30 84  1  0  0  0  0
 31 85  1  0  0  0  0
 32 65  2  0  0  0  0
 33 66  1  0  0  0  0
 33 70  1  0  0  0  0
 34 71  1  0  0  0  0
 34 77  2  0  0  0  0
 35 51  1  0  0  0  0
 35 73  1  0  0  0  0
 35 78  2  0  0  0  0
 36 62  1  0  0  0  0
 36 68  1  0  0  0  0
 36 79  2  0  0  0  0
 37 63  1  0  0  0  0
 37 74  1  0  0  0  0
 37 80  2  0  0  0  0
 38 69  1  0  0  0  0
 38 75  1  0  0  0  0
 38 81  2  0  0  0  0
 39 43  1  0  0  0  0
 40 51  1  0  0  0  0
 41 52  1  0  0  0  0
 42 68  1  0  0  0  0
 43 45  1  0  0  0  0
 44 46  1  0  0  0  0
 44 47  1  0  0  0  0
 45 50  1  0  0  0  0
 46 53  1  0  0  0  0
 47 69  1  0  0  0  0
 48 52  1  0  0  0  0
 48 67  1  0  0  0  0
 49 53  1  0  0  0  0
 49 69  1  0  0  0  0
 50 73  1  0  0  0  0
 51 68  1  0  0  0  0
 52 59  1  0  0  0  0
 53 66  1  0  0  0  0
 54 63  1  0  0  0  0
 55 64  1  0  0  0  0
 56 64  1  0  0  0  0
 57 64  1  0  0  0  0
 58 76  1  0  0  0  0
 59 83  1  0  0  0  0
 60 61  1  0  0  0  0
 60 72  1  0  0  0  0
 61 75  1  0  0  0  0
 62 64  1  0  0  0  0
 62 74  1  0  0  0  0
 63 76  1  0  0  0  0
 65 66  1  0  0  0  0
M  CHG  1  76   1
M  ISO  4  38 100  59 101  75 100  83 101
M  END
> <Batch ID>
0134

> <Smiles>
CNC(C)C(=O)NC(C(=O)N1Cc2cc([101O:1][101CH2:1]C3CNc4cc(NCC[100NH:0][100C:0](=O)N5CCCC(n6nc(-c7ccc(Oc8ccc(F)cc8F)cc7)c(C(N)=O)c6N)C5)ccc4C3)ccc2CC1C(=O)NC1CCCc2ccccc21)C(C)(C)C

> <Shape>
0.316

> <Color>
0.149

> <Negative vol penalty>
0.000

$$$$

  -OEChem-04052320573D

 87 96  0     1  0  0  0  0  0999 V2000
  -27.8511  -37.6229   22.6711 C   0  0  0  0  0  0  0  0  0  0  0  0
  -28.3107  -36.4406   22.0997 C   0  0  0  0  0  0  0  0  0  0  0  0
  -22.6544  -11.7472   22.3332 C   0  0  0  0  0  0  0  0  0  0  0  0
  -23.6096  -13.8498   23.0429 C   0  0  0  0  0  0  0  0  0  0  0  0
  -26.9334  -37.5782   23.7198 C   0  0  0  0  0  0  0  0  0  0  0  0
  -27.8537  -35.2129   22.5775 C   0  0  0  0  0  0  0  0  0  0  0  0
  -26.8580  -30.1302   19.3094 C   0  0  0  0  0  0  0  0  0  0  0  0
  -21.8172  -11.7509   23.4488 C   0  0  0  0  0  0  0  0  0  0  0  0
  -22.7723  -13.8536   24.1586 C   0  0  0  0  0  0  0  0  0  0  0  0
  -27.6237  -28.9839   19.1012 C   0  0  0  0  0  0  0  0  0  0  0  0
  -18.9403  -13.2519   24.3992 C   0  0  0  0  0  0  0  0  0  0  0  0
  -17.5983  -12.9258   24.2037 C   0  0  0  0  0  0  0  0  0  0  0  0
  -26.4193  -27.8660   20.8673 C   0  0  0  0  0  0  0  0  0  0  0  0
  -28.6154  -23.7570   18.9970 C   0  0  0  0  0  0  0  0  0  0  0  0
  -29.8883  -24.1927   21.0037 C   0  0  0  0  0  0  0  0  0  0  0  0
  -17.8299  -11.0614   25.7227 C   0  0  0  0  0  0  0  0  0  0  0  0
  -23.5507  -12.7966   22.1303 C   0  0  0  0  0  0  0  0  0  0  0  0
  -24.0297  -12.7811   19.6247 C   0  0  0  0  0  0  0  0  0  0  0  0
  -26.4575  -36.3496   24.2043 C   0  0  0  0  0  0  0  0  0  0  0  0
  -25.8729  -30.1567   20.3071 C   0  0  0  0  0  0  0  0  0  0  0  0
  -26.9298  -35.1517   23.6346 C   0  0  0  0  0  0  0  0  0  0  0  0
  -25.6407  -29.0131   21.0844 C   0  0  0  0  0  0  0  0  0  0  0  0
  -28.8156  -24.4937   20.1644 C   0  0  0  0  0  0  0  0  0  0  0  0
  -29.4878  -22.7192   18.6690 C   0  0  0  0  0  0  0  0  0  0  0  0
  -30.7608  -23.1550   20.6757 C   0  0  0  0  0  0  0  0  0  0  0  0
  -30.5605  -22.4183   19.5083 C   0  0  0  0  0  0  0  0  0  0  0  0
  -21.8761  -12.8041   24.3615 C   0  0  0  0  0  0  0  0  0  0  0  0
  -27.4064  -27.8525   19.8821 C   0  0  0  0  0  0  0  0  0  0  0  0
  -19.7272  -12.4827   25.2565 C   0  0  0  0  0  0  0  0  0  0  0  0
  -17.0431  -11.8306   24.8654 C   0  0  0  0  0  0  0  0  0  0  0  0
  -19.1720  -11.3875   25.9182 C   0  0  0  0  0  0  0  0  0  0  0  0
  -24.4162  -12.7930   20.9783 C   0  0  0  0  0  0  0  0  0  0  0  0
  -25.2142  -12.7827   18.9294 C   0  0  0  0  0  0  0  0  0  0  0  0
  -22.7173  -12.7696   19.0474 C   0  0  0  0  0  0  0  0  0  0  0  0
  -25.4041  -31.8565   22.9518 C   0  0  0  0  0  0  0  0  0  0  0  0
  -22.5808  -30.2601   23.0107 C   0  0  0  0  0  0  0  0  0  0  0  0
  -20.7849  -27.5145   22.0709 C   0  0  0  0  0  0  0  0  0  0  0  0
  -30.7330  -14.6712   20.2812 C   0  0  0  0  0  0  0  0  0  0  0  0
  -25.5019  -36.3504   25.3711 C   0  0  0  0  0  0  0  0  0  0  0  0
  -25.0373  -31.3922   20.5011 C   0  0  0  0  0  0  0  0  0  0  0  0
  -24.5815  -28.9834   22.1548 C   0  0  0  0  0  0  0  0  0  0  0  0
  -24.7823  -35.0189   25.5699 C   0  0  0  0  0  0  0  0  0  0  0  0
  -29.7751  -11.3856   19.2994 C   0  0  0  0  0  0  0  0  0  0  0  0
  -25.7711  -33.8603   25.4880 C   0  0  0  0  0  0  0  0  0  0  0  0
  -28.2582  -11.3727   19.4962 C   0  0  0  0  0  0  0  0  0  0  0  0
  -30.8782  -17.5552   18.7286 C   0  0  0  0  0  0  0  0  0  0  0  0
  -30.2003  -18.2491   21.0563 C   0  0  0  0  0  0  0  0  0  0  0  0
  -30.4770  -12.2092   20.3769 C   0  0  0  0  0  0  0  0  0  0  0  0
  -28.4547  -13.5731   20.7283 C   0  0  0  0  0  0  0  0  0  0  0  0
  -31.5863  -18.8910   18.5435 C   0  0  0  0  0  0  0  0  0  0  0  0
  -30.9106  -19.5819   20.8590 C   0  0  0  0  0  0  0  0  0  0  0  0
  -26.4387  -33.8012   24.1088 C   0  0  1  0  0  0  0  0  0  0  0  0
  -24.4110  -31.4780   21.8896 C   0  0  1  0  0  0  0  0  0  0  0  0
  -27.6984  -12.8013   19.6335 C   0  0  2  0  0  0  0  0  0  0  0  0
  -30.8254  -17.1469   20.2011 C   0  0  0  0  0  0  0  0  0  0  0  0
  -29.2520  -21.9463   17.4125 C   0  0  0  0  0  0  0  0  0  0  0  0
  -31.9019  -22.8527   21.5912 C   0  0  0  0  0  0  0  0  0  0  0  0
  -18.5137  -26.4725   22.3021 C   0  0  0  0  0  0  0  0  0  0  0  0
  -23.2619  -29.4140   25.8620 C   0  0  0  0  0  0  0  0  0  0  0  0
  -21.4863  -27.6572   25.6905 C   0  0  0  0  0  0  0  0  0  0  0  0
  -20.8739  -30.0687   25.5103 C   0  0  0  0  0  0  0  0  0  0  0  0
  -20.3213  -27.5985   19.1491 C   0  0  0  0  0  0  0  0  0  0  0  0
  -31.4960  -21.3058   19.1560 C   0  0  0  0  0  0  0  0  0  0  0  0
  -27.8768  -25.6096   20.5177 C   0  0  0  0  0  0  0  0  0  1  0  0
  -22.1023  -28.9558   23.6012 C   0  0  1  0  0  0  0  0  0  0  0  0
  -19.4018  -27.3761   21.4608 C   0  0  2  0  0  0  0  0  0  0  0  0
  -21.9525  -29.0248   25.1472 C   0  0  0  0  0  0  0  0  0  0  0  0
  -25.7425  -12.8015   21.1358 N   0  0  0  0  0  0  0  0  0  0  0  0
  -26.1998  -12.7947   19.8721 N   0  0  0  0  0  0  0  0  0  0  0  0
  -23.7949  -30.2181   22.3106 N   0  0  0  0  0  0  0  0  0  0  0  0
  -29.9002  -13.5535   20.4548 N   0  0  0  0  0  0  0  0  0  0  0  0
  -25.4985  -12.7750   17.6097 N   0  0  0  0  0  0  0  0  0  0  0  0
  -22.0989  -13.9962   18.7695 N   0  0  0  0  0  0  0  0  0  0  0  0
  -25.5387  -33.2193   23.1362 N   0  0  0  0  0  0  0  0  0  0  0  0
  -20.8711  -28.6159   22.8961 N   0  0  0  0  0  0  0  0  0  0  0  0
  -30.1050  -15.9079   20.3640 N   0  0  0  0  0  0  0  0  0  0  0  0
  -30.9105  -19.9408   19.3925 N   0  3  0  0  0  0  0  0  0  0  0  0
  -19.4957  -26.7986   20.0902 N   0  3  0  0  0  0  0  0  0  0  0  0
  -22.1044  -11.7033   18.8010 O   0  0  0  0  0  0  0  0  0  0  0  0
  -26.0026  -30.9771   23.5602 O   0  0  0  0  0  0  0  0  0  0  0  0
  -21.8989  -31.2773   23.1588 O   0  0  0  0  0  0  0  0  0  0  0  0
  -21.6964  -26.7227   21.8416 O   0  0  0  0  0  0  0  0  0  0  0  0
  -31.9454  -14.5741   20.0630 O   0  0  0  0  0  0  0  0  0  0  0  0
  -21.0592  -12.8082   25.4501 O   0  0  0  0  0  0  0  0  0  0  0  0
  -28.1528  -26.7325   19.6815 O   0  0  0  0  0  0  0  0  0  1  0  0
  -15.7539  -11.5185   24.6788 F   0  0  0  0  0  0  0  0  0  0  0  0
  -19.9227  -10.6455   26.7439 F   0  0  0  0  0  0  0  0  0  0  0  0
  1  2  1  0  0  0  0
  1  5  2  0  0  0  0
  2  6  2  0  0  0  0
  3  8  2  0  0  0  0
  3 17  1  0  0  0  0
  4  9  1  0  0  0  0
  4 17  2  0  0  0  0
  5 19  1  0  0  0  0
  6 21  1  0  0  0  0
  7 10  2  0  0  0  0
  7 20  1  0  0  0  0
  8 27  1  0  0  0  0
  9 27  2  0  0  0  0
 10 28  1  0  0  0  0
 11 12  2  0  0  0  0
 11 29  1  0  0  0  0
 12 30  1  0  0  0  0
 13 22  1  0  0  0  0
 13 28  2  0  0  0  0
 14 23  1  0  0  0  0
 14 24  2  0  0  0  0
 15 23  2  0  0  0  0
 15 25  1  0  0  0  0
 16 30  2  0  0  0  0
 16 31  1  0  0  0  0
 17 32  1  0  0  0  0
 18 32  1  0  0  0  0
 18 33  2  0  0  0  0
 18 34  1  0  0  0  0
 19 21  2  0  0  0  0
 19 39  1  0  0  0  0
 20 22  2  0  0  0  0
 20 40  1  0  0  0  0
 21 52  1  0  0  0  0
 22 41  1  0  0  0  0
 23 64  1  0  0  0  0
 24 26  1  0  0  0  0
 24 56  1  0  0  0  0
 25 26  2  0  0  0  0
 25 57  1  0  0  0  0
 26 63  1  0  0  0  0
 27 84  1  0  0  0  0
 28 85  1  0  0  0  0
 29 31  2  0  0  0  0
 29 84  1  0  0  0  0
 30 86  1  0  0  0  0
 31 87  1  0  0  0  0
 32 68  2  0  0  0  0
 33 69  1  0  0  0  0
 33 72  1  0  0  0  0
 34 73  1  0  0  0  0
 34 79  2  0  0  0  0
 35 53  1  0  0  0  0
 35 74  1  0  0  0  0
 35 80  2  0  0  0  0
 36 65  1  0  0  0  0
 36 70  1  0  0  0  0
 36 81  2  0  0  0  0
 37 66  1  0  0  0  0
 37 75  1  0  0  0  0
 37 82  2  0  0  0  0
 38 71  1  0  0  0  0
 38 76  1  0  0  0  0
 38 83  2  0  0  0  0
 39 42  1  0  0  0  0
 40 53  1  0  0  0  0
 41 70  1  0  0  0  0
 42 44  1  0  0  0  0
 43 45  1  0  0  0  0
 43 48  1  0  0  0  0
 44 52  1  0  0  0  0
 45 54  1  0  0  0  0
 46 50  1  0  0  0  0
 46 55  1  0  0  0  0
 47 51  1  0  0  0  0
 47 55  1  0  0  0  0
 48 71  1  0  0  0  0
 49 54  1  0  0  0  0
 49 71  1  0  0  0  0
 50 77  1  0  0  0  0
 51 77  1  0  0  0  0
 52 74  1  0  0  0  0
 53 70  1  0  0  0  0
 54 69  1  0  0  0  0
 55 76  1  0  0  0  0
 58 66  1  0  0  0  0
 59 67  1  0  0  0  0
 60 67  1  0  0  0  0
 61 67  1  0  0  0  0
 62 78  1  0  0  0  0
 63 77  1  0  0  0  0
 64 85  1  0  0  0  0
 65 67  1  0  0  0  0
 65 75  1  0  0  0  0
 66 78  1  0  0  0  0
 68 69  1  0  0  0  0
M  CHG  2  77   1  78   1
M  ISO  4  38 100  64 101  76 100  85 101
M  END
> <Batch ID>
0134

> <Smiles>
CNC(C)C(=O)NC(C(=O)N1Cc2cc([101O:1][101CH2:1]c3cc(C)c(CN4CCC([100NH:0][100C:0](=O)N5CCCC(n6nc(-c7ccc(Oc8ccc(F)cc8F)cc7)c(C(N)=O)c6N)C5)CC4)c(C)c3)ccc2CC1C(=O)NC1CCCc2ccccc21)C(C)(C)C

> <Shape>
0.309

> <Color>
0.103

> <Negative vol penalty>
0.000

$$$$

  -OEChem-04052320573D

 83 92  0     1  0  0  0  0  0999 V2000
  -25.9501  -34.4106   25.2374 C   0  0  0  0  0  0  0  0  0  0  0  0
  -26.5110  -33.2654   24.6813 C   0  0  0  0  0  0  0  0  0  0  0  0
  -23.6781  -13.0455   21.0596 C   0  0  0  0  0  0  0  0  0  0  0  0
  -26.0569  -13.3857   21.3089 C   0  0  0  0  0  0  0  0  0  0  0  0
  -24.6222  -34.3994   25.6622 C   0  0  0  0  0  0  0  0  0  0  0  0
  -25.7445  -32.1079   24.5506 C   0  0  0  0  0  0  0  0  0  0  0  0
  -26.3083  -29.9051   20.0257 C   0  0  0  0  0  0  0  0  0  0  0  0
  -23.9192  -11.8343   20.4112 C   0  0  0  0  0  0  0  0  0  0  0  0
  -26.2981  -12.1745   20.6606 C   0  0  0  0  0  0  0  0  0  0  0  0
  -27.4649  -29.1534   19.8231 C   0  0  0  0  0  0  0  0  0  0  0  0
  -23.8996   -8.4796   19.0109 C   0  0  0  0  0  0  0  0  0  0  0  0
  -23.1298   -7.3787   19.3861 C   0  0  0  0  0  0  0  0  0  0  0  0
  -26.2166  -27.1316   20.2395 C   0  0  0  0  0  0  0  0  0  0  0  0
  -28.2458  -22.3718   19.2663 C   0  0  0  0  0  0  0  0  0  0  0  0
  -23.9641   -7.5653   21.6458 C   0  0  0  0  0  0  0  0  0  0  0  0
  -30.6201  -22.2348   19.2836 C   0  0  0  0  0  0  0  0  0  0  0  0
  -24.7469  -13.8213   21.5084 C   0  0  0  0  0  0  0  0  0  0  0  0
  -24.3245  -15.2779   23.5596 C   0  0  0  0  0  0  0  0  0  0  0  0
  -23.8362  -33.2441   25.5278 C   0  0  0  0  0  0  0  0  0  0  0  0
  -25.0975  -29.2754   20.3479 C   0  0  0  0  0  0  0  0  0  0  0  0
  -24.4052  -32.0808   24.9752 C   0  0  0  0  0  0  0  0  0  0  0  0
  -25.0455  -27.8774   20.4431 C   0  0  0  0  0  0  0  0  0  0  0  0
  -29.4698  -22.8331   18.7950 C   0  0  0  0  0  0  0  0  0  0  0  0
  -28.2098  -21.3408   20.1986 C   0  0  0  0  0  0  0  0  0  0  0  0
  -25.2292  -11.3988   20.2117 C   0  0  0  0  0  0  0  0  0  0  0  0
  -27.4198  -27.7666   19.9329 C   0  0  0  0  0  0  0  0  0  0  0  0
  -24.7018   -9.1234   19.9531 C   0  0  0  0  0  0  0  0  0  0  0  0
  -23.1620   -6.9215   20.7035 C   0  0  0  0  0  0  0  0  0  0  0  0
  -24.7340   -8.6663   21.2705 C   0  0  0  0  0  0  0  0  0  0  0  0
  -24.4985  -15.0728   22.1778 C   0  0  0  0  0  0  0  0  0  0  0  0
  -29.4165  -20.8092   20.6242 C   0  0  0  0  0  0  0  0  0  0  0  0
  -24.1190  -16.6304   23.6828 C   0  0  0  0  0  0  0  0  0  0  0  0
  -24.3467  -14.3307   24.6357 C   0  0  0  0  0  0  0  0  0  0  0  0
  -23.1167  -29.3603   22.8324 C   0  0  0  0  0  0  0  0  0  0  0  0
  -21.2713  -27.4917   20.9283 C   0  0  0  0  0  0  0  0  0  0  0  0
  -21.0908  -25.2989   18.3196 C   0  0  0  0  0  0  0  0  0  0  0  0
  -25.6943  -21.3205   20.3323 C   0  0  0  0  0  0  0  0  0  0  0  0
  -22.4195  -33.2657   26.0448 C   0  0  0  0  0  0  0  0  0  0  0  0
  -23.8529  -30.0986   20.5370 C   0  0  0  0  0  0  0  0  0  0  0  0
  -23.7661  -27.1516   20.7669 C   0  0  0  0  0  0  0  0  0  0  0  0
  -21.5646  -32.1118   25.5272 C   0  0  0  0  0  0  0  0  0  0  0  0
  -22.3889  -20.3900   21.2732 C   0  0  0  0  0  0  0  0  0  0  0  0
  -22.3217  -30.7927   25.6428 C   0  0  0  0  0  0  0  0  0  0  0  0
  -30.6072  -18.7626   21.6574 C   0  0  0  0  0  0  0  0  0  0  0  0
  -29.2868  -18.2809   21.1429 C   0  0  0  0  0  0  0  0  0  0  0  0
  -22.5400  -18.9415   21.7435 C   0  0  0  0  0  0  0  0  0  0  0  0
  -23.3007  -20.6993   20.0872 C   0  0  0  0  0  0  0  0  0  0  0  0
  -24.8686  -18.9227   20.7615 C   0  0  0  0  0  0  0  0  0  0  0  0
  -23.5986  -30.8132   24.7939 C   0  0  1  0  0  0  0  0  0  0  0  0
  -29.4300  -19.6983   21.6254 C   0  0  0  0  0  0  0  0  0  0  0  0
  -22.7874  -29.3888   21.3666 C   0  0  1  0  0  0  0  0  0  0  0  0
  -24.0174  -18.5821   21.9957 C   0  0  2  0  0  0  0  0  0  0  0  0
  -19.4504  -23.9133   17.0208 C   0  0  0  0  0  0  0  0  0  0  0  0
  -21.1479  -25.4883   23.2263 C   0  0  0  0  0  0  0  0  0  0  0  0
  -20.3420  -23.7703   21.5932 C   0  0  0  0  0  0  0  0  0  0  0  0
  -18.9854  -25.8208   22.0149 C   0  0  0  0  0  0  0  0  0  0  0  0
  -21.7090  -26.7205   15.7985 C   0  0  0  0  0  0  0  0  0  0  0  0
  -29.5436  -23.9493   17.7839 C   0  0  0  0  0  0  0  0  0  0  0  0
  -29.6202  -25.3434   18.4101 C   0  0  0  0  0  0  0  0  0  0  0  0
  -28.3801  -25.7124   19.2159 C   0  0  0  0  0  0  0  0  0  1  0  0
  -21.1350  -26.0062   20.6970 C   0  0  1  0  0  0  0  0  0  0  0  0
  -20.1763  -25.2467   17.1090 C   0  0  2  0  0  0  0  0  0  0  0  0
  -20.4273  -25.2849   21.8787 C   0  0  0  0  0  0  0  0  0  0  0  0
  -30.6250  -21.2312   20.1893 N   0  0  0  0  0  0  0  0  0  0  0  0
  -24.4110  -16.2043   21.4735 N   0  0  0  0  0  0  0  0  0  0  0  0
  -24.1797  -17.1335   22.4165 N   0  0  0  0  0  0  0  0  0  0  0  0
  -22.5775  -28.0011   20.9491 N   0  0  0  0  0  0  0  0  0  0  0  0
  -24.6848  -20.3371   20.4004 N   0  0  0  0  0  0  0  0  0  0  0  0
  -23.8941  -17.4264   24.7496 N   0  0  0  0  0  0  0  0  0  0  0  0
  -24.5708  -12.9807   24.3329 N   0  0  0  0  0  0  0  0  0  0  0  0
  -26.9655  -20.8672   20.6832 N   0  0  0  0  0  0  0  0  0  0  0  0
  -23.2800  -30.6110   23.3968 N   0  0  0  0  0  0  0  0  0  0  0  0
  -20.4596  -25.8533   19.4129 N   0  0  0  0  0  0  0  0  0  0  0  0
  -20.9624  -25.4375   15.8574 N   0  3  0  0  0  0  0  0  0  0  0  0
  -24.1567  -14.6689   25.8286 O   0  0  0  0  0  0  0  0  0  0  0  0
  -23.2138  -28.2834   23.4090 O   0  0  0  0  0  0  0  0  0  0  0  0
  -20.2560  -28.1762   21.0777 O   0  0  0  0  0  0  0  0  0  0  0  0
  -22.2480  -24.8855   18.2985 O   0  0  0  0  0  0  0  0  0  0  0  0
  -25.4445  -22.4860   20.0142 O   0  0  0  0  0  0  0  0  0  0  0  0
  -25.4649  -10.2168   19.5792 O   0  0  0  0  0  0  0  0  0  0  0  0
  -28.5474  -27.0306   19.7363 O   0  0  0  0  0  0  0  0  0  1  0  0
  -22.4215   -5.8652   21.0640 F   0  0  0  0  0  0  0  0  0  0  0  0
  -25.5018   -9.2814   22.1804 F   0  0  0  0  0  0  0  0  0  0  0  0
  1  2  1  0  0  0  0
  1  5  2  0  0  0  0
  2  6  2  0  0  0  0
  3  8  2  0  0  0  0
  3 17  1  0  0  0  0
  4  9  1  0  0  0  0
  4 17  2  0  0  0  0
  5 19  1  0  0  0  0
  6 21  1  0  0  0  0
  7 10  2  0  0  0  0
  7 20  1  0  0  0  0
  8 25  1  0  0  0  0
  9 25  2  0  0  0  0
 10 26  1  0  0  0  0
 11 12  2  0  0  0  0
 11 27  1  0  0  0  0
 12 28  1  0  0  0  0
 13 22  1  0  0  0  0
 13 26  2  0  0  0  0
 14 23  2  0  0  0  0
 14 24  1  0  0  0  0
 15 28  2  0  0  0  0
 15 29  1  0  0  0  0
 16 23  1  0  0  0  0
 16 64  2  0  0  0  0
 17 30  1  0  0  0  0
 18 30  1  0  0  0  0
 18 32  2  0  0  0  0
 18 33  1  0  0  0  0
 19 21  2  0  0  0  0
 19 38  1  0  0  0  0
 20 22  2  0  0  0  0
 20 39  1  0  0  0  0
 21 49  1  0  0  0  0
 22 40  1  0  0  0  0
 23 58  1  0  0  0  0
 24 31  2  0  0  0  0
 24 71  1  0  0  0  0
 25 80  1  0  0  0  0
 26 81  1  0  0  0  0
 27 29  2  0  0  0  0
 27 80  1  0  0  0  0
 28 82  1  0  0  0  0
 29 83  1  0  0  0  0
 30 65  2  0  0  0  0
 31 50  1  0  0  0  0
 31 64  1  0  0  0  0
 32 66  1  0  0  0  0
 32 69  1  0  0  0  0
 33 70  1  0  0  0  0
 33 75  2  0  0  0  0
 34 51  1  0  0  0  0
 34 72  1  0  0  0  0
 34 76  2  0  0  0  0
 35 61  1  0  0  0  0
 35 67  1  0  0  0  0
 35 77  2  0  0  0  0
 36 62  1  0  0  0  0
 36 73  1  0  0  0  0
 36 78  2  0  0  0  0
 37 68  1  0  0  0  0
 37 71  1  0  0  0  0
 37 79  2  0  0  0  0
 38 41  1  0  0  0  0
 39 51  1  0  0  0  0
 40 67  1  0  0  0  0
 41 43  1  0  0  0  0
 42 46  1  0  0  0  0
 42 47  1  0  0  0  0
 43 49  1  0  0  0  0
 44 45  1  0  0  0  0
 44 50  1  0  0  0  0
 45 50  1  0  0  0  0
 46 52  1  0  0  0  0
 47 68  1  0  0  0  0
 48 52  1  0  0  0  0
 48 68  1  0  0  0  0
 49 72  1  0  0  0  0
 51 67  1  0  0  0  0
 52 66  1  0  0  0  0
 53 62  1  0  0  0  0
 54 63  1  0  0  0  0
 55 63  1  0  0  0  0
 56 63  1  0  0  0  0
 57 74  1  0  0  0  0
 58 59  1  0  0  0  0
 59 60  1  0  0  0  0
 60 81  1  0  0  0  0
 61 63  1  0  0  0  0
 61 73  1  0  0  0  0
 62 74  1  0  0  0  0
 65 66  1  0  0  0  0
M  CHG  1  74   1
M  ISO  4  37 100  60 101  71 100  81 101
M  END
> <Batch ID>
0134

> <Smiles>
CNC(C)C(=O)NC(C(=O)N1Cc2cc([101O:1][101CH2:1]CCc3cnc(C4CC4)c([100NH:0][100C:0](=O)N4CCCC(n5nc(-c6ccc(Oc7ccc(F)cc7F)cc6)c(C(N)=O)c5N)C4)c3)ccc2CC1C(=O)NC1CCCc2ccccc21)C(C)(C)C

> <Shape>
0.239

> <Color>
0.070

> <Negative vol penalty>
0.000

$$$$

  -OEChem-04052320573D

 84 93  0     1  0  0  0  0  0999 V2000
  -27.8374  -24.3490   16.8871 C   0  0  0  0  0  0  0  0  0  0  0  0
  -26.6749  -24.5726   17.6179 C   0  0  0  0  0  0  0  0  0  0  0  0
  -27.1984  -13.1466   20.8808 C   0  0  0  0  0  0  0  0  0  0  0  0
  -25.1461  -13.5445   19.6697 C   0  0  0  0  0  0  0  0  0  0  0  0
  -29.0513  -24.8691   17.3340 C   0  0  0  0  0  0  0  0  0  0  0  0
  -26.7260  -25.3157   18.7968 C   0  0  0  0  0  0  0  0  0  0  0  0
  -22.9751  -28.7024   19.1225 C   0  0  0  0  0  0  0  0  0  0  0  0
  -26.8706  -11.7955   20.9924 C   0  0  0  0  0  0  0  0  0  0  0  0
  -24.8183  -12.1933   19.7812 C   0  0  0  0  0  0  0  0  0  0  0  0
  -21.7165  -28.2255   19.4860 C   0  0  0  0  0  0  0  0  0  0  0  0
  -23.2684   -8.9176   20.0595 C   0  0  0  0  0  0  0  0  0  0  0  0
  -21.9611   -8.5956   20.4241 C   0  0  0  0  0  0  0  0  0  0  0  0
  -22.0924  -28.9753   21.7478 C   0  0  0  0  0  0  0  0  0  0  0  0
  -21.1019  -20.7043   20.3805 C   0  0  0  0  0  0  0  0  0  0  0  0
  -22.2432   -9.8001   22.4994 C   0  0  0  0  0  0  0  0  0  0  0  0
  -26.3362  -14.0212   20.2194 C   0  0  0  0  0  0  0  0  0  0  0  0
  -27.4036  -16.0327   19.0696 C   0  0  0  0  0  0  0  0  0  0  0  0
  -29.1156  -25.6271   18.5138 C   0  0  0  0  0  0  0  0  0  0  0  0
  -23.8077  -29.3106   20.0729 C   0  0  0  0  0  0  0  0  0  0  0  0
  -27.9421  -25.8453   19.2606 C   0  0  0  0  0  0  0  0  0  0  0  0
  -23.3601  -29.4614   21.3932 C   0  0  0  0  0  0  0  0  0  0  0  0
  -19.6501  -22.6164   20.6360 C   0  0  0  0  0  0  0  0  0  0  0  0
  -19.9772  -21.4213   19.9908 C   0  0  0  0  0  0  0  0  0  0  0  0
  -25.6806  -11.3188   20.4426 C   0  0  0  0  0  0  0  0  0  0  0  0
  -21.2761  -28.3594   20.7995 C   0  0  0  0  0  0  0  0  0  0  0  0
  -24.0631   -9.6808   20.9149 C   0  0  0  0  0  0  0  0  0  0  0  0
  -21.4485   -9.0368   21.6441 C   0  0  0  0  0  0  0  0  0  0  0  0
  -23.5505  -10.1220   22.1348 C   0  0  0  0  0  0  0  0  0  0  0  0
  -26.6739  -15.4171   20.1043 C   0  0  0  0  0  0  0  0  0  0  0  0
  -20.5010  -23.0615   21.6508 C   0  0  0  0  0  0  0  0  0  0  0  0
  -21.8723  -21.2188   21.4073 C   0  0  0  0  0  0  0  0  0  0  0  0
  -27.4504  -17.3587   19.4243 C   0  0  0  0  0  0  0  0  0  0  0  0
  -27.9869  -15.4572   17.8931 C   0  0  0  0  0  0  0  0  0  0  0  0
  -26.6738  -28.6637   21.2856 C   0  0  0  0  0  0  0  0  0  0  0  0
  -26.2776  -31.5375   22.7371 C   0  0  0  0  0  0  0  0  0  0  0  0
  -24.1348  -33.9363   23.8777 C   0  0  0  0  0  0  0  0  0  0  0  0
  -23.9291  -20.8075   22.8025 C   0  0  0  0  0  0  0  0  0  0  0  0
  -30.4587  -26.1289   18.9820 C   0  0  0  0  0  0  0  0  0  0  0  0
  -25.1517  -29.8437   19.6587 C   0  0  0  0  0  0  0  0  0  0  0  0
  -18.4609  -23.4232   20.1934 C   0  0  0  0  0  0  0  0  0  0  0  0
  -24.2074  -30.1249   22.4469 C   0  0  0  0  0  0  0  0  0  0  0  0
  -20.1962  -24.3279   22.3999 C   0  0  0  0  0  0  0  0  0  0  0  0
  -30.3643  -27.2220   20.0433 C   0  0  0  0  0  0  0  0  0  0  0  0
  -27.4076  -20.2097   23.2720 C   0  0  0  0  0  0  0  0  0  0  0  0
  -29.3581  -26.8335   21.1219 C   0  0  0  0  0  0  0  0  0  0  0  0
  -27.6818  -18.9725   22.4140 C   0  0  0  0  0  0  0  0  0  0  0  0
  -26.0357  -20.1432   23.9409 C   0  0  0  0  0  0  0  0  0  0  0  0
  -25.1865  -18.6542   22.1715 C   0  0  0  0  0  0  0  0  0  0  0  0
  -17.9976  -24.4337   21.2377 C   0  0  0  0  0  0  0  0  0  0  0  0
  -27.9528  -26.6673   20.5312 C   0  0  1  0  0  0  0  0  0  0  0  0
  -26.1243  -29.9844   20.8256 C   0  0  1  0  0  0  0  0  0  0  0  0
  -26.5298  -18.7055   21.4255 C   0  0  2  0  0  0  0  0  0  0  0  0
  -19.1490  -20.8839   18.8688 C   0  0  0  0  0  0  0  0  0  0  0  0
  -24.1049  -36.1536   25.0525 C   0  0  0  0  0  0  0  0  0  0  0  0
  -26.8592  -30.1392   25.3859 C   0  0  0  0  0  0  0  0  0  0  0  0
  -25.8988  -32.1272   26.5664 C   0  0  0  0  0  0  0  0  0  0  0  0
  -27.9263  -32.3872   25.1367 C   0  0  0  0  0  0  0  0  0  0  0  0
  -22.8396  -35.2698   21.5748 C   0  0  0  0  0  0  0  0  0  0  0  0
  -18.7998  -26.3960   22.5641 C   0  0  0  0  0  0  0  0  0  0  0  0
  -19.8896  -27.4481   22.5034 C   0  0  0  0  0  0  0  0  0  1  0  0
  -25.6796  -32.0023   24.0430 C   0  0  1  0  0  0  0  0  0  0  0  0
  -24.1284  -35.4447   23.7072 C   0  0  2  0  0  0  0  0  0  0  0  0
  -26.5756  -31.6497   25.2638 C   0  0  0  0  0  0  0  0  0  0  0  0
  -26.2853  -16.2812   21.0458 N   0  0  0  0  0  0  0  0  0  0  0  0
  -21.5998  -22.3750   22.0513 N   0  0  0  0  0  0  0  0  0  0  0  0
  -26.7726  -17.4532   20.6041 N   0  0  0  0  0  0  0  0  0  0  0  0
  -25.5163  -30.6242   21.9941 N   0  0  0  0  0  0  0  0  0  0  0  0
  -24.9937  -19.8922   22.9429 N   0  0  0  0  0  0  0  0  0  0  0  0
  -28.0049  -18.4415   18.8391 N   0  0  0  0  0  0  0  0  0  0  0  0
  -27.8448  -14.0789   17.6826 N   0  0  0  0  0  0  0  0  0  0  0  0
  -23.0167  -20.4811   21.7998 N   0  0  0  0  0  0  0  0  0  0  0  0
  -27.3442  -27.9603   20.3032 N   0  0  0  0  0  0  0  0  0  0  0  0
  -25.4168  -33.4288   23.8869 N   0  0  0  0  0  0  0  0  0  0  0  0
  -19.1922  -25.2258   21.7083 N   0  3  1  0  0  0  0  0  0  0  0  0
  -22.9316  -35.8731   22.9293 N   0  3  0  0  0  0  0  0  0  0  0  0
  -28.6296  -16.1422   17.0616 O   0  0  0  0  0  0  0  0  0  0  0  0
  -26.5035  -28.3098   22.4464 O   0  0  0  0  0  0  0  0  0  0  0  0
  -27.3764  -31.9744   22.3857 O   0  0  0  0  0  0  0  0  0  0  0  0
  -23.1056  -33.2749   23.9949 O   0  0  0  0  0  0  0  0  0  0  0  0
  -23.8487  -21.8214   23.5007 O   0  0  0  0  0  0  0  0  0  0  0  0
  -25.3605  -10.0003   20.5512 O   0  0  0  0  0  0  0  0  0  0  0  0
  -20.0483  -27.8942   21.1572 O   0  0  0  0  0  0  0  0  0  1  0  0
  -20.1926   -8.7288   21.9933 F   0  0  0  0  0  0  0  0  0  0  0  0
  -24.3089  -10.8565   22.9602 F   0  0  0  0  0  0  0  0  0  0  0  0
  1  2  1  0  0  0  0
  1  5  2  0  0  0  0
  2  6  2  0  0  0  0
  3  8  2  0  0  0  0
  3 16  1  0  0  0  0
  4  9  1  0  0  0  0
  4 16  2  0  0  0  0
  5 18  1  0  0  0  0
  6 20  1  0  0  0  0
  7 10  2  0  0  0  0
  7 19  1  0  0  0  0
  8 24  1  0  0  0  0
  9 24  2  0  0  0  0
 10 25  1  0  0  0  0
 11 12  2  0  0  0  0
 11 26  1  0  0  0  0
 12 27  1  0  0  0  0
 13 21  1  0  0  0  0
 13 25  2  0  0  0  0
 14 23  2  0  0  0  0
 14 31  1  0  0  0  0
 15 27  2  0  0  0  0
 15 28  1  0  0  0  0
 16 29  1  0  0  0  0
 17 29  1  0  0  0  0
 17 32  2  0  0  0  0
 17 33  1  0  0  0  0
 18 20  2  0  0  0  0
 18 38  1  0  0  0  0
 19 21  2  0  0  0  0
 19 39  1  0  0  0  0
 20 50  1  0  0  0  0
 21 41  1  0  0  0  0
 22 23  1  0  0  0  0
 22 30  2  0  0  0  0
 22 40  1  0  0  0  0
 23 53  1  0  0  0  0
 24 81  1  0  0  0  0
 25 82  1  0  0  0  0
 26 28  2  0  0  0  0
 26 81  1  0  0  0  0
 27 83  1  0  0  0  0
 28 84  1  0  0  0  0
 29 64  2  0  0  0  0
 30 42  1  0  0  0  0
 30 65  1  0  0  0  0
 31 65  2  0  0  0  0
 31 71  1  0  0  0  0
 32 66  1  0  0  0  0
 32 69  1  0  0  0  0
 33 70  1  0  0  0  0
 33 76  2  0  0  0  0
 34 51  1  0  0  0  0
 34 72  1  0  0  0  0
 34 77  2  0  0  0  0
 35 61  1  0  0  0  0
 35 67  1  0  0  0  0
 35 78  2  0  0  0  0
 36 62  1  0  0  0  0
 36 73  1  0  0  0  0
 36 79  2  0  0  0  0
 37 68  1  0  0  0  0
 37 71  1  0  0  0  0
 37 80  2  0  0  0  0
 38 43  1  0  0  0  0
 39 51  1  0  0  0  0
 40 49  1  0  0  0  0
 41 67  1  0  0  0  0
 42 74  1  0  0  0  0
 43 45  1  0  0  0  0
 44 46  1  0  0  0  0
 44 47  1  0  0  0  0
 45 50  1  0  0  0  0
 46 52  1  0  0  0  0
 47 68  1  0  0  0  0
 48 52  1  0  0  0  0
 48 68  1  0  0  0  0
 49 74  1  0  0  0  0
 50 72  1  0  0  0  0
 51 67  1  0  0  0  0
 52 66  1  0  0  0  0
 54 62  1  0  0  0  0
 55 63  1  0  0  0  0
 56 63  1  0  0  0  0
 57 63  1  0  0  0  0
 58 75  1  0  0  0  0
 59 60  1  0  0  0  0
 59 74  1  0  0  0  0
 60 82  1  0  0  0  0
 61 63  1  0  0  0  0
 61 73  1  0  0  0  0
 62 75  1  0  0  0  0
 64 66  1  0  0  0  0
M  CHG  2  74   1  75   1
M  ISO  4  37 100  60 101  71 100  82 101
M  END
> <Batch ID>
0134

> <Smiles>
CNC(C)C(=O)NC(C(=O)N1Cc2cc([101O:1][101CH2:1]CN3CCc4c(C)cc([100NH:0][100C:0](=O)N5CCCC(n6nc(-c7ccc(Oc8ccc(F)cc8F)cc7)c(C(N)=O)c6N)C5)nc4C3)ccc2CC1C(=O)NC1CCCc2ccccc21)C(C)(C)C

> <Shape>
0.285

> <Color>
0.079

> <Negative vol penalty>
0.000

$$$$

  -OEChem-04052320573D

 88 97  0     1  0  0  0  0  0999 V2000
  -21.4785  -19.7913   22.9094 C   0  0  0  0  0  0  0  0  0  0  0  0
  -22.4969  -20.4172   23.6193 C   0  0  0  0  0  0  0  0  0  0  0  0
  -23.2235   -9.7036   21.0695 C   0  0  0  0  0  0  0  0  0  0  0  0
  -23.8785  -10.5165   23.2483 C   0  0  0  0  0  0  0  0  0  0  0  0
  -20.8997  -20.4330   21.8165 C   0  0  0  0  0  0  0  0  0  0  0  0
  -22.9287  -21.6898   23.2440 C   0  0  0  0  0  0  0  0  0  0  0  0
  -26.1636  -23.9165   26.2072 C   0  0  0  0  0  0  0  0  0  0  0  0
  -32.3390  -18.5331   22.0833 C   0  0  0  0  0  0  0  0  0  0  0  0
  -31.8096  -17.3754   21.5133 C   0  0  0  0  0  0  0  0  0  0  0  0
  -22.5159   -8.6626   21.6706 C   0  0  0  0  0  0  0  0  0  0  0  0
  -23.1709   -9.4755   23.8494 C   0  0  0  0  0  0  0  0  0  0  0  0
  -27.4954  -23.5160   26.3056 C   0  0  0  0  0  0  0  0  0  0  0  0
  -19.5396   -8.2420   23.2190 C   0  0  0  0  0  0  0  0  0  0  0  0
  -18.2588   -7.9674   22.7398 C   0  0  0  0  0  0  0  0  0  0  0  0
  -30.1117  -19.4428   22.3044 C   0  0  0  0  0  0  0  0  0  0  0  0
  -28.1550  -25.3963   24.9460 C   0  0  0  0  0  0  0  0  0  0  0  0
  -18.9549   -5.7266   22.1638 C   0  0  0  0  0  0  0  0  0  0  0  0
  -23.9048  -10.6305   21.8584 C   0  0  0  0  0  0  0  0  0  0  0  0
  -24.1503  -12.9848   20.9072 C   0  0  0  0  0  0  0  0  0  0  0  0
  -21.3337  -21.7089   21.4207 C   0  0  0  0  0  0  0  0  0  0  0  0
  -25.8158  -25.0557   25.4672 C   0  0  0  0  0  0  0  0  0  0  0  0
  -22.3406  -22.3640   22.1586 C   0  0  0  0  0  0  0  0  0  0  0  0
  -29.5823  -18.2850   21.7343 C   0  0  0  0  0  0  0  0  0  0  0  0
  -26.8184  -25.8106   24.8419 C   0  0  0  0  0  0  0  0  0  0  0  0
  -31.4900  -19.5668   22.4789 C   0  0  0  0  0  0  0  0  0  0  0  0
  -30.4313  -17.2513   21.3388 C   0  0  0  0  0  0  0  0  0  0  0  0
  -22.4896   -8.5486   23.0605 C   0  0  0  0  0  0  0  0  0  0  0  0
  -28.4910  -24.2543   25.6726 C   0  0  0  0  0  0  0  0  0  0  0  0
  -20.5281   -7.2591   23.1705 C   0  0  0  0  0  0  0  0  0  0  0  0
  -17.9664   -6.7097   22.2122 C   0  0  0  0  0  0  0  0  0  0  0  0
  -20.2357   -6.0014   22.6430 C   0  0  0  0  0  0  0  0  0  0  0  0
  -24.6364  -11.7057   21.2380 C   0  0  0  0  0  0  0  0  0  0  0  0
  -25.2268  -13.6264   20.3451 C   0  0  0  0  0  0  0  0  0  0  0  0
  -22.8426  -13.5430   21.0915 C   0  0  0  0  0  0  0  0  0  0  0  0
  -24.0236  -25.6015   22.8993 C   0  0  0  0  0  0  0  0  0  0  0  0
  -24.6467  -28.7057   23.6048 C   0  0  0  0  0  0  0  0  0  0  0  0
  -26.6962  -30.9786   25.1148 C   0  0  0  0  0  0  0  0  0  0  0  0
  -30.6333  -14.9576   20.3168 C   0  0  0  0  0  0  0  0  0  0  0  0
  -20.6670  -22.3608   20.2350 C   0  0  0  0  0  0  0  0  0  0  0  0
  -24.3775  -25.4896   25.3929 C   0  0  0  0  0  0  0  0  0  0  0  0
  -26.4996  -27.0529   24.0522 C   0  0  0  0  0  0  0  0  0  0  0  0
  -21.4869  -23.5044   19.6465 C   0  0  0  0  0  0  0  0  0  0  0  0
  -29.7242  -11.8359   18.8655 C   0  0  0  0  0  0  0  0  0  0  0  0
  -21.9276  -24.4511   20.7529 C   0  0  0  0  0  0  0  0  0  0  0  0
  -28.2795  -11.6290   19.3262 C   0  0  0  0  0  0  0  0  0  0  0  0
  -27.3977  -17.4862   22.7497 C   0  0  0  0  0  0  0  0  0  0  0  0
  -27.4274  -19.5412   21.2649 C   0  0  0  0  0  0  0  0  0  0  0  0
  -30.5744  -12.5011   19.9465 C   0  0  0  0  0  0  0  0  0  0  0  0
  -28.5797  -13.5435   20.9483 C   0  0  0  0  0  0  0  0  0  0  0  0
  -25.8929  -17.3817   22.5473 C   0  0  0  0  0  0  0  0  0  0  0  0
  -25.9221  -19.4103   21.0814 C   0  0  0  0  0  0  0  0  0  0  0  0
  -28.0834  -18.1782   21.5563 C   0  0  0  0  0  0  0  0  0  0  0  0
  -22.8475  -23.7353   21.7500 C   0  0  1  0  0  0  0  0  0  0  0  0
  -24.0820  -26.3749   24.1862 C   0  0  1  0  0  0  0  0  0  0  0  0
  -27.6686  -12.9356   19.8695 C   0  0  2  0  0  0  0  0  0  0  0  0
  -26.9655  -33.4455   25.4883 C   0  0  0  0  0  0  0  0  0  0  0  0
  -25.6305  -29.0303   20.7349 C   0  0  0  0  0  0  0  0  0  0  0  0
  -26.7392  -31.1647   21.4301 C   0  0  0  0  0  0  0  0  0  0  0  0
  -24.2600  -30.9394   21.5901 C   0  0  0  0  0  0  0  0  0  0  0  0
  -26.5050  -30.6724   28.0523 C   0  0  0  0  0  0  0  0  0  0  0  0
  -32.0599  -20.8122   23.0915 C   0  0  0  0  0  0  0  0  0  0  0  0
  -31.5679  -22.4411   26.5216 C   0  0  0  0  0  0  0  0  0  0  0  0
  -32.1500  -22.2548   25.1285 C   0  0  0  0  0  0  0  0  0  0  0  0
  -30.0648  -22.6907   26.5297 C   0  0  0  0  0  0  0  0  0  1  0  0
  -25.7262  -29.6917   23.2288 C   0  0  1  0  0  0  0  0  0  0  0  0
  -26.3984  -32.1460   26.0384 C   0  0  2  0  0  0  0  0  0  0  0  0
  -25.5951  -30.1821   21.7592 C   0  0  0  0  0  0  0  0  0  0  0  0
  -25.9216  -11.5426   20.9131 N   0  0  0  0  0  0  0  0  0  0  0  0
  -26.2522  -12.7276   20.3721 N   0  0  0  0  0  0  0  0  0  0  0  0
  -25.0780  -27.4327   24.0038 N   0  0  0  0  0  0  0  0  0  0  0  0
  -29.9356  -13.7347   20.4101 N   0  0  0  0  0  0  0  0  0  0  0  0
  -25.3867  -14.8661   19.8352 N   0  0  0  0  0  0  0  0  0  0  0  0
  -21.8537  -12.7466   21.6851 N   0  0  0  0  0  0  0  0  0  0  0  0
  -29.9132  -16.0673   20.7578 N   0  0  0  0  0  0  0  0  0  0  0  0
  -23.0729  -24.5987   22.8882 N   0  0  0  0  0  0  0  0  0  0  0  0
  -25.6687  -30.7586   24.2221 N   0  0  0  0  0  0  0  0  0  0  0  0
  -25.3365  -18.7411   22.2805 N   0  3  0  0  0  0  0  0  0  0  0  0
  -26.9923  -31.9065   27.3841 N   0  3  0  0  0  0  0  0  0  0  0  0
  -31.5583  -21.0665   24.4703 N   0  3  0  0  0  0  0  0  0  0  0  0
  -22.5549  -14.7078   20.7253 O   0  0  0  0  0  0  0  0  0  0  0  0
  -24.7837  -25.8939   21.9836 O   0  0  0  0  0  0  0  0  0  0  0  0
  -23.4646  -29.0546   23.5536 O   0  0  0  0  0  0  0  0  0  0  0  0
  -27.7379  -30.3293   25.1766 O   0  0  0  0  0  0  0  0  0  0  0  0
  -31.7746  -15.0198   19.8526 O   0  0  0  0  0  0  0  0  0  0  0  0
  -21.7990   -7.5331   23.6474 O   0  0  0  0  0  0  0  0  0  0  0  0
  -29.7917  -23.8652   25.7665 O   0  0  0  0  0  0  0  0  0  1  0  0
  -16.7360   -6.4455   21.7535 F   0  0  0  0  0  0  0  0  0  0  0  0
  -21.1809   -5.0526   22.5948 F   0  0  0  0  0  0  0  0  0  0  0  0
  1  2  1  0  0  0  0
  1  5  2  0  0  0  0
  2  6  2  0  0  0  0
  3 10  2  0  0  0  0
  3 18  1  0  0  0  0
  4 11  1  0  0  0  0
  4 18  2  0  0  0  0
  5 20  1  0  0  0  0
  6 22  1  0  0  0  0
  7 12  2  0  0  0  0
  7 21  1  0  0  0  0
  8  9  2  0  0  0  0
  8 25  1  0  0  0  0
  9 26  1  0  0  0  0
 10 27  1  0  0  0  0
 11 27  2  0  0  0  0
 12 28  1  0  0  0  0
 13 14  2  0  0  0  0
 13 29  1  0  0  0  0
 14 30  1  0  0  0  0
 15 23  1  0  0  0  0
 15 25  2  0  0  0  0
 16 24  1  0  0  0  0
 16 28  2  0  0  0  0
 17 30  2  0  0  0  0
 17 31  1  0  0  0  0
 18 32  1  0  0  0  0
 19 32  1  0  0  0  0
 19 33  2  0  0  0  0
 19 34  1  0  0  0  0
 20 22  2  0  0  0  0
 20 39  1  0  0  0  0
 21 24  2  0  0  0  0
 21 40  1  0  0  0  0
 22 53  1  0  0  0  0
 23 26  2  0  0  0  0
 23 52  1  0  0  0  0
 24 41  1  0  0  0  0
 25 61  1  0  0  0  0
 26 74  1  0  0  0  0
 27 85  1  0  0  0  0
 28 86  1  0  0  0  0
 29 31  2  0  0  0  0
 29 85  1  0  0  0  0
 30 87  1  0  0  0  0
 31 88  1  0  0  0  0
 32 68  2  0  0  0  0
 33 69  1  0  0  0  0
 33 72  1  0  0  0  0
 34 73  1  0  0  0  0
 34 80  2  0  0  0  0
 35 54  1  0  0  0  0
 35 75  1  0  0  0  0
 35 81  2  0  0  0  0
 36 65  1  0  0  0  0
 36 70  1  0  0  0  0
 36 82  2  0  0  0  0
 37 66  1  0  0  0  0
 37 76  1  0  0  0  0
 37 83  2  0  0  0  0
 38 71  1  0  0  0  0
 38 74  1  0  0  0  0
 38 84  2  0  0  0  0
 39 42  1  0  0  0  0
 40 54  1  0  0  0  0
 41 70  1  0  0  0  0
 42 44  1  0  0  0  0
 43 45  1  0  0  0  0
 43 48  1  0  0  0  0
 44 53  1  0  0  0  0
 45 55  1  0  0  0  0
 46 50  1  0  0  0  0
 46 52  1  0  0  0  0
 47 51  1  0  0  0  0
 47 52  1  0  0  0  0
 48 71  1  0  0  0  0
 49 55  1  0  0  0  0
 49 71  1  0  0  0  0
 50 77  1  0  0  0  0
 51 77  1  0  0  0  0
 53 75  1  0  0  0  0
 54 70  1  0  0  0  0
 55 69  1  0  0  0  0
 56 66  1  0  0  0  0
 57 67  1  0  0  0  0
 58 67  1  0  0  0  0
 59 67  1  0  0  0  0
 60 78  1  0  0  0  0
 61 79  1  0  0  0  0
 62 63  1  0  0  0  0
 62 64  1  0  0  0  0
 63 79  1  0  0  0  0
 64 86  1  0  0  0  0
 65 67  1  0  0  0  0
 65 76  1  0  0  0  0
 66 78  1  0  0  0  0
 68 69  1  0  0  0  0
M  CHG  3  77   1  78   1  79   1
M  ISO  4  38 100  64 101  74 100  86 101
M  END
> <Batch ID>
0134

> <Smiles>
CNC(C)C(=O)NC(C(=O)N1Cc2cc([101O:1][101CH2:1]CCNCc3ccc([100NH:0][100C:0](=O)N4CCCC(n5nc(-c6ccc(Oc7ccc(F)cc7F)cc6)c(C(N)=O)c5N)C4)c(C4CCNCC4)c3)ccc2CC1C(=O)NC1CCCc2ccccc21)C(C)(C)C

> <Shape>
0.230

> <Color>
0.152

> <Negative vol penalty>
0.000

$$$$

  -OEChem-04052320573D

 86 95  0     1  0  0  0  0  0999 V2000
  -31.4075  -26.9196   17.5490 C   0  0  0  0  0  0  0  0  0  0  0  0
  -30.6231  -26.0823   18.3358 C   0  0  0  0  0  0  0  0  0  0  0  0
  -24.0495  -11.9683   20.7044 C   0  0  0  0  0  0  0  0  0  0  0  0
  -25.6439  -12.6810   22.3737 C   0  0  0  0  0  0  0  0  0  0  0  0
  -31.3438  -28.3012   17.7252 C   0  0  0  0  0  0  0  0  0  0  0  0
  -29.7754  -26.6261   19.3002 C   0  0  0  0  0  0  0  0  0  0  0  0
  -25.1778  -24.5033   19.2647 C   0  0  0  0  0  0  0  0  0  0  0  0
  -24.1977  -10.6472   21.1268 C   0  0  0  0  0  0  0  0  0  0  0  0
  -25.7921  -11.3600   22.7962 C   0  0  0  0  0  0  0  0  0  0  0  0
  -25.0492  -23.2527   19.8673 C   0  0  0  0  0  0  0  0  0  0  0  0
  -23.0905   -8.7038   23.6626 C   0  0  0  0  0  0  0  0  0  0  0  0
  -21.9334   -7.9433   23.8308 C   0  0  0  0  0  0  0  0  0  0  0  0
  -24.1430  -24.3035   21.8406 C   0  0  0  0  0  0  0  0  0  0  0  0
  -22.7255   -6.3720   22.1753 C   0  0  0  0  0  0  0  0  0  0  0  0
  -24.7726  -12.9852   21.3278 C   0  0  0  0  0  0  0  0  0  0  0  0
  -23.4374  -15.1130   20.8838 C   0  0  0  0  0  0  0  0  0  0  0  0
  -30.4876  -28.8627   18.6856 C   0  0  0  0  0  0  0  0  0  0  0  0
  -24.7994  -25.6663   19.9508 C   0  0  0  0  0  0  0  0  0  0  0  0
  -29.7011  -28.0164   19.4903 C   0  0  0  0  0  0  0  0  0  0  0  0
  -24.2654  -25.5674   21.2435 C   0  0  0  0  0  0  0  0  0  0  0  0
  -25.0690  -10.3431   22.1728 C   0  0  0  0  0  0  0  0  0  0  0  0
  -24.5345  -23.1529   21.1566 C   0  0  0  0  0  0  0  0  0  0  0  0
  -24.0651   -8.2985   22.7507 C   0  0  0  0  0  0  0  0  0  0  0  0
  -21.7508   -6.7774   23.0871 C   0  0  0  0  0  0  0  0  0  0  0  0
  -23.8826   -7.1326   22.0071 C   0  0  0  0  0  0  0  0  0  0  0  0
  -24.6204  -14.3499   20.8915 C   0  0  0  0  0  0  0  0  0  0  0  0
  -23.8192  -16.3334   20.3823 C   0  0  0  0  0  0  0  0  0  0  0  0
  -22.1119  -14.7512   21.2935 C   0  0  0  0  0  0  0  0  0  0  0  0
  -26.3156  -28.2761   20.9477 C   0  0  0  0  0  0  0  0  0  0  0  0
  -23.3213  -29.2405   21.7392 C   0  0  0  0  0  0  0  0  0  0  0  0
  -20.1163  -28.3804   22.5359 C   0  0  0  0  0  0  0  0  0  0  0  0
  -29.0577  -19.2304   20.2531 C   0  0  0  0  0  0  0  0  0  0  0  0
  -30.4881  -30.3593   18.8720 C   0  0  0  0  0  0  0  0  0  0  0  0
  -24.9195  -27.0056   19.2766 C   0  0  0  0  0  0  0  0  0  0  0  0
  -23.8256  -26.7839   22.0151 C   0  0  0  0  0  0  0  0  0  0  0  0
  -29.2863  -30.8755   19.6591 C   0  0  0  0  0  0  0  0  0  0  0  0
  -27.0331  -18.3422   17.4623 C   0  0  0  0  0  0  0  0  0  0  0  0
  -29.0585  -30.0246   20.9045 C   0  0  0  0  0  0  0  0  0  0  0  0
  -27.9166  -22.8159   26.2707 C   0  0  0  0  0  0  0  0  0  0  0  0
  -28.7713  -19.2662   24.7652 C   0  0  0  0  0  0  0  0  0  0  0  0
  -28.5453  -22.7028   27.6749 C   0  0  0  0  0  0  0  0  0  0  0  0
  -26.0784  -17.2871   18.0240 C   0  0  0  0  0  0  0  0  0  0  0  0
  -29.9692  -19.4884   23.8403 C   0  0  0  0  0  0  0  0  0  0  0  0
  -28.7492  -21.3983   22.7075 C   0  0  0  0  0  0  0  0  0  0  0  0
  -28.4260  -18.2277   18.0778 C   0  0  0  0  0  0  0  0  0  0  0  0
  -27.5004  -17.1928   20.1139 C   0  0  0  0  0  0  0  0  0  0  0  0
  -28.7508  -28.5698   20.5300 C   0  0  1  0  0  0  0  0  0  0  0  0
  -24.9825  -28.1676   20.2631 C   0  0  1  0  0  0  0  0  0  0  0  0
  -28.6679  -21.5099   25.9047 C   0  0  2  0  0  0  0  0  0  0  0  0
  -27.9285  -20.5321   24.9800 C   0  0  1  0  0  0  0  0  0  0  0  0
  -28.6538  -21.1759   27.4277 C   0  0  1  0  0  0  0  0  0  0  0  0
  -26.0679  -17.3038   19.5644 C   0  0  2  0  0  0  0  0  0  0  0  0
  -29.5875  -20.1304   22.5044 C   0  0  2  0  0  0  0  0  0  0  0  0
  -27.5616  -21.2357   23.6634 C   0  0  2  0  0  0  0  0  0  0  0  0
  -29.8848  -20.4888   27.9829 C   0  0  0  0  0  0  0  0  0  0  0  0
  -17.9061  -29.3863   23.1686 C   0  0  0  0  0  0  0  0  0  0  0  0
  -24.3169  -19.3672   23.1833 C   0  0  0  0  0  0  0  0  0  0  0  0
  -24.3715  -29.7712   24.5544 C   0  0  0  0  0  0  0  0  0  0  0  0
  -21.9988  -29.8467   25.3500 C   0  0  0  0  0  0  0  0  0  0  0  0
  -22.8059  -31.5140   23.6792 C   0  0  0  0  0  0  0  0  0  0  0  0
  -18.7843  -27.2423   20.1506 C   0  0  0  0  0  0  0  0  0  0  0  0
  -24.5236  -21.8855   23.1690 C   0  0  0  0  0  0  0  0  0  1  0  0
  -22.4467  -29.1160   22.9633 C   0  0  1  0  0  0  0  0  0  0  0  0
  -18.7803  -28.8908   22.0271 C   0  0  2  0  0  0  0  0  0  0  0  0
  -25.1484  -20.5664   23.6090 C   0  0  2  0  0  0  0  0  0  0  0  0
  -22.9157  -30.0390   24.1232 C   0  0  0  0  0  0  0  0  0  0  0  0
  -25.6747  -15.0286   20.4312 N   0  0  0  0  0  0  0  0  0  0  0  0
  -25.1556  -16.2309   20.1296 N   0  0  0  0  0  0  0  0  0  0  0  0
  -23.9688  -28.0713   21.3154 N   0  0  0  0  0  0  0  0  0  0  0  0
  -28.3460  -18.2514   19.5403 N   0  0  0  0  0  0  0  0  0  0  0  0
  -23.1389  -17.4733   20.1372 N   0  0  0  0  0  0  0  0  0  0  0  0
  -21.8945  -13.4568   21.7852 N   0  0  0  0  0  0  0  0  0  0  0  0
  -27.3804  -28.4420   20.0827 N   0  0  0  0  0  0  0  0  0  0  0  0
  -21.0807  -29.3657   22.5160 N   0  0  0  0  0  0  0  0  0  0  0  0
  -28.9220  -19.1857   21.6353 N   0  0  0  0  0  0  0  0  0  0  0  0
  -26.4947  -20.4465   22.9781 N   0  3  0  0  0  0  0  0  0  0  0  0
  -18.0497  -27.8064   21.3121 N   0  3  0  0  0  0  0  0  0  0  0  0
  -21.1456  -15.5466   21.2103 O   0  0  0  0  0  0  0  0  0  0  0  0
  -26.3738  -28.2155   22.1702 O   0  0  0  0  0  0  0  0  0  0  0  0
  -23.4207  -30.3332   21.1755 O   0  0  0  0  0  0  0  0  0  0  0  0
  -20.2864  -27.2242   22.9166 O   0  0  0  0  0  0  0  0  0  0  0  0
  -29.7576  -20.0845   19.6986 O   0  0  0  0  0  0  0  0  0  0  0  0
  -25.2137   -9.0542   22.5854 O   0  0  0  0  0  0  0  0  0  0  0  0
  -24.4086  -21.9335   21.7474 O   0  0  0  0  0  0  0  0  0  1  0  0
  -20.6403   -6.0464   23.2499 F   0  0  0  0  0  0  0  0  0  0  0  0
  -24.8159   -6.7374   21.1304 F   0  0  0  0  0  0  0  0  0  0  0  0
  1  2  1  0  0  0  0
  1  5  2  0  0  0  0
  2  6  2  0  0  0  0
  3  8  2  0  0  0  0
  3 15  1  0  0  0  0
  4  9  1  0  0  0  0
  4 15  2  0  0  0  0
  5 17  1  0  0  0  0
  6 19  1  0  0  0  0
  7 10  2  0  0  0  0
  7 18  1  0  0  0  0
  8 21  1  0  0  0  0
  9 21  2  0  0  0  0
 10 22  1  0  0  0  0
 11 12  2  0  0  0  0
 11 23  1  0  0  0  0
 12 24  1  0  0  0  0
 13 20  1  0  0  0  0
 13 22  2  0  0  0  0
 14 24  2  0  0  0  0
 14 25  1  0  0  0  0
 15 26  1  0  0  0  0
 16 26  1  0  0  0  0
 16 27  2  0  0  0  0
 16 28  1  0  0  0  0
 17 19  2  0  0  0  0
 17 33  1  0  0  0  0
 18 20  2  0  0  0  0
 18 34  1  0  0  0  0
 19 47  1  0  0  0  0
 20 35  1  0  0  0  0
 21 83  1  0  0  0  0
 22 84  1  0  0  0  0
 23 25  2  0  0  0  0
 23 83  1  0  0  0  0
 24 85  1  0  0  0  0
 25 86  1  0  0  0  0
 26 67  2  0  0  0  0
 27 68  1  0  0  0  0
 27 71  1  0  0  0  0
 28 72  1  0  0  0  0
 28 78  2  0  0  0  0
 29 48  1  0  0  0  0
 29 73  1  0  0  0  0
 29 79  2  0  0  0  0
 30 63  1  0  0  0  0
 30 69  1  0  0  0  0
 30 80  2  0  0  0  0
 31 64  1  0  0  0  0
 31 74  1  0  0  0  0
 31 81  2  0  0  0  0
 32 70  1  0  0  0  0
 32 75  1  0  0  0  0
 32 82  2  0  0  0  0
 33 36  1  0  0  0  0
 34 48  1  0  0  0  0
 35 69  1  0  0  0  0
 36 38  1  0  0  0  0
 37 42  1  0  0  0  0
 37 45  1  0  0  0  0
 38 47  1  0  0  0  0
 39 41  1  0  0  0  0
 39 49  1  0  0  0  0
 40 43  1  0  0  0  0
 40 50  1  0  0  0  0
 41 51  1  0  0  0  0
 42 52  1  0  0  0  0
 43 53  1  0  0  0  0
 44 53  1  0  0  0  0
 44 54  1  0  0  0  0
 45 70  1  0  0  0  0
 46 52  1  0  0  0  0
 46 70  1  0  0  0  0
 47 73  1  0  0  0  0
 48 69  1  0  0  0  0
 49 50  1  0  0  0  0
 49 51  1  0  0  0  0
 50 54  1  0  0  0  0
 51 55  1  0  0  0  0
 52 68  1  0  0  0  0
 53 75  1  0  0  0  0
 54 76  1  0  0  0  0
 56 64  1  0  0  0  0
 57 65  1  0  0  0  0
 58 66  1  0  0  0  0
 59 66  1  0  0  0  0
 60 66  1  0  0  0  0
 61 77  1  0  0  0  0
 62 65  1  0  0  0  0
 62 84  1  0  0  0  0
 63 66  1  0  0  0  0
 63 74  1  0  0  0  0
 64 77  1  0  0  0  0
 65 76  1  0  0  0  0
 67 68  1  0  0  0  0
M  CHG  2  76   1  77   1
M  ISO  4  32 100  62 101  75 100  84 101
M  END
> <Batch ID>
0134

> <Smiles>
CNC(C)C(=O)NC(C(=O)N1Cc2cc([101O:1][101CH2:1]C(C)NC3CC([100NH:0][100C:0](=O)N4CCCC(n5nc(-c6ccc(Oc7ccc(F)cc7F)cc6)c(C(N)=O)c5N)C4)CCC3C3CCC3C)ccc2CC1C(=O)NC1CCCc2ccccc21)C(C)(C)C

> <Shape>
0.238

> <Color>
0.061

> <Negative vol penalty>
0.000

$$$$

  -OEChem-04052320573D

 87 95  0     1  0  0  0  0  0999 V2000
  -32.0750  -34.2239   20.6240 C   0  0  0  0  0  0  0  0  0  0  0  0
  -31.9271  -32.9162   20.1728 C   0  0  0  0  0  0  0  0  0  0  0  0
  -23.0967   -9.7626   19.9750 C   0  0  0  0  0  0  0  0  0  0  0  0
  -24.4369   -9.4321   21.9578 C   0  0  0  0  0  0  0  0  0  0  0  0
  -31.3080  -34.6817   21.6945 C   0  0  0  0  0  0  0  0  0  0  0  0
  -31.0128  -32.0652   20.7927 C   0  0  0  0  0  0  0  0  0  0  0  0
  -27.6576  -27.6928   18.1226 C   0  0  0  0  0  0  0  0  0  0  0  0
  -22.5079   -8.5124   20.1646 C   0  0  0  0  0  0  0  0  0  0  0  0
  -23.8481   -8.1819   22.1475 C   0  0  0  0  0  0  0  0  0  0  0  0
  -27.8254  -26.3125   18.0206 C   0  0  0  0  0  0  0  0  0  0  0  0
  -20.9427   -6.9577   23.3642 C   0  0  0  0  0  0  0  0  0  0  0  0
  -20.5271   -6.6277   24.6542 C   0  0  0  0  0  0  0  0  0  0  0  0
  -26.3815  -26.0020   19.9279 C   0  0  0  0  0  0  0  0  0  0  0  0
  -22.0200   -4.7282   24.6492 C   0  0  0  0  0  0  0  0  0  0  0  0
  -24.0612  -10.2224   20.8716 C   0  0  0  0  0  0  0  0  0  0  0  0
  -24.0218  -12.7625   20.6390 C   0  0  0  0  0  0  0  0  0  0  0  0
  -30.3769  -33.8388   22.3216 C   0  0  0  0  0  0  0  0  0  0  0  0
  -26.8578  -28.2395   19.1364 C   0  0  0  0  0  0  0  0  0  0  0  0
  -30.2336  -32.5118   21.8735 C   0  0  0  0  0  0  0  0  0  0  0  0
  -26.2030  -27.3895   20.0391 C   0  0  0  0  0  0  0  0  0  0  0  0
  -22.8835   -7.7221   21.2508 C   0  0  0  0  0  0  0  0  0  0  0  0
  -27.1896  -25.4670   18.9251 C   0  0  0  0  0  0  0  0  0  0  0  0
  -21.8969   -6.1729   22.7167 C   0  0  0  0  0  0  0  0  0  0  0  0
  -21.0658   -5.5130   25.2967 C   0  0  0  0  0  0  0  0  0  0  0  0
  -22.4355   -5.0581   23.3592 C   0  0  0  0  0  0  0  0  0  0  0  0
  -24.6703  -11.5135   20.6759 C   0  0  0  0  0  0  0  0  0  0  0  0
  -25.0330  -13.6683   20.4300 C   0  0  0  0  0  0  0  0  0  0  0  0
  -31.6387  -20.7056   21.3260 C   0  0  0  0  0  0  0  0  0  0  0  0
  -31.0308  -19.8855   20.4531 C   0  0  0  0  0  0  0  0  0  0  0  0
  -33.1029  -20.9534   21.4821 C   0  0  0  0  0  0  0  0  0  0  0  0
  -22.6300  -13.0759   20.7810 C   0  0  0  0  0  0  0  0  0  0  0  0
  -27.3719  -30.1913   21.5920 C   0  0  0  0  0  0  0  0  0  0  0  0
  -24.1467  -30.0259   21.8962 C   0  0  0  0  0  0  0  0  0  0  0  0
  -30.1633  -15.5339   21.6503 C   0  0  0  0  0  0  0  0  0  0  0  0
  -20.8321  -29.2140   21.8632 C   0  0  0  0  0  0  0  0  0  0  0  0
  -29.6042  -34.3642   23.5055 C   0  0  0  0  0  0  0  0  0  0  0  0
  -26.6654  -29.7292   19.2165 C   0  0  0  0  0  0  0  0  0  0  0  0
  -25.3174  -27.9253   21.1331 C   0  0  0  0  0  0  0  0  0  0  0  0
  -31.6661  -19.0408   19.3760 C   0  0  0  0  0  0  0  0  0  0  0  0
  -28.3893  -33.5132   23.8662 C   0  0  0  0  0  0  0  0  0  0  0  0
  -33.1840  -19.0698   19.2271 C   0  0  0  0  0  0  0  0  0  0  0  0
  -29.8711  -12.9788   19.1551 C   0  0  0  0  0  0  0  0  0  0  0  0
  -28.7605  -32.0338   23.8853 C   0  0  0  0  0  0  0  0  0  0  0  0
  -28.4493  -12.4520   19.3455 C   0  0  0  0  0  0  0  0  0  0  0  0
  -33.7390  -20.4851   19.2406 C   0  0  0  0  0  0  0  0  0  0  0  0
  -30.5011  -13.3790   20.4855 C   0  0  0  0  0  0  0  0  0  0  0  0
  -28.2736  -13.8417   21.4581 C   0  0  0  0  0  0  0  0  0  0  0  0
  -29.2345  -31.5660   22.5040 C   0  0  1  0  0  0  0  0  0  0  0  0
  -26.2409  -30.2031   20.6030 C   0  0  1  0  0  0  0  0  0  0  0  0
  -27.5894  -13.4548   20.1350 C   0  0  2  0  0  0  0  0  0  0  0  0
  -33.5347  -21.3853   22.8692 C   0  0  0  0  0  0  0  0  0  0  0  0
  -29.3196  -16.2390   23.8906 C   0  0  0  0  0  0  0  0  0  0  0  0
  -18.6866  -29.6428   23.0923 C   0  0  0  0  0  0  0  0  0  0  0  0
  -25.0578  -28.1606   24.1324 C   0  0  0  0  0  0  0  0  0  0  0  0
  -22.6557  -27.8740   24.7774 C   0  0  0  0  0  0  0  0  0  0  0  0
  -23.7169  -30.1284   24.8967 C   0  0  0  0  0  0  0  0  0  0  0  0
  -19.5579  -30.3901   19.4648 C   0  0  0  0  0  0  0  0  0  0  0  0
  -28.2932  -22.1219   17.8493 C   0  0  0  0  0  0  0  0  0  0  0  0
  -28.8841  -21.6663   19.1797 C   0  0  0  0  0  0  0  0  0  0  0  0
  -29.0785  -18.3207   20.7466 C   0  0  0  0  0  0  0  0  0  0  0  0
  -28.1883  -23.6401   17.7758 C   0  0  0  0  0  0  0  0  0  1  0  0
  -29.5256  -19.7622   20.4924 C   0  0  2  0  0  0  0  0  0  0  0  0
  -23.1875  -29.1258   22.6370 C   0  0  1  0  0  0  0  0  0  0  0  0
  -29.2185  -16.4462   22.3913 C   0  0  1  0  0  0  0  0  0  0  0  0
  -19.5835  -30.0739   21.9424 C   0  0  2  0  0  0  0  0  0  0  0  0
  -23.6632  -28.8161   24.0845 C   0  0  0  0  0  0  0  0  0  0  0  0
  -25.9911  -11.6130   20.5040 N   0  0  0  0  0  0  0  0  0  0  0  0
  -34.0371  -20.8909   20.6050 N   0  0  0  0  0  0  0  0  0  0  0  0
  -26.1808  -12.9353   20.3569 N   0  0  0  0  0  0  0  0  0  0  0  0
  -25.1659  -29.3891   21.1740 N   0  0  0  0  0  0  0  0  0  0  0  0
  -29.6435  -14.3147   21.2150 N   0  0  0  0  0  0  0  0  0  0  0  0
  -25.0433  -15.0122   20.3034 N   0  0  0  0  0  0  0  0  0  0  0  0
  -21.7265  -12.0251   20.9904 N   0  0  0  0  0  0  0  0  0  0  0  0
  -28.1039  -31.3629   21.6237 N   0  0  0  0  0  0  0  0  0  0  0  0
  -21.8814  -29.7717   22.5626 N   0  0  0  0  0  0  0  0  0  0  0  0
  -28.9535  -20.2108   19.2308 N   0  0  0  0  0  0  0  0  0  0  0  0
  -18.8046  -29.9740   20.6758 N   0  3  0  0  0  0  0  0  0  0  0  0
  -29.5564  -17.8599   22.0764 N   0  3  0  0  0  0  0  0  0  0  0  0
  -22.1982  -14.2514   20.7075 O   0  0  0  0  0  0  0  0  0  0  0  0
  -27.5653  -29.1936   22.2768 O   0  0  0  0  0  0  0  0  0  0  0  0
  -23.9929  -31.2486   21.9504 O   0  0  0  0  0  0  0  0  0  0  0  0
  -31.3273  -15.8970   21.4623 O   0  0  0  0  0  0  0  0  0  0  0  0
  -20.8713  -28.1519   21.2461 O   0  0  0  0  0  0  0  0  0  0  0  0
  -22.3090   -6.5022   21.4363 O   0  0  0  0  0  0  0  0  0  0  0  0
  -27.3523  -24.1194   18.8282 O   0  0  0  0  0  0  0  0  0  1  0  0
  -20.6677   -5.1971   26.5360 F   0  0  0  0  0  0  0  0  0  0  0  0
  -23.3534   -4.3010   22.7427 F   0  0  0  0  0  0  0  0  0  0  0  0
  1  2  1  0  0  0  0
  1  5  2  0  0  0  0
  2  6  2  0  0  0  0
  3  8  2  0  0  0  0
  3 15  1  0  0  0  0
  4  9  1  0  0  0  0
  4 15  2  0  0  0  0
  5 17  1  0  0  0  0
  6 19  1  0  0  0  0
  7 10  2  0  0  0  0
  7 18  1  0  0  0  0
  8 21  1  0  0  0  0
  9 21  2  0  0  0  0
 10 22  1  0  0  0  0
 11 12  2  0  0  0  0
 11 23  1  0  0  0  0
 12 24  1  0  0  0  0
 13 20  1  0  0  0  0
 13 22  2  0  0  0  0
 14 24  2  0  0  0  0
 14 25  1  0  0  0  0
 15 26  1  0  0  0  0
 16 26  1  0  0  0  0
 16 27  2  0  0  0  0
 16 31  1  0  0  0  0
 17 19  2  0  0  0  0
 17 36  1  0  0  0  0
 18 20  2  0  0  0  0
 18 37  1  0  0  0  0
 19 48  1  0  0  0  0
 20 38  1  0  0  0  0
 21 84  1  0  0  0  0
 22 85  1  0  0  0  0
 23 25  2  0  0  0  0
 23 84  1  0  0  0  0
 24 86  1  0  0  0  0
 25 87  1  0  0  0  0
 26 67  2  0  0  0  0
 27 69  1  0  0  0  0
 27 72  1  0  0  0  0
 28 29  2  0  0  0  0
 28 30  1  0  0  0  0
 29 39  1  0  0  0  0
 29 62  1  0  0  0  0
 30 51  1  0  0  0  0
 30 68  2  0  0  0  0
 31 73  1  0  0  0  0
 31 79  2  0  0  0  0
 32 49  1  0  0  0  0
 32 74  1  0  0  0  0
 32 80  2  0  0  0  0
 33 63  1  0  0  0  0
 33 70  1  0  0  0  0
 33 81  2  0  0  0  0
 34 64  1  0  0  0  0
 34 71  1  0  0  0  0
 34 82  2  0  0  0  0
 35 65  1  0  0  0  0
 35 75  1  0  0  0  0
 35 83  2  0  0  0  0
 36 40  1  0  0  0  0
 37 49  1  0  0  0  0
 38 70  1  0  0  0  0
 39 41  1  0  0  0  0
 40 43  1  0  0  0  0
 41 45  1  0  0  0  0
 42 44  1  0  0  0  0
 42 46  1  0  0  0  0
 43 48  1  0  0  0  0
 44 50  1  0  0  0  0
 45 68  1  0  0  0  0
 46 71  1  0  0  0  0
 47 50  1  0  0  0  0
 47 71  1  0  0  0  0
 48 74  1  0  0  0  0
 49 70  1  0  0  0  0
 50 69  1  0  0  0  0
 52 64  1  0  0  0  0
 53 65  1  0  0  0  0
 54 66  1  0  0  0  0
 55 66  1  0  0  0  0
 56 66  1  0  0  0  0
 57 77  1  0  0  0  0
 58 59  1  0  0  0  0
 58 61  1  0  0  0  0
 59 76  1  0  0  0  0
 60 62  1  0  0  0  0
 60 78  1  0  0  0  0
 61 85  1  0  0  0  0
 62 76  1  0  0  0  0
 63 66  1  0  0  0  0
 63 75  1  0  0  0  0
 64 78  1  0  0  0  0
 65 77  1  0  0  0  0
 67 69  1  0  0  0  0
M  CHG  2  77   1  78   1
M  ISO  4  34 100  61 101  64 100  85 101
M  END
> <Batch ID>
0134

> <Smiles>
CNC(C)C(=O)NC(C(=O)N1Cc2cc([101O:1][101CH2:1]CCNC(CN[100CH:0](C)[100C:0](=O)N3CCCC(n4nc(-c5ccc(Oc6ccc(F)cc6F)cc5)c(C(N)=O)c4N)C3)C3=CCCNC(C)=C3)ccc2CC1C(=O)NC1CCCc2ccccc21)C(C)(C)C

> <Shape>
0.322

> <Color>
0.171

> <Negative vol penalty>
0.000

$$$$

  -OEChem-04052320573D

 83 91  0     1  0  0  0  0  0999 V2000
  -28.7158  -36.0191   18.2299 C   0  0  0  0  0  0  0  0  0  0  0  0
  -28.6003  -34.6899   17.8358 C   0  0  0  0  0  0  0  0  0  0  0  0
  -23.0921   -9.9741   19.9147 C   0  0  0  0  0  0  0  0  0  0  0  0
  -23.8482   -9.9453   22.2092 C   0  0  0  0  0  0  0  0  0  0  0  0
  -28.6637  -36.3508   19.5831 C   0  0  0  0  0  0  0  0  0  0  0  0
  -28.4336  -33.6915   18.7949 C   0  0  0  0  0  0  0  0  0  0  0  0
  -25.1333  -28.5631   18.2353 C   0  0  0  0  0  0  0  0  0  0  0  0
  -29.3352  -20.2732   19.4420 C   0  0  0  0  0  0  0  0  0  0  0  0
  -27.1297  -19.6910   20.2382 C   0  0  0  0  0  0  0  0  0  0  0  0
  -22.3581   -8.8100   20.1420 C   0  0  0  0  0  0  0  0  0  0  0  0
  -23.1142   -8.7812   22.4365 C   0  0  0  0  0  0  0  0  0  0  0  0
  -25.4858  -27.2496   17.9281 C   0  0  0  0  0  0  0  0  0  0  0  0
  -28.7836  -21.2802   18.6502 C   0  0  0  0  0  0  0  0  0  0  0  0
  -26.5780  -20.6981   19.4463 C   0  0  0  0  0  0  0  0  0  0  0  0
  -19.4147   -7.9607   21.5731 C   0  0  0  0  0  0  0  0  0  0  0  0
  -18.1091   -7.9119   21.0848 C   0  0  0  0  0  0  0  0  0  0  0  0
  -25.5636  -26.7264   20.2817 C   0  0  0  0  0  0  0  0  0  0  0  0
  -18.6881   -5.9986   19.7278 C   0  0  0  0  0  0  0  0  0  0  0  0
  -23.8373  -10.5417   20.9483 C   0  0  0  0  0  0  0  0  0  0  0  0
  -24.1569  -13.0716   20.8755 C   0  0  0  0  0  0  0  0  0  0  0  0
  -28.4866  -35.3570   20.5586 C   0  0  0  0  0  0  0  0  0  0  0  0
  -25.0037  -28.9715   19.5705 C   0  0  0  0  0  0  0  0  0  0  0  0
  -28.3804  -34.0101   20.1625 C   0  0  0  0  0  0  0  0  0  0  0  0
  -25.2068  -28.0450   20.6031 C   0  0  0  0  0  0  0  0  0  0  0  0
  -28.5083  -19.4785   20.2360 C   0  0  0  0  0  0  0  0  0  0  0  0
  -22.3691   -8.2136   21.4029 C   0  0  0  0  0  0  0  0  0  0  0  0
  -27.4050  -21.4927   18.6523 C   0  0  0  0  0  0  0  0  0  0  0  0
  -25.7038  -26.3318   18.9514 C   0  0  0  0  0  0  0  0  0  0  0  0
  -20.3571   -7.0285   21.1388 C   0  0  0  0  0  0  0  0  0  0  0  0
  -17.7457   -6.9309   20.1622 C   0  0  0  0  0  0  0  0  0  0  0  0
  -19.9938   -6.0474   20.2162 C   0  0  0  0  0  0  0  0  0  0  0  0
  -24.5962  -11.7439   20.7140 C   0  0  0  0  0  0  0  0  0  0  0  0
  -25.2429  -13.8373   20.5281 C   0  0  0  0  0  0  0  0  0  0  0  0
  -22.8812  -13.5683   21.3017 C   0  0  0  0  0  0  0  0  0  0  0  0
  -26.4655  -31.1086   21.4144 C   0  0  0  0  0  0  0  0  0  0  0  0
  -24.1752  -30.2569   23.5478 C   0  0  0  0  0  0  0  0  0  0  0  0
  -21.9415  -27.9090   24.6177 C   0  0  0  0  0  0  0  0  0  0  0  0
  -30.7171  -14.9010   20.7449 C   0  0  0  0  0  0  0  0  0  0  0  0
  -28.4838  -35.7590   22.0123 C   0  0  0  0  0  0  0  0  0  0  0  0
  -24.5967  -30.3851   19.8846 C   0  0  0  0  0  0  0  0  0  0  0  0
  -25.0606  -28.4280   22.0524 C   0  0  0  0  0  0  0  0  0  0  0  0
  -27.9292  -34.6819   22.9410 C   0  0  0  0  0  0  0  0  0  0  0  0
  -29.6045  -12.5511   18.3125 C   0  0  0  0  0  0  0  0  0  0  0  0
  -28.5322  -33.3224   22.6018 C   0  0  0  0  0  0  0  0  0  0  0  0
  -28.1691  -12.2368   18.7374 C   0  0  0  0  0  0  0  0  0  0  0  0
  -30.5177  -12.7578   19.5189 C   0  0  0  0  0  0  0  0  0  0  0  0
  -28.6074  -13.4463   20.9154 C   0  0  0  0  0  0  0  0  0  0  0  0
  -28.1737  -32.9013   21.1715 C   0  0  1  0  0  0  0  0  0  0  0  0
  -24.9955  -30.8233   21.2904 C   0  0  1  0  0  0  0  0  0  0  0  0
  -27.6367  -13.2849   19.7330 C   0  0  2  0  0  0  0  0  0  0  0  0
  -20.2373  -27.4836   26.4100 C   0  0  0  0  0  0  0  0  0  0  0  0
  -26.4160  -29.7077   25.5446 C   0  0  0  0  0  0  0  0  0  0  0  0
  -24.7740  -28.4184   26.9266 C   0  0  0  0  0  0  0  0  0  0  0  0
  -24.4136  -30.8518   26.5122 C   0  0  0  0  0  0  0  0  0  0  0  0
  -19.7528  -27.6645   22.6406 C   0  0  0  0  0  0  0  0  0  0  0  0
  -30.4696  -18.1888   21.0819 C   0  0  0  0  0  0  0  0  0  0  0  0
  -30.7620  -17.0288   22.0215 C   0  0  0  0  0  0  0  0  0  0  0  0
  -27.6783  -23.6213   17.6275 C   0  0  0  0  0  0  0  0  0  0  0  0
  -26.7895  -24.8376   17.4532 C   0  0  0  0  0  0  0  0  0  1  0  0
  -24.0556  -29.2069   24.6259 C   0  0  1  0  0  0  0  0  0  0  0  0
  -20.4775  -28.0142   25.0052 C   0  0  2  0  0  0  0  0  0  0  0  0
  -24.9195  -29.5392   25.8752 C   0  0  0  0  0  0  0  0  0  0  0  0
  -25.8625  -11.6670   20.2962 N   0  0  0  0  0  0  0  0  0  0  0  0
  -26.2282  -12.9560   20.1923 N   0  0  0  0  0  0  0  0  0  0  0  0
  -24.6672  -29.8234   22.3086 N   0  0  0  0  0  0  0  0  0  0  0  0
  -29.9567  -13.7648   20.4228 N   0  0  0  0  0  0  0  0  0  0  0  0
  -25.4417  -15.1717   20.4801 N   0  0  0  0  0  0  0  0  0  0  0  0
  -21.8769  -12.6442   21.6203 N   0  0  0  0  0  0  0  0  0  0  0  0
  -29.0661  -18.4602   21.0367 N   0  0  0  0  0  0  0  0  0  0  0  0
  -26.8128  -32.4121   21.1148 N   0  0  0  0  0  0  0  0  0  0  0  0
  -22.6303  -29.0685   24.9046 N   0  0  0  0  0  0  0  0  0  0  0  0
  -30.1084  -15.8088   21.6029 N   0  0  0  0  0  0  0  0  0  0  0  0
  -19.6333  -27.2333   24.0572 N   0  3  0  0  0  0  0  0  0  0  0  0
  -22.6340  -14.7955   21.3813 O   0  0  0  0  0  0  0  0  0  0  0  0
  -27.2279  -30.2129   21.7580 O   0  0  0  0  0  0  0  0  0  0  0  0
  -23.8374  -31.4175   23.7940 O   0  0  0  0  0  0  0  0  0  0  0  0
  -22.4263  -26.8979   24.1145 O   0  0  0  0  0  0  0  0  0  0  0  0
  -31.8522  -15.0949   20.2966 O   0  0  0  0  0  0  0  0  0  0  0  0
  -21.6528   -7.0778   21.6251 O   0  0  0  0  0  0  0  0  0  0  0  0
  -26.8632  -22.4819   17.8745 O   0  0  0  0  0  0  0  0  0  0  0  0
  -26.0486  -25.0493   18.6543 O   0  0  0  0  0  0  0  0  0  1  0  0
  -16.4915   -6.8832   19.6945 F   0  0  0  0  0  0  0  0  0  0  0  0
  -20.8944   -5.1485   19.7961 F   0  0  0  0  0  0  0  0  0  0  0  0
  1  2  1  0  0  0  0
  1  5  2  0  0  0  0
  2  6  2  0  0  0  0
  3 10  2  0  0  0  0
  3 19  1  0  0  0  0
  4 11  1  0  0  0  0
  4 19  2  0  0  0  0
  5 21  1  0  0  0  0
  6 23  1  0  0  0  0
  7 12  2  0  0  0  0
  7 22  1  0  0  0  0
  8 13  2  0  0  0  0
  8 25  1  0  0  0  0
  9 14  1  0  0  0  0
  9 25  2  0  0  0  0
 10 26  1  0  0  0  0
 11 26  2  0  0  0  0
 12 28  1  0  0  0  0
 13 27  1  0  0  0  0
 14 27  2  0  0  0  0
 15 16  2  0  0  0  0
 15 29  1  0  0  0  0
 16 30  1  0  0  0  0
 17 24  1  0  0  0  0
 17 28  2  0  0  0  0
 18 30  2  0  0  0  0
 18 31  1  0  0  0  0
 19 32  1  0  0  0  0
 20 32  1  0  0  0  0
 20 33  2  0  0  0  0
 20 34  1  0  0  0  0
 21 23  2  0  0  0  0
 21 39  1  0  0  0  0
 22 24  2  0  0  0  0
 22 40  1  0  0  0  0
 23 48  1  0  0  0  0
 24 41  1  0  0  0  0
 25 69  1  0  0  0  0
 26 79  1  0  0  0  0
 27 80  1  0  0  0  0
 28 81  1  0  0  0  0
 29 31  2  0  0  0  0
 29 79  1  0  0  0  0
 30 82  1  0  0  0  0
 31 83  1  0  0  0  0
 32 63  2  0  0  0  0
 33 64  1  0  0  0  0
 33 67  1  0  0  0  0
 34 68  1  0  0  0  0
 34 74  2  0  0  0  0
 35 49  1  0  0  0  0
 35 70  1  0  0  0  0
 35 75  2  0  0  0  0
 36 60  1  0  0  0  0
 36 65  1  0  0  0  0
 36 76  2  0  0  0  0
 37 61  1  0  0  0  0
 37 71  1  0  0  0  0
 37 77  2  0  0  0  0
 38 66  1  0  0  0  0
 38 72  1  0  0  0  0
 38 78  2  0  0  0  0
 39 42  1  0  0  0  0
 40 49  1  0  0  0  0
 41 65  1  0  0  0  0
 42 44  1  0  0  0  0
 43 45  1  0  0  0  0
 43 46  1  0  0  0  0
 44 48  1  0  0  0  0
 45 50  1  0  0  0  0
 46 66  1  0  0  0  0
 47 50  1  0  0  0  0
 47 66  1  0  0  0  0
 48 70  1  0  0  0  0
 49 65  1  0  0  0  0
 50 64  1  0  0  0  0
 51 61  1  0  0  0  0
 52 62  1  0  0  0  0
 53 62  1  0  0  0  0
 54 62  1  0  0  0  0
 55 73  1  0  0  0  0
 56 57  1  0  0  0  0
 56 69  1  0  0  0  0
 57 72  1  0  0  0  0
 58 59  1  0  0  0  0
 58 80  1  0  0  0  0
 59 81  1  0  0  0  0
 60 62  1  0  0  0  0
 60 71  1  0  0  0  0
 61 73  1  0  0  0  0
 63 64  1  0  0  0  0
M  CHG  1  73   1
M  ISO  4  38 100  59 101  72 100  81 101
M  END
> <Batch ID>
0134

> <Smiles>
CNC(C)C(=O)NC(C(=O)N1Cc2cc([101O:1][101CH2:1]COc3ccc(NCC[100NH:0][100C:0](=O)N4CCCC(n5nc(-c6ccc(Oc7ccc(F)cc7F)cc6)c(C(N)=O)c5N)C4)cc3)ccc2CC1C(=O)NC1CCCc2ccccc21)C(C)(C)C

> <Shape>
0.303

> <Color>
0.224

> <Negative vol penalty>
0.000

$$$$

  -OEChem-04052320573D

 85 94  0     1  0  0  0  0  0999 V2000
  -21.7428  -18.3969   22.2756 C   0  0  0  0  0  0  0  0  0  0  0  0
  -22.8171  -19.2807   22.2608 C   0  0  0  0  0  0  0  0  0  0  0  0
  -23.0546   -9.7922   19.9660 C   0  0  0  0  0  0  0  0  0  0  0  0
  -23.7274   -9.9092   22.2834 C   0  0  0  0  0  0  0  0  0  0  0  0
  -20.5090  -18.7926   21.7608 C   0  0  0  0  0  0  0  0  0  0  0  0
  -22.6585  -20.5604   21.7301 C   0  0  0  0  0  0  0  0  0  0  0  0
  -31.2790  -19.0317   20.4994 C   0  0  0  0  0  0  0  0  0  0  0  0
  -29.5822  -19.3034   22.1977 C   0  0  0  0  0  0  0  0  0  0  0  0
  -24.7363  -24.1433   24.6440 C   0  0  0  0  0  0  0  0  0  0  0  0
  -31.1100  -17.6482   20.5518 C   0  0  0  0  0  0  0  0  0  0  0  0
  -29.4131  -17.9199   22.2501 C   0  0  0  0  0  0  0  0  0  0  0  0
  -22.3002   -8.6520   20.2425 C   0  0  0  0  0  0  0  0  0  0  0  0
  -22.9729   -8.7691   22.5601 C   0  0  0  0  0  0  0  0  0  0  0  0
  -26.1206  -24.2950   24.5770 C   0  0  0  0  0  0  0  0  0  0  0  0
  -21.5136   -5.6817   23.8044 C   0  0  0  0  0  0  0  0  0  0  0  0
  -22.0985   -4.6936   24.5964 C   0  0  0  0  0  0  0  0  0  0  0  0
  -25.8364  -26.1813   23.1005 C   0  0  0  0  0  0  0  0  0  0  0  0
  -23.8653   -4.4350   22.9689 C   0  0  0  0  0  0  0  0  0  0  0  0
  -23.7683  -10.4207   20.9864 C   0  0  0  0  0  0  0  0  0  0  0  0
  -24.1180  -12.9374   20.7587 C   0  0  0  0  0  0  0  0  0  0  0  0
  -30.5152  -19.8594   21.3224 C   0  0  0  0  0  0  0  0  0  0  0  0
  -20.3325  -20.0811   21.2324 C   0  0  0  0  0  0  0  0  0  0  0  0
  -23.8906  -25.0042   23.9299 C   0  0  0  0  0  0  0  0  0  0  0  0
  -21.4215  -20.9733   21.2066 C   0  0  0  0  0  0  0  0  0  0  0  0
  -24.4416  -26.0401   23.1622 C   0  0  0  0  0  0  0  0  0  0  0  0
  -30.1770  -17.0922   21.4271 C   0  0  0  0  0  0  0  0  0  0  0  0
  -22.2593   -8.1405   21.5396 C   0  0  0  0  0  0  0  0  0  0  0  0
  -26.6710  -25.3123   23.8028 C   0  0  0  0  0  0  0  0  0  0  0  0
  -22.1045   -6.0464   22.5947 C   0  0  0  0  0  0  0  0  0  0  0  0
  -23.2744   -4.0703   24.1787 C   0  0  0  0  0  0  0  0  0  0  0  0
  -23.2804   -5.4231   22.1769 C   0  0  0  0  0  0  0  0  0  0  0  0
  -24.5482  -11.5982   20.7012 C   0  0  0  0  0  0  0  0  0  0  0  0
  -25.2241  -13.6690   20.4015 C   0  0  0  0  0  0  0  0  0  0  0  0
  -22.8333  -13.4722   21.1042 C   0  0  0  0  0  0  0  0  0  0  0  0
  -21.7542  -24.6315   21.6059 C   0  0  0  0  0  0  0  0  0  0  0  0
  -21.1874  -27.7781   22.1534 C   0  0  0  0  0  0  0  0  0  0  0  0
  -22.3385  -30.7673   23.3310 C   0  0  0  0  0  0  0  0  0  0  0  0
  -30.6813  -14.7239   20.7323 C   0  0  0  0  0  0  0  0  0  0  0  0
  -18.9929  -20.4473   20.6441 C   0  0  0  0  0  0  0  0  0  0  0  0
  -22.3986  -24.8440   24.0340 C   0  0  0  0  0  0  0  0  0  0  0  0
  -23.5766  -27.0035   22.3928 C   0  0  0  0  0  0  0  0  0  0  0  0
  -18.8065  -21.9488   20.4415 C   0  0  0  0  0  0  0  0  0  0  0  0
  -29.6537  -12.1990   18.4418 C   0  0  0  0  0  0  0  0  0  0  0  0
  -20.0401  -22.5553   19.7802 C   0  0  0  0  0  0  0  0  0  0  0  0
  -28.1984  -11.9278   18.8302 C   0  0  0  0  0  0  0  0  0  0  0  0
  -29.3862  -22.0221   20.8372 C   0  0  0  0  0  0  0  0  0  0  0  0
  -31.1588  -21.8735   22.6324 C   0  0  0  0  0  0  0  0  0  0  0  0
  -30.5231  -12.4854   19.6649 C   0  0  0  0  0  0  0  0  0  0  0  0
  -28.5664  -13.2745   20.9368 C   0  0  0  0  0  0  0  0  0  0  0  0
  -29.5142  -23.5400   20.8502 C   0  0  0  0  0  0  0  0  0  0  0  0
  -31.2734  -23.3925   22.6314 C   0  0  0  0  0  0  0  0  0  0  0  0
  -30.6964  -21.3420   21.2661 C   0  0  0  0  0  0  0  0  0  0  0  0
  -21.2821  -22.3783   20.6620 C   0  0  1  0  0  0  0  0  0  0  0  0
  -21.6481  -25.4580   22.8563 C   0  0  1  0  0  0  0  0  0  0  0  0
  -27.6385  -13.0446   19.7328 C   0  0  2  0  0  0  0  0  0  0  0  0
  -21.6610  -33.1674   23.6099 C   0  0  0  0  0  0  0  0  0  0  0  0
  -21.6400  -28.2497   19.1730 C   0  0  0  0  0  0  0  0  0  0  0  0
  -21.8951  -30.6904   19.6689 C   0  0  0  0  0  0  0  0  0  0  0  0
  -19.7362  -29.5395   20.1559 C   0  0  0  0  0  0  0  0  0  0  0  0
  -22.6103  -30.6229   26.2745 C   0  0  0  0  0  0  0  0  0  0  0  0
  -29.9706  -25.4961   22.3267 C   0  0  0  0  0  0  0  0  0  0  0  0
  -28.5557  -26.0020   22.5268 C   0  0  0  0  0  0  0  0  0  1  0  0
  -21.7461  -29.0741   21.6173 C   0  0  1  0  0  0  0  0  0  0  0  0
  -21.7125  -31.7929   24.2587 C   0  0  2  0  0  0  0  0  0  0  0  0
  -21.2710  -29.3692   20.1666 C   0  0  0  0  0  0  0  0  0  0  0  0
  -25.8278  -11.4829   20.3361 N   0  0  0  0  0  0  0  0  0  0  0  0
  -26.2111  -12.7590   20.1608 N   0  0  0  0  0  0  0  0  0  0  0  0
  -22.1239  -26.8018   22.5215 N   0  0  0  0  0  0  0  0  0  0  0  0
  -29.9329  -13.5569   20.4702 N   0  0  0  0  0  0  0  0  0  0  0  0
  -25.4391  -14.9955   20.2728 N   0  0  0  0  0  0  0  0  0  0  0  0
  -21.8081  -12.5798   21.4461 N   0  0  0  0  0  0  0  0  0  0  0  0
  -30.0049  -15.6868   21.4804 N   0  0  0  0  0  0  0  0  0  0  0  0
  -21.2768  -23.3419   21.7418 N   0  0  0  0  0  0  0  0  0  0  0  0
  -21.3866  -30.1049   22.5852 N   0  0  0  0  0  0  0  0  0  0  0  0
  -29.9515  -24.0151   22.2229 N   0  3  0  0  0  0  0  0  0  0  0  0
  -22.4984  -31.8980   25.5205 N   0  3  0  0  0  0  0  0  0  0  0  0
  -22.5968  -14.7040   21.0936 O   0  0  0  0  0  0  0  0  0  0  0  0
  -22.2324  -25.1276   20.5926 O   0  0  0  0  0  0  0  0  0  0  0  0
  -19.9654  -27.6400   22.2488 O   0  0  0  0  0  0  0  0  0  0  0  0
  -23.5511  -30.5757   23.2711 O   0  0  0  0  0  0  0  0  0  0  0  0
  -31.8275  -14.8704   20.3001 O   0  0  0  0  0  0  0  0  0  0  0  0
  -21.5231   -7.0281   21.8099 O   0  0  0  0  0  0  0  0  0  0  0  0
  -28.0218  -25.4621   23.7351 O   0  0  0  0  0  0  0  0  0  1  0  0
  -23.8368   -3.1226   24.9400 F   0  0  0  0  0  0  0  0  0  0  0  0
  -23.8533   -5.7701   21.0163 F   0  0  0  0  0  0  0  0  0  0  0  0
  1  2  1  0  0  0  0
  1  5  2  0  0  0  0
  2  6  2  0  0  0  0
  3 12  2  0  0  0  0
  3 19  1  0  0  0  0
  4 13  1  0  0  0  0
  4 19  2  0  0  0  0
  5 22  1  0  0  0  0
  6 24  1  0  0  0  0
  7 10  2  0  0  0  0
  7 21  1  0  0  0  0
  8 11  1  0  0  0  0
  8 21  2  0  0  0  0
  9 14  2  0  0  0  0
  9 23  1  0  0  0  0
 10 26  1  0  0  0  0
 11 26  2  0  0  0  0
 12 27  1  0  0  0  0
 13 27  2  0  0  0  0
 14 28  1  0  0  0  0
 15 16  2  0  0  0  0
 15 29  1  0  0  0  0
 16 30  1  0  0  0  0
 17 25  1  0  0  0  0
 17 28  2  0  0  0  0
 18 30  2  0  0  0  0
 18 31  1  0  0  0  0
 19 32  1  0  0  0  0
 20 32  1  0  0  0  0
 20 33  2  0  0  0  0
 20 34  1  0  0  0  0
 21 52  1  0  0  0  0
 22 24  2  0  0  0  0
 22 39  1  0  0  0  0
 23 25  2  0  0  0  0
 23 40  1  0  0  0  0
 24 53  1  0  0  0  0
 25 41  1  0  0  0  0
 26 72  1  0  0  0  0
 27 82  1  0  0  0  0
 28 83  1  0  0  0  0
 29 31  2  0  0  0  0
 29 82  1  0  0  0  0
 30 84  1  0  0  0  0
 31 85  1  0  0  0  0
 32 66  2  0  0  0  0
 33 67  1  0  0  0  0
 33 70  1  0  0  0  0
 34 71  1  0  0  0  0
 34 77  2  0  0  0  0
 35 54  1  0  0  0  0
 35 73  1  0  0  0  0
 35 78  2  0  0  0  0
 36 63  1  0  0  0  0
 36 68  1  0  0  0  0
 36 79  2  0  0  0  0
 37 64  1  0  0  0  0
 37 74  1  0  0  0  0
 37 80  2  0  0  0  0
 38 69  1  0  0  0  0
 38 72  1  0  0  0  0
 38 81  2  0  0  0  0
 39 42  1  0  0  0  0
 40 54  1  0  0  0  0
 41 68  1  0  0  0  0
 42 44  1  0  0  0  0
 43 45  1  0  0  0  0
 43 48  1  0  0  0  0
 44 53  1  0  0  0  0
 45 55  1  0  0  0  0
 46 50  1  0  0  0  0
 46 52  1  0  0  0  0
 47 51  1  0  0  0  0
 47 52  1  0  0  0  0
 48 69  1  0  0  0  0
 49 55  1  0  0  0  0
 49 69  1  0  0  0  0
 50 75  1  0  0  0  0
 51 75  1  0  0  0  0
 53 73  1  0  0  0  0
 54 68  1  0  0  0  0
 55 67  1  0  0  0  0
 56 64  1  0  0  0  0
 57 65  1  0  0  0  0
 58 65  1  0  0  0  0
 59 65  1  0  0  0  0
 60 76  1  0  0  0  0
 61 62  1  0  0  0  0
 61 75  1  0  0  0  0
 62 83  1  0  0  0  0
 63 65  1  0  0  0  0
 63 74  1  0  0  0  0
 64 76  1  0  0  0  0
 66 67  1  0  0  0  0
M  CHG  2  75   1  76   1
M  ISO  4  38 100  62 101  72 100  83 101
M  END
> <Batch ID>
0134

> <Smiles>
CNC(C)C(=O)NC(C(=O)N1Cc2cc([101O:1][101CH2:1]CN3CCC(c4ccc([100NH:0][100C:0](=O)N5CCCC(n6nc(-c7ccc(Oc8ccc(F)cc8F)cc7)c(C(N)=O)c6N)C5)cc4)CC3)ccc2CC1C(=O)NC1CCCc2ccccc21)C(C)(C)C

> <Shape>
0.255

> <Color>
0.208

> <Negative vol penalty>
0.000

$$$$

  -OEChem-04052320573D

 85 93  0     1  0  0  0  0  0999 V2000
  -19.2974  -24.1920   22.8886 C   0  0  0  0  0  0  0  0  0  0  0  0
  -20.6263  -24.3819   22.5232 C   0  0  0  0  0  0  0  0  0  0  0  0
  -24.1170  -13.3983   20.1121 C   0  0  0  0  0  0  0  0  0  0  0  0
  -26.3850  -13.4658   20.9419 C   0  0  0  0  0  0  0  0  0  0  0  0
  -18.4216  -25.2765   22.9169 C   0  0  0  0  0  0  0  0  0  0  0  0
  -21.0798  -25.6564   22.1849 C   0  0  0  0  0  0  0  0  0  0  0  0
  -25.5383  -26.7613   24.3171 C   0  0  0  0  0  0  0  0  0  0  0  0
  -24.1624  -12.0042   20.1014 C   0  0  0  0  0  0  0  0  0  0  0  0
  -26.4304  -12.0717   20.9313 C   0  0  0  0  0  0  0  0  0  0  0  0
  -26.6776  -26.2088   23.7334 C   0  0  0  0  0  0  0  0  0  0  0  0
  -23.8949   -9.4859   22.3418 C   0  0  0  0  0  0  0  0  0  0  0  0
  -22.7975   -8.7976   22.8590 C   0  0  0  0  0  0  0  0  0  0  0  0
  -27.1122  -28.3015   22.6151 C   0  0  0  0  0  0  0  0  0  0  0  0
  -22.4571   -7.7315   20.7178 C   0  0  0  0  0  0  0  0  0  0  0  0
  -25.2283  -14.1291   20.5323 C   0  0  0  0  0  0  0  0  0  0  0  0
  -24.7699  -16.3986   21.6032 C   0  0  0  0  0  0  0  0  0  0  0  0
  -18.8670  -26.5665   22.5881 C   0  0  0  0  0  0  0  0  0  0  0  0
  -25.1708  -28.0869   24.0451 C   0  0  0  0  0  0  0  0  0  0  0  0
  -20.2088  -26.7589   22.2076 C   0  0  0  0  0  0  0  0  0  0  0  0
  -25.9693  -28.8693   23.1986 C   0  0  0  0  0  0  0  0  0  0  0  0
  -25.3191  -11.3409   20.5110 C   0  0  0  0  0  0  0  0  0  0  0  0
  -27.4631  -26.9780   22.8800 C   0  0  0  0  0  0  0  0  0  0  0  0
  -24.2734   -9.2971   21.0126 C   0  0  0  0  0  0  0  0  0  0  0  0
  -22.0786   -7.9204   22.0470 C   0  0  0  0  0  0  0  0  0  0  0  0
  -23.5546   -8.4198   20.2006 C   0  0  0  0  0  0  0  0  0  0  0  0
  -25.1823  -15.5692   20.5431 C   0  0  0  0  0  0  0  0  0  0  0  0
  -24.9112  -17.6748   21.1156 C   0  0  0  0  0  0  0  0  0  0  0  0
  -24.3011  -16.0469   22.9117 C   0  0  0  0  0  0  0  0  0  0  0  0
  -22.6525  -29.4860   22.7019 C   0  0  0  0  0  0  0  0  0  0  0  0
  -24.1510  -32.2047   23.6428 C   0  0  0  0  0  0  0  0  0  0  0  0
  -27.0677  -33.7599   24.4921 C   0  0  0  0  0  0  0  0  0  0  0  0
  -28.4356  -19.9253   16.9479 C   0  0  0  0  0  0  0  0  0  0  0  0
  -17.8719  -27.6998   22.5875 C   0  0  0  0  0  0  0  0  0  0  0  0
  -23.9538  -28.6764   24.7036 C   0  0  0  0  0  0  0  0  0  0  0  0
  -25.6294  -30.3038   22.8902 C   0  0  0  0  0  0  0  0  0  0  0  0
  -18.5218  -29.0810   22.5772 C   0  0  0  0  0  0  0  0  0  0  0  0
  -24.8242  -20.1498   17.0199 C   0  0  0  0  0  0  0  0  0  0  0  0
  -19.6353  -29.1393   21.5362 C   0  0  0  0  0  0  0  0  0  0  0  0
  -24.4726  -19.0680   18.0428 C   0  0  0  0  0  0  0  0  0  0  0  0
  -26.0034  -19.7253   16.1496 C   0  0  0  0  0  0  0  0  0  0  0  0
  -28.4762  -24.6484   17.5931 C   0  0  0  0  0  0  0  0  0  0  0  0
  -26.8786  -18.2685   17.9344 C   0  0  0  0  0  0  0  0  0  0  0  0
  -30.1549  -23.2058   18.5582 C   0  0  0  0  0  0  0  0  0  0  0  0
  -27.8155  -24.8643   18.9496 C   0  0  0  0  0  0  0  0  0  0  0  0
  -20.7445  -28.1304   21.8578 C   0  0  1  0  0  0  0  0  0  0  0  0
  -23.3899  -29.8777   23.9511 C   0  0  1  0  0  0  0  0  0  0  0  0
  -25.7082  -18.6469   18.8601 C   0  0  2  0  0  0  0  0  0  0  0  0
  -29.5792  -23.3671   19.9715 C   0  0  2  0  0  0  0  0  0  0  0  0
  -27.6175  -20.9845   22.3100 C   0  0  0  0  0  0  0  0  0  0  0  0
  -27.9819  -35.9945   25.1765 C   0  0  0  0  0  0  0  0  0  0  0  0
  -30.4222  -21.3850   14.4607 C   0  0  0  0  0  0  0  0  0  0  0  0
  -23.9320  -33.1751   20.7583 C   0  0  0  0  0  0  0  0  0  0  0  0
  -25.6524  -34.9155   21.2866 C   0  0  0  0  0  0  0  0  0  0  0  0
  -23.4647  -34.9227   22.4852 C   0  0  0  0  0  0  0  0  0  0  0  0
  -28.0229  -32.7043   27.0867 C   0  0  0  0  0  0  0  0  0  0  0  0
  -28.6662  -22.2115   20.3837 C   0  0  0  0  0  0  0  0  0  0  0  0
  -28.5457  -22.1169   21.9007 C   0  0  0  0  0  0  0  0  0  0  0  0
  -29.7013  -23.1189   16.1930 C   0  0  0  0  0  0  0  0  0  0  0  0
  -29.7083  -25.8731   20.2649 C   0  0  0  0  0  0  0  0  0  0  0  0
  -28.9554  -26.9446   21.0286 C   0  0  0  0  0  0  0  0  0  1  0  0
  -25.1679  -33.1337   23.0248 C   0  0  1  0  0  0  0  0  0  0  0  0
  -27.4247  -34.6639   25.6581 C   0  0  2  0  0  0  0  0  0  0  0  0
  -29.8771  -21.6303   15.8652 C   0  0  1  0  0  0  0  0  0  0  0  0
  -24.5598  -34.0092   21.8928 C   0  0  0  0  0  0  0  0  0  0  0  0
  -25.5572  -16.2604   19.4634 N   0  0  0  0  0  0  0  0  0  0  0  0
  -25.3810  -17.5376   19.8425 N   0  0  0  0  0  0  0  0  0  0  0  0
  -24.4262  -30.8328   23.5535 N   0  0  0  0  0  0  0  0  0  0  0  0
  -27.1524  -19.3551   16.9880 N   0  0  0  0  0  0  0  0  0  0  0  0
  -29.1242  -23.3334   17.5197 N   0  0  2  0  0  0  0  0  0  0  0  0
  -24.6781  -18.8898   21.6558 N   0  0  0  0  0  0  0  0  0  0  0  0
  -24.2174  -14.6891   23.2488 N   0  0  0  0  0  0  0  0  0  0  0  0
  -21.5898  -28.6303   22.9207 N   0  0  0  0  0  0  0  0  0  0  0  0
  -25.7455  -33.8971   24.1256 N   0  0  0  0  0  0  0  0  0  0  0  0
  -28.6139  -20.9435   16.0193 N   0  0  0  0  0  0  0  0  0  0  0  0
  -28.8109  -24.6768   20.0706 N   0  3  1  0  0  0  0  0  0  0  0  0
  -28.4473  -34.0123   26.5246 N   0  3  0  0  0  0  0  0  0  0  0  0
  -23.9508  -16.9107   23.7512 O   0  0  0  0  0  0  0  0  0  0  0  0
  -23.0195  -29.9287   21.6197 O   0  0  0  0  0  0  0  0  0  0  0  0
  -23.1531  -32.6791   24.1911 O   0  0  0  0  0  0  0  0  0  0  0  0
  -27.8813  -33.0100   23.9572 O   0  0  0  0  0  0  0  0  0  0  0  0
  -29.3537  -19.5579   17.6890 O   0  0  0  0  0  0  0  0  0  0  0  0
  -25.3636   -9.9806   20.5009 O   0  0  0  0  0  0  0  0  0  0  0  0
  -28.5752  -26.4410   22.3085 O   0  0  0  0  0  0  0  0  0  1  0  0
  -21.0257   -7.2583   22.5442 F   0  0  0  0  0  0  0  0  0  0  0  0
  -23.9142   -8.2334   18.9232 F   0  0  0  0  0  0  0  0  0  0  0  0
  1  2  1  0  0  0  0
  1  5  2  0  0  0  0
  2  6  2  0  0  0  0
  3  8  2  0  0  0  0
  3 15  1  0  0  0  0
  4  9  1  0  0  0  0
  4 15  2  0  0  0  0
  5 17  1  0  0  0  0
  6 19  1  0  0  0  0
  7 10  2  0  0  0  0
  7 18  1  0  0  0  0
  8 21  1  0  0  0  0
  9 21  2  0  0  0  0
 10 22  1  0  0  0  0
 11 12  2  0  0  0  0
 11 23  1  0  0  0  0
 12 24  1  0  0  0  0
 13 20  1  0  0  0  0
 13 22  2  0  0  0  0
 14 24  2  0  0  0  0
 14 25  1  0  0  0  0
 15 26  1  0  0  0  0
 16 26  1  0  0  0  0
 16 27  2  0  0  0  0
 16 28  1  0  0  0  0
 17 19  2  0  0  0  0
 17 33  1  0  0  0  0
 18 20  2  0  0  0  0
 18 34  1  0  0  0  0
 19 45  1  0  0  0  0
 20 35  1  0  0  0  0
 21 82  1  0  0  0  0
 22 83  1  0  0  0  0
 23 25  2  0  0  0  0
 23 82  1  0  0  0  0
 24 84  1  0  0  0  0
 25 85  1  0  0  0  0
 26 65  2  0  0  0  0
 27 66  1  0  0  0  0
 27 70  1  0  0  0  0
 28 71  1  0  0  0  0
 28 77  2  0  0  0  0
 29 46  1  0  0  0  0
 29 72  1  0  0  0  0
 29 78  2  0  0  0  0
 30 61  1  0  0  0  0
 30 67  1  0  0  0  0
 30 79  2  0  0  0  0
 31 62  1  0  0  0  0
 31 73  1  0  0  0  0
 31 80  2  0  0  0  0
 32 68  1  0  0  0  0
 32 74  1  0  0  0  0
 32 81  2  0  0  0  0
 33 36  1  0  0  0  0
 34 46  1  0  0  0  0
 35 67  1  0  0  0  0
 36 38  1  0  0  0  0
 37 39  1  0  0  0  0
 37 40  1  0  0  0  0
 38 45  1  0  0  0  0
 39 47  1  0  0  0  0
 40 68  1  0  0  0  0
 41 44  1  0  0  0  0
 41 69  1  0  0  0  0
 42 47  1  0  0  0  0
 42 68  1  0  0  0  0
 43 48  1  0  0  0  0
 43 69  1  0  0  0  0
 44 75  1  0  0  0  0
 45 72  1  0  0  0  0
 46 67  1  0  0  0  0
 47 66  1  0  0  0  0
 48 56  1  0  0  0  0
 48 75  1  0  0  0  0
 49 57  1  0  0  0  0
 50 62  1  0  0  0  0
 51 63  1  0  0  0  0
 52 64  1  0  0  0  0
 53 64  1  0  0  0  0
 54 64  1  0  0  0  0
 55 76  1  0  0  0  0
 56 57  1  0  0  0  0
 58 63  1  0  0  0  0
 58 69  1  0  0  0  0
 59 60  1  0  0  0  0
 59 75  1  0  0  0  0
 60 83  1  0  0  0  0
 61 64  1  0  0  0  0
 61 73  1  0  0  0  0
 62 76  1  0  0  0  0
 63 74  1  0  0  0  0
 65 66  1  0  0  0  0
M  CHG  2  75   1  76   1
M  ISO  4  32 100  60 101  74 100  83 101
M  END
> <Batch ID>
0134

> <Smiles>
CCCC1CN(CC(C)[100NH:0][100C:0](=O)N2CCCC(n3nc(-c4ccc(Oc5ccc(F)cc5F)cc4)c(C(N)=O)c3N)C2)CCN1C[101CH2:1][101O:1]c1ccc2c(c1)CN(C(=O)C(NC(=O)C(C)NC)C(C)(C)C)C(C(=O)NC1CCCc3ccccc31)C2

> <Shape>
0.266

> <Color>
0.085

> <Negative vol penalty>
0.000

$$$$

  -OEChem-04052320573D

 85 94  0     1  0  0  0  0  0999 V2000
  -19.0183  -32.7635   19.7666 C   0  0  0  0  0  0  0  0  0  0  0  0
  -20.3181  -32.3627   19.4747 C   0  0  0  0  0  0  0  0  0  0  0  0
  -24.3966  -13.9627   20.9437 C   0  0  0  0  0  0  0  0  0  0  0  0
  -26.6709  -13.5758   20.2262 C   0  0  0  0  0  0  0  0  0  0  0  0
  -18.4575  -32.4580   21.0060 C   0  0  0  0  0  0  0  0  0  0  0  0
  -21.0584  -31.6571   20.4226 C   0  0  0  0  0  0  0  0  0  0  0  0
  -25.1620  -27.2405   19.3456 C   0  0  0  0  0  0  0  0  0  0  0  0
  -24.0564  -12.6639   20.5659 C   0  0  0  0  0  0  0  0  0  0  0  0
  -26.3307  -12.2769   19.8484 C   0  0  0  0  0  0  0  0  0  0  0  0
  -26.5544  -27.2505   19.2762 C   0  0  0  0  0  0  0  0  0  0  0  0
  -22.6741   -9.3308   20.1241 C   0  0  0  0  0  0  0  0  0  0  0  0
  -21.8963   -8.5814   21.0066 C   0  0  0  0  0  0  0  0  0  0  0  0
  -26.6683  -26.5435   21.5798 C   0  0  0  0  0  0  0  0  0  0  0  0
  -31.2153  -23.1734   19.6755 C   0  0  0  0  0  0  0  0  0  0  0  0
  -23.6124   -8.7881   22.6947 C   0  0  0  0  0  0  0  0  0  0  0  0
  -33.2036  -23.3468   20.9690 C   0  0  0  0  0  0  0  0  0  0  0  0
  -25.7038  -14.4188   20.7738 C   0  0  0  0  0  0  0  0  0  0  0  0
  -26.5249  -16.1853   22.4209 C   0  0  0  0  0  0  0  0  0  0  0  0
  -19.1879  -31.7399   21.9660 C   0  0  0  0  0  0  0  0  0  0  0  0
  -24.5113  -26.8918   20.5378 C   0  0  0  0  0  0  0  0  0  0  0  0
  -20.5074  -31.3429   21.6765 C   0  0  0  0  0  0  0  0  0  0  0  0
  -25.2675  -26.5273   21.6609 C   0  0  0  0  0  0  0  0  0  0  0  0
  -32.4746  -23.7344   19.8563 C   0  0  0  0  0  0  0  0  0  0  0  0
  -30.7303  -22.2548   20.5998 C   0  0  0  0  0  0  0  0  0  0  0  0
  -25.0235  -11.8209   20.0182 C   0  0  0  0  0  0  0  0  0  0  0  0
  -27.3078  -26.9048   20.3942 C   0  0  0  0  0  0  0  0  0  0  0  0
  -23.9212   -9.8088   20.5268 C   0  0  0  0  0  0  0  0  0  0  0  0
  -22.3654   -8.3101   22.2919 C   0  0  0  0  0  0  0  0  0  0  0  0
  -24.3903   -9.5375   21.8121 C   0  0  0  0  0  0  0  0  0  0  0  0
  -26.0557  -15.7606   21.1634 C   0  0  0  0  0  0  0  0  0  0  0  0
  -31.5375  -21.9333   21.6791 C   0  0  0  0  0  0  0  0  0  0  0  0
  -26.7111  -17.5387   22.2787 C   0  0  0  0  0  0  0  0  0  0  0  0
  -26.7704  -15.4245   23.6111 C   0  0  0  0  0  0  0  0  0  0  0  0
  -22.5478  -28.3863   22.5416 C   0  0  0  0  0  0  0  0  0  0  0  0
  -22.3919  -25.4681   23.9494 C   0  0  0  0  0  0  0  0  0  0  0  0
  -23.8543  -22.4335   24.4966 C   0  0  0  0  0  0  0  0  0  0  0  0
  -28.5494  -21.9247   19.3828 C   0  0  0  0  0  0  0  0  0  0  0  0
  -18.5562  -31.4742   23.3095 C   0  0  0  0  0  0  0  0  0  0  0  0
  -23.0083  -26.8600   20.5885 C   0  0  0  0  0  0  0  0  0  0  0  0
  -24.6170  -26.1256   22.9586 C   0  0  0  0  0  0  0  0  0  0  0  0
  -19.2750  -30.3974   24.1183 C   0  0  0  0  0  0  0  0  0  0  0  0
  -25.3133  -20.6841   18.5673 C   0  0  0  0  0  0  0  0  0  0  0  0
  -20.7822  -30.6317   24.0982 C   0  0  0  0  0  0  0  0  0  0  0  0
  -32.0766  -20.1831   23.5013 C   0  0  0  0  0  0  0  0  0  0  0  0
  -31.2724  -19.4815   22.4518 C   0  0  0  0  0  0  0  0  0  0  0  0
  -25.2565  -19.3275   19.2735 C   0  0  0  0  0  0  0  0  0  0  0  0
  -26.7061  -20.9767   18.0123 C   0  0  0  0  0  0  0  0  0  0  0  0
  -27.7429  -19.5020   19.6914 C   0  0  0  0  0  0  0  0  0  0  0  0
  -21.3335  -30.5542   22.6694 C   0  0  1  0  0  0  0  0  0  0  0  0
  -31.0605  -20.9499   22.7000 C   0  0  0  0  0  0  0  0  0  0  0  0
  -22.4554  -26.9859   22.0048 C   0  0  1  0  0  0  0  0  0  0  0  0
  -26.3763  -19.1916   20.3238 C   0  0  2  0  0  0  0  0  0  0  0  0
  -24.0807  -20.0710   25.3121 C   0  0  0  0  0  0  0  0  0  0  0  0
  -23.1575  -26.8301   26.5703 C   0  0  0  0  0  0  0  0  0  0  0  0
  -23.7156  -24.5732   27.4993 C   0  0  0  0  0  0  0  0  0  0  0  0
  -21.3811  -25.0826   26.7828 C   0  0  0  0  0  0  0  0  0  0  0  0
  -22.6481  -21.3417   22.0244 C   0  0  0  0  0  0  0  0  0  0  0  0
  -33.0274  -24.7289   18.8768 C   0  0  0  0  0  0  0  0  0  0  0  0
  -32.6855  -26.1777   19.2097 C   0  0  0  0  0  0  0  0  0  0  0  0
  -30.7773  -27.7551   19.5401 C   0  0  0  0  0  0  0  0  0  0  0  0
  -29.2680  -27.8470   19.4319 C   0  0  0  0  0  0  0  0  0  1  0  0
  -23.1732  -24.7588   25.0290 C   0  0  1  0  0  0  0  0  0  0  0  0
  -23.3049  -21.0208   24.4127 C   0  0  2  0  0  0  0  0  0  0  0  0
  -22.8694  -25.3206   26.4466 C   0  0  0  0  0  0  0  0  0  0  0  0
  -32.7659  -22.4575   21.8884 N   0  0  0  0  0  0  0  0  0  0  0  0
  -25.9503  -16.7630   20.2869 N   0  0  0  0  0  0  0  0  0  0  0  0
  -26.3557  -17.8310   20.9948 N   0  0  0  0  0  0  0  0  0  0  0  0
  -23.1448  -26.1162   22.9600 N   0  0  0  0  0  0  0  0  0  0  0  0
  -27.7147  -20.8327   19.0644 N   0  0  0  0  0  0  0  0  0  0  0  0
  -27.1425  -18.4953   23.1279 N   0  0  0  0  0  0  0  0  0  0  0  0
  -26.5264  -14.0446   23.5842 N   0  0  0  0  0  0  0  0  0  0  0  0
  -29.4473  -21.6805   20.4214 N   0  0  0  0  0  0  0  0  0  0  0  0
  -21.4520  -29.1750   22.2474 N   0  0  0  0  0  0  0  0  0  0  0  0
  -22.8840  -23.3372   24.8751 N   0  0  0  0  0  0  0  0  0  0  0  0
  -23.3872  -20.5153   23.0132 N   0  3  0  0  0  0  0  0  0  0  0  0
  -31.2126  -26.3848   19.1700 N   0  3  0  0  0  0  0  0  0  0  0  0
  -27.1781  -15.9553   24.6720 O   0  0  0  0  0  0  0  0  0  0  0  0
  -23.5392  -28.7256   23.1770 O   0  0  0  0  0  0  0  0  0  0  0  0
  -21.1590  -25.4418   23.9788 O   0  0  0  0  0  0  0  0  0  0  0  0
  -25.0277  -22.7073   24.2546 O   0  0  0  0  0  0  0  0  0  0  0  0
  -28.4549  -23.0063   18.7970 O   0  0  0  0  0  0  0  0  0  0  0  0
  -24.6919  -10.5533   19.6497 O   0  0  0  0  0  0  0  0  0  0  0  0
  -28.6671  -26.9144   20.3294 O   0  0  0  0  0  0  0  0  0  1  0  0
  -21.6176   -7.5917   23.1398 F   0  0  0  0  0  0  0  0  0  0  0  0
  -25.5869   -9.9950   22.2050 F   0  0  0  0  0  0  0  0  0  0  0  0
  1  2  1  0  0  0  0
  1  5  2  0  0  0  0
  2  6  2  0  0  0  0
  3  8  2  0  0  0  0
  3 17  1  0  0  0  0
  4  9  1  0  0  0  0
  4 17  2  0  0  0  0
  5 19  1  0  0  0  0
  6 21  1  0  0  0  0
  7 10  2  0  0  0  0
  7 20  1  0  0  0  0
  8 25  1  0  0  0  0
  9 25  2  0  0  0  0
 10 26  1  0  0  0  0
 11 12  2  0  0  0  0
 11 27  1  0  0  0  0
 12 28  1  0  0  0  0
 13 22  1  0  0  0  0
 13 26  2  0  0  0  0
 14 23  2  0  0  0  0
 14 24  1  0  0  0  0
 15 28  2  0  0  0  0
 15 29  1  0  0  0  0
 16 23  1  0  0  0  0
 16 65  2  0  0  0  0
 17 30  1  0  0  0  0
 18 30  1  0  0  0  0
 18 32  2  0  0  0  0
 18 33  1  0  0  0  0
 19 21  2  0  0  0  0
 19 38  1  0  0  0  0
 20 22  2  0  0  0  0
 20 39  1  0  0  0  0
 21 49  1  0  0  0  0
 22 40  1  0  0  0  0
 23 58  1  0  0  0  0
 24 31  2  0  0  0  0
 24 72  1  0  0  0  0
 25 82  1  0  0  0  0
 26 83  1  0  0  0  0
 27 29  2  0  0  0  0
 27 82  1  0  0  0  0
 28 84  1  0  0  0  0
 29 85  1  0  0  0  0
 30 66  2  0  0  0  0
 31 50  1  0  0  0  0
 31 65  1  0  0  0  0
 32 67  1  0  0  0  0
 32 70  1  0  0  0  0
 33 71  1  0  0  0  0
 33 77  2  0  0  0  0
 34 51  1  0  0  0  0
 34 73  1  0  0  0  0
 34 78  2  0  0  0  0
 35 62  1  0  0  0  0
 35 68  1  0  0  0  0
 35 79  2  0  0  0  0
 36 63  1  0  0  0  0
 36 74  1  0  0  0  0
 36 80  2  0  0  0  0
 37 69  1  0  0  0  0
 37 72  1  0  0  0  0
 37 81  2  0  0  0  0
 38 41  1  0  0  0  0
 39 51  1  0  0  0  0
 40 68  1  0  0  0  0
 41 43  1  0  0  0  0
 42 46  1  0  0  0  0
 42 47  1  0  0  0  0
 43 49  1  0  0  0  0
 44 45  1  0  0  0  0
 44 50  1  0  0  0  0
 45 50  1  0  0  0  0
 46 52  1  0  0  0  0
 47 69  1  0  0  0  0
 48 52  1  0  0  0  0
 48 69  1  0  0  0  0
 49 73  1  0  0  0  0
 51 68  1  0  0  0  0
 52 67  1  0  0  0  0
 53 63  1  0  0  0  0
 54 64  1  0  0  0  0
 55 64  1  0  0  0  0
 56 64  1  0  0  0  0
 57 75  1  0  0  0  0
 58 59  1  0  0  0  0
 59 76  1  0  0  0  0
 60 61  1  0  0  0  0
 60 76  1  0  0  0  0
 61 83  1  0  0  0  0
 62 64  1  0  0  0  0
 62 74  1  0  0  0  0
 63 75  1  0  0  0  0
 66 67  1  0  0  0  0
M  CHG  2  75   1  76   1
M  ISO  4  37 100  61 101  72 100  83 101
M  END
> <Batch ID>
0134

> <Smiles>
CNC(C)C(=O)NC(C(=O)N1Cc2cc([101O:1][101CH2:1]CNCCc3cnc(C4CC4)c([100NH:0][100C:0](=O)N4CCCC(n5nc(-c6ccc(Oc7ccc(F)cc7F)cc6)c(C(N)=O)c5N)C4)c3)ccc2CC1C(=O)NC1CCCc2ccccc21)C(C)(C)C

> <Shape>
0.197

> <Color>
0.104

> <Negative vol penalty>
0.000

$$$$

  -OEChem-04052320573D

 82 90  0     1  0  0  0  0  0999 V2000
  -27.9166  -10.0894   20.5224 C   0  0  0  0  0  0  0  0  0  0  0  0
  -28.6106  -11.2711   20.2830 C   0  0  0  0  0  0  0  0  0  0  0  0
  -23.0055  -29.3508   21.8969 C   0  0  0  0  0  0  0  0  0  0  0  0
  -22.5431  -29.2354   19.5284 C   0  0  0  0  0  0  0  0  0  0  0  0
  -26.5281  -10.1108   20.6471 C   0  0  0  0  0  0  0  0  0  0  0  0
  -27.9163  -12.4749   20.1672 C   0  0  0  0  0  0  0  0  0  0  0  0
  -29.8117  -18.0076   21.9845 C   0  0  0  0  0  0  0  0  0  0  0  0
  -30.0300  -23.2868   17.5817 C   0  0  0  0  0  0  0  0  0  0  0  0
  -30.7749  -24.2463   16.8960 C   0  0  0  0  0  0  0  0  0  0  0  0
  -21.7316  -29.8731   22.1202 C   0  0  0  0  0  0  0  0  0  0  0  0
  -21.2691  -29.7577   19.7517 C   0  0  0  0  0  0  0  0  0  0  0  0
  -30.3928  -19.0725   21.2973 C   0  0  0  0  0  0  0  0  0  0  0  0
  -18.4704  -30.8992   23.3559 C   0  0  0  0  0  0  0  0  0  0  0  0
  -17.7320  -30.3762   24.4174 C   0  0  0  0  0  0  0  0  0  0  0  0
  -28.2213  -20.0954   21.0583 C   0  0  0  0  0  0  0  0  0  0  0  0
  -30.8919  -24.1172   19.6804 C   0  0  0  0  0  0  0  0  0  0  0  0
  -17.8256  -28.1854   23.4031 C   0  0  0  0  0  0  0  0  0  0  0  0
  -23.4113  -29.0320   20.6010 C   0  0  0  0  0  0  0  0  0  0  0  0
  -25.1010  -27.1357   20.3626 C   0  0  0  0  0  0  0  0  0  0  0  0
  -25.8173  -11.3168   20.5424 C   0  0  0  0  0  0  0  0  0  0  0  0
  -28.4272  -17.9732   22.2045 C   0  0  0  0  0  0  0  0  0  0  0  0
  -26.5169  -12.5122   20.2893 C   0  0  0  0  0  0  0  0  0  0  0  0
  -27.6254  -19.0302   21.7507 C   0  0  0  0  0  0  0  0  0  0  0  0
  -30.0884  -23.2223   18.9738 C   0  0  0  0  0  0  0  0  0  0  0  0
  -31.5785  -25.1411   17.6026 C   0  0  0  0  0  0  0  0  0  0  0  0
  -31.6370  -25.0766   18.9947 C   0  0  0  0  0  0  0  0  0  0  0  0
  -20.8634  -30.0765   21.0476 C   0  0  0  0  0  0  0  0  0  0  0  0
  -29.5972  -20.1152   20.8316 C   0  0  0  0  0  0  0  0  0  0  0  0
  -18.8864  -30.0654   22.3179 C   0  0  0  0  0  0  0  0  0  0  0  0
  -17.4096  -29.0193   24.4410 C   0  0  0  0  0  0  0  0  0  0  0  0
  -18.5640  -28.7085   22.3416 C   0  0  0  0  0  0  0  0  0  0  0  0
  -24.7274  -28.4930   20.3696 C   0  0  0  0  0  0  0  0  0  0  0  0
  -26.4486  -27.1519   20.0979 C   0  0  0  0  0  0  0  0  0  0  0  0
  -24.3013  -25.9650   20.5762 C   0  0  0  0  0  0  0  0  0  0  0  0
  -26.0674  -16.0239   21.3471 C   0  0  0  0  0  0  0  0  0  0  0  0
  -24.3108  -17.9225   23.3047 C   0  0  0  0  0  0  0  0  0  0  0  0
  -23.9281  -20.9567   24.8194 C   0  0  0  0  0  0  0  0  0  0  0  0
  -30.8176  -29.0746   17.2065 C   0  0  0  0  0  0  0  0  0  0  0  0
  -24.3125  -11.2832   20.6373 C   0  0  0  0  0  0  0  0  0  0  0  0
  -27.8193  -16.8306   22.9707 C   0  0  0  0  0  0  0  0  0  0  0  0
  -26.1368  -19.0509   21.9788 C   0  0  0  0  0  0  0  0  0  0  0  0
  -23.6864  -12.6551   20.8746 C   0  0  0  0  0  0  0  0  0  0  0  0
  -29.7400  -30.9918   20.0065 C   0  0  0  0  0  0  0  0  0  0  0  0
  -24.2959  -13.6899   19.9342 C   0  0  0  0  0  0  0  0  0  0  0  0
  -28.3687  -30.4049   20.3457 C   0  0  0  0  0  0  0  0  0  0  0  0
  -29.9861  -31.0170   18.4996 C   0  0  0  0  0  0  0  0  0  0  0  0
  -28.4335  -29.1334   18.1598 C   0  0  0  0  0  0  0  0  0  0  0  0
  -25.8016  -13.8415   20.1821 C   0  0  1  0  0  0  0  0  0  0  0  0
  -26.3313  -16.6467   22.6889 C   0  0  1  0  0  0  0  0  0  0  0  0
  -28.1624  -29.0355   19.6709 C   0  0  2  0  0  0  0  0  0  0  0  0
  -33.9685  -25.6496   19.7174 C   0  0  0  0  0  0  0  0  0  0  0  0
  -22.3742  -22.2225   26.3295 C   0  0  0  0  0  0  0  0  0  0  0  0
  -22.3772  -18.3196   20.9781 C   0  0  0  0  0  0  0  0  0  0  0  0
  -21.4170  -20.2813   22.2019 C   0  0  0  0  0  0  0  0  0  0  0  0
  -21.2807  -18.0006   23.2030 C   0  0  0  0  0  0  0  0  0  0  0  0
  -26.0219  -21.2935   26.8838 C   0  0  0  0  0  0  0  0  0  0  0  0
  -32.3680  -26.1589   16.8467 C   0  0  0  0  0  0  0  0  0  0  0  0
  -32.4905  -26.0241   19.7723 C   0  0  0  0  0  0  0  0  0  0  0  0
  -29.2873  -22.1898   19.7111 C   0  0  0  0  0  0  0  0  0  1  0  0
  -31.5100  -27.0528   15.9447 C   0  0  0  0  0  0  0  0  0  0  0  0
  -23.5103  -19.1902   23.1285 C   0  0  1  0  0  0  0  0  0  0  0  0
  -23.6051  -21.3326   26.2543 C   0  0  2  0  0  0  0  0  0  0  0  0
  -22.1740  -18.9469   22.3717 C   0  0  0  0  0  0  0  0  0  0  0  0
  -25.7548  -29.3118   20.1286 N   0  0  0  0  0  0  0  0  0  0  0  0
  -26.7872  -28.4667   19.9678 N   0  0  0  0  0  0  0  0  0  0  0  0
  -25.5886  -17.9080   22.7277 N   0  0  0  0  0  0  0  0  0  0  0  0
  -29.7754  -29.6877   17.9212 N   0  0  0  0  0  0  0  0  0  0  0  0
  -27.3652  -26.1696   19.9661 N   0  0  0  0  0  0  0  0  0  0  0  0
  -22.9338  -26.1283   20.8360 N   0  0  0  0  0  0  0  0  0  0  0  0
  -26.0412  -14.6424   21.3635 N   0  0  0  0  0  0  0  0  0  0  0  0
  -23.3468  -19.7585   24.4621 N   0  0  0  0  0  0  0  0  0  0  0  0
  -30.5367  -27.8128   16.6970 N   0  0  0  0  0  0  0  0  0  0  0  0
  -24.7504  -22.0616   26.8691 N   0  3  0  0  0  0  0  0  0  0  0  0
  -24.7883  -24.8092   20.5541 O   0  0  0  0  0  0  0  0  0  0  0  0
  -25.8985  -16.7435   20.3698 O   0  0  0  0  0  0  0  0  0  0  0  0
  -23.8233  -16.9825   23.9374 O   0  0  0  0  0  0  0  0  0  0  0  0
  -24.6234  -21.6577   24.0875 O   0  0  0  0  0  0  0  0  0  0  0  0
  -31.9189  -29.6097   17.0397 O   0  0  0  0  0  0  0  0  0  0  0  0
  -19.6201  -30.5860   21.2652 O   0  0  0  0  0  0  0  0  0  0  0  0
  -30.1618  -21.1554   20.1601 O   0  0  0  0  0  0  0  0  0  1  0  0
  -16.7019  -28.5169   25.4612 F   0  0  0  0  0  0  0  0  0  0  0  0
  -18.9619  -27.9022   21.3478 F   0  0  0  0  0  0  0  0  0  0  0  0
  1  2  1  0  0  0  0
  1  5  2  0  0  0  0
  2  6  2  0  0  0  0
  3 10  2  0  0  0  0
  3 18  1  0  0  0  0
  4 11  1  0  0  0  0
  4 18  2  0  0  0  0
  5 20  1  0  0  0  0
  6 22  1  0  0  0  0
  7 12  2  0  0  0  0
  7 21  1  0  0  0  0
  8  9  2  0  0  0  0
  8 24  1  0  0  0  0
  9 25  1  0  0  0  0
 10 27  1  0  0  0  0
 11 27  2  0  0  0  0
 12 28  1  0  0  0  0
 13 14  2  0  0  0  0
 13 29  1  0  0  0  0
 14 30  1  0  0  0  0
 15 23  1  0  0  0  0
 15 28  2  0  0  0  0
 16 24  2  0  0  0  0
 16 26  1  0  0  0  0
 17 30  2  0  0  0  0
 17 31  1  0  0  0  0
 18 32  1  0  0  0  0
 19 32  1  0  0  0  0
 19 33  2  0  0  0  0
 19 34  1  0  0  0  0
 20 22  2  0  0  0  0
 20 39  1  0  0  0  0
 21 23  2  0  0  0  0
 21 40  1  0  0  0  0
 22 48  1  0  0  0  0
 23 41  1  0  0  0  0
 24 59  1  0  0  0  0
 25 26  2  0  0  0  0
 25 57  1  0  0  0  0
 26 58  1  0  0  0  0
 27 79  1  0  0  0  0
 28 80  1  0  0  0  0
 29 31  2  0  0  0  0
 29 79  1  0  0  0  0
 30 81  1  0  0  0  0
 31 82  1  0  0  0  0
 32 64  2  0  0  0  0
 33 65  1  0  0  0  0
 33 68  1  0  0  0  0
 34 69  1  0  0  0  0
 34 74  2  0  0  0  0
 35 49  1  0  0  0  0
 35 70  1  0  0  0  0
 35 75  2  0  0  0  0
 36 61  1  0  0  0  0
 36 66  1  0  0  0  0
 36 76  2  0  0  0  0
 37 62  1  0  0  0  0
 37 71  1  0  0  0  0
 37 77  2  0  0  0  0
 38 67  1  0  0  0  0
 38 72  1  0  0  0  0
 38 78  2  0  0  0  0
 39 42  1  0  0  0  0
 40 49  1  0  0  0  0
 41 66  1  0  0  0  0
 42 44  1  0  0  0  0
 43 45  1  0  0  0  0
 43 46  1  0  0  0  0
 44 48  1  0  0  0  0
 45 50  1  0  0  0  0
 46 67  1  0  0  0  0
 47 50  1  0  0  0  0
 47 67  1  0  0  0  0
 48 70  1  0  0  0  0
 49 66  1  0  0  0  0
 50 65  1  0  0  0  0
 51 58  1  0  0  0  0
 52 62  1  0  0  0  0
 53 63  1  0  0  0  0
 54 63  1  0  0  0  0
 55 63  1  0  0  0  0
 56 73  1  0  0  0  0
 57 60  1  0  0  0  0
 59 80  1  0  0  0  0
 60 72  1  0  0  0  0
 61 63  1  0  0  0  0
 61 71  1  0  0  0  0
 62 73  1  0  0  0  0
 64 65  1  0  0  0  0
M  CHG  1  73   1
M  ISO  4  38 100  59 101  72 100  80 101
M  END
> <Batch ID>
0134

> <Smiles>
CCc1cc([101CH2:1][101O:1]c2ccc3c(c2)CN(C(=O)C(NC(=O)C(C)NC)C(C)(C)C)C(C(=O)NC2CCCc4ccccc42)C3)ccc1CC[100NH:0][100C:0](=O)N1CCCC(n2nc(-c3ccc(Oc4ccc(F)cc4F)cc3)c(C(N)=O)c2N)C1

> <Shape>
0.218

> <Color>
0.068

> <Negative vol penalty>
0.000

$$$$

  -OEChem-04052320573D

 89 98  0     1  0  0  0  0  0999 V2000
  -20.0841  -30.9077   21.4482 C   0  0  0  0  0  0  0  0  0  0  0  0
  -21.2382  -30.2245   21.0785 C   0  0  0  0  0  0  0  0  0  0  0  0
  -26.9874  -13.1284   21.0615 C   0  0  0  0  0  0  0  0  0  0  0  0
  -26.8619  -13.5583   18.6874 C   0  0  0  0  0  0  0  0  0  0  0  0
  -19.0466  -30.2278   22.0848 C   0  0  0  0  0  0  0  0  0  0  0  0
  -21.3560  -28.8611   21.3462 C   0  0  0  0  0  0  0  0  0  0  0  0
  -23.1958  -26.2602   17.4098 C   0  0  0  0  0  0  0  0  0  0  0  0
  -26.2954  -11.9309   20.8813 C   0  0  0  0  0  0  0  0  0  0  0  0
  -26.1699  -12.3607   18.5071 C   0  0  0  0  0  0  0  0  0  0  0  0
  -24.5706  -26.3281   17.1884 C   0  0  0  0  0  0  0  0  0  0  0  0
  -24.2463   -8.9342   21.0933 C   0  0  0  0  0  0  0  0  0  0  0  0
  -23.2135   -8.6399   21.9834 C   0  0  0  0  0  0  0  0  0  0  0  0
  -30.6483  -22.7330   21.6722 C   0  0  0  0  0  0  0  0  0  0  0  0
  -24.8429  -24.1835   18.2587 C   0  0  0  0  0  0  0  0  0  0  0  0
  -22.0596  -10.6529   21.3102 C   0  0  0  0  0  0  0  0  0  0  0  0
  -27.2706  -13.9422   19.9645 C   0  0  0  0  0  0  0  0  0  0  0  0
  -29.3791  -15.3706   20.1108 C   0  0  0  0  0  0  0  0  0  0  0  0
  -19.1478  -28.8533   22.3518 C   0  0  0  0  0  0  0  0  0  0  0  0
  -22.6346  -25.1566   18.0682 C   0  0  0  0  0  0  0  0  0  0  0  0
  -20.3195  -28.1624   21.9882 C   0  0  0  0  0  0  0  0  0  0  0  0
  -30.1364  -23.1180   22.8998 C   0  0  0  0  0  0  0  0  0  0  0  0
  -23.4604  -24.1028   18.4850 C   0  0  0  0  0  0  0  0  0  0  0  0
  -29.6059  -24.3992   23.0915 C   0  0  0  0  0  0  0  0  0  0  0  0
  -30.6347  -23.6616   20.6292 C   0  0  0  0  0  0  0  0  0  0  0  0
  -29.5771  -25.3220   22.0598 C   0  0  0  0  0  0  0  0  0  0  0  0
  -30.1031  -24.9468   20.8216 C   0  0  0  0  0  0  0  0  0  0  0  0
  -25.8866  -11.5470   19.6041 C   0  0  0  0  0  0  0  0  0  0  0  0
  -25.3947  -25.2910   17.6154 C   0  0  0  0  0  0  0  0  0  0  0  0
  -24.1858  -10.0879   20.3116 C   0  0  0  0  0  0  0  0  0  0  0  0
  -22.1202   -9.4992   22.0919 C   0  0  0  0  0  0  0  0  0  0  0  0
  -23.0924  -10.9473   20.4201 C   0  0  0  0  0  0  0  0  0  0  0  0
  -27.9849  -15.1797   20.1502 C   0  0  0  0  0  0  0  0  0  0  0  0
  -29.5485  -16.7135   20.3442 C   0  0  0  0  0  0  0  0  0  0  0  0
  -30.4274  -14.4192   19.8836 C   0  0  0  0  0  0  0  0  0  0  0  0
  -21.0113  -24.7435   20.7697 C   0  0  0  0  0  0  0  0  0  0  0  0
  -20.7362  -21.6998   19.6821 C   0  0  0  0  0  0  0  0  0  0  0  0
  -21.9728  -19.2057   17.7080 C   0  0  0  0  0  0  0  0  0  0  0  0
  -28.1085  -22.0294   19.4428 C   0  0  0  0  0  0  0  0  0  0  0  0
  -18.0197  -28.1712   23.0846 C   0  0  0  0  0  0  0  0  0  0  0  0
  -21.1465  -25.0860   18.2756 C   0  0  0  0  0  0  0  0  0  0  0  0
  -30.0082  -22.2967   24.1436 C   0  0  0  0  0  0  0  0  0  0  0  0
  -29.0727  -24.5529   24.4808 C   0  0  0  0  0  0  0  0  0  0  0  0
  -22.9049  -22.8865   19.1783 C   0  0  0  0  0  0  0  0  0  0  0  0
  -18.0686  -26.6481   22.9956 C   0  0  0  0  0  0  0  0  0  0  0  0
  -29.7727  -23.3888   25.1981 C   0  0  0  0  0  0  0  0  0  0  0  0
  -26.2552  -20.2274   21.8911 C   0  0  0  0  0  0  0  0  0  0  0  0
  -19.4799  -26.1419   23.2760 C   0  0  0  0  0  0  0  0  0  0  0  0
  -26.6501  -18.7695   21.6490 C   0  0  0  0  0  0  0  0  0  0  0  0
  -26.1599  -21.0109   20.5838 C   0  0  0  0  0  0  0  0  0  0  0  0
  -27.7573  -19.4857   19.4903 C   0  0  0  0  0  0  0  0  0  0  0  0
  -20.4745  -26.6782   22.2392 C   0  0  1  0  0  0  0  0  0  0  0  0
  -20.7454  -24.1528   19.4139 C   0  0  1  0  0  0  0  0  0  0  0  0
  -27.9207  -18.6691   20.7837 C   0  0  2  0  0  0  0  0  0  0  0  0
  -21.5548  -16.8186   17.0566 C   0  0  0  0  0  0  0  0  0  0  0  0
  -21.8665  -20.7734   22.3606 C   0  0  0  0  0  0  0  0  0  0  0  0
  -22.3114  -18.5396   21.3212 C   0  0  0  0  0  0  0  0  0  0  0  0
  -19.9725  -19.3898   21.4929 C   0  0  0  0  0  0  0  0  0  0  0  0
  -21.5931  -19.9271   14.8630 C   0  0  0  0  0  0  0  0  0  0  0  0
  -29.5333  -28.9439   22.5808 C   0  0  0  0  0  0  0  0  0  0  0  0
  -31.1920  -23.2566   19.3025 C   0  0  0  0  0  0  0  0  0  0  0  0
  -28.9928  -26.6777   22.2724 C   0  0  0  0  0  0  0  0  0  0  0  0
  -30.0939  -25.9236   19.6826 C   0  0  0  0  0  0  0  0  0  0  0  0
  -30.1165  -22.8989   18.2718 C   0  0  0  0  0  0  0  0  0  0  0  0
  -27.3283  -26.6535   17.3684 C   0  0  0  0  0  0  0  0  0  1  0  0
  -28.7620  -26.5570   17.8530 C   0  0  0  0  0  0  0  0  0  0  0  0
  -21.5524  -20.4374   19.8201 C   0  0  1  0  0  0  0  0  0  0  0  0
  -21.2963  -18.2778   16.7152 C   0  0  2  0  0  0  0  0  0  0  0  0
  -21.4367  -19.8087   21.2374 C   0  0  0  0  0  0  0  0  0  0  0  0
  -27.3161  -16.3108   20.3898 N   0  0  0  0  0  0  0  0  0  0  0  0
  -28.2943  -17.2253   20.5033 N   0  0  0  0  0  0  0  0  0  0  0  0
  -21.4445  -22.8672   19.3637 N   0  0  0  0  0  0  0  0  0  0  0  0
  -27.3971  -20.8756   19.8113 N   0  0  0  0  0  0  0  0  0  0  0  0
  -30.6464  -17.4947   20.4268 N   0  0  0  0  0  0  0  0  0  0  0  0
  -30.0777  -13.0804   19.6604 N   0  0  0  0  0  0  0  0  0  0  0  0
  -20.3596  -25.9401   20.9997 N   0  0  0  0  0  0  0  0  0  0  0  0
  -21.1263  -19.5556   18.7387 N   0  0  0  0  0  0  0  0  0  0  0  0
  -29.2735  -21.8119   18.7174 N   0  0  0  0  0  0  0  0  0  0  0  0
  -21.8030  -18.5350   15.3375 N   0  3  0  0  0  0  0  0  0  0  0  0
  -31.6390  -14.7436   19.8949 O   0  0  0  0  0  0  0  0  0  0  0  0
  -21.7516  -24.1562   21.5499 O   0  0  0  0  0  0  0  0  0  0  0  0
  -19.5143  -21.6506   19.8437 O   0  0  0  0  0  0  0  0  0  0  0  0
  -23.1370  -19.5795   17.5838 O   0  0  0  0  0  0  0  0  0  0  0  0
  -27.7359  -23.1688   19.7428 O   0  0  0  0  0  0  0  0  0  0  0  0
  -25.2115  -10.3783   19.4278 O   0  0  0  0  0  0  0  0  0  0  0  0
  -26.7370  -25.3551   17.4011 O   0  0  0  0  0  0  0  0  0  1  0  0
  -30.0415  -27.6329   22.3769 O   0  0  0  0  0  0  0  0  0  0  0  0
  -28.7714  -26.0309   19.1744 O   0  0  0  0  0  0  0  0  0  0  0  0
  -21.1278   -9.2157   22.9456 F   0  0  0  0  0  0  0  0  0  0  0  0
  -23.0281  -12.0565   19.6709 F   0  0  0  0  0  0  0  0  0  0  0  0
  1  2  1  0  0  0  0
  1  5  2  0  0  0  0
  2  6  2  0  0  0  0
  3  8  2  0  0  0  0
  3 16  1  0  0  0  0
  4  9  1  0  0  0  0
  4 16  2  0  0  0  0
  5 18  1  0  0  0  0
  6 20  1  0  0  0  0
  7 10  2  0  0  0  0
  7 19  1  0  0  0  0
  8 27  1  0  0  0  0
  9 27  2  0  0  0  0
 10 28  1  0  0  0  0
 11 12  2  0  0  0  0
 11 29  1  0  0  0  0
 12 30  1  0  0  0  0
 13 21  1  0  0  0  0
 13 24  2  0  0  0  0
 14 22  1  0  0  0  0
 14 28  2  0  0  0  0
 15 30  2  0  0  0  0
 15 31  1  0  0  0  0
 16 32  1  0  0  0  0
 17 32  1  0  0  0  0
 17 33  2  0  0  0  0
 17 34  1  0  0  0  0
 18 20  2  0  0  0  0
 18 39  1  0  0  0  0
 19 22  2  0  0  0  0
 19 40  1  0  0  0  0
 20 51  1  0  0  0  0
 21 23  2  0  0  0  0
 21 41  1  0  0  0  0
 22 43  1  0  0  0  0
 23 25  1  0  0  0  0
 23 42  1  0  0  0  0
 24 26  1  0  0  0  0
 24 60  1  0  0  0  0
 25 26  2  0  0  0  0
 25 61  1  0  0  0  0
 26 62  1  0  0  0  0
 27 84  1  0  0  0  0
 28 85  1  0  0  0  0
 29 31  2  0  0  0  0
 29 84  1  0  0  0  0
 30 88  1  0  0  0  0
 31 89  1  0  0  0  0
 32 69  2  0  0  0  0
 33 70  1  0  0  0  0
 33 73  1  0  0  0  0
 34 74  1  0  0  0  0
 34 79  2  0  0  0  0
 35 52  1  0  0  0  0
 35 75  1  0  0  0  0
 35 80  2  0  0  0  0
 36 66  1  0  0  0  0
 36 71  1  0  0  0  0
 36 81  2  0  0  0  0
 37 67  1  0  0  0  0
 37 76  1  0  0  0  0
 37 82  2  0  0  0  0
 38 72  1  0  0  0  0
 38 77  1  0  0  0  0
 38 83  2  0  0  0  0
 39 44  1  0  0  0  0
 40 52  1  0  0  0  0
 41 45  1  0  0  0  0
 42 45  1  0  0  0  0
 43 71  1  0  0  0  0
 44 47  1  0  0  0  0
 46 48  1  0  0  0  0
 46 49  1  0  0  0  0
 47 51  1  0  0  0  0
 48 53  1  0  0  0  0
 49 72  1  0  0  0  0
 50 53  1  0  0  0  0
 50 72  1  0  0  0  0
 51 75  1  0  0  0  0
 52 71  1  0  0  0  0
 53 70  1  0  0  0  0
 54 67  1  0  0  0  0
 55 68  1  0  0  0  0
 56 68  1  0  0  0  0
 57 68  1  0  0  0  0
 58 78  1  0  0  0  0
 59 86  1  0  0  0  0
 60 63  1  0  0  0  0
 61 86  1  0  0  0  0
 62 87  1  0  0  0  0
 63 77  1  0  0  0  0
 64 65  1  0  0  0  0
 64 85  1  0  0  0  0
 65 87  1  0  0  0  0
 66 68  1  0  0  0  0
 66 76  1  0  0  0  0
 67 78  1  0  0  0  0
 69 70  1  0  0  0  0
M  CHG  1  78   1
M  ISO  4  38 100  64 101  77 100  85 101
M  END
> <Batch ID>
0134

> <Smiles>
CNC(C)C(=O)NC(C(=O)N1Cc2cc([101O:1][101CH2:1]COCc3c(CC[100NH:0][100C:0](=O)N4CCCC(n5nc(-c6ccc(Oc7ccc(F)cc7F)cc6)c(C(N)=O)c5N)C4)cc4c(c3COC)CCC4)ccc2CC1C(=O)NC1CCCc2ccccc21)C(C)(C)C

> <Shape>
0.213

> <Color>
0.072

> <Negative vol penalty>
0.000

$$$$

  -OEChem-04052320573D

 78 86  0     1  0  0  0  0  0999 V2000
  -20.0533  -31.2558   23.3153 C   0  0  0  0  0  0  0  0  0  0  0  0
  -21.3629  -30.7911   23.2495 C   0  0  0  0  0  0  0  0  0  0  0  0
  -28.4363  -17.7266   19.4317 C   0  0  0  0  0  0  0  0  0  0  0  0
  -30.1903  -18.2244   21.0169 C   0  0  0  0  0  0  0  0  0  0  0  0
  -18.9913  -30.3747   23.1158 C   0  0  0  0  0  0  0  0  0  0  0  0
  -21.6113  -29.4447   22.9852 C   0  0  0  0  0  0  0  0  0  0  0  0
  -25.2941  -28.7818   19.5731 C   0  0  0  0  0  0  0  0  0  0  0  0
  -28.3632  -16.4228   19.9221 C   0  0  0  0  0  0  0  0  0  0  0  0
  -30.1172  -16.9207   21.5073 C   0  0  0  0  0  0  0  0  0  0  0  0
  -26.6074  -28.9296   20.0169 C   0  0  0  0  0  0  0  0  0  0  0  0
  -27.9645  -12.8573   20.5151 C   0  0  0  0  0  0  0  0  0  0  0  0
  -27.8942  -11.8172   19.5883 C   0  0  0  0  0  0  0  0  0  0  0  0
  -26.8204  -26.5313   20.1659 C   0  0  0  0  0  0  0  0  0  0  0  0
  -30.0222  -12.4947   18.6665 C   0  0  0  0  0  0  0  0  0  0  0  0
  -29.3499  -18.6274   19.9791 C   0  0  0  0  0  0  0  0  0  0  0  0
  -28.7018  -21.0940   19.9228 C   0  0  0  0  0  0  0  0  0  0  0  0
  -19.2270  -29.0188   22.8394 C   0  0  0  0  0  0  0  0  0  0  0  0
  -24.7295  -27.5059   19.4325 C   0  0  0  0  0  0  0  0  0  0  0  0
  -20.5515  -28.5443   22.7832 C   0  0  0  0  0  0  0  0  0  0  0  0
  -25.5005  -26.3700   19.7176 C   0  0  0  0  0  0  0  0  0  0  0  0
  -29.2036  -16.0198   20.9599 C   0  0  0  0  0  0  0  0  0  0  0  0
  -27.3699  -27.8043   20.3162 C   0  0  0  0  0  0  0  0  0  0  0  0
  -29.0637  -13.7161   20.5175 C   0  0  0  0  0  0  0  0  0  0  0  0
  -28.9230  -11.6359   18.6641 C   0  0  0  0  0  0  0  0  0  0  0  0
  -30.0925  -13.5348   19.5933 C   0  0  0  0  0  0  0  0  0  0  0  0
  -29.4263  -19.9741   19.4726 C   0  0  0  0  0  0  0  0  0  0  0  0
  -29.1322  -22.1252   19.1240 C   0  0  0  0  0  0  0  0  0  0  0  0
  -27.7270  -21.1934   20.9695 C   0  0  0  0  0  0  0  0  0  0  0  0
  -22.2768  -25.9797   20.7587 C   0  0  0  0  0  0  0  0  0  0  0  0
  -23.0114  -23.7036   18.5673 C   0  0  0  0  0  0  0  0  0  0  0  0
  -25.3574  -22.2956   16.5276 C   0  0  0  0  0  0  0  0  0  0  0  0
  -33.2382  -24.9405   16.6022 C   0  0  0  0  0  0  0  0  0  0  0  0
  -18.0459  -28.0949   22.6777 C   0  0  0  0  0  0  0  0  0  0  0  0
  -23.3201  -27.3627   18.9270 C   0  0  0  0  0  0  0  0  0  0  0  0
  -24.9478  -24.9774   19.5639 C   0  0  0  0  0  0  0  0  0  0  0  0
  -18.4019  -26.7585   22.0315 C   0  0  0  0  0  0  0  0  0  0  0  0
  -31.9463  -22.0801   14.9211 C   0  0  0  0  0  0  0  0  0  0  0  0
  -19.6547  -26.1717   22.6742 C   0  0  0  0  0  0  0  0  0  0  0  0
  -31.1214  -21.3669   15.9938 C   0  0  0  0  0  0  0  0  0  0  0  0
  -31.1606  -27.5799   19.3008 C   0  0  0  0  0  0  0  0  0  0  0  0
  -33.2035  -22.7185   15.5075 C   0  0  0  0  0  0  0  0  0  0  0  0
  -32.1400  -22.9070   17.7227 C   0  0  0  0  0  0  0  0  0  0  0  0
  -31.6913  -29.8701   19.6443 C   0  0  0  0  0  0  0  0  0  0  0  0
  -20.8619  -27.0958   22.4742 C   0  0  1  0  0  0  0  0  0  0  0  0
  -22.6795  -26.0327   19.3121 C   0  0  1  0  0  0  0  0  0  0  0  0
  -30.8468  -28.7481   20.2276 C   0  0  1  0  0  0  0  0  0  0  0  0
  -30.8335  -22.2951   17.1891 C   0  0  2  0  0  0  0  0  0  0  0  0
  -32.6686  -27.6913   19.1172 C   0  0  1  0  0  0  0  0  0  0  0  0
  -25.6718  -20.4250   14.8846 C   0  0  0  0  0  0  0  0  0  0  0  0
  -23.1415  -21.7061   20.8701 C   0  0  0  0  0  0  0  0  0  0  0  0
  -24.3583  -20.1353   19.3469 C   0  0  0  0  0  0  0  0  0  0  0  0
  -22.0293  -20.8439   18.8028 C   0  0  0  0  0  0  0  0  0  0  0  0
  -26.0064  -24.1750   14.3354 C   0  0  0  0  0  0  0  0  0  0  0  0
  -29.3726  -29.0866   20.2863 C   0  0  0  0  0  0  0  0  0  1  0  0
  -33.1801  -27.1034   17.8177 C   0  0  0  0  0  0  0  0  0  0  0  0
  -23.9218  -22.4997   18.5404 C   0  0  1  0  0  0  0  0  0  0  0  0
  -25.3084  -21.8906   15.0654 C   0  0  2  0  0  0  0  0  0  0  0  0
  -23.3728  -21.3224   19.3949 C   0  0  0  0  0  0  0  0  0  0  0  0
  -30.2540  -20.2662   18.4658 N   0  0  0  0  0  0  0  0  0  0  0  0
  -30.0522  -21.5813   18.2767 N   0  0  0  0  0  0  0  0  0  0  0  0
  -23.5628  -24.8896   19.0725 N   0  0  0  0  0  0  0  0  0  0  0  0
  -32.8611  -23.5878   16.6358 N   0  0  0  0  0  0  0  0  0  0  0  0
  -28.8095  -23.4349   19.0708 N   0  0  0  0  0  0  0  0  0  0  0  0
  -27.4017  -20.0370   21.6916 N   0  0  0  0  0  0  0  0  0  0  0  0
  -21.3816  -26.9647   21.1299 N   0  0  0  0  0  0  0  0  0  0  0  0
  -24.1248  -22.1727   17.1332 N   0  0  0  0  0  0  0  0  0  0  0  0
  -32.8690  -25.6955   17.7087 N   0  0  0  0  0  0  0  0  0  0  0  0
  -32.9315  -29.1757   19.1549 N   0  3  0  0  0  0  0  0  0  0  0  0
  -26.2615  -22.7130   14.2678 N   0  3  0  0  0  0  0  0  0  0  0  0
  -27.1492  -22.2721   21.2452 O   0  0  0  0  0  0  0  0  0  0  0  0
  -22.7427  -25.1087   21.4840 O   0  0  0  0  0  0  0  0  0  0  0  0
  -21.8560  -23.5976   18.1486 O   0  0  0  0  0  0  0  0  0  0  0  0
  -26.3871  -22.6788   17.0784 O   0  0  0  0  0  0  0  0  0  0  0  0
  -33.8534  -25.4396   15.6538 O   0  0  0  0  0  0  0  0  0  0  0  0
  -29.1324  -14.7478   21.4388 O   0  0  0  0  0  0  0  0  0  0  0  0
  -28.6519  -27.9457   20.7502 O   0  0  0  0  0  0  0  0  0  1  0  0
  -28.8561  -10.6361   17.7752 F   0  0  0  0  0  0  0  0  0  0  0  0
  -31.1515  -14.3560   19.5915 F   0  0  0  0  0  0  0  0  0  0  0  0
  1  2  1  0  0  0  0
  1  5  2  0  0  0  0
  2  6  2  0  0  0  0
  3  8  2  0  0  0  0
  3 15  1  0  0  0  0
  4  9  1  0  0  0  0
  4 15  2  0  0  0  0
  5 17  1  0  0  0  0
  6 19  1  0  0  0  0
  7 10  2  0  0  0  0
  7 18  1  0  0  0  0
  8 21  1  0  0  0  0
  9 21  2  0  0  0  0
 10 22  1  0  0  0  0
 11 12  2  0  0  0  0
 11 23  1  0  0  0  0
 12 24  1  0  0  0  0
 13 20  1  0  0  0  0
 13 22  2  0  0  0  0
 14 24  2  0  0  0  0
 14 25  1  0  0  0  0
 15 26  1  0  0  0  0
 16 26  1  0  0  0  0
 16 27  2  0  0  0  0
 16 28  1  0  0  0  0
 17 19  2  0  0  0  0
 17 33  1  0  0  0  0
 18 20  2  0  0  0  0
 18 34  1  0  0  0  0
 19 44  1  0  0  0  0
 20 35  1  0  0  0  0
 21 75  1  0  0  0  0
 22 76  1  0  0  0  0
 23 25  2  0  0  0  0
 23 75  1  0  0  0  0
 24 77  1  0  0  0  0
 25 78  1  0  0  0  0
 26 59  2  0  0  0  0
 27 60  1  0  0  0  0
 27 63  1  0  0  0  0
 28 64  1  0  0  0  0
 28 70  2  0  0  0  0
 29 45  1  0  0  0  0
 29 65  1  0  0  0  0
 29 71  2  0  0  0  0
 30 56  1  0  0  0  0
 30 61  1  0  0  0  0
 30 72  2  0  0  0  0
 31 57  1  0  0  0  0
 31 66  1  0  0  0  0
 31 73  2  0  0  0  0
 32 62  1  0  0  0  0
 32 67  1  0  0  0  0
 32 74  2  0  0  0  0
 33 36  1  0  0  0  0
 34 45  1  0  0  0  0
 35 61  1  0  0  0  0
 36 38  1  0  0  0  0
 37 39  1  0  0  0  0
 37 41  1  0  0  0  0
 38 44  1  0  0  0  0
 39 47  1  0  0  0  0
 40 46  1  0  0  0  0
 40 48  1  0  0  0  0
 41 62  1  0  0  0  0
 42 47  1  0  0  0  0
 42 62  1  0  0  0  0
 43 46  1  0  0  0  0
 43 68  1  0  0  0  0
 44 65  1  0  0  0  0
 45 61  1  0  0  0  0
 46 54  1  0  0  0  0
 47 60  1  0  0  0  0
 48 55  1  0  0  0  0
 48 68  1  0  0  0  0
 49 57  1  0  0  0  0
 50 58  1  0  0  0  0
 51 58  1  0  0  0  0
 52 58  1  0  0  0  0
 53 69  1  0  0  0  0
 54 76  1  0  0  0  0
 55 67  1  0  0  0  0
 56 58  1  0  0  0  0
 56 66  1  0  0  0  0
 57 69  1  0  0  0  0
 59 60  1  0  0  0  0
M  CHG  2  68   1  69   1
M  ISO  4  32 100  54 101  67 100  76 101
M  END
> <Batch ID>
0134

> <Smiles>
CNC(C)C(=O)NC(C(=O)N1Cc2cc([101O:1][101CH2:1]C3CNC(C[100NH:0][100C:0](=O)N4CCCC(n5nc(-c6ccc(Oc7ccc(F)cc7F)cc6)c(C(N)=O)c5N)C4)C3)ccc2CC1C(=O)NC1CCCc2ccccc21)C(C)(C)C

> <Shape>
0.240

> <Color>
0.068

> <Negative vol penalty>
0.000

$$$$

  -OEChem-04052320573D

 82 90  0     1  0  0  0  0  0999 V2000
  -28.5210  -11.4557   21.8762 C   0  0  0  0  0  0  0  0  0  0  0  0
  -28.8847  -12.1801   20.7466 C   0  0  0  0  0  0  0  0  0  0  0  0
  -19.8657  -20.3516   26.4346 C   0  0  0  0  0  0  0  0  0  0  0  0
  -26.3089  -29.2823   21.5937 C   0  0  0  0  0  0  0  0  0  0  0  0
  -24.8728  -27.6814   20.4928 C   0  0  0  0  0  0  0  0  0  0  0  0
  -27.1801  -11.1542   22.1043 C   0  0  0  0  0  0  0  0  0  0  0  0
  -27.9063  -12.6134   19.8510 C   0  0  0  0  0  0  0  0  0  0  0  0
  -22.5210  -18.0669   19.1347 C   0  0  0  0  0  0  0  0  0  0  0  0
  -20.7941  -19.8189   25.5402 C   0  0  0  0  0  0  0  0  0  0  0  0
  -19.3831  -21.6472   26.2497 C   0  0  0  0  0  0  0  0  0  0  0  0
  -27.4273  -28.6619   21.0370 C   0  0  0  0  0  0  0  0  0  0  0  0
  -25.9912  -27.0610   19.9360 C   0  0  0  0  0  0  0  0  0  0  0  0
  -21.7454  -18.6654   20.1268 C   0  0  0  0  0  0  0  0  0  0  0  0
  -29.2971  -25.9078   21.6226 C   0  0  0  0  0  0  0  0  0  0  0  0
  -30.3890  -25.6714   22.4576 C   0  0  0  0  0  0  0  0  0  0  0  0
  -23.6911  -18.8235   21.5440 C   0  0  0  0  0  0  0  0  0  0  0  0
  -31.7763  -27.0424   21.0318 C   0  0  0  0  0  0  0  0  0  0  0  0
  -25.0317  -28.7920   21.3217 C   0  0  0  0  0  0  0  0  0  0  0  0
  -23.1246  -30.4862   21.3439 C   0  0  0  0  0  0  0  0  0  0  0  0
  -26.1868  -11.5737   21.2041 C   0  0  0  0  0  0  0  0  0  0  0  0
  -23.8874  -17.8319   19.3444 C   0  0  0  0  0  0  0  0  0  0  0  0
  -26.5451  -12.3397   20.0762 C   0  0  0  0  0  0  0  0  0  0  0  0
  -24.4823  -18.2242   20.5520 C   0  0  0  0  0  0  0  0  0  0  0  0
  -21.2399  -20.5818   24.4609 C   0  0  0  0  0  0  0  0  0  0  0  0
  -20.7573  -21.8774   24.2760 C   0  0  0  0  0  0  0  0  0  0  0  0
  -19.8289  -22.4101   25.1704 C   0  0  0  0  0  0  0  0  0  0  0  0
  -27.2684  -27.5513   20.2081 C   0  0  0  0  0  0  0  0  0  0  0  0
  -22.3299  -19.0411   21.3328 C   0  0  0  0  0  0  0  0  0  0  0  0
  -29.4447  -26.7115   20.4921 C   0  0  0  0  0  0  0  0  0  0  0  0
  -31.6286  -26.2387   22.1623 C   0  0  0  0  0  0  0  0  0  0  0  0
  -30.6843  -27.2788   20.1967 C   0  0  0  0  0  0  0  0  0  0  0  0
  -23.8760  -29.4321   21.8970 C   0  0  0  0  0  0  0  0  0  0  0  0
  -22.1409  -30.7299   22.2709 C   0  0  0  0  0  0  0  0  0  0  0  0
  -23.3001  -31.1828   20.1031 C   0  0  0  0  0  0  0  0  0  0  0  0
  -25.7257  -15.2415   19.4632 C   0  0  0  0  0  0  0  0  0  0  0  0
  -28.1166  -17.4240   19.6689 C   0  0  0  0  0  0  0  0  0  0  0  0
  -29.0879  -20.5873   20.5034 C   0  0  0  0  0  0  0  0  0  0  0  0
  -19.5800  -27.3360   26.4868 C   0  0  0  0  0  0  0  0  0  0  0  0
  -24.7498  -11.2265   21.5039 C   0  0  0  0  0  0  0  0  0  0  0  0
  -24.7158  -17.2097   18.2540 C   0  0  0  0  0  0  0  0  0  0  0  0
  -25.9495  -18.0125   20.8188 C   0  0  0  0  0  0  0  0  0  0  0  0
  -23.8433  -11.3412   20.2828 C   0  0  0  0  0  0  0  0  0  0  0  0
  -21.2638  -30.4364   26.9651 C   0  0  0  0  0  0  0  0  0  0  0  0
  -24.0641  -12.6803   19.5954 C   0  0  0  0  0  0  0  0  0  0  0  0
  -22.0564  -30.6257   25.6706 C   0  0  0  0  0  0  0  0  0  0  0  0
  -21.2114  -28.9692   27.3854 C   0  0  0  0  0  0  0  0  0  0  0  0
  -21.5119  -28.2340   25.0523 C   0  0  0  0  0  0  0  0  0  0  0  0
  -25.5015  -12.7953   19.0724 C   0  0  1  0  0  0  0  0  0  0  0  0
  -25.9895  -16.5502   18.7737 C   0  0  1  0  0  0  0  0  0  0  0  0
  -21.5452  -29.6904   24.5582 C   0  0  2  0  0  0  0  0  0  0  0  0
  -21.2383  -22.6925   23.1167 C   0  0  0  0  0  0  0  0  0  0  0  0
  -31.1134  -22.0657   20.5977 C   0  0  0  0  0  0  0  0  0  0  0  0
  -29.0557  -15.9729   22.1833 C   0  0  0  0  0  0  0  0  0  0  0  0
  -30.4363  -17.9848   22.7445 C   0  0  0  0  0  0  0  0  0  0  0  0
  -30.8936  -16.7043   20.6531 C   0  0  0  0  0  0  0  0  0  0  0  0
  -27.9158  -22.5117   18.5846 C   0  0  0  0  0  0  0  0  0  0  0  0
  -22.2388  -19.9845   23.5140 C   0  0  0  0  0  0  0  0  0  1  0  0
  -18.3758  -24.3064   25.8903 C   0  0  0  0  0  0  0  0  0  0  0  0
  -18.0185  -25.7150   25.4411 C   0  0  0  0  0  0  0  0  0  0  0  0
  -28.8170  -18.1391   20.7989 C   0  0  1  0  0  0  0  0  0  0  0  0
  -29.9269  -21.6122   19.7616 C   0  0  2  0  0  0  0  0  0  0  0  0
  -29.7726  -17.2027   21.5910 C   0  0  0  0  0  0  0  0  0  0  0  0
  -23.4098  -29.0337   23.0835 N   0  0  0  0  0  0  0  0  0  0  0  0
  -22.3548  -29.8418   23.2837 N   0  0  0  0  0  0  0  0  0  0  0  0
  -26.7160  -17.3947   19.7242 N   0  0  0  0  0  0  0  0  0  0  0  0
  -20.7168  -28.1363   26.2865 N   0  0  0  0  0  0  0  0  0  0  0  0
  -21.1225  -31.6152   22.3105 N   0  0  0  0  0  0  0  0  0  0  0  0
  -24.3614  -30.8052   19.2692 N   0  0  0  0  0  0  0  0  0  0  0  0
  -19.3277  -23.7194   25.0004 N   0  0  0  0  0  0  0  0  0  0  0  0
  -25.7315  -14.1488   18.6174 N   0  0  0  0  0  0  0  0  0  0  0  0
  -29.4738  -19.2980   20.2037 N   0  0  0  0  0  0  0  0  0  0  0  0
  -19.1743  -26.5824   25.3921 N   0  0  0  0  0  0  0  0  0  0  0  0
  -29.1047  -22.8086   19.4246 N   0  3  0  0  0  0  0  0  0  0  0  0
  -22.5482  -32.1234   19.7519 O   0  0  0  0  0  0  0  0  0  0  0  0
  -25.5327  -15.2242   20.6732 O   0  0  0  0  0  0  0  0  0  0  0  0
  -28.7873  -16.9164   18.7665 O   0  0  0  0  0  0  0  0  0  0  0  0
  -28.1833  -20.8995   21.2747 O   0  0  0  0  0  0  0  0  0  0  0  0
  -18.9684  -27.3000   27.5599 O   0  0  0  0  0  0  0  0  0  0  0  0
  -28.3595  -26.9459   19.6644 O   0  0  0  0  0  0  0  0  0  0  0  0
  -21.5751  -19.6248   22.3030 O   0  0  0  0  0  0  0  0  0  1  0  0
  -32.6768  -26.0128   22.9651 F   0  0  0  0  0  0  0  0  0  0  0  0
  -30.8319  -28.0527   19.1127 F   0  0  0  0  0  0  0  0  0  0  0  0
  1  2  1  0  0  0  0
  1  6  2  0  0  0  0
  2  7  2  0  0  0  0
  3  9  2  0  0  0  0
  3 10  1  0  0  0  0
  4 11  2  0  0  0  0
  4 18  1  0  0  0  0
  5 12  1  0  0  0  0
  5 18  2  0  0  0  0
  6 20  1  0  0  0  0
  7 22  1  0  0  0  0
  8 13  2  0  0  0  0
  8 21  1  0  0  0  0
  9 24  1  0  0  0  0
 10 26  2  0  0  0  0
 11 27  1  0  0  0  0
 12 27  2  0  0  0  0
 13 28  1  0  0  0  0
 14 15  2  0  0  0  0
 14 29  1  0  0  0  0
 15 30  1  0  0  0  0
 16 23  1  0  0  0  0
 16 28  2  0  0  0  0
 17 30  2  0  0  0  0
 17 31  1  0  0  0  0
 18 32  1  0  0  0  0
 19 32  1  0  0  0  0
 19 33  2  0  0  0  0
 19 34  1  0  0  0  0
 20 22  2  0  0  0  0
 20 39  1  0  0  0  0
 21 23  2  0  0  0  0
 21 40  1  0  0  0  0
 22 48  1  0  0  0  0
 23 41  1  0  0  0  0
 24 25  2  0  0  0  0
 24 57  1  0  0  0  0
 25 26  1  0  0  0  0
 25 51  1  0  0  0  0
 26 69  1  0  0  0  0
 27 79  1  0  0  0  0
 28 80  1  0  0  0  0
 29 31  2  0  0  0  0
 29 79  1  0  0  0  0
 30 81  1  0  0  0  0
 31 82  1  0  0  0  0
 32 63  2  0  0  0  0
 33 64  1  0  0  0  0
 33 67  1  0  0  0  0
 34 68  1  0  0  0  0
 34 74  2  0  0  0  0
 35 49  1  0  0  0  0
 35 70  1  0  0  0  0
 35 75  2  0  0  0  0
 36 60  1  0  0  0  0
 36 65  1  0  0  0  0
 36 76  2  0  0  0  0
 37 61  1  0  0  0  0
 37 71  1  0  0  0  0
 37 77  2  0  0  0  0
 38 66  1  0  0  0  0
 38 72  1  0  0  0  0
 38 78  2  0  0  0  0
 39 42  1  0  0  0  0
 40 49  1  0  0  0  0
 41 65  1  0  0  0  0
 42 44  1  0  0  0  0
 43 45  1  0  0  0  0
 43 46  1  0  0  0  0
 44 48  1  0  0  0  0
 45 50  1  0  0  0  0
 46 66  1  0  0  0  0
 47 50  1  0  0  0  0
 47 66  1  0  0  0  0
 48 70  1  0  0  0  0
 49 65  1  0  0  0  0
 50 64  1  0  0  0  0
 52 61  1  0  0  0  0
 53 62  1  0  0  0  0
 54 62  1  0  0  0  0
 55 62  1  0  0  0  0
 56 73  1  0  0  0  0
 57 80  1  0  0  0  0
 58 59  1  0  0  0  0
 58 69  1  0  0  0  0
 59 72  1  0  0  0  0
 60 62  1  0  0  0  0
 60 71  1  0  0  0  0
 61 73  1  0  0  0  0
 63 64  1  0  0  0  0
M  CHG  1  73   1
M  ISO  4  38 100  57 101  72 100  80 101
M  END
> <Batch ID>
0134

> <Smiles>
CNC(C)C(=O)NC(C(=O)N1Cc2cc([101O:1][101CH2:1]c3cccc(NCC[100NH:0][100C:0](=O)N4CCCC(n5nc(-c6ccc(Oc7ccc(F)cc7F)cc6)c(C(N)=O)c5N)C4)c3C)ccc2CC1C(=O)NC1CCCc2ccccc21)C(C)(C)C

> <Shape>
0.225

> <Color>
0.078

> <Negative vol penalty>
0.000

$$$$

  -OEChem-04052320573D

 83 92  0     1  0  0  0  0  0999 V2000
  -28.1116  -32.9456   26.6483 C   0  0  0  0  0  0  0  0  0  0  0  0
  -28.7574  -31.8718   26.0439 C   0  0  0  0  0  0  0  0  0  0  0  0
  -23.3121   -9.7839   20.0984 C   0  0  0  0  0  0  0  0  0  0  0  0
  -24.3549   -9.9180   22.2736 C   0  0  0  0  0  0  0  0  0  0  0  0
  -26.7186  -32.9838   26.6940 C   0  0  0  0  0  0  0  0  0  0  0  0
  -28.0105  -30.8350   25.4858 C   0  0  0  0  0  0  0  0  0  0  0  0
  -29.3988  -27.5715   20.4930 C   0  0  0  0  0  0  0  0  0  0  0  0
  -29.7453  -20.7128   20.7495 C   0  0  0  0  0  0  0  0  0  0  0  0
  -30.4912  -19.5344   20.6557 C   0  0  0  0  0  0  0  0  0  0  0  0
  -22.7633   -8.5473   20.4377 C   0  0  0  0  0  0  0  0  0  0  0  0
  -23.8060   -8.6813   22.6129 C   0  0  0  0  0  0  0  0  0  0  0  0
  -29.9834  -26.3170   20.3250 C   0  0  0  0  0  0  0  0  0  0  0  0
  -20.8145   -7.4794   23.6262 C   0  0  0  0  0  0  0  0  0  0  0  0
  -20.2271   -7.3563   24.8853 C   0  0  0  0  0  0  0  0  0  0  0  0
  -30.3492  -21.3439   18.4837 C   0  0  0  0  0  0  0  0  0  0  0  0
  -31.8984  -19.5910   17.3297 C   0  0  0  0  0  0  0  0  0  0  0  0
  -27.7913  -25.3271   20.1403 C   0  0  0  0  0  0  0  0  0  0  0  0
  -21.7949   -5.6054   25.4455 C   0  0  0  0  0  0  0  0  0  0  0  0
  -31.1076  -20.1622   18.3657 C   0  0  0  0  0  0  0  0  0  0  0  0
  -24.1079  -10.4692   21.0163 C   0  0  0  0  0  0  0  0  0  0  0  0
  -24.0998  -13.0157   20.8643 C   0  0  0  0  0  0  0  0  0  0  0  0
  -25.9541  -31.9517   26.1276 C   0  0  0  0  0  0  0  0  0  0  0  0
  -28.0036  -27.7119   20.4968 C   0  0  0  0  0  0  0  0  0  0  0  0
  -26.6060  -30.8588   25.5251 C   0  0  0  0  0  0  0  0  0  0  0  0
  -27.1916  -26.5848   20.3060 C   0  0  0  0  0  0  0  0  0  0  0  0
  -29.6739  -21.6050   19.6815 C   0  0  0  0  0  0  0  0  0  0  0  0
  -31.1610  -19.2865   19.4523 C   0  0  0  0  0  0  0  0  0  0  0  0
  -23.0102   -7.9960   21.6949 C   0  0  0  0  0  0  0  0  0  0  0  0
  -29.1795  -25.1941   20.1515 C   0  0  0  0  0  0  0  0  0  0  0  0
  -21.8921   -6.6654   23.2766 C   0  0  0  0  0  0  0  0  0  0  0  0
  -20.7173   -6.4193   25.7949 C   0  0  0  0  0  0  0  0  0  0  0  0
  -22.3823   -5.7285   24.1863 C   0  0  0  0  0  0  0  0  0  0  0  0
  -24.6756  -11.7465   20.6662 C   0  0  0  0  0  0  0  0  0  0  0  0
  -32.4073  -18.4019   17.7987 C   0  0  0  0  0  0  0  0  0  0  0  0
  -25.0288  -13.8958   20.3656 C   0  0  0  0  0  0  0  0  0  0  0  0
  -22.8379  -13.3677   21.4470 C   0  0  0  0  0  0  0  0  0  0  0  0
  -25.8549  -28.7049   22.6183 C   0  0  0  0  0  0  0  0  0  0  0  0
  -23.8083  -28.3594   20.1254 C   0  0  0  0  0  0  0  0  0  0  0  0
  -23.1056  -26.8633   17.1397 C   0  0  0  0  0  0  0  0  0  0  0  0
  -30.2854  -15.5596   20.1530 C   0  0  0  0  0  0  0  0  0  0  0  0
  -24.4517  -32.0138   26.2432 C   0  0  0  0  0  0  0  0  0  0  0  0
  -27.3891  -29.0760   20.6525 C   0  0  0  0  0  0  0  0  0  0  0  0
  -25.6890  -26.6849   20.2819 C   0  0  0  0  0  0  0  0  0  0  0  0
  -23.7280  -31.0588   25.2973 C   0  0  0  0  0  0  0  0  0  0  0  0
  -29.1719  -13.1195   17.6054 C   0  0  0  0  0  0  0  0  0  0  0  0
  -24.3675  -29.6747   25.3440 C   0  0  0  0  0  0  0  0  0  0  0  0
  -27.8795  -12.6093   18.2350 C   0  0  0  0  0  0  0  0  0  0  0  0
  -30.2216  -13.4766   18.6568 C   0  0  0  0  0  0  0  0  0  0  0  0
  -28.4320  -13.9279   20.3148 C   0  0  0  0  0  0  0  0  0  0  0  0
  -25.8302  -29.7271   24.8866 C   0  0  1  0  0  0  0  0  0  0  0  0
  -25.9491  -29.0288   21.1541 C   0  0  1  0  0  0  0  0  0  0  0  0
  -27.3503  -13.6124   19.2708 C   0  0  2  0  0  0  0  0  0  0  0  0
  -33.2853  -17.4200   17.1291 C   0  0  0  0  0  0  0  0  0  0  0  0
  -21.3406  -26.7517   15.3594 C   0  0  0  0  0  0  0  0  0  0  0  0
  -22.0944  -26.6025   21.9381 C   0  0  0  0  0  0  0  0  0  0  0  0
  -20.9078  -25.7731   19.8955 C   0  0  0  0  0  0  0  0  0  0  0  0
  -20.8035  -28.1908   20.5010 C   0  0  0  0  0  0  0  0  0  0  0  0
  -24.9627  -27.8803   15.0718 C   0  0  0  0  0  0  0  0  0  0  0  0
  -28.8641  -22.8610   19.8153 C   0  0  0  0  0  0  0  0  0  1  0  0
  -32.2842  -17.0479   19.9551 C   0  0  0  0  0  0  0  0  0  0  0  0
  -22.9581  -27.2335   19.5883 C   0  0  1  0  0  0  0  0  0  0  0  0
  -22.6216  -27.4311   15.8177 C   0  0  2  0  0  0  0  0  0  0  0  0
  -21.7192  -26.9474   20.4831 C   0  0  0  0  0  0  0  0  0  0  0  0
  -25.8773  -11.8102   20.0867 N   0  0  0  0  0  0  0  0  0  0  0  0
  -31.9568  -18.2267   19.0797 N   0  0  0  0  0  0  0  0  0  0  0  0
  -26.0642  -13.1301   19.9163 N   0  0  0  0  0  0  0  0  0  0  0  0
  -25.1355  -28.0394   20.4447 N   0  0  0  0  0  0  0  0  0  0  0  0
  -29.6784  -14.3795   19.6841 N   0  0  0  0  0  0  0  0  0  0  0  0
  -25.0529  -15.2423   20.2718 N   0  0  0  0  0  0  0  0  0  0  0  0
  -22.0052  -12.3393   21.9088 N   0  0  0  0  0  0  0  0  0  0  0  0
  -25.9059  -29.8118   23.4439 N   0  0  0  0  0  0  0  0  0  0  0  0
  -22.6316  -27.5895   18.2117 N   0  0  0  0  0  0  0  0  0  0  0  0
  -31.5142  -15.8717   19.5820 N   0  0  0  0  0  0  0  0  0  0  0  0
  -23.6571  -27.2424   14.7627 N   0  3  0  0  0  0  0  0  0  0  0  0
  -22.4529  -14.5579   21.5401 O   0  0  0  0  0  0  0  0  0  0  0  0
  -25.7426  -27.5372   22.9727 O   0  0  0  0  0  0  0  0  0  0  0  0
  -23.3150  -29.4831   20.2502 O   0  0  0  0  0  0  0  0  0  0  0  0
  -23.8287  -25.8722   17.2141 O   0  0  0  0  0  0  0  0  0  0  0  0
  -29.7727  -16.2741   21.0210 O   0  0  0  0  0  0  0  0  0  0  0  0
  -22.4746   -6.7894   22.0265 O   0  0  0  0  0  0  0  0  0  0  0  0
  -29.7475  -23.9683   19.9880 O   0  0  0  0  0  0  0  0  0  1  0  0
  -20.1541   -6.3023   27.0046 F   0  0  0  0  0  0  0  0  0  0  0  0
  -23.4180   -4.9446   23.8567 F   0  0  0  0  0  0  0  0  0  0  0  0
  1  2  1  0  0  0  0
  1  5  2  0  0  0  0
  2  6  2  0  0  0  0
  3 10  2  0  0  0  0
  3 20  1  0  0  0  0
  4 11  1  0  0  0  0
  4 20  2  0  0  0  0
  5 22  1  0  0  0  0
  6 24  1  0  0  0  0
  7 12  2  0  0  0  0
  7 23  1  0  0  0  0
  8  9  2  0  0  0  0
  8 26  1  0  0  0  0
  9 27  1  0  0  0  0
 10 28  1  0  0  0  0
 11 28  2  0  0  0  0
 12 29  1  0  0  0  0
 13 14  2  0  0  0  0
 13 30  1  0  0  0  0
 14 31  1  0  0  0  0
 15 19  1  0  0  0  0
 15 26  2  0  0  0  0
 16 19  1  0  0  0  0
 16 34  2  0  0  0  0
 17 25  1  0  0  0  0
 17 29  2  0  0  0  0
 18 31  2  0  0  0  0
 18 32  1  0  0  0  0
 19 27  2  0  0  0  0
 20 33  1  0  0  0  0
 21 33  1  0  0  0  0
 21 35  2  0  0  0  0
 21 36  1  0  0  0  0
 22 24  2  0  0  0  0
 22 41  1  0  0  0  0
 23 25  2  0  0  0  0
 23 42  1  0  0  0  0
 24 50  1  0  0  0  0
 25 43  1  0  0  0  0
 26 59  1  0  0  0  0
 27 65  1  0  0  0  0
 28 80  1  0  0  0  0
 29 81  1  0  0  0  0
 30 32  2  0  0  0  0
 30 80  1  0  0  0  0
 31 82  1  0  0  0  0
 32 83  1  0  0  0  0
 33 64  2  0  0  0  0
 34 53  1  0  0  0  0
 34 65  1  0  0  0  0
 35 66  1  0  0  0  0
 35 69  1  0  0  0  0
 36 70  1  0  0  0  0
 36 75  2  0  0  0  0
 37 51  1  0  0  0  0
 37 71  1  0  0  0  0
 37 76  2  0  0  0  0
 38 61  1  0  0  0  0
 38 67  1  0  0  0  0
 38 77  2  0  0  0  0
 39 62  1  0  0  0  0
 39 72  1  0  0  0  0
 39 78  2  0  0  0  0
 40 68  1  0  0  0  0
 40 73  1  0  0  0  0
 40 79  2  0  0  0  0
 41 44  1  0  0  0  0
 42 51  1  0  0  0  0
 43 67  1  0  0  0  0
 44 46  1  0  0  0  0
 45 47  1  0  0  0  0
 45 48  1  0  0  0  0
 46 50  1  0  0  0  0
 47 52  1  0  0  0  0
 48 68  1  0  0  0  0
 49 52  1  0  0  0  0
 49 68  1  0  0  0  0
 50 71  1  0  0  0  0
 51 67  1  0  0  0  0
 52 66  1  0  0  0  0
 54 62  1  0  0  0  0
 55 63  1  0  0  0  0
 56 63  1  0  0  0  0
 57 63  1  0  0  0  0
 58 74  1  0  0  0  0
 59 81  1  0  0  0  0
 60 65  1  0  0  0  0
 60 73  1  0  0  0  0
 61 63  1  0  0  0  0
 61 72  1  0  0  0  0
 62 74  1  0  0  0  0
 64 66  1  0  0  0  0
M  CHG  1  74   1
M  ISO  4  40 100  59 101  73 100  81 101
M  END
> <Batch ID>
0134

> <Smiles>
CNC(C)C(=O)NC(C(=O)N1Cc2cc([101O:1][101CH2:1]c3ccc4c(c3)cc(C)n4C[100NH:0][100C:0](=O)N3CCCC(n4nc(-c5ccc(Oc6ccc(F)cc6F)cc5)c(C(N)=O)c4N)C3)ccc2CC1C(=O)NC1CCCc2ccccc21)C(C)(C)C

> <Shape>
0.339

> <Color>
0.145

> <Negative vol penalty>
0.000

$$$$

  -OEChem-04052320573D

 83 91  0     1  0  0  0  0  0999 V2000
  -17.9988  -33.9740   21.5009 C   0  0  0  0  0  0  0  0  0  0  0  0
  -19.2544  -33.7764   20.9354 C   0  0  0  0  0  0  0  0  0  0  0  0
  -23.4477   -9.8935   22.3621 C   0  0  0  0  0  0  0  0  0  0  0  0
  -23.3361   -9.7099   19.9557 C   0  0  0  0  0  0  0  0  0  0  0  0
  -17.6483  -33.3003   22.6702 C   0  0  0  0  0  0  0  0  0  0  0  0
  -20.1607  -32.9057   21.5396 C   0  0  0  0  0  0  0  0  0  0  0  0
  -23.8380  -26.6764   18.5898 C   0  0  0  0  0  0  0  0  0  0  0  0
  -22.6388   -8.7639   22.4858 C   0  0  0  0  0  0  0  0  0  0  0  0
  -22.5272   -8.5803   20.0794 C   0  0  0  0  0  0  0  0  0  0  0  0
  -24.4253  -25.4638   18.2281 C   0  0  0  0  0  0  0  0  0  0  0  0
  -22.9973   -5.4083   22.2753 C   0  0  0  0  0  0  0  0  0  0  0  0
  -23.3732   -4.4407   23.2069 C   0  0  0  0  0  0  0  0  0  0  0  0
  -24.4421  -24.7688   20.5443 C   0  0  0  0  0  0  0  0  0  0  0  0
  -21.2777   -4.7462   24.3699 C   0  0  0  0  0  0  0  0  0  0  0  0
  -23.7963  -10.3665   21.0970 C   0  0  0  0  0  0  0  0  0  0  0  0
  -24.3594  -12.8302   21.4450 C   0  0  0  0  0  0  0  0  0  0  0  0
  -18.5472  -32.4136   23.2837 C   0  0  0  0  0  0  0  0  0  0  0  0
  -23.5361  -26.9339   19.9300 C   0  0  0  0  0  0  0  0  0  0  0  0
  -19.8224  -32.2205   22.7189 C   0  0  0  0  0  0  0  0  0  0  0  0
  -23.8424  -25.9766   20.9111 C   0  0  0  0  0  0  0  0  0  0  0  0
  -22.1786   -8.1073   21.3444 C   0  0  0  0  0  0  0  0  0  0  0  0
  -24.7267  -24.5125   19.2030 C   0  0  0  0  0  0  0  0  0  0  0  0
  -21.7616   -6.0450   22.3910 C   0  0  0  0  0  0  0  0  0  0  0  0
  -22.5134   -4.1096   24.2542 C   0  0  0  0  0  0  0  0  0  0  0  0
  -20.9018   -5.7139   23.4382 C   0  0  0  0  0  0  0  0  0  0  0  0
  -24.6314  -11.5337   20.9686 C   0  0  0  0  0  0  0  0  0  0  0  0
  -25.4548  -13.5700   21.0717 C   0  0  0  0  0  0  0  0  0  0  0  0
  -23.2187  -13.3218   22.1611 C   0  0  0  0  0  0  0  0  0  0  0  0
  -22.0955  -29.3208   22.4406 C   0  0  0  0  0  0  0  0  0  0  0  0
  -27.1887  -21.9211   19.0281 C   0  0  0  0  0  0  0  0  0  0  0  0
  -21.1633  -26.5112   23.2453 C   0  0  0  0  0  0  0  0  0  0  0  0
  -20.0109  -23.3146   23.5467 C   0  0  0  0  0  0  0  0  0  0  0  0
  -30.9806  -14.1733   20.5750 C   0  0  0  0  0  0  0  0  0  0  0  0
  -18.1408  -31.7441   24.5726 C   0  0  0  0  0  0  0  0  0  0  0  0
  -22.9599  -28.2513   20.3728 C   0  0  0  0  0  0  0  0  0  0  0  0
  -23.5316  -26.3110   22.3445 C   0  0  0  0  0  0  0  0  0  0  0  0
  -19.0204  -30.5530   24.9440 C   0  0  0  0  0  0  0  0  0  0  0  0
  -29.2848  -12.4439   17.9654 C   0  0  0  0  0  0  0  0  0  0  0  0
  -20.4953  -30.9087   24.7858 C   0  0  0  0  0  0  0  0  0  0  0  0
  -27.9035  -12.1547   18.5556 C   0  0  0  0  0  0  0  0  0  0  0  0
  -30.3830  -12.3388   19.0213 C   0  0  0  0  0  0  0  0  0  0  0  0
  -29.1693  -20.4461   19.1036 C   0  0  0  0  0  0  0  0  0  0  0  0
  -28.2627  -21.2911   21.2422 C   0  0  0  0  0  0  0  0  0  0  0  0
  -28.7814  -12.8691   20.8178 C   0  0  0  0  0  0  0  0  0  0  0  0
  -29.2808  -19.0452   19.6850 C   0  0  0  0  0  0  0  0  0  0  0  0
  -28.3675  -19.8999   21.8507 C   0  0  0  0  0  0  0  0  0  0  0  0
  -20.8238  -31.2652   23.3310 C   0  0  1  0  0  0  0  0  0  0  0  0
  -21.9819  -28.1159   21.5537 C   0  0  1  0  0  0  0  0  0  0  0  0
  -27.6349  -13.0177   19.8031 C   0  0  2  0  0  0  0  0  0  0  0  0
  -18.5364  -21.8795   24.9833 C   0  0  0  0  0  0  0  0  0  0  0  0
  -23.3363  -26.4261   25.3842 C   0  0  0  0  0  0  0  0  0  0  0  0
  -22.2853  -24.3326   26.2678 C   0  0  0  0  0  0  0  0  0  0  0  0
  -20.9988  -26.4698   26.2724 C   0  0  0  0  0  0  0  0  0  0  0  0
  -18.2030  -22.7051   21.2842 C   0  0  0  0  0  0  0  0  0  0  0  0
  -26.1545  -22.7050   19.7963 C   0  0  0  0  0  0  0  0  0  1  0  0
  -31.1270  -17.3417   21.5560 C   0  0  0  0  0  0  0  0  0  0  0  0
  -31.4320  -15.9937   22.2003 C   0  0  0  0  0  0  0  0  0  0  0  0
  -29.6901  -17.7855   21.7987 C   0  0  0  0  0  0  0  0  0  0  0  0
  -21.4230  -25.2832   24.0806 C   0  0  1  0  0  0  0  0  0  0  0  0
  -18.6110  -22.7630   23.7477 C   0  0  2  0  0  0  0  0  0  0  0  0
  -22.0193  -25.6295   25.4741 C   0  0  0  0  0  0  0  0  0  0  0  0
  -25.8072  -11.4513   20.3404 N   0  0  0  0  0  0  0  0  0  0  0  0
  -26.2838  -12.7054   20.4194 N   0  0  0  0  0  0  0  0  0  0  0  0
  -22.2136  -26.9587   22.4348 N   0  0  0  0  0  0  0  0  0  0  0  0
  -28.1383  -21.2306   19.7823 N   0  0  0  0  0  0  0  0  0  0  0  0
  -30.0683  -13.1822   20.1770 N   0  0  0  0  0  0  0  0  0  0  0  0
  -25.7800  -14.8692   21.2409 N   0  0  0  0  0  0  0  0  0  0  0  0
  -22.1366  -13.8274   21.4279 N   0  0  0  0  0  0  0  0  0  0  0  0
  -20.9349  -30.0655   22.5293 N   0  0  0  0  0  0  0  0  0  0  0  0
  -20.1616  -24.5524   24.1353 N   0  0  0  0  0  0  0  0  0  0  0  0
  -30.6021  -14.9322   21.6757 N   0  0  0  0  0  0  0  0  0  0  0  0
  -29.4831  -19.1387   21.1775 N   0  3  0  0  0  0  0  0  0  0  0  0
  -18.1983  -21.9542   22.5660 N   0  3  0  0  0  0  0  0  0  0  0  0
  -23.1676  -13.3280   23.4145 O   0  0  0  0  0  0  0  0  0  0  0  0
  -23.1572  -29.5578   23.0048 O   0  0  0  0  0  0  0  0  0  0  0  0
  -27.1505  -21.9210   17.7949 O   0  0  0  0  0  0  0  0  0  0  0  0
  -20.0618  -27.0641   23.3119 O   0  0  0  0  0  0  0  0  0  0  0  0
  -20.8846  -22.7065   22.9324 O   0  0  0  0  0  0  0  0  0  0  0  0
  -32.0506  -14.3710   19.9893 O   0  0  0  0  0  0  0  0  0  0  0  0
  -21.3895   -7.0048   21.4648 O   0  0  0  0  0  0  0  0  0  0  0  0
  -25.2959  -23.3289   18.8425 O   0  0  0  0  0  0  0  0  0  1  0  0
  -22.8739   -3.1793   25.1479 F   0  0  0  0  0  0  0  0  0  0  0  0
  -19.7128   -6.3212   23.5538 F   0  0  0  0  0  0  0  0  0  0  0  0
  1  2  1  0  0  0  0
  1  5  2  0  0  0  0
  2  6  2  0  0  0  0
  3  8  2  0  0  0  0
  3 15  1  0  0  0  0
  4  9  1  0  0  0  0
  4 15  2  0  0  0  0
  5 17  1  0  0  0  0
  6 19  1  0  0  0  0
  7 10  2  0  0  0  0
  7 18  1  0  0  0  0
  8 21  1  0  0  0  0
  9 21  2  0  0  0  0
 10 22  1  0  0  0  0
 11 12  2  0  0  0  0
 11 23  1  0  0  0  0
 12 24  1  0  0  0  0
 13 20  1  0  0  0  0
 13 22  2  0  0  0  0
 14 24  2  0  0  0  0
 14 25  1  0  0  0  0
 15 26  1  0  0  0  0
 16 26  1  0  0  0  0
 16 27  2  0  0  0  0
 16 28  1  0  0  0  0
 17 19  2  0  0  0  0
 17 34  1  0  0  0  0
 18 20  2  0  0  0  0
 18 35  1  0  0  0  0
 19 47  1  0  0  0  0
 20 36  1  0  0  0  0
 21 80  1  0  0  0  0
 22 81  1  0  0  0  0
 23 25  2  0  0  0  0
 23 80  1  0  0  0  0
 24 82  1  0  0  0  0
 25 83  1  0  0  0  0
 26 62  2  0  0  0  0
 27 63  1  0  0  0  0
 27 67  1  0  0  0  0
 28 68  1  0  0  0  0
 28 74  2  0  0  0  0
 29 48  1  0  0  0  0
 29 69  1  0  0  0  0
 29 75  2  0  0  0  0
 30 55  1  0  0  0  0
 30 65  1  0  0  0  0
 30 76  2  0  0  0  0
 31 59  1  0  0  0  0
 31 64  1  0  0  0  0
 31 77  2  0  0  0  0
 32 60  1  0  0  0  0
 32 70  1  0  0  0  0
 32 78  2  0  0  0  0
 33 66  1  0  0  0  0
 33 71  1  0  0  0  0
 33 79  2  0  0  0  0
 34 37  1  0  0  0  0
 35 48  1  0  0  0  0
 36 64  1  0  0  0  0
 37 39  1  0  0  0  0
 38 40  1  0  0  0  0
 38 41  1  0  0  0  0
 39 47  1  0  0  0  0
 40 49  1  0  0  0  0
 41 66  1  0  0  0  0
 42 45  1  0  0  0  0
 42 65  1  0  0  0  0
 43 46  1  0  0  0  0
 43 65  1  0  0  0  0
 44 49  1  0  0  0  0
 44 66  1  0  0  0  0
 45 72  1  0  0  0  0
 46 72  1  0  0  0  0
 47 69  1  0  0  0  0
 48 64  1  0  0  0  0
 49 63  1  0  0  0  0
 50 60  1  0  0  0  0
 51 61  1  0  0  0  0
 52 61  1  0  0  0  0
 53 61  1  0  0  0  0
 54 73  1  0  0  0  0
 55 81  1  0  0  0  0
 56 57  1  0  0  0  0
 56 58  1  0  0  0  0
 57 71  1  0  0  0  0
 58 72  1  0  0  0  0
 59 61  1  0  0  0  0
 59 70  1  0  0  0  0
 60 73  1  0  0  0  0
 62 63  1  0  0  0  0
M  CHG  2  72   1  73   1
M  ISO  4  33 100  55 101  71 100  81 101
M  END
> <Batch ID>
0134

> <Smiles>
CNC(C)C(=O)NC(C(=O)N1Cc2cc([101O:1][101CH2:1]C(=O)N3CCN(CCC[100NH:0][100C:0](=O)N4CCCC(n5nc(-c6ccc(Oc7ccc(F)cc7F)cc6)c(C(N)=O)c5N)C4)CC3)ccc2CC1C(=O)NC1CCCc2ccccc21)C(C)(C)C

> <Shape>
0.283

> <Color>
0.168

> <Negative vol penalty>
0.000

$$$$

  -OEChem-04052320573D

 85 93  0     1  0  0  0  0  0999 V2000
  -21.7407  -12.6659   19.3995 C   0  0  0  0  0  0  0  0  0  0  0  0
  -21.7196  -14.0146   19.7401 C   0  0  0  0  0  0  0  0  0  0  0  0
  -28.7555  -26.7051   16.7555 C   0  0  0  0  0  0  0  0  0  0  0  0
  -29.7835  -26.2971   18.9035 C   0  0  0  0  0  0  0  0  0  0  0  0
  -22.8805  -11.9028   19.6493 C   0  0  0  0  0  0  0  0  0  0  0  0
  -22.8379  -14.6008   20.3318 C   0  0  0  0  0  0  0  0  0  0  0  0
  -23.9732  -19.1011   18.3061 C   0  0  0  0  0  0  0  0  0  0  0  0
  -21.3588  -25.6793   24.2166 C   0  0  0  0  0  0  0  0  0  0  0  0
  -29.9982  -26.5737   16.1358 C   0  0  0  0  0  0  0  0  0  0  0  0
  -31.0262  -26.1656   18.2838 C   0  0  0  0  0  0  0  0  0  0  0  0
  -23.2005  -20.1914   18.7035 C   0  0  0  0  0  0  0  0  0  0  0  0
  -21.3417  -24.5086   23.4586 C   0  0  0  0  0  0  0  0  0  0  0  0
  -34.5266  -26.0790   17.3093 C   0  0  0  0  0  0  0  0  0  0  0  0
  -35.6149  -26.7256   17.8951 C   0  0  0  0  0  0  0  0  0  0  0  0
  -24.9397  -20.8574   20.2368 C   0  0  0  0  0  0  0  0  0  0  0  0
  -20.3881  -25.7249   21.6016 C   0  0  0  0  0  0  0  0  0  0  0  0
  -34.5024  -28.8519   17.6149 C   0  0  0  0  0  0  0  0  0  0  0  0
  -28.6482  -26.5668   18.1394 C   0  0  0  0  0  0  0  0  0  0  0  0
  -26.4290  -25.6826   19.0344 C   0  0  0  0  0  0  0  0  0  0  0  0
  -24.0169  -12.4822   20.2355 C   0  0  0  0  0  0  0  0  0  0  0  0
  -25.2325  -18.8742   18.8799 C   0  0  0  0  0  0  0  0  0  0  0  0
  -23.9936  -13.8444   20.5909 C   0  0  0  0  0  0  0  0  0  0  0  0
  -25.7275  -19.7649   19.8431 C   0  0  0  0  0  0  0  0  0  0  0  0
  -20.8905  -26.8729   23.6672 C   0  0  0  0  0  0  0  0  0  0  0  0
  -20.4052  -26.8957   22.3597 C   0  0  0  0  0  0  0  0  0  0  0  0
  -31.1336  -26.3039   16.8999 C   0  0  0  0  0  0  0  0  0  0  0  0
  -23.6824  -21.0681   19.6711 C   0  0  0  0  0  0  0  0  0  0  0  0
  -20.8564  -24.5314   22.1511 C   0  0  0  0  0  0  0  0  0  0  0  0
  -33.4263  -26.8188   16.8762 C   0  0  0  0  0  0  0  0  0  0  0  0
  -35.6028  -28.1120   18.0479 C   0  0  0  0  0  0  0  0  0  0  0  0
  -33.4142  -28.2052   17.0290 C   0  0  0  0  0  0  0  0  0  0  0  0
  -27.3649  -26.7031   18.7802 C   0  0  0  0  0  0  0  0  0  0  0  0
  -25.3846  -26.3217   19.6566 C   0  0  0  0  0  0  0  0  0  0  0  0
  -26.4977  -24.2821   18.7350 C   0  0  0  0  0  0  0  0  0  0  0  0
  -26.5228  -16.5380   20.6064 C   0  0  0  0  0  0  0  0  0  0  0  0
  -29.2318  -18.2812   20.2257 C   0  0  0  0  0  0  0  0  0  0  0  0
  -30.6597  -21.3203   19.6160 C   0  0  0  0  0  0  0  0  0  0  0  0
  -23.4549  -29.9662   23.4169 C   0  0  0  0  0  0  0  0  0  0  0  0
  -25.2088  -11.6060   20.5295 C   0  0  0  0  0  0  0  0  0  0  0  0
  -26.0650  -17.7086   18.4210 C   0  0  0  0  0  0  0  0  0  0  0  0
  -27.0816  -19.5772   20.4752 C   0  0  0  0  0  0  0  0  0  0  0  0
  -26.4860  -12.3912   20.8167 C   0  0  0  0  0  0  0  0  0  0  0  0
  -24.4206  -31.2529   20.2406 C   0  0  0  0  0  0  0  0  0  0  0  0
  -26.2056  -13.5269   21.7957 C   0  0  0  0  0  0  0  0  0  0  0  0
  -25.2004  -30.1024   19.6016 C   0  0  0  0  0  0  0  0  0  0  0  0
  -24.6673  -31.3347   21.7454 C   0  0  0  0  0  0  0  0  0  0  0  0
  -25.2009  -28.9306   21.8434 C   0  0  0  0  0  0  0  0  0  0  0  0
  -25.1958  -14.5222   21.2116 C   0  0  1  0  0  0  0  0  0  0  0  0
  -27.1142  -17.2842   19.4440 C   0  0  1  0  0  0  0  0  0  0  0  0
  -24.9405  -28.7731   20.3356 C   0  0  2  0  0  0  0  0  0  0  0  0
  -17.9931  -29.8287   21.6636 C   0  0  0  0  0  0  0  0  0  0  0  0
  -32.8959  -22.4390   19.4035 C   0  0  0  0  0  0  0  0  0  0  0  0
  -29.5471  -18.2220   23.2600 C   0  0  0  0  0  0  0  0  0  0  0  0
  -31.1940  -20.0966   23.0557 C   0  0  0  0  0  0  0  0  0  0  0  0
  -31.6729  -17.8956   21.9838 C   0  0  0  0  0  0  0  0  0  0  0  0
  -30.1284  -22.1093   16.8135 C   0  0  0  0  0  0  0  0  0  0  0  0
  -20.9188  -28.1134   24.4982 C   0  0  0  0  0  0  0  0  0  0  0  0
  -19.8976  -28.1614   21.7509 C   0  0  0  0  0  0  0  0  0  0  0  0
  -18.4942  -28.5223   22.2588 C   0  0  0  0  0  0  0  0  0  0  0  0
  -22.3135  -28.4633   25.0286 C   0  0  0  0  0  0  0  0  0  0  0  0
  -21.6562  -22.2912   19.4378 C   0  0  0  0  0  0  0  0  0  1  0  0
  -20.9806  -23.5275   19.9987 C   0  0  0  0  0  0  0  0  0  0  0  0
  -29.9000  -19.3990   20.9893 C   0  0  1  0  0  0  0  0  0  0  0  0
  -31.7649  -21.7412   18.6642 C   0  0  2  0  0  0  0  0  0  0  0  0
  -30.5521  -18.9060   22.3119 C   0  0  0  0  0  0  0  0  0  0  0  0
  -26.9514  -27.8996   19.2059 N   0  0  0  0  0  0  0  0  0  0  0  0
  -25.7442  -27.6351   19.7339 N   0  0  0  0  0  0  0  0  0  0  0  0
  -27.8553  -18.4192   19.9977 N   0  0  0  0  0  0  0  0  0  0  0  0
  -24.4013  -30.0423   22.3817 N   0  0  0  0  0  0  0  0  0  0  0  0
  -24.2029  -25.8828   20.1396 N   0  0  0  0  0  0  0  0  0  0  0  0
  -27.6429  -23.7915   18.0929 N   0  0  0  0  0  0  0  0  0  0  0  0
  -25.8405  -15.3905   20.2499 N   0  0  0  0  0  0  0  0  0  0  0  0
  -30.8337  -20.0266   20.0604 N   0  0  0  0  0  0  0  0  0  0  0  0
  -23.2587  -28.7028   23.9609 N   0  0  0  0  0  0  0  0  0  0  0  0
  -31.2318  -22.6746   17.6319 N   0  3  0  0  0  0  0  0  0  0  0  0
  -25.5640  -23.4920   19.0134 O   0  0  0  0  0  0  0  0  0  0  0  0
  -26.6756  -16.9705   21.7428 O   0  0  0  0  0  0  0  0  0  0  0  0
  -29.9077  -17.3243   19.8393 O   0  0  0  0  0  0  0  0  0  0  0  0
  -29.7367  -22.0659   19.9364 O   0  0  0  0  0  0  0  0  0  0  0  0
  -22.8272  -30.9503   23.8223 O   0  0  0  0  0  0  0  0  0  0  0  0
  -32.3463  -26.1753   16.2955 O   0  0  0  0  0  0  0  0  0  0  0  0
  -22.9300  -22.1327   20.0613 O   0  0  0  0  0  0  0  0  0  1  0  0
  -20.8392  -23.3814   21.4065 O   0  0  0  0  0  0  0  0  0  0  0  0
  -36.6472  -28.7326   18.6119 F   0  0  0  0  0  0  0  0  0  0  0  0
  -32.3594  -28.9212   16.6159 F   0  0  0  0  0  0  0  0  0  0  0  0
  1  2  1  0  0  0  0
  1  5  2  0  0  0  0
  2  6  2  0  0  0  0
  3  9  2  0  0  0  0
  3 18  1  0  0  0  0
  4 10  1  0  0  0  0
  4 18  2  0  0  0  0
  5 20  1  0  0  0  0
  6 22  1  0  0  0  0
  7 11  2  0  0  0  0
  7 21  1  0  0  0  0
  8 12  2  0  0  0  0
  8 24  1  0  0  0  0
  9 26  1  0  0  0  0
 10 26  2  0  0  0  0
 11 27  1  0  0  0  0
 12 28  1  0  0  0  0
 13 14  2  0  0  0  0
 13 29  1  0  0  0  0
 14 30  1  0  0  0  0
 15 23  1  0  0  0  0
 15 27  2  0  0  0  0
 16 25  1  0  0  0  0
 16 28  2  0  0  0  0
 17 30  2  0  0  0  0
 17 31  1  0  0  0  0
 18 32  1  0  0  0  0
 19 32  1  0  0  0  0
 19 33  2  0  0  0  0
 19 34  1  0  0  0  0
 20 22  2  0  0  0  0
 20 39  1  0  0  0  0
 21 23  2  0  0  0  0
 21 40  1  0  0  0  0
 22 48  1  0  0  0  0
 23 41  1  0  0  0  0
 24 25  2  0  0  0  0
 24 57  1  0  0  0  0
 25 58  1  0  0  0  0
 26 81  1  0  0  0  0
 27 82  1  0  0  0  0
 28 83  1  0  0  0  0
 29 31  2  0  0  0  0
 29 81  1  0  0  0  0
 30 84  1  0  0  0  0
 31 85  1  0  0  0  0
 32 66  2  0  0  0  0
 33 67  1  0  0  0  0
 33 70  1  0  0  0  0
 34 71  1  0  0  0  0
 34 76  2  0  0  0  0
 35 49  1  0  0  0  0
 35 72  1  0  0  0  0
 35 77  2  0  0  0  0
 36 63  1  0  0  0  0
 36 68  1  0  0  0  0
 36 78  2  0  0  0  0
 37 64  1  0  0  0  0
 37 73  1  0  0  0  0
 37 79  2  0  0  0  0
 38 69  1  0  0  0  0
 38 74  1  0  0  0  0
 38 80  2  0  0  0  0
 39 42  1  0  0  0  0
 40 49  1  0  0  0  0
 41 68  1  0  0  0  0
 42 44  1  0  0  0  0
 43 45  1  0  0  0  0
 43 46  1  0  0  0  0
 44 48  1  0  0  0  0
 45 50  1  0  0  0  0
 46 69  1  0  0  0  0
 47 50  1  0  0  0  0
 47 69  1  0  0  0  0
 48 72  1  0  0  0  0
 49 68  1  0  0  0  0
 50 67  1  0  0  0  0
 51 59  1  0  0  0  0
 52 64  1  0  0  0  0
 53 65  1  0  0  0  0
 54 65  1  0  0  0  0
 55 65  1  0  0  0  0
 56 75  1  0  0  0  0
 57 60  1  0  0  0  0
 58 59  1  0  0  0  0
 60 74  1  0  0  0  0
 61 62  1  0  0  0  0
 61 82  1  0  0  0  0
 62 83  1  0  0  0  0
 63 65  1  0  0  0  0
 63 73  1  0  0  0  0
 64 75  1  0  0  0  0
 66 67  1  0  0  0  0
M  CHG  1  75   1
M  ISO  4  38 100  61 101  74 100  82 101
M  END
> <Batch ID>
0134

> <Smiles>
CCCc1cc(OC[101CH2:1][101O:1]c2ccc3c(c2)CN(C(=O)C(NC(=O)C(C)NC)C(C)(C)C)C(C(=O)NC2CCCc4ccccc42)C3)ccc1CC[100NH:0][100C:0](=O)N1CCCC(n2nc(-c3ccc(Oc4ccc(F)cc4F)cc3)c(C(N)=O)c2N)C1

> <Shape>
0.215

> <Color>
0.070

> <Negative vol penalty>
0.000

$$$$

  -OEChem-04052320573D

 81 89  0     1  0  0  0  0  0999 V2000
  -32.5211  -30.6097   22.9000 C   0  0  0  0  0  0  0  0  0  0  0  0
  -31.9554  -29.3484   22.7433 C   0  0  0  0  0  0  0  0  0  0  0  0
  -22.7192  -10.2288   20.1395 C   0  0  0  0  0  0  0  0  0  0  0  0
  -24.3711   -9.5281   21.7573 C   0  0  0  0  0  0  0  0  0  0  0  0
  -31.7014  -31.7213   23.0903 C   0  0  0  0  0  0  0  0  0  0  0  0
  -30.5695  -29.1979   22.7779 C   0  0  0  0  0  0  0  0  0  0  0  0
  -28.8505  -26.1806   19.0920 C   0  0  0  0  0  0  0  0  0  0  0  0
  -29.2748  -20.1537   21.1392 C   0  0  0  0  0  0  0  0  0  0  0  0
  -29.2241  -18.7760   21.3514 C   0  0  0  0  0  0  0  0  0  0  0  0
  -22.0638   -9.0054   20.2789 C   0  0  0  0  0  0  0  0  0  0  0  0
  -23.7156   -8.3048   21.8968 C   0  0  0  0  0  0  0  0  0  0  0  0
  -28.9970  -24.8062   19.2739 C   0  0  0  0  0  0  0  0  0  0  0  0
  -22.2742   -5.1365   22.9470 C   0  0  0  0  0  0  0  0  0  0  0  0
  -22.0797   -4.6477   24.2387 C   0  0  0  0  0  0  0  0  0  0  0  0
  -26.6906  -24.6578   19.9649 C   0  0  0  0  0  0  0  0  0  0  0  0
  -29.2437  -19.7870   18.7514 C   0  0  0  0  0  0  0  0  0  0  0  0
  -20.7947   -6.6178   24.7908 C   0  0  0  0  0  0  0  0  0  0  0  0
  -23.8729  -10.4901   20.8787 C   0  0  0  0  0  0  0  0  0  0  0  0
  -24.3242  -12.9289   21.4755 C   0  0  0  0  0  0  0  0  0  0  0  0
  -30.3044  -31.5857   23.1176 C   0  0  0  0  0  0  0  0  0  0  0  0
  -27.6238  -26.8068   19.3560 C   0  0  0  0  0  0  0  0  0  0  0  0
  -29.7304  -30.3086   22.9701 C   0  0  0  0  0  0  0  0  0  0  0  0
  -26.5303  -26.0399   19.7831 C   0  0  0  0  0  0  0  0  0  0  0  0
  -29.2845  -20.6592   19.8392 C   0  0  0  0  0  0  0  0  0  0  0  0
  -29.1833  -17.9038   20.2636 C   0  0  0  0  0  0  0  0  0  0  0  0
  -29.1931  -18.4093   18.9636 C   0  0  0  0  0  0  0  0  0  0  0  0
  -22.5619   -8.0434   21.1575 C   0  0  0  0  0  0  0  0  0  0  0  0
  -27.9178  -24.0450   19.7132 C   0  0  0  0  0  0  0  0  0  0  0  0
  -21.7291   -6.3661   22.5770 C   0  0  0  0  0  0  0  0  0  0  0  0
  -21.3399   -5.3883   25.1606 C   0  0  0  0  0  0  0  0  0  0  0  0
  -20.9893   -7.1067   23.4989 C   0  0  0  0  0  0  0  0  0  0  0  0
  -24.5507  -11.7534   20.7348 C   0  0  0  0  0  0  0  0  0  0  0  0
  -25.2160  -13.8371   20.9595 C   0  0  0  0  0  0  0  0  0  0  0  0
  -23.3911  -13.1777   22.5353 C   0  0  0  0  0  0  0  0  0  0  0  0
  -26.6405  -29.0496   21.3825 C   0  0  0  0  0  0  0  0  0  0  0  0
  -23.8669  -28.7842   19.7214 C   0  0  0  0  0  0  0  0  0  0  0  0
  -21.8474  -26.8749   17.7407 C   0  0  0  0  0  0  0  0  0  0  0  0
  -30.5985  -14.7257   19.3607 C   0  0  0  0  0  0  0  0  0  0  0  0
  -29.4611  -32.8097   23.3732 C   0  0  0  0  0  0  0  0  0  0  0  0
  -27.4745  -28.2862   19.1291 C   0  0  0  0  0  0  0  0  0  0  0  0
  -25.1866  -26.6608   20.0610 C   0  0  0  0  0  0  0  0  0  0  0  0
  -27.9877  -32.6183   23.0228 C   0  0  0  0  0  0  0  0  0  0  0  0
  -28.1191  -13.6475   16.8326 C   0  0  0  0  0  0  0  0  0  0  0  0
  -27.4732  -31.2961   23.5829 C   0  0  0  0  0  0  0  0  0  0  0  0
  -26.9859  -13.0916   17.6933 C   0  0  0  0  0  0  0  0  0  0  0  0
  -29.4725  -13.5197   17.5251 C   0  0  0  0  0  0  0  0  0  0  0  0
  -28.3811  -13.5725   19.7433 C   0  0  0  0  0  0  0  0  0  0  0  0
  -28.2304  -30.1083   22.9769 C   0  0  1  0  0  0  0  0  0  0  0  0
  -26.3238  -28.8990   19.9214 C   0  0  1  0  0  0  0  0  0  0  0  0
  -26.9978  -13.7283   19.0939 C   0  0  2  0  0  0  0  0  0  0  0  0
  -29.1503  -17.4947   17.7836 C   0  0  0  0  0  0  0  0  0  0  0  0
  -19.6269  -26.9146   16.5724 C   0  0  0  0  0  0  0  0  0  0  0  0
  -22.4576  -28.3340   22.3899 C   0  0  0  0  0  0  0  0  0  0  0  0
  -20.4868  -27.4538   21.1212 C   0  0  0  0  0  0  0  0  0  0  0  0
  -21.2244  -29.8144   20.7956 C   0  0  0  0  0  0  0  0  0  0  0  0
  -31.5814  -16.4753   20.7933 C   0  0  0  0  0  0  0  0  0  0  0  0
  -23.1087  -26.5435   15.0840 C   0  0  0  0  0  0  0  0  0  0  0  0
  -29.1305  -16.4327   20.5156 C   0  0  0  0  0  0  0  0  0  0  0  0
  -29.3395  -22.1412   19.6112 C   0  0  0  0  0  0  0  0  0  1  0  0
  -22.6241  -27.9361   19.8443 C   0  0  1  0  0  0  0  0  0  0  0  0
  -21.1175  -27.1884   16.4471 C   0  0  2  0  0  0  0  0  0  0  0  0
  -21.7240  -28.3729   21.0344 C   0  0  0  0  0  0  0  0  0  0  0  0
  -25.5110  -11.8987   19.8179 N   0  0  0  0  0  0  0  0  0  0  0  0
  -25.8958  -13.1763   19.9790 N   0  0  0  0  0  0  0  0  0  0  0  0
  -25.0925  -28.1119   19.8303 N   0  0  0  0  0  0  0  0  0  0  0  0
  -29.4435  -14.0943   18.8706 N   0  0  0  0  0  0  0  0  0  0  0  0
  -25.4771  -15.1286   21.2532 N   0  0  0  0  0  0  0  0  0  0  0  0
  -22.5487  -12.1342   22.9424 N   0  0  0  0  0  0  0  0  0  0  0  0
  -27.7502  -29.8317   21.6400 N   0  0  0  0  0  0  0  0  0  0  0  0
  -21.9635  -27.9892   18.5446 N   0  0  0  0  0  0  0  0  0  0  0  0
  -30.4148  -15.7817   20.2661 N   0  0  0  0  0  0  0  0  0  0  0  0
  -21.6562  -26.3569   15.3338 N   0  3  0  0  0  0  0  0  0  0  0  0
  -23.2955  -14.2971   23.0933 O   0  0  0  0  0  0  0  0  0  0  0  0
  -25.9298  -28.4982   22.2147 O   0  0  0  0  0  0  0  0  0  0  0  0
  -23.7546  -29.9974   19.5285 O   0  0  0  0  0  0  0  0  0  0  0  0
  -22.2689  -25.7529   18.0127 O   0  0  0  0  0  0  0  0  0  0  0  0
  -31.7290  -14.3723   19.0016 O   0  0  0  0  0  0  0  0  0  0  0  0
  -21.9225   -6.8497   21.2939 O   0  0  0  0  0  0  0  0  0  0  0  0
  -28.0584  -22.7033   19.8923 O   0  0  0  0  0  0  0  0  0  1  0  0
  -21.1518   -4.9180   26.4007 F   0  0  0  0  0  0  0  0  0  0  0  0
  -20.4622   -8.2880   23.1490 F   0  0  0  0  0  0  0  0  0  0  0  0
  1  2  1  0  0  0  0
  1  5  2  0  0  0  0
  2  6  2  0  0  0  0
  3 10  2  0  0  0  0
  3 18  1  0  0  0  0
  4 11  1  0  0  0  0
  4 18  2  0  0  0  0
  5 20  1  0  0  0  0
  6 22  1  0  0  0  0
  7 12  2  0  0  0  0
  7 21  1  0  0  0  0
  8  9  2  0  0  0  0
  8 24  1  0  0  0  0
  9 25  1  0  0  0  0
 10 27  1  0  0  0  0
 11 27  2  0  0  0  0
 12 28  1  0  0  0  0
 13 14  2  0  0  0  0
 13 29  1  0  0  0  0
 14 30  1  0  0  0  0
 15 23  1  0  0  0  0
 15 28  2  0  0  0  0
 16 24  2  0  0  0  0
 16 26  1  0  0  0  0
 17 30  2  0  0  0  0
 17 31  1  0  0  0  0
 18 32  1  0  0  0  0
 19 32  1  0  0  0  0
 19 33  2  0  0  0  0
 19 34  1  0  0  0  0
 20 22  2  0  0  0  0
 20 39  1  0  0  0  0
 21 23  2  0  0  0  0
 21 40  1  0  0  0  0
 22 48  1  0  0  0  0
 23 41  1  0  0  0  0
 24 59  1  0  0  0  0
 25 26  2  0  0  0  0
 25 58  1  0  0  0  0
 26 51  1  0  0  0  0
 27 78  1  0  0  0  0
 28 79  1  0  0  0  0
 29 31  2  0  0  0  0
 29 78  1  0  0  0  0
 30 80  1  0  0  0  0
 31 81  1  0  0  0  0
 32 63  2  0  0  0  0
 33 64  1  0  0  0  0
 33 67  1  0  0  0  0
 34 68  1  0  0  0  0
 34 73  2  0  0  0  0
 35 49  1  0  0  0  0
 35 69  1  0  0  0  0
 35 74  2  0  0  0  0
 36 60  1  0  0  0  0
 36 65  1  0  0  0  0
 36 75  2  0  0  0  0
 37 61  1  0  0  0  0
 37 70  1  0  0  0  0
 37 76  2  0  0  0  0
 38 66  1  0  0  0  0
 38 71  1  0  0  0  0
 38 77  2  0  0  0  0
 39 42  1  0  0  0  0
 40 49  1  0  0  0  0
 41 65  1  0  0  0  0
 42 44  1  0  0  0  0
 43 45  1  0  0  0  0
 43 46  1  0  0  0  0
 44 48  1  0  0  0  0
 45 50  1  0  0  0  0
 46 66  1  0  0  0  0
 47 50  1  0  0  0  0
 47 66  1  0  0  0  0
 48 69  1  0  0  0  0
 49 65  1  0  0  0  0
 50 64  1  0  0  0  0
 52 61  1  0  0  0  0
 53 62  1  0  0  0  0
 54 62  1  0  0  0  0
 55 62  1  0  0  0  0
 56 71  1  0  0  0  0
 57 72  1  0  0  0  0
 58 71  1  0  0  0  0
 59 79  1  0  0  0  0
 60 62  1  0  0  0  0
 60 70  1  0  0  0  0
 61 72  1  0  0  0  0
 63 64  1  0  0  0  0
M  CHG  1  72   1
M  ISO  4  38 100  59 101  71 100  79 101
M  END
> <Batch ID>
0134

> <Smiles>
CNC(C)C(=O)NC(C(=O)N1Cc2cc([101O:1][101CH2:1]c3ccc(C[100N:0](C)[100C:0](=O)N4CCCC(n5nc(-c6ccc(Oc7ccc(F)cc7F)cc6)c(C(N)=O)c5N)C4)c(C)c3)ccc2CC1C(=O)NC1CCCc2ccccc21)C(C)(C)C

> <Shape>
0.320

> <Color>
0.126

> <Negative vol penalty>
0.000

$$$$

  -OEChem-04052320573D

 85 94  0     1  0  0  0  0  0999 V2000
  -24.7605  -31.9151   16.4881 C   0  0  0  0  0  0  0  0  0  0  0  0
  -25.1810  -30.7352   17.0935 C   0  0  0  0  0  0  0  0  0  0  0  0
  -23.0153   -9.9220   19.8520 C   0  0  0  0  0  0  0  0  0  0  0  0
  -23.8394   -9.8027   22.1200 C   0  0  0  0  0  0  0  0  0  0  0  0
  -23.9695  -32.8178   17.1976 C   0  0  0  0  0  0  0  0  0  0  0  0
  -24.8115  -30.4579   18.4092 C   0  0  0  0  0  0  0  0  0  0  0  0
  -23.2536  -25.6787   19.0234 C   0  0  0  0  0  0  0  0  0  0  0  0
  -28.4086  -22.0506   20.0024 C   0  0  0  0  0  0  0  0  0  0  0  0
  -29.3473  -21.0550   20.2727 C   0  0  0  0  0  0  0  0  0  0  0  0
  -22.2862   -8.7504   20.0552 C   0  0  0  0  0  0  0  0  0  0  0  0
  -23.1101   -8.6311   22.3233 C   0  0  0  0  0  0  0  0  0  0  0  0
  -24.2369  -24.6932   19.0994 C   0  0  0  0  0  0  0  0  0  0  0  0
  -19.9054   -7.7740   22.9677 C   0  0  0  0  0  0  0  0  0  0  0  0
  -19.1819   -7.6605   24.1549 C   0  0  0  0  0  0  0  0  0  0  0  0
  -24.0288  -24.6795   21.5026 C   0  0  0  0  0  0  0  0  0  0  0  0
  -26.8536  -20.3732   19.2241 C   0  0  0  0  0  0  0  0  0  0  0  0
  -20.4559   -5.6938   24.7432 C   0  0  0  0  0  0  0  0  0  0  0  0
  -23.7920  -10.4481   20.8843 C   0  0  0  0  0  0  0  0  0  0  0  0
  -24.1142  -12.9786   20.9013 C   0  0  0  0  0  0  0  0  0  0  0  0
  -23.5822  -32.5469   18.5194 C   0  0  0  0  0  0  0  0  0  0  0  0
  -22.6573  -26.1806   20.1891 C   0  0  0  0  0  0  0  0  0  0  0  0
  -24.0157  -31.3584   19.1375 C   0  0  0  0  0  0  0  0  0  0  0  0
  -23.0364  -25.6695   21.4386 C   0  0  0  0  0  0  0  0  0  0  0  0
  -27.1617  -21.7097   19.4782 C   0  0  0  0  0  0  0  0  0  0  0  0
  -29.0393  -19.7185   20.0187 C   0  0  0  0  0  0  0  0  0  0  0  0
  -27.7924  -19.3776   19.4944 C   0  0  0  0  0  0  0  0  0  0  0  0
  -22.3335   -8.1050   21.2909 C   0  0  0  0  0  0  0  0  0  0  0  0
  -24.6267  -24.1955   20.3393 C   0  0  0  0  0  0  0  0  0  0  0  0
  -20.9041   -6.8474   22.6683 C   0  0  0  0  0  0  0  0  0  0  0  0
  -19.4572   -6.6204   25.0426 C   0  0  0  0  0  0  0  0  0  0  0  0
  -21.1793   -5.8073   23.5560 C   0  0  0  0  0  0  0  0  0  0  0  0
  -24.5459  -11.6580   20.6748 C   0  0  0  0  0  0  0  0  0  0  0  0
  -25.1909  -13.7565   20.5520 C   0  0  0  0  0  0  0  0  0  0  0  0
  -22.8527  -13.4592   21.3845 C   0  0  0  0  0  0  0  0  0  0  0  0
  -22.5035  -29.0346   21.5800 C   0  0  0  0  0  0  0  0  0  0  0  0
  -20.4700  -27.5103   23.5958 C   0  0  0  0  0  0  0  0  0  0  0  0
  -19.4188  -24.5708   24.9746 C   0  0  0  0  0  0  0  0  0  0  0  0
  -30.6711  -14.8069   20.6471 C   0  0  0  0  0  0  0  0  0  0  0  0
  -22.7658  -33.5750   19.2618 C   0  0  0  0  0  0  0  0  0  0  0  0
  -21.5790  -27.2245   20.0885 C   0  0  0  0  0  0  0  0  0  0  0  0
  -22.4126  -26.1603   22.7186 C   0  0  0  0  0  0  0  0  0  0  0  0
  -22.1064  -33.0315   20.5268 C   0  0  0  0  0  0  0  0  0  0  0  0
  -29.4821  -12.5551   18.1587 C   0  0  0  0  0  0  0  0  0  0  0  0
  -23.1075  -32.2224   21.3453 C   0  0  0  0  0  0  0  0  0  0  0  0
  -28.0593  -12.2254   18.6135 C   0  0  0  0  0  0  0  0  0  0  0  0
  -30.9459  -16.9193   23.5089 C   0  0  0  0  0  0  0  0  0  0  0  0
  -30.4312  -12.7135   19.3444 C   0  0  0  0  0  0  0  0  0  0  0  0
  -28.5646  -13.3481   20.8232 C   0  0  0  0  0  0  0  0  0  0  0  0
  -31.2772  -18.3782   23.7657 C   0  0  0  0  0  0  0  0  0  0  0  0
  -23.6151  -31.0105   20.5547 C   0  0  1  0  0  0  0  0  0  0  0  0
  -21.4056  -28.0301   21.3723 C   0  0  1  0  0  0  0  0  0  0  0  0
  -27.5588  -13.2340   19.6649 C   0  0  2  0  0  0  0  0  0  0  0  0
  -30.7530  -16.8739   22.0008 C   0  0  2  0  0  0  0  0  0  0  0  0
  -29.9432  -18.1360   21.7294 C   0  0  2  0  0  0  0  0  0  0  0  0
  -27.4405  -17.9534   19.2140 C   0  0  0  0  0  0  0  0  0  0  0  0
  -17.7632  -23.6470   26.6188 C   0  0  0  0  0  0  0  0  0  0  0  0
  -22.2047  -28.5077   25.8993 C   0  0  0  0  0  0  0  0  0  0  0  0
  -21.0965  -26.8155   27.3746 C   0  0  0  0  0  0  0  0  0  0  0  0
  -19.7424  -28.6259   26.3205 C   0  0  0  0  0  0  0  0  0  0  0  0
  -18.0953  -22.9306   22.8968 C   0  0  0  0  0  0  0  0  0  0  0  0
  -30.0609  -18.6701   20.3150 C   0  0  0  0  0  0  0  0  0  0  0  0
  -26.1522  -22.7809   19.1871 C   0  0  0  0  0  0  0  0  0  1  0  0
  -20.6206  -26.7392   24.8849 C   0  0  1  0  0  0  0  0  0  0  0  0
  -18.0308  -23.9848   25.1603 C   0  0  2  0  0  0  0  0  0  0  0  0
  -20.9294  -27.6640   26.0961 C   0  0  0  0  0  0  0  0  0  0  0  0
  -25.7991  -11.5966   20.2168 N   0  0  0  0  0  0  0  0  0  0  0  0
  -26.1640  -12.8884   20.1526 N   0  0  0  0  0  0  0  0  0  0  0  0
  -21.3672  -27.1861   22.5683 N   0  0  0  0  0  0  0  0  0  0  0  0
  -29.8992  -13.6848   20.3034 N   0  0  0  0  0  0  0  0  0  0  0  0
  -25.3906  -15.0916   20.5504 N   0  0  0  0  0  0  0  0  0  0  0  0
  -21.8565  -12.5240   21.6964 N   0  0  0  0  0  0  0  0  0  0  0  0
  -22.6248  -29.9551   20.5565 N   0  0  0  0  0  0  0  0  0  0  0  0
  -19.4035  -25.9483   25.0321 N   0  0  0  0  0  0  0  0  0  0  0  0
  -30.0900  -15.6807   21.5578 N   0  0  0  0  0  0  0  0  0  0  0  0
  -30.5230  -19.1312   22.7044 N   0  3  0  0  0  0  0  0  0  0  0  0
  -17.8820  -22.7399   24.3546 N   0  3  0  0  0  0  0  0  0  0  0  0
  -22.6103  -14.6825   21.5195 O   0  0  0  0  0  0  0  0  0  0  0  0
  -23.1888  -28.9797   22.5944 O   0  0  0  0  0  0  0  0  0  0  0  0
  -19.5843  -28.3636   23.5015 O   0  0  0  0  0  0  0  0  0  0  0  0
  -20.4173  -23.8758   24.8001 O   0  0  0  0  0  0  0  0  0  0  0  0
  -31.7927  -15.0173   20.1731 O   0  0  0  0  0  0  0  0  0  0  0  0
  -21.6220   -6.9619   21.4896 O   0  0  0  0  0  0  0  0  0  0  0  0
  -25.5867  -23.2341   20.4164 O   0  0  0  0  0  0  0  0  0  1  0  0
  -18.7634   -6.5125   26.1833 F   0  0  0  0  0  0  0  0  0  0  0  0
  -22.1384   -4.9147   23.2743 F   0  0  0  0  0  0  0  0  0  0  0  0
  1  2  1  0  0  0  0
  1  5  2  0  0  0  0
  2  6  2  0  0  0  0
  3 10  2  0  0  0  0
  3 18  1  0  0  0  0
  4 11  1  0  0  0  0
  4 18  2  0  0  0  0
  5 20  1  0  0  0  0
  6 22  1  0  0  0  0
  7 12  2  0  0  0  0
  7 21  1  0  0  0  0
  8  9  2  0  0  0  0
  8 24  1  0  0  0  0
  9 25  1  0  0  0  0
 10 27  1  0  0  0  0
 11 27  2  0  0  0  0
 12 28  1  0  0  0  0
 13 14  2  0  0  0  0
 13 29  1  0  0  0  0
 14 30  1  0  0  0  0
 15 23  1  0  0  0  0
 15 28  2  0  0  0  0
 16 24  2  0  0  0  0
 16 26  1  0  0  0  0
 17 30  2  0  0  0  0
 17 31  1  0  0  0  0
 18 32  1  0  0  0  0
 19 32  1  0  0  0  0
 19 33  2  0  0  0  0
 19 34  1  0  0  0  0
 20 22  2  0  0  0  0
 20 39  1  0  0  0  0
 21 23  2  0  0  0  0
 21 40  1  0  0  0  0
 22 50  1  0  0  0  0
 23 41  1  0  0  0  0
 24 62  1  0  0  0  0
 25 26  2  0  0  0  0
 25 61  1  0  0  0  0
 26 55  1  0  0  0  0
 27 82  1  0  0  0  0
 28 83  1  0  0  0  0
 29 31  2  0  0  0  0
 29 82  1  0  0  0  0
 30 84  1  0  0  0  0
 31 85  1  0  0  0  0
 32 66  2  0  0  0  0
 33 67  1  0  0  0  0
 33 70  1  0  0  0  0
 34 71  1  0  0  0  0
 34 77  2  0  0  0  0
 35 51  1  0  0  0  0
 35 72  1  0  0  0  0
 35 78  2  0  0  0  0
 36 63  1  0  0  0  0
 36 68  1  0  0  0  0
 36 79  2  0  0  0  0
 37 64  1  0  0  0  0
 37 73  1  0  0  0  0
 37 80  2  0  0  0  0
 38 69  1  0  0  0  0
 38 74  1  0  0  0  0
 38 81  2  0  0  0  0
 39 42  1  0  0  0  0
 40 51  1  0  0  0  0
 41 68  1  0  0  0  0
 42 44  1  0  0  0  0
 43 45  1  0  0  0  0
 43 47  1  0  0  0  0
 44 50  1  0  0  0  0
 45 52  1  0  0  0  0
 46 49  1  0  0  0  0
 46 53  1  0  0  0  0
 47 69  1  0  0  0  0
 48 52  1  0  0  0  0
 48 69  1  0  0  0  0
 49 75  1  0  0  0  0
 50 72  1  0  0  0  0
 51 68  1  0  0  0  0
 52 67  1  0  0  0  0
 53 54  1  0  0  0  0
 53 74  1  0  0  0  0
 54 61  1  0  0  0  0
 54 75  1  0  0  0  0
 56 64  1  0  0  0  0
 57 65  1  0  0  0  0
 58 65  1  0  0  0  0
 59 65  1  0  0  0  0
 60 76  1  0  0  0  0
 62 83  1  0  0  0  0
 63 65  1  0  0  0  0
 63 73  1  0  0  0  0
 64 76  1  0  0  0  0
 66 67  1  0  0  0  0
M  CHG  2  75   1  76   1
M  ISO  4  38 100  62 101  74 100  83 101
M  END
> <Batch ID>
0134

> <Smiles>
CNC(C)C(=O)NC(C(=O)N1Cc2cc([101O:1][101CH2:1]c3ccc(CC4NCCC4[100NH:0][100C:0](=O)N4CCCC(n5nc(-c6ccc(Oc7ccc(F)cc7F)cc6)c(C(N)=O)c5N)C4)c(C)c3)ccc2CC1C(=O)NC1CCCc2ccccc21)C(C)(C)C

> <Shape>
0.292

> <Color>
0.197

> <Negative vol penalty>
0.000

$$$$

  -OEChem-04052320573D

 85 94  0     1  0  0  0  0  0999 V2000
  -20.6945  -27.7640   21.9427 C   0  0  0  0  0  0  0  0  0  0  0  0
  -21.9195  -27.3604   22.4639 C   0  0  0  0  0  0  0  0  0  0  0  0
  -28.7110  -27.2219   18.1596 C   0  0  0  0  0  0  0  0  0  0  0  0
  -27.2033  -26.1679   19.7258 C   0  0  0  0  0  0  0  0  0  0  0  0
  -19.5919  -26.9140   22.0184 C   0  0  0  0  0  0  0  0  0  0  0  0
  -22.0425  -26.1068   23.0621 C   0  0  0  0  0  0  0  0  0  0  0  0
  -26.9405  -22.4326   22.9373 C   0  0  0  0  0  0  0  0  0  0  0  0
  -27.8359  -28.3018   18.0439 C   0  0  0  0  0  0  0  0  0  0  0  0
  -26.3281  -27.2479   19.6101 C   0  0  0  0  0  0  0  0  0  0  0  0
  -27.9668  -22.2062   23.8534 C   0  0  0  0  0  0  0  0  0  0  0  0
  -23.8664  -29.8943   20.0030 C   0  0  0  0  0  0  0  0  0  0  0  0
  -23.3199  -30.4157   21.1756 C   0  0  0  0  0  0  0  0  0  0  0  0
  -26.7763  -20.2883   24.7040 C   0  0  0  0  0  0  0  0  0  0  0  0
  -25.5394  -30.9204   21.9856 C   0  0  0  0  0  0  0  0  0  0  0  0
  -28.3947  -26.1548   19.0005 C   0  0  0  0  0  0  0  0  0  0  0  0
  -30.6342  -25.0700   19.5623 C   0  0  0  0  0  0  0  0  0  0  0  0
  -19.7038  -25.6455   22.6091 C   0  0  0  0  0  0  0  0  0  0  0  0
  -25.8174  -21.5936   22.9050 C   0  0  0  0  0  0  0  0  0  0  0  0
  -20.9401  -25.2395   23.1469 C   0  0  0  0  0  0  0  0  0  0  0  0
  -25.7383  -20.5047   23.7848 C   0  0  0  0  0  0  0  0  0  0  0  0
  -26.6445  -28.3149   18.7691 C   0  0  0  0  0  0  0  0  0  0  0  0
  -27.8835  -21.1357   24.7388 C   0  0  0  0  0  0  0  0  0  0  0  0
  -25.2494  -29.8859   19.8217 C   0  0  0  0  0  0  0  0  0  0  0  0
  -24.1564  -30.9287   22.1669 C   0  0  0  0  0  0  0  0  0  0  0  0
  -26.0859  -30.3990   20.8130 C   0  0  0  0  0  0  0  0  0  0  0  0
  -29.2980  -25.0387   19.1201 C   0  0  0  0  0  0  0  0  0  0  0  0
  -31.0497  -23.7628   19.4922 C   0  0  0  0  0  0  0  0  0  0  0  0
  -31.2882  -18.1954   26.7986 C   0  0  0  0  0  0  0  0  0  0  0  0
  -31.4286  -26.1813   19.9976 C   0  0  0  0  0  0  0  0  0  0  0  0
  -22.7003  -21.9990   23.3774 C   0  0  0  0  0  0  0  0  0  0  0  0
  -22.5473  -18.9069   22.4090 C   0  0  0  0  0  0  0  0  0  0  0  0
  -24.1261  -15.9031   22.0461 C   0  0  0  0  0  0  0  0  0  0  0  0
  -30.1697  -18.3224   20.3718 C   0  0  0  0  0  0  0  0  0  0  0  0
  -18.4724  -24.7805   22.7100 C   0  0  0  0  0  0  0  0  0  0  0  0
  -24.7314  -21.8355   21.8928 C   0  0  0  0  0  0  0  0  0  0  0  0
  -24.5633  -19.5626   23.7770 C   0  0  0  0  0  0  0  0  0  0  0  0
  -31.6482  -19.1313   27.9262 C   0  0  0  0  0  0  0  0  0  0  0  0
  -18.7791  -23.3186   23.0246 C   0  0  0  0  0  0  0  0  0  0  0  0
  -31.1190  -20.4800   27.4543 C   0  0  0  0  0  0  0  0  0  0  0  0
  -28.8673  -19.7236   17.3689 C   0  0  0  0  0  0  0  0  0  0  0  0
  -19.7887  -23.2181   24.1637 C   0  0  0  0  0  0  0  0  0  0  0  0
  -28.9677  -21.2330   17.5960 C   0  0  0  0  0  0  0  0  0  0  0  0
  -33.0488  -17.3623   24.3075 C   0  0  0  0  0  0  0  0  0  0  0  0
  -28.5100  -18.9819   18.6551 C   0  0  0  0  0  0  0  0  0  0  0  0
  -29.4948  -20.7765   20.0275 C   0  0  0  0  0  0  0  0  0  0  0  0
  -34.3447  -17.1446   23.5429 C   0  0  0  0  0  0  0  0  0  0  0  0
  -33.1701  -17.5945   21.3799 C   0  0  0  0  0  0  0  0  0  0  0  0
  -21.1193  -23.8773   23.7812 C   0  0  1  0  0  0  0  0  0  0  0  0
  -23.3934  -21.2221   22.2940 C   0  0  1  0  0  0  0  0  0  0  0  0
  -32.0952  -18.3134   23.5648 C   0  0  1  0  0  0  0  0  0  0  0  0
  -29.9080  -21.5619   18.7711 C   0  0  2  0  0  0  0  0  0  0  0  0
  -31.8562  -17.8205   22.1219 C   0  0  1  0  0  0  0  0  0  0  0  0
  -31.2096  -20.3995   25.9345 C   0  0  2  0  0  0  0  0  0  0  0  0
  -23.7318  -13.5527   21.2600 C   0  0  0  0  0  0  0  0  0  0  0  0
  -21.0029  -18.3113   24.9722 C   0  0  0  0  0  0  0  0  0  0  0  0
  -21.4672  -15.8788   24.6041 C   0  0  0  0  0  0  0  0  0  0  0  0
  -20.1262  -17.1574   22.9340 C   0  0  0  0  0  0  0  0  0  0  0  0
  -26.2016  -16.1328   19.9489 C   0  0  0  0  0  0  0  0  0  0  0  0
  -30.7870  -18.4533   24.3478 C   0  0  0  0  0  0  0  0  0  0  0  0
  -30.1997  -21.3080   25.2500 C   0  0  0  0  0  0  0  0  0  1  0  0
  -22.6157  -17.5659   23.0990 C   0  0  1  0  0  0  0  0  0  0  0  0
  -24.2086  -14.9438   20.8724 C   0  0  2  0  0  0  0  0  0  0  0  0
  -21.3244  -17.2470   23.9040 C   0  0  0  0  0  0  0  0  0  0  0  0
  -28.8918  -23.8090   18.7931 N   0  0  0  0  0  0  0  0  0  0  0  0
  -29.9791  -23.0555   19.0300 N   0  0  0  0  0  0  0  0  0  0  0  0
  -31.0265  -18.9818   25.6764 N   0  0  0  0  0  0  0  0  0  0  0  0
  -23.5240  -19.8446   22.7731 N   0  0  0  0  0  0  0  0  0  0  0  0
  -29.4406  -19.3367   19.7294 N   0  0  0  0  0  0  0  0  0  0  0  0
  -32.2229  -23.1608   19.7815 N   0  0  0  0  0  0  0  0  0  0  0  0
  -31.4198  -26.5166   21.3584 N   0  0  0  0  0  0  0  0  0  0  0  0
  -21.8815  -23.0090   22.9097 N   0  0  0  0  0  0  0  0  0  0  0  0
  -22.9299  -16.5889   22.0621 N   0  0  0  0  0  0  0  0  0  0  0  0
  -31.0339  -18.7455   21.3742 N   0  0  0  0  0  0  0  0  0  0  0  0
  -34.0274  -16.6604   22.1687 N   0  3  0  0  0  0  0  0  0  0  0  0
  -25.6134  -14.8405   20.3857 N   0  3  0  0  0  0  0  0  0  0  0  0
  -31.2872  -16.9761   26.8845 O   0  0  0  0  0  0  0  0  0  0  0  0
  -32.1127  -26.8673   19.2008 O   0  0  0  0  0  0  0  0  0  0  0  0
  -22.8930  -21.7029   24.5508 O   0  0  0  0  0  0  0  0  0  0  0  0
  -21.6643  -19.1122   21.5725 O   0  0  0  0  0  0  0  0  0  0  0  0
  -25.0305  -16.0285   22.8687 O   0  0  0  0  0  0  0  0  0  0  0  0
  -30.0626  -17.1288   20.0704 O   0  0  0  0  0  0  0  0  0  0  0  0
  -25.7904  -29.3687   18.6566 O   0  0  0  0  0  0  0  0  0  0  0  0
  -28.8835  -20.9128   25.6344 O   0  0  0  0  0  0  0  0  0  1  0  0
  -23.6314  -31.4308   23.2923 F   0  0  0  0  0  0  0  0  0  0  0  0
  -27.4153  -30.3947   20.6439 F   0  0  0  0  0  0  0  0  0  0  0  0
  1  2  1  0  0  0  0
  1  5  2  0  0  0  0
  2  6  2  0  0  0  0
  3  8  2  0  0  0  0
  3 15  1  0  0  0  0
  4  9  1  0  0  0  0
  4 15  2  0  0  0  0
  5 17  1  0  0  0  0
  6 19  1  0  0  0  0
  7 10  2  0  0  0  0
  7 18  1  0  0  0  0
  8 21  1  0  0  0  0
  9 21  2  0  0  0  0
 10 22  1  0  0  0  0
 11 12  2  0  0  0  0
 11 23  1  0  0  0  0
 12 24  1  0  0  0  0
 13 20  1  0  0  0  0
 13 22  2  0  0  0  0
 14 24  2  0  0  0  0
 14 25  1  0  0  0  0
 15 26  1  0  0  0  0
 16 26  1  0  0  0  0
 16 27  2  0  0  0  0
 16 29  1  0  0  0  0
 17 19  2  0  0  0  0
 17 34  1  0  0  0  0
 18 20  2  0  0  0  0
 18 35  1  0  0  0  0
 19 48  1  0  0  0  0
 20 36  1  0  0  0  0
 21 82  1  0  0  0  0
 22 83  1  0  0  0  0
 23 25  2  0  0  0  0
 23 82  1  0  0  0  0
 24 84  1  0  0  0  0
 25 85  1  0  0  0  0
 26 64  2  0  0  0  0
 27 65  1  0  0  0  0
 27 69  1  0  0  0  0
 28 37  1  0  0  0  0
 28 66  1  0  0  0  0
 28 76  2  0  0  0  0
 29 70  1  0  0  0  0
 29 77  2  0  0  0  0
 30 49  1  0  0  0  0
 30 71  1  0  0  0  0
 30 78  2  0  0  0  0
 31 61  1  0  0  0  0
 31 67  1  0  0  0  0
 31 79  2  0  0  0  0
 32 62  1  0  0  0  0
 32 72  1  0  0  0  0
 32 80  2  0  0  0  0
 33 68  1  0  0  0  0
 33 73  1  0  0  0  0
 33 81  2  0  0  0  0
 34 38  1  0  0  0  0
 35 49  1  0  0  0  0
 36 67  1  0  0  0  0
 37 39  1  0  0  0  0
 38 41  1  0  0  0  0
 39 53  1  0  0  0  0
 40 42  1  0  0  0  0
 40 44  1  0  0  0  0
 41 48  1  0  0  0  0
 42 51  1  0  0  0  0
 43 46  1  0  0  0  0
 43 50  1  0  0  0  0
 44 68  1  0  0  0  0
 45 51  1  0  0  0  0
 45 68  1  0  0  0  0
 46 74  1  0  0  0  0
 47 52  1  0  0  0  0
 47 74  1  0  0  0  0
 48 71  1  0  0  0  0
 49 67  1  0  0  0  0
 50 52  1  0  0  0  0
 50 59  1  0  0  0  0
 51 65  1  0  0  0  0
 52 73  1  0  0  0  0
 53 60  1  0  0  0  0
 53 66  1  0  0  0  0
 54 62  1  0  0  0  0
 55 63  1  0  0  0  0
 56 63  1  0  0  0  0
 57 63  1  0  0  0  0
 58 75  1  0  0  0  0
 59 66  1  0  0  0  0
 60 83  1  0  0  0  0
 61 63  1  0  0  0  0
 61 72  1  0  0  0  0
 62 75  1  0  0  0  0
 64 65  1  0  0  0  0
M  CHG  2  74   1  75   1
M  ISO  4  33 100  60 101  73 100  83 101
M  END
> <Batch ID>
0134

> <Smiles>
CNC(C)C(=O)NC(C(=O)N1Cc2cc([101O:1][101CH2:1]C3CCC(=O)N3CC3CCNCC3[100NH:0][100C:0](=O)N3CCCC(n4nc(-c5ccc(Oc6ccc(F)cc6F)cc5)c(C(N)=O)c4N)C3)ccc2CC1C(=O)NC1CCCc2ccccc21)C(C)(C)C

> <Shape>
0.192

> <Color>
0.055

> <Negative vol penalty>
0.000

$$$$

  -OEChem-04052320573D

 84 92  0     1  0  0  0  0  0999 V2000
  -22.5682  -30.3233   22.9411 C   0  0  0  0  0  0  0  0  0  0  0  0
  -22.4181  -28.9473   22.8014 C   0  0  0  0  0  0  0  0  0  0  0  0
  -28.9566  -12.2923   20.0363 C   0  0  0  0  0  0  0  0  0  0  0  0
  -27.6867  -12.7950   18.0433 C   0  0  0  0  0  0  0  0  0  0  0  0
  -23.5031  -31.0040   22.1624 C   0  0  0  0  0  0  0  0  0  0  0  0
  -23.2022  -28.2513   21.8821 C   0  0  0  0  0  0  0  0  0  0  0  0
  -25.0900  -23.9591   23.7948 C   0  0  0  0  0  0  0  0  0  0  0  0
  -20.6915  -19.3946   23.0747 C   0  0  0  0  0  0  0  0  0  0  0  0
  -21.9894  -18.4498   24.8802 C   0  0  0  0  0  0  0  0  0  0  0  0
  -30.1315  -12.2800   19.2846 C   0  0  0  0  0  0  0  0  0  0  0  0
  -28.8617  -12.7827   17.2916 C   0  0  0  0  0  0  0  0  0  0  0  0
  -24.2288  -22.8658   23.8771 C   0  0  0  0  0  0  0  0  0  0  0  0
  -19.9354  -18.2245   23.0059 C   0  0  0  0  0  0  0  0  0  0  0  0
  -21.2332  -17.2796   24.8114 C   0  0  0  0  0  0  0  0  0  0  0  0
  -31.5700  -13.2400   14.9096 C   0  0  0  0  0  0  0  0  0  0  0  0
  -31.7618  -14.2690   13.9877 C   0  0  0  0  0  0  0  0  0  0  0  0
  -25.1971  -21.9591   21.8623 C   0  0  0  0  0  0  0  0  0  0  0  0
  -31.6535  -15.8907   15.7753 C   0  0  0  0  0  0  0  0  0  0  0  0
  -27.7342  -12.5498   19.4156 C   0  0  0  0  0  0  0  0  0  0  0  0
  -25.9375  -13.6669   20.8410 C   0  0  0  0  0  0  0  0  0  0  0  0
  -24.3059  -30.3146   21.2399 C   0  0  0  0  0  0  0  0  0  0  0  0
  -26.0053  -24.0663   22.7378 C   0  0  0  0  0  0  0  0  0  0  0  0
  -24.1478  -28.9236   21.0893 C   0  0  0  0  0  0  0  0  0  0  0  0
  -26.0706  -23.0535   21.7703 C   0  0  0  0  0  0  0  0  0  0  0  0
  -21.7186  -19.5072   24.0119 C   0  0  0  0  0  0  0  0  0  0  0  0
  -30.0840  -12.5252   17.9123 C   0  0  0  0  0  0  0  0  0  0  0  0
  -20.2062  -17.1670   23.8742 C   0  0  0  0  0  0  0  0  0  0  0  0
  -24.2803  -21.8670   22.9091 C   0  0  0  0  0  0  0  0  0  0  0  0
  -31.4199  -13.5362   16.2644 C   0  0  0  0  0  0  0  0  0  0  0  0
  -31.8036  -15.5943   14.4206 C   0  0  0  0  0  0  0  0  0  0  0  0
  -31.4616  -14.8616   16.6972 C   0  0  0  0  0  0  0  0  0  0  0  0
  -26.5201  -12.5621   20.1915 C   0  0  0  0  0  0  0  0  0  0  0  0
  -24.8065  -13.1600   21.4328 C   0  0  0  0  0  0  0  0  0  0  0  0
  -26.3793  -15.0295   20.9038 C   0  0  0  0  0  0  0  0  0  0  0  0
  -26.4674  -26.1383   20.3721 C   0  0  0  0  0  0  0  0  0  0  0  0
  -29.1070  -24.3330   19.8282 C   0  0  0  0  0  0  0  0  0  0  0  0
  -30.6772  -21.3217   20.1647 C   0  0  0  0  0  0  0  0  0  0  0  0
  -20.2199   -9.9862   21.2435 C   0  0  0  0  0  0  0  0  0  0  0  0
  -25.2697  -31.1005   20.3866 C   0  0  0  0  0  0  0  0  0  0  0  0
  -26.9457  -25.2386   22.6781 C   0  0  0  0  0  0  0  0  0  0  0  0
  -27.0491  -23.1112   20.6267 C   0  0  0  0  0  0  0  0  0  0  0  0
  -26.3240  -30.2338   19.7027 C   0  0  0  0  0  0  0  0  0  0  0  0
  -23.2863   -8.3781   22.0727 C   0  0  0  0  0  0  0  0  0  0  0  0
  -25.6761  -29.0096   19.0637 C   0  0  0  0  0  0  0  0  0  0  0  0
  -24.3524   -9.4116   21.7050 C   0  0  0  0  0  0  0  0  0  0  0  0
  -22.1167   -8.4002   21.0912 C   0  0  0  0  0  0  0  0  0  0  0  0
  -22.5629  -10.7577   20.5284 C   0  0  0  0  0  0  0  0  0  0  0  0
  -24.9973  -28.1298   20.1205 C   0  0  1  0  0  0  0  0  0  0  0  0
  -27.4851  -25.5011   21.2754 C   0  0  1  0  0  0  0  0  0  0  0  0
  -23.7365  -10.8117   21.5215 C   0  0  2  0  0  0  0  0  0  0  0  0
  -32.8127  -20.1380   19.5854 C   0  0  0  0  0  0  0  0  0  0  0  0
  -28.1595  -24.0410   16.9426 C   0  0  0  0  0  0  0  0  0  0  0  0
  -29.7579  -22.1313   16.6844 C   0  0  0  0  0  0  0  0  0  0  0  0
  -30.6188  -24.4151   17.2003 C   0  0  0  0  0  0  0  0  0  0  0  0
  -31.3372  -20.8726   23.0146 C   0  0  0  0  0  0  0  0  0  0  0  0
  -22.5316  -20.7661   24.0864 C   0  0  0  0  0  0  0  0  0  1  0  0
  -18.4247  -11.6957   21.3625 C   0  0  0  0  0  0  0  0  0  0  0  0
  -18.2071  -12.1012   22.8084 C   0  0  0  0  0  0  0  0  0  0  0  0
  -18.8691  -13.8053   24.5102 C   0  0  0  0  0  0  0  0  0  0  0  0
  -19.7978  -14.9841   24.7250 C   0  0  0  0  0  0  0  0  0  0  0  0
  -29.4130  -23.1095   18.9985 C   0  0  1  0  0  0  0  0  0  0  0  0
  -32.0765  -20.9618   20.6304 C   0  0  2  0  0  0  0  0  0  0  0  0
  -29.4674  -23.4238   17.4768 C   0  0  0  0  0  0  0  0  0  0  0  0
  -25.8172  -11.4382   20.3552 N   0  0  0  0  0  0  0  0  0  0  0  0
  -24.7814  -11.8340   21.1145 N   0  0  0  0  0  0  0  0  0  0  0  0
  -27.9433  -24.2806   20.6085 N   0  0  0  0  0  0  0  0  0  0  0  0
  -21.5770   -9.7561   20.9638 N   0  0  0  0  0  0  0  0  0  0  0  0
  -23.8408  -13.7236   22.1894 N   0  0  0  0  0  0  0  0  0  0  0  0
  -27.5625  -15.3795   20.2391 N   0  0  0  0  0  0  0  0  0  0  0  0
  -25.9826  -27.3467   20.8349 N   0  0  0  0  0  0  0  0  0  0  0  0
  -30.6476  -22.5492   19.5374 N   0  0  0  0  0  0  0  0  0  0  0  0
  -19.7915  -11.3007   21.1042 N   0  0  0  0  0  0  0  0  0  0  0  0
  -32.0152  -20.1728   21.8932 N   0  3  0  0  0  0  0  0  0  0  0  0
  -19.0487  -13.2848   23.1314 N   0  3  0  0  0  0  0  0  0  0  0  0
  -25.7523  -15.9070   21.5444 O   0  0  0  0  0  0  0  0  0  0  0  0
  -26.1470  -25.5760   19.3315 O   0  0  0  0  0  0  0  0  0  0  0  0
  -29.8760  -25.2968   19.7910 O   0  0  0  0  0  0  0  0  0  0  0  0
  -29.7080  -20.5856   20.3367 O   0  0  0  0  0  0  0  0  0  0  0  0
  -19.4484   -9.0878   21.5967 O   0  0  0  0  0  0  0  0  0  0  0  0
  -31.2303  -12.5134   17.1785 O   0  0  0  0  0  0  0  0  0  0  0  0
  -23.4404  -20.7991   22.9867 O   0  0  0  0  0  0  0  0  0  1  0  0
  -19.4674  -16.0259   23.8077 O   0  0  0  0  0  0  0  0  0  0  0  0
  -31.9893  -16.5823   13.5354 F   0  0  0  0  0  0  0  0  0  0  0  0
  -31.3192  -15.1523   17.9976 F   0  0  0  0  0  0  0  0  0  0  0  0
  1  2  1  0  0  0  0
  1  5  2  0  0  0  0
  2  6  2  0  0  0  0
  3 10  2  0  0  0  0
  3 19  1  0  0  0  0
  4 11  1  0  0  0  0
  4 19  2  0  0  0  0
  5 21  1  0  0  0  0
  6 23  1  0  0  0  0
  7 12  2  0  0  0  0
  7 22  1  0  0  0  0
  8 13  2  0  0  0  0
  8 25  1  0  0  0  0
  9 14  1  0  0  0  0
  9 25  2  0  0  0  0
 10 26  1  0  0  0  0
 11 26  2  0  0  0  0
 12 28  1  0  0  0  0
 13 27  1  0  0  0  0
 14 27  2  0  0  0  0
 15 16  2  0  0  0  0
 15 29  1  0  0  0  0
 16 30  1  0  0  0  0
 17 24  1  0  0  0  0
 17 28  2  0  0  0  0
 18 30  2  0  0  0  0
 18 31  1  0  0  0  0
 19 32  1  0  0  0  0
 20 32  1  0  0  0  0
 20 33  2  0  0  0  0
 20 34  1  0  0  0  0
 21 23  2  0  0  0  0
 21 39  1  0  0  0  0
 22 24  2  0  0  0  0
 22 40  1  0  0  0  0
 23 48  1  0  0  0  0
 24 41  1  0  0  0  0
 25 56  1  0  0  0  0
 26 80  1  0  0  0  0
 27 82  1  0  0  0  0
 28 81  1  0  0  0  0
 29 31  2  0  0  0  0
 29 80  1  0  0  0  0
 30 83  1  0  0  0  0
 31 84  1  0  0  0  0
 32 64  2  0  0  0  0
 33 65  1  0  0  0  0
 33 68  1  0  0  0  0
 34 69  1  0  0  0  0
 34 75  2  0  0  0  0
 35 49  1  0  0  0  0
 35 70  1  0  0  0  0
 35 76  2  0  0  0  0
 36 61  1  0  0  0  0
 36 66  1  0  0  0  0
 36 77  2  0  0  0  0
 37 62  1  0  0  0  0
 37 71  1  0  0  0  0
 37 78  2  0  0  0  0
 38 67  1  0  0  0  0
 38 72  1  0  0  0  0
 38 79  2  0  0  0  0
 39 42  1  0  0  0  0
 40 49  1  0  0  0  0
 41 66  1  0  0  0  0
 42 44  1  0  0  0  0
 43 45  1  0  0  0  0
 43 46  1  0  0  0  0
 44 48  1  0  0  0  0
 45 50  1  0  0  0  0
 46 67  1  0  0  0  0
 47 50  1  0  0  0  0
 47 67  1  0  0  0  0
 48 70  1  0  0  0  0
 49 66  1  0  0  0  0
 50 65  1  0  0  0  0
 51 62  1  0  0  0  0
 52 63  1  0  0  0  0
 53 63  1  0  0  0  0
 54 63  1  0  0  0  0
 55 73  1  0  0  0  0
 56 81  1  0  0  0  0
 57 58  1  0  0  0  0
 57 72  1  0  0  0  0
 58 74  1  0  0  0  0
 59 60  1  0  0  0  0
 59 74  1  0  0  0  0
 60 82  1  0  0  0  0
 61 63  1  0  0  0  0
 61 71  1  0  0  0  0
 62 73  1  0  0  0  0
 64 65  1  0  0  0  0
M  CHG  2  73   1  74   1
M  ISO  4  38 100  56 101  72 100  81 101
M  END
> <Batch ID>
0134

> <Smiles>
CNC(C)C(=O)NC(C(=O)N1Cc2cc([101O:1][101CH2:1]c3ccc(OCCNCC[100NH:0][100C:0](=O)N4CCCC(n5nc(-c6ccc(Oc7ccc(F)cc7F)cc6)c(C(N)=O)c5N)C4)cc3)ccc2CC1C(=O)NC1CCCc2ccccc21)C(C)(C)C

> <Shape>
0.220

> <Color>
0.092

> <Negative vol penalty>
0.000

$$$$

  -OEChem-04052320573D

 82 90  0     1  0  0  0  0  0999 V2000
  -17.5993  -31.2845   19.7304 C   0  0  0  0  0  0  0  0  0  0  0  0
  -18.9508  -31.3579   19.4085 C   0  0  0  0  0  0  0  0  0  0  0  0
  -28.0815  -12.1153   22.9121 C   0  0  0  0  0  0  0  0  0  0  0  0
  -26.7077  -13.0300   21.1477 C   0  0  0  0  0  0  0  0  0  0  0  0
  -17.2080  -30.8563   20.9982 C   0  0  0  0  0  0  0  0  0  0  0  0
  -19.9118  -31.0041   20.3549 C   0  0  0  0  0  0  0  0  0  0  0  0
  -25.2962  -28.2855   19.2949 C   0  0  0  0  0  0  0  0  0  0  0  0
  -26.9959  -11.3689   23.3704 C   0  0  0  0  0  0  0  0  0  0  0  0
  -25.6221  -12.2837   21.6060 C   0  0  0  0  0  0  0  0  0  0  0  0
  -26.5924  -28.7854   19.1777 C   0  0  0  0  0  0  0  0  0  0  0  0
  -24.5353   -9.0899   21.4067 C   0  0  0  0  0  0  0  0  0  0  0  0
  -23.7685   -8.4141   20.4575 C   0  0  0  0  0  0  0  0  0  0  0  0
  -26.9950  -28.2694   21.4995 C   0  0  0  0  0  0  0  0  0  0  0  0
  -21.8188   -9.6668   21.1408 C   0  0  0  0  0  0  0  0  0  0  0  0
  -27.9373  -12.9459   21.8007 C   0  0  0  0  0  0  0  0  0  0  0  0
  -30.0188  -13.3255   20.3756 C   0  0  0  0  0  0  0  0  0  0  0  0
  -18.1645  -30.4879   21.9574 C   0  0  0  0  0  0  0  0  0  0  0  0
  -24.8353  -27.7830   20.5202 C   0  0  0  0  0  0  0  0  0  0  0  0
  -19.5330  -30.5719   21.6372 C   0  0  0  0  0  0  0  0  0  0  0  0
  -25.6933  -27.7613   21.6290 C   0  0  0  0  0  0  0  0  0  0  0  0
  -25.7662  -11.4531   22.7174 C   0  0  0  0  0  0  0  0  0  0  0  0
  -27.4411  -28.7801   20.2808 C   0  0  0  0  0  0  0  0  0  0  0  0
  -23.9439  -10.0541   22.2229 C   0  0  0  0  0  0  0  0  0  0  0  0
  -22.4103   -8.7026   20.3246 C   0  0  0  0  0  0  0  0  0  0  0  0
  -22.5857  -10.3426   22.0900 C   0  0  0  0  0  0  0  0  0  0  0  0
  -29.0582  -13.7175   21.3271 C   0  0  0  0  0  0  0  0  0  0  0  0
  -30.8634  -14.4040   20.2760 C   0  0  0  0  0  0  0  0  0  0  0  0
  -30.1371  -12.0964   19.6469 C   0  0  0  0  0  0  0  0  0  0  0  0
  -22.5079  -28.5730   22.5359 C   0  0  0  0  0  0  0  0  0  0  0  0
  -23.4274  -25.8558   24.0503 C   0  0  0  0  0  0  0  0  0  0  0  0
  -25.8838  -23.5648   24.6540 C   0  0  0  0  0  0  0  0  0  0  0  0
  -30.0212  -20.1638   21.2617 C   0  0  0  0  0  0  0  0  0  0  0  0
  -17.6948  -30.0764   23.3302 C   0  0  0  0  0  0  0  0  0  0  0  0
  -23.4432  -27.2227   20.6233 C   0  0  0  0  0  0  0  0  0  0  0  0
  -25.2536  -27.2141   22.9615 C   0  0  0  0  0  0  0  0  0  0  0  0
  -18.7651  -29.3621   24.1515 C   0  0  0  0  0  0  0  0  0  0  0  0
  -32.5448  -18.0915   22.8222 C   0  0  0  0  0  0  0  0  0  0  0  0
  -20.0897  -30.1143   24.0717 C   0  0  0  0  0  0  0  0  0  0  0  0
  -32.0167  -16.6884   22.5181 C   0  0  0  0  0  0  0  0  0  0  0  0
  -30.4174  -23.7913   21.8524 C   0  0  0  0  0  0  0  0  0  0  0  0
  -30.1529  -25.1195   21.1445 C   0  0  0  0  0  0  0  0  0  0  0  0
  -30.9518  -24.1230   18.9685 C   0  0  0  0  0  0  0  0  0  0  0  0
  -31.4034  -19.0588   23.1221 C   0  0  0  0  0  0  0  0  0  0  0  0
  -29.8397  -17.7402   21.7474 C   0  0  0  0  0  0  0  0  0  0  0  0
  -20.6047  -30.1730   22.6285 C   0  0  1  0  0  0  0  0  0  0  0  0
  -22.9093  -27.2082   22.0523 C   0  0  1  0  0  0  0  0  0  0  0  0
  -30.9438  -16.7206   21.4136 C   0  0  2  0  0  0  0  0  0  0  0  0
  -30.3083  -22.6013   20.8921 C   0  0  1  0  0  0  0  0  0  0  0  0
  -31.0798  -25.2862   19.9447 C   0  0  1  0  0  0  0  0  0  0  0  0
  -31.2125  -22.7831   19.6628 C   0  0  1  0  0  0  0  0  0  0  0  0
  -26.3506  -21.4762   25.9645 C   0  0  0  0  0  0  0  0  0  0  0  0
  -23.7092  -27.5175   26.5938 C   0  0  0  0  0  0  0  0  0  0  0  0
  -25.0514  -25.6495   27.5823 C   0  0  0  0  0  0  0  0  0  0  0  0
  -22.6750  -25.2652   26.9284 C   0  0  0  0  0  0  0  0  0  0  0  0
  -26.3876  -21.9960   22.1956 C   0  0  0  0  0  0  0  0  0  0  0  0
  -30.8382  -29.0109   19.1002 C   0  0  0  0  0  0  0  0  0  0  0  0
  -31.2294  -27.7772   19.8996 C   0  0  0  0  0  0  0  0  0  0  0  0
  -29.3356  -29.1564   18.8933 C   0  0  0  0  0  0  0  0  0  1  0  0
  -24.4306  -25.5190   25.1269 C   0  0  1  0  0  0  0  0  0  0  0  0
  -25.8712  -22.0469   24.6388 C   0  0  2  0  0  0  0  0  0  0  0  0
  -23.9745  -26.0000   26.5334 C   0  0  0  0  0  0  0  0  0  0  0  0
  -29.2719  -14.9489   21.7985 N   0  0  0  0  0  0  0  0  0  0  0  0
  -30.3765  -15.3399   21.1405 N   0  0  0  0  0  0  0  0  0  0  0  0
  -23.8813  -26.6834   23.0136 N   0  0  0  0  0  0  0  0  0  0  0  0
  -30.4267  -19.0556   22.0239 N   0  0  0  0  0  0  0  0  0  0  0  0
  -31.9677  -14.6336   19.5342 N   0  0  0  0  0  0  0  0  0  0  0  0
  -29.1841  -11.0932   19.8698 N   0  0  0  0  0  0  0  0  0  0  0  0
  -21.1977  -28.9078   22.2516 N   0  0  0  0  0  0  0  0  0  0  0  0
  -24.6631  -24.0818   25.0332 N   0  0  0  0  0  0  0  0  0  0  0  0
  -30.6196  -21.3737   21.5916 N   0  0  0  0  0  0  0  0  0  0  0  0
  -30.7315  -26.5478   19.2391 N   0  3  0  0  0  0  0  0  0  0  0  0
  -26.7582  -21.5323   23.5574 N   0  3  0  0  0  0  0  0  0  0  0  0
  -31.0699  -11.8875   18.8347 O   0  0  0  0  0  0  0  0  0  0  0  0
  -23.3259  -29.2701   23.1247 O   0  0  0  0  0  0  0  0  0  0  0  0
  -22.2852  -25.3955   24.1227 O   0  0  0  0  0  0  0  0  0  0  0  0
  -26.8781  -24.2256   24.3625 O   0  0  0  0  0  0  0  0  0  0  0  0
  -29.1909  -20.0803   20.3503 O   0  0  0  0  0  0  0  0  0  0  0  0
  -30.9620  -21.7542   18.7084 O   0  0  0  0  0  0  0  0  0  0  0  0
  -24.7067  -10.7248   23.1642 O   0  0  0  0  0  0  0  0  0  0  0  0
  -28.7065  -29.2680   20.1693 O   0  0  0  0  0  0  0  0  0  1  0  0
  -21.6744   -8.0546   19.4120 F   0  0  0  0  0  0  0  0  0  0  0  0
  -22.0122  -11.2687   22.8705 F   0  0  0  0  0  0  0  0  0  0  0  0
  1  2  1  0  0  0  0
  1  5  2  0  0  0  0
  2  6  2  0  0  0  0
  3  8  2  0  0  0  0
  3 15  1  0  0  0  0
  4  9  1  0  0  0  0
  4 15  2  0  0  0  0
  5 17  1  0  0  0  0
  6 19  1  0  0  0  0
  7 10  2  0  0  0  0
  7 18  1  0  0  0  0
  8 21  1  0  0  0  0
  9 21  2  0  0  0  0
 10 22  1  0  0  0  0
 11 12  2  0  0  0  0
 11 23  1  0  0  0  0
 12 24  1  0  0  0  0
 13 20  1  0  0  0  0
 13 22  2  0  0  0  0
 14 24  2  0  0  0  0
 14 25  1  0  0  0  0
 15 26  1  0  0  0  0
 16 26  1  0  0  0  0
 16 27  2  0  0  0  0
 16 28  1  0  0  0  0
 17 19  2  0  0  0  0
 17 33  1  0  0  0  0
 18 20  2  0  0  0  0
 18 34  1  0  0  0  0
 19 45  1  0  0  0  0
 20 35  1  0  0  0  0
 21 79  1  0  0  0  0
 22 80  1  0  0  0  0
 23 25  2  0  0  0  0
 23 79  1  0  0  0  0
 24 81  1  0  0  0  0
 25 82  1  0  0  0  0
 26 62  2  0  0  0  0
 27 63  1  0  0  0  0
 27 66  1  0  0  0  0
 28 67  1  0  0  0  0
 28 73  2  0  0  0  0
 29 46  1  0  0  0  0
 29 68  1  0  0  0  0
 29 74  2  0  0  0  0
 30 59  1  0  0  0  0
 30 64  1  0  0  0  0
 30 75  2  0  0  0  0
 31 60  1  0  0  0  0
 31 69  1  0  0  0  0
 31 76  2  0  0  0  0
 32 65  1  0  0  0  0
 32 70  1  0  0  0  0
 32 77  2  0  0  0  0
 33 36  1  0  0  0  0
 34 46  1  0  0  0  0
 35 64  1  0  0  0  0
 36 38  1  0  0  0  0
 37 39  1  0  0  0  0
 37 43  1  0  0  0  0
 38 45  1  0  0  0  0
 39 47  1  0  0  0  0
 40 41  1  0  0  0  0
 40 48  1  0  0  0  0
 41 49  1  0  0  0  0
 42 49  1  0  0  0  0
 42 50  1  0  0  0  0
 43 65  1  0  0  0  0
 44 47  1  0  0  0  0
 44 65  1  0  0  0  0
 45 68  1  0  0  0  0
 46 64  1  0  0  0  0
 47 63  1  0  0  0  0
 48 50  1  0  0  0  0
 48 70  1  0  0  0  0
 49 71  1  0  0  0  0
 50 78  1  0  0  0  0
 51 60  1  0  0  0  0
 52 61  1  0  0  0  0
 53 61  1  0  0  0  0
 54 61  1  0  0  0  0
 55 72  1  0  0  0  0
 56 57  1  0  0  0  0
 56 58  1  0  0  0  0
 57 71  1  0  0  0  0
 58 80  1  0  0  0  0
 59 61  1  0  0  0  0
 59 69  1  0  0  0  0
 60 72  1  0  0  0  0
 62 63  1  0  0  0  0
M  CHG  2  71   1  72   1
M  ISO  4  32 100  58 101  70 100  80 101
M  END
> <Batch ID>
0134

> <Smiles>
CNC(C)C(=O)NC(C(=O)N1Cc2cc([101O:1][101CH2:1]CCNC3CCC([100NH:0][100C:0](=O)N4CCCC(n5nc(-c6ccc(Oc7ccc(F)cc7F)cc6)c(C(N)=O)c5N)C4)C(O)C3)ccc2CC1C(=O)NC1CCCc2ccccc21)C(C)(C)C

> <Shape>
0.241

> <Color>
0.095

> <Negative vol penalty>
0.000

$$$$

  -OEChem-04052320573D

 86 95  0     1  0  0  0  0  0999 V2000
  -23.8019  -30.7699   21.0653 C   0  0  0  0  0  0  0  0  0  0  0  0
  -24.0066  -29.4370   21.4071 C   0  0  0  0  0  0  0  0  0  0  0  0
  -23.7629   -9.4767   19.7993 C   0  0  0  0  0  0  0  0  0  0  0  0
  -24.5315   -9.5081   22.0896 C   0  0  0  0  0  0  0  0  0  0  0  0
  -24.7924  -31.4728   20.3805 C   0  0  0  0  0  0  0  0  0  0  0  0
  -25.2016  -28.8059   21.0634 C   0  0  0  0  0  0  0  0  0  0  0  0
  -28.1615  -24.5214   24.2864 C   0  0  0  0  0  0  0  0  0  0  0  0
  -23.3633   -8.1490   19.9516 C   0  0  0  0  0  0  0  0  0  0  0  0
  -24.1319   -8.1804   22.2419 C   0  0  0  0  0  0  0  0  0  0  0  0
  -28.2000  -23.1314   24.1855 C   0  0  0  0  0  0  0  0  0  0  0  0
  -21.2510   -6.4920   22.7617 C   0  0  0  0  0  0  0  0  0  0  0  0
  -20.5532   -6.1558   23.9217 C   0  0  0  0  0  0  0  0  0  0  0  0
  -31.2229  -16.1679   22.9225 C   0  0  0  0  0  0  0  0  0  0  0  0
  -30.2227  -23.2881   22.8804 C   0  0  0  0  0  0  0  0  0  0  0  0
  -31.8416  -14.9624   25.3529 C   0  0  0  0  0  0  0  0  0  0  0  0
  -22.2851   -4.5757   24.5056 C   0  0  0  0  0  0  0  0  0  0  0  0
  -24.3471  -10.1562   20.8683 C   0  0  0  0  0  0  0  0  0  0  0  0
  -23.9905  -12.6807   20.9542 C   0  0  0  0  0  0  0  0  0  0  0  0
  -26.0040  -30.8527   20.0367 C   0  0  0  0  0  0  0  0  0  0  0  0
  -29.1490  -25.3070   23.6747 C   0  0  0  0  0  0  0  0  0  0  0  0
  -26.2086  -29.5007   20.3722 C   0  0  0  0  0  0  0  0  0  0  0  0
  -31.6900  -16.9545   23.9881 C   0  0  0  0  0  0  0  0  0  0  0  0
  -30.1959  -24.6877   22.9771 C   0  0  0  0  0  0  0  0  0  0  0  0
  -31.3787  -14.1887   24.2875 C   0  0  0  0  0  0  0  0  0  0  0  0
  -31.9916  -16.3522   25.2264 C   0  0  0  0  0  0  0  0  0  0  0  0
  -31.0671  -14.7918   23.0735 C   0  0  0  0  0  0  0  0  0  0  0  0
  -23.5478   -7.5008   21.1729 C   0  0  0  0  0  0  0  0  0  0  0  0
  -29.2291  -22.5146   23.4800 C   0  0  0  0  0  0  0  0  0  0  0  0
  -22.4659   -5.8700   22.4736 C   0  0  0  0  0  0  0  0  0  0  0  0
  -21.0703   -5.1977   24.7937 C   0  0  0  0  0  0  0  0  0  0  0  0
  -22.9829   -4.9119   23.3456 C   0  0  0  0  0  0  0  0  0  0  0  0
  -24.7606  -11.5275   20.7114 C   0  0  0  0  0  0  0  0  0  0  0  0
  -24.8326  -13.7246   20.6582 C   0  0  0  0  0  0  0  0  0  0  0  0
  -22.6351  -12.7979   21.4070 C   0  0  0  0  0  0  0  0  0  0  0  0
  -29.1589  -27.5283   21.4011 C   0  0  0  0  0  0  0  0  0  0  0  0
  -32.2842  -27.8026   22.2255 C   0  0  0  0  0  0  0  0  0  0  0  0
  -35.0532  -26.3633   23.6067 C   0  0  0  0  0  0  0  0  0  0  0  0
  -30.7814  -14.2864   20.6221 C   0  0  0  0  0  0  0  0  0  0  0  0
  -27.0259  -31.6396   19.2550 C   0  0  0  0  0  0  0  0  0  0  0  0
  -29.1080  -26.8040   23.8154 C   0  0  0  0  0  0  0  0  0  0  0  0
  -31.2915  -25.4850   22.3195 C   0  0  0  0  0  0  0  0  0  0  0  0
  -28.4147  -31.0059   19.2577 C   0  0  0  0  0  0  0  0  0  0  0  0
  -28.5728  -14.8483   17.8865 C   0  0  0  0  0  0  0  0  0  0  0  0
  -28.3205  -29.5122   18.9632 C   0  0  0  0  0  0  0  0  0  0  0  0
  -27.2726  -14.1707   18.3251 C   0  0  0  0  0  0  0  0  0  0  0  0
  -32.8518  -19.0121   24.8279 C   0  0  0  0  0  0  0  0  0  0  0  0
  -29.8026  -14.0686   18.3484 C   0  0  0  0  0  0  0  0  0  0  0  0
  -28.5414  -13.0869   20.2232 C   0  0  0  0  0  0  0  0  0  0  0  0
  -31.8547  -18.4504   23.8004 C   0  0  2  0  0  0  0  0  0  0  0  0
  -27.5015  -28.7884   20.0387 C   0  0  1  0  0  0  0  0  0  0  0  0
  -29.8818  -27.5286   22.7183 C   0  0  1  0  0  0  0  0  0  0  0  0
  -27.2760  -13.8700   19.8368 C   0  0  2  0  0  0  0  0  0  0  0  0
  -32.5232  -18.5419   26.2494 C   0  0  2  0  0  0  0  0  0  0  0  0
  -31.2295  -12.7140   24.4795 C   0  0  0  0  0  0  0  0  0  0  0  0
  -37.4698  -26.8204   24.1056 C   0  0  0  0  0  0  0  0  0  0  0  0
  -32.9678  -27.3892   19.2807 C   0  0  0  0  0  0  0  0  0  0  0  0
  -35.3268  -26.9082   19.9677 C   0  0  0  0  0  0  0  0  0  0  0  0
  -34.3265  -29.1461   20.4304 C   0  0  0  0  0  0  0  0  0  0  0  0
  -34.6359  -26.0277   26.5174 C   0  0  0  0  0  0  0  0  0  0  0  0
  -30.4990  -19.1589   23.8725 C   0  0  0  0  0  0  0  0  0  0  0  0
  -33.5685  -19.0472   27.2398 C   0  0  0  0  0  0  0  0  0  0  0  0
  -30.5558  -20.5525   23.2657 C   0  0  0  0  0  0  0  0  0  1  0  0
  -33.5689  -27.1469   21.7799 C   0  0  1  0  0  0  0  0  0  0  0  0
  -36.0456  -26.8724   24.6365 C   0  0  2  0  0  0  0  0  0  0  0  0
  -34.0259  -27.6324   20.3753 C   0  0  0  0  0  0  0  0  0  0  0  0
  -25.9968  -11.8117   20.2931 N   0  0  0  0  0  0  0  0  0  0  0  0
  -26.0099  -13.1553   20.2708 N   0  0  0  0  0  0  0  0  0  0  0  0
  -32.4839  -17.0886   26.2973 N   0  0  0  0  0  0  0  0  0  0  0  0
  -31.2038  -26.9459   22.4800 N   0  0  0  0  0  0  0  0  0  0  0  0
  -29.7390  -13.8243   19.7911 N   0  0  0  0  0  0  0  0  0  0  0  0
  -24.6735  -15.0646   20.6939 N   0  0  0  0  0  0  0  0  0  0  0  0
  -21.9130  -11.6246   21.6647 N   0  0  0  0  0  0  0  0  0  0  0  0
  -30.5958  -14.0248   21.9792 N   0  0  0  0  0  0  0  0  0  0  0  0
  -28.2954  -28.5940   21.2330 N   0  0  0  0  0  0  0  0  0  0  0  0
  -34.5402  -27.3890   22.8411 N   0  0  0  0  0  0  0  0  0  0  0  0
  -35.9755  -26.0473   25.8755 N   0  3  0  0  0  0  0  0  0  0  0  0
  -22.0756  -13.9097   21.5623 O   0  0  0  0  0  0  0  0  0  0  0  0
  -29.3700  -26.6287   20.5962 O   0  0  0  0  0  0  0  0  0  0  0  0
  -32.2429  -29.0291   22.3502 O   0  0  0  0  0  0  0  0  0  0  0  0
  -34.7650  -25.1743   23.4904 O   0  0  0  0  0  0  0  0  0  0  0  0
  -31.7531  -14.8950   20.1667 O   0  0  0  0  0  0  0  0  0  0  0  0
  -33.2161  -18.5975   28.5352 O   0  0  0  0  0  0  0  0  0  0  0  0
  -23.1578   -6.2054   21.3219 O   0  0  0  0  0  0  0  0  0  0  0  0
  -29.2687  -21.1581   23.3795 O   0  0  0  0  0  0  0  0  0  1  0  0
  -20.4008   -4.8761   25.9084 F   0  0  0  0  0  0  0  0  0  0  0  0
  -24.1501   -4.3118   23.0747 F   0  0  0  0  0  0  0  0  0  0  0  0
  1  2  1  0  0  0  0
  1  5  2  0  0  0  0
  2  6  2  0  0  0  0
  3  8  2  0  0  0  0
  3 17  1  0  0  0  0
  4  9  1  0  0  0  0
  4 17  2  0  0  0  0
  5 19  1  0  0  0  0
  6 21  1  0  0  0  0
  7 10  2  0  0  0  0
  7 20  1  0  0  0  0
  8 27  1  0  0  0  0
  9 27  2  0  0  0  0
 10 28  1  0  0  0  0
 11 12  2  0  0  0  0
 11 29  1  0  0  0  0
 12 30  1  0  0  0  0
 13 22  1  0  0  0  0
 13 26  2  0  0  0  0
 14 23  1  0  0  0  0
 14 28  2  0  0  0  0
 15 24  2  0  0  0  0
 15 25  1  0  0  0  0
 16 30  2  0  0  0  0
 16 31  1  0  0  0  0
 17 32  1  0  0  0  0
 18 32  1  0  0  0  0
 18 33  2  0  0  0  0
 18 34  1  0  0  0  0
 19 21  2  0  0  0  0
 19 39  1  0  0  0  0
 20 23  2  0  0  0  0
 20 40  1  0  0  0  0
 21 50  1  0  0  0  0
 22 25  2  0  0  0  0
 22 49  1  0  0  0  0
 23 41  1  0  0  0  0
 24 26  1  0  0  0  0
 24 54  1  0  0  0  0
 25 68  1  0  0  0  0
 26 73  1  0  0  0  0
 27 83  1  0  0  0  0
 28 84  1  0  0  0  0
 29 31  2  0  0  0  0
 29 83  1  0  0  0  0
 30 85  1  0  0  0  0
 31 86  1  0  0  0  0
 32 66  2  0  0  0  0
 33 67  1  0  0  0  0
 33 71  1  0  0  0  0
 34 72  1  0  0  0  0
 34 77  2  0  0  0  0
 35 51  1  0  0  0  0
 35 74  1  0  0  0  0
 35 78  2  0  0  0  0
 36 63  1  0  0  0  0
 36 69  1  0  0  0  0
 36 79  2  0  0  0  0
 37 64  1  0  0  0  0
 37 75  1  0  0  0  0
 37 80  2  0  0  0  0
 38 70  1  0  0  0  0
 38 73  1  0  0  0  0
 38 81  2  0  0  0  0
 39 42  1  0  0  0  0
 40 51  1  0  0  0  0
 41 69  1  0  0  0  0
 42 44  1  0  0  0  0
 43 45  1  0  0  0  0
 43 47  1  0  0  0  0
 44 50  1  0  0  0  0
 45 52  1  0  0  0  0
 46 49  1  0  0  0  0
 46 53  1  0  0  0  0
 47 70  1  0  0  0  0
 48 52  1  0  0  0  0
 48 70  1  0  0  0  0
 49 60  1  0  0  0  0
 50 74  1  0  0  0  0
 51 69  1  0  0  0  0
 52 67  1  0  0  0  0
 53 61  1  0  0  0  0
 53 68  1  0  0  0  0
 55 64  1  0  0  0  0
 56 65  1  0  0  0  0
 57 65  1  0  0  0  0
 58 65  1  0  0  0  0
 59 76  1  0  0  0  0
 60 62  1  0  0  0  0
 61 82  1  0  0  0  0
 62 84  1  0  0  0  0
 63 65  1  0  0  0  0
 63 75  1  0  0  0  0
 64 76  1  0  0  0  0
 66 67  1  0  0  0  0
M  CHG  1  76   1
M  ISO  4  38 100  62 101  73 100  84 101
M  END
> <Batch ID>
0134

> <Smiles>
CNC(C)C(=O)NC(C(=O)N1Cc2cc([101O:1][101CH2:1]CC3CC(CO)Nc4cc(C)c([100NH:0][100C:0](=O)N5CCCC(n6nc(-c7ccc(Oc8ccc(F)cc8F)cc7)c(C(N)=O)c6N)C5)cc43)ccc2CC1C(=O)NC1CCCc2ccccc21)C(C)(C)C

> <Shape>
0.213

> <Color>
0.138

> <Negative vol penalty>
0.000

$$$$

  -OEChem-04052320573D

 88 97  0     1  0  0  0  0  0999 V2000
  -17.8349  -27.4204   22.7902 C   0  0  0  0  0  0  0  0  0  0  0  0
  -18.7000  -26.6487   23.5592 C   0  0  0  0  0  0  0  0  0  0  0  0
  -22.8749  -10.1332   20.0879 C   0  0  0  0  0  0  0  0  0  0  0  0
  -24.3804   -9.5480   21.8845 C   0  0  0  0  0  0  0  0  0  0  0  0
  -18.3359  -28.1946   21.7445 C   0  0  0  0  0  0  0  0  0  0  0  0
  -20.0666  -26.6498   23.2822 C   0  0  0  0  0  0  0  0  0  0  0  0
  -26.4239  -26.1176   26.5407 C   0  0  0  0  0  0  0  0  0  0  0  0
  -22.2100   -8.9176   20.2491 C   0  0  0  0  0  0  0  0  0  0  0  0
  -23.7155   -8.3325   22.0458 C   0  0  0  0  0  0  0  0  0  0  0  0
  -27.6132  -25.3934   26.4700 C   0  0  0  0  0  0  0  0  0  0  0  0
  -20.8612   -7.2274   23.4784 C   0  0  0  0  0  0  0  0  0  0  0  0
  -20.5549   -6.8255   24.7785 C   0  0  0  0  0  0  0  0  0  0  0  0
  -28.3756  -26.8311   24.6892 C   0  0  0  0  0  0  0  0  0  0  0  0
  -30.7396  -15.2021   24.7403 C   0  0  0  0  0  0  0  0  0  0  0  0
  -21.8819   -4.8296   24.4741 C   0  0  0  0  0  0  0  0  0  0  0  0
  -23.9601  -10.4484   20.9056 C   0  0  0  0  0  0  0  0  0  0  0  0
  -24.1014  -12.9951   20.8633 C   0  0  0  0  0  0  0  0  0  0  0  0
  -19.7106  -28.2127   21.4606 C   0  0  0  0  0  0  0  0  0  0  0  0
  -26.1966  -27.1989   25.6774 C   0  0  0  0  0  0  0  0  0  0  0  0
  -20.5863  -27.4239   22.2308 C   0  0  0  0  0  0  0  0  0  0  0  0
  -27.1837  -27.5689   24.7527 C   0  0  0  0  0  0  0  0  0  0  0  0
  -30.7778  -16.5384   25.1225 C   0  0  0  0  0  0  0  0  0  0  0  0
  -31.8233  -17.3487   24.6938 C   0  0  0  0  0  0  0  0  0  0  0  0
  -22.6303   -8.0173   21.2281 C   0  0  0  0  0  0  0  0  0  0  0  0
  -28.5881  -25.7483   25.5422 C   0  0  0  0  0  0  0  0  0  0  0  0
  -21.6778   -6.4304   22.6761 C   0  0  0  0  0  0  0  0  0  0  0  0
  -21.0653   -5.6266   25.2763 C   0  0  0  0  0  0  0  0  0  0  0  0
  -22.1882   -5.2315   23.1739 C   0  0  0  0  0  0  0  0  0  0  0  0
  -24.6477  -11.7036   20.7391 C   0  0  0  0  0  0  0  0  0  0  0  0
  -31.7628  -14.7283   23.9351 C   0  0  0  0  0  0  0  0  0  0  0  0
  -32.7981  -16.7787   23.8908 C   0  0  0  0  0  0  0  0  0  0  0  0
  -25.1553  -13.8393   20.6122 C   0  0  0  0  0  0  0  0  0  0  0  0
  -22.7612  -13.3959   21.1778 C   0  0  0  0  0  0  0  0  0  0  0  0
  -24.0586  -27.8550   23.4186 C   0  0  0  0  0  0  0  0  0  0  0  0
  -25.5293  -30.7462   23.4125 C   0  0  0  0  0  0  0  0  0  0  0  0
  -28.3348  -32.5710   24.0806 C   0  0  0  0  0  0  0  0  0  0  0  0
  -31.0890  -13.2150   21.1147 C   0  0  0  0  0  0  0  0  0  0  0  0
  -20.1994  -29.0286   20.2901 C   0  0  0  0  0  0  0  0  0  0  0  0
  -24.9196  -27.9865   25.7844 C   0  0  0  0  0  0  0  0  0  0  0  0
  -26.9970  -28.7343   23.8171 C   0  0  0  0  0  0  0  0  0  0  0  0
  -21.7075  -29.2649   20.2999 C   0  0  0  0  0  0  0  0  0  0  0  0
  -29.2677  -14.0732   18.1782 C   0  0  0  0  0  0  0  0  0  0  0  0
  -22.4497  -27.9650   20.5934 C   0  0  0  0  0  0  0  0  0  0  0  0
  -27.8279  -13.6798   18.5128 C   0  0  0  0  0  0  0  0  0  0  0  0
  -30.4119  -21.8976   23.5210 C   0  0  0  0  0  0  0  0  0  0  0  0
  -30.2632  -21.3447   25.9894 C   0  0  0  0  0  0  0  0  0  0  0  0
  -30.3818  -23.3868   23.8561 C   0  0  0  0  0  0  0  0  0  0  0  0
  -30.2330  -22.8352   26.3186 C   0  0  0  0  0  0  0  0  0  0  0  0
  -30.2743  -13.0942   18.7785 C   0  0  0  0  0  0  0  0  0  0  0  0
  -28.6914  -12.4772   20.5638 C   0  0  0  0  0  0  0  0  0  0  0  0
  -22.0782  -27.4180   21.9770 C   0  0  1  0  0  0  0  0  0  0  0  0
  -24.5793  -28.7494   24.5079 C   0  0  1  0  0  0  0  0  0  0  0  0
  -27.6424  -13.4661   20.0271 C   0  0  2  0  0  0  0  0  0  0  0  0
  -31.0029  -21.0933   24.6771 C   0  0  0  0  0  0  0  0  0  0  0  0
  -29.6473  -23.6554   25.1688 C   0  0  0  0  0  0  0  0  0  1  0  0
  -29.6899  -17.0760   25.9923 C   0  0  0  0  0  0  0  0  0  0  0  0
  -33.9451  -17.5991   23.3978 C   0  0  0  0  0  0  0  0  0  0  0  0
  -29.2483  -34.9038   23.9356 C   0  0  0  0  0  0  0  0  0  0  0  0
  -25.9011  -30.4109   20.4027 C   0  0  0  0  0  0  0  0  0  0  0  0
  -27.6030  -32.2456   20.4789 C   0  0  0  0  0  0  0  0  0  0  0  0
  -25.2385  -32.7126   21.1220 C   0  0  0  0  0  0  0  0  0  0  0  0
  -28.7327  -32.7216   27.0094 C   0  0  0  0  0  0  0  0  0  0  0  0
  -31.8896  -18.7947   25.0882 C   0  0  0  0  0  0  0  0  0  0  0  0
  -31.7537  -13.2996   23.5043 C   0  0  0  0  0  0  0  0  0  0  0  0
  -26.6983  -31.3494   22.6719 C   0  0  1  0  0  0  0  0  0  0  0  0
  -28.5298  -33.8879   24.8100 C   0  0  2  0  0  0  0  0  0  0  0  0
  -26.3632  -31.6564   21.1850 C   0  0  0  0  0  0  0  0  0  0  0  0
  -25.9476  -11.7209   20.4327 N   0  0  0  0  0  0  0  0  0  0  0  0
  -32.7947  -15.4848   23.4990 N   0  0  0  0  0  0  0  0  0  0  0  0
  -26.2270  -13.0335   20.3622 N   0  0  0  0  0  0  0  0  0  0  0  0
  -25.7289  -29.4693   23.9561 N   0  0  0  0  0  0  0  0  0  0  0  0
  -30.0451  -12.9374   20.2168 N   0  0  0  0  0  0  0  0  0  0  0  0
  -25.2606  -15.1848   20.5829 N   0  0  0  0  0  0  0  0  0  0  0  0
  -21.8024  -12.3997   21.4072 N   0  0  0  0  0  0  0  0  0  0  0  0
  -22.7713  -28.1525   23.0136 N   0  0  0  0  0  0  0  0  0  0  0  0
  -27.1128  -32.5157   23.4441 N   0  0  0  0  0  0  0  0  0  0  0  0
  -30.7857  -13.0471   22.4603 N   0  0  0  0  0  0  0  0  0  0  0  0
  -30.9206  -19.6455   24.3479 N   0  3  0  0  0  0  0  0  0  0  0  0
  -29.3342  -33.6806   26.0473 N   0  3  0  0  0  0  0  0  0  0  0  0
  -22.4200  -14.6015   21.2369 O   0  0  0  0  0  0  0  0  0  0  0  0
  -24.7723  -26.9620   22.9771 O   0  0  0  0  0  0  0  0  0  0  0  0
  -24.4802  -31.3874   23.5114 O   0  0  0  0  0  0  0  0  0  0  0  0
  -29.1832  -31.6818   24.0728 O   0  0  0  0  0  0  0  0  0  0  0  0
  -32.2068  -13.5903   20.7450 O   0  0  0  0  0  0  0  0  0  0  0  0
  -21.9816   -6.8312   21.3858 O   0  0  0  0  0  0  0  0  0  0  0  0
  -29.7495  -25.0428   25.4706 O   0  0  0  0  0  0  0  0  0  1  0  0
  -20.7723   -5.2415   26.5253 F   0  0  0  0  0  0  0  0  0  0  0  0
  -22.9741   -4.4622   22.4083 F   0  0  0  0  0  0  0  0  0  0  0  0
  1  2  1  0  0  0  0
  1  5  2  0  0  0  0
  2  6  2  0  0  0  0
  3  8  2  0  0  0  0
  3 16  1  0  0  0  0
  4  9  1  0  0  0  0
  4 16  2  0  0  0  0
  5 18  1  0  0  0  0
  6 20  1  0  0  0  0
  7 10  2  0  0  0  0
  7 19  1  0  0  0  0
  8 24  1  0  0  0  0
  9 24  2  0  0  0  0
 10 25  1  0  0  0  0
 11 12  2  0  0  0  0
 11 26  1  0  0  0  0
 12 27  1  0  0  0  0
 13 21  1  0  0  0  0
 13 25  2  0  0  0  0
 14 22  2  0  0  0  0
 14 30  1  0  0  0  0
 15 27  2  0  0  0  0
 15 28  1  0  0  0  0
 16 29  1  0  0  0  0
 17 29  1  0  0  0  0
 17 32  2  0  0  0  0
 17 33  1  0  0  0  0
 18 20  2  0  0  0  0
 18 38  1  0  0  0  0
 19 21  2  0  0  0  0
 19 39  1  0  0  0  0
 20 51  1  0  0  0  0
 21 40  1  0  0  0  0
 22 23  1  0  0  0  0
 22 56  1  0  0  0  0
 23 31  2  0  0  0  0
 23 63  1  0  0  0  0
 24 85  1  0  0  0  0
 25 86  1  0  0  0  0
 26 28  2  0  0  0  0
 26 85  1  0  0  0  0
 27 87  1  0  0  0  0
 28 88  1  0  0  0  0
 29 68  2  0  0  0  0
 30 64  1  0  0  0  0
 30 69  2  0  0  0  0
 31 57  1  0  0  0  0
 31 69  1  0  0  0  0
 32 70  1  0  0  0  0
 32 73  1  0  0  0  0
 33 74  1  0  0  0  0
 33 80  2  0  0  0  0
 34 52  1  0  0  0  0
 34 75  1  0  0  0  0
 34 81  2  0  0  0  0
 35 65  1  0  0  0  0
 35 71  1  0  0  0  0
 35 82  2  0  0  0  0
 36 66  1  0  0  0  0
 36 76  1  0  0  0  0
 36 83  2  0  0  0  0
 37 72  1  0  0  0  0
 37 77  1  0  0  0  0
 37 84  2  0  0  0  0
 38 41  1  0  0  0  0
 39 52  1  0  0  0  0
 40 71  1  0  0  0  0
 41 43  1  0  0  0  0
 42 44  1  0  0  0  0
 42 49  1  0  0  0  0
 43 51  1  0  0  0  0
 44 53  1  0  0  0  0
 45 47  1  0  0  0  0
 45 54  1  0  0  0  0
 46 48  1  0  0  0  0
 46 54  1  0  0  0  0
 47 55  1  0  0  0  0
 48 55  1  0  0  0  0
 49 72  1  0  0  0  0
 50 53  1  0  0  0  0
 50 72  1  0  0  0  0
 51 75  1  0  0  0  0
 52 71  1  0  0  0  0
 53 70  1  0  0  0  0
 54 78  1  0  0  0  0
 55 86  1  0  0  0  0
 58 66  1  0  0  0  0
 59 67  1  0  0  0  0
 60 67  1  0  0  0  0
 61 67  1  0  0  0  0
 62 79  1  0  0  0  0
 63 78  1  0  0  0  0
 64 77  1  0  0  0  0
 65 67  1  0  0  0  0
 65 76  1  0  0  0  0
 66 79  1  0  0  0  0
 68 70  1  0  0  0  0
M  CHG  2  78   1  79   1
M  ISO  4  37 100  55 101  77 100  86 101
M  END
> <Batch ID>
0134

> <Smiles>
CNC(C)C(=O)NC(C(=O)N1Cc2cc([101O:1][101CH:1]3CCC(NCc4c(C)cc(C[100NH:0][100C:0](=O)N5CCCC(n6nc(-c7ccc(Oc8ccc(F)cc8F)cc7)c(C(N)=O)c6N)C5)nc4C)CC3)ccc2CC1C(=O)NC1CCCc2ccccc21)C(C)(C)C

> <Shape>
0.280

> <Color>
0.196

> <Negative vol penalty>
0.000

$$$$

  -OEChem-04052320573D

 83 92  0     1  0  0  0  0  0999 V2000
  -18.2048  -27.2158   22.7783 C   0  0  0  0  0  0  0  0  0  0  0  0
  -19.0899  -26.1426   22.7611 C   0  0  0  0  0  0  0  0  0  0  0  0
  -23.1338   -9.7568   21.3309 C   0  0  0  0  0  0  0  0  0  0  0  0
  -23.4994  -11.0910   23.3116 C   0  0  0  0  0  0  0  0  0  0  0  0
  -18.6921  -28.5182   22.8795 C   0  0  0  0  0  0  0  0  0  0  0  0
  -20.4629  -26.3714   22.8440 C   0  0  0  0  0  0  0  0  0  0  0  0
  -24.6211  -22.8434   25.6313 C   0  0  0  0  0  0  0  0  0  0  0  0
  -22.3752   -8.8556   22.0779 C   0  0  0  0  0  0  0  0  0  0  0  0
  -22.7408  -10.1898   24.0587 C   0  0  0  0  0  0  0  0  0  0  0  0
  -25.5081  -21.8811   25.1509 C   0  0  0  0  0  0  0  0  0  0  0  0
  -22.9384   -6.3124   24.2318 C   0  0  0  0  0  0  0  0  0  0  0  0
  -23.1760   -4.9514   24.0399 C   0  0  0  0  0  0  0  0  0  0  0  0
  -29.8215  -17.4796   23.5708 C   0  0  0  0  0  0  0  0  0  0  0  0
  -27.2518  -23.5452   25.0540 C   0  0  0  0  0  0  0  0  0  0  0  0
  -20.8817   -4.6487   23.3459 C   0  0  0  0  0  0  0  0  0  0  0  0
  -28.8034  -17.9976   24.3405 C   0  0  0  0  0  0  0  0  0  0  0  0
  -23.6959  -10.8744   21.9477 C   0  0  0  0  0  0  0  0  0  0  0  0
  -24.0167  -12.9461   20.4941 C   0  0  0  0  0  0  0  0  0  0  0  0
  -20.0712  -28.7625   22.9734 C   0  0  0  0  0  0  0  0  0  0  0  0
  -25.0406  -24.1686   25.8167 C   0  0  0  0  0  0  0  0  0  0  0  0
  -20.9692  -27.6783   22.9452 C   0  0  0  0  0  0  0  0  0  0  0  0
  -26.3689  -24.5220   25.5393 C   0  0  0  0  0  0  0  0  0  0  0  0
  -29.9510  -18.3070   22.4282 C   0  0  0  0  0  0  0  0  0  0  0  0
  -22.1787   -9.0721   23.4418 C   0  0  0  0  0  0  0  0  0  0  0  0
  -26.8229  -22.2325   24.8594 C   0  0  0  0  0  0  0  0  0  0  0  0
  -21.6724   -6.8416   23.9808 C   0  0  0  0  0  0  0  0  0  0  0  0
  -22.1477   -4.1195   23.5970 C   0  0  0  0  0  0  0  0  0  0  0  0
  -20.6441   -6.0097   23.5379 C   0  0  0  0  0  0  0  0  0  0  0  0
  -24.4801  -11.8054   21.1767 C   0  0  0  0  0  0  0  0  0  0  0  0
  -29.0083  -19.3057   22.5345 C   0  0  0  0  0  0  0  0  0  0  0  0
  -25.1434  -13.4860   19.9234 C   0  0  0  0  0  0  0  0  0  0  0  0
  -27.6966  -21.0995   21.2052 C   0  0  0  0  0  0  0  0  0  0  0  0
  -28.7834  -20.3946   21.5632 C   0  0  0  0  0  0  0  0  0  0  0  0
  -22.6868  -13.4708   20.3857 C   0  0  0  0  0  0  0  0  0  0  0  0
  -24.2031  -26.9789   24.5900 C   0  0  0  0  0  0  0  0  0  0  0  0
  -26.2652  -28.1258   26.8159 C   0  0  0  0  0  0  0  0  0  0  0  0
  -28.9632  -27.5630   28.8286 C   0  0  0  0  0  0  0  0  0  0  0  0
  -30.5033  -15.0094   20.2332 C   0  0  0  0  0  0  0  0  0  0  0  0
  -20.5532  -30.1903   23.0336 C   0  0  0  0  0  0  0  0  0  0  0  0
  -24.0787  -25.1889   26.3610 C   0  0  0  0  0  0  0  0  0  0  0  0
  -26.8743  -25.9264   25.7403 C   0  0  0  0  0  0  0  0  0  0  0  0
  -28.4449  -21.9364   20.1964 C   0  0  0  0  0  0  0  0  0  0  0  0
  -29.6911  -21.1281   20.5984 C   0  0  0  0  0  0  0  0  0  0  0  0
  -22.0022  -30.3252   23.4946 C   0  0  0  0  0  0  0  0  0  0  0  0
  -29.8150  -11.6064   19.4442 C   0  0  0  0  0  0  0  0  0  0  0  0
  -22.8912  -29.3267   22.7601 C   0  0  0  0  0  0  0  0  0  0  0  0
  -28.3298  -11.4476   19.7741 C   0  0  0  0  0  0  0  0  0  0  0  0
  -30.5152  -12.5400   20.4291 C   0  0  0  0  0  0  0  0  0  0  0  0
  -28.3982  -13.7049   20.9138 C   0  0  0  0  0  0  0  0  0  0  0  0
  -22.4641  -27.8844   23.0581 C   0  0  1  0  0  0  0  0  0  0  0  0
  -24.4751  -26.6231   26.0243 C   0  0  1  0  0  0  0  0  0  0  0  0
  -27.6372  -12.8165   19.9148 C   0  0  2  0  0  0  0  0  0  0  0  0
  -30.4402  -28.7020   30.5074 C   0  0  0  0  0  0  0  0  0  0  0  0
  -27.6749  -29.6189   24.5590 C   0  0  0  0  0  0  0  0  0  0  0  0
  -29.6310  -29.9414   26.0880 C   0  0  0  0  0  0  0  0  0  0  0  0
  -27.4161  -30.9282   26.6740 C   0  0  0  0  0  0  0  0  0  0  0  0
  -28.2160  -25.6482   30.9580 C   0  0  0  0  0  0  0  0  0  0  0  0
  -30.9261  -18.1160   21.3346 C   0  0  0  0  0  0  0  0  0  0  0  0
  -30.3306  -17.4795   20.0662 C   0  0  0  0  0  0  0  0  0  0  0  0
  -27.1921  -19.9658   24.2165 C   0  0  0  0  0  0  0  0  0  1  0  0
  -27.7440  -28.4274   26.8485 C   0  0  1  0  0  0  0  0  0  0  0  0
  -29.1986  -27.8485   30.3008 C   0  0  2  0  0  0  0  0  0  0  0  0
  -28.1068  -29.7029   26.0366 C   0  0  0  0  0  0  0  0  0  0  0  0
  -25.7983  -11.6300   21.0521 N   0  0  0  0  0  0  0  0  0  0  0  0
  -28.3167  -19.1078   23.7010 N   0  0  0  0  0  0  0  0  0  0  0  0
  -26.1729  -12.6676   20.2845 N   0  0  0  0  0  0  0  0  0  0  0  0
  -25.8941  -26.8895   26.2686 N   0  0  0  0  0  0  0  0  0  0  0  0
  -29.8096  -13.8209   20.5148 N   0  0  0  0  0  0  0  0  0  0  0  0
  -25.3439  -14.5762   19.1529 N   0  0  0  0  0  0  0  0  0  0  0  0
  -21.6459  -12.7922   21.0340 N   0  0  0  0  0  0  0  0  0  0  0  0
  -22.9343  -27.4779   24.3650 N   0  0  0  0  0  0  0  0  0  0  0  0
  -28.1170  -28.4898   28.2575 N   0  0  0  0  0  0  0  0  0  0  0  0
  -29.7585  -16.1783   20.3317 N   0  0  0  0  0  0  0  0  0  0  0  0
  -29.3735  -26.5745   31.0541 N   0  3  0  0  0  0  0  0  0  0  0  0
  -22.4267  -14.5014   19.7196 O   0  0  0  0  0  0  0  0  0  0  0  0
  -25.0800  -26.8144   23.7500 O   0  0  0  0  0  0  0  0  0  0  0  0
  -25.4692  -28.9536   27.2662 O   0  0  0  0  0  0  0  0  0  0  0  0
  -29.4813  -26.6149   28.2428 O   0  0  0  0  0  0  0  0  0  0  0  0
  -31.6964  -15.0270   19.9122 O   0  0  0  0  0  0  0  0  0  0  0  0
  -21.4384   -8.1931   24.1710 O   0  0  0  0  0  0  0  0  0  0  0  0
  -27.6906  -21.2953   24.3897 O   0  0  0  0  0  0  0  0  0  1  0  0
  -22.3764   -2.8129   23.4113 F   0  0  0  0  0  0  0  0  0  0  0  0
  -19.4261   -6.5126   23.2939 F   0  0  0  0  0  0  0  0  0  0  0  0
  1  2  1  0  0  0  0
  1  5  2  0  0  0  0
  2  6  2  0  0  0  0
  3  8  2  0  0  0  0
  3 17  1  0  0  0  0
  4  9  1  0  0  0  0
  4 17  2  0  0  0  0
  5 19  1  0  0  0  0
  6 21  1  0  0  0  0
  7 10  2  0  0  0  0
  7 20  1  0  0  0  0
  8 24  1  0  0  0  0
  9 24  2  0  0  0  0
 10 25  1  0  0  0  0
 11 12  2  0  0  0  0
 11 26  1  0  0  0  0
 12 27  1  0  0  0  0
 13 16  2  0  0  0  0
 13 23  1  0  0  0  0
 14 22  1  0  0  0  0
 14 25  2  0  0  0  0
 15 27  2  0  0  0  0
 15 28  1  0  0  0  0
 16 65  1  0  0  0  0
 17 29  1  0  0  0  0
 18 29  1  0  0  0  0
 18 31  2  0  0  0  0
 18 34  1  0  0  0  0
 19 21  2  0  0  0  0
 19 39  1  0  0  0  0
 20 22  2  0  0  0  0
 20 40  1  0  0  0  0
 21 50  1  0  0  0  0
 22 41  1  0  0  0  0
 23 30  2  0  0  0  0
 23 58  1  0  0  0  0
 24 80  1  0  0  0  0
 25 81  1  0  0  0  0
 26 28  2  0  0  0  0
 26 80  1  0  0  0  0
 27 82  1  0  0  0  0
 28 83  1  0  0  0  0
 29 64  2  0  0  0  0
 30 33  1  0  0  0  0
 30 65  1  0  0  0  0
 31 66  1  0  0  0  0
 31 69  1  0  0  0  0
 32 33  2  0  0  0  0
 32 42  1  0  0  0  0
 33 43  1  0  0  0  0
 34 70  1  0  0  0  0
 34 75  2  0  0  0  0
 35 51  1  0  0  0  0
 35 71  1  0  0  0  0
 35 76  2  0  0  0  0
 36 61  1  0  0  0  0
 36 67  1  0  0  0  0
 36 77  2  0  0  0  0
 37 62  1  0  0  0  0
 37 72  1  0  0  0  0
 37 78  2  0  0  0  0
 38 68  1  0  0  0  0
 38 73  1  0  0  0  0
 38 79  2  0  0  0  0
 39 44  1  0  0  0  0
 40 51  1  0  0  0  0
 41 67  1  0  0  0  0
 42 43  1  0  0  0  0
 44 46  1  0  0  0  0
 45 47  1  0  0  0  0
 45 48  1  0  0  0  0
 46 50  1  0  0  0  0
 47 52  1  0  0  0  0
 48 68  1  0  0  0  0
 49 52  1  0  0  0  0
 49 68  1  0  0  0  0
 50 71  1  0  0  0  0
 51 67  1  0  0  0  0
 52 66  1  0  0  0  0
 53 62  1  0  0  0  0
 54 63  1  0  0  0  0
 55 63  1  0  0  0  0
 56 63  1  0  0  0  0
 57 74  1  0  0  0  0
 58 59  1  0  0  0  0
 59 73  1  0  0  0  0
 60 65  1  0  0  0  0
 60 81  1  0  0  0  0
 61 63  1  0  0  0  0
 61 72  1  0  0  0  0
 62 74  1  0  0  0  0
 64 66  1  0  0  0  0
M  CHG  1  74   1
M  ISO  4  38 100  60 101  73 100  81 101
M  END
> <Batch ID>
0134

> <Smiles>
CNC(C)C(=O)NC(C(=O)N1Cc2cc([101O:1][101CH2:1]n3ccc(CC[100NH:0][100C:0](=O)N4CCCC(n5nc(-c6ccc(Oc7ccc(F)cc7F)cc6)c(C(N)=O)c5N)C4)c3C3=CCC3)ccc2CC1C(=O)NC1CCCc2ccccc21)C(C)(C)C

> <Shape>
0.249

> <Color>
0.125

> <Negative vol penalty>
0.000

$$$$

  -OEChem-04052320573D

 82 90  0     1  0  0  0  0  0999 V2000
  -33.2716  -28.7196   16.4881 C   0  0  0  0  0  0  0  0  0  0  0  0
  -32.2737  -27.7618   16.6370 C   0  0  0  0  0  0  0  0  0  0  0  0
  -27.8651  -17.2338   21.8231 C   0  0  0  0  0  0  0  0  0  0  0  0
  -25.8173  -17.5751   20.5874 C   0  0  0  0  0  0  0  0  0  0  0  0
  -33.5282  -29.6233   17.5183 C   0  0  0  0  0  0  0  0  0  0  0  0
  -31.5324  -27.7065   17.8167 C   0  0  0  0  0  0  0  0  0  0  0  0
  -25.6215  -26.2079   18.3838 C   0  0  0  0  0  0  0  0  0  0  0  0
  -27.8193  -15.8724   21.5231 C   0  0  0  0  0  0  0  0  0  0  0  0
  -25.7715  -16.2137   20.2872 C   0  0  0  0  0  0  0  0  0  0  0  0
  -24.9851  -25.0198   18.7403 C   0  0  0  0  0  0  0  0  0  0  0  0
  -28.5453  -13.8757   18.8927 C   0  0  0  0  0  0  0  0  0  0  0  0
  -29.7262  -13.2647   18.4713 C   0  0  0  0  0  0  0  0  0  0  0  0
  -24.8182  -25.7992   21.0171 C   0  0  0  0  0  0  0  0  0  0  0  0
  -29.6177  -11.7559   20.3551 C   0  0  0  0  0  0  0  0  0  0  0  0
  -26.8641  -18.0852   21.3554 C   0  0  0  0  0  0  0  0  0  0  0  0
  -27.5324  -20.5074   20.9152 C   0  0  0  0  0  0  0  0  0  0  0  0
  -32.7831  -29.5853   18.7075 C   0  0  0  0  0  0  0  0  0  0  0  0
  -25.8712  -27.1978   19.3452 C   0  0  0  0  0  0  0  0  0  0  0  0
  -31.7801  -28.6097   18.8644 C   0  0  0  0  0  0  0  0  0  0  0  0
  -25.4557  -27.0001   20.6697 C   0  0  0  0  0  0  0  0  0  0  0  0
  -26.7726  -15.3623   20.7551 C   0  0  0  0  0  0  0  0  0  0  0  0
  -24.5859  -24.8140   20.0576 C   0  0  0  0  0  0  0  0  0  0  0  0
  -27.9005  -13.4268   20.0453 C   0  0  0  0  0  0  0  0  0  0  0  0
  -30.2625  -12.2048   19.2025 C   0  0  0  0  0  0  0  0  0  0  0  0
  -28.4367  -12.3669   20.7765 C   0  0  0  0  0  0  0  0  0  0  0  0
  -26.9105  -19.4915   21.6655 C   0  0  0  0  0  0  0  0  0  0  0  0
  -27.2926  -21.6566   21.6282 C   0  0  0  0  0  0  0  0  0  0  0  0
  -28.2615  -20.4202   19.6837 C   0  0  0  0  0  0  0  0  0  0  0  0
  -28.4849  -28.5603   20.5352 C   0  0  0  0  0  0  0  0  0  0  0  0
  -26.3337  -30.4569   22.0511 C   0  0  0  0  0  0  0  0  0  0  0  0
  -23.1640  -30.8582   23.2506 C   0  0  0  0  0  0  0  0  0  0  0  0
  -23.0217  -23.2234   25.5212 C   0  0  0  0  0  0  0  0  0  0  0  0
  -33.1287  -30.5526   19.8118 C   0  0  0  0  0  0  0  0  0  0  0  0
  -26.5348  -28.4851   18.9391 C   0  0  0  0  0  0  0  0  0  0  0  0
  -25.6822  -28.0400   21.7355 C   0  0  0  0  0  0  0  0  0  0  0  0
  -32.0460  -30.6674   20.8818 C   0  0  0  0  0  0  0  0  0  0  0  0
  -26.5361  -23.2047   26.0916 C   0  0  0  0  0  0  0  0  0  0  0  0
  -17.7733  -20.7737   22.7832 C   0  0  0  0  0  0  0  0  0  0  0  0
  -31.5623  -29.2833   21.3025 C   0  0  0  0  0  0  0  0  0  0  0  0
  -27.0867  -22.3426   24.9542 C   0  0  0  0  0  0  0  0  0  0  0  0
  -18.7205  -20.1810   21.7602 C   0  0  0  0  0  0  0  0  0  0  0  0
  -25.1898  -22.6860   26.5921 C   0  0  0  0  0  0  0  0  0  0  0  0
  -24.7167  -21.6474   24.4078 C   0  0  0  0  0  0  0  0  0  0  0  0
  -18.7015  -21.4178   23.7951 C   0  0  0  0  0  0  0  0  0  0  0  0
  -30.9378  -28.5339   20.1193 C   0  0  1  0  0  0  0  0  0  0  0  0
  -27.1992  -29.2089   20.1062 C   0  0  1  0  0  0  0  0  0  0  0  0
  -26.0464  -22.1638   23.8321 C   0  0  2  0  0  0  0  0  0  0  0  0
  -19.7524  -21.2853   21.5834 C   0  0  2  0  0  0  0  0  0  0  0  0
  -21.7142  -32.5007   24.4744 C   0  0  0  0  0  0  0  0  0  0  0  0
  -27.7307  -29.7376   24.6667 C   0  0  0  0  0  0  0  0  0  0  0  0
  -25.7255  -30.5989   25.8936 C   0  0  0  0  0  0  0  0  0  0  0  0
  -27.0682  -32.1407   24.4644 C   0  0  0  0  0  0  0  0  0  0  0  0
  -21.2744  -31.0575   20.9815 C   0  0  0  0  0  0  0  0  0  0  0  0
  -21.0847  -20.7929   21.0487 C   0  0  0  0  0  0  0  0  0  0  0  0
  -20.8989  -23.6764   24.3180 C   0  0  0  0  0  0  0  0  0  0  0  0
  -20.1818  -23.3158   23.0304 C   0  0  0  0  0  0  0  0  0  0  0  0
  -23.7546  -22.6927   19.3758 C   0  0  0  0  0  0  0  0  0  1  0  0
  -23.0499  -21.4843   19.9612 C   0  0  0  0  0  0  0  0  0  0  0  0
  -25.5991  -30.3990   23.3687 C   0  0  1  0  0  0  0  0  0  0  0  0
  -22.1722  -31.9992   23.1137 C   0  0  2  0  0  0  0  0  0  0  0  0
  -26.5282  -30.6985   24.5789 C   0  0  0  0  0  0  0  0  0  0  0  0
  -26.3202  -19.9545   22.7706 N   0  0  0  0  0  0  0  0  0  0  0  0
  -26.5702  -21.2740   22.7199 N   0  0  0  0  0  0  0  0  0  0  0  0
  -26.3405  -29.2793   21.2902 N   0  0  0  0  0  0  0  0  0  0  0  0
  -24.2483  -22.5403   25.4793 N   0  0  0  0  0  0  0  0  0  0  0  0
  -27.6315  -22.9469   21.4216 N   0  0  0  0  0  0  0  0  0  0  0  0
  -28.4139  -19.1620   19.0852 N   0  0  0  0  0  0  0  0  0  0  0  0
  -29.5998  -29.0214   19.8617 N   0  0  0  0  0  0  0  0  0  0  0  0
  -24.4666  -31.3104   23.2450 N   0  0  0  0  0  0  0  0  0  0  0  0
  -22.1907  -23.0355   24.4235 N   0  0  0  0  0  0  0  0  0  0  0  0
  -19.9204  -21.8411   22.9916 N   0  3  1  0  0  0  0  0  0  0  0  0
  -20.9730  -31.5542   22.3488 N   0  3  0  0  0  0  0  0  0  0  0  0
  -28.7770  -21.4256   19.1390 O   0  0  0  0  0  0  0  0  0  0  0  0
  -28.4668  -27.7059   21.4135 O   0  0  0  0  0  0  0  0  0  0  0  0
  -26.8753  -31.5102   21.7064 O   0  0  0  0  0  0  0  0  0  0  0  0
  -22.8178  -29.6837   23.3561 O   0  0  0  0  0  0  0  0  0  0  0  0
  -22.6938  -23.9514   26.4643 O   0  0  0  0  0  0  0  0  0  0  0  0
  -26.7277  -14.0340   20.4619 O   0  0  0  0  0  0  0  0  0  0  0  0
  -23.9652  -23.6550   20.4084 O   0  0  0  0  0  0  0  0  0  1  0  0
  -21.7887  -21.8883   20.4805 O   0  0  0  0  0  0  0  0  0  0  0  0
  -31.3957  -11.6171   18.7969 F   0  0  0  0  0  0  0  0  0  0  0  0
  -27.8212  -11.9305   21.8840 F   0  0  0  0  0  0  0  0  0  0  0  0
  1  2  1  0  0  0  0
  1  5  2  0  0  0  0
  2  6  2  0  0  0  0
  3  8  2  0  0  0  0
  3 15  1  0  0  0  0
  4  9  1  0  0  0  0
  4 15  2  0  0  0  0
  5 17  1  0  0  0  0
  6 19  1  0  0  0  0
  7 10  2  0  0  0  0
  7 18  1  0  0  0  0
  8 21  1  0  0  0  0
  9 21  2  0  0  0  0
 10 22  1  0  0  0  0
 11 12  2  0  0  0  0
 11 23  1  0  0  0  0
 12 24  1  0  0  0  0
 13 20  1  0  0  0  0
 13 22  2  0  0  0  0
 14 24  2  0  0  0  0
 14 25  1  0  0  0  0
 15 26  1  0  0  0  0
 16 26  1  0  0  0  0
 16 27  2  0  0  0  0
 16 28  1  0  0  0  0
 17 19  2  0  0  0  0
 17 33  1  0  0  0  0
 18 20  2  0  0  0  0
 18 34  1  0  0  0  0
 19 45  1  0  0  0  0
 20 35  1  0  0  0  0
 21 78  1  0  0  0  0
 22 79  1  0  0  0  0
 23 25  2  0  0  0  0
 23 78  1  0  0  0  0
 24 81  1  0  0  0  0
 25 82  1  0  0  0  0
 26 62  2  0  0  0  0
 27 63  1  0  0  0  0
 27 66  1  0  0  0  0
 28 67  1  0  0  0  0
 28 73  2  0  0  0  0
 29 46  1  0  0  0  0
 29 68  1  0  0  0  0
 29 74  2  0  0  0  0
 30 59  1  0  0  0  0
 30 64  1  0  0  0  0
 30 75  2  0  0  0  0
 31 60  1  0  0  0  0
 31 69  1  0  0  0  0
 31 76  2  0  0  0  0
 32 65  1  0  0  0  0
 32 70  1  0  0  0  0
 32 77  2  0  0  0  0
 33 36  1  0  0  0  0
 34 46  1  0  0  0  0
 35 64  1  0  0  0  0
 36 39  1  0  0  0  0
 37 40  1  0  0  0  0
 37 42  1  0  0  0  0
 38 41  1  0  0  0  0
 38 44  1  0  0  0  0
 39 45  1  0  0  0  0
 40 47  1  0  0  0  0
 41 48  1  0  0  0  0
 42 65  1  0  0  0  0
 43 47  1  0  0  0  0
 43 65  1  0  0  0  0
 44 71  1  0  0  0  0
 45 68  1  0  0  0  0
 46 64  1  0  0  0  0
 47 63  1  0  0  0  0
 48 54  1  0  0  0  0
 48 71  1  0  0  0  0
 49 60  1  0  0  0  0
 50 61  1  0  0  0  0
 51 61  1  0  0  0  0
 52 61  1  0  0  0  0
 53 72  1  0  0  0  0
 54 80  1  0  0  0  0
 55 56  1  0  0  0  0
 55 70  1  0  0  0  0
 56 71  1  0  0  0  0
 57 58  1  0  0  0  0
 57 79  1  0  0  0  0
 58 80  1  0  0  0  0
 59 61  1  0  0  0  0
 59 69  1  0  0  0  0
 60 72  1  0  0  0  0
 62 63  1  0  0  0  0
M  CHG  2  71   1  72   1
M  ISO  4  32 100  57 101  70 100  79 101
M  END
> <Batch ID>
0134

> <Smiles>
CNC(C)C(=O)NC(C(=O)N1Cc2cc([101O:1][101CH2:1]COCC3CCCN3CC[100NH:0][100C:0](=O)N3CCCC(n4nc(-c5ccc(Oc6ccc(F)cc6F)cc5)c(C(N)=O)c4N)C3)ccc2CC1C(=O)NC1CCCc2ccccc21)C(C)(C)C

> <Shape>
0.197

> <Color>
0.058

> <Negative vol penalty>
0.000

$$$$

  -OEChem-04052320573D

 81 89  0     1  0  0  0  0  0999 V2000
  -20.4992  -34.3856   22.6950 C   0  0  0  0  0  0  0  0  0  0  0  0
  -21.7411  -33.8755   22.3305 C   0  0  0  0  0  0  0  0  0  0  0  0
  -24.4852  -17.9270   21.1217 C   0  0  0  0  0  0  0  0  0  0  0  0
  -25.1509  -16.7780   19.1034 C   0  0  0  0  0  0  0  0  0  0  0  0
  -19.5891  -33.5797   23.3778 C   0  0  0  0  0  0  0  0  0  0  0  0
  -22.0741  -32.5596   22.6495 C   0  0  0  0  0  0  0  0  0  0  0  0
  -25.4939  -28.7179   19.3251 C   0  0  0  0  0  0  0  0  0  0  0  0
  -32.2000  -25.9500   17.0259 C   0  0  0  0  0  0  0  0  0  0  0  0
  -31.2786  -24.1093   18.2907 C   0  0  0  0  0  0  0  0  0  0  0  0
  -31.8637  -26.8270   18.0570 C   0  0  0  0  0  0  0  0  0  0  0  0
  -30.9422  -24.9864   19.3219 C   0  0  0  0  0  0  0  0  0  0  0  0
  -23.5281  -16.9423   21.3667 C   0  0  0  0  0  0  0  0  0  0  0  0
  -24.1938  -15.7932   19.3483 C   0  0  0  0  0  0  0  0  0  0  0  0
  -26.8360  -28.3487   19.4044 C   0  0  0  0  0  0  0  0  0  0  0  0
  -23.4520  -13.7939   22.5975 C   0  0  0  0  0  0  0  0  0  0  0  0
  -23.3561  -13.2918   23.8953 C   0  0  0  0  0  0  0  0  0  0  0  0
  -26.2183  -26.4008   20.6863 C   0  0  0  0  0  0  0  0  0  0  0  0
  -21.0603  -14.0354   24.0132 C   0  0  0  0  0  0  0  0  0  0  0  0
  -25.2965  -17.8449   19.9901 C   0  0  0  0  0  0  0  0  0  0  0  0
  -27.6239  -18.8737   20.1710 C   0  0  0  0  0  0  0  0  0  0  0  0
  -19.9073  -32.2502   23.6969 C   0  0  0  0  0  0  0  0  0  0  0  0
  -24.5033  -27.9357   19.9362 C   0  0  0  0  0  0  0  0  0  0  0  0
  -21.1679  -31.7356   23.3384 C   0  0  0  0  0  0  0  0  0  0  0  0
  -24.8641  -26.7608   20.6111 C   0  0  0  0  0  0  0  0  0  0  0  0
  -31.9074  -24.5912   17.1427 C   0  0  0  0  0  0  0  0  0  0  0  0
  -31.2348  -26.3452   19.2051 C   0  0  0  0  0  0  0  0  0  0  0  0
  -23.3825  -15.8754   20.4800 C   0  0  0  0  0  0  0  0  0  0  0  0
  -27.1987  -27.1916   20.0875 C   0  0  0  0  0  0  0  0  0  0  0  0
  -22.3522  -14.4169   22.0076 C   0  0  0  0  0  0  0  0  0  0  0  0
  -22.1602  -13.4124   24.6031 C   0  0  0  0  0  0  0  0  0  0  0  0
  -21.1564  -14.5376   22.7154 C   0  0  0  0  0  0  0  0  0  0  0  0
  -26.2850  -18.8620   19.7362 C   0  0  0  0  0  0  0  0  0  0  0  0
  -28.1368  -20.0459   19.6718 C   0  0  0  0  0  0  0  0  0  0  0  0
  -28.3399  -17.9109   20.9558 C   0  0  0  0  0  0  0  0  0  0  0  0
  -22.3701  -28.4179   22.2428 C   0  0  0  0  0  0  0  0  0  0  0  0
  -21.3511  -25.4606   21.3835 C   0  0  0  0  0  0  0  0  0  0  0  0
  -22.0744  -22.4511   19.9460 C   0  0  0  0  0  0  0  0  0  0  0  0
  -28.7430  -23.7084   15.5047 C   0  0  0  0  0  0  0  0  0  0  0  0
  -18.9093  -31.4322   24.4776 C   0  0  0  0  0  0  0  0  0  0  0  0
  -23.0575  -28.3334   19.8187 C   0  0  0  0  0  0  0  0  0  0  0  0
  -23.8369  -25.8758   21.2669 C   0  0  0  0  0  0  0  0  0  0  0  0
  -19.1945  -29.9329   24.4479 C   0  0  0  0  0  0  0  0  0  0  0  0
  -25.8258  -24.0003   17.5249 C   0  0  0  0  0  0  0  0  0  0  0  0
  -20.6712  -29.6649   24.7209 C   0  0  0  0  0  0  0  0  0  0  0  0
  -25.7925  -22.6884   18.3110 C   0  0  0  0  0  0  0  0  0  0  0  0
  -26.3405  -23.7928   16.1022 C   0  0  0  0  0  0  0  0  0  0  0  0
  -27.6109  -21.7978   16.7948 C   0  0  0  0  0  0  0  0  0  0  0  0
  -21.5562  -30.3054   23.6448 C   0  0  1  0  0  0  0  0  0  0  0  0
  -22.1825  -27.7366   20.9168 C   0  0  1  0  0  0  0  0  0  0  0  0
  -27.1516  -21.9655   18.2533 C   0  0  2  0  0  0  0  0  0  0  0  0
  -21.6694  -20.1470   19.0380 C   0  0  0  0  0  0  0  0  0  0  0  0
  -21.6245  -24.6519   24.3129 C   0  0  0  0  0  0  0  0  0  0  0  0
  -21.5228  -22.2574   23.5891 C   0  0  0  0  0  0  0  0  0  0  0  0
  -19.5817  -23.7678   23.1729 C   0  0  0  0  0  0  0  0  0  0  0  0
  -21.3901  -23.5019   17.2652 C   0  0  0  0  0  0  0  0  0  0  0  0
  -32.2667  -23.6528   16.0407 C   0  0  0  0  0  0  0  0  0  0  0  0
  -30.8727  -27.2946   20.3212 C   0  0  0  0  0  0  0  0  0  0  0  0
  -31.1609  -23.4850   14.9917 C   0  0  0  0  0  0  0  0  0  0  0  0
  -29.4743  -27.8793   20.1544 C   0  0  0  0  0  0  0  0  0  1  0  0
  -21.6878  -24.0500   21.8030 C   0  0  1  0  0  0  0  0  0  0  0  0
  -21.3320  -21.6245   18.9117 C   0  0  2  0  0  0  0  0  0  0  0  0
  -21.1240  -23.6993   23.2089 C   0  0  0  0  0  0  0  0  0  0  0  0
  -25.9672  -19.9413   19.0164 N   0  0  0  0  0  0  0  0  0  0  0  0
  -27.1137  -20.6422   18.9951 N   0  0  0  0  0  0  0  0  0  0  0  0
  -22.4370  -26.3104   21.1297 N   0  0  0  0  0  0  0  0  0  0  0  0
  -27.6332  -23.1039   16.1178 N   0  0  0  0  0  0  0  0  0  0  0  0
  -29.3586  -20.6146   19.7502 N   0  0  0  0  0  0  0  0  0  0  0  0
  -27.6616  -16.7626   21.3866 N   0  0  0  0  0  0  0  0  0  0  0  0
  -21.5423  -29.5070   22.4379 N   0  0  0  0  0  0  0  0  0  0  0  0
  -21.2092  -23.1809   20.7334 N   0  0  0  0  0  0  0  0  0  0  0  0
  -29.9313  -22.9912   15.5705 N   0  0  0  0  0  0  0  0  0  0  0  0
  -21.6904  -22.0724   17.5362 N   0  3  0  0  0  0  0  0  0  0  0  0
  -29.5410  -18.0722   21.2796 O   0  0  0  0  0  0  0  0  0  0  0  0
  -23.2031  -27.9864   23.0313 O   0  0  0  0  0  0  0  0  0  0  0  0
  -20.1682  -25.7941   21.2779 O   0  0  0  0  0  0  0  0  0  0  0  0
  -23.2992  -22.4468   20.0479 O   0  0  0  0  0  0  0  0  0  0  0  0
  -28.6809  -24.8084   14.9452 O   0  0  0  0  0  0  0  0  0  0  0  0
  -22.4488  -14.9142   20.7188 O   0  0  0  0  0  0  0  0  0  0  0  0
  -28.5080  -26.8293   20.1670 O   0  0  0  0  0  0  0  0  0  1  0  0
  -22.0677  -12.9288   25.8488 F   0  0  0  0  0  0  0  0  0  0  0  0
  -20.0960  -15.1340   22.1535 F   0  0  0  0  0  0  0  0  0  0  0  0
  1  2  1  0  0  0  0
  1  5  2  0  0  0  0
  2  6  2  0  0  0  0
  3 12  2  0  0  0  0
  3 19  1  0  0  0  0
  4 13  1  0  0  0  0
  4 19  2  0  0  0  0
  5 21  1  0  0  0  0
  6 23  1  0  0  0  0
  7 14  2  0  0  0  0
  7 22  1  0  0  0  0
  8 10  2  0  0  0  0
  8 25  1  0  0  0  0
  9 11  1  0  0  0  0
  9 25  2  0  0  0  0
 10 26  1  0  0  0  0
 11 26  2  0  0  0  0
 12 27  1  0  0  0  0
 13 27  2  0  0  0  0
 14 28  1  0  0  0  0
 15 16  2  0  0  0  0
 15 29  1  0  0  0  0
 16 30  1  0  0  0  0
 17 24  1  0  0  0  0
 17 28  2  0  0  0  0
 18 30  2  0  0  0  0
 18 31  1  0  0  0  0
 19 32  1  0  0  0  0
 20 32  1  0  0  0  0
 20 33  2  0  0  0  0
 20 34  1  0  0  0  0
 21 23  2  0  0  0  0
 21 39  1  0  0  0  0
 22 24  2  0  0  0  0
 22 40  1  0  0  0  0
 23 48  1  0  0  0  0
 24 41  1  0  0  0  0
 25 56  1  0  0  0  0
 26 57  1  0  0  0  0
 27 78  1  0  0  0  0
 28 79  1  0  0  0  0
 29 31  2  0  0  0  0
 29 78  1  0  0  0  0
 30 80  1  0  0  0  0
 31 81  1  0  0  0  0
 32 63  2  0  0  0  0
 33 64  1  0  0  0  0
 33 67  1  0  0  0  0
 34 68  1  0  0  0  0
 34 73  2  0  0  0  0
 35 49  1  0  0  0  0
 35 69  1  0  0  0  0
 35 74  2  0  0  0  0
 36 60  1  0  0  0  0
 36 65  1  0  0  0  0
 36 75  2  0  0  0  0
 37 61  1  0  0  0  0
 37 70  1  0  0  0  0
 37 76  2  0  0  0  0
 38 66  1  0  0  0  0
 38 71  1  0  0  0  0
 38 77  2  0  0  0  0
 39 42  1  0  0  0  0
 40 49  1  0  0  0  0
 41 65  1  0  0  0  0
 42 44  1  0  0  0  0
 43 45  1  0  0  0  0
 43 46  1  0  0  0  0
 44 48  1  0  0  0  0
 45 50  1  0  0  0  0
 46 66  1  0  0  0  0
 47 50  1  0  0  0  0
 47 66  1  0  0  0  0
 48 69  1  0  0  0  0
 49 65  1  0  0  0  0
 50 64  1  0  0  0  0
 51 61  1  0  0  0  0
 52 62  1  0  0  0  0
 53 62  1  0  0  0  0
 54 62  1  0  0  0  0
 55 72  1  0  0  0  0
 56 58  1  0  0  0  0
 57 59  1  0  0  0  0
 58 71  1  0  0  0  0
 59 79  1  0  0  0  0
 60 62  1  0  0  0  0
 60 70  1  0  0  0  0
 61 72  1  0  0  0  0
 63 64  1  0  0  0  0
M  CHG  1  72   1
M  ISO  4  38 100  59 101  71 100  79 101
M  END
> <Batch ID>
0134

> <Smiles>
CNC(C)C(=O)NC(C(=O)N1Cc2cc([101O:1][101CH2:1]Cc3ccc(CC[100NH:0][100C:0](=O)N4CCCC(n5nc(-c6ccc(Oc7ccc(F)cc7F)cc6)c(C(N)=O)c5N)C4)cc3)ccc2CC1C(=O)NC1CCCc2ccccc21)C(C)(C)C

> <Shape>
0.162

> <Color>
0.098

> <Negative vol penalty>
0.000

$$$$

  -OEChem-04052320573D

 89 98  0     1  0  0  0  0  0999 V2000
  -32.5493  -24.5075   18.4048 C   0  0  0  0  0  0  0  0  0  0  0  0
  -31.5445  -23.8572   19.1138 C   0  0  0  0  0  0  0  0  0  0  0  0
  -23.5111   -9.8284   20.3852 C   0  0  0  0  0  0  0  0  0  0  0  0
  -24.3757  -10.2587   22.5998 C   0  0  0  0  0  0  0  0  0  0  0  0
  -32.9654  -25.7795   18.7956 C   0  0  0  0  0  0  0  0  0  0  0  0
  -30.9559  -24.4781   20.2150 C   0  0  0  0  0  0  0  0  0  0  0  0
  -25.1136  -24.0433   21.9994 C   0  0  0  0  0  0  0  0  0  0  0  0
  -22.9086   -8.6585   20.8477 C   0  0  0  0  0  0  0  0  0  0  0  0
  -23.7730   -9.0888   23.0623 C   0  0  0  0  0  0  0  0  0  0  0  0
  -24.4851  -23.2663   22.9715 C   0  0  0  0  0  0  0  0  0  0  0  0
  -20.6823   -8.0756   23.9795 C   0  0  0  0  0  0  0  0  0  0  0  0
  -19.9914   -8.1390   25.1895 C   0  0  0  0  0  0  0  0  0  0  0  0
  -25.9311  -16.9553   25.3433 C   0  0  0  0  0  0  0  0  0  0  0  0
  -24.6337  -25.1037   24.5275 C   0  0  0  0  0  0  0  0  0  0  0  0
  -26.6703  -18.2906   27.6785 C   0  0  0  0  0  0  0  0  0  0  0  0
  -21.4681   -6.4685   26.1201 C   0  0  0  0  0  0  0  0  0  0  0  0
  -24.2448  -10.6285   21.2612 C   0  0  0  0  0  0  0  0  0  0  0  0
  -24.3068  -13.1274   20.7524 C   0  0  0  0  0  0  0  0  0  0  0  0
  -32.3749  -26.4203   19.8962 C   0  0  0  0  0  0  0  0  0  0  0  0
  -25.5173  -25.3548   22.2879 C   0  0  0  0  0  0  0  0  0  0  0  0
  -31.3654  -25.7593   20.6217 C   0  0  0  0  0  0  0  0  0  0  0  0
  -27.1216  -16.6229   25.9896 C   0  0  0  0  0  0  0  0  0  0  0  0
  -25.2648  -25.8961   23.5564 C   0  0  0  0  0  0  0  0  0  0  0  0
  -25.1102  -17.9555   25.8645 C   0  0  0  0  0  0  0  0  0  0  0  0
  -27.4912  -17.2905   27.1573 C   0  0  0  0  0  0  0  0  0  0  0  0
  -25.4798  -18.6230   27.0321 C   0  0  0  0  0  0  0  0  0  0  0  0
  -23.0395   -8.2888   22.1862 C   0  0  0  0  0  0  0  0  0  0  0  0
  -24.2477  -23.7955   24.2367 C   0  0  0  0  0  0  0  0  0  0  0  0
  -21.7660   -7.2086   23.8397 C   0  0  0  0  0  0  0  0  0  0  0  0
  -20.3843   -7.3355   26.2599 C   0  0  0  0  0  0  0  0  0  0  0  0
  -22.1590   -6.4051   24.9100 C   0  0  0  0  0  0  0  0  0  0  0  0
  -24.8679  -11.8367   20.7839 C   0  0  0  0  0  0  0  0  0  0  0  0
  -25.2932  -13.9176   20.2147 C   0  0  0  0  0  0  0  0  0  0  0  0
  -23.0099  -13.5723   21.1717 C   0  0  0  0  0  0  0  0  0  0  0  0
  -28.3067  -26.8769   22.3677 C   0  0  0  0  0  0  0  0  0  0  0  0
  -26.4322  -29.4746   22.8780 C   0  0  0  0  0  0  0  0  0  0  0  0
  -23.4548  -30.7276   23.9788 C   0  0  0  0  0  0  0  0  0  0  0  0
  -28.8148  -12.4788   22.4629 C   0  0  0  0  0  0  0  0  0  0  0  0
  -32.8908  -27.7759   20.3097 C   0  0  0  0  0  0  0  0  0  0  0  0
  -26.1701  -26.1890   21.2199 C   0  0  0  0  0  0  0  0  0  0  0  0
  -25.6604  -27.3057   23.9103 C   0  0  0  0  0  0  0  0  0  0  0  0
  -31.9560  -28.5194   21.2603 C   0  0  0  0  0  0  0  0  0  0  0  0
  -29.1824  -11.3356   19.3124 C   0  0  0  0  0  0  0  0  0  0  0  0
  -31.4800  -27.5926   22.3744 C   0  0  0  0  0  0  0  0  0  0  0  0
  -28.4079  -12.3860   18.5058 C   0  0  0  0  0  0  0  0  0  0  0  0
  -27.2809  -14.1720   25.3807 C   0  0  0  0  0  0  0  0  0  0  0  0
  -28.5047  -15.8976   23.9973 C   0  0  0  0  0  0  0  0  0  0  0  0
  -30.0555  -11.9733   20.3852 C   0  0  0  0  0  0  0  0  0  0  0  0
  -28.1469  -13.0858   24.7524 C   0  0  0  0  0  0  0  0  0  0  0  0
  -28.6685  -13.9980   20.4435 C   0  0  0  0  0  0  0  0  0  0  0  0
  -27.9985  -15.5303   25.4037 C   0  0  1  0  0  0  0  0  0  0  0  0
  -30.6855  -26.4103   21.8067 C   0  0  1  0  0  0  0  0  0  0  0  0
  -27.0013  -27.3374   21.7834 C   0  0  1  0  0  0  0  0  0  0  0  0
  -27.6975  -13.4586   19.3660 C   0  0  2  0  0  0  0  0  0  0  0  0
  -29.3462  -14.7829   23.3580 C   0  0  1  0  0  0  0  0  0  0  0  0
  -23.8408  -18.2948   25.1547 C   0  0  0  0  0  0  0  0  0  0  0  0
  -28.7608  -16.9512   27.8669 C   0  0  0  0  0  0  0  0  0  0  0  0
  -30.7451  -14.6833   23.9808 C   0  0  0  0  0  0  0  0  0  0  0  0
  -22.2298  -32.8929   24.3078 C   0  0  0  0  0  0  0  0  0  0  0  0
  -28.1204  -30.0508   25.3535 C   0  0  0  0  0  0  0  0  0  0  0  0
  -26.3174  -31.6012   26.1367 C   0  0  0  0  0  0  0  0  0  0  0  0
  -27.5239  -32.0703   24.0044 C   0  0  0  0  0  0  0  0  0  0  0  0
  -21.3033  -29.9282   22.1105 C   0  0  0  0  0  0  0  0  0  0  0  0
  -24.6175  -19.6977   27.6083 C   0  0  0  0  0  0  0  0  0  0  0  0
  -23.7938  -22.0442   27.3752 C   0  0  0  0  0  0  0  0  0  0  0  0
  -23.9766  -23.3007   26.5470 C   0  0  0  0  0  0  0  0  0  1  0  0
  -25.8675  -30.1625   24.0974 C   0  0  1  0  0  0  0  0  0  0  0  0
  -22.4949  -31.7302   23.3641 C   0  0  2  0  0  0  0  0  0  0  0  0
  -26.9515  -30.9440   24.8923 C   0  0  0  0  0  0  0  0  0  0  0  0
  -26.1141  -11.8044   20.3043 N   0  0  0  0  0  0  0  0  0  0  0  0
  -26.3441  -13.0846   19.9662 N   0  0  0  0  0  0  0  0  0  0  0  0
  -26.3013  -28.0793   22.8341 N   0  0  0  0  0  0  0  0  0  0  0  0
  -29.2709  -12.8939   21.2017 N   0  0  0  0  0  0  0  0  0  0  0  0
  -28.6436  -13.4812   23.4334 N   0  0  0  0  0  0  0  0  0  0  0  0
  -25.3554  -15.2368   19.9349 N   0  0  0  0  0  0  0  0  0  0  0  0
  -22.1191  -12.6291   21.7019 N   0  0  0  0  0  0  0  0  0  0  0  0
  -29.3439  -26.8247   21.4561 N   0  0  0  0  0  0  0  0  0  0  0  0
  -24.7617  -30.9884   23.6247 N   0  0  0  0  0  0  0  0  0  0  0  0
  -21.1941  -31.0753   23.0482 N   0  3  0  0  0  0  0  0  0  0  0  0
  -24.6878  -20.9778   26.8525 N   0  3  0  0  0  0  0  0  0  0  0  0
  -22.6457  -14.7678   21.0638 O   0  0  0  0  0  0  0  0  0  0  0  0
  -28.3688  -26.5915   23.5578 O   0  0  0  0  0  0  0  0  0  0  0  0
  -26.9634  -30.1510   21.9937 O   0  0  0  0  0  0  0  0  0  0  0  0
  -23.0830  -29.8076   24.7039 O   0  0  0  0  0  0  0  0  0  0  0  0
  -28.5566  -11.2932   22.7042 O   0  0  0  0  0  0  0  0  0  0  0  0
  -22.4514   -7.1474   22.6379 O   0  0  0  0  0  0  0  0  0  0  0  0
  -23.6306  -23.0337   25.1945 O   0  0  0  0  0  0  0  0  0  1  0  0
  -19.7218   -7.3976   27.4224 F   0  0  0  0  0  0  0  0  0  0  0  0
  -23.2001   -5.5711   24.7821 F   0  0  0  0  0  0  0  0  0  0  0  0
  1  2  1  0  0  0  0
  1  5  2  0  0  0  0
  2  6  2  0  0  0  0
  3  8  2  0  0  0  0
  3 17  1  0  0  0  0
  4  9  1  0  0  0  0
  4 17  2  0  0  0  0
  5 19  1  0  0  0  0
  6 21  1  0  0  0  0
  7 10  2  0  0  0  0
  7 20  1  0  0  0  0
  8 27  1  0  0  0  0
  9 27  2  0  0  0  0
 10 28  1  0  0  0  0
 11 12  2  0  0  0  0
 11 29  1  0  0  0  0
 12 30  1  0  0  0  0
 13 22  2  0  0  0  0
 13 24  1  0  0  0  0
 14 23  1  0  0  0  0
 14 28  2  0  0  0  0
 15 25  2  0  0  0  0
 15 26  1  0  0  0  0
 16 30  2  0  0  0  0
 16 31  1  0  0  0  0
 17 32  1  0  0  0  0
 18 32  1  0  0  0  0
 18 33  2  0  0  0  0
 18 34  1  0  0  0  0
 19 21  2  0  0  0  0
 19 39  1  0  0  0  0
 20 23  2  0  0  0  0
 20 40  1  0  0  0  0
 21 52  1  0  0  0  0
 22 25  1  0  0  0  0
 22 51  1  0  0  0  0
 23 41  1  0  0  0  0
 24 26  2  0  0  0  0
 24 56  1  0  0  0  0
 25 57  1  0  0  0  0
 26 64  1  0  0  0  0
 27 86  1  0  0  0  0
 28 87  1  0  0  0  0
 29 31  2  0  0  0  0
 29 86  1  0  0  0  0
 30 88  1  0  0  0  0
 31 89  1  0  0  0  0
 32 70  2  0  0  0  0
 33 71  1  0  0  0  0
 33 75  1  0  0  0  0
 34 76  1  0  0  0  0
 34 81  2  0  0  0  0
 35 53  1  0  0  0  0
 35 77  1  0  0  0  0
 35 82  2  0  0  0  0
 36 67  1  0  0  0  0
 36 72  1  0  0  0  0
 36 83  2  0  0  0  0
 37 68  1  0  0  0  0
 37 78  1  0  0  0  0
 37 84  2  0  0  0  0
 38 73  1  0  0  0  0
 38 74  1  0  0  0  0
 38 85  2  0  0  0  0
 39 42  1  0  0  0  0
 40 53  1  0  0  0  0
 41 72  1  0  0  0  0
 42 44  1  0  0  0  0
 43 45  1  0  0  0  0
 43 48  1  0  0  0  0
 44 52  1  0  0  0  0
 45 54  1  0  0  0  0
 46 49  1  0  0  0  0
 46 51  1  0  0  0  0
 47 51  1  0  0  0  0
 47 55  1  0  0  0  0
 48 73  1  0  0  0  0
 49 74  1  0  0  0  0
 50 54  1  0  0  0  0
 50 73  1  0  0  0  0
 52 77  1  0  0  0  0
 53 72  1  0  0  0  0
 54 71  1  0  0  0  0
 55 58  1  0  0  0  0
 55 74  1  0  0  0  0
 59 68  1  0  0  0  0
 60 69  1  0  0  0  0
 61 69  1  0  0  0  0
 62 69  1  0  0  0  0
 63 79  1  0  0  0  0
 64 80  1  0  0  0  0
 65 66  1  0  0  0  0
 65 80  1  0  0  0  0
 66 87  1  0  0  0  0
 67 69  1  0  0  0  0
 67 78  1  0  0  0  0
 68 79  1  0  0  0  0
 70 71  1  0  0  0  0
M  CHG  2  79   1  80   1
M  ISO  4  38 100  66 101  74 100  87 101
M  END
> <Batch ID>
0134

> <Smiles>
CNC(C)C(=O)NC(C(=O)N1Cc2cc([101O:1][101CH2:1]CNCc3cc(C)c(C4CC[100N:0]([100C:0](=O)N5CCCC(n6nc(-c7ccc(Oc8ccc(F)cc8F)cc7)c(C(N)=O)c6N)C5)C(C)C4)cc3C)ccc2CC1C(=O)NC1CCCc2ccccc21)C(C)(C)C

> <Shape>
0.232

> <Color>
0.149

> <Negative vol penalty>
0.000

$$$$

  -OEChem-04052320573D

 88 97  0     1  0  0  0  0  0999 V2000
  -18.3560  -28.5428   23.0057 C   0  0  0  0  0  0  0  0  0  0  0  0
  -18.0080  -27.2056   23.1673 C   0  0  0  0  0  0  0  0  0  0  0  0
  -29.5595  -23.5567   19.0700 C   0  0  0  0  0  0  0  0  0  0  0  0
  -29.9245  -22.3116   17.0320 C   0  0  0  0  0  0  0  0  0  0  0  0
  -19.6176  -28.8795   22.5169 C   0  0  0  0  0  0  0  0  0  0  0  0
  -18.9212  -26.2041   22.8391 C   0  0  0  0  0  0  0  0  0  0  0  0
  -20.9424  -19.6238   24.8217 C   0  0  0  0  0  0  0  0  0  0  0  0
  -21.9674  -14.4187   21.2755 C   0  0  0  0  0  0  0  0  0  0  0  0
  -22.3612  -13.2026   20.7175 C   0  0  0  0  0  0  0  0  0  0  0  0
  -30.1730  -24.6716   18.4988 C   0  0  0  0  0  0  0  0  0  0  0  0
  -30.5380  -23.4264   16.4607 C   0  0  0  0  0  0  0  0  0  0  0  0
  -21.1590  -18.3559   24.2841 C   0  0  0  0  0  0  0  0  0  0  0  0
  -29.3514  -27.1248   16.3217 C   0  0  0  0  0  0  0  0  0  0  0  0
  -28.7303  -28.3626   16.4877 C   0  0  0  0  0  0  0  0  0  0  0  0
  -23.3380  -19.0574   23.5231 C   0  0  0  0  0  0  0  0  0  0  0  0
  -22.3203  -13.5174   23.4891 C   0  0  0  0  0  0  0  0  0  0  0  0
  -30.6970  -29.1981   17.6153 C   0  0  0  0  0  0  0  0  0  0  0  0
  -29.4353  -22.3767   18.3367 C   0  0  0  0  0  0  0  0  0  0  0  0
  -27.4350  -20.8915   18.8849 C   0  0  0  0  0  0  0  0  0  0  0  0
  -20.5501  -27.8819   22.1916 C   0  0  0  0  0  0  0  0  0  0  0  0
  -21.9192  -20.6231   24.7043 C   0  0  0  0  0  0  0  0  0  0  0  0
  -20.1960  -26.5277   22.3442 C   0  0  0  0  0  0  0  0  0  0  0  0
  -23.1323  -20.3365   24.0623 C   0  0  0  0  0  0  0  0  0  0  0  0
  -21.9470  -14.5762   22.6613 C   0  0  0  0  0  0  0  0  0  0  0  0
  -22.7345  -12.1437   21.5452 C   0  0  0  0  0  0  0  0  0  0  0  0
  -22.7141  -12.3011   22.9311 C   0  0  0  0  0  0  0  0  0  0  0  0
  -30.6622  -24.6065   17.1942 C   0  0  0  0  0  0  0  0  0  0  0  0
  -22.3557  -18.0733   23.6321 C   0  0  0  0  0  0  0  0  0  0  0  0
  -30.6452  -26.9235   16.8026 C   0  0  0  0  0  0  0  0  0  0  0  0
  -29.4031  -29.3993   17.1345 C   0  0  0  0  0  0  0  0  0  0  0  0
  -31.3180  -27.9602   17.4494 C   0  0  0  0  0  0  0  0  0  0  0  0
  -28.8022  -21.2246   18.9264 C   0  0  0  0  0  0  0  0  0  0  0  0
  -27.3469  -19.7144   19.5872 C   0  0  0  0  0  0  0  0  0  0  0  0
  -26.3424  -21.5840   18.2666 C   0  0  0  0  0  0  0  0  0  0  0  0
  -22.0470  -23.4839   23.3248 C   0  0  0  0  0  0  0  0  0  0  0  0
  -24.9385  -23.6288   24.7879 C   0  0  0  0  0  0  0  0  0  0  0  0
  -27.5886  -21.9565   26.1395 C   0  0  0  0  0  0  0  0  0  0  0  0
  -30.8088  -14.9496   20.2593 C   0  0  0  0  0  0  0  0  0  0  0  0
  -21.8846  -28.2935   21.6220 C   0  0  0  0  0  0  0  0  0  0  0  0
  -21.6810  -21.9777   25.3131 C   0  0  0  0  0  0  0  0  0  0  0  0
  -24.2212  -21.3682   23.9273 C   0  0  0  0  0  0  0  0  0  0  0  0
  -22.9289  -27.1804   21.6515 C   0  0  0  0  0  0  0  0  0  0  0  0
  -30.1441  -17.4200   22.9418 C   0  0  0  0  0  0  0  0  0  0  0  0
  -22.3318  -25.8744   21.1370 C   0  0  0  0  0  0  0  0  0  0  0  0
  -29.6774  -18.6436   22.1553 C   0  0  0  0  0  0  0  0  0  0  0  0
  -29.1957  -11.9905   19.4359 C   0  0  0  0  0  0  0  0  0  0  0  0
  -27.4974  -13.7780   19.9862 C   0  0  0  0  0  0  0  0  0  0  0  0
  -31.0868  -16.5451   22.1217 C   0  0  0  0  0  0  0  0  0  0  0  0
  -30.0828  -13.0691   18.8199 C   0  0  0  0  0  0  0  0  0  0  0  0
  -28.4333  -14.8286   19.3812 C   0  0  0  0  0  0  0  0  0  0  0  0
  -30.0582  -17.3489   20.0198 C   0  0  0  0  0  0  0  0  0  0  0  0
  -21.1679  -25.4133   22.0227 C   0  0  1  0  0  0  0  0  0  0  0  0
  -22.5362  -23.0738   24.6850 C   0  0  1  0  0  0  0  0  0  0  0  0
  -29.0717  -18.2274   20.8039 C   0  0  2  0  0  0  0  0  0  0  0  0
  -27.7283  -12.4065   19.3553 C   0  0  0  0  0  0  0  0  0  0  0  0
  -23.1092  -11.1814   23.8371 C   0  0  0  0  0  0  0  0  0  0  0  0
  -29.8187  -22.3457   27.2223 C   0  0  0  0  0  0  0  0  0  0  0  0
  -26.1449  -24.2824   22.0626 C   0  0  0  0  0  0  0  0  0  0  0  0
  -28.3969  -23.7240   23.0033 C   0  0  0  0  0  0  0  0  0  0  0  0
  -27.0795  -25.6123   23.9632 C   0  0  0  0  0  0  0  0  0  0  0  0
  -26.7360  -20.6260   28.6419 C   0  0  0  0  0  0  0  0  0  0  0  0
  -23.1553  -10.8383   20.9189 C   0  0  0  0  0  0  0  0  0  0  0  0
  -21.5255  -15.8764   23.2577 C   0  0  0  0  0  0  0  0  0  1  0  0
  -24.6757  -10.6403   20.8578 C   0  0  0  0  0  0  0  0  0  0  0  0
  -25.4472  -11.7217   20.1076 C   0  0  0  0  0  0  0  0  0  0  0  0
  -26.3469  -23.2348   24.4137 C   0  0  1  0  0  0  0  0  0  0  0  0
  -28.3300  -22.1365   27.4519 C   0  0  2  0  0  0  0  0  0  0  0  0
  -26.9710  -24.1943   23.3614 C   0  0  0  0  0  0  0  0  0  0  0  0
  -29.5302  -20.3314   19.6019 N   0  0  0  0  0  0  0  0  0  0  0  0
  -28.6171  -19.4255   19.9913 N   0  0  0  0  0  0  0  0  0  0  0  0
  -23.9384  -22.6797   24.5335 N   0  0  0  0  0  0  0  0  0  0  0  0
  -30.5092  -16.2015   20.8222 N   0  0  0  0  0  0  0  0  0  0  0  0
  -29.8308  -14.3742   19.4340 N   0  0  0  0  0  0  0  0  0  0  0  0
  -26.3076  -18.9088   19.8925 N   0  0  0  0  0  0  0  0  0  0  0  0
  -26.6090  -22.7793   17.5849 N   0  0  0  0  0  0  0  0  0  0  0  0
  -21.6672  -24.8098   23.2396 N   0  0  0  0  0  0  0  0  0  0  0  0
  -27.0937  -23.1525   25.6643 N   0  0  0  0  0  0  0  0  0  0  0  0
  -26.8986  -11.3992   20.0656 N   0  3  0  0  0  0  0  0  0  0  0  0
  -28.1520  -20.9357   28.3164 N   0  3  0  0  0  0  0  0  0  0  0  0
  -25.1621  -21.1642   18.3311 O   0  0  0  0  0  0  0  0  0  0  0  0
  -22.0178  -22.6588   22.4192 O   0  0  0  0  0  0  0  0  0  0  0  0
  -24.7342  -24.7351   25.2940 O   0  0  0  0  0  0  0  0  0  0  0  0
  -27.4644  -20.8647   25.5890 O   0  0  0  0  0  0  0  0  0  0  0  0
  -31.8846  -14.3807   20.4834 O   0  0  0  0  0  0  0  0  0  0  0  0
  -31.2607  -25.6942   16.6363 O   0  0  0  0  0  0  0  0  0  0  0  0
  -22.5709  -16.8282   23.1022 O   0  0  0  0  0  0  0  0  0  1  0  0
  -28.8072  -30.5884   17.2924 F   0  0  0  0  0  0  0  0  0  0  0  0
  -32.5616  -27.7732   17.9124 F   0  0  0  0  0  0  0  0  0  0  0  0
  1  2  1  0  0  0  0
  1  5  2  0  0  0  0
  2  6  2  0  0  0  0
  3 10  2  0  0  0  0
  3 18  1  0  0  0  0
  4 11  1  0  0  0  0
  4 18  2  0  0  0  0
  5 20  1  0  0  0  0
  6 22  1  0  0  0  0
  7 12  2  0  0  0  0
  7 21  1  0  0  0  0
  8  9  2  0  0  0  0
  8 24  1  0  0  0  0
  9 25  1  0  0  0  0
 10 27  1  0  0  0  0
 11 27  2  0  0  0  0
 12 28  1  0  0  0  0
 13 14  2  0  0  0  0
 13 29  1  0  0  0  0
 14 30  1  0  0  0  0
 15 23  1  0  0  0  0
 15 28  2  0  0  0  0
 16 24  2  0  0  0  0
 16 26  1  0  0  0  0
 17 30  2  0  0  0  0
 17 31  1  0  0  0  0
 18 32  1  0  0  0  0
 19 32  1  0  0  0  0
 19 33  2  0  0  0  0
 19 34  1  0  0  0  0
 20 22  2  0  0  0  0
 20 39  1  0  0  0  0
 21 23  2  0  0  0  0
 21 40  1  0  0  0  0
 22 52  1  0  0  0  0
 23 41  1  0  0  0  0
 24 63  1  0  0  0  0
 25 26  2  0  0  0  0
 25 62  1  0  0  0  0
 26 56  1  0  0  0  0
 27 85  1  0  0  0  0
 28 86  1  0  0  0  0
 29 31  2  0  0  0  0
 29 85  1  0  0  0  0
 30 87  1  0  0  0  0
 31 88  1  0  0  0  0
 32 69  2  0  0  0  0
 33 70  1  0  0  0  0
 33 74  1  0  0  0  0
 34 75  1  0  0  0  0
 34 80  2  0  0  0  0
 35 53  1  0  0  0  0
 35 76  1  0  0  0  0
 35 81  2  0  0  0  0
 36 66  1  0  0  0  0
 36 71  1  0  0  0  0
 36 82  2  0  0  0  0
 37 67  1  0  0  0  0
 37 77  1  0  0  0  0
 37 83  2  0  0  0  0
 38 72  1  0  0  0  0
 38 73  1  0  0  0  0
 38 84  2  0  0  0  0
 39 42  1  0  0  0  0
 40 53  1  0  0  0  0
 41 71  1  0  0  0  0
 42 44  1  0  0  0  0
 43 45  1  0  0  0  0
 43 48  1  0  0  0  0
 44 52  1  0  0  0  0
 45 54  1  0  0  0  0
 46 49  1  0  0  0  0
 46 55  1  0  0  0  0
 47 50  1  0  0  0  0
 47 55  1  0  0  0  0
 48 72  1  0  0  0  0
 49 73  1  0  0  0  0
 50 73  1  0  0  0  0
 51 54  1  0  0  0  0
 51 72  1  0  0  0  0
 52 76  1  0  0  0  0
 53 71  1  0  0  0  0
 54 70  1  0  0  0  0
 55 78  1  0  0  0  0
 57 67  1  0  0  0  0
 58 68  1  0  0  0  0
 59 68  1  0  0  0  0
 60 68  1  0  0  0  0
 61 79  1  0  0  0  0
 62 64  1  0  0  0  0
 63 86  1  0  0  0  0
 64 65  1  0  0  0  0
 65 78  1  0  0  0  0
 66 68  1  0  0  0  0
 66 77  1  0  0  0  0
 67 79  1  0  0  0  0
 69 70  1  0  0  0  0
M  CHG  2  78   1  79   1
M  ISO  4  38 100  63 101  73 100  86 101
M  END
> <Batch ID>
0134

> <Smiles>
CNC(C)C(=O)NC(C(=O)N1Cc2cc([101O:1][101CH2:1]c3ccc(CCCNC4CC[100N:0]([100C:0](=O)N5CCCC(n6nc(-c7ccc(Oc8ccc(F)cc8F)cc7)c(C(N)=O)c6N)C5)CC4)c(C)c3)ccc2CC1C(=O)NC1CCCc2ccccc21)C(C)(C)C

> <Shape>
0.216

> <Color>
0.060

> <Negative vol penalty>
0.000

$$$$
