
  -OEChem-04052321003D

 82 90  0     1  0  0  0  0  0999 V2000
  -30.1764  -31.5957   28.0344 C   0  0  0  0  0  0  0  0  0  0  0  0
  -30.8267  -30.6328   27.2694 C   0  0  0  0  0  0  0  0  0  0  0  0
  -23.1356   -9.8396   21.3827 C   0  0  0  0  0  0  0  0  0  0  0  0
  -24.0975  -10.6106   23.4606 C   0  0  0  0  0  0  0  0  0  0  0  0
  -28.7952  -31.7533   27.9276 C   0  0  0  0  0  0  0  0  0  0  0  0
  -30.0959  -29.8261   26.3978 C   0  0  0  0  0  0  0  0  0  0  0  0
  -30.6614  -26.4797   20.0892 C   0  0  0  0  0  0  0  0  0  0  0  0
  -22.4794   -8.8160   22.0663 C   0  0  0  0  0  0  0  0  0  0  0  0
  -23.4412   -9.5870   24.1442 C   0  0  0  0  0  0  0  0  0  0  0  0
  -30.4828  -25.2204   19.5181 C   0  0  0  0  0  0  0  0  0  0  0  0
  -23.2504   -5.7869   23.3526 C   0  0  0  0  0  0  0  0  0  0  0  0
  -23.2869   -4.5090   22.7949 C   0  0  0  0  0  0  0  0  0  0  0  0
  -28.1120  -25.6359   19.3580 C   0  0  0  0  0  0  0  0  0  0  0  0
  -20.8750   -4.5014   22.6545 C   0  0  0  0  0  0  0  0  0  0  0  0
  -23.9448  -10.7368   22.0799 C   0  0  0  0  0  0  0  0  0  0  0  0
  -24.1403  -13.0910   21.1169 C   0  0  0  0  0  0  0  0  0  0  0  0
  -28.0485  -30.9547   27.0471 C   0  0  0  0  0  0  0  0  0  0  0  0
  -29.5634  -27.3236   20.3093 C   0  0  0  0  0  0  0  0  0  0  0  0
  -28.7033  -29.9723   26.2800 C   0  0  0  0  0  0  0  0  0  0  0  0
  -28.2797  -26.9064   19.9296 C   0  0  0  0  0  0  0  0  0  0  0  0
  -22.6321   -8.6898   23.4470 C   0  0  0  0  0  0  0  0  0  0  0  0
  -29.2076  -24.7972   19.1551 C   0  0  0  0  0  0  0  0  0  0  0  0
  -22.0262   -6.4221   23.5613 C   0  0  0  0  0  0  0  0  0  0  0  0
  -22.0992   -3.8662   22.4459 C   0  0  0  0  0  0  0  0  0  0  0  0
  -20.8385   -5.7794   23.2123 C   0  0  0  0  0  0  0  0  0  0  0  0
  -24.6234  -11.7940   21.3743 C   0  0  0  0  0  0  0  0  0  0  0  0
  -25.1541  -13.7033   20.4214 C   0  0  0  0  0  0  0  0  0  0  0  0
  -22.8871  -13.6888   21.4746 C   0  0  0  0  0  0  0  0  0  0  0  0
  -28.2105  -28.6209   22.8765 C   0  0  0  0  0  0  0  0  0  0  0  0
  -26.3977  -30.1537   20.6659 C   0  0  0  0  0  0  0  0  0  0  0  0
  -25.1136  -30.2068   17.5044 C   0  0  0  0  0  0  0  0  0  0  0  0
  -30.7542  -14.6822   20.2214 C   0  0  0  0  0  0  0  0  0  0  0  0
  -26.5512  -31.1298   27.0008 C   0  0  0  0  0  0  0  0  0  0  0  0
  -29.7762  -28.6897   20.9017 C   0  0  0  0  0  0  0  0  0  0  0  0
  -27.0706  -27.7828   20.1262 C   0  0  0  0  0  0  0  0  0  0  0  0
  -25.9005  -30.4889   25.7776 C   0  0  0  0  0  0  0  0  0  0  0  0
  -29.3461  -11.8194   18.3340 C   0  0  0  0  0  0  0  0  0  0  0  0
  -26.4375  -29.0770   25.5655 C   0  0  0  0  0  0  0  0  0  0  0  0
  -27.9833  -11.6256   18.9964 C   0  0  0  0  0  0  0  0  0  0  0  0
  -31.4448  -17.9382   19.2428 C   0  0  0  0  0  0  0  0  0  0  0  0
  -29.2205  -17.2034   18.2969 C   0  0  0  0  0  0  0  0  0  0  0  0
  -30.3619  -12.4283   19.2953 C   0  0  0  0  0  0  0  0  0  0  0  0
  -31.1493  -17.1124   20.4920 C   0  0  0  0  0  0  0  0  0  0  0  0
  -28.9803  -16.3679   19.5578 C   0  0  0  0  0  0  0  0  0  0  0  0
  -28.5462  -13.5106   20.5814 C   0  0  0  0  0  0  0  0  0  0  0  0
  -27.9486  -29.0948   25.3050 C   0  0  1  0  0  0  0  0  0  0  0  0
  -28.5204  -29.2609   21.5529 C   0  0  1  0  0  0  0  0  0  0  0  0
  -27.4884  -12.9396   19.6249 C   0  0  2  0  0  0  0  0  0  0  0  0
  -30.1401  -18.3874   18.5880 C   0  0  0  0  0  0  0  0  0  0  0  0
  -23.6367  -31.5687   16.0007 C   0  0  0  0  0  0  0  0  0  0  0  0
  -31.7443  -20.9012   16.2934 C   0  0  0  0  0  0  0  0  0  0  0  0
  -23.9392  -29.1179   22.1467 C   0  0  0  0  0  0  0  0  0  0  0  0
  -22.5716  -29.6800   20.1263 C   0  0  0  0  0  0  0  0  0  0  0  0
  -23.7648  -31.4870   21.3648 C   0  0  0  0  0  0  0  0  0  0  0  0
  -27.3033  -30.6517   15.5636 C   0  0  0  0  0  0  0  0  0  0  0  0
  -29.2947  -19.0664   16.3464 C   0  0  0  0  0  0  0  0  0  0  0  0
  -29.7848  -21.4314   17.7966 C   0  0  0  0  0  0  0  0  0  0  0  0
  -30.1942  -22.7641   18.4141 C   0  0  0  0  0  0  0  0  0  1  0  0
  -25.0958  -29.8594   19.9607 C   0  0  1  0  0  0  0  0  0  0  0  0
  -25.0632  -31.3035   16.4559 C   0  0  2  0  0  0  0  0  0  0  0  0
  -30.9601  -20.4883   17.5319 C   0  0  1  0  0  0  0  0  0  0  0  0
  -23.8652  -30.0186   20.8976 C   0  0  0  0  0  0  0  0  0  0  0  0
  -25.8488  -11.5931   20.8822 N   0  0  0  0  0  0  0  0  0  0  0  0
  -26.1441  -12.7720   20.3085 N   0  0  0  0  0  0  0  0  0  0  0  0
  -27.3294  -29.1071   20.7150 N   0  0  0  0  0  0  0  0  0  0  0  0
  -29.8508  -13.6504   19.9163 N   0  0  0  0  0  0  0  0  0  0  0  0
  -30.2560  -15.9933   20.1859 N   0  0  0  0  0  0  0  0  0  0  0  0
  -25.2863  -14.9420   19.9013 N   0  0  0  0  0  0  0  0  0  0  0  0
  -21.9592  -12.9188   22.1890 N   0  0  0  0  0  0  0  0  0  0  0  0
  -28.2219  -29.4998   23.9428 N   0  0  0  0  0  0  0  0  0  0  0  0
  -25.0657  -30.7202   18.7832 N   0  0  0  0  0  0  0  0  0  0  0  0
  -25.8728  -30.9192   15.2651 N   0  3  0  0  0  0  0  0  0  0  0  0
  -30.4517  -19.0852   17.3138 N   0  3  1  0  0  0  0  0  0  0  0  0
  -22.5922  -14.8656   21.1555 O   0  0  0  0  0  0  0  0  0  0  0  0
  -27.9768  -27.4190   22.9265 O   0  0  0  0  0  0  0  0  0  0  0  0
  -26.5842  -31.2733   21.1490 O   0  0  0  0  0  0  0  0  0  0  0  0
  -25.1844  -29.0138   17.2176 O   0  0  0  0  0  0  0  0  0  0  0  0
  -31.9348  -14.4446   20.5059 O   0  0  0  0  0  0  0  0  0  0  0  0
  -21.9917   -7.6912   24.1144 O   0  0  0  0  0  0  0  0  0  0  0  0
  -29.0292  -23.5598   18.5943 O   0  0  0  0  0  0  0  0  0  1  0  0
  -22.1345   -2.6396   21.9089 F   0  0  0  0  0  0  0  0  0  0  0  0
  -19.6595   -6.3850   23.4093 F   0  0  0  0  0  0  0  0  0  0  0  0
  1  2  1  0  0  0  0
  1  5  2  0  0  0  0
  2  6  2  0  0  0  0
  3  8  2  0  0  0  0
  3 15  1  0  0  0  0
  4  9  1  0  0  0  0
  4 15  2  0  0  0  0
  5 17  1  0  0  0  0
  6 19  1  0  0  0  0
  7 10  2  0  0  0  0
  7 18  1  0  0  0  0
  8 21  1  0  0  0  0
  9 21  2  0  0  0  0
 10 22  1  0  0  0  0
 11 12  2  0  0  0  0
 11 23  1  0  0  0  0
 12 24  1  0  0  0  0
 13 20  1  0  0  0  0
 13 22  2  0  0  0  0
 14 24  2  0  0  0  0
 14 25  1  0  0  0  0
 15 26  1  0  0  0  0
 16 26  1  0  0  0  0
 16 27  2  0  0  0  0
 16 28  1  0  0  0  0
 17 19  2  0  0  0  0
 17 33  1  0  0  0  0
 18 20  2  0  0  0  0
 18 34  1  0  0  0  0
 19 46  1  0  0  0  0
 20 35  1  0  0  0  0
 21 79  1  0  0  0  0
 22 80  1  0  0  0  0
 23 25  2  0  0  0  0
 23 79  1  0  0  0  0
 24 81  1  0  0  0  0
 25 82  1  0  0  0  0
 26 63  2  0  0  0  0
 27 64  1  0  0  0  0
 27 68  1  0  0  0  0
 28 69  1  0  0  0  0
 28 74  2  0  0  0  0
 29 47  1  0  0  0  0
 29 70  1  0  0  0  0
 29 75  2  0  0  0  0
 30 59  1  0  0  0  0
 30 65  1  0  0  0  0
 30 76  2  0  0  0  0
 31 60  1  0  0  0  0
 31 71  1  0  0  0  0
 31 77  2  0  0  0  0
 32 66  1  0  0  0  0
 32 67  1  0  0  0  0
 32 78  2  0  0  0  0
 33 36  1  0  0  0  0
 34 47  1  0  0  0  0
 35 65  1  0  0  0  0
 36 38  1  0  0  0  0
 37 39  1  0  0  0  0
 37 42  1  0  0  0  0
 38 46  1  0  0  0  0
 39 48  1  0  0  0  0
 40 43  1  0  0  0  0
 40 49  1  0  0  0  0
 41 44  1  0  0  0  0
 41 49  1  0  0  0  0
 42 66  1  0  0  0  0
 43 67  1  0  0  0  0
 44 67  1  0  0  0  0
 45 48  1  0  0  0  0
 45 66  1  0  0  0  0
 46 70  1  0  0  0  0
 47 65  1  0  0  0  0
 48 64  1  0  0  0  0
 49 73  1  0  0  0  0
 50 60  1  0  0  0  0
 51 61  1  0  0  0  0
 52 62  1  0  0  0  0
 53 62  1  0  0  0  0
 54 62  1  0  0  0  0
 55 72  1  0  0  0  0
 56 73  1  0  0  0  0
 57 58  1  0  0  0  0
 57 61  1  0  0  0  0
 58 80  1  0  0  0  0
 59 62  1  0  0  0  0
 59 71  1  0  0  0  0
 60 72  1  0  0  0  0
 61 73  1  0  0  0  0
 63 64  1  0  0  0  0
M  CHG  2  72   1  73   1
M  ISO  4  32 100  58 101  67 100  80 101
M  END
> <Batch ID>
0135

> <Smiles>
CNC(C)C(=O)NC(C(=O)N1Cc2cc([101O:1][101CH2:1]CC(C)N(C)C3CC[100N:0]([100C:0](=O)N4CCCC(n5nc(-c6ccc(Oc7ccc(F)cc7F)cc6)c(C(N)=O)c5N)C4)CC3)ccc2CC1C(=O)NC1CCCc2ccccc21)C(C)(C)C

> <Shape>
0.326

> <Color>
0.169

> <Negative vol penalty>
0.000

$$$$

  -OEChem-04052321003D

 92102  0     1  0  0  0  0  0999 V2000
  -12.4931  -26.6781   23.9559 C   0  0  0  0  0  0  0  0  0  0  0  0
  -12.9743  -26.3285   22.6983 C   0  0  0  0  0  0  0  0  0  0  0  0
  -23.0636   -9.8613   19.9476 C   0  0  0  0  0  0  0  0  0  0  0  0
  -23.8326   -9.8698   22.2379 C   0  0  0  0  0  0  0  0  0  0  0  0
  -13.2031  -27.5808   24.7464 C   0  0  0  0  0  0  0  0  0  0  0  0
  -14.1653  -26.8822   22.2299 C   0  0  0  0  0  0  0  0  0  0  0  0
  -19.7322  -22.6950   20.3946 C   0  0  0  0  0  0  0  0  0  0  0  0
  -22.3219   -8.7075   20.2009 C   0  0  0  0  0  0  0  0  0  0  0  0
  -23.0908   -8.7160   22.4913 C   0  0  0  0  0  0  0  0  0  0  0  0
  -20.7666  -21.9527   19.8246 C   0  0  0  0  0  0  0  0  0  0  0  0
  -19.8659   -7.9151   23.1069 C   0  0  0  0  0  0  0  0  0  0  0  0
  -19.1136   -7.8748   24.2808 C   0  0  0  0  0  0  0  0  0  0  0  0
  -22.0054  -23.9855   19.3992 C   0  0  0  0  0  0  0  0  0  0  0  0
  -27.2172  -19.7034   20.4128 C   0  0  0  0  0  0  0  0  0  0  0  0
  -20.3599   -5.9389   25.0129 C   0  0  0  0  0  0  0  0  0  0  0  0
  -23.8190  -10.4424   20.9661 C   0  0  0  0  0  0  0  0  0  0  0  0
  -24.1579  -12.9679   20.8439 C   0  0  0  0  0  0  0  0  0  0  0  0
  -14.4084  -28.1385   24.2915 C   0  0  0  0  0  0  0  0  0  0  0  0
  -19.8373  -24.0859   20.4831 C   0  0  0  0  0  0  0  0  0  0  0  0
  -14.8914  -27.7943   23.0146 C   0  0  0  0  0  0  0  0  0  0  0  0
  -20.9779  -24.7333   19.9804 C   0  0  0  0  0  0  0  0  0  0  0  0
  -27.5505  -21.9056   19.5050 C   0  0  0  0  0  0  0  0  0  0  0  0
  -22.3355   -8.1348   21.4727 C   0  0  0  0  0  0  0  0  0  0  0  0
  -21.9003  -22.5963   19.3280 C   0  0  0  0  0  0  0  0  0  0  0  0
  -20.8651   -6.9673   22.8859 C   0  0  0  0  0  0  0  0  0  0  0  0
  -26.6934  -20.9065   19.9527 C   0  0  0  0  0  0  0  0  0  0  0  0
  -19.3606   -6.8867   25.2338 C   0  0  0  0  0  0  0  0  0  0  0  0
  -21.1121   -5.9792   23.8390 C   0  0  0  0  0  0  0  0  0  0  0  0
  -24.5859  -11.6340   20.7049 C   0  0  0  0  0  0  0  0  0  0  0  0
  -28.9127  -21.6541   19.5376 C   0  0  0  0  0  0  0  0  0  0  0  0
  -28.5943  -19.5505   20.4045 C   0  0  0  0  0  0  0  0  0  0  0  0
  -25.2478  -13.7183   20.4761 C   0  0  0  0  0  0  0  0  0  0  0  0
  -22.8885  -13.4825   21.2677 C   0  0  0  0  0  0  0  0  0  0  0  0
  -18.2661  -27.3078   21.5906 C   0  0  0  0  0  0  0  0  0  0  0  0
  -21.2537  -27.4970   22.2603 C   0  0  0  0  0  0  0  0  0  0  0  0
  -24.0654  -26.8731   23.5285 C   0  0  0  0  0  0  0  0  0  0  0  0
  -30.7312  -14.7429   20.6423 C   0  0  0  0  0  0  0  0  0  0  0  0
  -15.1163  -29.1462   25.1623 C   0  0  0  0  0  0  0  0  0  0  0  0
  -18.7206  -24.9309   21.0333 C   0  0  0  0  0  0  0  0  0  0  0  0
  -21.0324  -26.2342   20.0656 C   0  0  0  0  0  0  0  0  0  0  0  0
  -16.5629  -29.4008   24.7466 C   0  0  0  0  0  0  0  0  0  0  0  0
  -29.5866  -12.3564   18.2609 C   0  0  0  0  0  0  0  0  0  0  0  0
  -16.6567  -29.6053   23.2378 C   0  0  0  0  0  0  0  0  0  0  0  0
  -26.9804  -24.8597   21.0629 C   0  0  0  0  0  0  0  0  0  0  0  0
  -26.1049  -25.4725   20.0057 C   0  0  0  0  0  0  0  0  0  0  0  0
  -26.2788  -23.9619   16.5871 C   0  0  0  0  0  0  0  0  0  0  0  0
  -26.7152  -22.5278   16.4734 C   0  0  0  0  0  0  0  0  0  0  0  0
  -28.1511  -12.0614   18.6996 C   0  0  0  0  0  0  0  0  0  0  0  0
  -30.5082  -12.5786   19.4580 C   0  0  0  0  0  0  0  0  0  0  0  0
  -28.6113  -13.3082   20.8519 C   0  0  0  0  0  0  0  0  0  0  0  0
  -16.1922  -28.3546   22.4817 C   0  0  1  0  0  0  0  0  0  0  0  0
  -19.2214  -26.1694   21.7978 C   0  0  1  0  0  0  0  0  0  0  0  0
  -26.2421  -23.9778   20.0944 C   0  0  0  0  0  0  0  0  0  0  0  0
  -26.1238  -23.0338   17.7599 C   0  0  0  0  0  0  0  0  0  0  0  0
  -27.6326  -13.1323   19.6782 C   0  0  2  0  0  0  0  0  0  0  0  0
  -31.2868  -22.1253   18.8833 C   0  0  0  0  0  0  0  0  0  0  0  0
  -26.3147  -27.5025   24.4460 C   0  0  0  0  0  0  0  0  0  0  0  0
  -21.6837  -29.1967   19.7644 C   0  0  0  0  0  0  0  0  0  0  0  0
  -24.0088  -29.6618   20.5680 C   0  0  0  0  0  0  0  0  0  0  0  0
  -22.0506  -30.4028   21.9242 C   0  0  0  0  0  0  0  0  0  0  0  0
  -23.4727  -25.6320   26.1491 C   0  0  0  0  0  0  0  0  0  0  0  0
  -29.8819  -22.6900   19.0695 C   0  0  0  0  0  0  0  0  0  0  0  0
  -30.5112  -18.0382   20.9186 C   0  0  0  0  0  0  0  0  0  0  0  0
  -30.7999  -16.8939   21.8782 C   0  0  0  0  0  0  0  0  0  0  0  0
  -23.1018  -20.5441   19.2807 C   0  0  0  0  0  0  0  0  0  1  0  0
  -24.5696  -20.1804   19.1665 C   0  0  0  0  0  0  0  0  0  0  0  0
  -27.0116  -23.2040   19.0072 C   0  0  0  0  0  0  0  0  0  0  0  0
  -22.6239  -27.9428   21.8161 C   0  0  1  0  0  0  0  0  0  0  0  0
  -24.8643  -27.1900   24.7798 C   0  0  2  0  0  0  0  0  0  0  0  0
  -22.5828  -29.2743   21.0144 C   0  0  0  0  0  0  0  0  0  0  0  0
  -25.8492  -11.5392   20.2817 N   0  0  0  0  0  0  0  0  0  0  0  0
  -29.4586  -20.4982   19.9774 N   0  0  0  0  0  0  0  0  0  0  0  0
  -26.2243  -12.8231   20.1514 N   0  0  0  0  0  0  0  0  0  0  0  0
  -20.5366  -26.6813   21.3767 N   0  0  0  0  0  0  0  0  0  0  0  0
  -29.9602  -13.6068   20.3458 N   0  0  0  0  0  0  0  0  0  0  0  0
  -25.4566  -15.0499   20.4018 N   0  0  0  0  0  0  0  0  0  0  0  0
  -21.8789  -12.5725   21.6093 N   0  0  0  0  0  0  0  0  0  0  0  0
  -29.1131  -18.3191   20.8762 N   0  0  0  0  0  0  0  0  0  0  0  0
  -17.2251  -27.3411   22.4988 N   0  0  0  0  0  0  0  0  0  0  0  0
  -23.4463  -27.9953   23.0200 N   0  0  0  0  0  0  0  0  0  0  0  0
  -30.1345  -15.6714   21.4864 N   0  0  0  0  0  0  0  0  0  0  0  0
  -24.8369  -26.0330   25.7187 N   0  3  0  0  0  0  0  0  0  0  0  0
  -22.6513  -14.7129   21.3256 O   0  0  0  0  0  0  0  0  0  0  0  0
  -18.4589  -28.0994   20.6753 O   0  0  0  0  0  0  0  0  0  0  0  0
  -20.8261  -27.8651   23.3580 O   0  0  0  0  0  0  0  0  0  0  0  0
  -24.0002  -25.7438   23.0480 O   0  0  0  0  0  0  0  0  0  0  0  0
  -31.8652  -14.9193   20.1841 O   0  0  0  0  0  0  0  0  0  0  0  0
  -21.6116   -7.0091   21.7203 O   0  0  0  0  0  0  0  0  0  0  0  0
  -22.9085  -21.8651   18.7769 O   0  0  0  0  0  0  0  0  0  1  0  0
  -25.3356  -21.0895   19.9476 O   0  0  0  0  0  0  0  0  0  0  0  0
  -18.6392   -6.8491   26.3618 F   0  0  0  0  0  0  0  0  0  0  0  0
  -22.0715   -5.0666   23.6328 F   0  0  0  0  0  0  0  0  0  0  0  0
  1  2  1  0  0  0  0
  1  5  2  0  0  0  0
  2  6  2  0  0  0  0
  3  8  2  0  0  0  0
  3 16  1  0  0  0  0
  4  9  1  0  0  0  0
  4 16  2  0  0  0  0
  5 18  1  0  0  0  0
  6 20  1  0  0  0  0
  7 10  2  0  0  0  0
  7 19  1  0  0  0  0
  8 23  1  0  0  0  0
  9 23  2  0  0  0  0
 10 24  1  0  0  0  0
 11 12  2  0  0  0  0
 11 25  1  0  0  0  0
 12 27  1  0  0  0  0
 13 21  1  0  0  0  0
 13 24  2  0  0  0  0
 14 26  2  0  0  0  0
 14 31  1  0  0  0  0
 15 27  2  0  0  0  0
 15 28  1  0  0  0  0
 16 29  1  0  0  0  0
 17 29  1  0  0  0  0
 17 32  2  0  0  0  0
 17 33  1  0  0  0  0
 18 20  2  0  0  0  0
 18 38  1  0  0  0  0
 19 21  2  0  0  0  0
 19 39  1  0  0  0  0
 20 51  1  0  0  0  0
 21 40  1  0  0  0  0
 22 26  1  0  0  0  0
 22 30  2  0  0  0  0
 22 67  1  0  0  0  0
 23 88  1  0  0  0  0
 24 89  1  0  0  0  0
 25 28  2  0  0  0  0
 25 88  1  0  0  0  0
 26 90  1  0  0  0  0
 27 91  1  0  0  0  0
 28 92  1  0  0  0  0
 29 71  2  0  0  0  0
 30 62  1  0  0  0  0
 30 72  1  0  0  0  0
 31 72  2  0  0  0  0
 31 78  1  0  0  0  0
 32 73  1  0  0  0  0
 32 76  1  0  0  0  0
 33 77  1  0  0  0  0
 33 83  2  0  0  0  0
 34 52  1  0  0  0  0
 34 79  1  0  0  0  0
 34 84  2  0  0  0  0
 35 68  1  0  0  0  0
 35 74  1  0  0  0  0
 35 85  2  0  0  0  0
 36 69  1  0  0  0  0
 36 80  1  0  0  0  0
 36 86  2  0  0  0  0
 37 75  1  0  0  0  0
 37 81  1  0  0  0  0
 37 87  2  0  0  0  0
 38 41  1  0  0  0  0
 39 52  1  0  0  0  0
 40 74  1  0  0  0  0
 41 43  1  0  0  0  0
 42 48  1  0  0  0  0
 42 49  1  0  0  0  0
 43 51  1  0  0  0  0
 44 45  1  0  0  0  0
 44 53  1  0  0  0  0
 45 53  1  0  0  0  0
 46 47  1  0  0  0  0
 46 54  1  0  0  0  0
 47 54  1  0  0  0  0
 48 55  1  0  0  0  0
 49 75  1  0  0  0  0
 50 55  1  0  0  0  0
 50 75  1  0  0  0  0
 51 79  1  0  0  0  0
 52 74  1  0  0  0  0
 53 67  1  0  0  0  0
 54 67  1  0  0  0  0
 55 73  1  0  0  0  0
 56 62  1  0  0  0  0
 57 69  1  0  0  0  0
 58 70  1  0  0  0  0
 59 70  1  0  0  0  0
 60 70  1  0  0  0  0
 61 82  1  0  0  0  0
 63 64  1  0  0  0  0
 63 78  1  0  0  0  0
 64 81  1  0  0  0  0
 65 66  1  0  0  0  0
 65 89  1  0  0  0  0
 66 90  1  0  0  0  0
 68 70  1  0  0  0  0
 68 80  1  0  0  0  0
 69 82  1  0  0  0  0
 71 73  1  0  0  0  0
M  CHG  1  82   1
M  ISO  4  37 100  65 101  81 100  89 101
M  END
> <Batch ID>
0135

> <Smiles>
CCc1nc(NCC[100NH:0][100C:0](=O)N2CCCC(n3nc(-c4ccc(Oc5ccc(F)cc5F)cc4)c(C(N)=O)c3N)C2)cc(OC[101CH2:1][101O:1]c2ccc3c(c2)CN(C(=O)C(NC(=O)C(C)NC)C(C)(C)C)C(C(=O)NC2CCCc4ccccc42)C3)c1C(C1CC1)C1CC1

> <Shape>
0.321

> <Color>
0.208

> <Negative vol penalty>
0.000

$$$$

  -OEChem-04052321003D

 89 98  0     1  0  0  0  0  0999 V2000
  -19.2200  -30.7370   19.8263 C   0  0  0  0  0  0  0  0  0  0  0  0
  -20.5415  -31.0881   20.0830 C   0  0  0  0  0  0  0  0  0  0  0  0
  -23.3824   -9.6258   20.1552 C   0  0  0  0  0  0  0  0  0  0  0  0
  -24.0142   -9.9803   22.4600 C   0  0  0  0  0  0  0  0  0  0  0  0
  -18.6433  -29.6593   20.4970 C   0  0  0  0  0  0  0  0  0  0  0  0
  -21.2867  -30.3622   21.0116 C   0  0  0  0  0  0  0  0  0  0  0  0
  -27.4103  -27.0835   19.1027 C   0  0  0  0  0  0  0  0  0  0  0  0
  -32.4625  -22.6461   21.1509 C   0  0  0  0  0  0  0  0  0  0  0  0
  -22.7661   -8.4255   20.5088 C   0  0  0  0  0  0  0  0  0  0  0  0
  -23.3979   -8.7800   22.8136 C   0  0  0  0  0  0  0  0  0  0  0  0
  -28.6990  -26.6049   18.8658 C   0  0  0  0  0  0  0  0  0  0  0  0
  -32.1579  -23.9373   20.7201 C   0  0  0  0  0  0  0  0  0  0  0  0
  -20.2578   -7.6661   23.3786 C   0  0  0  0  0  0  0  0  0  0  0  0
  -19.4500   -7.6644   24.5157 C   0  0  0  0  0  0  0  0  0  0  0  0
  -28.8066  -25.7458   21.1237 C   0  0  0  0  0  0  0  0  0  0  0  0
  -30.0545  -23.1455   19.8341 C   0  0  0  0  0  0  0  0  0  0  0  0
  -20.8686   -5.9869   25.5211 C   0  0  0  0  0  0  0  0  0  0  0  0
  -24.0065  -10.4032   21.1308 C   0  0  0  0  0  0  0  0  0  0  0  0
  -24.0569  -12.9221   20.7305 C   0  0  0  0  0  0  0  0  0  0  0  0
  -19.3849  -28.9138   21.4271 C   0  0  0  0  0  0  0  0  0  0  0  0
  -26.8081  -26.8814   20.3477 C   0  0  0  0  0  0  0  0  0  0  0  0
  -20.7190  -29.2744   21.6964 C   0  0  0  0  0  0  0  0  0  0  0  0
  -27.5111  -26.2121   21.3629 C   0  0  0  0  0  0  0  0  0  0  0  0
  -31.5630  -21.6045   20.9233 C   0  0  0  0  0  0  0  0  0  0  0  0
  -30.3590  -21.8542   20.2649 C   0  0  0  0  0  0  0  0  0  0  0  0
  -22.7739   -8.0025   21.8380 C   0  0  0  0  0  0  0  0  0  0  0  0
  -29.3955  -25.9379   19.8739 C   0  0  0  0  0  0  0  0  0  0  0  0
  -30.9538  -24.1870   20.0617 C   0  0  0  0  0  0  0  0  0  1  0  0
  -21.3710   -6.8281   23.3127 C   0  0  0  0  0  0  0  0  0  0  0  0
  -19.7554   -6.8249   25.5869 C   0  0  0  0  0  0  0  0  0  0  0  0
  -21.6764   -5.9886   24.3839 C   0  0  0  0  0  0  0  0  0  0  0  0
  -24.6437  -11.6430   20.7662 C   0  0  0  0  0  0  0  0  0  0  0  0
  -25.0717  -13.7542   20.3252 C   0  0  0  0  0  0  0  0  0  0  0  0
  -22.7146  -13.3223   21.0364 C   0  0  0  0  0  0  0  0  0  0  0  0
  -23.7799  -27.3703   22.5079 C   0  0  0  0  0  0  0  0  0  0  0  0
  -24.8240  -24.5401   23.0646 C   0  0  0  0  0  0  0  0  0  0  0  0
  -26.0411  -21.3533   23.0787 C   0  0  0  0  0  0  0  0  0  0  0  0
  -30.7872  -14.4529   20.9241 C   0  0  0  0  0  0  0  0  0  0  0  0
  -18.7040  -27.7866   22.1621 C   0  0  0  0  0  0  0  0  0  0  0  0
  -25.4455  -27.4336   20.6671 C   0  0  0  0  0  0  0  0  0  0  0  0
  -26.8370  -26.0479   22.6976 C   0  0  0  0  0  0  0  0  0  0  0  0
  -19.6768  -26.8361   22.8554 C   0  0  0  0  0  0  0  0  0  0  0  0
  -29.3596  -13.1181   17.9480 C   0  0  0  0  0  0  0  0  0  0  0  0
  -20.7346  -27.6219   23.6238 C   0  0  0  0  0  0  0  0  0  0  0  0
  -31.5043  -16.9529   25.1405 C   0  0  0  0  0  0  0  0  0  0  0  0
  -27.9435  -12.7206   18.3680 C   0  0  0  0  0  0  0  0  0  0  0  0
  -30.7464  -15.8996   24.3337 C   0  0  0  0  0  0  0  0  0  0  0  0
  -30.7662  -17.4213   22.3199 C   0  0  0  0  0  0  0  0  0  0  0  0
  -30.3705  -12.8693   19.0653 C   0  0  0  0  0  0  0  0  0  0  0  0
  -28.6132  -13.0931   20.7787 C   0  0  0  0  0  0  0  0  0  0  0  0
  -21.5675  -28.4960   22.6784 C   0  0  1  0  0  0  0  0  0  0  0  0
  -24.6313  -26.5257   21.6062 C   0  0  1  0  0  0  0  0  0  0  0  0
  -31.2234  -18.3781   24.6346 C   0  0  2  0  0  0  0  0  0  0  0  0
  -27.5496  -13.3779   19.7044 C   0  0  2  0  0  0  0  0  0  0  0  0
  -31.0530  -16.0093   22.8388 C   0  0  2  0  0  0  0  0  0  0  0  0
  -31.5327  -18.4705   23.1296 C   0  0  2  0  0  0  0  0  0  0  0  0
  -29.3806  -20.7552   20.0094 C   0  0  0  0  0  0  0  0  0  0  0  0
  -25.6802  -19.1116   24.1474 C   0  0  0  0  0  0  0  0  0  0  0  0
  -31.6046  -19.3197   26.9307 C   0  0  0  0  0  0  0  0  0  0  0  0
  -33.5203  -19.1254   25.3195 C   0  0  0  0  0  0  0  0  0  0  0  0
  -26.1403  -25.5521   25.6234 C   0  0  0  0  0  0  0  0  0  0  0  0
  -26.6120  -23.1714   26.2381 C   0  0  0  0  0  0  0  0  0  0  0  0
  -24.2553  -23.9485   25.9833 C   0  0  0  0  0  0  0  0  0  0  0  0
  -25.4710  -20.0729   20.4720 C   0  0  0  0  0  0  0  0  0  0  0  0
  -31.9109  -20.2304   21.3935 C   0  0  0  0  0  0  0  0  0  0  0  0
  -25.6945  -23.6594   23.9249 C   0  0  1  0  0  0  0  0  0  0  0  0
  -25.3456  -20.0087   22.9658 C   0  0  2  0  0  0  0  0  0  0  0  0
  -32.0240  -19.3847   25.4652 C   0  0  0  0  0  0  0  0  0  0  0  0
  -25.6849  -24.0936   25.4178 C   0  0  0  0  0  0  0  0  0  0  0  0
  -25.9314  -11.6564   20.4116 N   0  0  0  0  0  0  0  0  0  0  0  0
  -26.1621  -12.9541   20.1492 N   0  0  0  0  0  0  0  0  0  0  0  0
  -25.4272  -25.6733   22.5057 N   0  0  0  0  0  0  0  0  0  0  0  0
  -29.9388  -13.5205   20.3044 N   0  0  0  0  0  0  0  0  0  0  0  0
  -25.1287  -15.0850   20.1056 N   0  0  0  0  0  0  0  0  0  0  0  0
  -21.7994  -12.3396   21.4377 N   0  0  0  0  0  0  0  0  0  0  0  0
  -22.5454  -27.6922   21.9769 N   0  0  0  0  0  0  0  0  0  0  0  0
  -25.2420  -22.2912   23.6976 N   0  0  0  0  0  0  0  0  0  0  0  0
  -30.2989  -15.0281   22.0908 N   0  0  0  0  0  0  0  0  0  0  0  0
  -31.1596  -19.8162   22.6096 N   0  3  0  0  0  0  0  0  0  0  0  0
  -25.7621  -19.3134   21.7152 N   0  3  0  0  0  0  0  0  0  0  0  0
  -22.3335  -14.5136   20.9405 O   0  0  0  0  0  0  0  0  0  0  0  0
  -24.2096  -27.7049   23.6057 O   0  0  0  0  0  0  0  0  0  0  0  0
  -23.6396  -24.2370   22.8957 O   0  0  0  0  0  0  0  0  0  0  0  0
  -27.1807  -21.5507   22.6631 O   0  0  0  0  0  0  0  0  0  0  0  0
  -31.8955  -14.7545   20.4682 O   0  0  0  0  0  0  0  0  0  0  0  0
  -22.1724   -6.8314   22.1834 O   0  0  0  0  0  0  0  0  0  0  0  0
  -30.6516  -25.4692   19.6344 O   0  0  0  0  0  0  0  0  0  1  0  0
  -18.9804   -6.8246   26.6795 F   0  0  0  0  0  0  0  0  0  0  0  0
  -22.7451   -5.1822   24.3269 F   0  0  0  0  0  0  0  0  0  0  0  0
  1  2  1  0  0  0  0
  1  5  2  0  0  0  0
  2  6  2  0  0  0  0
  3  9  2  0  0  0  0
  3 18  1  0  0  0  0
  4 10  1  0  0  0  0
  4 18  2  0  0  0  0
  5 20  1  0  0  0  0
  6 22  1  0  0  0  0
  7 11  2  0  0  0  0
  7 21  1  0  0  0  0
  8 12  2  0  0  0  0
  8 24  1  0  0  0  0
  9 26  1  0  0  0  0
 10 26  2  0  0  0  0
 11 27  1  0  0  0  0
 12 28  1  0  0  0  0
 13 14  2  0  0  0  0
 13 29  1  0  0  0  0
 14 30  1  0  0  0  0
 15 23  1  0  0  0  0
 15 27  2  0  0  0  0
 16 25  1  0  0  0  0
 16 28  2  0  0  0  0
 17 30  2  0  0  0  0
 17 31  1  0  0  0  0
 18 32  1  0  0  0  0
 19 32  1  0  0  0  0
 19 33  2  0  0  0  0
 19 34  1  0  0  0  0
 20 22  2  0  0  0  0
 20 39  1  0  0  0  0
 21 23  2  0  0  0  0
 21 40  1  0  0  0  0
 22 51  1  0  0  0  0
 23 41  1  0  0  0  0
 24 25  2  0  0  0  0
 24 65  1  0  0  0  0
 25 57  1  0  0  0  0
 26 86  1  0  0  0  0
 27 87  1  0  0  0  0
 28 87  1  0  0  0  0
 29 31  2  0  0  0  0
 29 86  1  0  0  0  0
 30 88  1  0  0  0  0
 31 89  1  0  0  0  0
 32 70  2  0  0  0  0
 33 71  1  0  0  0  0
 33 74  1  0  0  0  0
 34 75  1  0  0  0  0
 34 81  2  0  0  0  0
 35 52  1  0  0  0  0
 35 76  1  0  0  0  0
 35 82  2  0  0  0  0
 36 66  1  0  0  0  0
 36 72  1  0  0  0  0
 36 83  2  0  0  0  0
 37 67  1  0  0  0  0
 37 77  1  0  0  0  0
 37 84  2  0  0  0  0
 38 73  1  0  0  0  0
 38 78  1  0  0  0  0
 38 85  2  0  0  0  0
 39 42  1  0  0  0  0
 40 52  1  0  0  0  0
 41 72  1  0  0  0  0
 42 44  1  0  0  0  0
 43 46  1  0  0  0  0
 43 49  1  0  0  0  0
 44 51  1  0  0  0  0
 45 47  1  0  0  0  0
 45 53  1  0  0  0  0
 46 54  1  0  0  0  0
 47 55  1  0  0  0  0
 48 55  1  0  0  0  0
 48 56  1  0  0  0  0
 49 73  1  0  0  0  0
 50 54  1  0  0  0  0
 50 73  1  0  0  0  0
 51 76  1  0  0  0  0
 52 72  1  0  0  0  0
 53 56  1  0  0  0  0
 53 68  1  0  0  0  0
 54 71  1  0  0  0  0
 55 78  1  0  0  0  0
 56 79  1  0  0  0  0
 58 67  1  0  0  0  0
 59 68  1  0  0  0  0
 60 68  1  0  0  0  0
 61 69  1  0  0  0  0
 62 69  1  0  0  0  0
 63 69  1  0  0  0  0
 64 80  1  0  0  0  0
 65 79  1  0  0  0  0
 66 69  1  0  0  0  0
 66 77  1  0  0  0  0
 67 80  1  0  0  0  0
 70 71  1  0  0  0  0
M  CHG  2  79   1  80   1
M  ISO  4  28 101  38 100  78 100  87 101
M  END
> <Batch ID>
0135

> <Smiles>
CNC(C)C(=O)NC(C(=O)N1Cc2cc([101O:1][101c:1]3ccc(CNC4CC([100NH:0][100C:0](=O)N5CCCC(n6nc(-c7ccc(Oc8ccc(F)cc8F)cc7)c(C(N)=O)c6N)C5)CCC4C(C)C)c(C)c3)ccc2CC1C(=O)NC1CCCc2ccccc21)C(C)(C)C

> <Shape>
0.279

> <Color>
0.197

> <Negative vol penalty>
0.000

$$$$

  -OEChem-04052321003D

 86 95  0     1  0  0  0  0  0999 V2000
  -24.3908  -19.2893   21.8272 C   0  0  0  0  0  0  0  0  0  0  0  0
  -25.0200  -20.4255   21.3288 C   0  0  0  0  0  0  0  0  0  0  0  0
  -26.2156  -12.7487   21.5748 C   0  0  0  0  0  0  0  0  0  0  0  0
  -25.8190  -13.4628   19.3011 C   0  0  0  0  0  0  0  0  0  0  0  0
  -23.0479  -19.3434   22.1980 C   0  0  0  0  0  0  0  0  0  0  0  0
  -24.3063  -21.6165   21.1999 C   0  0  0  0  0  0  0  0  0  0  0  0
  -26.9017  -25.6283   22.8773 C   0  0  0  0  0  0  0  0  0  0  0  0
  -30.7025  -21.0163   14.9097 C   0  0  0  0  0  0  0  0  0  0  0  0
  -30.6275  -20.2546   16.0758 C   0  0  0  0  0  0  0  0  0  0  0  0
  -25.0168  -12.0358   21.5601 C   0  0  0  0  0  0  0  0  0  0  0  0
  -24.6202  -12.7499   19.2863 C   0  0  0  0  0  0  0  0  0  0  0  0
  -27.8930  -26.1403   22.0412 C   0  0  0  0  0  0  0  0  0  0  0  0
  -23.8879   -9.0855   20.3542 C   0  0  0  0  0  0  0  0  0  0  0  0
  -23.8974   -7.7904   20.8722 C   0  0  0  0  0  0  0  0  0  0  0  0
  -30.1721  -22.2544   17.3528 C   0  0  0  0  0  0  0  0  0  0  0  0
  -26.3831  -27.8808   21.3269 C   0  0  0  0  0  0  0  0  0  0  0  0
  -22.2476   -8.4354   22.5151 C   0  0  0  0  0  0  0  0  0  0  0  0
  -26.6167  -13.4623   20.4454 C   0  0  0  0  0  0  0  0  0  0  0  0
  -29.1288  -13.7287   20.0899 C   0  0  0  0  0  0  0  0  0  0  0  0
  -22.3199  -20.5382   22.0826 C   0  0  0  0  0  0  0  0  0  0  0  0
  -25.6380  -26.2333   22.9364 C   0  0  0  0  0  0  0  0  0  0  0  0
  -22.9519  -21.6863   21.5682 C   0  0  0  0  0  0  0  0  0  0  0  0
  -30.2472  -23.0161   16.1867 C   0  0  0  0  0  0  0  0  0  0  0  0
  -25.3783  -27.3761   22.1665 C   0  0  0  0  0  0  0  0  0  0  0  0
  -30.5124  -22.3971   14.9652 C   0  0  0  0  0  0  0  0  0  0  0  0
  -30.3623  -20.8736   17.2973 C   0  0  0  0  0  0  0  0  0  0  0  0
  -24.2191  -12.0364   20.4158 C   0  0  0  0  0  0  0  0  0  0  0  0
  -27.6328  -27.2650   21.2637 C   0  0  0  0  0  0  0  0  0  0  0  0
  -23.0583  -10.0556   20.9168 C   0  0  0  0  0  0  0  0  0  0  0  0
  -23.0772   -7.4653   21.9526 C   0  0  0  0  0  0  0  0  0  0  0  0
  -22.2381   -9.7305   21.9972 C   0  0  0  0  0  0  0  0  0  0  0  0
  -27.8547  -14.1993   20.4602 C   0  0  0  0  0  0  0  0  0  0  0  0
  -29.9612  -14.8043   20.2817 C   0  0  0  0  0  0  0  0  0  0  0  0
  -29.5244  -12.4350   19.6151 C   0  0  0  0  0  0  0  0  0  0  0  0
  -22.6725  -25.3034   22.2694 C   0  0  0  0  0  0  0  0  0  0  0  0
  -21.8996  -28.1897   23.5322 C   0  0  0  0  0  0  0  0  0  0  0  0
  -22.8608  -31.3796   24.2716 C   0  0  0  0  0  0  0  0  0  0  0  0
  -30.0291  -20.5574   19.7743 C   0  0  0  0  0  0  0  0  0  0  0  0
  -20.8576  -20.5357   22.4518 C   0  0  0  0  0  0  0  0  0  0  0  0
  -24.5882  -25.6846   23.8634 C   0  0  0  0  0  0  0  0  0  0  0  0
  -24.0447  -28.0746   22.2089 C   0  0  0  0  0  0  0  0  0  0  0  0
  -20.2735  -21.9341   22.6355 C   0  0  0  0  0  0  0  0  0  0  0  0
  -29.7187  -18.9674   22.9449 C   0  0  0  0  0  0  0  0  0  0  0  0
  -20.6936  -22.8435   21.4852 C   0  0  0  0  0  0  0  0  0  0  0  0
  -29.3310  -17.5294   22.5930 C   0  0  0  0  0  0  0  0  0  0  0  0
  -28.6278  -24.8023   16.7985 C   0  0  0  0  0  0  0  0  0  0  0  0
  -31.1052  -25.1319   17.1737 C   0  0  0  0  0  0  0  0  0  0  0  0
  -29.0766  -19.9767   21.9948 C   0  0  0  0  0  0  0  0  0  0  0  0
  -28.9177  -18.2802   20.2155 C   0  0  0  0  0  0  0  0  0  0  0  0
  -28.4119  -26.3000   16.9736 C   0  0  0  0  0  0  0  0  0  0  0  0
  -30.8703  -26.6272   17.3455 C   0  0  0  0  0  0  0  0  0  0  0  0
  -30.0379  -24.4937   16.2699 C   0  0  0  0  0  0  0  0  0  0  0  0
  -22.2180  -23.0032   21.4367 C   0  0  1  0  0  0  0  0  0  0  0  0
  -23.1702  -26.0755   23.4584 C   0  0  1  0  0  0  0  0  0  0  0  0
  -29.5924  -17.2233   21.1051 C   0  0  2  0  0  0  0  0  0  0  0  0
  -30.5983  -23.1917   13.7035 C   0  0  0  0  0  0  0  0  0  0  0  0
  -21.9992  -33.5160   25.2671 C   0  0  0  0  0  0  0  0  0  0  0  0
  -20.3485  -28.7567   20.9665 C   0  0  0  0  0  0  0  0  0  0  0  0
  -20.3260  -31.1792   21.5980 C   0  0  0  0  0  0  0  0  0  0  0  0
  -19.2049  -29.4998   23.0628 C   0  0  0  0  0  0  0  0  0  0  0  0
  -24.8770  -31.3195   26.4374 C   0  0  0  0  0  0  0  0  0  0  0  0
  -29.2388  -28.3108   18.1933 C   0  0  0  0  0  0  0  0  0  0  0  0
  -28.1648  -28.4252   19.2570 C   0  0  0  0  0  0  0  0  0  1  0  0
  -21.7305  -29.5859   22.9836 C   0  0  1  0  0  0  0  0  0  0  0  0
  -22.7220  -32.2056   25.5377 C   0  0  2  0  0  0  0  0  0  0  0  0
  -20.4271  -29.7413   22.1503 C   0  0  0  0  0  0  0  0  0  0  0  0
  -27.8714  -15.4745   20.8573 N   0  0  0  0  0  0  0  0  0  0  0  0
  -29.1662  -15.8143   20.7377 N   0  0  0  0  0  0  0  0  0  0  0  0
  -23.0487  -27.4964   23.1262 N   0  0  0  0  0  0  0  0  0  0  0  0
  -29.3702  -19.6253   20.6036 N   0  0  0  0  0  0  0  0  0  0  0  0
  -31.2883  -14.9751   20.1031 N   0  0  0  0  0  0  0  0  0  0  0  0
  -28.5420  -11.4451   19.4763 N   0  0  0  0  0  0  0  0  0  0  0  0
  -30.2840  -20.0999   18.4819 N   0  0  0  0  0  0  0  0  0  0  0  0
  -22.6612  -23.9338   22.4526 N   0  0  0  0  0  0  0  0  0  0  0  0
  -21.8196  -30.4873   24.1272 N   0  0  0  0  0  0  0  0  0  0  0  0
  -29.4757  -26.8772   17.8882 N   0  3  0  0  0  0  0  0  0  0  0  0
  -24.0653  -32.5178   26.1024 N   0  3  0  0  0  0  0  0  0  0  0  0
  -30.7165  -12.1600   19.3381 O   0  0  0  0  0  0  0  0  0  0  0  0
  -22.3231  -25.9057   21.2611 O   0  0  0  0  0  0  0  0  0  0  0  0
  -21.0473  -27.7336   24.2985 O   0  0  0  0  0  0  0  0  0  0  0  0
  -23.7972  -31.5152   23.4872 O   0  0  0  0  0  0  0  0  0  0  0  0
  -30.3684  -21.6687   20.1888 O   0  0  0  0  0  0  0  0  0  0  0  0
  -23.0494  -11.3407   20.4009 O   0  0  0  0  0  0  0  0  0  0  0  0
  -28.5983  -27.7664   20.4463 O   0  0  0  0  0  0  0  0  0  1  0  0
  -23.0853   -6.2212   22.4489 F   0  0  0  0  0  0  0  0  0  0  0  0
  -21.4381  -10.6578   22.5411 F   0  0  0  0  0  0  0  0  0  0  0  0
  1  2  1  0  0  0  0
  1  5  2  0  0  0  0
  2  6  2  0  0  0  0
  3 10  2  0  0  0  0
  3 18  1  0  0  0  0
  4 11  1  0  0  0  0
  4 18  2  0  0  0  0
  5 20  1  0  0  0  0
  6 22  1  0  0  0  0
  7 12  2  0  0  0  0
  7 21  1  0  0  0  0
  8  9  2  0  0  0  0
  8 25  1  0  0  0  0
  9 26  1  0  0  0  0
 10 27  1  0  0  0  0
 11 27  2  0  0  0  0
 12 28  1  0  0  0  0
 13 14  2  0  0  0  0
 13 29  1  0  0  0  0
 14 30  1  0  0  0  0
 15 23  1  0  0  0  0
 15 26  2  0  0  0  0
 16 24  1  0  0  0  0
 16 28  2  0  0  0  0
 17 30  2  0  0  0  0
 17 31  1  0  0  0  0
 18 32  1  0  0  0  0
 19 32  1  0  0  0  0
 19 33  2  0  0  0  0
 19 34  1  0  0  0  0
 20 22  2  0  0  0  0
 20 39  1  0  0  0  0
 21 24  2  0  0  0  0
 21 40  1  0  0  0  0
 22 53  1  0  0  0  0
 23 25  2  0  0  0  0
 23 52  1  0  0  0  0
 24 41  1  0  0  0  0
 25 56  1  0  0  0  0
 26 73  1  0  0  0  0
 27 83  1  0  0  0  0
 28 84  1  0  0  0  0
 29 31  2  0  0  0  0
 29 83  1  0  0  0  0
 30 85  1  0  0  0  0
 31 86  1  0  0  0  0
 32 67  2  0  0  0  0
 33 68  1  0  0  0  0
 33 71  1  0  0  0  0
 34 72  1  0  0  0  0
 34 78  2  0  0  0  0
 35 54  1  0  0  0  0
 35 74  1  0  0  0  0
 35 79  2  0  0  0  0
 36 64  1  0  0  0  0
 36 69  1  0  0  0  0
 36 80  2  0  0  0  0
 37 65  1  0  0  0  0
 37 75  1  0  0  0  0
 37 81  2  0  0  0  0
 38 70  1  0  0  0  0
 38 73  1  0  0  0  0
 38 82  2  0  0  0  0
 39 42  1  0  0  0  0
 40 54  1  0  0  0  0
 41 69  1  0  0  0  0
 42 44  1  0  0  0  0
 43 45  1  0  0  0  0
 43 48  1  0  0  0  0
 44 53  1  0  0  0  0
 45 55  1  0  0  0  0
 46 50  1  0  0  0  0
 46 52  1  0  0  0  0
 47 51  1  0  0  0  0
 47 52  1  0  0  0  0
 48 70  1  0  0  0  0
 49 55  1  0  0  0  0
 49 70  1  0  0  0  0
 50 76  1  0  0  0  0
 51 76  1  0  0  0  0
 53 74  1  0  0  0  0
 54 69  1  0  0  0  0
 55 68  1  0  0  0  0
 57 65  1  0  0  0  0
 58 66  1  0  0  0  0
 59 66  1  0  0  0  0
 60 66  1  0  0  0  0
 61 77  1  0  0  0  0
 62 63  1  0  0  0  0
 62 76  1  0  0  0  0
 63 84  1  0  0  0  0
 64 66  1  0  0  0  0
 64 75  1  0  0  0  0
 65 77  1  0  0  0  0
 67 68  1  0  0  0  0
M  CHG  2  76   1  77   1
M  ISO  4  38 100  63 101  73 100  84 101
M  END
> <Batch ID>
0135

> <Smiles>
CNC(C)C(=O)NC(C(=O)N1Cc2cc([101O:1][101CH2:1]CN3CCC(c4cc([100NH:0][100C:0](=O)N5CCCC(n6nc(-c7ccc(Oc8ccc(F)cc8F)cc7)c(C(N)=O)c6N)C5)ccc4C)CC3)ccc2CC1C(=O)NC1CCCc2ccccc21)C(C)(C)C

> <Shape>
0.239

> <Color>
0.062

> <Negative vol penalty>
0.000

$$$$

  -OEChem-04052321003D

 87 97  0     1  0  0  0  0  0999 V2000
  -16.7563  -28.1221   24.0161 C   0  0  0  0  0  0  0  0  0  0  0  0
  -17.4475  -27.7619   22.8638 C   0  0  0  0  0  0  0  0  0  0  0  0
  -31.5121  -14.1517   20.9508 C   0  0  0  0  0  0  0  0  0  0  0  0
  -29.6413  -14.7101   22.3739 C   0  0  0  0  0  0  0  0  0  0  0  0
  -16.9819  -29.3667   24.6026 C   0  0  0  0  0  0  0  0  0  0  0  0
  -18.3640  -28.6467   22.2966 C   0  0  0  0  0  0  0  0  0  0  0  0
  -25.2665  -26.7806   21.4224 C   0  0  0  0  0  0  0  0  0  0  0  0
  -32.3921  -14.4454   21.9923 C   0  0  0  0  0  0  0  0  0  0  0  0
  -30.5213  -15.0038   23.4155 C   0  0  0  0  0  0  0  0  0  0  0  0
  -26.5559  -26.4221   21.0287 C   0  0  0  0  0  0  0  0  0  0  0  0
  -32.3280  -13.2955   25.7042 C   0  0  0  0  0  0  0  0  0  0  0  0
  -32.0173  -12.8028   26.9715 C   0  0  0  0  0  0  0  0  0  0  0  0
  -26.9337  -28.6591   20.1913 C   0  0  0  0  0  0  0  0  0  0  0  0
  -31.9450  -15.0595   27.8313 C   0  0  0  0  0  0  0  0  0  0  0  0
  -30.1366  -14.2840   21.1415 C   0  0  0  0  0  0  0  0  0  0  0  0
  -29.0775  -12.7498   19.4002 C   0  0  0  0  0  0  0  0  0  0  0  0
  -17.9087  -30.2633   24.0478 C   0  0  0  0  0  0  0  0  0  0  0  0
  -24.8107  -28.0856   21.2158 C   0  0  0  0  0  0  0  0  0  0  0  0
  -18.6012  -29.9050   22.8755 C   0  0  0  0  0  0  0  0  0  0  0  0
  -25.6475  -29.0274   20.5949 C   0  0  0  0  0  0  0  0  0  0  0  0
  -31.8967  -14.8715   23.2247 C   0  0  0  0  0  0  0  0  0  0  0  0
  -27.3873  -27.3590   20.4144 C   0  0  0  0  0  0  0  0  0  0  0  0
  -32.4474  -14.6703   25.5003 C   0  0  0  0  0  0  0  0  0  0  0  0
  -31.8258  -13.6847   28.0351 C   0  0  0  0  0  0  0  0  0  0  0  0
  -32.2558  -15.5523   26.5639 C   0  0  0  0  0  0  0  0  0  0  0  0
  -29.2271  -13.9813   20.0658 C   0  0  0  0  0  0  0  0  0  0  0  0
  -28.0948  -12.9802   18.4688 C   0  0  0  0  0  0  0  0  0  0  0  0
  -29.7653  -11.5087   19.6057 C   0  0  0  0  0  0  0  0  0  0  0  0
  -22.0111  -30.5522   21.6078 C   0  0  0  0  0  0  0  0  0  0  0  0
  -24.6127  -32.0490   22.2414 C   0  0  0  0  0  0  0  0  0  0  0  0
  -27.6483  -33.2176   23.2693 C   0  0  0  0  0  0  0  0  0  0  0  0
  -29.3859  -16.8274   16.5585 C   0  0  0  0  0  0  0  0  0  0  0  0
  -18.0840  -31.6164   24.6906 C   0  0  0  0  0  0  0  0  0  0  0  0
  -23.4076  -28.4992   21.5680 C   0  0  0  0  0  0  0  0  0  0  0  0
  -25.1025  -30.4100   20.3616 C   0  0  0  0  0  0  0  0  0  0  0  0
  -19.3469  -32.3459   24.2397 C   0  0  0  0  0  0  0  0  0  0  0  0
  -26.6631  -17.4852   18.6889 C   0  0  0  0  0  0  0  0  0  0  0  0
  -19.4893  -32.2785   22.7224 C   0  0  0  0  0  0  0  0  0  0  0  0
  -29.6419  -24.1604   17.7818 C   0  0  0  0  0  0  0  0  0  0  0  0
  -30.2296  -23.5812   20.1724 C   0  0  0  0  0  0  0  0  0  0  0  0
  -25.8999  -16.1612   18.5827 C   0  0  0  0  0  0  0  0  0  0  0  0
  -29.3034  -25.5840   18.2138 C   0  0  0  0  0  0  0  0  0  0  0  0
  -29.8889  -25.0063   20.5979 C   0  0  0  0  0  0  0  0  0  0  0  0
  -31.6693  -19.6240   17.4162 C   0  0  0  0  0  0  0  0  0  0  0  0
  -29.8501  -20.4880   15.9018 C   0  0  0  0  0  0  0  0  0  0  0  0
  -27.2462  -17.9362   17.3522 C   0  0  0  0  0  0  0  0  0  0  0  0
  -31.3977  -18.2107   16.9063 C   0  0  0  0  0  0  0  0  0  0  0  0
  -29.6168  -19.0611   15.4143 C   0  0  0  0  0  0  0  0  0  0  0  0
  -27.2229  -15.6180   16.5128 C   0  0  0  0  0  0  0  0  0  0  0  0
  -33.5185  -22.9147   15.5983 C   0  0  0  0  0  0  0  0  0  0  0  0
  -19.6216  -30.8275   22.2446 C   0  0  1  0  0  0  0  0  0  0  0  0
  -23.3126  -29.9557   22.0568 C   0  0  1  0  0  0  0  0  0  0  0  0
  -30.6863  -23.5220   18.7081 C   0  0  0  0  0  0  0  0  0  0  0  0
  -26.6720  -15.0492   17.8372 C   0  0  1  0  0  0  0  0  0  0  0  0
  -31.2978  -20.6775   16.3677 C   0  0  0  0  0  0  0  0  0  0  0  0
  -28.8531  -25.6393   19.6712 C   0  0  0  0  0  0  0  0  0  1  0  0
  -32.8857  -22.4060   16.8775 C   0  0  2  0  0  0  0  0  0  0  0  0
  -28.7676  -35.2820   24.1541 C   0  0  0  0  0  0  0  0  0  0  0  0
  -24.5674  -33.2675   19.4455 C   0  0  0  0  0  0  0  0  0  0  0  0
  -26.4421  -34.7711   20.1475 C   0  0  0  0  0  0  0  0  0  0  0  0
  -24.2362  -34.9077   21.3042 C   0  0  0  0  0  0  0  0  0  0  0  0
  -28.4231  -31.8608   25.7827 C   0  0  0  0  0  0  0  0  0  0  0  0
  -30.9691  -22.0804   18.2893 C   0  0  0  0  0  0  0  0  0  0  0  0
  -25.7333  -32.9136   21.7218 C   0  0  1  0  0  0  0  0  0  0  0  0
  -28.0653  -33.9817   24.5130 C   0  0  2  0  0  0  0  0  0  0  0  0
  -25.2474  -33.9367   20.6566 C   0  0  0  0  0  0  0  0  0  0  0  0
  -28.4053  -14.9240   19.5969 N   0  0  0  0  0  0  0  0  0  0  0  0
  -27.7300  -14.2848   18.6266 N   0  0  0  0  0  0  0  0  0  0  0  0
  -24.3550  -30.8617   21.5455 N   0  0  0  0  0  0  0  0  0  0  0  0
  -27.9924  -16.8449   16.7184 N   0  0  0  0  0  0  0  0  0  0  0  0
  -30.0254  -18.0702   16.4195 N   0  0  0  0  0  0  0  0  0  0  0  0
  -27.5159  -12.1920   17.5381 N   0  0  0  0  0  0  0  0  0  0  0  0
  -29.2300  -10.5916   20.5204 N   0  0  0  0  0  0  0  0  0  0  0  0
  -20.9625  -30.3375   22.4819 N   0  0  0  0  0  0  0  0  0  0  0  0
  -26.3570  -33.5208   22.8926 N   0  0  0  0  0  0  0  0  0  0  0  0
  -31.4759  -22.0188   16.9186 N   0  0  2  0  0  0  0  0  0  0  0  0
  -33.1715  -23.8120   16.6804 N   0  3  0  0  0  0  0  0  0  0  0  0
  -28.9932  -33.1590   25.3395 N   0  3  0  0  0  0  0  0  0  0  0  0
  -30.8321  -11.2284   19.0083 O   0  0  0  0  0  0  0  0  0  0  0  0
  -21.9608  -31.1639   20.5472 O   0  0  0  0  0  0  0  0  0  0  0  0
  -23.9777  -32.4167   23.2339 O   0  0  0  0  0  0  0  0  0  0  0  0
  -28.3948  -32.4333   22.6877 O   0  0  0  0  0  0  0  0  0  0  0  0
  -30.0261  -15.7687   16.5453 O   0  0  0  0  0  0  0  0  0  0  0  0
  -32.7552  -15.1580   24.2413 O   0  0  0  0  0  0  0  0  0  0  0  0
  -28.6548  -27.0013   20.0342 O   0  0  0  0  0  0  0  0  0  1  0  0
  -31.5258  -13.2115   29.2517 F   0  0  0  0  0  0  0  0  0  0  0  0
  -32.3680  -16.8741   26.3739 F   0  0  0  0  0  0  0  0  0  0  0  0
  1  2  1  0  0  0  0
  1  5  2  0  0  0  0
  2  6  2  0  0  0  0
  3  8  2  0  0  0  0
  3 15  1  0  0  0  0
  4  9  1  0  0  0  0
  4 15  2  0  0  0  0
  5 17  1  0  0  0  0
  6 19  1  0  0  0  0
  7 10  2  0  0  0  0
  7 18  1  0  0  0  0
  8 21  1  0  0  0  0
  9 21  2  0  0  0  0
 10 22  1  0  0  0  0
 11 12  2  0  0  0  0
 11 23  1  0  0  0  0
 12 24  1  0  0  0  0
 13 20  1  0  0  0  0
 13 22  2  0  0  0  0
 14 24  2  0  0  0  0
 14 25  1  0  0  0  0
 15 26  1  0  0  0  0
 16 26  1  0  0  0  0
 16 27  2  0  0  0  0
 16 28  1  0  0  0  0
 17 19  2  0  0  0  0
 17 33  1  0  0  0  0
 18 20  2  0  0  0  0
 18 34  1  0  0  0  0
 19 51  1  0  0  0  0
 20 35  1  0  0  0  0
 21 84  1  0  0  0  0
 22 85  1  0  0  0  0
 23 25  2  0  0  0  0
 23 84  1  0  0  0  0
 24 86  1  0  0  0  0
 25 87  1  0  0  0  0
 26 67  2  0  0  0  0
 27 68  1  0  0  0  0
 27 72  1  0  0  0  0
 28 73  1  0  0  0  0
 28 79  2  0  0  0  0
 29 52  1  0  0  0  0
 29 74  1  0  0  0  0
 29 80  2  0  0  0  0
 30 64  1  0  0  0  0
 30 69  1  0  0  0  0
 30 81  2  0  0  0  0
 31 65  1  0  0  0  0
 31 75  1  0  0  0  0
 31 82  2  0  0  0  0
 32 70  1  0  0  0  0
 32 71  1  0  0  0  0
 32 83  2  0  0  0  0
 33 36  1  0  0  0  0
 34 52  1  0  0  0  0
 35 69  1  0  0  0  0
 36 38  1  0  0  0  0
 37 41  1  0  0  0  0
 37 46  1  0  0  0  0
 38 51  1  0  0  0  0
 39 42  1  0  0  0  0
 39 53  1  0  0  0  0
 40 43  1  0  0  0  0
 40 53  1  0  0  0  0
 41 54  1  0  0  0  0
 42 56  1  0  0  0  0
 43 56  1  0  0  0  0
 44 47  1  0  0  0  0
 44 55  1  0  0  0  0
 45 48  1  0  0  0  0
 45 55  1  0  0  0  0
 46 70  1  0  0  0  0
 47 71  1  0  0  0  0
 48 71  1  0  0  0  0
 49 54  1  0  0  0  0
 49 70  1  0  0  0  0
 50 57  1  0  0  0  0
 50 77  1  0  0  0  0
 51 74  1  0  0  0  0
 52 69  1  0  0  0  0
 53 63  1  0  0  0  0
 54 68  1  0  0  0  0
 55 76  1  0  0  0  0
 56 85  1  0  0  0  0
 57 76  1  0  0  0  0
 57 77  1  0  0  0  0
 58 65  1  0  0  0  0
 59 66  1  0  0  0  0
 60 66  1  0  0  0  0
 61 66  1  0  0  0  0
 62 78  1  0  0  0  0
 63 76  1  0  0  0  0
 64 66  1  0  0  0  0
 64 75  1  0  0  0  0
 65 78  1  0  0  0  0
 67 68  1  0  0  0  0
M  CHG  2  77   1  78   1
M  ISO  4  32 100  56 101  71 100  85 101
M  END
> <Batch ID>
0135

> <Smiles>
CNC(C)C(=O)NC(C(=O)N1Cc2cc([101O:1][101CH:1]3CCC(CN(C4CC[100N:0]([100C:0](=O)N5CCCC(n6nc(-c7ccc(Oc8ccc(F)cc8F)cc7)c(C(N)=O)c6N)C5)CC4)C4CN4)CC3)ccc2CC1C(=O)NC1CCCc2ccccc21)C(C)(C)C

> <Shape>
0.235

> <Color>
0.075

> <Negative vol penalty>
0.000

$$$$

  -OEChem-04052321003D

 87 96  0     1  0  0  0  0  0999 V2000
  -21.4906  -21.1382   20.1793 C   0  0  0  0  0  0  0  0  0  0  0  0
  -22.6531  -21.3627   20.9098 C   0  0  0  0  0  0  0  0  0  0  0  0
  -22.9854   -9.8771   19.9850 C   0  0  0  0  0  0  0  0  0  0  0  0
  -23.7218   -9.9238   22.2856 C   0  0  0  0  0  0  0  0  0  0  0  0
  -20.8864  -22.1901   19.4920 C   0  0  0  0  0  0  0  0  0  0  0  0
  -23.2127  -22.6392   20.9525 C   0  0  0  0  0  0  0  0  0  0  0  0
  -24.6227  -23.9869   25.6259 C   0  0  0  0  0  0  0  0  0  0  0  0
  -22.2121   -8.7481   20.2555 C   0  0  0  0  0  0  0  0  0  0  0  0
  -22.9485   -8.7948   22.5560 C   0  0  0  0  0  0  0  0  0  0  0  0
  -25.8174  -23.4548   26.1088 C   0  0  0  0  0  0  0  0  0  0  0  0
  -23.1670   -5.4541   22.0843 C   0  0  0  0  0  0  0  0  0  0  0  0
  -23.7509   -4.4330   22.8340 C   0  0  0  0  0  0  0  0  0  0  0  0
  -26.9462  -25.5182   25.5725 C   0  0  0  0  0  0  0  0  0  0  0  0
  -30.1517  -22.4841   26.1061 C   0  0  0  0  0  0  0  0  0  0  0  0
  -22.0368   -4.6887   24.5173 C   0  0  0  0  0  0  0  0  0  0  0  0
  -23.7403  -10.4649   21.0001 C   0  0  0  0  0  0  0  0  0  0  0  0
  -24.1425  -12.9776   20.8212 C   0  0  0  0  0  0  0  0  0  0  0  0
  -21.4336  -23.4822   19.5342 C   0  0  0  0  0  0  0  0  0  0  0  0
  -24.5830  -25.2870   25.1017 C   0  0  0  0  0  0  0  0  0  0  0  0
  -22.6160  -23.7091   20.2640 C   0  0  0  0  0  0  0  0  0  0  0  0
  -25.7491  -26.0654   25.0859 C   0  0  0  0  0  0  0  0  0  0  0  0
  -30.9467  -21.8050   25.1895 C   0  0  0  0  0  0  0  0  0  0  0  0
  -30.5293  -21.6873   23.8684 C   0  0  0  0  0  0  0  0  0  0  0  0
  -22.1937   -8.2070   21.5409 C   0  0  0  0  0  0  0  0  0  0  0  0
  -26.9800  -24.2194   26.0795 C   0  0  0  0  0  0  0  0  0  0  0  0
  -22.0180   -6.0925   22.5511 C   0  0  0  0  0  0  0  0  0  0  0  0
  -23.1858   -4.0503   24.0505 C   0  0  0  0  0  0  0  0  0  0  0  0
  -21.4529   -5.7098   23.7676 C   0  0  0  0  0  0  0  0  0  0  0  0
  -24.5397  -11.6308   20.7212 C   0  0  0  0  0  0  0  0  0  0  0  0
  -29.3184  -22.2620   23.5173 C   0  0  0  0  0  0  0  0  0  0  0  0
  -28.9577  -23.0232   25.6549 C   0  0  0  0  0  0  0  0  0  1  0  0
  -25.2556  -13.6922   20.4513 C   0  0  0  0  0  0  0  0  0  0  0  0
  -22.8803  -13.5331   21.2136 C   0  0  0  0  0  0  0  0  0  0  0  0
  -23.8968  -26.5408   22.2626 C   0  0  0  0  0  0  0  0  0  0  0  0
  -24.2127  -29.3463   23.8599 C   0  0  0  0  0  0  0  0  0  0  0  0
  -25.5429  -31.0386   26.5082 C   0  0  0  0  0  0  0  0  0  0  0  0
  -30.7596  -14.5881   20.6733 C   0  0  0  0  0  0  0  0  0  0  0  0
  -20.7711  -24.5774   18.7366 C   0  0  0  0  0  0  0  0  0  0  0  0
  -23.2806  -25.8559   24.6093 C   0  0  0  0  0  0  0  0  0  0  0  0
  -25.7553  -27.4738   24.5521 C   0  0  0  0  0  0  0  0  0  0  0  0
  -21.2193  -25.9802   19.1387 C   0  0  0  0  0  0  0  0  0  0  0  0
  -29.5906  -12.1716   18.3343 C   0  0  0  0  0  0  0  0  0  0  0  0
  -22.7384  -26.0397   19.2644 C   0  0  0  0  0  0  0  0  0  0  0  0
  -28.1424  -11.9223   18.7588 C   0  0  0  0  0  0  0  0  0  0  0  0
  -30.6316  -17.8401   20.7907 C   0  0  0  0  0  0  0  0  0  0  0  0
  -30.5004  -12.4011   19.5391 C   0  0  0  0  0  0  0  0  0  0  0  0
  -28.6024  -13.2106   20.8866 C   0  0  0  0  0  0  0  0  0  0  0  0
  -31.3086  -19.1530   21.1547 C   0  0  0  0  0  0  0  0  0  0  0  0
  -31.1144  -18.5932   23.5894 C   0  0  0  0  0  0  0  0  0  0  0  0
  -23.2395  -25.0850   20.3548 C   0  0  1  0  0  0  0  0  0  0  0  0
  -23.4654  -27.0063   23.6245 C   0  0  1  0  0  0  0  0  0  0  0  0
  -30.4322  -17.2629   23.2509 C   0  0  1  0  0  0  0  0  0  0  0  0
  -27.6364  -13.0293   19.7033 C   0  0  2  0  0  0  0  0  0  0  0  0
  -30.8633  -16.7668   21.8572 C   0  0  1  0  0  0  0  0  0  0  0  0
  -32.2387  -21.2127   25.6471 C   0  0  0  0  0  0  0  0  0  0  0  0
  -28.8178  -22.1680   22.1129 C   0  0  0  0  0  0  0  0  0  0  0  0
  -30.7477  -16.2375   24.3438 C   0  0  0  0  0  0  0  0  0  0  0  0
  -25.6557  -33.3295   27.5262 C   0  0  0  0  0  0  0  0  0  0  0  0
  -26.2099  -30.1979   21.7161 C   0  0  0  0  0  0  0  0  0  0  0  0
  -26.9773  -32.0191   23.2533 C   0  0  0  0  0  0  0  0  0  0  0  0
  -24.6215  -31.9914   22.4335 C   0  0  0  0  0  0  0  0  0  0  0  0
  -24.2538  -30.1178   29.0081 C   0  0  0  0  0  0  0  0  0  0  0  0
  -31.3618  -20.9651   22.8631 C   0  0  0  0  0  0  0  0  0  0  0  0
  -25.3562  -30.2879   24.1511 C   0  0  1  0  0  0  0  0  0  0  0  0
  -24.9201  -31.9986   27.5056 C   0  0  2  0  0  0  0  0  0  0  0  0
  -25.7919  -31.0969   22.8968 C   0  0  0  0  0  0  0  0  0  0  0  0
  -25.8062  -11.4952   20.3191 N   0  0  0  0  0  0  0  0  0  0  0  0
  -28.5190  -22.9292   24.3795 N   0  0  0  0  0  0  0  0  0  0  0  0
  -26.2144  -12.7660   20.1631 N   0  0  0  0  0  0  0  0  0  0  0  0
  -24.4585  -27.9830   24.0762 N   0  0  0  0  0  0  0  0  0  0  0  0
  -29.9652  -13.4639   20.3934 N   0  0  0  0  0  0  0  0  0  0  0  0
  -25.4980  -15.0162   20.3476 N   0  0  0  0  0  0  0  0  0  0  0  0
  -21.8439  -12.6564   21.5623 N   0  0  0  0  0  0  0  0  0  0  0  0
  -23.0191  -25.6556   21.6664 N   0  0  0  0  0  0  0  0  0  0  0  0
  -24.9291  -31.1132   25.2758 N   0  0  0  0  0  0  0  0  0  0  0  0
  -30.1739  -15.5513   21.4856 N   0  0  0  0  0  0  0  0  0  0  0  0
  -30.8293  -19.6198   22.5121 N   0  3  1  0  0  0  0  0  0  0  0  0
  -24.9601  -31.4182   28.8777 N   0  3  0  0  0  0  0  0  0  0  0  0
  -22.6724  -14.7699   21.2379 O   0  0  0  0  0  0  0  0  0  0  0  0
  -24.9475  -26.9552   21.7871 O   0  0  0  0  0  0  0  0  0  0  0  0
  -23.1386  -29.8043   23.4621 O   0  0  0  0  0  0  0  0  0  0  0  0
  -26.4825  -30.2992   26.7928 O   0  0  0  0  0  0  0  0  0  0  0  0
  -31.9039  -14.7257   20.2277 O   0  0  0  0  0  0  0  0  0  0  0  0
  -21.4391   -7.1055   21.8052 O   0  0  0  0  0  0  0  0  0  0  0  0
  -28.1477  -23.7023   26.5497 O   0  0  0  0  0  0  0  0  0  1  0  0
  -23.7458   -3.0687   24.7696 F   0  0  0  0  0  0  0  0  0  0  0  0
  -20.3485   -6.3187   24.2206 F   0  0  0  0  0  0  0  0  0  0  0  0
  1  2  1  0  0  0  0
  1  5  2  0  0  0  0
  2  6  2  0  0  0  0
  3  8  2  0  0  0  0
  3 16  1  0  0  0  0
  4  9  1  0  0  0  0
  4 16  2  0  0  0  0
  5 18  1  0  0  0  0
  6 20  1  0  0  0  0
  7 10  2  0  0  0  0
  7 19  1  0  0  0  0
  8 24  1  0  0  0  0
  9 24  2  0  0  0  0
 10 25  1  0  0  0  0
 11 12  2  0  0  0  0
 11 26  1  0  0  0  0
 12 27  1  0  0  0  0
 13 21  1  0  0  0  0
 13 25  2  0  0  0  0
 14 22  2  0  0  0  0
 14 31  1  0  0  0  0
 15 27  2  0  0  0  0
 15 28  1  0  0  0  0
 16 29  1  0  0  0  0
 17 29  1  0  0  0  0
 17 32  2  0  0  0  0
 17 33  1  0  0  0  0
 18 20  2  0  0  0  0
 18 38  1  0  0  0  0
 19 21  2  0  0  0  0
 19 39  1  0  0  0  0
 20 50  1  0  0  0  0
 21 40  1  0  0  0  0
 22 23  1  0  0  0  0
 22 55  1  0  0  0  0
 23 30  2  0  0  0  0
 23 63  1  0  0  0  0
 24 84  1  0  0  0  0
 25 85  1  0  0  0  0
 26 28  2  0  0  0  0
 26 84  1  0  0  0  0
 27 86  1  0  0  0  0
 28 87  1  0  0  0  0
 29 67  2  0  0  0  0
 30 56  1  0  0  0  0
 30 68  1  0  0  0  0
 31 68  2  0  0  0  0
 31 85  1  0  0  0  0
 32 69  1  0  0  0  0
 32 72  1  0  0  0  0
 33 73  1  0  0  0  0
 33 79  2  0  0  0  0
 34 51  1  0  0  0  0
 34 74  1  0  0  0  0
 34 80  2  0  0  0  0
 35 64  1  0  0  0  0
 35 70  1  0  0  0  0
 35 81  2  0  0  0  0
 36 65  1  0  0  0  0
 36 75  1  0  0  0  0
 36 82  2  0  0  0  0
 37 71  1  0  0  0  0
 37 76  1  0  0  0  0
 37 83  2  0  0  0  0
 38 41  1  0  0  0  0
 39 51  1  0  0  0  0
 40 70  1  0  0  0  0
 41 43  1  0  0  0  0
 42 44  1  0  0  0  0
 42 46  1  0  0  0  0
 43 50  1  0  0  0  0
 44 53  1  0  0  0  0
 45 48  1  0  0  0  0
 45 54  1  0  0  0  0
 46 71  1  0  0  0  0
 47 53  1  0  0  0  0
 47 71  1  0  0  0  0
 48 77  1  0  0  0  0
 49 52  1  0  0  0  0
 49 77  1  0  0  0  0
 50 74  1  0  0  0  0
 51 70  1  0  0  0  0
 52 54  1  0  0  0  0
 52 57  1  0  0  0  0
 53 69  1  0  0  0  0
 54 76  1  0  0  0  0
 58 65  1  0  0  0  0
 59 66  1  0  0  0  0
 60 66  1  0  0  0  0
 61 66  1  0  0  0  0
 62 78  1  0  0  0  0
 63 77  1  0  0  0  0
 64 66  1  0  0  0  0
 64 75  1  0  0  0  0
 65 78  1  0  0  0  0
 67 69  1  0  0  0  0
M  CHG  2  77   1  78   1
M  ISO  4  31 101  37 100  76 100  85 101
M  END
> <Batch ID>
0135

> <Smiles>
CNC(C)C(=O)NC(C(=O)N1Cc2cc([101O:1][101c:1]3cc(C)c(CN4CCC([100NH:0][100C:0](=O)N5CCCC(n6nc(-c7ccc(Oc8ccc(F)cc8F)cc7)c(C(N)=O)c6N)C5)C(C)C4)c(C)n3)ccc2CC1C(=O)NC1CCCc2ccccc21)C(C)(C)C

> <Shape>
0.254

> <Color>
0.197

> <Negative vol penalty>
0.000

$$$$

  -OEChem-04052321003D

 86 94  0     1  0  0  0  0  0999 V2000
  -29.5061  -11.5534   20.9596 C   0  0  0  0  0  0  0  0  0  0  0  0
  -29.5715  -12.9056   21.2800 C   0  0  0  0  0  0  0  0  0  0  0  0
  -30.2503  -21.5573   21.0705 C   0  0  0  0  0  0  0  0  0  0  0  0
  -28.3528  -21.2638   19.6040 C   0  0  0  0  0  0  0  0  0  0  0  0
  -28.5956  -11.1083   20.0021 C   0  0  0  0  0  0  0  0  0  0  0  0
  -28.7271  -13.8137   20.6422 C   0  0  0  0  0  0  0  0  0  0  0  0
  -25.1881  -19.9282   21.8278 C   0  0  0  0  0  0  0  0  0  0  0  0
  -30.5850  -20.2132   20.9065 C   0  0  0  0  0  0  0  0  0  0  0  0
  -28.6875  -19.9196   19.4401 C   0  0  0  0  0  0  0  0  0  0  0  0
  -25.0217  -21.1998   21.2808 C   0  0  0  0  0  0  0  0  0  0  0  0
  -32.1102  -18.2918   18.5795 C   0  0  0  0  0  0  0  0  0  0  0  0
  -33.4496  -17.9812   18.3448 C   0  0  0  0  0  0  0  0  0  0  0  0
  -23.5279  -26.2301   17.3358 C   0  0  0  0  0  0  0  0  0  0  0  0
  -24.0738  -24.9570   17.6327 C   0  0  0  0  0  0  0  0  0  0  0  0
  -23.4337  -20.3056   19.7004 C   0  0  0  0  0  0  0  0  0  0  0  0
  -33.4888  -16.6350   20.3507 C   0  0  0  0  0  0  0  0  0  0  0  0
  -29.1342  -22.0826   20.4193 C   0  0  0  0  0  0  0  0  0  0  0  0
  -29.2236  -24.5574   19.8068 C   0  0  0  0  0  0  0  0  0  0  0  0
  -27.7330  -12.0101   19.3593 C   0  0  0  0  0  0  0  0  0  0  0  0
  -24.4856  -18.8319   21.3071 C   0  0  0  0  0  0  0  0  0  0  0  0
  -27.8051  -13.3805   19.6743 C   0  0  0  0  0  0  0  0  0  0  0  0
  -23.5910  -19.0216   20.2442 C   0  0  0  0  0  0  0  0  0  0  0  0
  -29.8036  -19.3943   20.0913 C   0  0  0  0  0  0  0  0  0  0  0  0
  -24.1466  -21.3881   20.2151 C   0  0  0  0  0  0  0  0  0  0  0  0
  -31.4600  -17.7741   19.6998 C   0  0  0  0  0  0  0  0  0  0  0  0
  -34.1389  -17.1528   19.2304 C   0  0  0  0  0  0  0  0  0  0  0  0
  -32.1494  -16.9457   20.5853 C   0  0  0  0  0  0  0  0  0  0  0  0
  -28.7877  -23.4709   20.5887 C   0  0  0  0  0  0  0  0  0  0  0  0
  -22.1881  -26.1874   17.6530 C   0  0  0  0  0  0  0  0  0  0  0  0
  -23.0509  -24.1749   18.1221 C   0  0  0  0  0  0  0  0  0  0  0  0
  -28.6165  -25.6523   20.3717 C   0  0  0  0  0  0  0  0  0  0  0  0
  -30.0989  -24.5753   18.6714 C   0  0  0  0  0  0  0  0  0  0  0  0
  -25.3096  -16.0945   19.9175 C   0  0  0  0  0  0  0  0  0  0  0  0
  -22.1283  -15.4902   20.1096 C   0  0  0  0  0  0  0  0  0  0  0  0
  -18.9541  -16.7221   20.3415 C   0  0  0  0  0  0  0  0  0  0  0  0
  -24.1212  -28.1416   22.5492 C   0  0  0  0  0  0  0  0  0  0  0  0
  -26.7982  -11.4885   18.2968 C   0  0  0  0  0  0  0  0  0  0  0  0
  -24.6561  -17.4715   21.9257 C   0  0  0  0  0  0  0  0  0  0  0  0
  -22.7979  -17.8812   19.6621 C   0  0  0  0  0  0  0  0  0  0  0  0
  -25.6794  -12.4631   17.9380 C   0  0  0  0  0  0  0  0  0  0  0  0
  -26.0951  -26.1356   24.7301 C   0  0  0  0  0  0  0  0  0  0  0  0
  -26.2393  -13.8676   17.7361 C   0  0  0  0  0  0  0  0  0  0  0  0
  -27.0026  -25.3491   23.7825 C   0  0  0  0  0  0  0  0  0  0  0  0
  -24.7003  -26.3339   24.1408 C   0  0  0  0  0  0  0  0  0  0  0  0
  -25.5840  -26.1505   21.8475 C   0  0  0  0  0  0  0  0  0  0  0  0
  -26.8887  -14.3928   19.0221 C   0  0  1  0  0  0  0  0  0  0  0  0
  -24.2767  -16.3343   20.9821 C   0  0  1  0  0  0  0  0  0  0  0  0
  -27.0184  -25.9735   22.3743 C   0  0  2  0  0  0  0  0  0  0  0  0
  -16.5574  -15.9851   20.4407 C   0  0  0  0  0  0  0  0  0  0  0  0
  -20.6067  -24.1104   20.0585 C   0  0  0  0  0  0  0  0  0  0  0  0
  -20.0757  -23.3350   17.7084 C   0  0  0  0  0  0  0  0  0  0  0  0
  -21.5856  -31.0028   19.8254 C   0  0  0  0  0  0  0  0  0  0  0  0
  -22.1838  -14.9149   17.1136 C   0  0  0  0  0  0  0  0  0  0  0  0
  -19.6890  -15.1244   17.0979 C   0  0  0  0  0  0  0  0  0  0  0  0
  -20.7802  -13.3368   18.4531 C   0  0  0  0  0  0  0  0  0  0  0  0
  -18.5681  -17.9428   23.0098 C   0  0  0  0  0  0  0  0  0  0  0  0
  -21.1547  -27.2373   17.5405 C   0  0  0  0  0  0  0  0  0  0  0  0
  -23.0701  -22.7489   18.5887 C   0  0  0  0  0  0  0  0  0  1  0  0
  -23.6395  -29.8808   20.8456 C   0  0  0  0  0  0  0  0  0  0  0  0
  -20.9998  -28.1197   18.7871 C   0  0  0  0  0  0  0  0  0  0  0  0
  -20.9366  -15.7416   19.2177 C   0  0  1  0  0  0  0  0  0  0  0  0
  -17.7935  -16.3516   21.2471 C   0  0  2  0  0  0  0  0  0  0  0  0
  -20.6084  -24.4787   18.5736 C   0  0  0  0  0  0  0  0  0  0  0  0
  -22.2343  -29.7009   20.2753 C   0  0  2  0  0  0  0  0  0  0  0  0
  -20.9137  -14.8008   17.9801 C   0  0  0  0  0  0  0  0  0  0  0  0
  -27.9672  -23.8419   21.5752 N   0  0  0  0  0  0  0  0  0  0  0  0
  -21.9094  -24.9331   18.1297 N   0  0  0  0  0  0  0  0  0  0  0  0
  -27.8828  -25.1738   21.4171 N   0  0  0  0  0  0  0  0  0  0  0  0
  -23.0040  -16.5690   20.2971 N   0  0  0  0  0  0  0  0  0  0  0  0
  -24.7856  -26.9309   22.8058 N   0  0  0  0  0  0  0  0  0  0  0  0
  -28.6442  -26.9682   20.0713 N   0  0  0  0  0  0  0  0  0  0  0  0
  -30.6351  -23.3609   18.2219 N   0  0  0  0  0  0  0  0  0  0  0  0
  -25.8752  -14.8343   19.9562 N   0  0  0  0  0  0  0  0  0  0  0  0
  -19.7582  -15.6351   20.0712 N   0  0  0  0  0  0  0  0  0  0  0  0
  -24.2589  -28.6417   21.2601 N   0  0  0  0  0  0  0  0  0  0  0  0
  -17.4497  -17.4930   22.1416 N   0  3  0  0  0  0  0  0  0  0  0  0
  -22.2909  -28.7750   19.1115 N   0  3  0  0  0  0  0  0  0  0  0  0
  -30.4097  -25.6388   18.0832 O   0  0  0  0  0  0  0  0  0  0  0  0
  -25.5727  -16.9861   19.1192 O   0  0  0  0  0  0  0  0  0  0  0  0
  -22.2730  -14.3797   20.6268 O   0  0  0  0  0  0  0  0  0  0  0  0
  -19.1278  -17.8610   19.9134 O   0  0  0  0  0  0  0  0  0  0  0  0
  -23.4592  -28.7357   23.4069 O   0  0  0  0  0  0  0  0  0  0  0  0
  -30.1300  -18.0827   19.9309 O   0  0  0  0  0  0  0  0  0  0  0  0
  -23.9828  -22.6281   19.6790 O   0  0  0  0  0  0  0  0  0  1  0  0
  -35.4247  -16.8534   19.0041 F   0  0  0  0  0  0  0  0  0  0  0  0
  -31.5298  -16.4443   21.6627 F   0  0  0  0  0  0  0  0  0  0  0  0
  1  2  1  0  0  0  0
  1  5  2  0  0  0  0
  2  6  2  0  0  0  0
  3  8  2  0  0  0  0
  3 17  1  0  0  0  0
  4  9  1  0  0  0  0
  4 17  2  0  0  0  0
  5 19  1  0  0  0  0
  6 21  1  0  0  0  0
  7 10  2  0  0  0  0
  7 20  1  0  0  0  0
  8 23  1  0  0  0  0
  9 23  2  0  0  0  0
 10 24  1  0  0  0  0
 11 12  2  0  0  0  0
 11 25  1  0  0  0  0
 12 26  1  0  0  0  0
 13 14  1  0  0  0  0
 13 29  2  0  0  0  0
 14 30  2  0  0  0  0
 15 22  1  0  0  0  0
 15 24  2  0  0  0  0
 16 26  2  0  0  0  0
 16 27  1  0  0  0  0
 17 28  1  0  0  0  0
 18 28  1  0  0  0  0
 18 31  2  0  0  0  0
 18 32  1  0  0  0  0
 19 21  2  0  0  0  0
 19 37  1  0  0  0  0
 20 22  2  0  0  0  0
 20 38  1  0  0  0  0
 21 46  1  0  0  0  0
 22 39  1  0  0  0  0
 23 83  1  0  0  0  0
 24 84  1  0  0  0  0
 25 27  2  0  0  0  0
 25 83  1  0  0  0  0
 26 85  1  0  0  0  0
 27 86  1  0  0  0  0
 28 66  2  0  0  0  0
 29 57  1  0  0  0  0
 29 67  1  0  0  0  0
 30 58  1  0  0  0  0
 30 67  1  0  0  0  0
 31 68  1  0  0  0  0
 31 71  1  0  0  0  0
 32 72  1  0  0  0  0
 32 78  2  0  0  0  0
 33 47  1  0  0  0  0
 33 73  1  0  0  0  0
 33 79  2  0  0  0  0
 34 61  1  0  0  0  0
 34 69  1  0  0  0  0
 34 80  2  0  0  0  0
 35 62  1  0  0  0  0
 35 74  1  0  0  0  0
 35 81  2  0  0  0  0
 36 70  1  0  0  0  0
 36 75  1  0  0  0  0
 36 82  2  0  0  0  0
 37 40  1  0  0  0  0
 38 47  1  0  0  0  0
 39 69  1  0  0  0  0
 40 42  1  0  0  0  0
 41 43  1  0  0  0  0
 41 44  1  0  0  0  0
 42 46  1  0  0  0  0
 43 48  1  0  0  0  0
 44 70  1  0  0  0  0
 45 48  1  0  0  0  0
 45 70  1  0  0  0  0
 46 73  1  0  0  0  0
 47 69  1  0  0  0  0
 48 68  1  0  0  0  0
 49 62  1  0  0  0  0
 50 63  1  0  0  0  0
 51 63  1  0  0  0  0
 52 64  1  0  0  0  0
 53 65  1  0  0  0  0
 54 65  1  0  0  0  0
 55 65  1  0  0  0  0
 56 76  1  0  0  0  0
 57 60  1  0  0  0  0
 58 84  1  0  0  0  0
 59 64  1  0  0  0  0
 59 75  1  0  0  0  0
 60 77  1  0  0  0  0
 61 65  1  0  0  0  0
 61 74  1  0  0  0  0
 62 76  1  0  0  0  0
 63 67  1  0  0  0  0
 64 77  1  0  0  0  0
 66 68  1  0  0  0  0
M  CHG  2  76   1  77   1
M  ISO  4  36 100  58 101  75 100  84 101
M  END
> <Batch ID>
0135

> <Smiles>
CNC(C)C(=O)NC(C(=O)N1Cc2cc([101O:1][101CH2:1]c3ccc(CCNC(C)C[100NH:0][100C:0](=O)N4CCCC(n5nc(-c6ccc(Oc7ccc(F)cc7F)cc6)c(C(N)=O)c5N)C4)n3C(C)C)ccc2CC1C(=O)NC1CCCc2ccccc21)C(C)(C)C

> <Shape>
0.167

> <Color>
0.092

> <Negative vol penalty>
0.000

$$$$

  -OEChem-04052321003D

 85 94  0     1  0  0  0  0  0999 V2000
  -38.0125  -20.8022   32.0227 C   0  0  0  0  0  0  0  0  0  0  0  0
  -37.2543  -20.5458   30.8848 C   0  0  0  0  0  0  0  0  0  0  0  0
  -22.9998   -9.8939   19.9826 C   0  0  0  0  0  0  0  0  0  0  0  0
  -23.7289   -9.9454   22.2854 C   0  0  0  0  0  0  0  0  0  0  0  0
  -37.4557  -21.5145   33.0841 C   0  0  0  0  0  0  0  0  0  0  0  0
  -35.9384  -21.0007   30.8081 C   0  0  0  0  0  0  0  0  0  0  0  0
  -33.0063  -22.9594   25.8009 C   0  0  0  0  0  0  0  0  0  0  0  0
  -22.2346   -8.7588   20.2503 C   0  0  0  0  0  0  0  0  0  0  0  0
  -22.9637   -8.8103   22.5531 C   0  0  0  0  0  0  0  0  0  0  0  0
  -32.1129  -22.3342   24.9323 C   0  0  0  0  0  0  0  0  0  0  0  0
  -21.4868   -5.7161   23.7590 C   0  0  0  0  0  0  0  0  0  0  0  0
  -22.0749   -4.7007   24.5131 C   0  0  0  0  0  0  0  0  0  0  0  0
  -30.2653  -23.2790   26.1623 C   0  0  0  0  0  0  0  0  0  0  0  0
  -23.7985   -4.4549   22.8380 C   0  0  0  0  0  0  0  0  0  0  0  0
  -29.2586  -18.5787   25.3652 C   0  0  0  0  0  0  0  0  0  0  0  0
  -23.7470  -10.4872   21.0002 C   0  0  0  0  0  0  0  0  0  0  0  0
  -24.1300  -13.0031   20.8235 C   0  0  0  0  0  0  0  0  0  0  0  0
  -36.1355  -21.9867   33.0164 C   0  0  0  0  0  0  0  0  0  0  0  0
  -32.5350  -23.7416   26.8651 C   0  0  0  0  0  0  0  0  0  0  0  0
  -35.3630  -21.7188   31.8701 C   0  0  0  0  0  0  0  0  0  0  0  0
  -31.1549  -23.9152   27.0415 C   0  0  0  0  0  0  0  0  0  0  0  0
  -29.5004  -18.4809   23.0270 C   0  0  0  0  0  0  0  0  0  0  0  0
  -30.3413  -17.3797   23.1912 C   0  0  0  0  0  0  0  0  0  0  0  0
  -28.9371  -19.1058   24.1230 C   0  0  0  0  0  0  0  0  0  0  0  0
  -22.2165   -8.2170   21.5355 C   0  0  0  0  0  0  0  0  0  0  0  0
  -30.7421  -22.4915   25.1146 C   0  0  0  0  0  0  0  0  0  0  0  0
  -22.0545   -6.1008   22.5443 C   0  0  0  0  0  0  0  0  0  0  0  0
  -23.2308   -4.0702   24.0527 C   0  0  0  0  0  0  0  0  0  0  0  0
  -23.2103   -5.4703   22.0838 C   0  0  0  0  0  0  0  0  0  0  0  0
  -24.5381  -11.6594   20.7242 C   0  0  0  0  0  0  0  0  0  0  0  0
  -30.5984  -16.9231   24.4641 C   0  0  0  0  0  0  0  0  0  0  0  0
  -25.2386  -13.7265   20.4572 C   0  0  0  0  0  0  0  0  0  0  0  0
  -22.8623  -13.5485   21.2122 C   0  0  0  0  0  0  0  0  0  0  0  0
  -32.7607  -23.5904   30.0321 C   0  0  0  0  0  0  0  0  0  0  0  0
  -31.2733  -26.4693   29.8859 C   0  0  0  0  0  0  0  0  0  0  0  0
  -29.2712  -28.6106   28.1384 C   0  0  0  0  0  0  0  0  0  0  0  0
  -30.7346  -14.6655   20.6961 C   0  0  0  0  0  0  0  0  0  0  0  0
  -35.5616  -22.7113   34.2082 C   0  0  0  0  0  0  0  0  0  0  0  0
  -33.5122  -24.4312   27.7773 C   0  0  0  0  0  0  0  0  0  0  0  0
  -30.5981  -24.7611   28.1563 C   0  0  0  0  0  0  0  0  0  0  0  0
  -34.2821  -23.4822   33.8942 C   0  0  0  0  0  0  0  0  0  0  0  0
  -29.5917  -12.2409   18.3526 C   0  0  0  0  0  0  0  0  0  0  0  0
  -33.3221  -22.6163   33.0846 C   0  0  0  0  0  0  0  0  0  0  0  0
  -28.1442  -11.9800   18.7727 C   0  0  0  0  0  0  0  0  0  0  0  0
  -30.4790  -18.0150   20.9361 C   0  0  0  0  0  0  0  0  0  0  0  0
  -30.4961  -12.4770   19.5603 C   0  0  0  0  0  0  0  0  0  0  0  0
  -28.5877  -13.2710   20.9024 C   0  0  0  0  0  0  0  0  0  0  0  0
  -29.3218  -18.8177   21.5747 C   0  0  1  0  0  0  0  0  0  0  0  0
  -33.9401  -22.2171   31.7392 C   0  0  1  0  0  0  0  0  0  0  0  0
  -30.8177  -16.8444   21.8812 C   0  0  2  0  0  0  0  0  0  0  0  0
  -32.9140  -24.7860   29.1351 C   0  0  1  0  0  0  0  0  0  0  0  0
  -27.6267  -13.0826   19.7161 C   0  0  2  0  0  0  0  0  0  0  0  0
  -31.5018  -15.7638   24.7084 C   0  0  0  0  0  0  0  0  0  0  0  0
  -27.8012  -18.7167   19.5926 C   0  0  0  0  0  0  0  0  0  0  0  0
  -28.2000  -30.8747   28.2928 C   0  0  0  0  0  0  0  0  0  0  0  0
  -29.1853  -25.3477   31.8074 C   0  0  0  0  0  0  0  0  0  0  0  0
  -27.6872  -27.2536   31.1819 C   0  0  0  0  0  0  0  0  0  0  0  0
  -29.8809  -27.7026   32.2814 C   0  0  0  0  0  0  0  0  0  0  0  0
  -30.7271  -29.5901   25.7551 C   0  0  0  0  0  0  0  0  0  0  0  0
  -28.0431  -20.3178   24.0307 C   0  0  0  0  0  0  0  0  0  0  0  0
  -27.9534  -18.4055   21.0471 C   0  0  0  0  0  0  0  0  0  0  0  0
  -28.5989  -21.5086   24.8042 C   0  0  0  0  0  0  0  0  0  1  0  0
  -29.8359  -26.9307   29.8743 C   0  0  1  0  0  0  0  0  0  0  0  0
  -29.4125  -30.0881   27.8198 C   0  0  2  0  0  0  0  0  0  0  0  0
  -29.1575  -26.7911   31.2663 C   0  0  0  0  0  0  0  0  0  0  0  0
  -30.0720  -17.5072   25.5648 N   0  0  0  0  0  0  0  0  0  0  0  0
  -25.8067  -11.5339   20.3258 N   0  0  0  0  0  0  0  0  0  0  0  0
  -26.2054  -12.8080   20.1715 N   0  0  0  0  0  0  0  0  0  0  0  0
  -31.5937  -25.4097   29.0255 N   0  0  0  0  0  0  0  0  0  0  0  0
  -29.9499  -13.5353   20.4133 N   0  0  0  0  0  0  0  0  0  0  0  0
  -25.4708  -15.0524   20.3547 N   0  0  0  0  0  0  0  0  0  0  0  0
  -21.8318  -12.6635   21.5576 N   0  0  0  0  0  0  0  0  0  0  0  0
  -33.8738  -23.3208   30.8053 N   0  0  0  0  0  0  0  0  0  0  0  0
  -29.8483  -28.2918   29.3495 N   0  0  0  0  0  0  0  0  0  0  0  0
  -30.1389  -15.6238   21.5070 N   0  0  0  0  0  0  0  0  0  0  0  0
  -29.5593  -30.2894   26.3505 N   0  3  0  0  0  0  0  0  0  0  0  0
  -22.6446  -14.7836   21.2364 O   0  0  0  0  0  0  0  0  0  0  0  0
  -31.7099  -22.9601   30.0244 O   0  0  0  0  0  0  0  0  0  0  0  0
  -32.0834  -27.0332   30.6257 O   0  0  0  0  0  0  0  0  0  0  0  0
  -28.7024  -27.8191   27.3897 O   0  0  0  0  0  0  0  0  0  0  0  0
  -31.8792  -14.8123   20.2541 O   0  0  0  0  0  0  0  0  0  0  0  0
  -21.4698   -7.1095   21.7971 O   0  0  0  0  0  0  0  0  0  0  0  0
  -29.8678  -21.8818   24.2686 O   0  0  0  0  0  0  0  0  0  1  0  0
  -23.7964   -3.0962   24.7778 F   0  0  0  0  0  0  0  0  0  0  0  0
  -23.7610   -5.8364   20.9183 F   0  0  0  0  0  0  0  0  0  0  0  0
  1  2  1  0  0  0  0
  1  5  2  0  0  0  0
  2  6  2  0  0  0  0
  3  8  2  0  0  0  0
  3 16  1  0  0  0  0
  4  9  1  0  0  0  0
  4 16  2  0  0  0  0
  5 18  1  0  0  0  0
  6 20  1  0  0  0  0
  7 10  2  0  0  0  0
  7 19  1  0  0  0  0
  8 25  1  0  0  0  0
  9 25  2  0  0  0  0
 10 26  1  0  0  0  0
 11 12  2  0  0  0  0
 11 27  1  0  0  0  0
 12 28  1  0  0  0  0
 13 21  1  0  0  0  0
 13 26  2  0  0  0  0
 14 28  2  0  0  0  0
 14 29  1  0  0  0  0
 15 24  2  0  0  0  0
 15 66  1  0  0  0  0
 16 30  1  0  0  0  0
 17 30  1  0  0  0  0
 17 32  2  0  0  0  0
 17 33  1  0  0  0  0
 18 20  2  0  0  0  0
 18 38  1  0  0  0  0
 19 21  2  0  0  0  0
 19 39  1  0  0  0  0
 20 49  1  0  0  0  0
 21 40  1  0  0  0  0
 22 23  2  0  0  0  0
 22 24  1  0  0  0  0
 22 48  1  0  0  0  0
 23 31  1  0  0  0  0
 23 50  1  0  0  0  0
 24 60  1  0  0  0  0
 25 82  1  0  0  0  0
 26 83  1  0  0  0  0
 27 29  2  0  0  0  0
 27 82  1  0  0  0  0
 28 84  1  0  0  0  0
 29 85  1  0  0  0  0
 30 67  2  0  0  0  0
 31 53  1  0  0  0  0
 31 66  2  0  0  0  0
 32 68  1  0  0  0  0
 32 71  1  0  0  0  0
 33 72  1  0  0  0  0
 33 77  2  0  0  0  0
 34 51  1  0  0  0  0
 34 73  1  0  0  0  0
 34 78  2  0  0  0  0
 35 63  1  0  0  0  0
 35 69  1  0  0  0  0
 35 79  2  0  0  0  0
 36 64  1  0  0  0  0
 36 74  1  0  0  0  0
 36 80  2  0  0  0  0
 37 70  1  0  0  0  0
 37 75  1  0  0  0  0
 37 81  2  0  0  0  0
 38 41  1  0  0  0  0
 39 51  1  0  0  0  0
 40 69  1  0  0  0  0
 41 43  1  0  0  0  0
 42 44  1  0  0  0  0
 42 46  1  0  0  0  0
 43 49  1  0  0  0  0
 44 52  1  0  0  0  0
 45 48  1  0  0  0  0
 45 50  1  0  0  0  0
 46 70  1  0  0  0  0
 47 52  1  0  0  0  0
 47 70  1  0  0  0  0
 48 61  1  0  0  0  0
 49 73  1  0  0  0  0
 50 75  1  0  0  0  0
 51 69  1  0  0  0  0
 52 68  1  0  0  0  0
 54 61  1  0  0  0  0
 55 64  1  0  0  0  0
 56 65  1  0  0  0  0
 57 65  1  0  0  0  0
 58 65  1  0  0  0  0
 59 76  1  0  0  0  0
 60 62  1  0  0  0  0
 62 83  1  0  0  0  0
 63 65  1  0  0  0  0
 63 74  1  0  0  0  0
 64 76  1  0  0  0  0
 67 68  1  0  0  0  0
M  CHG  1  76   1
M  ISO  4  37 100  62 101  75 100  83 101
M  END
> <Batch ID>
0135

> <Smiles>
CCC1CC([100NH:0][100C:0](=O)N2CCCC(n3nc(-c4ccc(Oc5ccc(F)cc5F)cc4)c(C(N)=O)c3N)C2)c2c(C)ncc(C[101CH2:1][101O:1]c3ccc4c(c3)CN(C(=O)C(NC(=O)C(C)NC)C(C)(C)C)C(C(=O)NC3CCCc5ccccc53)C4)c21

> <Shape>
0.191

> <Color>
0.193

> <Negative vol penalty>
0.000

$$$$

  -OEChem-04052321003D

 86 94  0     1  0  0  0  0  0999 V2000
  -16.5264  -28.6706   23.9434 C   0  0  0  0  0  0  0  0  0  0  0  0
  -17.5100  -27.7880   23.5088 C   0  0  0  0  0  0  0  0  0  0  0  0
  -22.6787  -23.2747   26.7764 C   0  0  0  0  0  0  0  0  0  0  0  0
  -24.2778  -21.8659   27.9146 C   0  0  0  0  0  0  0  0  0  0  0  0
  -16.6187  -30.0256   23.6283 C   0  0  0  0  0  0  0  0  0  0  0  0
  -18.5861  -28.2597   22.7579 C   0  0  0  0  0  0  0  0  0  0  0  0
  -25.5542  -27.0513   21.6171 C   0  0  0  0  0  0  0  0  0  0  0  0
  -21.7249  -22.9789   27.7503 C   0  0  0  0  0  0  0  0  0  0  0  0
  -23.3240  -21.5702   28.8886 C   0  0  0  0  0  0  0  0  0  0  0  0
  -26.4520  -26.8281   20.5741 C   0  0  0  0  0  0  0  0  0  0  0  0
  -20.6359  -19.5448   29.2092 C   0  0  0  0  0  0  0  0  0  0  0  0
  -20.5013  -18.2130   29.6012 C   0  0  0  0  0  0  0  0  0  0  0  0
  -26.5485  -29.2022   20.1572 C   0  0  0  0  0  0  0  0  0  0  0  0
  -29.7189  -23.8764   17.5313 C   0  0  0  0  0  0  0  0  0  0  0  0
  -21.0643  -18.8238   31.8699 C   0  0  0  0  0  0  0  0  0  0  0  0
  -23.9551  -22.7181   26.8585 C   0  0  0  0  0  0  0  0  0  0  0  0
  -25.8669  -24.0827   25.8634 C   0  0  0  0  0  0  0  0  0  0  0  0
  -17.7015  -30.5158   22.8813 C   0  0  0  0  0  0  0  0  0  0  0  0
  -25.1377  -28.3529   21.9315 C   0  0  0  0  0  0  0  0  0  0  0  0
  -18.6923  -29.6224   22.4313 C   0  0  0  0  0  0  0  0  0  0  0  0
  -25.6473  -29.4394   21.2063 C   0  0  0  0  0  0  0  0  0  0  0  0
  -29.3783  -25.0348   16.8418 C   0  0  0  0  0  0  0  0  0  0  0  0
  -29.8971  -26.2584   17.2506 C   0  0  0  0  0  0  0  0  0  0  0  0
  -22.0476  -22.1267   28.8064 C   0  0  0  0  0  0  0  0  0  0  0  0
  -26.9471  -27.9034   19.8421 C   0  0  0  0  0  0  0  0  0  0  0  0
  -20.9848  -20.5162   30.1476 C   0  0  0  0  0  0  0  0  0  0  0  0
  -20.7155  -17.8524   30.9315 C   0  0  0  0  0  0  0  0  0  0  0  0
  -21.1989  -20.1556   31.4779 C   0  0  0  0  0  0  0  0  0  0  0  0
  -24.9406  -23.0228   25.8525 C   0  0  0  0  0  0  0  0  0  0  0  0
  -30.7453  -26.2698   18.3461 C   0  0  0  0  0  0  0  0  0  0  0  0
  -30.5752  -23.9944   18.6141 C   0  0  0  0  0  0  0  0  0  0  0  0
  -26.5711  -23.9353   24.6934 C   0  0  0  0  0  0  0  0  0  0  0  0
  -26.0725  -25.1088   26.8435 C   0  0  0  0  0  0  0  0  0  0  0  0
  -22.3463  -29.8734   21.9436 C   0  0  0  0  0  0  0  0  0  0  0  0
  -24.0957  -32.2626   23.2680 C   0  0  0  0  0  0  0  0  0  0  0  0
  -27.1516  -33.7191   23.7001 C   0  0  0  0  0  0  0  0  0  0  0  0
  -29.2536  -20.7258   20.9990 C   0  0  0  0  0  0  0  0  0  0  0  0
  -17.7336  -31.9810   22.5251 C   0  0  0  0  0  0  0  0  0  0  0  0
  -24.1893  -28.5791   23.0768 C   0  0  0  0  0  0  0  0  0  0  0  0
  -25.2473  -30.8578   21.5171 C   0  0  0  0  0  0  0  0  0  0  0  0
  -19.1005  -32.4611   22.0441 C   0  0  0  0  0  0  0  0  0  0  0  0
  -25.7152  -20.9682   20.6871 C   0  0  0  0  0  0  0  0  0  0  0  0
  -19.6779  -31.4888   21.0204 C   0  0  0  0  0  0  0  0  0  0  0  0
  -25.2746  -21.6057   22.0060 C   0  0  0  0  0  0  0  0  0  0  0  0
  -26.8854  -20.0078   20.8877 C   0  0  0  0  0  0  0  0  0  0  0  0
  -27.6073  -21.2232   22.9065 C   0  0  0  0  0  0  0  0  0  0  0  0
  -19.8877  -30.1000   21.6357 C   0  0  1  0  0  0  0  0  0  0  0  0
  -23.4367  -29.9024   22.9770 C   0  0  1  0  0  0  0  0  0  0  0  0
  -26.4660  -22.2421   22.7468 C   0  0  2  0  0  0  0  0  0  0  0  0
  -28.4594  -24.9352   15.6683 C   0  0  0  0  0  0  0  0  0  0  0  0
  -31.3334  -27.5533   18.8360 C   0  0  0  0  0  0  0  0  0  0  0  0
  -28.2599  -35.6824   24.8022 C   0  0  0  0  0  0  0  0  0  0  0  0
  -28.1667  -28.8803   15.2622 C   0  0  0  0  0  0  0  0  0  0  0  0
  -23.0134  -34.0970   21.0832 C   0  0  0  0  0  0  0  0  0  0  0  0
  -24.8347  -35.7214   21.6418 C   0  0  0  0  0  0  0  0  0  0  0  0
  -23.1213  -35.1333   23.3567 C   0  0  0  0  0  0  0  0  0  0  0  0
  -28.8442  -31.9676   25.3813 C   0  0  0  0  0  0  0  0  0  0  0  0
  -31.7820  -22.7940   20.4385 C   0  0  0  0  0  0  0  0  0  0  0  0
  -31.5908  -21.5220   21.2503 C   0  0  0  0  0  0  0  0  0  0  0  0
  -27.7980  -28.6154   17.7385 C   0  0  0  0  0  0  0  0  0  1  0  0
  -24.8851  -33.4327   22.7329 C   0  0  1  0  0  0  0  0  0  0  0  0
  -27.8609  -34.2218   24.9446 C   0  0  2  0  0  0  0  0  0  0  0  0
  -28.2215  -27.9225   16.4451 C   0  0  2  0  0  0  0  0  0  0  0  0
  -23.9699  -34.5693   22.1963 C   0  0  0  0  0  0  0  0  0  0  0  0
  -25.0443  -22.2585   24.7620 N   0  0  0  0  0  0  0  0  0  0  0  0
  -31.0990  -25.1653   19.0409 N   0  0  0  0  0  0  0  0  0  0  0  0
  -26.0440  -22.8390   24.0767 N   0  0  0  0  0  0  0  0  0  0  0  0
  -24.3127  -31.0269   22.6420 N   0  0  0  0  0  0  0  0  0  0  0  0
  -27.9824  -20.6735   21.5943 N   0  0  0  0  0  0  0  0  0  0  0  0
  -27.5835  -24.6380   24.1422 N   0  0  0  0  0  0  0  0  0  0  0  0
  -25.2616  -25.1131   27.9865 N   0  0  0  0  0  0  0  0  0  0  0  0
  -29.5759  -27.4254   16.5822 N   0  0  0  0  0  0  0  0  0  0  0  0
  -30.9112  -22.8057   19.3086 N   0  0  0  0  0  0  0  0  0  0  0  0
  -21.0804  -30.0853   22.4554 N   0  0  0  0  0  0  0  0  0  0  0  0
  -25.7826  -33.8450   23.8066 N   0  0  0  0  0  0  0  0  0  0  0  0
  -30.2351  -21.3806   21.7330 N   0  0  0  0  0  0  0  0  0  0  0  0
  -29.0919  -33.4209   25.1982 N   0  3  0  0  0  0  0  0  0  0  0  0
  -26.9385  -26.0052   26.7017 O   0  0  0  0  0  0  0  0  0  0  0  0
  -22.6326  -29.6751   20.7687 O   0  0  0  0  0  0  0  0  0  0  0  0
  -23.3204  -32.4369   24.2116 O   0  0  0  0  0  0  0  0  0  0  0  0
  -27.7520  -33.2641   22.7291 O   0  0  0  0  0  0  0  0  0  0  0  0
  -29.4947  -20.2305   19.8929 O   0  0  0  0  0  0  0  0  0  0  0  0
  -21.1172  -21.8381   29.7570 O   0  0  0  0  0  0  0  0  0  0  0  0
  -27.8230  -27.6883   18.8231 O   0  0  0  0  0  0  0  0  0  1  0  0
  -20.5847  -16.5737   31.3080 F   0  0  0  0  0  0  0  0  0  0  0  0
  -21.5331  -21.0845   32.3842 F   0  0  0  0  0  0  0  0  0  0  0  0
  1  2  1  0  0  0  0
  1  5  2  0  0  0  0
  2  6  2  0  0  0  0
  3  8  2  0  0  0  0
  3 16  1  0  0  0  0
  4  9  1  0  0  0  0
  4 16  2  0  0  0  0
  5 18  1  0  0  0  0
  6 20  1  0  0  0  0
  7 10  2  0  0  0  0
  7 19  1  0  0  0  0
  8 24  1  0  0  0  0
  9 24  2  0  0  0  0
 10 25  1  0  0  0  0
 11 12  2  0  0  0  0
 11 26  1  0  0  0  0
 12 27  1  0  0  0  0
 13 21  1  0  0  0  0
 13 25  2  0  0  0  0
 14 22  2  0  0  0  0
 14 31  1  0  0  0  0
 15 27  2  0  0  0  0
 15 28  1  0  0  0  0
 16 29  1  0  0  0  0
 17 29  1  0  0  0  0
 17 32  2  0  0  0  0
 17 33  1  0  0  0  0
 18 20  2  0  0  0  0
 18 38  1  0  0  0  0
 19 21  2  0  0  0  0
 19 39  1  0  0  0  0
 20 47  1  0  0  0  0
 21 40  1  0  0  0  0
 22 23  1  0  0  0  0
 22 50  1  0  0  0  0
 23 30  2  0  0  0  0
 23 72  1  0  0  0  0
 24 83  1  0  0  0  0
 25 84  1  0  0  0  0
 26 28  2  0  0  0  0
 26 83  1  0  0  0  0
 27 85  1  0  0  0  0
 28 86  1  0  0  0  0
 29 65  2  0  0  0  0
 30 51  1  0  0  0  0
 30 66  1  0  0  0  0
 31 66  2  0  0  0  0
 31 73  1  0  0  0  0
 32 67  1  0  0  0  0
 32 70  1  0  0  0  0
 33 71  1  0  0  0  0
 33 78  2  0  0  0  0
 34 48  1  0  0  0  0
 34 74  1  0  0  0  0
 34 79  2  0  0  0  0
 35 61  1  0  0  0  0
 35 68  1  0  0  0  0
 35 80  2  0  0  0  0
 36 62  1  0  0  0  0
 36 75  1  0  0  0  0
 36 81  2  0  0  0  0
 37 69  1  0  0  0  0
 37 76  1  0  0  0  0
 37 82  2  0  0  0  0
 38 41  1  0  0  0  0
 39 48  1  0  0  0  0
 40 68  1  0  0  0  0
 41 43  1  0  0  0  0
 42 44  1  0  0  0  0
 42 45  1  0  0  0  0
 43 47  1  0  0  0  0
 44 49  1  0  0  0  0
 45 69  1  0  0  0  0
 46 49  1  0  0  0  0
 46 69  1  0  0  0  0
 47 74  1  0  0  0  0
 48 68  1  0  0  0  0
 49 67  1  0  0  0  0
 52 62  1  0  0  0  0
 53 63  1  0  0  0  0
 54 64  1  0  0  0  0
 55 64  1  0  0  0  0
 56 64  1  0  0  0  0
 57 77  1  0  0  0  0
 58 59  1  0  0  0  0
 58 73  1  0  0  0  0
 59 76  1  0  0  0  0
 60 63  1  0  0  0  0
 60 84  1  0  0  0  0
 61 64  1  0  0  0  0
 61 75  1  0  0  0  0
 62 77  1  0  0  0  0
 63 72  1  0  0  0  0
 65 67  1  0  0  0  0
M  CHG  1  77   1
M  ISO  4  37 100  60 101  76 100  84 101
M  END
> <Batch ID>
0135

> <Smiles>
CNC(C)C(=O)NC(C(=O)N1Cc2cc([101O:1][101CH2:1]C(C)Nc3c(C)cc(NCC[100NH:0][100C:0](=O)N4CCCC(n5nc(-c6ccc(Oc7ccc(F)cc7F)cc6)c(C(N)=O)c5N)C4)nc3C)ccc2CC1C(=O)NC1CCCc2ccccc21)C(C)(C)C

> <Shape>
0.194

> <Color>
0.105

> <Negative vol penalty>
0.000

$$$$

  -OEChem-04052321003D

 89 98  0     1  0  0  0  0  0999 V2000
  -16.7634  -28.4222   24.1700 C   0  0  0  0  0  0  0  0  0  0  0  0
  -17.5237  -27.5344   23.4155 C   0  0  0  0  0  0  0  0  0  0  0  0
  -22.7958  -11.6923   22.7817 C   0  0  0  0  0  0  0  0  0  0  0  0
  -23.9377  -13.6113   23.7040 C   0  0  0  0  0  0  0  0  0  0  0  0
  -17.1029  -29.7741   24.2047 C   0  0  0  0  0  0  0  0  0  0  0  0
  -18.6233  -27.9982   22.6943 C   0  0  0  0  0  0  0  0  0  0  0  0
  -22.6796  -25.0091   23.2005 C   0  0  0  0  0  0  0  0  0  0  0  0
  -22.0698  -11.5556   23.9648 C   0  0  0  0  0  0  0  0  0  0  0  0
  -23.2117  -13.4746   24.8872 C   0  0  0  0  0  0  0  0  0  0  0  0
  -22.6984  -23.8299   22.4569 C   0  0  0  0  0  0  0  0  0  0  0  0
  -19.3906  -13.0117   25.4257 C   0  0  0  0  0  0  0  0  0  0  0  0
  -18.0190  -12.7803   25.3216 C   0  0  0  0  0  0  0  0  0  0  0  0
  -24.1377  -24.8839   20.8331 C   0  0  0  0  0  0  0  0  0  0  0  0
  -28.7251  -18.9333   19.6111 C   0  0  0  0  0  0  0  0  0  0  0  0
  -18.2821  -10.6898   26.5040 C   0  0  0  0  0  0  0  0  0  0  0  0
  -28.9734  -17.7030   17.7417 C   0  0  0  0  0  0  0  0  0  0  0  0
  -23.7298  -12.7202   22.6513 C   0  0  0  0  0  0  0  0  0  0  0  0
  -23.9674  -13.0819   20.1372 C   0  0  0  0  0  0  0  0  0  0  0  0
  -18.2130  -30.2530   23.4912 C   0  0  0  0  0  0  0  0  0  0  0  0
  -23.3821  -26.1399   22.7596 C   0  0  0  0  0  0  0  0  0  0  0  0
  -18.9771  -29.3580   22.7183 C   0  0  0  0  0  0  0  0  0  0  0  0
  -24.1283  -26.0754   21.5742 C   0  0  0  0  0  0  0  0  0  0  0  0
  -29.6161  -18.0967   18.8946 C   0  0  0  0  0  0  0  0  0  0  0  0
  -22.2777  -12.4467   25.0176 C   0  0  0  0  0  0  0  0  0  0  0  0
  -23.4251  -23.7680   21.2716 C   0  0  0  0  0  0  0  0  0  0  0  0
  -20.2079  -12.0822   26.0689 C   0  0  0  0  0  0  0  0  0  0  0  0
  -17.4648  -11.6194   25.8608 C   0  0  0  0  0  0  0  0  0  0  0  0
  -19.6537  -10.9213   26.6081 C   0  0  0  0  0  0  0  0  0  0  0  0
  -24.4804  -12.8616   21.4295 C   0  0  0  0  0  0  0  0  0  0  0  0
  -27.5649  -19.0251   18.8744 C   0  0  0  0  0  0  0  0  0  0  0  0
  -25.0786  -13.1419   19.3322 C   0  0  0  0  0  0  0  0  0  0  0  0
  -22.6078  -13.2201   19.7033 C   0  0  0  0  0  0  0  0  0  0  0  0
  -22.5710  -29.0913   21.9023 C   0  0  0  0  0  0  0  0  0  0  0  0
  -25.7839  -29.5176   21.7699 C   0  0  0  0  0  0  0  0  0  0  0  0
  -28.6424  -27.6499   20.6045 C   0  0  0  0  0  0  0  0  0  0  0  0
  -30.8035  -14.5466   20.3828 C   0  0  0  0  0  0  0  0  0  0  0  0
  -18.5128  -31.7308   23.5214 C   0  0  0  0  0  0  0  0  0  0  0  0
  -23.3735  -27.3960   23.5869 C   0  0  0  0  0  0  0  0  0  0  0  0
  -24.9159  -27.2551   21.0678 C   0  0  0  0  0  0  0  0  0  0  0  0
  -19.9153  -32.0779   23.0287 C   0  0  0  0  0  0  0  0  0  0  0  0
  -29.5626  -11.5042   19.0114 C   0  0  0  0  0  0  0  0  0  0  0  0
  -20.2239  -31.3372   21.7314 C   0  0  0  0  0  0  0  0  0  0  0  0
  -26.2981  -21.1914   18.5376 C   0  0  0  0  0  0  0  0  0  0  0  0
  -25.9914  -19.8577   20.6745 C   0  0  0  0  0  0  0  0  0  0  0  0
  -28.0731  -11.5270   19.3590 C   0  0  0  0  0  0  0  0  0  0  0  0
  -25.0028  -21.9446   18.8295 C   0  0  0  0  0  0  0  0  0  0  0  0
  -24.6975  -20.6174   20.9548 C   0  0  0  0  0  0  0  0  0  0  0  0
  -30.4113  -12.1143   20.1247 C   0  0  0  0  0  0  0  0  0  0  0  0
  -28.5164  -13.4929   20.8879 C   0  0  0  0  0  0  0  0  0  0  0  0
  -20.1919  -29.8186   21.9422 C   0  0  1  0  0  0  0  0  0  0  0  0
  -26.2843  -19.7861   19.1652 C   0  0  0  0  0  0  0  0  0  0  0  0
  -23.7074  -28.6461   22.7787 C   0  0  1  0  0  0  0  0  0  0  0  0
  -27.6150  -12.9389   19.7712 C   0  0  2  0  0  0  0  0  0  0  0  0
  -24.7131  -22.0095   20.3280 C   0  0  0  0  0  0  0  0  0  1  0  0
  -31.0416  -27.7129   21.3373 C   0  0  0  0  0  0  0  0  0  0  0  0
  -26.3024  -16.6386   16.5621 C   0  0  0  0  0  0  0  0  0  0  0  0
  -27.2290  -18.6611   15.3548 C   0  0  0  0  0  0  0  0  0  0  0  0
  -26.1262  -31.5153   19.4891 C   0  0  0  0  0  0  0  0  0  0  0  0
  -28.3515  -30.4753   19.0049 C   0  0  0  0  0  0  0  0  0  0  0  0
  -27.9423  -31.5727   21.2074 C   0  0  0  0  0  0  0  0  0  0  0  0
  -32.1127  -19.5767   18.0814 C   0  0  0  0  0  0  0  0  0  0  0  0
  -28.6752  -24.7400   21.1432 C   0  0  0  0  0  0  0  0  0  0  0  0
  -31.0373  -17.0000   20.6751 C   0  0  0  0  0  0  0  0  0  0  0  0
  -30.9811  -17.7170   19.3059 C   0  0  2  0  0  0  0  0  0  0  0  0
  -26.8413  -29.3529   20.7051 C   0  0  1  0  0  0  0  0  0  0  0  0
  -29.7086  -26.9916   21.4614 C   0  0  2  0  0  0  0  0  0  0  0  0
  -26.7456  -18.0972   16.6923 C   0  0  0  0  0  0  0  0  0  0  0  0
  -27.2917  -30.7133   20.1017 C   0  0  0  0  0  0  0  0  0  0  0  0
  -25.8138  -12.7865   21.4490 N   0  0  0  0  0  0  0  0  0  0  0  0
  -27.7271  -18.2730   17.7402 N   0  0  0  0  0  0  0  0  0  0  0  0
  -26.1480  -12.9605   20.1590 N   0  0  0  0  0  0  0  0  0  0  0  0
  -24.8710  -28.4627   21.9089 N   0  0  0  0  0  0  0  0  0  0  0  0
  -29.9257  -13.4533   20.4673 N   0  0  0  0  0  0  0  0  0  0  0  0
  -25.2355  -13.3314   18.0049 N   0  0  0  0  0  0  0  0  0  0  0  0
  -21.5885  -13.1325   20.6612 N   0  0  0  0  0  0  0  0  0  0  0  0
  -21.4064  -29.3727   22.5907 N   0  0  0  0  0  0  0  0  0  0  0  0
  -27.9199  -28.5840   21.3164 N   0  0  0  0  0  0  0  0  0  0  0  0
  -30.2610  -15.7809   20.7189 N   0  0  0  0  0  0  0  0  0  0  0  0
  -31.9382  -18.8857   19.3748 N   0  3  0  0  0  0  0  0  0  0  0  0
  -29.9019  -25.5727   21.0485 N   0  3  0  0  0  0  0  0  0  0  0  0
  -22.3050  -13.3992   18.4992 O   0  0  0  0  0  0  0  0  0  0  0  0
  -22.7388  -29.1748   20.6913 O   0  0  0  0  0  0  0  0  0  0  0  0
  -25.7730  -30.5414   22.4580 O   0  0  0  0  0  0  0  0  0  0  0  0
  -28.4703  -27.3667   19.4210 O   0  0  0  0  0  0  0  0  0  0  0  0
  -31.9818  -14.4321   20.0285 O   0  0  0  0  0  0  0  0  0  0  0  0
  -21.5693  -12.3138   26.1721 O   0  0  0  0  0  0  0  0  0  0  0  0
  -23.4446  -22.6185   20.5435 O   0  0  0  0  0  0  0  0  0  1  0  0
  -16.1474  -11.3980   25.7621 F   0  0  0  0  0  0  0  0  0  0  0  0
  -20.4336  -10.0252   27.2281 F   0  0  0  0  0  0  0  0  0  0  0  0
  1  2  1  0  0  0  0
  1  5  2  0  0  0  0
  2  6  2  0  0  0  0
  3  8  2  0  0  0  0
  3 17  1  0  0  0  0
  4  9  1  0  0  0  0
  4 17  2  0  0  0  0
  5 19  1  0  0  0  0
  6 21  1  0  0  0  0
  7 10  2  0  0  0  0
  7 20  1  0  0  0  0
  8 24  1  0  0  0  0
  9 24  2  0  0  0  0
 10 25  1  0  0  0  0
 11 12  2  0  0  0  0
 11 26  1  0  0  0  0
 12 27  1  0  0  0  0
 13 22  1  0  0  0  0
 13 25  2  0  0  0  0
 14 23  1  0  0  0  0
 14 30  2  0  0  0  0
 15 27  2  0  0  0  0
 15 28  1  0  0  0  0
 16 23  2  0  0  0  0
 16 70  1  0  0  0  0
 17 29  1  0  0  0  0
 18 29  1  0  0  0  0
 18 31  2  0  0  0  0
 18 32  1  0  0  0  0
 19 21  2  0  0  0  0
 19 37  1  0  0  0  0
 20 22  2  0  0  0  0
 20 38  1  0  0  0  0
 21 50  1  0  0  0  0
 22 39  1  0  0  0  0
 23 64  1  0  0  0  0
 24 86  1  0  0  0  0
 25 87  1  0  0  0  0
 26 28  2  0  0  0  0
 26 86  1  0  0  0  0
 27 88  1  0  0  0  0
 28 89  1  0  0  0  0
 29 69  2  0  0  0  0
 30 51  1  0  0  0  0
 30 70  1  0  0  0  0
 31 71  1  0  0  0  0
 31 74  1  0  0  0  0
 32 75  1  0  0  0  0
 32 81  2  0  0  0  0
 33 52  1  0  0  0  0
 33 76  1  0  0  0  0
 33 82  2  0  0  0  0
 34 65  1  0  0  0  0
 34 72  1  0  0  0  0
 34 83  2  0  0  0  0
 35 66  1  0  0  0  0
 35 77  1  0  0  0  0
 35 84  2  0  0  0  0
 36 73  1  0  0  0  0
 36 78  1  0  0  0  0
 36 85  2  0  0  0  0
 37 40  1  0  0  0  0
 38 52  1  0  0  0  0
 39 72  1  0  0  0  0
 40 42  1  0  0  0  0
 41 45  1  0  0  0  0
 41 48  1  0  0  0  0
 42 50  1  0  0  0  0
 43 46  1  0  0  0  0
 43 51  1  0  0  0  0
 44 47  1  0  0  0  0
 44 51  1  0  0  0  0
 45 53  1  0  0  0  0
 46 54  1  0  0  0  0
 47 54  1  0  0  0  0
 48 73  1  0  0  0  0
 49 53  1  0  0  0  0
 49 73  1  0  0  0  0
 50 76  1  0  0  0  0
 52 72  1  0  0  0  0
 53 71  1  0  0  0  0
 54 87  1  0  0  0  0
 55 66  1  0  0  0  0
 56 67  1  0  0  0  0
 57 67  1  0  0  0  0
 58 68  1  0  0  0  0
 59 68  1  0  0  0  0
 60 68  1  0  0  0  0
 61 79  1  0  0  0  0
 62 80  1  0  0  0  0
 63 64  1  0  0  0  0
 63 78  1  0  0  0  0
 64 79  1  0  0  0  0
 65 68  1  0  0  0  0
 65 77  1  0  0  0  0
 66 80  1  0  0  0  0
 67 70  1  0  0  0  0
 69 71  1  0  0  0  0
M  CHG  2  79   1  80   1
M  ISO  4  36 100  54 101  78 100  87 101
M  END
> <Batch ID>
0135

> <Smiles>
CNC(C)C(=O)NC(C(=O)N1Cc2cc([101O:1][101CH:1]3CCC(c4cc(C(C[100NH:0][100C:0](=O)N5CCCC(n6nc(-c7ccc(Oc8ccc(F)cc8F)cc7)c(C(N)=O)c6N)C5)NC)cn4C(C)C)CC3)ccc2CC1C(=O)NC1CCCc2ccccc21)C(C)(C)C

> <Shape>
0.243

> <Color>
0.096

> <Negative vol penalty>
0.000

$$$$

  -OEChem-04052321003D

 87 97  0     1  0  0  0  0  0999 V2000
  -28.1197  -37.5848   21.2225 C   0  0  0  0  0  0  0  0  0  0  0  0
  -28.5550  -36.3127   20.8653 C   0  0  0  0  0  0  0  0  0  0  0  0
  -21.8899  -11.5199   21.8613 C   0  0  0  0  0  0  0  0  0  0  0  0
  -23.8108  -12.0306   20.4879 C   0  0  0  0  0  0  0  0  0  0  0  0
  -27.1634  -37.7370   22.2256 C   0  0  0  0  0  0  0  0  0  0  0  0
  -28.0350  -35.1920   21.5119 C   0  0  0  0  0  0  0  0  0  0  0  0
  -31.2847  -23.3913   20.4173 C   0  0  0  0  0  0  0  0  0  0  0  0
  -26.9685  -29.6864   19.0508 C   0  0  0  0  0  0  0  0  0  0  0  0
  -30.6776  -24.6376   20.2488 C   0  0  0  0  0  0  0  0  0  0  0  0
  -22.0232  -10.1680   21.5450 C   0  0  0  0  0  0  0  0  0  0  0  0
  -23.9441  -10.6786   20.1716 C   0  0  0  0  0  0  0  0  0  0  0  0
  -27.6976  -28.4981   19.0591 C   0  0  0  0  0  0  0  0  0  0  0  0
  -23.9603   -7.5658   22.4987 C   0  0  0  0  0  0  0  0  0  0  0  0
  -23.8530   -6.6431   23.5391 C   0  0  0  0  0  0  0  0  0  0  0  0
  -29.4946  -23.8468   18.2746 C   0  0  0  0  0  0  0  0  0  0  0  0
  -26.3885  -27.7149   20.9278 C   0  0  0  0  0  0  0  0  0  0  0  0
  -21.9702   -5.6119   22.4305 C   0  0  0  0  0  0  0  0  0  0  0  0
  -22.7837  -12.4513   21.3327 C   0  0  0  0  0  0  0  0  0  0  0  0
  -22.7008  -14.4317   22.9385 C   0  0  0  0  0  0  0  0  0  0  0  0
  -26.6243  -36.6171   22.8781 C   0  0  0  0  0  0  0  0  0  0  0  0
  -30.9964  -22.3921   19.5031 C   0  0  0  0  0  0  0  0  0  0  0  0
  -25.9494  -29.9027   19.9895 C   0  0  0  0  0  0  0  0  0  0  0  0
  -27.0716  -35.3294   22.5256 C   0  0  0  0  0  0  0  0  0  0  0  0
  -30.1076  -22.6164   18.4436 C   0  0  0  0  0  0  0  0  0  0  0  0
  -25.6462  -28.9057   20.9277 C   0  0  0  0  0  0  0  0  0  0  0  0
  -29.7896  -24.8639   19.1850 C   0  0  0  0  0  0  0  0  0  0  0  0
  -23.0503   -9.7473   20.7002 C   0  0  0  0  0  0  0  0  0  0  0  0
  -27.4096  -27.5133   19.9995 C   0  0  0  0  0  0  0  0  0  0  0  0
  -23.0725   -7.5117   21.4241 C   0  0  0  0  0  0  0  0  0  0  0  0
  -22.8580   -5.6661   23.5050 C   0  0  0  0  0  0  0  0  0  0  0  0
  -22.0775   -6.5348   21.3900 C   0  0  0  0  0  0  0  0  0  0  0  0
  -22.6462  -13.8481   21.6586 C   0  0  0  0  0  0  0  0  0  0  0  0
  -22.5160  -15.7738   22.7120 C   0  0  0  0  0  0  0  0  0  0  0  0
  -22.9007  -13.8159   24.2177 C   0  0  0  0  0  0  0  0  0  0  0  0
  -25.4488  -32.0168   22.3098 C   0  0  0  0  0  0  0  0  0  0  0  0
  -22.5673  -30.5397   22.5022 C   0  0  0  0  0  0  0  0  0  0  0  0
  -20.7047  -27.7369   21.9345 C   0  0  0  0  0  0  0  0  0  0  0  0
  -23.4958  -19.2794   17.9579 C   0  0  0  0  0  0  0  0  0  0  0  0
  -25.6275  -36.8341   23.9889 C   0  0  0  0  0  0  0  0  0  0  0  0
  -31.4904  -20.9790   19.4972 C   0  0  0  0  0  0  0  0  0  0  0  0
  -25.1543  -31.1789   19.9503 C   0  0  0  0  0  0  0  0  0  0  0  0
  -24.5484  -29.0806   21.9439 C   0  0  0  0  0  0  0  0  0  0  0  0
  -24.8516  -35.5747   24.3657 C   0  0  0  0  0  0  0  0  0  0  0  0
  -31.1582  -20.5533   18.0566 C   0  0  0  0  0  0  0  0  0  0  0  0
  -20.4083  -18.8017   19.6656 C   0  0  0  0  0  0  0  0  0  0  0  0
  -25.7984  -34.3874   24.5099 C   0  0  0  0  0  0  0  0  0  0  0  0
  -20.6367  -17.5306   20.4855 C   0  0  0  0  0  0  0  0  0  0  0  0
  -26.3278  -20.7396   18.7424 C   0  0  0  0  0  0  0  0  0  0  0  0
  -27.1128  -18.8054   17.3274 C   0  0  0  0  0  0  0  0  0  0  0  0
  -21.1057  -18.7310   18.3089 C   0  0  0  0  0  0  0  0  0  0  0  0
  -22.7734  -17.1436   19.1880 C   0  0  0  0  0  0  0  0  0  0  0  0
  -27.5343  -21.5518   18.2901 C   0  0  0  0  0  0  0  0  0  0  0  0
  -28.3159  -19.6270   16.8833 C   0  0  0  0  0  0  0  0  0  0  0  0
  -26.5131  -34.0879   23.1866 C   0  0  1  0  0  0  0  0  0  0  0  0
  -29.9305  -21.3755   17.6253 C   0  0  1  0  0  0  0  0  0  0  0  0
  -24.4816  -31.5049   21.2802 C   0  0  1  0  0  0  0  0  0  0  0  0
  -22.1358  -17.1907   20.5871 C   0  0  2  0  0  0  0  0  0  0  0  0
  -25.9280  -19.6981   17.6968 C   0  0  0  0  0  0  0  0  0  0  0  0
  -18.3891  -26.8169   22.2322 C   0  0  0  0  0  0  0  0  0  0  0  0
  -23.1117  -30.1389   25.4775 C   0  0  0  0  0  0  0  0  0  0  0  0
  -21.2788  -28.4337   25.5120 C   0  0  0  0  0  0  0  0  0  0  0  0
  -20.7645  -30.8035   24.9267 C   0  0  0  0  0  0  0  0  0  0  0  0
  -20.3514  -27.3677   19.0194 C   0  0  0  0  0  0  0  0  0  0  0  0
  -29.1468  -26.2107   19.0293 C   0  0  0  0  0  0  0  0  0  1  0  0
  -22.0188  -29.3621   23.2711 C   0  0  1  0  0  0  0  0  0  0  0  0
  -19.3405  -27.5462   21.2965 C   0  0  2  0  0  0  0  0  0  0  0  0
  -21.8155  -29.6817   24.7791 C   0  0  0  0  0  0  0  0  0  0  0  0
  -22.4426  -14.7457   20.6907 N   0  0  0  0  0  0  0  0  0  0  0  0
  -22.3674  -15.9071   21.3628 N   0  0  0  0  0  0  0  0  0  0  0  0
  -23.8036  -30.3483   21.8691 N   0  0  0  0  0  0  0  0  0  0  0  0
  -22.5245  -18.4067   18.4755 N   0  0  0  0  0  0  0  0  0  0  0  0
  -22.4676  -16.8409   23.5373 N   0  0  0  0  0  0  0  0  0  0  0  0
  -23.0743  -12.4261   24.2704 N   0  0  0  0  0  0  0  0  0  0  0  0
  -25.6279  -33.3867   22.2815 N   0  0  0  0  0  0  0  0  0  0  0  0
  -20.8022  -28.9526   22.5778 N   0  0  0  0  0  0  0  0  0  0  0  0
  -24.8165  -18.9005   18.1649 N   0  0  0  0  0  0  0  0  0  0  0  0
  -28.6754  -20.6188   17.9633 N   0  3  0  0  0  0  0  0  0  0  0  0
  -19.4626  -26.7546   20.0398 N   0  3  0  0  0  0  0  0  0  0  0  0
  -22.9082  -14.4763   25.2841 O   0  0  0  0  0  0  0  0  0  0  0  0
  -25.9913  -31.2276   23.0743 O   0  0  0  0  0  0  0  0  0  0  0  0
  -21.9192  -31.5884   22.4586 O   0  0  0  0  0  0  0  0  0  0  0  0
  -21.5936  -26.8904   21.8719 O   0  0  0  0  0  0  0  0  0  0  0  0
  -23.2074  -20.3219   17.3604 O   0  0  0  0  0  0  0  0  0  0  0  0
  -23.1808   -8.4281   20.3915 O   0  0  0  0  0  0  0  0  0  0  0  0
  -28.1201  -26.3527   20.0102 O   0  0  0  0  0  0  0  0  0  1  0  0
  -22.7561   -4.7791   24.5035 F   0  0  0  0  0  0  0  0  0  0  0  0
  -21.2224   -6.4771   20.3598 F   0  0  0  0  0  0  0  0  0  0  0  0
  1  2  1  0  0  0  0
  1  5  2  0  0  0  0
  2  6  2  0  0  0  0
  3 10  2  0  0  0  0
  3 18  1  0  0  0  0
  4 11  1  0  0  0  0
  4 18  2  0  0  0  0
  5 20  1  0  0  0  0
  6 23  1  0  0  0  0
  7  9  2  0  0  0  0
  7 21  1  0  0  0  0
  8 12  2  0  0  0  0
  8 22  1  0  0  0  0
  9 26  1  0  0  0  0
 10 27  1  0  0  0  0
 11 27  2  0  0  0  0
 12 28  1  0  0  0  0
 13 14  2  0  0  0  0
 13 29  1  0  0  0  0
 14 30  1  0  0  0  0
 15 24  1  0  0  0  0
 15 26  2  0  0  0  0
 16 25  1  0  0  0  0
 16 28  2  0  0  0  0
 17 30  2  0  0  0  0
 17 31  1  0  0  0  0
 18 32  1  0  0  0  0
 19 32  1  0  0  0  0
 19 33  2  0  0  0  0
 19 34  1  0  0  0  0
 20 23  2  0  0  0  0
 20 39  1  0  0  0  0
 21 24  2  0  0  0  0
 21 40  1  0  0  0  0
 22 25  2  0  0  0  0
 22 41  1  0  0  0  0
 23 54  1  0  0  0  0
 24 55  1  0  0  0  0
 25 42  1  0  0  0  0
 26 64  1  0  0  0  0
 27 84  1  0  0  0  0
 28 85  1  0  0  0  0
 29 31  2  0  0  0  0
 29 84  1  0  0  0  0
 30 86  1  0  0  0  0
 31 87  1  0  0  0  0
 32 68  2  0  0  0  0
 33 69  1  0  0  0  0
 33 72  1  0  0  0  0
 34 73  1  0  0  0  0
 34 79  2  0  0  0  0
 35 56  1  0  0  0  0
 35 74  1  0  0  0  0
 35 80  2  0  0  0  0
 36 65  1  0  0  0  0
 36 70  1  0  0  0  0
 36 81  2  0  0  0  0
 37 66  1  0  0  0  0
 37 75  1  0  0  0  0
 37 82  2  0  0  0  0
 38 71  1  0  0  0  0
 38 76  1  0  0  0  0
 38 83  2  0  0  0  0
 39 43  1  0  0  0  0
 40 44  1  0  0  0  0
 41 56  1  0  0  0  0
 42 70  1  0  0  0  0
 43 46  1  0  0  0  0
 44 55  1  0  0  0  0
 45 47  1  0  0  0  0
 45 50  1  0  0  0  0
 46 54  1  0  0  0  0
 47 57  1  0  0  0  0
 48 52  1  0  0  0  0
 48 58  1  0  0  0  0
 49 53  1  0  0  0  0
 49 58  1  0  0  0  0
 50 71  1  0  0  0  0
 51 57  1  0  0  0  0
 51 71  1  0  0  0  0
 52 77  1  0  0  0  0
 53 77  1  0  0  0  0
 54 74  1  0  0  0  0
 55 77  1  0  0  0  0
 56 70  1  0  0  0  0
 57 69  1  0  0  0  0
 58 76  1  0  0  0  0
 59 66  1  0  0  0  0
 60 67  1  0  0  0  0
 61 67  1  0  0  0  0
 62 67  1  0  0  0  0
 63 78  1  0  0  0  0
 64 85  1  0  0  0  0
 65 67  1  0  0  0  0
 65 75  1  0  0  0  0
 66 78  1  0  0  0  0
 68 69  1  0  0  0  0
M  CHG  2  77   1  78   1
M  ISO  4  38 100  64 101  76 100  85 101
M  END
> <Batch ID>
0135

> <Smiles>
CNC(C)C(=O)NC(C(=O)N1Cc2cc([101O:1][101CH2:1]c3ccc4c(c3)C(N3CCC([100NH:0][100C:0](=O)N5CCCC(n6nc(-c7ccc(Oc8ccc(F)cc8F)cc7)c(C(N)=O)c6N)C5)CC3)CC4)ccc2CC1C(=O)NC1CCCc2ccccc21)C(C)(C)C

> <Shape>
0.274

> <Color>
0.072

> <Negative vol penalty>
0.000

$$$$

  -OEChem-04052321003D

 85 94  0     1  0  0  0  0  0999 V2000
  -30.2741  -35.6567   19.9310 C   0  0  0  0  0  0  0  0  0  0  0  0
  -29.9905  -34.4306   19.3381 C   0  0  0  0  0  0  0  0  0  0  0  0
  -24.7781   -9.1892   21.6384 C   0  0  0  0  0  0  0  0  0  0  0  0
  -23.2582  -10.7702   20.6249 C   0  0  0  0  0  0  0  0  0  0  0  0
  -30.0251  -35.8470   21.2896 C   0  0  0  0  0  0  0  0  0  0  0  0
  -29.4586  -33.3936   20.1036 C   0  0  0  0  0  0  0  0  0  0  0  0
  -24.9839  -19.5367   18.6353 C   0  0  0  0  0  0  0  0  0  0  0  0
  -25.4293  -29.1597   18.2748 C   0  0  0  0  0  0  0  0  0  0  0  0
  -25.6255  -18.2984   18.6565 C   0  0  0  0  0  0  0  0  0  0  0  0
  -23.7394   -8.6972   22.4287 C   0  0  0  0  0  0  0  0  0  0  0  0
  -22.2194  -10.2782   21.4152 C   0  0  0  0  0  0  0  0  0  0  0  0
  -25.5827  -27.8416   17.8472 C   0  0  0  0  0  0  0  0  0  0  0  0
  -21.1030   -6.6121   22.0619 C   0  0  0  0  0  0  0  0  0  0  0  0
  -20.9738   -5.2278   22.1745 C   0  0  0  0  0  0  0  0  0  0  0  0
  -25.1064  -27.0677   20.0818 C   0  0  0  0  0  0  0  0  0  0  0  0
  -27.4261  -19.2535   19.9537 C   0  0  0  0  0  0  0  0  0  0  0  0
  -21.2764   -5.3940   24.5657 C   0  0  0  0  0  0  0  0  0  0  0  0
  -24.5375  -10.2257   20.7365 C   0  0  0  0  0  0  0  0  0  0  0  0
  -25.9936  -10.2846   18.6427 C   0  0  0  0  0  0  0  0  0  0  0  0
  -29.4809  -34.8148   22.0701 C   0  0  0  0  0  0  0  0  0  0  0  0
  -25.1235  -29.4427   19.6138 C   0  0  0  0  0  0  0  0  0  0  0  0
  -29.2033  -33.5698   21.4742 C   0  0  0  0  0  0  0  0  0  0  0  0
  -25.5635  -20.6336   19.2731 C   0  0  0  0  0  0  0  0  0  0  0  0
  -24.9471  -28.3901   20.5232 C   0  0  0  0  0  0  0  0  0  0  0  0
  -26.8466  -18.1567   19.3158 C   0  0  0  0  0  0  0  0  0  0  0  0
  -26.7846  -20.4919   19.9323 C   0  0  0  0  0  0  0  0  0  0  0  0
  -22.4601   -9.2416   22.3171 C   0  0  0  0  0  0  0  0  0  0  0  0
  -25.4241  -26.7955   18.7514 C   0  0  0  0  0  0  0  0  0  0  0  0
  -21.3190   -7.3874   23.2013 C   0  0  0  0  0  0  0  0  0  0  0  0
  -21.0605   -4.6188   23.4264 C   0  0  0  0  0  0  0  0  0  0  0  0
  -21.4056   -6.7783   24.4531 C   0  0  0  0  0  0  0  0  0  0  0  0
  -25.6102  -10.7348   19.9202 C   0  0  0  0  0  0  0  0  0  0  0  0
  -27.0548  -11.0865   18.3002 C   0  0  0  0  0  0  0  0  0  0  0  0
  -25.4399   -9.2354   17.8375 C   0  0  0  0  0  0  0  0  0  0  0  0
  -26.5755  -31.0184   21.9616 C   0  0  0  0  0  0  0  0  0  0  0  0
  -23.7990  -30.4449   23.5379 C   0  0  0  0  0  0  0  0  0  0  0  0
  -21.0025  -28.5177   23.8732 C   0  0  0  0  0  0  0  0  0  0  0  0
  -28.7131  -16.5864   19.9452 C   0  0  0  0  0  0  0  0  0  0  0  0
  -29.2732  -35.0524   23.5450 C   0  0  0  0  0  0  0  0  0  0  0  0
  -24.9349  -30.8688   20.0532 C   0  0  0  0  0  0  0  0  0  0  0  0
  -24.5985  -28.6397   21.9671 C   0  0  0  0  0  0  0  0  0  0  0  0
  -28.3588  -34.0233   24.2048 C   0  0  0  0  0  0  0  0  0  0  0  0
  -30.6309  -13.6024   20.2536 C   0  0  0  0  0  0  0  0  0  0  0  0
  -28.7511  -32.6114   23.7813 C   0  0  0  0  0  0  0  0  0  0  0  0
  -29.5969  -12.4874   20.0808 C   0  0  0  0  0  0  0  0  0  0  0  0
  -24.4650  -22.5277   17.8982 C   0  0  0  0  0  0  0  0  0  0  0  0
  -30.0578  -14.7937   21.0191 C   0  0  0  0  0  0  0  0  0  0  0  0
  -27.7709  -14.2202   20.3045 C   0  0  0  0  0  0  0  0  0  0  0  0
  -24.8609  -21.9387   19.2349 C   0  0  2  0  0  0  0  0  0  0  0  0
  -28.6027  -32.4286   22.2660 C   0  0  1  0  0  0  0  0  0  0  0  0
  -25.1300  -31.0623   21.5538 C   0  0  1  0  0  0  0  0  0  0  0  0
  -25.5820  -23.1502   18.6817 C   0  0  2  0  0  0  0  0  0  0  0  0
  -28.2823  -13.0257   19.4828 C   0  0  2  0  0  0  0  0  0  0  0  0
  -18.9361  -28.2718   25.2756 C   0  0  0  0  0  0  0  0  0  0  0  0
  -28.4061  -20.8643   22.6364 C   0  0  0  0  0  0  0  0  0  0  0  0
  -29.2448  -22.8842   21.3864 C   0  0  0  0  0  0  0  0  0  0  0  0
  -25.4702  -29.2300   25.7831 C   0  0  0  0  0  0  0  0  0  0  0  0
  -23.3813  -28.1747   26.6727 C   0  0  0  0  0  0  0  0  0  0  0  0
  -23.5686  -30.6594   26.5544 C   0  0  0  0  0  0  0  0  0  0  0  0
  -19.2295  -28.9481   21.5429 C   0  0  0  0  0  0  0  0  0  0  0  0
  -25.3973  -24.4855   19.3164 C   0  0  0  0  0  0  0  0  0  1  0  0
  -23.2800  -29.3352   24.4201 C   0  0  1  0  0  0  0  0  0  0  0  0
  -19.5372  -28.8859   24.0209 C   0  0  2  0  0  0  0  0  0  0  0  0
  -28.6369  -21.4940   21.2704 C   0  0  0  0  0  0  0  0  0  0  0  0
  -23.9335  -29.3449   25.8309 C   0  0  0  0  0  0  0  0  0  0  0  0
  -26.3665  -11.7442   20.3596 N   0  0  0  0  0  0  0  0  0  0  0  0
  -27.2357  -11.9350   19.3526 N   0  0  0  0  0  0  0  0  0  0  0  0
  -24.4308  -30.0514   22.3497 N   0  0  0  0  0  0  0  0  0  0  0  0
  -28.8158  -15.2523   20.3928 N   0  0  0  0  0  0  0  0  0  0  0  0
  -27.8415  -11.1415   17.2045 N   0  0  0  0  0  0  0  0  0  0  0  0
  -24.3512   -8.5105   18.3410 N   0  0  0  0  0  0  0  0  0  0  0  0
  -27.4977  -16.8985   19.3369 N   0  0  0  0  0  0  0  0  0  0  0  0
  -27.3879  -21.5911   20.5829 N   0  0  0  0  0  0  0  0  0  0  0  0
  -27.2113  -32.2443   21.9131 N   0  0  0  0  0  0  0  0  0  0  0  0
  -21.8274  -29.4700   24.4335 N   0  0  0  0  0  0  0  0  0  0  0  0
  -18.7609  -28.4041   22.8435 N   0  3  0  0  0  0  0  0  0  0  0  0
  -25.9074   -8.9384   16.7120 O   0  0  0  0  0  0  0  0  0  0  0  0
  -27.0764  -29.9515   22.2970 O   0  0  0  0  0  0  0  0  0  0  0  0
  -23.6430  -31.6178   23.8867 O   0  0  0  0  0  0  0  0  0  0  0  0
  -21.3777  -27.4865   23.3196 O   0  0  0  0  0  0  0  0  0  0  0  0
  -29.6455  -17.3851   20.0664 O   0  0  0  0  0  0  0  0  0  0  0  0
  -21.4462   -8.7616   23.0880 O   0  0  0  0  0  0  0  0  0  0  0  0
  -25.5740  -25.5080   18.3368 O   0  0  0  0  0  0  0  0  0  1  0  0
  -20.9349   -3.2896   23.5345 F   0  0  0  0  0  0  0  0  0  0  0  0
  -21.6118   -7.5180   25.5514 F   0  0  0  0  0  0  0  0  0  0  0  0
  1  2  1  0  0  0  0
  1  5  2  0  0  0  0
  2  6  2  0  0  0  0
  3 10  2  0  0  0  0
  3 18  1  0  0  0  0
  4 11  1  0  0  0  0
  4 18  2  0  0  0  0
  5 20  1  0  0  0  0
  6 22  1  0  0  0  0
  7  9  2  0  0  0  0
  7 23  1  0  0  0  0
  8 12  2  0  0  0  0
  8 21  1  0  0  0  0
  9 25  1  0  0  0  0
 10 27  1  0  0  0  0
 11 27  2  0  0  0  0
 12 28  1  0  0  0  0
 13 14  2  0  0  0  0
 13 29  1  0  0  0  0
 14 30  1  0  0  0  0
 15 24  1  0  0  0  0
 15 28  2  0  0  0  0
 16 25  2  0  0  0  0
 16 26  1  0  0  0  0
 17 30  2  0  0  0  0
 17 31  1  0  0  0  0
 18 32  1  0  0  0  0
 19 32  1  0  0  0  0
 19 33  2  0  0  0  0
 19 34  1  0  0  0  0
 20 22  2  0  0  0  0
 20 39  1  0  0  0  0
 21 24  2  0  0  0  0
 21 40  1  0  0  0  0
 22 50  1  0  0  0  0
 23 26  2  0  0  0  0
 23 49  1  0  0  0  0
 24 41  1  0  0  0  0
 25 72  1  0  0  0  0
 26 73  1  0  0  0  0
 27 82  1  0  0  0  0
 28 83  1  0  0  0  0
 29 31  2  0  0  0  0
 29 82  1  0  0  0  0
 30 84  1  0  0  0  0
 31 85  1  0  0  0  0
 32 66  2  0  0  0  0
 33 67  1  0  0  0  0
 33 70  1  0  0  0  0
 34 71  1  0  0  0  0
 34 77  2  0  0  0  0
 35 51  1  0  0  0  0
 35 74  1  0  0  0  0
 35 78  2  0  0  0  0
 36 62  1  0  0  0  0
 36 68  1  0  0  0  0
 36 79  2  0  0  0  0
 37 63  1  0  0  0  0
 37 75  1  0  0  0  0
 37 80  2  0  0  0  0
 38 69  1  0  0  0  0
 38 72  1  0  0  0  0
 38 81  2  0  0  0  0
 39 42  1  0  0  0  0
 40 51  1  0  0  0  0
 41 68  1  0  0  0  0
 42 44  1  0  0  0  0
 43 45  1  0  0  0  0
 43 47  1  0  0  0  0
 44 50  1  0  0  0  0
 45 53  1  0  0  0  0
 46 49  1  0  0  0  0
 46 52  1  0  0  0  0
 47 69  1  0  0  0  0
 48 53  1  0  0  0  0
 48 69  1  0  0  0  0
 49 52  1  0  0  0  0
 50 74  1  0  0  0  0
 51 68  1  0  0  0  0
 52 61  1  0  0  0  0
 53 67  1  0  0  0  0
 54 63  1  0  0  0  0
 55 64  1  0  0  0  0
 56 64  1  0  0  0  0
 57 65  1  0  0  0  0
 58 65  1  0  0  0  0
 59 65  1  0  0  0  0
 60 76  1  0  0  0  0
 61 83  1  0  0  0  0
 62 65  1  0  0  0  0
 62 75  1  0  0  0  0
 63 76  1  0  0  0  0
 64 73  1  0  0  0  0
 66 67  1  0  0  0  0
M  CHG  1  76   1
M  ISO  4  38 100  61 101  72 100  83 101
M  END
> <Batch ID>
0135

> <Smiles>
CNC(C)C(=O)NC(C(=O)N1Cc2cc([101O:1][101CH2:1]C3CC3c3ccc([100NH:0][100C:0](=O)N4CCCC(n5nc(-c6ccc(Oc7ccc(F)cc7F)cc6)c(C(N)=O)c5N)C4)cc3NC(C)C)ccc2CC1C(=O)NC1CCCc2ccccc21)C(C)(C)C

> <Shape>
0.270

> <Color>
0.085

> <Negative vol penalty>
0.000

$$$$

  -OEChem-04052321003D

 91100  0     1  0  0  0  0  0999 V2000
  -35.9662  -28.6931   25.1719 C   0  0  0  0  0  0  0  0  0  0  0  0
  -34.7314  -29.0940   24.6744 C   0  0  0  0  0  0  0  0  0  0  0  0
  -23.0440   -9.8916   19.9223 C   0  0  0  0  0  0  0  0  0  0  0  0
  -23.7925   -9.8583   22.2191 C   0  0  0  0  0  0  0  0  0  0  0  0
  -36.2276  -27.3388   25.3688 C   0  0  0  0  0  0  0  0  0  0  0  0
  -33.7535  -28.1418   24.3849 C   0  0  0  0  0  0  0  0  0  0  0  0
  -26.6646  -25.3235   21.9780 C   0  0  0  0  0  0  0  0  0  0  0  0
  -22.3068   -8.7287   20.1456 C   0  0  0  0  0  0  0  0  0  0  0  0
  -23.0553   -8.6954   22.4425 C   0  0  0  0  0  0  0  0  0  0  0  0
  -25.9952  -24.1760   21.5550 C   0  0  0  0  0  0  0  0  0  0  0  0
  -23.3716   -5.3871   21.8211 C   0  0  0  0  0  0  0  0  0  0  0  0
  -23.9906   -4.3520   22.5218 C   0  0  0  0  0  0  0  0  0  0  0  0
  -26.7569  -23.0124   23.5258 C   0  0  0  0  0  0  0  0  0  0  0  0
  -31.4912  -18.6131   20.3891 C   0  0  0  0  0  0  0  0  0  0  0  0
  -29.1568  -18.5329   20.9624 C   0  0  0  0  0  0  0  0  0  0  0  0
  -22.2796   -4.4803   24.2228 C   0  0  0  0  0  0  0  0  0  0  0  0
  -23.7869  -10.4563   20.9590 C   0  0  0  0  0  0  0  0  0  0  0  0
  -24.1120  -12.9856   20.8906 C   0  0  0  0  0  0  0  0  0  0  0  0
  -35.2563  -26.3693   25.0695 C   0  0  0  0  0  0  0  0  0  0  0  0
  -27.3952  -25.3214   23.1751 C   0  0  0  0  0  0  0  0  0  0  0  0
  -33.9897  -26.7718   24.5994 C   0  0  0  0  0  0  0  0  0  0  0  0
  -27.4307  -24.1626   23.9641 C   0  0  0  0  0  0  0  0  0  0  0  0
  -30.4507  -18.0483   21.1183 C   0  0  0  0  0  0  0  0  0  0  0  0
  -22.3124   -8.1306   21.4057 C   0  0  0  0  0  0  0  0  0  0  0  0
  -26.0432  -23.0196   22.3277 C   0  0  0  0  0  0  0  0  0  0  0  0
  -22.2067   -5.9690   22.3213 C   0  0  0  0  0  0  0  0  0  0  0  0
  -23.4446   -3.8985   23.7226 C   0  0  0  0  0  0  0  0  0  0  0  0
  -21.6607   -5.5155   23.5221 C   0  0  0  0  0  0  0  0  0  0  0  0
  -24.5491  -11.6572   20.7288 C   0  0  0  0  0  0  0  0  0  0  0  0
  -31.1877  -19.6520   19.5241 C   0  0  0  0  0  0  0  0  0  0  0  0
  -28.9579  -19.5756   20.0719 C   0  0  0  0  0  0  0  0  0  0  0  0
  -25.2008  -13.7495   20.5478 C   0  0  0  0  0  0  0  0  0  0  0  0
  -22.8360  -13.4845   21.3133 C   0  0  0  0  0  0  0  0  0  0  0  0
  -30.4440  -25.7878   24.0315 C   0  0  0  0  0  0  0  0  0  0  0  0
  -29.0904  -25.5243   27.0567 C   0  0  0  0  0  0  0  0  0  0  0  0
  -31.1391  -27.8529   28.4782 C   0  0  0  0  0  0  0  0  0  0  0  0
  -30.6765  -14.8015   20.7839 C   0  0  0  0  0  0  0  0  0  0  0  0
  -35.5896  -24.9178   25.3091 C   0  0  0  0  0  0  0  0  0  0  0  0
  -28.0854  -26.5793   23.6288 C   0  0  0  0  0  0  0  0  0  0  0  0
  -28.1973  -24.1105   25.2580 C   0  0  0  0  0  0  0  0  0  0  0  0
  -34.6637  -23.9640   24.5613 C   0  0  0  0  0  0  0  0  0  0  0  0
  -29.5669  -12.4571   18.3448 C   0  0  0  0  0  0  0  0  0  0  0  0
  -33.0453  -19.5079   24.7608 C   0  0  0  0  0  0  0  0  0  0  0  0
  -33.2126  -24.3516   24.8034 C   0  0  0  0  0  0  0  0  0  0  0  0
  -28.1294  -12.1452   18.7646 C   0  0  0  0  0  0  0  0  0  0  0  0
  -32.0878  -19.4886   25.9386 C   0  0  0  0  0  0  0  0  0  0  0  0
  -30.4766  -12.6603   19.5544 C   0  0  0  0  0  0  0  0  0  0  0  0
  -28.5631  -13.3510   20.9456 C   0  0  0  0  0  0  0  0  0  0  0  0
  -32.5697  -18.3424   23.9249 C   0  0  0  0  0  0  0  0  0  0  0  0
  -32.9216  -25.7518   24.2486 C   0  0  1  0  0  0  0  0  0  0  0  0
  -29.1902  -26.3332   24.6543 C   0  0  1  0  0  0  0  0  0  0  0  0
  -27.5960  -13.1932   19.7598 C   0  0  2  0  0  0  0  0  0  0  0  0
  -30.7170  -19.0993   25.3473 C   0  0  0  0  0  0  0  0  0  0  0  0
  -32.2796  -20.2820   18.7255 C   0  0  0  0  0  0  0  0  0  0  0  0
  -29.8368  -20.3293   25.1028 C   0  0  0  0  0  0  0  0  0  0  0  0
  -30.0036  -18.0987   26.2598 C   0  0  0  0  0  0  0  0  0  0  0  0
  -32.2996  -29.1321   30.2987 C   0  0  0  0  0  0  0  0  0  0  0  0
  -26.4830  -27.1069   27.1071 C   0  0  0  0  0  0  0  0  0  0  0  0
  -27.5529  -28.6824   28.7324 C   0  0  0  0  0  0  0  0  0  0  0  0
  -27.2468  -26.2828   29.3413 C   0  0  0  0  0  0  0  0  0  0  0  0
  -33.3722  -25.9132   28.5770 C   0  0  0  0  0  0  0  0  0  0  0  0
  -25.2441  -20.2116   20.2166 C   0  0  0  0  0  0  0  0  0  0  0  0
  -26.5305  -19.5167   20.6463 C   0  0  0  0  0  0  0  0  0  0  0  0
  -30.3290  -17.2783   23.5099 C   0  0  0  0  0  0  0  0  0  0  0  0
  -25.2490  -21.7072   20.5103 C   0  0  0  0  0  0  0  0  0  1  0  0
  -30.7215  -16.9276   22.0634 C   0  0  1  0  0  0  0  0  0  0  0  0
  -29.0028  -26.9143   27.6356 C   0  0  1  0  0  0  0  0  0  0  0  0
  -32.0951  -27.7698   29.6544 C   0  0  2  0  0  0  0  0  0  0  0  0
  -27.5832  -27.2418   28.1787 C   0  0  0  0  0  0  0  0  0  0  0  0
  -25.8166  -11.5782   20.3151 N   0  0  0  0  0  0  0  0  0  0  0  0
  -29.9435  -20.1497   19.3461 N   0  0  0  0  0  0  0  0  0  0  0  0
  -26.1853  -12.8666   20.2140 N   0  0  0  0  0  0  0  0  0  0  0  0
  -28.7813  -25.3843   25.6977 N   0  0  0  0  0  0  0  0  0  0  0  0
  -29.9147  -13.6674   20.4578 N   0  0  0  0  0  0  0  0  0  0  0  0
  -25.4025  -15.0835   20.5022 N   0  0  0  0  0  0  0  0  0  0  0  0
  -21.8287  -12.5620   21.6274 N   0  0  0  0  0  0  0  0  0  0  0  0
  -27.6629  -20.0484   19.9271 N   0  0  0  0  0  0  0  0  0  0  0  0
  -31.6045  -26.1659   24.6794 N   0  0  0  0  0  0  0  0  0  0  0  0
  -30.0612  -27.0075   28.6354 N   0  0  0  0  0  0  0  0  0  0  0  0
  -30.0668  -15.7094   21.6411 N   0  0  0  0  0  0  0  0  0  0  0  0
  -31.0674  -18.4953   23.9713 N   0  3  2  0  0  0  0  0  0  0  0  0
  -33.4215  -27.2569   29.2086 N   0  3  0  0  0  0  0  0  0  0  0  0
  -22.5911  -14.7121   21.3937 O   0  0  0  0  0  0  0  0  0  0  0  0
  -30.3644  -25.0753   23.0377 O   0  0  0  0  0  0  0  0  0  0  0  0
  -29.4161  -24.5857   27.7888 O   0  0  0  0  0  0  0  0  0  0  0  0
  -31.3276  -28.5963   27.5178 O   0  0  0  0  0  0  0  0  0  0  0  0
  -31.8134  -14.9936   20.3396 O   0  0  0  0  0  0  0  0  0  0  0  0
  -21.5930   -6.9961   21.6241 O   0  0  0  0  0  0  0  0  0  0  0  0
  -25.3902  -21.8984   21.9174 O   0  0  0  0  0  0  0  0  0  1  0  0
  -24.0382   -2.9034   24.3945 F   0  0  0  0  0  0  0  0  0  0  0  0
  -20.5411   -6.0698   24.0070 F   0  0  0  0  0  0  0  0  0  0  0  0
  1  2  1  0  0  0  0
  1  5  2  0  0  0  0
  2  6  2  0  0  0  0
  3  8  2  0  0  0  0
  3 17  1  0  0  0  0
  4  9  1  0  0  0  0
  4 17  2  0  0  0  0
  5 19  1  0  0  0  0
  6 21  1  0  0  0  0
  7 10  2  0  0  0  0
  7 20  1  0  0  0  0
  8 24  1  0  0  0  0
  9 24  2  0  0  0  0
 10 25  1  0  0  0  0
 11 12  2  0  0  0  0
 11 26  1  0  0  0  0
 12 27  1  0  0  0  0
 13 22  1  0  0  0  0
 13 25  2  0  0  0  0
 14 23  1  0  0  0  0
 14 30  2  0  0  0  0
 15 23  2  0  0  0  0
 15 31  1  0  0  0  0
 16 27  2  0  0  0  0
 16 28  1  0  0  0  0
 17 29  1  0  0  0  0
 18 29  1  0  0  0  0
 18 32  2  0  0  0  0
 18 33  1  0  0  0  0
 19 21  2  0  0  0  0
 19 38  1  0  0  0  0
 20 22  2  0  0  0  0
 20 39  1  0  0  0  0
 21 50  1  0  0  0  0
 22 40  1  0  0  0  0
 23 66  1  0  0  0  0
 24 88  1  0  0  0  0
 25 89  1  0  0  0  0
 26 28  2  0  0  0  0
 26 88  1  0  0  0  0
 27 90  1  0  0  0  0
 28 91  1  0  0  0  0
 29 70  2  0  0  0  0
 30 54  1  0  0  0  0
 30 71  1  0  0  0  0
 31 71  2  0  0  0  0
 31 77  1  0  0  0  0
 32 72  1  0  0  0  0
 32 75  1  0  0  0  0
 33 76  1  0  0  0  0
 33 83  2  0  0  0  0
 34 51  1  0  0  0  0
 34 78  1  0  0  0  0
 34 84  2  0  0  0  0
 35 67  1  0  0  0  0
 35 73  1  0  0  0  0
 35 85  2  0  0  0  0
 36 68  1  0  0  0  0
 36 79  1  0  0  0  0
 36 86  2  0  0  0  0
 37 74  1  0  0  0  0
 37 80  1  0  0  0  0
 37 87  2  0  0  0  0
 38 41  1  0  0  0  0
 39 51  1  0  0  0  0
 40 73  1  0  0  0  0
 41 44  1  0  0  0  0
 42 45  1  0  0  0  0
 42 47  1  0  0  0  0
 43 46  1  0  0  0  0
 43 49  1  0  0  0  0
 44 50  1  0  0  0  0
 45 52  1  0  0  0  0
 46 53  1  0  0  0  0
 47 74  1  0  0  0  0
 48 52  1  0  0  0  0
 48 74  1  0  0  0  0
 49 81  1  0  0  0  0
 50 78  1  0  0  0  0
 51 73  1  0  0  0  0
 52 72  1  0  0  0  0
 53 55  1  0  0  0  0
 53 56  1  0  0  0  0
 53 81  1  0  0  0  0
 57 68  1  0  0  0  0
 58 69  1  0  0  0  0
 59 69  1  0  0  0  0
 60 69  1  0  0  0  0
 61 82  1  0  0  0  0
 62 63  1  0  0  0  0
 62 65  1  0  0  0  0
 63 77  1  0  0  0  0
 64 66  1  0  0  0  0
 64 81  1  0  0  0  0
 65 89  1  0  0  0  0
 66 80  1  0  0  0  0
 67 69  1  0  0  0  0
 67 79  1  0  0  0  0
 68 82  1  0  0  0  0
 70 72  1  0  0  0  0
M  CHG  2  81   1  82   1
M  ISO  4  37 100  65 101  80 100  89 101
M  END
> <Batch ID>
0135

> <Smiles>
CNC(C)C(=O)NC(C(=O)N1Cc2cc([101O:1][101CH2:1]CCNc3cc(C(CN4CCCC4(C)C)[100NH:0][100C:0](=O)N4CCCC(n5nc(-c6ccc(Oc7ccc(F)cc7F)cc6)c(C(N)=O)c5N)C4)cc(C)n3)ccc2CC1C(=O)NC1CCCc2ccccc21)C(C)(C)C

> <Shape>
0.199

> <Color>
0.189

> <Negative vol penalty>
0.000

$$$$

  -OEChem-04052321003D

 86 95  0     1  0  0  0  0  0999 V2000
  -20.9677  -36.7819   18.0742 C   0  0  0  0  0  0  0  0  0  0  0  0
  -21.4936  -35.6382   17.4820 C   0  0  0  0  0  0  0  0  0  0  0  0
  -24.1661   -9.2029   21.2050 C   0  0  0  0  0  0  0  0  0  0  0  0
  -25.0946   -9.9460   23.3081 C   0  0  0  0  0  0  0  0  0  0  0  0
  -21.5280  -37.2766   19.2512 C   0  0  0  0  0  0  0  0  0  0  0  0
  -22.5809  -34.9891   18.0658 C   0  0  0  0  0  0  0  0  0  0  0  0
  -25.3561  -28.4453   18.9562 C   0  0  0  0  0  0  0  0  0  0  0  0
  -23.8310   -7.9795   21.7851 C   0  0  0  0  0  0  0  0  0  0  0  0
  -24.7595   -8.7225   23.8883 C   0  0  0  0  0  0  0  0  0  0  0  0
  -26.5493  -27.7475   18.7743 C   0  0  0  0  0  0  0  0  0  0  0  0
  -21.4062   -6.7598   23.8013 C   0  0  0  0  0  0  0  0  0  0  0  0
  -20.1356   -6.2459   23.5423 C   0  0  0  0  0  0  0  0  0  0  0  0
  -27.3852  -28.6475   20.8504 C   0  0  0  0  0  0  0  0  0  0  0  0
  -29.9963  -25.1748   19.9052 C   0  0  0  0  0  0  0  0  0  0  0  0
  -21.1324   -4.2814   22.5502 C   0  0  0  0  0  0  0  0  0  0  0  0
  -24.7979  -10.1862   21.9665 C   0  0  0  0  0  0  0  0  0  0  0  0
  -24.3493  -12.6099   21.3092 C   0  0  0  0  0  0  0  0  0  0  0  0
  -22.6166  -36.6278   19.8550 C   0  0  0  0  0  0  0  0  0  0  0  0
  -25.1724  -29.2594   20.0831 C   0  0  0  0  0  0  0  0  0  0  0  0
  -23.1571  -35.4764   19.2513 C   0  0  0  0  0  0  0  0  0  0  0  0
  -26.1877  -29.3525   21.0457 C   0  0  0  0  0  0  0  0  0  0  0  0
  -30.0499  -23.8941   20.4441 C   0  0  0  0  0  0  0  0  0  0  0  0
  -28.9450  -23.3812   21.1146 C   0  0  0  0  0  0  0  0  0  0  0  0
  -24.1277   -7.7393   23.1268 C   0  0  0  0  0  0  0  0  0  0  0  0
  -27.5652  -27.8508   19.7200 C   0  0  0  0  0  0  0  0  0  0  0  0
  -22.5399   -6.0345   23.4347 C   0  0  0  0  0  0  0  0  0  0  0  0
  -19.9987   -5.0067   22.9168 C   0  0  0  0  0  0  0  0  0  0  0  0
  -22.4030   -4.7953   22.8092 C   0  0  0  0  0  0  0  0  0  0  0  0
  -25.1448  -11.4499   21.3676 C   0  0  0  0  0  0  0  0  0  0  0  0
  -27.8196  -24.1827   21.2180 C   0  0  0  0  0  0  0  0  0  0  0  0
  -28.8238  -25.8961   20.0627 C   0  0  0  0  0  0  0  0  0  1  0  0
  -25.1263  -13.5260   20.6434 C   0  0  0  0  0  0  0  0  0  0  0  0
  -23.0262  -12.8388   21.8120 C   0  0  0  0  0  0  0  0  0  0  0  0
  -24.6627  -32.3620   20.5499 C   0  0  0  0  0  0  0  0  0  0  0  0
  -24.3068  -31.4408   23.6398 C   0  0  0  0  0  0  0  0  0  0  0  0
  -24.9895  -29.1523   26.0777 C   0  0  0  0  0  0  0  0  0  0  0  0
  -30.2993  -15.8608   20.2573 C   0  0  0  0  0  0  0  0  0  0  0  0
  -23.2185  -37.2269   21.1013 C   0  0  0  0  0  0  0  0  0  0  0  0
  -23.8691  -29.9845   20.2781 C   0  0  0  0  0  0  0  0  0  0  0  0
  -26.0324  -30.1971   22.2830 C   0  0  0  0  0  0  0  0  0  0  0  0
  -24.1316  -36.2665   21.8591 C   0  0  0  0  0  0  0  0  0  0  0  0
  -29.4483  -12.9727   18.0950 C   0  0  0  0  0  0  0  0  0  0  0  0
  -25.0878  -35.5683   20.8974 C   0  0  0  0  0  0  0  0  0  0  0  0
  -28.2319  -12.3780   18.8024 C   0  0  0  0  0  0  0  0  0  0  0  0
  -30.2547  -19.0916   21.5210 C   0  0  0  0  0  0  0  0  0  0  0  0
  -28.1178  -18.6274   20.2558 C   0  0  0  0  0  0  0  0  0  0  0  0
  -30.3710  -13.6990   19.0687 C   0  0  0  0  0  0  0  0  0  0  0  0
  -30.2583  -17.6369   21.9833 C   0  0  0  0  0  0  0  0  0  0  0  0
  -28.1785  -17.1701   20.7231 C   0  0  0  0  0  0  0  0  0  0  0  0
  -28.4691  -14.1519   20.5853 C   0  0  0  0  0  0  0  0  0  0  0  0
  -24.3204  -34.7302   19.8678 C   0  0  1  0  0  0  0  0  0  0  0  0
  -23.9889  -31.1899   21.2056 C   0  0  1  0  0  0  0  0  0  0  0  0
  -27.4973  -13.4514   19.6238 C   0  0  2  0  0  0  0  0  0  0  0  0
  -28.8250  -19.5522   21.2442 C   0  0  0  0  0  0  0  0  0  0  0  0
  -31.3008  -23.0933   20.2908 C   0  0  0  0  0  0  0  0  0  0  0  0
  -26.6021  -23.6860   21.9270 C   0  0  0  0  0  0  0  0  0  0  0  0
  -24.5939  -28.6904   28.5124 C   0  0  0  0  0  0  0  0  0  0  0  0
  -26.3977  -33.5379   24.3749 C   0  0  0  0  0  0  0  0  0  0  0  0
  -26.6521  -32.4055   26.5933 C   0  0  0  0  0  0  0  0  0  0  0  0
  -24.4583  -33.4022   25.9481 C   0  0  0  0  0  0  0  0  0  0  0  0
  -23.5566  -26.6314   25.4857 C   0  0  0  0  0  0  0  0  0  0  0  0
  -28.9737  -22.0024   21.7055 C   0  0  0  0  0  0  0  0  0  0  0  0
  -25.2337  -31.2767   24.8200 C   0  0  1  0  0  0  0  0  0  0  0  0
  -24.0947  -28.4655   27.0936 C   0  0  2  0  0  0  0  0  0  0  0  0
  -25.6894  -32.6411   25.4099 C   0  0  0  0  0  0  0  0  0  0  0  0
  -26.3359  -11.6117   20.7851 N   0  0  0  0  0  0  0  0  0  0  0  0
  -27.7302  -25.4314   20.7075 N   0  0  0  0  0  0  0  0  0  0  0  0
  -26.2945  -12.8841   20.3544 N   0  0  0  0  0  0  0  0  0  0  0  0
  -24.7422  -30.8918   22.4254 N   0  0  0  0  0  0  0  0  0  0  0  0
  -29.6416  -14.6807   19.8716 N   0  0  0  0  0  0  0  0  0  0  0  0
  -29.5629  -16.7764   21.0242 N   0  0  0  0  0  0  0  0  0  0  0  0
  -24.9175  -14.8101   20.2828 N   0  0  0  0  0  0  0  0  0  0  0  0
  -22.3711  -11.7896   22.4710 N   0  0  0  0  0  0  0  0  0  0  0  0
  -23.8691  -33.4897   20.4612 N   0  0  0  0  0  0  0  0  0  0  0  0
  -24.5360  -30.4178   25.7707 N   0  0  0  0  0  0  0  0  0  0  0  0
  -28.8584  -20.9278   20.6836 N   0  3  0  0  0  0  0  0  0  0  0  0
  -24.0517  -26.9980   26.8376 N   0  3  0  0  0  0  0  0  0  0  0  0
  -22.4358  -13.9359   21.6662 O   0  0  0  0  0  0  0  0  0  0  0  0
  -25.8175  -32.2518   20.1552 O   0  0  0  0  0  0  0  0  0  0  0  0
  -23.2327  -32.0281   23.7915 O   0  0  0  0  0  0  0  0  0  0  0  0
  -25.9926  -28.6210   25.6067 O   0  0  0  0  0  0  0  0  0  0  0  0
  -31.4727  -16.0825   19.9332 O   0  0  0  0  0  0  0  0  0  0  0  0
  -23.8007   -6.5457   23.6933 O   0  0  0  0  0  0  0  0  0  0  0  0
  -28.7479  -27.1615   19.5420 O   0  0  0  0  0  0  0  0  0  1  0  0
  -18.7785   -4.5126   22.6695 F   0  0  0  0  0  0  0  0  0  0  0  0
  -23.4885   -4.0934   22.4557 F   0  0  0  0  0  0  0  0  0  0  0  0
  1  2  1  0  0  0  0
  1  5  2  0  0  0  0
  2  6  2  0  0  0  0
  3  8  2  0  0  0  0
  3 16  1  0  0  0  0
  4  9  1  0  0  0  0
  4 16  2  0  0  0  0
  5 18  1  0  0  0  0
  6 20  1  0  0  0  0
  7 10  2  0  0  0  0
  7 19  1  0  0  0  0
  8 24  1  0  0  0  0
  9 24  2  0  0  0  0
 10 25  1  0  0  0  0
 11 12  2  0  0  0  0
 11 26  1  0  0  0  0
 12 27  1  0  0  0  0
 13 21  1  0  0  0  0
 13 25  2  0  0  0  0
 14 22  2  0  0  0  0
 14 31  1  0  0  0  0
 15 27  2  0  0  0  0
 15 28  1  0  0  0  0
 16 29  1  0  0  0  0
 17 29  1  0  0  0  0
 17 32  2  0  0  0  0
 17 33  1  0  0  0  0
 18 20  2  0  0  0  0
 18 38  1  0  0  0  0
 19 21  2  0  0  0  0
 19 39  1  0  0  0  0
 20 51  1  0  0  0  0
 21 40  1  0  0  0  0
 22 23  1  0  0  0  0
 22 55  1  0  0  0  0
 23 30  2  0  0  0  0
 23 62  1  0  0  0  0
 24 83  1  0  0  0  0
 25 84  1  0  0  0  0
 26 28  2  0  0  0  0
 26 83  1  0  0  0  0
 27 85  1  0  0  0  0
 28 86  1  0  0  0  0
 29 66  2  0  0  0  0
 30 56  1  0  0  0  0
 30 67  1  0  0  0  0
 31 67  2  0  0  0  0
 31 84  1  0  0  0  0
 32 68  1  0  0  0  0
 32 72  1  0  0  0  0
 33 73  1  0  0  0  0
 33 78  2  0  0  0  0
 34 52  1  0  0  0  0
 34 74  1  0  0  0  0
 34 79  2  0  0  0  0
 35 63  1  0  0  0  0
 35 69  1  0  0  0  0
 35 80  2  0  0  0  0
 36 64  1  0  0  0  0
 36 75  1  0  0  0  0
 36 81  2  0  0  0  0
 37 70  1  0  0  0  0
 37 71  1  0  0  0  0
 37 82  2  0  0  0  0
 38 41  1  0  0  0  0
 39 52  1  0  0  0  0
 40 69  1  0  0  0  0
 41 43  1  0  0  0  0
 42 44  1  0  0  0  0
 42 47  1  0  0  0  0
 43 51  1  0  0  0  0
 44 53  1  0  0  0  0
 45 48  1  0  0  0  0
 45 54  1  0  0  0  0
 46 49  1  0  0  0  0
 46 54  1  0  0  0  0
 47 70  1  0  0  0  0
 48 71  1  0  0  0  0
 49 71  1  0  0  0  0
 50 53  1  0  0  0  0
 50 70  1  0  0  0  0
 51 74  1  0  0  0  0
 52 69  1  0  0  0  0
 53 68  1  0  0  0  0
 54 76  1  0  0  0  0
 57 64  1  0  0  0  0
 58 65  1  0  0  0  0
 59 65  1  0  0  0  0
 60 65  1  0  0  0  0
 61 77  1  0  0  0  0
 62 76  1  0  0  0  0
 63 65  1  0  0  0  0
 63 75  1  0  0  0  0
 64 77  1  0  0  0  0
 66 68  1  0  0  0  0
M  CHG  2  76   1  77   1
M  ISO  4  31 101  37 100  71 100  84 101
M  END
> <Batch ID>
0135

> <Smiles>
CNC(C)C(=O)NC(C(=O)N1Cc2cc([101O:1][101c:1]3cc(C)c(CNC4CC[100N:0]([100C:0](=O)N5CCCC(n6nc(-c7ccc(Oc8ccc(F)cc8F)cc7)c(C(N)=O)c6N)C5)CC4)c(C)n3)ccc2CC1C(=O)NC1CCCc2ccccc21)C(C)(C)C

> <Shape>
0.341

> <Color>
0.166

> <Negative vol penalty>
0.000

$$$$

  -OEChem-04052321003D

 87 96  0     1  0  0  0  0  0999 V2000
  -25.2613  -33.9377   12.8901 C   0  0  0  0  0  0  0  0  0  0  0  0
  -25.4932  -32.6808   13.4395 C   0  0  0  0  0  0  0  0  0  0  0  0
  -24.4657   -9.5397   22.3054 C   0  0  0  0  0  0  0  0  0  0  0  0
  -24.0266   -9.5207   19.9297 C   0  0  0  0  0  0  0  0  0  0  0  0
  -25.6624  -35.0825   13.5775 C   0  0  0  0  0  0  0  0  0  0  0  0
  -26.1272  -32.5680   14.6763 C   0  0  0  0  0  0  0  0  0  0  0  0
  -29.8050  -22.4492   20.6230 C   0  0  0  0  0  0  0  0  0  0  0  0
  -27.8281  -21.6242   21.7403 C   0  0  0  0  0  0  0  0  0  0  0  0
  -25.0587  -28.3544   18.9903 C   0  0  0  0  0  0  0  0  0  0  0  0
  -29.0766  -23.5340   20.1351 C   0  0  0  0  0  0  0  0  0  0  0  0
  -27.0996  -22.7091   21.2524 C   0  0  0  0  0  0  0  0  0  0  0  0
  -24.0502   -8.2111   22.3929 C   0  0  0  0  0  0  0  0  0  0  0  0
  -23.6112   -8.1920   20.0171 C   0  0  0  0  0  0  0  0  0  0  0  0
  -25.7090  -27.1669   19.3231 C   0  0  0  0  0  0  0  0  0  0  0  0
  -21.1269   -6.5173   22.4925 C   0  0  0  0  0  0  0  0  0  0  0  0
  -20.2733   -6.1736   23.5407 C   0  0  0  0  0  0  0  0  0  0  0  0
  -26.9540  -28.3337   21.0283 C   0  0  0  0  0  0  0  0  0  0  0  0
  -21.9081   -4.5909   24.3530 C   0  0  0  0  0  0  0  0  0  0  0  0
  -24.4538  -10.1946   21.0739 C   0  0  0  0  0  0  0  0  0  0  0  0
  -24.3262  -12.6771   21.6469 C   0  0  0  0  0  0  0  0  0  0  0  0
  -29.1807  -21.4942   21.4256 C   0  0  0  0  0  0  0  0  0  0  0  0
  -26.2930  -34.9840   14.8279 C   0  0  0  0  0  0  0  0  0  0  0  0
  -25.3596  -29.5447   19.6678 C   0  0  0  0  0  0  0  0  0  0  0  0
  -26.5383  -33.7124   15.3805 C   0  0  0  0  0  0  0  0  0  0  0  0
  -26.3043  -29.5344   20.7039 C   0  0  0  0  0  0  0  0  0  0  0  0
  -27.7239  -23.6640   20.4498 C   0  0  0  0  0  0  0  0  0  0  0  0
  -23.6230   -7.5372   21.2487 C   0  0  0  0  0  0  0  0  0  0  0  0
  -26.6589  -27.1570   20.3403 C   0  0  0  0  0  0  0  0  0  0  0  0
  -22.3711   -5.8978   22.3744 C   0  0  0  0  0  0  0  0  0  0  0  0
  -20.6639   -5.2105   24.4710 C   0  0  0  0  0  0  0  0  0  0  0  0
  -22.7616   -4.9346   23.3047 C   0  0  0  0  0  0  0  0  0  0  0  0
  -24.8823  -11.5673   20.9830 C   0  0  0  0  0  0  0  0  0  0  0  0
  -25.0849  -13.7430   21.2286 C   0  0  0  0  0  0  0  0  0  0  0  0
  -23.2227  -12.7391   22.5601 C   0  0  0  0  0  0  0  0  0  0  0  0
  -26.5517  -32.3673   18.8220 C   0  0  0  0  0  0  0  0  0  0  0  0
  -25.8637  -33.1418   21.8959 C   0  0  0  0  0  0  0  0  0  0  0  0
  -25.3314  -32.0908   25.0989 C   0  0  0  0  0  0  0  0  0  0  0  0
  -30.0429  -16.0414   20.0971 C   0  0  0  0  0  0  0  0  0  0  0  0
  -26.7509  -36.2479   15.5115 C   0  0  0  0  0  0  0  0  0  0  0  0
  -24.6299  -30.8118   19.3148 C   0  0  0  0  0  0  0  0  0  0  0  0
  -26.6486  -30.7812   21.4755 C   0  0  0  0  0  0  0  0  0  0  0  0
  -27.0800  -36.0559   16.9897 C   0  0  0  0  0  0  0  0  0  0  0  0
  -28.5252  -14.0878   17.5365 C   0  0  0  0  0  0  0  0  0  0  0  0
  -27.9415  -34.8127   17.1878 C   0  0  0  0  0  0  0  0  0  0  0  0
  -30.8083  -19.0078   23.9763 C   0  0  0  0  0  0  0  0  0  0  0  0
  -27.4010  -13.3452   18.2608 C   0  0  0  0  0  0  0  0  0  0  0  0
  -30.2357  -17.7214   23.3878 C   0  0  0  0  0  0  0  0  0  0  0  0
  -29.4140  -18.9966   21.3742 C   0  0  0  0  0  0  0  0  0  0  0  0
  -29.7615  -14.2403   18.4198 C   0  0  0  0  0  0  0  0  0  0  0  0
  -28.3857  -14.1132   20.4606 C   0  0  0  0  0  0  0  0  0  0  0  0
  -29.9745  -20.3106   21.9581 C   0  0  2  0  0  0  0  0  0  0  0  0
  -27.2009  -33.5499   16.7313 C   0  0  1  0  0  0  0  0  0  0  0  0
  -25.3872  -32.0712   19.7242 C   0  0  1  0  0  0  0  0  0  0  0  0
  -30.0375  -20.2549   23.5084 C   0  0  2  0  0  0  0  0  0  0  0  0
  -27.0978  -13.9841   19.6294 C   0  0  2  0  0  0  0  0  0  0  0  0
  -30.2020  -17.7790   21.8619 C   0  0  2  0  0  0  0  0  0  0  0  0
  -24.8281  -32.9589   27.3990 C   0  0  0  0  0  0  0  0  0  0  0  0
  -28.7614  -34.0532   22.1833 C   0  0  0  0  0  0  0  0  0  0  0  0
  -28.4579  -34.0022   24.6680 C   0  0  0  0  0  0  0  0  0  0  0  0
  -27.0834  -35.5508   23.2769 C   0  0  0  0  0  0  0  0  0  0  0  0
  -31.1633  -22.6061   26.2967 C   0  0  0  0  0  0  0  0  0  0  0  0
  -22.7794  -30.5978   25.2301 C   0  0  0  0  0  0  0  0  0  0  0  0
  -26.9415  -24.8323   19.9260 C   0  0  0  0  0  0  0  0  0  1  0  0
  -30.6947  -21.5058   24.1039 C   0  0  0  0  0  0  0  0  0  0  0  0
  -26.6058  -33.0690   23.2085 C   0  0  1  0  0  0  0  0  0  0  0  0
  -24.2415  -32.4261   26.1010 C   0  0  2  0  0  0  0  0  0  0  0  0
  -27.7222  -34.1455   23.3185 C   0  0  0  0  0  0  0  0  0  0  0  0
  -25.9144  -11.8975   20.2021 N   0  0  0  0  0  0  0  0  0  0  0  0
  -26.0129  -13.2269   20.3726 N   0  0  0  0  0  0  0  0  0  0  0  0
  -25.9127  -31.9963   21.0889 N   0  0  0  0  0  0  0  0  0  0  0  0
  -29.4058  -14.8536   19.7017 N   0  0  0  0  0  0  0  0  0  0  0  0
  -25.0419  -15.0619   21.5130 N   0  0  0  0  0  0  0  0  0  0  0  0
  -21.9372  -12.9463   22.0415 N   0  0  0  0  0  0  0  0  0  0  0  0
  -26.2307  -33.1455   17.7261 N   0  0  0  0  0  0  0  0  0  0  0  0
  -25.5927  -33.1497   24.2552 N   0  0  0  0  0  0  0  0  0  0  0  0
  -29.6426  -16.5595   21.3227 N   0  0  0  0  0  0  0  0  0  0  0  0
  -30.6115  -21.4232   25.5743 N   0  3  0  0  0  0  0  0  0  0  0  0
  -23.4340  -31.2130   26.4132 N   0  3  0  0  0  0  0  0  0  0  0  0
  -23.3741  -12.6309   23.8006 O   0  0  0  0  0  0  0  0  0  0  0  0
  -27.6597  -31.9239   19.1002 O   0  0  0  0  0  0  0  0  0  0  0  0
  -25.2567  -34.1743   21.6008 O   0  0  0  0  0  0  0  0  0  0  0  0
  -25.8971  -31.0001   25.0699 O   0  0  0  0  0  0  0  0  0  0  0  0
  -30.9007  -16.6018   19.4063 O   0  0  0  0  0  0  0  0  0  0  0  0
  -23.2177   -6.2406   21.3336 O   0  0  0  0  0  0  0  0  0  0  0  0
  -27.2956  -25.9994   20.6667 O   0  0  0  0  0  0  0  0  0  1  0  0
  -19.8447   -4.8817   25.4785 F   0  0  0  0  0  0  0  0  0  0  0  0
  -23.9562   -4.3368   23.1972 F   0  0  0  0  0  0  0  0  0  0  0  0
  1  2  1  0  0  0  0
  1  5  2  0  0  0  0
  2  6  2  0  0  0  0
  3 12  2  0  0  0  0
  3 19  1  0  0  0  0
  4 13  1  0  0  0  0
  4 19  2  0  0  0  0
  5 22  1  0  0  0  0
  6 24  1  0  0  0  0
  7 10  2  0  0  0  0
  7 21  1  0  0  0  0
  8 11  1  0  0  0  0
  8 21  2  0  0  0  0
  9 14  2  0  0  0  0
  9 23  1  0  0  0  0
 10 26  1  0  0  0  0
 11 26  2  0  0  0  0
 12 27  1  0  0  0  0
 13 27  2  0  0  0  0
 14 28  1  0  0  0  0
 15 16  2  0  0  0  0
 15 29  1  0  0  0  0
 16 30  1  0  0  0  0
 17 25  1  0  0  0  0
 17 28  2  0  0  0  0
 18 30  2  0  0  0  0
 18 31  1  0  0  0  0
 19 32  1  0  0  0  0
 20 32  1  0  0  0  0
 20 33  2  0  0  0  0
 20 34  1  0  0  0  0
 21 51  1  0  0  0  0
 22 24  2  0  0  0  0
 22 39  1  0  0  0  0
 23 25  2  0  0  0  0
 23 40  1  0  0  0  0
 24 52  1  0  0  0  0
 25 41  1  0  0  0  0
 26 63  1  0  0  0  0
 27 84  1  0  0  0  0
 28 85  1  0  0  0  0
 29 31  2  0  0  0  0
 29 84  1  0  0  0  0
 30 86  1  0  0  0  0
 31 87  1  0  0  0  0
 32 68  2  0  0  0  0
 33 69  1  0  0  0  0
 33 72  1  0  0  0  0
 34 73  1  0  0  0  0
 34 79  2  0  0  0  0
 35 53  1  0  0  0  0
 35 74  1  0  0  0  0
 35 80  2  0  0  0  0
 36 65  1  0  0  0  0
 36 70  1  0  0  0  0
 36 81  2  0  0  0  0
 37 66  1  0  0  0  0
 37 75  1  0  0  0  0
 37 82  2  0  0  0  0
 38 71  1  0  0  0  0
 38 76  1  0  0  0  0
 38 83  2  0  0  0  0
 39 42  1  0  0  0  0
 40 53  1  0  0  0  0
 41 70  1  0  0  0  0
 42 44  1  0  0  0  0
 43 46  1  0  0  0  0
 43 49  1  0  0  0  0
 44 52  1  0  0  0  0
 45 47  1  0  0  0  0
 45 54  1  0  0  0  0
 46 55  1  0  0  0  0
 47 56  1  0  0  0  0
 48 51  1  0  0  0  0
 48 56  1  0  0  0  0
 49 71  1  0  0  0  0
 50 55  1  0  0  0  0
 50 71  1  0  0  0  0
 51 54  1  0  0  0  0
 52 74  1  0  0  0  0
 53 70  1  0  0  0  0
 54 64  1  0  0  0  0
 55 69  1  0  0  0  0
 56 76  1  0  0  0  0
 57 66  1  0  0  0  0
 58 67  1  0  0  0  0
 59 67  1  0  0  0  0
 60 67  1  0  0  0  0
 61 77  1  0  0  0  0
 62 78  1  0  0  0  0
 63 85  1  0  0  0  0
 64 77  1  0  0  0  0
 65 67  1  0  0  0  0
 65 75  1  0  0  0  0
 66 78  1  0  0  0  0
 68 69  1  0  0  0  0
M  CHG  2  77   1  78   1
M  ISO  4  38 100  63 101  76 100  85 101
M  END
> <Batch ID>
0135

> <Smiles>
CNCC1CCC([100NH:0][100C:0](=O)N2CCCC(n3nc(-c4ccc(Oc5ccc(F)cc5F)cc4)c(C(N)=O)c3N)C2)CC1c1ccc([101CH2:1][101O:1]c2ccc3c(c2)CN(C(=O)C(NC(=O)C(C)NC)C(C)(C)C)C(C(=O)NC2CCCc4ccccc42)C3)cc1

> <Shape>
0.284

> <Color>
0.133

> <Negative vol penalty>
0.000

$$$$

  -OEChem-04052321003D

 88 97  0     1  0  0  0  0  0999 V2000
  -27.8243  -34.2865   21.5159 C   0  0  0  0  0  0  0  0  0  0  0  0
  -27.9294  -32.9092   21.3504 C   0  0  0  0  0  0  0  0  0  0  0  0
  -22.9779  -10.0816   19.8561 C   0  0  0  0  0  0  0  0  0  0  0  0
  -23.9115   -9.6892   22.0496 C   0  0  0  0  0  0  0  0  0  0  0  0
  -26.7719  -34.8199   22.2588 C   0  0  0  0  0  0  0  0  0  0  0  0
  -26.9825  -32.0644   21.9286 C   0  0  0  0  0  0  0  0  0  0  0  0
  -25.4207  -28.4380   18.7576 C   0  0  0  0  0  0  0  0  0  0  0  0
  -30.0724  -20.6489   21.1097 C   0  0  0  0  0  0  0  0  0  0  0  0
  -22.2074   -8.9252   19.9772 C   0  0  0  0  0  0  0  0  0  0  0  0
  -23.1409   -8.5328   22.1707 C   0  0  0  0  0  0  0  0  0  0  0  0
  -26.2688  -27.3474   18.5703 C   0  0  0  0  0  0  0  0  0  0  0  0
  -29.9022  -21.8135   20.3613 C   0  0  0  0  0  0  0  0  0  0  0  0
  -19.9379   -7.7411   22.9014 C   0  0  0  0  0  0  0  0  0  0  0  0
  -19.2722   -7.5312   24.1091 C   0  0  0  0  0  0  0  0  0  0  0  0
  -24.9390  -26.0558   20.1139 C   0  0  0  0  0  0  0  0  0  0  0  0
  -28.0387  -20.7987   19.2060 C   0  0  0  0  0  0  0  0  0  0  0  0
  -20.4836   -5.4637   24.4175 C   0  0  0  0  0  0  0  0  0  0  0  0
  -23.8300  -10.4636   20.8924 C   0  0  0  0  0  0  0  0  0  0  0  0
  -24.2680  -12.9630   21.1541 C   0  0  0  0  0  0  0  0  0  0  0  0
  -25.8063  -33.9818   22.8383 C   0  0  0  0  0  0  0  0  0  0  0  0
  -24.3299  -28.3490   19.6343 C   0  0  0  0  0  0  0  0  0  0  0  0
  -25.9170  -32.5870   22.6810 C   0  0  0  0  0  0  0  0  0  0  0  0
  -29.2259  -19.5591   20.9063 C   0  0  0  0  0  0  0  0  0  0  0  0
  -24.0771  -27.1459   20.3087 C   0  0  0  0  0  0  0  0  0  0  0  0
  -28.2090  -19.6340   19.9544 C   0  0  0  0  0  0  0  0  0  0  0  0
  -22.2889   -8.1508   21.1344 C   0  0  0  0  0  0  0  0  0  0  0  0
  -26.0297  -26.1570   19.2506 C   0  0  0  0  0  0  0  0  0  0  0  0
  -28.8854  -21.8885   19.4094 C   0  0  0  0  0  0  0  0  0  0  0  0
  -20.8764   -6.8123   22.4517 C   0  0  0  0  0  0  0  0  0  0  0  0
  -19.5450   -6.3925   24.8671 C   0  0  0  0  0  0  0  0  0  0  0  0
  -21.1492   -5.6736   23.2098 C   0  0  0  0  0  0  0  0  0  0  0  0
  -24.6266  -11.6577   20.7677 C   0  0  0  0  0  0  0  0  0  0  0  0
  -25.3596  -13.7299   20.8276 C   0  0  0  0  0  0  0  0  0  0  0  0
  -23.0564  -13.4397   21.7546 C   0  0  0  0  0  0  0  0  0  0  0  0
  -23.4711  -29.8430   22.3053 C   0  0  0  0  0  0  0  0  0  0  0  0
  -20.7544  -28.1086   21.9399 C   0  0  0  0  0  0  0  0  0  0  0  0
  -19.2342  -25.3464   20.6337 C   0  0  0  0  0  0  0  0  0  0  0  0
  -30.8798  -14.5440   20.7236 C   0  0  0  0  0  0  0  0  0  0  0  0
  -24.7133  -34.6018   23.6722 C   0  0  0  0  0  0  0  0  0  0  0  0
  -23.4089  -29.5259   19.8050 C   0  0  0  0  0  0  0  0  0  0  0  0
  -22.9078  -26.9924   21.2455 C   0  0  0  0  0  0  0  0  0  0  0  0
  -23.5415  -33.6602   23.9380 C   0  0  0  0  0  0  0  0  0  0  0  0
  -29.4623  -12.6186   18.0854 C   0  0  0  0  0  0  0  0  0  0  0  0
  -24.0471  -32.2881   24.3722 C   0  0  0  0  0  0  0  0  0  0  0  0
  -28.0513  -12.2997   18.5826 C   0  0  0  0  0  0  0  0  0  0  0  0
  -30.8431  -16.6704   23.7663 C   0  0  0  0  0  0  0  0  0  0  0  0
  -30.8430  -17.7338   21.4898 C   0  0  0  0  0  0  0  0  0  0  0  0
  -30.4776  -12.6121   19.2261 C   0  0  0  0  0  0  0  0  0  0  0  0
  -28.7207  -13.1603   20.8652 C   0  0  0  0  0  0  0  0  0  0  0  0
  -29.4470  -17.2143   24.0262 C   0  0  0  0  0  0  0  0  0  0  0  0
  -24.8957  -31.6394   23.2719 C   0  0  1  0  0  0  0  0  0  0  0  0
  -29.4312  -18.3018   21.7335 C   0  0  1  0  0  0  0  0  0  0  0  0
  -22.6268  -29.4877   21.1143 C   0  0  1  0  0  0  0  0  0  0  0  0
  -27.6523  -13.2102   19.7595 C   0  0  2  0  0  0  0  0  0  0  0  0
  -31.1314  -16.4590   22.2821 C   0  0  2  0  0  0  0  0  0  0  0  0
  -27.2914  -18.4797   19.7184 C   0  0  0  0  0  0  0  0  0  0  0  0
  -17.0143  -24.1802   20.5367 C   0  0  0  0  0  0  0  0  0  0  0  0
  -21.1577  -27.1086   24.7943 C   0  0  0  0  0  0  0  0  0  0  0  0
  -19.5153  -25.2815   24.3121 C   0  0  0  0  0  0  0  0  0  0  0  0
  -18.7911  -27.6664   24.2089 C   0  0  0  0  0  0  0  0  0  0  0  0
  -27.8822  -19.0823   23.5892 C   0  0  0  0  0  0  0  0  0  0  0  0
  -19.0978  -25.6024   17.6884 C   0  0  0  0  0  0  0  0  0  0  0  0
  -28.2201  -25.3725   18.7581 C   0  0  0  0  0  0  0  0  0  1  0  0
  -29.0921  -24.2550   19.2971 C   0  0  0  0  0  0  0  0  0  0  0  0
  -20.2874  -26.7457   22.3908 C   0  0  1  0  0  0  0  0  0  0  0  0
  -17.9385  -25.1808   19.8603 C   0  0  2  0  0  0  0  0  0  0  0  0
  -19.9611  -26.7037   23.9104 C   0  0  0  0  0  0  0  0  0  0  0  0
  -25.8504  -11.5952   20.2362 N   0  0  0  0  0  0  0  0  0  0  0  0
  -26.2702  -12.8709   20.2862 N   0  0  0  0  0  0  0  0  0  0  0  0
  -22.0398  -28.1735   21.3838 N   0  0  0  0  0  0  0  0  0  0  0  0
  -30.0407  -13.4965   20.3091 N   0  0  0  0  0  0  0  0  0  0  0  0
  -25.6199  -15.0486   20.9535 N   0  0  0  0  0  0  0  0  0  0  0  0
  -22.0359  -12.5173   22.0230 N   0  0  0  0  0  0  0  0  0  0  0  0
  -24.0470  -31.0970   22.2327 N   0  0  0  0  0  0  0  0  0  0  0  0
  -19.1645  -26.3931   21.5287 N   0  0  0  0  0  0  0  0  0  0  0  0
  -30.3869  -15.3387   21.7514 N   0  0  0  0  0  0  0  0  0  0  0  0
  -29.2304  -18.4931   23.2437 N   0  3  1  0  0  0  0  0  0  0  0  0
  -18.2185  -24.7015   18.4772 N   0  3  0  0  0  0  0  0  0  0  0  0
  -22.8775  -14.6505   22.0293 O   0  0  0  0  0  0  0  0  0  0  0  0
  -23.5900  -29.0396   23.2230 O   0  0  0  0  0  0  0  0  0  0  0  0
  -20.0035  -29.0786   22.0696 O   0  0  0  0  0  0  0  0  0  0  0  0
  -20.2092  -24.6177   20.4638 O   0  0  0  0  0  0  0  0  0  0  0  0
  -31.9839  -14.7585   20.2119 O   0  0  0  0  0  0  0  0  0  0  0  0
  -21.5370   -7.0225   21.2530 O   0  0  0  0  0  0  0  0  0  0  0  0
  -26.8563  -25.0912   19.0701 O   0  0  0  0  0  0  0  0  0  1  0  0
  -28.7183  -23.0322   18.6739 O   0  0  0  0  0  0  0  0  0  0  0  0
  -18.9068   -6.1919   26.0275 F   0  0  0  0  0  0  0  0  0  0  0  0
  -22.0507   -4.7783   22.7835 F   0  0  0  0  0  0  0  0  0  0  0  0
  1  2  1  0  0  0  0
  1  5  2  0  0  0  0
  2  6  2  0  0  0  0
  3  9  2  0  0  0  0
  3 18  1  0  0  0  0
  4 10  1  0  0  0  0
  4 18  2  0  0  0  0
  5 20  1  0  0  0  0
  6 22  1  0  0  0  0
  7 11  2  0  0  0  0
  7 21  1  0  0  0  0
  8 12  2  0  0  0  0
  8 23  1  0  0  0  0
  9 26  1  0  0  0  0
 10 26  2  0  0  0  0
 11 27  1  0  0  0  0
 12 28  1  0  0  0  0
 13 14  2  0  0  0  0
 13 29  1  0  0  0  0
 14 30  1  0  0  0  0
 15 24  1  0  0  0  0
 15 27  2  0  0  0  0
 16 25  1  0  0  0  0
 16 28  2  0  0  0  0
 17 30  2  0  0  0  0
 17 31  1  0  0  0  0
 18 32  1  0  0  0  0
 19 32  1  0  0  0  0
 19 33  2  0  0  0  0
 19 34  1  0  0  0  0
 20 22  2  0  0  0  0
 20 39  1  0  0  0  0
 21 24  2  0  0  0  0
 21 40  1  0  0  0  0
 22 51  1  0  0  0  0
 23 25  2  0  0  0  0
 23 52  1  0  0  0  0
 24 41  1  0  0  0  0
 25 56  1  0  0  0  0
 26 84  1  0  0  0  0
 27 85  1  0  0  0  0
 28 86  1  0  0  0  0
 29 31  2  0  0  0  0
 29 84  1  0  0  0  0
 30 87  1  0  0  0  0
 31 88  1  0  0  0  0
 32 68  2  0  0  0  0
 33 69  1  0  0  0  0
 33 72  1  0  0  0  0
 34 73  1  0  0  0  0
 34 79  2  0  0  0  0
 35 53  1  0  0  0  0
 35 74  1  0  0  0  0
 35 80  2  0  0  0  0
 36 65  1  0  0  0  0
 36 70  1  0  0  0  0
 36 81  2  0  0  0  0
 37 66  1  0  0  0  0
 37 75  1  0  0  0  0
 37 82  2  0  0  0  0
 38 71  1  0  0  0  0
 38 76  1  0  0  0  0
 38 83  2  0  0  0  0
 39 42  1  0  0  0  0
 40 53  1  0  0  0  0
 41 70  1  0  0  0  0
 42 44  1  0  0  0  0
 43 45  1  0  0  0  0
 43 48  1  0  0  0  0
 44 51  1  0  0  0  0
 45 54  1  0  0  0  0
 46 50  1  0  0  0  0
 46 55  1  0  0  0  0
 47 52  1  0  0  0  0
 47 55  1  0  0  0  0
 48 71  1  0  0  0  0
 49 54  1  0  0  0  0
 49 71  1  0  0  0  0
 50 77  1  0  0  0  0
 51 74  1  0  0  0  0
 52 77  1  0  0  0  0
 53 70  1  0  0  0  0
 54 69  1  0  0  0  0
 55 76  1  0  0  0  0
 57 66  1  0  0  0  0
 58 67  1  0  0  0  0
 59 67  1  0  0  0  0
 60 67  1  0  0  0  0
 61 77  1  0  0  0  0
 62 78  1  0  0  0  0
 63 64  1  0  0  0  0
 63 85  1  0  0  0  0
 64 86  1  0  0  0  0
 65 67  1  0  0  0  0
 65 75  1  0  0  0  0
 66 78  1  0  0  0  0
 68 69  1  0  0  0  0
M  CHG  2  77   1  78   1
M  ISO  4  38 100  63 101  76 100  85 101
M  END
> <Batch ID>
0135

> <Smiles>
CNC(C)C(=O)NC(C(=O)N1Cc2cc([101O:1][101CH2:1]COc3ccc(C4CC([100NH:0][100C:0](=O)N5CCCC(n6nc(-c7ccc(Oc8ccc(F)cc8F)cc7)c(C(N)=O)c6N)C5)CCN4C)c(C)c3)ccc2CC1C(=O)NC1CCCc2ccccc21)C(C)(C)C

> <Shape>
0.410

> <Color>
0.210

> <Negative vol penalty>
0.000

$$$$

  -OEChem-04052321003D

 85 94  0     1  0  0  0  0  0999 V2000
  -27.3709  -30.3894   28.4415 C   0  0  0  0  0  0  0  0  0  0  0  0
  -27.5636  -29.5994   27.3127 C   0  0  0  0  0  0  0  0  0  0  0  0
  -27.9817  -11.6839   22.9023 C   0  0  0  0  0  0  0  0  0  0  0  0
  -26.5098  -12.7934   21.3404 C   0  0  0  0  0  0  0  0  0  0  0  0
  -26.1003  -30.8807   28.7384 C   0  0  0  0  0  0  0  0  0  0  0  0
  -26.4856  -29.2993   26.4807 C   0  0  0  0  0  0  0  0  0  0  0  0
  -27.6189  -29.8108   21.5717 C   0  0  0  0  0  0  0  0  0  0  0  0
  -26.9226  -10.8850   23.3329 C   0  0  0  0  0  0  0  0  0  0  0  0
  -25.4506  -11.9944   21.7710 C   0  0  0  0  0  0  0  0  0  0  0  0
  -28.3535  -28.7854   20.9776 C   0  0  0  0  0  0  0  0  0  0  0  0
  -24.3442   -8.8418   21.2636 C   0  0  0  0  0  0  0  0  0  0  0  0
  -23.5211   -8.2786   20.2885 C   0  0  0  0  0  0  0  0  0  0  0  0
  -26.3235  -27.8853   20.0351 C   0  0  0  0  0  0  0  0  0  0  0  0
  -21.6186   -9.4354   21.2264 C   0  0  0  0  0  0  0  0  0  0  0  0
  -27.7753  -12.6381   21.9060 C   0  0  0  0  0  0  0  0  0  0  0  0
  -30.0785  -13.0343   20.8833 C   0  0  0  0  0  0  0  0  0  0  0  0
  -25.0080  -30.5945   27.9044 C   0  0  0  0  0  0  0  0  0  0  0  0
  -26.2273  -29.8749   21.4106 C   0  0  0  0  0  0  0  0  0  0  0  0
  -25.1989  -29.7861   26.7675 C   0  0  0  0  0  0  0  0  0  0  0  0
  -25.5739  -28.9139   20.6260 C   0  0  0  0  0  0  0  0  0  0  0  0
  -25.6570  -11.0402   22.7673 C   0  0  0  0  0  0  0  0  0  0  0  0
  -27.7054  -27.8209   20.2116 C   0  0  0  0  0  0  0  0  0  0  0  0
  -23.8046   -9.7017   22.2202 C   0  0  0  0  0  0  0  0  0  0  0  0
  -22.1583   -8.5754   20.2699 C   0  0  0  0  0  0  0  0  0  0  0  0
  -22.4418   -9.9985   22.2016 C   0  0  0  0  0  0  0  0  0  0  0  0
  -28.8689  -13.4641   21.4611 C   0  0  0  0  0  0  0  0  0  0  0  0
  -30.7741  -14.1935   20.6406 C   0  0  0  0  0  0  0  0  0  0  0  0
  -30.5328  -11.7060   20.5920 C   0  0  0  0  0  0  0  0  0  0  0  0
  -23.7330  -29.7366   23.3761 C   0  0  0  0  0  0  0  0  0  0  0  0
  -22.0668  -30.4388   20.6830 C   0  0  0  0  0  0  0  0  0  0  0  0
  -20.8925  -30.8826   17.5095 C   0  0  0  0  0  0  0  0  0  0  0  0
  -29.0660  -19.8620   19.7453 C   0  0  0  0  0  0  0  0  0  0  0  0
  -23.6442  -31.1088   28.2920 C   0  0  0  0  0  0  0  0  0  0  0  0
  -25.4528  -31.0025   22.0359 C   0  0  0  0  0  0  0  0  0  0  0  0
  -24.0844  -28.9496   20.4056 C   0  0  0  0  0  0  0  0  0  0  0  0
  -22.6271  -31.0552   27.1550 C   0  0  0  0  0  0  0  0  0  0  0  0
  -27.1580  -18.1166   16.1979 C   0  0  0  0  0  0  0  0  0  0  0  0
  -31.2808  -18.6658   22.2632 C   0  0  0  0  0  0  0  0  0  0  0  0
  -22.6809  -29.7015   26.4541 C   0  0  0  0  0  0  0  0  0  0  0  0
  -25.8641  -18.4487   16.9471 C   0  0  0  0  0  0  0  0  0  0  0  0
  -31.0230  -17.1582   22.2910 C   0  0  0  0  0  0  0  0  0  0  0  0
  -28.1841  -19.2540   16.2065 C   0  0  0  0  0  0  0  0  0  0  0  0
  -27.9184  -24.2604   16.9227 C   0  0  0  0  0  0  0  0  0  0  0  0
  -26.5628  -23.6075   18.9616 C   0  0  0  0  0  0  0  0  0  0  0  0
  -28.5902  -25.3696   17.7286 C   0  0  0  0  0  0  0  0  0  0  0  0
  -27.2375  -24.7185   19.7625 C   0  0  0  0  0  0  0  0  0  0  0  0
  -29.9983  -19.4530   22.0036 C   0  0  0  0  0  0  0  0  0  0  0  0
  -28.9942  -17.5340   20.8276 C   0  0  0  0  0  0  0  0  0  0  0  0
  -24.0592  -29.4592   25.8271 C   0  0  1  0  0  0  0  0  0  0  0  0
  -23.9749  -30.6771   22.2295 C   0  0  1  0  0  0  0  0  0  0  0  0
  -25.5704  -19.9524   16.9345 C   0  0  2  0  0  0  0  0  0  0  0  0
  -30.2676  -16.6952   21.0308 C   0  0  2  0  0  0  0  0  0  0  0  0
  -28.1038  -20.1112   17.4712 C   0  0  1  0  0  0  0  0  0  0  0  0
  -27.4727  -23.1202   17.8359 C   0  0  0  0  0  0  0  0  0  0  0  0
  -26.7053  -20.7410   17.6292 C   0  0  1  0  0  0  0  0  0  0  0  0
  -27.6934  -25.8666   18.8616 C   0  0  0  0  0  0  0  0  0  1  0  0
  -24.2150  -20.2419   17.5831 C   0  0  0  0  0  0  0  0  0  0  0  0
  -18.7573  -31.1513   16.2188 C   0  0  0  0  0  0  0  0  0  0  0  0
  -21.5238  -27.4494   20.9636 C   0  0  0  0  0  0  0  0  0  0  0  0
  -20.0244  -27.6050   18.9646 C   0  0  0  0  0  0  0  0  0  0  0  0
  -19.4817  -28.8915   21.0317 C   0  0  0  0  0  0  0  0  0  0  0  0
  -21.6816  -33.5643   16.5377 C   0  0  0  0  0  0  0  0  0  0  0  0
  -21.4192  -29.6299   19.5851 C   0  0  1  0  0  0  0  0  0  0  0  0
  -19.8914  -31.8683   16.9346 C   0  0  2  0  0  0  0  0  0  0  0  0
  -20.6395  -28.4022   20.1346 C   0  0  0  0  0  0  0  0  0  0  0  0
  -28.7969  -14.7927   21.5785 N   0  0  0  0  0  0  0  0  0  0  0  0
  -29.9702  -15.2077   21.0713 N   0  0  0  0  0  0  0  0  0  0  0  0
  -23.3702  -30.0682   21.0430 N   0  0  0  0  0  0  0  0  0  0  0  0
  -29.3312  -18.9658   20.7938 N   0  0  0  0  0  0  0  0  0  0  0  0
  -31.9888  -14.4341   20.1030 N   0  0  0  0  0  0  0  0  0  0  0  0
  -30.2351  -11.1583   19.3367 N   0  0  0  0  0  0  0  0  0  0  0  0
  -24.1911  -30.2038   24.5932 N   0  0  0  0  0  0  0  0  0  0  0  0
  -20.6007  -30.5634   18.8188 N   0  0  0  0  0  0  0  0  0  0  0  0
  -28.4367  -19.3170   18.6327 N   0  0  0  0  0  0  0  0  0  0  0  0
  -26.7381  -22.1132   17.0251 N   0  3  0  0  0  0  0  0  0  0  0  0
  -20.5603  -32.7781   15.9620 N   0  3  0  0  0  0  0  0  0  0  0  0
  -31.1692  -11.0187   21.4263 O   0  0  0  0  0  0  0  0  0  0  0  0
  -23.1710  -28.6670   23.1720 O   0  0  0  0  0  0  0  0  0  0  0  0
  -21.4419  -31.3698   21.1972 O   0  0  0  0  0  0  0  0  0  0  0  0
  -21.8365  -30.4372   16.8608 O   0  0  0  0  0  0  0  0  0  0  0  0
  -29.3724  -21.0581   19.7946 O   0  0  0  0  0  0  0  0  0  0  0  0
  -24.6233  -10.2606   23.1872 O   0  0  0  0  0  0  0  0  0  0  0  0
  -28.4200  -26.8187   19.6312 O   0  0  0  0  0  0  0  0  0  1  0  0
  -21.3682   -8.0358   19.3325 F   0  0  0  0  0  0  0  0  0  0  0  0
  -21.9179  -10.8248   23.1172 F   0  0  0  0  0  0  0  0  0  0  0  0
  1  2  1  0  0  0  0
  1  5  2  0  0  0  0
  2  6  2  0  0  0  0
  3  8  2  0  0  0  0
  3 15  1  0  0  0  0
  4  9  1  0  0  0  0
  4 15  2  0  0  0  0
  5 17  1  0  0  0  0
  6 19  1  0  0  0  0
  7 10  2  0  0  0  0
  7 18  1  0  0  0  0
  8 21  1  0  0  0  0
  9 21  2  0  0  0  0
 10 22  1  0  0  0  0
 11 12  2  0  0  0  0
 11 23  1  0  0  0  0
 12 24  1  0  0  0  0
 13 20  1  0  0  0  0
 13 22  2  0  0  0  0
 14 24  2  0  0  0  0
 14 25  1  0  0  0  0
 15 26  1  0  0  0  0
 16 26  1  0  0  0  0
 16 27  2  0  0  0  0
 16 28  1  0  0  0  0
 17 19  2  0  0  0  0
 17 33  1  0  0  0  0
 18 20  2  0  0  0  0
 18 34  1  0  0  0  0
 19 49  1  0  0  0  0
 20 35  1  0  0  0  0
 21 82  1  0  0  0  0
 22 83  1  0  0  0  0
 23 25  2  0  0  0  0
 23 82  1  0  0  0  0
 24 84  1  0  0  0  0
 25 85  1  0  0  0  0
 26 66  2  0  0  0  0
 27 67  1  0  0  0  0
 27 70  1  0  0  0  0
 28 71  1  0  0  0  0
 28 77  2  0  0  0  0
 29 50  1  0  0  0  0
 29 72  1  0  0  0  0
 29 78  2  0  0  0  0
 30 63  1  0  0  0  0
 30 68  1  0  0  0  0
 30 79  2  0  0  0  0
 31 64  1  0  0  0  0
 31 73  1  0  0  0  0
 31 80  2  0  0  0  0
 32 69  1  0  0  0  0
 32 74  1  0  0  0  0
 32 81  2  0  0  0  0
 33 36  1  0  0  0  0
 34 50  1  0  0  0  0
 35 68  1  0  0  0  0
 36 39  1  0  0  0  0
 37 40  1  0  0  0  0
 37 42  1  0  0  0  0
 38 41  1  0  0  0  0
 38 47  1  0  0  0  0
 39 49  1  0  0  0  0
 40 51  1  0  0  0  0
 41 52  1  0  0  0  0
 42 53  1  0  0  0  0
 43 45  1  0  0  0  0
 43 54  1  0  0  0  0
 44 46  1  0  0  0  0
 44 54  1  0  0  0  0
 45 56  1  0  0  0  0
 46 56  1  0  0  0  0
 47 69  1  0  0  0  0
 48 52  1  0  0  0  0
 48 69  1  0  0  0  0
 49 72  1  0  0  0  0
 50 68  1  0  0  0  0
 51 55  1  0  0  0  0
 51 57  1  0  0  0  0
 52 67  1  0  0  0  0
 53 55  1  0  0  0  0
 53 74  1  0  0  0  0
 54 75  1  0  0  0  0
 55 75  1  0  0  0  0
 56 83  1  0  0  0  0
 58 64  1  0  0  0  0
 59 65  1  0  0  0  0
 60 65  1  0  0  0  0
 61 65  1  0  0  0  0
 62 76  1  0  0  0  0
 63 65  1  0  0  0  0
 63 73  1  0  0  0  0
 64 76  1  0  0  0  0
 66 67  1  0  0  0  0
M  CHG  2  75   1  76   1
M  ISO  4  32 100  56 101  74 100  83 101
M  END
> <Batch ID>
0135

> <Smiles>
CNC(C)C(=O)NC(C(=O)N1Cc2cc([101O:1][101CH:1]3CCC(NC4C(C)CCCC4[100NH:0][100C:0](=O)N4CCCC(n5nc(-c6ccc(Oc7ccc(F)cc7F)cc6)c(C(N)=O)c5N)C4)CC3)ccc2CC1C(=O)NC1CCCc2ccccc21)C(C)(C)C

> <Shape>
0.249

> <Color>
0.104

> <Negative vol penalty>
0.000

$$$$

  -OEChem-04052321003D

 81 89  0     1  0  0  0  0  0999 V2000
  -23.1582  -27.5245   16.9216 C   0  0  0  0  0  0  0  0  0  0  0  0
  -22.9884  -26.1611   17.1401 C   0  0  0  0  0  0  0  0  0  0  0  0
  -23.2565   -9.8635   19.8879 C   0  0  0  0  0  0  0  0  0  0  0  0
  -23.7528   -9.9305   22.2514 C   0  0  0  0  0  0  0  0  0  0  0  0
  -24.0931  -28.2382   17.6702 C   0  0  0  0  0  0  0  0  0  0  0  0
  -23.7544  -25.5104   18.1067 C   0  0  0  0  0  0  0  0  0  0  0  0
  -23.3906  -20.1401   22.8337 C   0  0  0  0  0  0  0  0  0  0  0  0
  -22.5209   -8.6934   20.0755 C   0  0  0  0  0  0  0  0  0  0  0  0
  -23.0171   -8.7604   22.4391 C   0  0  0  0  0  0  0  0  0  0  0  0
  -24.0818  -18.9902   23.2127 C   0  0  0  0  0  0  0  0  0  0  0  0
  -19.7645   -7.8785   22.6913 C   0  0  0  0  0  0  0  0  0  0  0  0
  -18.8819   -7.8357   23.7705 C   0  0  0  0  0  0  0  0  0  0  0  0
  -25.6103  -20.3407   24.5006 C   0  0  0  0  0  0  0  0  0  0  0  0
  -20.0847   -5.9478   24.6794 C   0  0  0  0  0  0  0  0  0  0  0  0
  -23.8725  -10.4821   20.9759 C   0  0  0  0  0  0  0  0  0  0  0  0
  -24.1569  -13.0138   20.8453 C   0  0  0  0  0  0  0  0  0  0  0  0
  -24.8641  -27.5978   18.6531 C   0  0  0  0  0  0  0  0  0  0  0  0
  -23.8113  -21.4021   23.2772 C   0  0  0  0  0  0  0  0  0  0  0  0
  -24.7015  -26.2159   18.8682 C   0  0  0  0  0  0  0  0  0  0  0  0
  -24.9213  -21.5049   24.1278 C   0  0  0  0  0  0  0  0  0  0  0  0
  -22.4012   -8.1418   21.3510 C   0  0  0  0  0  0  0  0  0  0  0  0
  -25.1936  -19.0906   24.0439 C   0  0  0  0  0  0  0  0  0  0  0  0
  -20.8072   -6.9559   22.6061 C   0  0  0  0  0  0  0  0  0  0  0  0
  -19.0419   -6.8704   24.7646 C   0  0  0  0  0  0  0  0  0  0  0  0
  -20.9673   -5.9906   23.6002 C   0  0  0  0  0  0  0  0  0  0  0  0
  -24.6331  -11.6905   20.7827 C   0  0  0  0  0  0  0  0  0  0  0  0
  -25.2622  -13.7888   20.5922 C   0  0  0  0  0  0  0  0  0  0  0  0
  -27.9907  -16.8211   24.4239 C   0  0  0  0  0  0  0  0  0  0  0  0
  -22.8337  -13.4991   21.1089 C   0  0  0  0  0  0  0  0  0  0  0  0
  -24.8553  -24.0463   21.8552 C   0  0  0  0  0  0  0  0  0  0  0  0
  -24.7150  -25.2526   24.8631 C   0  0  0  0  0  0  0  0  0  0  0  0
  -24.7399  -24.6642   28.2246 C   0  0  0  0  0  0  0  0  0  0  0  0
  -31.1374  -12.8591   21.2763 C   0  0  0  0  0  0  0  0  0  0  0  0
  -25.8956  -28.4017   19.4045 C   0  0  0  0  0  0  0  0  0  0  0  0
  -23.0389  -22.6305   22.8810 C   0  0  0  0  0  0  0  0  0  0  0  0
  -25.4014  -22.8343   24.6479 C   0  0  0  0  0  0  0  0  0  0  0  0
  -26.4022  -27.7126   20.6689 C   0  0  0  0  0  0  0  0  0  0  0  0
  -29.4404  -13.7049   18.2627 C   0  0  0  0  0  0  0  0  0  0  0  0
  -26.7387  -26.2525   20.3830 C   0  0  0  0  0  0  0  0  0  0  0  0
  -27.9729  -13.4040   18.5725 C   0  0  0  0  0  0  0  0  0  0  0  0
  -30.3755  -12.6953   18.9249 C   0  0  0  0  0  0  0  0  0  0  0  0
  -27.5220  -18.3074   26.1454 C   0  0  0  0  0  0  0  0  0  0  0  0
  -28.7168  -12.2338   20.6882 C   0  0  0  0  0  0  0  0  0  0  0  0
  -25.4961  -25.4795   19.9249 C   0  0  1  0  0  0  0  0  0  0  0  0
  -27.2441  -18.1066   24.6641 C   0  0  2  0  0  0  0  0  0  1  0  0
  -28.9370  -16.5290   25.5675 C   0  0  1  0  0  0  0  0  0  0  0  0
  -23.8631  -23.9108   22.9754 C   0  0  1  0  0  0  0  0  0  0  0  0
  -27.7383  -13.2579   20.0880 C   0  0  2  0  0  0  0  0  0  0  0  0
  -24.6480  -25.8522   30.4332 C   0  0  0  0  0  0  0  0  0  0  0  0
  -27.6240  -26.1077   24.5214 C   0  0  0  0  0  0  0  0  0  0  0  0
  -27.7555  -26.4048   27.0039 C   0  0  0  0  0  0  0  0  0  0  0  0
  -26.1697  -27.7898   25.6660 C   0  0  0  0  0  0  0  0  0  0  0  0
  -22.2406  -23.2798   28.9967 C   0  0  0  0  0  0  0  0  0  0  0  0
  -30.3492  -16.2508   25.0948 C   0  0  0  0  0  0  0  0  0  0  0  0
  -31.7463  -12.9968   23.6782 C   0  0  0  0  0  0  0  0  0  0  0  0
  -31.7742  -14.4509   24.1106 C   0  0  0  0  0  0  0  0  0  0  0  0
  -25.6730  -25.3372   26.0268 C   0  0  1  0  0  0  0  0  0  0  0  0
  -23.8422  -25.1652   29.3416 C   0  0  2  0  0  0  0  0  0  0  0  0
  -26.7979  -26.3848   25.7933 C   0  0  0  0  0  0  0  0  0  0  0  0
  -25.9391  -11.6249   20.5108 N   0  0  0  0  0  0  0  0  0  0  0  0
  -26.2930  -12.9166   20.4004 N   0  0  0  0  0  0  0  0  0  0  0  0
  -28.8728  -17.7760   26.3362 N   0  0  0  0  0  0  0  0  0  0  0  0
  -24.6167  -24.0069   24.2272 N   0  0  0  0  0  0  0  0  0  0  0  0
  -30.1023  -12.6056   20.3612 N   0  0  0  0  0  0  0  0  0  0  0  0
  -25.4432  -15.1245   20.5171 N   0  0  0  0  0  0  0  0  0  0  0  0
  -21.8154  -12.5664   21.3484 N   0  0  0  0  0  0  0  0  0  0  0  0
  -24.6553  -25.1570   21.0578 N   0  0  0  0  0  0  0  0  0  0  0  0
  -24.8572  -25.5899   27.2095 N   0  0  0  0  0  0  0  0  0  0  0  0
  -30.7919  -12.7588   22.6184 N   0  0  0  0  0  0  0  0  0  0  0  0
  -23.0940  -24.0307   29.9532 N   0  3  0  0  0  0  0  0  0  0  0  0
  -30.4434  -14.8404   24.6553 N   0  3  0  0  0  0  0  0  0  0  0  0
  -27.8361  -16.1017   23.4464 O   0  0  0  0  0  0  0  0  0  0  0  0
  -22.5591  -14.7230   21.1152 O   0  0  0  0  0  0  0  0  0  0  0  0
  -25.7378  -23.2062   21.7248 O   0  0  0  0  0  0  0  0  0  0  0  0
  -24.0721  -26.2529   24.5351 O   0  0  0  0  0  0  0  0  0  0  0  0
  -25.2856  -23.5633   28.2518 O   0  0  0  0  0  0  0  0  0  0  0  0
  -32.2833  -13.1582   20.9233 O   0  0  0  0  0  0  0  0  0  0  0  0
  -21.6832   -7.0001   21.5345 O   0  0  0  0  0  0  0  0  0  0  0  0
  -25.8704  -17.9698   24.4148 O   0  0  0  0  0  0  0  0  0  1  0  0
  -18.1951   -6.8304   25.8017 F   0  0  0  0  0  0  0  0  0  0  0  0
  -21.9678   -5.1023   23.5244 F   0  0  0  0  0  0  0  0  0  0  0  0
  1  2  1  0  0  0  0
  1  5  2  0  0  0  0
  2  6  2  0  0  0  0
  3  8  2  0  0  0  0
  3 15  1  0  0  0  0
  4  9  1  0  0  0  0
  4 15  2  0  0  0  0
  5 17  1  0  0  0  0
  6 19  1  0  0  0  0
  7 10  2  0  0  0  0
  7 18  1  0  0  0  0
  8 21  1  0  0  0  0
  9 21  2  0  0  0  0
 10 22  1  0  0  0  0
 11 12  2  0  0  0  0
 11 23  1  0  0  0  0
 12 24  1  0  0  0  0
 13 20  1  0  0  0  0
 13 22  2  0  0  0  0
 14 24  2  0  0  0  0
 14 25  1  0  0  0  0
 15 26  1  0  0  0  0
 16 26  1  0  0  0  0
 16 27  2  0  0  0  0
 16 29  1  0  0  0  0
 17 19  2  0  0  0  0
 17 34  1  0  0  0  0
 18 20  2  0  0  0  0
 18 35  1  0  0  0  0
 19 44  1  0  0  0  0
 20 36  1  0  0  0  0
 21 78  1  0  0  0  0
 22 79  1  0  0  0  0
 23 25  2  0  0  0  0
 23 78  1  0  0  0  0
 24 80  1  0  0  0  0
 25 81  1  0  0  0  0
 26 60  2  0  0  0  0
 27 61  1  0  0  0  0
 27 65  1  0  0  0  0
 28 45  1  0  0  0  0
 28 46  1  0  0  0  0
 28 72  2  0  0  0  0
 29 66  1  0  0  0  0
 29 73  2  0  0  0  0
 30 47  1  0  0  0  0
 30 67  1  0  0  0  0
 30 74  2  0  0  0  0
 31 57  1  0  0  0  0
 31 63  1  0  0  0  0
 31 75  2  0  0  0  0
 32 58  1  0  0  0  0
 32 68  1  0  0  0  0
 32 76  2  0  0  0  0
 33 64  1  0  0  0  0
 33 69  1  0  0  0  0
 33 77  2  0  0  0  0
 34 37  1  0  0  0  0
 35 47  1  0  0  0  0
 36 63  1  0  0  0  0
 37 39  1  0  0  0  0
 38 40  1  0  0  0  0
 38 41  1  0  0  0  0
 39 44  1  0  0  0  0
 40 48  1  0  0  0  0
 41 64  1  0  0  0  0
 42 45  1  0  0  0  0
 42 62  1  0  0  0  0
 43 48  1  0  0  0  0
 43 64  1  0  0  0  0
 44 67  1  0  0  0  0
 45 79  1  0  0  0  0
 46 54  1  0  0  0  0
 46 62  1  0  0  0  0
 47 63  1  0  0  0  0
 48 61  1  0  0  0  0
 49 58  1  0  0  0  0
 50 59  1  0  0  0  0
 51 59  1  0  0  0  0
 52 59  1  0  0  0  0
 53 70  1  0  0  0  0
 54 71  1  0  0  0  0
 55 56  1  0  0  0  0
 55 69  1  0  0  0  0
 56 71  1  0  0  0  0
 57 59  1  0  0  0  0
 57 68  1  0  0  0  0
 58 70  1  0  0  0  0
 60 61  1  0  0  0  0
M  CHG  2  70   1  71   1
M  ISO  4  33 100  45 101  69 100  79 101
M  END
> <Batch ID>
0135

> <Smiles>
CNC(C)C(=O)NC(C(=O)N1Cc2cc([101O:1][101CH:1]3CNC(CNCC[100NH:0][100C:0](=O)N4CCCC(n5nc(-c6ccc(Oc7ccc(F)cc7F)cc6)c(C(N)=O)c5N)C4)C3=O)ccc2CC1C(=O)NC1CCCc2ccccc21)C(C)(C)C

> <Shape>
0.165

> <Color>
0.166

> <Negative vol penalty>
0.000

$$$$

  -OEChem-04052321003D

 84 93  0     1  0  0  0  0  0999 V2000
  -28.0479  -17.4961   34.6798 C   0  0  0  0  0  0  0  0  0  0  0  0
  -28.1584  -17.9583   33.3723 C   0  0  0  0  0  0  0  0  0  0  0  0
  -23.2006   -9.8514   19.9528 C   0  0  0  0  0  0  0  0  0  0  0  0
  -23.9122   -9.9304   22.2602 C   0  0  0  0  0  0  0  0  0  0  0  0
  -27.4508  -16.2619   34.9335 C   0  0  0  0  0  0  0  0  0  0  0  0
  -27.6730  -17.1861   32.3176 C   0  0  0  0  0  0  0  0  0  0  0  0
  -25.1009  -19.2199   27.1451 C   0  0  0  0  0  0  0  0  0  0  0  0
  -29.0650  -17.9510   21.8892 C   0  0  0  0  0  0  0  0  0  0  0  0
  -22.5090   -8.6671   20.2066 C   0  0  0  0  0  0  0  0  0  0  0  0
  -23.2205   -8.7460   22.5141 C   0  0  0  0  0  0  0  0  0  0  0  0
  -25.6060  -19.4162   25.8606 C   0  0  0  0  0  0  0  0  0  0  0  0
  -20.0235   -7.7998   23.0657 C   0  0  0  0  0  0  0  0  0  0  0  0
  -19.2456   -7.7405   24.2220 C   0  0  0  0  0  0  0  0  0  0  0  0
  -27.7620  -18.3793   22.1175 C   0  0  0  0  0  0  0  0  0  0  0  0
  -24.7729  -17.2485   25.2081 C   0  0  0  0  0  0  0  0  0  0  0  0
  -20.5648   -5.8777   25.0139 C   0  0  0  0  0  0  0  0  0  0  0  0
  -29.1692  -17.2295   24.1533 C   0  0  0  0  0  0  0  0  0  0  0  0
  -23.9023  -10.4831   20.9796 C   0  0  0  0  0  0  0  0  0  0  0  0
  -24.1229  -13.0199   20.8256 C   0  0  0  0  0  0  0  0  0  0  0  0
  -26.9491  -15.4786   33.8821 C   0  0  0  0  0  0  0  0  0  0  0  0
  -24.4364  -18.0297   27.4744 C   0  0  0  0  0  0  0  0  0  0  0  0
  -27.0699  -15.9397   32.5573 C   0  0  0  0  0  0  0  0  0  0  0  0
  -24.2580  -17.0405   26.4968 C   0  0  0  0  0  0  0  0  0  0  0  0
  -29.7886  -17.3637   22.9212 C   0  0  0  0  0  0  0  0  0  0  0  0
  -22.5189   -8.1144   21.4872 C   0  0  0  0  0  0  0  0  0  0  0  0
  -25.4446  -18.4293   24.8926 C   0  0  0  0  0  0  0  0  0  0  0  0
  -21.0720   -6.8981   22.8835 C   0  0  0  0  0  0  0  0  0  0  0  0
  -19.5163   -6.7795   25.1961 C   0  0  0  0  0  0  0  0  0  0  0  0
  -21.3427   -5.9370   23.8575 C   0  0  0  0  0  0  0  0  0  0  0  0
  -24.6175  -11.7063   20.7179 C   0  0  0  0  0  0  0  0  0  0  0  0
  -27.2329  -18.1995   23.3854 C   0  0  0  0  0  0  0  0  0  1  0  0
  -25.1844  -13.8165   20.4719 C   0  0  0  0  0  0  0  0  0  0  0  0
  -22.8205  -13.4790   21.2111 C   0  0  0  0  0  0  0  0  0  0  0  0
  -24.9521  -15.6707   29.5415 C   0  0  0  0  0  0  0  0  0  0  0  0
  -22.0477  -14.6571   28.5123 C   0  0  0  0  0  0  0  0  0  0  0  0
  -19.6836  -14.6585   26.0509 C   0  0  0  0  0  0  0  0  0  0  0  0
  -30.9482  -14.0576   20.9568 C   0  0  0  0  0  0  0  0  0  0  0  0
  -26.3545  -14.1299   34.2016 C   0  0  0  0  0  0  0  0  0  0  0  0
  -23.8739  -17.8444   28.8570 C   0  0  0  0  0  0  0  0  0  0  0  0
  -23.5344  -15.7534   26.7938 C   0  0  0  0  0  0  0  0  0  0  0  0
  -25.5287  -13.5424   33.0600 C   0  0  0  0  0  0  0  0  0  0  0  0
  -29.3566  -13.1271   17.9108 C   0  0  0  0  0  0  0  0  0  0  0  0
  -33.2557  -19.7467   23.8099 C   0  0  0  0  0  0  0  0  0  0  0  0
  -34.0992  -18.9392   22.8441 C   0  0  0  0  0  0  0  0  0  0  0  0
  -26.2784  -13.6709   31.7377 C   0  0  0  0  0  0  0  0  0  0  0  0
  -27.9263  -12.7880   18.3342 C   0  0  0  0  0  0  0  0  0  0  0  0
  -30.3740  -12.6994   18.9662 C   0  0  0  0  0  0  0  0  0  0  0  0
  -28.6796  -12.8717   20.7475 C   0  0  0  0  0  0  0  0  0  0  0  0
  -31.8854  -19.1235   23.6516 C   0  0  0  0  0  0  0  0  0  0  0  0
  -33.6172  -17.5121   23.0375 C   0  0  0  0  0  0  0  0  0  0  0  0
  -26.5331  -15.1422   31.3886 C   0  0  1  0  0  0  0  0  0  0  0  0
  -23.6651  -16.3789   29.2257 C   0  0  1  0  0  0  0  0  0  0  0  0
  -27.6132  -13.3345   19.7401 C   0  0  2  0  0  0  0  0  0  0  0  0
  -17.4321  -13.7077   25.4816 C   0  0  0  0  0  0  0  0  0  0  0  0
  -23.3415  -11.9603   27.9098 C   0  0  0  0  0  0  0  0  0  0  0  0
  -21.3487  -11.3970   26.5028 C   0  0  0  0  0  0  0  0  0  0  0  0
  -21.0695  -11.8192   28.9455 C   0  0  0  0  0  0  0  0  0  0  0  0
  -18.4664  -17.3494   25.8614 C   0  0  0  0  0  0  0  0  0  0  0  0
  -31.3711  -15.3936   23.0050 C   0  0  0  0  0  0  0  0  0  0  0  0
  -31.1838  -16.8951   22.7089 C   0  0  2  0  0  0  0  0  0  0  0  0
  -21.5609  -13.7592   27.4006 C   0  0  1  0  0  0  0  0  0  0  0  0
  -18.1824  -14.8790   26.0963 C   0  0  2  0  0  0  0  0  0  0  0  0
  -21.8455  -12.2572   27.6843 C   0  0  0  0  0  0  0  0  0  0  0  0
  -27.9055  -17.6340   24.4128 N   0  0  0  0  0  0  0  0  0  0  0  0
  -25.8938  -11.6664   20.3262 N   0  0  0  0  0  0  0  0  0  0  0  0
  -26.2102  -12.9648   20.1846 N   0  0  0  0  0  0  0  0  0  0  0  0
  -23.0081  -15.6166   28.1619 N   0  0  0  0  0  0  0  0  0  0  0  0
  -30.0204  -13.2521   20.2760 N   0  0  0  0  0  0  0  0  0  0  0  0
  -25.3310  -15.1555   20.3816 N   0  0  0  0  0  0  0  0  0  0  0  0
  -21.8474  -12.5264   21.5430 N   0  0  0  0  0  0  0  0  0  0  0  0
  -25.3291  -15.7539   30.8683 N   0  0  0  0  0  0  0  0  0  0  0  0
  -20.1493  -14.0743   27.2099 N   0  0  0  0  0  0  0  0  0  0  0  0
  -30.5307  -14.5460   22.1888 N   0  0  0  0  0  0  0  0  0  0  0  0
  -32.1861  -17.6462   23.5251 N   0  3  0  0  0  0  0  0  0  0  0  0
  -17.8176  -16.1154   25.3484 N   0  3  0  0  0  0  0  0  0  0  0  0
  -22.5233  -14.6972   21.2440 O   0  0  0  0  0  0  0  0  0  0  0  0
  -25.5574  -15.0905   28.6478 O   0  0  0  0  0  0  0  0  0  0  0  0
  -21.5872  -14.5172   29.6481 O   0  0  0  0  0  0  0  0  0  0  0  0
  -20.3736  -14.9696   25.0826 O   0  0  0  0  0  0  0  0  0  0  0  0
  -32.0636  -14.3263   20.4980 O   0  0  0  0  0  0  0  0  0  0  0  0
  -21.8439   -6.9588   21.7353 O   0  0  0  0  0  0  0  0  0  0  0  0
  -25.9372  -18.6181   23.6382 O   0  0  0  0  0  0  0  0  0  1  0  0
  -18.7702   -6.7236   26.3071 F   0  0  0  0  0  0  0  0  0  0  0  0
  -22.3494   -5.0688   23.6886 F   0  0  0  0  0  0  0  0  0  0  0  0
  1  2  1  0  0  0  0
  1  5  2  0  0  0  0
  2  6  2  0  0  0  0
  3  9  2  0  0  0  0
  3 18  1  0  0  0  0
  4 10  1  0  0  0  0
  4 18  2  0  0  0  0
  5 20  1  0  0  0  0
  6 22  1  0  0  0  0
  7 11  2  0  0  0  0
  7 21  1  0  0  0  0
  8 14  2  0  0  0  0
  8 24  1  0  0  0  0
  9 25  1  0  0  0  0
 10 25  2  0  0  0  0
 11 26  1  0  0  0  0
 12 13  2  0  0  0  0
 12 27  1  0  0  0  0
 13 28  1  0  0  0  0
 14 31  1  0  0  0  0
 15 23  1  0  0  0  0
 15 26  2  0  0  0  0
 16 28  2  0  0  0  0
 16 29  1  0  0  0  0
 17 24  2  0  0  0  0
 17 64  1  0  0  0  0
 18 30  1  0  0  0  0
 19 30  1  0  0  0  0
 19 32  2  0  0  0  0
 19 33  1  0  0  0  0
 20 22  2  0  0  0  0
 20 38  1  0  0  0  0
 21 23  2  0  0  0  0
 21 39  1  0  0  0  0
 22 51  1  0  0  0  0
 23 40  1  0  0  0  0
 24 60  1  0  0  0  0
 25 81  1  0  0  0  0
 26 82  1  0  0  0  0
 27 29  2  0  0  0  0
 27 81  1  0  0  0  0
 28 83  1  0  0  0  0
 29 84  1  0  0  0  0
 30 65  2  0  0  0  0
 31 64  2  0  0  0  0
 31 82  1  0  0  0  0
 32 66  1  0  0  0  0
 32 69  1  0  0  0  0
 33 70  1  0  0  0  0
 33 76  2  0  0  0  0
 34 52  1  0  0  0  0
 34 71  1  0  0  0  0
 34 77  2  0  0  0  0
 35 61  1  0  0  0  0
 35 67  1  0  0  0  0
 35 78  2  0  0  0  0
 36 62  1  0  0  0  0
 36 72  1  0  0  0  0
 36 79  2  0  0  0  0
 37 68  1  0  0  0  0
 37 73  1  0  0  0  0
 37 80  2  0  0  0  0
 38 41  1  0  0  0  0
 39 52  1  0  0  0  0
 40 67  1  0  0  0  0
 41 45  1  0  0  0  0
 42 46  1  0  0  0  0
 42 47  1  0  0  0  0
 43 44  1  0  0  0  0
 43 49  1  0  0  0  0
 44 50  1  0  0  0  0
 45 51  1  0  0  0  0
 46 53  1  0  0  0  0
 47 68  1  0  0  0  0
 48 53  1  0  0  0  0
 48 68  1  0  0  0  0
 49 74  1  0  0  0  0
 50 74  1  0  0  0  0
 51 71  1  0  0  0  0
 52 67  1  0  0  0  0
 53 66  1  0  0  0  0
 54 62  1  0  0  0  0
 55 63  1  0  0  0  0
 56 63  1  0  0  0  0
 57 63  1  0  0  0  0
 58 75  1  0  0  0  0
 59 60  1  0  0  0  0
 59 73  1  0  0  0  0
 60 74  1  0  0  0  0
 61 63  1  0  0  0  0
 61 72  1  0  0  0  0
 62 75  1  0  0  0  0
 65 66  1  0  0  0  0
M  CHG  2  74   1  75   1
M  ISO  4  31 101  37 100  73 100  82 101
M  END
> <Batch ID>
0135

> <Smiles>
CNC(C)C(=O)NC(C(=O)N1Cc2cc([101O:1][101c:1]3ccc(C(C[100NH:0][100C:0](=O)N4CCCC(n5nc(-c6ccc(Oc7ccc(F)cc7F)cc6)c(C(N)=O)c5N)C4)N4CCCC4)cn3)ccc2CC1C(=O)NC1CCCc2ccccc21)C(C)(C)C

> <Shape>
0.170

> <Color>
0.177

> <Negative vol penalty>
0.000

$$$$

  -OEChem-04052321003D

 84 92  0     1  0  0  0  0  0999 V2000
  -17.2895  -30.5712   24.2741 C   0  0  0  0  0  0  0  0  0  0  0  0
  -18.5924  -30.7155   24.7399 C   0  0  0  0  0  0  0  0  0  0  0  0
  -26.6987  -15.0488   19.4922 C   0  0  0  0  0  0  0  0  0  0  0  0
  -24.9122  -15.2289   21.1087 C   0  0  0  0  0  0  0  0  0  0  0  0
  -16.9858  -29.5662   23.3566 C   0  0  0  0  0  0  0  0  0  0  0  0
  -19.5922  -29.8541   24.2894 C   0  0  0  0  0  0  0  0  0  0  0  0
  -25.4796  -31.2343   23.3206 C   0  0  0  0  0  0  0  0  0  0  0  0
  -26.7247  -13.6662   19.6749 C   0  0  0  0  0  0  0  0  0  0  0  0
  -24.9381  -13.8463   21.2914 C   0  0  0  0  0  0  0  0  0  0  0  0
  -26.6258  -31.0489   24.0923 C   0  0  0  0  0  0  0  0  0  0  0  0
  -23.8053  -11.1007   19.6792 C   0  0  0  0  0  0  0  0  0  0  0  0
  -22.5831  -10.4293   19.7084 C   0  0  0  0  0  0  0  0  0  0  0  0
  -27.0953  -29.0087   22.8939 C   0  0  0  0  0  0  0  0  0  0  0  0
  -23.0630   -9.6528   21.9453 C   0  0  0  0  0  0  0  0  0  0  0  0
  -25.7925  -15.8301   20.2091 C   0  0  0  0  0  0  0  0  0  0  0  0
  -24.9947  -17.9789   19.0893 C   0  0  0  0  0  0  0  0  0  0  0  0
  -17.9842  -28.6982   22.8873 C   0  0  0  0  0  0  0  0  0  0  0  0
  -25.1262  -30.3011   22.3354 C   0  0  0  0  0  0  0  0  0  0  0  0
  -19.3012  -28.8357   23.3659 C   0  0  0  0  0  0  0  0  0  0  0  0
  -25.9455  -29.1859   22.1092 C   0  0  0  0  0  0  0  0  0  0  0  0
  -25.8444  -13.0649   20.5745 C   0  0  0  0  0  0  0  0  0  0  0  0
  -27.4323  -29.9344   23.8810 C   0  0  0  0  0  0  0  0  0  0  0  0
  -24.6565  -11.0481   20.7831 C   0  0  0  0  0  0  0  0  0  0  0  0
  -22.2118   -9.7054   20.8415 C   0  0  0  0  0  0  0  0  0  0  0  0
  -24.2853  -10.3242   21.9161 C   0  0  0  0  0  0  0  0  0  0  0  0
  -25.7655  -17.2584   20.0213 C   0  0  0  0  0  0  0  0  0  0  0  0
  -25.3271  -19.2929   19.3115 C   0  0  0  0  0  0  0  0  0  0  0  0
  -31.4111  -26.0750   20.8641 C   0  0  0  0  0  0  0  0  0  0  0  0
  -32.1829  -26.9924   20.2642 C   0  0  0  0  0  0  0  0  0  0  0  0
  -30.5879  -25.1390   20.0445 C   0  0  0  0  0  0  0  0  0  0  0  0
  -24.0615  -17.5029   18.1104 C   0  0  0  0  0  0  0  0  0  0  0  0
  -22.6428  -28.3754   21.8576 C   0  0  0  0  0  0  0  0  0  0  0  0
  -24.1418  -27.7816   19.0428 C   0  0  0  0  0  0  0  0  0  0  0  0
  -27.0524  -27.7467   17.2614 C   0  0  0  0  0  0  0  0  0  0  0  0
  -29.3006  -23.0572   20.0050 C   0  0  0  0  0  0  0  0  0  0  0  0
  -17.5984  -27.5970   21.9317 C   0  0  0  0  0  0  0  0  0  0  0  0
  -23.9010  -30.5295   21.4932 C   0  0  0  0  0  0  0  0  0  0  0  0
  -25.6211  -28.1652   21.0503 C   0  0  0  0  0  0  0  0  0  0  0  0
  -32.2196  -27.1147   18.7716 C   0  0  0  0  0  0  0  0  0  0  0  0
  -18.7905  -26.9634   21.2191 C   0  0  0  0  0  0  0  0  0  0  0  0
  -27.9183  -21.4641   23.0452 C   0  0  0  0  0  0  0  0  0  0  0  0
  -19.9049  -26.6552   22.2140 C   0  0  0  0  0  0  0  0  0  0  0  0
  -27.2281  -20.2452   22.4419 C   0  0  0  0  0  0  0  0  0  0  0  0
  -29.1669  -21.8660   22.2612 C   0  0  0  0  0  0  0  0  0  0  0  0
  -28.2152  -20.8582   20.2022 C   0  0  0  0  0  0  0  0  0  0  0  0
  -30.9142  -26.6582   18.1279 C   0  0  0  0  0  0  0  0  0  0  0  0
  -20.4182  -27.9366   22.8819 C   0  0  1  0  0  0  0  0  0  0  0  0
  -23.3594  -29.2484   20.8666 C   0  0  1  0  0  0  0  0  0  0  0  0
  -26.9309  -20.4767   20.9531 C   0  0  1  0  0  0  0  0  0  0  0  0
  -27.9687  -27.1767   14.9958 C   0  0  0  0  0  0  0  0  0  0  0  0
  -23.9831  -24.8126   19.7284 C   0  0  0  0  0  0  0  0  0  0  0  0
  -25.7050  -24.3841   17.9622 C   0  0  0  0  0  0  0  0  0  0  0  0
  -23.4955  -25.3586   17.3370 C   0  0  0  0  0  0  0  0  0  0  0  0
  -27.9519  -30.5278   16.7974 C   0  0  0  0  0  0  0  0  0  0  0  0
  -33.2151  -29.5094   22.6831 C   0  0  0  0  0  0  0  0  0  0  0  0
  -32.7429  -29.9544   24.0566 C   0  0  0  0  0  0  0  0  0  0  0  0
  -30.6869  -30.6290   25.3043 C   0  0  0  0  0  0  0  0  0  0  0  0
  -32.5222  -28.2264   22.2471 C   0  0  0  0  0  0  0  0  0  0  0  0
  -29.2120  -30.9216   25.1115 C   0  0  0  0  0  0  0  0  0  1  0  0
  -25.1762  -26.7884   18.5712 C   0  0  1  0  0  0  0  0  0  0  0  0
  -27.3937  -28.2731   15.8791 C   0  0  2  0  0  0  0  0  0  0  0  0
  -24.5953  -25.3540   18.4210 C   0  0  0  0  0  0  0  0  0  0  0  0
  -26.5302  -18.0492   20.7789 N   0  0  0  0  0  0  0  0  0  0  0  0
  -26.2415  -19.2801   20.3234 N   0  0  0  0  0  0  0  0  0  0  0  0
  -24.4093  -28.4296   20.2571 N   0  0  0  0  0  0  0  0  0  0  0  0
  -28.8913  -22.0018   20.8244 N   0  0  0  0  0  0  0  0  0  0  0  0
  -30.4145  -25.4202   18.7538 N   0  3  0  0  0  0  0  0  0  0  0  0
  -24.9235  -20.4465   18.7381 N   0  0  0  0  0  0  0  0  0  0  0  0
  -23.8380  -16.1225   18.0161 N   0  0  0  0  0  0  0  0  0  0  0  0
  -30.0872  -24.0746   20.6552 N   0  0  0  0  0  0  0  0  0  0  0  0
  -21.2960  -28.6573   21.9851 N   0  0  0  0  0  0  0  0  0  0  0  0
  -25.7383  -27.3371   17.3419 N   0  0  0  0  0  0  0  0  0  0  0  0
  -28.3955  -29.3721   15.9761 N   0  3  0  0  0  0  0  0  0  0  0  0
  -31.2836  -30.2398   24.0017 N   0  3  0  0  0  0  0  0  0  0  0  0
  -23.4564  -18.2774   17.3310 O   0  0  0  0  0  0  0  0  0  0  0  0
  -23.2653  -27.5093   22.4608 O   0  0  0  0  0  0  0  0  0  0  0  0
  -23.1369  -27.9806   18.3555 O   0  0  0  0  0  0  0  0  0  0  0  0
  -27.8709  -27.6999   18.1771 O   0  0  0  0  0  0  0  0  0  0  0  0
  -29.0674  -23.1651   18.8054 O   0  0  0  0  0  0  0  0  0  0  0  0
  -25.8693  -11.7158   20.7529 O   0  0  0  0  0  0  0  0  0  0  0  0
  -28.5513  -29.7506   24.6334 O   0  0  0  0  0  0  0  0  0  1  0  0
  -32.9906  -27.8671   20.9546 O   0  0  0  0  0  0  0  0  0  0  0  0
  -21.0374   -9.0620   20.8699 F   0  0  0  0  0  0  0  0  0  0  0  0
  -25.0983  -10.2710   22.9801 F   0  0  0  0  0  0  0  0  0  0  0  0
  1  2  1  0  0  0  0
  1  5  2  0  0  0  0
  2  6  2  0  0  0  0
  3  8  2  0  0  0  0
  3 15  1  0  0  0  0
  4  9  1  0  0  0  0
  4 15  2  0  0  0  0
  5 17  1  0  0  0  0
  6 19  1  0  0  0  0
  7 10  2  0  0  0  0
  7 18  1  0  0  0  0
  8 21  1  0  0  0  0
  9 21  2  0  0  0  0
 10 22  1  0  0  0  0
 11 12  2  0  0  0  0
 11 23  1  0  0  0  0
 12 24  1  0  0  0  0
 13 20  1  0  0  0  0
 13 22  2  0  0  0  0
 14 24  2  0  0  0  0
 14 25  1  0  0  0  0
 15 26  1  0  0  0  0
 16 26  1  0  0  0  0
 16 27  2  0  0  0  0
 16 31  1  0  0  0  0
 17 19  2  0  0  0  0
 17 36  1  0  0  0  0
 18 20  2  0  0  0  0
 18 37  1  0  0  0  0
 19 47  1  0  0  0  0
 20 38  1  0  0  0  0
 21 80  1  0  0  0  0
 22 81  1  0  0  0  0
 23 25  2  0  0  0  0
 23 80  1  0  0  0  0
 24 83  1  0  0  0  0
 25 84  1  0  0  0  0
 26 63  2  0  0  0  0
 27 64  1  0  0  0  0
 27 68  1  0  0  0  0
 28 29  2  0  0  0  0
 28 30  1  0  0  0  0
 29 39  1  0  0  0  0
 29 82  1  0  0  0  0
 30 67  2  0  0  0  0
 30 70  1  0  0  0  0
 31 69  1  0  0  0  0
 31 75  2  0  0  0  0
 32 48  1  0  0  0  0
 32 71  1  0  0  0  0
 32 76  2  0  0  0  0
 33 60  1  0  0  0  0
 33 65  1  0  0  0  0
 33 77  2  0  0  0  0
 34 61  1  0  0  0  0
 34 72  1  0  0  0  0
 34 78  2  0  0  0  0
 35 66  1  0  0  0  0
 35 70  1  0  0  0  0
 35 79  2  0  0  0  0
 36 40  1  0  0  0  0
 37 48  1  0  0  0  0
 38 65  1  0  0  0  0
 39 46  1  0  0  0  0
 40 42  1  0  0  0  0
 41 43  1  0  0  0  0
 41 44  1  0  0  0  0
 42 47  1  0  0  0  0
 43 49  1  0  0  0  0
 44 66  1  0  0  0  0
 45 49  1  0  0  0  0
 45 66  1  0  0  0  0
 46 67  1  0  0  0  0
 47 71  1  0  0  0  0
 48 65  1  0  0  0  0
 49 64  1  0  0  0  0
 50 61  1  0  0  0  0
 51 62  1  0  0  0  0
 52 62  1  0  0  0  0
 53 62  1  0  0  0  0
 54 73  1  0  0  0  0
 55 56  1  0  0  0  0
 55 58  1  0  0  0  0
 56 74  1  0  0  0  0
 57 59  1  0  0  0  0
 57 74  1  0  0  0  0
 58 82  1  0  0  0  0
 59 81  1  0  0  0  0
 60 62  1  0  0  0  0
 60 72  1  0  0  0  0
 61 73  1  0  0  0  0
 63 64  1  0  0  0  0
M  CHG  3  67   1  73   1  74   1
M  ISO  4  35 100  59 101  70 100  81 101
M  END
> <Batch ID>
0135

> <Smiles>
CNC(C)C(=O)NC(C(=O)N1Cc2cc([101O:1][101CH2:1]CNCCCOC3=CC([100NH:0][100C:0](=O)N4CCCC(n5nc(-c6ccc(Oc7ccc(F)cc7F)cc6)c(C(N)=O)c5N)C4)=NCC3)ccc2CC1C(=O)NC1CCCc2ccccc21)C(C)(C)C

> <Shape>
0.292

> <Color>
0.089

> <Negative vol penalty>
0.000

$$$$

  -OEChem-04052321003D

 85 94  0     1  0  0  0  0  0999 V2000
  -19.2228  -34.0756   21.6465 C   0  0  0  0  0  0  0  0  0  0  0  0
  -20.4728  -33.7096   21.1575 C   0  0  0  0  0  0  0  0  0  0  0  0
  -30.5214  -24.0562   22.5706 C   0  0  0  0  0  0  0  0  0  0  0  0
  -27.2360  -12.2562   21.6175 C   0  0  0  0  0  0  0  0  0  0  0  0
  -26.7420  -13.6789   19.7283 C   0  0  0  0  0  0  0  0  0  0  0  0
  -18.6875  -33.4157   22.7519 C   0  0  0  0  0  0  0  0  0  0  0  0
  -21.1886  -32.6841   21.7743 C   0  0  0  0  0  0  0  0  0  0  0  0
  -24.8682  -28.6121   19.0568 C   0  0  0  0  0  0  0  0  0  0  0  0
  -30.9377  -24.1756   21.2447 C   0  0  0  0  0  0  0  0  0  0  0  0
  -29.6397  -23.0389   22.9359 C   0  0  0  0  0  0  0  0  0  0  0  0
  -26.4183  -11.2611   21.0820 C   0  0  0  0  0  0  0  0  0  0  0  0
  -25.9243  -12.6837   19.1928 C   0  0  0  0  0  0  0  0  0  0  0  0
  -26.2529  -28.5535   18.9056 C   0  0  0  0  0  0  0  0  0  0  0  0
  -23.1101  -10.5989   20.8773 C   0  0  0  0  0  0  0  0  0  0  0  0
  -22.2237   -9.9553   21.7407 C   0  0  0  0  0  0  0  0  0  0  0  0
  -26.3975  -27.1204   20.8407 C   0  0  0  0  0  0  0  0  0  0  0  0
  -23.2868   -7.8406   21.2557 C   0  0  0  0  0  0  0  0  0  0  0  0
  -27.3978  -13.4651   20.9407 C   0  0  0  0  0  0  0  0  0  0  0  0
  -29.6199  -14.6744   21.2692 C   0  0  0  0  0  0  0  0  0  0  0  0
  -19.3928  -32.3751   23.3766 C   0  0  0  0  0  0  0  0  0  0  0  0
  -24.2377  -27.9329   20.1093 C   0  0  0  0  0  0  0  0  0  0  0  0
  -20.6627  -32.0106   22.8899 C   0  0  0  0  0  0  0  0  0  0  0  0
  -25.0044  -27.1699   21.0015 C   0  0  0  0  0  0  0  0  0  0  0  0
  -29.5906  -22.2604   20.6493 C   0  0  0  0  0  0  0  0  0  0  0  0
  -30.4723  -23.2777   20.2840 C   0  0  0  0  0  0  0  0  0  0  0  0
  -29.1743  -22.1410   21.9753 C   0  0  0  0  0  0  0  0  0  0  0  0
  -25.7625  -11.4749   19.8697 C   0  0  0  0  0  0  0  0  0  0  0  0
  -27.0181  -27.8100   19.7993 C   0  0  0  0  0  0  0  0  0  0  0  0
  -24.0849   -9.8634   20.2030 C   0  0  0  0  0  0  0  0  0  0  0  0
  -22.3120   -8.5761   21.9300 C   0  0  0  0  0  0  0  0  0  0  0  0
  -24.1732   -8.4843   20.3923 C   0  0  0  0  0  0  0  0  0  0  0  0
  -28.2419  -14.4936   21.4937 C   0  0  0  0  0  0  0  0  0  0  0  0
  -29.9472  -15.7801   22.0153 C   0  0  0  0  0  0  0  0  0  0  0  0
  -30.5232  -13.9110   20.4587 C   0  0  0  0  0  0  0  0  0  0  0  0
  -22.4840  -28.8077   22.6119 C   0  0  0  0  0  0  0  0  0  0  0  0
  -22.1424  -25.6052   22.9987 C   0  0  0  0  0  0  0  0  0  0  0  0
  -23.3692  -22.4713   22.4324 C   0  0  0  0  0  0  0  0  0  0  0  0
  -27.7790  -20.8780   23.6499 C   0  0  0  0  0  0  0  0  0  0  0  0
  -18.7941  -31.7230   24.5976 C   0  0  0  0  0  0  0  0  0  0  0  0
  -22.7404  -27.9844   20.2428 C   0  0  0  0  0  0  0  0  0  0  0  0
  -24.3740  -26.4060   22.1362 C   0  0  0  0  0  0  0  0  0  0  0  0
  -19.4524  -30.3953   24.9637 C   0  0  0  0  0  0  0  0  0  0  0  0
  -27.9100  -18.1048   25.8791 C   0  0  0  0  0  0  0  0  0  0  0  0
  -29.2882  -19.8260   19.8392 C   0  0  0  0  0  0  0  0  0  0  0  0
  -30.0928  -20.5332   18.7938 C   0  0  0  0  0  0  0  0  0  0  0  0
  -20.9718  -30.5241   24.9247 C   0  0  0  0  0  0  0  0  0  0  0  0
  -28.1437  -16.9075   24.9550 C   0  0  0  0  0  0  0  0  0  0  0  0
  -26.9870  -19.1417   25.2414 C   0  0  0  0  0  0  0  0  0  0  0  0
  -27.6268  -18.3990   22.9813 C   0  0  0  0  0  0  0  0  0  0  0  0
  -29.0932  -21.2998   19.6146 C   0  0  0  0  0  0  0  0  0  0  0  0
  -21.4589  -30.8865   23.5165 C   0  0  1  0  0  0  0  0  0  0  0  0
  -22.2554  -27.6719   21.6551 C   0  0  1  0  0  0  0  0  0  0  0  0
  -28.6024  -17.3579   23.5542 C   0  0  2  0  0  0  0  0  0  0  0  0
  -22.8905  -20.0535   22.9040 C   0  0  0  0  0  0  0  0  0  0  0  0
  -23.1193  -25.9735   25.8657 C   0  0  0  0  0  0  0  0  0  0  0  0
  -23.5248  -23.5052   25.9708 C   0  0  0  0  0  0  0  0  0  0  0  0
  -21.2143  -24.3735   25.6102 C   0  0  0  0  0  0  0  0  0  0  0  0
  -23.1411  -21.8344   19.5512 C   0  0  0  0  0  0  0  0  0  0  0  0
  -30.9384  -23.4299   18.8650 C   0  0  0  0  0  0  0  0  0  0  0  0
  -31.2392  -24.8711   18.4660 C   0  0  0  0  0  0  0  0  0  0  0  0
  -30.2133  -27.1369   18.2379 C   0  0  0  0  0  0  0  0  0  0  0  0
  -28.8866  -27.8646   18.3291 C   0  0  0  0  0  0  0  0  0  1  0  0
  -22.9038  -24.5301   23.7359 C   0  0  1  0  0  0  0  0  0  0  0  0
  -22.7021  -21.2044   21.9280 C   0  0  2  0  0  0  0  0  0  0  0  0
  -22.7029  -24.6115   25.2756 C   0  0  0  0  0  0  0  0  0  0  0  0
  -27.7291  -15.4110   22.3179 N   0  0  0  0  0  0  0  0  0  0  0  0
  -28.7905  -16.1788   22.6180 N   0  0  0  0  0  0  0  0  0  0  0  0
  -22.9072  -26.4927   22.2286 N   0  0  0  0  0  0  0  0  0  0  0  0
  -27.4867  -19.5241   23.9190 N   0  0  0  0  0  0  0  0  0  0  0  0
  -31.1087  -16.4406   22.2080 N   0  0  0  0  0  0  0  0  0  0  0  0
  -30.0213  -12.8055   19.7585 N   0  0  0  0  0  0  0  0  0  0  0  0
  -28.2785  -21.1166   22.3699 N   0  0  0  0  0  0  0  0  0  0  0  0
  -21.4464  -29.7190   22.6614 N   0  0  0  0  0  0  0  0  0  0  0  0
  -22.4924  -23.2609   23.1459 N   0  0  0  0  0  0  0  0  0  0  0  0
  -23.2777  -20.8043   20.6129 N   0  3  0  0  0  0  0  0  0  0  0  0
  -30.0069  -25.7005   18.5514 N   0  3  0  0  0  0  0  0  0  0  0  0
  -31.7429  -14.1908   20.3714 O   0  0  0  0  0  0  0  0  0  0  0  0
  -23.5239  -28.8530   23.2584 O   0  0  0  0  0  0  0  0  0  0  0  0
  -20.9136  -25.6512   23.0967 O   0  0  0  0  0  0  0  0  0  0  0  0
  -24.5509  -22.7325   22.2183 O   0  0  0  0  0  0  0  0  0  0  0  0
  -27.6253  -21.7568   24.5019 O   0  0  0  0  0  0  0  0  0  0  0  0
  -24.9647  -10.5040   19.3467 O   0  0  0  0  0  0  0  0  0  0  0  0
  -28.3699  -27.7517   19.6545 O   0  0  0  0  0  0  0  0  0  1  0  0
  -21.4617   -7.9584   22.7604 F   0  0  0  0  0  0  0  0  0  0  0  0
  -25.1083   -7.7725   19.7482 F   0  0  0  0  0  0  0  0  0  0  0  0
  1  2  1  0  0  0  0
  1  6  2  0  0  0  0
  2  7  2  0  0  0  0
  3  9  2  0  0  0  0
  3 10  1  0  0  0  0
  4 11  2  0  0  0  0
  4 18  1  0  0  0  0
  5 12  1  0  0  0  0
  5 18  2  0  0  0  0
  6 20  1  0  0  0  0
  7 22  1  0  0  0  0
  8 13  2  0  0  0  0
  8 21  1  0  0  0  0
  9 25  1  0  0  0  0
 10 26  2  0  0  0  0
 11 27  1  0  0  0  0
 12 27  2  0  0  0  0
 13 28  1  0  0  0  0
 14 15  2  0  0  0  0
 14 29  1  0  0  0  0
 15 30  1  0  0  0  0
 16 23  1  0  0  0  0
 16 28  2  0  0  0  0
 17 30  2  0  0  0  0
 17 31  1  0  0  0  0
 18 32  1  0  0  0  0
 19 32  1  0  0  0  0
 19 33  2  0  0  0  0
 19 34  1  0  0  0  0
 20 22  2  0  0  0  0
 20 39  1  0  0  0  0
 21 23  2  0  0  0  0
 21 40  1  0  0  0  0
 22 51  1  0  0  0  0
 23 41  1  0  0  0  0
 24 25  2  0  0  0  0
 24 26  1  0  0  0  0
 24 50  1  0  0  0  0
 25 59  1  0  0  0  0
 26 72  1  0  0  0  0
 27 82  1  0  0  0  0
 28 83  1  0  0  0  0
 29 31  2  0  0  0  0
 29 82  1  0  0  0  0
 30 84  1  0  0  0  0
 31 85  1  0  0  0  0
 32 66  2  0  0  0  0
 33 67  1  0  0  0  0
 33 70  1  0  0  0  0
 34 71  1  0  0  0  0
 34 77  2  0  0  0  0
 35 52  1  0  0  0  0
 35 73  1  0  0  0  0
 35 78  2  0  0  0  0
 36 63  1  0  0  0  0
 36 68  1  0  0  0  0
 36 79  2  0  0  0  0
 37 64  1  0  0  0  0
 37 74  1  0  0  0  0
 37 80  2  0  0  0  0
 38 69  1  0  0  0  0
 38 72  1  0  0  0  0
 38 81  2  0  0  0  0
 39 42  1  0  0  0  0
 40 52  1  0  0  0  0
 41 68  1  0  0  0  0
 42 46  1  0  0  0  0
 43 47  1  0  0  0  0
 43 48  1  0  0  0  0
 44 45  1  0  0  0  0
 44 50  1  0  0  0  0
 45 50  1  0  0  0  0
 46 51  1  0  0  0  0
 47 53  1  0  0  0  0
 48 69  1  0  0  0  0
 49 53  1  0  0  0  0
 49 69  1  0  0  0  0
 51 73  1  0  0  0  0
 52 68  1  0  0  0  0
 53 67  1  0  0  0  0
 54 64  1  0  0  0  0
 55 65  1  0  0  0  0
 56 65  1  0  0  0  0
 57 65  1  0  0  0  0
 58 75  1  0  0  0  0
 59 60  1  0  0  0  0
 60 76  1  0  0  0  0
 61 62  1  0  0  0  0
 61 76  1  0  0  0  0
 62 83  1  0  0  0  0
 63 65  1  0  0  0  0
 63 74  1  0  0  0  0
 64 75  1  0  0  0  0
 66 67  1  0  0  0  0
M  CHG  2  75   1  76   1
M  ISO  4  38 100  62 101  72 100  83 101
M  END
> <Batch ID>
0135

> <Smiles>
CNC(C)C(=O)NC(C(=O)N1Cc2cc([101O:1][101CH2:1]CNCCc3cccc([100NH:0][100C:0](=O)N4CCCC(n5nc(-c6ccc(Oc7ccc(F)cc7F)cc6)c(C(N)=O)c5N)C4)c3C3CC3)ccc2CC1C(=O)NC1CCCc2ccccc21)C(C)(C)C

> <Shape>
0.223

> <Color>
0.091

> <Negative vol penalty>
0.000

$$$$

  -OEChem-04052321003D

 86 95  0     1  0  0  0  0  0999 V2000
  -25.6824  -27.6852   28.4836 C   0  0  0  0  0  0  0  0  0  0  0  0
  -25.9731  -26.3282   28.3871 C   0  0  0  0  0  0  0  0  0  0  0  0
  -29.5765  -23.7114   19.0930 C   0  0  0  0  0  0  0  0  0  0  0  0
  -27.6393  -23.5210   20.5242 C   0  0  0  0  0  0  0  0  0  0  0  0
  -24.4796  -28.1769   27.9783 C   0  0  0  0  0  0  0  0  0  0  0  0
  -25.0607  -25.4618   27.7860 C   0  0  0  0  0  0  0  0  0  0  0  0
  -24.7993  -19.4840   23.8473 C   0  0  0  0  0  0  0  0  0  0  0  0
  -29.0353  -24.8586   18.5130 C   0  0  0  0  0  0  0  0  0  0  0  0
  -27.0981  -24.6683   19.9442 C   0  0  0  0  0  0  0  0  0  0  0  0
  -24.1983  -18.2260   23.8375 C   0  0  0  0  0  0  0  0  0  0  0  0
  -25.3715  -27.7522   19.0919 C   0  0  0  0  0  0  0  0  0  0  0  0
  -24.8153  -28.7086   19.9413 C   0  0  0  0  0  0  0  0  0  0  0  0
  -22.1872  -19.2005   22.9290 C   0  0  0  0  0  0  0  0  0  0  0  0
  -26.9498  -28.9724   21.0420 C   0  0  0  0  0  0  0  0  0  0  0  0
  -26.4911  -12.0955   19.9702 C   0  0  0  0  0  0  0  0  0  0  0  0
  -28.8785  -23.0425   20.0986 C   0  0  0  0  0  0  0  0  0  0  0  0
  -30.2765  -21.7892   21.8256 C   0  0  0  0  0  0  0  0  0  0  0  0
  -23.5562  -27.3177   27.3621 C   0  0  0  0  0  0  0  0  0  0  0  0
  -24.0938  -20.6133   23.4075 C   0  0  0  0  0  0  0  0  0  0  0  0
  -23.8438  -25.9423   27.2731 C   0  0  0  0  0  0  0  0  0  0  0  0
  -22.7824  -20.4712   22.9318 C   0  0  0  0  0  0  0  0  0  0  0  0
  -27.7961  -25.3371   18.9386 C   0  0  0  0  0  0  0  0  0  0  0  0
  -22.8911  -18.0845   23.3811 C   0  0  0  0  0  0  0  0  0  0  0  0
  -26.7168  -27.4058   19.2176 C   0  0  0  0  0  0  0  0  0  0  0  0
  -25.6044  -29.3187   20.9164 C   0  0  0  0  0  0  0  0  0  0  0  0
  -27.5060  -28.0159   20.1926 C   0  0  0  0  0  0  0  0  0  0  0  0
  -29.4368  -21.8570   20.6977 C   0  0  0  0  0  0  0  0  0  0  0  0
  -24.3990  -11.5110   20.6851 C   0  0  0  0  0  0  0  0  0  0  0  0
  -24.1370  -12.8275   20.9948 C   0  0  0  0  0  0  0  0  0  0  0  0
  -26.2290  -13.4120   20.2793 C   0  0  0  0  0  0  0  0  0  0  0  0
  -30.5267  -20.4485   21.9874 C   0  0  0  0  0  0  0  0  0  0  0  0
  -30.7848  -22.8440   22.6532 C   0  0  0  0  0  0  0  0  0  0  0  0
  -23.1419  -23.3295   24.7565 C   0  0  0  0  0  0  0  0  0  0  0  0
  -22.2337  -24.0603   21.7294 C   0  0  0  0  0  0  0  0  0  0  0  0
  -21.3213  -22.9560   18.6319 C   0  0  0  0  0  0  0  0  0  0  0  0
  -27.1813  -15.7524   20.2811 C   0  0  0  0  0  0  0  0  0  0  0  0
  -22.2483  -27.8879   26.8731 C   0  0  0  0  0  0  0  0  0  0  0  0
  -24.7654  -21.9591   23.3993 C   0  0  0  0  0  0  0  0  0  0  0  0
  -21.9889  -21.6490   22.4300 C   0  0  0  0  0  0  0  0  0  0  0  0
  -21.5008  -26.9633   25.9157 C   0  0  0  0  0  0  0  0  0  0  0  0
  -22.8956   -8.4363   21.7974 C   0  0  0  0  0  0  0  0  0  0  0  0
  -30.5704  -16.7952   18.8146 C   0  0  0  0  0  0  0  0  0  0  0  0
  -21.4719  -25.5395   26.4622 C   0  0  0  0  0  0  0  0  0  0  0  0
  -23.8848   -8.8530   20.6924 C   0  0  0  0  0  0  0  0  0  0  0  0
  -23.0152   -9.8740   22.3382 C   0  0  0  0  0  0  0  0  0  0  0  0
  -30.9687  -17.8628   19.8310 C   0  0  0  0  0  0  0  0  0  0  0  0
  -29.5678  -15.8001   19.3852 C   0  0  0  0  0  0  0  0  0  0  0  0
  -28.4320  -17.8976   20.1378 C   0  0  0  0  0  0  0  0  0  0  0  0
  -22.8904  -24.9749   26.6059 C   0  0  1  0  0  0  0  0  0  0  0  0
  -23.3809  -10.3149   20.8886 C   0  0  0  0  0  0  0  0  0  0  0  0
  -23.7764  -23.1206   23.4106 C   0  0  1  0  0  0  0  0  0  0  0  0
  -29.7914  -18.3274   20.7110 C   0  0  2  0  0  0  0  0  0  0  0  0
  -20.7027  -23.0835   16.2032 C   0  0  0  0  0  0  0  0  0  0  0  0
  -20.2076  -14.8308   20.9662 C   0  0  0  0  0  0  0  0  0  0  0  0
  -19.4573  -24.6643   22.8418 C   0  0  0  0  0  0  0  0  0  0  0  0
  -18.5728  -24.5564   20.5021 C   0  0  0  0  0  0  0  0  0  0  0  0
  -20.2646  -26.2839   21.1156 C   0  0  0  0  0  0  0  0  0  0  0  0
  -24.1533  -22.8170   17.7839 C   0  0  0  0  0  0  0  0  0  0  0  0
  -22.8139  -13.2382   21.5708 C   0  0  0  0  0  0  0  0  0  0  0  0
  -21.3188  -16.6178   22.3650 C   0  0  0  0  0  0  0  0  0  1  0  0
  -20.9782  -23.8669   20.9138 C   0  0  1  0  0  0  0  0  0  0  0  0
  -21.7770  -23.3637   17.2425 C   0  0  2  0  0  0  0  0  0  0  0  0
  -21.2515  -15.1322   22.0292 C   0  0  2  0  0  0  0  0  0  0  0  0
  -19.8322  -24.8208   21.3545 C   0  0  0  0  0  0  0  0  0  0  0  0
  -25.5808  -11.1213   20.1675 N   0  0  0  0  0  0  0  0  0  0  0  0
  -29.1715  -20.6549   20.1795 N   0  0  0  0  0  0  0  0  0  0  0  0
  -25.0472  -13.8016   20.7972 N   0  0  0  0  0  0  0  0  0  0  0  0
  -29.8484  -19.8191   20.9854 N   0  0  0  0  0  0  0  0  0  0  0  0
  -22.6872  -22.9449   22.4478 N   0  0  0  0  0  0  0  0  0  0  0  0
  -28.3717  -16.4437   19.9476 N   0  0  0  0  0  0  0  0  0  0  0  0
  -31.2587  -19.7582   22.8875 N   0  0  0  0  0  0  0  0  0  0  0  0
  -30.4291  -24.1645   22.3462 N   0  0  0  0  0  0  0  0  0  0  0  0
  -27.2395  -14.3770   20.0415 N   0  0  0  0  0  0  0  0  0  0  0  0
  -23.4043  -24.5652   25.3166 N   0  0  0  0  0  0  0  0  0  0  0  0
  -21.3726  -24.0122   19.5167 N   0  0  0  0  0  0  0  0  0  0  0  0
  -23.0074  -22.6147   16.8603 N   0  3  0  0  0  0  0  0  0  0  0  0
  -22.5822  -14.7038   21.5090 N   0  3  0  0  0  0  0  0  0  0  0  0
  -31.5455  -22.6234   23.6259 O   0  0  0  0  0  0  0  0  0  0  0  0
  -22.4631  -22.4363   25.2497 O   0  0  0  0  0  0  0  0  0  0  0  0
  -22.7953  -25.1586   21.7236 O   0  0  0  0  0  0  0  0  0  0  0  0
  -20.9528  -21.8155   18.9041 O   0  0  0  0  0  0  0  0  0  0  0  0
  -26.2028  -16.3368   20.7511 O   0  0  0  0  0  0  0  0  0  0  0  0
  -27.2677  -26.4567   18.3730 O   0  0  0  0  0  0  0  0  0  0  0  0
  -22.3020  -16.8579   23.3711 O   0  0  0  0  0  0  0  0  0  1  0  0
  -25.0705  -30.2382   21.7310 F   0  0  0  0  0  0  0  0  0  0  0  0
  -28.7993  -27.6882   20.3173 F   0  0  0  0  0  0  0  0  0  0  0  0
  1  2  1  0  0  0  0
  1  5  2  0  0  0  0
  2  6  2  0  0  0  0
  3  8  2  0  0  0  0
  3 16  1  0  0  0  0
  4  9  1  0  0  0  0
  4 16  2  0  0  0  0
  5 18  1  0  0  0  0
  6 20  1  0  0  0  0
  7 10  2  0  0  0  0
  7 19  1  0  0  0  0
  8 22  1  0  0  0  0
  9 22  2  0  0  0  0
 10 23  1  0  0  0  0
 11 12  2  0  0  0  0
 11 24  1  0  0  0  0
 12 25  1  0  0  0  0
 13 21  1  0  0  0  0
 13 23  2  0  0  0  0
 14 25  2  0  0  0  0
 14 26  1  0  0  0  0
 15 30  1  0  0  0  0
 15 65  2  0  0  0  0
 16 27  1  0  0  0  0
 17 27  1  0  0  0  0
 17 31  2  0  0  0  0
 17 32  1  0  0  0  0
 18 20  2  0  0  0  0
 18 37  1  0  0  0  0
 19 21  2  0  0  0  0
 19 38  1  0  0  0  0
 20 49  1  0  0  0  0
 21 39  1  0  0  0  0
 22 83  1  0  0  0  0
 23 84  1  0  0  0  0
 24 26  2  0  0  0  0
 24 83  1  0  0  0  0
 25 85  1  0  0  0  0
 26 86  1  0  0  0  0
 27 66  2  0  0  0  0
 28 29  2  0  0  0  0
 28 50  1  0  0  0  0
 28 65  1  0  0  0  0
 29 59  1  0  0  0  0
 29 67  1  0  0  0  0
 30 67  2  0  0  0  0
 30 73  1  0  0  0  0
 31 68  1  0  0  0  0
 31 71  1  0  0  0  0
 32 72  1  0  0  0  0
 32 78  2  0  0  0  0
 33 51  1  0  0  0  0
 33 74  1  0  0  0  0
 33 79  2  0  0  0  0
 34 61  1  0  0  0  0
 34 69  1  0  0  0  0
 34 80  2  0  0  0  0
 35 62  1  0  0  0  0
 35 75  1  0  0  0  0
 35 81  2  0  0  0  0
 36 70  1  0  0  0  0
 36 73  1  0  0  0  0
 36 82  2  0  0  0  0
 37 40  1  0  0  0  0
 38 51  1  0  0  0  0
 39 69  1  0  0  0  0
 40 43  1  0  0  0  0
 41 44  1  0  0  0  0
 41 45  1  0  0  0  0
 42 46  1  0  0  0  0
 42 47  1  0  0  0  0
 43 49  1  0  0  0  0
 44 50  1  0  0  0  0
 45 50  1  0  0  0  0
 46 52  1  0  0  0  0
 47 70  1  0  0  0  0
 48 52  1  0  0  0  0
 48 70  1  0  0  0  0
 49 74  1  0  0  0  0
 51 69  1  0  0  0  0
 52 68  1  0  0  0  0
 53 62  1  0  0  0  0
 54 63  1  0  0  0  0
 55 64  1  0  0  0  0
 56 64  1  0  0  0  0
 57 64  1  0  0  0  0
 58 76  1  0  0  0  0
 59 77  1  0  0  0  0
 60 63  1  0  0  0  0
 60 84  1  0  0  0  0
 61 64  1  0  0  0  0
 61 75  1  0  0  0  0
 62 76  1  0  0  0  0
 63 77  1  0  0  0  0
 66 68  1  0  0  0  0
M  CHG  2  76   1  77   1
M  ISO  4  36 100  60 101  73 100  84 101
M  END
> <Batch ID>
0135

> <Smiles>
CNC(C)C(=O)NC(C(=O)N1Cc2cc([101O:1][101CH2:1]C(C)NCc3nc([100NH:0][100C:0](=O)N4CCCC(n5nc(-c6ccc(Oc7ccc(F)cc7F)cc6)c(C(N)=O)c5N)C4)cnc3C3CCC3)ccc2CC1C(=O)NC1CCCc2ccccc21)C(C)(C)C

> <Shape>
0.194

> <Color>
0.083

> <Negative vol penalty>
0.000

$$$$

  -OEChem-04052321003D

 89 97  0     1  0  0  0  0  0999 V2000
  -22.0066  -19.4382   21.8375 C   0  0  0  0  0  0  0  0  0  0  0  0
  -23.2814  -19.8565   22.2055 C   0  0  0  0  0  0  0  0  0  0  0  0
  -23.0983   -9.8536   19.9645 C   0  0  0  0  0  0  0  0  0  0  0  0
  -23.8265   -9.9217   22.2672 C   0  0  0  0  0  0  0  0  0  0  0  0
  -21.1467  -20.3195   21.1833 C   0  0  0  0  0  0  0  0  0  0  0  0
  -23.6974  -21.1561   21.9184 C   0  0  0  0  0  0  0  0  0  0  0  0
  -26.0494  -23.3514   25.8291 C   0  0  0  0  0  0  0  0  0  0  0  0
  -22.3613   -8.6999   20.2317 C   0  0  0  0  0  0  0  0  0  0  0  0
  -23.0895   -8.7680   22.5344 C   0  0  0  0  0  0  0  0  0  0  0  0
  -27.3747  -22.9862   26.0616 C   0  0  0  0  0  0  0  0  0  0  0  0
  -19.8606   -7.9549   23.1119 C   0  0  0  0  0  0  0  0  0  0  0  0
  -19.0880   -7.9356   24.2731 C   0  0  0  0  0  0  0  0  0  0  0  0
  -28.1165  -25.0008   24.9616 C   0  0  0  0  0  0  0  0  0  0  0  0
  -33.4039  -20.5135   24.3929 C   0  0  0  0  0  0  0  0  0  0  0  0
  -31.4278  -19.2615   23.7889 C   0  0  0  0  0  0  0  0  0  0  0  0
  -20.3364   -6.0276   25.0720 C   0  0  0  0  0  0  0  0  0  0  0  0
  -23.8309  -10.4645   20.9823 C   0  0  0  0  0  0  0  0  0  0  0  0
  -24.1518  -12.9892   20.8070 C   0  0  0  0  0  0  0  0  0  0  0  0
  -21.5490  -21.6335   20.8967 C   0  0  0  0  0  0  0  0  0  0  0  0
  -25.7475  -24.5407   25.1504 C   0  0  0  0  0  0  0  0  0  0  0  0
  -22.8426  -22.0553   21.2585 C   0  0  0  0  0  0  0  0  0  0  0  0
  -26.7866  -25.3801   24.7240 C   0  0  0  0  0  0  0  0  0  0  0  0
  -34.1853  -19.3749   24.1965 C   0  0  0  0  0  0  0  0  0  0  0  0
  -32.2092  -18.1229   23.5925 C   0  0  0  0  0  0  0  0  0  0  0  0
  -33.5880  -18.1796   23.7963 C   0  0  0  0  0  0  0  0  0  0  0  0
  -32.0251  -20.4568   24.1891 C   0  0  0  0  0  0  0  0  0  0  0  0
  -22.3569   -8.1571   21.5166 C   0  0  0  0  0  0  0  0  0  0  0  0
  -28.4086  -23.8095   25.6253 C   0  0  0  0  0  0  0  0  0  0  0  0
  -20.8710   -7.0105   22.9307 C   0  0  0  0  0  0  0  0  0  0  0  0
  -19.3259   -6.9720   25.2531 C   0  0  0  0  0  0  0  0  0  0  0  0
  -21.1089   -6.0469   23.9108 C   0  0  0  0  0  0  0  0  0  0  0  0
  -24.5928  -11.6560   20.7068 C   0  0  0  0  0  0  0  0  0  0  0  0
  -25.2422  -13.7399   20.4408 C   0  0  0  0  0  0  0  0  0  0  0  0
  -22.8712  -13.5030   21.1963 C   0  0  0  0  0  0  0  0  0  0  0  0
  -24.2654  -25.2574   22.4313 C   0  0  0  0  0  0  0  0  0  0  0  0
  -24.6629  -28.3041   23.4715 C   0  0  0  0  0  0  0  0  0  0  0  0
  -26.4106  -30.4964   25.4174 C   0  0  0  0  0  0  0  0  0  0  0  0
  -30.7135  -14.8137   20.6791 C   0  0  0  0  0  0  0  0  0  0  0  0
  -20.6016  -22.5352   20.1457 C   0  0  0  0  0  0  0  0  0  0  0  0
  -24.3122  -24.9336   24.9311 C   0  0  0  0  0  0  0  0  0  0  0  0
  -26.5152  -26.6775   24.0087 C   0  0  0  0  0  0  0  0  0  0  0  0
  -20.9842  -24.0115   20.2125 C   0  0  0  0  0  0  0  0  0  0  0  0
  -29.6301  -12.3631   18.3344 C   0  0  0  0  0  0  0  0  0  0  0  0
  -22.4734  -24.1902   19.9349 C   0  0  0  0  0  0  0  0  0  0  0  0
  -28.1895  -12.0664   18.7547 C   0  0  0  0  0  0  0  0  0  0  0  0
  -30.5286  -12.6207   19.5420 C   0  0  0  0  0  0  0  0  0  0  0  0
  -28.6016  -13.3667   20.8851 C   0  0  0  0  0  0  0  0  0  0  0  0
  -23.3215  -23.4649   20.9867 C   0  0  1  0  0  0  0  0  0  0  0  0
  -24.1308  -25.9138   23.7762 C   0  0  1  0  0  0  0  0  0  0  0  0
  -27.6453  -13.1554   19.6988 C   0  0  2  0  0  0  0  0  0  0  0  0
  -35.6594  -19.4621   24.4221 C   0  0  0  0  0  0  0  0  0  0  0  0
  -26.5258  -32.9271   26.0303 C   0  0  0  0  0  0  0  0  0  0  0  0
  -34.5168  -14.3982   23.9061 C   0  0  0  0  0  0  0  0  0  0  0  0
  -34.5334  -15.8910   25.9010 C   0  0  0  0  0  0  0  0  0  0  0  0
  -25.9797  -28.9159   20.7879 C   0  0  0  0  0  0  0  0  0  0  0  0
  -26.9014  -31.0135   21.7973 C   0  0  0  0  0  0  0  0  0  0  0  0
  -24.4334  -30.6961   21.6212 C   0  0  0  0  0  0  0  0  0  0  0  0
  -34.9323  -17.5899   21.2236 C   0  0  0  0  0  0  0  0  0  0  0  0
  -25.8704  -29.9220   28.2700 C   0  0  0  0  0  0  0  0  0  0  0  0
  -31.5452  -16.8553   23.1640 C   0  0  0  0  0  0  0  0  0  0  0  0
  -30.7432  -16.9934   21.8654 C   0  0  0  0  0  0  0  0  0  0  0  0
  -31.7842  -22.8649   24.7965 C   0  0  0  0  0  0  0  0  0  0  0  0
  -30.6716  -23.8946   24.8990 C   0  0  0  0  0  0  0  0  0  1  0  0
  -34.4256  -16.9584   23.5865 C   0  0  1  0  0  0  0  0  0  0  0  0
  -25.7375  -29.3536   23.3209 C   0  0  1  0  0  0  0  0  0  0  0  0
  -25.9510  -31.5662   26.3915 C   0  0  2  0  0  0  0  0  0  0  0  0
  -34.0131  -15.7364   24.4643 C   0  0  0  0  0  0  0  0  0  0  0  0
  -25.7685  -29.9694   21.8935 C   0  0  0  0  0  0  0  0  0  0  0  0
  -25.8641  -11.5620   20.3080 N   0  0  0  0  0  0  0  0  0  0  0  0
  -26.2313  -12.8456   20.1544 N   0  0  0  0  0  0  0  0  0  0  0  0
  -25.0956  -27.0148   23.8124 N   0  0  0  0  0  0  0  0  0  0  0  0
  -29.9568  -13.6647   20.3958 N   0  0  0  0  0  0  0  0  0  0  0  0
  -25.4417  -15.0712   20.3391 N   0  0  0  0  0  0  0  0  0  0  0  0
  -21.8629  -12.5928   21.5413 N   0  0  0  0  0  0  0  0  0  0  0  0
  -31.2493  -21.5876   24.3836 N   0  0  0  0  0  0  0  0  0  0  0  0
  -23.3672  -24.2300   22.2143 N   0  0  0  0  0  0  0  0  0  0  0  0
  -25.5118  -30.3248   24.3859 N   0  0  0  0  0  0  0  0  0  0  0  0
  -30.0946  -15.7566   21.4907 N   0  0  0  0  0  0  0  0  0  0  0  0
  -34.4326  -16.5410   22.1387 N   0  3  0  0  0  0  0  0  0  0  0  0
  -26.3834  -31.2259   27.7765 N   0  3  0  0  0  0  0  0  0  0  0  0
  -22.6232  -14.7324   21.2212 O   0  0  0  0  0  0  0  0  0  0  0  0
  -25.1198  -25.6548   21.6479 O   0  0  0  0  0  0  0  0  0  0  0  0
  -23.4824  -28.6184   23.3003 O   0  0  0  0  0  0  0  0  0  0  0  0
  -27.4634  -29.8776   25.5556 O   0  0  0  0  0  0  0  0  0  0  0  0
  -31.8540  -14.9889   20.2369 O   0  0  0  0  0  0  0  0  0  0  0  0
  -21.6377   -7.0314   21.7777 O   0  0  0  0  0  0  0  0  0  0  0  0
  -29.7030  -23.4551   25.8503 O   0  0  0  0  0  0  0  0  0  1  0  0
  -18.5849   -6.9546   26.3689 F   0  0  0  0  0  0  0  0  0  0  0  0
  -22.0790   -5.1378   23.7429 F   0  0  0  0  0  0  0  0  0  0  0  0
  1  2  1  0  0  0  0
  1  5  2  0  0  0  0
  2  6  2  0  0  0  0
  3  8  2  0  0  0  0
  3 17  1  0  0  0  0
  4  9  1  0  0  0  0
  4 17  2  0  0  0  0
  5 19  1  0  0  0  0
  6 21  1  0  0  0  0
  7 10  2  0  0  0  0
  7 20  1  0  0  0  0
  8 27  1  0  0  0  0
  9 27  2  0  0  0  0
 10 28  1  0  0  0  0
 11 12  2  0  0  0  0
 11 29  1  0  0  0  0
 12 30  1  0  0  0  0
 13 22  1  0  0  0  0
 13 28  2  0  0  0  0
 14 23  2  0  0  0  0
 14 26  1  0  0  0  0
 15 24  1  0  0  0  0
 15 26  2  0  0  0  0
 16 30  2  0  0  0  0
 16 31  1  0  0  0  0
 17 32  1  0  0  0  0
 18 32  1  0  0  0  0
 18 33  2  0  0  0  0
 18 34  1  0  0  0  0
 19 21  2  0  0  0  0
 19 39  1  0  0  0  0
 20 22  2  0  0  0  0
 20 40  1  0  0  0  0
 21 48  1  0  0  0  0
 22 41  1  0  0  0  0
 23 25  1  0  0  0  0
 23 51  1  0  0  0  0
 24 25  2  0  0  0  0
 24 60  1  0  0  0  0
 25 64  1  0  0  0  0
 26 75  1  0  0  0  0
 27 86  1  0  0  0  0
 28 87  1  0  0  0  0
 29 31  2  0  0  0  0
 29 86  1  0  0  0  0
 30 88  1  0  0  0  0
 31 89  1  0  0  0  0
 32 69  2  0  0  0  0
 33 70  1  0  0  0  0
 33 73  1  0  0  0  0
 34 74  1  0  0  0  0
 34 81  2  0  0  0  0
 35 49  1  0  0  0  0
 35 76  1  0  0  0  0
 35 82  2  0  0  0  0
 36 65  1  0  0  0  0
 36 71  1  0  0  0  0
 36 83  2  0  0  0  0
 37 66  1  0  0  0  0
 37 77  1  0  0  0  0
 37 84  2  0  0  0  0
 38 72  1  0  0  0  0
 38 78  1  0  0  0  0
 38 85  2  0  0  0  0
 39 42  1  0  0  0  0
 40 49  1  0  0  0  0
 41 71  1  0  0  0  0
 42 44  1  0  0  0  0
 43 45  1  0  0  0  0
 43 46  1  0  0  0  0
 44 48  1  0  0  0  0
 45 50  1  0  0  0  0
 46 72  1  0  0  0  0
 47 50  1  0  0  0  0
 47 72  1  0  0  0  0
 48 76  1  0  0  0  0
 49 71  1  0  0  0  0
 50 70  1  0  0  0  0
 52 66  1  0  0  0  0
 53 67  1  0  0  0  0
 54 67  1  0  0  0  0
 55 68  1  0  0  0  0
 56 68  1  0  0  0  0
 57 68  1  0  0  0  0
 58 79  1  0  0  0  0
 59 80  1  0  0  0  0
 60 61  1  0  0  0  0
 61 78  1  0  0  0  0
 62 63  1  0  0  0  0
 62 75  1  0  0  0  0
 63 87  1  0  0  0  0
 64 67  1  0  0  0  0
 64 79  1  0  0  0  0
 65 68  1  0  0  0  0
 65 77  1  0  0  0  0
 66 80  1  0  0  0  0
 69 70  1  0  0  0  0
M  CHG  2  79   1  80   1
M  ISO  4  38 100  63 101  78 100  87 101
M  END
> <Batch ID>
0135

> <Smiles>
CNC(C)C(=O)NC(C(=O)N1Cc2cc([101O:1][101CH2:1]CNc3cc(C)c(C(NC)C(C)C)c(CC[100NH:0][100C:0](=O)N4CCCC(n5nc(-c6ccc(Oc7ccc(F)cc7F)cc6)c(C(N)=O)c5N)C4)c3)ccc2CC1C(=O)NC1CCCc2ccccc21)C(C)(C)C

> <Shape>
0.232

> <Color>
0.207

> <Negative vol penalty>
0.000

$$$$

  -OEChem-04052321003D

 84 93  0     1  0  0  0  0  0999 V2000
  -30.7074  -26.2938   13.8395 C   0  0  0  0  0  0  0  0  0  0  0  0
  -30.6530  -25.4291   14.9279 C   0  0  0  0  0  0  0  0  0  0  0  0
  -23.3778   -9.6518   20.1440 C   0  0  0  0  0  0  0  0  0  0  0  0
  -23.8146  -10.0490   22.4867 C   0  0  0  0  0  0  0  0  0  0  0  0
  -30.4760  -27.6567   14.0211 C   0  0  0  0  0  0  0  0  0  0  0  0
  -30.3683  -25.9269   16.1989 C   0  0  0  0  0  0  0  0  0  0  0  0
  -26.9230  -23.0535   18.7219 C   0  0  0  0  0  0  0  0  0  0  0  0
  -30.2010  -19.1246   23.3238 C   0  0  0  0  0  0  0  0  0  0  0  0
  -22.7010   -8.4764   20.4694 C   0  0  0  0  0  0  0  0  0  0  0  0
  -23.1377   -8.8736   22.8122 C   0  0  0  0  0  0  0  0  0  0  0  0
  -27.3542  -21.8640   19.3075 C   0  0  0  0  0  0  0  0  0  0  0  0
  -30.6547  -17.8576   23.7240 C   0  0  0  0  0  0  0  0  0  0  0  0
  -19.6551   -7.6006   21.6478 C   0  0  0  0  0  0  0  0  0  0  0  0
  -18.4346   -7.3596   21.0171 C   0  0  0  0  0  0  0  0  0  0  0  0
  -27.5280  -22.9826   21.4374 C   0  0  0  0  0  0  0  0  0  0  0  0
  -19.3224   -5.3178   20.0792 C   0  0  0  0  0  0  0  0  0  0  0  0
  -23.9347  -10.4381   21.1526 C   0  0  0  0  0  0  0  0  0  0  0  0
  -24.0876  -12.9440   20.7002 C   0  0  0  0  0  0  0  0  0  0  0  0
  -30.1788  -28.1701   15.2934 C   0  0  0  0  0  0  0  0  0  0  0  0
  -26.8006  -24.2214   19.4885 C   0  0  0  0  0  0  0  0  0  0  0  0
  -30.1340  -27.2981   16.3980 C   0  0  0  0  0  0  0  0  0  0  0  0
  -27.0905  -24.1843   20.8601 C   0  0  0  0  0  0  0  0  0  0  0  0
  -27.9643  -18.2943   23.2373 C   0  0  0  0  0  0  0  0  0  0  0  0
  -28.4165  -17.0312   23.6368 C   0  0  0  0  0  0  0  0  0  0  0  0
  -28.8459  -19.3488   23.0707 C   0  0  0  0  0  0  0  0  0  0  0  0
  -22.5809   -8.0873   21.8035 C   0  0  0  0  0  0  0  0  0  0  0  0
  -27.6590  -21.8290   20.6649 C   0  0  0  0  0  0  0  0  0  0  0  0
  -29.7598  -16.7964   23.8774 C   0  0  0  0  0  0  0  0  0  0  0  0
  -20.7094   -6.7003   21.4941 C   0  0  0  0  0  0  0  0  0  0  0  0
  -18.2681   -6.2182   20.2329 C   0  0  0  0  0  0  0  0  0  0  0  0
  -20.5430   -5.5588   20.7098 C   0  0  0  0  0  0  0  0  0  0  0  0
  -24.6345  -11.6520   20.8170 C   0  0  0  0  0  0  0  0  0  0  0  0
  -25.1560  -13.7402   20.3669 C   0  0  0  0  0  0  0  0  0  0  0  0
  -22.7349  -13.3849   20.8772 C   0  0  0  0  0  0  0  0  0  0  0  0
  -28.0899  -27.1511   19.4725 C   0  0  0  0  0  0  0  0  0  0  0  0
  -25.8453  -27.5858   21.8864 C   0  0  0  0  0  0  0  0  0  0  0  0
  -26.3664  -30.9521   21.6955 C   0  0  0  0  0  0  0  0  0  0  0  0
  -31.0547  -13.2333   21.2610 C   0  0  0  0  0  0  0  0  0  0  0  0
  -29.9826  -29.6574   15.4484 C   0  0  0  0  0  0  0  0  0  0  0  0
  -26.3046  -25.4873   18.8436 C   0  0  0  0  0  0  0  0  0  0  0  0
  -26.4886  -18.2790   22.9919 C   0  0  0  0  0  0  0  0  0  0  0  0
  -27.2849  -16.0546   23.6969 C   0  0  0  0  0  0  0  0  0  0  0  0
  -26.9716  -25.4091   21.7264 C   0  0  0  0  0  0  0  0  0  0  0  0
  -29.3179  -30.0502   16.7653 C   0  0  0  0  0  0  0  0  0  0  0  0
  -26.0764  -17.0021   23.7396 C   0  0  0  0  0  0  0  0  0  0  0  0
  -29.3859  -13.5899   18.1362 C   0  0  0  0  0  0  0  0  0  0  0  0
  -29.9687  -29.3143   17.9321 C   0  0  0  0  0  0  0  0  0  0  0  0
  -27.9296  -13.2503   18.4584 C   0  0  0  0  0  0  0  0  0  0  0  0
  -30.3575  -12.7272   18.9385 C   0  0  0  0  0  0  0  0  0  0  0  0
  -28.6848  -12.4044   20.7195 C   0  0  0  0  0  0  0  0  0  0  0  0
  -29.8037  -27.7965   17.7882 C   0  0  1  0  0  0  0  0  0  0  0  0
  -26.6508  -26.7494   19.6308 C   0  0  1  0  0  0  0  0  0  0  0  0
  -27.6678  -13.2871   19.9760 C   0  0  2  0  0  0  0  0  0  0  0  0
  -25.4584  -33.1365   22.5330 C   0  0  0  0  0  0  0  0  0  0  0  0
  -23.5164  -27.3644   19.9287 C   0  0  0  0  0  0  0  0  0  0  0  0
  -23.2294  -29.8457   20.0991 C   0  0  0  0  0  0  0  0  0  0  0  0
  -22.9388  -28.4164   22.1228 C   0  0  0  0  0  0  0  0  0  0  0  0
  -28.9147  -31.6288   23.0399 C   0  0  0  0  0  0  0  0  0  0  0  0
  -28.3746  -20.7051   22.6349 C   0  0  0  0  0  0  0  0  0  1  0  0
  -31.5992  -13.7118   23.6346 C   0  0  0  0  0  0  0  0  0  0  0  0
  -31.5319  -15.2105   23.8675 C   0  0  0  0  0  0  0  0  0  0  0  0
  -25.2596  -28.7898   21.1919 C   0  0  1  0  0  0  0  0  0  0  0  0
  -26.4624  -32.0193   22.7709 C   0  0  2  0  0  0  0  0  0  0  0  0
  -23.7609  -28.5929   20.8276 C   0  0  0  0  0  0  0  0  0  0  0  0
  -25.9482  -11.6246   20.5773 N   0  0  0  0  0  0  0  0  0  0  0  0
  -26.2357  -12.9091   20.3063 N   0  0  0  0  0  0  0  0  0  0  0  0
  -26.4043  -26.5942   21.0701 N   0  0  0  0  0  0  0  0  0  0  0  0
  -30.0560  -12.8075   20.3698 N   0  0  0  0  0  0  0  0  0  0  0  0
  -25.2677  -15.0632   20.1225 N   0  0  0  0  0  0  0  0  0  0  0  0
  -21.7620  -12.4356   21.2187 N   0  0  0  0  0  0  0  0  0  0  0  0
  -28.4653  -27.3956   18.1653 N   0  0  0  0  0  0  0  0  0  0  0  0
  -25.5176  -29.9300   22.0646 N   0  0  0  0  0  0  0  0  0  0  0  0
  -30.6838  -13.2871   22.5991 N   0  0  0  0  0  0  0  0  0  0  0  0
  -27.8294  -32.6124   22.7915 N   0  3  0  0  0  0  0  0  0  0  0  0
  -22.3958  -14.5824   20.7205 O   0  0  0  0  0  0  0  0  0  0  0  0
  -28.8063  -27.2346   20.4632 O   0  0  0  0  0  0  0  0  0  0  0  0
  -25.8029  -27.5204   23.1181 O   0  0  0  0  0  0  0  0  0  0  0  0
  -26.9799  -31.0203   20.6328 O   0  0  0  0  0  0  0  0  0  0  0  0
  -32.1910  -13.5478   20.8911 O   0  0  0  0  0  0  0  0  0  0  0  0
  -21.9203   -6.9405   22.1215 O   0  0  0  0  0  0  0  0  0  0  0  0
  -28.0795  -20.6691   21.2392 O   0  0  0  0  0  0  0  0  0  1  0  0
  -30.2054  -15.5713   24.2555 O   0  0  0  0  0  0  0  0  0  0  0  0
  -17.0955   -5.9861   19.6286 F   0  0  0  0  0  0  0  0  0  0  0  0
  -21.5517   -4.6896   20.5594 F   0  0  0  0  0  0  0  0  0  0  0  0
  1  2  1  0  0  0  0
  1  5  2  0  0  0  0
  2  6  2  0  0  0  0
  3  9  2  0  0  0  0
  3 17  1  0  0  0  0
  4 10  1  0  0  0  0
  4 17  2  0  0  0  0
  5 19  1  0  0  0  0
  6 21  1  0  0  0  0
  7 11  2  0  0  0  0
  7 20  1  0  0  0  0
  8 12  2  0  0  0  0
  8 25  1  0  0  0  0
  9 26  1  0  0  0  0
 10 26  2  0  0  0  0
 11 27  1  0  0  0  0
 12 28  1  0  0  0  0
 13 14  2  0  0  0  0
 13 29  1  0  0  0  0
 14 30  1  0  0  0  0
 15 22  1  0  0  0  0
 15 27  2  0  0  0  0
 16 30  2  0  0  0  0
 16 31  1  0  0  0  0
 17 32  1  0  0  0  0
 18 32  1  0  0  0  0
 18 33  2  0  0  0  0
 18 34  1  0  0  0  0
 19 21  2  0  0  0  0
 19 39  1  0  0  0  0
 20 22  2  0  0  0  0
 20 40  1  0  0  0  0
 21 51  1  0  0  0  0
 22 43  1  0  0  0  0
 23 24  1  0  0  0  0
 23 25  2  0  0  0  0
 23 41  1  0  0  0  0
 24 28  2  0  0  0  0
 24 42  1  0  0  0  0
 25 59  1  0  0  0  0
 26 80  1  0  0  0  0
 27 81  1  0  0  0  0
 28 82  1  0  0  0  0
 29 31  2  0  0  0  0
 29 80  1  0  0  0  0
 30 83  1  0  0  0  0
 31 84  1  0  0  0  0
 32 65  2  0  0  0  0
 33 66  1  0  0  0  0
 33 69  1  0  0  0  0
 34 70  1  0  0  0  0
 34 75  2  0  0  0  0
 35 52  1  0  0  0  0
 35 71  1  0  0  0  0
 35 76  2  0  0  0  0
 36 62  1  0  0  0  0
 36 67  1  0  0  0  0
 36 77  2  0  0  0  0
 37 63  1  0  0  0  0
 37 72  1  0  0  0  0
 37 78  2  0  0  0  0
 38 68  1  0  0  0  0
 38 73  1  0  0  0  0
 38 79  2  0  0  0  0
 39 44  1  0  0  0  0
 40 52  1  0  0  0  0
 41 45  1  0  0  0  0
 42 45  1  0  0  0  0
 43 67  1  0  0  0  0
 44 47  1  0  0  0  0
 46 48  1  0  0  0  0
 46 49  1  0  0  0  0
 47 51  1  0  0  0  0
 48 53  1  0  0  0  0
 49 68  1  0  0  0  0
 50 53  1  0  0  0  0
 50 68  1  0  0  0  0
 51 71  1  0  0  0  0
 52 67  1  0  0  0  0
 53 66  1  0  0  0  0
 54 63  1  0  0  0  0
 55 64  1  0  0  0  0
 56 64  1  0  0  0  0
 57 64  1  0  0  0  0
 58 74  1  0  0  0  0
 59 81  1  0  0  0  0
 60 61  1  0  0  0  0
 60 73  1  0  0  0  0
 61 82  1  0  0  0  0
 62 64  1  0  0  0  0
 62 72  1  0  0  0  0
 63 74  1  0  0  0  0
 65 66  1  0  0  0  0
M  CHG  1  74   1
M  ISO  4  38 100  59 101  73 100  81 101
M  END
> <Batch ID>
0135

> <Smiles>
CNC(C)C(=O)NC(C(=O)N1Cc2cc([101O:1][101CH2:1]c3ccc(OCC[100NH:0][100C:0](=O)N4CCCC(n5nc(-c6ccc(Oc7ccc(F)cc7F)cc6)c(C(N)=O)c5N)C4)c4c3CCC4)ccc2CC1C(=O)NC1CCCc2ccccc21)C(C)(C)C

> <Shape>
0.244

> <Color>
0.174

> <Negative vol penalty>
0.000

$$$$

  -OEChem-04052321003D

 92102  0     1  0  0  0  0  0999 V2000
  -28.0637  -37.4703   24.8989 C   0  0  0  0  0  0  0  0  0  0  0  0
  -28.5411  -36.6529   23.8794 C   0  0  0  0  0  0  0  0  0  0  0  0
  -25.0584   -8.0028   22.5114 C   0  0  0  0  0  0  0  0  0  0  0  0
  -23.8720   -9.5747   21.1119 C   0  0  0  0  0  0  0  0  0  0  0  0
  -27.2534  -36.9343   25.8989 C   0  0  0  0  0  0  0  0  0  0  0  0
  -28.2092  -35.2987   23.8599 C   0  0  0  0  0  0  0  0  0  0  0  0
  -25.1553  -20.8248   17.9858 C   0  0  0  0  0  0  0  0  0  0  0  0
  -26.9046  -29.9357   19.2934 C   0  0  0  0  0  0  0  0  0  0  0  0
  -25.5379  -22.1647   17.9164 C   0  0  0  0  0  0  0  0  0  0  0  0
  -24.0263   -7.0788   22.3485 C   0  0  0  0  0  0  0  0  0  0  0  0
  -22.8399   -8.6507   20.9490 C   0  0  0  0  0  0  0  0  0  0  0  0
  -27.3052  -28.6274   19.0259 C   0  0  0  0  0  0  0  0  0  0  0  0
  -20.9340   -6.5516   23.6071 C   0  0  0  0  0  0  0  0  0  0  0  0
  -20.4818   -5.8795   24.7426 C   0  0  0  0  0  0  0  0  0  0  0  0
  -27.4526  -20.2115   18.3179 C   0  0  0  0  0  0  0  0  0  0  0  0
  -25.8332  -27.8282   20.7619 C   0  0  0  0  0  0  0  0  0  0  0  0
  -21.0828   -3.7687   23.7324 C   0  0  0  0  0  0  0  0  0  0  0  0
  -24.9812   -9.2508   21.8931 C   0  0  0  0  0  0  0  0  0  0  0  0
  -26.5041  -10.7653   23.2697 C   0  0  0  0  0  0  0  0  0  0  0  0
  -26.1154  -19.8459   18.1899 C   0  0  0  0  0  0  0  0  0  0  0  0
  -26.9035  -35.5748   25.8863 C   0  0  0  0  0  0  0  0  0  0  0  0
  -25.9719  -30.2015   20.3062 C   0  0  0  0  0  0  0  0  0  0  0  0
  -27.3946  -34.7437   24.8614 C   0  0  0  0  0  0  0  0  0  0  0  0
  -27.8515  -21.5620   18.2499 C   0  0  0  0  0  0  0  0  0  0  0  0
  -25.4206  -29.1405   21.0386 C   0  0  0  0  0  0  0  0  0  0  0  0
  -26.8846  -22.5667   18.0457 C   0  0  0  0  0  0  0  0  0  0  0  0
  -22.9171   -7.4027   21.5673 C   0  0  0  0  0  0  0  0  0  0  0  0
  -26.7717  -27.5736   19.7621 C   0  0  0  0  0  0  0  0  0  0  0  0
  -21.4606   -5.8323   22.5342 C   0  0  0  0  0  0  0  0  0  0  0  0
  -20.5562   -4.4880   24.8052 C   0  0  0  0  0  0  0  0  0  0  0  0
  -21.5350   -4.4409   22.5969 C   0  0  0  0  0  0  0  0  0  0  0  0
  -26.0468  -10.2060   22.0614 C   0  0  0  0  0  0  0  0  0  0  0  0
  -27.5223  -11.6073   22.8946 C   0  0  0  0  0  0  0  0  0  0  0  0
  -26.0491  -10.5435   24.6112 C   0  0  0  0  0  0  0  0  0  0  0  0
  -26.0218  -31.8451   23.0265 C   0  0  0  0  0  0  0  0  0  0  0  0
  -22.8576  -31.1321   23.0618 C   0  0  0  0  0  0  0  0  0  0  0  0
  -20.3414  -29.0674   22.0358 C   0  0  0  0  0  0  0  0  0  0  0  0
  -28.0532  -14.8585   17.9866 C   0  0  0  0  0  0  0  0  0  0  0  0
  -26.0638  -35.0309   27.0148 C   0  0  0  0  0  0  0  0  0  0  0  0
  -25.5302  -31.6160   20.5645 C   0  0  0  0  0  0  0  0  0  0  0  0
  -29.3270  -21.8627   18.3396 C   0  0  0  0  0  0  0  0  0  0  0  0
  -24.4009  -29.3708   22.1229 C   0  0  0  0  0  0  0  0  0  0  0  0
  -25.4513  -33.6652   26.7148 C   0  0  0  0  0  0  0  0  0  0  0  0
  -30.0257  -12.1268   18.5395 C   0  0  0  0  0  0  0  0  0  0  0  0
  -26.4990  -32.7292   26.1205 C   0  0  0  0  0  0  0  0  0  0  0  0
  -28.9615  -11.4107   19.3807 C   0  0  0  0  0  0  0  0  0  0  0  0
  -26.4048  -17.5637   17.1713 C   0  0  0  0  0  0  0  0  0  0  0  0
  -28.9622  -24.0602   19.6672 C   0  0  0  0  0  0  0  0  0  0  0  0
  -30.0494  -13.6370   18.7692 C   0  0  0  0  0  0  0  0  0  0  0  0
  -26.0708  -16.0712   17.1724 C   0  0  0  0  0  0  0  0  0  0  0  0
  -26.1141  -15.3086   19.5638 C   0  0  0  0  0  0  0  0  0  0  0  0
  -28.0311  -13.6172   20.2059 C   0  0  0  0  0  0  0  0  0  0  0  0
  -25.2674  -16.5186   19.9362 C   0  0  0  0  0  0  0  0  0  0  0  0
  -27.0363  -33.2751   24.7920 C   0  0  1  0  0  0  0  0  0  0  0  0
  -25.7121  -18.3845   18.2688 C   0  0  1  0  0  0  0  0  0  0  0  0
  -24.9591  -31.8174   21.9647 C   0  0  1  0  0  0  0  0  0  0  0  0
  -29.7444  -22.7425   19.5267 C   0  0  1  0  0  0  0  0  0  0  0  0
  -28.5772  -12.2324   20.6224 C   0  0  1  0  0  0  0  0  0  0  0  0
  -28.3981  -24.5949   18.3448 C   0  0  2  0  0  0  0  0  0  0  0  0
  -17.8664  -28.7172   22.2578 C   0  0  0  0  0  0  0  0  0  0  0  0
  -30.6429  -20.7569   20.7731 C   0  0  0  0  0  0  0  0  0  0  0  0
  -30.0991  -22.8738   22.0087 C   0  0  0  0  0  0  0  0  0  0  0  0
  -23.2718  -29.9996   25.8646 C   0  0  0  0  0  0  0  0  0  0  0  0
  -21.0633  -28.8404   25.6470 C   0  0  0  0  0  0  0  0  0  0  0  0
  -21.1747  -31.3315   25.5770 C   0  0  0  0  0  0  0  0  0  0  0  0
  -19.9145  -29.4114   19.1274 C   0  0  0  0  0  0  0  0  0  0  0  0
  -28.1154  -26.0959   18.4712 C   0  0  0  0  0  0  0  0  0  1  0  0
  -22.0234  -29.9969   23.6045 C   0  0  1  0  0  0  0  0  0  0  0  0
  -18.9758  -29.3618   21.4416 C   0  0  2  0  0  0  0  0  0  0  0  0
  -29.7140  -21.9646   20.8460 C   0  0  0  0  0  0  0  0  0  0  0  0
  -21.9039  -30.0376   25.1542 C   0  0  0  0  0  0  0  0  0  0  0  0
  -26.7193  -10.6550   20.9983 N   0  0  0  0  0  0  0  0  0  0  0  0
  -27.6094  -11.5054   21.5373 N   0  0  0  0  0  0  0  0  0  0  0  0
  -27.1459  -23.9277   18.0098 N   0  0  0  0  0  0  0  0  0  0  0  0
  -24.0057  -30.7720   22.3421 N   0  0  0  0  0  0  0  0  0  0  0  0
  -28.7058  -14.1554   19.0124 N   0  0  0  0  0  0  0  0  0  0  0  0
  -26.7549  -15.3435   18.2434 N   0  0  0  0  0  0  0  0  0  0  0  0
  -28.3426  -12.4176   23.5967 N   0  0  0  0  0  0  0  0  0  0  0  0
  -25.0295  -11.3626   25.1149 N   0  0  0  0  0  0  0  0  0  0  0  0
  -26.0872  -33.0349   23.7262 N   0  0  0  0  0  0  0  0  0  0  0  0
  -20.7448  -30.0590   22.9048 N   0  0  0  0  0  0  0  0  0  0  0  0
  -25.9804  -17.7939   19.6308 N   0  3  0  0  0  0  0  0  0  0  0  0
  -18.8952  -28.8433   20.0467 N   0  3  0  0  0  0  0  0  0  0  0  0
  -26.5439   -9.6563   25.3471 O   0  0  0  0  0  0  0  0  0  0  0  0
  -26.7292  -30.8594   23.1993 O   0  0  0  0  0  0  0  0  0  0  0  0
  -22.4997  -32.2953   23.2626 O   0  0  0  0  0  0  0  0  0  0  0  0
  -20.9841  -28.0568   21.7597 O   0  0  0  0  0  0  0  0  0  0  0  0
  -28.6008  -15.0406   16.8906 O   0  0  0  0  0  0  0  0  0  0  0  0
  -21.9099   -6.5012   21.4080 O   0  0  0  0  0  0  0  0  0  0  0  0
  -27.1652  -26.2832   19.5010 O   0  0  0  0  0  0  0  0  0  1  0  0
  -20.1233   -3.8428   25.8963 F   0  0  0  0  0  0  0  0  0  0  0  0
  -22.0409   -3.7445   21.5698 F   0  0  0  0  0  0  0  0  0  0  0  0
  1  2  1  0  0  0  0
  1  5  2  0  0  0  0
  2  6  2  0  0  0  0
  3 10  2  0  0  0  0
  3 18  1  0  0  0  0
  4 11  1  0  0  0  0
  4 18  2  0  0  0  0
  5 21  1  0  0  0  0
  6 23  1  0  0  0  0
  7  9  2  0  0  0  0
  7 20  1  0  0  0  0
  8 12  2  0  0  0  0
  8 22  1  0  0  0  0
  9 26  1  0  0  0  0
 10 27  1  0  0  0  0
 11 27  2  0  0  0  0
 12 28  1  0  0  0  0
 13 14  2  0  0  0  0
 13 29  1  0  0  0  0
 14 30  1  0  0  0  0
 15 20  2  0  0  0  0
 15 24  1  0  0  0  0
 16 25  1  0  0  0  0
 16 28  2  0  0  0  0
 17 30  2  0  0  0  0
 17 31  1  0  0  0  0
 18 32  1  0  0  0  0
 19 32  1  0  0  0  0
 19 33  2  0  0  0  0
 19 34  1  0  0  0  0
 20 55  1  0  0  0  0
 21 23  2  0  0  0  0
 21 39  1  0  0  0  0
 22 25  2  0  0  0  0
 22 40  1  0  0  0  0
 23 54  1  0  0  0  0
 24 26  2  0  0  0  0
 24 41  1  0  0  0  0
 25 42  1  0  0  0  0
 26 74  1  0  0  0  0
 27 89  1  0  0  0  0
 28 90  1  0  0  0  0
 29 31  2  0  0  0  0
 29 89  1  0  0  0  0
 30 91  1  0  0  0  0
 31 92  1  0  0  0  0
 32 72  2  0  0  0  0
 33 73  1  0  0  0  0
 33 78  1  0  0  0  0
 34 79  1  0  0  0  0
 34 84  2  0  0  0  0
 35 56  1  0  0  0  0
 35 80  1  0  0  0  0
 35 85  2  0  0  0  0
 36 68  1  0  0  0  0
 36 75  1  0  0  0  0
 36 86  2  0  0  0  0
 37 69  1  0  0  0  0
 37 81  1  0  0  0  0
 37 87  2  0  0  0  0
 38 76  1  0  0  0  0
 38 77  1  0  0  0  0
 38 88  2  0  0  0  0
 39 43  1  0  0  0  0
 40 56  1  0  0  0  0
 41 57  1  0  0  0  0
 42 75  1  0  0  0  0
 43 45  1  0  0  0  0
 44 46  1  0  0  0  0
 44 49  1  0  0  0  0
 45 54  1  0  0  0  0
 46 58  1  0  0  0  0
 47 50  1  0  0  0  0
 47 55  1  0  0  0  0
 48 57  1  0  0  0  0
 48 59  1  0  0  0  0
 49 76  1  0  0  0  0
 50 77  1  0  0  0  0
 51 53  1  0  0  0  0
 51 77  1  0  0  0  0
 52 58  1  0  0  0  0
 52 76  1  0  0  0  0
 53 82  1  0  0  0  0
 54 80  1  0  0  0  0
 55 82  1  0  0  0  0
 56 75  1  0  0  0  0
 57 70  1  0  0  0  0
 58 73  1  0  0  0  0
 59 67  1  0  0  0  0
 59 74  1  0  0  0  0
 60 69  1  0  0  0  0
 61 70  1  0  0  0  0
 62 70  1  0  0  0  0
 63 71  1  0  0  0  0
 64 71  1  0  0  0  0
 65 71  1  0  0  0  0
 66 83  1  0  0  0  0
 67 90  1  0  0  0  0
 68 71  1  0  0  0  0
 68 81  1  0  0  0  0
 69 83  1  0  0  0  0
 72 73  1  0  0  0  0
M  CHG  2  82   1  83   1
M  ISO  4  38 100  67 101  77 100  90 101
M  END
> <Batch ID>
0135

> <Smiles>
CNC(C)C(=O)NC(C(=O)N1Cc2cc([101O:1][101CH2:1]C3CC(C(C)C)Cc4cc(C5CC[100N:0]([100C:0](=O)N6CCCC(n7nc(-c8ccc(Oc9ccc(F)cc9F)cc8)c(C(N)=O)c7N)C6)CCN5)ccc4N3)ccc2CC1C(=O)NC1CCCc2ccccc21)C(C)(C)C

> <Shape>
0.308

> <Color>
0.093

> <Negative vol penalty>
0.000

$$$$

  -OEChem-04052321003D

 88 97  0     1  0  0  0  0  0999 V2000
  -12.6469  -27.0633   17.4423 C   0  0  0  0  0  0  0  0  0  0  0  0
  -13.3669  -25.8751   17.5140 C   0  0  0  0  0  0  0  0  0  0  0  0
  -26.3229  -19.4577   23.1037 C   0  0  0  0  0  0  0  0  0  0  0  0
  -23.0749   -9.8687   19.9446 C   0  0  0  0  0  0  0  0  0  0  0  0
  -23.8339   -9.8819   22.2382 C   0  0  0  0  0  0  0  0  0  0  0  0
  -13.2029  -28.2446   17.9314 C   0  0  0  0  0  0  0  0  0  0  0  0
  -14.6439  -25.8677   18.0740 C   0  0  0  0  0  0  0  0  0  0  0  0
  -19.0527  -21.6849   21.8664 C   0  0  0  0  0  0  0  0  0  0  0  0
  -24.9709  -19.7961   23.0386 C   0  0  0  0  0  0  0  0  0  0  0  0
  -22.3310   -8.7162   20.1973 C   0  0  0  0  0  0  0  0  0  0  0  0
  -23.0899   -8.7294   22.4910 C   0  0  0  0  0  0  0  0  0  0  0  0
  -20.3517  -21.1795   21.8334 C   0  0  0  0  0  0  0  0  0  0  0  0
  -19.8616   -7.9330   23.0944 C   0  0  0  0  0  0  0  0  0  0  0  0
  -19.1042   -7.8962   24.2651 C   0  0  0  0  0  0  0  0  0  0  0  0
  -28.3899  -18.7573   21.9903 C   0  0  0  0  0  0  0  0  0  0  0  0
  -24.9931  -19.4301   20.6526 C   0  0  0  0  0  0  0  0  0  0  0  0
  -27.0601  -18.7295   19.5391 C   0  0  0  0  0  0  0  0  0  0  0  0
  -21.1793  -23.2655   22.7183 C   0  0  0  0  0  0  0  0  0  0  0  0
  -20.3454   -5.9609   25.0073 C   0  0  0  0  0  0  0  0  0  0  0  0
  -27.0289  -19.1007   21.9434 C   0  0  0  0  0  0  0  0  0  0  0  0
  -26.3540  -19.0866   20.6995 C   0  0  0  0  0  0  0  0  0  0  0  0
  -23.8264  -10.4516   20.9650 C   0  0  0  0  0  0  0  0  0  0  0  0
  -24.1681  -12.9764   20.8382 C   0  0  0  0  0  0  0  0  0  0  0  0
  -14.4836  -28.2499   18.5065 C   0  0  0  0  0  0  0  0  0  0  0  0
  -18.8081  -22.9904   22.3161 C   0  0  0  0  0  0  0  0  0  0  0  0
  -15.2182  -27.0504   18.5701 C   0  0  0  0  0  0  0  0  0  0  0  0
  -19.8760  -23.7841   22.7584 C   0  0  0  0  0  0  0  0  0  0  0  0
  -24.3073  -19.7823   21.8154 C   0  0  0  0  0  0  0  0  0  0  0  0
  -29.0756  -18.4051   20.8276 C   0  0  0  0  0  0  0  0  0  0  0  0
  -28.4120  -18.3912   19.6043 C   0  0  0  0  0  0  0  0  0  0  0  0
  -22.3385   -8.1465   21.4706 C   0  0  0  0  0  0  0  0  0  0  0  0
  -21.4155  -21.9708   22.2567 C   0  0  0  0  0  0  0  0  0  0  0  0
  -20.8609   -6.9837   22.8801 C   0  0  0  0  0  0  0  0  0  0  0  0
  -19.3461   -6.9102   25.2216 C   0  0  0  0  0  0  0  0  0  0  0  0
  -21.1028   -5.9977   23.8366 C   0  0  0  0  0  0  0  0  0  0  0  0
  -24.5955  -11.6418   20.7043 C   0  0  0  0  0  0  0  0  0  0  0  0
  -25.2604  -13.7249   20.4734 C   0  0  0  0  0  0  0  0  0  0  0  0
  -22.8974  -13.4933   21.2552 C   0  0  0  0  0  0  0  0  0  0  0  0
  -17.5990  -25.6235   21.0090 C   0  0  0  0  0  0  0  0  0  0  0  0
  -17.8585  -26.7740   24.0308 C   0  0  0  0  0  0  0  0  0  0  0  0
  -19.3792  -26.5898   27.0804 C   0  0  0  0  0  0  0  0  0  0  0  0
  -30.7440  -14.7449   20.6612 C   0  0  0  0  0  0  0  0  0  0  0  0
  -15.0618  -29.5603   18.9787 C   0  0  0  0  0  0  0  0  0  0  0  0
  -17.3981  -23.5113   22.3707 C   0  0  0  0  0  0  0  0  0  0  0  0
  -19.6643  -25.1851   23.2693 C   0  0  0  0  0  0  0  0  0  0  0  0
  -16.2701  -29.3970   19.8972 C   0  0  0  0  0  0  0  0  0  0  0  0
  -29.6075  -12.3538   18.2805 C   0  0  0  0  0  0  0  0  0  0  0  0
  -17.2479  -28.3798   19.3175 C   0  0  0  0  0  0  0  0  0  0  0  0
  -28.1699  -12.0612   18.7136 C   0  0  0  0  0  0  0  0  0  0  0  0
  -30.5241  -12.5779   19.4811 C   0  0  0  0  0  0  0  0  0  0  0  0
  -28.6218  -13.3127   20.8649 C   0  0  0  0  0  0  0  0  0  0  0  0
  -16.5963  -26.9973   19.1929 C   0  0  1  0  0  0  0  0  0  0  0  0
  -17.3234  -25.0350   22.3637 C   0  0  1  0  0  0  0  0  0  0  0  0
  -27.6481  -13.1348   19.6874 C   0  0  2  0  0  0  0  0  0  0  0  0
  -19.4070  -27.6868   29.3372 C   0  0  0  0  0  0  0  0  0  0  0  0
  -19.4316  -29.1166   22.8699 C   0  0  0  0  0  0  0  0  0  0  0  0
  -20.2255  -29.6407   25.1858 C   0  0  0  0  0  0  0  0  0  0  0  0
  -17.7911  -29.7420   24.6510 C   0  0  0  0  0  0  0  0  0  0  0  0
  -18.5614  -24.0886   28.4348 C   0  0  0  0  0  0  0  0  0  0  0  0
  -30.7509  -18.6831   16.5815 C   0  0  0  0  0  0  0  0  0  0  0  0
  -29.3265  -20.4066   17.6774 C   0  0  0  0  0  0  0  0  0  0  0  0
  -30.5231  -18.0491   20.9209 C   0  0  0  0  0  0  0  0  0  0  0  0
  -29.1261  -18.0167   18.3472 C   0  0  0  0  0  0  0  0  0  0  0  0
  -22.8534  -20.1466   21.7462 C   0  0  0  0  0  0  0  0  0  1  0  0
  -30.8092  -16.8988   21.8923 C   0  0  0  0  0  0  0  0  0  0  0  0
  -18.9319  -27.4916   24.8130 C   0  0  1  0  0  0  0  0  0  0  0  0
  -18.8131  -26.5731   28.4889 C   0  0  2  0  0  0  0  0  0  0  0  0
  -19.0995  -28.9720   24.3686 C   0  0  0  0  0  0  0  0  0  0  0  0
  -25.8605  -11.5449   20.2868 N   0  0  0  0  0  0  0  0  0  0  0  0
  -26.2374  -12.8281   20.1552 N   0  0  0  0  0  0  0  0  0  0  0  0
  -18.2681  -25.6515   23.2973 N   0  0  0  0  0  0  0  0  0  0  0  0
  -29.9731  -13.6088   20.3641 N   0  0  0  0  0  0  0  0  0  0  0  0
  -25.4707  -15.0562   20.3968 N   0  0  0  0  0  0  0  0  0  0  0  0
  -21.8854  -12.5849   21.5946 N   0  0  0  0  0  0  0  0  0  0  0  0
  -16.5441  -26.3450   20.4837 N   0  0  0  0  0  0  0  0  0  0  0  0
  -18.5903  -27.3256   26.2216 N   0  0  0  0  0  0  0  0  0  0  0  0
  -30.1444  -15.6759   21.5005 N   0  0  0  0  0  0  0  0  0  0  0  0
  -19.1079  -25.2704   29.1501 N   0  3  0  0  0  0  0  0  0  0  0  0
  -30.0318  -19.0849   17.8438 N   0  3  0  0  0  0  0  0  0  0  0  0
  -22.6611  -14.7240   21.3091 O   0  0  0  0  0  0  0  0  0  0  0  0
  -18.6887  -25.4379   20.4800 O   0  0  0  0  0  0  0  0  0  0  0  0
  -16.6980  -27.1898   24.0747 O   0  0  0  0  0  0  0  0  0  0  0  0
  -20.4192  -26.0112   26.7736 O   0  0  0  0  0  0  0  0  0  0  0  0
  -31.8801  -14.9192   20.2076 O   0  0  0  0  0  0  0  0  0  0  0  0
  -21.6125   -7.0221   21.7177 O   0  0  0  0  0  0  0  0  0  0  0  0
  -22.6845  -21.4803   22.2249 O   0  0  0  0  0  0  0  0  0  1  0  0
  -18.6197   -6.8759   26.3464 F   0  0  0  0  0  0  0  0  0  0  0  0
  -22.0623   -5.0837   23.6368 F   0  0  0  0  0  0  0  0  0  0  0  0
  1  2  1  0  0  0  0
  1  6  2  0  0  0  0
  2  7  2  0  0  0  0
  3  9  2  0  0  0  0
  3 20  1  0  0  0  0
  4 10  2  0  0  0  0
  4 22  1  0  0  0  0
  5 11  1  0  0  0  0
  5 22  2  0  0  0  0
  6 24  1  0  0  0  0
  7 26  1  0  0  0  0
  8 12  2  0  0  0  0
  8 25  1  0  0  0  0
  9 28  1  0  0  0  0
 10 31  1  0  0  0  0
 11 31  2  0  0  0  0
 12 32  1  0  0  0  0
 13 14  2  0  0  0  0
 13 33  1  0  0  0  0
 14 34  1  0  0  0  0
 15 20  1  0  0  0  0
 15 29  2  0  0  0  0
 16 21  1  0  0  0  0
 16 28  2  0  0  0  0
 17 21  1  0  0  0  0
 17 30  2  0  0  0  0
 18 27  1  0  0  0  0
 18 32  2  0  0  0  0
 19 34  2  0  0  0  0
 19 35  1  0  0  0  0
 20 21  2  0  0  0  0
 22 36  1  0  0  0  0
 23 36  1  0  0  0  0
 23 37  2  0  0  0  0
 23 38  1  0  0  0  0
 24 26  2  0  0  0  0
 24 43  1  0  0  0  0
 25 27  2  0  0  0  0
 25 44  1  0  0  0  0
 26 52  1  0  0  0  0
 27 45  1  0  0  0  0
 28 64  1  0  0  0  0
 29 30  1  0  0  0  0
 29 62  1  0  0  0  0
 30 63  1  0  0  0  0
 31 85  1  0  0  0  0
 32 86  1  0  0  0  0
 33 35  2  0  0  0  0
 33 85  1  0  0  0  0
 34 87  1  0  0  0  0
 35 88  1  0  0  0  0
 36 69  2  0  0  0  0
 37 70  1  0  0  0  0
 37 73  1  0  0  0  0
 38 74  1  0  0  0  0
 38 80  2  0  0  0  0
 39 53  1  0  0  0  0
 39 75  1  0  0  0  0
 39 81  2  0  0  0  0
 40 66  1  0  0  0  0
 40 71  1  0  0  0  0
 40 82  2  0  0  0  0
 41 67  1  0  0  0  0
 41 76  1  0  0  0  0
 41 83  2  0  0  0  0
 42 72  1  0  0  0  0
 42 77  1  0  0  0  0
 42 84  2  0  0  0  0
 43 46  1  0  0  0  0
 44 53  1  0  0  0  0
 45 71  1  0  0  0  0
 46 48  1  0  0  0  0
 47 49  1  0  0  0  0
 47 50  1  0  0  0  0
 48 52  1  0  0  0  0
 49 54  1  0  0  0  0
 50 72  1  0  0  0  0
 51 54  1  0  0  0  0
 51 72  1  0  0  0  0
 52 75  1  0  0  0  0
 53 71  1  0  0  0  0
 54 70  1  0  0  0  0
 55 67  1  0  0  0  0
 56 68  1  0  0  0  0
 57 68  1  0  0  0  0
 58 68  1  0  0  0  0
 59 78  1  0  0  0  0
 60 79  1  0  0  0  0
 61 79  1  0  0  0  0
 62 65  1  0  0  0  0
 63 79  1  0  0  0  0
 64 86  1  0  0  0  0
 65 77  1  0  0  0  0
 66 68  1  0  0  0  0
 66 76  1  0  0  0  0
 67 78  1  0  0  0  0
 69 70  1  0  0  0  0
M  CHG  2  78   1  79   1
M  ISO  4  42 100  64 101  77 100  86 101
M  END
> <Batch ID>
0135

> <Smiles>
CNC(C)C(=O)NC(C(=O)N1Cc2cc([101O:1][101CH2:1]c3ccc4cc(CC[100NH:0][100C:0](=O)N5CCCC(n6nc(-c7ccc(Oc8ccc(F)cc8F)cc7)c(C(N)=O)c6N)C5)c(CN(C)C)cc4c3)ccc2CC1C(=O)NC1CCCc2ccccc21)C(C)(C)C

> <Shape>
0.240

> <Color>
0.187

> <Negative vol penalty>
0.000

$$$$

  -OEChem-04052321003D

 85 94  0     1  0  0  0  0  0999 V2000
  -30.0680  -31.9092   23.9552 C   0  0  0  0  0  0  0  0  0  0  0  0
  -30.5505  -30.6046   23.9337 C   0  0  0  0  0  0  0  0  0  0  0  0
  -31.4837  -19.4591   22.8725 C   0  0  0  0  0  0  0  0  0  0  0  0
  -23.0537   -9.8921   19.9479 C   0  0  0  0  0  0  0  0  0  0  0  0
  -23.7834   -9.9183   22.2509 C   0  0  0  0  0  0  0  0  0  0  0  0
  -28.9766  -32.2607   23.1619 C   0  0  0  0  0  0  0  0  0  0  0  0
  -29.9413  -29.6504   23.1196 C   0  0  0  0  0  0  0  0  0  0  0  0
  -32.3654  -18.4029   22.6436 C   0  0  0  0  0  0  0  0  0  0  0  0
  -31.4712  -23.8291   19.2352 C   0  0  0  0  0  0  0  0  0  0  0  0
  -30.1165  -19.2857   22.6566 C   0  0  0  0  0  0  0  0  0  0  0  0
  -22.3104   -8.7382   20.1965 C   0  0  0  0  0  0  0  0  0  0  0  0
  -23.0401   -8.7644   22.4995 C   0  0  0  0  0  0  0  0  0  0  0  0
  -31.0639  -22.5058   19.0716 C   0  0  0  0  0  0  0  0  0  0  0  0
  -23.3492   -5.4395   21.9703 C   0  0  0  0  0  0  0  0  0  0  0  0
  -23.9586   -4.4215   22.7037 C   0  0  0  0  0  0  0  0  0  0  0  0
  -29.2350  -23.2467   17.6840 C   0  0  0  0  0  0  0  0  0  0  0  0
  -22.2345   -4.6018   24.3866 C   0  0  0  0  0  0  0  0  0  0  0  0
  -23.7902  -10.4821   20.9750 C   0  0  0  0  0  0  0  0  0  0  0  0
  -24.1253  -13.0074   20.8410 C   0  0  0  0  0  0  0  0  0  0  0  0
  -28.3597  -31.3127   22.3304 C   0  0  0  0  0  0  0  0  0  0  0  0
  -30.7559  -24.8737   18.6324 C   0  0  0  0  0  0  0  0  0  0  0  0
  -28.8398  -29.9892   22.3154 C   0  0  0  0  0  0  0  0  0  0  0  0
  -31.8801  -17.1732   22.1987 C   0  0  0  0  0  0  0  0  0  0  0  0
  -29.6368  -24.5822   17.8394 C   0  0  0  0  0  0  0  0  0  0  0  0
  -29.6312  -18.0560   22.2118 C   0  0  0  0  0  0  0  0  0  0  0  0
  -30.5130  -16.9997   21.9828 C   0  0  0  0  0  0  0  0  0  0  0  0
  -22.3036   -8.1744   21.4723 C   0  0  0  0  0  0  0  0  0  0  0  0
  -29.9439  -22.2146   18.2983 C   0  0  0  0  0  0  0  0  0  0  0  0
  -22.1825   -6.0387   22.4451 C   0  0  0  0  0  0  0  0  0  0  0  0
  -23.4013   -4.0026   23.9118 C   0  0  0  0  0  0  0  0  0  0  0  0
  -21.6251   -5.6198   23.6531 C   0  0  0  0  0  0  0  0  0  0  0  0
  -24.5587  -11.6736   20.7187 C   0  0  0  0  0  0  0  0  0  0  0  0
  -25.2196  -13.7579   20.4866 C   0  0  0  0  0  0  0  0  0  0  0  0
  -22.8478  -13.5219   21.2395 C   0  0  0  0  0  0  0  0  0  0  0  0
  -29.1448  -27.3975   19.6995 C   0  0  0  0  0  0  0  0  0  0  0  0
  -28.9380  -28.1116   16.5421 C   0  0  0  0  0  0  0  0  0  0  0  0
  -28.9877  -27.0085   13.3129 C   0  0  0  0  0  0  0  0  0  0  0  0
  -30.6796  -14.8233   20.7251 C   0  0  0  0  0  0  0  0  0  0  0  0
  -27.1532  -31.7281   21.5263 C   0  0  0  0  0  0  0  0  0  0  0  0
  -31.2239  -26.2937   18.7967 C   0  0  0  0  0  0  0  0  0  0  0  0
  -28.8463  -25.6658   17.1543 C   0  0  0  0  0  0  0  0  0  0  0  0
  -26.7993  -30.7496   20.4094 C   0  0  0  0  0  0  0  0  0  0  0  0
  -29.6043  -12.3885   18.3602 C   0  0  0  0  0  0  0  0  0  0  0  0
  -32.6355  -14.7471   22.6653 C   0  0  0  0  0  0  0  0  0  0  0  0
  -33.7642  -15.6389   23.0787 C   0  0  0  0  0  0  0  0  0  0  0  0
  -26.8227  -29.3155   20.9287 C   0  0  0  0  0  0  0  0  0  0  0  0
  -28.1601  -12.0952   18.7730 C   0  0  0  0  0  0  0  0  0  0  0  0
  -30.5028  -12.6292   19.5720 C   0  0  0  0  0  0  0  0  0  0  0  0
  -28.5755  -13.3572   20.9228 C   0  0  0  0  0  0  0  0  0  0  0  0
  -32.8482  -16.0602   21.9615 C   0  0  0  0  0  0  0  0  0  0  0  0
  -28.2213  -28.9318   21.4269 C   0  0  1  0  0  0  0  0  0  0  0  0
  -30.1191  -27.3184   18.5583 C   0  0  1  0  0  0  0  0  0  0  0  0
  -27.6188  -13.1721   19.7337 C   0  0  2  0  0  0  0  0  0  0  0  0
  -28.7537  -27.8206   10.9500 C   0  0  0  0  0  0  0  0  0  0  0  0
  -25.9166  -28.3171   16.9145 C   0  0  0  0  0  0  0  0  0  0  0  0
  -25.6706  -28.1790   14.4268 C   0  0  0  0  0  0  0  0  0  0  0  0
  -26.9101  -30.0857   15.4518 C   0  0  0  0  0  0  0  0  0  0  0  0
  -31.7278  -26.1324   12.6176 C   0  0  0  0  0  0  0  0  0  0  0  0
  -28.1547  -17.9009   21.9884 C   0  0  0  0  0  0  0  0  0  0  0  0
  -27.7485  -17.9152   20.5182 C   0  0  0  0  0  0  0  0  0  0  0  0
  -27.7860  -19.3127   18.4484 C   0  0  0  0  0  0  0  0  0  0  0  0
  -28.1484  -20.6958   17.9446 C   0  0  0  0  0  0  0  0  0  1  0  0
  -27.9648  -27.7881   15.4343 C   0  0  1  0  0  0  0  0  0  0  0  0
  -29.7199  -27.5193   12.0851 C   0  0  2  0  0  0  0  0  0  0  0  0
  -26.6291  -28.5720   15.5712 C   0  0  0  0  0  0  0  0  0  0  0  0
  -25.8292  -11.5790   20.3177 N   0  0  0  0  0  0  0  0  0  0  0  0
  -26.2036  -12.8629   20.1849 N   0  0  0  0  0  0  0  0  0  0  0  0
  -29.3400  -27.0388   17.3504 N   0  0  0  0  0  0  0  0  0  0  0  0
  -29.9290  -13.6645   20.4344 N   0  0  0  0  0  0  0  0  0  0  0  0
  -25.4266  -15.0895   20.4066 N   0  0  0  0  0  0  0  0  0  0  0  0
  -21.8345  -12.6118   21.5702 N   0  0  0  0  0  0  0  0  0  0  0  0
  -30.0185  -15.7520   21.5282 N   0  0  0  0  0  0  0  0  0  0  0  0
  -29.0923  -28.6363   20.3095 N   0  0  0  0  0  0  0  0  0  0  0  0
  -28.6748  -28.0312   14.1832 N   0  0  0  0  0  0  0  0  0  0  0  0
  -30.7028  -26.5054   11.6090 N   0  3  0  0  0  0  0  0  0  0  0  0
  -28.0904  -19.2241   19.8988 N   0  3  0  0  0  0  0  0  0  0  0  0
  -22.6067  -14.7521   21.2848 O   0  0  0  0  0  0  0  0  0  0  0  0
  -28.4883  -26.4083   20.0031 O   0  0  0  0  0  0  0  0  0  0  0  0
  -29.3328  -29.2721   16.6804 O   0  0  0  0  0  0  0  0  0  0  0  0
  -28.7169  -25.8216   13.4812 O   0  0  0  0  0  0  0  0  0  0  0  0
  -31.8142  -14.9924   20.2710 O   0  0  0  0  0  0  0  0  0  0  0  0
  -21.5782   -7.0487   21.7154 O   0  0  0  0  0  0  0  0  0  0  0  0
  -29.5438  -20.9239   18.1375 O   0  0  0  0  0  0  0  0  0  1  0  0
  -23.9858   -3.0240   24.6153 F   0  0  0  0  0  0  0  0  0  0  0  0
  -20.5037   -6.1908   24.1137 F   0  0  0  0  0  0  0  0  0  0  0  0
  1  2  1  0  0  0  0
  1  6  2  0  0  0  0
  2  7  2  0  0  0  0
  3  8  1  0  0  0  0
  3 10  2  0  0  0  0
  4 11  2  0  0  0  0
  4 18  1  0  0  0  0
  5 12  1  0  0  0  0
  5 18  2  0  0  0  0
  6 20  1  0  0  0  0
  7 22  1  0  0  0  0
  8 23  2  0  0  0  0
  9 13  2  0  0  0  0
  9 21  1  0  0  0  0
 10 25  1  0  0  0  0
 11 27  1  0  0  0  0
 12 27  2  0  0  0  0
 13 28  1  0  0  0  0
 14 15  2  0  0  0  0
 14 29  1  0  0  0  0
 15 30  1  0  0  0  0
 16 24  1  0  0  0  0
 16 28  2  0  0  0  0
 17 30  2  0  0  0  0
 17 31  1  0  0  0  0
 18 32  1  0  0  0  0
 19 32  1  0  0  0  0
 19 33  2  0  0  0  0
 19 34  1  0  0  0  0
 20 22  2  0  0  0  0
 20 39  1  0  0  0  0
 21 24  2  0  0  0  0
 21 40  1  0  0  0  0
 22 51  1  0  0  0  0
 23 26  1  0  0  0  0
 23 50  1  0  0  0  0
 24 41  1  0  0  0  0
 25 26  2  0  0  0  0
 25 59  1  0  0  0  0
 26 72  1  0  0  0  0
 27 82  1  0  0  0  0
 28 83  1  0  0  0  0
 29 31  2  0  0  0  0
 29 82  1  0  0  0  0
 30 84  1  0  0  0  0
 31 85  1  0  0  0  0
 32 66  2  0  0  0  0
 33 67  1  0  0  0  0
 33 70  1  0  0  0  0
 34 71  1  0  0  0  0
 34 77  2  0  0  0  0
 35 52  1  0  0  0  0
 35 73  1  0  0  0  0
 35 78  2  0  0  0  0
 36 63  1  0  0  0  0
 36 68  1  0  0  0  0
 36 79  2  0  0  0  0
 37 64  1  0  0  0  0
 37 74  1  0  0  0  0
 37 80  2  0  0  0  0
 38 69  1  0  0  0  0
 38 72  1  0  0  0  0
 38 81  2  0  0  0  0
 39 42  1  0  0  0  0
 40 52  1  0  0  0  0
 41 68  1  0  0  0  0
 42 46  1  0  0  0  0
 43 47  1  0  0  0  0
 43 48  1  0  0  0  0
 44 45  1  0  0  0  0
 44 50  1  0  0  0  0
 45 50  1  0  0  0  0
 46 51  1  0  0  0  0
 47 53  1  0  0  0  0
 48 69  1  0  0  0  0
 49 53  1  0  0  0  0
 49 69  1  0  0  0  0
 51 73  1  0  0  0  0
 52 68  1  0  0  0  0
 53 67  1  0  0  0  0
 54 64  1  0  0  0  0
 55 65  1  0  0  0  0
 56 65  1  0  0  0  0
 57 65  1  0  0  0  0
 58 75  1  0  0  0  0
 59 60  1  0  0  0  0
 60 76  1  0  0  0  0
 61 62  1  0  0  0  0
 61 76  1  0  0  0  0
 62 83  1  0  0  0  0
 63 65  1  0  0  0  0
 63 74  1  0  0  0  0
 64 75  1  0  0  0  0
 66 67  1  0  0  0  0
M  CHG  2  75   1  76   1
M  ISO  4  38 100  62 101  72 100  83 101
M  END
> <Batch ID>
0135

> <Smiles>
CNC(C)C(=O)NC(C(=O)N1Cc2cc([101O:1][101CH2:1]CNCCc3cccc(C4CC4)c3[100NH:0][100C:0](=O)N3CCCC(n4nc(-c5ccc(Oc6ccc(F)cc6F)cc5)c(C(N)=O)c4N)C3)ccc2CC1C(=O)NC1CCCc2ccccc21)C(C)(C)C

> <Shape>
0.302

> <Color>
0.220

> <Negative vol penalty>
0.000

$$$$

  -OEChem-04052321003D

 82 90  0     1  0  0  0  0  0999 V2000
  -17.6918  -30.1183   23.2503 C   0  0  0  0  0  0  0  0  0  0  0  0
  -19.0623  -30.3518   23.1986 C   0  0  0  0  0  0  0  0  0  0  0  0
  -27.2840  -17.9029   19.8658 C   0  0  0  0  0  0  0  0  0  0  0  0
  -28.8969  -17.7211   21.6553 C   0  0  0  0  0  0  0  0  0  0  0  0
  -17.2027  -28.8176   23.1370 C   0  0  0  0  0  0  0  0  0  0  0  0
  -19.9446  -29.2845   23.0345 C   0  0  0  0  0  0  0  0  0  0  0  0
  -25.2349  -29.3220   19.9495 C   0  0  0  0  0  0  0  0  0  0  0  0
  -27.0850  -16.5229   19.9049 C   0  0  0  0  0  0  0  0  0  0  0  0
  -28.6979  -16.3410   21.6945 C   0  0  0  0  0  0  0  0  0  0  0  0
  -26.5600  -29.4565   20.3614 C   0  0  0  0  0  0  0  0  0  0  0  0
  -25.3904  -14.3036   21.8116 C   0  0  0  0  0  0  0  0  0  0  0  0
  -24.0766  -13.8367   21.7713 C   0  0  0  0  0  0  0  0  0  0  0  0
  -26.7937  -27.0556   20.3735 C   0  0  0  0  0  0  0  0  0  0  0  0
  -24.5694  -12.6256   19.7396 C   0  0  0  0  0  0  0  0  0  0  0  0
  -28.1900  -18.5020   20.7410 C   0  0  0  0  0  0  0  0  0  0  0  0
  -27.6982  -20.9085   21.4300 C   0  0  0  0  0  0  0  0  0  0  0  0
  -18.0789  -27.7349   22.9618 C   0  0  0  0  0  0  0  0  0  0  0  0
  -24.6750  -28.0509   19.7566 C   0  0  0  0  0  0  0  0  0  0  0  0
  -19.4668  -27.9680   22.9201 C   0  0  0  0  0  0  0  0  0  0  0  0
  -25.4620  -26.9077   19.9566 C   0  0  0  0  0  0  0  0  0  0  0  0
  -27.7919  -15.7419   20.8192 C   0  0  0  0  0  0  0  0  0  0  0  0
  -27.3388  -28.3232   20.5763 C   0  0  0  0  0  0  0  0  0  0  0  0
  -26.2937  -13.9316   20.8159 C   0  0  0  0  0  0  0  0  0  0  0  0
  -23.6662  -12.9977   20.7353 C   0  0  0  0  0  0  0  0  0  0  0  0
  -25.8832  -13.0926   19.7799 C   0  0  0  0  0  0  0  0  0  0  0  0
  -28.3964  -19.9274   20.7007 C   0  0  0  0  0  0  0  0  0  0  0  0
  -28.2667  -22.0962   21.0395 C   0  0  0  0  0  0  0  0  0  0  0  0
  -26.6312  -20.7594   22.3760 C   0  0  0  0  0  0  0  0  0  0  0  0
  -22.2739  -26.4345   21.0703 C   0  0  0  0  0  0  0  0  0  0  0  0
  -22.9575  -24.2866   18.7376 C   0  0  0  0  0  0  0  0  0  0  0  0
  -25.2505  -23.0108   16.5555 C   0  0  0  0  0  0  0  0  0  0  0  0
  -33.4037  -24.3202   19.5631 C   0  0  0  0  0  0  0  0  0  0  0  0
  -17.5060  -26.3415   22.8914 C   0  0  0  0  0  0  0  0  0  0  0  0
  -23.2520  -27.9233   19.2863 C   0  0  0  0  0  0  0  0  0  0  0  0
  -24.9144  -25.5208   19.7439 C   0  0  0  0  0  0  0  0  0  0  0  0
  -18.4860  -25.3069   22.3441 C   0  0  0  0  0  0  0  0  0  0  0  0
  -30.9110  -23.5748   17.1326 C   0  0  0  0  0  0  0  0  0  0  0  0
  -19.8504  -25.4598   23.0090 C   0  0  0  0  0  0  0  0  0  0  0  0
  -29.9436  -22.6495   17.8727 C   0  0  0  0  0  0  0  0  0  0  0  0
  -32.3592  -23.3265   17.5487 C   0  0  0  0  0  0  0  0  0  0  0  0
  -31.6381  -22.4635   19.7416 C   0  0  0  0  0  0  0  0  0  0  0  0
  -30.9680  -27.7636   24.4041 C   0  0  0  0  0  0  0  0  0  0  0  0
  -31.1515  -28.3740   22.0406 C   0  0  0  0  0  0  0  0  0  0  0  0
  -20.4543  -26.8391   22.7183 C   0  0  1  0  0  0  0  0  0  0  0  0
  -22.6324  -26.5691   19.6174 C   0  0  1  0  0  0  0  0  0  0  0  0
  -29.6439  -28.2997   23.8679 C   0  0  2  0  0  0  0  0  0  0  0  0
  -30.0796  -29.2131   22.7210 C   0  0  2  0  0  0  0  0  0  0  0  0
  -30.1602  -22.7149   19.3965 C   0  0  2  0  0  0  0  0  0  0  0  0
  -28.8266  -28.9994   24.9429 C   0  0  0  0  0  0  0  0  0  0  0  0
  -25.5279  -21.2346   14.8046 C   0  0  0  0  0  0  0  0  0  0  0  0
  -29.3607  -30.7411   20.8566 C   0  0  0  0  0  0  0  0  0  0  0  0
  -23.1705  -22.1686   20.9236 C   0  0  0  0  0  0  0  0  0  0  0  0
  -24.3515  -20.6928   19.2817 C   0  0  0  0  0  0  0  0  0  0  0  0
  -22.0024  -21.4101   18.8464 C   0  0  0  0  0  0  0  0  0  0  0  0
  -25.8203  -25.0115   14.4504 C   0  0  0  0  0  0  0  0  0  0  0  0
  -33.6841  -26.5586   21.9989 C   0  0  0  0  0  0  0  0  0  0  0  0
  -34.3483  -25.2256   21.6720 C   0  0  0  0  0  0  0  0  0  0  0  0
  -32.4558  -26.3898   22.8842 C   0  0  0  0  0  0  0  0  0  0  0  0
  -23.8748  -23.0936   18.6183 C   0  0  1  0  0  0  0  0  0  0  0  0
  -25.1600  -22.6851   15.0755 C   0  0  2  0  0  0  0  0  0  0  0  0
  -28.9557  -29.5944   21.7702 C   0  0  1  0  0  0  0  0  0  1  0  0
  -23.3598  -21.8672   19.4235 C   0  0  0  0  0  0  0  0  0  0  0  0
  -29.3366  -20.4469   19.9068 N   0  0  0  0  0  0  0  0  0  0  0  0
  -29.2330  -21.7672   20.1349 N   0  0  0  0  0  0  0  0  0  0  0  0
  -23.5158  -25.4481   19.2899 N   0  0  0  0  0  0  0  0  0  0  0  0
  -32.4969  -23.4041   19.0050 N   0  0  0  0  0  0  0  0  0  0  0  0
  -28.0292  -23.3794   21.3849 N   0  0  0  0  0  0  0  0  0  0  0  0
  -26.1672  -19.4681   22.6620 N   0  0  0  0  0  0  0  0  0  0  0  0
  -21.0025  -26.8788   21.3796 N   0  0  0  0  0  0  0  0  0  0  0  0
  -24.0375  -22.8450   17.1899 N   0  0  0  0  0  0  0  0  0  0  0  0
  -33.4676  -24.3336   20.9511 N   0  0  0  0  0  0  0  0  0  0  0  0
  -31.8922  -27.7386   23.1991 N   0  3  2  0  0  0  0  0  0  0  0  0
  -26.0831  -23.5575   14.2959 N   0  3  0  0  0  0  0  0  0  0  0  0
  -26.0936  -21.7434   22.9385 O   0  0  0  0  0  0  0  0  0  0  0  0
  -23.0898  -25.9611   21.8526 O   0  0  0  0  0  0  0  0  0  0  0  0
  -21.7907  -24.1936   18.3483 O   0  0  0  0  0  0  0  0  0  0  0  0
  -26.2937  -23.3723   17.0955 O   0  0  0  0  0  0  0  0  0  0  0  0
  -34.1005  -25.0743   18.8756 O   0  0  0  0  0  0  0  0  0  0  0  0
  -27.5978  -14.3953   20.8578 O   0  0  0  0  0  0  0  0  0  0  0  0
  -28.6323  -28.4517   20.9790 O   0  0  0  0  0  0  0  0  0  1  0  0
  -22.4049  -12.5481   20.6975 F   0  0  0  0  0  0  0  0  0  0  0  0
  -26.7468  -12.7308   18.8212 F   0  0  0  0  0  0  0  0  0  0  0  0
  1  2  1  0  0  0  0
  1  5  2  0  0  0  0
  2  6  2  0  0  0  0
  3  8  2  0  0  0  0
  3 15  1  0  0  0  0
  4  9  1  0  0  0  0
  4 15  2  0  0  0  0
  5 17  1  0  0  0  0
  6 19  1  0  0  0  0
  7 10  2  0  0  0  0
  7 18  1  0  0  0  0
  8 21  1  0  0  0  0
  9 21  2  0  0  0  0
 10 22  1  0  0  0  0
 11 12  2  0  0  0  0
 11 23  1  0  0  0  0
 12 24  1  0  0  0  0
 13 20  1  0  0  0  0
 13 22  2  0  0  0  0
 14 24  2  0  0  0  0
 14 25  1  0  0  0  0
 15 26  1  0  0  0  0
 16 26  1  0  0  0  0
 16 27  2  0  0  0  0
 16 28  1  0  0  0  0
 17 19  2  0  0  0  0
 17 33  1  0  0  0  0
 18 20  2  0  0  0  0
 18 34  1  0  0  0  0
 19 44  1  0  0  0  0
 20 35  1  0  0  0  0
 21 79  1  0  0  0  0
 22 80  1  0  0  0  0
 23 25  2  0  0  0  0
 23 79  1  0  0  0  0
 24 81  1  0  0  0  0
 25 82  1  0  0  0  0
 26 63  2  0  0  0  0
 27 64  1  0  0  0  0
 27 67  1  0  0  0  0
 28 68  1  0  0  0  0
 28 74  2  0  0  0  0
 29 45  1  0  0  0  0
 29 69  1  0  0  0  0
 29 75  2  0  0  0  0
 30 59  1  0  0  0  0
 30 65  1  0  0  0  0
 30 76  2  0  0  0  0
 31 60  1  0  0  0  0
 31 70  1  0  0  0  0
 31 77  2  0  0  0  0
 32 66  1  0  0  0  0
 32 71  1  0  0  0  0
 32 78  2  0  0  0  0
 33 36  1  0  0  0  0
 34 45  1  0  0  0  0
 35 65  1  0  0  0  0
 36 38  1  0  0  0  0
 37 39  1  0  0  0  0
 37 40  1  0  0  0  0
 38 44  1  0  0  0  0
 39 48  1  0  0  0  0
 40 66  1  0  0  0  0
 41 48  1  0  0  0  0
 41 66  1  0  0  0  0
 42 46  1  0  0  0  0
 42 72  1  0  0  0  0
 43 47  1  0  0  0  0
 43 72  1  0  0  0  0
 44 69  1  0  0  0  0
 45 65  1  0  0  0  0
 46 47  1  0  0  0  0
 46 49  1  0  0  0  0
 47 61  1  0  0  0  0
 48 64  1  0  0  0  0
 50 60  1  0  0  0  0
 51 61  1  0  0  0  0
 52 62  1  0  0  0  0
 53 62  1  0  0  0  0
 54 62  1  0  0  0  0
 55 73  1  0  0  0  0
 56 57  1  0  0  0  0
 56 58  1  0  0  0  0
 57 71  1  0  0  0  0
 58 72  1  0  0  0  0
 59 62  1  0  0  0  0
 59 70  1  0  0  0  0
 60 73  1  0  0  0  0
 61 80  1  0  0  0  0
 63 64  1  0  0  0  0
M  CHG  2  72   1  73   1
M  ISO  4  32 100  61 101  71 100  80 101
M  END
> <Batch ID>
0135

> <Smiles>
CNC(C)C(=O)NC(C(=O)N1Cc2cc([101O:1][101CH:1](C)C3CN(CCC[100NH:0][100C:0](=O)N4CCCC(n5nc(-c6ccc(Oc7ccc(F)cc7F)cc6)c(C(N)=O)c5N)C4)CC3C)ccc2CC1C(=O)NC1CCCc2ccccc21)C(C)(C)C

> <Shape>
0.223

> <Color>
0.062

> <Negative vol penalty>
0.000

$$$$

  -OEChem-04052321003D

 92102  0     1  0  0  0  0  0999 V2000
  -18.7141  -27.6136   26.0622 C   0  0  0  0  0  0  0  0  0  0  0  0
  -20.0001  -27.1162   25.8775 C   0  0  0  0  0  0  0  0  0  0  0  0
  -23.0979  -10.2272   22.0233 C   0  0  0  0  0  0  0  0  0  0  0  0
  -24.1994   -9.3655   20.0531 C   0  0  0  0  0  0  0  0  0  0  0  0
  -18.0452  -28.2244   25.0023 C   0  0  0  0  0  0  0  0  0  0  0  0
  -20.6177  -27.2285   24.6323 C   0  0  0  0  0  0  0  0  0  0  0  0
  -25.4286  -28.7706   24.9817 C   0  0  0  0  0  0  0  0  0  0  0  0
  -27.0748  -23.2739   22.8916 C   0  0  0  0  0  0  0  0  0  0  0  0
  -29.4844  -23.4457   22.8615 C   0  0  0  0  0  0  0  0  0  0  0  0
  -22.4847   -8.9902   22.2215 C   0  0  0  0  0  0  0  0  0  0  0  0
  -23.5861   -8.1284   20.2514 C   0  0  0  0  0  0  0  0  0  0  0  0
  -26.3763  -27.8198   25.3580 C   0  0  0  0  0  0  0  0  0  0  0  0
  -27.0007  -24.4454   23.6451 C   0  0  0  0  0  0  0  0  0  0  0  0
  -29.4104  -24.6171   23.6150 C   0  0  0  0  0  0  0  0  0  0  0  0
  -19.8589   -7.2807   20.9536 C   0  0  0  0  0  0  0  0  0  0  0  0
  -18.4997   -7.2748   21.2668 C   0  0  0  0  0  0  0  0  0  0  0  0
  -27.0173  -27.5533   23.0477 C   0  0  0  0  0  0  0  0  0  0  0  0
  -18.9856   -6.1601   23.3545 C   0  0  0  0  0  0  0  0  0  0  0  0
  -23.9553  -10.4149   20.9391 C   0  0  0  0  0  0  0  0  0  0  0  0
  -23.9544  -12.9319   20.5242 C   0  0  0  0  0  0  0  0  0  0  0  0
  -18.6586  -28.3528   23.7461 C   0  0  0  0  0  0  0  0  0  0  0  0
  -25.2603  -29.1126   23.6322 C   0  0  0  0  0  0  0  0  0  0  0  0
  -19.9559  -27.8404   23.5542 C   0  0  0  0  0  0  0  0  0  0  0  0
  -26.0686  -28.5107   22.6572 C   0  0  0  0  0  0  0  0  0  0  0  0
  -28.3167  -22.7740   22.4998 C   0  0  0  0  0  0  0  0  0  0  0  0
  -22.7288   -7.9408   21.3356 C   0  0  0  0  0  0  0  0  0  0  0  0
  -28.1685  -25.1170   24.0068 C   0  0  0  0  0  0  0  0  0  1  0  0
  -27.1688  -27.2089   24.3907 C   0  0  0  0  0  0  0  0  0  0  0  0
  -20.7815   -6.7262   21.8408 C   0  0  0  0  0  0  0  0  0  0  0  0
  -18.0631   -6.7145   22.4673 C   0  0  0  0  0  0  0  0  0  0  0  0
  -20.3449   -6.1660   23.0413 C   0  0  0  0  0  0  0  0  0  0  0  0
  -24.5886  -11.6926   20.7334 C   0  0  0  0  0  0  0  0  0  0  0  0
  -24.9870  -13.8269   20.3850 C   0  0  0  0  0  0  0  0  0  0  0  0
  -22.5569  -13.2461   20.4613 C   0  0  0  0  0  0  0  0  0  0  0  0
  -22.8688  -28.9101   21.5482 C   0  0  0  0  0  0  0  0  0  0  0  0
  -24.9116  -30.5516   19.6366 C   0  0  0  0  0  0  0  0  0  0  0  0
  -29.0275  -21.7610   20.3112 C   0  0  0  0  0  0  0  0  0  0  0  0
  -28.1323  -31.3952   18.8865 C   0  0  0  0  0  0  0  0  0  0  0  0
  -29.9223  -15.8559   22.0193 C   0  0  0  0  0  0  0  0  0  0  0  0
  -17.8778  -28.9785   22.6176 C   0  0  0  0  0  0  0  0  0  0  0  0
  -24.2521  -30.1596   23.2455 C   0  0  0  0  0  0  0  0  0  0  0  0
  -25.9413  -28.8575   21.1971 C   0  0  0  0  0  0  0  0  0  0  0  0
  -18.7462  -29.3925   21.4323 C   0  0  0  0  0  0  0  0  0  0  0  0
  -29.9543  -13.0598   19.8153 C   0  0  0  0  0  0  0  0  0  0  0  0
  -27.5874  -22.3539   15.5999 C   0  0  0  0  0  0  0  0  0  0  0  0
  -19.7155  -28.2737   21.0642 C   0  0  0  0  0  0  0  0  0  0  0  0
  -28.5110  -12.5538   19.8455 C   0  0  0  0  0  0  0  0  0  0  0  0
  -27.2851  -21.9728   17.0477 C   0  0  0  0  0  0  0  0  0  0  0  0
  -29.1209  -19.0754   21.7106 C   0  0  0  0  0  0  0  0  0  0  0  0
  -30.4007  -13.5740   21.1822 C   0  0  0  0  0  0  0  0  0  0  0  0
  -28.0731  -14.0858   21.8101 C   0  0  0  0  0  0  0  0  0  0  0  0
  -27.9121  -23.8333   15.4653 C   0  0  0  0  0  0  0  0  0  0  0  0
  -28.7341  -23.8862   17.8298 C   0  0  0  0  0  0  0  0  0  0  0  0
  -28.3548  -18.6501   23.9206 C   0  0  0  0  0  0  0  0  0  0  0  0
  -20.6687  -27.9654   22.2251 C   0  0  1  0  0  0  0  0  0  0  0  0
  -23.8111  -30.0554   21.7888 C   0  0  1  0  0  0  0  0  0  0  0  0
  -27.5593  -13.6087   20.4410 C   0  0  2  0  0  0  0  0  0  0  0  0
  -28.4155  -22.4033   17.9868 C   0  0  1  0  0  0  0  0  0  0  0  0
  -29.2820  -18.0904   22.8577 C   0  0  1  0  0  0  0  0  0  0  0  0
  -29.1384  -20.4215   22.4254 C   0  0  1  0  0  0  0  0  0  0  0  0
  -29.4898  -32.7221   17.2452 C   0  0  0  0  0  0  0  0  0  0  0  0
  -24.5040  -28.3718   17.5408 C   0  0  0  0  0  0  0  0  0  0  0  0
  -26.5468  -29.2169   16.3655 C   0  0  0  0  0  0  0  0  0  0  0  0
  -24.5579  -30.6995   16.6280 C   0  0  0  0  0  0  0  0  0  0  0  0
  -29.2091  -33.1459   21.0159 C   0  0  0  0  0  0  0  0  0  0  0  0
  -28.3962  -21.5219   21.6941 C   0  0  1  0  0  0  0  0  0  0  0  0
  -25.9866  -30.1733   18.6464 C   0  0  1  0  0  0  0  0  0  0  0  0
  -28.7793  -32.7360   18.5898 C   0  0  2  0  0  0  0  0  0  0  0  0
  -25.4001  -29.6072   17.3224 C   0  0  0  0  0  0  0  0  0  0  0  0
  -25.9209  -11.7878   20.7282 N   0  0  0  0  0  0  0  0  0  0  0  0
  -26.1323  -13.0976   20.5139 N   0  0  0  0  0  0  0  0  0  0  0  0
  -24.9369  -29.8826   20.8685 N   0  0  0  0  0  0  0  0  0  0  0  0
  -29.4565  -14.5723   21.6901 N   0  0  0  0  0  0  0  0  0  0  0  0
  -25.0179  -15.1586   20.1660 N   0  0  0  0  0  0  0  0  0  0  0  0
  -21.9153  -13.1921   19.2165 N   0  0  0  0  0  0  0  0  0  0  0  0
  -21.7119  -28.9656   22.3019 N   0  0  0  0  0  0  0  0  0  0  0  0
  -28.0788  -22.1000   19.3563 N   0  0  0  0  0  0  0  0  0  0  0  0
  -26.8174  -31.3599   18.4728 N   0  0  0  0  0  0  0  0  0  0  0  0
  -28.9608  -16.7430   22.4874 N   0  0  0  0  0  0  0  0  0  0  0  0
  -29.0288  -24.1781   16.3950 N   0  3  0  0  0  0  0  0  0  0  0  0
  -28.4754  -20.1402   23.7513 N   0  3  0  0  0  0  0  0  0  0  0  0
  -29.7761  -33.0748   19.6446 N   0  3  0  0  0  0  0  0  0  0  0  0
  -21.9004  -13.5811   21.4764 O   0  0  0  0  0  0  0  0  0  0  0  0
  -23.1683  -28.0412   20.7377 O   0  0  0  0  0  0  0  0  0  0  0  0
  -24.0844  -31.4141   19.3310 O   0  0  0  0  0  0  0  0  0  0  0  0
  -30.2367  -21.6820   20.1050 O   0  0  0  0  0  0  0  0  0  0  0  0
  -28.7342  -30.4702   19.4275 O   0  0  0  0  0  0  0  0  0  0  0  0
  -31.1064  -16.1885   21.8994 O   0  0  0  0  0  0  0  0  0  0  0  0
  -28.0941  -26.2800   24.7551 O   0  0  0  0  0  0  0  0  0  1  0  0
  -22.1307   -6.7335   21.5288 O   0  0  0  0  0  0  0  0  0  0  0  0
  -16.7579   -6.7103   22.7686 F   0  0  0  0  0  0  0  0  0  0  0  0
  -21.2266   -5.6329   23.8982 F   0  0  0  0  0  0  0  0  0  0  0  0
  1  2  1  0  0  0  0
  1  5  2  0  0  0  0
  2  6  2  0  0  0  0
  3 10  2  0  0  0  0
  3 19  1  0  0  0  0
  4 11  1  0  0  0  0
  4 19  2  0  0  0  0
  5 21  1  0  0  0  0
  6 23  1  0  0  0  0
  7 12  2  0  0  0  0
  7 22  1  0  0  0  0
  8 13  2  0  0  0  0
  8 25  1  0  0  0  0
  9 14  1  0  0  0  0
  9 25  2  0  0  0  0
 10 26  1  0  0  0  0
 11 26  2  0  0  0  0
 12 28  1  0  0  0  0
 13 27  1  0  0  0  0
 14 27  2  0  0  0  0
 15 16  2  0  0  0  0
 15 29  1  0  0  0  0
 16 30  1  0  0  0  0
 17 24  1  0  0  0  0
 17 28  2  0  0  0  0
 18 30  2  0  0  0  0
 18 31  1  0  0  0  0
 19 32  1  0  0  0  0
 20 32  1  0  0  0  0
 20 33  2  0  0  0  0
 20 34  1  0  0  0  0
 21 23  2  0  0  0  0
 21 40  1  0  0  0  0
 22 24  2  0  0  0  0
 22 41  1  0  0  0  0
 23 55  1  0  0  0  0
 24 42  1  0  0  0  0
 25 66  1  0  0  0  0
 26 90  1  0  0  0  0
 27 89  1  0  0  0  0
 28 89  1  0  0  0  0
 29 31  2  0  0  0  0
 29 90  1  0  0  0  0
 30 91  1  0  0  0  0
 31 92  1  0  0  0  0
 32 70  2  0  0  0  0
 33 71  1  0  0  0  0
 33 74  1  0  0  0  0
 34 75  1  0  0  0  0
 34 83  2  0  0  0  0
 35 56  1  0  0  0  0
 35 76  1  0  0  0  0
 35 84  2  0  0  0  0
 36 67  1  0  0  0  0
 36 72  1  0  0  0  0
 36 85  2  0  0  0  0
 37 66  1  0  0  0  0
 37 77  1  0  0  0  0
 37 86  2  0  0  0  0
 38 68  1  0  0  0  0
 38 78  1  0  0  0  0
 38 87  2  0  0  0  0
 39 73  1  0  0  0  0
 39 79  1  0  0  0  0
 39 88  2  0  0  0  0
 40 43  1  0  0  0  0
 41 56  1  0  0  0  0
 42 72  1  0  0  0  0
 43 46  1  0  0  0  0
 44 47  1  0  0  0  0
 44 50  1  0  0  0  0
 45 48  1  0  0  0  0
 45 52  1  0  0  0  0
 46 55  1  0  0  0  0
 47 57  1  0  0  0  0
 48 58  1  0  0  0  0
 49 59  1  0  0  0  0
 49 60  1  0  0  0  0
 50 73  1  0  0  0  0
 51 57  1  0  0  0  0
 51 73  1  0  0  0  0
 52 80  1  0  0  0  0
 53 58  1  0  0  0  0
 53 80  1  0  0  0  0
 54 59  1  0  0  0  0
 54 81  1  0  0  0  0
 55 76  1  0  0  0  0
 56 72  1  0  0  0  0
 57 71  1  0  0  0  0
 58 77  1  0  0  0  0
 59 79  1  0  0  0  0
 60 66  1  0  0  0  0
 60 81  1  0  0  0  0
 61 68  1  0  0  0  0
 62 69  1  0  0  0  0
 63 69  1  0  0  0  0
 64 69  1  0  0  0  0
 65 82  1  0  0  0  0
 67 69  1  0  0  0  0
 67 78  1  0  0  0  0
 68 82  1  0  0  0  0
 70 71  1  0  0  0  0
M  CHG  3  80   1  81   1  82   1
M  ISO  4  27 101  39 100  79 100  89 101
M  END
> <Batch ID>
0135

> <Smiles>
CNC(C)C(=O)NC(C(=O)N1Cc2cc([101O:1][101c:1]3ccc(C(C(=O)NC4CCCNC4)C4CC([100NH:0][100C:0](=O)N5CCCC(n6nc(-c7ccc(Oc8ccc(F)cc8F)cc7)c(C(N)=O)c6N)C5)CN4)cc3)ccc2CC1C(=O)NC1CCCc2ccccc21)C(C)(C)C

> <Shape>
0.262

> <Color>
0.129

> <Negative vol penalty>
0.000

$$$$

  -OEChem-04052321003D

 85 94  0     1  0  0  0  0  0999 V2000
  -22.7613  -25.9676   16.8139 C   0  0  0  0  0  0  0  0  0  0  0  0
  -23.2444  -25.2131   17.8782 C   0  0  0  0  0  0  0  0  0  0  0  0
  -22.9980   -9.8667   19.9549 C   0  0  0  0  0  0  0  0  0  0  0  0
  -23.6670   -9.8854   22.2763 C   0  0  0  0  0  0  0  0  0  0  0  0
  -23.6121  -26.3177   15.7663 C   0  0  0  0  0  0  0  0  0  0  0  0
  -24.5783  -24.8072   17.8949 C   0  0  0  0  0  0  0  0  0  0  0  0
  -26.7577  -25.4816   22.4160 C   0  0  0  0  0  0  0  0  0  0  0  0
  -22.2130   -8.7380   20.1901 C   0  0  0  0  0  0  0  0  0  0  0  0
  -22.8819   -8.7567   22.5116 C   0  0  0  0  0  0  0  0  0  0  0  0
  -26.4682  -24.5460   23.4083 C   0  0  0  0  0  0  0  0  0  0  0  0
  -23.1016   -5.4204   22.0098 C   0  0  0  0  0  0  0  0  0  0  0  0
  -23.6595   -4.3889   22.7650 C   0  0  0  0  0  0  0  0  0  0  0  0
  -28.5689  -23.4430   22.9728 C   0  0  0  0  0  0  0  0  0  0  0  0
  -21.8977   -4.6332   24.4001 C   0  0  0  0  0  0  0  0  0  0  0  0
  -26.1440  -18.2222   22.9617 C   0  0  0  0  0  0  0  0  0  0  0  0
  -27.3348  -19.3411   24.4929 C   0  0  0  0  0  0  0  0  0  0  0  0
  -23.7251  -10.4404   20.9980 C   0  0  0  0  0  0  0  0  0  0  0  0
  -24.1418  -12.9533   20.8586 C   0  0  0  0  0  0  0  0  0  0  0  0
  -24.9595  -25.9242   15.7748 C   0  0  0  0  0  0  0  0  0  0  0  0
  -27.9521  -25.3983   21.6859 C   0  0  0  0  0  0  0  0  0  0  0  0
  -25.4476  -25.1512   16.8457 C   0  0  0  0  0  0  0  0  0  0  0  0
  -28.8724  -24.3802   21.9736 C   0  0  0  0  0  0  0  0  0  0  0  0
  -25.2917  -19.1143   23.5741 C   0  0  0  0  0  0  0  0  0  0  0  0
  -26.0450  -19.8221   24.5429 C   0  0  0  0  0  0  0  0  0  0  0  0
  -22.1549   -8.1830   21.4685 C   0  0  0  0  0  0  0  0  0  0  0  0
  -27.3725  -23.5248   23.6849 C   0  0  0  0  0  0  0  0  0  0  0  0
  -21.9418   -6.0584   22.4498 C   0  0  0  0  0  0  0  0  0  0  0  0
  -23.0575   -3.9953   23.9601 C   0  0  0  0  0  0  0  0  0  0  0  0
  -21.3399   -5.6648   23.6449 C   0  0  0  0  0  0  0  0  0  0  0  0
  -24.5367  -11.6060   20.7554 C   0  0  0  0  0  0  0  0  0  0  0  0
  -25.2679  -13.6673   20.5292 C   0  0  0  0  0  0  0  0  0  0  0  0
  -22.8707  -13.5096   21.2200 C   0  0  0  0  0  0  0  0  0  0  0  0
  -28.6832  -24.9765   18.6214 C   0  0  0  0  0  0  0  0  0  0  0  0
  -31.7042  -25.5213   19.6698 C   0  0  0  0  0  0  0  0  0  0  0  0
  -33.9220  -25.4824   22.2633 C   0  0  0  0  0  0  0  0  0  0  0  0
  -30.6474  -14.6278   20.7539 C   0  0  0  0  0  0  0  0  0  0  0  0
  -25.8291  -26.2864   14.5970 C   0  0  0  0  0  0  0  0  0  0  0  0
  -28.2617  -26.4310   20.6371 C   0  0  0  0  0  0  0  0  0  0  0  0
  -30.1779  -24.2587   21.2323 C   0  0  0  0  0  0  0  0  0  0  0  0
  -27.3228  -26.1349   14.8732 C   0  0  0  0  0  0  0  0  0  0  0  0
  -29.6576  -12.1817   18.5191 C   0  0  0  0  0  0  0  0  0  0  0  0
  -27.6066  -24.8011   15.5567 C   0  0  0  0  0  0  0  0  0  0  0  0
  -28.2016  -11.9121   18.8988 C   0  0  0  0  0  0  0  0  0  0  0  0
  -29.0309  -17.8241   21.6817 C   0  0  0  0  0  0  0  0  0  0  0  0
  -28.4471  -16.0730   23.4119 C   0  0  0  0  0  0  0  0  0  0  0  0
  -30.5221  -12.3618   19.7620 C   0  0  0  0  0  0  0  0  0  0  0  0
  -30.2606  -17.0037   21.2998 C   0  0  0  0  0  0  0  0  0  0  0  0
  -29.6903  -15.2938   22.9928 C   0  0  0  0  0  0  0  0  0  0  0  0
  -28.5886  -13.1830   21.0667 C   0  0  0  0  0  0  0  0  0  0  0  0
  -26.8946  -24.7131   16.9119 C   0  0  1  0  0  0  0  0  0  0  0  0
  -29.2745  -25.9478   19.6035 C   0  0  1  0  0  0  0  0  0  0  0  0
  -27.6671  -13.0028   19.8439 C   0  0  2  0  0  0  0  0  0  0  0  0
  -28.6200  -17.5785   23.1439 C   0  0  0  0  0  0  0  0  0  0  0  0
  -23.8584  -19.2922   23.2676 C   0  0  0  0  0  0  0  0  0  0  0  0
  -36.3283  -25.9454   22.8047 C   0  0  0  0  0  0  0  0  0  0  0  0
  -32.5067  -22.8975   18.3351 C   0  0  0  0  0  0  0  0  0  0  0  0
  -34.6158  -22.9374   19.6835 C   0  0  0  0  0  0  0  0  0  0  0  0
  -34.1500  -24.7605   18.0458 C   0  0  0  0  0  0  0  0  0  0  0  0
  -33.1992  -27.5967   24.2040 C   0  0  0  0  0  0  0  0  0  0  0  0
  -25.7159  -22.3093   24.8824 C   0  0  0  0  0  0  0  0  0  1  0  0
  -25.5508  -20.8809   25.4451 C   0  0  2  0  0  0  0  0  0  0  0  0
  -32.8250  -24.6581   20.1966 C   0  0  1  0  0  0  0  0  0  0  0  0
  -34.9201  -26.5171   22.7508 C   0  0  2  0  0  0  0  0  0  0  0  0
  -33.4990  -23.8143   19.0781 C   0  0  0  0  0  0  0  0  0  0  0  0
  -25.8139  -11.4696   20.3890 N   0  0  0  0  0  0  0  0  0  0  0  0
  -27.3833  -18.3692   23.5279 N   0  0  0  0  0  0  0  0  0  0  0  0
  -26.2312  -12.7404   20.2590 N   0  0  0  0  0  0  0  0  0  0  0  0
  -30.4321  -25.2887   20.2116 N   0  0  0  0  0  0  0  0  0  0  0  0
  -29.9780  -13.4002   20.6368 N   0  0  0  0  0  0  0  0  0  0  0  0
  -30.0712  -15.5859   21.6042 N   0  0  0  0  0  0  0  0  0  0  0  0
  -25.5181  -14.9913   20.4472 N   0  0  0  0  0  0  0  0  0  0  0  0
  -21.8213  -12.6333   21.5286 N   0  0  0  0  0  0  0  0  0  0  0  0
  -27.6105  -25.4788   17.9097 N   0  0  0  0  0  0  0  0  0  0  0  0
  -33.7358  -25.5555   20.8991 N   0  0  0  0  0  0  0  0  0  0  0  0
  -26.2104  -20.8692   26.8055 N   0  3  0  0  0  0  0  0  0  0  0  0
  -34.5520  -26.9892   24.1156 N   0  3  0  0  0  0  0  0  0  0  0  0
  -22.6669  -14.7469   21.2518 O   0  0  0  0  0  0  0  0  0  0  0  0
  -29.1654  -23.8549   18.5160 O   0  0  0  0  0  0  0  0  0  0  0  0
  -31.9496  -26.3756   18.8144 O   0  0  0  0  0  0  0  0  0  0  0  0
  -33.3662  -24.6863   23.0169 O   0  0  0  0  0  0  0  0  0  0  0  0
  -31.6927  -14.8585   20.1335 O   0  0  0  0  0  0  0  0  0  0  0  0
  -21.3887   -7.0818   21.6985 O   0  0  0  0  0  0  0  0  0  0  0  0
  -27.0902  -22.6040   24.6589 O   0  0  0  0  0  0  0  0  0  1  0  0
  -23.5925   -3.0037   24.6844 F   0  0  0  0  0  0  0  0  0  0  0  0
  -20.2249   -6.2732   24.0722 F   0  0  0  0  0  0  0  0  0  0  0  0
  1  2  1  0  0  0  0
  1  5  2  0  0  0  0
  2  6  2  0  0  0  0
  3  8  2  0  0  0  0
  3 17  1  0  0  0  0
  4  9  1  0  0  0  0
  4 17  2  0  0  0  0
  5 19  1  0  0  0  0
  6 21  1  0  0  0  0
  7 10  2  0  0  0  0
  7 20  1  0  0  0  0
  8 25  1  0  0  0  0
  9 25  2  0  0  0  0
 10 26  1  0  0  0  0
 11 12  2  0  0  0  0
 11 27  1  0  0  0  0
 12 28  1  0  0  0  0
 13 22  1  0  0  0  0
 13 26  2  0  0  0  0
 14 28  2  0  0  0  0
 14 29  1  0  0  0  0
 15 23  2  0  0  0  0
 15 66  1  0  0  0  0
 16 24  2  0  0  0  0
 16 66  1  0  0  0  0
 17 30  1  0  0  0  0
 18 30  1  0  0  0  0
 18 31  2  0  0  0  0
 18 32  1  0  0  0  0
 19 21  2  0  0  0  0
 19 37  1  0  0  0  0
 20 22  2  0  0  0  0
 20 38  1  0  0  0  0
 21 50  1  0  0  0  0
 22 39  1  0  0  0  0
 23 24  1  0  0  0  0
 23 54  1  0  0  0  0
 24 61  1  0  0  0  0
 25 82  1  0  0  0  0
 26 83  1  0  0  0  0
 27 29  2  0  0  0  0
 27 82  1  0  0  0  0
 28 84  1  0  0  0  0
 29 85  1  0  0  0  0
 30 65  2  0  0  0  0
 31 67  1  0  0  0  0
 31 71  1  0  0  0  0
 32 72  1  0  0  0  0
 32 77  2  0  0  0  0
 33 51  1  0  0  0  0
 33 73  1  0  0  0  0
 33 78  2  0  0  0  0
 34 62  1  0  0  0  0
 34 68  1  0  0  0  0
 34 79  2  0  0  0  0
 35 63  1  0  0  0  0
 35 74  1  0  0  0  0
 35 80  2  0  0  0  0
 36 69  1  0  0  0  0
 36 70  1  0  0  0  0
 36 81  2  0  0  0  0
 37 40  1  0  0  0  0
 38 51  1  0  0  0  0
 39 68  1  0  0  0  0
 40 42  1  0  0  0  0
 41 43  1  0  0  0  0
 41 46  1  0  0  0  0
 42 50  1  0  0  0  0
 43 52  1  0  0  0  0
 44 47  1  0  0  0  0
 44 53  1  0  0  0  0
 45 48  1  0  0  0  0
 45 53  1  0  0  0  0
 46 69  1  0  0  0  0
 47 70  1  0  0  0  0
 48 70  1  0  0  0  0
 49 52  1  0  0  0  0
 49 69  1  0  0  0  0
 50 73  1  0  0  0  0
 51 68  1  0  0  0  0
 52 67  1  0  0  0  0
 53 66  1  0  0  0  0
 55 63  1  0  0  0  0
 56 64  1  0  0  0  0
 57 64  1  0  0  0  0
 58 64  1  0  0  0  0
 59 76  1  0  0  0  0
 60 61  1  0  0  0  0
 60 83  1  0  0  0  0
 61 75  1  0  0  0  0
 62 64  1  0  0  0  0
 62 74  1  0  0  0  0
 63 76  1  0  0  0  0
 65 67  1  0  0  0  0
M  CHG  2  75   1  76   1
M  ISO  4  36 100  60 101  70 100  83 101
M  END
> <Batch ID>
0135

> <Smiles>
CNC(C)C(=O)NC(C(=O)N1Cc2cc([101O:1][101CH2:1]C(N)c3cn(C4CC[100N:0]([100C:0](=O)N5CCCC(n6nc(-c7ccc(Oc8ccc(F)cc8F)cc7)c(C(N)=O)c6N)C5)CC4)cc3C)ccc2CC1C(=O)NC1CCCc2ccccc21)C(C)(C)C

> <Shape>
0.222

> <Color>
0.209

> <Negative vol penalty>
0.000

$$$$

  -OEChem-04052321003D

 88 97  0     1  0  0  0  0  0999 V2000
  -27.6465  -36.8789   22.5692 C   0  0  0  0  0  0  0  0  0  0  0  0
  -27.9743  -35.5274   22.6066 C   0  0  0  0  0  0  0  0  0  0  0  0
  -26.1160  -14.0142   20.9229 C   0  0  0  0  0  0  0  0  0  0  0  0
  -26.5039  -12.1065   19.4921 C   0  0  0  0  0  0  0  0  0  0  0  0
  -26.3495  -37.2891   22.8750 C   0  0  0  0  0  0  0  0  0  0  0  0
  -27.0055  -34.5854   22.9509 C   0  0  0  0  0  0  0  0  0  0  0  0
  -27.0480  -30.5484   19.8938 C   0  0  0  0  0  0  0  0  0  0  0  0
  -28.4612  -23.8703   21.5395 C   0  0  0  0  0  0  0  0  0  0  0  0
  -24.8355  -13.5402   21.2079 C   0  0  0  0  0  0  0  0  0  0  0  0
  -25.2234  -11.6324   19.7771 C   0  0  0  0  0  0  0  0  0  0  0  0
  -28.0418  -29.5952   20.1116 C   0  0  0  0  0  0  0  0  0  0  0  0
  -28.7905  -25.2087   21.7533 C   0  0  0  0  0  0  0  0  0  0  0  0
  -23.6796   -9.9930   22.2971 C   0  0  0  0  0  0  0  0  0  0  0  0
  -23.5434   -8.6369   22.5937 C   0  0  0  0  0  0  0  0  0  0  0  0
  -26.4539  -28.2190   21.2965 C   0  0  0  0  0  0  0  0  0  0  0  0
  -27.7003  -25.8078   19.6823 C   0  0  0  0  0  0  0  0  0  0  0  0
  -22.0540   -8.3744   20.7096 C   0  0  0  0  0  0  0  0  0  0  0  0
  -26.9502  -13.2974   20.0650 C   0  0  0  0  0  0  0  0  0  0  0  0
  -29.4604  -13.5027   20.4703 C   0  0  0  0  0  0  0  0  0  0  0  0
  -25.3619  -36.3508   23.2139 C   0  0  0  0  0  0  0  0  0  0  0  0
  -25.7501  -30.3487   20.3860 C   0  0  0  0  0  0  0  0  0  0  0  0
  -25.6945  -34.9836   23.2629 C   0  0  0  0  0  0  0  0  0  0  0  0
  -25.4447  -29.1700   21.0814 C   0  0  0  0  0  0  0  0  0  0  0  0
  -27.7515  -23.5005   20.3971 C   0  0  0  0  0  0  0  0  0  0  0  0
  -27.3710  -24.4693   19.4684 C   0  0  0  0  0  0  0  0  0  0  0  0
  -24.3892  -12.3492   20.6350 C   0  0  0  0  0  0  0  0  0  0  0  0
  -27.7456  -28.4316   20.8155 C   0  0  0  0  0  0  0  0  0  0  0  0
  -28.4100  -26.1775   20.8247 C   0  0  0  0  0  0  0  0  0  1  0  0
  -23.0030  -10.5399   21.2067 C   0  0  0  0  0  0  0  0  0  0  0  0
  -22.7306   -7.8276   21.8000 C   0  0  0  0  0  0  0  0  0  0  0  0
  -22.1902   -9.7306   20.4130 C   0  0  0  0  0  0  0  0  0  0  0  0
  -28.2728  -13.7868   19.7698 C   0  0  0  0  0  0  0  0  0  0  0  0
  -30.4317  -14.2034   19.7979 C   0  0  0  0  0  0  0  0  0  0  0  0
  -29.6671  -12.6789   21.6254 C   0  0  0  0  0  0  0  0  0  0  0  0
  -23.8781  -31.8684   22.4571 C   0  0  0  0  0  0  0  0  0  0  0  0
  -21.6765  -29.7056   21.4582 C   0  0  0  0  0  0  0  0  0  0  0  0
  -21.0347  -26.6548   20.0700 C   0  0  0  0  0  0  0  0  0  0  0  0
  -30.4753  -19.0275   16.4887 C   0  0  0  0  0  0  0  0  0  0  0  0
  -23.9859  -36.8463   23.5826 C   0  0  0  0  0  0  0  0  0  0  0  0
  -24.6826  -31.3743   20.1195 C   0  0  0  0  0  0  0  0  0  0  0  0
  -24.0619  -28.8986   21.6129 C   0  0  0  0  0  0  0  0  0  0  0  0
  -22.9217  -35.7519   23.5731 C   0  0  0  0  0  0  0  0  0  0  0  0
  -31.5172  -15.9018   15.4611 C   0  0  0  0  0  0  0  0  0  0  0  0
  -23.4265  -34.5101   24.3010 C   0  0  0  0  0  0  0  0  0  0  0  0
  -30.9289  -14.9615   16.5135 C   0  0  0  0  0  0  0  0  0  0  0  0
  -30.5192  -16.9901   15.0810 C   0  0  0  0  0  0  0  0  0  0  0  0
  -29.4355  -16.8628   17.2986 C   0  0  0  0  0  0  0  0  0  0  0  0
  -29.9878  -21.2471   17.4532 C   0  0  0  0  0  0  0  0  0  0  0  0
  -28.1528  -19.6214   17.2768 C   0  0  0  0  0  0  0  0  0  0  0  0
  -24.6649  -33.9294   23.6077 C   0  0  1  0  0  0  0  0  0  0  0  0
  -23.5250  -31.3031   21.1105 C   0  0  1  0  0  0  0  0  0  0  0  0
  -30.4102  -15.7492   17.7299 C   0  0  1  0  0  0  0  0  0  0  0  0
  -29.5036  -21.7102   18.8273 C   0  0  2  0  0  0  0  0  0  0  0  0
  -27.5701  -20.0452   18.6292 C   0  0  2  0  0  0  0  0  0  0  0  0
  -26.6111  -24.0974   18.2377 C   0  0  0  0  0  0  0  0  0  0  0  0
  -30.2520  -21.0167   19.9664 C   0  0  0  0  0  0  0  0  0  0  0  0
  -24.0906  -18.3946   18.2461 C   0  0  0  0  0  0  0  0  0  0  0  0
  -19.1376  -25.1486   19.4144 C   0  0  0  0  0  0  0  0  0  0  0  0
  -21.2421  -28.9806   24.3901 C   0  0  0  0  0  0  0  0  0  0  0  0
  -20.0961  -26.8882   23.6306 C   0  0  0  0  0  0  0  0  0  0  0  0
  -19.1492  -29.1159   23.0278 C   0  0  0  0  0  0  0  0  0  0  0  0
  -21.8433  -26.6827   17.2232 C   0  0  0  0  0  0  0  0  0  0  0  0
  -27.4089  -22.0548   20.1885 C   0  0  0  0  0  0  0  0  0  0  0  0
  -26.0465  -19.9336   18.5891 C   0  0  0  0  0  0  0  0  0  0  0  0
  -25.6063  -18.5116   18.2607 C   0  0  0  0  0  0  0  0  0  0  0  0
  -21.2644  -28.3203   21.8942 C   0  0  1  0  0  0  0  0  0  0  0  0
  -20.0977  -26.2337   18.9523 C   0  0  2  0  0  0  0  0  0  0  0  0
  -20.4646  -28.3320   23.2275 C   0  0  0  0  0  0  0  0  0  0  0  0
  -28.4693  -14.6044   18.7320 N   0  0  0  0  0  0  0  0  0  0  0  0
  -29.7917  -14.8401   18.7755 N   0  0  0  0  0  0  0  0  0  0  0  0
  -23.0541  -29.9344   21.3322 N   0  0  0  0  0  0  0  0  0  0  0  0
  -30.0493  -17.7094   16.2649 N   0  0  0  0  0  0  0  0  0  0  0  0
  -29.5934  -19.8692   17.1841 N   0  0  0  0  0  0  0  0  0  0  0  0
  -31.7622  -14.3309   19.9874 N   0  0  0  0  0  0  0  0  0  0  0  0
  -28.5604  -12.0309   22.1907 N   0  0  0  0  0  0  0  0  0  0  0  0
  -24.2815  -33.1896   22.4244 N   0  0  0  0  0  0  0  0  0  0  0  0
  -20.5421  -27.7363   20.7692 N   0  0  0  0  0  0  0  0  0  0  0  0
  -27.9932  -21.4856   18.9176 N   0  3  1  0  0  0  0  0  0  0  0  0
  -20.8756  -25.7107   17.7937 N   0  3  0  0  0  0  0  0  0  0  0  0
  -30.7971  -12.5352   22.1509 O   0  0  0  0  0  0  0  0  0  0  0  0
  -23.7896  -31.1589   23.4523 O   0  0  0  0  0  0  0  0  0  0  0  0
  -20.8079  -30.5514   21.2308 O   0  0  0  0  0  0  0  0  0  0  0  0
  -22.0956  -26.0793   20.3021 O   0  0  0  0  0  0  0  0  0  0  0  0
  -31.5794  -19.4273   16.0987 O   0  0  0  0  0  0  0  0  0  0  0  0
  -23.1398  -11.8863   20.9131 O   0  0  0  0  0  0  0  0  0  0  0  0
  -28.7311  -27.4835   21.0338 O   0  0  0  0  0  0  0  0  0  1  0  0
  -22.6011   -6.5250   22.0841 F   0  0  0  0  0  0  0  0  0  0  0  0
  -21.5385  -10.2500   19.3635 F   0  0  0  0  0  0  0  0  0  0  0  0
  1  2  1  0  0  0  0
  1  5  2  0  0  0  0
  2  6  2  0  0  0  0
  3  9  2  0  0  0  0
  3 18  1  0  0  0  0
  4 10  1  0  0  0  0
  4 18  2  0  0  0  0
  5 20  1  0  0  0  0
  6 22  1  0  0  0  0
  7 11  2  0  0  0  0
  7 21  1  0  0  0  0
  8 12  2  0  0  0  0
  8 24  1  0  0  0  0
  9 26  1  0  0  0  0
 10 26  2  0  0  0  0
 11 27  1  0  0  0  0
 12 28  1  0  0  0  0
 13 14  2  0  0  0  0
 13 29  1  0  0  0  0
 14 30  1  0  0  0  0
 15 23  1  0  0  0  0
 15 27  2  0  0  0  0
 16 25  1  0  0  0  0
 16 28  2  0  0  0  0
 17 30  2  0  0  0  0
 17 31  1  0  0  0  0
 18 32  1  0  0  0  0
 19 32  1  0  0  0  0
 19 33  2  0  0  0  0
 19 34  1  0  0  0  0
 20 22  2  0  0  0  0
 20 39  1  0  0  0  0
 21 23  2  0  0  0  0
 21 40  1  0  0  0  0
 22 50  1  0  0  0  0
 23 41  1  0  0  0  0
 24 25  2  0  0  0  0
 24 63  1  0  0  0  0
 25 55  1  0  0  0  0
 26 85  1  0  0  0  0
 27 86  1  0  0  0  0
 28 86  1  0  0  0  0
 29 31  2  0  0  0  0
 29 85  1  0  0  0  0
 30 87  1  0  0  0  0
 31 88  1  0  0  0  0
 32 69  2  0  0  0  0
 33 70  1  0  0  0  0
 33 74  1  0  0  0  0
 34 75  1  0  0  0  0
 34 80  2  0  0  0  0
 35 51  1  0  0  0  0
 35 76  1  0  0  0  0
 35 81  2  0  0  0  0
 36 66  1  0  0  0  0
 36 71  1  0  0  0  0
 36 82  2  0  0  0  0
 37 67  1  0  0  0  0
 37 77  1  0  0  0  0
 37 83  2  0  0  0  0
 38 72  1  0  0  0  0
 38 73  1  0  0  0  0
 38 84  2  0  0  0  0
 39 42  1  0  0  0  0
 40 51  1  0  0  0  0
 41 71  1  0  0  0  0
 42 44  1  0  0  0  0
 43 45  1  0  0  0  0
 43 46  1  0  0  0  0
 44 50  1  0  0  0  0
 45 52  1  0  0  0  0
 46 72  1  0  0  0  0
 47 52  1  0  0  0  0
 47 72  1  0  0  0  0
 48 53  1  0  0  0  0
 48 73  1  0  0  0  0
 49 54  1  0  0  0  0
 49 73  1  0  0  0  0
 50 76  1  0  0  0  0
 51 71  1  0  0  0  0
 52 70  1  0  0  0  0
 53 56  1  0  0  0  0
 53 78  1  0  0  0  0
 54 64  1  0  0  0  0
 54 78  1  0  0  0  0
 57 65  1  0  0  0  0
 58 67  1  0  0  0  0
 59 68  1  0  0  0  0
 60 68  1  0  0  0  0
 61 68  1  0  0  0  0
 62 79  1  0  0  0  0
 63 78  1  0  0  0  0
 64 65  1  0  0  0  0
 66 68  1  0  0  0  0
 66 77  1  0  0  0  0
 67 79  1  0  0  0  0
 69 70  1  0  0  0  0
M  CHG  2  78   1  79   1
M  ISO  4  28 101  38 100  73 100  86 101
M  END
> <Batch ID>
0135

> <Smiles>
CCCC1C[100N:0]([100C:0](=O)N2CCCC(n3nc(-c4ccc(Oc5ccc(F)cc5F)cc4)c(C(N)=O)c3N)C2)CC(C)N1Cc1cc[101c:1]([101O:1]c2ccc3c(c2)CN(C(=O)C(NC(=O)C(C)NC)C(C)(C)C)C(C(=O)NC2CCCc4ccccc42)C3)cc1C

> <Shape>
0.319

> <Color>
0.078

> <Negative vol penalty>
0.000

$$$$

  -OEChem-04052321003D

 86 95  0     1  0  0  0  0  0999 V2000
  -17.0953  -28.9606   24.5621 C   0  0  0  0  0  0  0  0  0  0  0  0
  -17.6620  -27.8960   23.8687 C   0  0  0  0  0  0  0  0  0  0  0  0
  -27.7105  -17.4248   19.4129 C   0  0  0  0  0  0  0  0  0  0  0  0
  -27.4078  -17.4370   21.8098 C   0  0  0  0  0  0  0  0  0  0  0  0
  -17.5184  -30.2637   24.3036 C   0  0  0  0  0  0  0  0  0  0  0  0
  -18.6514  -28.1340   22.9153 C   0  0  0  0  0  0  0  0  0  0  0  0
  -22.5433  -24.9181   23.3100 C   0  0  0  0  0  0  0  0  0  0  0  0
  -28.3379  -18.6684   19.4858 C   0  0  0  0  0  0  0  0  0  0  0  0
  -28.0353  -18.6806   21.8828 C   0  0  0  0  0  0  0  0  0  0  0  0
  -22.3643  -23.6355   22.7935 C   0  0  0  0  0  0  0  0  0  0  0  0
  -27.4204  -21.9059   19.8036 C   0  0  0  0  0  0  0  0  0  0  0  0
  -27.0478  -22.8746   18.8717 C   0  0  0  0  0  0  0  0  0  0  0  0
  -23.5728  -24.2739   20.8057 C   0  0  0  0  0  0  0  0  0  0  0  0
  -19.0338  -17.5685   22.3425 C   0  0  0  0  0  0  0  0  0  0  0  0
  -29.3235  -22.9755   18.0666 C   0  0  0  0  0  0  0  0  0  0  0  0
  -27.2453  -16.8091   20.5749 C   0  0  0  0  0  0  0  0  0  0  0  0
  -27.2059  -14.2584   20.5838 C   0  0  0  0  0  0  0  0  0  0  0  0
  -18.5203  -30.5170   23.3535 C   0  0  0  0  0  0  0  0  0  0  0  0
  -23.2301  -25.8930   22.5723 C   0  0  0  0  0  0  0  0  0  0  0  0
  -19.0873  -29.4419   22.6428 C   0  0  0  0  0  0  0  0  0  0  0  0
  -23.7613  -25.5673   21.3162 C   0  0  0  0  0  0  0  0  0  0  0  0
  -19.7211  -18.5182   21.5947 C   0  0  0  0  0  0  0  0  0  0  0  0
  -21.0550  -18.7873   21.8802 C   0  0  0  0  0  0  0  0  0  0  0  0
  -28.5004  -19.2963   20.7207 C   0  0  0  0  0  0  0  0  0  0  0  0
  -22.8766  -23.3141   21.5399 C   0  0  0  0  0  0  0  0  0  0  0  0
  -28.7446  -21.4720   19.8671 C   0  0  0  0  0  0  0  0  0  0  0  0
  -27.9993  -23.4093   18.0032 C   0  0  0  0  0  0  0  0  0  0  0  0
  -29.6961  -22.0068   18.9985 C   0  0  0  0  0  0  0  0  0  0  0  0
  -26.5966  -15.5247   20.5002 C   0  0  0  0  0  0  0  0  0  0  0  0
  -21.6512  -18.0852   22.9153 C   0  0  0  0  0  0  0  0  0  0  0  0
  -19.7205  -16.9208   23.3568 C   0  0  0  0  0  0  0  0  0  0  0  0
  -26.1672  -13.3686   20.4580 C   0  0  0  0  0  0  0  0  0  0  0  0
  -28.5873  -13.9170   20.7595 C   0  0  0  0  0  0  0  0  0  0  0  0
  -22.4699  -28.7233   21.3411 C   0  0  0  0  0  0  0  0  0  0  0  0
  -25.6352  -28.8323   20.6399 C   0  0  0  0  0  0  0  0  0  0  0  0
  -28.5340  -27.1280   20.0575 C   0  0  0  0  0  0  0  0  0  0  0  0
  -20.2991  -13.7661   21.5798 C   0  0  0  0  0  0  0  0  0  0  0  0
  -18.9114  -31.9466   23.0744 C   0  0  0  0  0  0  0  0  0  0  0  0
  -23.4378  -27.2641   23.1549 C   0  0  0  0  0  0  0  0  0  0  0  0
  -24.5239  -26.5720   20.4930 C   0  0  0  0  0  0  0  0  0  0  0  0
  -20.2300  -32.0806   22.3170 C   0  0  0  0  0  0  0  0  0  0  0  0
  -21.8338  -12.9270   18.4786 C   0  0  0  0  0  0  0  0  0  0  0  0
  -17.8290  -18.5693   19.8366 C   0  0  0  0  0  0  0  0  0  0  0  0
  -19.1184  -18.7055   19.0888 C   0  0  0  0  0  0  0  0  0  0  0  0
  -20.2703  -31.1114   21.1398 C   0  0  0  0  0  0  0  0  0  0  0  0
  -23.2835  -13.3834   18.6526 C   0  0  0  0  0  0  0  0  0  0  0  0
  -20.8567  -13.8762   19.1687 C   0  0  0  0  0  0  0  0  0  0  0  0
  -22.5925  -14.5882   20.7667 C   0  0  0  0  0  0  0  0  0  0  0  0
  -19.0093  -19.2330   20.4947 C   0  0  0  0  0  0  0  0  0  0  0  0
  -20.1806  -29.6575   21.6190 C   0  0  1  0  0  0  0  0  0  0  0  0
  -23.7077  -28.3287   22.0961 C   0  0  1  0  0  0  0  0  0  0  0  0
  -23.6189  -13.6321   20.1355 C   0  0  2  0  0  0  0  0  0  0  0  0
  -23.0816  -18.3309   23.2689 C   0  0  0  0  0  0  0  0  0  0  0  0
  -30.9477  -27.4885   19.4733 C   0  0  0  0  0  0  0  0  0  0  0  0
  -24.8471  -29.4065   17.7486 C   0  0  0  0  0  0  0  0  0  0  0  0
  -27.1831  -28.8166   17.0680 C   0  0  0  0  0  0  0  0  0  0  0  0
  -26.7803  -30.7517   18.5898 C   0  0  0  0  0  0  0  0  0  0  0  0
  -29.4514  -25.8650   22.5719 C   0  0  0  0  0  0  0  0  0  0  0  0
  -21.8283  -19.8127   21.0872 C   0  0  0  0  0  0  0  0  0  0  0  0
  -19.6577  -14.9408   24.8737 C   0  0  0  0  0  0  0  0  0  0  0  0
  -19.8947  -13.6993   24.0274 C   0  0  0  0  0  0  0  0  0  0  0  0
  -21.9856  -21.1295   21.8397 C   0  0  0  0  0  0  0  0  0  1  0  0
  -26.4866  -28.4001   19.4706 C   0  0  1  0  0  0  0  0  0  0  0  0
  -29.9396  -27.3168   20.5989 C   0  0  2  0  0  0  0  0  0  0  0  0
  -26.3083  -29.3251   18.2337 C   0  0  0  0  0  0  0  0  0  0  0  0
  -25.2734  -15.4502   20.3340 N   0  0  0  0  0  0  0  0  0  0  0  0
  -21.0160  -17.1556   23.6636 N   0  0  0  0  0  0  0  0  0  0  0  0
  -25.0427  -14.1265   20.3120 N   0  0  0  0  0  0  0  0  0  0  0  0
  -24.6952  -27.9008   21.1032 N   0  0  0  0  0  0  0  0  0  0  0  0
  -21.2299  -14.0684   20.5721 N   0  0  0  0  0  0  0  0  0  0  0  0
  -26.1152  -12.0196   20.4590 N   0  0  0  0  0  0  0  0  0  0  0  0
  -29.5229  -14.9544   20.8717 N   0  0  0  0  0  0  0  0  0  0  0  0
  -19.0075  -15.9545   24.1091 N   0  0  0  0  0  0  0  0  0  0  0  0
  -21.4569  -29.2176   22.1405 N   0  0  0  0  0  0  0  0  0  0  0  0
  -27.8559  -28.3253   19.9683 N   0  0  0  0  0  0  0  0  0  0  0  0
  -20.7357  -13.9707   22.8829 N   0  0  0  0  0  0  0  0  0  0  0  0
  -30.3430  -26.1370   21.4152 N   0  3  0  0  0  0  0  0  0  0  0  0
  -28.9824  -12.7270   20.7990 O   0  0  0  0  0  0  0  0  0  0  0  0
  -22.4370  -28.5905   20.1233 O   0  0  0  0  0  0  0  0  0  0  0  0
  -25.8029  -29.9523   21.1288 O   0  0  0  0  0  0  0  0  0  0  0  0
  -28.0839  -26.0288   19.7416 O   0  0  0  0  0  0  0  0  0  0  0  0
  -19.1650  -13.3401   21.3363 O   0  0  0  0  0  0  0  0  0  0  0  0
  -29.1128  -20.5097   20.7922 O   0  0  0  0  0  0  0  0  0  0  0  0
  -22.7028  -22.0631   21.0332 O   0  0  0  0  0  0  0  0  0  1  0  0
  -27.6410  -24.3384   17.1074 F   0  0  0  0  0  0  0  0  0  0  0  0
  -30.9695  -21.5931   19.0540 F   0  0  0  0  0  0  0  0  0  0  0  0
  1  2  1  0  0  0  0
  1  5  2  0  0  0  0
  2  6  2  0  0  0  0
  3  8  2  0  0  0  0
  3 16  1  0  0  0  0
  4  9  1  0  0  0  0
  4 16  2  0  0  0  0
  5 18  1  0  0  0  0
  6 20  1  0  0  0  0
  7 10  2  0  0  0  0
  7 19  1  0  0  0  0
  8 24  1  0  0  0  0
  9 24  2  0  0  0  0
 10 25  1  0  0  0  0
 11 12  2  0  0  0  0
 11 26  1  0  0  0  0
 12 27  1  0  0  0  0
 13 21  1  0  0  0  0
 13 25  2  0  0  0  0
 14 22  2  0  0  0  0
 14 31  1  0  0  0  0
 15 27  2  0  0  0  0
 15 28  1  0  0  0  0
 16 29  1  0  0  0  0
 17 29  1  0  0  0  0
 17 32  2  0  0  0  0
 17 33  1  0  0  0  0
 18 20  2  0  0  0  0
 18 38  1  0  0  0  0
 19 21  2  0  0  0  0
 19 39  1  0  0  0  0
 20 50  1  0  0  0  0
 21 40  1  0  0  0  0
 22 23  1  0  0  0  0
 22 49  1  0  0  0  0
 23 30  2  0  0  0  0
 23 59  1  0  0  0  0
 24 83  1  0  0  0  0
 25 84  1  0  0  0  0
 26 28  2  0  0  0  0
 26 83  1  0  0  0  0
 27 85  1  0  0  0  0
 28 86  1  0  0  0  0
 29 66  2  0  0  0  0
 30 53  1  0  0  0  0
 30 67  1  0  0  0  0
 31 67  2  0  0  0  0
 31 73  1  0  0  0  0
 32 68  1  0  0  0  0
 32 71  1  0  0  0  0
 33 72  1  0  0  0  0
 33 78  2  0  0  0  0
 34 51  1  0  0  0  0
 34 74  1  0  0  0  0
 34 79  2  0  0  0  0
 35 63  1  0  0  0  0
 35 69  1  0  0  0  0
 35 80  2  0  0  0  0
 36 64  1  0  0  0  0
 36 75  1  0  0  0  0
 36 81  2  0  0  0  0
 37 70  1  0  0  0  0
 37 76  1  0  0  0  0
 37 82  2  0  0  0  0
 38 41  1  0  0  0  0
 39 51  1  0  0  0  0
 40 69  1  0  0  0  0
 41 45  1  0  0  0  0
 42 46  1  0  0  0  0
 42 47  1  0  0  0  0
 43 44  1  0  0  0  0
 43 49  1  0  0  0  0
 44 49  1  0  0  0  0
 45 50  1  0  0  0  0
 46 52  1  0  0  0  0
 47 70  1  0  0  0  0
 48 52  1  0  0  0  0
 48 70  1  0  0  0  0
 50 74  1  0  0  0  0
 51 69  1  0  0  0  0
 52 68  1  0  0  0  0
 54 64  1  0  0  0  0
 55 65  1  0  0  0  0
 56 65  1  0  0  0  0
 57 65  1  0  0  0  0
 58 77  1  0  0  0  0
 59 62  1  0  0  0  0
 60 61  1  0  0  0  0
 60 73  1  0  0  0  0
 61 76  1  0  0  0  0
 62 84  1  0  0  0  0
 63 65  1  0  0  0  0
 63 75  1  0  0  0  0
 64 77  1  0  0  0  0
 66 68  1  0  0  0  0
M  CHG  1  77   1
M  ISO  4  37 100  62 101  76 100  84 101
M  END
> <Batch ID>
0135

> <Smiles>
CNC(C)C(=O)NC(C(=O)N1Cc2cc([101O:1][101CH2:1]Cc3c(C4CC4)cc(NCC[100NH:0][100C:0](=O)N4CCCC(n5nc(-c6ccc(Oc7ccc(F)cc7F)cc6)c(C(N)=O)c5N)C4)nc3C)ccc2CC1C(=O)NC1CCCc2ccccc21)C(C)(C)C

> <Shape>
0.226

> <Color>
0.089

> <Negative vol penalty>
0.000

$$$$

  -OEChem-04052321003D

 86 95  0     1  0  0  0  0  0999 V2000
  -27.6424  -37.0669   24.5189 C   0  0  0  0  0  0  0  0  0  0  0  0
  -28.2427  -36.0757   23.7492 C   0  0  0  0  0  0  0  0  0  0  0  0
  -27.9374  -14.4971   19.7274 C   0  0  0  0  0  0  0  0  0  0  0  0
  -21.4700   -5.9006   25.0306 C   0  0  0  0  0  0  0  0  0  0  0  0
  -22.1655   -5.4712   22.7571 C   0  0  0  0  0  0  0  0  0  0  0  0
  -26.5532  -36.7535   25.3309 C   0  0  0  0  0  0  0  0  0  0  0  0
  -27.7547  -34.7701   23.7917 C   0  0  0  0  0  0  0  0  0  0  0  0
  -26.9135  -28.9868   19.6491 C   0  0  0  0  0  0  0  0  0  0  0  0
  -20.8647   -4.6450   25.0826 C   0  0  0  0  0  0  0  0  0  0  0  0
  -21.5602   -4.2156   22.8091 C   0  0  0  0  0  0  0  0  0  0  0  0
  -27.1957  -27.6215   19.6352 C   0  0  0  0  0  0  0  0  0  0  0  0
  -22.2659   -1.1627   24.0751 C   0  0  0  0  0  0  0  0  0  0  0  0
  -22.9834   -0.0778   23.5715 C   0  0  0  0  0  0  0  0  0  0  0  0
  -27.6931  -15.8197   19.3748 C   0  0  0  0  0  0  0  0  0  0  0  0
  -26.8875  -13.6925   20.1561 C   0  0  0  0  0  0  0  0  0  0  0  0
  -25.2589  -27.2133   21.0140 C   0  0  0  0  0  0  0  0  0  0  0  0
  -21.2301    0.3342   21.9611 C   0  0  0  0  0  0  0  0  0  0  0  0
  -22.1203   -6.3138   23.8678 C   0  0  0  0  0  0  0  0  0  0  0  0
  -24.0720   -7.9305   24.1586 C   0  0  0  0  0  0  0  0  0  0  0  0
  -26.0455  -35.4455   25.3760 C   0  0  0  0  0  0  0  0  0  0  0  0
  -25.8061  -29.4775   20.3557 C   0  0  0  0  0  0  0  0  0  0  0  0
  -26.6585  -34.4386   24.6060 C   0  0  0  0  0  0  0  0  0  0  0  0
  -24.9632  -28.5849   21.0331 C   0  0  0  0  0  0  0  0  0  0  0  0
  -20.9099   -3.8025   23.9719 C   0  0  0  0  0  0  0  0  0  0  0  0
  -26.3700  -26.7348   20.3201 C   0  0  0  0  0  0  0  0  0  0  0  0
  -21.0304   -1.4992   23.5218 C   0  0  0  0  0  0  0  0  0  0  0  0
  -22.4655    0.6707   22.5145 C   0  0  0  0  0  0  0  0  0  0  0  0
  -20.5125   -0.7507   22.4648 C   0  0  0  0  0  0  0  0  0  0  0  0
  -22.7452   -7.6109   23.8133 C   0  0  0  0  0  0  0  0  0  0  0  0
  -26.3917  -16.2859   19.4678 C   0  0  0  0  0  0  0  0  0  0  0  0
  -25.6222  -14.2540   20.2143 C   0  0  0  0  0  0  0  0  0  0  0  0
  -24.1697   -9.2817   23.9325 C   0  0  0  0  0  0  0  0  0  0  0  0
  -25.1223   -7.0819   24.6407 C   0  0  0  0  0  0  0  0  0  0  0  0
  -25.4089  -31.4640   22.8051 C   0  0  0  0  0  0  0  0  0  0  0  0
  -22.2650  -31.0731   22.1086 C   0  0  0  0  0  0  0  0  0  0  0  0
  -19.8272  -29.1419   20.7034 C   0  0  0  0  0  0  0  0  0  0  0  0
  -23.2158  -13.7751   20.7856 C   0  0  0  0  0  0  0  0  0  0  0  0
  -24.8959  -35.1446   26.3048 C   0  0  0  0  0  0  0  0  0  0  0  0
  -25.5001  -30.9501   20.3387 C   0  0  0  0  0  0  0  0  0  0  0  0
  -23.7504  -29.0588   21.7900 C   0  0  0  0  0  0  0  0  0  0  0  0
  -24.2041  -33.8168   26.0075 C   0  0  0  0  0  0  0  0  0  0  0  0
  -20.5913  -12.7243   22.9500 C   0  0  0  0  0  0  0  0  0  0  0  0
  -25.2354  -32.7112   25.8046 C   0  0  0  0  0  0  0  0  0  0  0  0
  -21.0268  -11.3266   23.3960 C   0  0  0  0  0  0  0  0  0  0  0  0
  -27.1341  -23.4241   21.6154 C   0  0  0  0  0  0  0  0  0  0  0  0
  -20.9646  -12.9971   21.4940 C   0  0  0  0  0  0  0  0  0  0  0  0
  -22.8124  -11.3717   21.6081 C   0  0  0  0  0  0  0  0  0  0  0  0
  -24.8668  -24.0730   21.2206 C   0  0  0  0  0  0  0  0  0  0  0  0
  -26.1424  -33.0161   24.6063 C   0  0  1  0  0  0  0  0  0  0  0  0
  -24.6389  -31.3951   21.5167 C   0  0  1  0  0  0  0  0  0  0  0  0
  -22.5157  -11.0750   23.0871 C   0  0  2  0  0  0  0  0  0  0  0  0
  -26.2511  -24.6506   21.4511 C   0  0  2  0  0  0  0  0  0  1  0  0
  -26.5946  -22.4657   20.5617 C   0  0  1  0  0  0  0  0  0  0  0  0
  -17.3479  -29.0673   20.3231 C   0  0  0  0  0  0  0  0  0  0  0  0
  -21.8428  -30.2986   25.0295 C   0  0  0  0  0  0  0  0  0  0  0  0
  -19.6222  -29.3405   24.3820 C   0  0  0  0  0  0  0  0  0  0  0  0
  -20.0653  -31.7761   24.0746 C   0  0  0  0  0  0  0  0  0  0  0  0
  -20.1617  -29.1259   17.7628 C   0  0  0  0  0  0  0  0  0  0  0  0
  -26.0912  -17.7079   19.0952 C   0  0  0  0  0  0  0  0  0  0  0  0
  -26.8421  -21.0023   20.8677 C   0  0  0  0  0  0  0  0  0  0  0  0
  -26.3139  -20.1062   19.7565 C   0  0  0  0  0  0  0  0  0  0  0  0
  -21.1863  -30.1090   22.5397 C   0  0  1  0  0  0  0  0  0  0  0  0
  -18.6945  -29.4838   19.7523 C   0  0  2  0  0  0  0  0  0  0  0  0
  -20.7030  -30.3720   23.9939 C   0  0  0  0  0  0  0  0  0  0  0  0
  -22.0499   -8.6736   23.3994 N   0  0  0  0  0  0  0  0  0  0  0  0
  -25.3462  -15.5345   19.8799 N   0  0  0  0  0  0  0  0  0  0  0  0
  -22.9432   -9.6741   23.4832 N   0  0  0  0  0  0  0  0  0  0  0  0
  -23.4969  -30.5084   21.7488 N   0  0  0  0  0  0  0  0  0  0  0  0
  -22.3903  -12.7417   21.2770 N   0  0  0  0  0  0  0  0  0  0  0  0
  -25.1843  -10.1606   24.0761 N   0  0  0  0  0  0  0  0  0  0  0  0
  -24.8517   -5.7179   24.8163 N   0  0  0  0  0  0  0  0  0  0  0  0
  -24.5589  -13.4252   20.6506 N   0  0  0  0  0  0  0  0  0  0  0  0
  -25.4556  -32.7261   23.3659 N   0  0  0  0  0  0  0  0  0  0  0  0
  -20.1329  -30.1989   21.5344 N   0  0  0  0  0  0  0  0  0  0  0  0
  -25.1165  -22.7496   20.5445 N   0  3  0  0  0  0  0  0  0  0  0  0
  -18.8867  -28.7902   18.4473 N   0  3  0  0  0  0  0  0  0  0  0  0
  -26.5401  -18.6874   20.1226 N   0  3  0  0  0  0  0  0  0  0  0  0
  -26.2620   -7.5230   24.9234 O   0  0  0  0  0  0  0  0  0  0  0  0
  -25.9215  -30.4471   23.2579 O   0  0  0  0  0  0  0  0  0  0  0  0
  -22.0213  -32.2821   22.0849 O   0  0  0  0  0  0  0  0  0  0  0  0
  -20.3826  -28.0456   20.7110 O   0  0  0  0  0  0  0  0  0  0  0  0
  -22.7695  -14.8967   20.5311 O   0  0  0  0  0  0  0  0  0  0  0  0
  -20.3196   -2.5771   24.0224 O   0  0  0  0  0  0  0  0  0  0  0  0
  -26.6436  -25.4019   20.3088 O   0  0  0  0  0  0  0  0  0  1  0  0
  -23.1554    1.7116   22.0300 F   0  0  0  0  0  0  0  0  0  0  0  0
  -19.3267   -1.0698   21.9283 F   0  0  0  0  0  0  0  0  0  0  0  0
  1  2  1  0  0  0  0
  1  6  2  0  0  0  0
  2  7  2  0  0  0  0
  3 14  2  0  0  0  0
  3 15  1  0  0  0  0
  4  9  2  0  0  0  0
  4 18  1  0  0  0  0
  5 10  1  0  0  0  0
  5 18  2  0  0  0  0
  6 20  1  0  0  0  0
  7 22  1  0  0  0  0
  8 11  2  0  0  0  0
  8 21  1  0  0  0  0
  9 24  1  0  0  0  0
 10 24  2  0  0  0  0
 11 25  1  0  0  0  0
 12 13  2  0  0  0  0
 12 26  1  0  0  0  0
 13 27  1  0  0  0  0
 14 30  1  0  0  0  0
 15 31  2  0  0  0  0
 16 23  1  0  0  0  0
 16 25  2  0  0  0  0
 17 27  2  0  0  0  0
 17 28  1  0  0  0  0
 18 29  1  0  0  0  0
 19 29  1  0  0  0  0
 19 32  2  0  0  0  0
 19 33  1  0  0  0  0
 20 22  2  0  0  0  0
 20 38  1  0  0  0  0
 21 23  2  0  0  0  0
 21 39  1  0  0  0  0
 22 49  1  0  0  0  0
 23 40  1  0  0  0  0
 24 83  1  0  0  0  0
 25 84  1  0  0  0  0
 26 28  2  0  0  0  0
 26 83  1  0  0  0  0
 27 85  1  0  0  0  0
 28 86  1  0  0  0  0
 29 65  2  0  0  0  0
 30 59  1  0  0  0  0
 30 66  2  0  0  0  0
 31 66  1  0  0  0  0
 31 72  1  0  0  0  0
 32 67  1  0  0  0  0
 32 70  1  0  0  0  0
 33 71  1  0  0  0  0
 33 78  2  0  0  0  0
 34 50  1  0  0  0  0
 34 73  1  0  0  0  0
 34 79  2  0  0  0  0
 35 62  1  0  0  0  0
 35 68  1  0  0  0  0
 35 80  2  0  0  0  0
 36 63  1  0  0  0  0
 36 74  1  0  0  0  0
 36 81  2  0  0  0  0
 37 69  1  0  0  0  0
 37 72  1  0  0  0  0
 37 82  2  0  0  0  0
 38 41  1  0  0  0  0
 39 50  1  0  0  0  0
 40 68  1  0  0  0  0
 41 43  1  0  0  0  0
 42 44  1  0  0  0  0
 42 46  1  0  0  0  0
 43 49  1  0  0  0  0
 44 51  1  0  0  0  0
 45 52  1  0  0  0  0
 45 53  1  0  0  0  0
 46 69  1  0  0  0  0
 47 51  1  0  0  0  0
 47 69  1  0  0  0  0
 48 52  1  0  0  0  0
 48 75  1  0  0  0  0
 49 73  1  0  0  0  0
 50 68  1  0  0  0  0
 51 67  1  0  0  0  0
 52 84  1  0  0  0  0
 53 60  1  0  0  0  0
 53 75  1  0  0  0  0
 54 63  1  0  0  0  0
 55 64  1  0  0  0  0
 56 64  1  0  0  0  0
 57 64  1  0  0  0  0
 58 76  1  0  0  0  0
 59 77  1  0  0  0  0
 60 61  1  0  0  0  0
 61 77  1  0  0  0  0
 62 64  1  0  0  0  0
 62 74  1  0  0  0  0
 63 76  1  0  0  0  0
 65 67  1  0  0  0  0
M  CHG  3  75   1  76   1  77   1
M  ISO  4  37 100  52 101  72 100  84 101
M  END
> <Batch ID>
0135

> <Smiles>
CNC(C)C(=O)NC(C(=O)N1Cc2cc([101O:1][101CH:1]3CNC(CCNCc4cccc([100NH:0][100C:0](=O)N5CCCC(n6nc(-c7ccc(Oc8ccc(F)cc8F)cc7)c(C(N)=O)c6N)C5)n4)C3)ccc2CC1C(=O)NC1CCCc2ccccc21)C(C)(C)C

> <Shape>
0.254

> <Color>
0.080

> <Negative vol penalty>
0.000

$$$$

  -OEChem-04052321003D

 85 94  0     1  0  0  0  0  0999 V2000
  -26.3345  -18.8644   21.0627 C   0  0  0  0  0  0  0  0  0  0  0  0
  -36.1174  -24.9165   32.2541 C   0  0  0  0  0  0  0  0  0  0  0  0
  -35.6335  -24.7202   30.9647 C   0  0  0  0  0  0  0  0  0  0  0  0
  -27.1421  -19.1765   19.9691 C   0  0  0  0  0  0  0  0  0  0  0  0
  -26.8924  -18.2704   22.1948 C   0  0  0  0  0  0  0  0  0  0  0  0
  -22.6670  -10.1985   20.1655 C   0  0  0  0  0  0  0  0  0  0  0  0
  -24.3243   -9.4110   21.7372 C   0  0  0  0  0  0  0  0  0  0  0  0
  -37.4358  -25.3264   32.4478 C   0  0  0  0  0  0  0  0  0  0  0  0
  -36.4675  -24.9348   29.8680 C   0  0  0  0  0  0  0  0  0  0  0  0
  -36.1132  -21.2541   26.4079 C   0  0  0  0  0  0  0  0  0  0  0  0
  -28.5076  -18.8944   20.0075 C   0  0  0  0  0  0  0  0  0  0  0  0
  -28.2579  -17.9883   22.2332 C   0  0  0  0  0  0  0  0  0  0  0  0
  -21.9327   -9.0275   20.3530 C   0  0  0  0  0  0  0  0  0  0  0  0
  -23.5900   -8.2400   21.9248 C   0  0  0  0  0  0  0  0  0  0  0  0
  -35.0056  -21.2804   25.5616 C   0  0  0  0  0  0  0  0  0  0  0  0
  -20.8479   -7.2701   23.6453 C   0  0  0  0  0  0  0  0  0  0  0  0
  -20.6672   -6.8229   24.9541 C   0  0  0  0  0  0  0  0  0  0  0  0
  -36.3604  -22.2716   23.8292 C   0  0  0  0  0  0  0  0  0  0  0  0
  -21.7883   -4.7551   24.4022 C   0  0  0  0  0  0  0  0  0  0  0  0
  -23.8628  -10.3903   20.8575 C   0  0  0  0  0  0  0  0  0  0  0  0
  -24.1973  -12.9187   20.9106 C   0  0  0  0  0  0  0  0  0  0  0  0
  -38.2893  -25.5368   31.3533 C   0  0  0  0  0  0  0  0  0  0  0  0
  -37.3522  -21.7473   25.9743 C   0  0  0  0  0  0  0  0  0  0  0  0
  -37.7983  -25.3493   30.0471 C   0  0  0  0  0  0  0  0  0  0  0  0
  -37.4828  -22.2481   24.6711 C   0  0  0  0  0  0  0  0  0  0  0  0
  -29.0655  -18.3003   21.1396 C   0  0  0  0  0  0  0  0  0  0  0  0
  -22.3942   -8.0483   21.2327 C   0  0  0  0  0  0  0  0  0  0  0  0
  -35.1284  -21.7918   24.2730 C   0  0  0  0  0  0  0  0  0  0  0  0
  -21.4986   -6.4598   22.7149 C   0  0  0  0  0  0  0  0  0  0  0  0
  -21.1375   -5.5654   25.3325 C   0  0  0  0  0  0  0  0  0  0  0  0
  -21.9688   -5.2023   23.0933 C   0  0  0  0  0  0  0  0  0  0  0  0
  -24.6221  -11.5994   20.6638 C   0  0  0  0  0  0  0  0  0  0  0  0
  -25.2769  -13.6965   20.5699 C   0  0  0  0  0  0  0  0  0  0  0  0
  -22.9393  -13.3982   21.4038 C   0  0  0  0  0  0  0  0  0  0  0  0
  -39.2797  -24.0985   26.9016 C   0  0  0  0  0  0  0  0  0  0  0  0
  -41.2635  -22.8266   24.6726 C   0  0  0  0  0  0  0  0  0  0  0  0
  -41.6170  -20.9752   21.8275 C   0  0  0  0  0  0  0  0  0  0  0  0
  -30.7624  -14.7190   20.6668 C   0  0  0  0  0  0  0  0  0  0  0  0
  -39.6928  -26.0253   31.6106 C   0  0  0  0  0  0  0  0  0  0  0  0
  -38.5437  -21.6873   26.8902 C   0  0  0  0  0  0  0  0  0  0  0  0
  -38.7958  -22.7709   24.1504 C   0  0  0  0  0  0  0  0  0  0  0  0
  -40.6220  -25.8690   30.4095 C   0  0  0  0  0  0  0  0  0  0  0  0
  -29.5565  -12.5094   18.1488 C   0  0  0  0  0  0  0  0  0  0  0  0
  -39.9400  -26.3660   29.1388 C   0  0  0  0  0  0  0  0  0  0  0  0
  -28.1333  -12.1799   18.6023 C   0  0  0  0  0  0  0  0  0  0  0  0
  -31.9880  -20.5741   23.6061 C   0  0  0  0  0  0  0  0  0  0  0  0
  -33.5266  -20.3456   21.6278 C   0  0  0  0  0  0  0  0  0  0  0  0
  -30.5092  -12.6460   19.3344 C   0  0  0  0  0  0  0  0  0  0  0  0
  -28.6492  -13.2680   20.8269 C   0  0  0  0  0  0  0  0  0  0  0  0
  -31.2513  -19.3157   23.1750 C   0  0  0  0  0  0  0  0  0  0  0  0
  -32.7871  -19.0874   21.2010 C   0  0  0  0  0  0  0  0  0  0  0  0
  -38.6796  -25.5478   28.8331 C   0  0  1  0  0  0  0  0  0  0  0  0
  -39.6331  -22.6889   26.5199 C   0  0  1  0  0  0  0  0  0  0  0  0
  -27.6402  -13.1756   19.6695 C   0  0  2  0  0  0  0  0  0  0  0  0
  -33.4394  -20.5715   23.1338 C   0  0  0  0  0  0  0  0  0  1  0  0
  -43.3576  -20.1404   20.2241 C   0  0  0  0  0  0  0  0  0  0  0  0
  -41.4605  -25.6110   23.4404 C   0  0  0  0  0  0  0  0  0  0  0  0
  -42.3932  -24.5534   21.3716 C   0  0  0  0  0  0  0  0  0  0  0  0
  -43.6218  -24.3562   23.5337 C   0  0  0  0  0  0  0  0  0  0  0  0
  -40.9636  -18.1480   22.4094 C   0  0  0  0  0  0  0  0  0  0  0  0
  -30.8625  -16.7746   22.0538 C   0  0  0  0  0  0  0  0  0  0  0  0
  -30.5461  -17.9939   21.1818 C   0  0  2  0  0  0  0  0  0  0  0  0
  -41.4893  -23.0409   23.1954 C   0  0  1  0  0  0  0  0  0  0  0  0
  -42.5547  -19.8335   21.4787 C   0  0  2  0  0  0  0  0  0  0  0  0
  -42.2159  -24.3824   22.8954 C   0  0  0  0  0  0  0  0  0  0  0  0
  -25.8739  -11.5387   20.2018 N   0  0  0  0  0  0  0  0  0  0  0  0
  -26.2449  -12.8296   20.1556 N   0  0  0  0  0  0  0  0  0  0  0  0
  -39.9301  -22.6966   25.0860 N   0  0  0  0  0  0  0  0  0  0  0  0
  -29.9842  -13.6057   20.3087 N   0  0  0  0  0  0  0  0  0  0  0  0
  -25.4831  -15.0305   20.5873 N   0  0  0  0  0  0  0  0  0  0  0  0
  -22.7752  -13.5416   22.7883 N   0  0  0  0  0  0  0  0  0  0  0  0
  -39.0345  -24.2714   28.2505 N   0  0  0  0  0  0  0  0  0  0  0  0
  -42.1954  -21.8583   22.7146 N   0  0  0  0  0  0  0  0  0  0  0  0
  -30.1876  -15.5822   21.5916 N   0  0  0  0  0  0  0  0  0  0  0  0
  -31.3550  -19.1616   21.6759 N   0  3  0  0  0  0  0  0  0  0  0  0
  -41.7816  -18.5806   21.2472 N   0  3  0  0  0  0  0  0  0  0  0  0
  -21.9833  -13.6753   20.6403 O   0  0  0  0  0  0  0  0  0  0  0  0
  -39.2342  -24.9654   26.0367 O   0  0  0  0  0  0  0  0  0  0  0  0
  -42.2349  -22.7692   25.4307 O   0  0  0  0  0  0  0  0  0  0  0  0
  -40.4861  -21.0758   21.3571 O   0  0  0  0  0  0  0  0  0  0  0  0
  -31.8838  -14.9309   20.1932 O   0  0  0  0  0  0  0  0  0  0  0  0
  -21.6778   -6.9056   21.4161 O   0  0  0  0  0  0  0  0  0  0  0  0
  -34.0487  -21.8192   23.4450 O   0  0  0  0  0  0  0  0  0  1  0  0
  -20.9653   -5.1367   26.5898 F   0  0  0  0  0  0  0  0  0  0  0  0
  -22.5958   -4.4199   22.2043 F   0  0  0  0  0  0  0  0  0  0  0  0
  1  4  1  0  0  0  0
  1  5  2  0  0  0  0
  2  3  1  0  0  0  0
  2  8  2  0  0  0  0
  3  9  2  0  0  0  0
  4 11  2  0  0  0  0
  5 12  1  0  0  0  0
  6 13  2  0  0  0  0
  6 20  1  0  0  0  0
  7 14  1  0  0  0  0
  7 20  2  0  0  0  0
  8 22  1  0  0  0  0
  9 24  1  0  0  0  0
 10 15  2  0  0  0  0
 10 23  1  0  0  0  0
 11 26  1  0  0  0  0
 12 26  2  0  0  0  0
 13 27  1  0  0  0  0
 14 27  2  0  0  0  0
 15 28  1  0  0  0  0
 16 17  2  0  0  0  0
 16 29  1  0  0  0  0
 17 30  1  0  0  0  0
 18 25  1  0  0  0  0
 18 28  2  0  0  0  0
 19 30  2  0  0  0  0
 19 31  1  0  0  0  0
 20 32  1  0  0  0  0
 21 32  1  0  0  0  0
 21 33  2  0  0  0  0
 21 34  1  0  0  0  0
 22 24  2  0  0  0  0
 22 39  1  0  0  0  0
 23 25  2  0  0  0  0
 23 40  1  0  0  0  0
 24 52  1  0  0  0  0
 25 41  1  0  0  0  0
 26 62  1  0  0  0  0
 27 82  1  0  0  0  0
 28 83  1  0  0  0  0
 29 31  2  0  0  0  0
 29 82  1  0  0  0  0
 30 84  1  0  0  0  0
 31 85  1  0  0  0  0
 32 66  2  0  0  0  0
 33 67  1  0  0  0  0
 33 70  1  0  0  0  0
 34 71  1  0  0  0  0
 34 77  2  0  0  0  0
 35 53  1  0  0  0  0
 35 72  1  0  0  0  0
 35 78  2  0  0  0  0
 36 63  1  0  0  0  0
 36 68  1  0  0  0  0
 36 79  2  0  0  0  0
 37 64  1  0  0  0  0
 37 73  1  0  0  0  0
 37 80  2  0  0  0  0
 38 69  1  0  0  0  0
 38 74  1  0  0  0  0
 38 81  2  0  0  0  0
 39 42  1  0  0  0  0
 40 53  1  0  0  0  0
 41 68  1  0  0  0  0
 42 44  1  0  0  0  0
 43 45  1  0  0  0  0
 43 48  1  0  0  0  0
 44 52  1  0  0  0  0
 45 54  1  0  0  0  0
 46 50  1  0  0  0  0
 46 55  1  0  0  0  0
 47 51  1  0  0  0  0
 47 55  1  0  0  0  0
 48 69  1  0  0  0  0
 49 54  1  0  0  0  0
 49 69  1  0  0  0  0
 50 75  1  0  0  0  0
 51 75  1  0  0  0  0
 52 72  1  0  0  0  0
 53 68  1  0  0  0  0
 54 67  1  0  0  0  0
 55 83  1  0  0  0  0
 56 64  1  0  0  0  0
 57 65  1  0  0  0  0
 58 65  1  0  0  0  0
 59 65  1  0  0  0  0
 60 76  1  0  0  0  0
 61 62  1  0  0  0  0
 61 74  1  0  0  0  0
 62 75  1  0  0  0  0
 63 65  1  0  0  0  0
 63 73  1  0  0  0  0
 64 76  1  0  0  0  0
 66 67  1  0  0  0  0
M  CHG  2  75   1  76   1
M  ISO  4  38 100  55 101  74 100  83 101
M  END
> <Batch ID>
0135

> <Smiles>
CNC(C)C(=O)NC(C(=O)N1Cc2cc([101O:1][101CH:1]3CCN(C(C[100NH:0][100C:0](=O)N4CCCC(n5nc(-c6ccc(Oc7ccc(F)cc7F)cc6)c(C(N)=O)c5N)C4)c4ccccc4)CC3)ccc2CC1C(=O)NC1CCCc2ccccc21)C(C)(C)C

> <Shape>
0.205

> <Color>
0.175

> <Negative vol penalty>
0.000

$$$$

  -OEChem-04052321003D

 86 95  0     1  0  0  0  0  0999 V2000
  -31.9986  -26.3294   18.9696 C   0  0  0  0  0  0  0  0  0  0  0  0
  -31.0081  -25.4933   19.4749 C   0  0  0  0  0  0  0  0  0  0  0  0
  -28.3545  -16.8377   21.2275 C   0  0  0  0  0  0  0  0  0  0  0  0
  -27.4478  -17.1948   19.0168 C   0  0  0  0  0  0  0  0  0  0  0  0
  -32.0348  -27.6716   19.3451 C   0  0  0  0  0  0  0  0  0  0  0  0
  -30.0537  -25.9989   20.3570 C   0  0  0  0  0  0  0  0  0  0  0  0
  -25.3602  -24.4702   19.2260 C   0  0  0  0  0  0  0  0  0  0  0  0
  -29.1230  -17.9946   21.0992 C   0  0  0  0  0  0  0  0  0  0  0  0
  -28.2163  -18.3518   18.8885 C   0  0  0  0  0  0  0  0  0  0  0  0
  -25.0060  -23.1738   19.5971 C   0  0  0  0  0  0  0  0  0  0  0  0
  -31.0520  -21.0502   21.4969 C   0  0  0  0  0  0  0  0  0  0  0  0
  -31.0874  -21.9286   22.5798 C   0  0  0  0  0  0  0  0  0  0  0  0
  -23.8581  -24.0475   21.5305 C   0  0  0  0  0  0  0  0  0  0  0  0
  -28.6932  -22.2142   22.4265 C   0  0  0  0  0  0  0  0  0  0  0  0
  -27.5169  -16.4378   20.1863 C   0  0  0  0  0  0  0  0  0  0  0  0
  -27.1898  -13.9309   20.5273 C   0  0  0  0  0  0  0  0  0  0  0  0
  -31.0746  -28.1961   20.2247 C   0  0  0  0  0  0  0  0  0  0  0  0
  -24.9746  -25.5659   20.0115 C   0  0  0  0  0  0  0  0  0  0  0  0
  -30.0779  -27.3491   20.7457 C   0  0  0  0  0  0  0  0  0  0  0  0
  -24.2065  -25.3569   21.1658 C   0  0  0  0  0  0  0  0  0  0  0  0
  -29.0539  -18.7517   19.9297 C   0  0  0  0  0  0  0  0  0  0  0  0
  -24.2573  -22.9621   20.7511 C   0  0  0  0  0  0  0  0  0  0  0  0
  -29.8372  -20.7537   20.8787 C   0  0  0  0  0  0  0  0  0  0  0  0
  -29.9080  -22.5106   23.0446 C   0  0  0  0  0  0  0  0  0  0  0  0
  -28.6578  -21.3357   21.3435 C   0  0  0  0  0  0  0  0  0  0  0  0
  -26.7231  -15.2425   20.3180 C   0  0  0  0  0  0  0  0  0  0  0  0
  -26.0505  -13.1656   20.5812 C   0  0  0  0  0  0  0  0  0  0  0  0
  -28.5330  -13.4476   20.6610 C   0  0  0  0  0  0  0  0  0  0  0  0
  -26.5231  -27.8138   21.6403 C   0  0  0  0  0  0  0  0  0  0  0  0
  -23.5394  -29.0150   22.0614 C   0  0  0  0  0  0  0  0  0  0  0  0
  -20.1761  -28.4468   22.1691 C   0  0  0  0  0  0  0  0  0  0  0  0
  -20.3673  -14.4081   21.9983 C   0  0  0  0  0  0  0  0  0  0  0  0
  -31.1826  -29.6424   20.6387 C   0  0  0  0  0  0  0  0  0  0  0  0
  -25.3419  -26.9602   19.5831 C   0  0  0  0  0  0  0  0  0  0  0  0
  -23.7502  -26.5010   22.0327 C   0  0  0  0  0  0  0  0  0  0  0  0
  -29.9115  -30.1875   21.2848 C   0  0  0  0  0  0  0  0  0  0  0  0
  -21.5574  -13.0187   18.9438 C   0  0  0  0  0  0  0  0  0  0  0  0
  -29.3805  -29.2086   22.3273 C   0  0  0  0  0  0  0  0  0  0  0  0
  -23.0584  -13.3127   18.9685 C   0  0  0  0  0  0  0  0  0  0  0  0
  -20.4592  -20.3570   21.7647 C   0  0  0  0  0  0  0  0  0  0  0  0
  -21.6884  -20.6227   23.9646 C   0  0  0  0  0  0  0  0  0  0  0  0
  -21.7506  -20.6629   21.0099 C   0  0  0  0  0  0  0  0  0  0  0  0
  -22.9768  -20.9285   23.2045 C   0  0  0  0  0  0  0  0  0  0  0  0
  -20.7492  -14.1564   19.5637 C   0  0  0  0  0  0  0  0  0  0  0  0
  -22.6706  -14.8400   20.9473 C   0  0  0  0  0  0  0  0  0  0  0  0
  -18.5286  -18.1779   27.3081 C   0  0  0  0  0  0  0  0  0  0  0  0
  -18.2447  -20.0990   26.5509 C   0  0  0  0  0  0  0  0  0  0  0  0
  -29.0103  -27.8661   21.6854 C   0  0  1  0  0  0  0  0  0  0  0  0
  -25.3333  -27.9609   20.7346 C   0  0  1  0  0  0  0  0  0  0  0  0
  -18.3704  -18.7209   25.8760 C   0  0  0  0  0  0  0  0  0  0  0  0
  -23.5314  -13.6966   20.3835 C   0  0  2  0  0  0  0  0  0  0  0  0
  -20.7614  -19.7418   23.1296 C   0  0  0  0  0  0  0  0  0  0  0  0
  -22.6912  -21.5416   21.8333 C   0  0  0  0  0  0  0  0  0  1  0  0
  -17.9926  -29.6160   22.5727 C   0  0  0  0  0  0  0  0  0  0  0  0
  -24.1030  -29.0269   25.0601 C   0  0  0  0  0  0  0  0  0  0  0  0
  -21.6429  -29.2786   25.4509 C   0  0  0  0  0  0  0  0  0  0  0  0
  -22.8956  -31.0485   24.2175 C   0  0  0  0  0  0  0  0  0  0  0  0
  -19.2007  -27.8131   19.4477 C   0  0  0  0  0  0  0  0  0  0  0  0
  -20.1113  -16.0447   25.1523 C   0  0  0  0  0  0  0  0  0  0  0  0
  -19.5183  -17.1471   24.2649 C   0  0  0  0  0  0  0  0  0  0  0  0
  -20.1449  -14.6881   24.4542 C   0  0  0  0  0  0  0  0  0  0  0  0
  -22.4480  -28.8312   23.0881 C   0  0  1  0  0  0  0  0  0  0  0  0
  -19.0098  -29.1790   21.5301 C   0  0  2  0  0  0  0  0  0  0  0  0
  -19.5417  -18.5239   24.9373 C   0  0  1  0  0  0  0  0  0  0  0  0
  -22.7825  -29.5244   24.4391 C   0  0  0  0  0  0  0  0  0  0  0  0
  -25.3912  -15.3102   20.2439 N   0  0  0  0  0  0  0  0  0  0  0  0
  -25.0112  -14.0316   20.4074 N   0  0  0  0  0  0  0  0  0  0  0  0
  -24.1399  -27.8450   21.5752 N   0  0  0  0  0  0  0  0  0  0  0  0
  -21.2471  -14.4703   20.9051 N   0  0  0  0  0  0  0  0  0  0  0  0
  -25.8464  -11.8432   20.7598 N   0  0  0  0  0  0  0  0  0  0  0  0
  -29.2178  -13.0489   19.5050 N   0  0  0  0  0  0  0  0  0  0  0  0
  -27.7388  -27.9664   21.0014 N   0  0  0  0  0  0  0  0  0  0  0  0
  -21.2166  -29.3022   22.4636 N   0  0  0  0  0  0  0  0  0  0  0  0
  -20.9219  -14.7143   23.2350 N   0  0  0  0  0  0  0  0  0  0  0  0
  -17.8692  -19.4023   27.7934 N   0  3  0  0  0  0  0  0  0  0  0  0
  -19.4835  -19.5538   23.8664 N   0  3  0  0  0  0  0  0  0  0  0  0
  -18.3229  -28.2980   20.5437 N   0  3  0  0  0  0  0  0  0  0  0  0
  -29.1031  -13.3560   21.7746 O   0  0  0  0  0  0  0  0  0  0  0  0
  -26.3509  -27.5807   22.8310 O   0  0  0  0  0  0  0  0  0  0  0  0
  -23.8430  -30.1543   21.6988 O   0  0  0  0  0  0  0  0  0  0  0  0
  -20.1636  -27.2376   22.3886 O   0  0  0  0  0  0  0  0  0  0  0  0
  -19.1771  -14.0971   21.8816 O   0  0  0  0  0  0  0  0  0  0  0  0
  -29.8036  -19.8808   19.8043 O   0  0  0  0  0  0  0  0  0  0  0  0
  -23.9108  -21.6977   21.1160 O   0  0  0  0  0  0  0  0  0  1  0  0
  -29.9420  -23.3530   24.0855 F   0  0  0  0  0  0  0  0  0  0  0  0
  -27.4876  -21.0539   20.7545 F   0  0  0  0  0  0  0  0  0  0  0  0
  1  2  1  0  0  0  0
  1  5  2  0  0  0  0
  2  6  2  0  0  0  0
  3  8  2  0  0  0  0
  3 15  1  0  0  0  0
  4  9  1  0  0  0  0
  4 15  2  0  0  0  0
  5 17  1  0  0  0  0
  6 19  1  0  0  0  0
  7 10  2  0  0  0  0
  7 18  1  0  0  0  0
  8 21  1  0  0  0  0
  9 21  2  0  0  0  0
 10 22  1  0  0  0  0
 11 12  2  0  0  0  0
 11 23  1  0  0  0  0
 12 24  1  0  0  0  0
 13 20  1  0  0  0  0
 13 22  2  0  0  0  0
 14 24  2  0  0  0  0
 14 25  1  0  0  0  0
 15 26  1  0  0  0  0
 16 26  1  0  0  0  0
 16 27  2  0  0  0  0
 16 28  1  0  0  0  0
 17 19  2  0  0  0  0
 17 33  1  0  0  0  0
 18 20  2  0  0  0  0
 18 34  1  0  0  0  0
 19 48  1  0  0  0  0
 20 35  1  0  0  0  0
 21 83  1  0  0  0  0
 22 84  1  0  0  0  0
 23 25  2  0  0  0  0
 23 83  1  0  0  0  0
 24 85  1  0  0  0  0
 25 86  1  0  0  0  0
 26 66  2  0  0  0  0
 27 67  1  0  0  0  0
 27 70  1  0  0  0  0
 28 71  1  0  0  0  0
 28 78  2  0  0  0  0
 29 49  1  0  0  0  0
 29 72  1  0  0  0  0
 29 79  2  0  0  0  0
 30 62  1  0  0  0  0
 30 68  1  0  0  0  0
 30 80  2  0  0  0  0
 31 63  1  0  0  0  0
 31 73  1  0  0  0  0
 31 81  2  0  0  0  0
 32 69  1  0  0  0  0
 32 74  1  0  0  0  0
 32 82  2  0  0  0  0
 33 36  1  0  0  0  0
 34 49  1  0  0  0  0
 35 68  1  0  0  0  0
 36 38  1  0  0  0  0
 37 39  1  0  0  0  0
 37 44  1  0  0  0  0
 38 48  1  0  0  0  0
 39 51  1  0  0  0  0
 40 42  1  0  0  0  0
 40 52  1  0  0  0  0
 41 43  1  0  0  0  0
 41 52  1  0  0  0  0
 42 53  1  0  0  0  0
 43 53  1  0  0  0  0
 44 69  1  0  0  0  0
 45 51  1  0  0  0  0
 45 69  1  0  0  0  0
 46 50  1  0  0  0  0
 46 75  1  0  0  0  0
 47 50  1  0  0  0  0
 47 75  1  0  0  0  0
 48 72  1  0  0  0  0
 49 68  1  0  0  0  0
 50 64  1  0  0  0  0
 51 67  1  0  0  0  0
 52 76  1  0  0  0  0
 53 84  1  0  0  0  0
 54 63  1  0  0  0  0
 55 65  1  0  0  0  0
 56 65  1  0  0  0  0
 57 65  1  0  0  0  0
 58 77  1  0  0  0  0
 59 60  1  0  0  0  0
 59 61  1  0  0  0  0
 60 64  1  0  0  0  0
 61 74  1  0  0  0  0
 62 65  1  0  0  0  0
 62 73  1  0  0  0  0
 63 77  1  0  0  0  0
 64 76  1  0  0  0  0
 66 67  1  0  0  0  0
M  CHG  3  75   1  76   1  77   1
M  ISO  4  32 100  53 101  74 100  84 101
M  END
> <Batch ID>
0135

> <Smiles>
CNC(C)C(=O)NC(C(=O)N1Cc2cc([101O:1][101CH:1]3CCC(NC(CCC[100NH:0][100C:0](=O)N4CCCC(n5nc(-c6ccc(Oc7ccc(F)cc7F)cc6)c(C(N)=O)c5N)C4)C4CNC4)CC3)ccc2CC1C(=O)NC1CCCc2ccccc21)C(C)(C)C

> <Shape>
0.223

> <Color>
0.063

> <Negative vol penalty>
0.000

$$$$

  -OEChem-04052321003D

 91101  0     1  0  0  0  0  0999 V2000
  -18.5270  -24.7535   24.1165 C   0  0  0  0  0  0  0  0  0  0  0  0
  -19.8259  -24.5242   23.6740 C   0  0  0  0  0  0  0  0  0  0  0  0
  -26.9280  -15.6729   22.4620 C   0  0  0  0  0  0  0  0  0  0  0  0
  -25.8117  -15.8199   20.3244 C   0  0  0  0  0  0  0  0  0  0  0  0
  -17.9236  -25.9902   23.8923 C   0  0  0  0  0  0  0  0  0  0  0  0
  -20.5217  -25.5312   23.0060 C   0  0  0  0  0  0  0  0  0  0  0  0
  -26.5326  -26.6677   23.2953 C   0  0  0  0  0  0  0  0  0  0  0  0
  -26.4225  -14.3848   22.6375 C   0  0  0  0  0  0  0  0  0  0  0  0
  -25.3061  -14.5318   20.4999 C   0  0  0  0  0  0  0  0  0  0  0  0
  -27.5926  -26.3293   22.4553 C   0  0  0  0  0  0  0  0  0  0  0  0
  -26.4244  -11.3568   20.2012 C   0  0  0  0  0  0  0  0  0  0  0  0
  -26.4944  -10.4815   19.1174 C   0  0  0  0  0  0  0  0  0  0  0  0
  -27.4216  -28.4829   21.3820 C   0  0  0  0  0  0  0  0  0  0  0  0
  -24.0879  -10.2679   19.1344 C   0  0  0  0  0  0  0  0  0  0  0  0
  -26.6226  -16.3905   21.3055 C   0  0  0  0  0  0  0  0  0  0  0  0
  -28.3602  -18.0819   20.5133 C   0  0  0  0  0  0  0  0  0  0  0  0
  -18.6158  -27.0161   23.2297 C   0  0  0  0  0  0  0  0  0  0  0  0
  -25.9009  -27.9141   23.1774 C   0  0  0  0  0  0  0  0  0  0  0  0
  -19.9264  -26.7823   22.7715 C   0  0  0  0  0  0  0  0  0  0  0  0
  -26.3554  -28.8356   22.2233 C   0  0  0  0  0  0  0  0  0  0  0  0
  -25.6115  -13.8142   21.6564 C   0  0  0  0  0  0  0  0  0  0  0  0
  -28.0354  -27.2358   21.4966 C   0  0  0  0  0  0  0  0  0  0  0  0
  -25.1861  -11.6875   20.7517 C   0  0  0  0  0  0  0  0  0  0  0  0
  -25.3262   -9.9371   18.5840 C   0  0  0  0  0  0  0  0  0  0  0  0
  -24.0179  -11.1431   20.2183 C   0  0  0  0  0  0  0  0  0  0  0  0
  -27.1441  -17.7214   21.1239 C   0  0  0  0  0  0  0  0  0  0  0  0
  -28.3903  -19.4528   20.5910 C   0  0  0  0  0  0  0  0  0  0  0  0
  -29.3722  -17.2517   19.9282 C   0  0  0  0  0  0  0  0  0  0  0  0
  -22.9549  -28.8782   22.4736 C   0  0  0  0  0  0  0  0  0  0  0  0
  -28.2971  -22.2624   14.3882 C   0  0  0  0  0  0  0  0  0  0  0  0
  -24.1522  -31.7997   23.2174 C   0  0  0  0  0  0  0  0  0  0  0  0
  -26.8859  -33.8217   23.5102 C   0  0  0  0  0  0  0  0  0  0  0  0
  -24.8500  -24.0243   20.3033 C   0  0  0  0  0  0  0  0  0  0  0  0
  -17.9050  -28.3204   22.9686 C   0  0  0  0  0  0  0  0  0  0  0  0
  -24.7762  -28.2742   24.1089 C   0  0  0  0  0  0  0  0  0  0  0  0
  -25.7245  -30.1946   22.0699 C   0  0  0  0  0  0  0  0  0  0  0  0
  -18.8450  -29.4600   22.5840 C   0  0  0  0  0  0  0  0  0  0  0  0
  -26.1321  -22.8335   23.4041 C   0  0  0  0  0  0  0  0  0  0  0  0
  -19.8441  -28.9950   21.5293 C   0  0  0  0  0  0  0  0  0  0  0  0
  -26.6368  -21.4274   23.0755 C   0  0  0  0  0  0  0  0  0  0  0  0
  -27.3921  -20.0784   13.1825 C   0  0  0  0  0  0  0  0  0  0  0  0
  -27.6112  -25.9487   17.7277 C   0  0  0  0  0  0  0  0  0  0  0  0
  -29.7968  -26.0952   16.5474 C   0  0  0  0  0  0  0  0  0  0  0  0
  -24.8604  -23.1722   22.6293 C   0  0  0  0  0  0  0  0  0  0  0  0
  -25.4644  -21.5889   20.8398 C   0  0  0  0  0  0  0  0  0  0  0  0
  -28.6199  -19.1825   12.9896 C   0  0  0  0  0  0  0  0  0  0  0  0
  -30.0692  -23.9622   18.5809 C   0  0  0  0  0  0  0  0  0  0  0  0
  -20.7226  -27.8580   22.0650 C   0  0  1  0  0  0  0  0  0  0  0  0
  -23.8715  -29.3717   23.5571 C   0  0  1  0  0  0  0  0  0  0  0  0
  -28.1951  -20.7409   14.3111 C   0  0  1  0  0  0  0  0  0  0  0  0
  -29.1075  -26.2671   17.8997 C   0  0  2  0  0  0  0  0  0  0  0  0
  -27.3028  -24.5572   17.1439 C   0  0  2  0  0  0  0  0  0  0  0  0
  -29.8674  -25.4316   18.9598 C   0  0  1  0  0  0  0  0  0  0  0  0
  -26.7762  -21.2228   21.5550 C   0  0  2  0  0  0  0  0  0  0  0  0
  -28.2373  -24.1831   15.9662 C   0  0  1  0  0  0  0  0  0  0  0  0
  -29.7011  -24.6364   16.1302 C   0  0  2  0  0  0  0  0  0  0  0  0
  -27.5452  -36.1695   24.1019 C   0  0  0  0  0  0  0  0  0  0  0  0
  -25.5520  -25.5255   15.6363 C   0  0  0  0  0  0  0  0  0  0  0  0
  -23.1533  -32.7626   20.4999 C   0  0  0  0  0  0  0  0  0  0  0  0
  -24.6358  -34.7655   20.7425 C   0  0  0  0  0  0  0  0  0  0  0  0
  -22.7911  -34.3761   22.3760 C   0  0  0  0  0  0  0  0  0  0  0  0
  -28.5439  -32.9064   25.7844 C   0  0  0  0  0  0  0  0  0  0  0  0
  -29.2396  -25.5353   20.3502 C   0  0  0  0  0  0  0  0  0  1  0  0
  -24.8986  -24.7332   17.9254 C   0  0  0  0  0  0  0  0  0  0  0  0
  -24.8424  -32.8999   22.4478 C   0  0  1  0  0  0  0  0  0  0  0  0
  -27.3339  -34.7554   24.6200 C   0  0  2  0  0  0  0  0  0  0  0  0
  -25.8251  -24.4954   16.7303 C   0  0  2  0  0  0  0  0  0  0  0  0
  -23.8665  -33.6748   21.5179 C   0  0  0  0  0  0  0  0  0  0  0  0
  -26.4517  -18.7780   21.5576 N   0  0  0  0  0  0  0  0  0  0  0  0
  -27.2354  -19.8160   21.2192 N   0  0  0  0  0  0  0  0  0  0  0  0
  -24.6240  -30.4975   22.9998 N   0  0  0  0  0  0  0  0  0  0  0  0
  -25.0600  -22.9585   21.1939 N   0  0  0  0  0  0  0  0  0  0  0  0
  -29.2916  -20.3711   20.1826 N   0  0  0  0  0  0  0  0  0  0  0  0
  -29.1824  -15.8631   19.9327 N   0  0  0  0  0  0  0  0  0  0  0  0
  -21.7514  -28.3822   22.9374 N   0  0  0  0  0  0  0  0  0  0  0  0
  -28.1699  -22.7681   15.6663 N   0  0  0  0  0  0  0  0  0  0  0  0
  -25.5116  -33.7343   23.4399 N   0  0  0  0  0  0  0  0  0  0  0  0
  -25.0673  -23.7383   18.9610 N   0  0  0  0  0  0  0  0  0  0  0  0
  -29.4201  -20.2125   13.6725 N   0  3  0  0  0  0  0  0  0  0  0  0
  -30.4481  -23.8153   17.1443 N   0  3  0  0  0  0  0  0  0  0  0  0
  -28.6138  -34.2767   25.2147 N   0  3  0  0  0  0  0  0  0  0  0  0
  -30.4217  -17.7263   19.4312 O   0  0  0  0  0  0  0  0  0  0  0  0
  -23.3124  -28.9439   21.3033 O   0  0  0  0  0  0  0  0  0  0  0  0
  -28.4780  -22.9086   13.3628 O   0  0  0  0  0  0  0  0  0  0  0  0
  -23.2333  -32.0861   23.9889 O   0  0  0  0  0  0  0  0  0  0  0  0
  -27.6760  -33.2319   22.7764 O   0  0  0  0  0  0  0  0  0  0  0  0
  -24.5002  -25.1489   20.6773 O   0  0  0  0  0  0  0  0  0  0  0  0
  -25.1182  -12.5572   21.8272 O   0  0  0  0  0  0  0  0  0  0  0  0
  -29.0792  -26.9047   20.6673 O   0  0  0  0  0  0  0  0  0  1  0  0
  -25.3935   -9.0979   17.5422 F   0  0  0  0  0  0  0  0  0  0  0  0
  -22.8254  -11.4581   20.7421 F   0  0  0  0  0  0  0  0  0  0  0  0
  1  2  1  0  0  0  0
  1  5  2  0  0  0  0
  2  6  2  0  0  0  0
  3  8  2  0  0  0  0
  3 15  1  0  0  0  0
  4  9  1  0  0  0  0
  4 15  2  0  0  0  0
  5 17  1  0  0  0  0
  6 19  1  0  0  0  0
  7 10  2  0  0  0  0
  7 18  1  0  0  0  0
  8 21  1  0  0  0  0
  9 21  2  0  0  0  0
 10 22  1  0  0  0  0
 11 12  2  0  0  0  0
 11 23  1  0  0  0  0
 12 24  1  0  0  0  0
 13 20  1  0  0  0  0
 13 22  2  0  0  0  0
 14 24  2  0  0  0  0
 14 25  1  0  0  0  0
 15 26  1  0  0  0  0
 16 26  1  0  0  0  0
 16 27  2  0  0  0  0
 16 28  1  0  0  0  0
 17 19  2  0  0  0  0
 17 34  1  0  0  0  0
 18 20  2  0  0  0  0
 18 35  1  0  0  0  0
 19 48  1  0  0  0  0
 20 36  1  0  0  0  0
 21 88  1  0  0  0  0
 22 89  1  0  0  0  0
 23 25  2  0  0  0  0
 23 88  1  0  0  0  0
 24 90  1  0  0  0  0
 25 91  1  0  0  0  0
 26 69  2  0  0  0  0
 27 70  1  0  0  0  0
 27 73  1  0  0  0  0
 28 74  1  0  0  0  0
 28 82  2  0  0  0  0
 29 49  1  0  0  0  0
 29 75  1  0  0  0  0
 29 83  2  0  0  0  0
 30 50  1  0  0  0  0
 30 76  1  0  0  0  0
 30 84  2  0  0  0  0
 31 65  1  0  0  0  0
 31 71  1  0  0  0  0
 31 85  2  0  0  0  0
 32 66  1  0  0  0  0
 32 77  1  0  0  0  0
 32 86  2  0  0  0  0
 33 72  1  0  0  0  0
 33 78  1  0  0  0  0
 33 87  2  0  0  0  0
 34 37  1  0  0  0  0
 35 49  1  0  0  0  0
 36 71  1  0  0  0  0
 37 39  1  0  0  0  0
 38 40  1  0  0  0  0
 38 44  1  0  0  0  0
 39 48  1  0  0  0  0
 40 54  1  0  0  0  0
 41 46  1  0  0  0  0
 41 50  1  0  0  0  0
 42 51  1  0  0  0  0
 42 52  1  0  0  0  0
 43 51  1  0  0  0  0
 43 56  1  0  0  0  0
 44 72  1  0  0  0  0
 45 54  1  0  0  0  0
 45 72  1  0  0  0  0
 46 79  1  0  0  0  0
 47 53  1  0  0  0  0
 47 80  1  0  0  0  0
 48 75  1  0  0  0  0
 49 71  1  0  0  0  0
 50 79  1  0  0  0  0
 51 53  1  0  0  0  0
 52 55  1  0  0  0  0
 52 67  1  0  0  0  0
 53 63  1  0  0  0  0
 54 70  1  0  0  0  0
 55 56  1  0  0  0  0
 55 76  1  0  0  0  0
 56 80  1  0  0  0  0
 57 66  1  0  0  0  0
 58 67  1  0  0  0  0
 59 68  1  0  0  0  0
 60 68  1  0  0  0  0
 61 68  1  0  0  0  0
 62 81  1  0  0  0  0
 63 89  1  0  0  0  0
 64 67  1  0  0  0  0
 64 78  1  0  0  0  0
 65 68  1  0  0  0  0
 65 77  1  0  0  0  0
 66 81  1  0  0  0  0
 69 70  1  0  0  0  0
M  CHG  3  79   1  80   1  81   1
M  ISO  4  33 100  63 101  78 100  89 101
M  END
> <Batch ID>
0135

> <Smiles>
CNC(C)C(=O)NC(C(=O)N1Cc2cc([101O:1][101CH2:1]C3CNC4CC3CC(C(C)C[100NH:0][100C:0](=O)N3CCCC(n5nc(-c6ccc(Oc7ccc(F)cc7F)cc6)c(C(N)=O)c5N)C3)C4NC(=O)C3CCN3)ccc2CC1C(=O)NC1CCCc2ccccc21)C(C)(C)C

> <Shape>
0.245

> <Color>
0.080

> <Negative vol penalty>
0.000

$$$$

  -OEChem-04052321003D

 85 94  0     1  0  0  0  0  0999 V2000
  -16.3231  -24.8073   23.2325 C   0  0  0  0  0  0  0  0  0  0  0  0
  -17.3945  -24.1315   23.8077 C   0  0  0  0  0  0  0  0  0  0  0  0
  -23.0147   -9.9392   19.8814 C   0  0  0  0  0  0  0  0  0  0  0  0
  -23.9600   -9.6457   22.0853 C   0  0  0  0  0  0  0  0  0  0  0  0
  -16.5485  -25.7243   22.2068 C   0  0  0  0  0  0  0  0  0  0  0  0
  -18.6919  -24.3717   23.3567 C   0  0  0  0  0  0  0  0  0  0  0  0
  -23.8150  -24.3725   26.7124 C   0  0  0  0  0  0  0  0  0  0  0  0
  -22.2865   -8.7598   20.0366 C   0  0  0  0  0  0  0  0  0  0  0  0
  -23.2317   -8.4662   22.2406 C   0  0  0  0  0  0  0  0  0  0  0  0
  -24.8026  -23.4099   26.9167 C   0  0  0  0  0  0  0  0  0  0  0  0
  -21.3454   -5.5672   23.3613 C   0  0  0  0  0  0  0  0  0  0  0  0
  -20.6874   -5.3654   24.5745 C   0  0  0  0  0  0  0  0  0  0  0  0
  -26.1470  -24.4324   25.1945 C   0  0  0  0  0  0  0  0  0  0  0  0
  -28.3428  -19.4113   22.7718 C   0  0  0  0  0  0  0  0  0  0  0  0
  -19.3995   -7.3769   24.2105 C   0  0  0  0  0  0  0  0  0  0  0  0
  -23.8515  -10.3822   20.9057 C   0  0  0  0  0  0  0  0  0  0  0  0
  -24.1986  -12.9025   21.0935 C   0  0  0  0  0  0  0  0  0  0  0  0
  -17.8503  -25.9830   21.7496 C   0  0  0  0  0  0  0  0  0  0  0  0
  -23.9815  -25.3675   25.7384 C   0  0  0  0  0  0  0  0  0  0  0  0
  -18.9348  -25.2921   22.3230 C   0  0  0  0  0  0  0  0  0  0  0  0
  -25.1612  -25.4080   24.9815 C   0  0  0  0  0  0  0  0  0  0  0  0
  -29.9784  -17.6877   22.6743 C   0  0  0  0  0  0  0  0  0  0  0  0
  -29.1577  -18.5779   22.0096 C   0  0  0  0  0  0  0  0  0  0  0  0
  -22.3949   -8.0233   21.2162 C   0  0  0  0  0  0  0  0  0  0  0  0
  -25.9675  -23.4380   26.1558 C   0  0  0  0  0  0  0  0  0  0  0  0
  -21.0306   -6.6739   22.5727 C   0  0  0  0  0  0  0  0  0  0  0  0
  -19.7144   -6.2702   24.9991 C   0  0  0  0  0  0  0  0  0  0  0  0
  -20.0576   -7.5787   22.9973 C   0  0  0  0  0  0  0  0  0  0  0  0
  -24.6045  -11.6002   20.7457 C   0  0  0  0  0  0  0  0  0  0  0  0
  -29.9532  -17.6573   24.0645 C   0  0  0  0  0  0  0  0  0  0  0  0
  -28.3895  -19.3027   24.1615 C   0  0  0  0  0  0  0  0  0  0  0  0
  -25.2621  -13.6984   20.7443 C   0  0  0  0  0  0  0  0  0  0  0  0
  -22.9700  -13.3525   21.6799 C   0  0  0  0  0  0  0  0  0  0  0  0
  -22.4376  -26.1890   23.0841 C   0  0  0  0  0  0  0  0  0  0  0  0
  -24.5129  -28.6819   23.1134 C   0  0  0  0  0  0  0  0  0  0  0  0
  -27.5188  -29.9374   24.1309 C   0  0  0  0  0  0  0  0  0  0  0  0
  -30.7492  -14.7083   20.6154 C   0  0  0  0  0  0  0  0  0  0  0  0
  -18.0397  -26.9480   20.6061 C   0  0  0  0  0  0  0  0  0  0  0  0
  -22.9185  -26.4146   25.5486 C   0  0  0  0  0  0  0  0  0  0  0  0
  -25.3975  -26.4673   23.9373 C   0  0  0  0  0  0  0  0  0  0  0  0
  -30.8850  -16.6040   24.5942 C   0  0  0  0  0  0  0  0  0  0  0  0
  -19.4814  -27.4220   20.4416 C   0  0  0  0  0  0  0  0  0  0  0  0
  -29.4047  -12.6560   18.0354 C   0  0  0  0  0  0  0  0  0  0  0  0
  -20.4434  -26.2404   20.5145 C   0  0  0  0  0  0  0  0  0  0  0  0
  -28.0057  -12.3010   18.5420 C   0  0  0  0  0  0  0  0  0  0  0  0
  -30.4185  -12.7199   19.1756 C   0  0  0  0  0  0  0  0  0  0  0  0
  -28.6414  -13.2522   20.7981 C   0  0  0  0  0  0  0  0  0  0  0  0
  -20.3592  -25.5438   21.8780 C   0  0  1  0  0  0  0  0  0  0  0  0
  -30.9299  -16.6763   22.1166 C   0  0  1  0  0  0  0  0  0  0  0  0
  -22.9693  -27.0755   24.1746 C   0  0  1  0  0  0  0  0  0  0  0  0
  -31.7880  -16.3403   23.3668 C   0  0  1  0  0  0  0  0  0  0  0  0
  -27.5730  -13.2307   19.6916 C   0  0  2  0  0  0  0  0  0  0  0  0
  -29.1330  -18.6575   20.5234 C   0  0  0  0  0  0  0  0  0  0  0  0
  -33.0505  -17.2121   23.4172 C   0  0  0  0  0  0  0  0  0  0  0  0
  -28.9532  -31.9900   23.9676 C   0  0  0  0  0  0  0  0  0  0  0  0
  -25.2718  -27.9215   20.2576 C   0  0  0  0  0  0  0  0  0  0  0  0
  -27.3142  -29.3501   20.4940 C   0  0  0  0  0  0  0  0  0  0  0  0
  -25.0480  -30.3799   20.6581 C   0  0  0  0  0  0  0  0  0  0  0  0
  -27.4697  -30.3462   27.0617 C   0  0  0  0  0  0  0  0  0  0  0  0
  -27.4942  -20.1594   26.3272 C   0  0  0  0  0  0  0  0  0  0  0  0
  -26.5062  -21.2128   26.7996 C   0  0  0  0  0  0  0  0  0  1  0  0
  -25.8915  -28.9319   22.5512 C   0  0  1  0  0  0  0  0  0  0  0  0
  -27.8916  -31.2602   24.7758 C   0  0  2  0  0  0  0  0  0  0  0  0
  -25.8764  -29.1246   21.0085 C   0  0  0  0  0  0  0  0  0  0  0  0
  -25.8302  -11.5663   20.2161 N   0  0  0  0  0  0  0  0  0  0  0  0
  -29.1789  -18.4352   24.8391 N   0  0  0  0  0  0  0  0  0  0  0  0
  -26.2036  -12.8573   20.2284 N   0  0  0  0  0  0  0  0  0  0  0  0
  -24.3258  -27.4652   23.7847 N   0  0  0  0  0  0  0  0  0  0  0  0
  -29.9489  -13.6194   20.2321 N   0  0  0  0  0  0  0  0  0  0  0  0
  -25.4743  -15.0288   20.8313 N   0  0  0  0  0  0  0  0  0  0  0  0
  -21.9833  -12.4021   21.9756 N   0  0  0  0  0  0  0  0  0  0  0  0
  -27.5632  -20.1476   24.8839 N   0  0  0  0  0  0  0  0  0  0  0  0
  -21.0759  -26.3042   22.8792 N   0  0  0  0  0  0  0  0  0  0  0  0
  -26.4338  -30.0671   23.2899 N   0  0  0  0  0  0  0  0  0  0  0  0
  -30.2270  -15.5147   21.6193 N   0  0  0  0  0  0  0  0  0  0  0  0
  -28.4199  -31.0352   26.1510 N   0  3  0  0  0  0  0  0  0  0  0  0
  -22.7471  -14.5636   21.9188 O   0  0  0  0  0  0  0  0  0  0  0  0
  -23.2061  -25.4560   22.4728 O   0  0  0  0  0  0  0  0  0  0  0  0
  -23.6364  -29.5377   22.9687 O   0  0  0  0  0  0  0  0  0  0  0  0
  -28.1312  -28.8943   24.3483 O   0  0  0  0  0  0  0  0  0  0  0  0
  -31.8453  -14.9475   20.0974 O   0  0  0  0  0  0  0  0  0  0  0  0
  -21.6842   -6.8725   21.3681 O   0  0  0  0  0  0  0  0  0  0  0  0
  -26.9328  -22.4992   26.3527 O   0  0  0  0  0  0  0  0  0  1  0  0
  -19.0815   -6.0755   26.1634 F   0  0  0  0  0  0  0  0  0  0  0  0
  -19.7500   -8.6431   22.2435 F   0  0  0  0  0  0  0  0  0  0  0  0
  1  2  1  0  0  0  0
  1  5  2  0  0  0  0
  2  6  2  0  0  0  0
  3  8  2  0  0  0  0
  3 16  1  0  0  0  0
  4  9  1  0  0  0  0
  4 16  2  0  0  0  0
  5 18  1  0  0  0  0
  6 20  1  0  0  0  0
  7 10  2  0  0  0  0
  7 19  1  0  0  0  0
  8 24  1  0  0  0  0
  9 24  2  0  0  0  0
 10 25  1  0  0  0  0
 11 12  2  0  0  0  0
 11 26  1  0  0  0  0
 12 27  1  0  0  0  0
 13 21  1  0  0  0  0
 13 25  2  0  0  0  0
 14 23  2  0  0  0  0
 14 31  1  0  0  0  0
 15 27  2  0  0  0  0
 15 28  1  0  0  0  0
 16 29  1  0  0  0  0
 17 29  1  0  0  0  0
 17 32  2  0  0  0  0
 17 33  1  0  0  0  0
 18 20  2  0  0  0  0
 18 38  1  0  0  0  0
 19 21  2  0  0  0  0
 19 39  1  0  0  0  0
 20 48  1  0  0  0  0
 21 40  1  0  0  0  0
 22 23  1  0  0  0  0
 22 30  2  0  0  0  0
 22 49  1  0  0  0  0
 23 53  1  0  0  0  0
 24 82  1  0  0  0  0
 25 83  1  0  0  0  0
 26 28  2  0  0  0  0
 26 82  1  0  0  0  0
 27 84  1  0  0  0  0
 28 85  1  0  0  0  0
 29 65  2  0  0  0  0
 30 41  1  0  0  0  0
 30 66  1  0  0  0  0
 31 66  2  0  0  0  0
 31 72  1  0  0  0  0
 32 67  1  0  0  0  0
 32 70  1  0  0  0  0
 33 71  1  0  0  0  0
 33 77  2  0  0  0  0
 34 50  1  0  0  0  0
 34 73  1  0  0  0  0
 34 78  2  0  0  0  0
 35 62  1  0  0  0  0
 35 68  1  0  0  0  0
 35 79  2  0  0  0  0
 36 63  1  0  0  0  0
 36 74  1  0  0  0  0
 36 80  2  0  0  0  0
 37 69  1  0  0  0  0
 37 75  1  0  0  0  0
 37 81  2  0  0  0  0
 38 42  1  0  0  0  0
 39 50  1  0  0  0  0
 40 68  1  0  0  0  0
 41 51  1  0  0  0  0
 42 44  1  0  0  0  0
 43 45  1  0  0  0  0
 43 46  1  0  0  0  0
 44 48  1  0  0  0  0
 45 52  1  0  0  0  0
 46 69  1  0  0  0  0
 47 52  1  0  0  0  0
 47 69  1  0  0  0  0
 48 73  1  0  0  0  0
 49 51  1  0  0  0  0
 49 75  1  0  0  0  0
 50 68  1  0  0  0  0
 51 54  1  0  0  0  0
 52 67  1  0  0  0  0
 55 63  1  0  0  0  0
 56 64  1  0  0  0  0
 57 64  1  0  0  0  0
 58 64  1  0  0  0  0
 59 76  1  0  0  0  0
 60 61  1  0  0  0  0
 60 72  1  0  0  0  0
 61 83  1  0  0  0  0
 62 64  1  0  0  0  0
 62 74  1  0  0  0  0
 63 76  1  0  0  0  0
 65 67  1  0  0  0  0
M  CHG  1  76   1
M  ISO  4  37 100  61 101  75 100  83 101
M  END
> <Batch ID>
0135

> <Smiles>
CNC(C)C(=O)NC(C(=O)N1Cc2cc([101O:1][101CH2:1]CNc3cc(C)c4c(n3)CC(C)C4[100NH:0][100C:0](=O)N3CCCC(n4nc(-c5ccc(Oc6ccc(F)cc6F)cc5)c(C(N)=O)c4N)C3)ccc2CC1C(=O)NC1CCCc2ccccc21)C(C)(C)C

> <Shape>
0.296

> <Color>
0.185

> <Negative vol penalty>
0.000

$$$$

  -OEChem-04052321003D

 82 90  0     1  0  0  0  0  0999 V2000
  -32.2816  -29.9976   14.8718 C   0  0  0  0  0  0  0  0  0  0  0  0
  -31.1953  -29.1305   14.8124 C   0  0  0  0  0  0  0  0  0  0  0  0
  -17.9624  -19.5464   20.4027 C   0  0  0  0  0  0  0  0  0  0  0  0
  -29.4268  -18.3240   21.7229 C   0  0  0  0  0  0  0  0  0  0  0  0
  -28.1812  -17.9207   19.6924 C   0  0  0  0  0  0  0  0  0  0  0  0
  -32.8495  -30.3183   16.1041 C   0  0  0  0  0  0  0  0  0  0  0  0
  -30.6771  -28.5826   15.9853 C   0  0  0  0  0  0  0  0  0  0  0  0
  -24.8069  -27.2997   17.1691 C   0  0  0  0  0  0  0  0  0  0  0  0
  -18.0444  -19.2346   19.0456 C   0  0  0  0  0  0  0  0  0  0  0  0
  -19.0647  -20.0919   21.0608 C   0  0  0  0  0  0  0  0  0  0  0  0
  -30.1047  -17.1178   21.5467 C   0  0  0  0  0  0  0  0  0  0  0  0
  -28.8591  -16.7144   19.5162 C   0  0  0  0  0  0  0  0  0  0  0  0
  -24.0752  -26.1145   17.1089 C   0  0  0  0  0  0  0  0  0  0  0  0
  -30.0040  -13.3576   18.7220 C   0  0  0  0  0  0  0  0  0  0  0  0
  -29.2529  -12.2379   18.3645 C   0  0  0  0  0  0  0  0  0  0  0  0
  -24.4358  -25.7790   19.4703 C   0  0  0  0  0  0  0  0  0  0  0  0
  -27.9663  -12.4516   20.3983 C   0  0  0  0  0  0  0  0  0  0  0  0
  -28.4650  -18.7254   20.7958 C   0  0  0  0  0  0  0  0  0  0  0  0
  -28.1421  -21.2378   20.4937 C   0  0  0  0  0  0  0  0  0  0  0  0
  -32.3319  -29.7816   17.2935 C   0  0  0  0  0  0  0  0  0  0  0  0
  -25.3687  -27.7286   18.3802 C   0  0  0  0  0  0  0  0  0  0  0  0
  -31.2395  -28.8953   17.2345 C   0  0  0  0  0  0  0  0  0  0  0  0
  -25.1720  -26.9713   19.5438 C   0  0  0  0  0  0  0  0  0  0  0  0
  -19.2287  -19.4682   18.3467 C   0  0  0  0  0  0  0  0  0  0  0  0
  -20.3310  -20.0136   19.0048 C   0  0  0  0  0  0  0  0  0  0  0  0
  -20.2490  -20.3255   20.3619 C   0  0  0  0  0  0  0  0  0  0  0  0
  -29.8209  -16.3130   20.4434 C   0  0  0  0  0  0  0  0  0  0  0  0
  -23.8920  -25.3524   18.2590 C   0  0  0  0  0  0  0  0  0  0  0  0
  -29.7363  -14.0242   19.9178 C   0  0  0  0  0  0  0  0  0  0  0  0
  -28.2340  -11.7849   19.2026 C   0  0  0  0  0  0  0  0  0  0  0  0
  -28.7175  -13.5712   20.7558 C   0  0  0  0  0  0  0  0  0  0  0  0
  -27.7640  -19.9711   20.9776 C   0  0  0  0  0  0  0  0  0  0  0  0
  -27.1519  -22.0826   20.9324 C   0  0  0  0  0  0  0  0  0  0  0  0
  -29.2861  -21.6171   19.7171 C   0  0  0  0  0  0  0  0  0  0  0  0
  -28.3259  -28.2617   19.4168 C   0  0  0  0  0  0  0  0  0  0  0  0
  -26.7864  -29.3687   22.0487 C   0  0  0  0  0  0  0  0  0  0  0  0
  -23.9776  -29.3439   23.9870 C   0  0  0  0  0  0  0  0  0  0  0  0
  -21.4200  -21.2409   22.3959 C   0  0  0  0  0  0  0  0  0  0  0  0
  -33.0091  -30.1204   18.5978 C   0  0  0  0  0  0  0  0  0  0  0  0
  -26.1327  -29.0231   18.4339 C   0  0  0  0  0  0  0  0  0  0  0  0
  -25.7373  -27.3984   20.8729 C   0  0  0  0  0  0  0  0  0  0  0  0
  -32.1644  -29.7914   19.8261 C   0  0  0  0  0  0  0  0  0  0  0  0
  -23.9703  -22.6030   24.4737 C   0  0  0  0  0  0  0  0  0  0  0  0
  -31.5636  -28.3948   19.7023 C   0  0  0  0  0  0  0  0  0  0  0  0
  -25.2669  -22.2031   23.7657 C   0  0  0  0  0  0  0  0  0  0  0  0
  -22.9068  -21.5114   24.3685 C   0  0  0  0  0  0  0  0  0  0  0  0
  -23.9211  -20.6493   22.2955 C   0  0  0  0  0  0  0  0  0  0  0  0
  -30.6334  -28.3001   18.4869 C   0  0  1  0  0  0  0  0  0  0  0  0
  -27.0951  -29.1004   19.6152 C   0  0  1  0  0  0  0  0  0  0  0  0
  -25.0003  -21.7440   22.3187 C   0  0  2  0  0  0  0  0  0  0  0  0
  -19.2895  -19.1252   16.8942 C   0  0  0  0  0  0  0  0  0  0  0  0
  -23.0302  -30.3217   26.0950 C   0  0  0  0  0  0  0  0  0  0  0  0
  -28.5060  -27.4656   23.7014 C   0  0  0  0  0  0  0  0  0  0  0  0
  -26.9030  -27.7766   25.5993 C   0  0  0  0  0  0  0  0  0  0  0  0
  -28.1824  -29.7279   24.7171 C   0  0  0  0  0  0  0  0  0  0  0  0
  -21.7636  -30.6527   22.5225 C   0  0  0  0  0  0  0  0  0  0  0  0
  -21.6026  -20.2632   18.2488 C   0  0  0  0  0  0  0  0  0  0  0  0
  -23.1078  -21.9881   17.2499 C   0  0  0  0  0  0  0  0  0  0  0  0
  -23.2047  -23.4751   16.9709 C   0  0  0  0  0  0  0  0  0  1  0  0
  -26.2989  -28.7554   23.3392 C   0  0  1  0  0  0  0  0  0  0  0  0
  -23.1579  -30.4720   24.5870 C   0  0  2  0  0  0  0  0  0  0  0  0
  -27.4634  -28.4221   24.3140 C   0  0  0  0  0  0  0  0  0  0  0  0
  -26.6226  -20.0035   21.6707 N   0  0  0  0  0  0  0  0  0  0  0  0
  -26.2752  -21.3009   21.6256 N   0  0  0  0  0  0  0  0  0  0  0  0
  -26.4821  -28.6683   20.8728 N   0  0  0  0  0  0  0  0  0  0  0  0
  -22.7045  -21.1301   22.9690 N   0  0  0  0  0  0  0  0  0  0  0  0
  -26.9543  -23.4103   20.7889 N   0  0  0  0  0  0  0  0  0  0  0  0
  -30.2048  -20.6236   19.3518 N   0  0  0  0  0  0  0  0  0  0  0  0
  -21.3560  -20.8808   21.0502 N   0  0  0  0  0  0  0  0  0  0  0  0
  -29.3584  -28.9203   18.7768 N   0  0  0  0  0  0  0  0  0  0  0  0
  -25.3107  -29.6807   23.8830 N   0  0  0  0  0  0  0  0  0  0  0  0
  -21.7887  -30.4871   23.9987 N   0  3  0  0  0  0  0  0  0  0  0  0
  -21.8276  -21.7024   17.9454 N   0  3  0  0  0  0  0  0  0  0  0  0
  -29.4963  -22.8045   19.3717 O   0  0  0  0  0  0  0  0  0  0  0  0
  -28.3385  -27.1033   19.8163 O   0  0  0  0  0  0  0  0  0  0  0  0
  -27.4079  -30.4337   22.0822 O   0  0  0  0  0  0  0  0  0  0  0  0
  -23.4853  -28.2700   23.6480 O   0  0  0  0  0  0  0  0  0  0  0  0
  -20.4538  -21.6526   23.0432 O   0  0  0  0  0  0  0  0  0  0  0  0
  -30.4824  -15.1360   20.2710 O   0  0  0  0  0  0  0  0  0  0  0  0
  -23.1788  -24.1948   18.2029 O   0  0  0  0  0  0  0  0  0  1  0  0
  -27.5118  -10.7107   18.8583 F   0  0  0  0  0  0  0  0  0  0  0  0
  -28.4549  -14.2082   21.9053 F   0  0  0  0  0  0  0  0  0  0  0  0
  1  2  1  0  0  0  0
  1  6  2  0  0  0  0
  2  7  2  0  0  0  0
  3  9  1  0  0  0  0
  3 10  2  0  0  0  0
  4 11  2  0  0  0  0
  4 18  1  0  0  0  0
  5 12  1  0  0  0  0
  5 18  2  0  0  0  0
  6 20  1  0  0  0  0
  7 22  1  0  0  0  0
  8 13  2  0  0  0  0
  8 21  1  0  0  0  0
  9 24  2  0  0  0  0
 10 26  1  0  0  0  0
 11 27  1  0  0  0  0
 12 27  2  0  0  0  0
 13 28  1  0  0  0  0
 14 15  2  0  0  0  0
 14 29  1  0  0  0  0
 15 30  1  0  0  0  0
 16 23  1  0  0  0  0
 16 28  2  0  0  0  0
 17 30  2  0  0  0  0
 17 31  1  0  0  0  0
 18 32  1  0  0  0  0
 19 32  1  0  0  0  0
 19 33  2  0  0  0  0
 19 34  1  0  0  0  0
 20 22  2  0  0  0  0
 20 39  1  0  0  0  0
 21 23  2  0  0  0  0
 21 40  1  0  0  0  0
 22 48  1  0  0  0  0
 23 41  1  0  0  0  0
 24 25  1  0  0  0  0
 24 51  1  0  0  0  0
 25 26  2  0  0  0  0
 25 57  1  0  0  0  0
 26 69  1  0  0  0  0
 27 79  1  0  0  0  0
 28 80  1  0  0  0  0
 29 31  2  0  0  0  0
 29 79  1  0  0  0  0
 30 81  1  0  0  0  0
 31 82  1  0  0  0  0
 32 63  2  0  0  0  0
 33 64  1  0  0  0  0
 33 67  1  0  0  0  0
 34 68  1  0  0  0  0
 34 74  2  0  0  0  0
 35 49  1  0  0  0  0
 35 70  1  0  0  0  0
 35 75  2  0  0  0  0
 36 60  1  0  0  0  0
 36 65  1  0  0  0  0
 36 76  2  0  0  0  0
 37 61  1  0  0  0  0
 37 71  1  0  0  0  0
 37 77  2  0  0  0  0
 38 66  1  0  0  0  0
 38 69  1  0  0  0  0
 38 78  2  0  0  0  0
 39 42  1  0  0  0  0
 40 49  1  0  0  0  0
 41 65  1  0  0  0  0
 42 44  1  0  0  0  0
 43 45  1  0  0  0  0
 43 46  1  0  0  0  0
 44 48  1  0  0  0  0
 45 50  1  0  0  0  0
 46 66  1  0  0  0  0
 47 50  1  0  0  0  0
 47 66  1  0  0  0  0
 48 70  1  0  0  0  0
 49 65  1  0  0  0  0
 50 64  1  0  0  0  0
 52 61  1  0  0  0  0
 53 62  1  0  0  0  0
 54 62  1  0  0  0  0
 55 62  1  0  0  0  0
 56 72  1  0  0  0  0
 57 73  1  0  0  0  0
 58 59  1  0  0  0  0
 58 73  1  0  0  0  0
 59 80  1  0  0  0  0
 60 62  1  0  0  0  0
 60 71  1  0  0  0  0
 61 72  1  0  0  0  0
 63 64  1  0  0  0  0
M  CHG  2  72   1  73   1
M  ISO  4  38 100  59 101  69 100  80 101
M  END
> <Batch ID>
0135

> <Smiles>
CNC(C)C(=O)NC(C(=O)N1Cc2cc([101O:1][101CH2:1]CNCc3c(C)cccc3[100NH:0][100C:0](=O)N3CCCC(n4nc(-c5ccc(Oc6ccc(F)cc6F)cc5)c(C(N)=O)c4N)C3)ccc2CC1C(=O)NC1CCCc2ccccc21)C(C)(C)C

> <Shape>
0.181

> <Color>
0.076

> <Negative vol penalty>
0.000

$$$$

  -OEChem-04052321003D

 91101  0     1  0  0  0  0  0999 V2000
  -21.3652  -30.6807   29.6543 C   0  0  0  0  0  0  0  0  0  0  0  0
  -21.6115  -29.5343   28.9056 C   0  0  0  0  0  0  0  0  0  0  0  0
  -24.3260   -8.8340   21.4301 C   0  0  0  0  0  0  0  0  0  0  0  0
  -24.6895  -10.1268   23.4385 C   0  0  0  0  0  0  0  0  0  0  0  0
  -21.4531  -31.9361   29.0541 C   0  0  0  0  0  0  0  0  0  0  0  0
  -21.9448  -29.6427   27.5559 C   0  0  0  0  0  0  0  0  0  0  0  0
  -25.8177  -26.6464   26.2646 C   0  0  0  0  0  0  0  0  0  0  0  0
  -25.8403  -21.2655   21.7535 C   0  0  0  0  0  0  0  0  0  0  0  0
  -24.0200   -7.7156   22.2054 C   0  0  0  0  0  0  0  0  0  0  0  0
  -24.3835   -9.0084   24.2138 C   0  0  0  0  0  0  0  0  0  0  0  0
  -25.5412  -25.2923   26.0802 C   0  0  0  0  0  0  0  0  0  0  0  0
  -25.1342  -21.9405   22.7492 C   0  0  0  0  0  0  0  0  0  0  0  0
  -21.3796   -6.5544   23.9698 C   0  0  0  0  0  0  0  0  0  0  0  0
  -20.2629   -5.8009   23.6082 C   0  0  0  0  0  0  0  0  0  0  0  0
  -25.4911  -25.6338   23.6927 C   0  0  0  0  0  0  0  0  0  0  0  0
  -27.1838  -22.9745   23.5019 C   0  0  0  0  0  0  0  0  0  0  0  0
  -21.6717   -3.8631   23.2957 C   0  0  0  0  0  0  0  0  0  0  0  0
  -24.6608  -10.0396   22.0467 C   0  0  0  0  0  0  0  0  0  0  0  0
  -24.0827  -12.1756   20.7774 C   0  0  0  0  0  0  0  0  0  0  0  0
  -21.7971  -32.0604   27.6988 C   0  0  0  0  0  0  0  0  0  0  0  0
  -25.9223  -27.5079   25.1631 C   0  0  0  0  0  0  0  0  0  0  0  0
  -22.0360  -30.9008   26.9367 C   0  0  0  0  0  0  0  0  0  0  0  0
  -27.2182  -21.4450   21.6320 C   0  0  0  0  0  0  0  0  0  0  0  0
  -25.7715  -26.9979   23.8656 C   0  0  0  0  0  0  0  0  0  0  0  0
  -27.8900  -22.2994   22.5062 C   0  0  0  0  0  0  0  0  0  0  0  0
  -24.0487   -7.8028   23.5973 C   0  0  0  0  0  0  0  0  0  0  0  0
  -25.3750  -24.7864   24.7943 C   0  0  0  0  0  0  0  0  0  0  0  0
  -25.8059  -22.7950   23.6234 C   0  0  0  0  0  0  0  0  0  1  0  0
  -22.6424   -5.9624   23.9942 C   0  0  0  0  0  0  0  0  0  0  0  0
  -20.4090   -4.4552   23.2712 C   0  0  0  0  0  0  0  0  0  0  0  0
  -22.7885   -4.6168   23.6572 C   0  0  0  0  0  0  0  0  0  0  0  0
  -24.9775  -11.1952   21.2463 C   0  0  0  0  0  0  0  0  0  0  0  0
  -24.8716  -13.0512   20.0720 C   0  0  0  0  0  0  0  0  0  0  0  0
  -22.6653  -12.2852   20.9629 C   0  0  0  0  0  0  0  0  0  0  0  0
  -27.7223  -22.5269   18.8420 C   0  0  0  0  0  0  0  0  0  0  0  0
  -24.3388  -30.0776   24.1668 C   0  0  0  0  0  0  0  0  0  0  0  0
  -26.6719  -30.1620   21.9148 C   0  0  0  0  0  0  0  0  0  0  0  0
  -29.0352  -28.4696   20.1267 C   0  0  0  0  0  0  0  0  0  0  0  0
  -29.5290  -16.0847   19.5697 C   0  0  0  0  0  0  0  0  0  0  0  0
  -21.8334  -33.4363   27.0823 C   0  0  0  0  0  0  0  0  0  0  0  0
  -26.2474  -28.9607   25.3774 C   0  0  0  0  0  0  0  0  0  0  0  0
  -25.8941  -27.8769   22.6488 C   0  0  0  0  0  0  0  0  0  0  0  0
  -22.5588  -33.4833   25.7399 C   0  0  0  0  0  0  0  0  0  0  0  0
  -29.6883  -12.6698   18.5749 C   0  0  0  0  0  0  0  0  0  0  0  0
  -22.0990  -32.3373   24.8443 C   0  0  0  0  0  0  0  0  0  0  0  0
  -28.2221  -20.2621   18.0442 C   0  0  0  0  0  0  0  0  0  0  0  0
  -32.5890  -20.3452   22.9097 C   0  0  0  0  0  0  0  0  0  0  0  0
  -32.3703  -21.0414   21.5954 C   0  0  0  0  0  0  0  0  0  0  0  0
  -28.4068  -12.0618   19.1477 C   0  0  0  0  0  0  0  0  0  0  0  0
  -28.1250  -18.7598   18.2933 C   0  0  0  0  0  0  0  0  0  0  0  0
  -27.8838  -19.1753   20.7715 C   0  0  0  0  0  0  0  0  0  0  0  0
  -30.2787  -13.7245   19.5082 C   0  0  0  0  0  0  0  0  0  0  0  0
  -28.0610  -14.1840   20.4802 C   0  0  0  0  0  0  0  0  0  0  0  0
  -27.9671  -20.6975   20.5378 C   0  0  1  0  0  0  0  0  0  0  0  0
  -22.4245  -30.9786   25.4762 C   0  0  1  0  0  0  0  0  0  0  0  0
  -27.4850  -21.0699   19.1181 C   0  0  1  0  0  0  0  0  0  0  0  0
  -25.8229  -29.8465   24.2102 C   0  0  1  0  0  0  0  0  0  0  0  0
  -31.6581  -21.5232   22.8289 C   0  0  0  0  0  0  0  0  0  0  0  0
  -27.3980  -13.1549   19.5487 C   0  0  2  0  0  0  0  0  0  0  0  0
  -28.6341  -18.3965   19.6884 C   0  0  1  0  0  0  0  0  0  0  0  0
  -26.5113  -23.3611   18.5227 C   0  0  0  0  0  0  0  0  0  0  0  0
  -30.7591  -28.7995   18.3331 C   0  0  0  0  0  0  0  0  0  0  0  0
  -24.4642  -30.2363   19.8099 C   0  0  0  0  0  0  0  0  0  0  0  0
  -26.1759  -29.6109   18.0931 C   0  0  0  0  0  0  0  0  0  0  0  0
  -26.3969  -31.7551   19.3487 C   0  0  0  0  0  0  0  0  0  0  0  0
  -31.2363  -27.6585   21.9312 C   0  0  0  0  0  0  0  0  0  0  0  0
  -29.3648  -22.5071   22.3959 C   0  0  0  0  0  0  0  0  0  0  0  0
  -30.1574  -21.3251   22.9725 C   0  0  0  0  0  0  0  0  0  0  0  0
  -26.8503  -29.5703   20.5374 C   0  0  1  0  0  0  0  0  0  0  0  0
  -30.4904  -28.7840   19.8299 C   0  0  2  0  0  0  0  0  0  0  0  0
  -25.9675  -30.2767   19.4701 C   0  0  0  0  0  0  0  0  0  0  0  0
  -26.2383  -11.4256   20.8704 N   0  0  0  0  0  0  0  0  0  0  0  0
  -26.1414  -12.5608   20.1577 N   0  0  0  0  0  0  0  0  0  0  0  0
  -26.2067  -29.2916   22.9107 N   0  0  0  0  0  0  0  0  0  0  0  0
  -29.2716  -14.7323   19.8487 N   0  0  0  0  0  0  0  0  0  0  0  0
  -24.5961  -14.1849   19.3929 N   0  0  0  0  0  0  0  0  0  0  0  0
  -22.0117  -11.2995   21.7148 N   0  0  0  0  0  0  0  0  0  0  0  0
  -23.8274  -30.6659   25.3078 N   0  0  0  0  0  0  0  0  0  0  0  0
  -28.2809  -29.6166   20.2554 N   0  0  0  0  0  0  0  0  0  0  0  0
  -28.5194  -16.9736   19.9184 N   0  0  0  0  0  0  0  0  0  0  0  0
  -31.3788  -27.7645   20.4563 N   0  3  0  0  0  0  0  0  0  0  0  0
  -21.9956  -13.2204   20.4625 O   0  0  0  0  0  0  0  0  0  0  0  0
  -28.8509  -23.0147   18.8772 O   0  0  0  0  0  0  0  0  0  0  0  0
  -23.7049  -29.7480   23.1713 O   0  0  0  0  0  0  0  0  0  0  0  0
  -26.9425  -31.3509   22.1018 O   0  0  0  0  0  0  0  0  0  0  0  0
  -28.6095  -27.3213   20.2300 O   0  0  0  0  0  0  0  0  0  0  0  0
  -30.5783  -16.4708   19.0437 O   0  0  0  0  0  0  0  0  0  0  0  0
  -23.7500   -6.7117   24.3541 O   0  0  0  0  0  0  0  0  0  0  0  0
  -25.1045  -23.4654   24.6116 O   0  0  0  0  0  0  0  0  0  1  0  0
  -19.3363   -3.7313   22.9256 F   0  0  0  0  0  0  0  0  0  0  0  0
  -23.9989   -4.0422   23.6800 F   0  0  0  0  0  0  0  0  0  0  0  0
  1  2  1  0  0  0  0
  1  5  2  0  0  0  0
  2  6  2  0  0  0  0
  3  9  2  0  0  0  0
  3 18  1  0  0  0  0
  4 10  1  0  0  0  0
  4 18  2  0  0  0  0
  5 20  1  0  0  0  0
  6 22  1  0  0  0  0
  7 11  2  0  0  0  0
  7 21  1  0  0  0  0
  8 12  2  0  0  0  0
  8 23  1  0  0  0  0
  9 26  1  0  0  0  0
 10 26  2  0  0  0  0
 11 27  1  0  0  0  0
 12 28  1  0  0  0  0
 13 14  2  0  0  0  0
 13 29  1  0  0  0  0
 14 30  1  0  0  0  0
 15 24  1  0  0  0  0
 15 27  2  0  0  0  0
 16 25  1  0  0  0  0
 16 28  2  0  0  0  0
 17 30  2  0  0  0  0
 17 31  1  0  0  0  0
 18 32  1  0  0  0  0
 19 32  1  0  0  0  0
 19 33  2  0  0  0  0
 19 34  1  0  0  0  0
 20 22  2  0  0  0  0
 20 40  1  0  0  0  0
 21 24  2  0  0  0  0
 21 41  1  0  0  0  0
 22 55  1  0  0  0  0
 23 25  2  0  0  0  0
 23 54  1  0  0  0  0
 24 42  1  0  0  0  0
 25 67  1  0  0  0  0
 26 88  1  0  0  0  0
 27 89  1  0  0  0  0
 28 89  1  0  0  0  0
 29 31  2  0  0  0  0
 29 88  1  0  0  0  0
 30 90  1  0  0  0  0
 31 91  1  0  0  0  0
 32 72  2  0  0  0  0
 33 73  1  0  0  0  0
 33 76  1  0  0  0  0
 34 77  1  0  0  0  0
 34 82  2  0  0  0  0
 35 56  1  0  0  0  0
 35 61  1  0  0  0  0
 35 83  2  0  0  0  0
 36 57  1  0  0  0  0
 36 78  1  0  0  0  0
 36 84  2  0  0  0  0
 37 69  1  0  0  0  0
 37 74  1  0  0  0  0
 37 85  2  0  0  0  0
 38 70  1  0  0  0  0
 38 79  1  0  0  0  0
 38 86  2  0  0  0  0
 39 75  1  0  0  0  0
 39 80  1  0  0  0  0
 39 87  2  0  0  0  0
 40 43  1  0  0  0  0
 41 57  1  0  0  0  0
 42 74  1  0  0  0  0
 43 45  1  0  0  0  0
 44 49  1  0  0  0  0
 44 52  1  0  0  0  0
 45 55  1  0  0  0  0
 46 50  1  0  0  0  0
 46 56  1  0  0  0  0
 47 48  1  0  0  0  0
 47 58  1  0  0  0  0
 48 58  1  0  0  0  0
 49 59  1  0  0  0  0
 50 60  1  0  0  0  0
 51 54  1  0  0  0  0
 51 60  1  0  0  0  0
 52 75  1  0  0  0  0
 53 59  1  0  0  0  0
 53 75  1  0  0  0  0
 54 56  1  0  0  0  0
 55 78  1  0  0  0  0
 57 74  1  0  0  0  0
 58 68  1  0  0  0  0
 59 73  1  0  0  0  0
 60 80  1  0  0  0  0
 62 70  1  0  0  0  0
 63 71  1  0  0  0  0
 64 71  1  0  0  0  0
 65 71  1  0  0  0  0
 66 81  1  0  0  0  0
 67 68  1  0  0  0  0
 69 71  1  0  0  0  0
 69 79  1  0  0  0  0
 70 81  1  0  0  0  0
 72 73  1  0  0  0  0
M  CHG  1  81   1
M  ISO  4  28 101  39 100  80 100  89 101
M  END
> <Batch ID>
0135

> <Smiles>
CNC(C)C(=O)NC(C(=O)N1Cc2cc([101O:1][101c:1]3ccc(C4CC([100NH:0][100C:0](=O)N5CCCC(n6nc(-c7ccc(Oc8ccc(F)cc8F)cc7)c(C(N)=O)c6N)C5)CCC4C(C)=O)c(CCC4CC4)c3)ccc2CC1C(=O)NC1CCCc2ccccc21)C(C)(C)C

> <Shape>
0.244

> <Color>
0.112

> <Negative vol penalty>
0.000

$$$$

  -OEChem-04052321003D

 84 93  0     1  0  0  0  0  0999 V2000
  -23.2748   -7.9253   21.8472 C   0  0  0  0  0  0  0  0  0  0  0  0
  -24.2049   -8.9185   21.5575 C   0  0  0  0  0  0  0  0  0  0  0  0
  -23.7843  -31.1993   22.5879 C   0  0  0  0  0  0  0  0  0  0  0  0
  -24.0439  -29.0009   23.5556 C   0  0  0  0  0  0  0  0  0  0  0  0
  -21.9111   -8.2051   21.7700 C   0  0  0  0  0  0  0  0  0  0  0  0
  -23.7718  -10.1918   21.1893 C   0  0  0  0  0  0  0  0  0  0  0  0
  -26.4674  -15.5263   22.5241 C   0  0  0  0  0  0  0  0  0  0  0  0
  -30.5280  -22.6767   18.5167 C   0  0  0  0  0  0  0  0  0  0  0  0
  -29.8186  -22.4477   20.8148 C   0  0  0  0  0  0  0  0  0  0  0  0
  -30.4636  -24.0650   18.6351 C   0  0  0  0  0  0  0  0  0  0  0  0
  -29.7542  -23.8360   20.9333 C   0  0  0  0  0  0  0  0  0  0  0  0
  -22.3999  -31.0950   22.7222 C   0  0  0  0  0  0  0  0  0  0  0  0
  -22.6595  -28.8965   23.6900 C   0  0  0  0  0  0  0  0  0  0  0  0
  -27.3169  -16.3565   21.7941 C   0  0  0  0  0  0  0  0  0  0  0  0
  -20.0094  -28.2027   21.7084 C   0  0  0  0  0  0  0  0  0  0  0  0
  -19.4095  -27.0038   21.3232 C   0  0  0  0  0  0  0  0  0  0  0  0
  -25.4236  -17.6902   21.1190 C   0  0  0  0  0  0  0  0  0  0  0  0
  -18.5726  -26.7010   23.5693 C   0  0  0  0  0  0  0  0  0  0  0  0
  -24.6063  -30.1523   23.0045 C   0  0  0  0  0  0  0  0  0  0  0  0
  -26.9454  -30.7803   23.8058 C   0  0  0  0  0  0  0  0  0  0  0  0
  -21.4611   -9.4852   21.4101 C   0  0  0  0  0  0  0  0  0  0  0  0
  -25.0860  -15.7658   22.5482 C   0  0  0  0  0  0  0  0  0  0  0  0
  -22.4008  -10.4886   21.1059 C   0  0  0  0  0  0  0  0  0  0  0  0
  -24.5590  -16.8630   21.8521 C   0  0  0  0  0  0  0  0  0  0  0  0
  -30.2054  -21.8680   19.6065 C   0  0  0  0  0  0  0  0  0  0  0  0
  -30.0767  -24.6447   19.8434 C   0  0  0  0  0  0  0  0  0  0  0  0
  -21.8375  -29.9436   23.2733 C   0  0  0  0  0  0  0  0  0  0  0  0
  -26.7947  -17.4369   21.0891 C   0  0  0  0  0  0  0  0  0  0  0  0
  -19.8910  -28.6507   23.0241 C   0  0  0  0  0  0  0  0  0  0  0  0
  -18.6910  -26.2530   22.2537 C   0  0  0  0  0  0  0  0  0  0  0  0
  -19.1726  -27.8999   23.9545 C   0  0  0  0  0  0  0  0  0  0  0  0
  -26.0365  -30.2592   22.8655 C   0  0  0  0  0  0  0  0  0  0  0  0
  -28.1726  -30.6582   23.2012 C   0  0  0  0  0  0  0  0  0  0  0  0
  -26.7021  -31.3258   25.1092 C   0  0  0  0  0  0  0  0  0  0  0  0
  -22.5120  -14.1452   21.6250 C   0  0  0  0  0  0  0  0  0  0  0  0
  -20.9368  -16.5963   23.0509 C   0  0  0  0  0  0  0  0  0  0  0  0
  -20.9691  -19.8469   24.0897 C   0  0  0  0  0  0  0  0  0  0  0  0
  -30.2984  -27.0012   18.9808 C   0  0  0  0  0  0  0  0  0  0  0  0
  -19.9769   -9.7269   21.2943 C   0  0  0  0  0  0  0  0  0  0  0  0
  -24.1863  -14.8767   23.3622 C   0  0  0  0  0  0  0  0  0  0  0  0
  -23.0856  -17.1752   21.8623 C   0  0  0  0  0  0  0  0  0  0  0  0
  -19.6015  -11.2062   21.2604 C   0  0  0  0  0  0  0  0  0  0  0  0
  -30.2223  -30.5592   18.8742 C   0  0  0  0  0  0  0  0  0  0  0  0
  -20.5022  -11.9634   20.2898 C   0  0  0  0  0  0  0  0  0  0  0  0
  -28.9645  -18.0051   15.9476 C   0  0  0  0  0  0  0  0  0  0  0  0
  -28.9108  -16.6342   16.5621 C   0  0  0  0  0  0  0  0  0  0  0  0
  -29.2275  -30.9337   19.9753 C   0  0  0  0  0  0  0  0  0  0  0  0
  -29.8033  -29.2866   18.1402 C   0  0  0  0  0  0  0  0  0  0  0  0
  -28.5414  -28.5049   20.1064 C   0  0  0  0  0  0  0  0  0  0  0  0
  -21.9702  -11.8889   20.7269 C   0  0  1  0  0  0  0  0  0  0  0  0
  -22.7334  -14.9114   22.8984 C   0  0  1  0  0  0  0  0  0  0  0  0
  -28.4330  -17.8270   17.3428 C   0  0  0  0  0  0  0  0  0  0  0  0
  -28.9549  -29.7443   20.9168 C   0  0  2  0  0  0  0  0  0  0  0  0
  -19.5221  -21.5787   25.1872 C   0  0  0  0  0  0  0  0  0  0  0  0
  -19.3969  -16.9594   20.4419 C   0  0  0  0  0  0  0  0  0  0  0  0
  -18.6947  -19.2218   21.2525 C   0  0  0  0  0  0  0  0  0  0  0  0
  -18.0100  -17.1799   22.5113 C   0  0  0  0  0  0  0  0  0  0  0  0
  -22.8358  -20.1299   26.3688 C   0  0  0  0  0  0  0  0  0  0  0  0
  -30.2747  -20.3747   19.4790 C   0  0  0  0  0  0  0  0  0  0  0  0
  -28.8028  -17.6582   19.8342 C   0  0  0  0  0  0  0  0  0  1  0  0
  -20.4194  -17.9409   22.6000 C   0  0  1  0  0  0  0  0  0  0  0  0
  -20.5603  -20.4887   25.4033 C   0  0  2  0  0  0  0  0  0  0  0  0
  -29.2198  -18.3232   18.5211 C   0  0  2  0  0  0  0  0  0  0  0  0
  -19.1578  -17.8187   21.6995 C   0  0  0  0  0  0  0  0  0  0  0  0
  -26.6352  -29.8377   21.7484 N   0  0  0  0  0  0  0  0  0  0  0  0
  -27.9335  -30.0937   21.9829 N   0  0  0  0  0  0  0  0  0  0  0  0
  -22.2462  -16.2729   22.6677 N   0  0  0  0  0  0  0  0  0  0  0  0
  -29.5665  -28.2019   19.0953 N   0  0  0  0  0  0  0  0  0  0  0  0
  -29.4222  -30.9797   23.5982 N   0  0  0  0  0  0  0  0  0  0  0  0
  -25.3818  -31.3764   25.5765 N   0  0  0  0  0  0  0  0  0  0  0  0
  -30.0115  -26.0550   19.9641 N   0  0  0  0  0  0  0  0  0  0  0  0
  -22.2204  -12.8081   21.8164 N   0  0  0  0  0  0  0  0  0  0  0  0
  -20.2145  -18.7268   23.8120 N   0  0  0  0  0  0  0  0  0  0  0  0
  -21.7450  -21.0945   26.0746 N   0  3  0  0  0  0  0  0  0  0  0  0
  -29.1462  -19.8045   18.7020 N   0  3  0  0  0  0  0  0  0  0  0  0
  -27.6264  -31.7707   25.8312 O   0  0  0  0  0  0  0  0  0  0  0  0
  -22.5980  -14.7245   20.5486 O   0  0  0  0  0  0  0  0  0  0  0  0
  -20.2087  -15.8630   23.7246 O   0  0  0  0  0  0  0  0  0  0  0  0
  -21.8654  -20.2966   23.3791 O   0  0  0  0  0  0  0  0  0  0  0  0
  -31.1390  -26.8357   18.0930 O   0  0  0  0  0  0  0  0  0  0  0  0
  -20.4866  -29.8415   23.4047 O   0  0  0  0  0  0  0  0  0  0  0  0
  -27.6216  -18.2485   20.3752 O   0  0  0  0  0  0  0  0  0  1  0  0
  -18.1136  -25.1025   21.8833 F   0  0  0  0  0  0  0  0  0  0  0  0
  -19.0543  -28.3258   25.2196 F   0  0  0  0  0  0  0  0  0  0  0  0
  1  2  1  0  0  0  0
  1  5  2  0  0  0  0
  2  6  2  0  0  0  0
  3 12  2  0  0  0  0
  3 19  1  0  0  0  0
  4 13  1  0  0  0  0
  4 19  2  0  0  0  0
  5 21  1  0  0  0  0
  6 23  1  0  0  0  0
  7 14  2  0  0  0  0
  7 22  1  0  0  0  0
  8 10  2  0  0  0  0
  8 25  1  0  0  0  0
  9 11  1  0  0  0  0
  9 25  2  0  0  0  0
 10 26  1  0  0  0  0
 11 26  2  0  0  0  0
 12 27  1  0  0  0  0
 13 27  2  0  0  0  0
 14 28  1  0  0  0  0
 15 16  2  0  0  0  0
 15 29  1  0  0  0  0
 16 30  1  0  0  0  0
 17 24  1  0  0  0  0
 17 28  2  0  0  0  0
 18 30  2  0  0  0  0
 18 31  1  0  0  0  0
 19 32  1  0  0  0  0
 20 32  1  0  0  0  0
 20 33  2  0  0  0  0
 20 34  1  0  0  0  0
 21 23  2  0  0  0  0
 21 39  1  0  0  0  0
 22 24  2  0  0  0  0
 22 40  1  0  0  0  0
 23 50  1  0  0  0  0
 24 41  1  0  0  0  0
 25 59  1  0  0  0  0
 26 71  1  0  0  0  0
 27 81  1  0  0  0  0
 28 82  1  0  0  0  0
 29 31  2  0  0  0  0
 29 81  1  0  0  0  0
 30 83  1  0  0  0  0
 31 84  1  0  0  0  0
 32 65  2  0  0  0  0
 33 66  1  0  0  0  0
 33 69  1  0  0  0  0
 34 70  1  0  0  0  0
 34 76  2  0  0  0  0
 35 51  1  0  0  0  0
 35 72  1  0  0  0  0
 35 77  2  0  0  0  0
 36 61  1  0  0  0  0
 36 67  1  0  0  0  0
 36 78  2  0  0  0  0
 37 62  1  0  0  0  0
 37 73  1  0  0  0  0
 37 79  2  0  0  0  0
 38 68  1  0  0  0  0
 38 71  1  0  0  0  0
 38 80  2  0  0  0  0
 39 42  1  0  0  0  0
 40 51  1  0  0  0  0
 41 67  1  0  0  0  0
 42 44  1  0  0  0  0
 43 47  1  0  0  0  0
 43 48  1  0  0  0  0
 44 50  1  0  0  0  0
 45 46  1  0  0  0  0
 45 52  1  0  0  0  0
 46 52  1  0  0  0  0
 47 53  1  0  0  0  0
 48 68  1  0  0  0  0
 49 53  1  0  0  0  0
 49 68  1  0  0  0  0
 50 72  1  0  0  0  0
 51 67  1  0  0  0  0
 52 63  1  0  0  0  0
 53 66  1  0  0  0  0
 54 62  1  0  0  0  0
 55 64  1  0  0  0  0
 56 64  1  0  0  0  0
 57 64  1  0  0  0  0
 58 74  1  0  0  0  0
 59 75  1  0  0  0  0
 60 63  1  0  0  0  0
 60 82  1  0  0  0  0
 61 64  1  0  0  0  0
 61 73  1  0  0  0  0
 62 74  1  0  0  0  0
 63 75  1  0  0  0  0
 65 66  1  0  0  0  0
M  CHG  2  74   1  75   1
M  ISO  4  38 100  60 101  71 100  82 101
M  END
> <Batch ID>
0135

> <Smiles>
CNC(C)C(=O)NC(C(=O)N1Cc2cc([101O:1][101CH2:1]C(NCc3ccc([100NH:0][100C:0](=O)N4CCCC(n5nc(-c6ccc(Oc7ccc(F)cc7F)cc6)c(C(N)=O)c5N)C4)cc3)C3CC3)ccc2CC1C(=O)NC1CCCc2ccccc21)C(C)(C)C

> <Shape>
0.258

> <Color>
0.070

> <Negative vol penalty>
0.000

$$$$

  -OEChem-04052321003D

 84 93  0     1  0  0  0  0  0999 V2000
  -23.6192   -8.0228   21.5383 C   0  0  0  0  0  0  0  0  0  0  0  0
  -24.2565   -9.0410   20.8366 C   0  0  0  0  0  0  0  0  0  0  0  0
  -23.4119  -29.3029   20.1458 C   0  0  0  0  0  0  0  0  0  0  0  0
  -23.5650  -27.8263   22.0519 C   0  0  0  0  0  0  0  0  0  0  0  0
  -22.3595   -8.2432   22.0938 C   0  0  0  0  0  0  0  0  0  0  0  0
  -23.6341  -10.2801   20.6891 C   0  0  0  0  0  0  0  0  0  0  0  0
  -26.7867  -14.1512   21.5378 C   0  0  0  0  0  0  0  0  0  0  0  0
  -22.0810  -29.5743   20.4630 C   0  0  0  0  0  0  0  0  0  0  0  0
  -22.2340  -28.0977   22.3691 C   0  0  0  0  0  0  0  0  0  0  0  0
  -27.6754  -14.4842   20.5165 C   0  0  0  0  0  0  0  0  0  0  0  0
  -19.1730  -27.1361   21.3032 C   0  0  0  0  0  0  0  0  0  0  0  0
  -18.3541  -26.0582   21.6394 C   0  0  0  0  0  0  0  0  0  0  0  0
  -26.2247  -16.2934   19.8522 C   0  0  0  0  0  0  0  0  0  0  0  0
  -28.3635  -21.1143   21.8663 C   0  0  0  0  0  0  0  0  0  0  0  0
  -29.5112  -19.0017   21.9294 C   0  0  0  0  0  0  0  0  0  0  0  0
  -17.9505  -27.0414   23.8091 C   0  0  0  0  0  0  0  0  0  0  0  0
  -24.1539  -28.4289   20.9403 C   0  0  0  0  0  0  0  0  0  0  0  0
  -26.6683  -28.8427   21.0600 C   0  0  0  0  0  0  0  0  0  0  0  0
  -21.7255   -9.4887   21.9614 C   0  0  0  0  0  0  0  0  0  0  0  0
  -25.6029  -14.8812   21.7174 C   0  0  0  0  0  0  0  0  0  0  0  0
  -22.3642  -10.5170   21.2423 C   0  0  0  0  0  0  0  0  0  0  0  0
  -25.3238  -15.9692   20.8781 C   0  0  0  0  0  0  0  0  0  0  0  0
  -28.7881  -19.9972   22.5770 C   0  0  0  0  0  0  0  0  0  0  0  0
  -21.4920  -28.9718   21.5746 C   0  0  0  0  0  0  0  0  0  0  0  0
  -27.3931  -15.5536   19.6717 C   0  0  0  0  0  0  0  0  0  0  0  0
  -19.3807  -28.1667   22.2200 C   0  0  0  0  0  0  0  0  0  0  0  0
  -17.7428  -26.0108   22.8923 C   0  0  0  0  0  0  0  0  0  0  0  0
  -18.7695  -28.1193   23.4729 C   0  0  0  0  0  0  0  0  0  0  0  0
  -25.5286  -28.1476   20.6129 C   0  0  0  0  0  0  0  0  0  0  0  0
  -28.6853  -21.1878   20.5206 C   0  0  0  0  0  0  0  0  0  0  0  0
  -29.7813  -19.1696   20.5808 C   0  0  0  0  0  0  0  0  0  0  0  0
  -27.7224  -28.1891   20.4701 C   0  0  0  0  0  0  0  0  0  0  0  0
  -26.7653  -29.9775   21.9308 C   0  0  0  0  0  0  0  0  0  0  0  0
  -22.5023  -14.1927   21.5931 C   0  0  0  0  0  0  0  0  0  0  0  0
  -22.1805  -17.2442   22.6451 C   0  0  0  0  0  0  0  0  0  0  0  0
  -23.5097  -20.3774   22.8967 C   0  0  0  0  0  0  0  0  0  0  0  0
  -28.4555  -22.6116   18.4552 C   0  0  0  0  0  0  0  0  0  0  0  0
  -20.3434   -9.6647   22.5389 C   0  0  0  0  0  0  0  0  0  0  0  0
  -24.6676  -14.5259   22.8405 C   0  0  0  0  0  0  0  0  0  0  0  0
  -24.0764  -16.7973   21.0416 C   0  0  0  0  0  0  0  0  0  0  0  0
  -19.9146  -11.1249   22.6581 C   0  0  0  0  0  0  0  0  0  0  0  0
  -28.8336  -25.6181   16.5855 C   0  0  0  0  0  0  0  0  0  0  0  0
  -28.8801  -20.9690   24.9688 C   0  0  0  0  0  0  0  0  0  0  0  0
  -29.5937  -19.6538   25.0083 C   0  0  0  0  0  0  0  0  0  0  0  0
  -20.2258  -11.8797   21.3696 C   0  0  0  0  0  0  0  0  0  0  0  0
  -28.1380  -26.6723   17.4497 C   0  0  0  0  0  0  0  0  0  0  0  0
  -28.1108  -24.2733   16.6399 C   0  0  0  0  0  0  0  0  0  0  0  0
  -27.1750  -24.8061   18.8557 C   0  0  0  0  0  0  0  0  0  0  0  0
  -28.4703  -19.8667   24.0266 C   0  0  0  0  0  0  0  0  0  0  0  0
  -21.7321  -11.8826   21.0821 C   0  0  1  0  0  0  0  0  0  0  0  0
  -23.2419  -15.0168   22.6087 C   0  0  1  0  0  0  0  0  0  0  0  0
  -27.9033  -26.1597   18.8842 C   0  0  2  0  0  0  0  0  0  0  0  0
  -23.7039  -22.7734   23.6169 C   0  0  0  0  0  0  0  0  0  0  0  0
  -20.3027  -17.7260   20.2889 C   0  0  0  0  0  0  0  0  0  0  0  0
  -20.5824  -20.1863   20.6589 C   0  0  0  0  0  0  0  0  0  0  0  0
  -19.5654  -18.7666   22.4402 C   0  0  0  0  0  0  0  0  0  0  0  0
  -24.9348  -19.6358   25.3823 C   0  0  0  0  0  0  0  0  0  0  0  0
  -30.4960  -16.5973   18.1243 C   0  0  0  0  0  0  0  0  0  0  0  0
  -29.6409  -15.6050   18.8966 C   0  0  0  0  0  0  0  0  0  1  0  0
  -30.2134  -18.0335   18.5367 C   0  0  0  0  0  0  0  0  0  0  0  0
  -22.0461  -18.5946   21.9836 C   0  0  1  0  0  0  0  0  0  0  0  0
  -23.6393  -21.3249   24.0756 C   0  0  2  0  0  0  0  0  0  0  0  0
  -20.6468  -18.8018   21.3383 C   0  0  0  0  0  0  0  0  0  0  0  0
  -25.8303  -27.1306   19.8014 N   0  0  0  0  0  0  0  0  0  0  0  0
  -29.3857  -20.2408   19.8572 N   0  0  0  0  0  0  0  0  0  0  0  0
  -27.1715  -27.1818   19.7338 N   0  0  0  0  0  0  0  0  0  0  0  0
  -23.1901  -16.4066   22.1504 N   0  0  0  0  0  0  0  0  0  0  0  0
  -27.9276  -23.8490   18.0296 N   0  0  0  0  0  0  0  0  0  0  0  0
  -29.0576  -28.3835   20.5144 N   0  0  0  0  0  0  0  0  0  0  0  0
  -25.5838  -30.5251   22.4490 N   0  0  0  0  0  0  0  0  0  0  0  0
  -28.2477  -22.3297   19.8049 N   0  0  0  0  0  0  0  0  0  0  0  0
  -22.4045  -12.8533   21.9187 N   0  0  0  0  0  0  0  0  0  0  0  0
  -22.3874  -19.5831   23.0008 N   0  0  0  0  0  0  0  0  0  0  0  0
  -24.8757  -21.0217   24.8504 N   0  3  0  0  0  0  0  0  0  0  0  0
  -27.8661  -30.5009   22.2272 O   0  0  0  0  0  0  0  0  0  0  0  0
  -22.0523  -14.7323   20.5891 O   0  0  0  0  0  0  0  0  0  0  0  0
  -21.4224  -16.9466   23.5715 O   0  0  0  0  0  0  0  0  0  0  0  0
  -24.3209  -20.3476   21.9738 O   0  0  0  0  0  0  0  0  0  0  0  0
  -29.0719  -21.8700   17.6857 O   0  0  0  0  0  0  0  0  0  0  0  0
  -20.1934  -29.2366   21.8845 O   0  0  0  0  0  0  0  0  0  0  0  0
  -28.2586  -15.8804   18.6737 O   0  0  0  0  0  0  0  0  0  1  0  0
  -30.4924  -18.2019   19.9200 O   0  0  0  0  0  0  0  0  0  0  0  0
  -16.9552  -24.9764   23.2144 F   0  0  0  0  0  0  0  0  0  0  0  0
  -18.9644  -29.1070   24.3574 F   0  0  0  0  0  0  0  0  0  0  0  0
  1  2  1  0  0  0  0
  1  5  2  0  0  0  0
  2  6  2  0  0  0  0
  3  8  2  0  0  0  0
  3 17  1  0  0  0  0
  4  9  1  0  0  0  0
  4 17  2  0  0  0  0
  5 19  1  0  0  0  0
  6 21  1  0  0  0  0
  7 10  2  0  0  0  0
  7 20  1  0  0  0  0
  8 24  1  0  0  0  0
  9 24  2  0  0  0  0
 10 25  1  0  0  0  0
 11 12  2  0  0  0  0
 11 26  1  0  0  0  0
 12 27  1  0  0  0  0
 13 22  1  0  0  0  0
 13 25  2  0  0  0  0
 14 23  1  0  0  0  0
 14 30  2  0  0  0  0
 15 23  2  0  0  0  0
 15 31  1  0  0  0  0
 16 27  2  0  0  0  0
 16 28  1  0  0  0  0
 17 29  1  0  0  0  0
 18 29  1  0  0  0  0
 18 32  2  0  0  0  0
 18 33  1  0  0  0  0
 19 21  2  0  0  0  0
 19 38  1  0  0  0  0
 20 22  2  0  0  0  0
 20 39  1  0  0  0  0
 21 50  1  0  0  0  0
 22 40  1  0  0  0  0
 23 49  1  0  0  0  0
 24 80  1  0  0  0  0
 25 81  1  0  0  0  0
 26 28  2  0  0  0  0
 26 80  1  0  0  0  0
 27 83  1  0  0  0  0
 28 84  1  0  0  0  0
 29 64  2  0  0  0  0
 30 65  1  0  0  0  0
 30 71  1  0  0  0  0
 31 65  2  0  0  0  0
 31 82  1  0  0  0  0
 32 66  1  0  0  0  0
 32 69  1  0  0  0  0
 33 70  1  0  0  0  0
 33 75  2  0  0  0  0
 34 51  1  0  0  0  0
 34 72  1  0  0  0  0
 34 76  2  0  0  0  0
 35 61  1  0  0  0  0
 35 67  1  0  0  0  0
 35 77  2  0  0  0  0
 36 62  1  0  0  0  0
 36 73  1  0  0  0  0
 36 78  2  0  0  0  0
 37 68  1  0  0  0  0
 37 71  1  0  0  0  0
 37 79  2  0  0  0  0
 38 41  1  0  0  0  0
 39 51  1  0  0  0  0
 40 67  1  0  0  0  0
 41 45  1  0  0  0  0
 42 46  1  0  0  0  0
 42 47  1  0  0  0  0
 43 44  1  0  0  0  0
 43 49  1  0  0  0  0
 44 49  1  0  0  0  0
 45 50  1  0  0  0  0
 46 52  1  0  0  0  0
 47 68  1  0  0  0  0
 48 52  1  0  0  0  0
 48 68  1  0  0  0  0
 50 72  1  0  0  0  0
 51 67  1  0  0  0  0
 52 66  1  0  0  0  0
 53 62  1  0  0  0  0
 54 63  1  0  0  0  0
 55 63  1  0  0  0  0
 56 63  1  0  0  0  0
 57 74  1  0  0  0  0
 58 59  1  0  0  0  0
 58 60  1  0  0  0  0
 59 81  1  0  0  0  0
 60 82  1  0  0  0  0
 61 63  1  0  0  0  0
 61 73  1  0  0  0  0
 62 74  1  0  0  0  0
 64 66  1  0  0  0  0
M  CHG  1  74   1
M  ISO  4  37 100  59 101  71 100  81 101
M  END
> <Batch ID>
0135

> <Smiles>
CNC(C)C(=O)NC(C(=O)N1Cc2cc([101O:1][101CH2:1]CCOc3cc(C4CC4)cc([100NH:0][100C:0](=O)N4CCCC(n5nc(-c6ccc(Oc7ccc(F)cc7F)cc6)c(C(N)=O)c5N)C4)n3)ccc2CC1C(=O)NC1CCCc2ccccc21)C(C)(C)C

> <Shape>
0.250

> <Color>
0.110

> <Negative vol penalty>
0.000

$$$$

  -OEChem-04052321003D

 87 96  0     1  0  0  0  0  0999 V2000
  -31.5335  -21.2846   17.0746 C   0  0  0  0  0  0  0  0  0  0  0  0
  -31.2127  -21.5790   18.3959 C   0  0  0  0  0  0  0  0  0  0  0  0
  -25.9274  -14.4283   20.8885 C   0  0  0  0  0  0  0  0  0  0  0  0
  -25.4468  -16.7858   20.6689 C   0  0  0  0  0  0  0  0  0  0  0  0
  -31.3973  -22.2631   16.0908 C   0  0  0  0  0  0  0  0  0  0  0  0
  -30.7565  -22.8525   18.7343 C   0  0  0  0  0  0  0  0  0  0  0  0
  -26.7642  -22.7222   21.8472 C   0  0  0  0  0  0  0  0  0  0  0  0
  -24.5606  -14.1502   20.8948 C   0  0  0  0  0  0  0  0  0  0  0  0
  -24.0799  -16.5078   20.6752 C   0  0  0  0  0  0  0  0  0  0  0  0
  -27.0150  -22.4621   23.1938 C   0  0  0  0  0  0  0  0  0  0  0  0
  -22.0612  -13.8892   18.6325 C   0  0  0  0  0  0  0  0  0  0  0  0
  -21.6114  -12.8306   17.8435 C   0  0  0  0  0  0  0  0  0  0  0  0
  -26.8456  -24.8199   23.6746 C   0  0  0  0  0  0  0  0  0  0  0  0
  -20.7521  -11.7273   19.8136 C   0  0  0  0  0  0  0  0  0  0  0  0
  -26.3705  -15.7461   20.7756 C   0  0  0  0  0  0  0  0  0  0  0  0
  -28.7408  -15.5690   19.8494 C   0  0  0  0  0  0  0  0  0  0  0  0
  -30.9300  -23.5463   16.4157 C   0  0  0  0  0  0  0  0  0  0  0  0
  -26.5627  -24.0365   21.4017 C   0  0  0  0  0  0  0  0  0  0  0  0
  -30.6151  -23.8495   17.7542 C   0  0  0  0  0  0  0  0  0  0  0  0
  -26.5899  -25.0938   22.3223 C   0  0  0  0  0  0  0  0  0  0  0  0
  -23.6368  -15.1899   20.7881 C   0  0  0  0  0  0  0  0  0  0  0  0
  -27.0586  -23.5113   24.1072 C   0  0  0  0  0  0  0  0  0  0  0  0
  -21.8565  -13.8668   20.0121 C   0  0  0  0  0  0  0  0  0  0  0  0
  -20.9568  -11.7496   18.4340 C   0  0  0  0  0  0  0  0  0  0  0  0
  -21.2019  -12.7859   20.6027 C   0  0  0  0  0  0  0  0  0  0  0  0
  -27.7823  -16.0340   20.7696 C   0  0  0  0  0  0  0  0  0  0  0  0
  -29.9234  -16.1219   20.2764 C   0  0  0  0  0  0  0  0  0  0  0  0
  -28.5769  -14.7137   18.7103 C   0  0  0  0  0  0  0  0  0  0  0  0
  -28.0612  -25.9722   19.3741 C   0  0  0  0  0  0  0  0  0  0  0  0
  -30.8379  -23.9044   26.8001 C   0  0  0  0  0  0  0  0  0  0  0  0
  -25.5300  -27.9129   19.9649 C   0  0  0  0  0  0  0  0  0  0  0  0
  -23.0020  -28.8169   22.0717 C   0  0  0  0  0  0  0  0  0  0  0  0
  -30.8825  -21.0259   23.6357 C   0  0  0  0  0  0  0  0  0  0  0  0
  -30.8442  -24.5852   15.3258 C   0  0  0  0  0  0  0  0  0  0  0  0
  -26.2668  -24.2977   19.9503 C   0  0  0  0  0  0  0  0  0  0  0  0
  -26.3600  -26.5206   21.8983 C   0  0  0  0  0  0  0  0  0  0  0  0
  -29.9979  -25.7977   15.7052 C   0  0  0  0  0  0  0  0  0  0  0  0
  -30.9039  -17.3474   24.7527 C   0  0  0  0  0  0  0  0  0  0  0  0
  -30.3665  -26.2902   17.1011 C   0  0  0  0  0  0  0  0  0  0  0  0
  -26.4538  -21.9280   28.0730 C   0  0  0  0  0  0  0  0  0  0  0  0
  -31.2231  -16.8267   23.3546 C   0  0  0  0  0  0  0  0  0  0  0  0
  -26.6675  -21.8991   29.5851 C   0  0  0  0  0  0  0  0  0  0  0  0
  -33.2196  -23.3704   24.0072 C   0  0  0  0  0  0  0  0  0  0  0  0
  -28.9698  -22.8973   29.2827 C   0  0  0  0  0  0  0  0  0  0  0  0
  -31.2258  -18.8342   24.8683 C   0  0  0  0  0  0  0  0  0  0  0  0
  -29.8632  -18.9302   22.7810 C   0  0  0  0  0  0  0  0  0  0  0  0
  -33.5048  -24.7730   24.5070 C   0  0  0  0  0  0  0  0  0  0  0  0
  -30.0935  -25.2118   18.1566 C   0  0  1  0  0  0  0  0  0  0  0  0
  -26.5863  -25.7269   19.5231 C   0  0  1  0  0  0  0  0  0  0  0  0
  -32.1107  -23.5544   26.1080 C   0  0  1  0  0  0  0  0  0  0  0  0
  -27.7815  -21.8302   27.3015 C   0  0  2  0  0  0  0  0  0  0  0  0
  -30.5654  -17.6715   22.2417 C   0  0  2  0  0  0  0  0  0  0  0  0
  -31.9088  -23.0246   24.6954 C   0  0  2  0  0  0  0  0  0  0  0  0
  -28.7632  -22.9291   27.7625 C   0  0  2  0  0  0  0  0  0  0  0  0
  -27.6342  -22.9968   30.0157 C   0  0  2  0  0  0  0  0  0  0  0  0
  -21.1213  -30.4626   22.2998 C   0  0  0  0  0  0  0  0  0  0  0  0
  -27.5336  -30.0999   20.6809 C   0  0  0  0  0  0  0  0  0  0  0  0
  -25.6669  -31.3524   21.7830 C   0  0  0  0  0  0  0  0  0  0  0  0
  -25.5749  -30.8794   19.3355 C   0  0  0  0  0  0  0  0  0  0  0  0
  -20.9732  -26.6637   22.1502 C   0  0  0  0  0  0  0  0  0  0  0  0
  -27.5073  -21.8983   25.7962 C   0  0  0  0  0  0  0  0  0  1  0  0
  -25.2216  -28.9895   20.9772 C   0  0  1  0  0  0  0  0  0  0  0  0
  -21.5273  -29.0770   21.8223 C   0  0  2  0  0  0  0  0  0  0  0  0
  -26.0056  -30.3037   20.7022 C   0  0  0  0  0  0  0  0  0  0  0  0
  -28.3103  -16.8216   21.7103 N   0  0  0  0  0  0  0  0  0  0  0  0
  -29.6134  -16.8557   21.3836 N   0  0  0  0  0  0  0  0  0  0  0  0
  -26.0807  -26.7254   20.4673 N   0  0  0  0  0  0  0  0  0  0  0  0
  -30.6938  -19.6355   23.7587 N   0  0  0  0  0  0  0  0  0  0  0  0
  -31.1877  -16.0471   19.8093 N   0  0  0  0  0  0  0  0  0  0  0  0
  -28.2965  -15.3007   17.4689 N   0  0  0  0  0  0  0  0  0  0  0  0
  -28.6793  -25.1445   18.4563 N   0  0  0  0  0  0  0  0  0  0  0  0
  -30.0384  -22.8158   27.0928 N   0  0  0  0  0  0  0  0  0  0  0  0
  -23.7713  -29.1475   20.9762 N   0  0  0  0  0  0  0  0  0  0  0  0
  -31.6225  -21.6085   24.6615 N   0  0  0  0  0  0  0  0  0  0  0  0
  -32.9511  -24.7919   25.9037 N   0  3  0  0  0  0  0  0  0  0  0  0
  -27.8776  -22.8768   31.4780 N   0  3  0  0  0  0  0  0  0  0  0  0
  -20.6952  -28.0701   22.5397 N   0  3  0  0  0  0  0  0  0  0  0  0
  -28.6600  -13.4649   18.7942 O   0  0  0  0  0  0  0  0  0  0  0  0
  -28.5984  -26.8486   20.0412 O   0  0  0  0  0  0  0  0  0  0  0  0
  -30.5918  -25.0774   27.0555 O   0  0  0  0  0  0  0  0  0  0  0  0
  -25.2845  -28.1153   18.7731 O   0  0  0  0  0  0  0  0  0  0  0  0
  -23.4291  -28.3692   23.1336 O   0  0  0  0  0  0  0  0  0  0  0  0
  -30.4295  -21.6881   22.6972 O   0  0  0  0  0  0  0  0  0  0  0  0
  -22.3030  -14.9189   20.7940 O   0  0  0  0  0  0  0  0  0  0  0  0
  -27.3038  -23.2602   25.4220 O   0  0  0  0  0  0  0  0  0  1  0  0
  -20.5235  -10.7338   17.6760 F   0  0  0  0  0  0  0  0  0  0  0  0
  -21.0013  -12.7593   21.9274 F   0  0  0  0  0  0  0  0  0  0  0  0
  1  2  1  0  0  0  0
  1  5  2  0  0  0  0
  2  6  2  0  0  0  0
  3  8  2  0  0  0  0
  3 15  1  0  0  0  0
  4  9  1  0  0  0  0
  4 15  2  0  0  0  0
  5 17  1  0  0  0  0
  6 19  1  0  0  0  0
  7 10  2  0  0  0  0
  7 18  1  0  0  0  0
  8 21  1  0  0  0  0
  9 21  2  0  0  0  0
 10 22  1  0  0  0  0
 11 12  2  0  0  0  0
 11 23  1  0  0  0  0
 12 24  1  0  0  0  0
 13 20  1  0  0  0  0
 13 22  2  0  0  0  0
 14 24  2  0  0  0  0
 14 25  1  0  0  0  0
 15 26  1  0  0  0  0
 16 26  1  0  0  0  0
 16 27  2  0  0  0  0
 16 28  1  0  0  0  0
 17 19  2  0  0  0  0
 17 34  1  0  0  0  0
 18 20  2  0  0  0  0
 18 35  1  0  0  0  0
 19 48  1  0  0  0  0
 20 36  1  0  0  0  0
 21 84  1  0  0  0  0
 22 85  1  0  0  0  0
 23 25  2  0  0  0  0
 23 84  1  0  0  0  0
 24 86  1  0  0  0  0
 25 87  1  0  0  0  0
 26 65  2  0  0  0  0
 27 66  1  0  0  0  0
 27 69  1  0  0  0  0
 28 70  1  0  0  0  0
 28 78  2  0  0  0  0
 29 49  1  0  0  0  0
 29 71  1  0  0  0  0
 29 79  2  0  0  0  0
 30 50  1  0  0  0  0
 30 72  1  0  0  0  0
 30 80  2  0  0  0  0
 31 62  1  0  0  0  0
 31 67  1  0  0  0  0
 31 81  2  0  0  0  0
 32 63  1  0  0  0  0
 32 73  1  0  0  0  0
 32 82  2  0  0  0  0
 33 68  1  0  0  0  0
 33 74  1  0  0  0  0
 33 83  2  0  0  0  0
 34 37  1  0  0  0  0
 35 49  1  0  0  0  0
 36 67  1  0  0  0  0
 37 39  1  0  0  0  0
 38 41  1  0  0  0  0
 38 45  1  0  0  0  0
 39 48  1  0  0  0  0
 40 42  1  0  0  0  0
 40 51  1  0  0  0  0
 41 52  1  0  0  0  0
 42 55  1  0  0  0  0
 43 47  1  0  0  0  0
 43 53  1  0  0  0  0
 44 54  1  0  0  0  0
 44 55  1  0  0  0  0
 45 68  1  0  0  0  0
 46 52  1  0  0  0  0
 46 68  1  0  0  0  0
 47 75  1  0  0  0  0
 48 71  1  0  0  0  0
 49 67  1  0  0  0  0
 50 53  1  0  0  0  0
 50 75  1  0  0  0  0
 51 54  1  0  0  0  0
 51 61  1  0  0  0  0
 52 66  1  0  0  0  0
 53 74  1  0  0  0  0
 54 72  1  0  0  0  0
 55 76  1  0  0  0  0
 56 63  1  0  0  0  0
 57 64  1  0  0  0  0
 58 64  1  0  0  0  0
 59 64  1  0  0  0  0
 60 77  1  0  0  0  0
 61 85  1  0  0  0  0
 62 64  1  0  0  0  0
 62 73  1  0  0  0  0
 63 77  1  0  0  0  0
 65 66  1  0  0  0  0
M  CHG  3  75   1  76   1  77   1
M  ISO  4  33 100  61 101  74 100  85 101
M  END
> <Batch ID>
0135

> <Smiles>
CNC(C)C(=O)NC(C(=O)N1Cc2cc([101O:1][101CH2:1]C3CCC(N)CC3NC(=O)C3NCCC3[100NH:0][100C:0](=O)N3CCCC(n4nc(-c5ccc(Oc6ccc(F)cc6F)cc5)c(C(N)=O)c4N)C3)ccc2CC1C(=O)NC1CCCc2ccccc21)C(C)(C)C

> <Shape>
0.193

> <Color>
0.049

> <Negative vol penalty>
0.000

$$$$

  -OEChem-04052321003D

 85 93  0     1  0  0  0  0  0999 V2000
  -23.7476   -8.0006   21.9715 C   0  0  0  0  0  0  0  0  0  0  0  0
  -24.5615   -9.1208   21.8372 C   0  0  0  0  0  0  0  0  0  0  0  0
  -22.4851  -27.1626   23.5925 C   0  0  0  0  0  0  0  0  0  0  0  0
  -22.3663  -25.2616   22.1062 C   0  0  0  0  0  0  0  0  0  0  0  0
  -22.3878   -8.0890   21.6764 C   0  0  0  0  0  0  0  0  0  0  0  0
  -24.0163  -10.3299   21.4067 C   0  0  0  0  0  0  0  0  0  0  0  0
  -25.6232  -14.2718   24.1496 C   0  0  0  0  0  0  0  0  0  0  0  0
  -29.5499  -18.7358   21.9491 C   0  0  0  0  0  0  0  0  0  0  0  0
  -21.1900  -27.5294   23.2269 C   0  0  0  0  0  0  0  0  0  0  0  0
  -21.0711  -25.6284   21.7406 C   0  0  0  0  0  0  0  0  0  0  0  0
  -26.9007  -14.7590   23.8766 C   0  0  0  0  0  0  0  0  0  0  0  0
  -18.0299  -26.5800   23.9656 C   0  0  0  0  0  0  0  0  0  0  0  0
  -17.1490  -26.9480   24.9825 C   0  0  0  0  0  0  0  0  0  0  0  0
  -29.8339  -20.0411   21.5633 C   0  0  0  0  0  0  0  0  0  0  0  0
  -25.9352  -16.5385   22.5651 C   0  0  0  0  0  0  0  0  0  0  0  0
  -16.8978  -29.1297   23.9754 C   0  0  0  0  0  0  0  0  0  0  0  0
  -23.0733  -26.0287   23.0321 C   0  0  0  0  0  0  0  0  0  0  0  0
  -24.7883  -24.7995   24.4657 C   0  0  0  0  0  0  0  0  0  0  0  0
  -21.8238   -9.3022   21.2513 C   0  0  0  0  0  0  0  0  0  0  0  0
  -24.4908  -14.9091   23.6225 C   0  0  0  0  0  0  0  0  0  0  0  0
  -22.6479  -10.4342   21.1043 C   0  0  0  0  0  0  0  0  0  0  0  0
  -24.6444  -16.0590   22.8350 C   0  0  0  0  0  0  0  0  0  0  0  0
  -29.0050  -17.8476   21.0285 C   0  0  0  0  0  0  0  0  0  0  0  0
  -20.4830  -26.7623   22.3010 C   0  0  0  0  0  0  0  0  0  0  0  0
  -27.0570  -15.8908   23.0819 C   0  0  0  0  0  0  0  0  0  0  0  0
  -18.3449  -27.4869   22.9536 C   0  0  0  0  0  0  0  0  0  0  0  0
  -16.5829  -28.2228   24.9874 C   0  0  0  0  0  0  0  0  0  0  0  0
  -17.7788  -28.7617   22.9585 C   0  0  0  0  0  0  0  0  0  0  0  0
  -24.4114  -25.6496   23.4088 C   0  0  0  0  0  0  0  0  0  0  0  0
  -28.7647  -18.3103   19.7448 C   0  0  0  0  0  0  0  0  0  0  0  0
  -29.5566  -20.4056   20.2556 C   0  0  0  0  0  0  0  0  0  0  0  0
  -26.1599  -24.7614   24.4033 C   0  0  0  0  0  0  0  0  0  0  0  0
  -23.9717  -24.1061   25.4186 C   0  0  0  0  0  0  0  0  0  0  0  0
  -22.1553  -14.0565   21.6419 C   0  0  0  0  0  0  0  0  0  0  0  0
  -20.9487  -16.9604   22.4379 C   0  0  0  0  0  0  0  0  0  0  0  0
  -21.5268  -20.1239   23.5804 C   0  0  0  0  0  0  0  0  0  0  0  0
  -30.0650  -25.6465   19.9516 C   0  0  0  0  0  0  0  0  0  0  0  0
  -20.3578   -9.3370   20.8986 C   0  0  0  0  0  0  0  0  0  0  0  0
  -23.1184  -14.3867   23.9483 C   0  0  0  0  0  0  0  0  0  0  0  0
  -23.4598  -16.7916   22.2617 C   0  0  0  0  0  0  0  0  0  0  0  0
  -19.7866  -10.7497   20.8078 C   0  0  0  0  0  0  0  0  0  0  0  0
  -29.9210  -27.3916   23.0517 C   0  0  0  0  0  0  0  0  0  0  0  0
  -20.7136  -11.6492   19.9963 C   0  0  0  0  0  0  0  0  0  0  0  0
  -28.5267  -27.0664   23.5901 C   0  0  0  0  0  0  0  0  0  0  0  0
  -29.9171  -27.5478   21.5327 C   0  0  0  0  0  0  0  0  0  0  0  0
  -27.9444  -26.0842   21.3329 C   0  0  0  0  0  0  0  0  0  0  0  0
  -22.0889  -11.7697   20.6638 C   0  0  1  0  0  0  0  0  0  0  0  0
  -22.0604  -14.8144   22.9359 C   0  0  1  0  0  0  0  0  0  0  0  0
  -27.9084  -25.8621   22.8547 C   0  0  2  0  0  0  0  0  0  0  0  0
  -28.2839  -17.9795   17.3064 C   0  0  0  0  0  0  0  0  0  0  0  0
  -29.8817  -15.4958   21.2371 C   0  0  0  0  0  0  0  0  0  0  0  0
  -20.3491  -22.2806   24.0888 C   0  0  0  0  0  0  0  0  0  0  0  0
  -29.8513  -24.2459   17.0149 C   0  0  0  0  0  0  0  0  0  0  0  0
  -20.7812  -17.5698   19.4529 C   0  0  0  0  0  0  0  0  0  0  0  0
  -20.5217  -19.9915   20.0328 C   0  0  0  0  0  0  0  0  0  0  0  0
  -18.8111  -18.3401   20.7870 C   0  0  0  0  0  0  0  0  0  0  0  0
  -22.3031  -20.0096   26.4341 C   0  0  0  0  0  0  0  0  0  0  0  0
  -28.1800  -17.4008   18.7141 C   0  0  0  0  0  0  0  0  0  0  0  0
  -29.6134  -22.2375   18.5625 C   0  0  0  0  0  0  0  0  0  0  0  0
  -28.6939  -16.4274   21.4423 C   0  0  1  0  0  0  0  0  0  1  0  0
  -21.0851  -18.3611   21.8916 C   0  0  1  0  0  0  0  0  0  0  0  0
  -20.8338  -20.9518   24.6475 C   0  0  2  0  0  0  0  0  0  0  0  0
  -30.0664  -23.6933   18.4206 C   0  0  2  0  0  0  0  0  0  0  0  0
  -20.3224  -18.5509   20.5501 C   0  0  0  0  0  0  0  0  0  0  0  0
  -25.4589  -26.1180   22.7252 N   0  0  0  0  0  0  0  0  0  0  0  0
  -29.0274  -19.5709   19.3331 N   0  0  0  0  0  0  0  0  0  0  0  0
  -26.5075  -25.5603   23.3539 N   0  0  0  0  0  0  0  0  0  0  0  0
  -22.1390  -16.2383   22.6035 N   0  0  0  0  0  0  0  0  0  0  0  0
  -29.3195  -26.3718   20.8957 N   0  0  0  0  0  0  0  0  0  0  0  0
  -27.0903  -24.1230   25.1443 N   0  0  0  0  0  0  0  0  0  0  0  0
  -22.5803  -24.2553   25.3401 N   0  0  0  0  0  0  0  0  0  0  0  0
  -29.8519  -21.7391   19.8777 N   0  0  0  0  0  0  0  0  0  0  0  0
  -22.0296  -12.6875   21.7812 N   0  0  0  0  0  0  0  0  0  0  0  0
  -20.6525  -19.2588   22.9572 N   0  0  0  0  0  0  0  0  0  0  0  0
  -29.4265  -24.5422   19.4008 N   0  0  0  0  0  0  0  0  0  0  0  0
  -21.7672  -21.2288   25.7758 N   0  3  0  0  0  0  0  0  0  0  0  0
  -24.4621  -23.3888   26.3233 O   0  0  0  0  0  0  0  0  0  0  0  0
  -22.3283  -14.6687   20.5945 O   0  0  0  0  0  0  0  0  0  0  0  0
  -19.8279  -16.5257   22.7145 O   0  0  0  0  0  0  0  0  0  0  0  0
  -22.7233  -20.2361   23.3228 O   0  0  0  0  0  0  0  0  0  0  0  0
  -31.2165  -25.9569   19.6279 O   0  0  0  0  0  0  0  0  0  0  0  0
  -19.2190  -27.1198   21.9443 O   0  0  0  0  0  0  0  0  0  0  0  0
  -28.3028  -16.3681   22.8133 O   0  0  0  0  0  0  0  0  0  1  0  0
  -15.7357  -28.5755   25.9632 F   0  0  0  0  0  0  0  0  0  0  0  0
  -18.0766  -29.6369   21.9883 F   0  0  0  0  0  0  0  0  0  0  0  0
  1  2  1  0  0  0  0
  1  5  2  0  0  0  0
  2  6  2  0  0  0  0
  3  9  2  0  0  0  0
  3 17  1  0  0  0  0
  4 10  1  0  0  0  0
  4 17  2  0  0  0  0
  5 19  1  0  0  0  0
  6 21  1  0  0  0  0
  7 11  2  0  0  0  0
  7 20  1  0  0  0  0
  8 14  2  0  0  0  0
  8 23  1  0  0  0  0
  9 24  1  0  0  0  0
 10 24  2  0  0  0  0
 11 25  1  0  0  0  0
 12 13  2  0  0  0  0
 12 26  1  0  0  0  0
 13 27  1  0  0  0  0
 14 31  1  0  0  0  0
 15 22  1  0  0  0  0
 15 25  2  0  0  0  0
 16 27  2  0  0  0  0
 16 28  1  0  0  0  0
 17 29  1  0  0  0  0
 18 29  1  0  0  0  0
 18 32  2  0  0  0  0
 18 33  1  0  0  0  0
 19 21  2  0  0  0  0
 19 38  1  0  0  0  0
 20 22  2  0  0  0  0
 20 39  1  0  0  0  0
 21 47  1  0  0  0  0
 22 40  1  0  0  0  0
 23 30  2  0  0  0  0
 23 60  1  0  0  0  0
 24 82  1  0  0  0  0
 25 83  1  0  0  0  0
 26 28  2  0  0  0  0
 26 82  1  0  0  0  0
 27 84  1  0  0  0  0
 28 85  1  0  0  0  0
 29 65  2  0  0  0  0
 30 58  1  0  0  0  0
 30 66  1  0  0  0  0
 31 66  2  0  0  0  0
 31 72  1  0  0  0  0
 32 67  1  0  0  0  0
 32 70  1  0  0  0  0
 33 71  1  0  0  0  0
 33 77  2  0  0  0  0
 34 48  1  0  0  0  0
 34 73  1  0  0  0  0
 34 78  2  0  0  0  0
 35 61  1  0  0  0  0
 35 68  1  0  0  0  0
 35 79  2  0  0  0  0
 36 62  1  0  0  0  0
 36 74  1  0  0  0  0
 36 80  2  0  0  0  0
 37 69  1  0  0  0  0
 37 75  1  0  0  0  0
 37 81  2  0  0  0  0
 38 41  1  0  0  0  0
 39 48  1  0  0  0  0
 40 68  1  0  0  0  0
 41 43  1  0  0  0  0
 42 44  1  0  0  0  0
 42 45  1  0  0  0  0
 43 47  1  0  0  0  0
 44 49  1  0  0  0  0
 45 69  1  0  0  0  0
 46 49  1  0  0  0  0
 46 69  1  0  0  0  0
 47 73  1  0  0  0  0
 48 68  1  0  0  0  0
 49 67  1  0  0  0  0
 50 58  1  0  0  0  0
 51 60  1  0  0  0  0
 52 62  1  0  0  0  0
 53 63  1  0  0  0  0
 54 64  1  0  0  0  0
 55 64  1  0  0  0  0
 56 64  1  0  0  0  0
 57 76  1  0  0  0  0
 59 63  1  0  0  0  0
 59 72  1  0  0  0  0
 60 83  1  0  0  0  0
 61 64  1  0  0  0  0
 61 74  1  0  0  0  0
 62 76  1  0  0  0  0
 63 75  1  0  0  0  0
 65 67  1  0  0  0  0
M  CHG  1  76   1
M  ISO  4  37 100  60 101  75 100  83 101
M  END
> <Batch ID>
0135

> <Smiles>
CCc1nc(NCC(C)[100NH:0][100C:0](=O)N2CCCC(n3nc(-c4ccc(Oc5ccc(F)cc5F)cc4)c(C(N)=O)c3N)C2)ccc1[101CH:1](C)[101O:1]c1ccc2c(c1)CN(C(=O)C(NC(=O)C(C)NC)C(C)(C)C)C(C(=O)NC1CCCc3ccccc31)C2

> <Shape>
0.201

> <Color>
0.070

> <Negative vol penalty>
0.000

$$$$

  -OEChem-04052321003D

 82 91  0     1  0  0  0  0  0999 V2000
  -32.2793  -12.5913   20.7460 C   0  0  0  0  0  0  0  0  0  0  0  0
  -31.8098  -13.8308   21.1686 C   0  0  0  0  0  0  0  0  0  0  0  0
  -22.6288  -28.3739   20.5962 C   0  0  0  0  0  0  0  0  0  0  0  0
  -23.7086  -27.1287   22.3627 C   0  0  0  0  0  0  0  0  0  0  0  0
  -31.4602  -11.7600   19.9832 C   0  0  0  0  0  0  0  0  0  0  0  0
  -30.5212  -14.2402   20.8277 C   0  0  0  0  0  0  0  0  0  0  0  0
  -25.0345  -18.0903   23.3554 C   0  0  0  0  0  0  0  0  0  0  0  0
  -21.3823  -27.9645   21.0695 C   0  0  0  0  0  0  0  0  0  0  0  0
  -22.4621  -26.7193   22.8361 C   0  0  0  0  0  0  0  0  0  0  0  0
  -24.1890  -19.1343   22.9824 C   0  0  0  0  0  0  0  0  0  0  0  0
  -19.2673  -28.8075   23.5694 C   0  0  0  0  0  0  0  0  0  0  0  0
  -18.2636  -29.7709   23.6696 C   0  0  0  0  0  0  0  0  0  0  0  0
  -22.8350  -17.5814   21.7277 C   0  0  0  0  0  0  0  0  0  0  0  0
  -16.8962  -28.5064   22.1306 C   0  0  0  0  0  0  0  0  0  0  0  0
  -23.7920  -27.9560   21.2428 C   0  0  0  0  0  0  0  0  0  0  0  0
  -25.5511  -29.6989   20.6300 C   0  0  0  0  0  0  0  0  0  0  0  0
  -30.1574  -12.1553   19.6409 C   0  0  0  0  0  0  0  0  0  0  0  0
  -24.7924  -16.7837   22.9076 C   0  0  0  0  0  0  0  0  0  0  0  0
  -29.6843  -13.4140   20.0584 C   0  0  0  0  0  0  0  0  0  0  0  0
  -23.6774  -16.5222   22.0985 C   0  0  0  0  0  0  0  0  0  0  0  0
  -21.2989  -27.1372   22.1895 C   0  0  0  0  0  0  0  0  0  0  0  0
  -23.0907  -18.8804   22.1661 C   0  0  0  0  0  0  0  0  0  0  0  0
  -19.0855  -27.6936   22.7497 C   0  0  0  0  0  0  0  0  0  0  0  0
  -17.0781  -29.6203   22.9503 C   0  0  0  0  0  0  0  0  0  0  0  0
  -17.9000  -27.5431   22.0303 C   0  0  0  0  0  0  0  0  0  0  0  0
  -25.0800  -28.3781   20.7540 C   0  0  0  0  0  0  0  0  0  0  0  0
  -26.8203  -29.5646   20.1226 C   0  0  0  0  0  0  0  0  0  0  0  0
  -24.8996  -30.9366   20.9454 C   0  0  0  0  0  0  0  0  0  0  0  0
  -26.3840  -14.6952   21.1164 C   0  0  0  0  0  0  0  0  0  0  0  0
  -23.9642  -12.7104   21.9693 C   0  0  0  0  0  0  0  0  0  0  0  0
  -20.3823  -12.9333   22.3406 C   0  0  0  0  0  0  0  0  0  0  0  0
  -26.8327  -24.1307   19.4835 C   0  0  0  0  0  0  0  0  0  0  0  0
  -29.3259  -11.2427   18.7747 C   0  0  0  0  0  0  0  0  0  0  0  0
  -25.6986  -15.6641   23.3407 C   0  0  0  0  0  0  0  0  0  0  0  0
  -23.3620  -15.1336   21.6077 C   0  0  0  0  0  0  0  0  0  0  0  0
  -27.8398  -11.5919   18.7728 C   0  0  0  0  0  0  0  0  0  0  0  0
  -29.0928  -26.0872   21.3918 C   0  0  0  0  0  0  0  0  0  0  0  0
  -27.6444  -13.0926   18.5816 C   0  0  0  0  0  0  0  0  0  0  0  0
  -29.3277  -27.3424   20.5576 C   0  0  0  0  0  0  0  0  0  0  0  0
  -27.2040  -25.5978   16.7460 C   0  0  0  0  0  0  0  0  0  0  0  0
  -25.9122  -25.2007   16.0961 C   0  0  0  0  0  0  0  0  0  0  0  0
  -24.6784  -22.1647   18.4585 C   0  0  0  0  0  0  0  0  0  0  0  0
  -23.7592  -24.1019   19.7859 C   0  0  0  0  0  0  0  0  0  0  0  0
  -28.9624  -24.8627   20.4984 C   0  0  0  0  0  0  0  0  0  0  0  0
  -28.0132  -26.2334   18.6572 C   0  0  0  0  0  0  0  0  0  0  0  0
  -23.3228  -21.4749   18.5387 C   0  0  0  0  0  0  0  0  0  0  0  0
  -22.4087  -23.4016   19.8605 C   0  0  0  0  0  0  0  0  0  0  0  0
  -28.2836  -13.8830   19.7297 C   0  0  1  0  0  0  0  0  0  0  0  0
  -25.6492  -14.4596   22.4057 C   0  0  1  0  0  0  0  0  0  0  0  0
  -28.2760  -27.5332   19.4520 C   0  0  1  0  0  0  0  0  0  0  0  0
  -25.9658  -25.4250   17.5824 C   0  0  0  0  0  0  0  0  0  0  0  0
  -24.5403  -23.6853   18.5396 C   0  0  0  0  0  0  0  0  0  0  0  0
  -18.8087  -11.6289   23.7965 C   0  0  0  0  0  0  0  0  0  0  0  0
  -23.6254  -10.9326   19.5127 C   0  0  0  0  0  0  0  0  0  0  0  0
  -21.1959  -10.7280   20.0821 C   0  0  0  0  0  0  0  0  0  0  0  0
  -22.9228   -9.8778   21.6687 C   0  0  0  0  0  0  0  0  0  0  0  0
  -19.2947  -15.3957   23.5705 C   0  0  0  0  0  0  0  0  0  0  0  0
  -21.3181  -21.1635   19.9876 C   0  0  0  0  0  0  0  0  0  0  0  0
  -21.6109  -19.7812   20.5368 C   0  0  0  0  0  0  0  0  0  1  0  0
  -22.6079  -12.3719   21.3994 C   0  0  1  0  0  0  0  0  0  0  0  0
  -19.6009  -12.9178   23.6420 C   0  0  2  0  0  0  0  0  0  0  0  0
  -22.5998  -11.0032   20.6618 C   0  0  0  0  0  0  0  0  0  0  0  0
  -25.9770  -27.4714   20.3571 N   0  0  0  0  0  0  0  0  0  0  0  0
  -27.0243  -28.2238   19.9787 N   0  0  0  0  0  0  0  0  0  0  0  0
  -24.2814  -14.0736   22.0532 N   0  0  0  0  0  0  0  0  0  0  0  0
  -27.9088  -25.0311   19.4981 N   0  0  0  0  0  0  0  0  0  0  0  0
  -27.7706  -30.4638   19.7898 N   0  0  0  0  0  0  0  0  0  0  0  0
  -25.0481  -31.4595   22.2373 N   0  0  0  0  0  0  0  0  0  0  0  0
  -27.4433  -13.8329   20.9070 N   0  0  0  0  0  0  0  0  0  0  0  0
  -21.6655  -12.4578   22.5097 N   0  0  0  0  0  0  0  0  0  0  0  0
  -25.8356  -24.3195   18.5169 N   0  0  0  0  0  0  0  0  0  0  0  0
  -22.6119  -21.9069   19.7987 N   0  3  0  0  0  0  0  0  0  0  0  0
  -18.6485  -14.0632   23.6880 N   0  3  0  0  0  0  0  0  0  0  0  0
  -24.1929  -31.5519   20.1115 O   0  0  0  0  0  0  0  0  0  0  0  0
  -26.0162  -15.5918   20.3664 O   0  0  0  0  0  0  0  0  0  0  0  0
  -24.7117  -11.7993   22.3335 O   0  0  0  0  0  0  0  0  0  0  0  0
  -19.9012  -13.3244   21.2794 O   0  0  0  0  0  0  0  0  0  0  0  0
  -26.7587  -23.2005   20.2979 O   0  0  0  0  0  0  0  0  0  0  0  0
  -20.0826  -26.7376   22.6518 O   0  0  0  0  0  0  0  0  0  0  0  0
  -22.2642  -19.8977   21.8001 O   0  0  0  0  0  0  0  0  0  1  0  0
  -16.1137  -30.5448   23.0479 F   0  0  0  0  0  0  0  0  0  0  0  0
  -17.7191  -26.4745   21.2421 F   0  0  0  0  0  0  0  0  0  0  0  0
  1  2  1  0  0  0  0
  1  5  2  0  0  0  0
  2  6  2  0  0  0  0
  3  8  2  0  0  0  0
  3 15  1  0  0  0  0
  4  9  1  0  0  0  0
  4 15  2  0  0  0  0
  5 17  1  0  0  0  0
  6 19  1  0  0  0  0
  7 10  2  0  0  0  0
  7 18  1  0  0  0  0
  8 21  1  0  0  0  0
  9 21  2  0  0  0  0
 10 22  1  0  0  0  0
 11 12  2  0  0  0  0
 11 23  1  0  0  0  0
 12 24  1  0  0  0  0
 13 20  1  0  0  0  0
 13 22  2  0  0  0  0
 14 24  2  0  0  0  0
 14 25  1  0  0  0  0
 15 26  1  0  0  0  0
 16 26  1  0  0  0  0
 16 27  2  0  0  0  0
 16 28  1  0  0  0  0
 17 19  2  0  0  0  0
 17 33  1  0  0  0  0
 18 20  2  0  0  0  0
 18 34  1  0  0  0  0
 19 48  1  0  0  0  0
 20 35  1  0  0  0  0
 21 79  1  0  0  0  0
 22 80  1  0  0  0  0
 23 25  2  0  0  0  0
 23 79  1  0  0  0  0
 24 81  1  0  0  0  0
 25 82  1  0  0  0  0
 26 63  2  0  0  0  0
 27 64  1  0  0  0  0
 27 67  1  0  0  0  0
 28 68  1  0  0  0  0
 28 74  2  0  0  0  0
 29 49  1  0  0  0  0
 29 69  1  0  0  0  0
 29 75  2  0  0  0  0
 30 60  1  0  0  0  0
 30 65  1  0  0  0  0
 30 76  2  0  0  0  0
 31 61  1  0  0  0  0
 31 70  1  0  0  0  0
 31 77  2  0  0  0  0
 32 66  1  0  0  0  0
 32 71  1  0  0  0  0
 32 78  2  0  0  0  0
 33 36  1  0  0  0  0
 34 49  1  0  0  0  0
 35 65  1  0  0  0  0
 36 38  1  0  0  0  0
 37 39  1  0  0  0  0
 37 44  1  0  0  0  0
 38 48  1  0  0  0  0
 39 50  1  0  0  0  0
 40 41  1  0  0  0  0
 40 51  1  0  0  0  0
 41 51  1  0  0  0  0
 42 46  1  0  0  0  0
 42 52  1  0  0  0  0
 43 47  1  0  0  0  0
 43 52  1  0  0  0  0
 44 66  1  0  0  0  0
 45 50  1  0  0  0  0
 45 66  1  0  0  0  0
 46 72  1  0  0  0  0
 47 72  1  0  0  0  0
 48 69  1  0  0  0  0
 49 65  1  0  0  0  0
 50 64  1  0  0  0  0
 51 71  1  0  0  0  0
 52 71  1  0  0  0  0
 53 61  1  0  0  0  0
 54 62  1  0  0  0  0
 55 62  1  0  0  0  0
 56 62  1  0  0  0  0
 57 73  1  0  0  0  0
 58 59  1  0  0  0  0
 58 72  1  0  0  0  0
 59 80  1  0  0  0  0
 60 62  1  0  0  0  0
 60 70  1  0  0  0  0
 61 73  1  0  0  0  0
 63 64  1  0  0  0  0
M  CHG  2  72   1  73   1
M  ISO  4  32 100  59 101  71 100  80 101
M  END
> <Batch ID>
0135

> <Smiles>
CNC(C)C(=O)NC(C(=O)N1Cc2cc([101O:1][101CH2:1]CN3CCC([100N:0](C4CC4)[100C:0](=O)N4CCCC(n5nc(-c6ccc(Oc7ccc(F)cc7F)cc6)c(C(N)=O)c5N)C4)CC3)ccc2CC1C(=O)NC1CCCc2ccccc21)C(C)(C)C

> <Shape>
0.254

> <Color>
0.063

> <Negative vol penalty>
0.000

$$$$

  -OEChem-04052321003D

 83 92  0     1  0  0  0  0  0999 V2000
  -16.9266  -23.2012   25.8090 C   0  0  0  0  0  0  0  0  0  0  0  0
  -18.2286  -23.3740   25.3504 C   0  0  0  0  0  0  0  0  0  0  0  0
  -22.8300  -10.1315   20.0547 C   0  0  0  0  0  0  0  0  0  0  0  0
  -24.1496   -9.6287   22.0150 C   0  0  0  0  0  0  0  0  0  0  0  0
  -16.6846  -22.4212   26.9390 C   0  0  0  0  0  0  0  0  0  0  0  0
  -19.2895  -22.7679   26.0222 C   0  0  0  0  0  0  0  0  0  0  0  0
  -25.7186  -19.8456   24.8206 C   0  0  0  0  0  0  0  0  0  0  0  0
  -22.0954   -8.9618   20.2491 C   0  0  0  0  0  0  0  0  0  0  0  0
  -23.4149   -8.4590   22.2095 C   0  0  0  0  0  0  0  0  0  0  0  0
  -27.0393  -19.9308   25.2589 C   0  0  0  0  0  0  0  0  0  0  0  0
  -20.1092   -5.9241   20.0241 C   0  0  0  0  0  0  0  0  0  0  0  0
  -19.8578   -5.1218   18.9111 C   0  0  0  0  0  0  0  0  0  0  0  0
  -26.4939  -18.5408   27.1535 C   0  0  0  0  0  0  0  0  0  0  0  0
  -22.2341   -4.8476   18.5719 C   0  0  0  0  0  0  0  0  0  0  0  0
  -32.6793  -15.3929   23.9251 C   0  0  0  0  0  0  0  0  0  0  0  0
  -23.8571  -10.4649   20.9376 C   0  0  0  0  0  0  0  0  0  0  0  0
  -24.1257  -12.9919   20.7146 C   0  0  0  0  0  0  0  0  0  0  0  0
  -17.7421  -21.7972   27.6194 C   0  0  0  0  0  0  0  0  0  0  0  0
  -24.7715  -19.1151   25.5526 C   0  0  0  0  0  0  0  0  0  0  0  0
  -19.0616  -21.9799   27.1632 C   0  0  0  0  0  0  0  0  0  0  0  0
  -25.1624  -18.4457   26.7210 C   0  0  0  0  0  0  0  0  0  0  0  0
  -30.6344  -16.6488   25.2360 C   0  0  0  0  0  0  0  0  0  0  0  0
  -31.5826  -14.6376   24.3017 C   0  0  0  0  0  0  0  0  0  0  0  0
  -30.5486  -15.2806   24.9712 C   0  0  0  0  0  0  0  0  0  0  0  0
  -22.3878   -8.1256   21.3265 C   0  0  0  0  0  0  0  0  0  0  0  0
  -27.4265  -19.2807   26.4271 C   0  0  0  0  0  0  0  0  0  0  0  0
  -21.4231   -6.1882   20.4110 C   0  0  0  0  0  0  0  0  0  0  0  0
  -20.9202   -4.5836   18.1851 C   0  0  0  0  0  0  0  0  0  0  0  0
  -22.4855   -5.6500   19.6849 C   0  0  0  0  0  0  0  0  0  0  0  0
  -24.6167  -11.6728   20.7370 C   0  0  0  0  0  0  0  0  0  0  0  0
  -31.7909  -17.3215   24.8289 C   0  0  0  0  0  0  0  0  0  0  0  0
  -25.2369  -13.7682   20.4930 C   0  0  0  0  0  0  0  0  0  0  0  0
  -22.7850  -13.4727   20.8796 C   0  0  0  0  0  0  0  0  0  0  0  0
  -22.0627  -19.8272   27.0557 C   0  0  0  0  0  0  0  0  0  0  0  0
  -21.8836  -16.6107   27.4357 C   0  0  0  0  0  0  0  0  0  0  0  0
  -23.5141  -13.6168   27.5942 C   0  0  0  0  0  0  0  0  0  0  0  0
  -31.0701  -12.9364   21.5571 C   0  0  0  0  0  0  0  0  0  0  0  0
  -17.4359  -21.0022   28.8640 C   0  0  0  0  0  0  0  0  0  0  0  0
  -23.3569  -19.0109   25.0520 C   0  0  0  0  0  0  0  0  0  0  0  0
  -24.1887  -17.6318   27.5322 C   0  0  0  0  0  0  0  0  0  0  0  0
  -29.5482  -17.3587   26.0038 C   0  0  0  0  0  0  0  0  0  0  0  0
  -31.9200  -18.8051   25.0627 C   0  0  0  0  0  0  0  0  0  0  0  0
  -18.5784  -20.0880   29.2992 C   0  0  0  0  0  0  0  0  0  0  0  0
  -29.5450  -13.6335   18.4163 C   0  0  0  0  0  0  0  0  0  0  0  0
  -19.9050  -20.8403   29.2693 C   0  0  0  0  0  0  0  0  0  0  0  0
  -28.0647  -13.3291   18.6529 C   0  0  0  0  0  0  0  0  0  0  0  0
  -30.9548  -19.3216   26.1339 C   0  0  0  0  0  0  0  0  0  0  0  0
  -30.4488  -12.6639   19.1747 C   0  0  0  0  0  0  0  0  0  0  0  0
  -28.6938  -12.2587   20.8568 C   0  0  0  0  0  0  0  0  0  0  0  0
  -20.2364  -21.3184   27.8505 C   0  0  1  0  0  0  0  0  0  0  0  0
  -22.3580  -18.6639   26.1517 C   0  0  1  0  0  0  0  0  0  0  0  0
  -27.7430  -13.2449   20.1571 C   0  0  2  0  0  0  0  0  0  0  0  0
  -29.3466  -14.4945   25.3912 C   0  0  0  0  0  0  0  0  0  0  0  0
  -23.1043  -11.1672   27.9530 C   0  0  0  0  0  0  0  0  0  0  0  0
  -21.5388  -17.1088   30.4262 C   0  0  0  0  0  0  0  0  0  0  0  0
  -22.0861  -14.6977   30.8201 C   0  0  0  0  0  0  0  0  0  0  0  0
  -20.0677  -15.3157   29.4909 C   0  0  0  0  0  0  0  0  0  0  0  0
  -24.5665  -12.9299   24.9147 C   0  0  0  0  0  0  0  0  0  0  0  0
  -31.5359  -13.1833   23.9823 C   0  0  0  0  0  0  0  0  0  0  0  0
  -22.3628  -15.6289   28.4776 C   0  0  1  0  0  0  0  0  0  0  0  0
  -23.2361  -12.2819   26.9270 C   0  0  2  0  0  0  0  0  0  0  0  0
  -21.5320  -15.7046   29.7896 C   0  0  0  0  0  0  0  0  0  0  0  0
  -32.8083  -16.7159   24.1690 N   0  0  0  0  0  0  0  0  0  0  0  0
  -25.9370  -11.6107   20.5446 N   0  0  0  0  0  0  0  0  0  0  0  0
  -26.2850  -12.9006   20.3993 N   0  0  0  0  0  0  0  0  0  0  0  0
  -22.8157  -17.5654   27.0050 N   0  0  0  0  0  0  0  0  0  0  0  0
  -30.0927  -12.6323   20.5953 N   0  0  0  0  0  0  0  0  0  0  0  0
  -29.6075  -18.8186   25.8476 N   0  0  2  0  0  0  0  0  0  1  0  0
  -25.4098  -15.1015   20.3709 N   0  0  0  0  0  0  0  0  0  0  0  0
  -21.9791  -13.6087   19.7410 N   0  0  0  0  0  0  0  0  0  0  0  0
  -20.7382  -20.2209   27.0516 N   0  0  0  0  0  0  0  0  0  0  0  0
  -22.3519  -14.3176   27.8383 N   0  0  0  0  0  0  0  0  0  0  0  0
  -30.6474  -12.8893   22.8799 N   0  0  0  0  0  0  0  0  0  0  0  0
  -24.3412  -11.9307   25.9908 N   0  3  0  0  0  0  0  0  0  0  0  0
  -22.3209  -13.7882   22.0015 O   0  0  0  0  0  0  0  0  0  0  0  0
  -22.9692  -20.3294   27.7098 O   0  0  0  0  0  0  0  0  0  0  0  0
  -20.7272  -16.5289   27.0141 O   0  0  0  0  0  0  0  0  0  0  0  0
  -24.6484  -13.9980   27.8745 O   0  0  0  0  0  0  0  0  0  0  0  0
  -32.2319  -13.2334   21.2589 O   0  0  0  0  0  0  0  0  0  0  0  0
  -21.6711   -6.9843   21.5166 O   0  0  0  0  0  0  0  0  0  0  0  0
  -28.7149  -19.3628   26.8575 O   0  0  0  0  0  0  0  0  0  1  0  0
  -20.6786   -3.8119   17.1172 F   0  0  0  0  0  0  0  0  0  0  0  0
  -23.7499   -5.8992   20.0524 F   0  0  0  0  0  0  0  0  0  0  0  0
  1  2  1  0  0  0  0
  1  5  2  0  0  0  0
  2  6  2  0  0  0  0
  3  8  2  0  0  0  0
  3 16  1  0  0  0  0
  4  9  1  0  0  0  0
  4 16  2  0  0  0  0
  5 18  1  0  0  0  0
  6 20  1  0  0  0  0
  7 10  2  0  0  0  0
  7 19  1  0  0  0  0
  8 25  1  0  0  0  0
  9 25  2  0  0  0  0
 10 26  1  0  0  0  0
 11 12  2  0  0  0  0
 11 27  1  0  0  0  0
 12 28  1  0  0  0  0
 13 21  1  0  0  0  0
 13 26  2  0  0  0  0
 14 28  2  0  0  0  0
 14 29  1  0  0  0  0
 15 23  1  0  0  0  0
 15 63  2  0  0  0  0
 16 30  1  0  0  0  0
 17 30  1  0  0  0  0
 17 32  2  0  0  0  0
 17 33  1  0  0  0  0
 18 20  2  0  0  0  0
 18 38  1  0  0  0  0
 19 21  2  0  0  0  0
 19 39  1  0  0  0  0
 20 50  1  0  0  0  0
 21 40  1  0  0  0  0
 22 24  1  0  0  0  0
 22 31  2  0  0  0  0
 22 41  1  0  0  0  0
 23 24  2  0  0  0  0
 23 59  1  0  0  0  0
 24 53  1  0  0  0  0
 25 80  1  0  0  0  0
 26 81  1  0  0  0  0
 27 29  2  0  0  0  0
 27 80  1  0  0  0  0
 28 82  1  0  0  0  0
 29 83  1  0  0  0  0
 30 64  2  0  0  0  0
 31 42  1  0  0  0  0
 31 63  1  0  0  0  0
 32 65  1  0  0  0  0
 32 69  1  0  0  0  0
 33 70  1  0  0  0  0
 33 75  2  0  0  0  0
 34 51  1  0  0  0  0
 34 71  1  0  0  0  0
 34 76  2  0  0  0  0
 35 60  1  0  0  0  0
 35 66  1  0  0  0  0
 35 77  2  0  0  0  0
 36 61  1  0  0  0  0
 36 72  1  0  0  0  0
 36 78  2  0  0  0  0
 37 67  1  0  0  0  0
 37 73  1  0  0  0  0
 37 79  2  0  0  0  0
 38 43  1  0  0  0  0
 39 51  1  0  0  0  0
 40 66  1  0  0  0  0
 41 68  1  0  0  0  0
 42 47  1  0  0  0  0
 43 45  1  0  0  0  0
 44 46  1  0  0  0  0
 44 48  1  0  0  0  0
 45 50  1  0  0  0  0
 46 52  1  0  0  0  0
 47 68  1  0  0  0  0
 48 67  1  0  0  0  0
 49 52  1  0  0  0  0
 49 67  1  0  0  0  0
 50 71  1  0  0  0  0
 51 66  1  0  0  0  0
 52 65  1  0  0  0  0
 54 61  1  0  0  0  0
 55 62  1  0  0  0  0
 56 62  1  0  0  0  0
 57 62  1  0  0  0  0
 58 74  1  0  0  0  0
 59 73  1  0  0  0  0
 60 62  1  0  0  0  0
 60 72  1  0  0  0  0
 61 74  1  0  0  0  0
 64 65  1  0  0  0  0
 68 81  1  0  0  0  0
M  CHG  1  74   1
M  ISO  4  37 100  68 101  73 100  81 101
M  END
> <Batch ID>
0135

> <Smiles>
CNC(C)C(=O)NC(C(=O)N1Cc2cc([101O:1][101N:1]3CCc4ncc(C[100NH:0][100C:0](=O)N5CCCC(n6nc(-c7ccc(Oc8ccc(F)cc8F)cc7)c(C(N)=O)c6N)C5)c(C)c4C3)ccc2CC1C(=O)NC1CCCc2ccccc21)C(C)(C)C

> <Shape>
0.120

> <Color>
0.146

> <Negative vol penalty>
0.000

$$$$

  -OEChem-04052321003D

 81 90  0     1  0  0  0  0  0999 V2000
  -27.7487  -12.4249   17.9239 C   0  0  0  0  0  0  0  0  0  0  0  0
  -27.6010  -13.7818   17.6546 C   0  0  0  0  0  0  0  0  0  0  0  0
  -29.3514  -28.2048   19.9444 C   0  0  0  0  0  0  0  0  0  0  0  0
  -27.7042  -26.6077   19.1873 C   0  0  0  0  0  0  0  0  0  0  0  0
  -26.9465  -11.8153   18.8876 C   0  0  0  0  0  0  0  0  0  0  0  0
  -26.6502  -14.5296   18.3482 C   0  0  0  0  0  0  0  0  0  0  0  0
  -18.4206  -25.0138   21.4753 C   0  0  0  0  0  0  0  0  0  0  0  0
  -25.5221  -21.1200   20.9195 C   0  0  0  0  0  0  0  0  0  0  0  0
  -19.2943  -23.9417   21.6659 C   0  0  0  0  0  0  0  0  0  0  0  0
  -30.3451  -27.2322   19.8341 C   0  0  0  0  0  0  0  0  0  0  0  0
  -28.6979  -25.6351   19.0769 C   0  0  0  0  0  0  0  0  0  0  0  0
  -24.5727  -22.1404   20.8880 C   0  0  0  0  0  0  0  0  0  0  0  0
  -30.4051  -23.5722   21.1412 C   0  0  0  0  0  0  0  0  0  0  0  0
  -30.1268  -22.3014   21.6443 C   0  0  0  0  0  0  0  0  0  0  0  0
  -20.8423  -25.3631   22.8926 C   0  0  0  0  0  0  0  0  0  0  0  0
  -23.2973  -20.9980   22.5873 C   0  0  0  0  0  0  0  0  0  0  0  0
  -30.4606  -21.3578   19.4453 C   0  0  0  0  0  0  0  0  0  0  0  0
  -28.0309  -27.8925   19.6211 C   0  0  0  0  0  0  0  0  0  0  0  0
  -26.5842  -29.8005   18.7410 C   0  0  0  0  0  0  0  0  0  0  0  0
  -25.9920  -12.5581   19.6002 C   0  0  0  0  0  0  0  0  0  0  0  0
  -18.7777  -26.2507   21.9857 C   0  0  0  0  0  0  0  0  0  0  0  0
  -25.3604  -20.0236   21.7787 C   0  0  0  0  0  0  0  0  0  0  0  0
  -25.8336  -13.9291   19.3215 C   0  0  0  0  0  0  0  0  0  0  0  0
  -19.9788  -26.4276   22.6860 C   0  0  0  0  0  0  0  0  0  0  0  0
  -24.2474  -19.9662   22.6296 C   0  0  0  0  0  0  0  0  0  0  0  0
  -20.4961  -24.1149   22.3699 C   0  0  0  0  0  0  0  0  0  0  0  0
  -30.0184  -25.9474   19.4003 C   0  0  0  0  0  0  0  0  0  0  0  0
  -23.4586  -22.0782   21.7199 C   0  0  0  0  0  0  0  0  0  0  0  0
  -30.7111  -23.7359   19.7901 C   0  0  0  0  0  0  0  0  0  0  0  0
  -30.1546  -21.1942   20.7964 C   0  0  0  0  0  0  0  0  0  0  0  0
  -30.7388  -22.6287   18.9422 C   0  0  0  0  0  0  0  0  0  0  0  0
  -27.0038  -28.8966   19.7354 C   0  0  0  0  0  0  0  0  0  0  0  0
  -25.5928  -30.5366   19.3424 C   0  0  0  0  0  0  0  0  0  0  0  0
  -27.0490  -29.9603   17.3941 C   0  0  0  0  0  0  0  0  0  0  0  0
  -25.0154  -16.8895   21.3756 C   0  0  0  0  0  0  0  0  0  0  0  0
  -25.2219  -16.8442   24.6125 C   0  0  0  0  0  0  0  0  0  0  0  0
  -24.8516  -18.5189   27.5629 C   0  0  0  0  0  0  0  0  0  0  0  0
  -21.8739  -29.4134   23.8987 C   0  0  0  0  0  0  0  0  0  0  0  0
  -25.1154  -11.8452   20.5992 C   0  0  0  0  0  0  0  0  0  0  0  0
  -17.9902  -27.5230   21.9420 C   0  0  0  0  0  0  0  0  0  0  0  0
  -26.4071  -18.9442   21.8199 C   0  0  0  0  0  0  0  0  0  0  0  0
  -24.0376  -18.8208   23.5848 C   0  0  0  0  0  0  0  0  0  0  0  0
  -24.3896  -12.7886   21.5550 C   0  0  0  0  0  0  0  0  0  0  0  0
  -19.0787  -28.5569   22.2692 C   0  0  0  0  0  0  0  0  0  0  0  0
  -24.1789  -32.1139   23.6324 C   0  0  0  0  0  0  0  0  0  0  0  0
  -23.7605  -13.9466   20.7869 C   0  0  0  0  0  0  0  0  0  0  0  0
  -25.1264  -31.6771   22.5137 C   0  0  0  0  0  0  0  0  0  0  0  0
  -23.7389  -30.9317   24.4930 C   0  0  0  0  0  0  0  0  0  0  0  0
  -24.1036  -29.3662   22.6248 C   0  0  0  0  0  0  0  0  0  0  0  0
  -24.8304  -14.7793   20.0704 C   0  0  1  0  0  0  0  0  0  0  0  0
  -20.0951  -27.8407   23.1767 C   0  0  2  0  0  0  0  0  0  0  0  0
  -25.8793  -17.6204   22.3641 C   0  0  1  0  0  0  0  0  0  0  0  0
  -24.5305  -30.5156   21.6958 C   0  0  2  0  0  0  0  0  0  0  0  0
  -25.0586  -18.2073   30.0443 C   0  0  0  0  0  0  0  0  0  0  0  0
  -22.5994  -15.2848   24.6331 C   0  0  0  0  0  0  0  0  0  0  0  0
  -22.3761  -15.8283   27.0668 C   0  0  0  0  0  0  0  0  0  0  0  0
  -24.3098  -14.4710   26.2660 C   0  0  0  0  0  0  0  0  0  0  0  0
  -26.9315  -20.6142   27.7694 C   0  0  0  0  0  0  0  0  0  0  0  0
  -21.4134  -22.9445   22.5699 C   0  0  0  0  0  0  0  0  0  1  0  0
  -24.2326  -16.9445   25.7484 C   0  0  1  0  0  0  0  0  0  0  0  0
  -25.7631  -18.6464   28.7701 C   0  0  2  0  0  0  0  0  0  0  0  0
  -23.3822  -15.6529   25.9093 C   0  0  0  0  0  0  0  0  0  0  0  0
  -26.3339  -29.0434   20.8815 N   0  0  0  0  0  0  0  0  0  0  0  0
  -25.4834  -30.0482   20.6112 N   0  0  0  0  0  0  0  0  0  0  0  0
  -25.0857  -17.7868   23.5835 N   0  0  0  0  0  0  0  0  0  0  0  0
  -23.1817  -29.8655   23.6571 N   0  0  0  0  0  0  0  0  0  0  0  0
  -24.8127  -31.5476   18.9045 N   0  0  0  0  0  0  0  0  0  0  0  0
  -28.0740  -29.1209   16.9370 N   0  0  0  0  0  0  0  0  0  0  0  0
  -25.5050  -15.6506   21.0086 N   0  0  0  0  0  0  0  0  0  0  0  0
  -25.0058  -17.3022   26.9327 N   0  0  0  0  0  0  0  0  0  0  0  0
  -21.4209  -28.4051   23.0568 N   0  0  0  0  0  0  0  0  0  0  0  0
  -26.2034  -20.0600   28.9397 N   0  3  0  0  0  0  0  0  0  0  0  0
  -26.5807  -30.8329   16.6241 O   0  0  0  0  0  0  0  0  0  0  0  0
  -23.9805  -17.4105   20.9764 O   0  0  0  0  0  0  0  0  0  0  0  0
  -26.0882  -15.9665   24.6407 O   0  0  0  0  0  0  0  0  0  0  0  0
  -24.0772  -19.4081   27.2161 O   0  0  0  0  0  0  0  0  0  0  0  0
  -21.1609  -29.8778   24.7947 O   0  0  0  0  0  0  0  0  0  0  0  0
  -30.9879  -24.9981   19.2923 O   0  0  0  0  0  0  0  0  0  0  0  0
  -22.5301  -23.0726   21.6908 O   0  0  0  0  0  0  0  0  0  1  0  0
  -29.8889  -19.9737   21.2800 F   0  0  0  0  0  0  0  0  0  0  0  0
  -31.0333  -22.7795   17.6436 F   0  0  0  0  0  0  0  0  0  0  0  0
  1  2  1  0  0  0  0
  1  5  2  0  0  0  0
  2  6  2  0  0  0  0
  3 10  2  0  0  0  0
  3 18  1  0  0  0  0
  4 11  1  0  0  0  0
  4 18  2  0  0  0  0
  5 20  1  0  0  0  0
  6 23  1  0  0  0  0
  7  9  2  0  0  0  0
  7 21  1  0  0  0  0
  8 12  2  0  0  0  0
  8 22  1  0  0  0  0
  9 26  1  0  0  0  0
 10 27  1  0  0  0  0
 11 27  2  0  0  0  0
 12 28  1  0  0  0  0
 13 14  2  0  0  0  0
 13 29  1  0  0  0  0
 14 30  1  0  0  0  0
 15 24  1  0  0  0  0
 15 26  2  0  0  0  0
 16 25  1  0  0  0  0
 16 28  2  0  0  0  0
 17 30  2  0  0  0  0
 17 31  1  0  0  0  0
 18 32  1  0  0  0  0
 19 32  1  0  0  0  0
 19 33  2  0  0  0  0
 19 34  1  0  0  0  0
 20 23  2  0  0  0  0
 20 39  1  0  0  0  0
 21 24  2  0  0  0  0
 21 40  1  0  0  0  0
 22 25  2  0  0  0  0
 22 41  1  0  0  0  0
 23 50  1  0  0  0  0
 24 51  1  0  0  0  0
 25 42  1  0  0  0  0
 26 59  1  0  0  0  0
 27 78  1  0  0  0  0
 28 79  1  0  0  0  0
 29 31  2  0  0  0  0
 29 78  1  0  0  0  0
 30 80  1  0  0  0  0
 31 81  1  0  0  0  0
 32 63  2  0  0  0  0
 33 64  1  0  0  0  0
 33 67  1  0  0  0  0
 34 68  1  0  0  0  0
 34 73  2  0  0  0  0
 35 52  1  0  0  0  0
 35 69  1  0  0  0  0
 35 74  2  0  0  0  0
 36 60  1  0  0  0  0
 36 65  1  0  0  0  0
 36 75  2  0  0  0  0
 37 61  1  0  0  0  0
 37 70  1  0  0  0  0
 37 76  2  0  0  0  0
 38 66  1  0  0  0  0
 38 71  1  0  0  0  0
 38 77  2  0  0  0  0
 39 43  1  0  0  0  0
 40 44  1  0  0  0  0
 41 52  1  0  0  0  0
 42 65  1  0  0  0  0
 43 46  1  0  0  0  0
 44 51  1  0  0  0  0
 45 47  1  0  0  0  0
 45 48  1  0  0  0  0
 46 50  1  0  0  0  0
 47 53  1  0  0  0  0
 48 66  1  0  0  0  0
 49 53  1  0  0  0  0
 49 66  1  0  0  0  0
 50 69  1  0  0  0  0
 51 71  1  0  0  0  0
 52 65  1  0  0  0  0
 53 64  1  0  0  0  0
 54 61  1  0  0  0  0
 55 62  1  0  0  0  0
 56 62  1  0  0  0  0
 57 62  1  0  0  0  0
 58 72  1  0  0  0  0
 59 79  1  0  0  0  0
 60 62  1  0  0  0  0
 60 70  1  0  0  0  0
 61 72  1  0  0  0  0
 63 64  1  0  0  0  0
M  CHG  1  72   1
M  ISO  4  38 100  59 101  71 100  79 101
M  END
> <Batch ID>
0135

> <Smiles>
CNC(C)C(=O)NC(C(=O)N1Cc2cc([101O:1][101CH2:1]c3ccc4c(c3)C([100NH:0][100C:0](=O)N3CCCC(n5nc(-c6ccc(Oc7ccc(F)cc7F)cc6)c(C(N)=O)c5N)C3)CC4)ccc2CC1C(=O)NC1CCCc2ccccc21)C(C)(C)C

> <Shape>
0.216

> <Color>
0.062

> <Negative vol penalty>
0.000

$$$$

  -OEChem-04052321003D

 83 91  0     1  0  0  0  0  0999 V2000
  -15.4340  -27.1715   25.6353 C   0  0  0  0  0  0  0  0  0  0  0  0
  -16.0425  -26.0484   25.0841 C   0  0  0  0  0  0  0  0  0  0  0  0
  -22.4276  -10.2950   20.0971 C   0  0  0  0  0  0  0  0  0  0  0  0
  -24.3096   -9.5523   21.4175 C   0  0  0  0  0  0  0  0  0  0  0  0
  -15.8213  -28.4458   25.2230 C   0  0  0  0  0  0  0  0  0  0  0  0
  -17.0380  -26.1990   24.1194 C   0  0  0  0  0  0  0  0  0  0  0  0
  -21.9673  -22.6513   23.3309 C   0  0  0  0  0  0  0  0  0  0  0  0
  -21.7853   -9.0786   20.3283 C   0  0  0  0  0  0  0  0  0  0  0  0
  -23.6673   -8.3359   21.6488 C   0  0  0  0  0  0  0  0  0  0  0  0
  -22.2374  -21.6025   22.4528 C   0  0  0  0  0  0  0  0  0  0  0  0
  -21.2198   -7.1560   23.6583 C   0  0  0  0  0  0  0  0  0  0  0  0
  -21.2301   -6.6569   24.9607 C   0  0  0  0  0  0  0  0  0  0  0  0
  -23.3334  -23.1452   20.9569 C   0  0  0  0  0  0  0  0  0  0  0  0
  -22.3788   -4.6753   24.1921 C   0  0  0  0  0  0  0  0  0  0  0  0
  -23.6898  -10.5318   20.6416 C   0  0  0  0  0  0  0  0  0  0  0  0
  -24.2684  -12.9568   21.1825 C   0  0  0  0  0  0  0  0  0  0  0  0
  -16.8288  -28.6123   24.2598 C   0  0  0  0  0  0  0  0  0  0  0  0
  -22.3693  -23.9589   23.0228 C   0  0  0  0  0  0  0  0  0  0  0  0
  -17.4383  -27.4767   23.6928 C   0  0  0  0  0  0  0  0  0  0  0  0
  -23.0695  -24.2084   21.8339 C   0  0  0  0  0  0  0  0  0  0  0  0
  -22.4052   -8.0991   21.1042 C   0  0  0  0  0  0  0  0  0  0  0  0
  -22.9180  -21.8499   21.2643 C   0  0  0  0  0  0  0  0  0  0  0  0
  -21.7889   -6.4148   22.6227 C   0  0  0  0  0  0  0  0  0  0  0  0
  -21.8096   -5.4165   25.2276 C   0  0  0  0  0  0  0  0  0  0  0  0
  -22.3685   -5.1744   22.8896 C   0  0  0  0  0  0  0  0  0  0  0  0
  -24.3540  -11.7879   20.4026 C   0  0  0  0  0  0  0  0  0  0  0  0
  -25.0780  -13.8597   20.5378 C   0  0  0  0  0  0  0  0  0  0  0  0
  -23.5236  -13.2041   22.3824 C   0  0  0  0  0  0  0  0  0  0  0  0
  -20.8595  -26.7115   22.5256 C   0  0  0  0  0  0  0  0  0  0  0  0
  -23.8762  -27.8999   22.4261 C   0  0  0  0  0  0  0  0  0  0  0  0
  -27.1975  -27.3316   21.8853 C   0  0  0  0  0  0  0  0  0  0  0  0
  -29.8503  -15.1262   17.9365 C   0  0  0  0  0  0  0  0  0  0  0  0
  -17.1807  -30.0086   23.8113 C   0  0  0  0  0  0  0  0  0  0  0  0
  -22.0939  -25.0748   23.9931 C   0  0  0  0  0  0  0  0  0  0  0  0
  -23.5406  -25.5909   21.4662 C   0  0  0  0  0  0  0  0  0  0  0  0
  -18.5055  -30.0905   23.0573 C   0  0  0  0  0  0  0  0  0  0  0  0
  -27.2646  -13.6539   15.9812 C   0  0  0  0  0  0  0  0  0  0  0  0
  -18.5921  -28.9861   22.0087 C   0  0  0  0  0  0  0  0  0  0  0  0
  -26.2736  -13.1285   17.0213 C   0  0  0  0  0  0  0  0  0  0  0  0
  -27.6736  -19.6946   18.6402 C   0  0  0  0  0  0  0  0  0  0  0  0
  -27.6808  -20.0757   21.1416 C   0  0  0  0  0  0  0  0  0  0  0  0
  -28.7095  -13.5040   16.4521 C   0  0  0  0  0  0  0  0  0  0  0  0
  -28.0041  -13.5704   18.8126 C   0  0  0  0  0  0  0  0  0  0  0  0
  -26.3867  -18.8892   18.7767 C   0  0  0  0  0  0  0  0  0  0  0  0
  -26.3937  -19.2675   21.2583 C   0  0  0  0  0  0  0  0  0  0  0  0
  -18.5393  -27.5998   22.6620 C   0  0  1  0  0  0  0  0  0  0  0  0
  -22.0975  -26.4519   23.3366 C   0  0  1  0  0  0  0  0  0  0  0  0
  -26.5315  -13.7515   18.4064 C   0  0  2  0  0  0  0  0  0  0  0  0
  -28.5142  -19.7067   19.9157 C   0  0  0  0  0  0  0  0  0  0  0  0
  -29.4152  -28.5053   21.8405 C   0  0  0  0  0  0  0  0  0  0  0  0
  -31.3951  -16.5499   20.9731 C   0  0  0  0  0  0  0  0  0  0  0  0
  -23.1702  -29.1254   19.7225 C   0  0  0  0  0  0  0  0  0  0  0  0
  -25.6182  -29.4459   19.3068 C   0  0  0  0  0  0  0  0  0  0  0  0
  -24.5172  -30.6078   21.2200 C   0  0  0  0  0  0  0  0  0  0  0  0
  -28.2697  -25.6362   24.0614 C   0  0  0  0  0  0  0  0  0  0  0  0
  -24.2691  -18.7078   20.0800 C   0  0  0  0  0  0  0  0  0  0  0  0
  -30.2977  -18.0872   19.2560 C   0  0  0  0  0  0  0  0  0  0  0  0
  -23.3634  -19.5319   20.9737 C   0  0  0  0  0  0  0  0  0  1  0  0
  -24.9062  -28.1127   21.3431 C   0  0  1  0  0  0  0  0  0  0  0  0
  -28.4286  -27.7153   22.6864 C   0  0  2  0  0  0  0  0  0  0  0  0
  -30.8896  -16.7076   19.5422 C   0  0  2  0  0  0  0  0  0  0  0  0
  -24.5425  -29.2971   20.4038 C   0  0  0  0  0  0  0  0  0  0  0  0
  -25.1548  -11.9323   19.3434 N   0  0  0  0  0  0  0  0  0  0  0  0
  -25.5796  -13.2026   19.4531 N   0  0  0  0  0  0  0  0  0  0  0  0
  -23.2417  -26.6497   22.4445 N   0  0  0  0  0  0  0  0  0  0  0  0
  -28.8875  -14.1170   17.7706 N   0  0  0  0  0  0  0  0  0  0  0  0
  -25.4027  -15.1439   20.7987 N   0  0  0  0  0  0  0  0  0  0  0  0
  -22.7429  -12.1666   22.9101 N   0  0  0  0  0  0  0  0  0  0  0  0
  -19.8206  -27.2677   23.2473 N   0  0  0  0  0  0  0  0  0  0  0  0
  -26.1885  -28.2612   22.0229 N   0  0  0  0  0  0  0  0  0  0  0  0
  -29.9499  -15.6581   19.2164 N   0  0  0  0  0  0  0  0  0  0  0  0
  -25.6090  -19.3829   19.9732 N   0  3  0  0  0  0  0  0  0  0  0  0
  -29.1201  -18.3594   20.1193 N   0  3  0  0  0  0  0  0  0  0  0  0
  -29.1170  -26.4952   23.1947 N   0  3  0  0  0  0  0  0  0  0  0  0
  -23.5366  -14.3175   22.9601 O   0  0  0  0  0  0  0  0  0  0  0  0
  -20.8482  -26.4296   21.3331 O   0  0  0  0  0  0  0  0  0  0  0  0
  -23.6483  -28.8068   23.2306 O   0  0  0  0  0  0  0  0  0  0  0  0
  -27.1384  -26.3113   21.2027 O   0  0  0  0  0  0  0  0  0  0  0  0
  -30.5644  -15.5275   17.0113 O   0  0  0  0  0  0  0  0  0  0  0  0
  -21.7786   -6.9121   21.3303 O   0  0  0  0  0  0  0  0  0  0  0  0
  -23.1823  -20.8281   20.4052 O   0  0  0  0  0  0  0  0  0  1  0  0
  -21.8208   -4.9380   26.4786 F   0  0  0  0  0  0  0  0  0  0  0  0
  -22.9179   -4.4583   21.8991 F   0  0  0  0  0  0  0  0  0  0  0  0
  1  2  1  0  0  0  0
  1  5  2  0  0  0  0
  2  6  2  0  0  0  0
  3  8  2  0  0  0  0
  3 15  1  0  0  0  0
  4  9  1  0  0  0  0
  4 15  2  0  0  0  0
  5 17  1  0  0  0  0
  6 19  1  0  0  0  0
  7 10  2  0  0  0  0
  7 18  1  0  0  0  0
  8 21  1  0  0  0  0
  9 21  2  0  0  0  0
 10 22  1  0  0  0  0
 11 12  2  0  0  0  0
 11 23  1  0  0  0  0
 12 24  1  0  0  0  0
 13 20  1  0  0  0  0
 13 22  2  0  0  0  0
 14 24  2  0  0  0  0
 14 25  1  0  0  0  0
 15 26  1  0  0  0  0
 16 26  1  0  0  0  0
 16 27  2  0  0  0  0
 16 28  1  0  0  0  0
 17 19  2  0  0  0  0
 17 33  1  0  0  0  0
 18 20  2  0  0  0  0
 18 34  1  0  0  0  0
 19 46  1  0  0  0  0
 20 35  1  0  0  0  0
 21 80  1  0  0  0  0
 22 81  1  0  0  0  0
 23 25  2  0  0  0  0
 23 80  1  0  0  0  0
 24 82  1  0  0  0  0
 25 83  1  0  0  0  0
 26 63  2  0  0  0  0
 27 64  1  0  0  0  0
 27 67  1  0  0  0  0
 28 68  1  0  0  0  0
 28 75  2  0  0  0  0
 29 47  1  0  0  0  0
 29 69  1  0  0  0  0
 29 76  2  0  0  0  0
 30 59  1  0  0  0  0
 30 65  1  0  0  0  0
 30 77  2  0  0  0  0
 31 60  1  0  0  0  0
 31 70  1  0  0  0  0
 31 78  2  0  0  0  0
 32 66  1  0  0  0  0
 32 71  1  0  0  0  0
 32 79  2  0  0  0  0
 33 36  1  0  0  0  0
 34 47  1  0  0  0  0
 35 65  1  0  0  0  0
 36 38  1  0  0  0  0
 37 39  1  0  0  0  0
 37 42  1  0  0  0  0
 38 46  1  0  0  0  0
 39 48  1  0  0  0  0
 40 44  1  0  0  0  0
 40 49  1  0  0  0  0
 41 45  1  0  0  0  0
 41 49  1  0  0  0  0
 42 66  1  0  0  0  0
 43 48  1  0  0  0  0
 43 66  1  0  0  0  0
 44 72  1  0  0  0  0
 45 72  1  0  0  0  0
 46 69  1  0  0  0  0
 47 65  1  0  0  0  0
 48 64  1  0  0  0  0
 49 73  1  0  0  0  0
 50 60  1  0  0  0  0
 51 61  1  0  0  0  0
 52 62  1  0  0  0  0
 53 62  1  0  0  0  0
 54 62  1  0  0  0  0
 55 74  1  0  0  0  0
 56 58  1  0  0  0  0
 56 72  1  0  0  0  0
 57 61  1  0  0  0  0
 57 73  1  0  0  0  0
 58 81  1  0  0  0  0
 59 62  1  0  0  0  0
 59 70  1  0  0  0  0
 60 74  1  0  0  0  0
 61 71  1  0  0  0  0
 63 64  1  0  0  0  0
M  CHG  3  72   1  73   1  74   1
M  ISO  4  32 100  58 101  71 100  81 101
M  END
> <Batch ID>
0135

> <Smiles>
CNC(C)C(=O)NC(C(=O)N1Cc2cc([101O:1][101CH2:1]CN3CCC(NCC(C)[100NH:0][100C:0](=O)N4CCCC(n5nc(-c6ccc(Oc7ccc(F)cc7F)cc6)c(C(N)=O)c5N)C4)CC3)ccc2CC1C(=O)NC1CCCc2ccccc21)C(C)(C)C

> <Shape>
0.271

> <Color>
0.132

> <Negative vol penalty>
0.000

$$$$

  -OEChem-04052321003D

 83 91  0     1  0  0  0  0  0999 V2000
  -22.3447  -11.5948   18.4315 C   0  0  0  0  0  0  0  0  0  0  0  0
  -21.8429  -12.6794   19.1437 C   0  0  0  0  0  0  0  0  0  0  0  0
  -20.1206  -25.0006   20.9326 C   0  0  0  0  0  0  0  0  0  0  0  0
  -21.4379  -23.6978   22.4832 C   0  0  0  0  0  0  0  0  0  0  0  0
  -23.6694  -11.1982   18.6093 C   0  0  0  0  0  0  0  0  0  0  0  0
  -22.6654  -13.3675   20.0350 C   0  0  0  0  0  0  0  0  0  0  0  0
  -23.8043  -19.9415   22.6430 C   0  0  0  0  0  0  0  0  0  0  0  0
  -19.2837  -23.9047   20.7227 C   0  0  0  0  0  0  0  0  0  0  0  0
  -20.6010  -22.6018   22.2733 C   0  0  0  0  0  0  0  0  0  0  0  0
  -23.9240  -20.6117   23.8597 C   0  0  0  0  0  0  0  0  0  0  0  0
  -19.0258  -19.3508   21.8735 C   0  0  0  0  0  0  0  0  0  0  0  0
  -19.6242  -18.1055   21.6817 C   0  0  0  0  0  0  0  0  0  0  0  0
  -26.2186  -19.8862   24.0266 C   0  0  0  0  0  0  0  0  0  0  0  0
  -20.7743  -18.9580   19.7355 C   0  0  0  0  0  0  0  0  0  0  0  0
  -21.1977  -24.8972   21.8128 C   0  0  0  0  0  0  0  0  0  0  0  0
  -21.9166  -27.0369   23.0013 C   0  0  0  0  0  0  0  0  0  0  0  0
  -24.5114  -11.8878   19.4960 C   0  0  0  0  0  0  0  0  0  0  0  0
  -24.8893  -19.2283   22.1135 C   0  0  0  0  0  0  0  0  0  0  0  0
  -24.0023  -12.9790   20.2258 C   0  0  0  0  0  0  0  0  0  0  0  0
  -26.1108  -19.2099   22.8018 C   0  0  0  0  0  0  0  0  0  0  0  0
  -19.5239  -22.7052   21.3930 C   0  0  0  0  0  0  0  0  0  0  0  0
  -25.1304  -20.5818   24.5531 C   0  0  0  0  0  0  0  0  0  0  0  0
  -19.3016  -20.3997   20.9963 C   0  0  0  0  0  0  0  0  0  0  0  0
  -20.4984  -17.9091   20.6127 C   0  0  0  0  0  0  0  0  0  0  0  0
  -20.1759  -20.2033   19.9273 C   0  0  0  0  0  0  0  0  0  0  0  0
  -22.0629  -26.0288   22.0297 C   0  0  0  0  0  0  0  0  0  0  0  0
  -22.9875  -27.8715   22.7941 C   0  0  0  0  0  0  0  0  0  0  0  0
  -20.9033  -27.2038   24.0019 C   0  0  0  0  0  0  0  0  0  0  0  0
  -26.4254  -22.9640   26.9579 C   0  0  0  0  0  0  0  0  0  0  0  0
  -25.4322  -16.1812   21.3895 C   0  0  0  0  0  0  0  0  0  0  0  0
  -28.1996  -17.3662   20.1815 C   0  0  0  0  0  0  0  0  0  0  0  0
  -30.5404  -19.8495   20.2005 C   0  0  0  0  0  0  0  0  0  0  0  0
  -28.4006  -27.0354   20.3754 C   0  0  0  0  0  0  0  0  0  0  0  0
  -25.9227  -11.3928   19.6901 C   0  0  0  0  0  0  0  0  0  0  0  0
  -24.7520  -18.5328   20.7869 C   0  0  0  0  0  0  0  0  0  0  0  0
  -27.3118  -18.4756   22.2663 C   0  0  0  0  0  0  0  0  0  0  0  0
  -26.8353  -12.4073   20.3743 C   0  0  0  0  0  0  0  0  0  0  0  0
  -25.9377  -29.3925   19.3482 C   0  0  0  0  0  0  0  0  0  0  0  0
  -26.1427  -13.0131   21.5909 C   0  0  0  0  0  0  0  0  0  0  0  0
  -24.6522  -28.8886   20.0067 C   0  0  0  0  0  0  0  0  0  0  0  0
  -29.0308  -25.5700   27.4741 C   0  0  0  0  0  0  0  0  0  0  0  0
  -26.8261  -28.2385   18.8888 C   0  0  0  0  0  0  0  0  0  0  0  0
  -28.5929  -25.1580   28.8774 C   0  0  0  0  0  0  0  0  0  0  0  0
  -25.8581  -26.7435   20.5921 C   0  0  0  0  0  0  0  0  0  0  0  0
  -24.8705  -13.7661   21.1834 C   0  0  1  0  0  0  0  0  0  0  0  0
  -27.7084  -23.5861   27.3979 C   0  0  1  0  0  0  0  0  0  0  0  0
  -25.7668  -17.4104   20.5928 C   0  0  1  0  0  0  0  0  0  0  0  0
  -24.9554  -27.8705   21.1224 C   0  0  2  0  0  0  0  0  0  0  0  0
  -28.1315  -24.7664   26.5509 C   0  0  2  0  0  0  0  0  0  0  0  0
  -32.7084  -20.5213   19.1299 C   0  0  0  0  0  0  0  0  0  0  0  0
  -29.6781  -15.3234   21.8993 C   0  0  0  0  0  0  0  0  0  0  0  0
  -31.7765  -16.6394   21.5350 C   0  0  0  0  0  0  0  0  0  0  0  0
  -30.5998  -15.6084   19.5920 C   0  0  0  0  0  0  0  0  0  0  0  0
  -29.3569  -22.3218   19.0841 C   0  0  0  0  0  0  0  0  0  0  0  0
  -26.5420  -21.7368   26.0793 C   0  0  0  0  0  0  0  0  0  1  0  0
  -29.7528  -24.7916   23.1098 C   0  0  0  0  0  0  0  0  0  0  0  0
  -29.8486  -25.7733   21.9469 C   0  0  0  0  0  0  0  0  0  0  0  0
  -28.9532  -25.3558   24.2772 C   0  0  0  0  0  0  0  0  0  0  0  0
  -29.5822  -17.6235   20.7304 C   0  0  1  0  0  0  0  0  0  0  0  0
  -31.1925  -20.6278   19.0720 C   0  0  2  0  0  0  0  0  0  0  0  0
  -30.3861  -16.3110   20.9505 C   0  0  0  0  0  0  0  0  0  0  0  0
  -23.1417  -26.2052   21.2621 N   0  0  0  0  0  0  0  0  0  0  0  0
  -23.6829  -27.3338   21.7513 N   0  0  0  0  0  0  0  0  0  0  0  0
  -27.4820  -24.2069   28.7121 N   0  0  0  0  0  0  0  0  0  0  0  0
  -27.1257  -17.8058   20.9685 N   0  0  0  0  0  0  0  0  0  0  0  0
  -27.0770  -27.3103   19.9939 N   0  0  0  0  0  0  0  0  0  0  0  0
  -23.3927  -29.0057   23.4039 N   0  0  0  0  0  0  0  0  0  0  0  0
  -19.8751  -26.2543   24.0764 N   0  0  0  0  0  0  0  0  0  0  0  0
  -25.2054  -15.0563   20.6197 N   0  0  0  0  0  0  0  0  0  0  0  0
  -30.2160  -18.5661   19.8149 N   0  0  0  0  0  0  0  0  0  0  0  0
  -28.5494  -26.1499   21.4358 N   0  0  0  0  0  0  0  0  0  0  0  0
  -28.8640  -24.3268   25.3465 N   0  3  0  0  0  0  0  0  0  0  0  0
  -30.8191  -22.0683   19.1530 N   0  3  0  0  0  0  0  0  0  0  0  0
  -20.9004  -28.1754   24.7953 O   0  0  0  0  0  0  0  0  0  0  0  0
  -25.3392  -23.4317   27.2965 O   0  0  0  0  0  0  0  0  0  0  0  0
  -25.3847  -16.2481   22.6122 O   0  0  0  0  0  0  0  0  0  0  0  0
  -28.0771  -16.8025   19.0911 O   0  0  0  0  0  0  0  0  0  0  0  0
  -30.3424  -20.3307   21.3140 O   0  0  0  0  0  0  0  0  0  0  0  0
  -29.3772  -27.5456   19.8160 O   0  0  0  0  0  0  0  0  0  0  0  0
  -18.7074  -21.6356   21.1886 O   0  0  0  0  0  0  0  0  0  0  0  0
  -25.2498  -21.2346   25.7411 O   0  0  0  0  0  0  0  0  0  1  0  0
  -21.0742  -16.7137   20.4295 F   0  0  0  0  0  0  0  0  0  0  0  0
  -20.4456  -21.2075   19.0820 F   0  0  0  0  0  0  0  0  0  0  0  0
  1  2  1  0  0  0  0
  1  5  2  0  0  0  0
  2  6  2  0  0  0  0
  3  8  2  0  0  0  0
  3 15  1  0  0  0  0
  4  9  1  0  0  0  0
  4 15  2  0  0  0  0
  5 17  1  0  0  0  0
  6 19  1  0  0  0  0
  7 10  2  0  0  0  0
  7 18  1  0  0  0  0
  8 21  1  0  0  0  0
  9 21  2  0  0  0  0
 10 22  1  0  0  0  0
 11 12  2  0  0  0  0
 11 23  1  0  0  0  0
 12 24  1  0  0  0  0
 13 20  1  0  0  0  0
 13 22  2  0  0  0  0
 14 24  2  0  0  0  0
 14 25  1  0  0  0  0
 15 26  1  0  0  0  0
 16 26  1  0  0  0  0
 16 27  2  0  0  0  0
 16 28  1  0  0  0  0
 17 19  2  0  0  0  0
 17 34  1  0  0  0  0
 18 20  2  0  0  0  0
 18 35  1  0  0  0  0
 19 45  1  0  0  0  0
 20 36  1  0  0  0  0
 21 80  1  0  0  0  0
 22 81  1  0  0  0  0
 23 25  2  0  0  0  0
 23 80  1  0  0  0  0
 24 82  1  0  0  0  0
 25 83  1  0  0  0  0
 26 62  2  0  0  0  0
 27 63  1  0  0  0  0
 27 67  1  0  0  0  0
 28 68  1  0  0  0  0
 28 74  2  0  0  0  0
 29 46  1  0  0  0  0
 29 55  1  0  0  0  0
 29 75  2  0  0  0  0
 30 47  1  0  0  0  0
 30 69  1  0  0  0  0
 30 76  2  0  0  0  0
 31 59  1  0  0  0  0
 31 65  1  0  0  0  0
 31 77  2  0  0  0  0
 32 60  1  0  0  0  0
 32 70  1  0  0  0  0
 32 78  2  0  0  0  0
 33 66  1  0  0  0  0
 33 71  1  0  0  0  0
 33 79  2  0  0  0  0
 34 37  1  0  0  0  0
 35 47  1  0  0  0  0
 36 65  1  0  0  0  0
 37 39  1  0  0  0  0
 38 40  1  0  0  0  0
 38 42  1  0  0  0  0
 39 45  1  0  0  0  0
 40 48  1  0  0  0  0
 41 43  1  0  0  0  0
 41 49  1  0  0  0  0
 42 66  1  0  0  0  0
 43 64  1  0  0  0  0
 44 48  1  0  0  0  0
 44 66  1  0  0  0  0
 45 69  1  0  0  0  0
 46 49  1  0  0  0  0
 46 64  1  0  0  0  0
 47 65  1  0  0  0  0
 48 63  1  0  0  0  0
 49 72  1  0  0  0  0
 50 60  1  0  0  0  0
 51 61  1  0  0  0  0
 52 61  1  0  0  0  0
 53 61  1  0  0  0  0
 54 73  1  0  0  0  0
 55 81  1  0  0  0  0
 56 57  1  0  0  0  0
 56 58  1  0  0  0  0
 57 71  1  0  0  0  0
 58 72  1  0  0  0  0
 59 61  1  0  0  0  0
 59 70  1  0  0  0  0
 60 73  1  0  0  0  0
 62 63  1  0  0  0  0
M  CHG  2  72   1  73   1
M  ISO  4  33 100  55 101  71 100  81 101
M  END
> <Batch ID>
0135

> <Smiles>
CNC(C)C(=O)NC(C(=O)N1Cc2cc([101O:1][101CH2:1]C(=O)C3NCCC3NCCC[100NH:0][100C:0](=O)N3CCCC(n4nc(-c5ccc(Oc6ccc(F)cc6F)cc5)c(C(N)=O)c4N)C3)ccc2CC1C(=O)NC1CCCc2ccccc21)C(C)(C)C

> <Shape>
0.162

> <Color>
0.072

> <Negative vol penalty>
0.000

$$$$

  -OEChem-04052321003D

 87 96  0     1  0  0  0  0  0999 V2000
  -24.3400  -33.9867   22.4739 C   0  0  0  0  0  0  0  0  0  0  0  0
  -23.4826  -33.0101   21.9773 C   0  0  0  0  0  0  0  0  0  0  0  0
  -23.2127   -9.3363   19.6336 C   0  0  0  0  0  0  0  0  0  0  0  0
  -24.4123   -9.2319   21.7281 C   0  0  0  0  0  0  0  0  0  0  0  0
  -25.6512  -34.0646   22.0064 C   0  0  0  0  0  0  0  0  0  0  0  0
  -23.9356  -32.1115   21.0120 C   0  0  0  0  0  0  0  0  0  0  0  0
  -23.8093  -25.0090   22.2075 C   0  0  0  0  0  0  0  0  0  0  0  0
  -22.2416   -8.4767   20.1469 C   0  0  0  0  0  0  0  0  0  0  0  0
  -23.4412   -8.3723   22.2415 C   0  0  0  0  0  0  0  0  0  0  0  0
  -23.6218  -23.6284   22.2777 C   0  0  0  0  0  0  0  0  0  0  0  0
  -22.6465   -5.0937   22.0174 C   0  0  0  0  0  0  0  0  0  0  0  0
  -23.0818   -3.9689   22.7181 C   0  0  0  0  0  0  0  0  0  0  0  0
  -24.6821  -23.3640   20.1205 C   0  0  0  0  0  0  0  0  0  0  0  0
  -27.6682  -19.2490   20.8288 C   0  0  0  0  0  0  0  0  0  0  0  0
  -28.1536  -18.8292   23.1580 C   0  0  0  0  0  0  0  0  0  0  0  0
  -21.9040   -4.7370   24.6828 C   0  0  0  0  0  0  0  0  0  0  0  0
  -24.2981   -9.7139   20.4242 C   0  0  0  0  0  0  0  0  0  0  0  0
  -26.1194  -10.3849   18.7688 C   0  0  0  0  0  0  0  0  0  0  0  0
  -26.1234  -33.1604   21.0419 C   0  0  0  0  0  0  0  0  0  0  0  0
  -24.4485  -25.5715   21.0992 C   0  0  0  0  0  0  0  0  0  0  0  0
  -25.2540  -32.1783   20.5302 C   0  0  0  0  0  0  0  0  0  0  0  0
  -24.8839  -24.7450   20.0503 C   0  0  0  0  0  0  0  0  0  0  0  0
  -27.4254  -19.5043   22.1784 C   0  0  0  0  0  0  0  0  0  0  0  0
  -28.6393  -18.3185   20.4587 C   0  0  0  0  0  0  0  0  0  0  0  0
  -29.1247  -17.8987   22.7879 C   0  0  0  0  0  0  0  0  0  0  0  0
  -29.3675  -17.6434   21.4383 C   0  0  0  0  0  0  0  0  0  0  0  0
  -22.3558   -7.9947   21.4509 C   0  0  0  0  0  0  0  0  0  0  0  0
  -24.0569  -22.8080   21.2366 C   0  0  0  0  0  0  0  0  0  0  0  0
  -21.8401   -6.0402   22.6494 C   0  0  0  0  0  0  0  0  0  0  0  0
  -22.7105   -3.7905   24.0508 C   0  0  0  0  0  0  0  0  0  0  0  0
  -21.4688   -5.8619   23.9821 C   0  0  0  0  0  0  0  0  0  0  0  0
  -25.3019  -10.6014   19.8943 C   0  0  0  0  0  0  0  0  0  0  0  0
  -26.8960  -11.5148   18.6861 C   0  0  0  0  0  0  0  0  0  0  0  0
  -26.1720   -9.2629   17.8777 C   0  0  0  0  0  0  0  0  0  0  0  0
  -25.6987  -28.6832   19.4169 C   0  0  0  0  0  0  0  0  0  0  0  0
  -27.8177  -26.5120   18.9627 C   0  0  0  0  0  0  0  0  0  0  0  0
  -30.0901  -23.9691   19.0469 C   0  0  0  0  0  0  0  0  0  0  0  0
  -30.0507  -15.3175   20.8772 C   0  0  0  0  0  0  0  0  0  0  0  0
  -27.5347  -33.3138   20.5325 C   0  0  0  0  0  0  0  0  0  0  0  0
  -24.6167  -27.0595   20.9529 C   0  0  0  0  0  0  0  0  0  0  0  0
  -25.5355  -25.3975   18.8618 C   0  0  0  0  0  0  0  0  0  0  0  0
  -28.0482  -32.0873   19.7826 C   0  0  0  0  0  0  0  0  0  0  0  0
  -26.5566  -15.9384   21.0986 C   0  0  0  0  0  0  0  0  0  0  0  0
  -27.0039  -31.5953   18.7856 C   0  0  0  0  0  0  0  0  0  0  0  0
  -25.9814  -14.5740   20.7204 C   0  0  0  0  0  0  0  0  0  0  0  0
  -22.5045  -20.2482   22.8754 C   0  0  0  0  0  0  0  0  0  0  0  0
  -27.8049  -15.8111   21.9724 C   0  0  0  0  0  0  0  0  0  0  0  0
  -28.2824  -13.5794   21.0155 C   0  0  0  0  0  0  0  0  0  0  0  0
  -22.4626  -19.5201   24.2070 C   0  0  0  0  0  0  0  0  0  0  0  0
  -24.9337  -19.1208   24.0864 C   0  0  0  0  0  0  0  0  0  0  0  0
  -25.7158  -31.1699   19.5007 C   0  0  1  0  0  0  0  0  0  0  0  0
  -25.9254  -27.4521   20.2442 C   0  0  1  0  0  0  0  0  0  0  0  0
  -25.0077  -19.8485   22.7441 C   0  0  1  0  0  0  0  0  0  0  0  0
  -27.0599  -13.6757   20.0895 C   0  0  1  0  0  0  0  0  0  0  0  0
  -23.8730  -20.8806   22.6154 C   0  0  1  0  0  0  0  0  0  1  0  0
  -28.8763  -18.0661   19.0048 C   0  0  0  0  0  0  0  0  0  0  0  0
  -29.8889  -17.1916   23.8603 C   0  0  0  0  0  0  0  0  0  0  0  0
  -32.3939  -23.3594   18.2608 C   0  0  0  0  0  0  0  0  0  0  0  0
  -26.7366  -26.0768   16.1439 C   0  0  0  0  0  0  0  0  0  0  0  0
  -28.7225  -24.6235   15.6831 C   0  0  0  0  0  0  0  0  0  0  0  0
  -29.0453  -27.0335   16.2400 C   0  0  0  0  0  0  0  0  0  0  0  0
  -31.6831  -17.1729   20.6170 C   0  0  0  0  0  0  0  0  0  0  0  0
  -31.0686  -23.6180   21.8179 C   0  0  0  0  0  0  0  0  0  0  0  0
  -26.3792  -20.5064   22.5770 C   0  0  0  0  0  0  0  0  0  0  0  0
  -28.3410  -25.4246   18.0587 C   0  0  1  0  0  0  0  0  0  0  0  0
  -31.5680  -23.9496   19.3931 C   0  0  2  0  0  0  0  0  0  0  0  0
  -28.1939  -25.7838   16.5531 C   0  0  0  0  0  0  0  0  0  0  0  0
  -25.5374  -11.7763   20.4843 N   0  0  0  0  0  0  0  0  0  0  0  0
  -26.5117  -12.3082   19.7267 N   0  0  0  0  0  0  0  0  0  0  0  0
  -26.4630  -26.4475   19.3110 N   0  0  0  0  0  0  0  0  0  0  0  0
  -28.7877  -14.9132   21.3494 N   0  0  0  0  0  0  0  0  0  0  0  0
  -27.8633  -11.8970   17.8255 N   0  0  0  0  0  0  0  0  0  0  0  0
  -27.0451   -8.2093   18.1809 N   0  0  0  0  0  0  0  0  0  0  0  0
  -25.8813  -29.8663   20.1071 N   0  0  0  0  0  0  0  0  0  0  0  0
  -29.7139  -25.1687   18.4806 N   0  0  0  0  0  0  0  0  0  0  0  0
  -30.3729  -16.6801   21.0555 N   0  0  0  0  0  0  0  0  0  0  0  0
  -23.5742  -18.5252   24.2548 N   0  3  0  0  0  0  0  0  0  0  0  0
  -31.8021  -23.1357   20.6194 N   0  3  0  0  0  0  0  0  0  0  0  0
  -25.4777   -9.2041   16.8346 O   0  0  0  0  0  0  0  0  0  0  0  0
  -25.3829  -28.5695   18.2384 O   0  0  0  0  0  0  0  0  0  0  0  0
  -28.5855  -27.3988   19.3466 O   0  0  0  0  0  0  0  0  0  0  0  0
  -29.3447  -23.0142   19.2544 O   0  0  0  0  0  0  0  0  0  0  0  0
  -30.8401  -14.5179   20.3602 O   0  0  0  0  0  0  0  0  0  0  0  0
  -21.4082   -7.1560   21.9522 O   0  0  0  0  0  0  0  0  0  0  0  0
  -23.8748  -21.4605   21.3137 O   0  0  0  0  0  0  0  0  0  1  0  0
  -23.1272   -2.7095   24.7230 F   0  0  0  0  0  0  0  0  0  0  0  0
  -20.6933   -6.7672   24.5942 F   0  0  0  0  0  0  0  0  0  0  0  0
  1  2  1  0  0  0  0
  1  5  2  0  0  0  0
  2  6  2  0  0  0  0
  3  8  2  0  0  0  0
  3 17  1  0  0  0  0
  4  9  1  0  0  0  0
  4 17  2  0  0  0  0
  5 19  1  0  0  0  0
  6 21  1  0  0  0  0
  7 10  2  0  0  0  0
  7 20  1  0  0  0  0
  8 27  1  0  0  0  0
  9 27  2  0  0  0  0
 10 28  1  0  0  0  0
 11 12  2  0  0  0  0
 11 29  1  0  0  0  0
 12 30  1  0  0  0  0
 13 22  1  0  0  0  0
 13 28  2  0  0  0  0
 14 23  1  0  0  0  0
 14 24  2  0  0  0  0
 15 23  2  0  0  0  0
 15 25  1  0  0  0  0
 16 30  2  0  0  0  0
 16 31  1  0  0  0  0
 17 32  1  0  0  0  0
 18 32  1  0  0  0  0
 18 33  2  0  0  0  0
 18 34  1  0  0  0  0
 19 21  2  0  0  0  0
 19 39  1  0  0  0  0
 20 22  2  0  0  0  0
 20 40  1  0  0  0  0
 21 51  1  0  0  0  0
 22 41  1  0  0  0  0
 23 64  1  0  0  0  0
 24 26  1  0  0  0  0
 24 56  1  0  0  0  0
 25 26  2  0  0  0  0
 25 57  1  0  0  0  0
 26 76  1  0  0  0  0
 27 84  1  0  0  0  0
 28 85  1  0  0  0  0
 29 31  2  0  0  0  0
 29 84  1  0  0  0  0
 30 86  1  0  0  0  0
 31 87  1  0  0  0  0
 32 68  2  0  0  0  0
 33 69  1  0  0  0  0
 33 72  1  0  0  0  0
 34 73  1  0  0  0  0
 34 79  2  0  0  0  0
 35 52  1  0  0  0  0
 35 74  1  0  0  0  0
 35 80  2  0  0  0  0
 36 65  1  0  0  0  0
 36 70  1  0  0  0  0
 36 81  2  0  0  0  0
 37 66  1  0  0  0  0
 37 75  1  0  0  0  0
 37 82  2  0  0  0  0
 38 71  1  0  0  0  0
 38 76  1  0  0  0  0
 38 83  2  0  0  0  0
 39 42  1  0  0  0  0
 40 52  1  0  0  0  0
 41 70  1  0  0  0  0
 42 44  1  0  0  0  0
 43 45  1  0  0  0  0
 43 47  1  0  0  0  0
 44 51  1  0  0  0  0
 45 54  1  0  0  0  0
 46 49  1  0  0  0  0
 46 55  1  0  0  0  0
 47 71  1  0  0  0  0
 48 54  1  0  0  0  0
 48 71  1  0  0  0  0
 49 77  1  0  0  0  0
 50 53  1  0  0  0  0
 50 77  1  0  0  0  0
 51 74  1  0  0  0  0
 52 70  1  0  0  0  0
 53 55  1  0  0  0  0
 53 64  1  0  0  0  0
 54 69  1  0  0  0  0
 55 85  1  0  0  0  0
 58 66  1  0  0  0  0
 59 67  1  0  0  0  0
 60 67  1  0  0  0  0
 61 67  1  0  0  0  0
 62 76  1  0  0  0  0
 63 78  1  0  0  0  0
 65 67  1  0  0  0  0
 65 75  1  0  0  0  0
 66 78  1  0  0  0  0
 68 69  1  0  0  0  0
M  CHG  2  77   1  78   1
M  ISO  4  38 100  55 101  76 100  85 101
M  END
> <Batch ID>
0135

> <Smiles>
CNC(C)C(=O)NC(C(=O)N1Cc2cc([101O:1][101CH:1]3CCNCC3Cc3cc(C)c([100N:0](C)[100C:0](=O)N4CCCC(n5nc(-c6ccc(Oc7ccc(F)cc7F)cc6)c(C(N)=O)c5N)C4)c(C)c3)ccc2CC1C(=O)NC1CCCc2ccccc21)C(C)(C)C

> <Shape>
0.249

> <Color>
0.086

> <Negative vol penalty>
0.000

$$$$

  -OEChem-04052321003D

 84 93  0     1  0  0  0  0  0999 V2000
  -30.5697  -23.5864   11.7979 C   0  0  0  0  0  0  0  0  0  0  0  0
  -29.3443  -23.5510   12.4557 C   0  0  0  0  0  0  0  0  0  0  0  0
  -25.6864  -14.6744   18.2439 C   0  0  0  0  0  0  0  0  0  0  0  0
  -24.1060  -15.0463   20.0330 C   0  0  0  0  0  0  0  0  0  0  0  0
  -31.7466  -23.3447   12.5053 C   0  0  0  0  0  0  0  0  0  0  0  0
  -29.2951  -23.2727   13.8212 C   0  0  0  0  0  0  0  0  0  0  0  0
  -26.3841  -27.9549   18.4573 C   0  0  0  0  0  0  0  0  0  0  0  0
  -26.0481  -13.4552   18.8167 C   0  0  0  0  0  0  0  0  0  0  0  0
  -24.4677  -13.8270   20.6059 C   0  0  0  0  0  0  0  0  0  0  0  0
  -25.6550  -28.7047   19.3805 C   0  0  0  0  0  0  0  0  0  0  0  0
  -24.7156  -10.6444   22.3459 C   0  0  0  0  0  0  0  0  0  0  0  0
  -23.6927   -9.8096   22.7957 C   0  0  0  0  0  0  0  0  0  0  0  0
  -26.3029  -27.1827   21.1445 C   0  0  0  0  0  0  0  0  0  0  0  0
  -22.7877   -9.7126   20.5577 C   0  0  0  0  0  0  0  0  0  0  0  0
  -24.7154  -15.4701   18.8521 C   0  0  0  0  0  0  0  0  0  0  0  0
  -23.7979  -16.9399   16.9798 C   0  0  0  0  0  0  0  0  0  0  0  0
  -31.7125  -23.0728   13.8821 C   0  0  0  0  0  0  0  0  0  0  0  0
  -27.0888  -26.8235   18.8776 C   0  0  0  0  0  0  0  0  0  0  0  0
  -30.4725  -23.0258   14.5474 C   0  0  0  0  0  0  0  0  0  0  0  0
  -27.0451  -26.4348   20.2266 C   0  0  0  0  0  0  0  0  0  0  0  0
  -25.4387  -13.0314   19.9977 C   0  0  0  0  0  0  0  0  0  0  0  0
  -25.6143  -28.3194   20.7207 C   0  0  0  0  0  0  0  0  0  0  0  0
  -24.7746  -11.0134   21.0020 C   0  0  0  0  0  0  0  0  0  0  0  0
  -22.7288   -9.3437   21.9017 C   0  0  0  0  0  0  0  0  0  0  0  0
  -23.8106  -10.5474   20.1079 C   0  0  0  0  0  0  0  0  0  0  0  0
  -24.3418  -16.7299   18.2611 C   0  0  0  0  0  0  0  0  0  0  0  0
  -23.6218  -18.2997   16.9001 C   0  0  0  0  0  0  0  0  0  0  0  0
  -23.4803  -15.9905   15.9533 C   0  0  0  0  0  0  0  0  0  0  0  0
  -29.3377  -23.9725   17.9339 C   0  0  0  0  0  0  0  0  0  0  0  0
  -30.3270  -25.0305   20.6381 C   0  0  0  0  0  0  0  0  0  0  0  0
  -31.3545  -26.7572   23.3948 C   0  0  0  0  0  0  0  0  0  0  0  0
  -22.7781  -22.4068   21.0564 C   0  0  0  0  0  0  0  0  0  0  0  0
  -33.0071  -22.7713   14.5948 C   0  0  0  0  0  0  0  0  0  0  0  0
  -27.8372  -25.9510   17.9067 C   0  0  0  0  0  0  0  0  0  0  0  0
  -27.7903  -25.1909   20.6269 C   0  0  0  0  0  0  0  0  0  0  0  0
  -32.8989  -22.8536   16.1152 C   0  0  0  0  0  0  0  0  0  0  0  0
  -25.4105  -22.4119   18.5728 C   0  0  0  0  0  0  0  0  0  0  0  0
  -31.6548  -22.1177   16.6025 C   0  0  0  0  0  0  0  0  0  0  0  0
  -21.3212  -26.3799   23.6329 C   0  0  0  0  0  0  0  0  0  0  0  0
  -19.7827  -25.8956   21.6870 C   0  0  0  0  0  0  0  0  0  0  0  0
  -25.3763  -20.9605   18.0904 C   0  0  0  0  0  0  0  0  0  0  0  0
  -22.4266  -25.5612   22.9655 C   0  0  0  0  0  0  0  0  0  0  0  0
  -20.8852  -25.0753   21.0166 C   0  0  0  0  0  0  0  0  0  0  0  0
  -23.8265  -31.2535   21.1706 C   0  0  0  0  0  0  0  0  0  0  0  0
  -25.1482  -22.5020   20.0732 C   0  0  0  0  0  0  0  0  0  0  0  0
  -23.8397  -20.4139   20.0346 C   0  0  0  0  0  0  0  0  0  0  0  0
  -30.3801  -22.7519   16.0328 C   0  0  1  0  0  0  0  0  0  0  0  0
  -29.1177  -25.3423   18.5057 C   0  0  1  0  0  0  0  0  0  0  0  0
  -20.3257  -26.9795   22.6293 C   0  0  0  0  0  0  0  0  0  0  0  0
  -22.9554  -30.5111   22.1459 C   0  0  2  0  0  0  0  0  0  0  0  0
  -24.0755  -20.2573   18.5214 C   0  0  2  0  0  0  0  0  0  0  0  0
  -21.8474  -24.4826   22.0475 C   0  0  0  0  0  0  0  0  0  0  0  0
  -23.7582  -29.7511   21.1243 C   0  0  2  0  0  0  0  0  0  1  0  0
  -33.1198  -26.7507   25.1784 C   0  0  0  0  0  0  0  0  0  0  0  0
  -20.8690  -31.8188   22.7039 C   0  0  0  0  0  0  0  0  0  0  0  0
  -28.8992  -22.7268   22.0375 C   0  0  0  0  0  0  0  0  0  0  0  0
  -30.0613  -23.3862   24.1548 C   0  0  0  0  0  0  0  0  0  0  0  0
  -31.3948  -22.6483   22.1799 C   0  0  0  0  0  0  0  0  0  0  0  0
  -32.3626  -29.4147   22.5696 C   0  0  0  0  0  0  0  0  0  0  0  0
  -20.9394  -28.1480   21.8532 C   0  0  0  0  0  0  0  0  0  0  0  0
  -30.2700  -24.9123   22.1401 C   0  0  1  0  0  0  0  0  0  0  0  0
  -32.7203  -27.2752   23.8080 C   0  0  2  0  0  0  0  0  0  0  0  0
  -21.4720  -30.5819   22.0302 C   0  0  2  0  0  0  0  0  0  0  0  0
  -30.1402  -23.4371   22.6140 C   0  0  0  0  0  0  0  0  0  0  0  0
  -24.5009  -17.8655   18.9461 N   0  0  0  0  0  0  0  0  0  0  0  0
  -24.0544  -18.8021   18.0920 N   0  0  0  0  0  0  0  0  0  0  0  0
  -29.1049  -25.1585   19.9669 N   0  0  0  0  0  0  0  0  0  0  0  0
  -23.8864  -21.8299   20.4144 N   0  0  0  0  0  0  0  0  0  0  0  0
  -23.1407  -19.1027   15.9274 N   0  0  0  0  0  0  0  0  0  0  0  0
  -22.1966  -15.4282   15.9374 N   0  0  0  0  0  0  0  0  0  0  0  0
  -30.0539  -23.9645   16.7522 N   0  0  0  0  0  0  0  0  0  0  0  0
  -31.4509  -25.6016   22.6489 N   0  0  0  0  0  0  0  0  0  0  0  0
  -22.9059  -23.7500   21.3887 N   0  0  0  0  0  0  0  0  0  0  0  0
  -32.7161  -28.7647   23.8578 N   0  3  0  0  0  0  0  0  0  0  0  0
  -20.8594  -29.3772   22.6776 N   0  3  0  0  0  0  0  0  0  0  0  0
  -24.3154  -15.6387   15.0860 O   0  0  0  0  0  0  0  0  0  0  0  0
  -28.8922  -22.9938   18.5216 O   0  0  0  0  0  0  0  0  0  0  0  0
  -31.4235  -25.0046   20.0722 O   0  0  0  0  0  0  0  0  0  0  0  0
  -30.3068  -27.3194   23.7060 O   0  0  0  0  0  0  0  0  0  0  0  0
  -21.7480  -21.7731   21.3100 O   0  0  0  0  0  0  0  0  0  0  0  0
  -25.7912  -11.8416   20.5568 O   0  0  0  0  0  0  0  0  0  0  0  0
  -24.9043  -29.0585   21.6176 O   0  0  0  0  0  0  0  0  0  1  0  0
  -21.7474   -8.5408   22.3335 F   0  0  0  0  0  0  0  0  0  0  0  0
  -23.8627  -10.8975   18.8154 F   0  0  0  0  0  0  0  0  0  0  0  0
  1  2  1  0  0  0  0
  1  5  2  0  0  0  0
  2  6  2  0  0  0  0
  3  8  2  0  0  0  0
  3 15  1  0  0  0  0
  4  9  1  0  0  0  0
  4 15  2  0  0  0  0
  5 17  1  0  0  0  0
  6 19  1  0  0  0  0
  7 10  2  0  0  0  0
  7 18  1  0  0  0  0
  8 21  1  0  0  0  0
  9 21  2  0  0  0  0
 10 22  1  0  0  0  0
 11 12  2  0  0  0  0
 11 23  1  0  0  0  0
 12 24  1  0  0  0  0
 13 20  1  0  0  0  0
 13 22  2  0  0  0  0
 14 24  2  0  0  0  0
 14 25  1  0  0  0  0
 15 26  1  0  0  0  0
 16 26  1  0  0  0  0
 16 27  2  0  0  0  0
 16 28  1  0  0  0  0
 17 19  2  0  0  0  0
 17 33  1  0  0  0  0
 18 20  2  0  0  0  0
 18 34  1  0  0  0  0
 19 47  1  0  0  0  0
 20 35  1  0  0  0  0
 21 81  1  0  0  0  0
 22 82  1  0  0  0  0
 23 25  2  0  0  0  0
 23 81  1  0  0  0  0
 24 83  1  0  0  0  0
 25 84  1  0  0  0  0
 26 65  2  0  0  0  0
 27 66  1  0  0  0  0
 27 69  1  0  0  0  0
 28 70  1  0  0  0  0
 28 76  2  0  0  0  0
 29 48  1  0  0  0  0
 29 71  1  0  0  0  0
 29 77  2  0  0  0  0
 30 61  1  0  0  0  0
 30 67  1  0  0  0  0
 30 78  2  0  0  0  0
 31 62  1  0  0  0  0
 31 72  1  0  0  0  0
 31 79  2  0  0  0  0
 32 68  1  0  0  0  0
 32 73  1  0  0  0  0
 32 80  2  0  0  0  0
 33 36  1  0  0  0  0
 34 48  1  0  0  0  0
 35 67  1  0  0  0  0
 36 38  1  0  0  0  0
 37 41  1  0  0  0  0
 37 45  1  0  0  0  0
 38 47  1  0  0  0  0
 39 42  1  0  0  0  0
 39 49  1  0  0  0  0
 40 43  1  0  0  0  0
 40 49  1  0  0  0  0
 41 51  1  0  0  0  0
 42 52  1  0  0  0  0
 43 52  1  0  0  0  0
 44 50  1  0  0  0  0
 44 53  1  0  0  0  0
 45 68  1  0  0  0  0
 46 51  1  0  0  0  0
 46 68  1  0  0  0  0
 47 71  1  0  0  0  0
 48 67  1  0  0  0  0
 49 60  1  0  0  0  0
 50 53  1  0  0  0  0
 50 63  1  0  0  0  0
 51 66  1  0  0  0  0
 52 73  1  0  0  0  0
 53 82  1  0  0  0  0
 54 62  1  0  0  0  0
 55 63  1  0  0  0  0
 56 64  1  0  0  0  0
 57 64  1  0  0  0  0
 58 64  1  0  0  0  0
 59 74  1  0  0  0  0
 60 75  1  0  0  0  0
 61 64  1  0  0  0  0
 61 72  1  0  0  0  0
 62 74  1  0  0  0  0
 63 75  1  0  0  0  0
 65 66  1  0  0  0  0
M  CHG  2  74   1  75   1
M  ISO  4  32 100  53 101  73 100  82 101
M  END
> <Batch ID>
0135

> <Smiles>
CNC(C)C(=O)NC(C(=O)N1Cc2cc([101O:1][101CH:1]3CC3C(C)NCC3CCC([100NH:0][100C:0](=O)N4CCCC(n5nc(-c6ccc(Oc7ccc(F)cc7F)cc6)c(C(N)=O)c5N)C4)CC3)ccc2CC1C(=O)NC1CCCc2ccccc21)C(C)(C)C

> <Shape>
0.179

> <Color>
0.071

> <Negative vol penalty>
0.000

$$$$

  -OEChem-04052321003D

 85 94  0     1  0  0  0  0  0999 V2000
  -20.0815  -35.4700   17.2461 C   0  0  0  0  0  0  0  0  0  0  0  0
  -20.5167  -34.1914   16.9127 C   0  0  0  0  0  0  0  0  0  0  0  0
  -23.2336  -14.8713   21.0310 C   0  0  0  0  0  0  0  0  0  0  0  0
  -24.1179  -15.1607   23.2606 C   0  0  0  0  0  0  0  0  0  0  0  0
  -20.8419  -36.2620   18.1055 C   0  0  0  0  0  0  0  0  0  0  0  0
  -21.7132  -33.7044   17.4378 C   0  0  0  0  0  0  0  0  0  0  0  0
  -24.7898  -27.6062   19.5970 C   0  0  0  0  0  0  0  0  0  0  0  0
  -22.8722  -13.5610   21.3443 C   0  0  0  0  0  0  0  0  0  0  0  0
  -23.7564  -13.8504   23.5740 C   0  0  0  0  0  0  0  0  0  0  0  0
  -25.9456  -26.8528   19.3958 C   0  0  0  0  0  0  0  0  0  0  0  0
  -24.3937  -10.5550   21.6150 C   0  0  0  0  0  0  0  0  0  0  0  0
  -24.6880   -9.5614   20.6814 C   0  0  0  0  0  0  0  0  0  0  0  0
  -32.7129  -24.3446   19.5035 C   0  0  0  0  0  0  0  0  0  0  0  0
  -27.1364  -28.2802   20.9332 C   0  0  0  0  0  0  0  0  0  0  0  0
  -31.5499  -26.4576   19.3621 C   0  0  0  0  0  0  0  0  0  0  0  0
  -22.3380   -9.0275   20.5087 C   0  0  0  0  0  0  0  0  0  0  0  0
  -23.8565  -15.6711   21.9891 C   0  0  0  0  0  0  0  0  0  0  0  0
  -23.4484  -18.1839   21.8258 C   0  0  0  0  0  0  0  0  0  0  0  0
  -22.0434  -35.7808   18.6490 C   0  0  0  0  0  0  0  0  0  0  0  0
  -24.8016  -28.7107   20.4610 C   0  0  0  0  0  0  0  0  0  0  0  0
  -22.4910  -34.4911   18.3042 C   0  0  0  0  0  0  0  0  0  0  0  0
  -31.7227  -23.8566   20.3561 C   0  0  0  0  0  0  0  0  0  0  0  0
  -25.9789  -29.0444   21.1456 C   0  0  0  0  0  0  0  0  0  0  0  0
  -32.6266  -25.6451   19.0066 C   0  0  0  0  0  0  0  0  0  0  0  0
  -30.5596  -25.9695   20.2147 C   0  0  0  0  0  0  0  0  0  0  0  0
  -30.6461  -24.6690   20.7117 C   0  0  0  0  0  0  0  0  0  0  0  0
  -23.1336  -13.0506   22.6158 C   0  0  0  0  0  0  0  0  0  0  0  0
  -27.1199  -27.1915   20.0617 C   0  0  0  0  0  0  0  0  0  0  0  0
  -23.0715  -10.7848   21.9956 C   0  0  0  0  0  0  0  0  0  0  0  0
  -23.6602   -8.7977   20.1282 C   0  0  0  0  0  0  0  0  0  0  0  0
  -22.0437  -10.0211   21.4424 C   0  0  0  0  0  0  0  0  0  0  0  0
  -24.2306  -17.0245   21.6658 C   0  0  0  0  0  0  0  0  0  0  0  0
  -24.2506  -19.2041   21.3761 C   0  0  0  0  0  0  0  0  0  0  0  0
  -22.1158  -18.3261   22.3353 C   0  0  0  0  0  0  0  0  0  0  0  0
  -24.3034  -31.8313   20.1190 C   0  0  0  0  0  0  0  0  0  0  0  0
  -24.5693  -31.8325   23.3519 C   0  0  0  0  0  0  0  0  0  0  0  0
  -25.7683  -30.3097   26.1609 C   0  0  0  0  0  0  0  0  0  0  0  0
  -30.3146  -19.2639   20.9722 C   0  0  0  0  0  0  0  0  0  0  0  0
  -22.8549  -36.6913   19.5361 C   0  0  0  0  0  0  0  0  0  0  0  0
  -23.5396  -29.4970   20.6877 C   0  0  0  0  0  0  0  0  0  0  0  0
  -26.0387  -30.2086   22.0994 C   0  0  0  0  0  0  0  0  0  0  0  0
  -23.9223  -35.9599   20.3460 C   0  0  0  0  0  0  0  0  0  0  0  0
  -27.8087  -20.1205   18.3276 C   0  0  0  0  0  0  0  0  0  0  0  0
  -24.6968  -34.9919   19.4572 C   0  0  0  0  0  0  0  0  0  0  0  0
  -26.5560  -19.4472   18.8860 C   0  0  0  0  0  0  0  0  0  0  0  0
  -29.0727  -19.3985   18.7795 C   0  0  0  0  0  0  0  0  0  0  0  0
  -32.7449  -19.6673   20.7137 C   0  0  0  0  0  0  0  0  0  0  0  0
  -31.1758  -21.4170   19.9473 C   0  0  0  0  0  0  0  0  0  0  0  0
  -27.9434  -18.5893   20.8275 C   0  0  0  0  0  0  0  0  0  0  0  0
  -33.4144  -20.6418   21.6663 C   0  0  0  0  0  0  0  0  0  0  0  0
  -23.7710  -33.9181   18.8730 C   0  0  1  0  0  0  0  0  0  0  0  0
  -31.8406  -22.4428   20.8821 C   0  0  1  0  0  0  0  0  0  0  0  0
  -23.8002  -30.9118   21.1955 C   0  0  1  0  0  0  0  0  0  0  0  0
  -26.6450  -19.3019   20.4146 C   0  0  2  0  0  0  0  0  0  0  0  0
  -33.6846  -26.1668   18.0941 C   0  0  0  0  0  0  0  0  0  0  0  0
  -29.5842  -24.1459   21.6259 C   0  0  0  0  0  0  0  0  0  0  0  0
  -25.8574  -30.5668   28.6555 C   0  0  0  0  0  0  0  0  0  0  0  0
  -26.7023  -33.9934   23.0506 C   0  0  0  0  0  0  0  0  0  0  0  0
  -27.4068  -33.5287   25.4077 C   0  0  0  0  0  0  0  0  0  0  0  0
  -25.1031  -34.3621   24.9377 C   0  0  0  0  0  0  0  0  0  0  0  0
  -24.3201  -27.7648   26.5912 C   0  0  0  0  0  0  0  0  0  0  0  0
  -29.4171  -26.8598   20.5799 C   0  0  0  0  0  0  0  0  0  1  0  0
  -25.7085  -31.9836   24.3309 C   0  0  1  0  0  0  0  0  0  0  0  0
  -25.1033  -29.9634   27.4808 C   0  0  2  0  0  0  0  0  0  0  0  0
  -26.2299  -33.4461   24.4123 C   0  0  0  0  0  0  0  0  0  0  0  0
  -25.4371  -17.2829   21.1544 N   0  0  0  0  0  0  0  0  0  0  0  0
  -25.4190  -18.6165   20.9889 N   0  0  0  0  0  0  0  0  0  0  0  0
  -24.7803  -30.9504   22.2827 N   0  0  0  0  0  0  0  0  0  0  0  0
  -29.1160  -19.2404   20.2397 N   0  0  0  0  0  0  0  0  0  0  0  0
  -31.3566  -20.0496   20.4572 N   0  0  0  0  0  0  0  0  0  0  0  0
  -24.0636  -20.5374   21.2780 N   0  0  0  0  0  0  0  0  0  0  0  0
  -21.4343  -17.1753   22.7541 N   0  0  0  0  0  0  0  0  0  0  0  0
  -23.4761  -32.9093   19.8679 N   0  0  0  0  0  0  0  0  0  0  0  0
  -25.2293  -31.4485   25.6007 N   0  0  0  0  0  0  0  0  0  0  0  0
  -33.2715  -22.0257   21.1184 N   0  3  0  0  0  0  0  0  0  0  0  0
  -25.0535  -28.4852   27.6636 N   0  3  0  0  0  0  0  0  0  0  0  0
  -21.5402  -19.4387   22.4015 O   0  0  0  0  0  0  0  0  0  0  0  0
  -25.3644  -31.5822   19.5588 O   0  0  0  0  0  0  0  0  0  0  0  0
  -23.5278  -32.4682   23.5333 O   0  0  0  0  0  0  0  0  0  0  0  0
  -26.6778  -29.6393   25.6771 O   0  0  0  0  0  0  0  0  0  0  0  0
  -30.4420  -18.6257   22.0245 O   0  0  0  0  0  0  0  0  0  0  0  0
  -22.7808  -11.7722   22.9220 O   0  0  0  0  0  0  0  0  0  0  0  0
  -28.2576  -26.4530   19.8653 O   0  0  0  0  0  0  0  0  0  1  0  0
  -23.9428   -7.8446   19.2305 F   0  0  0  0  0  0  0  0  0  0  0  0
  -20.7715  -10.2381   21.8032 F   0  0  0  0  0  0  0  0  0  0  0  0
  1  2  1  0  0  0  0
  1  5  2  0  0  0  0
  2  6  2  0  0  0  0
  3  8  2  0  0  0  0
  3 17  1  0  0  0  0
  4  9  1  0  0  0  0
  4 17  2  0  0  0  0
  5 19  1  0  0  0  0
  6 21  1  0  0  0  0
  7 10  2  0  0  0  0
  7 20  1  0  0  0  0
  8 27  1  0  0  0  0
  9 27  2  0  0  0  0
 10 28  1  0  0  0  0
 11 12  2  0  0  0  0
 11 29  1  0  0  0  0
 12 30  1  0  0  0  0
 13 22  2  0  0  0  0
 13 24  1  0  0  0  0
 14 23  1  0  0  0  0
 14 28  2  0  0  0  0
 15 24  2  0  0  0  0
 15 25  1  0  0  0  0
 16 30  2  0  0  0  0
 16 31  1  0  0  0  0
 17 32  1  0  0  0  0
 18 32  1  0  0  0  0
 18 33  2  0  0  0  0
 18 34  1  0  0  0  0
 19 21  2  0  0  0  0
 19 39  1  0  0  0  0
 20 23  2  0  0  0  0
 20 40  1  0  0  0  0
 21 51  1  0  0  0  0
 22 26  1  0  0  0  0
 22 52  1  0  0  0  0
 23 41  1  0  0  0  0
 24 55  1  0  0  0  0
 25 26  2  0  0  0  0
 25 62  1  0  0  0  0
 26 56  1  0  0  0  0
 27 82  1  0  0  0  0
 28 83  1  0  0  0  0
 29 31  2  0  0  0  0
 29 82  1  0  0  0  0
 30 84  1  0  0  0  0
 31 85  1  0  0  0  0
 32 66  2  0  0  0  0
 33 67  1  0  0  0  0
 33 71  1  0  0  0  0
 34 72  1  0  0  0  0
 34 77  2  0  0  0  0
 35 53  1  0  0  0  0
 35 73  1  0  0  0  0
 35 78  2  0  0  0  0
 36 63  1  0  0  0  0
 36 68  1  0  0  0  0
 36 79  2  0  0  0  0
 37 64  1  0  0  0  0
 37 74  1  0  0  0  0
 37 80  2  0  0  0  0
 38 69  1  0  0  0  0
 38 70  1  0  0  0  0
 38 81  2  0  0  0  0
 39 42  1  0  0  0  0
 40 53  1  0  0  0  0
 41 68  1  0  0  0  0
 42 44  1  0  0  0  0
 43 45  1  0  0  0  0
 43 46  1  0  0  0  0
 44 51  1  0  0  0  0
 45 54  1  0  0  0  0
 46 69  1  0  0  0  0
 47 50  1  0  0  0  0
 47 70  1  0  0  0  0
 48 52  1  0  0  0  0
 48 70  1  0  0  0  0
 49 54  1  0  0  0  0
 49 69  1  0  0  0  0
 50 75  1  0  0  0  0
 51 73  1  0  0  0  0
 52 75  1  0  0  0  0
 53 68  1  0  0  0  0
 54 67  1  0  0  0  0
 57 64  1  0  0  0  0
 58 65  1  0  0  0  0
 59 65  1  0  0  0  0
 60 65  1  0  0  0  0
 61 76  1  0  0  0  0
 62 83  1  0  0  0  0
 63 65  1  0  0  0  0
 63 74  1  0  0  0  0
 64 76  1  0  0  0  0
 66 67  1  0  0  0  0
M  CHG  2  75   1  76   1
M  ISO  4  38 100  62 101  70 100  83 101
M  END
> <Batch ID>
0135

> <Smiles>
CNC(C)C(=O)NC(C(=O)N1Cc2cc([101O:1][101CH2:1]c3cc(C)cc(C4C[100N:0]([100C:0](=O)N5CCCC(n6nc(-c7ccc(Oc8ccc(F)cc8F)cc7)c(C(N)=O)c6N)C5)CCN4)c3C)ccc2CC1C(=O)NC1CCCc2ccccc21)C(C)(C)C

> <Shape>
0.234

> <Color>
0.081

> <Negative vol penalty>
0.000

$$$$

  -OEChem-04052321003D

 88 98  0     1  0  0  0  0  0999 V2000
  -28.6546  -38.5146   22.8349 C   0  0  0  0  0  0  0  0  0  0  0  0
  -27.9163  -37.5102   22.2172 C   0  0  0  0  0  0  0  0  0  0  0  0
  -22.9946   -9.9171   19.9518 C   0  0  0  0  0  0  0  0  0  0  0  0
  -23.7527   -9.9077   22.2457 C   0  0  0  0  0  0  0  0  0  0  0  0
  -29.9750  -38.2753   23.2134 C   0  0  0  0  0  0  0  0  0  0  0  0
  -28.4985  -36.2661   21.9766 C   0  0  0  0  0  0  0  0  0  0  0  0
  -26.8515  -29.3025   21.6426 C   0  0  0  0  0  0  0  0  0  0  0  0
  -30.4445  -23.4440   20.2018 C   0  0  0  0  0  0  0  0  0  0  0  0
  -22.2418   -8.7685   20.1958 C   0  0  0  0  0  0  0  0  0  0  0  0
  -22.9999   -8.7591   22.4898 C   0  0  0  0  0  0  0  0  0  0  0  0
  -26.9791  -28.2051   20.7921 C   0  0  0  0  0  0  0  0  0  0  0  0
  -29.8534  -24.5978   19.6872 C   0  0  0  0  0  0  0  0  0  0  0  0
  -23.2662   -5.4376   21.9173 C   0  0  0  0  0  0  0  0  0  0  0  0
  -23.8734   -4.4044   22.6310 C   0  0  0  0  0  0  0  0  0  0  0  0
  -29.2424  -27.8801   21.5609 C   0  0  0  0  0  0  0  0  0  0  0  0
  -28.5189  -24.8076   21.6902 C   0  0  0  0  0  0  0  0  0  0  0  0
  -22.1720   -4.5829   24.3370 C   0  0  0  0  0  0  0  0  0  0  0  0
  -23.7501  -10.4867   20.9767 C   0  0  0  0  0  0  0  0  0  0  0  0
  -24.1110  -13.0098   20.8686 C   0  0  0  0  0  0  0  0  0  0  0  0
  -30.5705  -37.0246   22.9861 C   0  0  0  0  0  0  0  0  0  0  0  0
  -27.9239  -29.7042   22.4520 C   0  0  0  0  0  0  0  0  0  0  0  0
  -29.8285  -36.0103   22.3512 C   0  0  0  0  0  0  0  0  0  0  0  0
  -29.1250  -28.9813   22.4227 C   0  0  0  0  0  0  0  0  0  0  0  0
  -29.1100  -23.6538   22.2049 C   0  0  0  0  0  0  0  0  0  0  0  0
  -30.0728  -22.9720   21.4607 C   0  0  0  0  0  0  0  0  0  0  0  0
  -22.2445   -8.1895   21.4648 C   0  0  0  0  0  0  0  0  0  0  0  0
  -28.1756  -27.4955   20.7491 C   0  0  0  0  0  0  0  0  0  0  0  0
  -28.8905  -25.2795   20.4314 C   0  0  0  0  0  0  0  0  0  1  0  0
  -22.1119   -6.0436   22.4135 C   0  0  0  0  0  0  0  0  0  0  0  0
  -23.3263   -3.9770   23.8408 C   0  0  0  0  0  0  0  0  0  0  0  0
  -21.5648   -5.6162   23.6233 C   0  0  0  0  0  0  0  0  0  0  0  0
  -24.5283  -11.6729   20.7251 C   0  0  0  0  0  0  0  0  0  0  0  0
  -25.2091  -13.7526   20.5096 C   0  0  0  0  0  0  0  0  0  0  0  0
  -22.8442  -13.5332   21.2890 C   0  0  0  0  0  0  0  0  0  0  0  0
  -29.6954  -32.3330   22.6864 C   0  0  0  0  0  0  0  0  0  0  0  0
  -30.9376  -30.7969   25.2593 C   0  0  0  0  0  0  0  0  0  0  0  0
  -31.5509  -27.8412   26.8513 C   0  0  0  0  0  0  0  0  0  0  0  0
  -30.7002  -14.7294   20.7068 C   0  0  0  0  0  0  0  0  0  0  0  0
  -32.0157  -36.8281   23.3700 C   0  0  0  0  0  0  0  0  0  0  0  0
  -27.7613  -30.8738   23.3836 C   0  0  0  0  0  0  0  0  0  0  0  0
  -30.2994  -29.3595   23.2865 C   0  0  0  0  0  0  0  0  0  0  0  0
  -32.4394  -35.3624   23.4180 C   0  0  0  0  0  0  0  0  0  0  0  0
  -29.5465  -12.3646   18.3082 C   0  0  0  0  0  0  0  0  0  0  0  0
  -28.1353  -24.1487   24.5456 C   0  0  0  0  0  0  0  0  0  0  0  0
  -29.5003  -23.5725   24.7582 C   0  0  0  0  0  0  0  0  0  0  0  0
  -31.9482  -34.6238   22.1770 C   0  0  0  0  0  0  0  0  0  0  0  0
  -28.1066  -12.0797   18.7387 C   0  0  0  0  0  0  0  0  0  0  0  0
  -30.3480  -17.3610   23.3433 C   0  0  0  0  0  0  0  0  0  0  0  0
  -30.1674  -18.8788   23.2260 C   0  0  0  0  0  0  0  0  0  0  0  0
  -30.4644  -12.5729   19.5108 C   0  0  0  0  0  0  0  0  0  0  0  0
  -28.5671  -13.3119   20.8993 C   0  0  0  0  0  0  0  0  0  0  0  0
  -28.6953  -23.1649   23.5530 C   0  0  0  0  0  0  0  0  0  0  0  0
  -30.4170  -34.6397   22.0955 C   0  0  1  0  0  0  0  0  0  0  0  0
  -29.0899  -31.5067   23.7856 C   0  0  1  0  0  0  0  0  0  0  0  0
  -27.5926  -13.1501   19.7202 C   0  0  2  0  0  0  0  0  0  0  0  0
  -30.7814  -16.8736   21.9537 C   0  0  2  0  0  0  0  0  0  0  0  0
  -30.8100  -19.2395   21.8966 C   0  0  1  0  0  0  0  0  0  0  0  0
  -30.4948  -18.0435   21.0108 C   0  0  1  0  0  0  0  0  0  0  0  0
  -32.6170  -26.9021   28.9199 C   0  0  0  0  0  0  0  0  0  0  0  0
  -33.6974  -31.2462   24.0380 C   0  0  0  0  0  0  0  0  0  0  0  0
  -34.5955  -29.5096   25.6020 C   0  0  0  0  0  0  0  0  0  0  0  0
  -33.5810  -31.5994   26.5111 C   0  0  0  0  0  0  0  0  0  0  0  0
  -28.9932  -26.6793   27.7822 C   0  0  0  0  0  0  0  0  0  0  0  0
  -30.7204  -21.7339   21.9887 C   0  0  0  0  0  0  0  0  0  0  0  0
  -32.0840  -29.8405   25.4827 C   0  0  1  0  0  0  0  0  0  0  0  0
  -31.3285  -27.4061   28.2886 C   0  0  2  0  0  0  0  0  0  0  0  0
  -33.4682  -30.5427   25.3906 C   0  0  0  0  0  0  0  0  0  0  0  0
  -25.7928  -11.5695   20.3073 N   0  0  0  0  0  0  0  0  0  0  0  0
  -26.1794  -12.8508   20.1852 N   0  0  0  0  0  0  0  0  0  0  0  0
  -30.0934  -30.5143   24.1761 N   0  0  0  0  0  0  0  0  0  0  0  0
  -29.9209  -13.6015   20.4011 N   0  0  0  0  0  0  0  0  0  0  0  0
  -25.4296  -15.0828   20.4430 N   0  0  0  0  0  0  0  0  0  0  0  0
  -21.8252  -12.6301   21.6213 N   0  0  0  0  0  0  0  0  0  0  0  0
  -29.8522  -33.6679   23.0071 N   0  0  0  0  0  0  0  0  0  0  0  0
  -31.8286  -29.1889   26.7628 N   0  0  0  0  0  0  0  0  0  0  0  0
  -30.1075  -15.6588   21.5527 N   0  0  0  0  0  0  0  0  0  0  0  0
  -30.2203  -20.4882   21.3464 N   0  3  0  0  0  0  0  0  0  0  0  0
  -30.3170  -26.3133   28.3484 N   0  3  0  0  0  0  0  0  0  0  0  0
  -22.6172  -14.7653   21.3518 O   0  0  0  0  0  0  0  0  0  0  0  0
  -29.9994  -31.7986   21.6263 O   0  0  0  0  0  0  0  0  0  0  0  0
  -30.7921  -31.7553   26.0222 O   0  0  0  0  0  0  0  0  0  0  0  0
  -31.4885  -27.0626   25.9024 O   0  0  0  0  0  0  0  0  0  0  0  0
  -31.8378  -14.8983   20.2549 O   0  0  0  0  0  0  0  0  0  0  0  0
  -31.3485  -17.9874   19.8827 O   0  0  0  0  0  0  0  0  0  0  0  0
  -21.5099   -7.0688   21.7034 O   0  0  0  0  0  0  0  0  0  0  0  0
  -28.3031  -26.4244   19.9194 O   0  0  0  0  0  0  0  0  0  1  0  0
  -23.9086   -2.9837   24.5252 F   0  0  0  0  0  0  0  0  0  0  0  0
  -20.4554   -6.1937   24.1045 F   0  0  0  0  0  0  0  0  0  0  0  0
  1  2  1  0  0  0  0
  1  5  2  0  0  0  0
  2  6  2  0  0  0  0
  3  9  2  0  0  0  0
  3 18  1  0  0  0  0
  4 10  1  0  0  0  0
  4 18  2  0  0  0  0
  5 20  1  0  0  0  0
  6 22  1  0  0  0  0
  7 11  2  0  0  0  0
  7 21  1  0  0  0  0
  8 12  2  0  0  0  0
  8 25  1  0  0  0  0
  9 26  1  0  0  0  0
 10 26  2  0  0  0  0
 11 27  1  0  0  0  0
 12 28  1  0  0  0  0
 13 14  2  0  0  0  0
 13 29  1  0  0  0  0
 14 30  1  0  0  0  0
 15 23  1  0  0  0  0
 15 27  2  0  0  0  0
 16 24  1  0  0  0  0
 16 28  2  0  0  0  0
 17 30  2  0  0  0  0
 17 31  1  0  0  0  0
 18 32  1  0  0  0  0
 19 32  1  0  0  0  0
 19 33  2  0  0  0  0
 19 34  1  0  0  0  0
 20 22  2  0  0  0  0
 20 39  1  0  0  0  0
 21 23  2  0  0  0  0
 21 40  1  0  0  0  0
 22 53  1  0  0  0  0
 23 41  1  0  0  0  0
 24 25  2  0  0  0  0
 24 52  1  0  0  0  0
 25 64  1  0  0  0  0
 26 85  1  0  0  0  0
 27 86  1  0  0  0  0
 28 86  1  0  0  0  0
 29 31  2  0  0  0  0
 29 85  1  0  0  0  0
 30 87  1  0  0  0  0
 31 88  1  0  0  0  0
 32 68  2  0  0  0  0
 33 69  1  0  0  0  0
 33 72  1  0  0  0  0
 34 73  1  0  0  0  0
 34 79  2  0  0  0  0
 35 54  1  0  0  0  0
 35 74  1  0  0  0  0
 35 80  2  0  0  0  0
 36 65  1  0  0  0  0
 36 70  1  0  0  0  0
 36 81  2  0  0  0  0
 37 66  1  0  0  0  0
 37 75  1  0  0  0  0
 37 82  2  0  0  0  0
 38 71  1  0  0  0  0
 38 76  1  0  0  0  0
 38 83  2  0  0  0  0
 39 42  1  0  0  0  0
 40 54  1  0  0  0  0
 41 70  1  0  0  0  0
 42 46  1  0  0  0  0
 43 47  1  0  0  0  0
 43 50  1  0  0  0  0
 44 45  1  0  0  0  0
 44 52  1  0  0  0  0
 45 52  1  0  0  0  0
 46 53  1  0  0  0  0
 47 55  1  0  0  0  0
 48 49  1  0  0  0  0
 48 56  1  0  0  0  0
 49 57  1  0  0  0  0
 50 71  1  0  0  0  0
 51 55  1  0  0  0  0
 51 71  1  0  0  0  0
 53 74  1  0  0  0  0
 54 70  1  0  0  0  0
 55 69  1  0  0  0  0
 56 58  1  0  0  0  0
 56 76  1  0  0  0  0
 57 58  1  0  0  0  0
 57 77  1  0  0  0  0
 58 84  1  0  0  0  0
 59 66  1  0  0  0  0
 60 67  1  0  0  0  0
 61 67  1  0  0  0  0
 62 67  1  0  0  0  0
 63 78  1  0  0  0  0
 64 77  1  0  0  0  0
 65 67  1  0  0  0  0
 65 75  1  0  0  0  0
 66 78  1  0  0  0  0
 68 69  1  0  0  0  0
M  CHG  2  77   1  78   1
M  ISO  4  28 101  38 100  76 100  86 101
M  END
> <Batch ID>
0135

> <Smiles>
CNC(C)C(=O)NC(C(=O)N1Cc2cc([101O:1][101c:1]3ccc(CNC4CCC([100NH:0][100C:0](=O)N5CCCC(n6nc(-c7ccc(Oc8ccc(F)cc8F)cc7)c(C(N)=O)c6N)C5)C4O)c(C4CC4)c3)ccc2CC1C(=O)NC1CCCc2ccccc21)C(C)(C)C

> <Shape>
0.254

> <Color>
0.214

> <Negative vol penalty>
0.000

$$$$

  -OEChem-04052321003D

 85 94  0     1  0  0  0  0  0999 V2000
  -20.3015  -13.0724   26.3506 C   0  0  0  0  0  0  0  0  0  0  0  0
  -21.2399  -14.0090   25.9289 C   0  0  0  0  0  0  0  0  0  0  0  0
  -23.1170   -9.8758   19.9341 C   0  0  0  0  0  0  0  0  0  0  0  0
  -23.7979   -9.9107   22.2519 C   0  0  0  0  0  0  0  0  0  0  0  0
  -19.1367  -12.8726   25.6109 C   0  0  0  0  0  0  0  0  0  0  0  0
  -21.0144  -14.7455   24.7665 C   0  0  0  0  0  0  0  0  0  0  0  0
  -22.6510  -20.5520   23.7119 C   0  0  0  0  0  0  0  0  0  0  0  0
  -30.2235  -20.0276   20.9879 C   0  0  0  0  0  0  0  0  0  0  0  0
  -22.3452   -8.7398   20.1779 C   0  0  0  0  0  0  0  0  0  0  0  0
  -23.0261   -8.7748   22.4958 C   0  0  0  0  0  0  0  0  0  0  0  0
  -23.7320  -21.1134   23.0338 C   0  0  0  0  0  0  0  0  0  0  0  0
  -19.3357   -8.0184   21.5399 C   0  0  0  0  0  0  0  0  0  0  0  0
  -18.0456   -7.9853   21.0107 C   0  0  0  0  0  0  0  0  0  0  0  0
  -30.9212  -19.0358   21.6682 C   0  0  0  0  0  0  0  0  0  0  0  0
  -22.3706  -21.3286   21.0540 C   0  0  0  0  0  0  0  0  0  0  0  0
  -18.6166   -6.0101   19.7420 C   0  0  0  0  0  0  0  0  0  0  0  0
  -28.7683  -18.3489   20.1387 C   0  0  0  0  0  0  0  0  0  0  0  0
  -23.8434  -10.4613   20.9711 C   0  0  0  0  0  0  0  0  0  0  0  0
  -24.2327  -12.9778   20.8197 C   0  0  0  0  0  0  0  0  0  0  0  0
  -18.8923  -13.6139   24.4441 C   0  0  0  0  0  0  0  0  0  0  0  0
  -21.4227  -20.3643   23.0618 C   0  0  0  0  0  0  0  0  0  0  0  0
  -19.8458  -14.5545   24.0098 C   0  0  0  0  0  0  0  0  0  0  0  0
  -21.2748  -20.7669   21.7268 C   0  0  0  0  0  0  0  0  0  0  0  0
  -29.1253  -19.6860   20.2065 C   0  0  0  0  0  0  0  0  0  0  0  0
  -22.2997   -8.1893   21.4587 C   0  0  0  0  0  0  0  0  0  0  0  0
  -23.5928  -21.4992   21.7038 C   0  0  0  0  0  0  0  0  0  0  0  0
  -20.2663   -7.0473   21.1702 C   0  0  0  0  0  0  0  0  0  0  0  0
  -17.6860   -6.9812   20.1117 C   0  0  0  0  0  0  0  0  0  0  0  0
  -19.9067   -6.0432   20.2713 C   0  0  0  0  0  0  0  0  0  0  0  0
  -24.6413  -11.6344   20.7197 C   0  0  0  0  0  0  0  0  0  0  0  0
  -30.4837  -17.7278   21.5351 C   0  0  0  0  0  0  0  0  0  0  0  0
  -25.3495  -13.7024   20.4816 C   0  0  0  0  0  0  0  0  0  0  0  0
  -22.9578  -13.5221   21.1856 C   0  0  0  0  0  0  0  0  0  0  0  0
  -19.6329  -17.8404   22.3335 C   0  0  0  0  0  0  0  0  0  0  0  0
  -17.5259  -20.1054   21.3572 C   0  0  0  0  0  0  0  0  0  0  0  0
  -17.0017  -23.2940   20.2596 C   0  0  0  0  0  0  0  0  0  0  0  0
  -30.7797  -14.6622   20.7737 C   0  0  0  0  0  0  0  0  0  0  0  0
  -17.6409  -13.3292   23.6520 C   0  0  0  0  0  0  0  0  0  0  0  0
  -20.2584  -19.7819   23.8152 C   0  0  0  0  0  0  0  0  0  0  0  0
  -19.9713  -20.6056   20.9896 C   0  0  0  0  0  0  0  0  0  0  0  0
  -17.3025  -14.4170   22.6359 C   0  0  0  0  0  0  0  0  0  0  0  0
  -31.2326  -15.3647   24.3023 C   0  0  0  0  0  0  0  0  0  0  0  0
  -29.7385  -12.2666   18.4487 C   0  0  0  0  0  0  0  0  0  0  0  0
  -18.5450  -14.8139   21.8450 C   0  0  0  0  0  0  0  0  0  0  0  0
  -31.1801  -16.7967   23.7850 C   0  0  0  0  0  0  0  0  0  0  0  0
  -28.2913  -11.9747   18.8404 C   0  0  0  0  0  0  0  0  0  0  0  0
  -30.6095  -12.4476   19.6855 C   0  0  0  0  0  0  0  0  0  0  0  0
  -30.3869  -14.6088   23.2893 C   0  0  0  0  0  0  0  0  0  0  0  0
  -28.6771  -13.2598   21.0043 C   0  0  0  0  0  0  0  0  0  0  0  0
  -19.6255  -15.3905   22.7678 C   0  0  1  0  0  0  0  0  0  0  0  0
  -31.2182  -16.6234   22.2609 C   0  0  1  0  0  0  0  0  0  0  0  0
  -19.2045  -19.1638   22.9017 C   0  0  1  0  0  0  0  0  0  0  0  0
  -27.7521  -13.0607   19.7861 C   0  0  2  0  0  0  0  0  0  0  0  0
  -15.1767  -24.8431   19.5067 C   0  0  0  0  0  0  0  0  0  0  0  0
  -17.4171  -18.6666   18.6686 C   0  0  0  0  0  0  0  0  0  0  0  0
  -16.3743  -20.7216   17.6899 C   0  0  0  0  0  0  0  0  0  0  0  0
  -15.2052  -19.4770   19.5084 C   0  0  0  0  0  0  0  0  0  0  0  0
  -17.5443  -25.1921   22.4645 C   0  0  0  0  0  0  0  0  0  0  0  0
  -28.3585  -20.7236   19.4664 C   0  0  0  0  0  0  0  0  0  0  0  0
  -26.1582  -21.8687   19.1728 C   0  0  0  0  0  0  0  0  0  0  0  0
  -24.7141  -21.8266   19.6322 C   0  0  0  0  0  0  0  0  0  1  0  0
  -17.2647  -20.8351   20.0617 C   0  0  1  0  0  0  0  0  0  0  0  0
  -16.0032  -24.3548   20.6862 C   0  0  2  0  0  0  0  0  0  0  0  0
  -16.5906  -19.9265   18.9952 C   0  0  0  0  0  0  0  0  0  0  0  0
  -29.4216  -17.3575   20.7852 N   0  0  0  0  0  0  0  0  0  0  0  0
  -25.9179  -11.5101   20.3471 N   0  0  0  0  0  0  0  0  0  0  0  0
  -26.3211  -12.7847   20.2099 N   0  0  0  0  0  0  0  0  0  0  0  0
  -18.8642  -20.0254   21.7676 N   0  0  0  0  0  0  0  0  0  0  0  0
  -30.0666  -13.4729   20.5775 N   0  0  0  0  0  0  0  0  0  0  0  0
  -30.6572  -15.2852   22.0192 N   0  0  0  0  0  0  0  0  0  0  0  0
  -25.5852  -15.0287   20.3931 N   0  0  0  0  0  0  0  0  0  0  0  0
  -21.9193  -12.6360   21.5032 N   0  0  0  0  0  0  0  0  0  0  0  0
  -19.3079  -16.7562   23.1262 N   0  0  0  0  0  0  0  0  0  0  0  0
  -16.4914  -22.0220   20.4105 N   0  0  0  0  0  0  0  0  0  0  0  0
  -16.7113  -25.5239   21.2800 N   0  3  0  0  0  0  0  0  0  0  0  0
  -26.9235  -20.7987   19.8628 N   0  3  0  0  0  0  0  0  0  0  0  0
  -22.7410  -14.7573   21.2136 O   0  0  0  0  0  0  0  0  0  0  0  0
  -20.2138  -17.8055   21.2551 O   0  0  0  0  0  0  0  0  0  0  0  0
  -16.5767  -19.6302   21.9856 O   0  0  0  0  0  0  0  0  0  0  0  0
  -18.1211  -23.5666   19.8315 O   0  0  0  0  0  0  0  0  0  0  0  0
  -31.5067  -15.1335   19.8898 O   0  0  0  0  0  0  0  0  0  0  0  0
  -21.5465   -7.0810   21.6971 O   0  0  0  0  0  0  0  0  0  0  0  0
  -24.6542  -22.0508   21.0346 O   0  0  0  0  0  0  0  0  0  1  0  0
  -16.4466   -6.9487   19.6048 F   0  0  0  0  0  0  0  0  0  0  0  0
  -20.7961   -5.1068   19.9132 F   0  0  0  0  0  0  0  0  0  0  0  0
  1  2  1  0  0  0  0
  1  5  2  0  0  0  0
  2  6  2  0  0  0  0
  3  9  2  0  0  0  0
  3 18  1  0  0  0  0
  4 10  1  0  0  0  0
  4 18  2  0  0  0  0
  5 20  1  0  0  0  0
  6 22  1  0  0  0  0
  7 11  2  0  0  0  0
  7 21  1  0  0  0  0
  8 14  2  0  0  0  0
  8 24  1  0  0  0  0
  9 25  1  0  0  0  0
 10 25  2  0  0  0  0
 11 26  1  0  0  0  0
 12 13  2  0  0  0  0
 12 27  1  0  0  0  0
 13 28  1  0  0  0  0
 14 31  1  0  0  0  0
 15 23  1  0  0  0  0
 15 26  2  0  0  0  0
 16 28  2  0  0  0  0
 16 29  1  0  0  0  0
 17 24  2  0  0  0  0
 17 65  1  0  0  0  0
 18 30  1  0  0  0  0
 19 30  1  0  0  0  0
 19 32  2  0  0  0  0
 19 33  1  0  0  0  0
 20 22  2  0  0  0  0
 20 38  1  0  0  0  0
 21 23  2  0  0  0  0
 21 39  1  0  0  0  0
 22 50  1  0  0  0  0
 23 40  1  0  0  0  0
 24 59  1  0  0  0  0
 25 82  1  0  0  0  0
 26 83  1  0  0  0  0
 27 29  2  0  0  0  0
 27 82  1  0  0  0  0
 28 84  1  0  0  0  0
 29 85  1  0  0  0  0
 30 66  2  0  0  0  0
 31 51  1  0  0  0  0
 31 65  2  0  0  0  0
 32 67  1  0  0  0  0
 32 71  1  0  0  0  0
 33 72  1  0  0  0  0
 33 77  2  0  0  0  0
 34 52  1  0  0  0  0
 34 73  1  0  0  0  0
 34 78  2  0  0  0  0
 35 62  1  0  0  0  0
 35 68  1  0  0  0  0
 35 79  2  0  0  0  0
 36 63  1  0  0  0  0
 36 74  1  0  0  0  0
 36 80  2  0  0  0  0
 37 69  1  0  0  0  0
 37 70  1  0  0  0  0
 37 81  2  0  0  0  0
 38 41  1  0  0  0  0
 39 52  1  0  0  0  0
 40 68  1  0  0  0  0
 41 44  1  0  0  0  0
 42 45  1  0  0  0  0
 42 48  1  0  0  0  0
 43 46  1  0  0  0  0
 43 47  1  0  0  0  0
 44 50  1  0  0  0  0
 45 51  1  0  0  0  0
 46 53  1  0  0  0  0
 47 69  1  0  0  0  0
 48 70  1  0  0  0  0
 49 53  1  0  0  0  0
 49 69  1  0  0  0  0
 50 73  1  0  0  0  0
 51 70  1  0  0  0  0
 52 68  1  0  0  0  0
 53 67  1  0  0  0  0
 54 63  1  0  0  0  0
 55 64  1  0  0  0  0
 56 64  1  0  0  0  0
 57 64  1  0  0  0  0
 58 75  1  0  0  0  0
 59 76  1  0  0  0  0
 60 61  1  0  0  0  0
 60 76  1  0  0  0  0
 61 83  1  0  0  0  0
 62 64  1  0  0  0  0
 62 74  1  0  0  0  0
 63 75  1  0  0  0  0
 66 67  1  0  0  0  0
M  CHG  2  75   1  76   1
M  ISO  4  37 100  61 101  70 100  83 101
M  END
> <Batch ID>
0135

> <Smiles>
CNC(C)C(=O)NC(C(=O)N1Cc2cc([101O:1][101CH2:1]CNCc3ccc(C4CCC[100N:0]4[100C:0](=O)N4CCCC(n5nc(-c6ccc(Oc7ccc(F)cc7F)cc6)c(C(N)=O)c5N)C4)nc3)ccc2CC1C(=O)NC1CCCc2ccccc21)C(C)(C)C

> <Shape>
0.188

> <Color>
0.185

> <Negative vol penalty>
0.000

$$$$

  -OEChem-04052321003D

 88 97  0     1  0  0  0  0  0999 V2000
  -27.3757  -38.0645   21.6052 C   0  0  0  0  0  0  0  0  0  0  0  0
  -27.8118  -36.9976   20.8263 C   0  0  0  0  0  0  0  0  0  0  0  0
  -30.7960   -8.0155   23.6916 C   0  0  0  0  0  0  0  0  0  0  0  0
  -28.9135   -7.0982   22.4866 C   0  0  0  0  0  0  0  0  0  0  0  0
  -26.7640  -37.8242   22.8349 C   0  0  0  0  0  0  0  0  0  0  0  0
  -27.6375  -35.6896   21.2771 C   0  0  0  0  0  0  0  0  0  0  0  0
  -26.3932  -29.0664   18.8477 C   0  0  0  0  0  0  0  0  0  0  0  0
  -27.3799  -22.8545   19.4210 C   0  0  0  0  0  0  0  0  0  0  0  0
  -30.4377   -7.2730   24.8167 C   0  0  0  0  0  0  0  0  0  0  0  0
  -28.5552   -6.3556   23.6117 C   0  0  0  0  0  0  0  0  0  0  0  0
  -26.9043  -27.7724   18.9378 C   0  0  0  0  0  0  0  0  0  0  0  0
  -27.7699  -21.5349   19.6493 C   0  0  0  0  0  0  0  0  0  0  0  0
  -29.5449   -3.5035   25.1305 C   0  0  0  0  0  0  0  0  0  0  0  0
  -29.1984   -2.1661   24.9390 C   0  0  0  0  0  0  0  0  0  0  0  0
  -25.7632  -27.4747   21.0422 C   0  0  0  0  0  0  0  0  0  0  0  0
  -29.6968  -23.5393   19.4215 C   0  0  0  0  0  0  0  0  0  0  0  0
  -27.0068   -2.6023   25.8576 C   0  0  0  0  0  0  0  0  0  0  0  0
  -30.0339   -7.9281   22.5265 C   0  0  0  0  0  0  0  0  0  0  0  0
  -31.2629   -8.2993   20.3221 C   0  0  0  0  0  0  0  0  0  0  0  0
  -26.5734  -36.5123   23.2966 C   0  0  0  0  0  0  0  0  0  0  0  0
  -25.5707  -29.5790   19.8612 C   0  0  0  0  0  0  0  0  0  0  0  0
  -27.0239  -35.4315   22.5147 C   0  0  0  0  0  0  0  0  0  0  0  0
  -25.2409  -28.7746   20.9614 C   0  0  0  0  0  0  0  0  0  0  0  0
  -28.3434  -23.8567   19.3070 C   0  0  0  0  0  0  0  0  0  0  0  0
  -30.0868  -22.2196   19.6498 C   0  0  0  0  0  0  0  0  0  0  0  0
  -29.3173   -6.4430   24.7768 C   0  0  0  0  0  0  0  0  0  0  0  0
  -26.5917  -26.9774   20.0366 C   0  0  0  0  0  0  0  0  0  0  0  0
  -29.1233  -21.2174   19.7637 C   0  0  0  0  0  0  0  0  0  0  0  0
  -28.6223   -4.3904   25.6856 C   0  0  0  0  0  0  0  0  0  0  0  0
  -27.9294   -1.7154   25.3025 C   0  0  0  0  0  0  0  0  0  0  0  0
  -27.3533   -3.9398   26.0491 C   0  0  0  0  0  0  0  0  0  0  0  0
  -30.4032   -8.6954   21.3642 C   0  0  0  0  0  0  0  0  0  0  0  0
  -31.2848   -9.3745   19.4677 C   0  0  0  0  0  0  0  0  0  0  0  0
  -31.9777   -7.0695   20.1425 C   0  0  0  0  0  0  0  0  0  0  0  0
  -25.7730  -32.0095   21.8997 C   0  0  0  0  0  0  0  0  0  0  0  0
  -22.7409  -31.1297   22.6442 C   0  0  0  0  0  0  0  0  0  0  0  0
  -20.3691  -28.6767   22.7089 C   0  0  0  0  0  0  0  0  0  0  0  0
  -30.5370  -15.0628   20.1549 C   0  0  0  0  0  0  0  0  0  0  0  0
  -25.9498  -36.3038   24.6539 C   0  0  0  0  0  0  0  0  0  0  0  0
  -25.0057  -30.9674   19.7361 C   0  0  0  0  0  0  0  0  0  0  0  0
  -24.3457  -29.2707   22.0664 C   0  0  0  0  0  0  0  0  0  0  0  0
  -25.4651  -34.8754   24.8886 C   0  0  0  0  0  0  0  0  0  0  0  0
  -28.6175  -13.0598   18.0042 C   0  0  0  0  0  0  0  0  0  0  0  0
  -26.5302  -33.8725   24.4567 C   0  0  0  0  0  0  0  0  0  0  0  0
  -28.9428  -11.6593   18.5230 C   0  0  0  0  0  0  0  0  0  0  0  0
  -30.3348  -18.3133   18.3828 C   0  0  0  0  0  0  0  0  0  0  0  0
  -28.1670  -17.9177   19.6292 C   0  0  0  0  0  0  0  0  0  0  0  0
  -28.4392  -14.0655   19.1428 C   0  0  0  0  0  0  0  0  0  0  0  0
  -31.0286  -17.3343   19.3286 C   0  0  0  0  0  0  0  0  0  0  0  0
  -28.9107  -16.9512   20.5482 C   0  0  0  0  0  0  0  0  0  0  0  0
  -29.9023  -12.7113   20.6063 C   0  0  0  0  0  0  0  0  0  0  0  0
  -26.8304  -33.9976   22.9581 C   0  0  1  0  0  0  0  0  0  0  0  0
  -24.5956  -31.5687   21.0768 C   0  0  1  0  0  0  0  0  0  0  0  0
  -30.1452  -11.6911   19.4832 C   0  0  1  0  0  0  0  0  0  0  0  0
  -29.0976  -18.9599   19.0068 C   0  0  0  0  0  0  0  0  0  0  0  0
  -31.6714  -22.2534   22.3014 C   0  0  0  0  0  0  0  0  0  0  0  0
  -32.2915  -22.1948   18.4541 C   0  0  0  0  0  0  0  0  0  0  0  0
  -17.9981  -28.2470   23.4098 C   0  0  0  0  0  0  0  0  0  0  0  0
  -23.6305  -30.9903   25.5595 C   0  0  0  0  0  0  0  0  0  0  0  0
  -21.5597  -29.6736   26.0559 C   0  0  0  0  0  0  0  0  0  0  0  0
  -21.3753  -32.0112   25.2048 C   0  0  0  0  0  0  0  0  0  0  0  0
  -19.5441  -28.0367   19.9397 C   0  0  0  0  0  0  0  0  0  0  0  0
  -27.9259  -25.2671   19.0615 C   0  0  0  0  0  0  0  0  0  1  0  0
  -32.2543  -22.6205   20.9421 C   0  0  0  0  0  0  0  0  0  0  0  0
  -31.5400  -21.8974   19.7684 C   0  0  1  0  0  0  0  0  0  0  0  0
  -22.1171  -30.1749   23.6332 C   0  0  1  0  0  0  0  0  0  0  0  0
  -18.9151  -28.6696   22.2726 C   0  0  2  0  0  0  0  0  0  0  0  0
  -22.1891  -30.7035   25.0936 C   0  0  0  0  0  0  0  0  0  0  0  0
  -29.9144   -9.9261   21.1898 N   0  0  0  0  0  0  0  0  0  0  0  0
  -30.4689  -10.3127   20.0283 N   0  0  0  0  0  0  0  0  0  0  0  0
  -23.8232  -30.6372   21.9014 N   0  0  0  0  0  0  0  0  0  0  0  0
  -29.5918  -14.0310   20.0529 N   0  0  0  0  0  0  0  0  0  0  0  0
  -30.0855  -16.3664   19.8877 N   0  0  0  0  0  0  0  0  0  0  0  0
  -31.9222   -9.5994   18.2992 N   0  0  0  0  0  0  0  0  0  0  0  0
  -31.8428   -6.0700   21.1157 N   0  0  0  0  0  0  0  0  0  0  0  0
  -25.7889  -33.3627   22.1793 N   0  0  0  0  0  0  0  0  0  0  0  0
  -20.7621  -29.9204   23.1560 N   0  0  0  0  0  0  0  0  0  0  0  0
  -18.7200  -27.7257   21.1360 N   0  3  0  0  0  0  0  0  0  0  0  0
  -32.7272   -6.8693   19.1568 O   0  0  0  0  0  0  0  0  0  0  0  0
  -26.6046  -31.1830   22.2559 O   0  0  0  0  0  0  0  0  0  0  0  0
  -22.2801  -32.2682   22.5297 O   0  0  0  0  0  0  0  0  0  0  0  0
  -21.0836  -27.6778   22.6616 O   0  0  0  0  0  0  0  0  0  0  0  0
  -31.7139  -14.8357   20.4622 O   0  0  0  0  0  0  0  0  0  0  0  0
  -28.9676   -5.7181   25.8744 O   0  0  0  0  0  0  0  0  0  0  0  0
  -29.4883  -19.9164   19.9896 O   0  0  0  0  0  0  0  0  0  0  0  0
  -27.0931  -25.7055   20.1280 O   0  0  0  0  0  0  0  0  0  1  0  0
  -27.5963   -0.4313   25.1171 F   0  0  0  0  0  0  0  0  0  0  0  0
  -26.4624   -4.7873   26.5817 F   0  0  0  0  0  0  0  0  0  0  0  0
  1  2  1  0  0  0  0
  1  5  2  0  0  0  0
  2  6  2  0  0  0  0
  3  9  2  0  0  0  0
  3 18  1  0  0  0  0
  4 10  1  0  0  0  0
  4 18  2  0  0  0  0
  5 20  1  0  0  0  0
  6 22  1  0  0  0  0
  7 11  2  0  0  0  0
  7 21  1  0  0  0  0
  8 12  2  0  0  0  0
  8 24  1  0  0  0  0
  9 26  1  0  0  0  0
 10 26  2  0  0  0  0
 11 27  1  0  0  0  0
 12 28  1  0  0  0  0
 13 14  2  0  0  0  0
 13 29  1  0  0  0  0
 14 30  1  0  0  0  0
 15 23  1  0  0  0  0
 15 27  2  0  0  0  0
 16 24  2  0  0  0  0
 16 25  1  0  0  0  0
 17 30  2  0  0  0  0
 17 31  1  0  0  0  0
 18 32  1  0  0  0  0
 19 32  1  0  0  0  0
 19 33  2  0  0  0  0
 19 34  1  0  0  0  0
 20 22  2  0  0  0  0
 20 39  1  0  0  0  0
 21 23  2  0  0  0  0
 21 40  1  0  0  0  0
 22 52  1  0  0  0  0
 23 41  1  0  0  0  0
 24 63  1  0  0  0  0
 25 28  2  0  0  0  0
 25 65  1  0  0  0  0
 26 84  1  0  0  0  0
 27 86  1  0  0  0  0
 28 85  1  0  0  0  0
 29 31  2  0  0  0  0
 29 84  1  0  0  0  0
 30 87  1  0  0  0  0
 31 88  1  0  0  0  0
 32 69  2  0  0  0  0
 33 70  1  0  0  0  0
 33 74  1  0  0  0  0
 34 75  1  0  0  0  0
 34 79  2  0  0  0  0
 35 53  1  0  0  0  0
 35 76  1  0  0  0  0
 35 80  2  0  0  0  0
 36 66  1  0  0  0  0
 36 71  1  0  0  0  0
 36 81  2  0  0  0  0
 37 67  1  0  0  0  0
 37 77  1  0  0  0  0
 37 82  2  0  0  0  0
 38 72  1  0  0  0  0
 38 73  1  0  0  0  0
 38 83  2  0  0  0  0
 39 42  1  0  0  0  0
 40 53  1  0  0  0  0
 41 71  1  0  0  0  0
 42 44  1  0  0  0  0
 43 45  1  0  0  0  0
 43 48  1  0  0  0  0
 44 52  1  0  0  0  0
 45 54  1  0  0  0  0
 46 49  1  0  0  0  0
 46 55  1  0  0  0  0
 47 50  1  0  0  0  0
 47 55  1  0  0  0  0
 48 72  1  0  0  0  0
 49 73  1  0  0  0  0
 50 73  1  0  0  0  0
 51 54  1  0  0  0  0
 51 72  1  0  0  0  0
 52 76  1  0  0  0  0
 53 71  1  0  0  0  0
 54 70  1  0  0  0  0
 55 85  1  0  0  0  0
 56 64  1  0  0  0  0
 57 65  1  0  0  0  0
 58 67  1  0  0  0  0
 59 68  1  0  0  0  0
 60 68  1  0  0  0  0
 61 68  1  0  0  0  0
 62 78  1  0  0  0  0
 63 86  1  0  0  0  0
 64 65  1  0  0  0  0
 66 68  1  0  0  0  0
 66 77  1  0  0  0  0
 67 78  1  0  0  0  0
 69 70  1  0  0  0  0
M  CHG  1  78   1
M  ISO  4  38 100  63 101  73 100  86 101
M  END
> <Batch ID>
0135

> <Smiles>
CCC(C)c1cc([101CH2:1][101O:1]c2ccc3c(c2)CN(C(=O)C(NC(=O)C(C)NC)C(C)(C)C)C(C(=O)NC2CCCc4ccccc42)C3)ccc1OC1CC[100N:0]([100C:0](=O)N2CCCC(n3nc(-c4ccc(Oc5ccc(F)cc5F)cc4)c(C(N)=O)c3N)C2)CC1

> <Shape>
0.260

> <Color>
0.092

> <Negative vol penalty>
0.000

$$$$

  -OEChem-04052321003D

 85 94  0     1  0  0  0  0  0999 V2000
  -16.5976  -27.1752   25.1586 C   0  0  0  0  0  0  0  0  0  0  0  0
  -17.5192  -26.4400   25.8974 C   0  0  0  0  0  0  0  0  0  0  0  0
  -23.1852   -9.8244   21.3079 C   0  0  0  0  0  0  0  0  0  0  0  0
  -23.8375  -10.7660   23.4351 C   0  0  0  0  0  0  0  0  0  0  0  0
  -16.9303  -27.6263   23.8820 C   0  0  0  0  0  0  0  0  0  0  0  0
  -18.7736  -26.1546   25.3595 C   0  0  0  0  0  0  0  0  0  0  0  0
  -25.6042  -25.2269   27.3086 C   0  0  0  0  0  0  0  0  0  0  0  0
  -22.4703   -8.8257   21.9691 C   0  0  0  0  0  0  0  0  0  0  0  0
  -23.1226   -9.7673   24.0964 C   0  0  0  0  0  0  0  0  0  0  0  0
  -26.6485  -24.3133   27.1724 C   0  0  0  0  0  0  0  0  0  0  0  0
  -19.4870   -8.5156   23.5300 C   0  0  0  0  0  0  0  0  0  0  0  0
  -18.2063   -8.2184   23.0641 C   0  0  0  0  0  0  0  0  0  0  0  0
  -30.1725  -19.2463   23.8445 C   0  0  0  0  0  0  0  0  0  0  0  0
  -27.1417  -25.2119   24.9887 C   0  0  0  0  0  0  0  0  0  0  0  0
  -18.8926   -5.9432   22.6287 C   0  0  0  0  0  0  0  0  0  0  0  0
  -28.5736  -19.9812   22.2445 C   0  0  0  0  0  0  0  0  0  0  0  0
  -23.8688  -10.7945   22.0409 C   0  0  0  0  0  0  0  0  0  0  0  0
  -24.1294  -13.0849   20.9483 C   0  0  0  0  0  0  0  0  0  0  0  0
  -18.1929  -27.3545   23.3320 C   0  0  0  0  0  0  0  0  0  0  0  0
  -25.3133  -26.1340   26.2796 C   0  0  0  0  0  0  0  0  0  0  0  0
  -19.1230  -26.6013   24.0738 C   0  0  0  0  0  0  0  0  0  0  0  0
  -30.6768  -18.3679   22.8919 C   0  0  0  0  0  0  0  0  0  0  0  0
  -26.0948  -26.1376   25.1154 C   0  0  0  0  0  0  0  0  0  0  0  0
  -29.1010  -20.0718   23.5226 C   0  0  0  0  0  0  0  0  0  0  0  0
  -22.4390   -8.7972   23.3633 C   0  0  0  0  0  0  0  0  0  0  0  0
  -27.4156  -24.3038   26.0111 C   0  0  0  0  0  0  0  0  0  0  0  0
  -20.4705   -7.5266   23.5452 C   0  0  0  0  0  0  0  0  0  0  0  0
  -17.9091   -6.9323   22.6135 C   0  0  0  0  0  0  0  0  0  0  0  0
  -20.1733   -6.2404   23.0946 C   0  0  0  0  0  0  0  0  0  0  0  0
  -24.6079  -11.8261   21.3585 C   0  0  0  0  0  0  0  0  0  0  0  0
  -30.0787  -18.3534   21.6422 C   0  0  0  0  0  0  0  0  0  0  0  0
  -25.2110  -13.6856   20.3517 C   0  0  0  0  0  0  0  0  0  0  0  0
  -22.8241  -13.6599   21.0935 C   0  0  0  0  0  0  0  0  0  0  0  0
  -22.8023  -26.6713   24.4061 C   0  0  0  0  0  0  0  0  0  0  0  0
  -24.5671  -29.2112   23.4280 C   0  0  0  0  0  0  0  0  0  0  0  0
  -27.6490  -30.6333   23.0731 C   0  0  0  0  0  0  0  0  0  0  0  0
  -30.6422  -14.9674   20.2843 C   0  0  0  0  0  0  0  0  0  0  0  0
  -18.4898  -27.8226   21.9294 C   0  0  0  0  0  0  0  0  0  0  0  0
  -24.2004  -27.1309   26.4531 C   0  0  0  0  0  0  0  0  0  0  0  0
  -25.8364  -27.1044   23.9898 C   0  0  0  0  0  0  0  0  0  0  0  0
  -19.9758  -27.7981   21.5807 C   0  0  0  0  0  0  0  0  0  0  0  0
  -29.6983  -11.7859   18.9945 C   0  0  0  0  0  0  0  0  0  0  0  0
  -31.5520  -16.0779   23.7070 C   0  0  0  0  0  0  0  0  0  0  0  0
  -32.0647  -17.1043   24.6683 C   0  0  0  0  0  0  0  0  0  0  0  0
  -20.6045  -26.4781   22.0157 C   0  0  0  0  0  0  0  0  0  0  0  0
  -28.2532  -11.6142   19.4659 C   0  0  0  0  0  0  0  0  0  0  0  0
  -30.5508  -12.5042   20.0382 C   0  0  0  0  0  0  0  0  0  0  0  0
  -28.5631  -13.6244   20.9698 C   0  0  0  0  0  0  0  0  0  0  0  0
  -31.8253  -17.4806   23.2288 C   0  0  0  0  0  0  0  0  0  0  0  0
  -20.5028  -26.2926   23.5345 C   0  0  1  0  0  0  0  0  0  0  0  0
  -23.6660  -27.6664   25.1283 C   0  0  1  0  0  0  0  0  0  0  0  0
  -27.6510  -12.9548   19.9277 C   0  0  2  0  0  0  0  0  0  0  0  0
  -30.3840  -17.9957   19.1642 C   0  0  0  0  0  0  0  0  0  0  0  0
  -28.7766  -32.7005   22.2054 C   0  0  0  0  0  0  0  0  0  0  0  0
  -24.1842  -28.2170   20.5688 C   0  0  0  0  0  0  0  0  0  0  0  0
  -26.0644  -29.7152   19.8701 C   0  0  0  0  0  0  0  0  0  0  0  0
  -23.9885  -30.6947   20.8467 C   0  0  0  0  0  0  0  0  0  0  0  0
  -28.7337  -31.3032   25.7441 C   0  0  0  0  0  0  0  0  0  0  0  0
  -29.0811  -21.0960   25.7977 C   0  0  0  0  0  0  0  0  0  0  0  0
  -28.2975  -22.1610   26.5466 C   0  0  0  0  0  0  0  0  0  1  0  0
  -30.5773  -17.4309   20.5779 C   0  0  2  0  0  0  0  0  0  0  0  0
  -25.5950  -29.4464   22.3476 C   0  0  1  0  0  0  0  0  0  0  0  0
  -28.1652  -32.0183   23.4194 C   0  0  2  0  0  0  0  0  0  0  0  0
  -24.9619  -29.4987   20.9285 C   0  0  0  0  0  0  0  0  0  0  0  0
  -29.0365  -19.1403   21.2926 N   0  0  0  0  0  0  0  0  0  0  0  0
  -25.8933  -11.6370   21.0486 N   0  0  0  0  0  0  0  0  0  0  0  0
  -26.2317  -12.7850   20.4372 N   0  0  0  0  0  0  0  0  0  0  0  0
  -24.7332  -28.0555   24.2042 N   0  0  0  0  0  0  0  0  0  0  0  0
  -29.9250  -13.7687   20.4322 N   0  0  0  0  0  0  0  0  0  0  0  0
  -25.3790  -14.8909   19.7675 N   0  0  0  0  0  0  0  0  0  0  0  0
  -21.8292  -12.9063   21.7313 N   0  0  0  0  0  0  0  0  0  0  0  0
  -28.5767  -20.9560   24.4509 N   0  0  0  0  0  0  0  0  0  0  0  0
  -21.5014  -27.0937   24.2094 N   0  0  0  0  0  0  0  0  0  0  0  0
  -26.3149  -30.6576   22.7258 N   0  0  0  0  0  0  0  0  0  0  0  0
  -29.9733  -16.1208   20.6757 N   0  0  0  0  0  0  0  0  0  0  0  0
  -29.2050  -31.9325   24.4836 N   0  3  0  0  0  0  0  0  0  0  0  0
  -22.5435  -14.8014   20.6558 O   0  0  0  0  0  0  0  0  0  0  0  0
  -23.2811  -25.6003   24.0522 O   0  0  0  0  0  0  0  0  0  0  0  0
  -23.6546  -30.0268   23.5823 O   0  0  0  0  0  0  0  0  0  0  0  0
  -28.3593  -29.6308   23.1039 O   0  0  0  0  0  0  0  0  0  0  0  0
  -31.7912  -15.0074   19.8315 O   0  0  0  0  0  0  0  0  0  0  0  0
  -21.7413   -7.8229   24.0088 O   0  0  0  0  0  0  0  0  0  0  0  0
  -28.4352  -23.4127   25.8754 O   0  0  0  0  0  0  0  0  0  1  0  0
  -16.6787   -6.6467   22.1675 F   0  0  0  0  0  0  0  0  0  0  0  0
  -21.1137   -5.2858   23.1079 F   0  0  0  0  0  0  0  0  0  0  0  0
  1  2  1  0  0  0  0
  1  5  2  0  0  0  0
  2  6  2  0  0  0  0
  3  8  2  0  0  0  0
  3 17  1  0  0  0  0
  4  9  1  0  0  0  0
  4 17  2  0  0  0  0
  5 19  1  0  0  0  0
  6 21  1  0  0  0  0
  7 10  2  0  0  0  0
  7 20  1  0  0  0  0
  8 25  1  0  0  0  0
  9 25  2  0  0  0  0
 10 26  1  0  0  0  0
 11 12  2  0  0  0  0
 11 27  1  0  0  0  0
 12 28  1  0  0  0  0
 13 22  1  0  0  0  0
 13 24  2  0  0  0  0
 14 23  1  0  0  0  0
 14 26  2  0  0  0  0
 15 28  2  0  0  0  0
 15 29  1  0  0  0  0
 16 24  1  0  0  0  0
 16 65  2  0  0  0  0
 17 30  1  0  0  0  0
 18 30  1  0  0  0  0
 18 32  2  0  0  0  0
 18 33  1  0  0  0  0
 19 21  2  0  0  0  0
 19 38  1  0  0  0  0
 20 23  2  0  0  0  0
 20 39  1  0  0  0  0
 21 50  1  0  0  0  0
 22 31  2  0  0  0  0
 22 49  1  0  0  0  0
 23 40  1  0  0  0  0
 24 72  1  0  0  0  0
 25 82  1  0  0  0  0
 26 83  1  0  0  0  0
 27 29  2  0  0  0  0
 27 82  1  0  0  0  0
 28 84  1  0  0  0  0
 29 85  1  0  0  0  0
 30 66  2  0  0  0  0
 31 61  1  0  0  0  0
 31 65  1  0  0  0  0
 32 67  1  0  0  0  0
 32 70  1  0  0  0  0
 33 71  1  0  0  0  0
 33 77  2  0  0  0  0
 34 51  1  0  0  0  0
 34 73  1  0  0  0  0
 34 78  2  0  0  0  0
 35 62  1  0  0  0  0
 35 68  1  0  0  0  0
 35 79  2  0  0  0  0
 36 63  1  0  0  0  0
 36 74  1  0  0  0  0
 36 80  2  0  0  0  0
 37 69  1  0  0  0  0
 37 75  1  0  0  0  0
 37 81  2  0  0  0  0
 38 41  1  0  0  0  0
 39 51  1  0  0  0  0
 40 68  1  0  0  0  0
 41 45  1  0  0  0  0
 42 46  1  0  0  0  0
 42 47  1  0  0  0  0
 43 44  1  0  0  0  0
 43 49  1  0  0  0  0
 44 49  1  0  0  0  0
 45 50  1  0  0  0  0
 46 52  1  0  0  0  0
 47 69  1  0  0  0  0
 48 52  1  0  0  0  0
 48 69  1  0  0  0  0
 50 73  1  0  0  0  0
 51 68  1  0  0  0  0
 52 67  1  0  0  0  0
 53 61  1  0  0  0  0
 54 63  1  0  0  0  0
 55 64  1  0  0  0  0
 56 64  1  0  0  0  0
 57 64  1  0  0  0  0
 58 76  1  0  0  0  0
 59 60  1  0  0  0  0
 59 72  1  0  0  0  0
 60 83  1  0  0  0  0
 61 75  1  0  0  0  0
 62 64  1  0  0  0  0
 62 74  1  0  0  0  0
 63 76  1  0  0  0  0
 66 67  1  0  0  0  0
M  CHG  1  76   1
M  ISO  4  37 100  60 101  75 100  83 101
M  END
> <Batch ID>
0135

> <Smiles>
CNC(C)C(=O)NC(C(=O)N1Cc2cc([101O:1][101CH2:1]CNc3cnc(C(C)[100NH:0][100C:0](=O)N4CCCC(n5nc(-c6ccc(Oc7ccc(F)cc7F)cc6)c(C(N)=O)c5N)C4)c(C4CC4)c3)ccc2CC1C(=O)NC1CCCc2ccccc21)C(C)(C)C

> <Shape>
0.258

> <Color>
0.155

> <Negative vol penalty>
0.000

$$$$

  -OEChem-04052321003D

 90100  0     1  0  0  0  0  0999 V2000
  -17.7844  -24.6847   23.9184 C   0  0  0  0  0  0  0  0  0  0  0  0
  -19.1423  -24.4294   23.7554 C   0  0  0  0  0  0  0  0  0  0  0  0
  -25.0623   -8.1144   21.6482 C   0  0  0  0  0  0  0  0  0  0  0  0
  -23.9041   -8.6335   19.5925 C   0  0  0  0  0  0  0  0  0  0  0  0
  -17.2608  -25.9246   23.5547 C   0  0  0  0  0  0  0  0  0  0  0  0
  -19.9771  -25.4135   23.2273 C   0  0  0  0  0  0  0  0  0  0  0  0
  -24.3155  -25.8663   25.7999 C   0  0  0  0  0  0  0  0  0  0  0  0
  -26.1818  -19.5260   20.3162 C   0  0  0  0  0  0  0  0  0  0  0  0
  -23.8601   -7.6986   22.2205 C   0  0  0  0  0  0  0  0  0  0  0  0
  -22.7019   -8.2177   20.1648 C   0  0  0  0  0  0  0  0  0  0  0  0
  -25.3015  -24.9106   25.5586 C   0  0  0  0  0  0  0  0  0  0  0  0
  -26.1253  -20.5922   21.2141 C   0  0  0  0  0  0  0  0  0  0  0  0
  -21.8694   -4.9671   22.1257 C   0  0  0  0  0  0  0  0  0  0  0  0
  -21.8734   -3.7730   22.8465 C   0  0  0  0  0  0  0  0  0  0  0  0
  -28.5068  -20.4366   21.5382 C   0  0  0  0  0  0  0  0  0  0  0  0
  -26.4363  -26.4590   24.0978 C   0  0  0  0  0  0  0  0  0  0  0  0
  -21.1603   -4.9640   24.8239 C   0  0  0  0  0  0  0  0  0  0  0  0
  -25.0842   -8.5819   20.3342 C   0  0  0  0  0  0  0  0  0  0  0  0
  -27.2442   -8.2223   19.0254 C   0  0  0  0  0  0  0  0  0  0  0  0
  -18.0914  -26.9278   23.0309 C   0  0  0  0  0  0  0  0  0  0  0  0
  -24.3768  -27.1238   25.1824 C   0  0  0  0  0  0  0  0  0  0  0  0
  -27.4002  -18.8852   20.0269 C   0  0  0  0  0  0  0  0  0  0  0  0
  -19.4639  -26.6676   22.8549 C   0  0  0  0  0  0  0  0  0  0  0  0
  -28.5787  -19.3715   20.6255 C   0  0  0  0  0  0  0  0  0  0  0  0
  -25.4511  -27.4298   24.3349 C   0  0  0  0  0  0  0  0  0  0  0  0
  -22.6799   -7.7503   21.4788 C   0  0  0  0  0  0  0  0  0  0  0  0
  -26.3606  -25.2058   24.7052 C   0  0  0  0  0  0  0  0  0  0  0  0
  -27.2870  -21.0434   21.8301 C   0  0  0  0  0  0  0  0  0  0  0  0
  -21.5109   -6.1598   22.7540 C   0  0  0  0  0  0  0  0  0  0  0  0
  -21.5188   -3.7714   24.1955 C   0  0  0  0  0  0  0  0  0  0  0  0
  -21.1563   -6.1582   24.1031 C   0  0  0  0  0  0  0  0  0  0  0  0
  -26.3257   -9.0120   19.7426 C   0  0  0  0  0  0  0  0  0  0  0  0
  -28.2483   -9.0930   18.6786 C   0  0  0  0  0  0  0  0  0  0  0  0
  -27.1943   -6.8265   18.7016 C   0  0  0  0  0  0  0  0  0  0  0  0
  -26.3448  -16.7424   19.3056 C   0  0  0  0  0  0  0  0  0  0  0  0
  -22.5245  -28.7167   23.1488 C   0  0  0  0  0  0  0  0  0  0  0  0
  -24.6364  -31.1141   23.7101 C   0  0  0  0  0  0  0  0  0  0  0  0
  -27.7719  -32.0438   24.6854 C   0  0  0  0  0  0  0  0  0  0  0  0
  -28.4316  -14.8121   17.7482 C   0  0  0  0  0  0  0  0  0  0  0  0
  -17.4714  -28.2360   22.6079 C   0  0  0  0  0  0  0  0  0  0  0  0
  -23.3195  -28.1531   25.4740 C   0  0  0  0  0  0  0  0  0  0  0  0
  -29.9221  -18.7485   20.3474 C   0  0  0  0  0  0  0  0  0  0  0  0
  -25.5739  -28.7722   23.6632 C   0  0  0  0  0  0  0  0  0  0  0  0
  -18.4896  -29.3552   22.4050 C   0  0  0  0  0  0  0  0  0  0  0  0
  -29.9492  -17.9656   19.0383 C   0  0  0  0  0  0  0  0  0  0  0  0
  -30.4069  -13.1009   20.1236 C   0  0  0  0  0  0  0  0  0  0  0  0
  -19.6753  -28.8560   21.5854 C   0  0  0  0  0  0  0  0  0  0  0  0
  -24.7583  -15.1755   18.0364 C   0  0  0  0  0  0  0  0  0  0  0  0
  -23.9165  -16.2621   18.6346 C   0  0  0  0  0  0  0  0  0  0  0  0
  -29.6628  -11.7709   20.2341 C   0  0  0  0  0  0  0  0  0  0  0  0
  -29.4484  -14.2882   20.0139 C   0  0  0  0  0  0  0  0  0  0  0  0
  -27.7089  -12.8246   19.0367 C   0  0  0  0  0  0  0  0  0  0  0  0
  -27.4321  -17.7422   19.0265 C   0  0  2  0  0  0  0  0  0  0  0  0
  -20.4060  -27.7183   22.3086 C   0  0  1  0  0  0  0  0  0  0  0  0
  -25.3181  -16.5397   18.2244 C   0  0  0  0  0  0  0  0  0  0  0  0
  -23.2083  -29.2195   24.3887 C   0  0  1  0  0  0  0  0  0  0  0  0
  -28.6493  -11.6106   19.0877 C   0  0  2  0  0  0  0  0  0  0  0  0
  -28.7768  -16.9894   18.9911 C   0  0  1  0  0  0  0  0  0  0  0  0
  -29.2148  -34.0716   25.0064 C   0  0  0  0  0  0  0  0  0  0  0  0
  -25.0104  -31.3232   20.6891 C   0  0  0  0  0  0  0  0  0  0  0  0
  -27.0945  -32.6455   21.1087 C   0  0  0  0  0  0  0  0  0  0  0  0
  -24.8888  -33.5191   21.8797 C   0  0  0  0  0  0  0  0  0  0  0  0
  -29.1869  -16.8378   16.5632 C   0  0  0  0  0  0  0  0  0  0  0  0
  -28.1043  -31.4930   27.5742 C   0  0  0  0  0  0  0  0  0  0  0  0
  -27.9654  -24.3144   23.1933 C   0  0  0  0  0  0  0  0  0  1  0  0
  -28.3886  -22.9101   22.8080 C   0  0  0  0  0  0  0  0  0  0  0  0
  -25.9370  -31.5607   23.0872 C   0  0  1  0  0  0  0  0  0  0  0  0
  -28.2502  -33.0987   25.6665 C   0  0  2  0  0  0  0  0  0  0  0  0
  -25.7296  -32.2361   21.7021 C   0  0  0  0  0  0  0  0  0  0  0  0
  -26.7120  -10.2864   19.8462 N   0  0  0  0  0  0  0  0  0  0  0  0
  -27.8844  -10.3040   19.1896 N   0  0  0  0  0  0  0  0  0  0  0  0
  -24.5118  -29.7429   23.9750 N   0  0  0  0  0  0  0  0  0  0  0  0
  -28.4691  -14.0731   18.9398 N   0  0  0  0  0  0  0  0  0  0  0  0
  -29.3981   -8.9331   17.9896 N   0  0  0  0  0  0  0  0  0  0  0  0
  -26.0909   -6.0790   19.1353 N   0  0  0  0  0  0  0  0  0  0  0  0
  -21.2433  -28.2461   23.3645 N   0  0  0  0  0  0  0  0  0  0  0  0
  -26.5916  -32.4118   24.0749 N   0  0  0  0  0  0  0  0  0  0  0  0
  -28.8726  -16.1428   17.8035 N   0  0  0  0  0  0  0  0  0  0  0  0
  -28.9445  -32.4576   26.8188 N   0  3  0  0  0  0  0  0  0  0  0  0
  -28.1092   -6.2553   18.0611 O   0  0  0  0  0  0  0  0  0  0  0  0
  -26.2980  -16.1191   20.3650 O   0  0  0  0  0  0  0  0  0  0  0  0
  -23.1150  -28.7544   22.0757 O   0  0  0  0  0  0  0  0  0  0  0  0
  -23.7660  -31.9519   23.9591 O   0  0  0  0  0  0  0  0  0  0  0  0
  -28.3860  -30.9995   24.4783 O   0  0  0  0  0  0  0  0  0  0  0  0
  -28.0192  -14.3136   16.6929 O   0  0  0  0  0  0  0  0  0  0  0  0
  -21.5067   -7.3444   22.0369 O   0  0  0  0  0  0  0  0  0  0  0  0
  -27.3240  -24.2746   24.4675 O   0  0  0  0  0  0  0  0  0  1  0  0
  -27.2336  -22.0848   22.7182 O   0  0  0  0  0  0  0  0  0  0  0  0
  -21.5212   -2.6243   24.8872 F   0  0  0  0  0  0  0  0  0  0  0  0
  -20.8099   -7.3007   24.7118 F   0  0  0  0  0  0  0  0  0  0  0  0
  1  2  1  0  0  0  0
  1  5  2  0  0  0  0
  2  6  2  0  0  0  0
  3  9  2  0  0  0  0
  3 18  1  0  0  0  0
  4 10  1  0  0  0  0
  4 18  2  0  0  0  0
  5 20  1  0  0  0  0
  6 23  1  0  0  0  0
  7 11  2  0  0  0  0
  7 21  1  0  0  0  0
  8 12  2  0  0  0  0
  8 22  1  0  0  0  0
  9 26  1  0  0  0  0
 10 26  2  0  0  0  0
 11 27  1  0  0  0  0
 12 28  1  0  0  0  0
 13 14  2  0  0  0  0
 13 29  1  0  0  0  0
 14 30  1  0  0  0  0
 15 24  1  0  0  0  0
 15 28  2  0  0  0  0
 16 25  1  0  0  0  0
 16 27  2  0  0  0  0
 17 30  2  0  0  0  0
 17 31  1  0  0  0  0
 18 32  1  0  0  0  0
 19 32  1  0  0  0  0
 19 33  2  0  0  0  0
 19 34  1  0  0  0  0
 20 23  2  0  0  0  0
 20 40  1  0  0  0  0
 21 25  2  0  0  0  0
 21 41  1  0  0  0  0
 22 24  2  0  0  0  0
 22 53  1  0  0  0  0
 23 54  1  0  0  0  0
 24 42  1  0  0  0  0
 25 43  1  0  0  0  0
 26 86  1  0  0  0  0
 27 87  1  0  0  0  0
 28 88  1  0  0  0  0
 29 31  2  0  0  0  0
 29 86  1  0  0  0  0
 30 89  1  0  0  0  0
 31 90  1  0  0  0  0
 32 70  2  0  0  0  0
 33 71  1  0  0  0  0
 33 74  1  0  0  0  0
 34 75  1  0  0  0  0
 34 80  2  0  0  0  0
 35 53  1  0  0  0  0
 35 55  1  0  0  0  0
 35 81  2  0  0  0  0
 36 56  1  0  0  0  0
 36 76  1  0  0  0  0
 36 82  2  0  0  0  0
 37 67  1  0  0  0  0
 37 72  1  0  0  0  0
 37 83  2  0  0  0  0
 38 68  1  0  0  0  0
 38 77  1  0  0  0  0
 38 84  2  0  0  0  0
 39 73  1  0  0  0  0
 39 78  1  0  0  0  0
 39 85  2  0  0  0  0
 40 44  1  0  0  0  0
 41 56  1  0  0  0  0
 42 45  1  0  0  0  0
 43 72  1  0  0  0  0
 44 47  1  0  0  0  0
 45 58  1  0  0  0  0
 46 50  1  0  0  0  0
 46 51  1  0  0  0  0
 47 54  1  0  0  0  0
 48 49  1  0  0  0  0
 48 55  1  0  0  0  0
 49 55  1  0  0  0  0
 50 57  1  0  0  0  0
 51 73  1  0  0  0  0
 52 57  1  0  0  0  0
 52 73  1  0  0  0  0
 53 58  1  0  0  0  0
 54 76  1  0  0  0  0
 56 72  1  0  0  0  0
 57 71  1  0  0  0  0
 58 78  1  0  0  0  0
 59 68  1  0  0  0  0
 60 69  1  0  0  0  0
 61 69  1  0  0  0  0
 62 69  1  0  0  0  0
 63 78  1  0  0  0  0
 64 79  1  0  0  0  0
 65 66  1  0  0  0  0
 65 87  1  0  0  0  0
 66 88  1  0  0  0  0
 67 69  1  0  0  0  0
 67 77  1  0  0  0  0
 68 79  1  0  0  0  0
 70 71  1  0  0  0  0
M  CHG  1  79   1
M  ISO  4  39 100  65 101  78 100  87 101
M  END
> <Batch ID>
0135

> <Smiles>
CNC(C)C(=O)NC(C(=O)N1Cc2cc([101O:1][101CH2:1]COc3ccc4c(c3)CCC([100N:0](C)[100C:0](=O)N3CCCC(n5nc(-c6ccc(Oc7ccc(F)cc7F)cc6)c(C(N)=O)c5N)C3)C4C(=O)C3CC3)ccc2CC1C(=O)NC1CCCc2ccccc21)C(C)(C)C

> <Shape>
0.274

> <Color>
0.095

> <Negative vol penalty>
0.000

$$$$

  -OEChem-04052321003D

 83 91  0     1  0  0  0  0  0999 V2000
  -29.9738  -22.1162   15.4411 C   0  0  0  0  0  0  0  0  0  0  0  0
  -29.0816  -21.9139   16.4892 C   0  0  0  0  0  0  0  0  0  0  0  0
  -26.2386  -19.3032   25.7266 C   0  0  0  0  0  0  0  0  0  0  0  0
  -25.2207  -11.6932   20.7756 C   0  0  0  0  0  0  0  0  0  0  0  0
  -25.3989  -12.7072   22.9613 C   0  0  0  0  0  0  0  0  0  0  0  0
  -30.8329  -23.2142   15.4606 C   0  0  0  0  0  0  0  0  0  0  0  0
  -29.0488  -22.8089   17.5580 C   0  0  0  0  0  0  0  0  0  0  0  0
  -24.3290  -24.0680   18.8933 C   0  0  0  0  0  0  0  0  0  0  0  0
  -25.5192  -10.4481   21.3289 C   0  0  0  0  0  0  0  0  0  0  0  0
  -25.6974  -11.4620   23.5146 C   0  0  0  0  0  0  0  0  0  0  0  0
  -23.6147  -23.1438   19.6545 C   0  0  0  0  0  0  0  0  0  0  0  0
  -25.8794   -6.9428   22.2224 C   0  0  0  0  0  0  0  0  0  0  0  0
  -25.1042   -5.8536   21.8244 C   0  0  0  0  0  0  0  0  0  0  0  0
  -25.2321  -19.2119   24.7338 C   0  0  0  0  0  0  0  0  0  0  0  0
  -24.1197  -24.4048   21.6481 C   0  0  0  0  0  0  0  0  0  0  0  0
  -23.1259   -6.9522   22.6711 C   0  0  0  0  0  0  0  0  0  0  0  0
  -27.2305  -20.1214   25.2328 C   0  0  0  0  0  0  0  0  0  0  0  0
  -25.1605  -12.8228   21.5918 C   0  0  0  0  0  0  0  0  0  0  0  0
  -23.5781  -14.6843   20.8582 C   0  0  0  0  0  0  0  0  0  0  0  0
  -30.8038  -24.1284   16.5255 C   0  0  0  0  0  0  0  0  0  0  0  0
  -24.9542  -25.1633   19.5061 C   0  0  0  0  0  0  0  0  0  0  0  0
  -29.9092  -23.9194   17.5924 C   0  0  0  0  0  0  0  0  0  0  0  0
  -24.8392  -25.3427   20.8920 C   0  0  0  0  0  0  0  0  0  0  0  0
  -25.7575  -10.3325   22.6984 C   0  0  0  0  0  0  0  0  0  0  0  0
  -23.5124  -23.3106   21.0325 C   0  0  0  0  0  0  0  0  0  0  0  0
  -25.2778   -8.0367   22.8448 C   0  0  0  0  0  0  0  0  0  0  0  0
  -23.7275   -5.8583   22.0487 C   0  0  0  0  0  0  0  0  0  0  0  0
  -23.9011   -8.0413   23.0691 C   0  0  0  0  0  0  0  0  0  0  0  0
  -24.8527  -14.1094   21.0208 C   0  0  0  0  0  0  0  0  0  0  0  0
  -25.6397  -19.9769   23.6633 C   0  0  0  0  0  0  0  0  0  0  0  0
  -23.8230  -15.9029   20.2739 C   0  0  0  0  0  0  0  0  0  0  0  0
  -22.2879  -14.1634   21.2046 C   0  0  0  0  0  0  0  0  0  0  0  0
  -24.9191  -20.1959   22.3741 C   0  0  0  0  0  0  0  0  0  0  0  0
  -27.9583  -26.1639   19.7853 C   0  0  0  0  0  0  0  0  0  0  0  0
  -26.5591  -28.7486   21.1579 C   0  0  0  0  0  0  0  0  0  0  0  0
  -23.8706  -30.0543   22.8052 C   0  0  0  0  0  0  0  0  0  0  0  0
  -28.5880  -19.5285   20.2485 C   0  0  0  0  0  0  0  0  0  0  0  0
  -31.7845  -25.2743   16.5254 C   0  0  0  0  0  0  0  0  0  0  0  0
  -25.6986  -26.1658   18.6675 C   0  0  0  0  0  0  0  0  0  0  0  0
  -25.4749  -26.5129   21.5956 C   0  0  0  0  0  0  0  0  0  0  0  0
  -31.4267  -26.3822   17.5127 C   0  0  0  0  0  0  0  0  0  0  0  0
  -26.9518  -18.1236   17.4155 C   0  0  0  0  0  0  0  0  0  0  0  0
  -31.0571  -25.7898   18.8689 C   0  0  0  0  0  0  0  0  0  0  0  0
  -26.1133  -16.9874   18.0036 C   0  0  0  0  0  0  0  0  0  0  0  0
  -28.2902  -18.2688   18.1364 C   0  0  0  0  0  0  0  0  0  0  0  0
  -27.3538  -17.2770   20.1890 C   0  0  0  0  0  0  0  0  0  0  0  0
  -29.8265  -24.8817   18.7574 C   0  0  1  0  0  0  0  0  0  0  0  0
  -26.7277  -26.9634   19.4626 C   0  0  1  0  0  0  0  0  0  0  0  0
  -25.9713  -17.1279   19.5311 C   0  0  2  0  0  0  0  0  0  0  0  0
  -23.0334  -32.1867   23.8298 C   0  0  0  0  0  0  0  0  0  0  0  0
  -21.3321  -20.6846   21.0279 C   0  0  0  0  0  0  0  0  0  0  0  0
  -28.4045  -28.3210   23.5498 C   0  0  0  0  0  0  0  0  0  0  0  0
  -26.9116  -29.8258   24.8821 C   0  0  0  0  0  0  0  0  0  0  0  0
  -28.1042  -30.7112   22.8780 C   0  0  0  0  0  0  0  0  0  0  0  0
  -21.5526  -30.1630   20.9683 C   0  0  0  0  0  0  0  0  0  0  0  0
  -23.3953  -20.1542   22.3722 C   0  0  0  0  0  0  0  0  0  0  0  0
  -27.6371  -21.3968   23.1283 C   0  0  0  0  0  0  0  0  0  0  0  0
  -28.7936  -20.6781   22.4383 C   0  0  0  0  0  0  0  0  0  0  0  0
  -26.1589  -29.1273   22.5634 C   0  0  1  0  0  0  0  0  0  0  0  0
  -23.0692  -31.3235   22.5782 C   0  0  2  0  0  0  0  0  0  0  0  0
  -22.7812  -21.0639   21.3046 C   0  0  2  0  0  0  0  0  0  1  0  0
  -27.3843  -29.4731   23.4556 C   0  0  0  0  0  0  0  0  0  0  0  0
  -25.8346  -14.8978   20.5755 N   0  0  0  0  0  0  0  0  0  0  0  0
  -26.8560  -20.5248   23.9777 N   0  0  0  0  0  0  0  0  0  0  0  0
  -25.1768  -15.9806   20.1273 N   0  0  0  0  0  0  0  0  0  0  0  0
  -26.1973  -27.4623   20.7330 N   0  0  0  0  0  0  0  0  0  0  0  0
  -28.0853  -18.3995   19.5810 N   0  0  0  0  0  0  0  0  0  0  0  0
  -23.0103  -16.9048   19.8761 N   0  0  0  0  0  0  0  0  0  0  0  0
  -22.2165  -12.8956   21.7977 N   0  0  0  0  0  0  0  0  0  0  0  0
  -28.6189  -25.6749   18.6744 N   0  0  0  0  0  0  0  0  0  0  0  0
  -25.1894  -30.2098   22.4341 N   0  0  0  0  0  0  0  0  0  0  0  0
  -28.3446  -19.5770   21.6157 N   0  0  0  0  0  0  0  0  0  0  0  0
  -21.6676  -30.9900   22.1971 N   0  3  0  0  0  0  0  0  0  0  0  0
  -21.2286  -14.7964   20.9792 O   0  0  0  0  0  0  0  0  0  0  0  0
  -25.5700  -20.4021   21.3525 O   0  0  0  0  0  0  0  0  0  0  0  0
  -28.2852  -26.0040   20.9554 O   0  0  0  0  0  0  0  0  0  0  0  0
  -27.1638  -29.5665   20.4601 O   0  0  0  0  0  0  0  0  0  0  0  0
  -23.3768  -29.0289   23.2691 O   0  0  0  0  0  0  0  0  0  0  0  0
  -29.2033  -20.4294   19.6681 O   0  0  0  0  0  0  0  0  0  0  0  0
  -26.0487   -9.1176   23.2386 O   0  0  0  0  0  0  0  0  0  0  0  0
  -22.8163  -22.4097   21.7780 O   0  0  0  0  0  0  0  0  0  1  0  0
  -22.9830   -4.8129   21.6651 F   0  0  0  0  0  0  0  0  0  0  0  0
  -23.3174   -9.0899   23.6655 F   0  0  0  0  0  0  0  0  0  0  0  0
  1  2  1  0  0  0  0
  1  6  2  0  0  0  0
  2  7  2  0  0  0  0
  3 14  1  0  0  0  0
  3 17  2  0  0  0  0
  4  9  2  0  0  0  0
  4 18  1  0  0  0  0
  5 10  1  0  0  0  0
  5 18  2  0  0  0  0
  6 20  1  0  0  0  0
  7 22  1  0  0  0  0
  8 11  2  0  0  0  0
  8 21  1  0  0  0  0
  9 24  1  0  0  0  0
 10 24  2  0  0  0  0
 11 25  1  0  0  0  0
 12 13  2  0  0  0  0
 12 26  1  0  0  0  0
 13 27  1  0  0  0  0
 14 30  2  0  0  0  0
 15 23  1  0  0  0  0
 15 25  2  0  0  0  0
 16 27  2  0  0  0  0
 16 28  1  0  0  0  0
 17 64  1  0  0  0  0
 18 29  1  0  0  0  0
 19 29  1  0  0  0  0
 19 31  2  0  0  0  0
 19 32  1  0  0  0  0
 20 22  2  0  0  0  0
 20 38  1  0  0  0  0
 21 23  2  0  0  0  0
 21 39  1  0  0  0  0
 22 47  1  0  0  0  0
 23 40  1  0  0  0  0
 24 80  1  0  0  0  0
 25 81  1  0  0  0  0
 26 28  2  0  0  0  0
 26 80  1  0  0  0  0
 27 82  1  0  0  0  0
 28 83  1  0  0  0  0
 29 63  2  0  0  0  0
 30 33  1  0  0  0  0
 30 64  1  0  0  0  0
 31 65  1  0  0  0  0
 31 68  1  0  0  0  0
 32 69  1  0  0  0  0
 32 74  2  0  0  0  0
 33 56  1  0  0  0  0
 33 75  2  0  0  0  0
 34 48  1  0  0  0  0
 34 70  1  0  0  0  0
 34 76  2  0  0  0  0
 35 59  1  0  0  0  0
 35 66  1  0  0  0  0
 35 77  2  0  0  0  0
 36 60  1  0  0  0  0
 36 71  1  0  0  0  0
 36 78  2  0  0  0  0
 37 67  1  0  0  0  0
 37 72  1  0  0  0  0
 37 79  2  0  0  0  0
 38 41  1  0  0  0  0
 39 48  1  0  0  0  0
 40 66  1  0  0  0  0
 41 43  1  0  0  0  0
 42 44  1  0  0  0  0
 42 45  1  0  0  0  0
 43 47  1  0  0  0  0
 44 49  1  0  0  0  0
 45 67  1  0  0  0  0
 46 49  1  0  0  0  0
 46 67  1  0  0  0  0
 47 70  1  0  0  0  0
 48 66  1  0  0  0  0
 49 65  1  0  0  0  0
 50 60  1  0  0  0  0
 51 61  1  0  0  0  0
 52 62  1  0  0  0  0
 53 62  1  0  0  0  0
 54 62  1  0  0  0  0
 55 73  1  0  0  0  0
 56 61  1  0  0  0  0
 57 58  1  0  0  0  0
 57 64  1  0  0  0  0
 58 72  1  0  0  0  0
 59 62  1  0  0  0  0
 59 71  1  0  0  0  0
 60 73  1  0  0  0  0
 61 81  1  0  0  0  0
 63 65  1  0  0  0  0
M  CHG  1  73   1
M  ISO  4  37 100  61 101  72 100  81 101
M  END
> <Batch ID>
0135

> <Smiles>
CNC(C)C(=O)NC(C(=O)N1Cc2cc([101O:1][101CH:1](C)CC(=O)c3cccn3CC[100NH:0][100C:0](=O)N3CCCC(n4nc(-c5ccc(Oc6ccc(F)cc6F)cc5)c(C(N)=O)c4N)C3)ccc2CC1C(=O)NC1CCCc2ccccc21)C(C)(C)C

> <Shape>
0.219

> <Color>
0.081

> <Negative vol penalty>
0.000

$$$$

  -OEChem-04052321003D

 91100  0     1  0  0  0  0  0999 V2000
  -38.9154  -28.7329   18.1072 C   0  0  0  0  0  0  0  0  0  0  0  0
  -37.9717  -27.7173   18.2237 C   0  0  0  0  0  0  0  0  0  0  0  0
  -23.2291   -9.7848   19.9202 C   0  0  0  0  0  0  0  0  0  0  0  0
  -23.6645   -9.9215   22.2927 C   0  0  0  0  0  0  0  0  0  0  0  0
  -38.5733  -30.0425   18.4417 C   0  0  0  0  0  0  0  0  0  0  0  0
  -36.6856  -28.0107   18.6758 C   0  0  0  0  0  0  0  0  0  0  0  0
  -31.4624  -25.3550   16.8949 C   0  0  0  0  0  0  0  0  0  0  0  0
  -22.4641   -8.6369   20.1267 C   0  0  0  0  0  0  0  0  0  0  0  0
  -22.8995   -8.7736   22.4993 C   0  0  0  0  0  0  0  0  0  0  0  0
  -30.6848  -24.3439   17.4578 C   0  0  0  0  0  0  0  0  0  0  0  0
  -19.3479   -7.8798   21.1985 C   0  0  0  0  0  0  0  0  0  0  0  0
  -18.1209   -7.7915   20.5410 C   0  0  0  0  0  0  0  0  0  0  0  0
  -29.2750  -26.0092   18.4866 C   0  0  0  0  0  0  0  0  0  0  0  0
  -30.6925  -14.8721   24.9568 C   0  0  0  0  0  0  0  0  0  0  0  0
  -32.8115  -15.1007   23.8191 C   0  0  0  0  0  0  0  0  0  0  0  0
  -18.8686   -5.7892   19.4146 C   0  0  0  0  0  0  0  0  0  0  0  0
  -23.8294  -10.4271   21.0032 C   0  0  0  0  0  0  0  0  0  0  0  0
  -24.1708  -12.9467   20.7962 C   0  0  0  0  0  0  0  0  0  0  0  0
  -37.2795  -30.3536   18.8889 C   0  0  0  0  0  0  0  0  0  0  0  0
  -31.1581  -26.7030   17.1330 C   0  0  0  0  0  0  0  0  0  0  0  0
  -36.3263  -29.3254   19.0178 C   0  0  0  0  0  0  0  0  0  0  0  0
  -30.0487  -27.0355   17.9235 C   0  0  0  0  0  0  0  0  0  0  0  0
  -31.7296  -14.3122   24.2107 C   0  0  0  0  0  0  0  0  0  0  0  0
  -30.7374  -16.2205   25.3112 C   0  0  0  0  0  0  0  0  0  0  0  0
  -32.8564  -16.4491   24.1735 C   0  0  0  0  0  0  0  0  0  0  0  0
  -31.8193  -17.0090   24.9195 C   0  0  0  0  0  0  0  0  0  0  0  0
  -22.2992   -8.1313   21.4163 C   0  0  0  0  0  0  0  0  0  0  0  0
  -29.5926  -24.6709   18.2561 C   0  0  0  0  0  0  0  0  0  0  0  0
  -20.3353   -6.9228   20.9640 C   0  0  0  0  0  0  0  0  0  0  0  0
  -17.8813   -6.7462   19.6490 C   0  0  0  0  0  0  0  0  0  0  0  0
  -20.0956   -5.8775   20.0721 C   0  0  0  0  0  0  0  0  0  0  0  0
  -24.6203  -11.6126   20.7904 C   0  0  0  0  0  0  0  0  0  0  0  0
  -25.2986  -13.6900   20.5472 C   0  0  0  0  0  0  0  0  0  0  0  0
  -22.8519  -13.4674   21.0078 C   0  0  0  0  0  0  0  0  0  0  0  0
  -32.6710  -29.1343   18.5128 C   0  0  0  0  0  0  0  0  0  0  0  0
  -30.1261  -30.8269   17.4261 C   0  0  0  0  0  0  0  0  0  0  0  0
  -26.8642  -30.8307   16.4226 C   0  0  0  0  0  0  0  0  0  0  0  0
  -31.1329  -12.6644   21.4197 C   0  0  0  0  0  0  0  0  0  0  0  0
  -36.9703  -31.7760   19.2837 C   0  0  0  0  0  0  0  0  0  0  0  0
  -31.9909  -27.7819   16.4967 C   0  0  0  0  0  0  0  0  0  0  0  0
  -29.6677  -28.4675   18.1931 C   0  0  0  0  0  0  0  0  0  0  0  0
  -35.4758  -32.0653   19.3980 C   0  0  0  0  0  0  0  0  0  0  0  0
  -29.5338  -13.4422   18.3351 C   0  0  0  0  0  0  0  0  0  0  0  0
  -34.7774  -30.9624   20.1870 C   0  0  0  0  0  0  0  0  0  0  0  0
  -28.0526  -13.1819   18.6152 C   0  0  0  0  0  0  0  0  0  0  0  0
  -30.8477  -21.5001   23.7512 C   0  0  0  0  0  0  0  0  0  0  0  0
  -30.4295  -12.4368   19.0554 C   0  0  0  0  0  0  0  0  0  0  0  0
  -28.7157  -12.0690   20.7879 C   0  0  0  0  0  0  0  0  0  0  0  0
  -32.0139  -20.8475   24.4742 C   0  0  0  0  0  0  0  0  0  0  0  0
  -30.7504  -19.2091   23.1702 C   0  0  0  0  0  0  0  0  0  0  0  0
  -34.9136  -29.6080   19.4809 C   0  0  1  0  0  0  0  0  0  0  0  0
  -31.8955  -29.1186   17.2259 C   0  0  1  0  0  0  0  0  0  0  0  0
  -30.6057  -20.5910   22.5552 C   0  0  1  0  0  0  0  0  0  0  0  0
  -27.7753  -13.0919   20.1279 C   0  0  2  0  0  0  0  0  0  0  0  0
  -29.6146  -16.7955   26.1115 C   0  0  0  0  0  0  0  0  0  0  0  0
  -34.0262  -17.2718   23.7418 C   0  0  0  0  0  0  0  0  0  0  0  0
  -25.0490  -32.3713   15.6294 C   0  0  0  0  0  0  0  0  0  0  0  0
  -28.8669  -19.6620   20.9803 C   0  0  0  0  0  0  0  0  0  0  0  0
  -29.7333  -31.8302   20.2808 C   0  0  0  0  0  0  0  0  0  0  0  0
  -27.4277  -32.5602   19.6328 C   0  0  0  0  0  0  0  0  0  0  0  0
  -29.4147  -33.5683   18.5110 C   0  0  0  0  0  0  0  0  0  0  0  0
  -26.6323  -29.4133   13.8350 C   0  0  0  0  0  0  0  0  0  0  0  0
  -31.6813  -12.8708   23.8313 C   0  0  0  0  0  0  0  0  0  0  0  0
  -31.8675  -18.4591   25.3012 C   0  0  0  0  0  0  0  0  0  0  0  0
  -27.9988  -22.6858   20.8290 C   0  0  0  0  0  0  0  0  0  0  0  0
  -28.2020  -23.9733   20.0548 C   0  0  0  0  0  0  0  0  0  1  0  0
  -28.7662  -31.1840   17.9757 C   0  0  1  0  0  0  0  0  0  0  0  0
  -26.1828  -31.4468   15.2140 C   0  0  2  0  0  0  0  0  0  0  0  0
  -29.2542  -20.8100   21.8986 C   0  0  2  0  0  0  0  0  0  0  0  0
  -28.8435  -32.2586   19.0968 C   0  0  0  0  0  0  0  0  0  0  0  0
  -25.9313  -11.5112   20.5562 N   0  0  0  0  0  0  0  0  0  0  0  0
  -26.3154  -12.7910   20.4124 N   0  0  0  0  0  0  0  0  0  0  0  0
  -30.5166  -29.4864   17.5538 N   0  0  0  0  0  0  0  0  0  0  0  0
  -30.1169  -12.4013   20.4861 N   0  0  0  0  0  0  0  0  0  0  0  0
  -25.5099  -15.0184   20.4326 N   0  0  0  0  0  0  0  0  0  0  0  0
  -21.8080  -12.5643   21.2507 N   0  0  0  0  0  0  0  0  0  0  0  0
  -33.9896  -29.5219   18.3703 N   0  0  0  0  0  0  0  0  0  0  0  0
  -27.9521  -31.5738   16.8295 N   0  0  0  0  0  0  0  0  0  0  0  0
  -30.7502  -12.6166   22.7546 N   0  0  0  0  0  0  0  0  0  0  0  0
  -31.9182  -19.3743   24.1202 N   0  3  2  0  0  0  0  0  0  0  0  0
  -25.6225  -30.3809   14.3361 N   0  3  0  0  0  0  0  0  0  0  0  0
  -29.3186  -22.0585   21.0918 N   0  3  0  0  0  0  0  0  0  0  0  0
  -22.6033  -14.6962   20.9660 O   0  0  0  0  0  0  0  0  0  0  0  0
  -32.1138  -28.8196   19.5578 O   0  0  0  0  0  0  0  0  0  0  0  0
  -30.8135  -31.7036   16.8964 O   0  0  0  0  0  0  0  0  0  0  0  0
  -26.4685  -29.7960   16.9550 O   0  0  0  0  0  0  0  0  0  0  0  0
  -32.2936  -12.9279   21.0880 O   0  0  0  0  0  0  0  0  0  0  0  0
  -21.5526   -7.0114   21.6182 O   0  0  0  0  0  0  0  0  0  0  0  0
  -28.8323  -23.6860   18.8072 O   0  0  0  0  0  0  0  0  0  1  0  0
  -16.7024   -6.6607   19.0189 F   0  0  0  0  0  0  0  0  0  0  0  0
  -21.0399   -4.9545   19.8436 F   0  0  0  0  0  0  0  0  0  0  0  0
  1  2  1  0  0  0  0
  1  5  2  0  0  0  0
  2  6  2  0  0  0  0
  3  8  2  0  0  0  0
  3 17  1  0  0  0  0
  4  9  1  0  0  0  0
  4 17  2  0  0  0  0
  5 19  1  0  0  0  0
  6 21  1  0  0  0  0
  7 10  2  0  0  0  0
  7 20  1  0  0  0  0
  8 27  1  0  0  0  0
  9 27  2  0  0  0  0
 10 28  1  0  0  0  0
 11 12  2  0  0  0  0
 11 29  1  0  0  0  0
 12 30  1  0  0  0  0
 13 22  1  0  0  0  0
 13 28  2  0  0  0  0
 14 23  1  0  0  0  0
 14 24  2  0  0  0  0
 15 23  2  0  0  0  0
 15 25  1  0  0  0  0
 16 30  2  0  0  0  0
 16 31  1  0  0  0  0
 17 32  1  0  0  0  0
 18 32  1  0  0  0  0
 18 33  2  0  0  0  0
 18 34  1  0  0  0  0
 19 21  2  0  0  0  0
 19 39  1  0  0  0  0
 20 22  2  0  0  0  0
 20 40  1  0  0  0  0
 21 51  1  0  0  0  0
 22 41  1  0  0  0  0
 23 63  1  0  0  0  0
 24 26  1  0  0  0  0
 24 55  1  0  0  0  0
 25 26  2  0  0  0  0
 25 56  1  0  0  0  0
 26 64  1  0  0  0  0
 27 88  1  0  0  0  0
 28 89  1  0  0  0  0
 29 31  2  0  0  0  0
 29 88  1  0  0  0  0
 30 90  1  0  0  0  0
 31 91  1  0  0  0  0
 32 71  2  0  0  0  0
 33 72  1  0  0  0  0
 33 75  1  0  0  0  0
 34 76  1  0  0  0  0
 34 83  2  0  0  0  0
 35 52  1  0  0  0  0
 35 77  1  0  0  0  0
 35 84  2  0  0  0  0
 36 67  1  0  0  0  0
 36 73  1  0  0  0  0
 36 85  2  0  0  0  0
 37 68  1  0  0  0  0
 37 78  1  0  0  0  0
 37 86  2  0  0  0  0
 38 74  1  0  0  0  0
 38 79  1  0  0  0  0
 38 87  2  0  0  0  0
 39 42  1  0  0  0  0
 40 52  1  0  0  0  0
 41 73  1  0  0  0  0
 42 44  1  0  0  0  0
 43 45  1  0  0  0  0
 43 47  1  0  0  0  0
 44 51  1  0  0  0  0
 45 54  1  0  0  0  0
 46 49  1  0  0  0  0
 46 53  1  0  0  0  0
 47 74  1  0  0  0  0
 48 54  1  0  0  0  0
 48 74  1  0  0  0  0
 49 80  1  0  0  0  0
 50 53  1  0  0  0  0
 50 80  1  0  0  0  0
 51 77  1  0  0  0  0
 52 73  1  0  0  0  0
 53 69  1  0  0  0  0
 54 72  1  0  0  0  0
 57 68  1  0  0  0  0
 58 69  1  0  0  0  0
 59 70  1  0  0  0  0
 60 70  1  0  0  0  0
 61 70  1  0  0  0  0
 62 81  1  0  0  0  0
 63 79  1  0  0  0  0
 64 80  1  0  0  0  0
 65 66  1  0  0  0  0
 65 82  1  0  0  0  0
 66 89  1  0  0  0  0
 67 70  1  0  0  0  0
 67 78  1  0  0  0  0
 68 81  1  0  0  0  0
 69 82  1  0  0  0  0
 71 72  1  0  0  0  0
M  CHG  3  80   1  81   1  82   1
M  ISO  4  38 100  66 101  79 100  89 101
M  END
> <Batch ID>
0135

> <Smiles>
CNC(C)C(=O)NC(C(=O)N1Cc2cc([101O:1][101CH2:1]CNC(C)C3CCN(Cc4c(C)cc(C[100NH:0][100C:0](=O)N5CCCC(n6nc(-c7ccc(Oc8ccc(F)cc8F)cc7)c(C(N)=O)c6N)C5)cc4C)C3)ccc2CC1C(=O)NC1CCCc2ccccc21)C(C)(C)C

> <Shape>
0.173

> <Color>
0.175

> <Negative vol penalty>
0.000

$$$$

  -OEChem-04052321003D

 88 97  0     1  0  0  0  0  0999 V2000
  -27.1814  -34.3147   20.4507 C   0  0  0  0  0  0  0  0  0  0  0  0
  -27.4878  -33.0656   20.9809 C   0  0  0  0  0  0  0  0  0  0  0  0
  -23.5842   -9.6767   21.1897 C   0  0  0  0  0  0  0  0  0  0  0  0
  -24.1756  -10.5642   23.3576 C   0  0  0  0  0  0  0  0  0  0  0  0
  -25.9156  -34.8641   20.6506 C   0  0  0  0  0  0  0  0  0  0  0  0
  -26.5290  -32.3655   21.7123 C   0  0  0  0  0  0  0  0  0  0  0  0
  -25.7259  -26.2962   21.8693 C   0  0  0  0  0  0  0  0  0  0  0  0
  -27.4418  -22.7455   26.8836 C   0  0  0  0  0  0  0  0  0  0  0  0
  -27.6598  -21.7701   27.8566 C   0  0  0  0  0  0  0  0  0  0  0  0
  -22.9818   -8.5786   21.8035 C   0  0  0  0  0  0  0  0  0  0  0  0
  -23.5731   -9.4660   23.9715 C   0  0  0  0  0  0  0  0  0  0  0  0
  -26.1325  -25.3195   22.7772 C   0  0  0  0  0  0  0  0  0  0  0  0
  -20.0693   -7.8925   23.3782 C   0  0  0  0  0  0  0  0  0  0  0  0
  -18.8165   -7.4952   22.9110 C   0  0  0  0  0  0  0  0  0  0  0  0
  -23.9853  -25.4490   23.8690 C   0  0  0  0  0  0  0  0  0  0  0  0
  -27.1962  -21.0209   25.2096 C   0  0  0  0  0  0  0  0  0  0  0  0
  -19.7157   -5.3253   22.3452 C   0  0  0  0  0  0  0  0  0  0  0  0
  -24.1811  -10.6695   21.9667 C   0  0  0  0  0  0  0  0  0  0  0  0
  -24.1976  -13.0290   20.9973 C   0  0  0  0  0  0  0  0  0  0  0  0
  -24.9376  -34.1662   21.3767 C   0  0  0  0  0  0  0  0  0  0  0  0
  -24.4477  -26.8656   21.9613 C   0  0  0  0  0  0  0  0  0  0  0  0
  -25.2494  -32.9067   21.9233 C   0  0  0  0  0  0  0  0  0  0  0  0
  -23.5640  -26.4310   22.9595 C   0  0  0  0  0  0  0  0  0  0  0  0
  -27.2100  -22.3709   25.5601 C   0  0  0  0  0  0  0  0  0  0  0  0
  -27.6460  -20.4201   27.5061 C   0  0  0  0  0  0  0  0  0  0  0  0
  -27.4142  -20.0454   26.1826 C   0  0  0  0  0  0  0  0  0  0  0  0
  -22.9762   -8.4732   23.1944 C   0  0  0  0  0  0  0  0  0  0  0  0
  -25.2633  -24.8978   23.7790 C   0  0  0  0  0  0  0  0  0  0  0  0
  -21.1453   -7.0063   23.3288 C   0  0  0  0  0  0  0  0  0  0  0  0
  -18.6397   -6.2116   22.3945 C   0  0  0  0  0  0  0  0  0  0  0  0
  -20.9685   -5.7227   22.8123 C   0  0  0  0  0  0  0  0  0  0  0  0
  -24.8041  -11.8038   21.3332 C   0  0  0  0  0  0  0  0  0  0  0  0
  -25.2051  -13.7645   20.4223 C   0  0  0  0  0  0  0  0  0  0  0  0
  -22.8447  -13.4635   21.1880 C   0  0  0  0  0  0  0  0  0  0  0  0
  -23.3291  -29.7973   22.4685 C   0  0  0  0  0  0  0  0  0  0  0  0
  -20.4704  -28.3915   21.8574 C   0  0  0  0  0  0  0  0  0  0  0  0
  -18.6007  -25.5372   21.7914 C   0  0  0  0  0  0  0  0  0  0  0  0
  -31.1694  -13.6013   20.9239 C   0  0  0  0  0  0  0  0  0  0  0  0
  -23.5989  -34.8215   21.6068 C   0  0  0  0  0  0  0  0  0  0  0  0
  -24.0146  -27.8990   20.9578 C   0  0  0  0  0  0  0  0  0  0  0  0
  -22.1739  -26.9961   23.0888 C   0  0  0  0  0  0  0  0  0  0  0  0
  -22.5179  -33.8506   22.0750 C   0  0  0  0  0  0  0  0  0  0  0  0
  -29.2620  -13.2574   17.9373 C   0  0  0  0  0  0  0  0  0  0  0  0
  -23.0501  -32.9569   23.1907 C   0  0  0  0  0  0  0  0  0  0  0  0
  -27.8485  -12.9564   18.4386 C   0  0  0  0  0  0  0  0  0  0  0  0
  -30.3244  -12.6051   18.8192 C   0  0  0  0  0  0  0  0  0  0  0  0
  -28.8020  -12.6194   20.7572 C   0  0  0  0  0  0  0  0  0  0  0  0
  -28.8401  -16.5758   25.3372 C   0  0  0  0  0  0  0  0  0  0  0  0
  -30.3880  -18.1427   23.4720 C   0  0  0  0  0  0  0  0  0  0  0  0
  -24.2280  -32.1057   22.7014 C   0  0  1  0  0  0  0  0  0  0  0  0
  -22.8749  -28.7795   21.4609 C   0  0  1  0  0  0  0  0  0  0  0  0
  -27.6978  -13.3022   19.9323 C   0  0  2  0  0  0  0  0  0  0  0  0
  -30.4090  -16.6139   23.4965 C   0  0  1  0  0  0  0  0  0  0  0  0
  -28.7709  -18.1033   25.3726 C   0  0  2  0  0  0  0  0  0  0  0  0
  -27.8831  -19.3938   28.5649 C   0  0  0  0  0  0  0  0  0  0  0  0
  -16.2865  -24.7096   21.2846 C   0  0  0  0  0  0  0  0  0  0  0  0
  -19.4849  -29.5291   24.5115 C   0  0  0  0  0  0  0  0  0  0  0  0
  -17.5651  -27.9255   24.4062 C   0  0  0  0  0  0  0  0  0  0  0  0
  -17.8321  -29.6665   22.6397 C   0  0  0  0  0  0  0  0  0  0  0  0
  -19.5804  -23.7726   19.6269 C   0  0  0  0  0  0  0  0  0  0  0  0
  -27.3952  -18.6062   25.7838 C   0  0  0  0  0  0  0  0  0  0  0  0
  -26.9761  -23.4204   24.5136 C   0  0  0  0  0  0  0  0  0  1  0  0
  -31.7678  -16.0948   23.0309 C   0  0  0  0  0  0  0  0  0  0  0  0
  -31.8671  -14.5773   23.0965 C   0  0  0  0  0  0  0  0  0  0  0  0
  -19.4194  -27.6993   22.6912 C   0  0  1  0  0  0  0  0  0  0  0  0
  -17.6805  -24.9601   20.7309 C   0  0  2  0  0  0  0  0  0  0  0  0
  -18.6022  -28.6956   23.5612 C   0  0  0  0  0  0  0  0  0  0  0  0
  -26.0966  -11.7595   20.9993 N   0  0  0  0  0  0  0  0  0  0  0  0
  -26.3106  -12.9661   20.4475 N   0  0  0  0  0  0  0  0  0  0  0  0
  -30.1376  -16.1003   24.8472 N   0  0  0  0  0  0  0  0  0  0  0  0
  -21.7994  -28.0085   22.0877 N   0  0  0  0  0  0  0  0  0  0  0  0
  -30.1261  -12.9745   20.2228 N   0  0  0  0  0  0  0  0  0  0  0  0
  -25.2443  -15.0098   19.9026 N   0  0  0  0  0  0  0  0  0  0  0  0
  -21.9392  -12.5825   21.7948 N   0  0  0  0  0  0  0  0  0  0  0  0
  -23.7519  -30.9897   21.9126 N   0  0  0  0  0  0  0  0  0  0  0  0
  -18.6122  -26.9157   21.7623 N   0  0  0  0  0  0  0  0  0  0  0  0
  -30.8961  -13.9236   22.2476 N   0  0  0  0  0  0  0  0  0  0  0  0
  -29.0717  -18.6190   23.9958 N   0  3  0  0  0  0  0  0  0  0  0  0
  -18.2229  -23.6689   20.2214 N   0  3  0  0  0  0  0  0  0  0  0  0
  -22.4463  -14.5933   20.8160 O   0  0  0  0  0  0  0  0  0  0  0  0
  -23.2970  -29.5219   23.6622 O   0  0  0  0  0  0  0  0  0  0  0  0
  -20.1243  -29.2355   21.0270 O   0  0  0  0  0  0  0  0  0  0  0  0
  -19.2420  -24.8355   22.5703 O   0  0  0  0  0  0  0  0  0  0  0  0
  -32.2616  -13.8598   20.4069 O   0  0  0  0  0  0  0  0  0  0  0  0
  -22.3882   -7.4019   23.7938 O   0  0  0  0  0  0  0  0  0  0  0  0
  -25.6579  -23.9450   24.6669 O   0  0  0  0  0  0  0  0  0  1  0  0
  -17.4362   -5.8297   21.9474 F   0  0  0  0  0  0  0  0  0  0  0  0
  -21.9982   -4.8664   22.7634 F   0  0  0  0  0  0  0  0  0  0  0  0
  1  2  1  0  0  0  0
  1  5  2  0  0  0  0
  2  6  2  0  0  0  0
  3 10  2  0  0  0  0
  3 18  1  0  0  0  0
  4 11  1  0  0  0  0
  4 18  2  0  0  0  0
  5 20  1  0  0  0  0
  6 22  1  0  0  0  0
  7 12  2  0  0  0  0
  7 21  1  0  0  0  0
  8  9  2  0  0  0  0
  8 24  1  0  0  0  0
  9 25  1  0  0  0  0
 10 27  1  0  0  0  0
 11 27  2  0  0  0  0
 12 28  1  0  0  0  0
 13 14  2  0  0  0  0
 13 29  1  0  0  0  0
 14 30  1  0  0  0  0
 15 23  1  0  0  0  0
 15 28  2  0  0  0  0
 16 24  2  0  0  0  0
 16 26  1  0  0  0  0
 17 30  2  0  0  0  0
 17 31  1  0  0  0  0
 18 32  1  0  0  0  0
 19 32  1  0  0  0  0
 19 33  2  0  0  0  0
 19 34  1  0  0  0  0
 20 22  2  0  0  0  0
 20 39  1  0  0  0  0
 21 23  2  0  0  0  0
 21 40  1  0  0  0  0
 22 50  1  0  0  0  0
 23 41  1  0  0  0  0
 24 62  1  0  0  0  0
 25 26  2  0  0  0  0
 25 55  1  0  0  0  0
 26 61  1  0  0  0  0
 27 85  1  0  0  0  0
 28 86  1  0  0  0  0
 29 31  2  0  0  0  0
 29 85  1  0  0  0  0
 30 87  1  0  0  0  0
 31 88  1  0  0  0  0
 32 68  2  0  0  0  0
 33 69  1  0  0  0  0
 33 73  1  0  0  0  0
 34 74  1  0  0  0  0
 34 80  2  0  0  0  0
 35 51  1  0  0  0  0
 35 75  1  0  0  0  0
 35 81  2  0  0  0  0
 36 65  1  0  0  0  0
 36 71  1  0  0  0  0
 36 82  2  0  0  0  0
 37 66  1  0  0  0  0
 37 76  1  0  0  0  0
 37 83  2  0  0  0  0
 38 72  1  0  0  0  0
 38 77  1  0  0  0  0
 38 84  2  0  0  0  0
 39 42  1  0  0  0  0
 40 51  1  0  0  0  0
 41 71  1  0  0  0  0
 42 44  1  0  0  0  0
 43 45  1  0  0  0  0
 43 46  1  0  0  0  0
 44 50  1  0  0  0  0
 45 52  1  0  0  0  0
 46 72  1  0  0  0  0
 47 52  1  0  0  0  0
 47 72  1  0  0  0  0
 48 54  1  0  0  0  0
 48 70  1  0  0  0  0
 49 53  1  0  0  0  0
 49 78  1  0  0  0  0
 50 75  1  0  0  0  0
 51 71  1  0  0  0  0
 52 69  1  0  0  0  0
 53 63  1  0  0  0  0
 53 70  1  0  0  0  0
 54 61  1  0  0  0  0
 54 78  1  0  0  0  0
 56 66  1  0  0  0  0
 57 67  1  0  0  0  0
 58 67  1  0  0  0  0
 59 67  1  0  0  0  0
 60 79  1  0  0  0  0
 62 86  1  0  0  0  0
 63 64  1  0  0  0  0
 64 77  1  0  0  0  0
 65 67  1  0  0  0  0
 65 76  1  0  0  0  0
 66 79  1  0  0  0  0
 68 69  1  0  0  0  0
M  CHG  2  78   1  79   1
M  ISO  4  38 100  62 101  77 100  86 101
M  END
> <Batch ID>
0135

> <Smiles>
CNC(C)C(=O)NC(C(=O)N1Cc2cc([101O:1][101CH2:1]c3ccc(C)c(CC4CNC(CC[100NH:0][100C:0](=O)N5CCCC(n6nc(-c7ccc(Oc8ccc(F)cc8F)cc7)c(C(N)=O)c6N)C5)CN4)c3)ccc2CC1C(=O)NC1CCCc2ccccc21)C(C)(C)C

> <Shape>
0.250

> <Color>
0.135

> <Negative vol penalty>
0.000

$$$$

  -OEChem-04052321003D

 81 89  0     1  0  0  0  0  0999 V2000
  -25.9048   -6.9630   23.0526 C   0  0  0  0  0  0  0  0  0  0  0  0
  -26.6941   -8.0531   22.7004 C   0  0  0  0  0  0  0  0  0  0  0  0
  -21.4994  -30.1621   20.9884 C   0  0  0  0  0  0  0  0  0  0  0  0
  -22.5050  -28.9466   22.8183 C   0  0  0  0  0  0  0  0  0  0  0  0
  -24.5699   -6.9124   22.6532 C   0  0  0  0  0  0  0  0  0  0  0  0
  -26.1492   -9.0928   21.9477 C   0  0  0  0  0  0  0  0  0  0  0  0
  -27.5101  -15.0490   22.3698 C   0  0  0  0  0  0  0  0  0  0  0  0
  -30.7400  -23.4308   19.6692 C   0  0  0  0  0  0  0  0  0  0  0  0
  -28.8009  -23.7377   21.0772 C   0  0  0  0  0  0  0  0  0  0  0  0
  -20.2388  -29.7155   21.3846 C   0  0  0  0  0  0  0  0  0  0  0  0
  -21.2443  -28.5001   23.2145 C   0  0  0  0  0  0  0  0  0  0  0  0
  -28.3530  -15.8735   21.6259 C   0  0  0  0  0  0  0  0  0  0  0  0
  -30.4441  -22.0723   19.5577 C   0  0  0  0  0  0  0  0  0  0  0  0
  -28.5049  -22.3792   20.9657 C   0  0  0  0  0  0  0  0  0  0  0  0
  -19.0299  -26.1280   22.2655 C   0  0  0  0  0  0  0  0  0  0  0  0
  -18.8943  -24.7797   22.5960 C   0  0  0  0  0  0  0  0  0  0  0  0
  -26.4719  -16.5840   20.2933 C   0  0  0  0  0  0  0  0  0  0  0  0
  -18.1925  -25.3963   24.8241 C   0  0  0  0  0  0  0  0  0  0  0  0
  -22.6326  -29.7776   21.7053 C   0  0  0  0  0  0  0  0  0  0  0  0
  -24.5922  -31.4108   21.7144 C   0  0  0  0  0  0  0  0  0  0  0  0
  -24.0058   -7.9565   21.9035 C   0  0  0  0  0  0  0  0  0  0  0  0
  -26.1413  -14.9773   22.0735 C   0  0  0  0  0  0  0  0  0  0  0  0
  -24.8059   -9.0555   21.5368 C   0  0  0  0  0  0  0  0  0  0  0  0
  -25.6133  -15.7597   21.0365 C   0  0  0  0  0  0  0  0  0  0  0  0
  -29.9184  -24.2635   20.4290 C   0  0  0  0  0  0  0  0  0  0  0  0
  -20.1112  -28.8845   22.4976 C   0  0  0  0  0  0  0  0  0  0  0  0
  -29.3265  -21.5465   20.2060 C   0  0  0  0  0  0  0  0  0  0  0  0
  -27.8345  -16.6390   20.5856 C   0  0  0  0  0  0  0  0  0  0  0  0
  -18.7468  -27.1106   23.2144 C   0  0  0  0  0  0  0  0  0  0  0  0
  -18.4756  -24.4138   23.8752 C   0  0  0  0  0  0  0  0  0  0  0  0
  -18.3281  -26.7447   24.4936 C   0  0  0  0  0  0  0  0  0  0  0  0
  -23.9351  -30.2381   21.2962 C   0  0  0  0  0  0  0  0  0  0  0  0
  -25.7906  -31.3907   21.0436 C   0  0  0  0  0  0  0  0  0  0  0  0
  -24.1581  -32.4274   22.6275 C   0  0  0  0  0  0  0  0  0  0  0  0
  -24.1692  -12.6719   21.1253 C   0  0  0  0  0  0  0  0  0  0  0  0
  -21.9108  -14.9587   21.5638 C   0  0  0  0  0  0  0  0  0  0  0  0
  -21.1458  -18.2803   21.7335 C   0  0  0  0  0  0  0  0  0  0  0  0
  -29.0951  -26.9655   18.7310 C   0  0  0  0  0  0  0  0  0  0  0  0
  -22.5711   -7.8350   21.4545 C   0  0  0  0  0  0  0  0  0  0  0  0
  -25.2408  -14.1033   22.9026 C   0  0  0  0  0  0  0  0  0  0  0  0
  -24.1475  -15.7341   20.6913 C   0  0  0  0  0  0  0  0  0  0  0  0
  -21.9682   -9.1540   20.9779 C   0  0  0  0  0  0  0  0  0  0  0  0
  -27.7936  -29.7933   17.0029 C   0  0  0  0  0  0  0  0  0  0  0  0
  -22.9289   -9.8697   20.0337 C   0  0  0  0  0  0  0  0  0  0  0  0
  -26.7164  -30.3338   17.9450 C   0  0  0  0  0  0  0  0  0  0  0  0
  -27.8524  -28.2676   17.0291 C   0  0  0  0  0  0  0  0  0  0  0  0
  -26.9294  -28.2171   19.3137 C   0  0  0  0  0  0  0  0  0  0  0  0
  -24.2444  -10.2145   20.7422 C   0  0  1  0  0  0  0  0  0  0  0  0
  -23.9526  -13.7183   22.1816 C   0  0  1  0  0  0  0  0  0  0  0  0
  -26.8698  -29.7534   19.3638 C   0  0  2  0  0  0  0  0  0  0  0  0
  -19.2093  -19.8413   22.0662 C   0  0  0  0  0  0  0  0  0  0  0  0
  -20.9858  -14.4161   18.7072 C   0  0  0  0  0  0  0  0  0  0  0  0
  -19.7392  -16.5864   18.7728 C   0  0  0  0  0  0  0  0  0  0  0  0
  -19.1362  -14.7554   20.3560 C   0  0  0  0  0  0  0  0  0  0  0  0
  -22.3510  -19.4410   24.1746 C   0  0  0  0  0  0  0  0  0  0  0  0
  -30.2343  -25.7161   20.5477 C   0  0  0  0  0  0  0  0  0  0  0  0
  -30.1360  -19.3292   19.9153 C   0  0  0  0  0  0  0  0  0  0  0  0
  -29.7955  -17.9830   20.5249 C   0  0  0  0  0  0  0  0  0  1  0  0
  -21.2924  -16.0303   20.6988 C   0  0  1  0  0  0  0  0  0  0  0  0
  -20.3379  -19.0777   22.7414 C   0  0  2  0  0  0  0  0  0  0  0  0
  -20.3164  -15.4463   19.6387 C   0  0  0  0  0  0  0  0  0  0  0  0
  -24.6562  -29.5250   20.4270 N   0  0  0  0  0  0  0  0  0  0  0  0
  -25.7788  -30.2518   20.2934 N   0  0  0  0  0  0  0  0  0  0  0  0
  -23.3088  -14.8590   21.5269 N   0  0  0  0  0  0  0  0  0  0  0  0
  -27.9999  -27.7815   18.4031 N   0  0  0  0  0  0  0  0  0  0  0  0
  -26.8427  -32.2365   21.0281 N   0  0  0  0  0  0  0  0  0  0  0  0
  -22.8992  -32.2923   23.2286 N   0  0  0  0  0  0  0  0  0  0  0  0
  -24.0725  -11.3743   21.5906 N   0  0  0  0  0  0  0  0  0  0  0  0
  -20.6790  -16.9886   21.6120 N   0  0  0  0  0  0  0  0  0  0  0  0
  -29.1630  -26.5538   20.0564 N   0  0  0  0  0  0  0  0  0  0  0  0
  -21.2117  -20.0572   23.4471 N   0  3  0  0  0  0  0  0  0  0  0  0
  -24.8587  -33.4343   22.8898 O   0  0  0  0  0  0  0  0  0  0  0  0
  -24.4049  -13.0161   19.9731 O   0  0  0  0  0  0  0  0  0  0  0  0
  -21.1808  -14.2414   22.2524 O   0  0  0  0  0  0  0  0  0  0  0  0
  -22.0937  -18.7568   21.1130 O   0  0  0  0  0  0  0  0  0  0  0  0
  -29.9521  -26.6332   17.9051 O   0  0  0  0  0  0  0  0  0  0  0  0
  -18.8812  -28.4488   22.8846 O   0  0  0  0  0  0  0  0  0  0  0  0
  -29.0353  -20.2123   20.0953 O   0  0  0  0  0  0  0  0  0  0  0  0
  -28.6551  -17.4442   19.8575 O   0  0  0  0  0  0  0  0  0  1  0  0
  -18.3439  -23.1190   24.1919 F   0  0  0  0  0  0  0  0  0  0  0  0
  -18.0536  -27.6841   25.4090 F   0  0  0  0  0  0  0  0  0  0  0  0
  1  2  1  0  0  0  0
  1  5  2  0  0  0  0
  2  6  2  0  0  0  0
  3 10  2  0  0  0  0
  3 19  1  0  0  0  0
  4 11  1  0  0  0  0
  4 19  2  0  0  0  0
  5 21  1  0  0  0  0
  6 23  1  0  0  0  0
  7 12  2  0  0  0  0
  7 22  1  0  0  0  0
  8 13  2  0  0  0  0
  8 25  1  0  0  0  0
  9 14  1  0  0  0  0
  9 25  2  0  0  0  0
 10 26  1  0  0  0  0
 11 26  2  0  0  0  0
 12 28  1  0  0  0  0
 13 27  1  0  0  0  0
 14 27  2  0  0  0  0
 15 16  2  0  0  0  0
 15 29  1  0  0  0  0
 16 30  1  0  0  0  0
 17 24  1  0  0  0  0
 17 28  2  0  0  0  0
 18 30  2  0  0  0  0
 18 31  1  0  0  0  0
 19 32  1  0  0  0  0
 20 32  1  0  0  0  0
 20 33  2  0  0  0  0
 20 34  1  0  0  0  0
 21 23  2  0  0  0  0
 21 39  1  0  0  0  0
 22 24  2  0  0  0  0
 22 40  1  0  0  0  0
 23 48  1  0  0  0  0
 24 41  1  0  0  0  0
 25 56  1  0  0  0  0
 26 77  1  0  0  0  0
 27 78  1  0  0  0  0
 28 79  1  0  0  0  0
 29 31  2  0  0  0  0
 29 77  1  0  0  0  0
 30 80  1  0  0  0  0
 31 81  1  0  0  0  0
 32 62  2  0  0  0  0
 33 63  1  0  0  0  0
 33 66  1  0  0  0  0
 34 67  1  0  0  0  0
 34 72  2  0  0  0  0
 35 49  1  0  0  0  0
 35 68  1  0  0  0  0
 35 73  2  0  0  0  0
 36 59  1  0  0  0  0
 36 64  1  0  0  0  0
 36 74  2  0  0  0  0
 37 60  1  0  0  0  0
 37 69  1  0  0  0  0
 37 75  2  0  0  0  0
 38 65  1  0  0  0  0
 38 70  1  0  0  0  0
 38 76  2  0  0  0  0
 39 42  1  0  0  0  0
 40 49  1  0  0  0  0
 41 64  1  0  0  0  0
 42 44  1  0  0  0  0
 43 45  1  0  0  0  0
 43 46  1  0  0  0  0
 44 48  1  0  0  0  0
 45 50  1  0  0  0  0
 46 65  1  0  0  0  0
 47 50  1  0  0  0  0
 47 65  1  0  0  0  0
 48 68  1  0  0  0  0
 49 64  1  0  0  0  0
 50 63  1  0  0  0  0
 51 60  1  0  0  0  0
 52 61  1  0  0  0  0
 53 61  1  0  0  0  0
 54 61  1  0  0  0  0
 55 71  1  0  0  0  0
 56 70  1  0  0  0  0
 57 58  1  0  0  0  0
 57 78  1  0  0  0  0
 58 79  1  0  0  0  0
 59 61  1  0  0  0  0
 59 69  1  0  0  0  0
 60 71  1  0  0  0  0
 62 63  1  0  0  0  0
M  CHG  1  71   1
M  ISO  4  38 100  58 101  70 100  79 101
M  END
> <Batch ID>
0135

> <Smiles>
CNC(C)C(=O)NC(C(=O)N1Cc2cc([101O:1][101CH2:1]COc3ccc(C[100NH:0][100C:0](=O)N4CCCC(n5nc(-c6ccc(Oc7ccc(F)cc7F)cc6)c(C(N)=O)c5N)C4)cc3)ccc2CC1C(=O)NC1CCCc2ccccc21)C(C)(C)C

> <Shape>
0.269

> <Color>
0.051

> <Negative vol penalty>
0.000

$$$$

  -OEChem-04052321003D

 85 93  0     1  0  0  0  0  0999 V2000
  -30.0087  -24.0592   17.7215 C   0  0  0  0  0  0  0  0  0  0  0  0
  -28.7641  -24.1131   18.3408 C   0  0  0  0  0  0  0  0  0  0  0  0
  -27.8817  -17.2134   21.3005 C   0  0  0  0  0  0  0  0  0  0  0  0
  -27.4582  -17.1883   18.9220 C   0  0  0  0  0  0  0  0  0  0  0  0
  -31.0656  -24.8224   18.2158 C   0  0  0  0  0  0  0  0  0  0  0  0
  -28.5760  -24.9295   19.4555 C   0  0  0  0  0  0  0  0  0  0  0  0
  -24.2688  -27.5819   19.2162 C   0  0  0  0  0  0  0  0  0  0  0  0
  -28.5499  -18.4307   21.1687 C   0  0  0  0  0  0  0  0  0  0  0  0
  -28.1263  -18.4056   18.7902 C   0  0  0  0  0  0  0  0  0  0  0  0
  -23.0875  -26.9068   19.5204 C   0  0  0  0  0  0  0  0  0  0  0  0
  -27.7359  -21.6944   20.8240 C   0  0  0  0  0  0  0  0  0  0  0  0
  -27.4467  -22.6962   21.7504 C   0  0  0  0  0  0  0  0  0  0  0  0
  -23.1193  -27.8616   21.7355 C   0  0  0  0  0  0  0  0  0  0  0  0
  -29.7622  -22.7271   22.4397 C   0  0  0  0  0  0  0  0  0  0  0  0
  -27.3360  -16.5921   20.1771 C   0  0  0  0  0  0  0  0  0  0  0  0
  -27.1735  -14.1239   20.8008 C   0  0  0  0  0  0  0  0  0  0  0  0
  -30.8878  -25.6560   19.3312 C   0  0  0  0  0  0  0  0  0  0  0  0
  -24.8910  -28.3948   20.1746 C   0  0  0  0  0  0  0  0  0  0  0  0
  -29.6319  -25.7036   19.9660 C   0  0  0  0  0  0  0  0  0  0  0  0
  -24.3070  -28.5480   21.4401 C   0  0  0  0  0  0  0  0  0  0  0  0
  -28.6721  -19.0268   19.9135 C   0  0  0  0  0  0  0  0  0  0  0  0
  -22.5141  -27.0442   20.7812 C   0  0  0  0  0  0  0  0  0  0  0  0
  -29.0382  -21.2088   20.7054 C   0  0  0  0  0  0  0  0  0  0  0  0
  -28.4599  -23.2126   22.5583 C   0  0  0  0  0  0  0  0  0  0  0  0
  -30.0513  -21.7252   21.5132 C   0  0  0  0  0  0  0  0  0  0  0  0
  -26.6462  -15.3344   20.3126 C   0  0  0  0  0  0  0  0  0  0  0  0
  -26.1260  -13.2386   20.7274 C   0  0  0  0  0  0  0  0  0  0  0  0
  -28.4924  -13.8263   21.2780 C   0  0  0  0  0  0  0  0  0  0  0  0
  -27.7057  -28.3686   21.6513 C   0  0  0  0  0  0  0  0  0  0  0  0
  -26.6759  -31.2104   22.8287 C   0  0  0  0  0  0  0  0  0  0  0  0
  -24.0470  -33.2441   23.6027 C   0  0  0  0  0  0  0  0  0  0  0  0
  -20.1804  -13.9468   20.7426 C   0  0  0  0  0  0  0  0  0  0  0  0
  -32.0726  -26.4264   19.8580 C   0  0  0  0  0  0  0  0  0  0  0  0
  -26.1506  -29.1375   19.8220 C   0  0  0  0  0  0  0  0  0  0  0  0
  -24.9246  -29.4247   22.4977 C   0  0  0  0  0  0  0  0  0  0  0  0
  -31.6903  -27.5516   20.8162 C   0  0  0  0  0  0  0  0  0  0  0  0
  -22.1401  -12.3524   18.2337 C   0  0  0  0  0  0  0  0  0  0  0  0
  -30.6764  -27.0570   21.8429 C   0  0  0  0  0  0  0  0  0  0  0  0
  -23.5647  -12.8267   18.5261 C   0  0  0  0  0  0  0  0  0  0  0  0
  -19.1970  -22.9819   23.8951 C   0  0  0  0  0  0  0  0  0  0  0  0
  -21.1421  -22.0297   22.5950 C   0  0  0  0  0  0  0  0  0  0  0  0
  -21.1135  -13.4507   18.5021 C   0  0  0  0  0  0  0  0  0  0  0  0
  -22.6096  -14.5239   20.1403 C   0  0  0  0  0  0  0  0  0  0  0  0
  -18.7412  -23.7314   22.6483 C   0  0  0  0  0  0  0  0  0  0  0  0
  -20.6653  -22.7768   21.3553 C   0  0  0  0  0  0  0  0  0  0  0  0
  -29.3819  -26.5960   21.1623 C   0  0  1  0  0  0  0  0  0  0  0  0
  -26.9737  -29.5320   21.0444 C   0  0  1  0  0  0  0  0  0  0  0  0
  -23.6752  -13.4331   19.9379 C   0  0  2  0  0  0  0  0  0  0  0  0
  -20.0053  -21.7229   23.5719 C   0  0  0  0  0  0  0  0  0  0  0  0
  -23.5177  -35.4911   24.5868 C   0  0  0  0  0  0  0  0  0  0  0  0
  -27.2565  -30.1222   25.6196 C   0  0  0  0  0  0  0  0  0  0  0  0
  -25.8556  -31.9734   26.5570 C   0  0  0  0  0  0  0  0  0  0  0  0
  -27.9248  -32.5066   25.2697 C   0  0  0  0  0  0  0  0  0  0  0  0
  -22.7475  -34.1604   21.1065 C   0  0  0  0  0  0  0  0  0  0  0  0
  -19.3949  -14.4927   23.0326 C   0  0  0  0  0  0  0  0  0  0  0  0
  -19.8107  -19.3783   23.1938 C   0  0  0  0  0  0  0  0  0  0  0  0
  -19.5571  -24.8743   20.5888 C   0  0  0  0  0  0  0  0  0  0  0  0
  -18.5800  -15.7721   22.9965 C   0  0  0  0  0  0  0  0  0  0  0  0
  -18.7928  -18.2595   23.0766 C   0  0  0  0  0  0  0  0  0  0  0  0
  -20.7936  -25.5710   20.0562 C   0  0  0  0  0  0  0  0  0  1  0  0
  -25.8899  -31.6428   24.0429 C   0  0  1  0  0  0  0  0  0  0  0  0
  -23.7878  -34.7109   23.3096 C   0  0  2  0  0  0  0  0  0  0  0  0
  -26.7209  -31.5431   25.3532 C   0  0  0  0  0  0  0  0  0  0  0  0
  -25.3633  -15.2311   19.9553 N   0  0  0  0  0  0  0  0  0  0  0  0
  -25.0758  -13.9451   20.2192 N   0  0  0  0  0  0  0  0  0  0  0  0
  -26.1591  -30.1252   22.1069 N   0  0  0  0  0  0  0  0  0  0  0  0
  -21.2710  -13.9823   19.8580 N   0  0  0  0  0  0  0  0  0  0  0  0
  -26.0099  -11.9326   21.0486 N   0  0  0  0  0  0  0  0  0  0  0  0
  -29.4475  -14.8520   21.2855 N   0  0  0  0  0  0  0  0  0  0  0  0
  -28.5761  -27.7369   20.7836 N   0  0  0  0  0  0  0  0  0  0  0  0
  -25.3927  -32.9830   23.7512 N   0  0  0  0  0  0  0  0  0  0  0  0
  -20.4168  -14.4651   22.0100 N   0  0  0  0  0  0  0  0  0  0  0  0
  -19.1567  -20.6695   23.0636 N   0  0  0  0  0  0  0  0  0  0  0  0
  -19.9351  -24.0297   21.7746 N   0  3  0  0  0  0  0  0  0  0  0  0
  -22.6087  -34.8589   22.4103 N   0  3  0  0  0  0  0  0  0  0  0  0
  -19.4795  -16.9468   23.1579 N   0  3  0  0  0  0  0  0  0  0  0  0
  -28.8189  -12.6805   21.6704 O   0  0  0  0  0  0  0  0  0  0  0  0
  -27.4975  -28.0673   22.8208 O   0  0  0  0  0  0  0  0  0  0  0  0
  -27.7066  -31.8177   22.5277 O   0  0  0  0  0  0  0  0  0  0  0  0
  -23.1455  -32.4138   23.6947 O   0  0  0  0  0  0  0  0  0  0  0  0
  -19.0794  -13.4823   20.4281 O   0  0  0  0  0  0  0  0  0  0  0  0
  -29.3238  -20.2148   19.7846 O   0  0  0  0  0  0  0  0  0  0  0  0
  -21.3615  -26.3858   21.0809 O   0  0  0  0  0  0  0  0  0  1  0  0
  -28.1823  -24.1757   23.4468 F   0  0  0  0  0  0  0  0  0  0  0  0
  -31.3045  -21.2636   21.4030 F   0  0  0  0  0  0  0  0  0  0  0  0
  1  2  1  0  0  0  0
  1  5  2  0  0  0  0
  2  6  2  0  0  0  0
  3  8  2  0  0  0  0
  3 15  1  0  0  0  0
  4  9  1  0  0  0  0
  4 15  2  0  0  0  0
  5 17  1  0  0  0  0
  6 19  1  0  0  0  0
  7 10  2  0  0  0  0
  7 18  1  0  0  0  0
  8 21  1  0  0  0  0
  9 21  2  0  0  0  0
 10 22  1  0  0  0  0
 11 12  2  0  0  0  0
 11 23  1  0  0  0  0
 12 24  1  0  0  0  0
 13 20  1  0  0  0  0
 13 22  2  0  0  0  0
 14 24  2  0  0  0  0
 14 25  1  0  0  0  0
 15 26  1  0  0  0  0
 16 26  1  0  0  0  0
 16 27  2  0  0  0  0
 16 28  1  0  0  0  0
 17 19  2  0  0  0  0
 17 33  1  0  0  0  0
 18 20  2  0  0  0  0
 18 34  1  0  0  0  0
 19 46  1  0  0  0  0
 20 35  1  0  0  0  0
 21 82  1  0  0  0  0
 22 83  1  0  0  0  0
 23 25  2  0  0  0  0
 23 82  1  0  0  0  0
 24 84  1  0  0  0  0
 25 85  1  0  0  0  0
 26 64  2  0  0  0  0
 27 65  1  0  0  0  0
 27 68  1  0  0  0  0
 28 69  1  0  0  0  0
 28 77  2  0  0  0  0
 29 47  1  0  0  0  0
 29 70  1  0  0  0  0
 29 78  2  0  0  0  0
 30 61  1  0  0  0  0
 30 66  1  0  0  0  0
 30 79  2  0  0  0  0
 31 62  1  0  0  0  0
 31 71  1  0  0  0  0
 31 80  2  0  0  0  0
 32 67  1  0  0  0  0
 32 72  1  0  0  0  0
 32 81  2  0  0  0  0
 33 36  1  0  0  0  0
 34 47  1  0  0  0  0
 35 66  1  0  0  0  0
 36 38  1  0  0  0  0
 37 39  1  0  0  0  0
 37 42  1  0  0  0  0
 38 46  1  0  0  0  0
 39 48  1  0  0  0  0
 40 44  1  0  0  0  0
 40 49  1  0  0  0  0
 41 45  1  0  0  0  0
 41 49  1  0  0  0  0
 42 67  1  0  0  0  0
 43 48  1  0  0  0  0
 43 67  1  0  0  0  0
 44 74  1  0  0  0  0
 45 74  1  0  0  0  0
 46 70  1  0  0  0  0
 47 66  1  0  0  0  0
 48 65  1  0  0  0  0
 49 73  1  0  0  0  0
 50 62  1  0  0  0  0
 51 63  1  0  0  0  0
 52 63  1  0  0  0  0
 53 63  1  0  0  0  0
 54 75  1  0  0  0  0
 55 58  1  0  0  0  0
 55 72  1  0  0  0  0
 56 59  1  0  0  0  0
 56 73  1  0  0  0  0
 57 60  1  0  0  0  0
 57 74  1  0  0  0  0
 58 76  1  0  0  0  0
 59 76  1  0  0  0  0
 60 83  1  0  0  0  0
 61 63  1  0  0  0  0
 61 71  1  0  0  0  0
 62 75  1  0  0  0  0
 64 65  1  0  0  0  0
M  CHG  3  74   1  75   1  76   1
M  ISO  4  32 100  60 101  72 100  83 101
M  END
> <Batch ID>
0135

> <Smiles>
CNC(C)C(=O)NC(C(=O)N1Cc2cc([101O:1][101CH2:1]CN3CCC(NCCNCC[100NH:0][100C:0](=O)N4CCCC(n5nc(-c6ccc(Oc7ccc(F)cc7F)cc6)c(C(N)=O)c5N)C4)CC3)ccc2CC1C(=O)NC1CCCc2ccccc21)C(C)(C)C

> <Shape>
0.285

> <Color>
0.086

> <Negative vol penalty>
0.000

$$$$

  -OEChem-04052321003D

 84 92  0     1  0  0  0  0  0999 V2000
  -27.9864  -32.5760   28.3300 C   0  0  0  0  0  0  0  0  0  0  0  0
  -28.4542  -31.3280   28.7290 C   0  0  0  0  0  0  0  0  0  0  0  0
  -23.2576   -9.8491   19.9106 C   0  0  0  0  0  0  0  0  0  0  0  0
  -23.6345  -10.0172   22.2911 C   0  0  0  0  0  0  0  0  0  0  0  0
  -27.2607  -32.7013   27.1461 C   0  0  0  0  0  0  0  0  0  0  0  0
  -28.1955  -30.2043   27.9448 C   0  0  0  0  0  0  0  0  0  0  0  0
  -31.0973  -23.9384   26.0386 C   0  0  0  0  0  0  0  0  0  0  0  0
  -22.5146   -8.6856   20.1103 C   0  0  0  0  0  0  0  0  0  0  0  0
  -22.8914   -8.8537   22.4908 C   0  0  0  0  0  0  0  0  0  0  0  0
  -30.7901  -22.5793   25.9908 C   0  0  0  0  0  0  0  0  0  0  0  0
  -23.3591   -5.5180   22.1985 C   0  0  0  0  0  0  0  0  0  0  0  0
  -23.8775   -4.5596   23.0693 C   0  0  0  0  0  0  0  0  0  0  0  0
  -29.5940  -22.9285   23.9252 C   0  0  0  0  0  0  0  0  0  0  0  0
  -30.6585  -17.4662   25.2507 C   0  0  0  0  0  0  0  0  0  0  0  0
  -21.9174   -4.7688   24.4663 C   0  0  0  0  0  0  0  0  0  0  0  0
  -23.8176  -10.5148   21.0009 C   0  0  0  0  0  0  0  0  0  0  0  0
  -24.1057  -13.0397   20.7779 C   0  0  0  0  0  0  0  0  0  0  0  0
  -27.0013  -31.5801   26.3422 C   0  0  0  0  0  0  0  0  0  0  0  0
  -30.6452  -24.8061   25.0340 C   0  0  0  0  0  0  0  0  0  0  0  0
  -27.4644  -30.3146   26.7498 C   0  0  0  0  0  0  0  0  0  0  0  0
  -29.8990  -24.2977   23.9612 C   0  0  0  0  0  0  0  0  0  0  0  0
  -29.8133  -18.5096   25.7025 C   0  0  0  0  0  0  0  0  0  0  0  0
  -22.3315   -8.1879   21.4005 C   0  0  0  0  0  0  0  0  0  0  0  0
  -30.0359  -22.0746   24.9355 C   0  0  0  0  0  0  0  0  0  0  0  0
  -22.1199   -6.1019   22.4617 C   0  0  0  0  0  0  0  0  0  0  0  0
  -23.1566   -4.1849   24.2032 C   0  0  0  0  0  0  0  0  0  0  0  0
  -21.3991   -5.7273   23.5955 C   0  0  0  0  0  0  0  0  0  0  0  0
  -24.5857  -11.7164   20.7952 C   0  0  0  0  0  0  0  0  0  0  0  0
  -28.5546  -17.9760   25.8700 C   0  0  0  0  0  0  0  0  0  0  0  0
  -29.8903  -16.3267   25.1558 C   0  0  0  0  0  0  0  0  0  0  0  0
  -25.2215  -13.8067   20.5479 C   0  0  0  0  0  0  0  0  0  0  0  0
  -22.7705  -13.5315   20.9541 C   0  0  0  0  0  0  0  0  0  0  0  0
  -28.7330  -27.3440   24.9555 C   0  0  0  0  0  0  0  0  0  0  0  0
  -29.6967  -27.4881   21.8615 C   0  0  0  0  0  0  0  0  0  0  0  0
  -30.9408  -25.8548   19.1354 C   0  0  0  0  0  0  0  0  0  0  0  0
  -31.0560  -12.9248   21.5642 C   0  0  0  0  0  0  0  0  0  0  0  0
  -26.1719  -31.7575   25.0950 C   0  0  0  0  0  0  0  0  0  0  0  0
  -31.0077  -26.2649   25.0861 C   0  0  0  0  0  0  0  0  0  0  0  0
  -29.4070  -25.1837   22.8471 C   0  0  0  0  0  0  0  0  0  0  0  0
  -26.2623  -30.5777   24.1305 C   0  0  0  0  0  0  0  0  0  0  0  0
  -29.5115  -13.6376   18.4364 C   0  0  0  0  0  0  0  0  0  0  0  0
  -26.1051  -29.2600   24.8827 C   0  0  0  0  0  0  0  0  0  0  0  0
  -28.0306  -13.3454   18.6847 C   0  0  0  0  0  0  0  0  0  0  0  0
  -30.4132  -12.6597   19.1866 C   0  0  0  0  0  0  0  0  0  0  0  0
  -28.6685  -12.2678   20.8825 C   0  0  0  0  0  0  0  0  0  0  0  0
  -27.2254  -29.0761   25.9135 C   0  0  1  0  0  0  0  0  0  0  0  0
  -30.0595  -27.1455   24.2782 C   0  0  1  0  0  0  0  0  0  0  0  0
  -27.7204  -13.2626   20.1914 C   0  0  2  0  0  0  0  0  0  0  0  0
  -27.3008  -18.6170   26.3208 C   0  0  0  0  0  0  0  0  0  0  0  0
  -31.5859  -26.2293   16.7394 C   0  0  0  0  0  0  0  0  0  0  0  0
  -27.7111  -14.6052   26.5876 C   0  0  0  0  0  0  0  0  0  0  0  0
  -27.1463  -15.1863   24.1898 C   0  0  0  0  0  0  0  0  0  0  0  0
  -26.7486  -27.5215   21.0755 C   0  0  0  0  0  0  0  0  0  0  0  0
  -27.4367  -26.9404   18.7395 C   0  0  0  0  0  0  0  0  0  0  0  0
  -28.1956  -29.0842   19.7645 C   0  0  0  0  0  0  0  0  0  0  0  0
  -33.7518  -25.0858   19.6510 C   0  0  0  0  0  0  0  0  0  0  0  0
  -30.2224  -19.9318   25.9501 C   0  0  0  0  0  0  0  0  0  1  0  0
  -31.5470  -14.6406   24.3568 C   0  0  0  0  0  0  0  0  0  0  0  0
  -31.5433  -13.1656   23.9857 C   0  0  0  0  0  0  0  0  0  0  0  0
  -29.2023  -26.9056   20.5595 C   0  0  1  0  0  0  0  0  0  0  0  0
  -32.0691  -26.2023   18.1811 C   0  0  2  0  0  0  0  0  0  0  0  0
  -27.4917  -15.7323   25.5765 C   0  0  0  0  0  0  0  0  0  0  0  0
  -27.9033  -27.5963   20.0566 C   0  0  0  0  0  0  0  0  0  0  0  0
  -25.9038  -11.6434   20.5921 N   0  0  0  0  0  0  0  0  0  0  0  0
  -28.6132  -16.6486   25.5344 N   0  0  0  0  0  0  0  0  0  0  0  0
  -26.2616  -12.9304   20.4450 N   0  0  0  0  0  0  0  0  0  0  0  0
  -29.7820  -26.6040   22.9463 N   0  0  0  0  0  0  0  0  0  0  0  0
  -30.0683  -12.6298   20.6100 N   0  0  0  0  0  0  0  0  0  0  0  0
  -25.4048  -15.1386   20.4256 N   0  0  0  0  0  0  0  0  0  0  0  0
  -21.7423  -12.6066   21.1815 N   0  0  0  0  0  0  0  0  0  0  0  0
  -30.2126  -15.0710   24.7757 N   0  0  0  0  0  0  0  0  0  0  0  0
  -28.4490  -28.6613   25.2615 N   0  0  0  0  0  0  0  0  0  0  0  0
  -30.3208  -26.9845   19.6262 N   0  0  0  0  0  0  0  0  0  0  0  0
  -30.6436  -12.8801   22.8903 N   0  0  0  0  0  0  0  0  0  0  0  0
  -33.1669  -25.2004   18.2903 N   0  3  0  0  0  0  0  0  0  0  0  0
  -22.4947  -14.7538   20.8949 O   0  0  0  0  0  0  0  0  0  0  0  0
  -28.0192  -26.3740   25.1823 O   0  0  0  0  0  0  0  0  0  0  0  0
  -30.0029  -28.6820   21.9122 O   0  0  0  0  0  0  0  0  0  0  0  0
  -30.6372  -24.6971   19.4145 O   0  0  0  0  0  0  0  0  0  0  0  0
  -32.2178  -13.2123   21.2568 O   0  0  0  0  0  0  0  0  0  0  0  0
  -21.6063   -7.0528   21.5958 O   0  0  0  0  0  0  0  0  0  0  0  0
  -29.7341  -20.7486   24.8868 O   0  0  0  0  0  0  0  0  0  1  0  0
  -23.6538   -3.2634   25.0385 F   0  0  0  0  0  0  0  0  0  0  0  0
  -20.2076   -6.2839   23.8530 F   0  0  0  0  0  0  0  0  0  0  0  0
  1  2  1  0  0  0  0
  1  5  2  0  0  0  0
  2  6  2  0  0  0  0
  3  8  2  0  0  0  0
  3 16  1  0  0  0  0
  4  9  1  0  0  0  0
  4 16  2  0  0  0  0
  5 18  1  0  0  0  0
  6 20  1  0  0  0  0
  7 10  2  0  0  0  0
  7 19  1  0  0  0  0
  8 23  1  0  0  0  0
  9 23  2  0  0  0  0
 10 24  1  0  0  0  0
 11 12  2  0  0  0  0
 11 25  1  0  0  0  0
 12 26  1  0  0  0  0
 13 21  1  0  0  0  0
 13 24  2  0  0  0  0
 14 22  1  0  0  0  0
 14 30  2  0  0  0  0
 15 26  2  0  0  0  0
 15 27  1  0  0  0  0
 16 28  1  0  0  0  0
 17 28  1  0  0  0  0
 17 31  2  0  0  0  0
 17 32  1  0  0  0  0
 18 20  2  0  0  0  0
 18 37  1  0  0  0  0
 19 21  2  0  0  0  0
 19 38  1  0  0  0  0
 20 46  1  0  0  0  0
 21 39  1  0  0  0  0
 22 29  2  0  0  0  0
 22 57  1  0  0  0  0
 23 81  1  0  0  0  0
 24 82  1  0  0  0  0
 25 27  2  0  0  0  0
 25 81  1  0  0  0  0
 26 83  1  0  0  0  0
 27 84  1  0  0  0  0
 28 64  2  0  0  0  0
 29 49  1  0  0  0  0
 29 65  1  0  0  0  0
 30 65  1  0  0  0  0
 30 71  1  0  0  0  0
 31 66  1  0  0  0  0
 31 69  1  0  0  0  0
 32 70  1  0  0  0  0
 32 76  2  0  0  0  0
 33 47  1  0  0  0  0
 33 72  1  0  0  0  0
 33 77  2  0  0  0  0
 34 60  1  0  0  0  0
 34 67  1  0  0  0  0
 34 78  2  0  0  0  0
 35 61  1  0  0  0  0
 35 73  1  0  0  0  0
 35 79  2  0  0  0  0
 36 68  1  0  0  0  0
 36 74  1  0  0  0  0
 36 80  2  0  0  0  0
 37 40  1  0  0  0  0
 38 47  1  0  0  0  0
 39 67  1  0  0  0  0
 40 42  1  0  0  0  0
 41 43  1  0  0  0  0
 41 44  1  0  0  0  0
 42 46  1  0  0  0  0
 43 48  1  0  0  0  0
 44 68  1  0  0  0  0
 45 48  1  0  0  0  0
 45 68  1  0  0  0  0
 46 72  1  0  0  0  0
 47 67  1  0  0  0  0
 48 66  1  0  0  0  0
 50 61  1  0  0  0  0
 51 62  1  0  0  0  0
 52 62  1  0  0  0  0
 53 63  1  0  0  0  0
 54 63  1  0  0  0  0
 55 63  1  0  0  0  0
 56 75  1  0  0  0  0
 57 82  1  0  0  0  0
 58 59  1  0  0  0  0
 58 71  1  0  0  0  0
 59 74  1  0  0  0  0
 60 63  1  0  0  0  0
 60 73  1  0  0  0  0
 61 75  1  0  0  0  0
 62 65  1  0  0  0  0
 64 66  1  0  0  0  0
M  CHG  1  75   1
M  ISO  4  36 100  57 101  74 100  82 101
M  END
> <Batch ID>
0135

> <Smiles>
CNC(C)C(=O)NC(C(=O)N1Cc2cc([101O:1][101CH2:1]c3cc(NCC[100NH:0][100C:0](=O)N4CCCC(n5nc(-c6ccc(Oc7ccc(F)cc7F)cc6)c(C(N)=O)c5N)C4)n(C(C)C)c3C)ccc2CC1C(=O)NC1CCCc2ccccc21)C(C)(C)C

> <Shape>
0.243

> <Color>
0.198

> <Negative vol penalty>
0.000

$$$$

  -OEChem-04052321003D

 85 94  0     1  0  0  0  0  0999 V2000
  -16.9032  -29.4904   24.3923 C   0  0  0  0  0  0  0  0  0  0  0  0
  -17.8130  -28.4423   24.4881 C   0  0  0  0  0  0  0  0  0  0  0  0
  -23.3060  -22.3886   19.0665 C   0  0  0  0  0  0  0  0  0  0  0  0
  -23.5175  -22.6145   17.7064 C   0  0  0  0  0  0  0  0  0  0  0  0
  -24.0953   -9.1781   21.0175 C   0  0  0  0  0  0  0  0  0  0  0  0
  -25.4900   -9.7796   22.8964 C   0  0  0  0  0  0  0  0  0  0  0  0
  -17.0489  -30.4491   23.3905 C   0  0  0  0  0  0  0  0  0  0  0  0
  -18.8685  -28.3517   23.5815 C   0  0  0  0  0  0  0  0  0  0  0  0
  -24.3526  -21.9348   19.8692 C   0  0  0  0  0  0  0  0  0  0  0  0
  -24.5220  -26.2840   24.7078 C   0  0  0  0  0  0  0  0  0  0  0  0
  -24.7756  -22.3864   17.1489 C   0  0  0  0  0  0  0  0  0  0  0  0
  -23.9110   -7.9069   21.5612 C   0  0  0  0  0  0  0  0  0  0  0  0
  -25.3058   -8.5083   23.4401 C   0  0  0  0  0  0  0  0  0  0  0  0
  -25.1314  -25.0502   24.4840 C   0  0  0  0  0  0  0  0  0  0  0  0
  -22.0340   -6.4831   23.9865 C   0  0  0  0  0  0  0  0  0  0  0  0
  -20.7402   -5.9620   23.9928 C   0  0  0  0  0  0  0  0  0  0  0  0
  -26.0451  -25.8839   22.4129 C   0  0  0  0  0  0  0  0  0  0  0  0
  -21.4829   -4.1016   22.6420 C   0  0  0  0  0  0  0  0  0  0  0  0
  -24.8848  -10.1145   21.6851 C   0  0  0  0  0  0  0  0  0  0  0  0
  -24.0819  -12.3817   20.8351 C   0  0  0  0  0  0  0  0  0  0  0  0
  -18.1123  -30.3755   22.4771 C   0  0  0  0  0  0  0  0  0  0  0  0
  -24.6608  -27.3253   23.7789 C   0  0  0  0  0  0  0  0  0  0  0  0
  -19.0278  -29.3095   22.5657 C   0  0  0  0  0  0  0  0  0  0  0  0
  -25.6107  -21.7067   19.3117 C   0  0  0  0  0  0  0  0  0  0  0  0
  -25.4386  -27.1308   22.6285 C   0  0  0  0  0  0  0  0  0  0  0  0
  -25.8223  -21.9325   17.9516 C   0  0  0  0  0  0  0  0  0  0  0  0
  -24.5163   -7.5720   22.7725 C   0  0  0  0  0  0  0  0  0  0  0  0
  -25.8907  -24.8491   23.3350 C   0  0  0  0  0  0  0  0  0  0  0  0
  -23.0523   -5.8135   23.3080 C   0  0  0  0  0  0  0  0  0  0  0  0
  -20.4646   -4.7712   23.3205 C   0  0  0  0  0  0  0  0  0  0  0  0
  -22.7768   -4.6227   22.6358 C   0  0  0  0  0  0  0  0  0  0  0  0
  -25.0760  -11.4276   21.1237 C   0  0  0  0  0  0  0  0  0  0  0  0
  -24.7723  -13.4522   20.3213 C   0  0  0  0  0  0  0  0  0  0  0  0
  -22.6615  -12.3070   21.0153 C   0  0  0  0  0  0  0  0  0  0  0  0
  -22.6568  -28.9833   21.9517 C   0  0  0  0  0  0  0  0  0  0  0  0
  -25.3206  -30.7024   21.2654 C   0  0  0  0  0  0  0  0  0  0  0  0
  -28.7269  -30.8215   21.0911 C   0  0  0  0  0  0  0  0  0  0  0  0
  -29.0854  -16.9903   20.4782 C   0  0  0  0  0  0  0  0  0  0  0  0
  -18.2015  -31.4088   21.3821 C   0  0  0  0  0  0  0  0  0  0  0  0
  -24.0191  -28.6588   24.0481 C   0  0  0  0  0  0  0  0  0  0  0  0
  -25.6354  -28.2230   21.6103 C   0  0  0  0  0  0  0  0  0  0  0  0
  -19.5626  -31.4493   20.6921 C   0  0  0  0  0  0  0  0  0  0  0  0
  -29.5964  -13.8622   18.8562 C   0  0  0  0  0  0  0  0  0  0  0  0
  -20.0296  -30.0382   20.3495 C   0  0  0  0  0  0  0  0  0  0  0  0
  -27.7706  -21.1406   22.5292 C   0  0  0  0  0  0  0  0  0  0  0  0
  -28.3877  -13.0273   19.2827 C   0  0  0  0  0  0  0  0  0  0  0  0
  -27.8263  -19.6170   22.4617 C   0  0  0  0  0  0  0  0  0  0  0  0
  -26.8144  -19.6724   20.1532 C   0  0  0  0  0  0  0  0  0  0  0  0
  -30.0772  -14.7752   19.9820 C   0  0  0  0  0  0  0  0  0  0  0  0
  -27.8276  -14.8098   20.9879 C   0  0  0  0  0  0  0  0  0  0  0  0
  -26.7374  -21.2129   20.2070 C   0  0  2  0  0  0  0  0  0  0  0  0
  -20.2001  -29.1907   21.6161 C   0  0  1  0  0  0  0  0  0  0  0  0
  -23.8036  -29.4843   22.7834 C   0  0  1  0  0  0  0  0  0  0  0  0
  -26.6322  -21.7196   21.6707 C   0  0  2  0  0  0  0  0  0  0  0  0
  -27.2719  -13.9140   19.8676 C   0  0  2  0  0  0  0  0  0  0  0  0
  -27.9546  -19.1322   21.0191 C   0  0  2  0  0  0  0  0  0  0  0  0
  -27.1603  -21.6946   17.3321 C   0  0  0  0  0  0  0  0  0  0  0  0
  -30.6147  -32.3491   20.4587 C   0  0  0  0  0  0  0  0  0  0  0  0
  -24.7229  -30.2150   18.3133 C   0  0  0  0  0  0  0  0  0  0  0  0
  -27.0716  -30.9098   17.7947 C   0  0  0  0  0  0  0  0  0  0  0  0
  -25.4979  -32.5309   18.8522 C   0  0  0  0  0  0  0  0  0  0  0  0
  -29.8521  -30.7537   23.8276 C   0  0  0  0  0  0  0  0  0  0  0  0
  -26.6667  -23.2503   21.7546 C   0  0  0  0  0  0  0  0  0  1  0  0
  -26.4113  -30.6145   20.2253 C   0  0  1  0  0  0  0  0  0  0  0  0
  -29.7255  -31.8515   21.5875 C   0  0  2  0  0  0  0  0  0  0  0  0
  -25.9208  -31.0461   18.8144 C   0  0  0  0  0  0  0  0  0  0  0  0
  -26.3043  -11.8543   20.8185 N   0  0  0  0  0  0  0  0  0  0  0  0
  -26.0866  -13.0883   20.3327 N   0  0  0  0  0  0  0  0  0  0  0  0
  -24.9826  -29.5069   21.9153 N   0  0  0  0  0  0  0  0  0  0  0  0
  -28.9717  -15.5903   20.4914 N   0  0  0  0  0  0  0  0  0  0  0  0
  -24.3771  -14.6599   19.8654 N   0  0  0  0  0  0  0  0  0  0  0  0
  -22.1189  -12.7395   22.2331 N   0  0  0  0  0  0  0  0  0  0  0  0
  -21.4345  -29.5320   22.2901 N   0  0  0  0  0  0  0  0  0  0  0  0
  -27.5275  -31.4024   20.7368 N   0  0  0  0  0  0  0  0  0  0  0  0
  -27.9900  -17.6874   20.9730 N   0  0  0  0  0  0  0  0  0  0  0  0
  -30.5943  -31.2626   22.6455 N   0  3  0  0  0  0  0  0  0  0  0  0
  -21.8977  -11.8545   20.1291 O   0  0  0  0  0  0  0  0  0  0  0  0
  -22.8657  -28.1610   21.0674 O   0  0  0  0  0  0  0  0  0  0  0  0
  -24.7932  -31.7930   21.4979 O   0  0  0  0  0  0  0  0  0  0  0  0
  -28.9861  -29.6222   21.0209 O   0  0  0  0  0  0  0  0  0  0  0  0
  -30.0866  -17.5757   20.0518 O   0  0  0  0  0  0  0  0  0  0  0  0
  -24.3365   -6.3317   23.3034 O   0  0  0  0  0  0  0  0  0  0  0  0
  -26.4861  -23.6455   23.1138 O   0  0  0  0  0  0  0  0  0  1  0  0
  -19.2224   -4.2701   23.3279 F   0  0  0  0  0  0  0  0  0  0  0  0
  -23.7512   -3.9743   21.9832 F   0  0  0  0  0  0  0  0  0  0  0  0
  1  2  1  0  0  0  0
  1  7  2  0  0  0  0
  2  8  2  0  0  0  0
  3  4  1  0  0  0  0
  3  9  2  0  0  0  0
  4 11  2  0  0  0  0
  5 12  2  0  0  0  0
  5 19  1  0  0  0  0
  6 13  1  0  0  0  0
  6 19  2  0  0  0  0
  7 21  1  0  0  0  0
  8 23  1  0  0  0  0
  9 24  1  0  0  0  0
 10 14  2  0  0  0  0
 10 22  1  0  0  0  0
 11 26  1  0  0  0  0
 12 27  1  0  0  0  0
 13 27  2  0  0  0  0
 14 28  1  0  0  0  0
 15 16  2  0  0  0  0
 15 29  1  0  0  0  0
 16 30  1  0  0  0  0
 17 25  1  0  0  0  0
 17 28  2  0  0  0  0
 18 30  2  0  0  0  0
 18 31  1  0  0  0  0
 19 32  1  0  0  0  0
 20 32  1  0  0  0  0
 20 33  2  0  0  0  0
 20 34  1  0  0  0  0
 21 23  2  0  0  0  0
 21 39  1  0  0  0  0
 22 25  2  0  0  0  0
 22 40  1  0  0  0  0
 23 52  1  0  0  0  0
 24 26  2  0  0  0  0
 24 51  1  0  0  0  0
 25 41  1  0  0  0  0
 26 57  1  0  0  0  0
 27 82  1  0  0  0  0
 28 83  1  0  0  0  0
 29 31  2  0  0  0  0
 29 82  1  0  0  0  0
 30 84  1  0  0  0  0
 31 85  1  0  0  0  0
 32 67  2  0  0  0  0
 33 68  1  0  0  0  0
 33 71  1  0  0  0  0
 34 72  1  0  0  0  0
 34 77  2  0  0  0  0
 35 53  1  0  0  0  0
 35 73  1  0  0  0  0
 35 78  2  0  0  0  0
 36 64  1  0  0  0  0
 36 69  1  0  0  0  0
 36 79  2  0  0  0  0
 37 65  1  0  0  0  0
 37 74  1  0  0  0  0
 37 80  2  0  0  0  0
 38 70  1  0  0  0  0
 38 75  1  0  0  0  0
 38 81  2  0  0  0  0
 39 42  1  0  0  0  0
 40 53  1  0  0  0  0
 41 69  1  0  0  0  0
 42 44  1  0  0  0  0
 43 46  1  0  0  0  0
 43 49  1  0  0  0  0
 44 52  1  0  0  0  0
 45 47  1  0  0  0  0
 45 54  1  0  0  0  0
 46 55  1  0  0  0  0
 47 56  1  0  0  0  0
 48 51  1  0  0  0  0
 48 56  1  0  0  0  0
 49 70  1  0  0  0  0
 50 55  1  0  0  0  0
 50 70  1  0  0  0  0
 51 54  1  0  0  0  0
 52 73  1  0  0  0  0
 53 69  1  0  0  0  0
 54 63  1  0  0  0  0
 55 68  1  0  0  0  0
 56 75  1  0  0  0  0
 58 65  1  0  0  0  0
 59 66  1  0  0  0  0
 60 66  1  0  0  0  0
 61 66  1  0  0  0  0
 62 76  1  0  0  0  0
 63 83  1  0  0  0  0
 64 66  1  0  0  0  0
 64 74  1  0  0  0  0
 65 76  1  0  0  0  0
 67 68  1  0  0  0  0
M  CHG  1  76   1
M  ISO  4  38 100  63 101  75 100  83 101
M  END
> <Batch ID>
0135

> <Smiles>
CNC(C)C(=O)NC(C(=O)N1Cc2cc([101O:1][101CH2:1]C3CCC([100NH:0][100C:0](=O)N4CCCC(n5nc(-c6ccc(Oc7ccc(F)cc7F)cc6)c(C(N)=O)c5N)C4)CC3c3ccccc3C)ccc2CC1C(=O)NC1CCCc2ccccc21)C(C)(C)C

> <Shape>
0.242

> <Color>
0.144

> <Negative vol penalty>
0.000

$$$$

  -OEChem-04052321003D

 82 90  0     1  0  0  0  0  0999 V2000
  -18.1133  -25.5315   23.0315 C   0  0  0  0  0  0  0  0  0  0  0  0
  -19.2196  -25.4769   22.1897 C   0  0  0  0  0  0  0  0  0  0  0  0
  -26.0370  -16.2643   20.4737 C   0  0  0  0  0  0  0  0  0  0  0  0
  -25.9626  -16.6509   18.0900 C   0  0  0  0  0  0  0  0  0  0  0  0
  -17.6105  -26.7658   23.4408 C   0  0  0  0  0  0  0  0  0  0  0  0
  -19.8231  -26.6568   21.7559 C   0  0  0  0  0  0  0  0  0  0  0  0
  -25.7893  -27.5768   20.7242 C   0  0  0  0  0  0  0  0  0  0  0  0
  -24.0518  -24.9853   15.2817 C   0  0  0  0  0  0  0  0  0  0  0  0
  -22.5176  -26.5401   16.3141 C   0  0  0  0  0  0  0  0  0  0  0  0
  -25.8837  -14.8951   20.2565 C   0  0  0  0  0  0  0  0  0  0  0  0
  -25.8094  -15.2816   17.8727 C   0  0  0  0  0  0  0  0  0  0  0  0
  -26.5513  -27.5697   19.5568 C   0  0  0  0  0  0  0  0  0  0  0  0
  -24.9193  -26.0371   14.9868 C   0  0  0  0  0  0  0  0  0  0  0  0
  -23.3851  -27.5919   16.0193 C   0  0  0  0  0  0  0  0  0  0  0  0
  -27.8238  -12.2892   19.3193 C   0  0  0  0  0  0  0  0  0  0  0  0
  -28.6485  -11.4227   20.0367 C   0  0  0  0  0  0  0  0  0  0  0  0
  -26.3425  -29.9687   19.4131 C   0  0  0  0  0  0  0  0  0  0  0  0
  -26.7020  -10.3921   21.0297 C   0  0  0  0  0  0  0  0  0  0  0  0
  -26.0763  -17.1423   19.3904 C   0  0  0  0  0  0  0  0  0  0  0  0
  -27.4419  -19.2757   19.6929 C   0  0  0  0  0  0  0  0  0  0  0  0
  -18.2141  -27.9612   23.0196 C   0  0  0  0  0  0  0  0  0  0  0  0
  -25.2881  -28.7807   21.2398 C   0  0  0  0  0  0  0  0  0  0  0  0
  -19.3271  -27.9083   22.1590 C   0  0  0  0  0  0  0  0  0  0  0  0
  -25.5765  -29.9886   20.5886 C   0  0  0  0  0  0  0  0  0  0  0  0
  -22.8509  -25.2369   15.9452 C   0  0  0  0  0  0  0  0  0  0  0  0
  -25.7700  -14.4037   18.9560 C   0  0  0  0  0  0  0  0  0  0  0  0
  -24.5860  -27.3403   15.3557 C   0  0  0  0  0  0  0  0  0  0  0  0
  -26.8256  -28.7654   18.8994 C   0  0  0  0  0  0  0  0  0  0  0  0
  -26.4381  -12.2072   19.4572 C   0  0  0  0  0  0  0  0  0  0  0  0
  -28.0877  -10.4742   20.8919 C   0  0  0  0  0  0  0  0  0  0  0  0
  -25.8773  -11.2586   20.3123 C   0  0  0  0  0  0  0  0  0  0  0  0
  -26.2341  -18.5569   19.6142 C   0  0  0  0  0  0  0  0  0  0  0  0
  -27.0547  -20.5746   19.9148 C   0  0  0  0  0  0  0  0  0  0  0  0
  -28.7932  -18.8107   19.5758 C   0  0  0  0  0  0  0  0  0  0  0  0
  -22.3833  -29.9508   21.7848 C   0  0  0  0  0  0  0  0  0  0  0  0
  -24.0432  -32.3816   23.1481 C   0  0  0  0  0  0  0  0  0  0  0  0
  -26.9620  -34.1375   23.3571 C   0  0  0  0  0  0  0  0  0  0  0  0
  -22.0354  -23.5994   18.6866 C   0  0  0  0  0  0  0  0  0  0  0  0
  -17.6060  -29.2724   23.4504 C   0  0  0  0  0  0  0  0  0  0  0  0
  -24.4902  -28.7743   22.5148 C   0  0  0  0  0  0  0  0  0  0  0  0
  -25.0789  -31.3103   21.1122 C   0  0  0  0  0  0  0  0  0  0  0  0
  -18.5319  -30.4690   23.2475 C   0  0  0  0  0  0  0  0  0  0  0  0
  -23.5349  -23.1482   21.8842 C   0  0  0  0  0  0  0  0  0  0  0  0
  -19.1659  -30.4244   21.8608 C   0  0  0  0  0  0  0  0  0  0  0  0
  -24.5057  -21.9852   21.6721 C   0  0  0  0  0  0  0  0  0  0  0  0
  -22.2539  -22.9693   21.0723 C   0  0  0  0  0  0  0  0  0  0  0  0
  -23.4326  -21.5726   19.4189 C   0  0  0  0  0  0  0  0  0  0  0  0
  -20.0244  -29.1657   21.6870 C   0  0  1  0  0  0  0  0  0  0  0  0
  -23.5981  -30.0024   22.6676 C   0  0  1  0  0  0  0  0  0  0  0  0
  -24.7629  -21.7356   20.1738 C   0  0  2  0  0  0  0  0  0  0  0  0
  -28.0037  -36.0946   24.5328 C   0  0  0  0  0  0  0  0  0  0  0  0
  -22.4831  -34.2895   21.3492 C   0  0  0  0  0  0  0  0  0  0  0  0
  -24.1864  -36.0521   21.8592 C   0  0  0  0  0  0  0  0  0  0  0  0
  -22.7987  -35.0924   23.6966 C   0  0  0  0  0  0  0  0  0  0  0  0
  -29.0444  -32.4354   24.5922 C   0  0  0  0  0  0  0  0  0  0  0  0
  -21.9236  -24.1125   16.2610 C   0  0  0  0  0  0  0  0  0  0  0  0
  -27.6395  -29.2913   15.4065 C   0  0  0  0  0  0  0  0  0  0  0  0
  -26.8259  -28.0659   15.0210 C   0  0  0  0  0  0  0  0  0  0  0  0
  -27.2969  -29.7853   16.8033 C   0  0  0  0  0  0  0  0  0  1  0  0
  -24.6249  -33.6857   22.6584 C   0  0  1  0  0  0  0  0  0  0  0  0
  -27.7819  -34.5902   24.5519 C   0  0  2  0  0  0  0  0  0  0  0  0
  -23.5312  -34.7550   22.3797 C   0  0  0  0  0  0  0  0  0  0  0  0
  -25.1599  -19.3347   19.7733 N   0  0  0  0  0  0  0  0  0  0  0  0
  -25.6915  -20.5556   19.9543 N   0  0  0  0  0  0  0  0  0  0  0  0
  -24.2977  -31.2512   22.3587 N   0  0  0  0  0  0  0  0  0  0  0  0
  -22.5675  -22.7380   19.6602 N   0  0  0  0  0  0  0  0  0  0  0  0
  -27.7507  -21.7198   20.0780 N   0  0  0  0  0  0  0  0  0  0  0  0
  -29.0126  -17.4453   19.3483 N   0  0  0  0  0  0  0  0  0  0  0  0
  -21.2952  -29.3236   22.3610 N   0  0  0  0  0  0  0  0  0  0  0  0
  -25.6156  -34.0889   23.6506 N   0  0  0  0  0  0  0  0  0  0  0  0
  -22.3873  -23.3132   17.3732 N   0  0  0  0  0  0  0  0  0  0  0  0
  -29.1124  -33.9189   24.5514 N   0  3  0  0  0  0  0  0  0  0  0  0
  -29.7773  -19.5806   19.6865 O   0  0  0  0  0  0  0  0  0  0  0  0
  -22.4294  -30.4449   20.6643 O   0  0  0  0  0  0  0  0  0  0  0  0
  -23.3931  -32.3652   24.1963 O   0  0  0  0  0  0  0  0  0  0  0  0
  -27.4653  -33.8588   22.2710 O   0  0  0  0  0  0  0  0  0  0  0  0
  -21.3055  -24.5561   18.9675 O   0  0  0  0  0  0  0  0  0  0  0  0
  -25.6207  -13.0676   18.7436 O   0  0  0  0  0  0  0  0  0  0  0  0
  -25.4391  -28.3735   15.0671 O   0  0  0  0  0  0  0  0  0  0  0  0
  -27.5686  -28.7613   17.7593 O   0  0  0  0  0  0  0  0  0  1  0  0
  -28.8797   -9.6412   21.5795 F   0  0  0  0  0  0  0  0  0  0  0  0
  -24.5467  -11.1742   20.4480 F   0  0  0  0  0  0  0  0  0  0  0  0
  1  2  1  0  0  0  0
  1  5  2  0  0  0  0
  2  6  2  0  0  0  0
  3 10  2  0  0  0  0
  3 19  1  0  0  0  0
  4 11  1  0  0  0  0
  4 19  2  0  0  0  0
  5 21  1  0  0  0  0
  6 23  1  0  0  0  0
  7 12  2  0  0  0  0
  7 22  1  0  0  0  0
  8 13  2  0  0  0  0
  8 25  1  0  0  0  0
  9 14  1  0  0  0  0
  9 25  2  0  0  0  0
 10 26  1  0  0  0  0
 11 26  2  0  0  0  0
 12 28  1  0  0  0  0
 13 27  1  0  0  0  0
 14 27  2  0  0  0  0
 15 16  2  0  0  0  0
 15 29  1  0  0  0  0
 16 30  1  0  0  0  0
 17 24  1  0  0  0  0
 17 28  2  0  0  0  0
 18 30  2  0  0  0  0
 18 31  1  0  0  0  0
 19 32  1  0  0  0  0
 20 32  1  0  0  0  0
 20 33  2  0  0  0  0
 20 34  1  0  0  0  0
 21 23  2  0  0  0  0
 21 39  1  0  0  0  0
 22 24  2  0  0  0  0
 22 40  1  0  0  0  0
 23 48  1  0  0  0  0
 24 41  1  0  0  0  0
 25 56  1  0  0  0  0
 26 78  1  0  0  0  0
 27 79  1  0  0  0  0
 28 80  1  0  0  0  0
 29 31  2  0  0  0  0
 29 78  1  0  0  0  0
 30 81  1  0  0  0  0
 31 82  1  0  0  0  0
 32 63  2  0  0  0  0
 33 64  1  0  0  0  0
 33 67  1  0  0  0  0
 34 68  1  0  0  0  0
 34 73  2  0  0  0  0
 35 49  1  0  0  0  0
 35 69  1  0  0  0  0
 35 74  2  0  0  0  0
 36 60  1  0  0  0  0
 36 65  1  0  0  0  0
 36 75  2  0  0  0  0
 37 61  1  0  0  0  0
 37 70  1  0  0  0  0
 37 76  2  0  0  0  0
 38 66  1  0  0  0  0
 38 71  1  0  0  0  0
 38 77  2  0  0  0  0
 39 42  1  0  0  0  0
 40 49  1  0  0  0  0
 41 65  1  0  0  0  0
 42 44  1  0  0  0  0
 43 45  1  0  0  0  0
 43 46  1  0  0  0  0
 44 48  1  0  0  0  0
 45 50  1  0  0  0  0
 46 66  1  0  0  0  0
 47 50  1  0  0  0  0
 47 66  1  0  0  0  0
 48 69  1  0  0  0  0
 49 65  1  0  0  0  0
 50 64  1  0  0  0  0
 51 61  1  0  0  0  0
 52 62  1  0  0  0  0
 53 62  1  0  0  0  0
 54 62  1  0  0  0  0
 55 72  1  0  0  0  0
 56 71  1  0  0  0  0
 57 58  1  0  0  0  0
 57 59  1  0  0  0  0
 58 79  1  0  0  0  0
 59 80  1  0  0  0  0
 60 62  1  0  0  0  0
 60 70  1  0  0  0  0
 61 72  1  0  0  0  0
 63 64  1  0  0  0  0
M  CHG  1  72   1
M  ISO  4  38 100  59 101  71 100  80 101
M  END
> <Batch ID>
0135

> <Smiles>
CNC(C)C(=O)NC(C(=O)N1Cc2cc([101O:1][101CH2:1]CCOc3ccc(C[100NH:0][100C:0](=O)N4CCCC(n5nc(-c6ccc(Oc7ccc(F)cc7F)cc6)c(C(N)=O)c5N)C4)cc3)ccc2CC1C(=O)NC1CCCc2ccccc21)C(C)(C)C

> <Shape>
0.230

> <Color>
0.098

> <Negative vol penalty>
0.000

$$$$

  -OEChem-04052321003D

 86 95  0     1  0  0  0  0  0999 V2000
  -29.4753  -34.0606    9.9357 C   0  0  0  0  0  0  0  0  0  0  0  0
  -29.3406  -32.7167    9.6024 C   0  0  0  0  0  0  0  0  0  0  0  0
  -23.0574   -9.9383   19.8797 C   0  0  0  0  0  0  0  0  0  0  0  0
  -23.8616   -9.8044   22.1539 C   0  0  0  0  0  0  0  0  0  0  0  0
  -30.4269  -34.4523   10.8764 C   0  0  0  0  0  0  0  0  0  0  0  0
  -30.1582  -31.7637   10.2089 C   0  0  0  0  0  0  0  0  0  0  0  0
  -27.3342  -26.3124   13.9771 C   0  0  0  0  0  0  0  0  0  0  0  0
  -22.3157   -8.7730   20.0733 C   0  0  0  0  0  0  0  0  0  0  0  0
  -23.1199   -8.6391   22.3476 C   0  0  0  0  0  0  0  0  0  0  0  0
  -26.8646  -25.1239   14.5365 C   0  0  0  0  0  0  0  0  0  0  0  0
  -19.9020   -7.8102   22.9632 C   0  0  0  0  0  0  0  0  0  0  0  0
  -26.6515  -20.5876   19.8288 C   0  0  0  0  0  0  0  0  0  0  0  0
  -19.1678   -7.6999   24.1440 C   0  0  0  0  0  0  0  0  0  0  0  0
  -27.2167  -19.5483   20.5594 C   0  0  0  0  0  0  0  0  0  0  0  0
  -29.1318  -24.4568   15.0491 C   0  0  0  0  0  0  0  0  0  0  0  0
  -20.4185   -5.7195   24.7367 C   0  0  0  0  0  0  0  0  0  0  0  0
  -23.8304  -10.4540   20.9200 C   0  0  0  0  0  0  0  0  0  0  0  0
  -24.1761  -12.9814   20.9475 C   0  0  0  0  0  0  0  0  0  0  0  0
  -31.2500  -33.5026   11.5018 C   0  0  0  0  0  0  0  0  0  0  0  0
  -28.7049  -26.5849   13.9654 C   0  0  0  0  0  0  0  0  0  0  0  0
  -31.1226  -32.1433   11.1579 C   0  0  0  0  0  0  0  0  0  0  0  0
  -29.6071  -25.6513   14.5013 C   0  0  0  0  0  0  0  0  0  0  0  0
  -22.3469   -8.1234   21.3073 C   0  0  0  0  0  0  0  0  0  0  0  0
  -27.7612  -24.1983   15.0710 C   0  0  0  0  0  0  0  0  0  0  0  0
  -20.8945   -6.8751   22.6690 C   0  0  0  0  0  0  0  0  0  0  0  0
  -27.4641  -21.4067   19.0528 C   0  0  0  0  0  0  0  0  0  0  0  0
  -19.4261   -6.6546   25.0308 C   0  0  0  0  0  0  0  0  0  0  0  0
  -21.1527   -5.8298   23.5558 C   0  0  0  0  0  0  0  0  0  0  0  0
  -24.5973  -11.6574   20.7204 C   0  0  0  0  0  0  0  0  0  0  0  0
  -28.8250  -21.1467   19.0413 C   0  0  0  0  0  0  0  0  0  0  0  0
  -28.5887  -19.3714   20.4803 C   0  0  0  0  0  0  0  0  0  0  0  0
  -25.2628  -13.7502   20.6094 C   0  0  0  0  0  0  0  0  0  0  0  0
  -22.9152  -13.4723   21.4218 C   0  0  0  0  0  0  0  0  0  0  0  0
  -31.4413  -28.9780   13.0373 C   0  0  0  0  0  0  0  0  0  0  0  0
  -32.1575  -27.8298   15.7903 C   0  0  0  0  0  0  0  0  0  0  0  0
  -31.9921  -27.1058   18.8483 C   0  0  0  0  0  0  0  0  0  0  0  0
  -30.7517  -14.7489   20.7525 C   0  0  0  0  0  0  0  0  0  0  0  0
  -32.2965  -33.9793   12.4777 C   0  0  0  0  0  0  0  0  0  0  0  0
  -29.2603  -27.8244   13.3179 C   0  0  0  0  0  0  0  0  0  0  0  0
  -31.0756  -25.9711   14.4357 C   0  0  0  0  0  0  0  0  0  0  0  0
  -32.8680  -32.8649   13.3505 C   0  0  0  0  0  0  0  0  0  0  0  0
  -29.5622  -12.5159   18.2474 C   0  0  0  0  0  0  0  0  0  0  0  0
  -33.2199  -31.6483   12.5003 C   0  0  0  0  0  0  0  0  0  0  0  0
  -31.1779  -22.1256   18.6177 C   0  0  0  0  0  0  0  0  0  0  0  0
  -30.2537  -23.2874   18.8080 C   0  0  0  0  0  0  0  0  0  0  0  0
  -28.1327  -12.1981   18.6896 C   0  0  0  0  0  0  0  0  0  0  0  0
  -30.5030  -12.6618   19.4415 C   0  0  0  0  0  0  0  0  0  0  0  0
  -28.6303  -13.3094   20.9069 C   0  0  0  0  0  0  0  0  0  0  0  0
  -31.9742  -31.0771   11.8123 C   0  0  1  0  0  0  0  0  0  0  0  0
  -29.7317  -22.0044   18.2199 C   0  0  0  0  0  0  0  0  0  0  0  0
  -30.5006  -28.3790   14.0411 C   0  0  1  0  0  0  0  0  0  0  0  0
  -27.6330  -13.2082   19.7400 C   0  0  2  0  0  0  0  0  0  0  0  0
  -32.9701  -26.6623   21.1164 C   0  0  0  0  0  0  0  0  0  0  0  0
  -34.1231  -25.9160   14.4570 C   0  0  0  0  0  0  0  0  0  0  0  0
  -34.9658  -25.3074   16.7346 C   0  0  0  0  0  0  0  0  0  0  0  0
  -35.1817  -27.6526   15.9124 C   0  0  0  0  0  0  0  0  0  0  0  0
  -30.4310  -29.2988   20.0781 C   0  0  0  0  0  0  0  0  0  0  0  0
  -30.5473  -18.0216   21.2336 C   0  0  0  0  0  0  0  0  0  0  0  0
  -30.8468  -16.8199   22.1167 C   0  0  0  0  0  0  0  0  0  0  0  0
  -25.9995  -23.0827   16.2154 C   0  0  0  0  0  0  0  0  0  1  0  0
  -25.9449  -22.0796   17.3513 C   0  0  0  0  0  0  0  0  0  0  0  0
  -32.9031  -26.7727   16.5649 C   0  0  1  0  0  0  0  0  0  0  0  0
  -32.3486  -27.7028   20.1977 C   0  0  2  0  0  0  0  0  0  0  0  0
  -34.2659  -26.4092   15.9107 C   0  0  0  0  0  0  0  0  0  0  0  0
  -25.8536  -11.5857   20.2724 N   0  0  0  0  0  0  0  0  0  0  0  0
  -29.4103  -20.1466   19.7376 N   0  0  0  0  0  0  0  0  0  0  0  0
  -26.2311  -12.8742   20.2153 N   0  0  0  0  0  0  0  0  0  0  0  0
  -31.2977  -27.3844   14.7789 N   0  0  0  0  0  0  0  0  0  0  0  0
  -29.9722  -13.6351   20.3991 N   0  0  0  0  0  0  0  0  0  0  0  0
  -25.4751  -15.0834   20.6136 N   0  0  0  0  0  0  0  0  0  0  0  0
  -21.9078  -12.5455   21.7226 N   0  0  0  0  0  0  0  0  0  0  0  0
  -29.1498  -18.3081   21.2303 N   0  0  0  0  0  0  0  0  0  0  0  0
  -31.1875  -30.3057   12.7506 N   0  0  0  0  0  0  0  0  0  0  0  0
  -33.0103  -27.2686   17.9328 N   0  0  0  0  0  0  0  0  0  0  0  0
  -30.1713  -15.6254   21.6611 N   0  0  0  0  0  0  0  0  0  0  0  0
  -31.1304  -28.2478   20.8611 N   0  3  0  0  0  0  0  0  0  0  0  0
  -22.6832  -14.6974   21.5586 O   0  0  0  0  0  0  0  0  0  0  0  0
  -32.3334  -28.2877   12.5583 O   0  0  0  0  0  0  0  0  0  0  0  0
  -32.3351  -29.0191   16.0684 O   0  0  0  0  0  0  0  0  0  0  0  0
  -30.9194  -26.5475   18.6293 O   0  0  0  0  0  0  0  0  0  0  0  0
  -31.8791  -14.9502   20.2884 O   0  0  0  0  0  0  0  0  0  0  0  0
  -21.6230   -6.9865   21.4967 O   0  0  0  0  0  0  0  0  0  0  0  0
  -27.2956  -23.0420   15.6196 O   0  0  0  0  0  0  0  0  0  1  0  0
  -26.9146  -22.4328   18.3302 O   0  0  0  0  0  0  0  0  0  0  0  0
  -18.7220   -6.5496   26.1654 F   0  0  0  0  0  0  0  0  0  0  0  0
  -22.1057   -4.9292   23.2792 F   0  0  0  0  0  0  0  0  0  0  0  0
  1  2  1  0  0  0  0
  1  5  2  0  0  0  0
  2  6  2  0  0  0  0
  3  8  2  0  0  0  0
  3 17  1  0  0  0  0
  4  9  1  0  0  0  0
  4 17  2  0  0  0  0
  5 19  1  0  0  0  0
  6 21  1  0  0  0  0
  7 10  2  0  0  0  0
  7 20  1  0  0  0  0
  8 23  1  0  0  0  0
  9 23  2  0  0  0  0
 10 24  1  0  0  0  0
 11 13  2  0  0  0  0
 11 25  1  0  0  0  0
 12 14  2  0  0  0  0
 12 26  1  0  0  0  0
 13 27  1  0  0  0  0
 14 31  1  0  0  0  0
 15 22  1  0  0  0  0
 15 24  2  0  0  0  0
 16 27  2  0  0  0  0
 16 28  1  0  0  0  0
 17 29  1  0  0  0  0
 18 29  1  0  0  0  0
 18 32  2  0  0  0  0
 18 33  1  0  0  0  0
 19 21  2  0  0  0  0
 19 38  1  0  0  0  0
 20 22  2  0  0  0  0
 20 39  1  0  0  0  0
 21 49  1  0  0  0  0
 22 40  1  0  0  0  0
 23 82  1  0  0  0  0
 24 83  1  0  0  0  0
 25 28  2  0  0  0  0
 25 82  1  0  0  0  0
 26 30  2  0  0  0  0
 26 84  1  0  0  0  0
 27 85  1  0  0  0  0
 28 86  1  0  0  0  0
 29 65  2  0  0  0  0
 30 50  1  0  0  0  0
 30 66  1  0  0  0  0
 31 66  2  0  0  0  0
 31 72  1  0  0  0  0
 32 67  1  0  0  0  0
 32 70  1  0  0  0  0
 33 71  1  0  0  0  0
 33 77  2  0  0  0  0
 34 51  1  0  0  0  0
 34 73  1  0  0  0  0
 34 78  2  0  0  0  0
 35 62  1  0  0  0  0
 35 68  1  0  0  0  0
 35 79  2  0  0  0  0
 36 63  1  0  0  0  0
 36 74  1  0  0  0  0
 36 80  2  0  0  0  0
 37 69  1  0  0  0  0
 37 75  1  0  0  0  0
 37 81  2  0  0  0  0
 38 41  1  0  0  0  0
 39 51  1  0  0  0  0
 40 68  1  0  0  0  0
 41 43  1  0  0  0  0
 42 46  1  0  0  0  0
 42 47  1  0  0  0  0
 43 49  1  0  0  0  0
 44 45  1  0  0  0  0
 44 50  1  0  0  0  0
 45 50  1  0  0  0  0
 46 52  1  0  0  0  0
 47 69  1  0  0  0  0
 48 52  1  0  0  0  0
 48 69  1  0  0  0  0
 49 73  1  0  0  0  0
 51 68  1  0  0  0  0
 52 67  1  0  0  0  0
 53 63  1  0  0  0  0
 54 64  1  0  0  0  0
 55 64  1  0  0  0  0
 56 64  1  0  0  0  0
 57 76  1  0  0  0  0
 58 59  1  0  0  0  0
 58 72  1  0  0  0  0
 59 75  1  0  0  0  0
 60 61  1  0  0  0  0
 60 83  1  0  0  0  0
 61 84  1  0  0  0  0
 62 64  1  0  0  0  0
 62 74  1  0  0  0  0
 63 76  1  0  0  0  0
 65 67  1  0  0  0  0
M  CHG  1  76   1
M  ISO  4  37 100  60 101  75 100  83 101
M  END
> <Batch ID>
0135

> <Smiles>
CNC(C)C(=O)NC(C(=O)N1Cc2cc([101O:1][101CH2:1]COc3ccc(NCC[100NH:0][100C:0](=O)N4CCCC(n5nc(-c6ccc(Oc7ccc(F)cc7F)cc6)c(C(N)=O)c5N)C4)nc3C3CC3)ccc2CC1C(=O)NC1CCCc2ccccc21)C(C)(C)C

> <Shape>
0.233

> <Color>
0.209

> <Negative vol penalty>
0.000

$$$$

  -OEChem-04052321003D

 92102  0     1  0  0  0  0  0999 V2000
  -16.4059  -31.2614   26.4373 C   0  0  0  0  0  0  0  0  0  0  0  0
  -17.1939  -30.2857   27.0393 C   0  0  0  0  0  0  0  0  0  0  0  0
  -23.9053  -10.9331   23.6360 C   0  0  0  0  0  0  0  0  0  0  0  0
  -24.6248   -9.4066   21.9070 C   0  0  0  0  0  0  0  0  0  0  0  0
  -16.6496  -31.6355   25.1165 C   0  0  0  0  0  0  0  0  0  0  0  0
  -18.2255  -29.6827   26.3204 C   0  0  0  0  0  0  0  0  0  0  0  0
  -24.7593  -26.8848   27.2135 C   0  0  0  0  0  0  0  0  0  0  0  0
  -29.0047  -22.5151   25.5207 C   0  0  0  0  0  0  0  0  0  0  0  0
  -29.7738  -21.4427   25.0690 C   0  0  0  0  0  0  0  0  0  0  0  0
  -23.4661   -9.8554   24.4048 C   0  0  0  0  0  0  0  0  0  0  0  0
  -24.1857   -8.3288   22.6758 C   0  0  0  0  0  0  0  0  0  0  0  0
  -25.4815  -25.7252   26.9355 C   0  0  0  0  0  0  0  0  0  0  0  0
  -21.2480   -6.8234   23.4073 C   0  0  0  0  0  0  0  0  0  0  0  0
  -20.5155   -5.8251   22.7651 C   0  0  0  0  0  0  0  0  0  0  0  0
  -25.8609  -26.5080   24.6855 C   0  0  0  0  0  0  0  0  0  0  0  0
  -27.1651  -21.0114   25.9585 C   0  0  0  0  0  0  0  0  0  0  0  0
  -22.1916   -4.1982   23.3825 C   0  0  0  0  0  0  0  0  0  0  0  0
  -24.4846  -10.7088   22.3870 C   0  0  0  0  0  0  0  0  0  0  0  0
  -24.1625  -12.8921   21.1076 C   0  0  0  0  0  0  0  0  0  0  0  0
  -17.6908  -31.0438   24.3841 C   0  0  0  0  0  0  0  0  0  0  0  0
  -24.5728  -27.8614   26.2246 C   0  0  0  0  0  0  0  0  0  0  0  0
  -18.4824  -30.0484   24.9881 C   0  0  0  0  0  0  0  0  0  0  0  0
  -25.1380  -27.6803   24.9542 C   0  0  0  0  0  0  0  0  0  0  0  0
  -27.7003  -22.2995   25.9655 C   0  0  0  0  0  0  0  0  0  0  0  0
  -29.2386  -20.1546   25.0621 C   0  0  0  0  0  0  0  0  0  0  0  0
  -23.6063   -8.5532   23.9247 C   0  0  0  0  0  0  0  0  0  0  0  0
  -26.0300  -25.5352   25.6706 C   0  0  0  0  0  0  0  0  0  0  0  0
  -22.4524   -6.5092   24.0370 C   0  0  0  0  0  0  0  0  0  0  0  0
  -27.9342  -19.9390   25.5068 C   0  0  0  0  0  0  0  0  0  0  0  0
  -20.9873   -4.5125   22.7527 C   0  0  0  0  0  0  0  0  0  0  0  0
  -22.9241   -5.1966   24.0246 C   0  0  0  0  0  0  0  0  0  0  0  0
  -24.9380  -11.8217   21.5921 C   0  0  0  0  0  0  0  0  0  0  0  0
  -25.0534  -13.6759   20.4159 C   0  0  0  0  0  0  0  0  0  0  0  0
  -22.7622  -13.1544   21.2685 C   0  0  0  0  0  0  0  0  0  0  0  0
  -22.0474  -29.1066   24.7496 C   0  0  0  0  0  0  0  0  0  0  0  0
  -24.2663  -31.0933   23.4644 C   0  0  0  0  0  0  0  0  0  0  0  0
  -27.5272  -31.6313   22.6135 C   0  0  0  0  0  0  0  0  0  0  0  0
  -30.9819  -14.4215   20.7997 C   0  0  0  0  0  0  0  0  0  0  0  0
  -17.8858  -31.4471   22.9440 C   0  0  0  0  0  0  0  0  0  0  0  0
  -23.8139  -29.1190   26.5484 C   0  0  0  0  0  0  0  0  0  0  0  0
  -24.9839  -28.7078   23.8638 C   0  0  0  0  0  0  0  0  0  0  0  0
  -19.2373  -31.0277   22.3717 C   0  0  0  0  0  0  0  0  0  0  0  0
  -29.1330  -13.4076   17.9308 C   0  0  0  0  0  0  0  0  0  0  0  0
  -19.5414  -29.5763   22.7295 C   0  0  0  0  0  0  0  0  0  0  0  0
  -27.7783  -12.9828   18.5001 C   0  0  0  0  0  0  0  0  0  0  0  0
  -25.3537  -17.4241   25.3984 C   0  0  0  0  0  0  0  0  0  0  0  0
  -26.6108  -18.0726   23.3035 C   0  0  0  0  0  0  0  0  0  0  0  0
  -31.2015  -17.2332   22.5741 C   0  0  0  0  0  0  0  0  0  0  0  0
  -30.2802  -13.0379   18.8685 C   0  0  0  0  0  0  0  0  0  0  0  0
  -28.7776  -13.1036   20.8208 C   0  0  0  0  0  0  0  0  0  0  0  0
  -25.9928  -16.0424   25.3399 C   0  0  0  0  0  0  0  0  0  0  0  0
  -27.2403  -16.6860   23.2665 C   0  0  0  0  0  0  0  0  0  0  0  0
  -31.4113  -15.6147   24.3028 C   0  0  0  0  0  0  0  0  0  0  0  0
  -19.6266  -29.3890   24.2490 C   0  0  1  0  0  0  0  0  0  0  0  0
  -23.2495  -29.8115   25.3117 C   0  0  1  0  0  0  0  0  0  0  0  0
  -27.5848  -13.5053   19.9364 C   0  0  2  0  0  0  0  0  0  0  0  0
  -31.5337  -15.7665   22.7979 C   0  0  1  0  0  0  0  0  0  0  0  0
  -26.2195  -18.4890   24.7232 C   0  0  0  0  0  0  0  0  0  0  0  0
  -31.9647  -17.9209   23.7002 C   0  0  1  0  0  0  0  0  0  0  0  0
  -29.0289  -33.3340   21.5442 C   0  0  0  0  0  0  0  0  0  0  0  0
  -23.1943  -30.3099   20.7172 C   0  0  0  0  0  0  0  0  0  0  0  0
  -25.2818  -31.2564   19.7099 C   0  0  0  0  0  0  0  0  0  0  0  0
  -23.7261  -32.7400   20.9754 C   0  0  0  0  0  0  0  0  0  0  0  0
  -29.1486  -31.9163   25.0730 C   0  0  0  0  0  0  0  0  0  0  0  0
  -26.8735  -23.4533   26.4516 C   0  0  0  0  0  0  0  0  0  1  0  0
  -31.3689  -19.2446   24.1352 C   0  0  0  0  0  0  0  0  0  0  0  0
  -25.1416  -31.0659   22.2347 C   0  0  1  0  0  0  0  0  0  0  0  0
  -28.4479  -32.8149   22.8503 C   0  0  2  0  0  0  0  0  0  0  0  0
  -24.3374  -31.3226   20.9291 C   0  0  0  0  0  0  0  0  0  0  0  0
  -26.2226  -11.9140   21.2381 N   0  0  0  0  0  0  0  0  0  0  0  0
  -26.2612  -13.0516   20.5236 N   0  0  0  0  0  0  0  0  0  0  0  0
  -24.2279  -29.9177   24.2274 N   0  0  0  0  0  0  0  0  0  0  0  0
  -30.0360  -13.5645   20.2134 N   0  0  0  0  0  0  0  0  0  0  0  0
  -24.9136  -14.8314   19.7319 N   0  0  0  0  0  0  0  0  0  0  0  0
  -21.9931  -12.2465   22.0091 N   0  0  0  0  0  0  0  0  0  0  0  0
  -30.0282  -19.0783   24.6017 N   0  0  0  0  0  0  0  0  0  0  0  0
  -20.8967  -29.8716   24.7473 N   0  0  0  0  0  0  0  0  0  0  0  0
  -26.2133  -32.0261   22.4750 N   0  0  0  0  0  0  0  0  0  0  0  0
  -30.6699  -14.8805   22.0736 N   0  0  0  0  0  0  0  0  0  0  0  0
  -26.3178  -15.7106   23.9206 N   0  3  0  0  0  0  0  0  0  0  0  0
  -31.9121  -16.9293   24.8363 N   0  3  0  0  0  0  0  0  0  0  0  0
  -29.5750  -32.4238   23.7435 N   0  3  0  0  0  0  0  0  0  0  0  0
  -22.2061  -14.1555   20.7564 O   0  0  0  0  0  0  0  0  0  0  0  0
  -22.1563  -27.9545   24.3464 O   0  0  0  0  0  0  0  0  0  0  0  0
  -23.6454  -32.1225   23.7418 O   0  0  0  0  0  0  0  0  0  0  0  0
  -27.9334  -30.4729   22.5535 O   0  0  0  0  0  0  0  0  0  0  0  0
  -32.0246  -14.7574   20.2279 O   0  0  0  0  0  0  0  0  0  0  0  0
  -23.1781   -7.5013   24.6748 O   0  0  0  0  0  0  0  0  0  0  0  0
  -27.3933  -18.6880   25.5084 O   0  0  0  0  0  0  0  0  0  0  0  0
  -26.7349  -24.4039   25.3964 O   0  0  0  0  0  0  0  0  0  1  0  0
  -20.2829   -3.5537   22.1373 F   0  0  0  0  0  0  0  0  0  0  0  0
  -24.0798   -4.8883   24.6289 F   0  0  0  0  0  0  0  0  0  0  0  0
  1  2  1  0  0  0  0
  1  5  2  0  0  0  0
  2  6  2  0  0  0  0
  3 10  2  0  0  0  0
  3 18  1  0  0  0  0
  4 11  1  0  0  0  0
  4 18  2  0  0  0  0
  5 20  1  0  0  0  0
  6 22  1  0  0  0  0
  7 12  2  0  0  0  0
  7 21  1  0  0  0  0
  8  9  2  0  0  0  0
  8 24  1  0  0  0  0
  9 25  1  0  0  0  0
 10 26  1  0  0  0  0
 11 26  2  0  0  0  0
 12 27  1  0  0  0  0
 13 14  2  0  0  0  0
 13 28  1  0  0  0  0
 14 30  1  0  0  0  0
 15 23  1  0  0  0  0
 15 27  2  0  0  0  0
 16 24  2  0  0  0  0
 16 29  1  0  0  0  0
 17 30  2  0  0  0  0
 17 31  1  0  0  0  0
 18 32  1  0  0  0  0
 19 32  1  0  0  0  0
 19 33  2  0  0  0  0
 19 34  1  0  0  0  0
 20 22  2  0  0  0  0
 20 39  1  0  0  0  0
 21 23  2  0  0  0  0
 21 40  1  0  0  0  0
 22 54  1  0  0  0  0
 23 41  1  0  0  0  0
 24 65  1  0  0  0  0
 25 29  2  0  0  0  0
 25 76  1  0  0  0  0
 26 88  1  0  0  0  0
 27 90  1  0  0  0  0
 28 31  2  0  0  0  0
 28 88  1  0  0  0  0
 29 89  1  0  0  0  0
 30 91  1  0  0  0  0
 31 92  1  0  0  0  0
 32 70  2  0  0  0  0
 33 71  1  0  0  0  0
 33 74  1  0  0  0  0
 34 75  1  0  0  0  0
 34 83  2  0  0  0  0
 35 55  1  0  0  0  0
 35 77  1  0  0  0  0
 35 84  2  0  0  0  0
 36 67  1  0  0  0  0
 36 72  1  0  0  0  0
 36 85  2  0  0  0  0
 37 68  1  0  0  0  0
 37 78  1  0  0  0  0
 37 86  2  0  0  0  0
 38 73  1  0  0  0  0
 38 79  1  0  0  0  0
 38 87  2  0  0  0  0
 39 42  1  0  0  0  0
 40 55  1  0  0  0  0
 41 72  1  0  0  0  0
 42 44  1  0  0  0  0
 43 45  1  0  0  0  0
 43 49  1  0  0  0  0
 44 54  1  0  0  0  0
 45 56  1  0  0  0  0
 46 51  1  0  0  0  0
 46 58  1  0  0  0  0
 47 52  1  0  0  0  0
 47 58  1  0  0  0  0
 48 57  1  0  0  0  0
 48 59  1  0  0  0  0
 49 73  1  0  0  0  0
 50 56  1  0  0  0  0
 50 73  1  0  0  0  0
 51 80  1  0  0  0  0
 52 80  1  0  0  0  0
 53 57  1  0  0  0  0
 53 81  1  0  0  0  0
 54 77  1  0  0  0  0
 55 72  1  0  0  0  0
 56 71  1  0  0  0  0
 57 79  1  0  0  0  0
 58 89  1  0  0  0  0
 59 66  1  0  0  0  0
 59 81  1  0  0  0  0
 60 68  1  0  0  0  0
 61 69  1  0  0  0  0
 62 69  1  0  0  0  0
 63 69  1  0  0  0  0
 64 82  1  0  0  0  0
 65 90  1  0  0  0  0
 66 76  1  0  0  0  0
 67 69  1  0  0  0  0
 67 78  1  0  0  0  0
 68 82  1  0  0  0  0
 70 71  1  0  0  0  0
M  CHG  3  80   1  81   1  82   1
M  ISO  4  38 100  65 101  79 100  90 101
M  END
> <Batch ID>
0135

> <Smiles>
CNC(C)C(=O)NC(C(=O)N1Cc2cc([101O:1][101CH2:1]c3ccc(NCC4CC([100NH:0][100C:0](=O)N5CCCC(n6nc(-c7ccc(Oc8ccc(F)cc8F)cc7)c(C(N)=O)c6N)C5)CN4)c(OC4CCNCC4)c3)ccc2CC1C(=O)NC1CCCc2ccccc21)C(C)(C)C

> <Shape>
0.238

> <Color>
0.139

> <Negative vol penalty>
0.000

$$$$

  -OEChem-04052321003D

 82 90  0     1  0  0  0  0  0999 V2000
  -31.2792  -32.9937   14.4536 C   0  0  0  0  0  0  0  0  0  0  0  0
  -31.0955  -31.6718   14.8461 C   0  0  0  0  0  0  0  0  0  0  0  0
  -22.8729  -10.1454   19.9690 C   0  0  0  0  0  0  0  0  0  0  0  0
  -23.7883   -9.8572   22.1862 C   0  0  0  0  0  0  0  0  0  0  0  0
  -31.0708  -34.0263   15.3669 C   0  0  0  0  0  0  0  0  0  0  0  0
  -30.7043  -31.3816   16.1527 C   0  0  0  0  0  0  0  0  0  0  0  0
  -27.0479  -26.8186   17.9736 C   0  0  0  0  0  0  0  0  0  0  0  0
  -22.0637   -9.0251   20.1574 C   0  0  0  0  0  0  0  0  0  0  0  0
  -22.9790   -8.7368   22.3747 C   0  0  0  0  0  0  0  0  0  0  0  0
  -27.3150  -25.5584   18.5069 C   0  0  0  0  0  0  0  0  0  0  0  0
  -22.9802   -5.4809   21.4636 C   0  0  0  0  0  0  0  0  0  0  0  0
  -23.5652   -4.3459   22.0249 C   0  0  0  0  0  0  0  0  0  0  0  0
  -27.0156  -26.4429   20.7311 C   0  0  0  0  0  0  0  0  0  0  0  0
  -22.0040   -4.4515   23.8657 C   0  0  0  0  0  0  0  0  0  0  0  0
  -23.7353  -10.5614   20.9834 C   0  0  0  0  0  0  0  0  0  0  0  0
  -24.2567  -13.0562   21.0934 C   0  0  0  0  0  0  0  0  0  0  0  0
  -30.6675  -33.7491   16.6827 C   0  0  0  0  0  0  0  0  0  0  0  0
  -26.7728  -27.9046   18.8169 C   0  0  0  0  0  0  0  0  0  0  0  0
  -30.4916  -32.4114   17.0849 C   0  0  0  0  0  0  0  0  0  0  0  0
  -26.7427  -27.7152   20.2059 C   0  0  0  0  0  0  0  0  0  0  0  0
  -22.1166   -8.3208   21.3602 C   0  0  0  0  0  0  0  0  0  0  0  0
  -27.3017  -25.3710   19.8859 C   0  0  0  0  0  0  0  0  0  0  0  0
  -21.9071   -6.1013   22.1034 C   0  0  0  0  0  0  0  0  0  0  0  0
  -23.0771   -3.8311   23.2259 C   0  0  0  0  0  0  0  0  0  0  0  0
  -21.4190   -5.5866   23.3044 C   0  0  0  0  0  0  0  0  0  0  0  0
  -24.5719  -11.7183   20.7891 C   0  0  0  0  0  0  0  0  0  0  0  0
  -25.3742  -13.7646   20.7251 C   0  0  0  0  0  0  0  0  0  0  0  0
  -23.0606  -13.6091   21.6586 C   0  0  0  0  0  0  0  0  0  0  0  0
  -28.1579  -30.7080   19.3883 C   0  0  0  0  0  0  0  0  0  0  0  0
  -25.5237  -31.1966   21.2170 C   0  0  0  0  0  0  0  0  0  0  0  0
  -22.9528  -29.8499   23.0126 C   0  0  0  0  0  0  0  0  0  0  0  0
  -30.9189  -14.3853   20.5942 C   0  0  0  0  0  0  0  0  0  0  0  0
  -30.5003  -34.8962   17.6476 C   0  0  0  0  0  0  0  0  0  0  0  0
  -26.4604  -29.2516   18.2249 C   0  0  0  0  0  0  0  0  0  0  0  0
  -26.4330  -28.8440   21.1537 C   0  0  0  0  0  0  0  0  0  0  0  0
  -29.7236  -34.5237   18.9078 C   0  0  0  0  0  0  0  0  0  0  0  0
  -29.4427  -12.3504   18.0729 C   0  0  0  0  0  0  0  0  0  0  0  0
  -30.2378  -33.2075   19.4823 C   0  0  0  0  0  0  0  0  0  0  0  0
  -29.1202  -21.7662   20.6779 C   0  0  0  0  0  0  0  0  0  0  0  0
  -27.2286  -20.4914   19.5811 C   0  0  0  0  0  0  0  0  0  0  0  0
  -28.0207  -12.1100   18.5829 C   0  0  0  0  0  0  0  0  0  0  0  0
  -29.5684  -20.4891   21.3884 C   0  0  0  0  0  0  0  0  0  0  0  0
  -27.6774  -19.2147   20.2919 C   0  0  0  0  0  0  0  0  0  0  0  0
  -30.4549  -12.3799   19.2160 C   0  0  0  0  0  0  0  0  0  0  0  0
  -28.7141  -13.0860   20.8112 C   0  0  0  0  0  0  0  0  0  0  0  0
  -30.0437  -32.0577   18.4865 C   0  0  1  0  0  0  0  0  0  0  0  0
  -26.6992  -30.4020   19.1981 C   0  0  1  0  0  0  0  0  0  0  0  0
  -27.6151  -21.7481   20.3744 C   0  0  0  0  0  0  0  0  0  0  0  0
  -27.6503  -13.1038   19.7002 C   0  0  2  0  0  0  0  0  0  0  0  0
  -29.1748  -19.2527   20.5848 C   0  0  0  0  0  0  0  0  0  0  0  0
  -20.9838  -30.5008   24.4257 C   0  0  0  0  0  0  0  0  0  0  0  0
  -25.7058  -23.0380   19.3512 C   0  0  0  0  0  0  0  0  0  0  0  0
  -27.4037  -31.8601   23.5268 C   0  0  0  0  0  0  0  0  0  0  0  0
  -25.4721  -31.5654   25.0921 C   0  0  0  0  0  0  0  0  0  0  0  0
  -25.4024  -33.3494   23.3499 C   0  0  0  0  0  0  0  0  0  0  0  0
  -21.0471  -28.5398   21.1659 C   0  0  0  0  0  0  0  0  0  0  0  0
  -31.2316  -16.3828   22.0334 C   0  0  0  0  0  0  0  0  0  0  0  0
  -30.9705  -17.6376   21.2213 C   0  0  0  0  0  0  0  0  0  0  0  0
  -25.1576  -30.9303   22.6572 C   0  0  1  0  0  0  0  0  0  0  0  0
  -21.4656  -30.1538   23.0256 C   0  0  2  0  0  0  0  0  0  0  0  0
  -27.2029  -23.0100   19.6187 C   0  0  1  0  0  0  0  0  0  1  0  0
  -25.8667  -31.9053   23.6390 C   0  0  0  0  0  0  0  0  0  0  0  0
  -25.7940  -11.5824   20.2675 N   0  0  0  0  0  0  0  0  0  0  0  0
  -26.2564  -12.8439   20.2411 N   0  0  0  0  0  0  0  0  0  0  0  0
  -26.1404  -30.1435   20.5267 N   0  0  0  0  0  0  0  0  0  0  0  0
  -30.0458  -13.3432   20.2411 N   0  0  0  0  0  0  0  0  0  0  0  0
  -25.6785  -15.0790   20.7711 N   0  0  0  0  0  0  0  0  0  0  0  0
  -22.0091  -12.7396   21.9789 N   0  0  0  0  0  0  0  0  0  0  0  0
  -28.6641  -31.6203   18.4822 N   0  0  0  0  0  0  0  0  0  0  0  0
  -23.7007  -30.9714   22.7224 N   0  0  0  0  0  0  0  0  0  0  0  0
  -30.4510  -15.2577   21.5693 N   0  0  0  0  0  0  0  0  0  0  0  0
  -29.5450  -18.0379   21.3582 N   0  3  0  0  0  0  0  0  0  0  0  0
  -20.6920  -28.9758   22.5409 N   0  3  0  0  0  0  0  0  0  0  0  0
  -22.9220  -14.8397   21.8580 O   0  0  0  0  0  0  0  0  0  0  0  0
  -28.7778  -30.1584   20.2912 O   0  0  0  0  0  0  0  0  0  0  0  0
  -25.2653  -32.2959   20.7208 O   0  0  0  0  0  0  0  0  0  0  0  0
  -23.4060  -28.7306   23.2411 O   0  0  0  0  0  0  0  0  0  0  0  0
  -32.0306  -14.5310   20.0748 O   0  0  0  0  0  0  0  0  0  0  0  0
  -21.3269   -7.2277   21.5445 O   0  0  0  0  0  0  0  0  0  0  0  0
  -27.5628  -24.1422   20.4091 O   0  0  0  0  0  0  0  0  0  1  0  0
  -23.6380   -2.7402   23.7640 F   0  0  0  0  0  0  0  0  0  0  0  0
  -20.3876   -6.1775   23.9231 F   0  0  0  0  0  0  0  0  0  0  0  0
  1  2  1  0  0  0  0
  1  5  2  0  0  0  0
  2  6  2  0  0  0  0
  3  8  2  0  0  0  0
  3 15  1  0  0  0  0
  4  9  1  0  0  0  0
  4 15  2  0  0  0  0
  5 17  1  0  0  0  0
  6 19  1  0  0  0  0
  7 10  2  0  0  0  0
  7 18  1  0  0  0  0
  8 21  1  0  0  0  0
  9 21  2  0  0  0  0
 10 22  1  0  0  0  0
 11 12  2  0  0  0  0
 11 23  1  0  0  0  0
 12 24  1  0  0  0  0
 13 20  1  0  0  0  0
 13 22  2  0  0  0  0
 14 24  2  0  0  0  0
 14 25  1  0  0  0  0
 15 26  1  0  0  0  0
 16 26  1  0  0  0  0
 16 27  2  0  0  0  0
 16 28  1  0  0  0  0
 17 19  2  0  0  0  0
 17 33  1  0  0  0  0
 18 20  2  0  0  0  0
 18 34  1  0  0  0  0
 19 46  1  0  0  0  0
 20 35  1  0  0  0  0
 21 79  1  0  0  0  0
 22 80  1  0  0  0  0
 23 25  2  0  0  0  0
 23 79  1  0  0  0  0
 24 81  1  0  0  0  0
 25 82  1  0  0  0  0
 26 63  2  0  0  0  0
 27 64  1  0  0  0  0
 27 67  1  0  0  0  0
 28 68  1  0  0  0  0
 28 74  2  0  0  0  0
 29 47  1  0  0  0  0
 29 69  1  0  0  0  0
 29 75  2  0  0  0  0
 30 59  1  0  0  0  0
 30 65  1  0  0  0  0
 30 76  2  0  0  0  0
 31 60  1  0  0  0  0
 31 70  1  0  0  0  0
 31 77  2  0  0  0  0
 32 66  1  0  0  0  0
 32 71  1  0  0  0  0
 32 78  2  0  0  0  0
 33 36  1  0  0  0  0
 34 47  1  0  0  0  0
 35 65  1  0  0  0  0
 36 38  1  0  0  0  0
 37 41  1  0  0  0  0
 37 44  1  0  0  0  0
 38 46  1  0  0  0  0
 39 42  1  0  0  0  0
 39 48  1  0  0  0  0
 40 43  1  0  0  0  0
 40 48  1  0  0  0  0
 41 49  1  0  0  0  0
 42 50  1  0  0  0  0
 43 50  1  0  0  0  0
 44 66  1  0  0  0  0
 45 49  1  0  0  0  0
 45 66  1  0  0  0  0
 46 69  1  0  0  0  0
 47 65  1  0  0  0  0
 48 61  1  0  0  0  0
 49 64  1  0  0  0  0
 50 72  1  0  0  0  0
 51 60  1  0  0  0  0
 52 61  1  0  0  0  0
 53 62  1  0  0  0  0
 54 62  1  0  0  0  0
 55 62  1  0  0  0  0
 56 73  1  0  0  0  0
 57 58  1  0  0  0  0
 57 71  1  0  0  0  0
 58 72  1  0  0  0  0
 59 62  1  0  0  0  0
 59 70  1  0  0  0  0
 60 73  1  0  0  0  0
 61 80  1  0  0  0  0
 63 64  1  0  0  0  0
M  CHG  2  72   1  73   1
M  ISO  4  32 100  61 101  71 100  80 101
M  END
> <Batch ID>
0135

> <Smiles>
CNC(C)C(=O)NC(C(=O)N1Cc2cc([101O:1][101CH:1](C)C3CCC(NCC[100NH:0][100C:0](=O)N4CCCC(n5nc(-c6ccc(Oc7ccc(F)cc7F)cc6)c(C(N)=O)c5N)C4)CC3)ccc2CC1C(=O)NC1CCCc2ccccc21)C(C)(C)C

> <Shape>
0.359

> <Color>
0.226

> <Negative vol penalty>
0.000

$$$$

  -OEChem-04052321003D

 83 92  0     1  0  0  0  0  0999 V2000
  -30.3848  -16.9659   12.4515 C   0  0  0  0  0  0  0  0  0  0  0  0
  -30.5826  -18.3296   12.6428 C   0  0  0  0  0  0  0  0  0  0  0  0
  -23.5529  -12.9686   19.3509 C   0  0  0  0  0  0  0  0  0  0  0  0
  -24.9262  -14.1463   20.9523 C   0  0  0  0  0  0  0  0  0  0  0  0
  -29.5331  -16.2604   13.3006 C   0  0  0  0  0  0  0  0  0  0  0  0
  -29.9280  -18.9888   13.6826 C   0  0  0  0  0  0  0  0  0  0  0  0
  -24.9992  -29.1518   20.6651 C   0  0  0  0  0  0  0  0  0  0  0  0
  -30.8212  -24.3817   18.3125 C   0  0  0  0  0  0  0  0  0  0  0  0
  -23.9384  -28.2538   20.5294 C   0  0  0  0  0  0  0  0  0  0  0  0
  -24.5237  -11.9721   19.2512 C   0  0  0  0  0  0  0  0  0  0  0  0
  -25.8970  -13.1497   20.8526 C   0  0  0  0  0  0  0  0  0  0  0  0
  -30.1796  -25.5367   18.7574 C   0  0  0  0  0  0  0  0  0  0  0  0
  -28.8965  -11.0998   20.7500 C   0  0  0  0  0  0  0  0  0  0  0  0
  -30.2275  -11.5006   20.6335 C   0  0  0  0  0  0  0  0  0  0  0  0
  -25.3900  -26.6315   19.4422 C   0  0  0  0  0  0  0  0  0  0  0  0
  -28.7934  -24.2000   20.2101 C   0  0  0  0  0  0  0  0  0  0  0  0
  -29.6941  -12.6786   18.5926 C   0  0  0  0  0  0  0  0  0  0  0  0
  -23.7541  -14.0558   20.2014 C   0  0  0  0  0  0  0  0  0  0  0  0
  -21.6679  -15.1305   21.2015 C   0  0  0  0  0  0  0  0  0  0  0  0
  -28.8752  -16.9094   14.3572 C   0  0  0  0  0  0  0  0  0  0  0  0
  -26.2397  -28.7805   20.1752 C   0  0  0  0  0  0  0  0  0  0  0  0
  -30.4457  -23.1239   18.8059 C   0  0  0  0  0  0  0  0  0  0  0  0
  -29.0657  -18.2916   14.5458 C   0  0  0  0  0  0  0  0  0  0  0  0
  -26.4347  -27.5316   19.5726 C   0  0  0  0  0  0  0  0  0  0  0  0
  -29.4335  -23.0307   19.7718 C   0  0  0  0  0  0  0  0  0  0  0  0
  -24.1323  -27.0029   19.9221 C   0  0  0  0  0  0  0  0  0  0  0  0
  -25.6958  -12.0626   20.0020 C   0  0  0  0  0  0  0  0  0  0  0  0
  -29.1635  -25.4458   19.7042 C   0  0  0  0  0  0  0  0  0  0  0  0
  -27.9644  -11.4883   19.7877 C   0  0  0  0  0  0  0  0  0  0  0  0
  -30.6263  -12.2900   19.5549 C   0  0  0  0  0  0  0  0  0  0  0  0
  -28.3632  -12.2777   18.7091 C   0  0  0  0  0  0  0  0  0  0  0  0
  -22.7519  -15.0858   20.3044 C   0  0  0  0  0  0  0  0  0  0  0  0
  -21.0188  -16.3022   20.8976 C   0  0  0  0  0  0  0  0  0  0  0  0
  -21.2821  -14.1964   22.2185 C   0  0  0  0  0  0  0  0  0  0  0  0
  -29.2437  -20.4773   17.5196 C   0  0  0  0  0  0  0  0  0  0  0  0
  -29.7026  -19.2859   20.5017 C   0  0  0  0  0  0  0  0  0  0  0  0
  -30.0428  -19.8917   23.8429 C   0  0  0  0  0  0  0  0  0  0  0  0
  -22.2077  -21.6522   19.3561 C   0  0  0  0  0  0  0  0  0  0  0  0
  -27.9275  -16.1142   15.2199 C   0  0  0  0  0  0  0  0  0  0  0  0
  -27.5227  -29.5479   20.2381 C   0  0  0  0  0  0  0  0  0  0  0  0
  -31.1658  -21.8899   18.3357 C   0  0  0  0  0  0  0  0  0  0  0  0
  -29.0068  -21.7062   20.3481 C   0  0  0  0  0  0  0  0  0  0  0  0
  -27.5631  -16.8122   16.5277 C   0  0  0  0  0  0  0  0  0  0  0  0
  -28.3683  -28.8064   19.1874 C   0  0  0  0  0  0  0  0  0  0  0  0
  -20.8787  -19.2889   16.9589 C   0  0  0  0  0  0  0  0  0  0  0  0
  -27.2036  -18.2723   16.2715 C   0  0  0  0  0  0  0  0  0  0  0  0
  -21.1242  -17.9593   17.6745 C   0  0  0  0  0  0  0  0  0  0  0  0
  -22.0243  -20.2672   17.2019 C   0  0  0  0  0  0  0  0  0  0  0  0
  -22.5639  -19.1995   19.3565 C   0  0  0  0  0  0  0  0  0  0  0  0
  -28.3927  -19.0372   15.6778 C   0  0  1  0  0  0  0  0  0  0  0  0
  -27.8639  -27.3533   19.1660 C   0  0  1  0  0  0  0  0  0  1  0  0
  -30.3514  -20.6140   18.5256 C   0  0  1  0  0  0  0  0  0  0  0  0
  -21.4301  -18.1751   19.1685 C   0  0  2  0  0  0  0  0  0  0  0  0
  -30.3674  -18.7147   26.0353 C   0  0  0  0  0  0  0  0  0  0  0  0
  -26.7703  -18.4426   20.4804 C   0  0  0  0  0  0  0  0  0  0  0  0
  -26.9061  -18.1589   22.9642 C   0  0  0  0  0  0  0  0  0  0  0  0
  -28.3326  -16.7597   21.4710 C   0  0  0  0  0  0  0  0  0  0  0  0
  -32.6164  -21.2684   24.3332 C   0  0  0  0  0  0  0  0  0  0  0  0
  -23.1650  -24.8206   19.1957 C   0  0  0  0  0  0  0  0  0  0  0  0
  -21.8260  -24.0990   19.2000 C   0  0  0  0  0  0  0  0  0  0  0  0
  -28.8753  -19.2117   21.7623 C   0  0  1  0  0  0  0  0  0  0  0  0
  -31.0536  -19.3923   24.8594 C   0  0  2  0  0  0  0  0  0  0  0  0
  -27.7276  -18.1681   21.6574 C   0  0  0  0  0  0  0  0  0  0  0  0
  -22.7924  -16.1449   19.4915 N   0  0  0  0  0  0  0  0  0  0  0  0
  -21.7258  -16.8660   19.8766 N   0  0  0  0  0  0  0  0  0  0  0  0
  -29.7368  -20.5279   19.8519 N   0  0  0  0  0  0  0  0  0  0  0  0
  -22.2518  -20.4425   18.6432 N   0  0  0  0  0  0  0  0  0  0  0  0
  -19.9180  -16.8949   21.4069 N   0  0  0  0  0  0  0  0  0  0  0  0
  -22.0601  -13.0444   22.3974 N   0  0  0  0  0  0  0  0  0  0  0  0
  -23.0451  -26.1097   19.8012 N   0  0  0  0  0  0  0  0  0  0  0  0
  -29.3520  -19.3616   16.7116 N   0  0  0  0  0  0  0  0  0  0  0  0
  -29.8129  -18.9613   22.8516 N   0  0  0  0  0  0  0  0  0  0  0  0
  -21.9124  -22.7837   18.6056 N   0  0  0  0  0  0  0  0  0  0  0  0
  -31.8680  -20.5265   25.3804 N   0  3  0  0  0  0  0  0  0  0  0  0
  -20.2680  -14.3699   22.9361 O   0  0  0  0  0  0  0  0  0  0  0  0
  -28.3557  -21.3208   17.4805 O   0  0  0  0  0  0  0  0  0  0  0  0
  -30.3023  -18.2809   20.1119 O   0  0  0  0  0  0  0  0  0  0  0  0
  -29.5076  -20.9953   23.9225 O   0  0  0  0  0  0  0  0  0  0  0  0
  -22.4112  -21.7185   20.5732 O   0  0  0  0  0  0  0  0  0  0  0  0
  -26.6433  -11.0903   19.9052 O   0  0  0  0  0  0  0  0  0  0  0  0
  -28.5352  -26.5716   20.1396 O   0  0  0  0  0  0  0  0  0  1  0  0
  -31.9041  -12.6761   19.4440 F   0  0  0  0  0  0  0  0  0  0  0  0
  -27.4720  -12.6551   17.7822 F   0  0  0  0  0  0  0  0  0  0  0  0
  1  2  1  0  0  0  0
  1  5  2  0  0  0  0
  2  6  2  0  0  0  0
  3 10  2  0  0  0  0
  3 18  1  0  0  0  0
  4 11  1  0  0  0  0
  4 18  2  0  0  0  0
  5 20  1  0  0  0  0
  6 23  1  0  0  0  0
  7  9  2  0  0  0  0
  7 21  1  0  0  0  0
  8 12  2  0  0  0  0
  8 22  1  0  0  0  0
  9 26  1  0  0  0  0
 10 27  1  0  0  0  0
 11 27  2  0  0  0  0
 12 28  1  0  0  0  0
 13 14  2  0  0  0  0
 13 29  1  0  0  0  0
 14 30  1  0  0  0  0
 15 24  1  0  0  0  0
 15 26  2  0  0  0  0
 16 25  1  0  0  0  0
 16 28  2  0  0  0  0
 17 30  2  0  0  0  0
 17 31  1  0  0  0  0
 18 32  1  0  0  0  0
 19 32  1  0  0  0  0
 19 33  2  0  0  0  0
 19 34  1  0  0  0  0
 20 23  2  0  0  0  0
 20 39  1  0  0  0  0
 21 24  2  0  0  0  0
 21 40  1  0  0  0  0
 22 25  2  0  0  0  0
 22 41  1  0  0  0  0
 23 50  1  0  0  0  0
 24 51  1  0  0  0  0
 25 42  1  0  0  0  0
 26 70  1  0  0  0  0
 27 80  1  0  0  0  0
 28 81  1  0  0  0  0
 29 31  2  0  0  0  0
 29 80  1  0  0  0  0
 30 82  1  0  0  0  0
 31 83  1  0  0  0  0
 32 64  2  0  0  0  0
 33 65  1  0  0  0  0
 33 68  1  0  0  0  0
 34 69  1  0  0  0  0
 34 75  2  0  0  0  0
 35 52  1  0  0  0  0
 35 71  1  0  0  0  0
 35 76  2  0  0  0  0
 36 61  1  0  0  0  0
 36 66  1  0  0  0  0
 36 77  2  0  0  0  0
 37 62  1  0  0  0  0
 37 72  1  0  0  0  0
 37 78  2  0  0  0  0
 38 67  1  0  0  0  0
 38 73  1  0  0  0  0
 38 79  2  0  0  0  0
 39 43  1  0  0  0  0
 40 44  1  0  0  0  0
 41 52  1  0  0  0  0
 42 66  1  0  0  0  0
 43 46  1  0  0  0  0
 44 51  1  0  0  0  0
 45 47  1  0  0  0  0
 45 48  1  0  0  0  0
 46 50  1  0  0  0  0
 47 53  1  0  0  0  0
 48 67  1  0  0  0  0
 49 53  1  0  0  0  0
 49 67  1  0  0  0  0
 50 71  1  0  0  0  0
 51 81  1  0  0  0  0
 52 66  1  0  0  0  0
 53 65  1  0  0  0  0
 54 62  1  0  0  0  0
 55 63  1  0  0  0  0
 56 63  1  0  0  0  0
 57 63  1  0  0  0  0
 58 74  1  0  0  0  0
 59 60  1  0  0  0  0
 59 70  1  0  0  0  0
 60 73  1  0  0  0  0
 61 63  1  0  0  0  0
 61 72  1  0  0  0  0
 62 74  1  0  0  0  0
 64 65  1  0  0  0  0
M  CHG  1  74   1
M  ISO  4  38 100  51 101  73 100  81 101
M  END
> <Batch ID>
0135

> <Smiles>
CNC(C)C(=O)NC(C(=O)N1Cc2cc([101O:1][101CH:1]3CCc4ccc(NCC[100NH:0][100C:0](=O)N5CCCC(n6nc(-c7ccc(Oc8ccc(F)cc8F)cc7)c(C(N)=O)c6N)C5)cc43)ccc2CC1C(=O)NC1CCCc2ccccc21)C(C)(C)C

> <Shape>
0.202

> <Color>
0.081

> <Negative vol penalty>
0.000

$$$$

  -OEChem-04052321003D

 84 92  0     1  0  0  0  0  0999 V2000
  -25.0383  -35.4632   21.1602 C   0  0  0  0  0  0  0  0  0  0  0  0
  -25.7467  -34.2669   21.1098 C   0  0  0  0  0  0  0  0  0  0  0  0
  -24.4051  -14.7490   20.3962 C   0  0  0  0  0  0  0  0  0  0  0  0
  -26.1520  -14.7644   22.0650 C   0  0  0  0  0  0  0  0  0  0  0  0
  -23.8687  -35.5482   21.9144 C   0  0  0  0  0  0  0  0  0  0  0  0
  -25.2864  -33.1551   21.8144 C   0  0  0  0  0  0  0  0  0  0  0  0
  -25.4706  -28.9030   19.0702 C   0  0  0  0  0  0  0  0  0  0  0  0
  -32.7106  -23.1490   23.3782 C   0  0  0  0  0  0  0  0  0  0  0  0
  -32.5108  -21.7687   23.3629 C   0  0  0  0  0  0  0  0  0  0  0  0
  -24.6082  -13.3836   20.1962 C   0  0  0  0  0  0  0  0  0  0  0  0
  -26.3551  -13.3990   21.8651 C   0  0  0  0  0  0  0  0  0  0  0  0
  -26.7146  -28.2896   18.9293 C   0  0  0  0  0  0  0  0  0  0  0  0
  -24.4205   -9.8196   19.5046 C   0  0  0  0  0  0  0  0  0  0  0  0
  -23.2938   -9.0011   19.4258 C   0  0  0  0  0  0  0  0  0  0  0  0
  -26.1252  -26.7112   20.6556 C   0  0  0  0  0  0  0  0  0  0  0  0
  -30.7336  -23.4502   22.0225 C   0  0  0  0  0  0  0  0  0  0  0  0
  -22.6517   -9.6701   21.6568 C   0  0  0  0  0  0  0  0  0  0  0  0
  -25.1770  -15.4394   21.3305 C   0  0  0  0  0  0  0  0  0  0  0  0
  -24.0869  -17.4535   22.4543 C   0  0  0  0  0  0  0  0  0  0  0  0
  -23.3886  -34.4341   22.6208 C   0  0  0  0  0  0  0  0  0  0  0  0
  -24.5471  -28.4311   20.0142 C   0  0  0  0  0  0  0  0  0  0  0  0
  -24.1099  -33.2257   22.5798 C   0  0  0  0  0  0  0  0  0  0  0  0
  -24.8691  -27.3188   20.8048 C   0  0  0  0  0  0  0  0  0  0  0  0
  -31.8220  -23.9898   22.7080 C   0  0  0  0  0  0  0  0  0  0  0  0
  -31.4224  -21.2290   22.6775 C   0  0  0  0  0  0  0  0  0  0  0  0
  -30.5338  -22.0698   22.0072 C   0  0  0  0  0  0  0  0  0  0  0  0
  -25.5831  -12.7085   20.9306 C   0  0  0  0  0  0  0  0  0  0  0  0
  -27.0432  -27.1953   19.7240 C   0  0  0  0  0  0  0  0  0  0  0  0
  -24.6628  -10.5634   20.6595 C   0  0  0  0  0  0  0  0  0  0  0  0
  -22.4094   -8.9264   20.5018 C   0  0  0  0  0  0  0  0  0  0  0  0
  -23.7784  -10.4886   21.7356 C   0  0  0  0  0  0  0  0  0  0  0  0
  -24.9681  -16.8500   21.5372 C   0  0  0  0  0  0  0  0  0  0  0  0
  -24.2608  -18.8021   22.2610 C   0  0  0  0  0  0  0  0  0  0  0  0
  -23.1913  -16.8490   23.3967 C   0  0  0  0  0  0  0  0  0  0  0  0
  -23.1469  -29.6584   22.5903 C   0  0  0  0  0  0  0  0  0  0  0  0
  -21.4896  -26.8704   22.5387 C   0  0  0  0  0  0  0  0  0  0  0  0
  -21.3496  -23.6007   21.5709 C   0  0  0  0  0  0  0  0  0  0  0  0
  -28.8046  -22.0746   20.1753 C   0  0  0  0  0  0  0  0  0  0  0  0
  -22.1451  -34.5876   23.4604 C   0  0  0  0  0  0  0  0  0  0  0  0
  -23.1991  -29.0872   20.1353 C   0  0  0  0  0  0  0  0  0  0  0  0
  -23.9052  -26.7608   21.8188 C   0  0  0  0  0  0  0  0  0  0  0  0
  -21.5228  -33.2572   23.8761 C   0  0  0  0  0  0  0  0  0  0  0  0
  -25.4860  -21.9746   18.8892 C   0  0  0  0  0  0  0  0  0  0  0  0
  -22.5952  -32.3061   24.3979 C   0  0  0  0  0  0  0  0  0  0  0  0
  -24.8944  -20.7073   19.5106 C   0  0  0  0  0  0  0  0  0  0  0  0
  -26.9608  -21.7963   18.5328 C   0  0  0  0  0  0  0  0  0  0  0  0
  -27.2196  -20.0504   20.2515 C   0  0  0  0  0  0  0  0  0  0  0  0
  -23.6293  -31.9907   23.3105 C   0  0  1  0  0  0  0  0  0  0  0  0
  -22.5349  -28.8427   21.4868 C   0  0  1  0  0  0  0  0  0  0  0  0
  -25.7531  -20.2027   20.6869 C   0  0  2  0  0  0  0  0  0  0  0  0
  -31.2337  -19.7467   22.6773 C   0  0  0  0  0  0  0  0  0  0  0  0
  -19.8858  -21.5670   21.7073 C   0  0  0  0  0  0  0  0  0  0  0  0
  -22.3369  -26.4581   25.4408 C   0  0  0  0  0  0  0  0  0  0  0  0
  -21.6802  -24.0524   25.2179 C   0  0  0  0  0  0  0  0  0  0  0  0
  -19.9634  -25.8422   24.9495 C   0  0  0  0  0  0  0  0  0  0  0  0
  -21.0728  -23.4599   18.6277 C   0  0  0  0  0  0  0  0  0  0  0  0
  -32.0387  -25.4820   22.7252 C   0  0  0  0  0  0  0  0  0  0  0  0
  -32.9090  -25.9965   21.5710 C   0  0  0  0  0  0  0  0  0  0  0  0
  -32.3416  -25.7721   20.1727 C   0  0  0  0  0  0  0  0  0  0  0  0
  -30.4602  -26.3849   18.6484 C   0  0  0  0  0  0  0  0  0  0  0  0
  -29.1453  -27.1386   18.6133 C   0  0  0  0  0  0  0  0  0  1  0  0
  -21.6886  -25.4973   23.1338 C   0  0  1  0  0  0  0  0  0  0  0  0
  -20.2548  -22.7970   20.8927 C   0  0  2  0  0  0  0  0  0  0  0  0
  -21.4364  -25.4740   24.6678 C   0  0  0  0  0  0  0  0  0  0  0  0
  -25.6510  -17.7421   20.8148 N   0  0  0  0  0  0  0  0  0  0  0  0
  -25.1988  -18.9199   21.2779 N   0  0  0  0  0  0  0  0  0  0  0  0
  -22.6022  -27.4408   21.9043 N   0  0  0  0  0  0  0  0  0  0  0  0
  -27.7124  -21.3207   19.6962 N   0  0  0  0  0  0  0  0  0  0  0  0
  -23.7013  -19.8869   22.8377 N   0  0  0  0  0  0  0  0  0  0  0  0
  -23.1376  -15.4502   23.4649 N   0  0  0  0  0  0  0  0  0  0  0  0
  -29.4220  -21.5408   21.3060 N   0  0  0  0  0  0  0  0  0  0  0  0
  -23.0992  -31.0225   22.3745 N   0  0  0  0  0  0  0  0  0  0  0  0
  -20.8308  -24.5947   22.3735 N   0  0  0  0  0  0  0  0  0  0  0  0
  -20.7009  -22.3503   19.5427 N   0  3  0  0  0  0  0  0  0  0  0  0
  -31.0547  -26.4997   20.0040 N   0  3  0  0  0  0  0  0  0  0  0  0
  -22.4484  -17.5291   24.1445 O   0  0  0  0  0  0  0  0  0  0  0  0
  -23.6254  -29.0922   23.5661 O   0  0  0  0  0  0  0  0  0  0  0  0
  -20.3857  -27.4136   22.6272 O   0  0  0  0  0  0  0  0  0  0  0  0
  -22.5452  -23.3675   21.4082 O   0  0  0  0  0  0  0  0  0  0  0  0
  -29.1486  -23.1312   19.6394 O   0  0  0  0  0  0  0  0  0  0  0  0
  -25.7814  -11.3761   20.7359 O   0  0  0  0  0  0  0  0  0  0  0  0
  -28.2570  -26.5951   19.5889 O   0  0  0  0  0  0  0  0  0  1  0  0
  -21.3267   -8.1415   20.4254 F   0  0  0  0  0  0  0  0  0  0  0  0
  -24.0054  -11.2017   22.8473 F   0  0  0  0  0  0  0  0  0  0  0  0
  1  2  1  0  0  0  0
  1  5  2  0  0  0  0
  2  6  2  0  0  0  0
  3 10  2  0  0  0  0
  3 18  1  0  0  0  0
  4 11  1  0  0  0  0
  4 18  2  0  0  0  0
  5 20  1  0  0  0  0
  6 22  1  0  0  0  0
  7 12  2  0  0  0  0
  7 21  1  0  0  0  0
  8  9  2  0  0  0  0
  8 24  1  0  0  0  0
  9 25  1  0  0  0  0
 10 27  1  0  0  0  0
 11 27  2  0  0  0  0
 12 28  1  0  0  0  0
 13 14  2  0  0  0  0
 13 29  1  0  0  0  0
 14 30  1  0  0  0  0
 15 23  1  0  0  0  0
 15 28  2  0  0  0  0
 16 24  2  0  0  0  0
 16 26  1  0  0  0  0
 17 30  2  0  0  0  0
 17 31  1  0  0  0  0
 18 32  1  0  0  0  0
 19 32  1  0  0  0  0
 19 33  2  0  0  0  0
 19 34  1  0  0  0  0
 20 22  2  0  0  0  0
 20 39  1  0  0  0  0
 21 23  2  0  0  0  0
 21 40  1  0  0  0  0
 22 48  1  0  0  0  0
 23 41  1  0  0  0  0
 24 57  1  0  0  0  0
 25 26  2  0  0  0  0
 25 51  1  0  0  0  0
 26 71  1  0  0  0  0
 27 81  1  0  0  0  0
 28 82  1  0  0  0  0
 29 31  2  0  0  0  0
 29 81  1  0  0  0  0
 30 83  1  0  0  0  0
 31 84  1  0  0  0  0
 32 65  2  0  0  0  0
 33 66  1  0  0  0  0
 33 69  1  0  0  0  0
 34 70  1  0  0  0  0
 34 76  2  0  0  0  0
 35 49  1  0  0  0  0
 35 72  1  0  0  0  0
 35 77  2  0  0  0  0
 36 62  1  0  0  0  0
 36 67  1  0  0  0  0
 36 78  2  0  0  0  0
 37 63  1  0  0  0  0
 37 73  1  0  0  0  0
 37 79  2  0  0  0  0
 38 68  1  0  0  0  0
 38 71  1  0  0  0  0
 38 80  2  0  0  0  0
 39 42  1  0  0  0  0
 40 49  1  0  0  0  0
 41 67  1  0  0  0  0
 42 44  1  0  0  0  0
 43 45  1  0  0  0  0
 43 46  1  0  0  0  0
 44 48  1  0  0  0  0
 45 50  1  0  0  0  0
 46 68  1  0  0  0  0
 47 50  1  0  0  0  0
 47 68  1  0  0  0  0
 48 72  1  0  0  0  0
 49 67  1  0  0  0  0
 50 66  1  0  0  0  0
 52 63  1  0  0  0  0
 53 64  1  0  0  0  0
 54 64  1  0  0  0  0
 55 64  1  0  0  0  0
 56 74  1  0  0  0  0
 57 58  1  0  0  0  0
 58 59  1  0  0  0  0
 59 75  1  0  0  0  0
 60 61  1  0  0  0  0
 60 75  1  0  0  0  0
 61 82  1  0  0  0  0
 62 64  1  0  0  0  0
 62 73  1  0  0  0  0
 63 74  1  0  0  0  0
 65 66  1  0  0  0  0
M  CHG  2  74   1  75   1
M  ISO  4  38 100  61 101  71 100  82 101
M  END
> <Batch ID>
0135

> <Smiles>
CNC(C)C(=O)NC(C(=O)N1Cc2cc([101O:1][101CH2:1]CNCCCc3ccc(C)c([100NH:0][100C:0](=O)N4CCCC(n5nc(-c6ccc(Oc7ccc(F)cc7F)cc6)c(C(N)=O)c5N)C4)c3)ccc2CC1C(=O)NC1CCCc2ccccc21)C(C)(C)C

> <Shape>
0.203

> <Color>
0.084

> <Negative vol penalty>
0.000

$$$$

  -OEChem-04052321003D

 81 90  0     1  0  0  0  0  0999 V2000
  -27.2242  -38.2294   23.9387 C   0  0  0  0  0  0  0  0  0  0  0  0
  -27.8618  -37.3401   23.0796 C   0  0  0  0  0  0  0  0  0  0  0  0
  -23.7434   -9.6401   22.4135 C   0  0  0  0  0  0  0  0  0  0  0  0
  -24.1375   -9.1401   20.0829 C   0  0  0  0  0  0  0  0  0  0  0  0
  -26.4013  -37.7462   24.9552 C   0  0  0  0  0  0  0  0  0  0  0  0
  -27.6777  -35.9669   23.2373 C   0  0  0  0  0  0  0  0  0  0  0  0
  -27.3004  -29.9111   19.4291 C   0  0  0  0  0  0  0  0  0  0  0  0
  -22.8025   -8.6122   22.4749 C   0  0  0  0  0  0  0  0  0  0  0  0
  -23.1967   -8.1121   20.1443 C   0  0  0  0  0  0  0  0  0  0  0  0
  -27.8565  -28.6336   19.3794 C   0  0  0  0  0  0  0  0  0  0  0  0
  -22.8098   -5.2409   22.7350 C   0  0  0  0  0  0  0  0  0  0  0  0
  -22.8603   -4.3807   23.8318 C   0  0  0  0  0  0  0  0  0  0  0  0
  -26.3494  -27.9164   21.1211 C   0  0  0  0  0  0  0  0  0  0  0  0
  -20.6113   -5.0222   24.4383 C   0  0  0  0  0  0  0  0  0  0  0  0
  -24.4109   -9.9041   21.2174 C   0  0  0  0  0  0  0  0  0  0  0  0
  -26.5641  -11.0841   21.9091 C   0  0  0  0  0  0  0  0  0  0  0  0
  -26.1994  -36.3667   25.1194 C   0  0  0  0  0  0  0  0  0  0  0  0
  -26.2703  -30.2043   20.3343 C   0  0  0  0  0  0  0  0  0  0  0  0
  -26.8524  -35.4647   24.2578 C   0  0  0  0  0  0  0  0  0  0  0  0
  -25.7802  -29.1977   21.1785 C   0  0  0  0  0  0  0  0  0  0  0  0
  -22.5292   -7.8481   21.3403 C   0  0  0  0  0  0  0  0  0  0  0  0
  -27.3831  -27.6368   20.2275 C   0  0  0  0  0  0  0  0  0  0  0  0
  -21.6602   -5.9919   22.4898 C   0  0  0  0  0  0  0  0  0  0  0  0
  -21.7610   -4.2713   24.6834 C   0  0  0  0  0  0  0  0  0  0  0  0
  -20.5609   -5.8824   23.3414 C   0  0  0  0  0  0  0  0  0  0  0  0
  -25.3824  -10.9662   21.1532 C   0  0  0  0  0  0  0  0  0  0  0  0
  -27.1317  -12.2582   21.4780 C   0  0  0  0  0  0  0  0  0  0  0  0
  -27.1008  -10.2105   22.9113 C   0  0  0  0  0  0  0  0  0  0  0  0
  -25.9383  -32.2017   22.7846 C   0  0  0  0  0  0  0  0  0  0  0  0
  -22.8739  -31.1392   22.7319 C   0  0  0  0  0  0  0  0  0  0  0  0
  -20.6762  -28.6757   21.8670 C   0  0  0  0  0  0  0  0  0  0  0  0
  -26.3158  -17.6672   20.3078 C   0  0  0  0  0  0  0  0  0  0  0  0
  -25.3384  -35.8900   26.2622 C   0  0  0  0  0  0  0  0  0  0  0  0
  -25.6629  -31.5801   20.3569 C   0  0  0  0  0  0  0  0  0  0  0  0
  -24.6622  -29.4557   22.1542 C   0  0  0  0  0  0  0  0  0  0  0  0
  -24.8987  -34.4344   26.1276 C   0  0  0  0  0  0  0  0  0  0  0  0
  -26.0020  -15.2189   17.5396 C   0  0  0  0  0  0  0  0  0  0  0  0
  -26.0818  -33.5530   25.7402 C   0  0  0  0  0  0  0  0  0  0  0  0
  -25.8686  -13.9065   18.3134 C   0  0  0  0  0  0  0  0  0  0  0  0
  -26.5936  -20.4674   17.9427 C   0  0  0  0  0  0  0  0  0  0  0  0
  -27.5156  -24.6206   18.5832 C   0  0  0  0  0  0  0  0  0  0  0  0
  -27.0124  -24.3355   21.0324 C   0  0  0  0  0  0  0  0  0  0  0  0
  -25.4091  -16.3792   18.3284 C   0  0  0  0  0  0  0  0  0  0  0  0
  -26.1265  -19.0292   18.1437 C   0  0  0  0  0  0  0  0  0  0  0  0
  -25.8578  -15.2473   20.4718 C   0  0  0  0  0  0  0  0  0  0  0  0
  -26.2060  -20.1437   20.2722 C   0  0  0  0  0  0  0  0  0  0  0  0
  -26.6867  -23.3844   18.2717 C   0  0  0  0  0  0  0  0  0  0  0  0
  -26.1841  -23.1002   20.7159 C   0  0  0  0  0  0  0  0  0  0  0  0
  -26.6580  -33.9690   24.3813 C   0  0  1  0  0  0  0  0  0  0  0  0
  -24.9686  -31.9052   21.6758 C   0  0  1  0  0  0  0  0  0  0  0  0
  -26.4518  -14.0352   19.7325 C   0  0  1  0  0  0  0  0  0  0  0  0
  -26.0019  -21.1584   19.1622 C   0  0  1  0  0  0  0  0  0  0  0  0
  -27.0459  -25.3114   19.8605 C   0  0  0  0  0  0  0  0  0  1  0  0
  -18.2425  -28.0755   21.9877 C   0  0  0  0  0  0  0  0  0  0  0  0
  -23.1908  -30.4593   25.6895 C   0  0  0  0  0  0  0  0  0  0  0  0
  -21.1406  -29.0336   25.5098 C   0  0  0  0  0  0  0  0  0  0  0  0
  -20.9925  -31.4873   25.0850 C   0  0  0  0  0  0  0  0  0  0  0  0
  -20.4383  -28.5639   18.9192 C   0  0  0  0  0  0  0  0  0  0  0  0
  -22.1258  -30.0008   23.3826 C   0  0  1  0  0  0  0  0  0  0  0  0
  -19.3365  -28.7255   21.1549 C   0  0  2  0  0  0  0  0  0  0  0  0
  -21.8848  -30.2406   24.8998 C   0  0  0  0  0  0  0  0  0  0  0  0
  -25.2083  -11.9841   20.3062 N   0  0  0  0  0  0  0  0  0  0  0  0
  -26.2882  -12.7530   20.5273 N   0  0  0  0  0  0  0  0  0  0  0  0
  -24.1053  -30.8186   22.1429 N   0  0  0  0  0  0  0  0  0  0  0  0
  -25.9964  -16.4639   19.6685 N   0  0  0  0  0  0  0  0  0  0  0  0
  -26.1071  -18.8495   19.5992 N   0  0  0  0  0  0  0  0  0  0  0  0
  -28.2651  -12.9054   21.8232 N   0  0  0  0  0  0  0  0  0  0  0  0
  -26.3898   -9.0464   23.2332 N   0  0  0  0  0  0  0  0  0  0  0  0
  -25.8238  -33.4761   23.3063 N   0  0  0  0  0  0  0  0  0  0  0  0
  -20.9049  -29.8176   22.6053 N   0  0  0  0  0  0  0  0  0  0  0  0
  -26.7123  -22.4504   19.4586 N   0  3  0  0  0  0  0  0  0  0  0  0
  -19.4177  -28.0138   19.8480 N   0  3  0  0  0  0  0  0  0  0  0  0
  -28.1707  -10.4632   23.5155 O   0  0  0  0  0  0  0  0  0  0  0  0
  -26.7308  -31.3378   23.1413 O   0  0  0  0  0  0  0  0  0  0  0  0
  -22.3806  -32.2697   22.7394 O   0  0  0  0  0  0  0  0  0  0  0  0
  -21.4415  -27.7179   21.7803 O   0  0  0  0  0  0  0  0  0  0  0  0
  -26.8112  -17.6825   21.4424 O   0  0  0  0  0  0  0  0  0  0  0  0
  -21.6114   -6.8448   21.4000 O   0  0  0  0  0  0  0  0  0  0  0  0
  -27.9281  -26.3809   20.1813 O   0  0  0  0  0  0  0  0  0  1  0  0
  -21.8090   -3.4440   25.7358 F   0  0  0  0  0  0  0  0  0  0  0  0
  -19.4532   -6.6004   23.1103 F   0  0  0  0  0  0  0  0  0  0  0  0
  1  2  1  0  0  0  0
  1  5  2  0  0  0  0
  2  6  2  0  0  0  0
  3  8  2  0  0  0  0
  3 15  1  0  0  0  0
  4  9  1  0  0  0  0
  4 15  2  0  0  0  0
  5 17  1  0  0  0  0
  6 19  1  0  0  0  0
  7 10  2  0  0  0  0
  7 18  1  0  0  0  0
  8 21  1  0  0  0  0
  9 21  2  0  0  0  0
 10 22  1  0  0  0  0
 11 12  2  0  0  0  0
 11 23  1  0  0  0  0
 12 24  1  0  0  0  0
 13 20  1  0  0  0  0
 13 22  2  0  0  0  0
 14 24  2  0  0  0  0
 14 25  1  0  0  0  0
 15 26  1  0  0  0  0
 16 26  1  0  0  0  0
 16 27  2  0  0  0  0
 16 28  1  0  0  0  0
 17 19  2  0  0  0  0
 17 33  1  0  0  0  0
 18 20  2  0  0  0  0
 18 34  1  0  0  0  0
 19 49  1  0  0  0  0
 20 35  1  0  0  0  0
 21 78  1  0  0  0  0
 22 79  1  0  0  0  0
 23 25  2  0  0  0  0
 23 78  1  0  0  0  0
 24 80  1  0  0  0  0
 25 81  1  0  0  0  0
 26 62  2  0  0  0  0
 27 63  1  0  0  0  0
 27 67  1  0  0  0  0
 28 68  1  0  0  0  0
 28 73  2  0  0  0  0
 29 50  1  0  0  0  0
 29 69  1  0  0  0  0
 29 74  2  0  0  0  0
 30 59  1  0  0  0  0
 30 64  1  0  0  0  0
 30 75  2  0  0  0  0
 31 60  1  0  0  0  0
 31 70  1  0  0  0  0
 31 76  2  0  0  0  0
 32 65  1  0  0  0  0
 32 66  1  0  0  0  0
 32 77  2  0  0  0  0
 33 36  1  0  0  0  0
 34 50  1  0  0  0  0
 35 64  1  0  0  0  0
 36 38  1  0  0  0  0
 37 39  1  0  0  0  0
 37 43  1  0  0  0  0
 38 49  1  0  0  0  0
 39 51  1  0  0  0  0
 40 44  1  0  0  0  0
 40 52  1  0  0  0  0
 41 47  1  0  0  0  0
 41 53  1  0  0  0  0
 42 48  1  0  0  0  0
 42 53  1  0  0  0  0
 43 65  1  0  0  0  0
 44 66  1  0  0  0  0
 45 51  1  0  0  0  0
 45 65  1  0  0  0  0
 46 52  1  0  0  0  0
 46 66  1  0  0  0  0
 47 71  1  0  0  0  0
 48 71  1  0  0  0  0
 49 69  1  0  0  0  0
 50 64  1  0  0  0  0
 51 63  1  0  0  0  0
 52 71  1  0  0  0  0
 53 79  1  0  0  0  0
 54 60  1  0  0  0  0
 55 61  1  0  0  0  0
 56 61  1  0  0  0  0
 57 61  1  0  0  0  0
 58 72  1  0  0  0  0
 59 61  1  0  0  0  0
 59 70  1  0  0  0  0
 60 72  1  0  0  0  0
 62 63  1  0  0  0  0
M  CHG  2  71   1  72   1
M  ISO  4  32 100  53 101  66 100  79 101
M  END
> <Batch ID>
0135

> <Smiles>
CNC(C)C(=O)NC(C(=O)N1Cc2cc([101O:1][101CH:1]3CCN(C4CC[100N:0]([100C:0](=O)N5CCCC(n6nc(-c7ccc(Oc8ccc(F)cc8F)cc7)c(C(N)=O)c6N)C5)C4)CC3)ccc2CC1C(=O)NC1CCCc2ccccc21)C(C)(C)C

> <Shape>
0.278

> <Color>
0.123

> <Negative vol penalty>
0.000

$$$$

  -OEChem-04052321003D

 86 95  0     1  0  0  0  0  0999 V2000
  -28.6098  -25.0899   13.6424 C   0  0  0  0  0  0  0  0  0  0  0  0
  -27.6487  -25.3125   14.6233 C   0  0  0  0  0  0  0  0  0  0  0  0
  -27.1282  -19.3741   21.4688 C   0  0  0  0  0  0  0  0  0  0  0  0
  -27.2555  -19.8864   19.1112 C   0  0  0  0  0  0  0  0  0  0  0  0
  -29.9119  -24.7511   14.0080 C   0  0  0  0  0  0  0  0  0  0  0  0
  -27.9890  -25.1955   15.9705 C   0  0  0  0  0  0  0  0  0  0  0  0
  -26.1580  -28.9946   18.7739 C   0  0  0  0  0  0  0  0  0  0  0  0
  -28.3051  -18.6319   21.3711 C   0  0  0  0  0  0  0  0  0  0  0  0
  -28.4324  -19.1442   19.0135 C   0  0  0  0  0  0  0  0  0  0  0  0
  -24.8080  -28.9391   19.1175 C   0  0  0  0  0  0  0  0  0  0  0  0
  -31.0831  -16.3040   21.6661 C   0  0  0  0  0  0  0  0  0  0  0  0
  -31.1199  -15.0582   22.2924 C   0  0  0  0  0  0  0  0  0  0  0  0
  -20.7123  -28.7188   23.1997 C   0  0  0  0  0  0  0  0  0  0  0  0
  -25.4043  -28.1061   21.3015 C   0  0  0  0  0  0  0  0  0  0  0  0
  -20.5195  -27.1728   21.3552 C   0  0  0  0  0  0  0  0  0  0  0  0
  -29.2715  -14.3162   20.9249 C   0  0  0  0  0  0  0  0  0  0  0  0
  -26.6034  -20.0014   20.3389 C   0  0  0  0  0  0  0  0  0  0  0  0
  -25.2689  -22.1399   20.7306 C   0  0  0  0  0  0  0  0  0  0  0  0
  -30.2707  -24.6393   15.3606 C   0  0  0  0  0  0  0  0  0  0  0  0
  -27.1424  -28.5953   19.6892 C   0  0  0  0  0  0  0  0  0  0  0  0
  -29.2968  -24.8536   16.3546 C   0  0  0  0  0  0  0  0  0  0  0  0
  -19.3201  -28.7173   23.3630 C   0  0  0  0  0  0  0  0  0  0  0  0
  -26.7663  -28.1599   20.9679 C   0  0  0  0  0  0  0  0  0  0  0  0
  -18.5263  -27.9133   22.5240 C   0  0  0  0  0  0  0  0  0  0  0  0
  -21.3078  -27.9527   22.1978 C   0  0  0  0  0  0  0  0  0  0  0  0
  -19.1343  -27.1540   21.5153 C   0  0  0  0  0  0  0  0  0  0  0  0
  -28.9572  -18.5169   20.1435 C   0  0  0  0  0  0  0  0  0  0  0  0
  -24.4308  -28.4921   20.3805 C   0  0  0  0  0  0  0  0  0  0  0  0
  -30.1405  -16.5559   20.6692 C   0  0  0  0  0  0  0  0  0  0  0  0
  -30.2141  -14.0643   21.9219 C   0  0  0  0  0  0  0  0  0  0  0  0
  -29.2347  -15.5620   20.2986 C   0  0  0  0  0  0  0  0  0  0  0  0
  -25.3873  -20.7678   20.4391 C   0  0  0  0  0  0  0  0  0  0  0  0
  -23.9167  -22.3801   20.7090 C   0  0  0  0  0  0  0  0  0  0  0  0
  -26.2898  -23.1107   20.9971 C   0  0  0  0  0  0  0  0  0  0  0  0
  -29.3665  -26.3250   19.7432 C   0  0  0  0  0  0  0  0  0  0  0  0
  -30.2588  -27.8079   22.4868 C   0  0  0  0  0  0  0  0  0  0  0  0
  -29.3894  -29.7982   25.1192 C   0  0  0  0  0  0  0  0  0  0  0  0
  -18.8993  -21.7510   18.3477 C   0  0  0  0  0  0  0  0  0  0  0  0
  -31.6790  -24.2245   15.7061 C   0  0  0  0  0  0  0  0  0  0  0  0
  -28.5958  -28.6865   19.3125 C   0  0  0  0  0  0  0  0  0  0  0  0
  -18.6988  -29.5244   24.4771 C   0  0  0  0  0  0  0  0  0  0  0  0
  -27.7853  -27.7392   21.9941 C   0  0  0  0  0  0  0  0  0  0  0  0
  -17.0296  -27.9000   22.6627 C   0  0  0  0  0  0  0  0  0  0  0  0
  -32.0513  -24.4876   17.1630 C   0  0  0  0  0  0  0  0  0  0  0  0
  -20.0061  -19.1759   20.5434 C   0  0  0  0  0  0  0  0  0  0  0  0
  -30.9420  -24.0064   18.0928 C   0  0  0  0  0  0  0  0  0  0  0  0
  -21.4955  -19.4701   20.7307 C   0  0  0  0  0  0  0  0  0  0  0  0
  -19.5438  -19.4878   19.1218 C   0  0  0  0  0  0  0  0  0  0  0  0
  -21.3460  -21.1452   18.8412 C   0  0  0  0  0  0  0  0  0  0  0  0
  -17.2148  -29.7954   24.2638 C   0  0  0  0  0  0  0  0  0  0  0  0
  -29.6335  -24.7605   17.8270 C   0  0  1  0  0  0  0  0  0  0  0  0
  -29.4871  -27.7683   20.1432 C   0  0  1  0  0  0  0  0  0  0  0  0
  -21.8465  -20.8992   20.2748 C   0  0  2  0  0  0  0  0  0  0  0  0
  -30.3219  -30.8037   27.2208 C   0  0  0  0  0  0  0  0  0  0  0  0
  -30.0575  -25.0961   23.8707 C   0  0  0  0  0  0  0  0  0  0  0  0
  -30.0564  -26.2957   26.0682 C   0  0  0  0  0  0  0  0  0  0  0  0
  -32.0309  -26.4720   24.5540 C   0  0  0  0  0  0  0  0  0  0  0  0
  -28.9131  -32.5538   24.1502 C   0  0  0  0  0  0  0  0  0  0  0  0
  -22.7986  -27.9683   22.0290 C   0  0  0  0  0  0  0  0  0  1  0  0
  -17.8656  -24.8809   18.7632 C   0  0  0  0  0  0  0  0  0  0  0  0
  -18.9453  -25.5745   19.5931 C   0  0  0  0  0  0  0  0  0  0  0  0
  -18.4093  -24.0639   17.5931 C   0  0  0  0  0  0  0  0  0  0  0  0
  -29.8904  -27.6715   23.9444 C   0  0  1  0  0  0  0  0  0  0  0  0
  -30.0692  -31.0078   25.7351 C   0  0  2  0  0  0  0  0  0  0  0  0
  -30.4892  -26.3898   24.5895 C   0  0  0  0  0  0  0  0  0  0  0  0
  -24.2047  -20.1776   20.2465 N   0  0  0  0  0  0  0  0  0  0  0  0
  -23.3303  -21.1837   20.4174 N   0  0  0  0  0  0  0  0  0  0  0  0
  -29.1933  -27.8403   21.5759 N   0  0  0  0  0  0  0  0  0  0  0  0
  -19.9057  -20.8582   18.7516 N   0  0  0  0  0  0  0  0  0  0  0  0
  -23.1841  -23.4957   20.9111 N   0  0  0  0  0  0  0  0  0  0  0  0
  -27.6281  -22.6947   20.9798 N   0  0  0  0  0  0  0  0  0  0  0  0
  -18.3640  -26.3580   20.6360 N   0  0  0  0  0  0  0  0  0  0  0  0
  -29.6810  -26.0797   18.4202 N   0  0  0  0  0  0  0  0  0  0  0  0
  -30.3040  -28.9136   24.5880 N   0  0  0  0  0  0  0  0  0  0  0  0
  -19.3274  -23.0317   18.0204 N   0  0  0  0  0  0  0  0  0  0  0  0
  -16.5373  -28.5053   23.9421 N   0  3  0  0  0  0  0  0  0  0  0  0
  -29.2210  -32.2213   25.5650 N   0  3  0  0  0  0  0  0  0  0  0  0
  -26.0224  -24.3078   21.2596 O   0  0  0  0  0  0  0  0  0  0  0  0
  -29.0157  -25.4951   20.5738 O   0  0  0  0  0  0  0  0  0  0  0  0
  -31.4478  -27.8902   22.1687 O   0  0  0  0  0  0  0  0  0  0  0  0
  -28.1692  -29.6510   25.1134 O   0  0  0  0  0  0  0  0  0  0  0  0
  -17.7070  -21.4320   18.2886 O   0  0  0  0  0  0  0  0  0  0  0  0
  -30.1058  -17.7929   20.0478 O   0  0  0  0  0  0  0  0  0  0  0  0
  -23.1137  -28.4363   20.7182 O   0  0  0  0  0  0  0  0  0  1  0  0
  -30.2506  -12.8675   22.5223 F   0  0  0  0  0  0  0  0  0  0  0  0
  -28.3277  -15.7977   19.3408 F   0  0  0  0  0  0  0  0  0  0  0  0
  1  2  1  0  0  0  0
  1  5  2  0  0  0  0
  2  6  2  0  0  0  0
  3  8  2  0  0  0  0
  3 17  1  0  0  0  0
  4  9  1  0  0  0  0
  4 17  2  0  0  0  0
  5 19  1  0  0  0  0
  6 21  1  0  0  0  0
  7 10  2  0  0  0  0
  7 20  1  0  0  0  0
  8 27  1  0  0  0  0
  9 27  2  0  0  0  0
 10 28  1  0  0  0  0
 11 12  2  0  0  0  0
 11 29  1  0  0  0  0
 12 30  1  0  0  0  0
 13 22  2  0  0  0  0
 13 25  1  0  0  0  0
 14 23  1  0  0  0  0
 14 28  2  0  0  0  0
 15 25  2  0  0  0  0
 15 26  1  0  0  0  0
 16 30  2  0  0  0  0
 16 31  1  0  0  0  0
 17 32  1  0  0  0  0
 18 32  1  0  0  0  0
 18 33  2  0  0  0  0
 18 34  1  0  0  0  0
 19 21  2  0  0  0  0
 19 39  1  0  0  0  0
 20 23  2  0  0  0  0
 20 40  1  0  0  0  0
 21 51  1  0  0  0  0
 22 24  1  0  0  0  0
 22 41  1  0  0  0  0
 23 42  1  0  0  0  0
 24 26  2  0  0  0  0
 24 43  1  0  0  0  0
 25 59  1  0  0  0  0
 26 72  1  0  0  0  0
 27 83  1  0  0  0  0
 28 84  1  0  0  0  0
 29 31  2  0  0  0  0
 29 83  1  0  0  0  0
 30 85  1  0  0  0  0
 31 86  1  0  0  0  0
 32 66  2  0  0  0  0
 33 67  1  0  0  0  0
 33 70  1  0  0  0  0
 34 71  1  0  0  0  0
 34 78  2  0  0  0  0
 35 52  1  0  0  0  0
 35 73  1  0  0  0  0
 35 79  2  0  0  0  0
 36 63  1  0  0  0  0
 36 68  1  0  0  0  0
 36 80  2  0  0  0  0
 37 64  1  0  0  0  0
 37 74  1  0  0  0  0
 37 81  2  0  0  0  0
 38 69  1  0  0  0  0
 38 75  1  0  0  0  0
 38 82  2  0  0  0  0
 39 44  1  0  0  0  0
 40 52  1  0  0  0  0
 41 50  1  0  0  0  0
 42 68  1  0  0  0  0
 43 76  1  0  0  0  0
 44 46  1  0  0  0  0
 45 47  1  0  0  0  0
 45 48  1  0  0  0  0
 46 51  1  0  0  0  0
 47 53  1  0  0  0  0
 48 69  1  0  0  0  0
 49 53  1  0  0  0  0
 49 69  1  0  0  0  0
 50 76  1  0  0  0  0
 51 73  1  0  0  0  0
 52 68  1  0  0  0  0
 53 67  1  0  0  0  0
 54 64  1  0  0  0  0
 55 65  1  0  0  0  0
 56 65  1  0  0  0  0
 57 65  1  0  0  0  0
 58 77  1  0  0  0  0
 59 84  1  0  0  0  0
 60 61  1  0  0  0  0
 60 62  1  0  0  0  0
 61 72  1  0  0  0  0
 62 75  1  0  0  0  0
 63 65  1  0  0  0  0
 63 74  1  0  0  0  0
 64 77  1  0  0  0  0
 66 67  1  0  0  0  0
M  CHG  2  76   1  77   1
M  ISO  4  38 100  59 101  75 100  84 101
M  END
> <Batch ID>
0135

> <Smiles>
CNC(C)C(=O)NC(C(=O)N1Cc2cc([101O:1][101CH2:1]c3cc4c(c(NCCC[100NH:0][100C:0](=O)N5CCCC(n6nc(-c7ccc(Oc8ccc(F)cc8F)cc7)c(C(N)=O)c6N)C5)c3)CNCC4)ccc2CC1C(=O)NC1CCCc2ccccc21)C(C)(C)C

> <Shape>
0.217

> <Color>
0.058

> <Negative vol penalty>
0.000

$$$$

  -OEChem-04052321003D

 89 98  0     1  0  0  0  0  0999 V2000
  -24.6119  -38.6102   23.2295 C   0  0  0  0  0  0  0  0  0  0  0  0
  -25.8467  -38.0109   23.0026 C   0  0  0  0  0  0  0  0  0  0  0  0
  -22.5684  -10.3838   20.2814 C   0  0  0  0  0  0  0  0  0  0  0  0
  -24.3037   -9.3958   21.6414 C   0  0  0  0  0  0  0  0  0  0  0  0
  -23.6677  -37.9753   24.0352 C   0  0  0  0  0  0  0  0  0  0  0  0
  -26.1384  -36.7766   23.5822 C   0  0  0  0  0  0  0  0  0  0  0  0
  -27.8515  -31.0824   19.5162 C   0  0  0  0  0  0  0  0  0  0  0  0
  -31.7745  -18.2564   20.5814 C   0  0  0  0  0  0  0  0  0  0  0  0
  -31.5411  -19.4352   19.8731 C   0  0  0  0  0  0  0  0  0  0  0  0
  -21.8100   -9.2195   20.4033 C   0  0  0  0  0  0  0  0  0  0  0  0
  -23.5452   -8.2315   21.7634 C   0  0  0  0  0  0  0  0  0  0  0  0
  -28.3927  -30.0017   18.8195 C   0  0  0  0  0  0  0  0  0  0  0  0
  -19.8039   -7.7841   22.7160 C   0  0  0  0  0  0  0  0  0  0  0  0
  -18.4455   -7.9223   23.0008 C   0  0  0  0  0  0  0  0  0  0  0  0
  -28.4846  -28.7153   20.8651 C   0  0  0  0  0  0  0  0  0  0  0  0
  -29.3909  -19.6577   20.9522 C   0  0  0  0  0  0  0  0  0  0  0  0
  -17.8979   -6.7805   20.9432 C   0  0  0  0  0  0  0  0  0  0  0  0
  -23.8153  -10.4719   20.9004 C   0  0  0  0  0  0  0  0  0  0  0  0
  -24.2375  -12.9718   21.1827 C   0  0  0  0  0  0  0  0  0  0  0  0
  -23.9443  -36.7281   24.6172 C   0  0  0  0  0  0  0  0  0  0  0  0
  -27.6101  -30.9781   20.8888 C   0  0  0  0  0  0  0  0  0  0  0  0
  -25.1975  -36.1250   24.3976 C   0  0  0  0  0  0  0  0  0  0  0  0
  -27.9310  -29.7901   21.5660 C   0  0  0  0  0  0  0  0  0  0  0  0
  -30.8161  -17.7782   21.4750 C   0  0  0  0  0  0  0  0  0  0  0  0
  -30.3493  -20.1358   20.0586 C   0  0  0  0  0  0  0  0  0  0  0  0
  -29.6244  -18.4789   21.6604 C   0  0  0  0  0  0  0  0  0  0  0  0
  -22.2983   -8.1434   21.1443 C   0  0  0  0  0  0  0  0  0  0  0  0
  -28.7087  -28.8212   19.4924 C   0  0  0  0  0  0  0  0  0  0  0  0
  -20.2094   -7.1443   21.5447 C   0  0  0  0  0  0  0  0  0  0  0  0
  -17.4925   -7.4205   22.1145 C   0  0  0  0  0  0  0  0  0  0  0  0
  -19.2564   -6.6425   20.6583 C   0  0  0  0  0  0  0  0  0  0  0  0
  -24.5995  -11.6741   20.7744 C   0  0  0  0  0  0  0  0  0  0  0  0
  -25.3164  -13.7516   20.8443 C   0  0  0  0  0  0  0  0  0  0  0  0
  -23.0338  -13.4313   21.8116 C   0  0  0  0  0  0  0  0  0  0  0  0
  -26.3323  -32.6306   24.0053 C   0  0  0  0  0  0  0  0  0  0  0  0
  -25.3619  -29.7214   24.0774 C   0  0  0  0  0  0  0  0  0  0  0  0
  -24.1417  -26.5761   23.5720 C   0  0  0  0  0  0  0  0  0  0  0  0
  -30.8266  -14.6136   20.6444 C   0  0  0  0  0  0  0  0  0  0  0  0
  -22.9100  -36.1024   25.5191 C   0  0  0  0  0  0  0  0  0  0  0  0
  -27.0857  -32.1380   21.6909 C   0  0  0  0  0  0  0  0  0  0  0  0
  -27.6864  -29.7352   23.0492 C   0  0  0  0  0  0  0  0  0  0  0  0
  -23.1559  -34.6207   25.7918 C   0  0  0  0  0  0  0  0  0  0  0  0
  -29.3747  -12.7066   18.0116 C   0  0  0  0  0  0  0  0  0  0  0  0
  -24.6193  -34.3792   26.1478 C   0  0  0  0  0  0  0  0  0  0  0  0
  -27.9152  -24.2536   18.6379 C   0  0  0  0  0  0  0  0  0  0  0  0
  -29.9920  -24.3053   20.0802 C   0  0  0  0  0  0  0  0  0  0  0  0
  -27.9762  -12.3700   18.5319 C   0  0  0  0  0  0  0  0  0  0  0  0
  -28.1703  -25.7002   18.2253 C   0  0  0  0  0  0  0  0  0  0  0  0
  -30.2410  -25.7519   19.6641 C   0  0  0  0  0  0  0  0  0  0  0  0
  -30.4117  -12.6956   19.1325 C   0  0  0  0  0  0  0  0  0  0  0  0
  -28.6821  -13.2101   20.8111 C   0  0  0  0  0  0  0  0  0  0  0  0
  -25.5418  -34.7751   24.9886 C   0  0  1  0  0  0  0  0  0  0  0  0
  -26.1527  -31.7068   22.8367 C   0  0  1  0  0  0  0  0  0  0  0  0
  -29.2198  -23.5316   19.0026 C   0  0  0  0  0  0  0  0  0  0  0  0
  -27.5924  -13.2636   19.7267 C   0  0  2  0  0  0  0  0  0  0  0  0
  -28.9412  -26.4652   19.2978 C   0  0  0  0  0  0  0  0  0  1  0  0
  -26.5717  -17.9743   23.7903 C   0  0  0  0  0  0  0  0  0  0  0  0
  -22.6899  -24.8310   24.6418 C   0  0  0  0  0  0  0  0  0  0  0  0
  -27.6159  -29.0400   26.0162 C   0  0  0  0  0  0  0  0  0  0  0  0
  -26.5483  -26.8016   26.3596 C   0  0  0  0  0  0  0  0  0  0  0  0
  -25.3178  -28.8782   26.9893 C   0  0  0  0  0  0  0  0  0  0  0  0
  -22.2297  -26.6158   21.3133 C   0  0  0  0  0  0  0  0  0  0  0  0
  -31.0922  -16.5128   22.2198 C   0  0  0  0  0  0  0  0  0  0  0  0
  -28.9349  -22.1035   19.4639 C   0  0  0  0  0  0  0  0  0  0  0  0
  -27.4079  -18.6922   22.7863 C   0  0  0  0  0  0  0  0  0  0  0  0
  -25.6236  -28.3118   24.5443 C   0  0  1  0  0  0  0  0  0  0  0  0
  -22.7374  -26.0103   23.6828 C   0  0  2  0  0  0  0  0  0  0  0  0
  -26.2838  -28.2666   25.9513 C   0  0  0  0  0  0  0  0  0  0  0  0
  -25.8133  -11.6280   20.2190 N   0  0  0  0  0  0  0  0  0  0  0  0
  -26.2234  -12.9065   20.2757 N   0  0  0  0  0  0  0  0  0  0  0  0
  -26.3900  -30.3538   23.3678 N   0  0  0  0  0  0  0  0  0  0  0  0
  -29.9884  -13.5639   20.2339 N   0  0  0  0  0  0  0  0  0  0  0  0
  -25.5681  -15.0709   20.9805 N   0  0  0  0  0  0  0  0  0  0  0  0
  -22.0263  -12.4973   22.0888 N   0  0  0  0  0  0  0  0  0  0  0  0
  -30.1152  -21.3153   19.3478 N   0  0  0  0  0  0  0  0  0  0  0  0
  -28.6434  -18.0098   22.5616 N   0  0  0  0  0  0  0  0  0  0  0  0
  -25.5301  -33.7549   23.9622 N   0  0  0  0  0  0  0  0  0  0  0  0
  -24.3472  -27.6104   24.4604 N   0  0  0  0  0  0  0  0  0  0  0  0
  -30.3470  -15.3923   21.6905 N   0  0  0  0  0  0  0  0  0  0  0  0
  -22.2573  -25.5509   22.3488 N   0  3  0  0  0  0  0  0  0  0  0  0
  -22.8502  -14.6373   22.1038 O   0  0  0  0  0  0  0  0  0  0  0  0
  -27.1381  -32.3447   24.8832 O   0  0  0  0  0  0  0  0  0  0  0  0
  -24.2784  -30.2517   24.3382 O   0  0  0  0  0  0  0  0  0  0  0  0
  -24.9743  -26.1413   22.7794 O   0  0  0  0  0  0  0  0  0  0  0  0
  -31.9189  -14.8433   20.1142 O   0  0  0  0  0  0  0  0  0  0  0  0
  -21.5584   -7.0072   21.2636 O   0  0  0  0  0  0  0  0  0  0  0  0
  -29.2327  -27.7685   18.8054 O   0  0  0  0  0  0  0  0  0  1  0  0
  -16.1880   -7.5518   22.3890 F   0  0  0  0  0  0  0  0  0  0  0  0
  -19.6398   -6.0257   19.5321 F   0  0  0  0  0  0  0  0  0  0  0  0
  1  2  1  0  0  0  0
  1  5  2  0  0  0  0
  2  6  2  0  0  0  0
  3 10  2  0  0  0  0
  3 18  1  0  0  0  0
  4 11  1  0  0  0  0
  4 18  2  0  0  0  0
  5 20  1  0  0  0  0
  6 22  1  0  0  0  0
  7 12  2  0  0  0  0
  7 21  1  0  0  0  0
  8  9  2  0  0  0  0
  8 24  1  0  0  0  0
  9 25  1  0  0  0  0
 10 27  1  0  0  0  0
 11 27  2  0  0  0  0
 12 28  1  0  0  0  0
 13 14  2  0  0  0  0
 13 29  1  0  0  0  0
 14 30  1  0  0  0  0
 15 23  1  0  0  0  0
 15 28  2  0  0  0  0
 16 25  2  0  0  0  0
 16 26  1  0  0  0  0
 17 30  2  0  0  0  0
 17 31  1  0  0  0  0
 18 32  1  0  0  0  0
 19 32  1  0  0  0  0
 19 33  2  0  0  0  0
 19 34  1  0  0  0  0
 20 22  2  0  0  0  0
 20 39  1  0  0  0  0
 21 23  2  0  0  0  0
 21 40  1  0  0  0  0
 22 52  1  0  0  0  0
 23 41  1  0  0  0  0
 24 26  2  0  0  0  0
 24 63  1  0  0  0  0
 25 75  1  0  0  0  0
 26 76  1  0  0  0  0
 27 86  1  0  0  0  0
 28 87  1  0  0  0  0
 29 31  2  0  0  0  0
 29 86  1  0  0  0  0
 30 88  1  0  0  0  0
 31 89  1  0  0  0  0
 32 69  2  0  0  0  0
 33 70  1  0  0  0  0
 33 73  1  0  0  0  0
 34 74  1  0  0  0  0
 34 81  2  0  0  0  0
 35 53  1  0  0  0  0
 35 77  1  0  0  0  0
 35 82  2  0  0  0  0
 36 66  1  0  0  0  0
 36 71  1  0  0  0  0
 36 83  2  0  0  0  0
 37 67  1  0  0  0  0
 37 78  1  0  0  0  0
 37 84  2  0  0  0  0
 38 72  1  0  0  0  0
 38 79  1  0  0  0  0
 38 85  2  0  0  0  0
 39 42  1  0  0  0  0
 40 53  1  0  0  0  0
 41 71  1  0  0  0  0
 42 44  1  0  0  0  0
 43 47  1  0  0  0  0
 43 50  1  0  0  0  0
 44 52  1  0  0  0  0
 45 48  1  0  0  0  0
 45 54  1  0  0  0  0
 46 49  1  0  0  0  0
 46 54  1  0  0  0  0
 47 55  1  0  0  0  0
 48 56  1  0  0  0  0
 49 56  1  0  0  0  0
 50 72  1  0  0  0  0
 51 55  1  0  0  0  0
 51 72  1  0  0  0  0
 52 77  1  0  0  0  0
 53 71  1  0  0  0  0
 54 64  1  0  0  0  0
 55 70  1  0  0  0  0
 56 87  1  0  0  0  0
 57 65  1  0  0  0  0
 58 67  1  0  0  0  0
 59 68  1  0  0  0  0
 60 68  1  0  0  0  0
 61 68  1  0  0  0  0
 62 80  1  0  0  0  0
 63 79  1  0  0  0  0
 64 75  1  0  0  0  0
 65 76  1  0  0  0  0
 66 68  1  0  0  0  0
 66 78  1  0  0  0  0
 67 80  1  0  0  0  0
 69 70  1  0  0  0  0
M  CHG  1  80   1
M  ISO  4  38 100  56 101  79 100  87 101
M  END
> <Batch ID>
0135

> <Smiles>
CCNc1cc(NCC2CC[101CH:1]([101O:1]c3ccc4c(c3)CN(C(=O)C(NC(=O)C(C)NC)C(C)(C)C)C(C(=O)NC3CCCc5ccccc53)C4)CC2)ccc1C[100NH:0][100C:0](=O)N1CCCC(n2nc(-c3ccc(Oc4ccc(F)cc4F)cc3)c(C(N)=O)c2N)C1

> <Shape>
0.341

> <Color>
0.188

> <Negative vol penalty>
0.000

$$$$

  -OEChem-04052321003D

 91100  0     1  0  0  0  0  0999 V2000
  -25.7083  -13.3295   28.7688 C   0  0  0  0  0  0  0  0  0  0  0  0
  -26.7732  -13.6604   27.9369 C   0  0  0  0  0  0  0  0  0  0  0  0
  -23.3382  -10.1583   22.2405 C   0  0  0  0  0  0  0  0  0  0  0  0
  -23.5787   -9.5434   19.9164 C   0  0  0  0  0  0  0  0  0  0  0  0
  -24.7072  -14.2658   29.0237 C   0  0  0  0  0  0  0  0  0  0  0  0
  -26.8368  -14.9277   27.3585 C   0  0  0  0  0  0  0  0  0  0  0  0
  -31.5731  -19.8816   25.2745 C   0  0  0  0  0  0  0  0  0  0  0  0
  -22.5956   -9.0001   22.4701 C   0  0  0  0  0  0  0  0  0  0  0  0
  -22.8361   -8.3852   20.1460 C   0  0  0  0  0  0  0  0  0  0  0  0
  -31.9041  -20.6549   24.1626 C   0  0  0  0  0  0  0  0  0  0  0  0
  -23.3512   -5.3204   21.4735 C   0  0  0  0  0  0  0  0  0  0  0  0
  -23.8291   -4.1277   20.9307 C   0  0  0  0  0  0  0  0  0  0  0  0
  -30.1589  -22.2178   24.7376 C   0  0  0  0  0  0  0  0  0  0  0  0
  -21.7907   -3.8913   19.6555 C   0  0  0  0  0  0  0  0  0  0  0  0
  -23.8297  -10.4300   20.9636 C   0  0  0  0  0  0  0  0  0  0  0  0
  -24.1758  -12.9569   20.9128 C   0  0  0  0  0  0  0  0  0  0  0  0
  -24.7637  -15.5484   28.4558 C   0  0  0  0  0  0  0  0  0  0  0  0
  -30.5236  -20.2656   26.1216 C   0  0  0  0  0  0  0  0  0  0  0  0
  -25.8348  -15.8815   27.6050 C   0  0  0  0  0  0  0  0  0  0  0  0
  -29.8182  -21.4491   25.8610 C   0  0  0  0  0  0  0  0  0  0  0  0
  -22.3446   -8.1135   21.4229 C   0  0  0  0  0  0  0  0  0  0  0  0
  -31.1951  -21.8217   23.8924 C   0  0  0  0  0  0  0  0  0  0  0  0
  -22.0930   -5.7985   21.1074 C   0  0  0  0  0  0  0  0  0  0  0  0
  -23.0489   -3.4132   20.0217 C   0  0  0  0  0  0  0  0  0  0  0  0
  -21.3128   -5.0839   20.1984 C   0  0  0  0  0  0  0  0  0  0  0  0
  -24.5964  -11.6265   20.7257 C   0  0  0  0  0  0  0  0  0  0  0  0
  -25.2620  -13.7148   20.5491 C   0  0  0  0  0  0  0  0  0  0  0  0
  -22.9160  -13.4624   21.3742 C   0  0  0  0  0  0  0  0  0  0  0  0
  -27.7426  -18.9818   26.9714 C   0  0  0  0  0  0  0  0  0  0  0  0
  -27.6432  -21.5058   29.0065 C   0  0  0  0  0  0  0  0  0  0  0  0
  -28.4378  -25.0229   28.8807 C   0  0  0  0  0  0  0  0  0  0  0  0
  -30.7513  -14.7162   20.6509 C   0  0  0  0  0  0  0  0  0  0  0  0
  -23.6336  -16.5108   28.7228 C   0  0  0  0  0  0  0  0  0  0  0  0
  -30.1964  -19.4346   27.3319 C   0  0  0  0  0  0  0  0  0  0  0  0
  -28.6962  -21.9158   26.7508 C   0  0  0  0  0  0  0  0  0  0  0  0
  -23.9697  -17.9576   28.3704 C   0  0  0  0  0  0  0  0  0  0  0  0
  -34.8907  -27.3106   21.8279 C   0  0  0  0  0  0  0  0  0  0  0  0
  -29.5566  -12.4075   18.2179 C   0  0  0  0  0  0  0  0  0  0  0  0
  -24.6312  -18.0330   26.9980 C   0  0  0  0  0  0  0  0  0  0  0  0
  -34.3742  -25.8581   21.7681 C   0  0  0  0  0  0  0  0  0  0  0  0
  -33.4737  -27.7567   21.4118 C   0  0  0  0  0  0  0  0  0  0  0  0
  -28.1279  -12.1038   18.6724 C   0  0  0  0  0  0  0  0  0  0  0  0
  -29.6271  -20.3701   17.7888 C   0  0  0  0  0  0  0  0  0  0  0  0
  -30.4997  -12.5899   19.4051 C   0  0  0  0  0  0  0  0  0  0  0  0
  -28.6300  -13.2826   20.8535 C   0  0  0  0  0  0  0  0  0  0  0  0
  -29.4373  -18.9514   17.2892 C   0  0  0  0  0  0  0  0  0  0  0  0
  -25.9521  -17.2542   26.9788 C   0  0  1  0  0  0  0  0  0  0  0  0
  -28.7731  -19.6496   27.8373 C   0  0  1  0  0  0  0  0  0  0  0  0
  -33.3045  -26.3584   20.7627 C   0  0  0  0  0  0  0  0  0  0  0  0
  -27.6304  -13.1458   19.6922 C   0  0  2  0  0  0  0  0  0  0  0  0
  -29.8232  -20.1930   19.2841 C   0  0  2  0  0  0  0  0  0  0  0  0
  -28.7562  -19.1611   19.6400 C   0  0  2  0  0  0  0  0  0  0  0  0
  -29.1220  -26.6072   30.7026 C   0  0  0  0  0  0  0  0  0  0  0  0
  -28.6214  -19.1840   22.1344 C   0  0  0  0  0  0  0  0  0  0  0  0
  -24.6663  -22.1569   29.1607 C   0  0  0  0  0  0  0  0  0  0  0  0
  -25.2814  -24.5530   29.5459 C   0  0  0  0  0  0  0  0  0  0  0  0
  -25.9828  -22.8081   31.1849 C   0  0  0  0  0  0  0  0  0  0  0  0
  -27.3983  -17.6943   18.0875 C   0  0  0  0  0  0  0  0  0  0  0  0
  -30.8965  -25.8091   27.4329 C   0  0  0  0  0  0  0  0  0  0  0  0
  -31.9317  -25.7265   20.8616 C   0  0  0  0  0  0  0  0  0  0  0  0
  -30.5541  -18.0138   21.0346 C   0  0  0  0  0  0  0  0  0  0  0  0
  -30.8494  -16.8281   21.9507 C   0  0  0  0  0  0  0  0  0  0  0  0
  -30.8853  -22.2299   19.9208 C   0  0  0  0  0  0  0  0  0  0  0  0
  -30.4598  -23.3192   22.1975 C   0  0  0  0  0  0  0  0  0  1  0  0
  -27.1219  -22.9205   28.9306 C   0  0  1  0  0  0  0  0  0  0  0  0
  -29.6008  -25.7169   29.5664 C   0  0  2  0  0  0  0  0  0  0  0  0
  -29.0598  -18.3779   20.9067 C   0  0  2  0  0  0  0  0  0  0  0  0
  -30.7481  -23.5322   20.7118 C   0  0  1  0  0  0  0  0  0  0  0  0
  -25.7722  -23.0959   29.6823 C   0  0  0  0  0  0  0  0  0  0  0  0
  -25.8518  -11.5408   20.2777 N   0  0  0  0  0  0  0  0  0  0  0  0
  -26.2294  -12.8269   20.1803 N   0  0  0  0  0  0  0  0  0  0  0  0
  -28.4100  -21.0658   27.9183 N   0  0  0  0  0  0  0  0  0  0  0  0
  -29.9710  -13.5922   20.3333 N   0  0  0  0  0  0  0  0  0  0  0  0
  -25.4745  -15.0474   20.5120 N   0  0  0  0  0  0  0  0  0  0  0  0
  -21.9171  -13.7311   20.4286 N   0  0  0  0  0  0  0  0  0  0  0  0
  -26.9984  -18.0178   27.6242 N   0  0  0  0  0  0  0  0  0  0  0  0
  -28.1952  -23.7780   29.4216 N   0  0  0  0  0  0  0  0  0  0  0  0
  -30.1728  -15.6203   21.5333 N   0  0  0  0  0  0  0  0  0  0  0  0
  -29.6697  -21.4270   20.0020 N   0  0  0  0  0  0  0  0  0  0  0  0
  -28.7564  -18.2232   18.4362 N   0  3  1  0  0  0  0  0  0  0  0  0
  -30.3484  -26.5605   28.5914 N   0  3  0  0  0  0  0  0  0  0  0  0
  -32.0435  -24.2715   20.5960 N   0  3  0  0  0  0  0  0  0  0  0  0
  -22.6886  -13.6853   22.5876 O   0  0  0  0  0  0  0  0  0  0  0  0
  -27.6300  -19.3175   25.7982 O   0  0  0  0  0  0  0  0  0  0  0  0
  -27.3858  -20.8189   29.9983 O   0  0  0  0  0  0  0  0  0  0  0  0
  -27.8054  -25.5355   27.9600 O   0  0  0  0  0  0  0  0  0  0  0  0
  -31.8778  -14.9029   20.1786 O   0  0  0  0  0  0  0  0  0  0  0  0
  -21.6202   -6.9832   21.6466 O   0  0  0  0  0  0  0  0  0  0  0  0
  -31.5157  -22.5779   22.8074 O   0  0  0  0  0  0  0  0  0  1  0  0
  -23.5087   -2.2686   19.4993 F   0  0  0  0  0  0  0  0  0  0  0  0
  -20.1037   -5.5388   19.8420 F   0  0  0  0  0  0  0  0  0  0  0  0
  1  2  1  0  0  0  0
  1  5  2  0  0  0  0
  2  6  2  0  0  0  0
  3  8  2  0  0  0  0
  3 15  1  0  0  0  0
  4  9  1  0  0  0  0
  4 15  2  0  0  0  0
  5 17  1  0  0  0  0
  6 19  1  0  0  0  0
  7 10  2  0  0  0  0
  7 18  1  0  0  0  0
  8 21  1  0  0  0  0
  9 21  2  0  0  0  0
 10 22  1  0  0  0  0
 11 12  2  0  0  0  0
 11 23  1  0  0  0  0
 12 24  1  0  0  0  0
 13 20  1  0  0  0  0
 13 22  2  0  0  0  0
 14 24  2  0  0  0  0
 14 25  1  0  0  0  0
 15 26  1  0  0  0  0
 16 26  1  0  0  0  0
 16 27  2  0  0  0  0
 16 28  1  0  0  0  0
 17 19  2  0  0  0  0
 17 33  1  0  0  0  0
 18 20  2  0  0  0  0
 18 34  1  0  0  0  0
 19 47  1  0  0  0  0
 20 35  1  0  0  0  0
 21 88  1  0  0  0  0
 22 89  1  0  0  0  0
 23 25  2  0  0  0  0
 23 88  1  0  0  0  0
 24 90  1  0  0  0  0
 25 91  1  0  0  0  0
 26 70  2  0  0  0  0
 27 71  1  0  0  0  0
 27 74  1  0  0  0  0
 28 75  1  0  0  0  0
 28 83  2  0  0  0  0
 29 48  1  0  0  0  0
 29 76  1  0  0  0  0
 29 84  2  0  0  0  0
 30 65  1  0  0  0  0
 30 72  1  0  0  0  0
 30 85  2  0  0  0  0
 31 66  1  0  0  0  0
 31 77  1  0  0  0  0
 31 86  2  0  0  0  0
 32 73  1  0  0  0  0
 32 78  1  0  0  0  0
 32 87  2  0  0  0  0
 33 36  1  0  0  0  0
 34 48  1  0  0  0  0
 35 72  1  0  0  0  0
 36 39  1  0  0  0  0
 37 40  1  0  0  0  0
 37 41  1  0  0  0  0
 38 42  1  0  0  0  0
 38 44  1  0  0  0  0
 39 47  1  0  0  0  0
 40 49  1  0  0  0  0
 41 49  1  0  0  0  0
 42 50  1  0  0  0  0
 43 46  1  0  0  0  0
 43 51  1  0  0  0  0
 44 73  1  0  0  0  0
 45 50  1  0  0  0  0
 45 73  1  0  0  0  0
 46 80  1  0  0  0  0
 47 76  1  0  0  0  0
 48 72  1  0  0  0  0
 49 60  1  0  0  0  0
 50 71  1  0  0  0  0
 51 52  1  0  0  0  0
 51 79  1  0  0  0  0
 52 67  1  0  0  0  0
 52 80  1  0  0  0  0
 53 66  1  0  0  0  0
 54 67  1  0  0  0  0
 55 69  1  0  0  0  0
 56 69  1  0  0  0  0
 57 69  1  0  0  0  0
 58 80  1  0  0  0  0
 59 81  1  0  0  0  0
 60 82  1  0  0  0  0
 61 62  1  0  0  0  0
 61 67  1  0  0  0  0
 62 78  1  0  0  0  0
 63 68  1  0  0  0  0
 63 79  1  0  0  0  0
 64 68  1  0  0  0  0
 64 89  1  0  0  0  0
 65 69  1  0  0  0  0
 65 77  1  0  0  0  0
 66 81  1  0  0  0  0
 68 82  1  0  0  0  0
 70 71  1  0  0  0  0
M  CHG  3  80   1  81   1  82   1
M  ISO  4  32 100  64 101  78 100  89 101
M  END
> <Batch ID>
0135

> <Smiles>
CNC(C)C(=O)NC(C(=O)N1Cc2cc([101O:1][101CH2:1]C(CNC3CCN(C)C3C(C)CC[100NH:0][100C:0](=O)N3CCCC(n4nc(-c5ccc(Oc6ccc(F)cc6F)cc5)c(C(N)=O)c4N)C3)NCC3CCC3)ccc2CC1C(=O)NC1CCCc2ccccc21)C(C)(C)C

> <Shape>
0.192

> <Color>
0.142

> <Negative vol penalty>
0.000

$$$$

  -OEChem-04052321003D

 89 99  0     1  0  0  0  0  0999 V2000
  -30.0694  -35.6493   19.6539 C   0  0  0  0  0  0  0  0  0  0  0  0
  -30.0460  -34.2783   19.8892 C   0  0  0  0  0  0  0  0  0  0  0  0
  -25.3170  -14.4038   23.1810 C   0  0  0  0  0  0  0  0  0  0  0  0
  -27.4064  -14.8842   22.0670 C   0  0  0  0  0  0  0  0  0  0  0  0
  -29.1490  -36.4805   20.2909 C   0  0  0  0  0  0  0  0  0  0  0  0
  -29.1028  -33.7379   20.7626 C   0  0  0  0  0  0  0  0  0  0  0  0
  -26.9246  -29.5528   18.9226 C   0  0  0  0  0  0  0  0  0  0  0  0
  -25.1259  -13.3019   22.3474 C   0  0  0  0  0  0  0  0  0  0  0  0
  -27.2153  -13.7822   21.2335 C   0  0  0  0  0  0  0  0  0  0  0  0
  -27.6580  -28.3693   18.9939 C   0  0  0  0  0  0  0  0  0  0  0  0
  -26.2553  -10.1227   22.1230 C   0  0  0  0  0  0  0  0  0  0  0  0
  -25.8352   -8.9299   22.7114 C   0  0  0  0  0  0  0  0  0  0  0  0
  -26.4039  -27.7169   20.9486 C   0  0  0  0  0  0  0  0  0  0  0  0
  -30.7065  -24.4589   20.3331 C   0  0  0  0  0  0  0  0  0  0  0  0
  -23.8449   -8.9553   21.3420 C   0  0  0  0  0  0  0  0  0  0  0  0
  -26.4572  -15.1950   23.0408 C   0  0  0  0  0  0  0  0  0  0  0  0
  -26.7557  -16.3310   25.3053 C   0  0  0  0  0  0  0  0  0  0  0  0
  -28.1878  -35.9489   21.1651 C   0  0  0  0  0  0  0  0  0  0  0  0
  -25.9310  -29.8327   19.8718 C   0  0  0  0  0  0  0  0  0  0  0  0
  -28.1695  -34.5630   21.4129 C   0  0  0  0  0  0  0  0  0  0  0  0
  -25.6575  -28.9035   20.8856 C   0  0  0  0  0  0  0  0  0  0  0  0
  -29.7661  -24.7566   19.3162 C   0  0  0  0  0  0  0  0  0  0  0  0
  -26.0751  -12.9910   21.3737 C   0  0  0  0  0  0  0  0  0  0  0  0
  -27.3997  -27.4524   20.0087 C   0  0  0  0  0  0  0  0  0  0  0  0
  -25.4702  -10.7319   21.1441 C   0  0  0  0  0  0  0  0  0  0  0  0
  -24.6301   -8.3462   22.3209 C   0  0  0  0  0  0  0  0  0  0  0  0
  -24.2651  -10.1482   20.7536 C   0  0  0  0  0  0  0  0  0  0  0  0
  -26.6549  -16.3338   23.9012 C   0  0  0  0  0  0  0  0  0  0  0  0
  -31.0537  -23.1330   20.1970 C   0  0  0  0  0  0  0  0  0  0  0  0
  -29.5672  -23.6034   18.5896 C   0  0  0  0  0  0  0  0  0  0  0  0
  -26.9372  -17.6509   25.6391 C   0  0  0  0  0  0  0  0  0  0  0  0
  -26.6911  -15.2334   26.2256 C   0  0  0  0  0  0  0  0  0  0  0  0
  -25.4868  -32.1036   22.0511 C   0  0  0  0  0  0  0  0  0  0  0  0
  -22.6171  -30.6386   22.4265 C   0  0  0  0  0  0  0  0  0  0  0  0
  -20.7500  -27.7996   22.1087 C   0  0  0  0  0  0  0  0  0  0  0  0
  -29.1476  -22.3455   22.6516 C   0  0  0  0  0  0  0  0  0  0  0  0
  -27.2439  -36.8928   21.8670 C   0  0  0  0  0  0  0  0  0  0  0  0
  -25.1304  -31.1017   19.7653 C   0  0  0  0  0  0  0  0  0  0  0  0
  -24.5875  -29.1473   21.9172 C   0  0  0  0  0  0  0  0  0  0  0  0
  -26.0364  -36.1961   22.4889 C   0  0  0  0  0  0  0  0  0  0  0  0
  -25.9162  -22.0717   24.1210 C   0  0  0  0  0  0  0  0  0  0  0  0
  -26.4750  -34.9565   23.2621 C   0  0  0  0  0  0  0  0  0  0  0  0
  -27.1701  -23.8076   17.5483 C   0  0  0  0  0  0  0  0  0  0  0  0
  -27.5672  -22.3695   17.4269 C   0  0  0  0  0  0  0  0  0  0  0  0
  -25.7482  -20.5699   24.3580 C   0  0  0  0  0  0  0  0  0  0  0  0
  -33.4592  -22.8244   20.8760 C   0  0  0  0  0  0  0  0  0  0  0  0
  -26.6768  -22.3574   22.8280 C   0  0  0  0  0  0  0  0  0  0  0  0
  -27.8108  -20.1727   22.9486 C   0  0  0  0  0  0  0  0  0  0  0  0
  -34.4479  -21.9996   21.6854 C   0  0  0  0  0  0  0  0  0  0  0  0
  -32.6402  -21.3558   23.2928 C   0  0  0  0  0  0  0  0  0  0  0  0
  -27.1458  -33.9362   22.3344 C   0  0  1  0  0  0  0  0  0  0  0  0
  -32.0197  -22.2900   21.0143 C   0  0  1  0  0  0  0  0  0  0  0  0
  -28.6319  -23.4458   17.3880 C   0  0  0  0  0  0  0  0  0  0  0  0
  -24.4935  -31.5190   21.0872 C   0  0  1  0  0  0  0  0  0  0  0  0
  -27.0985  -19.8337   24.2692 C   0  0  2  0  0  0  0  0  0  0  0  0
  -31.6190  -22.1729   22.5044 C   0  0  1  0  0  0  0  0  0  0  0  0
  -18.4468  -26.8987   22.5344 C   0  0  0  0  0  0  0  0  0  0  0  0
  -29.9460  -20.2554   19.6994 C   0  0  0  0  0  0  0  0  0  0  0  0
  -31.8321  -20.9115   18.1443 C   0  0  0  0  0  0  0  0  0  0  0  0
  -23.2449  -30.4485   25.4064 C   0  0  0  0  0  0  0  0  0  0  0  0
  -21.4199  -28.7468   25.6113 C   0  0  0  0  0  0  0  0  0  0  0  0
  -20.8810  -31.0687   24.8758 C   0  0  0  0  0  0  0  0  0  0  0  0
  -20.3177  -27.2261   19.2377 C   0  0  0  0  0  0  0  0  0  0  0  0
  -29.1143  -26.0880   19.0843 C   0  0  0  0  0  0  0  0  0  1  0  0
  -22.0944  -29.5169   23.2911 C   0  0  1  0  0  0  0  0  0  0  0  0
  -19.3694  -27.5622   21.5238 C   0  0  2  0  0  0  0  0  0  0  0  0
  -30.4321  -21.2602   18.6531 C   0  0  0  0  0  0  0  0  0  0  0  0
  -21.9316  -29.9412   24.7780 C   0  0  0  0  0  0  0  0  0  0  0  0
  -26.7632  -17.5583   23.3788 N   0  0  0  0  0  0  0  0  0  0  0  0
  -30.3547  -22.6229   19.1342 N   0  0  0  0  0  0  0  0  0  0  0  0
  -26.9339  -18.3373   24.4606 N   0  0  0  0  0  0  0  0  0  0  0  0
  -23.8362  -30.4054   21.7744 N   0  0  0  0  0  0  0  0  0  0  0  0
  -27.9486  -21.6307   22.8076 N   0  0  0  0  0  0  0  0  0  0  0  0
  -27.0976  -18.2797   26.8229 N   0  0  0  0  0  0  0  0  0  0  0  0
  -27.8812  -14.5765   26.5666 N   0  0  0  0  0  0  0  0  0  0  0  0
  -26.1495  -33.2167   21.5701 N   0  0  0  0  0  0  0  0  0  0  0  0
  -20.8607  -29.0577   22.6622 N   0  0  0  0  0  0  0  0  0  0  0  0
  -30.3078  -21.5808   22.6494 N   0  0  0  0  0  0  0  0  0  0  0  0
  -33.9974  -21.9504   23.1065 N   0  3  0  0  0  0  0  0  0  0  0  0
  -19.4597  -26.6846   20.3228 N   0  3  0  0  0  0  0  0  0  0  0  0
  -25.6078  -14.8363   26.7179 O   0  0  0  0  0  0  0  0  0  0  0  0
  -25.6396  -31.5842   23.1505 O   0  0  0  0  0  0  0  0  0  0  0  0
  -21.9642  -31.6805   22.3276 O   0  0  0  0  0  0  0  0  0  0  0  0
  -21.6399  -26.9524   22.0810 O   0  0  0  0  0  0  0  0  0  0  0  0
  -29.1821  -23.5746   22.5290 O   0  0  0  0  0  0  0  0  0  0  0  0
  -25.8891  -11.9157   20.5603 O   0  0  0  0  0  0  0  0  0  0  0  0
  -28.1146  -26.2968   20.0810 O   0  0  0  0  0  0  0  0  0  1  0  0
  -24.2275   -7.1999   22.8850 F   0  0  0  0  0  0  0  0  0  0  0  0
  -23.5071  -10.7281   19.8129 F   0  0  0  0  0  0  0  0  0  0  0  0
  1  2  1  0  0  0  0
  1  5  2  0  0  0  0
  2  6  2  0  0  0  0
  3  8  2  0  0  0  0
  3 16  1  0  0  0  0
  4  9  1  0  0  0  0
  4 16  2  0  0  0  0
  5 18  1  0  0  0  0
  6 20  1  0  0  0  0
  7 10  2  0  0  0  0
  7 19  1  0  0  0  0
  8 23  1  0  0  0  0
  9 23  2  0  0  0  0
 10 24  1  0  0  0  0
 11 12  2  0  0  0  0
 11 25  1  0  0  0  0
 12 26  1  0  0  0  0
 13 21  1  0  0  0  0
 13 24  2  0  0  0  0
 14 22  1  0  0  0  0
 14 29  2  0  0  0  0
 15 26  2  0  0  0  0
 15 27  1  0  0  0  0
 16 28  1  0  0  0  0
 17 28  1  0  0  0  0
 17 31  2  0  0  0  0
 17 32  1  0  0  0  0
 18 20  2  0  0  0  0
 18 37  1  0  0  0  0
 19 21  2  0  0  0  0
 19 38  1  0  0  0  0
 20 51  1  0  0  0  0
 21 39  1  0  0  0  0
 22 30  2  0  0  0  0
 22 64  1  0  0  0  0
 23 86  1  0  0  0  0
 24 87  1  0  0  0  0
 25 27  2  0  0  0  0
 25 86  1  0  0  0  0
 26 88  1  0  0  0  0
 27 89  1  0  0  0  0
 28 69  2  0  0  0  0
 29 52  1  0  0  0  0
 29 70  1  0  0  0  0
 30 53  1  0  0  0  0
 30 70  1  0  0  0  0
 31 71  1  0  0  0  0
 31 74  1  0  0  0  0
 32 75  1  0  0  0  0
 32 81  2  0  0  0  0
 33 54  1  0  0  0  0
 33 76  1  0  0  0  0
 33 82  2  0  0  0  0
 34 65  1  0  0  0  0
 34 72  1  0  0  0  0
 34 83  2  0  0  0  0
 35 66  1  0  0  0  0
 35 77  1  0  0  0  0
 35 84  2  0  0  0  0
 36 73  1  0  0  0  0
 36 78  1  0  0  0  0
 36 85  2  0  0  0  0
 37 40  1  0  0  0  0
 38 54  1  0  0  0  0
 39 72  1  0  0  0  0
 40 42  1  0  0  0  0
 41 45  1  0  0  0  0
 41 47  1  0  0  0  0
 42 51  1  0  0  0  0
 43 44  1  0  0  0  0
 43 53  1  0  0  0  0
 44 53  1  0  0  0  0
 45 55  1  0  0  0  0
 46 49  1  0  0  0  0
 46 52  1  0  0  0  0
 47 73  1  0  0  0  0
 48 55  1  0  0  0  0
 48 73  1  0  0  0  0
 49 79  1  0  0  0  0
 50 56  1  0  0  0  0
 50 79  1  0  0  0  0
 51 76  1  0  0  0  0
 52 56  1  0  0  0  0
 54 72  1  0  0  0  0
 55 71  1  0  0  0  0
 56 78  1  0  0  0  0
 57 66  1  0  0  0  0
 58 67  1  0  0  0  0
 59 67  1  0  0  0  0
 60 68  1  0  0  0  0
 61 68  1  0  0  0  0
 62 68  1  0  0  0  0
 63 80  1  0  0  0  0
 64 87  1  0  0  0  0
 65 68  1  0  0  0  0
 65 77  1  0  0  0  0
 66 80  1  0  0  0  0
 67 70  1  0  0  0  0
 69 71  1  0  0  0  0
M  CHG  2  79   1  80   1
M  ISO  4  36 100  64 101  78 100  87 101
M  END
> <Batch ID>
0135

> <Smiles>
CNC(C)C(=O)NC(C(=O)N1Cc2cc([101O:1][101CH2:1]c3cc(C4CCNCC4[100NH:0][100C:0](=O)N4CCCC(n5nc(-c6ccc(Oc7ccc(F)cc7F)cc6)c(C(N)=O)c5N)C4)n(C(C)C)c3C3CC3)ccc2CC1C(=O)NC1CCCc2ccccc21)C(C)(C)C

> <Shape>
0.222

> <Color>
0.072

> <Negative vol penalty>
0.000

$$$$

  -OEChem-04052321003D

 86 96  0     1  0  0  0  0  0999 V2000
  -27.7255  -24.0462   17.3513 C   0  0  0  0  0  0  0  0  0  0  0  0
  -26.5985  -24.2856   18.1310 C   0  0  0  0  0  0  0  0  0  0  0  0
  -27.6223  -16.1376   18.9871 C   0  0  0  0  0  0  0  0  0  0  0  0
  -27.7466  -16.2891   21.3951 C   0  0  0  0  0  0  0  0  0  0  0  0
  -28.9430  -24.6363   17.6880 C   0  0  0  0  0  0  0  0  0  0  0  0
  -26.6887  -25.1145   19.2487 C   0  0  0  0  0  0  0  0  0  0  0  0
  -22.8419  -28.3942   19.5503 C   0  0  0  0  0  0  0  0  0  0  0  0
  -18.1883  -24.7665   20.4363 C   0  0  0  0  0  0  0  0  0  0  0  0
  -28.9189  -16.6420   18.8884 C   0  0  0  0  0  0  0  0  0  0  0  0
  -29.0433  -16.7935   21.2964 C   0  0  0  0  0  0  0  0  0  0  0  0
  -21.6237  -27.9053   20.0201 C   0  0  0  0  0  0  0  0  0  0  0  0
  -18.5329  -26.0915   20.7672 C   0  0  0  0  0  0  0  0  0  0  0  0
  -30.4392  -19.6555   19.0684 C   0  0  0  0  0  0  0  0  0  0  0  0
  -30.6770  -20.6482   18.1178 C   0  0  0  0  0  0  0  0  0  0  0  0
  -22.0985  -28.8310   22.1966 C   0  0  0  0  0  0  0  0  0  0  0  0
  -32.3016  -19.2238   17.0366 C   0  0  0  0  0  0  0  0  0  0  0  0
  -27.0360  -15.9611   20.2405 C   0  0  0  0  0  0  0  0  0  0  0  0
  -25.3151  -14.0896   20.4479 C   0  0  0  0  0  0  0  0  0  0  0  0
  -29.0459  -25.4806   18.8047 C   0  0  0  0  0  0  0  0  0  0  0  0
  -23.7039  -29.0969   20.4044 C   0  0  0  0  0  0  0  0  0  0  0  0
  -27.9090  -25.7155   19.6014 C   0  0  0  0  0  0  0  0  0  0  0  0
  -23.3259  -29.3300   21.7344 C   0  0  0  0  0  0  0  0  0  0  0  0
  -20.1409  -24.0029   21.5337 C   0  0  0  0  0  0  0  0  0  0  0  0
  -20.4771  -25.2955   21.8565 C   0  0  0  0  0  0  0  0  0  0  0  0
  -19.0031  -23.6996   20.8238 C   0  0  0  0  0  0  0  0  0  0  0  0
  -29.6295  -16.9700   20.0430 C   0  0  0  0  0  0  0  0  0  0  0  0
  -21.2531  -28.1212   21.3442 C   0  0  0  0  0  0  0  0  0  0  0  0
  -19.6967  -26.3665   21.4899 C   0  0  0  0  0  0  0  0  0  1  0  0
  -31.1326  -18.4469   19.0031 C   0  0  0  0  0  0  0  0  0  0  0  0
  -31.6081  -20.4323   17.1019 C   0  0  0  0  0  0  0  0  0  0  0  0
  -32.0638  -18.2310   17.9872 C   0  0  0  0  0  0  0  0  0  0  0  0
  -25.6964  -15.4406   20.3431 C   0  0  0  0  0  0  0  0  0  0  0  0
  -23.9438  -14.1242   20.5174 C   0  0  0  0  0  0  0  0  0  0  0  0
  -26.1277  -12.9088   20.4798 C   0  0  0  0  0  0  0  0  0  0  0  0
  -26.6551  -28.6330   21.4904 C   0  0  0  0  0  0  0  0  0  0  0  0
  -26.2372  -31.5916   22.7532 C   0  0  0  0  0  0  0  0  0  0  0  0
  -24.0763  -33.9979   23.8428 C   0  0  0  0  0  0  0  0  0  0  0  0
  -19.9199  -17.7884   18.5688 C   0  0  0  0  0  0  0  0  0  0  0  0
  -30.3940  -26.0582   19.1564 C   0  0  0  0  0  0  0  0  0  0  0  0
  -25.0025  -29.6409   19.8751 C   0  0  0  0  0  0  0  0  0  0  0  0
  -21.3498  -23.4197   22.2028 C   0  0  0  0  0  0  0  0  0  0  0  0
  -21.7329  -24.8922   22.5703 C   0  0  0  0  0  0  0  0  0  0  0  0
  -24.2065  -30.0959   22.6865 C   0  0  0  0  0  0  0  0  0  0  0  0
  -30.3198  -27.2228   20.1404 C   0  0  0  0  0  0  0  0  0  0  0  0
  -16.2924  -18.5396   18.5138 C   0  0  0  0  0  0  0  0  0  0  0  0
  -20.3276  -16.9040   21.9427 C   0  0  0  0  0  0  0  0  0  0  0  0
  -29.3904  -26.8826   21.3011 C   0  0  0  0  0  0  0  0  0  0  0  0
  -16.2650  -20.0403   18.7922 C   0  0  0  0  0  0  0  0  0  0  0  0
  -21.7273  -16.2903   21.9288 C   0  0  0  0  0  0  0  0  0  0  0  0
  -17.5881  -18.1149   17.8311 C   0  0  0  0  0  0  0  0  0  0  0  0
  -20.2386  -18.1476   21.0567 C   0  0  0  0  0  0  0  0  0  0  0  0
  -18.7835  -20.0258   18.8508 C   0  0  0  0  0  0  0  0  0  0  0  0
  -22.0967  -17.3150   19.6526 C   0  0  0  0  0  0  0  0  0  0  0  0
  -27.9611  -26.6285   20.8072 C   0  0  1  0  0  0  0  0  0  0  0  0
  -26.0332  -29.8980   20.9701 C   0  0  1  0  0  0  0  0  0  0  0  0
  -17.5105  -20.4803   19.5730 C   0  0  1  0  0  0  0  0  0  0  0  0
  -22.2020  -16.0297   20.4881 C   0  0  1  0  0  0  0  0  0  0  0  0
  -24.0322  -36.2934   24.8557 C   0  0  0  0  0  0  0  0  0  0  0  0
  -27.0166  -30.4111   25.4567 C   0  0  0  0  0  0  0  0  0  0  0  0
  -26.0526  -32.4487   26.5461 C   0  0  0  0  0  0  0  0  0  0  0  0
  -27.9861  -32.6677   24.9853 C   0  0  0  0  0  0  0  0  0  0  0  0
  -22.6067  -35.1164   21.5302 C   0  0  0  0  0  0  0  0  0  0  0  0
  -17.5157  -21.9943   19.7725 C   0  0  0  0  0  0  0  0  0  0  0  0
  -25.6970  -32.1317   24.0553 C   0  0  1  0  0  0  0  0  0  0  0  0
  -24.0059  -35.4887   23.5655 C   0  0  2  0  0  0  0  0  0  0  0  0
  -26.6721  -31.8986   25.2437 C   0  0  0  0  0  0  0  0  0  0  0  0
  -24.6518  -16.2729   20.3451 N   0  0  0  0  0  0  0  0  0  0  0  0
  -23.6005  -15.4426   20.4521 N   0  0  0  0  0  0  0  0  0  0  0  0
  -25.4690  -30.6022   22.1233 N   0  0  0  0  0  0  0  0  0  0  0  0
  -18.7610  -18.5828   18.5690 N   0  0  0  0  0  0  0  0  0  0  0  0
  -20.7390  -17.8612   19.7055 N   0  0  0  0  0  0  0  0  0  0  0  0
  -23.0102  -13.1553   20.6272 N   0  0  0  0  0  0  0  0  0  0  0  0
  -27.5194  -13.0531   20.3981 N   0  0  0  0  0  0  0  0  0  0  0  0
  -18.6754  -22.3802   20.5033 N   0  0  0  0  0  0  0  0  0  0  0  0
  -27.2943  -27.8812   20.5232 N   0  0  0  0  0  0  0  0  0  0  0  0
  -25.3744  -33.5337   23.8132 N   0  0  0  0  0  0  0  0  0  0  0  0
  -22.7526  -35.8202   22.8304 N   0  3  0  0  0  0  0  0  0  0  0  0
  -25.6335  -11.7587   20.5613 O   0  0  0  0  0  0  0  0  0  0  0  0
  -26.5631  -28.3601   22.6815 O   0  0  0  0  0  0  0  0  0  0  0  0
  -27.2980  -32.0364   22.3078 O   0  0  0  0  0  0  0  0  0  0  0  0
  -23.0799  -33.3143   24.0671 O   0  0  0  0  0  0  0  0  0  0  0  0
  -20.2026  -17.0567   17.6119 O   0  0  0  0  0  0  0  0  0  0  0  0
  -30.8949  -17.4620   19.9471 O   0  0  0  0  0  0  0  0  0  0  0  0
  -20.0411  -27.6349   21.8148 O   0  0  0  0  0  0  0  0  0  1  0  0
  -31.8352  -21.3851   16.1883 F   0  0  0  0  0  0  0  0  0  0  0  0
  -32.7322  -17.0716   17.9187 F   0  0  0  0  0  0  0  0  0  0  0  0
  1  2  1  0  0  0  0
  1  5  2  0  0  0  0
  2  6  2  0  0  0  0
  3  9  2  0  0  0  0
  3 17  1  0  0  0  0
  4 10  1  0  0  0  0
  4 17  2  0  0  0  0
  5 19  1  0  0  0  0
  6 21  1  0  0  0  0
  7 11  2  0  0  0  0
  7 20  1  0  0  0  0
  8 12  2  0  0  0  0
  8 25  1  0  0  0  0
  9 26  1  0  0  0  0
 10 26  2  0  0  0  0
 11 27  1  0  0  0  0
 12 28  1  0  0  0  0
 13 14  2  0  0  0  0
 13 29  1  0  0  0  0
 14 30  1  0  0  0  0
 15 22  1  0  0  0  0
 15 27  2  0  0  0  0
 16 30  2  0  0  0  0
 16 31  1  0  0  0  0
 17 32  1  0  0  0  0
 18 32  1  0  0  0  0
 18 33  2  0  0  0  0
 18 34  1  0  0  0  0
 19 21  2  0  0  0  0
 19 39  1  0  0  0  0
 20 22  2  0  0  0  0
 20 40  1  0  0  0  0
 21 54  1  0  0  0  0
 22 43  1  0  0  0  0
 23 24  1  0  0  0  0
 23 25  2  0  0  0  0
 23 41  1  0  0  0  0
 24 28  2  0  0  0  0
 24 42  1  0  0  0  0
 25 74  1  0  0  0  0
 26 83  1  0  0  0  0
 27 84  1  0  0  0  0
 28 84  1  0  0  0  0
 29 31  2  0  0  0  0
 29 83  1  0  0  0  0
 30 85  1  0  0  0  0
 31 86  1  0  0  0  0
 32 67  2  0  0  0  0
 33 68  1  0  0  0  0
 33 72  1  0  0  0  0
 34 73  1  0  0  0  0
 34 78  2  0  0  0  0
 35 55  1  0  0  0  0
 35 75  1  0  0  0  0
 35 79  2  0  0  0  0
 36 64  1  0  0  0  0
 36 69  1  0  0  0  0
 36 80  2  0  0  0  0
 37 65  1  0  0  0  0
 37 76  1  0  0  0  0
 37 81  2  0  0  0  0
 38 70  1  0  0  0  0
 38 71  1  0  0  0  0
 38 82  2  0  0  0  0
 39 44  1  0  0  0  0
 40 55  1  0  0  0  0
 41 42  1  0  0  0  0
 43 69  1  0  0  0  0
 44 47  1  0  0  0  0
 45 48  1  0  0  0  0
 45 50  1  0  0  0  0
 46 49  1  0  0  0  0
 46 51  1  0  0  0  0
 47 54  1  0  0  0  0
 48 56  1  0  0  0  0
 49 57  1  0  0  0  0
 50 70  1  0  0  0  0
 51 71  1  0  0  0  0
 52 56  1  0  0  0  0
 52 70  1  0  0  0  0
 53 57  1  0  0  0  0
 53 71  1  0  0  0  0
 54 75  1  0  0  0  0
 55 69  1  0  0  0  0
 56 63  1  0  0  0  0
 57 68  1  0  0  0  0
 58 65  1  0  0  0  0
 59 66  1  0  0  0  0
 60 66  1  0  0  0  0
 61 66  1  0  0  0  0
 62 77  1  0  0  0  0
 63 74  1  0  0  0  0
 64 66  1  0  0  0  0
 64 76  1  0  0  0  0
 65 77  1  0  0  0  0
 67 68  1  0  0  0  0
M  CHG  1  77   1
M  ISO  4  28 101  38 100  70 100  84 101
M  END
> <Batch ID>
0135

> <Smiles>
CNC(C)C(=O)NC(C(=O)N1Cc2cc([101O:1][101c:1]3ccc(NCC4CCC[100N:0]([100C:0](=O)N5CCCC(n6nc(-c7ccc(Oc8ccc(F)cc8F)cc7)c(C(N)=O)c6N)C5)C4)c4c3CC4)ccc2CC1C(=O)NC1CCCc2ccccc21)C(C)(C)C

> <Shape>
0.274

> <Color>
0.085

> <Negative vol penalty>
0.000

$$$$

  -OEChem-04052321003D

 83 91  0     1  0  0  0  0  0999 V2000
  -29.2371  -35.2541   15.2416 C   0  0  0  0  0  0  0  0  0  0  0  0
  -28.9916  -33.8888   15.3478 C   0  0  0  0  0  0  0  0  0  0  0  0
  -22.9908   -9.9780   19.8701 C   0  0  0  0  0  0  0  0  0  0  0  0
  -24.0658   -9.5072   21.9820 C   0  0  0  0  0  0  0  0  0  0  0  0
  -29.4303  -36.0180   16.3919 C   0  0  0  0  0  0  0  0  0  0  0  0
  -28.9403  -33.2864   16.6044 C   0  0  0  0  0  0  0  0  0  0  0  0
  -25.3453  -28.6318   18.3118 C   0  0  0  0  0  0  0  0  0  0  0  0
  -22.2745   -8.7851   19.9688 C   0  0  0  0  0  0  0  0  0  0  0  0
  -23.3495   -8.3143   22.0806 C   0  0  0  0  0  0  0  0  0  0  0  0
  -25.5760  -27.2616   18.4268 C   0  0  0  0  0  0  0  0  0  0  0  0
  -20.2281   -7.3493   22.9445 C   0  0  0  0  0  0  0  0  0  0  0  0
  -26.5852  -20.5631   21.0390 C   0  0  0  0  0  0  0  0  0  0  0  0
  -19.6430   -7.0463   24.1739 C   0  0  0  0  0  0  0  0  0  0  0  0
  -27.2320  -19.4324   21.5255 C   0  0  0  0  0  0  0  0  0  0  0  0
  -26.0240  -27.5407   20.7806 C   0  0  0  0  0  0  0  0  0  0  0  0
  -20.9504   -5.0183   24.2963 C   0  0  0  0  0  0  0  0  0  0  0  0
  -28.6483  -21.2715   20.0911 C   0  0  0  0  0  0  0  0  0  0  0  0
  -23.8864  -10.3390   20.8767 C   0  0  0  0  0  0  0  0  0  0  0  0
  -24.2408  -12.8369   21.2542 C   0  0  0  0  0  0  0  0  0  0  0  0
  -29.3718  -35.4264   17.6636 C   0  0  0  0  0  0  0  0  0  0  0  0
  -25.4631  -29.4697   19.4300 C   0  0  0  0  0  0  0  0  0  0  0  0
  -29.1343  -34.0429   17.7726 C   0  0  0  0  0  0  0  0  0  0  0  0
  -25.7918  -28.9207   20.6777 C   0  0  0  0  0  0  0  0  0  0  0  0
  -22.4539   -7.9533   21.0740 C   0  0  0  0  0  0  0  0  0  0  0  0
  -25.9183  -26.7163   19.6607 C   0  0  0  0  0  0  0  0  0  0  0  0
  -27.2997  -21.5050   20.3072 C   0  0  0  0  0  0  0  0  0  0  0  0
  -21.1744   -6.4868   22.3910 C   0  0  0  0  0  0  0  0  0  0  0  0
  -20.0041   -5.8808   24.8498 C   0  0  0  0  0  0  0  0  0  0  0  0
  -21.5355   -5.3213   23.0669 C   0  0  0  0  0  0  0  0  0  0  0  0
  -24.6270  -11.5708   20.7751 C   0  0  0  0  0  0  0  0  0  0  0  0
  -28.5835  -19.2916   21.2547 C   0  0  0  0  0  0  0  0  0  0  0  0
  -25.2806  -13.6659   20.9107 C   0  0  0  0  0  0  0  0  0  0  0  0
  -23.0487  -13.2286   21.9479 C   0  0  0  0  0  0  0  0  0  0  0  0
  -27.3181  -31.9328   20.2019 C   0  0  0  0  0  0  0  0  0  0  0  0
  -25.3816  -32.0758   22.8004 C   0  0  0  0  0  0  0  0  0  0  0  0
  -23.2480  -30.4578   24.9162 C   0  0  0  0  0  0  0  0  0  0  0  0
  -30.7491  -14.7174   20.5425 C   0  0  0  0  0  0  0  0  0  0  0  0
  -29.6340  -36.2843   18.8760 C   0  0  0  0  0  0  0  0  0  0  0  0
  -25.1848  -30.9417   19.2949 C   0  0  0  0  0  0  0  0  0  0  0  0
  -25.9112  -29.7742   21.9130 C   0  0  0  0  0  0  0  0  0  0  0  0
  -29.1920  -35.6382   20.1865 C   0  0  0  0  0  0  0  0  0  0  0  0
  -29.2561  -12.8795   17.8836 C   0  0  0  0  0  0  0  0  0  0  0  0
  -29.6616  -34.1883   20.2519 C   0  0  0  0  0  0  0  0  0  0  0  0
  -27.8902  -12.4746   18.4406 C   0  0  0  0  0  0  0  0  0  0  0  0
  -30.3358  -12.8542   18.9632 C   0  0  0  0  0  0  0  0  0  0  0  0
  -28.6578  -13.2379   20.7268 C   0  0  0  0  0  0  0  0  0  0  0  0
  -29.0467  -33.3576   19.1191 C   0  0  1  0  0  0  0  0  0  0  0  0
  -25.8360  -31.7762   20.3935 C   0  0  1  0  0  0  0  0  0  0  0  0
  -27.5254  -13.3023   19.6876 C   0  0  2  0  0  0  0  0  0  0  0  0
  -21.8519  -30.8274   26.9684 C   0  0  0  0  0  0  0  0  0  0  0  0
  -27.8975  -31.9889   24.5245 C   0  0  0  0  0  0  0  0  0  0  0  0
  -26.4510  -31.4059   26.4831 C   0  0  0  0  0  0  0  0  0  0  0  0
  -26.1457  -33.5890   25.3153 C   0  0  0  0  0  0  0  0  0  0  0  0
  -20.7478  -29.8013   23.4750 C   0  0  0  0  0  0  0  0  0  0  0  0
  -30.6151  -17.8729   21.5470 C   0  0  0  0  0  0  0  0  0  0  0  0
  -31.0162  -16.5541   22.1900 C   0  0  0  0  0  0  0  0  0  0  0  0
  -26.6610  -24.7070   18.6276 C   0  0  0  0  0  0  0  0  0  1  0  0
  -27.5056  -23.5318   19.0801 C   0  0  0  0  0  0  0  0  0  0  0  0
  -25.3943  -31.4594   24.1784 C   0  0  1  0  0  0  0  0  0  0  0  0
  -21.8773  -30.8360   25.4479 C   0  0  2  0  0  0  0  0  0  0  0  0
  -26.4719  -32.0947   25.1018 C   0  0  0  0  0  0  0  0  0  0  0  0
  -29.3109  -20.1852   20.5476 N   0  0  0  0  0  0  0  0  0  0  0  0
  -25.8191  -11.5890   20.1729 N   0  0  0  0  0  0  0  0  0  0  0  0
  -26.1908  -12.8767   20.2713 N   0  0  0  0  0  0  0  0  0  0  0  0
  -25.6356  -31.2086   21.7284 N   0  0  0  0  0  0  0  0  0  0  0  0
  -29.9288  -13.6593   20.1173 N   0  0  0  0  0  0  0  0  0  0  0  0
  -25.4959  -14.9856   21.0961 N   0  0  0  0  0  0  0  0  0  0  0  0
  -22.0825  -12.2506   22.2208 N   0  0  0  0  0  0  0  0  0  0  0  0
  -29.2285  -18.1342   21.7571 N   0  0  0  0  0  0  0  0  0  0  0  0
  -27.6734  -33.0206   19.4275 N   0  0  0  0  0  0  0  0  0  0  0  0
  -24.0314  -31.5691   24.6872 N   0  0  0  0  0  0  0  0  0  0  0  0
  -30.2865  -15.4337   21.6396 N   0  0  0  0  0  0  0  0  0  0  0  0
  -20.8480  -29.8774   24.9553 N   0  3  0  0  0  0  0  0  0  0  0  0
  -22.8388  -14.4141   22.3003 O   0  0  0  0  0  0  0  0  0  0  0  0
  -28.0827  -31.1272   20.7197 O   0  0  0  0  0  0  0  0  0  0  0  0
  -25.1476  -33.2809   22.6790 O   0  0  0  0  0  0  0  0  0  0  0  0
  -23.5908  -29.2928   24.7266 O   0  0  0  0  0  0  0  0  0  0  0  0
  -31.8121  -15.0059   19.9824 O   0  0  0  0  0  0  0  0  0  0  0  0
  -21.7550   -6.7894   21.1707 O   0  0  0  0  0  0  0  0  0  0  0  0
  -26.1447  -25.3793   19.7755 O   0  0  0  0  0  0  0  0  0  1  0  0
  -26.6892  -22.6289   19.8160 O   0  0  0  0  0  0  0  0  0  0  0  0
  -19.4433   -5.5907   26.0311 F   0  0  0  0  0  0  0  0  0  0  0  0
  -22.4448   -4.4894   22.5407 F   0  0  0  0  0  0  0  0  0  0  0  0
  1  2  1  0  0  0  0
  1  5  2  0  0  0  0
  2  6  2  0  0  0  0
  3  8  2  0  0  0  0
  3 18  1  0  0  0  0
  4  9  1  0  0  0  0
  4 18  2  0  0  0  0
  5 20  1  0  0  0  0
  6 22  1  0  0  0  0
  7 10  2  0  0  0  0
  7 21  1  0  0  0  0
  8 24  1  0  0  0  0
  9 24  2  0  0  0  0
 10 25  1  0  0  0  0
 11 13  2  0  0  0  0
 11 27  1  0  0  0  0
 12 14  2  0  0  0  0
 12 26  1  0  0  0  0
 13 28  1  0  0  0  0
 14 31  1  0  0  0  0
 15 23  1  0  0  0  0
 15 25  2  0  0  0  0
 16 28  2  0  0  0  0
 16 29  1  0  0  0  0
 17 26  2  0  0  0  0
 17 62  1  0  0  0  0
 18 30  1  0  0  0  0
 19 30  1  0  0  0  0
 19 32  2  0  0  0  0
 19 33  1  0  0  0  0
 20 22  2  0  0  0  0
 20 38  1  0  0  0  0
 21 23  2  0  0  0  0
 21 39  1  0  0  0  0
 22 47  1  0  0  0  0
 23 40  1  0  0  0  0
 24 79  1  0  0  0  0
 25 80  1  0  0  0  0
 26 81  1  0  0  0  0
 27 29  2  0  0  0  0
 27 79  1  0  0  0  0
 28 82  1  0  0  0  0
 29 83  1  0  0  0  0
 30 63  2  0  0  0  0
 31 62  2  0  0  0  0
 31 69  1  0  0  0  0
 32 64  1  0  0  0  0
 32 67  1  0  0  0  0
 33 68  1  0  0  0  0
 33 74  2  0  0  0  0
 34 48  1  0  0  0  0
 34 70  1  0  0  0  0
 34 75  2  0  0  0  0
 35 59  1  0  0  0  0
 35 65  1  0  0  0  0
 35 76  2  0  0  0  0
 36 60  1  0  0  0  0
 36 71  1  0  0  0  0
 36 77  2  0  0  0  0
 37 66  1  0  0  0  0
 37 72  1  0  0  0  0
 37 78  2  0  0  0  0
 38 41  1  0  0  0  0
 39 48  1  0  0  0  0
 40 65  1  0  0  0  0
 41 43  1  0  0  0  0
 42 44  1  0  0  0  0
 42 45  1  0  0  0  0
 43 47  1  0  0  0  0
 44 49  1  0  0  0  0
 45 66  1  0  0  0  0
 46 49  1  0  0  0  0
 46 66  1  0  0  0  0
 47 70  1  0  0  0  0
 48 65  1  0  0  0  0
 49 64  1  0  0  0  0
 50 60  1  0  0  0  0
 51 61  1  0  0  0  0
 52 61  1  0  0  0  0
 53 61  1  0  0  0  0
 54 73  1  0  0  0  0
 55 56  1  0  0  0  0
 55 69  1  0  0  0  0
 56 72  1  0  0  0  0
 57 58  1  0  0  0  0
 57 80  1  0  0  0  0
 58 81  1  0  0  0  0
 59 61  1  0  0  0  0
 59 71  1  0  0  0  0
 60 73  1  0  0  0  0
 63 64  1  0  0  0  0
M  CHG  1  73   1
M  ISO  4  37 100  57 101  72 100  80 101
M  END
> <Batch ID>
0135

> <Smiles>
CNC(C)C(=O)NC(C(=O)N1Cc2cc([101O:1][101CH2:1]COc3ccc(NCC[100NH:0][100C:0](=O)N4CCCC(n5nc(-c6ccc(Oc7ccc(F)cc7F)cc6)c(C(N)=O)c5N)C4)nc3)ccc2CC1C(=O)NC1CCCc2ccccc21)C(C)(C)C

> <Shape>
0.342

> <Color>
0.205

> <Negative vol penalty>
0.000

$$$$

  -OEChem-04052321003D

 83 91  0     1  0  0  0  0  0999 V2000
  -31.2358  -24.5539   17.6272 C   0  0  0  0  0  0  0  0  0  0  0  0
  -30.6995  -24.3018   18.8859 C   0  0  0  0  0  0  0  0  0  0  0  0
  -27.2795  -16.0899   19.0397 C   0  0  0  0  0  0  0  0  0  0  0  0
  -27.3986  -16.2894   21.4445 C   0  0  0  0  0  0  0  0  0  0  0  0
  -31.0167  -25.7854   17.0112 C   0  0  0  0  0  0  0  0  0  0  0  0
  -29.9446  -25.2816   19.5298 C   0  0  0  0  0  0  0  0  0  0  0  0
  -25.7192  -23.4225   21.6119 C   0  0  0  0  0  0  0  0  0  0  0  0
  -28.4879  -16.7766   18.9228 C   0  0  0  0  0  0  0  0  0  0  0  0
  -28.6071  -16.9761   21.3276 C   0  0  0  0  0  0  0  0  0  0  0  0
  -25.8518  -22.7405   22.8207 C   0  0  0  0  0  0  0  0  0  0  0  0
  -31.5420  -19.0962   21.6470 C   0  0  0  0  0  0  0  0  0  0  0  0
  -31.7135  -20.2430   22.4221 C   0  0  0  0  0  0  0  0  0  0  0  0
  -25.1267  -24.7124   24.0059 C   0  0  0  0  0  0  0  0  0  0  0  0
  -23.3032  -21.9247   25.0800 C   0  0  0  0  0  0  0  0  0  0  0  0
  -29.8022  -21.2561   21.3461 C   0  0  0  0  0  0  0  0  0  0  0  0
  -24.5547  -21.3168   26.8506 C   0  0  0  0  0  0  0  0  0  0  0  0
  -26.7348  -15.8463   20.3005 C   0  0  0  0  0  0  0  0  0  0  0  0
  -25.3068  -13.7468   20.5463 C   0  0  0  0  0  0  0  0  0  0  0  0
  -30.2507  -26.7772   17.6438 C   0  0  0  0  0  0  0  0  0  0  0  0
  -25.2991  -24.7603   21.5919 C   0  0  0  0  0  0  0  0  0  0  0  0
  -29.7162  -26.5280   18.9223 C   0  0  0  0  0  0  0  0  0  0  0  0
  -24.9871  -25.4084   22.7955 C   0  0  0  0  0  0  0  0  0  0  0  0
  -29.1518  -17.2197   20.0668 C   0  0  0  0  0  0  0  0  0  0  0  0
  -25.5584  -23.3863   24.0181 C   0  0  0  0  0  0  0  0  0  0  0  0
  -30.5006  -19.0293   20.7213 C   0  0  0  0  0  0  0  0  0  0  0  0
  -24.5843  -22.0344   25.6752 C   0  0  0  0  0  0  0  0  0  1  0  0
  -30.8437  -21.3230   22.2717 C   0  0  0  0  0  0  0  0  0  0  0  0
  -29.6307  -20.1092   20.5709 C   0  0  0  0  0  0  0  0  0  0  0  0
  -25.4862  -15.1375   20.4219 C   0  0  0  0  0  0  0  0  0  0  0  0
  -22.5299  -21.1430   25.9095 C   0  0  0  0  0  0  0  0  0  0  0  0
  -23.9457  -13.5821   20.6283 C   0  0  0  0  0  0  0  0  0  0  0  0
  -26.2833  -12.6976   20.5845 C   0  0  0  0  0  0  0  0  0  0  0  0
  -26.5894  -27.5024   20.6331 C   0  0  0  0  0  0  0  0  0  0  0  0
  -23.6502  -28.6811   21.3359 C   0  0  0  0  0  0  0  0  0  0  0  0
  -20.7480  -28.3635   23.1031 C   0  0  0  0  0  0  0  0  0  0  0  0
  -19.5032  -17.1800   22.4088 C   0  0  0  0  0  0  0  0  0  0  0  0
  -30.0807  -28.1101   16.9589 C   0  0  0  0  0  0  0  0  0  0  0  0
  -25.1355  -25.4737   20.2778 C   0  0  0  0  0  0  0  0  0  0  0  0
  -24.5129  -26.8376   22.8267 C   0  0  0  0  0  0  0  0  0  0  0  0
  -28.9557  -28.9579   17.5469 C   0  0  0  0  0  0  0  0  0  0  0  0
  -19.8389  -15.6026   19.2346 C   0  0  0  0  0  0  0  0  0  0  0  0
  -29.0362  -28.9696   19.0702 C   0  0  0  0  0  0  0  0  0  0  0  0
  -21.3081  -15.1791   19.1901 C   0  0  0  0  0  0  0  0  0  0  0  0
  -19.6586  -16.9407   19.9481 C   0  0  0  0  0  0  0  0  0  0  0  0
  -21.7182  -16.5836   21.2536 C   0  0  0  0  0  0  0  0  0  0  0  0
  -28.8711  -27.5564   19.6422 C   0  0  1  0  0  0  0  0  0  0  0  0
  -25.1937  -26.9923   20.4112 C   0  0  1  0  0  0  0  0  0  0  0  0
  -21.9441  -15.2129   20.5929 C   0  0  2  0  0  0  0  0  0  0  0  0
  -18.5467  -29.5023   23.4968 C   0  0  0  0  0  0  0  0  0  0  0  0
  -22.9094  -20.7199   29.4183 C   0  0  0  0  0  0  0  0  0  0  0  0
  -23.6652  -18.6496   28.1738 C   0  0  0  0  0  0  0  0  0  0  0  0
  -25.0388  -30.7519   23.0948 C   0  0  0  0  0  0  0  0  0  0  0  0
  -22.8271  -31.2182   24.1715 C   0  0  0  0  0  0  0  0  0  0  0  0
  -23.1401  -31.6442   21.7336 C   0  0  0  0  0  0  0  0  0  0  0  0
  -19.2299  -26.0355   22.0860 C   0  0  0  0  0  0  0  0  0  0  0  0
  -21.1233  -20.7144   25.7674 C   0  0  0  0  0  0  0  0  0  0  0  0
  -19.5031  -17.3706   24.8832 C   0  0  0  0  0  0  0  0  0  0  0  0
  -19.5528  -18.8348   25.2780 C   0  0  0  0  0  0  0  0  0  0  0  0
  -22.9976  -29.2616   22.5672 C   0  0  1  0  0  0  0  0  0  0  0  0
  -19.2940  -28.4612   22.6780 C   0  0  2  0  0  0  0  0  0  0  0  0
  -22.8740  -19.9565   28.0929 C   0  0  0  0  0  0  0  0  0  0  0  0
  -23.5117  -30.6927   22.8916 C   0  0  0  0  0  0  0  0  0  0  0  0
  -24.3314  -15.8086   20.4240 N   0  0  0  0  0  0  0  0  0  0  0  0
  -23.3008  -20.7796   26.9828 N   0  0  0  0  0  0  0  0  0  0  0  0
  -23.4133  -14.8354   20.5506 N   0  0  0  0  0  0  0  0  0  0  0  0
  -24.3748  -27.4944   21.5164 N   0  0  0  0  0  0  0  0  0  0  0  0
  -20.2827  -16.9058   21.2730 N   0  0  0  0  0  0  0  0  0  0  0  0
  -23.1643  -12.4890   20.7584 N   0  0  0  0  0  0  0  0  0  0  0  0
  -27.6384  -13.0421   20.4880 N   0  0  0  0  0  0  0  0  0  0  0  0
  -27.4777  -27.1657   19.6295 N   0  0  0  0  0  0  0  0  0  0  0  0
  -21.5583  -29.1803   22.3431 N   0  0  0  0  0  0  0  0  0  0  0  0
  -20.1712  -17.1194   23.6257 N   0  0  0  0  0  0  0  0  0  0  0  0
  -18.6133  -27.1472   22.8545 N   0  3  0  0  0  0  0  0  0  0  0  0
  -20.9644  -19.2834   25.3661 N   0  3  0  0  0  0  0  0  0  0  0  0
  -25.9627  -11.4889   20.6842 O   0  0  0  0  0  0  0  0  0  0  0  0
  -26.8415  -28.1546   21.6395 O   0  0  0  0  0  0  0  0  0  0  0  0
  -23.5159  -29.2555   20.2525 O   0  0  0  0  0  0  0  0  0  0  0  0
  -21.1265  -27.6382   24.0203 O   0  0  0  0  0  0  0  0  0  0  0  0
  -18.2998  -17.4531   22.3437 O   0  0  0  0  0  0  0  0  0  0  0  0
  -30.3311  -17.8896   19.9531 O   0  0  0  0  0  0  0  0  0  0  0  0
  -25.6876  -22.7232   25.1994 O   0  0  0  0  0  0  0  0  0  1  0  0
  -31.0076  -22.4237   23.0172 F   0  0  0  0  0  0  0  0  0  0  0  0
  -28.6277  -20.0504   19.6842 F   0  0  0  0  0  0  0  0  0  0  0  0
  1  2  1  0  0  0  0
  1  5  2  0  0  0  0
  2  6  2  0  0  0  0
  3  8  2  0  0  0  0
  3 17  1  0  0  0  0
  4  9  1  0  0  0  0
  4 17  2  0  0  0  0
  5 19  1  0  0  0  0
  6 21  1  0  0  0  0
  7 10  2  0  0  0  0
  7 20  1  0  0  0  0
  8 23  1  0  0  0  0
  9 23  2  0  0  0  0
 10 24  1  0  0  0  0
 11 12  2  0  0  0  0
 11 25  1  0  0  0  0
 12 27  1  0  0  0  0
 13 22  1  0  0  0  0
 13 24  2  0  0  0  0
 14 26  1  0  0  0  0
 14 30  2  0  0  0  0
 15 27  2  0  0  0  0
 15 28  1  0  0  0  0
 16 26  2  0  0  0  0
 16 64  1  0  0  0  0
 17 29  1  0  0  0  0
 18 29  1  0  0  0  0
 18 31  2  0  0  0  0
 18 32  1  0  0  0  0
 19 21  2  0  0  0  0
 19 37  1  0  0  0  0
 20 22  2  0  0  0  0
 20 38  1  0  0  0  0
 21 46  1  0  0  0  0
 22 39  1  0  0  0  0
 23 80  1  0  0  0  0
 24 81  1  0  0  0  0
 25 28  2  0  0  0  0
 25 80  1  0  0  0  0
 26 81  1  0  0  0  0
 27 82  1  0  0  0  0
 28 83  1  0  0  0  0
 29 63  2  0  0  0  0
 30 56  1  0  0  0  0
 30 64  1  0  0  0  0
 31 65  1  0  0  0  0
 31 68  1  0  0  0  0
 32 69  1  0  0  0  0
 32 75  2  0  0  0  0
 33 47  1  0  0  0  0
 33 70  1  0  0  0  0
 33 76  2  0  0  0  0
 34 59  1  0  0  0  0
 34 66  1  0  0  0  0
 34 77  2  0  0  0  0
 35 60  1  0  0  0  0
 35 71  1  0  0  0  0
 35 78  2  0  0  0  0
 36 67  1  0  0  0  0
 36 72  1  0  0  0  0
 36 79  2  0  0  0  0
 37 40  1  0  0  0  0
 38 47  1  0  0  0  0
 39 66  1  0  0  0  0
 40 42  1  0  0  0  0
 41 43  1  0  0  0  0
 41 44  1  0  0  0  0
 42 46  1  0  0  0  0
 43 48  1  0  0  0  0
 44 67  1  0  0  0  0
 45 48  1  0  0  0  0
 45 67  1  0  0  0  0
 46 70  1  0  0  0  0
 47 66  1  0  0  0  0
 48 65  1  0  0  0  0
 49 60  1  0  0  0  0
 50 61  1  0  0  0  0
 51 61  1  0  0  0  0
 52 62  1  0  0  0  0
 53 62  1  0  0  0  0
 54 62  1  0  0  0  0
 55 73  1  0  0  0  0
 56 74  1  0  0  0  0
 57 58  1  0  0  0  0
 57 72  1  0  0  0  0
 58 74  1  0  0  0  0
 59 62  1  0  0  0  0
 59 71  1  0  0  0  0
 60 73  1  0  0  0  0
 61 64  1  0  0  0  0
 63 65  1  0  0  0  0
M  CHG  2  73   1  74   1
M  ISO  4  26 101  36 100  72 100  81 101
M  END
> <Batch ID>
0135

> <Smiles>
CNC(C)C(=O)NC(C(=O)N1Cc2cc([101O:1][101c:1]3cc(CNCC[100NH:0][100C:0](=O)N4CCCC(n5nc(-c6ccc(Oc7ccc(F)cc7F)cc6)c(C(N)=O)c5N)C4)n(C(C)C)c3)ccc2CC1C(=O)NC1CCCc2ccccc21)C(C)(C)C

> <Shape>
0.227

> <Color>
0.059

> <Negative vol penalty>
0.000

$$$$

  -OEChem-04052321003D

 85 93  0     1  0  0  0  0  0999 V2000
  -18.5197  -24.3107   27.5748 C   0  0  0  0  0  0  0  0  0  0  0  0
  -19.5878  -24.5164   26.7075 C   0  0  0  0  0  0  0  0  0  0  0  0
  -28.8597  -17.6440   19.6584 C   0  0  0  0  0  0  0  0  0  0  0  0
  -30.6349  -18.0834   21.2373 C   0  0  0  0  0  0  0  0  0  0  0  0
  -18.1378  -23.0131   27.9131 C   0  0  0  0  0  0  0  0  0  0  0  0
  -20.2754  -23.4245   26.1787 C   0  0  0  0  0  0  0  0  0  0  0  0
  -21.1676  -23.9078   21.2174 C   0  0  0  0  0  0  0  0  0  0  0  0
  -29.4116  -16.3923   19.3862 C   0  0  0  0  0  0  0  0  0  0  0  0
  -31.1868  -16.8316   20.9651 C   0  0  0  0  0  0  0  0  0  0  0  0
  -22.2171  -24.7434   20.8376 C   0  0  0  0  0  0  0  0  0  0  0  0
  -29.4912  -13.3370   20.8326 C   0  0  0  0  0  0  0  0  0  0  0  0
  -28.6251  -12.2451   20.7762 C   0  0  0  0  0  0  0  0  0  0  0  0
  -23.6327  -22.8148   20.5282 C   0  0  0  0  0  0  0  0  0  0  0  0
  -29.2846  -11.8403   18.4875 C   0  0  0  0  0  0  0  0  0  0  0  0
  -29.4714  -18.4896   20.5839 C   0  0  0  0  0  0  0  0  0  0  0  0
  -27.9476  -20.0954   21.8517 C   0  0  0  0  0  0  0  0  0  0  0  0
  -18.8149  -21.9047   27.3807 C   0  0  0  0  0  0  0  0  0  0  0  0
  -21.3464  -22.5178   21.2660 C   0  0  0  0  0  0  0  0  0  0  0  0
  -19.9030  -22.1109   26.5113 C   0  0  0  0  0  0  0  0  0  0  0  0
  -22.5832  -21.9636   20.9065 C   0  0  0  0  0  0  0  0  0  0  0  0
  -30.5752  -15.9860   20.0395 C   0  0  0  0  0  0  0  0  0  0  0  0
  -23.4507  -24.1971   20.4957 C   0  0  0  0  0  0  0  0  0  0  0  0
  -30.2539  -13.6807   19.7164 C   0  0  0  0  0  0  0  0  0  0  0  0
  -28.5218  -11.4967   19.6037 C   0  0  0  0  0  0  0  0  0  0  0  0
  -30.1506  -12.9323   18.5439 C   0  0  0  0  0  0  0  0  0  0  0  0
  -28.9021  -19.7830   20.8652 C   0  0  0  0  0  0  0  0  0  0  0  0
  -27.7388  -21.4457   21.7120 C   0  0  0  0  0  0  0  0  0  0  0  0
  -27.3072  -19.2414   22.8088 C   0  0  0  0  0  0  0  0  0  0  0  0
  -21.2038  -20.3166   23.5547 C   0  0  0  0  0  0  0  0  0  0  0  0
  -21.6076  -18.2691   21.0714 C   0  0  0  0  0  0  0  0  0  0  0  0
  -22.7398  -17.7575   17.8929 C   0  0  0  0  0  0  0  0  0  0  0  0
  -29.6923  -26.6236   20.9920 C   0  0  0  0  0  0  0  0  0  0  0  0
  -18.3958  -20.5218   27.8127 C   0  0  0  0  0  0  0  0  0  0  0  0
  -20.1965  -21.6284   21.6520 C   0  0  0  0  0  0  0  0  0  0  0  0
  -22.8205  -20.4763   20.9228 C   0  0  0  0  0  0  0  0  0  0  0  0
  -18.9381  -19.4126   26.9150 C   0  0  0  0  0  0  0  0  0  0  0  0
  -29.1973  -24.6438   18.0745 C   0  0  0  0  0  0  0  0  0  0  0  0
  -20.4222  -19.6289   26.6367 C   0  0  0  0  0  0  0  0  0  0  0  0
  -24.3590  -30.8587   21.7136 C   0  0  0  0  0  0  0  0  0  0  0  0
  -29.0040  -23.2283   18.6214 C   0  0  0  0  0  0  0  0  0  0  0  0
  -25.7740  -30.3229   21.9180 C   0  0  0  0  0  0  0  0  0  0  0  0
  -23.9964  -29.1881   19.8522 C   0  0  0  0  0  0  0  0  0  0  0  0
  -30.2240  -25.4281   18.8886 C   0  0  0  0  0  0  0  0  0  0  0  0
  -29.7668  -24.0585   20.8859 C   0  0  0  0  0  0  0  0  0  0  0  0
  -20.6579  -20.9517   25.8977 C   0  0  1  0  0  0  0  0  0  0  0  0
  -20.6431  -20.2616   22.1618 C   0  0  1  0  0  0  0  0  0  0  0  0
  -23.8868  -30.6619   20.2682 C   0  0  1  0  0  0  0  0  0  0  0  0
  -25.4212  -28.6379   20.0466 C   0  0  1  0  0  0  0  0  0  0  0  0
  -28.6995  -23.2474   20.1314 C   0  0  2  0  0  0  0  0  0  0  0  0
  -25.8748  -28.8556   21.5011 C   0  0  1  0  0  0  0  0  0  0  0  0
  -22.4543  -31.1649   20.0969 C   0  0  0  0  0  0  0  0  0  0  0  0
  -22.9663  -15.9699   16.1462 C   0  0  0  0  0  0  0  0  0  0  0  0
  -25.6071  -27.0482   18.1135 C   0  0  0  0  0  0  0  0  0  0  0  0
  -29.5911  -27.4098   24.5983 C   0  0  0  0  0  0  0  0  0  0  0  0
  -23.9646  -17.0778   22.5996 C   0  0  0  0  0  0  0  0  0  0  0  0
  -24.7109  -15.9975   20.4679 C   0  0  0  0  0  0  0  0  0  0  0  0
  -22.5029  -15.3977   21.4617 C   0  0  0  0  0  0  0  0  0  0  0  0
  -21.0227  -19.2370   15.9899 C   0  0  0  0  0  0  0  0  0  0  0  0
  -27.6797  -28.1462   23.0752 C   0  0  0  0  0  0  0  0  0  0  0  0
  -24.2199  -26.4140   20.1090 C   0  0  0  0  0  0  0  0  0  1  0  0
  -22.7979  -17.6595   20.3711 C   0  0  1  0  0  0  0  0  0  0  0  0
  -22.0964  -17.0930   16.6891 C   0  0  2  0  0  0  0  0  0  0  0  0
  -25.4642  -27.1663   19.6294 C   0  0  2  0  0  0  0  0  0  0  0  0
  -29.1308  -27.6761   23.1683 C   0  0  2  0  0  0  0  0  0  0  0  0
  -23.4905  -16.5613   21.2265 C   0  0  0  0  0  0  0  0  0  0  0  0
  -29.2737  -20.8490   20.1514 N   0  0  0  0  0  0  0  0  0  0  0  0
  -28.5490  -21.8444   20.6899 N   0  0  0  0  0  0  0  0  0  0  0  0
  -21.6671  -19.6488   21.3132 N   0  0  0  0  0  0  0  0  0  0  0  0
  -29.8763  -25.4087   20.3115 N   0  0  0  0  0  0  0  0  0  0  0  0
  -26.9429  -22.3190   22.3650 N   0  0  0  0  0  0  0  0  0  0  0  0
  -27.6374  -17.8793   22.8154 N   0  0  0  0  0  0  0  0  0  0  0  0
  -20.3235  -20.8144   24.4964 N   0  0  0  0  0  0  0  0  0  0  0  0
  -22.3145  -17.1921   19.0764 N   0  0  0  0  0  0  0  0  0  0  0  0
  -29.3584  -26.5154   22.3364 N   0  0  0  0  0  0  0  0  0  0  0  0
  -27.2914  -28.4258   21.6686 N   0  3  0  0  0  0  0  0  0  0  0  0
  -21.8813  -18.0886   15.6013 N   0  3  0  0  0  0  0  0  0  0  0  0
  -26.4547  -19.6703   23.6230 O   0  0  0  0  0  0  0  0  0  0  0  0
  -22.3498  -19.9343   23.7603 O   0  0  0  0  0  0  0  0  0  0  0  0
  -20.6568  -17.5488   21.3858 O   0  0  0  0  0  0  0  0  0  0  0  0
  -23.5424  -18.6828   17.7931 O   0  0  0  0  0  0  0  0  0  0  0  0
  -29.8112  -27.7232   20.4409 O   0  0  0  0  0  0  0  0  0  0  0  0
  -31.1139  -14.7645   19.7743 O   0  0  0  0  0  0  0  0  0  0  0  0
  -24.4769  -25.0105   20.1253 O   0  0  0  0  0  0  0  0  0  1  0  0
  -27.6912  -10.4472   19.5501 F   0  0  0  0  0  0  0  0  0  0  0  0
  -30.8817  -13.2568   17.4687 F   0  0  0  0  0  0  0  0  0  0  0  0
  1  2  1  0  0  0  0
  1  5  2  0  0  0  0
  2  6  2  0  0  0  0
  3  8  2  0  0  0  0
  3 15  1  0  0  0  0
  4  9  1  0  0  0  0
  4 15  2  0  0  0  0
  5 17  1  0  0  0  0
  6 19  1  0  0  0  0
  7 10  2  0  0  0  0
  7 18  1  0  0  0  0
  8 21  1  0  0  0  0
  9 21  2  0  0  0  0
 10 22  1  0  0  0  0
 11 12  2  0  0  0  0
 11 23  1  0  0  0  0
 12 24  1  0  0  0  0
 13 20  1  0  0  0  0
 13 22  2  0  0  0  0
 14 24  2  0  0  0  0
 14 25  1  0  0  0  0
 15 26  1  0  0  0  0
 16 26  1  0  0  0  0
 16 27  2  0  0  0  0
 16 28  1  0  0  0  0
 17 19  2  0  0  0  0
 17 33  1  0  0  0  0
 18 20  2  0  0  0  0
 18 34  1  0  0  0  0
 19 45  1  0  0  0  0
 20 35  1  0  0  0  0
 21 82  1  0  0  0  0
 22 83  1  0  0  0  0
 23 25  2  0  0  0  0
 23 82  1  0  0  0  0
 24 84  1  0  0  0  0
 25 85  1  0  0  0  0
 26 66  2  0  0  0  0
 27 67  1  0  0  0  0
 27 70  1  0  0  0  0
 28 71  1  0  0  0  0
 28 77  2  0  0  0  0
 29 46  1  0  0  0  0
 29 72  1  0  0  0  0
 29 78  2  0  0  0  0
 30 61  1  0  0  0  0
 30 68  1  0  0  0  0
 30 79  2  0  0  0  0
 31 62  1  0  0  0  0
 31 73  1  0  0  0  0
 31 80  2  0  0  0  0
 32 69  1  0  0  0  0
 32 74  1  0  0  0  0
 32 81  2  0  0  0  0
 33 36  1  0  0  0  0
 34 46  1  0  0  0  0
 35 68  1  0  0  0  0
 36 38  1  0  0  0  0
 37 40  1  0  0  0  0
 37 43  1  0  0  0  0
 38 45  1  0  0  0  0
 39 41  1  0  0  0  0
 39 47  1  0  0  0  0
 40 49  1  0  0  0  0
 41 50  1  0  0  0  0
 42 47  1  0  0  0  0
 42 48  1  0  0  0  0
 43 69  1  0  0  0  0
 44 49  1  0  0  0  0
 44 69  1  0  0  0  0
 45 72  1  0  0  0  0
 46 68  1  0  0  0  0
 47 51  1  0  0  0  0
 48 50  1  0  0  0  0
 48 63  1  0  0  0  0
 49 67  1  0  0  0  0
 50 75  1  0  0  0  0
 52 62  1  0  0  0  0
 53 63  1  0  0  0  0
 54 64  1  0  0  0  0
 55 65  1  0  0  0  0
 56 65  1  0  0  0  0
 57 65  1  0  0  0  0
 58 76  1  0  0  0  0
 59 64  1  0  0  0  0
 59 75  1  0  0  0  0
 60 63  1  0  0  0  0
 60 83  1  0  0  0  0
 61 65  1  0  0  0  0
 61 73  1  0  0  0  0
 62 76  1  0  0  0  0
 64 74  1  0  0  0  0
 66 67  1  0  0  0  0
M  CHG  2  75   1  76   1
M  ISO  4  32 100  60 101  74 100  83 101
M  END
> <Batch ID>
0135

> <Smiles>
CNC(C)C(=O)NC(C(=O)N1Cc2cc([101O:1][101CH2:1]C(C)C3CC(C)CCC3NCC(C)[100NH:0][100C:0](=O)N3CCCC(n4nc(-c5ccc(Oc6ccc(F)cc6F)cc5)c(C(N)=O)c4N)C3)ccc2CC1C(=O)NC1CCCc2ccccc21)C(C)(C)C

> <Shape>
0.205

> <Color>
0.058

> <Negative vol penalty>
0.000

$$$$

  -OEChem-04052321003D

 83 91  0     1  0  0  0  0  0999 V2000
  -18.0182  -27.5058   22.9736 C   0  0  0  0  0  0  0  0  0  0  0  0
  -18.3354  -27.0141   21.7115 C   0  0  0  0  0  0  0  0  0  0  0  0
  -21.5119  -14.2780   21.5957 C   0  0  0  0  0  0  0  0  0  0  0  0
  -21.7187  -14.3674   19.1902 C   0  0  0  0  0  0  0  0  0  0  0  0
  -19.0057  -28.1027   23.7563 C   0  0  0  0  0  0  0  0  0  0  0  0
  -19.6401  -27.1200   21.2308 C   0  0  0  0  0  0  0  0  0  0  0  0
  -22.5821  -23.1137   17.6532 C   0  0  0  0  0  0  0  0  0  0  0  0
  -25.4191  -20.9945   14.7073 C   0  0  0  0  0  0  0  0  0  0  0  0
  -20.1776  -14.6720   21.4956 C   0  0  0  0  0  0  0  0  0  0  0  0
  -20.3844  -14.7614   19.0901 C   0  0  0  0  0  0  0  0  0  0  0  0
  -22.8130  -23.0768   16.2787 C   0  0  0  0  0  0  0  0  0  0  0  0
  -18.5873  -17.5971   19.4900 C   0  0  0  0  0  0  0  0  0  0  0  0
  -18.2857  -18.6508   18.6273 C   0  0  0  0  0  0  0  0  0  0  0  0
  -25.9896  -19.8259   15.1996 C   0  0  0  0  0  0  0  0  0  0  0  0
  -24.9781  -24.0838   16.6215 C   0  0  0  0  0  0  0  0  0  0  0  0
  -16.8331  -17.1959   17.3583 C   0  0  0  0  0  0  0  0  0  0  0  0
  -22.2825  -14.1258   20.4430 C   0  0  0  0  0  0  0  0  0  0  0  0
  -24.1622  -12.4038   20.5397 C   0  0  0  0  0  0  0  0  0  0  0  0
  -20.3252  -28.2073   23.2890 C   0  0  0  0  0  0  0  0  0  0  0  0
  -23.5446  -23.6468   18.5225 C   0  0  0  0  0  0  0  0  0  0  0  0
  -20.6458  -27.7201   22.0074 C   0  0  0  0  0  0  0  0  0  0  0  0
  -24.7581  -24.1239   18.0068 C   0  0  0  0  0  0  0  0  0  0  0  0
  -26.2081  -22.1256   14.5301 C   0  0  0  0  0  0  0  0  0  0  0  0
  -19.6138  -14.9137   20.2428 C   0  0  0  0  0  0  0  0  0  0  0  0
  -24.0099  -23.5645   15.7624 C   0  0  0  0  0  0  0  0  0  0  0  0
  -18.0119  -16.3428   19.2869 C   0  0  0  0  0  0  0  0  0  0  0  0
  -17.4086  -18.4502   17.5614 C   0  0  0  0  0  0  0  0  0  0  0  0
  -17.1348  -16.1422   18.2211 C   0  0  0  0  0  0  0  0  0  0  0  0
  -23.6610  -13.7194   20.5457 C   0  0  0  0  0  0  0  0  0  0  0  0
  -27.5515  -22.0371   14.8577 C   0  0  0  0  0  0  0  0  0  0  0  0
  -27.3428  -19.8403   15.4969 C   0  0  0  0  0  0  0  0  0  0  0  0
  -25.5220  -12.5539   20.6614 C   0  0  0  0  0  0  0  0  0  0  0  0
  -23.4611  -11.1576   20.4336 C   0  0  0  0  0  0  0  0  0  0  0  0
  -23.6262  -26.0936   20.5500 C   0  0  0  0  0  0  0  0  0  0  0  0
  -26.5233  -24.8542   21.3202 C   0  0  0  0  0  0  0  0  0  0  0  0
  -29.2031  -22.9570   20.3896 C   0  0  0  0  0  0  0  0  0  0  0  0
  -29.2704  -17.0174   19.2913 C   0  0  0  0  0  0  0  0  0  0  0  0
  -21.3480  -28.9031   24.1519 C   0  0  0  0  0  0  0  0  0  0  0  0
  -23.2914  -23.6549   20.0052 C   0  0  0  0  0  0  0  0  0  0  0  0
  -25.8322  -24.6877   18.8995 C   0  0  0  0  0  0  0  0  0  0  0  0
  -22.7886  -28.6395   23.7214 C   0  0  0  0  0  0  0  0  0  0  0  0
  -28.8151  -15.5079   22.4836 C   0  0  0  0  0  0  0  0  0  0  0  0
  -22.9331  -28.8028   22.2117 C   0  0  0  0  0  0  0  0  0  0  0  0
  -27.4877  -14.7596   22.3484 C   0  0  0  0  0  0  0  0  0  0  0  0
  -28.7995  -16.8279   21.7159 C   0  0  0  0  0  0  0  0  0  0  0  0
  -27.0943  -15.9652   20.1596 C   0  0  0  0  0  0  0  0  0  0  0  0
  -22.0551  -27.7942   21.4612 C   0  0  1  0  0  0  0  0  0  0  0  0
  -24.1283  -24.6914   20.7486 C   0  0  1  0  0  0  0  0  0  0  0  0
  -27.0813  -14.6013   20.8709 C   0  0  2  0  0  0  0  0  0  0  0  0
  -28.4468  -23.2208   14.6885 C   0  0  0  0  0  0  0  0  0  0  0  0
  -25.6310  -23.4606   12.4739 C   0  0  0  0  0  0  0  0  0  0  0  0
  -31.3848  -21.7383   20.6179 C   0  0  0  0  0  0  0  0  0  0  0  0
  -27.7061  -27.6168   20.7915 C   0  0  0  0  0  0  0  0  0  0  0  0
  -29.9705  -26.5528   20.6984 C   0  0  0  0  0  0  0  0  0  0  0  0
  -28.6328  -26.4525   22.8015 C   0  0  0  0  0  0  0  0  0  0  0  0
  -27.8615  -20.4945   21.3354 C   0  0  0  0  0  0  0  0  0  0  0  0
  -29.2893  -18.5271   16.3409 C   0  0  0  0  0  0  0  0  0  0  0  0
  -29.6048  -17.1233   16.8344 C   0  0  0  0  0  0  0  0  0  0  0  0
  -25.5933  -23.3989   13.9956 C   0  0  1  0  0  0  0  0  0  1  0  0
  -27.9350  -25.0452   20.8204 C   0  0  1  0  0  0  0  0  0  0  0  0
  -29.9491  -21.8467   21.1074 C   0  0  2  0  0  0  0  0  0  0  0  0
  -28.5402  -26.4080   21.2607 C   0  0  0  0  0  0  0  0  0  0  0  0
  -24.6241  -14.6375   20.6621 N   0  0  0  0  0  0  0  0  0  0  0  0
  -28.1413  -20.9197   15.3382 N   0  0  0  0  0  0  0  0  0  0  0  0
  -25.7440  -13.8978   20.7305 N   0  0  0  0  0  0  0  0  0  0  0  0
  -25.5348  -24.6797   20.3414 N   0  0  0  0  0  0  0  0  0  0  0  0
  -28.4079  -16.6080   20.3216 N   0  0  0  0  0  0  0  0  0  0  0  0
  -26.5375  -11.6660   20.7150 N   0  0  0  0  0  0  0  0  0  0  0  0
  -22.0649  -11.1844   20.3153 N   0  0  0  0  0  0  0  0  0  0  0  0
  -27.9095  -18.6417   15.9973 N   0  0  0  0  0  0  0  0  0  0  0  0
  -22.6708  -26.4845   21.4685 N   0  0  0  0  0  0  0  0  0  0  0  0
  -28.6895  -23.8819   21.2740 N   0  0  0  0  0  0  0  0  0  0  0  0
  -28.8259  -16.7658   17.9991 N   0  0  0  0  0  0  0  0  0  0  0  0
  -29.2745  -20.5376   20.8789 N   0  3  0  0  0  0  0  0  0  0  0  0
  -24.0539  -10.0524   20.4599 O   0  0  0  0  0  0  0  0  0  0  0  0
  -24.0737  -26.7712   19.6322 O   0  0  0  0  0  0  0  0  0  0  0  0
  -26.3068  -24.8526   22.5346 O   0  0  0  0  0  0  0  0  0  0  0  0
  -29.0908  -23.0016   19.1665 O   0  0  0  0  0  0  0  0  0  0  0  0
  -30.3586  -17.5616   19.5071 O   0  0  0  0  0  0  0  0  0  0  0  0
  -18.3118  -15.2979   20.1448 O   0  0  0  0  0  0  0  0  0  0  0  0
  -24.2376  -23.5303   14.4212 O   0  0  0  0  0  0  0  0  0  1  0  0
  -17.1178  -19.4626   16.7339 F   0  0  0  0  0  0  0  0  0  0  0  0
  -16.5779  -14.9397   18.0216 F   0  0  0  0  0  0  0  0  0  0  0  0
  1  2  1  0  0  0  0
  1  5  2  0  0  0  0
  2  6  2  0  0  0  0
  3  9  2  0  0  0  0
  3 17  1  0  0  0  0
  4 10  1  0  0  0  0
  4 17  2  0  0  0  0
  5 19  1  0  0  0  0
  6 21  1  0  0  0  0
  7 11  2  0  0  0  0
  7 20  1  0  0  0  0
  8 14  2  0  0  0  0
  8 23  1  0  0  0  0
  9 24  1  0  0  0  0
 10 24  2  0  0  0  0
 11 25  1  0  0  0  0
 12 13  2  0  0  0  0
 12 26  1  0  0  0  0
 13 27  1  0  0  0  0
 14 31  1  0  0  0  0
 15 22  1  0  0  0  0
 15 25  2  0  0  0  0
 16 27  2  0  0  0  0
 16 28  1  0  0  0  0
 17 29  1  0  0  0  0
 18 29  1  0  0  0  0
 18 32  2  0  0  0  0
 18 33  1  0  0  0  0
 19 21  2  0  0  0  0
 19 38  1  0  0  0  0
 20 22  2  0  0  0  0
 20 39  1  0  0  0  0
 21 47  1  0  0  0  0
 22 40  1  0  0  0  0
 23 30  2  0  0  0  0
 23 59  1  0  0  0  0
 24 80  1  0  0  0  0
 25 81  1  0  0  0  0
 26 28  2  0  0  0  0
 26 80  1  0  0  0  0
 27 82  1  0  0  0  0
 28 83  1  0  0  0  0
 29 63  2  0  0  0  0
 30 50  1  0  0  0  0
 30 64  1  0  0  0  0
 31 64  2  0  0  0  0
 31 70  1  0  0  0  0
 32 65  1  0  0  0  0
 32 68  1  0  0  0  0
 33 69  1  0  0  0  0
 33 75  2  0  0  0  0
 34 48  1  0  0  0  0
 34 71  1  0  0  0  0
 34 76  2  0  0  0  0
 35 60  1  0  0  0  0
 35 66  1  0  0  0  0
 35 77  2  0  0  0  0
 36 61  1  0  0  0  0
 36 72  1  0  0  0  0
 36 78  2  0  0  0  0
 37 67  1  0  0  0  0
 37 73  1  0  0  0  0
 37 79  2  0  0  0  0
 38 41  1  0  0  0  0
 39 48  1  0  0  0  0
 40 66  1  0  0  0  0
 41 43  1  0  0  0  0
 42 44  1  0  0  0  0
 42 45  1  0  0  0  0
 43 47  1  0  0  0  0
 44 49  1  0  0  0  0
 45 67  1  0  0  0  0
 46 49  1  0  0  0  0
 46 67  1  0  0  0  0
 47 71  1  0  0  0  0
 48 66  1  0  0  0  0
 49 65  1  0  0  0  0
 51 59  1  0  0  0  0
 52 61  1  0  0  0  0
 53 62  1  0  0  0  0
 54 62  1  0  0  0  0
 55 62  1  0  0  0  0
 56 74  1  0  0  0  0
 57 58  1  0  0  0  0
 57 70  1  0  0  0  0
 58 73  1  0  0  0  0
 59 81  1  0  0  0  0
 60 62  1  0  0  0  0
 60 72  1  0  0  0  0
 61 74  1  0  0  0  0
 63 65  1  0  0  0  0
M  CHG  1  74   1
M  ISO  4  37 100  59 101  73 100  81 101
M  END
> <Batch ID>
0135

> <Smiles>
CNC(C)C(=O)NC(C(=O)N1Cc2cc([101O:1][101CH:1](C)c3ccc(NCC[100NH:0][100C:0](=O)N4CCCC(n5nc(-c6ccc(Oc7ccc(F)cc7F)cc6)c(C(N)=O)c5N)C4)nc3C)ccc2CC1C(=O)NC1CCCc2ccccc21)C(C)(C)C

> <Shape>
0.191

> <Color>
0.080

> <Negative vol penalty>
0.000

$$$$

  -OEChem-04052321003D

 82 90  0     1  0  0  0  0  0999 V2000
  -39.5484  -26.6885   14.2748 C   0  0  0  0  0  0  0  0  0  0  0  0
  -39.6879  -26.5278   15.6496 C   0  0  0  0  0  0  0  0  0  0  0  0
  -22.7127  -10.1068   20.1382 C   0  0  0  0  0  0  0  0  0  0  0  0
  -24.3513   -9.4258   21.7779 C   0  0  0  0  0  0  0  0  0  0  0  0
  -38.4615  -27.3966   13.7637 C   0  0  0  0  0  0  0  0  0  0  0  0
  -38.7412  -27.0762   16.5142 C   0  0  0  0  0  0  0  0  0  0  0  0
  -35.0525  -22.9162   21.0945 C   0  0  0  0  0  0  0  0  0  0  0  0
  -22.0120   -8.9186   20.3450 C   0  0  0  0  0  0  0  0  0  0  0  0
  -23.6505   -8.2376   21.9847 C   0  0  0  0  0  0  0  0  0  0  0  0
  -34.4581  -22.2172   22.1453 C   0  0  0  0  0  0  0  0  0  0  0  0
  -20.8954   -7.2326   23.6639 C   0  0  0  0  0  0  0  0  0  0  0  0
  -20.6937   -6.8218   24.9815 C   0  0  0  0  0  0  0  0  0  0  0  0
  -33.2575  -24.2097   22.8058 C   0  0  0  0  0  0  0  0  0  0  0  0
  -21.8959   -4.7758   24.5276 C   0  0  0  0  0  0  0  0  0  0  0  0
  -23.8824  -10.3604   20.8546 C   0  0  0  0  0  0  0  0  0  0  0  0
  -24.1331  -12.8989   20.8331 C   0  0  0  0  0  0  0  0  0  0  0  0
  -37.4959  -27.9457   14.6219 C   0  0  0  0  0  0  0  0  0  0  0  0
  -34.7394  -24.2622   20.8857 C   0  0  0  0  0  0  0  0  0  0  0  0
  -37.6412  -27.7934   16.0141 C   0  0  0  0  0  0  0  0  0  0  0  0
  -33.8401  -24.9117   21.7473 C   0  0  0  0  0  0  0  0  0  0  0  0
  -22.4808   -7.9840   21.2682 C   0  0  0  0  0  0  0  0  0  0  0  0
  -33.5631  -22.8624   22.9990 C   0  0  0  0  0  0  0  0  0  0  0  0
  -21.5972   -6.4149   22.7780 C   0  0  0  0  0  0  0  0  0  0  0  0
  -21.1940   -5.5934   25.4134 C   0  0  0  0  0  0  0  0  0  0  0  0
  -22.0974   -5.1866   23.2099 C   0  0  0  0  0  0  0  0  0  0  0  0
  -24.6070  -11.5873   20.6411 C   0  0  0  0  0  0  0  0  0  0  0  0
  -25.1958  -13.7009   20.4954 C   0  0  0  0  0  0  0  0  0  0  0  0
  -22.8472  -13.3519   21.2771 C   0  0  0  0  0  0  0  0  0  0  0  0
  -35.2675  -27.3423   18.8097 C   0  0  0  0  0  0  0  0  0  0  0  0
  -32.2773  -27.2243   19.4842 C   0  0  0  0  0  0  0  0  0  0  0  0
  -28.8764  -27.4909   19.4956 C   0  0  0  0  0  0  0  0  0  0  0  0
  -30.6405  -14.9081   20.7022 C   0  0  0  0  0  0  0  0  0  0  0  0
  -36.3637  -28.7434   14.0250 C   0  0  0  0  0  0  0  0  0  0  0  0
  -35.4025  -25.0707   19.8039 C   0  0  0  0  0  0  0  0  0  0  0  0
  -33.5596  -26.3697   21.5056 C   0  0  0  0  0  0  0  0  0  0  0  0
  -35.2043  -28.9725   14.9913 C   0  0  0  0  0  0  0  0  0  0  0  0
  -29.5761  -12.5800   18.2276 C   0  0  0  0  0  0  0  0  0  0  0  0
  -35.7247  -29.4240   16.3522 C   0  0  0  0  0  0  0  0  0  0  0  0
  -28.1524  -12.2180   18.6543 C   0  0  0  0  0  0  0  0  0  0  0  0
  -29.5833  -18.0856   22.2827 C   0  0  0  0  0  0  0  0  0  0  0  0
  -31.4913  -16.7601   23.2636 C   0  0  0  0  0  0  0  0  0  0  0  0
  -30.4912  -12.7862   19.4326 C   0  0  0  0  0  0  0  0  0  0  0  0
  -28.5720  -13.3934   20.8545 C   0  0  0  0  0  0  0  0  0  0  0  0
  -30.2168  -19.3696   22.8021 C   0  0  0  0  0  0  0  0  0  0  0  0
  -32.1144  -18.0507   23.7791 C   0  0  0  0  0  0  0  0  0  0  0  0
  -36.6218  -28.3523   16.9830 C   0  0  1  0  0  0  0  0  0  0  0  0
  -34.4708  -26.1268   19.1828 C   0  0  1  0  0  0  0  0  0  0  0  0
  -27.5984  -13.2304   19.6748 C   0  0  2  0  0  0  0  0  0  0  0  0
  -30.6345  -17.0064   22.0217 C   0  0  0  0  0  0  0  0  0  0  0  0
  -27.0325  -29.1824   19.3055 C   0  0  0  0  0  0  0  0  0  0  0  0
  -32.3889  -21.3778   26.8349 C   0  0  0  0  0  0  0  0  0  0  0  0
  -30.8056  -19.4413   26.9660 C   0  0  0  0  0  0  0  0  0  0  0  0
  -32.8252  -28.1373   22.3426 C   0  0  0  0  0  0  0  0  0  0  0  0
  -30.4947  -29.0486   22.4228 C   0  0  0  0  0  0  0  0  0  0  0  0
  -32.1333  -29.9621   20.7787 C   0  0  0  0  0  0  0  0  0  0  0  0
  -27.7819  -26.1966   17.0695 C   0  0  0  0  0  0  0  0  0  0  0  0
  -32.7708  -20.7758   23.8212 C   0  0  0  0  0  0  0  0  0  1  0  0
  -31.1736  -27.6510   20.4186 C   0  0  1  0  0  0  0  0  0  0  0  0
  -27.9182  -28.1997   18.5555 C   0  0  2  0  0  0  0  0  0  0  0  0
  -31.9286  -20.0868   26.1483 C   0  0  0  0  0  0  0  0  0  0  0  0
  -31.5785  -20.3198   24.6615 C   0  0  2  0  0  0  0  0  0  0  0  0
  -31.6613  -28.6724   21.4846 C   0  0  0  0  0  0  0  0  0  0  0  0
  -25.8722  -11.5535   20.2144 N   0  0  0  0  0  0  0  0  0  0  0  0
  -26.2023  -12.8539   20.1353 N   0  0  0  0  0  0  0  0  0  0  0  0
  -33.3981  -26.6180   20.0644 N   0  0  0  0  0  0  0  0  0  0  0  0
  -29.9090  -13.7587   20.3607 N   0  0  0  0  0  0  0  0  0  0  0  0
  -25.3581  -15.0409   20.4742 N   0  0  0  0  0  0  0  0  0  0  0  0
  -22.6409  -13.5340   22.6513 N   0  0  0  0  0  0  0  0  0  0  0  0
  -35.8187  -27.2869   17.5437 N   0  0  0  0  0  0  0  0  0  0  0  0
  -30.0899  -28.1409   19.5735 N   0  0  0  0  0  0  0  0  0  0  0  0
  -30.0131  -15.7810   21.5826 N   0  0  0  0  0  0  0  0  0  0  0  0
  -31.0280  -19.0663   24.0388 N   0  3  0  0  0  0  0  0  0  0  0  0
  -27.0430  -27.2104   17.8653 N   0  3  0  0  0  0  0  0  0  0  0  0
  -21.9040  -13.5723   20.4801 O   0  0  0  0  0  0  0  0  0  0  0  0
  -35.3739  -28.2641   19.6101 O   0  0  0  0  0  0  0  0  0  0  0  0
  -32.1542  -27.4270   18.2730 O   0  0  0  0  0  0  0  0  0  0  0  0
  -28.5770  -26.4654   20.1032 O   0  0  0  0  0  0  0  0  0  0  0  0
  -31.7670  -15.1420   20.2513 O   0  0  0  0  0  0  0  0  0  0  0  0
  -21.7972   -6.8245   21.4704 O   0  0  0  0  0  0  0  0  0  0  0  0
  -32.9830  -22.1729   24.0202 O   0  0  0  0  0  0  0  0  0  1  0  0
  -21.0016   -5.1998   26.6791 F   0  0  0  0  0  0  0  0  0  0  0  0
  -22.7735   -4.3973   22.3638 F   0  0  0  0  0  0  0  0  0  0  0  0
  1  2  1  0  0  0  0
  1  5  2  0  0  0  0
  2  6  2  0  0  0  0
  3  8  2  0  0  0  0
  3 15  1  0  0  0  0
  4  9  1  0  0  0  0
  4 15  2  0  0  0  0
  5 17  1  0  0  0  0
  6 19  1  0  0  0  0
  7 10  2  0  0  0  0
  7 18  1  0  0  0  0
  8 21  1  0  0  0  0
  9 21  2  0  0  0  0
 10 22  1  0  0  0  0
 11 12  2  0  0  0  0
 11 23  1  0  0  0  0
 12 24  1  0  0  0  0
 13 20  1  0  0  0  0
 13 22  2  0  0  0  0
 14 24  2  0  0  0  0
 14 25  1  0  0  0  0
 15 26  1  0  0  0  0
 16 26  1  0  0  0  0
 16 27  2  0  0  0  0
 16 28  1  0  0  0  0
 17 19  2  0  0  0  0
 17 33  1  0  0  0  0
 18 20  2  0  0  0  0
 18 34  1  0  0  0  0
 19 46  1  0  0  0  0
 20 35  1  0  0  0  0
 21 79  1  0  0  0  0
 22 80  1  0  0  0  0
 23 25  2  0  0  0  0
 23 79  1  0  0  0  0
 24 81  1  0  0  0  0
 25 82  1  0  0  0  0
 26 63  2  0  0  0  0
 27 64  1  0  0  0  0
 27 67  1  0  0  0  0
 28 68  1  0  0  0  0
 28 74  2  0  0  0  0
 29 47  1  0  0  0  0
 29 69  1  0  0  0  0
 29 75  2  0  0  0  0
 30 58  1  0  0  0  0
 30 65  1  0  0  0  0
 30 76  2  0  0  0  0
 31 59  1  0  0  0  0
 31 70  1  0  0  0  0
 31 77  2  0  0  0  0
 32 66  1  0  0  0  0
 32 71  1  0  0  0  0
 32 78  2  0  0  0  0
 33 36  1  0  0  0  0
 34 47  1  0  0  0  0
 35 65  1  0  0  0  0
 36 38  1  0  0  0  0
 37 39  1  0  0  0  0
 37 42  1  0  0  0  0
 38 46  1  0  0  0  0
 39 48  1  0  0  0  0
 40 44  1  0  0  0  0
 40 49  1  0  0  0  0
 41 45  1  0  0  0  0
 41 49  1  0  0  0  0
 42 66  1  0  0  0  0
 43 48  1  0  0  0  0
 43 66  1  0  0  0  0
 44 72  1  0  0  0  0
 45 72  1  0  0  0  0
 46 69  1  0  0  0  0
 47 65  1  0  0  0  0
 48 64  1  0  0  0  0
 49 71  1  0  0  0  0
 50 59  1  0  0  0  0
 51 60  1  0  0  0  0
 52 60  1  0  0  0  0
 53 62  1  0  0  0  0
 54 62  1  0  0  0  0
 55 62  1  0  0  0  0
 56 73  1  0  0  0  0
 57 61  1  0  0  0  0
 57 80  1  0  0  0  0
 58 62  1  0  0  0  0
 58 70  1  0  0  0  0
 59 73  1  0  0  0  0
 60 61  1  0  0  0  0
 61 72  1  0  0  0  0
 63 64  1  0  0  0  0
M  CHG  2  72   1  73   1
M  ISO  4  32 100  57 101  71 100  80 101
M  END
> <Batch ID>
0135

> <Smiles>
CNC(C)C(=O)NC(C(=O)N1Cc2cc([101O:1][101CH2:1]C(C(C)C)N3CCC([100NH:0][100C:0](=O)N4CCCC(n5nc(-c6ccc(Oc7ccc(F)cc7F)cc6)c(C(N)=O)c5N)C4)CC3)ccc2CC1C(=O)NC1CCCc2ccccc21)C(C)(C)C

> <Shape>
0.225

> <Color>
0.194

> <Negative vol penalty>
0.000

$$$$

  -OEChem-04052321003D

 83 91  0     1  0  0  0  0  0999 V2000
  -30.3059  -28.2951   16.7678 C   0  0  0  0  0  0  0  0  0  0  0  0
  -29.6379  -27.0747   16.7659 C   0  0  0  0  0  0  0  0  0  0  0  0
  -28.5963  -18.0038   19.9444 C   0  0  0  0  0  0  0  0  0  0  0  0
  -26.8574  -18.8115   21.4144 C   0  0  0  0  0  0  0  0  0  0  0  0
  -30.2242  -29.1314   17.8804 C   0  0  0  0  0  0  0  0  0  0  0  0
  -28.8887  -26.6895   17.8770 C   0  0  0  0  0  0  0  0  0  0  0  0
  -22.9962  -23.0151   19.6359 C   0  0  0  0  0  0  0  0  0  0  0  0
  -28.7281  -19.2806   19.3986 C   0  0  0  0  0  0  0  0  0  0  0  0
  -26.9892  -20.0884   20.8686 C   0  0  0  0  0  0  0  0  0  0  0  0
  -22.5807  -21.9847   20.4781 C   0  0  0  0  0  0  0  0  0  0  0  0
  -30.1831  -22.2132   20.2447 C   0  0  0  0  0  0  0  0  0  0  0  0
  -31.4735  -22.7112   20.0647 C   0  0  0  0  0  0  0  0  0  0  0  0
  -22.4468  -23.5459   22.3122 C   0  0  0  0  0  0  0  0  0  0  0  0
  -31.0662  -22.9087   17.6915 C   0  0  0  0  0  0  0  0  0  0  0  0
  -27.6609  -17.7692   20.9523 C   0  0  0  0  0  0  0  0  0  0  0  0
  -28.2149  -15.9232   22.6235 C   0  0  0  0  0  0  0  0  0  0  0  0
  -29.4657  -28.7605   19.0019 C   0  0  0  0  0  0  0  0  0  0  0  0
  -23.1508  -24.3188   20.1289 C   0  0  0  0  0  0  0  0  0  0  0  0
  -28.7979  -27.5210   19.0062 C   0  0  0  0  0  0  0  0  0  0  0  0
  -22.8618  -24.5916   21.4736 C   0  0  0  0  0  0  0  0  0  0  0  0
  -27.9246  -20.3230   19.8608 C   0  0  0  0  0  0  0  0  0  0  0  0
  -22.3087  -22.2494   21.8172 C   0  0  0  0  0  0  0  0  0  0  0  0
  -29.3342  -22.0629   19.1481 C   0  0  0  0  0  0  0  0  0  0  0  0
  -31.9151  -23.0590   18.7881 C   0  0  0  0  0  0  0  0  0  0  0  0
  -29.7757  -22.4107   17.8715 C   0  0  0  0  0  0  0  0  0  0  0  0
  -27.5239  -16.4503   21.5160 C   0  0  0  0  0  0  0  0  0  0  0  0
  -27.7302  -14.6447   22.7539 C   0  0  0  0  0  0  0  0  0  0  0  0
  -29.2063  -16.5346   23.4596 C   0  0  0  0  0  0  0  0  0  0  0  0
  -25.5908  -26.3367   20.4080 C   0  0  0  0  0  0  0  0  0  0  0  0
  -23.2744  -28.3927   21.3723 C   0  0  0  0  0  0  0  0  0  0  0  0
  -20.1692  -28.8343   22.7175 C   0  0  0  0  0  0  0  0  0  0  0  0
  -22.5833  -12.0504   21.1320 C   0  0  0  0  0  0  0  0  0  0  0  0
  -29.4457  -29.6765   20.1999 C   0  0  0  0  0  0  0  0  0  0  0  0
  -23.5740  -25.4245   19.2012 C   0  0  0  0  0  0  0  0  0  0  0  0
  -22.9926  -25.9780   22.0473 C   0  0  0  0  0  0  0  0  0  0  0  0
  -28.3257  -29.3621   21.1884 C   0  0  0  0  0  0  0  0  0  0  0  0
  -25.8701  -11.0649   20.1819 C   0  0  0  0  0  0  0  0  0  0  0  0
  -28.2622  -27.8632   21.4642 C   0  0  0  0  0  0  0  0  0  0  0  0
  -26.7290  -12.2858   20.5160 C   0  0  0  0  0  0  0  0  0  0  0  0
  -24.4918  -11.4693   19.6635 C   0  0  0  0  0  0  0  0  0  0  0  0
  -24.6054  -13.6128   20.8744 C   0  0  0  0  0  0  0  0  0  0  0  0
  -18.2348  -18.4037   23.6428 C   0  0  0  0  0  0  0  0  0  0  0  0
  -19.2379  -20.6289   23.6244 C   0  0  0  0  0  0  0  0  0  0  0  0
  -27.9549  -27.0791   20.1827 C   0  0  1  0  0  0  0  0  0  0  0  0
  -24.1929  -26.6127   19.9310 C   0  0  1  0  0  0  0  0  0  0  0  0
  -19.2875  -18.5079   22.5474 C   0  0  1  0  0  0  0  0  0  0  0  0
  -20.2193  -19.5947   23.0894 C   0  0  1  0  0  0  0  0  0  0  0  0
  -25.9848  -13.2552   21.4539 C   0  0  2  0  0  0  0  0  0  0  0  0
  -18.5641  -30.6308   23.4201 C   0  0  0  0  0  0  0  0  0  0  0  0
  -18.3256  -16.3889   20.5311 C   0  0  0  0  0  0  0  0  0  0  0  0
  -24.9404  -28.8978   23.8781 C   0  0  0  0  0  0  0  0  0  0  0  0
  -22.9117  -29.9122   24.9380 C   0  0  0  0  0  0  0  0  0  0  0  0
  -23.8949  -30.9437   22.8906 C   0  0  0  0  0  0  0  0  0  0  0  0
  -18.1233  -27.9248   20.7820 C   0  0  0  0  0  0  0  0  0  0  0  0
  -19.9747  -17.1784   22.2781 C   0  0  0  0  0  0  0  0  0  0  0  0
  -21.1638  -20.1779   22.0502 C   0  0  0  0  0  0  0  0  0  1  0  0
  -20.7554  -12.7643   22.6512 C   0  0  0  0  0  0  0  0  0  0  0  0
  -20.0413  -14.0700   22.9470 C   0  0  0  0  0  0  0  0  0  0  0  0
  -22.6486  -28.7525   22.6982 C   0  0  1  0  0  0  0  0  0  0  0  0
  -19.0027  -29.7084   22.2934 C   0  0  2  0  0  0  0  0  0  0  0  0
  -19.0128  -16.0649   21.8510 C   0  0  2  0  0  0  0  0  0  0  0  0
  -23.5982  -29.5999   23.5912 C   0  0  0  0  0  0  0  0  0  0  0  0
  -26.6656  -15.5780   20.9809 N   0  0  0  0  0  0  0  0  0  0  0  0
  -26.8142  -14.4897   21.7554 N   0  0  0  0  0  0  0  0  0  0  0  0
  -23.4157  -27.0242   21.1017 N   0  0  0  0  0  0  0  0  0  0  0  0
  -23.8387  -12.3874   20.5996 N   0  0  0  0  0  0  0  0  0  0  0  0
  -28.0024  -13.6493   23.6242 N   0  0  0  0  0  0  0  0  0  0  0  0
  -29.5893  -17.8547   23.1859 N   0  0  0  0  0  0  0  0  0  0  0  0
  -26.5471  -27.1701   19.8598 N   0  0  0  0  0  0  0  0  0  0  0  0
  -21.3807  -29.4041   22.3877 N   0  0  0  0  0  0  0  0  0  0  0  0
  -22.0376  -12.9728   22.0163 N   0  0  0  0  0  0  0  0  0  0  0  0
  -18.0940  -19.8102   24.1512 N   0  3  0  0  0  0  0  0  0  0  0  0
  -17.8401  -28.8643   21.8974 N   0  3  0  0  0  0  0  0  0  0  0  0
  -19.7623  -14.7892   21.6772 N   0  3  0  0  0  0  0  0  0  0  0  0
  -29.7488  -15.9226   24.4107 O   0  0  0  0  0  0  0  0  0  0  0  0
  -25.7870  -25.4355   21.2148 O   0  0  0  0  0  0  0  0  0  0  0  0
  -23.6185  -29.2925   20.6019 O   0  0  0  0  0  0  0  0  0  0  0  0
  -20.0206  -27.7558   23.2879 O   0  0  0  0  0  0  0  0  0  0  0  0
  -21.9950  -11.0023   20.8450 O   0  0  0  0  0  0  0  0  0  0  0  0
  -28.0531  -21.5691   19.3286 O   0  0  0  0  0  0  0  0  0  0  0  0
  -21.9037  -21.2453   22.6415 O   0  0  0  0  0  0  0  0  0  1  0  0
  -33.1537  -23.5386   18.6156 F   0  0  0  0  0  0  0  0  0  0  0  0
  -28.9644  -22.2697   16.8143 F   0  0  0  0  0  0  0  0  0  0  0  0
  1  2  1  0  0  0  0
  1  5  2  0  0  0  0
  2  6  2  0  0  0  0
  3  8  2  0  0  0  0
  3 15  1  0  0  0  0
  4  9  1  0  0  0  0
  4 15  2  0  0  0  0
  5 17  1  0  0  0  0
  6 19  1  0  0  0  0
  7 10  2  0  0  0  0
  7 18  1  0  0  0  0
  8 21  1  0  0  0  0
  9 21  2  0  0  0  0
 10 22  1  0  0  0  0
 11 12  2  0  0  0  0
 11 23  1  0  0  0  0
 12 24  1  0  0  0  0
 13 20  1  0  0  0  0
 13 22  2  0  0  0  0
 14 24  2  0  0  0  0
 14 25  1  0  0  0  0
 15 26  1  0  0  0  0
 16 26  1  0  0  0  0
 16 27  2  0  0  0  0
 16 28  1  0  0  0  0
 17 19  2  0  0  0  0
 17 33  1  0  0  0  0
 18 20  2  0  0  0  0
 18 34  1  0  0  0  0
 19 44  1  0  0  0  0
 20 35  1  0  0  0  0
 21 80  1  0  0  0  0
 22 81  1  0  0  0  0
 23 25  2  0  0  0  0
 23 80  1  0  0  0  0
 24 82  1  0  0  0  0
 25 83  1  0  0  0  0
 26 63  2  0  0  0  0
 27 64  1  0  0  0  0
 27 67  1  0  0  0  0
 28 68  1  0  0  0  0
 28 75  2  0  0  0  0
 29 45  1  0  0  0  0
 29 69  1  0  0  0  0
 29 76  2  0  0  0  0
 30 59  1  0  0  0  0
 30 65  1  0  0  0  0
 30 77  2  0  0  0  0
 31 60  1  0  0  0  0
 31 70  1  0  0  0  0
 31 78  2  0  0  0  0
 32 66  1  0  0  0  0
 32 71  1  0  0  0  0
 32 79  2  0  0  0  0
 33 36  1  0  0  0  0
 34 45  1  0  0  0  0
 35 65  1  0  0  0  0
 36 38  1  0  0  0  0
 37 39  1  0  0  0  0
 37 40  1  0  0  0  0
 38 44  1  0  0  0  0
 39 48  1  0  0  0  0
 40 66  1  0  0  0  0
 41 48  1  0  0  0  0
 41 66  1  0  0  0  0
 42 46  1  0  0  0  0
 42 72  1  0  0  0  0
 43 47  1  0  0  0  0
 43 72  1  0  0  0  0
 44 69  1  0  0  0  0
 45 65  1  0  0  0  0
 46 47  1  0  0  0  0
 46 55  1  0  0  0  0
 47 56  1  0  0  0  0
 48 64  1  0  0  0  0
 49 60  1  0  0  0  0
 50 61  1  0  0  0  0
 51 62  1  0  0  0  0
 52 62  1  0  0  0  0
 53 62  1  0  0  0  0
 54 73  1  0  0  0  0
 55 61  1  0  0  0  0
 56 81  1  0  0  0  0
 57 58  1  0  0  0  0
 57 71  1  0  0  0  0
 58 74  1  0  0  0  0
 59 62  1  0  0  0  0
 59 70  1  0  0  0  0
 60 73  1  0  0  0  0
 61 74  1  0  0  0  0
 63 64  1  0  0  0  0
M  CHG  3  72   1  73   1  74   1
M  ISO  4  32 100  56 101  71 100  81 101
M  END
> <Batch ID>
0135

> <Smiles>
CNC(C)C(=O)NC(C(=O)N1Cc2cc([101O:1][101CH2:1]C3CNCC3CC(C)NCC[100NH:0][100C:0](=O)N3CCCC(n4nc(-c5ccc(Oc6ccc(F)cc6F)cc5)c(C(N)=O)c4N)C3)ccc2CC1C(=O)NC1CCCc2ccccc21)C(C)(C)C

> <Shape>
0.217

> <Color>
0.056

> <Negative vol penalty>
0.000

$$$$

  -OEChem-04052321003D

 94104  0     1  0  0  0  0  0999 V2000
  -24.7784  -31.9806   16.0724 C   0  0  0  0  0  0  0  0  0  0  0  0
  -25.7438  -30.9901   16.2133 C   0  0  0  0  0  0  0  0  0  0  0  0
  -22.9382  -10.1362   19.8833 C   0  0  0  0  0  0  0  0  0  0  0  0
  -23.8684   -9.7684   22.0825 C   0  0  0  0  0  0  0  0  0  0  0  0
  -23.6524  -31.7443   15.2867 C   0  0  0  0  0  0  0  0  0  0  0  0
  -25.5894  -29.7674   15.5591 C   0  0  0  0  0  0  0  0  0  0  0  0
  -29.3669  -26.6231   15.7769 C   0  0  0  0  0  0  0  0  0  0  0  0
  -22.1523   -8.9926   20.0244 C   0  0  0  0  0  0  0  0  0  0  0  0
  -23.0825   -8.6248   22.2237 C   0  0  0  0  0  0  0  0  0  0  0  0
  -29.7081  -25.9344   16.9401 C   0  0  0  0  0  0  0  0  0  0  0  0
  -19.8697   -7.8889   22.9699 C   0  0  0  0  0  0  0  0  0  0  0  0
  -19.2023   -7.7084   24.1814 C   0  0  0  0  0  0  0  0  0  0  0  0
  -28.7014  -23.9339   16.0436 C   0  0  0  0  0  0  0  0  0  0  0  0
  -29.9837  -17.4130   22.9050 C   0  0  0  0  0  0  0  0  0  0  0  0
  -31.4622  -17.4188   20.9942 C   0  0  0  0  0  0  0  0  0  0  0  0
  -20.3860   -5.6303   24.5239 C   0  0  0  0  0  0  0  0  0  0  0  0
  -23.7963  -10.5242   20.9123 C   0  0  0  0  0  0  0  0  0  0  0  0
  -24.2682  -13.0216   21.1313 C   0  0  0  0  0  0  0  0  0  0  0  0
  -23.4787  -30.5133   14.6329 C   0  0  0  0  0  0  0  0  0  0  0  0
  -28.6796  -25.9742   14.7412 C   0  0  0  0  0  0  0  0  0  0  0  0
  -24.4716  -29.5184   14.7423 C   0  0  0  0  0  0  0  0  0  0  0  0
  -28.3549  -24.6159   14.8673 C   0  0  0  0  0  0  0  0  0  0  0  0
  -30.2279  -18.7726   23.0982 C   0  0  0  0  0  0  0  0  0  0  0  0
  -31.7064  -18.7785   21.1873 C   0  0  0  0  0  0  0  0  0  0  0  0
  -31.0892  -19.4554   22.2393 C   0  0  0  0  0  0  0  0  0  0  0  0
  -30.6009  -16.7361   21.8531 C   0  0  0  0  0  0  0  0  0  0  0  0
  -22.2244   -8.2368   21.1946 C   0  0  0  0  0  0  0  0  0  0  0  0
  -29.3728  -24.5903   17.0748 C   0  0  0  0  0  0  0  0  0  0  0  0
  -20.7952   -6.9400   22.5354 C   0  0  0  0  0  0  0  0  0  0  0  0
  -19.4605   -6.5792   24.9584 C   0  0  0  0  0  0  0  0  0  0  0  0
  -21.0533   -5.8107   23.3124 C   0  0  0  0  0  0  0  0  0  0  0  0
  -24.6089  -11.7052   20.7669 C   0  0  0  0  0  0  0  0  0  0  0  0
  -25.3698  -13.7680   20.7911 C   0  0  0  0  0  0  0  0  0  0  0  0
  -23.0637  -13.5246   21.7245 C   0  0  0  0  0  0  0  0  0  0  0  0
  -25.8520  -26.3574   13.3405 C   0  0  0  0  0  0  0  0  0  0  0  0
  -26.9607  -24.0472   11.3515 C   0  0  0  0  0  0  0  0  0  0  0  0
  -29.0772  -21.4148   10.8637 C   0  0  0  0  0  0  0  0  0  0  0  0
  -30.8833  -14.5346   20.6614 C   0  0  0  0  0  0  0  0  0  0  0  0
  -22.2447  -30.3138   13.7887 C   0  0  0  0  0  0  0  0  0  0  0  0
  -28.3423  -26.7242   13.4817 C   0  0  0  0  0  0  0  0  0  0  0  0
  -27.6351  -23.8680   13.7760 C   0  0  0  0  0  0  0  0  0  0  0  0
  -21.9533  -28.8449   13.4996 C   0  0  0  0  0  0  0  0  0  0  0  0
  -24.9477  -28.7952   20.0044 C   0  0  0  0  0  0  0  0  0  0  0  0
  -24.7137  -27.7583   18.9045 C   0  0  0  0  0  0  0  0  0  0  0  0
  -29.4604  -12.5515   18.0692 C   0  0  0  0  0  0  0  0  0  0  0  0
  -23.2115  -28.1550   12.9941 C   0  0  0  0  0  0  0  0  0  0  0  0
  -26.1965  -28.3428   20.7549 C   0  0  0  0  0  0  0  0  0  0  0  0
  -25.8437  -26.7423   19.0345 C   0  0  0  0  0  0  0  0  0  0  0  0
  -28.0433  -12.2628   18.5699 C   0  0  0  0  0  0  0  0  0  0  0  0
  -28.9792  -23.9118   22.3422 C   0  0  0  0  0  0  0  0  0  0  0  0
  -30.4750  -12.5584   19.2112 C   0  0  0  0  0  0  0  0  0  0  0  0
  -28.7212  -13.1524   20.8362 C   0  0  0  0  0  0  0  0  0  0  0  0
  -30.2263  -23.1247   22.7170 C   0  0  0  0  0  0  0  0  0  0  0  0
  -30.1472  -21.9295   20.5115 C   0  0  0  0  0  0  0  0  0  0  0  0
  -24.3099  -28.1697   14.0647 C   0  0  1  0  0  0  0  0  0  0  0  0
  -27.1884  -26.0983   12.7044 C   0  0  1  0  0  0  0  0  0  0  0  0
  -26.2597  -26.8403   20.4988 C   0  0  0  0  0  0  0  0  0  0  0  0
  -28.8887  -22.7091   20.1103 C   0  0  1  0  0  0  0  0  0  0  0  0
  -27.6540  -13.1993   19.7305 C   0  0  2  0  0  0  0  0  0  0  0  0
  -28.8568  -24.0688   20.8277 C   0  0  1  0  0  0  0  0  0  0  0  0
  -29.5551  -19.4742   24.2324 C   0  0  0  0  0  0  0  0  0  0  0  0
  -32.6328  -19.4863   20.2535 C   0  0  0  0  0  0  0  0  0  0  0  0
  -29.7281  -19.7020    9.1490 C   0  0  0  0  0  0  0  0  0  0  0  0
  -24.4084  -22.4848   11.9469 C   0  0  0  0  0  0  0  0  0  0  0  0
  -25.5196  -20.4472   11.0077 C   0  0  0  0  0  0  0  0  0  0  0  0
  -25.1274  -22.4347    9.5521 C   0  0  0  0  0  0  0  0  0  0  0  0
  -31.8652  -22.4029   10.7658 C   0  0  0  0  0  0  0  0  0  0  0  0
  -31.3514  -20.9180   22.4468 C   0  0  0  0  0  0  0  0  0  0  0  0
  -27.6285  -26.2430   20.7737 C   0  0  0  0  0  0  0  0  0  0  0  0
  -28.8454  -22.8465   18.6034 C   0  0  0  0  0  0  0  0  0  1  0  0
  -26.9163  -22.5383   11.3358 C   0  0  1  0  0  0  0  0  0  0  0  0
  -30.0213  -21.0794    9.7232 C   0  0  2  0  0  0  0  0  0  0  0  0
  -25.5048  -21.9906   10.9822 C   0  0  0  0  0  0  0  0  0  0  0  0
  -25.8312  -11.6171   20.2356 N   0  0  0  0  0  0  0  0  0  0  0  0
  -26.2682  -12.8877   20.2638 N   0  0  0  0  0  0  0  0  0  0  0  0
  -27.3214  -24.6466   12.5665 N   0  0  0  0  0  0  0  0  0  0  0  0
  -30.0422  -13.4708   20.2719 N   0  0  0  0  0  0  0  0  0  0  0  0
  -25.6479  -15.0850   20.8945 N   0  0  0  0  0  0  0  0  0  0  0  0
  -22.0311  -12.6208   22.0093 N   0  0  0  0  0  0  0  0  0  0  0  0
  -30.3522  -15.3551   21.6560 N   0  0  0  0  0  0  0  0  0  0  0  0
  -25.5456  -27.6976   13.4798 N   0  0  0  0  0  0  0  0  0  0  0  0
  -27.9700  -22.1084   10.4229 N   0  0  0  0  0  0  0  0  0  0  0  0
  -30.2039  -21.7896   22.0147 N   0  3  1  0  0  0  0  0  0  0  0  0
  -27.5792  -24.7768   20.5370 N   0  3  0  0  0  0  0  0  0  0  0  0
  -31.4340  -21.0999   10.1972 N   0  3  0  0  0  0  0  0  0  0  0  0
  -22.9014  -14.7422   21.9789 O   0  0  0  0  0  0  0  0  0  0  0  0
  -25.1502  -25.4114   13.6784 O   0  0  0  0  0  0  0  0  0  0  0  0
  -26.6923  -24.6708   10.3216 O   0  0  0  0  0  0  0  0  0  0  0  0
  -29.2979  -21.0906   12.0284 O   0  0  0  0  0  0  0  0  0  0  0  0
  -31.9815  -14.7212   20.1311 O   0  0  0  0  0  0  0  0  0  0  0  0
  -21.4574   -7.1209   21.3328 O   0  0  0  0  0  0  0  0  0  0  0  0
  -29.7041  -23.9159   18.2094 O   0  0  0  0  0  0  0  0  0  1  0  0
  -18.8207   -6.4068   26.1225 F   0  0  0  0  0  0  0  0  0  0  0  0
  -21.9422   -4.8963   22.9007 F   0  0  0  0  0  0  0  0  0  0  0  0
  1  2  1  0  0  0  0
  1  5  2  0  0  0  0
  2  6  2  0  0  0  0
  3  8  2  0  0  0  0
  3 17  1  0  0  0  0
  4  9  1  0  0  0  0
  4 17  2  0  0  0  0
  5 19  1  0  0  0  0
  6 21  1  0  0  0  0
  7 10  2  0  0  0  0
  7 20  1  0  0  0  0
  8 27  1  0  0  0  0
  9 27  2  0  0  0  0
 10 28  1  0  0  0  0
 11 12  2  0  0  0  0
 11 29  1  0  0  0  0
 12 30  1  0  0  0  0
 13 22  1  0  0  0  0
 13 28  2  0  0  0  0
 14 23  2  0  0  0  0
 14 26  1  0  0  0  0
 15 24  1  0  0  0  0
 15 26  2  0  0  0  0
 16 30  2  0  0  0  0
 16 31  1  0  0  0  0
 17 32  1  0  0  0  0
 18 32  1  0  0  0  0
 18 33  2  0  0  0  0
 18 34  1  0  0  0  0
 19 21  2  0  0  0  0
 19 39  1  0  0  0  0
 20 22  2  0  0  0  0
 20 40  1  0  0  0  0
 21 55  1  0  0  0  0
 22 41  1  0  0  0  0
 23 25  1  0  0  0  0
 23 61  1  0  0  0  0
 24 25  2  0  0  0  0
 24 62  1  0  0  0  0
 25 68  1  0  0  0  0
 26 80  1  0  0  0  0
 27 91  1  0  0  0  0
 28 92  1  0  0  0  0
 29 31  2  0  0  0  0
 29 91  1  0  0  0  0
 30 93  1  0  0  0  0
 31 94  1  0  0  0  0
 32 74  2  0  0  0  0
 33 75  1  0  0  0  0
 33 78  1  0  0  0  0
 34 79  1  0  0  0  0
 34 86  2  0  0  0  0
 35 56  1  0  0  0  0
 35 81  1  0  0  0  0
 35 87  2  0  0  0  0
 36 71  1  0  0  0  0
 36 76  1  0  0  0  0
 36 88  2  0  0  0  0
 37 72  1  0  0  0  0
 37 82  1  0  0  0  0
 37 89  2  0  0  0  0
 38 77  1  0  0  0  0
 38 80  1  0  0  0  0
 38 90  2  0  0  0  0
 39 42  1  0  0  0  0
 40 56  1  0  0  0  0
 41 76  1  0  0  0  0
 42 46  1  0  0  0  0
 43 44  1  0  0  0  0
 43 47  1  0  0  0  0
 44 48  1  0  0  0  0
 45 49  1  0  0  0  0
 45 51  1  0  0  0  0
 46 55  1  0  0  0  0
 47 57  1  0  0  0  0
 48 57  1  0  0  0  0
 49 59  1  0  0  0  0
 50 53  1  0  0  0  0
 50 60  1  0  0  0  0
 51 77  1  0  0  0  0
 52 59  1  0  0  0  0
 52 77  1  0  0  0  0
 53 83  1  0  0  0  0
 54 58  1  0  0  0  0
 54 83  1  0  0  0  0
 55 81  1  0  0  0  0
 56 76  1  0  0  0  0
 57 69  1  0  0  0  0
 58 60  1  0  0  0  0
 58 70  1  0  0  0  0
 59 75  1  0  0  0  0
 60 84  1  0  0  0  0
 63 72  1  0  0  0  0
 64 73  1  0  0  0  0
 65 73  1  0  0  0  0
 66 73  1  0  0  0  0
 67 85  1  0  0  0  0
 68 83  1  0  0  0  0
 69 84  1  0  0  0  0
 70 92  1  0  0  0  0
 71 73  1  0  0  0  0
 71 82  1  0  0  0  0
 72 85  1  0  0  0  0
 74 75  1  0  0  0  0
M  CHG  3  83   1  84   1  85   1
M  ISO  4  38 100  70 101  80 100  92 101
M  END
> <Batch ID>
0135

> <Smiles>
CNC(C)C(=O)NC(C(=O)N1Cc2cc([101O:1][101CH2:1]C3CN(Cc4c(C)cc([100NH:0][100C:0](=O)N5CCCC(n6nc(-c7ccc(Oc8ccc(F)cc8F)cc7)c(C(N)=O)c6N)C5)cc4C)CCC3NCC3CCCC3)ccc2CC1C(=O)NC1CCCc2ccccc21)C(C)(C)C

> <Shape>
0.244

> <Color>
0.175

> <Negative vol penalty>
0.000

$$$$

  -OEChem-04052321003D

 86 95  0     1  0  0  0  0  0999 V2000
  -29.0492  -16.7749   23.7669 C   0  0  0  0  0  0  0  0  0  0  0  0
  -28.1286  -17.8111   23.8858 C   0  0  0  0  0  0  0  0  0  0  0  0
  -30.8559  -25.8430   18.7308 C   0  0  0  0  0  0  0  0  0  0  0  0
  -30.8556  -27.1506   20.7623 C   0  0  0  0  0  0  0  0  0  0  0  0
  -29.6210  -16.4907   22.5274 C   0  0  0  0  0  0  0  0  0  0  0  0
  -27.7800  -18.5645   22.7654 C   0  0  0  0  0  0  0  0  0  0  0  0
  -22.2978  -20.9955   21.5240 C   0  0  0  0  0  0  0  0  0  0  0  0
  -32.2288  -26.0501   18.5976 C   0  0  0  0  0  0  0  0  0  0  0  0
  -32.2285  -27.3577   20.6292 C   0  0  0  0  0  0  0  0  0  0  0  0
  -21.7810  -22.2793   21.6930 C   0  0  0  0  0  0  0  0  0  0  0  0
  -35.0743  -25.6305   21.2113 C   0  0  0  0  0  0  0  0  0  0  0  0
  -35.8650  -25.4753   22.3499 C   0  0  0  0  0  0  0  0  0  0  0  0
  -22.3261  -22.7941   19.4002 C   0  0  0  0  0  0  0  0  0  0  0  0
  -20.6700  -27.2417   22.8595 C   0  0  0  0  0  0  0  0  0  0  0  0
  -36.5888  -27.7725   22.1605 C   0  0  0  0  0  0  0  0  0  0  0  0
  -19.2409  -26.6421   21.2261 C   0  0  0  0  0  0  0  0  0  0  0  0
  -30.1692  -26.3933   19.8131 C   0  0  0  0  0  0  0  0  0  0  0  0
  -28.0850  -24.9464   20.0779 C   0  0  0  0  0  0  0  0  0  0  0  0
  -29.2719  -17.2347   21.3894 C   0  0  0  0  0  0  0  0  0  0  0  0
  -22.8435  -20.6043   20.2929 C   0  0  0  0  0  0  0  0  0  0  0  0
  -28.3486  -18.2909   21.5098 C   0  0  0  0  0  0  0  0  0  0  0  0
  -22.8469  -21.5040   19.2174 C   0  0  0  0  0  0  0  0  0  0  0  0
  -20.2368  -26.1637   22.0486 C   0  0  0  0  0  0  0  0  0  0  0  0
  -32.9152  -26.8074   19.5469 C   0  0  0  0  0  0  0  0  0  0  0  0
  -21.7977  -23.1798   20.6319 C   0  0  0  0  0  0  0  0  0  0  0  0
  -35.0410  -26.8568   20.5472 C   0  0  0  0  0  0  0  0  0  0  0  0
  -36.6222  -26.5463   22.8245 C   0  0  0  0  0  0  0  0  0  0  0  0
  -35.7982  -27.9277   21.0218 C   0  0  0  0  0  0  0  0  0  0  0  0
  -28.7509  -26.1802   19.9508 C   0  0  0  0  0  0  0  0  0  0  0  0
  -19.9255  -28.3459   22.5079 C   0  0  0  0  0  0  0  0  0  0  0  0
  -26.7568  -25.2817   20.1776 C   0  0  0  0  0  0  0  0  0  0  0  0
  -28.6193  -23.6162   20.1035 C   0  0  0  0  0  0  0  0  0  0  0  0
  -25.7164  -19.6640   19.3101 C   0  0  0  0  0  0  0  0  0  0  0  0
  -24.1579  -19.1367   16.5145 C   0  0  0  0  0  0  0  0  0  0  0  0
  -21.5092  -19.8697   14.4911 C   0  0  0  0  0  0  0  0  0  0  0  0
  -23.4508  -29.2792   22.5234 C   0  0  0  0  0  0  0  0  0  0  0  0
  -29.9520  -16.9210   20.0802 C   0  0  0  0  0  0  0  0  0  0  0  0
  -23.3727  -19.2072   20.1189 C   0  0  0  0  0  0  0  0  0  0  0  0
  -23.4029  -21.1265   17.8695 C   0  0  0  0  0  0  0  0  0  0  0  0
  -29.2475  -17.5245   18.8679 C   0  0  0  0  0  0  0  0  0  0  0  0
  -24.0610  -29.2434   18.9564 C   0  0  0  0  0  0  0  0  0  0  0  0
  -28.8926  -18.9849   19.1290 C   0  0  0  0  0  0  0  0  0  0  0  0
  -25.2778  -28.3208   18.8652 C   0  0  0  0  0  0  0  0  0  0  0  0
  -18.9279  -29.9506   24.1729 C   0  0  0  0  0  0  0  0  0  0  0  0
  -24.1300  -30.1284   20.1974 C   0  0  0  0  0  0  0  0  0  0  0  0
  -25.4967  -28.4597   21.3896 C   0  0  0  0  0  0  0  0  0  0  0  0
  -18.9505  -31.3629   24.7367 C   0  0  0  0  0  0  0  0  0  0  0  0
  -21.3618  -31.6061   24.1103 C   0  0  0  0  0  0  0  0  0  0  0  0
  -27.9263  -19.1147   20.3127 C   0  0  1  0  0  0  0  0  0  0  0  0
  -19.9692  -29.7653   23.0513 C   0  0  1  0  0  0  0  0  0  0  0  0
  -24.3716  -19.0850   18.9724 C   0  0  1  0  0  0  0  0  0  0  0  0
  -25.4752  -27.5232   20.1679 C   0  0  2  0  0  0  0  0  0  0  0  0
  -21.3764  -30.1923   23.5333 C   0  0  1  0  0  0  0  0  0  0  0  0
  -20.5259  -19.3071   12.2519 C   0  0  0  0  0  0  0  0  0  0  0  0
  -16.6592  -28.3679   21.1057 C   0  0  0  0  0  0  0  0  0  0  0  0
  -18.3915  -28.9819   19.3655 C   0  0  0  0  0  0  0  0  0  0  0  0
  -26.2718  -20.8662   15.1544 C   0  0  0  0  0  0  0  0  0  0  0  0
  -24.7481  -21.0508   13.1764 C   0  0  0  0  0  0  0  0  0  0  0  0
  -25.6175  -18.8194   13.8750 C   0  0  0  0  0  0  0  0  0  0  0  0
  -19.0230  -18.8300   15.7145 C   0  0  0  0  0  0  0  0  0  0  0  0
  -20.7649  -24.7596   22.0788 C   0  0  0  0  0  0  0  0  0  1  0  0
  -23.8574  -19.9610   15.2860 C   0  0  1  0  0  0  0  0  0  0  0  0
  -20.5409  -18.9769   13.7363 C   0  0  2  0  0  0  0  0  0  0  0  0
  -18.0973  -28.8278   20.8588 C   0  0  0  0  0  0  0  0  0  0  0  0
  -25.1149  -20.1824   14.3988 C   0  0  0  0  0  0  0  0  0  0  0  0
  -27.9147  -27.2216   19.9678 N   0  0  0  0  0  0  0  0  0  0  0  0
  -19.0599  -27.9697   21.5143 N   0  0  0  0  0  0  0  0  0  0  0  0
  -26.7097  -26.6430   20.1066 N   0  0  0  0  0  0  0  0  0  0  0  0
  -23.9145  -19.7511   17.7511 N   0  0  0  0  0  0  0  0  0  0  0  0
  -24.2994  -29.3068   21.4042 N   0  0  0  0  0  0  0  0  0  0  0  0
  -25.6363  -24.5421   20.3181 N   0  0  0  0  0  0  0  0  0  0  0  0
  -28.9772  -23.0637   21.3409 N   0  0  0  0  0  0  0  0  0  0  0  0
  -26.5812  -18.7670   19.9075 N   0  0  0  0  0  0  0  0  0  0  0  0
  -22.7555  -19.2908   14.6041 N   0  0  0  0  0  0  0  0  0  0  0  0
  -22.3432  -30.1158   22.4608 N   0  0  0  0  0  0  0  0  0  0  0  0
  -20.3338  -31.6874   25.1905 N   0  3  0  0  0  0  0  0  0  0  0  0
  -19.1591  -19.1445   14.2690 N   0  3  0  0  0  0  0  0  0  0  0  0
  -28.7901  -22.9437   19.0585 O   0  0  0  0  0  0  0  0  0  0  0  0
  -25.9524  -20.8373   19.0467 O   0  0  0  0  0  0  0  0  0  0  0  0
  -24.5858  -17.9874   16.3818 O   0  0  0  0  0  0  0  0  0  0  0  0
  -21.1928  -20.9721   14.9328 O   0  0  0  0  0  0  0  0  0  0  0  0
  -23.6617  -28.5579   23.5044 O   0  0  0  0  0  0  0  0  0  0  0  0
  -34.2549  -27.0095   19.4174 O   0  0  0  0  0  0  0  0  0  0  0  0
  -21.2945  -24.4337   20.7944 O   0  0  0  0  0  0  0  0  0  1  0  0
  -37.3802  -26.3975   23.9188 F   0  0  0  0  0  0  0  0  0  0  0  0
  -35.7693  -29.1085   20.3888 F   0  0  0  0  0  0  0  0  0  0  0  0
  1  2  1  0  0  0  0
  1  5  2  0  0  0  0
  2  6  2  0  0  0  0
  3  8  2  0  0  0  0
  3 17  1  0  0  0  0
  4  9  1  0  0  0  0
  4 17  2  0  0  0  0
  5 19  1  0  0  0  0
  6 21  1  0  0  0  0
  7 10  2  0  0  0  0
  7 20  1  0  0  0  0
  8 24  1  0  0  0  0
  9 24  2  0  0  0  0
 10 25  1  0  0  0  0
 11 12  2  0  0  0  0
 11 26  1  0  0  0  0
 12 27  1  0  0  0  0
 13 22  1  0  0  0  0
 13 25  2  0  0  0  0
 14 23  1  0  0  0  0
 14 30  2  0  0  0  0
 15 27  2  0  0  0  0
 15 28  1  0  0  0  0
 16 23  2  0  0  0  0
 16 67  1  0  0  0  0
 17 29  1  0  0  0  0
 18 29  1  0  0  0  0
 18 31  2  0  0  0  0
 18 32  1  0  0  0  0
 19 21  2  0  0  0  0
 19 37  1  0  0  0  0
 20 22  2  0  0  0  0
 20 38  1  0  0  0  0
 21 49  1  0  0  0  0
 22 39  1  0  0  0  0
 23 61  1  0  0  0  0
 24 83  1  0  0  0  0
 25 84  1  0  0  0  0
 26 28  2  0  0  0  0
 26 83  1  0  0  0  0
 27 85  1  0  0  0  0
 28 86  1  0  0  0  0
 29 66  2  0  0  0  0
 30 50  1  0  0  0  0
 30 67  1  0  0  0  0
 31 68  1  0  0  0  0
 31 71  1  0  0  0  0
 32 72  1  0  0  0  0
 32 78  2  0  0  0  0
 33 51  1  0  0  0  0
 33 73  1  0  0  0  0
 33 79  2  0  0  0  0
 34 62  1  0  0  0  0
 34 69  1  0  0  0  0
 34 80  2  0  0  0  0
 35 63  1  0  0  0  0
 35 74  1  0  0  0  0
 35 81  2  0  0  0  0
 36 70  1  0  0  0  0
 36 75  1  0  0  0  0
 36 82  2  0  0  0  0
 37 40  1  0  0  0  0
 38 51  1  0  0  0  0
 39 69  1  0  0  0  0
 40 42  1  0  0  0  0
 41 43  1  0  0  0  0
 41 45  1  0  0  0  0
 42 49  1  0  0  0  0
 43 52  1  0  0  0  0
 44 47  1  0  0  0  0
 44 50  1  0  0  0  0
 45 70  1  0  0  0  0
 46 52  1  0  0  0  0
 46 70  1  0  0  0  0
 47 76  1  0  0  0  0
 48 53  1  0  0  0  0
 48 76  1  0  0  0  0
 49 73  1  0  0  0  0
 50 53  1  0  0  0  0
 51 69  1  0  0  0  0
 52 68  1  0  0  0  0
 53 75  1  0  0  0  0
 54 63  1  0  0  0  0
 55 64  1  0  0  0  0
 56 64  1  0  0  0  0
 57 65  1  0  0  0  0
 58 65  1  0  0  0  0
 59 65  1  0  0  0  0
 60 77  1  0  0  0  0
 61 84  1  0  0  0  0
 62 65  1  0  0  0  0
 62 74  1  0  0  0  0
 63 77  1  0  0  0  0
 64 67  1  0  0  0  0
 66 68  1  0  0  0  0
M  CHG  2  76   1  77   1
M  ISO  4  36 100  61 101  75 100  84 101
M  END
> <Batch ID>
0135

> <Smiles>
CNC(C)C(=O)NC(C(=O)N1Cc2cc([101O:1][101CH2:1]c3cc(C4CCNCC4[100NH:0][100C:0](=O)N4CCCC(n5nc(-c6ccc(Oc7ccc(F)cc7F)cc6)c(C(N)=O)c5N)C4)n(C(C)C)c3)ccc2CC1C(=O)NC1CCCc2ccccc21)C(C)(C)C

> <Shape>
0.193

> <Color>
0.062

> <Negative vol penalty>
0.000

$$$$

  -OEChem-04052321003D

 80 88  0     1  0  0  0  0  0999 V2000
  -20.8257  -30.5054   19.5076 C   0  0  0  0  0  0  0  0  0  0  0  0
  -21.4652  -29.2746   19.6151 C   0  0  0  0  0  0  0  0  0  0  0  0
  -22.6576  -10.2051   20.1726 C   0  0  0  0  0  0  0  0  0  0  0  0
  -24.3351   -9.3749   21.7003 C   0  0  0  0  0  0  0  0  0  0  0  0
  -21.5300  -31.6805   19.7664 C   0  0  0  0  0  0  0  0  0  0  0  0
  -22.8098  -29.2183   19.9803 C   0  0  0  0  0  0  0  0  0  0  0  0
  -25.5275  -24.8985   23.3654 C   0  0  0  0  0  0  0  0  0  0  0  0
  -21.9206   -9.0336   20.3452 C   0  0  0  0  0  0  0  0  0  0  0  0
  -23.5980   -8.2033   21.8729 C   0  0  0  0  0  0  0  0  0  0  0  0
  -26.2855  -23.7789   23.0251 C   0  0  0  0  0  0  0  0  0  0  0  0
  -20.8780   -7.2075   23.6136 C   0  0  0  0  0  0  0  0  0  0  0  0
  -20.7154   -6.7317   24.9147 C   0  0  0  0  0  0  0  0  0  0  0  0
  -28.3064  -25.0538   23.3572 C   0  0  0  0  0  0  0  0  0  0  0  0
  -21.8175   -4.6718   24.2992 C   0  0  0  0  0  0  0  0  0  0  0  0
  -23.8649  -10.3758   20.8501 C   0  0  0  0  0  0  0  0  0  0  0  0
  -24.2126  -12.9009   20.9547 C   0  0  0  0  0  0  0  0  0  0  0  0
  -22.8813  -31.6381   20.1443 C   0  0  0  0  0  0  0  0  0  0  0  0
  -26.1541  -26.1092   23.6941 C   0  0  0  0  0  0  0  0  0  0  0  0
  -23.5332  -30.3941   20.2430 C   0  0  0  0  0  0  0  0  0  0  0  0
  -27.5541  -26.1865   23.7038 C   0  0  0  0  0  0  0  0  0  0  0  0
  -22.3907   -8.0327   21.1954 C   0  0  0  0  0  0  0  0  0  0  0  0
  -27.6751  -23.8573   23.0182 C   0  0  0  0  0  0  0  0  0  0  0  0
  -21.5103   -6.4154   22.6553 C   0  0  0  0  0  0  0  0  0  0  0  0
  -21.1852   -5.4639   25.2575 C   0  0  0  0  0  0  0  0  0  0  0  0
  -21.9801   -5.1475   22.9981 C   0  0  0  0  0  0  0  0  0  0  0  0
  -24.6270  -11.5856   20.6718 C   0  0  0  0  0  0  0  0  0  0  0  0
  -25.2906  -13.6811   20.6149 C   0  0  0  0  0  0  0  0  0  0  0  0
  -22.9647  -13.3749   21.4780 C   0  0  0  0  0  0  0  0  0  0  0  0
  -26.1585  -29.0395   22.4624 C   0  0  0  0  0  0  0  0  0  0  0  0
  -27.9072  -29.7271   25.1065 C   0  0  0  0  0  0  0  0  0  0  0  0
  -29.9706  -28.6128   27.5860 C   0  0  0  0  0  0  0  0  0  0  0  0
  -30.7819  -14.6762   20.6495 C   0  0  0  0  0  0  0  0  0  0  0  0
  -23.6137  -32.9375   20.3679 C   0  0  0  0  0  0  0  0  0  0  0  0
  -25.3227  -27.3002   24.0849 C   0  0  0  0  0  0  0  0  0  0  0  0
  -28.2756  -27.4572   24.0688 C   0  0  0  0  0  0  0  0  0  0  0  0
  -24.9351  -32.7713   21.1138 C   0  0  0  0  0  0  0  0  0  0  0  0
  -29.5265  -12.5294   18.1015 C   0  0  0  0  0  0  0  0  0  0  0  0
  -25.7399  -31.6177   20.5235 C   0  0  0  0  0  0  0  0  0  0  0  0
  -29.6519  -20.2027   23.1791 C   0  0  0  0  0  0  0  0  0  0  0  0
  -27.9859  -19.1973   21.5697 C   0  0  0  0  0  0  0  0  0  0  0  0
  -30.6347  -19.0759   22.8656 C   0  0  0  0  0  0  0  0  0  0  0  0
  -28.9686  -18.0705   21.2563 C   0  0  0  0  0  0  0  0  0  0  0  0
  -28.1088  -12.1963   18.5696 C   0  0  0  0  0  0  0  0  0  0  0  0
  -30.4980  -12.6349   19.2750 C   0  0  0  0  0  0  0  0  0  0  0  0
  -28.6643  -13.2316   20.8097 C   0  0  0  0  0  0  0  0  0  0  0  0
  -24.9840  -30.2906   20.6607 C   0  0  1  0  0  0  0  0  0  0  0  0
  -26.0555  -28.6259   23.9032 C   0  0  1  0  0  0  0  0  0  0  0  0
  -28.7111  -20.4788   21.9994 C   0  0  0  0  0  0  0  0  0  0  0  0
  -29.9094  -17.7944   22.4360 C   0  0  0  0  0  0  0  0  0  0  0  0
  -27.6371  -13.1699   19.6664 C   0  0  2  0  0  0  0  0  0  0  0  0
  -31.2687  -29.4157   29.5779 C   0  0  0  0  0  0  0  0  0  0  0  0
  -31.7940  -16.3554   23.2731 C   0  0  0  0  0  0  0  0  0  0  0  0
  -30.0157  -30.9172   23.2497 C   0  0  0  0  0  0  0  0  0  0  0  0
  -31.6421  -30.8241   25.1508 C   0  0  0  0  0  0  0  0  0  0  0  0
  -29.5944  -32.2373   25.3316 C   0  0  0  0  0  0  0  0  0  0  0  0
  -28.4398  -26.8758   29.4294 C   0  0  0  0  0  0  0  0  0  0  0  0
  -27.7070  -21.5736   22.3549 C   0  0  0  0  0  0  0  0  0  1  0  0
  -29.3779  -29.7210   25.4470 C   0  0  1  0  0  0  0  0  0  0  0  0
  -29.9517  -28.8344   29.0877 C   0  0  2  0  0  0  0  0  0  0  0  0
  -30.9135  -16.6995   22.0805 C   0  0  1  0  0  0  0  0  0  0  0  0
  -30.1442  -30.9014   24.7860 C   0  0  0  0  0  0  0  0  0  0  0  0
  -25.8712  -11.5295   20.1892 N   0  0  0  0  0  0  0  0  0  0  0  0
  -26.2478  -12.8194   20.1662 N   0  0  0  0  0  0  0  0  0  0  0  0
  -27.4186  -28.5961   24.4374 N   0  0  0  0  0  0  0  0  0  0  0  0
  -29.9928  -13.5748   20.2787 N   0  0  0  0  0  0  0  0  0  0  0  0
  -25.5036  -15.0135   20.6590 N   0  0  0  0  0  0  0  0  0  0  0  0
  -22.8227  -13.4878   22.8678 N   0  0  0  0  0  0  0  0  0  0  0  0
  -25.0870  -29.7879   22.0139 N   0  0  0  0  0  0  0  0  0  0  0  0
  -29.4596  -29.6965   26.9034 N   0  0  0  0  0  0  0  0  0  0  0  0
  -30.2257  -15.5210   21.6022 N   0  0  0  0  0  0  0  0  0  0  0  0
  -29.7131  -27.5463   29.7983 N   0  3  0  0  0  0  0  0  0  0  0  0
  -21.9984  -13.6735   20.7359 O   0  0  0  0  0  0  0  0  0  0  0  0
  -27.1383  -28.7056   21.8065 O   0  0  0  0  0  0  0  0  0  0  0  0
  -27.2159  -30.6965   25.4289 O   0  0  0  0  0  0  0  0  0  0  0  0
  -30.3993  -27.5831   27.0699 O   0  0  0  0  0  0  0  0  0  0  0  0
  -31.8969  -14.8936   20.1634 O   0  0  0  0  0  0  0  0  0  0  0  0
  -21.6717   -6.8895   21.3642 O   0  0  0  0  0  0  0  0  0  0  0  0
  -28.4174  -22.7662   22.6858 O   0  0  0  0  0  0  0  0  0  1  0  0
  -21.0303   -5.0078   26.5073 F   0  0  0  0  0  0  0  0  0  0  0  0
  -22.5895   -4.3824   22.0820 F   0  0  0  0  0  0  0  0  0  0  0  0
  1  2  1  0  0  0  0
  1  5  2  0  0  0  0
  2  6  2  0  0  0  0
  3  8  2  0  0  0  0
  3 15  1  0  0  0  0
  4  9  1  0  0  0  0
  4 15  2  0  0  0  0
  5 17  1  0  0  0  0
  6 19  1  0  0  0  0
  7 10  2  0  0  0  0
  7 18  1  0  0  0  0
  8 21  1  0  0  0  0
  9 21  2  0  0  0  0
 10 22  1  0  0  0  0
 11 12  2  0  0  0  0
 11 23  1  0  0  0  0
 12 24  1  0  0  0  0
 13 20  1  0  0  0  0
 13 22  2  0  0  0  0
 14 24  2  0  0  0  0
 14 25  1  0  0  0  0
 15 26  1  0  0  0  0
 16 26  1  0  0  0  0
 16 27  2  0  0  0  0
 16 28  1  0  0  0  0
 17 19  2  0  0  0  0
 17 33  1  0  0  0  0
 18 20  2  0  0  0  0
 18 34  1  0  0  0  0
 19 46  1  0  0  0  0
 20 35  1  0  0  0  0
 21 77  1  0  0  0  0
 22 78  1  0  0  0  0
 23 25  2  0  0  0  0
 23 77  1  0  0  0  0
 24 79  1  0  0  0  0
 25 80  1  0  0  0  0
 26 62  2  0  0  0  0
 27 63  1  0  0  0  0
 27 66  1  0  0  0  0
 28 67  1  0  0  0  0
 28 72  2  0  0  0  0
 29 47  1  0  0  0  0
 29 68  1  0  0  0  0
 29 73  2  0  0  0  0
 30 58  1  0  0  0  0
 30 64  1  0  0  0  0
 30 74  2  0  0  0  0
 31 59  1  0  0  0  0
 31 69  1  0  0  0  0
 31 75  2  0  0  0  0
 32 65  1  0  0  0  0
 32 70  1  0  0  0  0
 32 76  2  0  0  0  0
 33 36  1  0  0  0  0
 34 47  1  0  0  0  0
 35 64  1  0  0  0  0
 36 38  1  0  0  0  0
 37 43  1  0  0  0  0
 37 44  1  0  0  0  0
 38 46  1  0  0  0  0
 39 41  1  0  0  0  0
 39 48  1  0  0  0  0
 40 42  1  0  0  0  0
 40 48  1  0  0  0  0
 41 49  1  0  0  0  0
 42 49  1  0  0  0  0
 43 50  1  0  0  0  0
 44 65  1  0  0  0  0
 45 50  1  0  0  0  0
 45 65  1  0  0  0  0
 46 68  1  0  0  0  0
 47 64  1  0  0  0  0
 48 57  1  0  0  0  0
 49 60  1  0  0  0  0
 50 63  1  0  0  0  0
 51 59  1  0  0  0  0
 52 60  1  0  0  0  0
 53 61  1  0  0  0  0
 54 61  1  0  0  0  0
 55 61  1  0  0  0  0
 56 71  1  0  0  0  0
 57 78  1  0  0  0  0
 58 61  1  0  0  0  0
 58 69  1  0  0  0  0
 59 71  1  0  0  0  0
 60 70  1  0  0  0  0
 62 63  1  0  0  0  0
M  CHG  1  71   1
M  ISO  4  32 100  57 101  70 100  78 101
M  END
> <Batch ID>
0135

> <Smiles>
CNC(C)C(=O)NC(C(=O)N1Cc2cc([101O:1][101CH2:1]C3CCC(C(C)[100NH:0][100C:0](=O)N4CCCC(n5nc(-c6ccc(Oc7ccc(F)cc7F)cc6)c(C(N)=O)c5N)C4)CC3)ccc2CC1C(=O)NC1CCCc2ccccc21)C(C)(C)C

> <Shape>
0.288

> <Color>
0.188

> <Negative vol penalty>
0.000

$$$$

  -OEChem-04052321003D

 84 93  0     1  0  0  0  0  0999 V2000
  -31.4698  -34.9395   24.2183 C   0  0  0  0  0  0  0  0  0  0  0  0
  -31.5991  -33.6318   23.7613 C   0  0  0  0  0  0  0  0  0  0  0  0
  -23.3023   -9.7018   20.0917 C   0  0  0  0  0  0  0  0  0  0  0  0
  -23.7889  -10.0905   22.4261 C   0  0  0  0  0  0  0  0  0  0  0  0
  -30.3954  -35.2881   25.0355 C   0  0  0  0  0  0  0  0  0  0  0  0
  -30.6544  -32.6718   24.1223 C   0  0  0  0  0  0  0  0  0  0  0  0
  -28.6649  -27.9966   20.7032 C   0  0  0  0  0  0  0  0  0  0  0  0
  -22.6134   -8.5370   20.4293 C   0  0  0  0  0  0  0  0  0  0  0  0
  -23.0999   -8.9257   22.7637 C   0  0  0  0  0  0  0  0  0  0  0  0
  -29.0100  -26.6463   20.6687 C   0  0  0  0  0  0  0  0  0  0  0  0
  -19.5766   -7.7082   21.6640 C   0  0  0  0  0  0  0  0  0  0  0  0
  -18.3409   -7.4867   21.0561 C   0  0  0  0  0  0  0  0  0  0  0  0
  -27.1499  -26.1400   22.1188 C   0  0  0  0  0  0  0  0  0  0  0  0
  -28.9647  -19.8808   21.7744 C   0  0  0  0  0  0  0  0  0  0  0  0
  -30.7108  -18.1712   20.4286 C   0  0  0  0  0  0  0  0  0  0  0  0
  -19.1790   -5.4319   20.1009 C   0  0  0  0  0  0  0  0  0  0  0  0
  -23.8902  -10.4786   21.0901 C   0  0  0  0  0  0  0  0  0  0  0  0
  -24.0739  -12.9821   20.6359 C   0  0  0  0  0  0  0  0  0  0  0  0
  -29.4318  -34.3341   25.3988 C   0  0  0  0  0  0  0  0  0  0  0  0
  -27.5643  -28.4310   21.4558 C   0  0  0  0  0  0  0  0  0  0  0  0
  -29.5668  -33.0076   24.9463 C   0  0  0  0  0  0  0  0  0  0  0  0
  -26.7914  -27.4961   22.1592 C   0  0  0  0  0  0  0  0  0  0  0  0
  -28.8775  -18.5021   21.9670 C   0  0  0  0  0  0  0  0  0  0  0  0
  -30.7980  -19.5500   20.2361 C   0  0  0  0  0  0  0  0  0  0  0  0
  -29.9250  -20.4048   20.9089 C   0  0  0  0  0  0  0  0  0  0  0  0
  -29.7505  -17.6473   21.2941 C   0  0  0  0  0  0  0  0  0  0  0  0
  -22.5121   -8.1489   21.7652 C   0  0  0  0  0  0  0  0  0  0  0  0
  -28.2543  -25.7181   21.3789 C   0  0  0  0  0  0  0  0  0  0  0  0
  -20.6136   -6.7915   21.4903 C   0  0  0  0  0  0  0  0  0  0  0  0
  -18.1421   -6.3486   20.2746 C   0  0  0  0  0  0  0  0  0  0  0  0
  -20.4148   -5.6534   20.7088 C   0  0  0  0  0  0  0  0  0  0  0  0
  -24.6025  -11.6817   20.7420 C   0  0  0  0  0  0  0  0  0  0  0  0
  -25.1482  -13.7618   20.2830 C   0  0  0  0  0  0  0  0  0  0  0  0
  -22.7317  -13.4440   20.8383 C   0  0  0  0  0  0  0  0  0  0  0  0
  -27.1709  -30.3836   23.9329 C   0  0  0  0  0  0  0  0  0  0  0  0
  -24.0238  -29.8488   23.3565 C   0  0  0  0  0  0  0  0  0  0  0  0
  -21.6259  -27.8124   22.0335 C   0  0  0  0  0  0  0  0  0  0  0  0
  -30.4749  -15.2711   20.8755 C   0  0  0  0  0  0  0  0  0  0  0  0
  -28.3136  -34.7471   26.3228 C   0  0  0  0  0  0  0  0  0  0  0  0
  -27.1892  -29.8876   21.4612 C   0  0  0  0  0  0  0  0  0  0  0  0
  -25.5883  -27.9083   22.9661 C   0  0  0  0  0  0  0  0  0  0  0  0
  -27.1516  -33.7577   26.3531 C   0  0  0  0  0  0  0  0  0  0  0  0
  -29.8067  -12.4675   18.7849 C   0  0  0  0  0  0  0  0  0  0  0  0
  -27.6698  -32.3297   26.4915 C   0  0  0  0  0  0  0  0  0  0  0  0
  -28.3498  -12.1201   19.0990 C   0  0  0  0  0  0  0  0  0  0  0  0
  -30.2777  -23.8716   19.7020 C   0  0  0  0  0  0  0  0  0  0  0  0
  -30.5589  -12.9362   20.0292 C   0  0  0  0  0  0  0  0  0  0  0  0
  -29.8201  -22.4362   19.4435 C   0  0  0  0  0  0  0  0  0  0  0  0
  -28.4605  -13.6850   21.0804 C   0  0  0  0  0  0  0  0  0  0  0  0
  -30.2548  -22.7248   21.8096 C   0  0  0  0  0  0  0  0  0  0  0  0
  -28.5491  -31.9436   25.2959 C   0  0  1  0  0  0  0  0  0  0  0  0
  -26.3550  -30.2853   22.6750 C   0  0  1  0  0  0  0  0  0  0  0  0
  -27.6446  -13.2696   19.8453 C   0  0  2  0  0  0  0  0  0  0  0  0
  -29.9666  -24.0852   21.1762 C   0  0  2  0  0  0  0  0  0  1  0  0
  -27.8387  -17.9686   22.8993 C   0  0  0  0  0  0  0  0  0  0  0  0
  -31.8359  -20.0846   19.3035 C   0  0  0  0  0  0  0  0  0  0  0  0
  -19.1398  -27.6231   21.7495 C   0  0  0  0  0  0  0  0  0  0  0  0
  -23.7532  -29.0399   26.2861 C   0  0  0  0  0  0  0  0  0  0  0  0
  -21.5562  -27.9818   25.7187 C   0  0  0  0  0  0  0  0  0  0  0  0
  -21.8723  -30.4371   25.4116 C   0  0  0  0  0  0  0  0  0  0  0  0
  -21.8453  -27.8277   19.0822 C   0  0  0  0  0  0  0  0  0  0  0  0
  -23.0092  -28.8327   23.8224 C   0  0  1  0  0  0  0  0  0  0  0  0
  -20.4420  -28.1056   21.1297 C   0  0  2  0  0  0  0  0  0  0  0  0
  -22.5715  -29.0650   25.2961 C   0  0  0  0  0  0  0  0  0  0  0  0
  -25.9109  -11.6339   20.4778 N   0  0  0  0  0  0  0  0  0  0  0  0
  -26.2134  -12.9139   20.2020 N   0  0  0  0  0  0  0  0  0  0  0  0
  -29.9972  -21.7704   20.7306 N   0  0  3  0  0  0  0  0  0  0  0  0
  -25.2657  -29.3447   22.9450 N   0  0  0  0  0  0  0  0  0  0  0  0
  -29.8342  -14.0290   20.6814 N   0  0  0  0  0  0  0  0  0  0  0  0
  -25.2760  -15.0830   20.0371 N   0  0  0  0  0  0  0  0  0  0  0  0
  -21.7506  -12.5098   21.1976 N   0  0  0  0  0  0  0  0  0  0  0  0
  -29.6765  -16.2440   21.4760 N   0  0  0  0  0  0  0  0  0  0  0  0
  -27.7288  -31.6298   24.1457 N   0  0  0  0  0  0  0  0  0  0  0  0
  -21.9141  -28.8782   22.8596 N   0  0  0  0  0  0  0  0  0  0  0  0
  -20.6152  -27.4287   19.8134 N   0  3  0  0  0  0  0  0  0  0  0  0
  -22.4086  -14.6468   20.6885 O   0  0  0  0  0  0  0  0  0  0  0  0
  -27.2845  -29.4020   24.6577 O   0  0  0  0  0  0  0  0  0  0  0  0
  -23.7230  -31.0451   23.3509 O   0  0  0  0  0  0  0  0  0  0  0  0
  -22.2320  -26.7434   22.0118 O   0  0  0  0  0  0  0  0  0  0  0  0
  -31.6367  -15.4662   20.5095 O   0  0  0  0  0  0  0  0  0  0  0  0
  -21.8396   -7.0124   22.0950 O   0  0  0  0  0  0  0  0  0  0  0  0
  -28.5893  -24.3995   21.3474 O   0  0  0  0  0  0  0  0  0  1  0  0
  -16.9548   -6.1353   19.6923 F   0  0  0  0  0  0  0  0  0  0  0  0
  -21.4068   -4.7685   20.5392 F   0  0  0  0  0  0  0  0  0  0  0  0
  1  2  1  0  0  0  0
  1  5  2  0  0  0  0
  2  6  2  0  0  0  0
  3  8  2  0  0  0  0
  3 17  1  0  0  0  0
  4  9  1  0  0  0  0
  4 17  2  0  0  0  0
  5 19  1  0  0  0  0
  6 21  1  0  0  0  0
  7 10  2  0  0  0  0
  7 20  1  0  0  0  0
  8 27  1  0  0  0  0
  9 27  2  0  0  0  0
 10 28  1  0  0  0  0
 11 12  2  0  0  0  0
 11 29  1  0  0  0  0
 12 30  1  0  0  0  0
 13 22  1  0  0  0  0
 13 28  2  0  0  0  0
 14 23  2  0  0  0  0
 14 25  1  0  0  0  0
 15 24  1  0  0  0  0
 15 26  2  0  0  0  0
 16 30  2  0  0  0  0
 16 31  1  0  0  0  0
 17 32  1  0  0  0  0
 18 32  1  0  0  0  0
 18 33  2  0  0  0  0
 18 34  1  0  0  0  0
 19 21  2  0  0  0  0
 19 39  1  0  0  0  0
 20 22  2  0  0  0  0
 20 40  1  0  0  0  0
 21 51  1  0  0  0  0
 22 41  1  0  0  0  0
 23 26  1  0  0  0  0
 23 55  1  0  0  0  0
 24 25  2  0  0  0  0
 24 56  1  0  0  0  0
 25 67  1  0  0  0  0
 26 72  1  0  0  0  0
 27 81  1  0  0  0  0
 28 82  1  0  0  0  0
 29 31  2  0  0  0  0
 29 81  1  0  0  0  0
 30 83  1  0  0  0  0
 31 84  1  0  0  0  0
 32 65  2  0  0  0  0
 33 66  1  0  0  0  0
 33 70  1  0  0  0  0
 34 71  1  0  0  0  0
 34 76  2  0  0  0  0
 35 52  1  0  0  0  0
 35 73  1  0  0  0  0
 35 77  2  0  0  0  0
 36 62  1  0  0  0  0
 36 68  1  0  0  0  0
 36 78  2  0  0  0  0
 37 63  1  0  0  0  0
 37 74  1  0  0  0  0
 37 79  2  0  0  0  0
 38 69  1  0  0  0  0
 38 72  1  0  0  0  0
 38 80  2  0  0  0  0
 39 42  1  0  0  0  0
 40 52  1  0  0  0  0
 41 68  1  0  0  0  0
 42 44  1  0  0  0  0
 43 45  1  0  0  0  0
 43 47  1  0  0  0  0
 44 51  1  0  0  0  0
 45 53  1  0  0  0  0
 46 48  1  0  0  0  0
 46 54  1  0  0  0  0
 47 69  1  0  0  0  0
 48 67  1  0  0  0  0
 49 53  1  0  0  0  0
 49 69  1  0  0  0  0
 50 54  1  0  0  0  0
 50 67  1  0  0  0  0
 51 73  1  0  0  0  0
 52 68  1  0  0  0  0
 53 66  1  0  0  0  0
 54 82  1  0  0  0  0
 57 63  1  0  0  0  0
 58 64  1  0  0  0  0
 59 64  1  0  0  0  0
 60 64  1  0  0  0  0
 61 75  1  0  0  0  0
 62 64  1  0  0  0  0
 62 74  1  0  0  0  0
 63 75  1  0  0  0  0
 65 66  1  0  0  0  0
M  CHG  1  75   1
M  ISO  4  38 100  54 101  72 100  82 101
M  END
> <Batch ID>
0135

> <Smiles>
CNC(C)C(=O)NC(C(=O)N1Cc2cc([101O:1][101CH:1]3CCN(c4cc(C)c([100NH:0][100C:0](=O)N5CCCC(n6nc(-c7ccc(Oc8ccc(F)cc8F)cc7)c(C(N)=O)c6N)C5)cc4C)C3)ccc2CC1C(=O)NC1CCCc2ccccc21)C(C)(C)C

> <Shape>
0.323

> <Color>
0.186

> <Negative vol penalty>
0.000

$$$$

  -OEChem-04052321003D

 87 96  0     1  0  0  0  0  0999 V2000
  -28.8724  -38.3841   20.5153 C   0  0  0  0  0  0  0  0  0  0  0  0
  -29.2280  -37.1036   20.1039 C   0  0  0  0  0  0  0  0  0  0  0  0
  -23.7922   -9.4781   20.1404 C   0  0  0  0  0  0  0  0  0  0  0  0
  -24.0953   -9.9548   22.4895 C   0  0  0  0  0  0  0  0  0  0  0  0
  -28.2589  -38.5722   21.7531 C   0  0  0  0  0  0  0  0  0  0  0  0
  -28.9713  -36.0104   20.9306 C   0  0  0  0  0  0  0  0  0  0  0  0
  -27.4233  -30.3509   19.1757 C   0  0  0  0  0  0  0  0  0  0  0  0
  -29.5843  -20.4145   20.5162 C   0  0  0  0  0  0  0  0  0  0  0  0
  -27.6521  -20.4244   21.9665 C   0  0  0  0  0  0  0  0  0  0  0  0
  -29.7238  -19.0405   20.7114 C   0  0  0  0  0  0  0  0  0  0  0  0
  -27.7915  -19.0503   22.1616 C   0  0  0  0  0  0  0  0  0  0  0  0
  -23.2815   -8.2205   20.4615 C   0  0  0  0  0  0  0  0  0  0  0  0
  -23.5845   -8.6971   22.8106 C   0  0  0  0  0  0  0  0  0  0  0  0
  -28.1659  -29.1815   19.0187 C   0  0  0  0  0  0  0  0  0  0  0  0
  -20.5501   -7.2277   23.0418 C   0  0  0  0  0  0  0  0  0  0  0  0
  -19.6164   -7.1537   24.0755 C   0  0  0  0  0  0  0  0  0  0  0  0
  -27.5139  -28.4775   21.2320 C   0  0  0  0  0  0  0  0  0  0  0  0
  -21.0885   -5.6798   25.2994 C   0  0  0  0  0  0  0  0  0  0  0  0
  -24.1991  -10.3452   21.1544 C   0  0  0  0  0  0  0  0  0  0  0  0
  -24.0044  -12.8430   20.6736 C   0  0  0  0  0  0  0  0  0  0  0  0
  -27.9857  -37.4796   22.5912 C   0  0  0  0  0  0  0  0  0  0  0  0
  -26.7280  -30.5979   20.3682 C   0  0  0  0  0  0  0  0  0  0  0  0
  -28.3547  -36.1842   22.1813 C   0  0  0  0  0  0  0  0  0  0  0  0
  -26.7611  -29.6497   21.4006 C   0  0  0  0  0  0  0  0  0  0  0  0
  -28.5484  -21.1065   21.1438 C   0  0  0  0  0  0  0  0  0  0  0  0
  -28.8274  -18.3584   21.5341 C   0  0  0  0  0  0  0  0  0  0  0  0
  -23.1776   -7.8299   21.7965 C   0  0  0  0  0  0  0  0  0  0  0  0
  -28.2137  -28.2459   20.0480 C   0  0  0  0  0  0  0  0  0  0  0  0
  -21.7529   -6.5278   23.1369 C   0  0  0  0  0  0  0  0  0  0  0  0
  -19.8856   -6.3798   25.2043 C   0  0  0  0  0  0  0  0  0  0  0  0
  -22.0221   -5.7538   24.2657 C   0  0  0  0  0  0  0  0  0  0  0  0
  -24.7273  -11.6443   20.8234 C   0  0  0  0  0  0  0  0  0  0  0  0
  -24.9571  -13.7817   20.3611 C   0  0  0  0  0  0  0  0  0  0  0  0
  -22.5976  -13.0861   20.8053 C   0  0  0  0  0  0  0  0  0  0  0  0
  -26.8712  -32.8296   22.6272 C   0  0  0  0  0  0  0  0  0  0  0  0
  -24.2416  -31.3023   23.7562 C   0  0  0  0  0  0  0  0  0  0  0  0
  -22.4037  -28.4311   23.9158 C   0  0  0  0  0  0  0  0  0  0  0  0
  -29.9402  -16.1255   21.1845 C   0  0  0  0  0  0  0  0  0  0  0  0
  -27.3636  -37.7377   23.9407 C   0  0  0  0  0  0  0  0  0  0  0  0
  -25.9098  -31.8519   20.5115 C   0  0  0  0  0  0  0  0  0  0  0  0
  -26.0159  -29.8580   22.6928 C   0  0  0  0  0  0  0  0  0  0  0  0
  -26.7869  -36.4850   24.5951 C   0  0  0  0  0  0  0  0  0  0  0  0
  -29.8302  -13.2375   19.1048 C   0  0  0  0  0  0  0  0  0  0  0  0
  -25.8998  -23.5731   18.9717 C   0  0  0  0  0  0  0  0  0  0  0  0
  -27.7779  -35.3291   24.5012 C   0  0  0  0  0  0  0  0  0  0  0  0
  -28.4334  -12.6642   19.3542 C   0  0  0  0  0  0  0  0  0  0  0  0
  -26.8591  -22.3995   18.9074 C   0  0  0  0  0  0  0  0  0  0  0  0
  -30.4361  -13.8284   20.3766 C   0  0  0  0  0  0  0  0  0  0  0  0
  -28.1961  -14.2397   21.3160 C   0  0  0  0  0  0  0  0  0  0  0  0
  -26.7732  -24.7389   18.5653 C   0  0  0  0  0  0  0  0  0  0  0  0
  -28.0702  -34.9704   23.0393 C   0  0  1  0  0  0  0  0  0  0  0  0
  -25.6585  -32.2383   21.9658 C   0  0  1  0  0  0  0  0  0  0  0  0
  -27.5185  -13.6913   20.0496 C   0  0  2  0  0  0  0  0  0  0  0  0
  -28.1798  -22.9421   19.4531 C   0  0  2  0  0  0  0  0  0  0  0  0
  -20.3235  -27.4785   24.9466 C   0  0  0  0  0  0  0  0  0  0  0  0
  -29.6756  -23.3397   21.4427 C   0  0  0  0  0  0  0  0  0  0  0  0
  -27.2077  -23.2370   21.7263 C   0  0  0  0  0  0  0  0  0  0  0  0
  -25.6747  -31.0843   26.4411 C   0  0  0  0  0  0  0  0  0  0  0  0
  -24.0049  -29.3438   27.1122 C   0  0  0  0  0  0  0  0  0  0  0  0
  -23.2471  -31.6642   26.5985 C   0  0  0  0  0  0  0  0  0  0  0  0
  -21.2004  -27.8882   21.2670 C   0  0  0  0  0  0  0  0  0  0  0  0
  -29.2664  -25.0855   18.6324 C   0  0  0  0  0  0  0  0  0  0  0  0
  -29.0694  -26.5874   18.5739 C   0  0  0  0  0  0  0  0  0  1  0  0
  -23.9968  -30.1587   24.7108 C   0  0  1  0  0  0  0  0  0  0  0  0
  -20.9189  -28.1741   23.7323 C   0  0  2  0  0  0  0  0  0  0  0  0
  -28.3939  -22.6302   20.9273 C   0  0  0  0  0  0  0  0  0  0  0  0
  -24.2466  -30.5594   26.1922 C   0  0  0  0  0  0  0  0  0  0  0  0
  -26.0381  -11.8041   20.6223 N   0  0  0  0  0  0  0  0  0  0  0  0
  -26.1463  -13.1142   20.3430 N   0  0  0  0  0  0  0  0  0  0  0  0
  -25.2351  -31.1025   22.7874 N   0  0  0  0  0  0  0  0  0  0  0  0
  -29.5156  -14.7959   20.9779 N   0  0  0  0  0  0  0  0  0  0  0  0
  -24.8851  -15.1047   20.1026 N   0  0  0  0  0  0  0  0  0  0  0  0
  -21.7611  -12.0097   21.1309 N   0  0  0  0  0  0  0  0  0  0  0  0
  -28.9687  -16.9625   21.7323 N   0  0  0  0  0  0  0  0  0  0  0  0
  -26.9805  -34.1992   22.4805 N   0  0  0  0  0  0  0  0  0  0  0  0
  -22.6443  -29.6835   24.4403 N   0  0  0  0  0  0  0  0  0  0  0  0
  -28.0743  -24.4561   19.2807 N   0  3  1  0  0  0  0  0  0  0  0  0
  -20.6857  -27.3149   22.5372 N   0  3  0  0  0  0  0  0  0  0  0  0
  -22.0950  -14.2209   20.6231 O   0  0  0  0  0  0  0  0  0  0  0  0
  -27.6493  -32.0975   23.2275 O   0  0  0  0  0  0  0  0  0  0  0  0
  -23.5708  -32.3322   23.8617 O   0  0  0  0  0  0  0  0  0  0  0  0
  -23.2639  -27.6024   23.6266 O   0  0  0  0  0  0  0  0  0  0  0  0
  -31.0729  -16.5011   20.8713 O   0  0  0  0  0  0  0  0  0  0  0  0
  -22.6791   -6.6029   22.1102 O   0  0  0  0  0  0  0  0  0  0  0  0
  -28.9383  -27.1039   19.8977 O   0  0  0  0  0  0  0  0  0  1  0  0
  -18.9896   -6.3100   26.1975 F   0  0  0  0  0  0  0  0  0  0  0  0
  -23.1764   -5.0801   24.3633 F   0  0  0  0  0  0  0  0  0  0  0  0
  1  2  1  0  0  0  0
  1  5  2  0  0  0  0
  2  6  2  0  0  0  0
  3 12  2  0  0  0  0
  3 19  1  0  0  0  0
  4 13  1  0  0  0  0
  4 19  2  0  0  0  0
  5 21  1  0  0  0  0
  6 23  1  0  0  0  0
  7 14  2  0  0  0  0
  7 22  1  0  0  0  0
  8 10  2  0  0  0  0
  8 25  1  0  0  0  0
  9 11  1  0  0  0  0
  9 25  2  0  0  0  0
 10 26  1  0  0  0  0
 11 26  2  0  0  0  0
 12 27  1  0  0  0  0
 13 27  2  0  0  0  0
 14 28  1  0  0  0  0
 15 16  2  0  0  0  0
 15 29  1  0  0  0  0
 16 30  1  0  0  0  0
 17 24  1  0  0  0  0
 17 28  2  0  0  0  0
 18 30  2  0  0  0  0
 18 31  1  0  0  0  0
 19 32  1  0  0  0  0
 20 32  1  0  0  0  0
 20 33  2  0  0  0  0
 20 34  1  0  0  0  0
 21 23  2  0  0  0  0
 21 39  1  0  0  0  0
 22 24  2  0  0  0  0
 22 40  1  0  0  0  0
 23 51  1  0  0  0  0
 24 41  1  0  0  0  0
 25 66  1  0  0  0  0
 26 74  1  0  0  0  0
 27 84  1  0  0  0  0
 28 85  1  0  0  0  0
 29 31  2  0  0  0  0
 29 84  1  0  0  0  0
 30 86  1  0  0  0  0
 31 87  1  0  0  0  0
 32 68  2  0  0  0  0
 33 69  1  0  0  0  0
 33 72  1  0  0  0  0
 34 73  1  0  0  0  0
 34 79  2  0  0  0  0
 35 52  1  0  0  0  0
 35 75  1  0  0  0  0
 35 80  2  0  0  0  0
 36 64  1  0  0  0  0
 36 70  1  0  0  0  0
 36 81  2  0  0  0  0
 37 65  1  0  0  0  0
 37 76  1  0  0  0  0
 37 82  2  0  0  0  0
 38 71  1  0  0  0  0
 38 74  1  0  0  0  0
 38 83  2  0  0  0  0
 39 42  1  0  0  0  0
 40 52  1  0  0  0  0
 41 70  1  0  0  0  0
 42 45  1  0  0  0  0
 43 46  1  0  0  0  0
 43 48  1  0  0  0  0
 44 47  1  0  0  0  0
 44 50  1  0  0  0  0
 45 51  1  0  0  0  0
 46 53  1  0  0  0  0
 47 54  1  0  0  0  0
 48 71  1  0  0  0  0
 49 53  1  0  0  0  0
 49 71  1  0  0  0  0
 50 77  1  0  0  0  0
 51 75  1  0  0  0  0
 52 70  1  0  0  0  0
 53 69  1  0  0  0  0
 54 66  1  0  0  0  0
 54 77  1  0  0  0  0
 55 65  1  0  0  0  0
 56 66  1  0  0  0  0
 57 66  1  0  0  0  0
 58 67  1  0  0  0  0
 59 67  1  0  0  0  0
 60 67  1  0  0  0  0
 61 78  1  0  0  0  0
 62 63  1  0  0  0  0
 62 77  1  0  0  0  0
 63 85  1  0  0  0  0
 64 67  1  0  0  0  0
 64 76  1  0  0  0  0
 65 78  1  0  0  0  0
 68 69  1  0  0  0  0
M  CHG  2  77   1  78   1
M  ISO  4  38 100  63 101  74 100  85 101
M  END
> <Batch ID>
0135

> <Smiles>
CNC(C)C(=O)NC(C(=O)N1Cc2cc([101O:1][101CH2:1]CN3CCCC3C(C)(C)c3ccc([100NH:0][100C:0](=O)N4CCCC(n5nc(-c6ccc(Oc7ccc(F)cc7F)cc6)c(C(N)=O)c5N)C4)cc3)ccc2CC1C(=O)NC1CCCc2ccccc21)C(C)(C)C

> <Shape>
0.367

> <Color>
0.151

> <Negative vol penalty>
0.000

$$$$

  -OEChem-04052321003D

 88 97  0     1  0  0  0  0  0999 V2000
  -26.5832  -34.9736   24.0612 C   0  0  0  0  0  0  0  0  0  0  0  0
  -27.0252  -33.6999   23.7180 C   0  0  0  0  0  0  0  0  0  0  0  0
  -21.6497  -11.5824   20.2591 C   0  0  0  0  0  0  0  0  0  0  0  0
  -24.0358  -11.8665   20.5103 C   0  0  0  0  0  0  0  0  0  0  0  0
  -30.5684  -21.3622   18.2799 C   0  0  0  0  0  0  0  0  0  0  0  0
  -25.2700  -35.1626   24.4896 C   0  0  0  0  0  0  0  0  0  0  0  0
  -26.1543  -32.6142   23.8041 C   0  0  0  0  0  0  0  0  0  0  0  0
  -26.4115  -29.5911   19.7496 C   0  0  0  0  0  0  0  0  0  0  0  0
  -21.8626  -10.3638   19.6149 C   0  0  0  0  0  0  0  0  0  0  0  0
  -24.2486  -10.6478   19.8660 C   0  0  0  0  0  0  0  0  0  0  0  0
  -30.4064  -22.7416   18.1514 C   0  0  0  0  0  0  0  0  0  0  0  0
  -27.4904  -28.7108   19.6791 C   0  0  0  0  0  0  0  0  0  0  0  0
  -22.6034   -7.1817   20.4858 C   0  0  0  0  0  0  0  0  0  0  0  0
  -21.8094   -6.0999   20.8664 C   0  0  0  0  0  0  0  0  0  0  0  0
  -26.0743  -26.9220   20.4629 C   0  0  0  0  0  0  0  0  0  0  0  0
  -28.0067  -22.4609   18.1639 C   0  0  0  0  0  0  0  0  0  0  0  0
  -20.9700   -5.9215   18.6079 C   0  0  0  0  0  0  0  0  0  0  0  0
  -22.7363  -12.3338   20.7068 C   0  0  0  0  0  0  0  0  0  0  0  0
  -29.4496  -20.5321   18.3504 C   0  0  0  0  0  0  0  0  0  0  0  0
  -22.3465  -13.8067   22.7529 C   0  0  0  0  0  0  0  0  0  0  0  0
  -24.3798  -34.0803   24.5717 C   0  0  0  0  0  0  0  0  0  0  0  0
  -25.1565  -29.1451   20.1884 C   0  0  0  0  0  0  0  0  0  0  0  0
  -24.8283  -32.7888   24.2353 C   0  0  0  0  0  0  0  0  0  0  0  0
  -24.9805  -27.7980   20.5356 C   0  0  0  0  0  0  0  0  0  0  0  0
  -28.1688  -21.0814   18.2924 C   0  0  0  0  0  0  0  0  0  0  0  0
  -23.1620   -9.8964   19.4183 C   0  0  0  0  0  0  0  0  0  0  0  0
  -27.3226  -27.3767   20.0385 C   0  0  0  0  0  0  0  0  0  0  0  0
  -29.1255  -23.2910   18.0934 C   0  0  0  0  0  0  0  0  0  0  0  0
  -22.5807   -7.6335   19.1663 C   0  0  0  0  0  0  0  0  0  0  0  0
  -20.9927   -5.4698   19.9274 C   0  0  0  0  0  0  0  0  0  0  0  0
  -21.7640   -7.0034   18.2273 C   0  0  0  0  0  0  0  0  0  0  0  0
  -22.5171  -13.5931   21.3719 C   0  0  0  0  0  0  0  0  0  0  0  0
  -22.1732  -15.1641   22.8715 C   0  0  0  0  0  0  0  0  0  0  0  0
  -29.6399  -19.1029   18.4839 C   0  0  0  0  0  0  0  0  0  0  0  0
  -22.3448  -12.8626   23.8319 C   0  0  0  0  0  0  0  0  0  0  0  0
  -23.2497  -29.8594   22.6292 C   0  0  0  0  0  0  0  0  0  0  0  0
  -21.1992  -27.8591   21.1071 C   0  0  0  0  0  0  0  0  0  0  0  0
  -20.7606  -25.2595   18.9399 C   0  0  0  0  0  0  0  0  0  0  0  0
  -23.8520  -19.8010   19.4757 C   0  0  0  0  0  0  0  0  0  0  0  0
  -22.9833  -34.3263   25.0854 C   0  0  0  0  0  0  0  0  0  0  0  0
  -23.9962  -30.1012   20.2333 C   0  0  0  0  0  0  0  0  0  0  0  0
  -23.6486  -27.2647   20.9937 C   0  0  0  0  0  0  0  0  0  0  0  0
  -22.0157  -33.1829   24.7909 C   0  0  0  0  0  0  0  0  0  0  0  0
  -20.5353  -18.9551   20.4558 C   0  0  0  0  0  0  0  0  0  0  0  0
  -22.6529  -31.8414   25.1387 C   0  0  0  0  0  0  0  0  0  0  0  0
  -20.6517  -17.5043   20.9263 C   0  0  0  0  0  0  0  0  0  0  0  0
  -29.4631  -16.5097   21.2756 C   0  0  0  0  0  0  0  0  0  0  0  0
  -28.7479  -16.1772   20.0001 C   0  0  0  0  0  0  0  0  0  0  0  0
  -21.4490  -19.2373   19.2652 C   0  0  0  0  0  0  0  0  0  0  0  0
  -22.9815  -17.4305   19.9438 C   0  0  0  0  0  0  0  0  0  0  0  0
  -23.9064  -31.5900   24.2919 C   0  0  1  0  0  0  0  0  0  0  0  0
  -22.8904  -29.6545   21.1847 C   0  0  1  0  0  0  0  0  0  0  0  0
  -22.1202  -17.1125   21.1780 C   0  0  2  0  0  0  0  0  0  0  0  0
  -29.9128  -17.1274   19.9807 C   0  0  0  0  0  0  0  0  0  0  0  0
  -18.9720  -23.8219   17.9243 C   0  0  0  0  0  0  0  0  0  0  0  0
  -20.9485  -26.3217   23.7307 C   0  0  0  0  0  0  0  0  0  0  0  0
  -19.9529  -24.4208   22.4410 C   0  0  0  0  0  0  0  0  0  0  0  0
  -18.7974  -26.6310   22.4932 C   0  0  0  0  0  0  0  0  0  0  0  0
  -21.4463  -26.1409   16.1991 C   0  0  0  0  0  0  0  0  0  0  0  0
  -26.9555  -20.2134   18.3655 C   0  0  0  0  0  0  0  0  0  0  0  0
  -26.2844  -20.2145   19.7433 C   0  0  0  0  0  0  0  0  0  0  0  0
  -29.3664  -26.7782   18.9799 C   0  0  0  0  0  0  0  0  0  1  0  0
  -29.9813  -25.4655   18.5348 C   0  0  0  0  0  0  0  0  0  0  0  0
  -20.9238  -26.3754   21.1496 C   0  0  1  0  0  0  0  0  0  0  0  0
  -19.8173  -25.0759   17.7648 C   0  0  2  0  0  0  0  0  0  0  0  0
  -20.1814  -25.9474   22.4469 C   0  0  0  0  0  0  0  0  0  0  0  0
  -22.4574  -14.7241   20.6639 N   0  0  0  0  0  0  0  0  0  0  0  0
  -22.2474  -15.6615   21.6037 N   0  0  0  0  0  0  0  0  0  0  0  0
  -22.5462  -28.2400   21.0268 N   0  0  0  0  0  0  0  0  0  0  0  0
  -22.8272  -18.8450   19.5696 N   0  0  0  0  0  0  0  0  0  0  0  0
  -21.9662  -15.9686   23.9355 N   0  0  0  0  0  0  0  0  0  0  0  0
  -29.7329  -18.3461   17.3737 N   0  0  0  0  0  0  0  0  0  0  0  0
  -22.5369  -11.5067   23.5337 N   0  0  0  0  0  0  0  0  0  0  0  0
  -23.5385  -31.1705   22.9566 N   0  0  0  0  0  0  0  0  0  0  0  0
  -20.2077  -26.0578   19.9188 N   0  0  0  0  0  0  0  0  0  0  0  0
  -25.1279  -19.3476   19.7874 N   0  0  0  0  0  0  0  0  0  0  0  0
  -29.7181  -18.5555   19.7178 N   0  3  0  0  0  0  0  0  0  0  0  0
  -20.5883  -24.9646   16.4942 N   0  3  0  0  0  0  0  0  0  0  0  0
  -22.1616  -13.2091   25.0235 O   0  0  0  0  0  0  0  0  0  0  0  0
  -23.2624  -28.8994   23.3907 O   0  0  0  0  0  0  0  0  0  0  0  0
  -20.2537  -28.6508   21.1366 O   0  0  0  0  0  0  0  0  0  0  0  0
  -21.8749  -24.7431   18.9866 O   0  0  0  0  0  0  0  0  0  0  0  0
  -23.6444  -20.9732   19.1442 O   0  0  0  0  0  0  0  0  0  0  0  0
  -23.3701   -8.7071   18.7899 O   0  0  0  0  0  0  0  0  0  0  0  0
  -28.3742  -26.5156   19.9713 O   0  0  0  0  0  0  0  0  0  1  0  0
  -28.9667  -24.6459   17.9672 O   0  0  0  0  0  0  0  0  0  0  0  0
  -20.2314   -4.4299   20.2926 F   0  0  0  0  0  0  0  0  0  0  0  0
  -21.7388   -7.4321   16.9580 F   0  0  0  0  0  0  0  0  0  0  0  0
  1  2  1  0  0  0  0
  1  6  2  0  0  0  0
  2  7  2  0  0  0  0
  3  9  2  0  0  0  0
  3 18  1  0  0  0  0
  4 10  1  0  0  0  0
  4 18  2  0  0  0  0
  5 11  2  0  0  0  0
  5 19  1  0  0  0  0
  6 21  1  0  0  0  0
  7 23  1  0  0  0  0
  8 12  2  0  0  0  0
  8 22  1  0  0  0  0
  9 26  1  0  0  0  0
 10 26  2  0  0  0  0
 11 28  1  0  0  0  0
 12 27  1  0  0  0  0
 13 14  2  0  0  0  0
 13 29  1  0  0  0  0
 14 30  1  0  0  0  0
 15 24  1  0  0  0  0
 15 27  2  0  0  0  0
 16 25  1  0  0  0  0
 16 28  2  0  0  0  0
 17 30  2  0  0  0  0
 17 31  1  0  0  0  0
 18 32  1  0  0  0  0
 19 25  2  0  0  0  0
 19 34  1  0  0  0  0
 20 32  1  0  0  0  0
 20 33  2  0  0  0  0
 20 35  1  0  0  0  0
 21 23  2  0  0  0  0
 21 40  1  0  0  0  0
 22 24  2  0  0  0  0
 22 41  1  0  0  0  0
 23 51  1  0  0  0  0
 24 42  1  0  0  0  0
 25 60  1  0  0  0  0
 26 84  1  0  0  0  0
 27 85  1  0  0  0  0
 28 86  1  0  0  0  0
 29 31  2  0  0  0  0
 29 84  1  0  0  0  0
 30 87  1  0  0  0  0
 31 88  1  0  0  0  0
 32 67  2  0  0  0  0
 33 68  1  0  0  0  0
 33 71  1  0  0  0  0
 34 72  1  0  0  0  0
 34 77  2  0  0  0  0
 35 73  1  0  0  0  0
 35 79  2  0  0  0  0
 36 52  1  0  0  0  0
 36 74  1  0  0  0  0
 36 80  2  0  0  0  0
 37 64  1  0  0  0  0
 37 69  1  0  0  0  0
 37 81  2  0  0  0  0
 38 65  1  0  0  0  0
 38 75  1  0  0  0  0
 38 82  2  0  0  0  0
 39 70  1  0  0  0  0
 39 76  1  0  0  0  0
 39 83  2  0  0  0  0
 40 43  1  0  0  0  0
 41 52  1  0  0  0  0
 42 69  1  0  0  0  0
 43 45  1  0  0  0  0
 44 46  1  0  0  0  0
 44 49  1  0  0  0  0
 45 51  1  0  0  0  0
 46 53  1  0  0  0  0
 47 48  1  0  0  0  0
 47 54  1  0  0  0  0
 48 54  1  0  0  0  0
 49 70  1  0  0  0  0
 50 53  1  0  0  0  0
 50 70  1  0  0  0  0
 51 74  1  0  0  0  0
 52 69  1  0  0  0  0
 53 68  1  0  0  0  0
 54 77  1  0  0  0  0
 55 65  1  0  0  0  0
 56 66  1  0  0  0  0
 57 66  1  0  0  0  0
 58 66  1  0  0  0  0
 59 78  1  0  0  0  0
 60 61  1  0  0  0  0
 61 76  1  0  0  0  0
 62 63  1  0  0  0  0
 62 85  1  0  0  0  0
 63 86  1  0  0  0  0
 64 66  1  0  0  0  0
 64 75  1  0  0  0  0
 65 78  1  0  0  0  0
 67 68  1  0  0  0  0
M  CHG  2  77   1  78   1
M  ISO  4  39 100  62 101  76 100  85 101
M  END
> <Batch ID>
0135

> <Smiles>
CNC(C)C(=O)NC(C(=O)N1Cc2cc([101O:1][101CH2:1]COc3ccc(C(N)=NC4CC4)c(CC[100NH:0][100C:0](=O)N4CCCC(n5nc(-c6ccc(Oc7ccc(F)cc7F)cc6)c(C(N)=O)c5N)C4)c3)ccc2CC1C(=O)NC1CCCc2ccccc21)C(C)(C)C

> <Shape>
0.255

> <Color>
0.073

> <Negative vol penalty>
0.000

$$$$

  -OEChem-04052321003D

 91100  0     1  0  0  0  0  0999 V2000
  -16.7064  -30.2187   23.5298 C   0  0  0  0  0  0  0  0  0  0  0  0
  -17.8484  -30.8335   24.0329 C   0  0  0  0  0  0  0  0  0  0  0  0
  -34.4371  -29.3800   19.1004 C   0  0  0  0  0  0  0  0  0  0  0  0
  -28.9679  -18.7832   22.2082 C   0  0  0  0  0  0  0  0  0  0  0  0
  -27.9703  -18.4270   20.0368 C   0  0  0  0  0  0  0  0  0  0  0  0
  -16.8010  -28.9704   22.9160 C   0  0  0  0  0  0  0  0  0  0  0  0
  -19.0857  -30.1998   23.9235 C   0  0  0  0  0  0  0  0  0  0  0  0
  -26.0476  -31.6557   23.0697 C   0  0  0  0  0  0  0  0  0  0  0  0
  -34.1633  -29.8705   20.3771 C   0  0  0  0  0  0  0  0  0  0  0  0
  -33.9967  -28.1086   18.7325 C   0  0  0  0  0  0  0  0  0  0  0  0
  -28.7393  -17.4461   22.5326 C   0  0  0  0  0  0  0  0  0  0  0  0
  -27.7417  -17.0897   20.3612 C   0  0  0  0  0  0  0  0  0  0  0  0
  -27.2851  -31.3773   23.6486 C   0  0  0  0  0  0  0  0  0  0  0  0
  -29.5263  -14.2237   20.5075 C   0  0  0  0  0  0  0  0  0  0  0  0
  -29.8433  -13.2623   19.5479 C   0  0  0  0  0  0  0  0  0  0  0  0
  -27.3399  -29.2580   22.4977 C   0  0  0  0  0  0  0  0  0  0  0  0
  -27.5408  -12.5312   19.5197 C   0  0  0  0  0  0  0  0  0  0  0  0
  -28.5833  -19.2737   20.9603 C   0  0  0  0  0  0  0  0  0  0  0  0
  -28.3184  -21.7891   21.2921 C   0  0  0  0  0  0  0  0  0  0  0  0
  -18.0415  -28.3255   22.7903 C   0  0  0  0  0  0  0  0  0  0  0  0
  -25.4410  -30.7309   22.2076 C   0  0  0  0  0  0  0  0  0  0  0  0
  -19.1968  -28.9411   23.3085 C   0  0  0  0  0  0  0  0  0  0  0  0
  -26.0960  -29.5281   21.9072 C   0  0  0  0  0  0  0  0  0  0  0  0
  -33.4491  -29.0898   21.2859 C   0  0  0  0  0  0  0  0  0  0  0  0
  -33.0087  -27.8184   20.9180 C   0  0  0  0  0  0  0  0  0  0  0  0
  -33.2825  -27.3278   19.6413 C   0  0  0  0  0  0  0  0  0  0  0  0
  -28.1262  -16.5993   21.6092 C   0  0  0  0  0  0  0  0  0  0  0  0
  -27.9301  -30.1771   23.3649 C   0  0  0  0  0  0  0  0  0  0  0  0
  -28.2165  -14.3388   20.9732 C   0  0  0  0  0  0  0  0  0  0  0  0
  -28.8506  -12.4160   19.0540 C   0  0  0  0  0  0  0  0  0  0  0  0
  -27.2238  -13.4926   20.4793 C   0  0  0  0  0  0  0  0  0  0  0  0
  -28.8187  -20.6551   20.6247 C   0  0  0  0  0  0  0  0  0  0  0  0
  -28.8271  -22.8536   20.5888 C   0  0  0  0  0  0  0  0  0  0  0  0
  -27.4699  -21.8729   22.4448 C   0  0  0  0  0  0  0  0  0  0  0  0
  -22.7354  -29.0630   22.2520 C   0  0  0  0  0  0  0  0  0  0  0  0
  -23.6652  -28.2153   19.2621 C   0  0  0  0  0  0  0  0  0  0  0  0
  -26.2107  -27.8101   17.0253 C   0  0  0  0  0  0  0  0  0  0  0  0
  -33.0422  -25.4217   18.0118 C   0  0  0  0  0  0  0  0  0  0  0  0
  -18.0870  -26.9555   22.1611 C   0  0  0  0  0  0  0  0  0  0  0  0
  -24.1183  -31.0578   21.5704 C   0  0  0  0  0  0  0  0  0  0  0  0
  -25.4965  -28.5108   20.9722 C   0  0  0  0  0  0  0  0  0  0  0  0
  -19.4914  -26.5200   21.7510 C   0  0  0  0  0  0  0  0  0  0  0  0
  -31.2140  -23.0161   16.1282 C   0  0  0  0  0  0  0  0  0  0  0  0
  -20.4857  -26.7973   22.8741 C   0  0  0  0  0  0  0  0  0  0  0  0
  -30.3867  -22.2807   17.1850 C   0  0  0  0  0  0  0  0  0  0  0  0
  -34.5297  -24.6103   23.5117 C   0  0  0  0  0  0  0  0  0  0  0  0
  -32.5997  -23.3897   16.6516 C   0  0  0  0  0  0  0  0  0  0  0  0
  -34.2464  -25.9069   22.7520 C   0  0  0  0  0  0  0  0  0  0  0  0
  -31.7780  -23.3989   18.9741 C   0  0  0  0  0  0  0  0  0  0  0  0
  -32.1728  -24.9029   23.1473 C   0  0  0  0  0  0  0  0  0  0  0  0
  -20.5607  -28.2967   23.1868 C   0  0  1  0  0  0  0  0  0  0  0  0
  -23.3542  -29.8198   21.1109 C   0  0  1  0  0  0  0  0  0  0  0  0
  -30.3507  -23.0593   18.5147 C   0  0  2  0  0  0  0  0  0  0  0  0
  -33.2140  -23.8469   23.4600 C   0  0  2  0  0  0  0  0  0  0  0  0
  -26.6654  -27.0669   14.6719 C   0  0  0  0  0  0  0  0  0  0  0  0
  -31.3403  -21.8678   26.0594 C   0  0  0  0  0  0  0  0  0  0  0  0
  -32.5650  -20.8460   24.1023 C   0  0  0  0  0  0  0  0  0  0  0  0
  -23.3352  -25.3057   20.1197 C   0  0  0  0  0  0  0  0  0  0  0  0
  -24.6792  -24.6356   18.1165 C   0  0  0  0  0  0  0  0  0  0  0  0
  -22.5019  -25.8156   17.8176 C   0  0  0  0  0  0  0  0  0  0  0  0
  -27.2863  -30.4624   16.2723 C   0  0  0  0  0  0  0  0  0  0  0  0
  -32.2426  -26.9844   21.8965 C   0  0  0  0  0  0  0  0  0  0  0  0
  -33.1683  -29.6417   22.6525 C   0  0  0  0  0  0  0  0  0  0  0  0
  -31.4324  -30.5734   24.1878 C   0  0  0  0  0  0  0  0  0  0  0  0
  -29.9823  -31.0133   24.2282 C   0  0  0  0  0  0  0  0  0  1  0  0
  -24.5011  -27.1022   18.6778 C   0  0  1  0  0  0  0  0  0  0  0  0
  -26.3605  -28.2484   15.5796 C   0  0  2  0  0  0  0  0  0  0  0  0
  -31.9058  -22.0943   24.6666 C   0  0  0  0  0  0  0  0  0  0  0  0
  -23.7650  -25.7329   18.7021 C   0  0  0  0  0  0  0  0  0  0  0  0
  -29.5861  -20.9697   19.5778 N   0  0  0  0  0  0  0  0  0  0  0  0
  -29.5718  -22.3135   19.5820 N   0  0  0  0  0  0  0  0  0  0  0  0
  -24.1988  -28.8736   20.3791 N   0  0  0  0  0  0  0  0  0  0  0  0
  -32.4867  -24.1286   17.9110 N   0  0  0  0  0  0  0  0  0  0  0  0
  -32.9082  -25.7223   22.1809 N   0  0  1  0  0  0  0  0  0  0  0  0
  -28.7054  -24.1896   20.7396 N   0  0  0  0  0  0  0  0  0  0  0  0
  -26.0820  -21.9037   22.2519 N   0  0  0  0  0  0  0  0  0  0  0  0
  -32.8442  -26.0396   19.2462 N   0  0  0  0  0  0  0  0  0  0  0  0
  -21.3574  -28.9813   22.1913 N   0  0  0  0  0  0  0  0  0  0  0  0
  -24.8958  -27.5448   17.3448 N   0  0  0  0  0  0  0  0  0  0  0  0
  -32.9298  -23.1772   24.7422 N   0  3  0  0  0  0  0  0  0  0  0  0
  -27.4672  -29.2381   15.4505 N   0  3  0  0  0  0  0  0  0  0  0  0
  -31.7564  -30.0776   22.8264 N   0  3  0  0  0  0  0  0  0  0  0  0
  -27.9293  -21.9355   23.6104 O   0  0  0  0  0  0  0  0  0  0  0  0
  -23.4551  -28.5871   23.1222 O   0  0  0  0  0  0  0  0  0  0  0  0
  -22.5822  -28.4951   18.7422 O   0  0  0  0  0  0  0  0  0  0  0  0
  -27.1650  -27.7092   17.7931 O   0  0  0  0  0  0  0  0  0  0  0  0
  -33.6251  -25.9533   17.0634 O   0  0  0  0  0  0  0  0  0  0  0  0
  -27.9033  -15.2943   21.9253 O   0  0  0  0  0  0  0  0  0  0  0  0
  -29.1377  -29.9027   23.9290 O   0  0  0  0  0  0  0  0  0  1  0  0
  -29.1548  -11.4939   18.1314 F   0  0  0  0  0  0  0  0  0  0  0  0
  -25.9634  -13.5993   20.9221 F   0  0  0  0  0  0  0  0  0  0  0  0
  1  2  1  0  0  0  0
  1  6  2  0  0  0  0
  2  7  2  0  0  0  0
  3  9  2  0  0  0  0
  3 10  1  0  0  0  0
  4 11  2  0  0  0  0
  4 18  1  0  0  0  0
  5 12  1  0  0  0  0
  5 18  2  0  0  0  0
  6 20  1  0  0  0  0
  7 22  1  0  0  0  0
  8 13  2  0  0  0  0
  8 21  1  0  0  0  0
  9 24  1  0  0  0  0
 10 26  2  0  0  0  0
 11 27  1  0  0  0  0
 12 27  2  0  0  0  0
 13 28  1  0  0  0  0
 14 15  2  0  0  0  0
 14 29  1  0  0  0  0
 15 30  1  0  0  0  0
 16 23  1  0  0  0  0
 16 28  2  0  0  0  0
 17 30  2  0  0  0  0
 17 31  1  0  0  0  0
 18 32  1  0  0  0  0
 19 32  1  0  0  0  0
 19 33  2  0  0  0  0
 19 34  1  0  0  0  0
 20 22  2  0  0  0  0
 20 39  1  0  0  0  0
 21 23  2  0  0  0  0
 21 40  1  0  0  0  0
 22 51  1  0  0  0  0
 23 41  1  0  0  0  0
 24 25  2  0  0  0  0
 24 63  1  0  0  0  0
 25 26  1  0  0  0  0
 25 62  1  0  0  0  0
 26 77  1  0  0  0  0
 27 88  1  0  0  0  0
 28 89  1  0  0  0  0
 29 31  2  0  0  0  0
 29 88  1  0  0  0  0
 30 90  1  0  0  0  0
 31 91  1  0  0  0  0
 32 70  2  0  0  0  0
 33 71  1  0  0  0  0
 33 75  1  0  0  0  0
 34 76  1  0  0  0  0
 34 83  2  0  0  0  0
 35 52  1  0  0  0  0
 35 78  1  0  0  0  0
 35 84  2  0  0  0  0
 36 66  1  0  0  0  0
 36 72  1  0  0  0  0
 36 85  2  0  0  0  0
 37 67  1  0  0  0  0
 37 79  1  0  0  0  0
 37 86  2  0  0  0  0
 38 73  1  0  0  0  0
 38 77  1  0  0  0  0
 38 87  2  0  0  0  0
 39 42  1  0  0  0  0
 40 52  1  0  0  0  0
 41 72  1  0  0  0  0
 42 44  1  0  0  0  0
 43 45  1  0  0  0  0
 43 47  1  0  0  0  0
 44 51  1  0  0  0  0
 45 53  1  0  0  0  0
 46 48  1  0  0  0  0
 46 54  1  0  0  0  0
 47 73  1  0  0  0  0
 48 74  1  0  0  0  0
 49 53  1  0  0  0  0
 49 73  1  0  0  0  0
 50 54  1  0  0  0  0
 50 74  1  0  0  0  0
 51 78  1  0  0  0  0
 52 72  1  0  0  0  0
 53 71  1  0  0  0  0
 54 80  1  0  0  0  0
 55 67  1  0  0  0  0
 56 68  1  0  0  0  0
 57 68  1  0  0  0  0
 58 69  1  0  0  0  0
 59 69  1  0  0  0  0
 60 69  1  0  0  0  0
 61 81  1  0  0  0  0
 62 74  1  0  0  0  0
 63 82  1  0  0  0  0
 64 65  1  0  0  0  0
 64 82  1  0  0  0  0
 65 89  1  0  0  0  0
 66 69  1  0  0  0  0
 66 79  1  0  0  0  0
 67 81  1  0  0  0  0
 68 80  1  0  0  0  0
 70 71  1  0  0  0  0
M  CHG  3  80   1  81   1  82   1
M  ISO  4  38 100  65 101  77 100  89 101
M  END
> <Batch ID>
0135

> <Smiles>
CNC(C)C(=O)NC(C(=O)N1Cc2cc([101O:1][101CH2:1]CNCc3cccc([100NH:0][100C:0](=O)N4CCCC(n5nc(-c6ccc(Oc7ccc(F)cc7F)cc6)c(C(N)=O)c5N)C4)c3CN3CCC(NC(C)C)C3)ccc2CC1C(=O)NC1CCCc2ccccc21)C(C)(C)C

> <Shape>
0.275

> <Color>
0.100

> <Negative vol penalty>
0.000

$$$$

  -OEChem-04052321003D

 85 93  0     1  0  0  0  0  0999 V2000
  -30.9180  -35.0740   21.5815 C   0  0  0  0  0  0  0  0  0  0  0  0
  -30.7269  -33.7031   21.4426 C   0  0  0  0  0  0  0  0  0  0  0  0
  -23.7324  -19.3151   23.7440 C   0  0  0  0  0  0  0  0  0  0  0  0
  -24.0391  -20.3538   21.5844 C   0  0  0  0  0  0  0  0  0  0  0  0
  -30.0674  -35.8158   22.4001 C   0  0  0  0  0  0  0  0  0  0  0  0
  -29.6857  -33.0729   22.1232 C   0  0  0  0  0  0  0  0  0  0  0  0
  -27.1403  -29.8179   19.1955 C   0  0  0  0  0  0  0  0  0  0  0  0
  -31.4172  -20.9729   19.6233 C   0  0  0  0  0  0  0  0  0  0  0  0
  -23.1026  -20.4693   24.2097 C   0  0  0  0  0  0  0  0  0  0  0  0
  -23.4092  -21.5079   22.0500 C   0  0  0  0  0  0  0  0  0  0  0  0
  -27.7297  -28.5762   18.9622 C   0  0  0  0  0  0  0  0  0  0  0  0
  -30.6448  -22.1165   19.8264 C   0  0  0  0  0  0  0  0  0  0  0  0
  -21.7342  -23.2748   26.0751 C   0  0  0  0  0  0  0  0  0  0  0  0
  -22.0997  -23.7522   27.3337 C   0  0  0  0  0  0  0  0  0  0  0  0
  -26.3130  -27.5935   20.6493 C   0  0  0  0  0  0  0  0  0  0  0  0
  -24.3785  -24.0107   26.5738 C   0  0  0  0  0  0  0  0  0  0  0  0
  -24.2008  -19.2574   22.4314 C   0  0  0  0  0  0  0  0  0  0  0  0
  -24.2455  -16.9567   21.3303 C   0  0  0  0  0  0  0  0  0  0  0  0
  -29.0094  -35.1960   23.0835 C   0  0  0  0  0  0  0  0  0  0  0  0
  -26.1387  -29.9592   20.1667 C   0  0  0  0  0  0  0  0  0  0  0  0
  -28.8210  -33.8069   22.9528 C   0  0  0  0  0  0  0  0  0  0  0  0
  -25.7106  -28.8376   20.8912 C   0  0  0  0  0  0  0  0  0  0  0  0
  -31.5559  -20.4437   18.3402 C   0  0  0  0  0  0  0  0  0  0  0  0
  -30.9221  -21.0580   17.2601 C   0  0  0  0  0  0  0  0  0  0  0  0
  -22.9409  -21.5657   23.3627 C   0  0  0  0  0  0  0  0  0  0  0  0
  -27.3181  -27.4643   19.6912 C   0  0  0  0  0  0  0  0  0  0  0  0
  -30.0109  -22.7307   18.7463 C   0  0  0  0  0  0  0  0  0  0  0  0
  -22.6908  -23.1653   25.0659 C   0  0  0  0  0  0  0  0  0  0  0  0
  -30.1496  -22.2015   17.4632 C   0  0  0  0  0  0  0  0  0  0  0  0
  -23.4219  -24.1201   27.5831 C   0  0  0  0  0  0  0  0  0  0  0  0
  -24.0129  -23.5332   25.3152 C   0  0  0  0  0  0  0  0  0  0  0  0
  -24.8521  -18.0657   21.9500 C   0  0  0  0  0  0  0  0  0  0  0  0
  -25.2858  -16.1000   21.0651 C   0  0  0  0  0  0  0  0  0  0  0  0
  -22.8651  -16.7220   21.0219 C   0  0  0  0  0  0  0  0  0  0  0  0
  -25.8471  -31.6157   22.8639 C   0  0  0  0  0  0  0  0  0  0  0  0
  -22.8141  -30.4682   22.7832 C   0  0  0  0  0  0  0  0  0  0  0  0
  -20.6542  -28.0642   21.6868 C   0  0  0  0  0  0  0  0  0  0  0  0
  -31.1549  -16.9467   20.2360 C   0  0  0  0  0  0  0  0  0  0  0  0
  -28.1450  -36.0316   23.9942 C   0  0  0  0  0  0  0  0  0  0  0  0
  -25.4941  -31.3001   20.3876 C   0  0  0  0  0  0  0  0  0  0  0  0
  -24.6249  -28.9321   21.9308 C   0  0  0  0  0  0  0  0  0  0  0  0
  -26.8364  -35.3502   24.3860 C   0  0  0  0  0  0  0  0  0  0  0  0
  -29.6167  -14.8577   22.6746 C   0  0  0  0  0  0  0  0  0  0  0  0
  -27.0917  -33.9070   24.8089 C   0  0  0  0  0  0  0  0  0  0  0  0
  -28.1664  -15.3429   22.7095 C   0  0  0  0  0  0  0  0  0  0  0  0
  -30.5931  -16.0121   22.4603 C   0  0  0  0  0  0  0  0  0  0  0  0
  -28.8585  -17.3384   21.3174 C   0  0  0  0  0  0  0  0  0  0  0  0
  -27.6876  -33.0913   23.6552 C   0  0  1  0  0  0  0  0  0  0  0  0
  -24.8433  -31.4312   21.7612 C   0  0  1  0  0  0  0  0  0  0  0  0
  -27.8330  -16.2028   21.4755 C   0  0  2  0  0  0  0  0  0  0  0  0
  -31.0683  -20.4941   15.8827 C   0  0  0  0  0  0  0  0  0  0  0  0
  -18.2451  -27.3737   21.8151 C   0  0  0  0  0  0  0  0  0  0  0  0
  -23.2659  -29.4275   25.6157 C   0  0  0  0  0  0  0  0  0  0  0  0
  -21.2511  -27.9697   25.3266 C   0  0  0  0  0  0  0  0  0  0  0  0
  -21.0175  -30.4512   25.2266 C   0  0  0  0  0  0  0  0  0  0  0  0
  -20.3041  -28.3216   18.7593 C   0  0  0  0  0  0  0  0  0  0  0  0
  -28.2064  -22.3671   16.1021 C   0  0  0  0  0  0  0  0  0  0  0  0
  -32.3884  -19.2183   18.1497 C   0  0  0  0  0  0  0  0  0  0  0  0
  -31.5636  -17.9358   17.9968 C   0  0  0  0  0  0  0  0  0  0  0  0
  -29.2504  -26.2467   19.0281 C   0  0  0  0  0  0  0  0  0  1  0  0
  -29.9240  -24.9790   19.5167 C   0  0  0  0  0  0  0  0  0  0  0  0
  -22.1244  -29.2322   23.3081 C   0  0  1  0  0  0  0  0  0  0  0  0
  -19.2867  -28.1603   21.0347 C   0  0  2  0  0  0  0  0  0  0  0  0
  -21.9366  -29.2684   24.8511 C   0  0  0  0  0  0  0  0  0  0  0  0
  -26.1751  -17.9287   22.0714 N   0  0  0  0  0  0  0  0  0  0  0  0
  -26.4085  -16.7235   21.5245 N   0  0  0  0  0  0  0  0  0  0  0  0
  -24.0299  -30.2661   22.1148 N   0  0  0  0  0  0  0  0  0  0  0  0
  -30.2218  -16.7868   21.2737 N   0  0  0  0  0  0  0  0  0  0  0  0
  -25.3406  -14.8817   20.4861 N   0  0  0  0  0  0  0  0  0  0  0  0
  -21.9275  -17.7064   21.3630 N   0  0  0  0  0  0  0  0  0  0  0  0
  -26.6556  -32.7256   22.7089 N   0  0  0  0  0  0  0  0  0  0  0  0
  -20.8796  -29.1095   22.5573 N   0  0  0  0  0  0  0  0  0  0  0  0
  -30.7201  -17.6895   19.1452 N   0  0  0  0  0  0  0  0  0  0  0  0
  -19.3366  -27.6242   19.6451 N   0  3  0  0  0  0  0  0  0  0  0  0
  -22.4725  -15.6634   20.4752 O   0  0  0  0  0  0  0  0  0  0  0  0
  -25.8845  -30.8115   23.7877 O   0  0  0  0  0  0  0  0  0  0  0  0
  -22.2899  -31.5717   22.9536 O   0  0  0  0  0  0  0  0  0  0  0  0
  -21.4422  -27.1511   21.4504 O   0  0  0  0  0  0  0  0  0  0  0  0
  -32.2895  -16.4587   20.2762 O   0  0  0  0  0  0  0  0  0  0  0  0
  -22.3261  -22.6919   23.8166 O   0  0  0  0  0  0  0  0  0  0  0  0
  -29.5268  -22.8065   16.4113 O   0  0  0  0  0  0  0  0  0  0  0  0
  -27.8922  -26.2512   19.4659 O   0  0  0  0  0  0  0  0  0  1  0  0
  -29.2555  -23.8535   18.9602 O   0  0  0  0  0  0  0  0  0  0  0  0
  -23.7725  -24.5800   28.7913 F   0  0  0  0  0  0  0  0  0  0  0  0
  -24.9361  -23.4314   24.3492 F   0  0  0  0  0  0  0  0  0  0  0  0
  1  2  1  0  0  0  0
  1  5  2  0  0  0  0
  2  6  2  0  0  0  0
  3  9  2  0  0  0  0
  3 17  1  0  0  0  0
  4 10  1  0  0  0  0
  4 17  2  0  0  0  0
  5 19  1  0  0  0  0
  6 21  1  0  0  0  0
  7 11  2  0  0  0  0
  7 20  1  0  0  0  0
  8 12  2  0  0  0  0
  8 23  1  0  0  0  0
  9 25  1  0  0  0  0
 10 25  2  0  0  0  0
 11 26  1  0  0  0  0
 12 27  1  0  0  0  0
 13 14  2  0  0  0  0
 13 28  1  0  0  0  0
 14 30  1  0  0  0  0
 15 22  1  0  0  0  0
 15 26  2  0  0  0  0
 16 30  2  0  0  0  0
 16 31  1  0  0  0  0
 17 32  1  0  0  0  0
 18 32  1  0  0  0  0
 18 33  2  0  0  0  0
 18 34  1  0  0  0  0
 19 21  2  0  0  0  0
 19 39  1  0  0  0  0
 20 22  2  0  0  0  0
 20 40  1  0  0  0  0
 21 48  1  0  0  0  0
 22 41  1  0  0  0  0
 23 24  2  0  0  0  0
 23 58  1  0  0  0  0
 24 29  1  0  0  0  0
 24 51  1  0  0  0  0
 25 80  1  0  0  0  0
 26 82  1  0  0  0  0
 27 29  2  0  0  0  0
 27 83  1  0  0  0  0
 28 31  2  0  0  0  0
 28 80  1  0  0  0  0
 29 81  1  0  0  0  0
 30 84  1  0  0  0  0
 31 85  1  0  0  0  0
 32 65  2  0  0  0  0
 33 66  1  0  0  0  0
 33 69  1  0  0  0  0
 34 70  1  0  0  0  0
 34 75  2  0  0  0  0
 35 49  1  0  0  0  0
 35 71  1  0  0  0  0
 35 76  2  0  0  0  0
 36 62  1  0  0  0  0
 36 67  1  0  0  0  0
 36 77  2  0  0  0  0
 37 63  1  0  0  0  0
 37 72  1  0  0  0  0
 37 78  2  0  0  0  0
 38 68  1  0  0  0  0
 38 73  1  0  0  0  0
 38 79  2  0  0  0  0
 39 42  1  0  0  0  0
 40 49  1  0  0  0  0
 41 67  1  0  0  0  0
 42 44  1  0  0  0  0
 43 45  1  0  0  0  0
 43 46  1  0  0  0  0
 44 48  1  0  0  0  0
 45 50  1  0  0  0  0
 46 68  1  0  0  0  0
 47 50  1  0  0  0  0
 47 68  1  0  0  0  0
 48 71  1  0  0  0  0
 49 67  1  0  0  0  0
 50 66  1  0  0  0  0
 52 63  1  0  0  0  0
 53 64  1  0  0  0  0
 54 64  1  0  0  0  0
 55 64  1  0  0  0  0
 56 74  1  0  0  0  0
 57 81  1  0  0  0  0
 58 59  1  0  0  0  0
 59 73  1  0  0  0  0
 60 61  1  0  0  0  0
 60 82  1  0  0  0  0
 61 83  1  0  0  0  0
 62 64  1  0  0  0  0
 62 72  1  0  0  0  0
 63 74  1  0  0  0  0
 65 66  1  0  0  0  0
M  CHG  1  74   1
M  ISO  4  38 100  60 101  73 100  82 101
M  END
> <Batch ID>
0135

> <Smiles>
CNC(C)C(=O)NC(C(=O)N1Cc2cc([101O:1][101CH2:1]COc3ccc(CC[100NH:0][100C:0](=O)N4CCCC(n5nc(-c6ccc(Oc7ccc(F)cc7F)cc6)c(C(N)=O)c5N)C4)c(C)c3OC)ccc2CC1C(=O)NC1CCCc2ccccc21)C(C)(C)C

> <Shape>
0.207

> <Color>
0.100

> <Negative vol penalty>
0.000

$$$$

  -OEChem-04052321003D

 89 98  0     1  0  0  0  0  0999 V2000
  -29.4506  -34.1736   26.9035 C   0  0  0  0  0  0  0  0  0  0  0  0
  -29.1322  -32.9660   26.2905 C   0  0  0  0  0  0  0  0  0  0  0  0
  -24.6089   -8.8515   21.3972 C   0  0  0  0  0  0  0  0  0  0  0  0
  -23.3154  -10.7953   22.0182 C   0  0  0  0  0  0  0  0  0  0  0  0
  -28.4658  -35.1441   27.0827 C   0  0  0  0  0  0  0  0  0  0  0  0
  -27.8283  -32.7277   25.8575 C   0  0  0  0  0  0  0  0  0  0  0  0
  -27.6619  -30.6878   21.2254 C   0  0  0  0  0  0  0  0  0  0  0  0
  -29.0116  -24.6456   19.5479 C   0  0  0  0  0  0  0  0  0  0  0  0
  -29.0921  -23.2602   19.4071 C   0  0  0  0  0  0  0  0  0  0  0  0
  -23.9932   -8.1178   22.4113 C   0  0  0  0  0  0  0  0  0  0  0  0
  -22.6997  -10.0616   23.0323 C   0  0  0  0  0  0  0  0  0  0  0  0
  -27.9384  -29.3254   21.1194 C   0  0  0  0  0  0  0  0  0  0  0  0
  -21.0393   -6.5498   22.9098 C   0  0  0  0  0  0  0  0  0  0  0  0
  -20.5900   -5.2662   22.6000 C   0  0  0  0  0  0  0  0  0  0  0  0
  -25.5740  -28.8605   21.0062 C   0  0  0  0  0  0  0  0  0  0  0  0
  -28.3111  -24.3715   21.8438 C   0  0  0  0  0  0  0  0  0  0  0  0
  -22.0479   -4.3471   24.2932 C   0  0  0  0  0  0  0  0  0  0  0  0
  -24.2700  -10.1903   21.2007 C   0  0  0  0  0  0  0  0  0  0  0  0
  -24.4735  -11.0870   18.8212 C   0  0  0  0  0  0  0  0  0  0  0  0
  -27.1514  -34.9214   26.6430 C   0  0  0  0  0  0  0  0  0  0  0  0
  -26.3368  -31.1466   21.2337 C   0  0  0  0  0  0  0  0  0  0  0  0
  -26.8246  -33.6956   26.0322 C   0  0  0  0  0  0  0  0  0  0  0  0
  -25.2835  -30.2294   21.1099 C   0  0  0  0  0  0  0  0  0  0  0  0
  -28.6212  -25.2013   20.7664 C   0  0  0  0  0  0  0  0  0  0  0  0
  -28.7820  -22.4305   20.4846 C   0  0  0  0  0  0  0  0  0  0  0  0
  -28.3915  -22.9861   21.7030 C   0  0  0  0  0  0  0  0  0  0  0  0
  -23.0386   -8.7229   23.2288 C   0  0  0  0  0  0  0  0  0  0  0  0
  -26.8943  -28.4113   21.0127 C   0  0  0  0  0  0  0  0  0  0  0  0
  -21.9930   -6.7321   23.9113 C   0  0  0  0  0  0  0  0  0  0  0  0
  -21.0942   -4.1648   23.2917 C   0  0  0  0  0  0  0  0  0  0  0  0
  -22.4972   -5.6308   24.6030 C   0  0  0  0  0  0  0  0  0  0  0  0
  -24.9060  -10.9488   20.1538 C   0  0  0  0  0  0  0  0  0  0  0  0
  -25.4139  -11.9003   18.2376 C   0  0  0  0  0  0  0  0  0  0  0  0
  -23.3244  -10.5300   18.1693 C   0  0  0  0  0  0  0  0  0  0  0  0
  -24.5184  -32.7132   23.3176 C   0  0  0  0  0  0  0  0  0  0  0  0
  -22.3965  -32.7261   20.8641 C   0  0  0  0  0  0  0  0  0  0  0  0
  -21.3071  -31.2860   17.9682 C   0  0  0  0  0  0  0  0  0  0  0  0
  -29.1804  -16.0054   20.4315 C   0  0  0  0  0  0  0  0  0  0  0  0
  -26.1101  -35.9815   26.9013 C   0  0  0  0  0  0  0  0  0  0  0  0
  -26.0561  -32.6217   21.3218 C   0  0  0  0  0  0  0  0  0  0  0  0
  -23.8440  -30.6725   21.0934 C   0  0  0  0  0  0  0  0  0  0  0  0
  -24.8383  -35.7998   26.0767 C   0  0  0  0  0  0  0  0  0  0  0  0
  -30.0335  -13.1060   18.5493 C   0  0  0  0  0  0  0  0  0  0  0  0
  -25.7102  -20.4320   18.1320 C   0  0  0  0  0  0  0  0  0  0  0  0
  -24.3728  -34.3480   26.1262 C   0  0  0  0  0  0  0  0  0  0  0  0
  -27.0321  -21.0235   18.6123 C   0  0  0  0  0  0  0  0  0  0  0  0
  -28.7771  -12.2368   18.6269 C   0  0  0  0  0  0  0  0  0  0  0  0
  -30.2785  -13.8613   19.8537 C   0  0  0  0  0  0  0  0  0  0  0  0
  -27.8782  -13.7917   20.4082 C   0  0  0  0  0  0  0  0  0  0  0  0
  -25.7981  -18.9249   17.9749 C   0  0  0  0  0  0  0  0  0  0  0  0
  -25.4272  -33.4098   25.5266 C   0  0  1  0  0  0  0  0  0  0  0  0
  -24.6546  -32.9334   21.8375 C   0  0  1  0  0  0  0  0  0  0  0  0
  -27.5251  -20.3507   19.9049 C   0  0  1  0  0  0  0  0  0  0  0  0
  -27.5584  -13.0535   19.0970 C   0  0  2  0  0  0  0  0  0  0  0  0
  -27.6019  -18.8211   19.7311 C   0  0  1  0  0  0  0  0  0  0  0  0
  -28.0543  -22.1175   22.8703 C   0  0  0  0  0  0  0  0  0  0  0  0
  -31.3644  -20.9226   19.7103 C   0  0  0  0  0  0  0  0  0  0  0  0
  -19.5276  -31.4966   16.2114 C   0  0  0  0  0  0  0  0  0  0  0  0
  -20.3619  -31.5049   22.7822 C   0  0  0  0  0  0  0  0  0  0  0  0
  -18.9745  -30.8713   20.7967 C   0  0  0  0  0  0  0  0  0  0  0  0
  -19.4419  -33.2748   21.2737 C   0  0  0  0  0  0  0  0  0  0  0  0
  -23.3055  -31.7425   15.8335 C   0  0  0  0  0  0  0  0  0  0  0  0
  -28.5342  -26.6915   20.9175 C   0  0  0  0  0  0  0  0  0  1  0  0
  -27.9383  -18.0727   21.0168 C   0  0  0  0  0  0  0  0  0  0  0  0
  -29.9603  -20.5001   19.2953 C   0  0  0  0  0  0  0  0  0  0  0  0
  -28.8743  -20.9501   20.3095 C   0  0  1  0  0  0  0  0  0  0  0  0
  -21.2992  -31.8016   20.3948 C   0  0  1  0  0  0  0  0  0  0  0  0
  -20.9397  -31.8839   16.6221 C   0  0  2  0  0  0  0  0  0  0  0  0
  -20.0463  -31.8543   21.3141 C   0  0  0  0  0  0  0  0  0  0  0  0
  -26.0335  -11.6204   20.4022 N   0  0  0  0  0  0  0  0  0  0  0  0
  -26.3175  -12.1883   19.2177 N   0  0  0  0  0  0  0  0  0  0  0  0
  -23.6207  -32.1246   21.1886 N   0  0  0  0  0  0  0  0  0  0  0  0
  -29.0853  -14.6166   20.2432 N   0  0  0  0  0  0  0  0  0  0  0  0
  -25.5479  -12.3899   16.9867 N   0  0  0  0  0  0  0  0  0  0  0  0
  -22.4615   -9.7163   18.9160 N   0  0  0  0  0  0  0  0  0  0  0  0
  -25.3902  -33.4660   24.0810 N   0  0  0  0  0  0  0  0  0  0  0  0
  -21.0351  -32.1545   19.0041 N   0  0  0  0  0  0  0  0  0  0  0  0
  -28.0014  -16.6454   20.7935 N   0  0  0  0  0  0  0  0  0  0  0  0
  -26.2596  -18.3255   19.2608 N   0  3  0  0  0  0  0  0  0  0  0  0
  -21.8821  -31.4088   15.5698 N   0  3  0  0  0  0  0  0  0  0  0  0
  -23.0792  -10.7342   16.9561 O   0  0  0  0  0  0  0  0  0  0  0  0
  -23.6832  -31.9202   23.7362 O   0  0  0  0  0  0  0  0  0  0  0  0
  -22.1778  -33.9381   20.9332 O   0  0  0  0  0  0  0  0  0  0  0  0
  -21.7840  -30.1597   18.0891 O   0  0  0  0  0  0  0  0  0  0  0  0
  -30.2365  -16.6294   20.2825 O   0  0  0  0  0  0  0  0  0  0  0  0
  -22.4375   -8.0072   24.2183 O   0  0  0  0  0  0  0  0  0  0  0  0
  -27.1614  -27.0809   20.9097 O   0  0  0  0  0  0  0  0  0  1  0  0
  -20.6615   -2.9324   22.9951 F   0  0  0  0  0  0  0  0  0  0  0  0
  -23.4127   -5.7998   25.5670 F   0  0  0  0  0  0  0  0  0  0  0  0
  1  2  1  0  0  0  0
  1  5  2  0  0  0  0
  2  6  2  0  0  0  0
  3 10  2  0  0  0  0
  3 18  1  0  0  0  0
  4 11  1  0  0  0  0
  4 18  2  0  0  0  0
  5 20  1  0  0  0  0
  6 22  1  0  0  0  0
  7 12  2  0  0  0  0
  7 21  1  0  0  0  0
  8  9  2  0  0  0  0
  8 24  1  0  0  0  0
  9 25  1  0  0  0  0
 10 27  1  0  0  0  0
 11 27  2  0  0  0  0
 12 28  1  0  0  0  0
 13 14  2  0  0  0  0
 13 29  1  0  0  0  0
 14 30  1  0  0  0  0
 15 23  1  0  0  0  0
 15 28  2  0  0  0  0
 16 24  2  0  0  0  0
 16 26  1  0  0  0  0
 17 30  2  0  0  0  0
 17 31  1  0  0  0  0
 18 32  1  0  0  0  0
 19 32  1  0  0  0  0
 19 33  2  0  0  0  0
 19 34  1  0  0  0  0
 20 22  2  0  0  0  0
 20 39  1  0  0  0  0
 21 23  2  0  0  0  0
 21 40  1  0  0  0  0
 22 51  1  0  0  0  0
 23 41  1  0  0  0  0
 24 63  1  0  0  0  0
 25 26  2  0  0  0  0
 25 66  1  0  0  0  0
 26 56  1  0  0  0  0
 27 86  1  0  0  0  0
 28 87  1  0  0  0  0
 29 31  2  0  0  0  0
 29 86  1  0  0  0  0
 30 88  1  0  0  0  0
 31 89  1  0  0  0  0
 32 70  2  0  0  0  0
 33 71  1  0  0  0  0
 33 74  1  0  0  0  0
 34 75  1  0  0  0  0
 34 81  2  0  0  0  0
 35 52  1  0  0  0  0
 35 76  1  0  0  0  0
 35 82  2  0  0  0  0
 36 67  1  0  0  0  0
 36 72  1  0  0  0  0
 36 83  2  0  0  0  0
 37 68  1  0  0  0  0
 37 77  1  0  0  0  0
 37 84  2  0  0  0  0
 38 73  1  0  0  0  0
 38 78  1  0  0  0  0
 38 85  2  0  0  0  0
 39 42  1  0  0  0  0
 40 52  1  0  0  0  0
 41 72  1  0  0  0  0
 42 45  1  0  0  0  0
 43 47  1  0  0  0  0
 43 48  1  0  0  0  0
 44 46  1  0  0  0  0
 44 50  1  0  0  0  0
 45 51  1  0  0  0  0
 46 53  1  0  0  0  0
 47 54  1  0  0  0  0
 48 73  1  0  0  0  0
 49 54  1  0  0  0  0
 49 73  1  0  0  0  0
 50 79  1  0  0  0  0
 51 76  1  0  0  0  0
 52 72  1  0  0  0  0
 53 55  1  0  0  0  0
 53 66  1  0  0  0  0
 54 71  1  0  0  0  0
 55 64  1  0  0  0  0
 55 79  1  0  0  0  0
 57 65  1  0  0  0  0
 58 68  1  0  0  0  0
 59 69  1  0  0  0  0
 60 69  1  0  0  0  0
 61 69  1  0  0  0  0
 62 80  1  0  0  0  0
 63 87  1  0  0  0  0
 64 78  1  0  0  0  0
 65 66  1  0  0  0  0
 67 69  1  0  0  0  0
 67 77  1  0  0  0  0
 68 80  1  0  0  0  0
 70 71  1  0  0  0  0
M  CHG  2  79   1  80   1
M  ISO  4  38 100  63 101  78 100  87 101
M  END
> <Batch ID>
0135

> <Smiles>
CCC(c1ccc([101CH2:1][101O:1]c2ccc3c(c2)CN(C(=O)C(NC(=O)C(C)NC)C(C)(C)C)C(C(=O)NC2CCCc4ccccc42)C3)cc1C)C1CCCNC1C[100NH:0][100C:0](=O)N1CCCC(n2nc(-c3ccc(Oc4ccc(F)cc4F)cc3)c(C(N)=O)c2N)C1

> <Shape>
0.284

> <Color>
0.096

> <Negative vol penalty>
0.000

$$$$

  -OEChem-04052321003D

 87 96  0     1  0  0  0  0  0999 V2000
  -22.0220   -8.0837   21.1834 C   0  0  0  0  0  0  0  0  0  0  0  0
  -22.1215   -9.1915   22.0190 C   0  0  0  0  0  0  0  0  0  0  0  0
  -22.1958  -30.2648   19.9229 C   0  0  0  0  0  0  0  0  0  0  0  0
  -22.4851  -29.0987   22.0190 C   0  0  0  0  0  0  0  0  0  0  0  0
  -23.0916   -7.7348   20.3600 C   0  0  0  0  0  0  0  0  0  0  0  0
  -23.2913   -9.9504   22.0325 C   0  0  0  0  0  0  0  0  0  0  0  0
  -23.7421  -16.0059   22.8288 C   0  0  0  0  0  0  0  0  0  0  0  0
  -20.8249  -30.0122   19.9715 C   0  0  0  0  0  0  0  0  0  0  0  0
  -21.1142  -28.8461   22.0677 C   0  0  0  0  0  0  0  0  0  0  0  0
  -24.0425  -16.7854   23.9450 C   0  0  0  0  0  0  0  0  0  0  0  0
  -18.2999  -30.5316   22.8800 C   0  0  0  0  0  0  0  0  0  0  0  0
  -17.6464  -30.7425   24.0940 C   0  0  0  0  0  0  0  0  0  0  0  0
  -28.1691  -22.0079   24.0250 C   0  0  0  0  0  0  0  0  0  0  0  0
  -26.3486  -16.8890   23.2446 C   0  0  0  0  0  0  0  0  0  0  0  0
  -28.5052  -24.7742   24.1567 C   0  0  0  0  0  0  0  0  0  0  0  0
  -16.9858  -28.4190   24.1420 C   0  0  0  0  0  0  0  0  0  0  0  0
  -23.0260  -29.8080   20.9466 C   0  0  0  0  0  0  0  0  0  0  0  0
  -25.1209  -31.1832   21.4235 C   0  0  0  0  0  0  0  0  0  0  0  0
  -24.2715   -8.4954   20.3563 C   0  0  0  0  0  0  0  0  0  0  0  0
  -24.7466  -15.6524   21.9163 C   0  0  0  0  0  0  0  0  0  0  0  0
  -24.3782   -9.6105   21.2093 C   0  0  0  0  0  0  0  0  0  0  0  0
  -28.9747  -22.6578   23.0901 C   0  0  0  0  0  0  0  0  0  0  0  0
  -26.0578  -16.1070   22.1162 C   0  0  0  0  0  0  0  0  0  0  0  0
  -27.5314  -22.7411   25.0258 C   0  0  0  0  0  0  0  0  0  0  0  0
  -29.1428  -24.0409   23.1559 C   0  0  0  0  0  0  0  0  0  0  0  0
  -27.6995  -24.1242   25.0917 C   0  0  0  0  0  0  0  0  0  0  0  0
  -20.2841  -29.3029   21.0439 C   0  0  0  0  0  0  0  0  0  0  0  0
  -25.3464  -17.2246   24.1546 C   0  0  0  0  0  0  0  0  0  0  0  0
  -18.2964  -29.2644   22.2969 C   0  0  0  0  0  0  0  0  0  0  0  0
  -16.9893  -29.6862   24.7251 C   0  0  0  0  0  0  0  0  0  0  0  0
  -17.6393  -28.2081   22.9279 C   0  0  0  0  0  0  0  0  0  0  0  0
  -24.4423  -30.0681   20.8966 C   0  0  0  0  0  0  0  0  0  0  0  0
  -26.4408  -30.9582   21.1171 C   0  0  0  0  0  0  0  0  0  0  0  0
  -24.6044  -32.3208   22.1271 C   0  0  0  0  0  0  0  0  0  0  0  0
  -26.0162  -12.9107   20.9288 C   0  0  0  0  0  0  0  0  0  0  0  0
  -27.5915  -14.8392   18.8499 C   0  0  0  0  0  0  0  0  0  0  0  0
  -28.7786  -17.9540   18.1182 C   0  0  0  0  0  0  0  0  0  0  0  0
  -29.5859  -25.9773   20.0447 C   0  0  0  0  0  0  0  0  0  0  0  0
  -25.4186   -8.0515   19.4836 C   0  0  0  0  0  0  0  0  0  0  0  0
  -24.4010  -14.8333   20.7030 C   0  0  0  0  0  0  0  0  0  0  0  0
  -27.1684  -15.7720   21.1556 C   0  0  0  0  0  0  0  0  0  0  0  0
  -26.4829   -9.1273   19.2827 C   0  0  0  0  0  0  0  0  0  0  0  0
  -29.2159  -28.7826   17.8836 C   0  0  0  0  0  0  0  0  0  0  0  0
  -28.9783  -21.7144   20.6851 C   0  0  0  0  0  0  0  0  0  0  0  0
  -29.0409  -20.5399   21.6107 C   0  0  0  0  0  0  0  0  0  0  0  0
  -26.8406   -9.7796   20.6143 C   0  0  0  0  0  0  0  0  0  0  0  0
  -28.0118  -29.5307   18.4583 C   0  0  0  0  0  0  0  0  0  0  0  0
  -29.0484  -27.2692   18.0005 C   0  0  0  0  0  0  0  0  0  0  0  0
  -27.5435  -27.5308   19.9347 C   0  0  0  0  0  0  0  0  0  0  0  0
  -29.6467  -21.8538   22.0268 C   0  0  0  0  0  0  0  0  0  0  0  0
  -25.6213  -10.4731   21.2341 C   0  0  1  0  0  0  0  0  0  0  0  0
  -25.6034  -14.1030   20.1128 C   0  0  1  0  0  0  0  0  0  0  0  0
  -27.6911  -29.0614   19.8901 C   0  0  2  0  0  0  0  0  0  0  0  0
  -27.0278  -24.9303   26.1545 C   0  0  0  0  0  0  0  0  0  0  0  0
  -31.1755  -25.4970   22.8253 C   0  0  0  0  0  0  0  0  0  0  0  0
  -30.0576  -19.2128   16.3641 C   0  0  0  0  0  0  0  0  0  0  0  0
  -30.1867  -13.5752   19.8385 C   0  0  0  0  0  0  0  0  0  0  0  0
  -31.4310  -15.4793   18.7923 C   0  0  0  0  0  0  0  0  0  0  0  0
  -30.0800  -13.9412   17.3669 C   0  0  0  0  0  0  0  0  0  0  0  0
  -26.5033  -19.7742   17.6001 C   0  0  0  0  0  0  0  0  0  0  0  0
  -26.6701  -22.0204   26.0206 C   0  0  0  0  0  0  0  0  0  0  0  0
  -25.2233  -20.0281   26.4406 C   0  0  0  0  0  0  0  0  0  0  0  0
  -24.6077  -18.8286   25.7475 C   0  0  0  0  0  0  0  0  0  1  0  0
  -30.0011  -24.7602   22.1673 C   0  0  2  0  0  0  0  0  0  0  0  0
  -28.8989  -15.5936   18.8723 C   0  0  1  0  0  0  0  0  0  0  0  0
  -28.6811  -18.7995   16.8612 C   0  0  2  0  0  0  0  0  0  0  0  0
  -30.1288  -14.6522   18.7368 C   0  0  0  0  0  0  0  0  0  0  0  0
  -25.2632  -29.1992   20.3005 N   0  0  0  0  0  0  0  0  0  0  0  0
  -26.4712  -29.7685   20.4510 N   0  0  0  0  0  0  0  0  0  0  0  0
  -26.7817  -14.9634   19.9877 N   0  0  0  0  0  0  0  0  0  0  0  0
  -28.7476  -26.8899   19.3832 N   0  0  0  0  0  0  0  0  0  0  0  0
  -27.5666  -31.6640   21.3552 N   0  0  0  0  0  0  0  0  0  0  0  0
  -23.2239  -32.3937   22.3573 N   0  0  0  0  0  0  0  0  0  0  0  0
  -25.3726  -11.7392   20.5785 N   0  0  0  0  0  0  0  0  0  0  0  0
  -28.8036  -16.6065   17.8267 N   0  0  0  0  0  0  0  0  0  0  0  0
  -29.2330  -25.6770   21.3547 N   0  0  0  0  0  0  0  0  0  0  0  0
  -27.8875  -20.0327   17.1268 N   0  3  0  0  0  0  0  0  0  0  0  0
  -26.0346  -20.7962   25.4627 N   0  3  0  0  0  0  0  0  0  0  0  0
  -25.3433  -33.2531   22.5249 O   0  0  0  0  0  0  0  0  0  0  0  0
  -26.8574  -13.0435   21.8099 O   0  0  0  0  0  0  0  0  0  0  0  0
  -27.2963  -14.1702   17.8564 O   0  0  0  0  0  0  0  0  0  0  0  0
  -28.8314  -18.4403   19.2457 O   0  0  0  0  0  0  0  0  0  0  0  0
  -30.5784  -25.4720   19.5095 O   0  0  0  0  0  0  0  0  0  0  0  0
  -18.9463  -29.0565   21.0919 O   0  0  0  0  0  0  0  0  0  0  0  0
  -25.6425  -17.9850   25.2436 O   0  0  0  0  0  0  0  0  0  1  0  0
  -16.3631  -29.8885   25.8917 F   0  0  0  0  0  0  0  0  0  0  0  0
  -17.6335  -26.9883   22.3732 F   0  0  0  0  0  0  0  0  0  0  0  0
  1  2  1  0  0  0  0
  1  5  2  0  0  0  0
  2  6  2  0  0  0  0
  3  8  2  0  0  0  0
  3 17  1  0  0  0  0
  4  9  1  0  0  0  0
  4 17  2  0  0  0  0
  5 19  1  0  0  0  0
  6 21  1  0  0  0  0
  7 10  2  0  0  0  0
  7 20  1  0  0  0  0
  8 27  1  0  0  0  0
  9 27  2  0  0  0  0
 10 28  1  0  0  0  0
 11 12  2  0  0  0  0
 11 29  1  0  0  0  0
 12 30  1  0  0  0  0
 13 22  2  0  0  0  0
 13 24  1  0  0  0  0
 14 23  1  0  0  0  0
 14 28  2  0  0  0  0
 15 25  2  0  0  0  0
 15 26  1  0  0  0  0
 16 30  2  0  0  0  0
 16 31  1  0  0  0  0
 17 32  1  0  0  0  0
 18 32  1  0  0  0  0
 18 33  2  0  0  0  0
 18 34  1  0  0  0  0
 19 21  2  0  0  0  0
 19 39  1  0  0  0  0
 20 23  2  0  0  0  0
 20 40  1  0  0  0  0
 21 51  1  0  0  0  0
 22 25  1  0  0  0  0
 22 50  1  0  0  0  0
 23 41  1  0  0  0  0
 24 26  2  0  0  0  0
 24 61  1  0  0  0  0
 25 64  1  0  0  0  0
 26 54  1  0  0  0  0
 27 84  1  0  0  0  0
 28 85  1  0  0  0  0
 29 31  2  0  0  0  0
 29 84  1  0  0  0  0
 30 86  1  0  0  0  0
 31 87  1  0  0  0  0
 32 68  2  0  0  0  0
 33 69  1  0  0  0  0
 33 72  1  0  0  0  0
 34 73  1  0  0  0  0
 34 79  2  0  0  0  0
 35 52  1  0  0  0  0
 35 74  1  0  0  0  0
 35 80  2  0  0  0  0
 36 65  1  0  0  0  0
 36 70  1  0  0  0  0
 36 81  2  0  0  0  0
 37 66  1  0  0  0  0
 37 75  1  0  0  0  0
 37 82  2  0  0  0  0
 38 71  1  0  0  0  0
 38 76  1  0  0  0  0
 38 83  2  0  0  0  0
 39 42  1  0  0  0  0
 40 52  1  0  0  0  0
 41 70  1  0  0  0  0
 42 46  1  0  0  0  0
 43 47  1  0  0  0  0
 43 48  1  0  0  0  0
 44 45  1  0  0  0  0
 44 50  1  0  0  0  0
 45 50  1  0  0  0  0
 46 51  1  0  0  0  0
 47 53  1  0  0  0  0
 48 71  1  0  0  0  0
 49 53  1  0  0  0  0
 49 71  1  0  0  0  0
 51 74  1  0  0  0  0
 52 70  1  0  0  0  0
 53 69  1  0  0  0  0
 55 64  1  0  0  0  0
 56 66  1  0  0  0  0
 57 67  1  0  0  0  0
 58 67  1  0  0  0  0
 59 67  1  0  0  0  0
 60 77  1  0  0  0  0
 61 78  1  0  0  0  0
 62 63  1  0  0  0  0
 62 78  1  0  0  0  0
 63 85  1  0  0  0  0
 64 76  1  0  0  0  0
 65 67  1  0  0  0  0
 65 75  1  0  0  0  0
 66 77  1  0  0  0  0
 68 69  1  0  0  0  0
M  CHG  2  77   1  78   1
M  ISO  4  38 100  63 101  76 100  85 101
M  END
> <Batch ID>
0135

> <Smiles>
CNC(C)C(=O)NC(C(=O)N1Cc2cc([101O:1][101CH2:1]CNCc3cc(C4CC4)c(C(C)[100NH:0][100C:0](=O)N4CCCC(n5nc(-c6ccc(Oc7ccc(F)cc7F)cc6)c(C(N)=O)c5N)C4)cc3C)ccc2CC1C(=O)NC1CCCc2ccccc21)C(C)(C)C

> <Shape>
0.258

> <Color>
0.063

> <Negative vol penalty>
0.000

$$$$

  -OEChem-04052321003D

 83 91  0     1  0  0  0  0  0999 V2000
  -28.8752  -30.3482   27.3670 C   0  0  0  0  0  0  0  0  0  0  0  0
  -28.6777  -29.4801   26.2980 C   0  0  0  0  0  0  0  0  0  0  0  0
  -27.4720  -11.0556   20.6960 C   0  0  0  0  0  0  0  0  0  0  0  0
  -27.0948  -11.8899   18.4603 C   0  0  0  0  0  0  0  0  0  0  0  0
  -27.7993  -31.0648   27.8895 C   0  0  0  0  0  0  0  0  0  0  0  0
  -27.4040  -29.3272   25.7515 C   0  0  0  0  0  0  0  0  0  0  0  0
  -27.4426  -29.3846   20.6879 C   0  0  0  0  0  0  0  0  0  0  0  0
  -26.4766  -10.0971   20.5063 C   0  0  0  0  0  0  0  0  0  0  0  0
  -26.0994  -10.9313   18.2705 C   0  0  0  0  0  0  0  0  0  0  0  0
  -27.8521  -28.2194   20.0411 C   0  0  0  0  0  0  0  0  0  0  0  0
  -23.0992   -9.9724   20.5471 C   0  0  0  0  0  0  0  0  0  0  0  0
  -22.1765   -9.7849   21.5762 C   0  0  0  0  0  0  0  0  0  0  0  0
  -25.5451  -27.6339   19.6484 C   0  0  0  0  0  0  0  0  0  0  0  0
  -28.0286  -19.8944   16.6873 C   0  0  0  0  0  0  0  0  0  0  0  0
  -22.8613   -7.4761   21.7698 C   0  0  0  0  0  0  0  0  0  0  0  0
  -27.7811  -11.9521   19.6730 C   0  0  0  0  0  0  0  0  0  0  0  0
  -30.1818  -12.8104   19.5873 C   0  0  0  0  0  0  0  0  0  0  0  0
  -26.5136  -30.9279   27.3430 C   0  0  0  0  0  0  0  0  0  0  0  0
  -26.0787  -29.6783   20.8297 C   0  0  0  0  0  0  0  0  0  0  0  0
  -26.3097  -30.0416   26.2681 C   0  0  0  0  0  0  0  0  0  0  0  0
  -25.1210  -28.8047   20.2952 C   0  0  0  0  0  0  0  0  0  0  0  0
  -27.9360  -20.8579   15.6892 C   0  0  0  0  0  0  0  0  0  0  0  0
  -28.0199  -22.2055   16.0214 C   0  0  0  0  0  0  0  0  0  0  0  0
  -25.7903  -10.0349   19.2936 C   0  0  0  0  0  0  0  0  0  0  0  0
  -26.9033  -27.3424   19.5237 C   0  0  0  0  0  0  0  0  0  0  0  0
  -23.9030   -8.9116   20.1293 C   0  0  0  0  0  0  0  0  0  0  0  0
  -22.0575   -8.5368   22.1875 C   0  0  0  0  0  0  0  0  0  0  0  0
  -23.7840   -7.6635   20.7406 C   0  0  0  0  0  0  0  0  0  0  0  0
  -28.8088  -12.9428   19.8686 C   0  0  0  0  0  0  0  0  0  0  0  0
  -28.2036  -20.3270   17.9920 C   0  0  0  0  0  0  0  0  0  0  0  0
  -28.1950  -22.5346   17.3559 C   0  0  0  0  0  0  0  0  0  0  0  0
  -30.7241  -14.0202   19.9463 C   0  0  0  0  0  0  0  0  0  0  0  0
  -30.9025  -11.6937   19.0494 C   0  0  0  0  0  0  0  0  0  0  0  0
  -24.1133  -30.0707   23.2969 C   0  0  0  0  0  0  0  0  0  0  0  0
  -22.0021  -30.9095   20.9814 C   0  0  0  0  0  0  0  0  0  0  0  0
  -21.0620  -30.7082   17.7069 C   0  0  0  0  0  0  0  0  0  0  0  0
  -28.4721  -19.5387   20.3696 C   0  0  0  0  0  0  0  0  0  0  0  0
  -25.3727  -31.6877   27.9720 C   0  0  0  0  0  0  0  0  0  0  0  0
  -25.6539  -30.9525   21.5066 C   0  0  0  0  0  0  0  0  0  0  0  0
  -23.6449  -29.0841   20.4032 C   0  0  0  0  0  0  0  0  0  0  0  0
  -24.1256  -31.7512   27.0939 C   0  0  0  0  0  0  0  0  0  0  0  0
  -30.0508  -17.6784   22.9626 C   0  0  0  0  0  0  0  0  0  0  0  0
  -23.8054  -30.3742   26.5210 C   0  0  0  0  0  0  0  0  0  0  0  0
  -30.0419  -16.2418   22.4352 C   0  0  0  0  0  0  0  0  0  0  0  0
  -28.7809  -18.4333   22.5736 C   0  0  0  0  0  0  0  0  0  0  0  0
  -28.4533  -16.9782   20.6128 C   0  0  0  0  0  0  0  0  0  0  0  0
  -24.9476  -29.8673   25.6321 C   0  0  1  0  0  0  0  0  0  0  0  0
  -24.2281  -30.8958   22.0463 C   0  0  1  0  0  0  0  0  0  0  0  0
  -29.7410  -16.1980   20.9242 C   0  0  2  0  0  0  0  0  0  0  0  0
  -27.7467  -20.4231   14.2734 C   0  0  0  0  0  0  0  0  0  0  0  0
  -19.2715  -31.4679   16.1212 C   0  0  0  0  0  0  0  0  0  0  0  0
  -20.0965  -28.8266   22.1390 C   0  0  0  0  0  0  0  0  0  0  0  0
  -18.7797  -28.9517   20.0133 C   0  0  0  0  0  0  0  0  0  0  0  0
  -19.0076  -30.9725   21.4579 C   0  0  0  0  0  0  0  0  0  0  0  0
  -23.0071  -32.1850   16.0352 C   0  0  0  0  0  0  0  0  0  0  0  0
  -27.9240  -23.2651   14.9761 C   0  0  0  0  0  0  0  0  0  0  0  0
  -28.5283  -25.6178   19.3219 C   0  0  0  0  0  0  0  0  0  1  0  0
  -28.4614  -24.1176   19.1106 C   0  0  0  0  0  0  0  0  0  0  0  0
  -21.0016  -30.1687   20.1276 C   0  0  1  0  0  0  0  0  0  0  0  0
  -20.6384  -31.7747   16.7131 C   0  0  2  0  0  0  0  0  0  0  0  0
  -19.7490  -29.7234   20.9339 C   0  0  0  0  0  0  0  0  0  0  0  0
  -28.4981  -14.1420   20.3680 N   0  0  0  0  0  0  0  0  0  0  0  0
  -28.2895  -21.6268   18.3533 N   0  0  0  0  0  0  0  0  0  0  0  0
  -29.6835  -14.7742   20.4034 N   0  0  0  0  0  0  0  0  0  0  0  0
  -23.2794  -30.3397   21.0794 N   0  0  0  0  0  0  0  0  0  0  0  0
  -28.5625  -18.3522   21.1277 N   0  0  0  0  0  0  0  0  0  0  0  0
  -31.9847  -14.5018   19.9125 N   0  0  0  0  0  0  0  0  0  0  0  0
  -30.1909  -10.5279   18.7353 N   0  0  0  0  0  0  0  0  0  0  0  0
  -28.2966  -19.3365   19.0010 N   0  0  0  0  0  0  0  0  0  0  0  0
  -24.9062  -30.5141   24.3382 N   0  0  0  0  0  0  0  0  0  0  0  0
  -20.7050  -31.0410   18.9964 N   0  0  0  0  0  0  0  0  0  0  0  0
  -29.2417  -23.6418   14.3940 N   0  3  0  0  0  0  0  0  0  0  0  0
  -21.6237  -31.8648   15.5986 N   0  3  0  0  0  0  0  0  0  0  0  0
  -32.1435  -11.7230   18.8686 O   0  0  0  0  0  0  0  0  0  0  0  0
  -23.3601  -29.1043   23.3161 O   0  0  0  0  0  0  0  0  0  0  0  0
  -21.6650  -31.9590   21.5350 O   0  0  0  0  0  0  0  0  0  0  0  0
  -21.6475  -29.6807   17.3722 O   0  0  0  0  0  0  0  0  0  0  0  0
  -28.5721  -20.6518   20.8920 O   0  0  0  0  0  0  0  0  0  0  0  0
  -24.8191   -9.0995   19.1080 O   0  0  0  0  0  0  0  0  0  0  0  0
  -27.3002  -26.2041   18.8924 O   0  0  0  0  0  0  0  0  0  1  0  0
  -28.2819  -23.8512   17.7249 O   0  0  0  0  0  0  0  0  0  0  0  0
  -21.1724   -8.3574   23.1768 F   0  0  0  0  0  0  0  0  0  0  0  0
  -24.5543   -6.6411   20.3443 F   0  0  0  0  0  0  0  0  0  0  0  0
  1  2  1  0  0  0  0
  1  5  2  0  0  0  0
  2  6  2  0  0  0  0
  3  8  2  0  0  0  0
  3 16  1  0  0  0  0
  4  9  1  0  0  0  0
  4 16  2  0  0  0  0
  5 18  1  0  0  0  0
  6 20  1  0  0  0  0
  7 10  2  0  0  0  0
  7 19  1  0  0  0  0
  8 24  1  0  0  0  0
  9 24  2  0  0  0  0
 10 25  1  0  0  0  0
 11 12  2  0  0  0  0
 11 26  1  0  0  0  0
 12 27  1  0  0  0  0
 13 21  1  0  0  0  0
 13 25  2  0  0  0  0
 14 22  2  0  0  0  0
 14 30  1  0  0  0  0
 15 27  2  0  0  0  0
 15 28  1  0  0  0  0
 16 29  1  0  0  0  0
 17 29  1  0  0  0  0
 17 32  2  0  0  0  0
 17 33  1  0  0  0  0
 18 20  2  0  0  0  0
 18 38  1  0  0  0  0
 19 21  2  0  0  0  0
 19 39  1  0  0  0  0
 20 47  1  0  0  0  0
 21 40  1  0  0  0  0
 22 23  1  0  0  0  0
 22 50  1  0  0  0  0
 23 31  2  0  0  0  0
 23 56  1  0  0  0  0
 24 79  1  0  0  0  0
 25 80  1  0  0  0  0
 26 28  2  0  0  0  0
 26 79  1  0  0  0  0
 27 82  1  0  0  0  0
 28 83  1  0  0  0  0
 29 62  2  0  0  0  0
 30 63  2  0  0  0  0
 30 69  1  0  0  0  0
 31 63  1  0  0  0  0
 31 81  1  0  0  0  0
 32 64  1  0  0  0  0
 32 67  1  0  0  0  0
 33 68  1  0  0  0  0
 33 74  2  0  0  0  0
 34 48  1  0  0  0  0
 34 70  1  0  0  0  0
 34 75  2  0  0  0  0
 35 59  1  0  0  0  0
 35 65  1  0  0  0  0
 35 76  2  0  0  0  0
 36 60  1  0  0  0  0
 36 71  1  0  0  0  0
 36 77  2  0  0  0  0
 37 66  1  0  0  0  0
 37 69  1  0  0  0  0
 37 78  2  0  0  0  0
 38 41  1  0  0  0  0
 39 48  1  0  0  0  0
 40 65  1  0  0  0  0
 41 43  1  0  0  0  0
 42 44  1  0  0  0  0
 42 45  1  0  0  0  0
 43 47  1  0  0  0  0
 44 49  1  0  0  0  0
 45 66  1  0  0  0  0
 46 49  1  0  0  0  0
 46 66  1  0  0  0  0
 47 70  1  0  0  0  0
 48 65  1  0  0  0  0
 49 64  1  0  0  0  0
 51 60  1  0  0  0  0
 52 61  1  0  0  0  0
 53 61  1  0  0  0  0
 54 61  1  0  0  0  0
 55 73  1  0  0  0  0
 56 72  1  0  0  0  0
 57 58  1  0  0  0  0
 57 80  1  0  0  0  0
 58 81  1  0  0  0  0
 59 61  1  0  0  0  0
 59 71  1  0  0  0  0
 60 73  1  0  0  0  0
 62 64  1  0  0  0  0
M  CHG  2  72   1  73   1
M  ISO  4  37 100  57 101  69 100  80 101
M  END
> <Batch ID>
0135

> <Smiles>
CNC(C)C(=O)NC(C(=O)N1Cc2cc([101O:1][101CH2:1]COc3nc([100NH:0][100C:0](=O)N4CCCC(n5nc(-c6ccc(Oc7ccc(F)cc7F)cc6)c(C(N)=O)c5N)C4)cc(C)c3CN)ccc2CC1C(=O)NC1CCCc2ccccc21)C(C)(C)C

> <Shape>
0.275

> <Color>
0.094

> <Negative vol penalty>
0.000

$$$$

  -OEChem-04052321003D

 82 90  0     1  0  0  0  0  0999 V2000
  -18.6987  -27.3577   23.2505 C   0  0  0  0  0  0  0  0  0  0  0  0
  -19.1039  -26.3724   22.3559 C   0  0  0  0  0  0  0  0  0  0  0  0
  -31.1206  -16.5888   22.5698 C   0  0  0  0  0  0  0  0  0  0  0  0
  -31.0133  -15.8123   20.2845 C   0  0  0  0  0  0  0  0  0  0  0  0
  -19.4036  -28.5580   23.3300 C   0  0  0  0  0  0  0  0  0  0  0  0
  -20.2138  -26.5872   21.5395 C   0  0  0  0  0  0  0  0  0  0  0  0
  -23.3039  -22.5789   21.3676 C   0  0  0  0  0  0  0  0  0  0  0  0
  -32.3929  -16.0322   22.6992 C   0  0  0  0  0  0  0  0  0  0  0  0
  -32.2857  -15.2556   20.4139 C   0  0  0  0  0  0  0  0  0  0  0  0
  -22.9205  -21.5137   20.5538 C   0  0  0  0  0  0  0  0  0  0  0  0
  -35.3565  -13.3179   20.2541 C   0  0  0  0  0  0  0  0  0  0  0  0
  -35.5539  -12.0293   19.7580 C   0  0  0  0  0  0  0  0  0  0  0  0
  -24.4319  -22.2870   18.8400 C   0  0  0  0  0  0  0  0  0  0  0  0
  -33.8635  -11.1897   21.2661 C   0  0  0  0  0  0  0  0  0  0  0  0
  -30.4307  -16.4789   21.3624 C   0  0  0  0  0  0  0  0  0  0  0  0
  -28.7972  -18.3559   20.8004 C   0  0  0  0  0  0  0  0  0  0  0  0
  -20.5285  -28.7838   22.5211 C   0  0  0  0  0  0  0  0  0  0  0  0
  -24.2477  -23.5138   20.9186 C   0  0  0  0  0  0  0  0  0  0  0  0
  -20.9336  -27.7921   21.6074 C   0  0  0  0  0  0  0  0  0  0  0  0
  -24.8275  -23.3616   19.6510 C   0  0  0  0  0  0  0  0  0  0  0  0
  -32.9755  -15.3656   21.6213 C   0  0  0  0  0  0  0  0  0  0  0  0
  -23.4823  -21.3693   19.2886 C   0  0  0  0  0  0  0  0  0  0  0  0
  -34.4126  -13.5424   21.2563 C   0  0  0  0  0  0  0  0  0  0  0  0
  -34.8074  -10.9652   20.2640 C   0  0  0  0  0  0  0  0  0  0  0  0
  -33.6661  -12.4783   21.7623 C   0  0  0  0  0  0  0  0  0  0  0  0
  -29.1161  -17.0532   21.2282 C   0  0  0  0  0  0  0  0  0  0  0  0
  -27.4254  -18.4063   20.8467 C   0  0  0  0  0  0  0  0  0  0  0  0
  -29.6634  -19.4248   20.3969 C   0  0  0  0  0  0  0  0  0  0  0  0
  -24.2133  -26.6415   20.3532 C   0  0  0  0  0  0  0  0  0  0  0  0
  -27.3889  -26.1938   19.8658 C   0  0  0  0  0  0  0  0  0  0  0  0
  -29.9220  -24.0569   19.0510 C   0  0  0  0  0  0  0  0  0  0  0  0
  -23.1772  -14.1996   20.5197 C   0  0  0  0  0  0  0  0  0  0  0  0
  -21.2303  -30.1158   22.6090 C   0  0  0  0  0  0  0  0  0  0  0  0
  -24.6704  -24.6420   21.8191 C   0  0  0  0  0  0  0  0  0  0  0  0
  -25.8599  -24.3265   19.1302 C   0  0  0  0  0  0  0  0  0  0  0  0
  -22.6192  -30.1155   21.9755 C   0  0  0  0  0  0  0  0  0  0  0  0
  -23.6856  -16.5276   23.1651 C   0  0  0  0  0  0  0  0  0  0  0  0
  -22.5813  -29.4441   20.6063 C   0  0  0  0  0  0  0  0  0  0  0  0
  -25.1062  -17.0438   22.9301 C   0  0  0  0  0  0  0  0  0  0  0  0
  -22.1586  -19.6426   16.3750 C   0  0  0  0  0  0  0  0  0  0  0  0
  -23.5584  -15.0463   22.8162 C   0  0  0  0  0  0  0  0  0  0  0  0
  -25.4332  -15.2048   21.2243 C   0  0  0  0  0  0  0  0  0  0  0  0
  -24.5006  -20.0913   16.5525 C   0  0  0  0  0  0  0  0  0  0  0  0
  -22.1473  -27.9779   20.7227 C   0  0  1  0  0  0  0  0  0  0  0  0
  -25.2598  -25.8254   21.0578 C   0  0  1  0  0  0  0  0  0  0  0  0
  -25.5971  -16.7075   21.5091 C   0  0  2  0  0  0  0  0  0  0  0  0
  -23.1544  -20.5446   17.0864 C   0  0  2  0  0  0  0  0  0  1  0  0
  -22.8522  -18.2866   16.3844 C   0  0  1  0  0  0  0  0  0  0  0  0
  -32.2761  -23.2682   18.6854 C   0  0  0  0  0  0  0  0  0  0  0  0
  -23.0468  -11.8853   18.2278 C   0  0  0  0  0  0  0  0  0  0  0  0
  -27.0366  -27.5490   17.1549 C   0  0  0  0  0  0  0  0  0  0  0  0
  -29.2599  -26.6176   16.4784 C   0  0  0  0  0  0  0  0  0  0  0  0
  -29.1071  -28.2116   18.3911 C   0  0  0  0  0  0  0  0  0  0  0  0
  -30.2044  -23.2225   21.8764 C   0  0  0  0  0  0  0  0  0  0  0  0
  -22.4180  -17.3587   15.2677 C   0  0  0  0  0  0  0  0  0  0  0  0
  -23.1194  -16.0112   15.3619 C   0  0  0  0  0  0  0  0  0  0  0  0
  -23.3348  -13.9991   16.8261 C   0  0  0  0  0  0  0  0  0  0  0  0
  -28.2496  -25.8501   18.6742 C   0  0  1  0  0  0  0  0  0  0  0  0
  -31.2732  -23.8044   19.6952 C   0  0  2  0  0  0  0  0  0  0  0  0
  -22.9438  -13.4067   18.1796 C   0  0  2  0  0  0  0  0  0  0  0  0
  -28.3924  -27.0398   17.6834 C   0  0  0  0  0  0  0  0  0  0  0  0
  -28.0340  -16.3285   21.5248 N   0  0  0  0  0  0  0  0  0  0  0  0
  -27.0218  -17.1787   21.2829 N   0  0  0  0  0  0  0  0  0  0  0  0
  -26.2357  -25.4167   20.0455 N   0  0  0  0  0  0  0  0  0  0  0  0
  -24.0391  -14.7949   21.4554 N   0  0  0  0  0  0  0  0  0  0  0  0
  -26.5371  -19.3806   20.5566 N   0  0  0  0  0  0  0  0  0  0  0  0
  -31.0474  -19.2035   20.4079 N   0  0  0  0  0  0  0  0  0  0  0  0
  -23.2461  -27.1614   21.1921 N   0  0  0  0  0  0  0  0  0  0  0  0
  -29.5160  -25.3648   19.2118 N   0  0  0  0  0  0  0  0  0  0  0  0
  -23.7098  -14.0024   19.2515 N   0  0  0  0  0  0  0  0  0  0  0  0
  -24.3101  -18.6303   16.2363 N   0  3  0  0  0  0  0  0  0  0  0  0
  -31.1430  -22.8130   20.8002 N   0  3  0  0  0  0  0  0  0  0  0  0
  -22.7532  -15.3570   16.6411 N   0  3  0  0  0  0  0  0  0  0  0  0
  -29.2241  -20.5483   20.0531 O   0  0  0  0  0  0  0  0  0  0  0  0
  -24.2793  -26.7899   19.1386 O   0  0  0  0  0  0  0  0  0  0  0  0
  -27.7310  -27.1130   20.6139 O   0  0  0  0  0  0  0  0  0  0  0  0
  -29.2915  -23.1824   18.4608 O   0  0  0  0  0  0  0  0  0  0  0  0
  -22.0170  -13.8732   20.7925 O   0  0  0  0  0  0  0  0  0  0  0  0
  -34.2172  -14.8225   21.7472 O   0  0  0  0  0  0  0  0  0  0  0  0
  -23.1093  -20.3309   18.4920 O   0  0  0  0  0  0  0  0  0  1  0  0
  -34.9960   -9.7281   19.7864 F   0  0  0  0  0  0  0  0  0  0  0  0
  -32.7570  -12.6880   22.7242 F   0  0  0  0  0  0  0  0  0  0  0  0
  1  2  1  0  0  0  0
  1  5  2  0  0  0  0
  2  6  2  0  0  0  0
  3  8  2  0  0  0  0
  3 15  1  0  0  0  0
  4  9  1  0  0  0  0
  4 15  2  0  0  0  0
  5 17  1  0  0  0  0
  6 19  1  0  0  0  0
  7 10  2  0  0  0  0
  7 18  1  0  0  0  0
  8 21  1  0  0  0  0
  9 21  2  0  0  0  0
 10 22  1  0  0  0  0
 11 12  2  0  0  0  0
 11 23  1  0  0  0  0
 12 24  1  0  0  0  0
 13 20  1  0  0  0  0
 13 22  2  0  0  0  0
 14 24  2  0  0  0  0
 14 25  1  0  0  0  0
 15 26  1  0  0  0  0
 16 26  1  0  0  0  0
 16 27  2  0  0  0  0
 16 28  1  0  0  0  0
 17 19  2  0  0  0  0
 17 33  1  0  0  0  0
 18 20  2  0  0  0  0
 18 34  1  0  0  0  0
 19 44  1  0  0  0  0
 20 35  1  0  0  0  0
 21 79  1  0  0  0  0
 22 80  1  0  0  0  0
 23 25  2  0  0  0  0
 23 79  1  0  0  0  0
 24 81  1  0  0  0  0
 25 82  1  0  0  0  0
 26 62  2  0  0  0  0
 27 63  1  0  0  0  0
 27 66  1  0  0  0  0
 28 67  1  0  0  0  0
 28 74  2  0  0  0  0
 29 45  1  0  0  0  0
 29 68  1  0  0  0  0
 29 75  2  0  0  0  0
 30 58  1  0  0  0  0
 30 64  1  0  0  0  0
 30 76  2  0  0  0  0
 31 59  1  0  0  0  0
 31 69  1  0  0  0  0
 31 77  2  0  0  0  0
 32 65  1  0  0  0  0
 32 70  1  0  0  0  0
 32 78  2  0  0  0  0
 33 36  1  0  0  0  0
 34 45  1  0  0  0  0
 35 64  1  0  0  0  0
 36 38  1  0  0  0  0
 37 39  1  0  0  0  0
 37 41  1  0  0  0  0
 38 44  1  0  0  0  0
 39 46  1  0  0  0  0
 40 47  1  0  0  0  0
 40 48  1  0  0  0  0
 41 65  1  0  0  0  0
 42 46  1  0  0  0  0
 42 65  1  0  0  0  0
 43 47  1  0  0  0  0
 43 71  1  0  0  0  0
 44 68  1  0  0  0  0
 45 64  1  0  0  0  0
 46 63  1  0  0  0  0
 47 80  1  0  0  0  0
 48 55  1  0  0  0  0
 48 71  1  0  0  0  0
 49 59  1  0  0  0  0
 50 60  1  0  0  0  0
 51 61  1  0  0  0  0
 52 61  1  0  0  0  0
 53 61  1  0  0  0  0
 54 72  1  0  0  0  0
 55 56  1  0  0  0  0
 56 73  1  0  0  0  0
 57 60  1  0  0  0  0
 57 73  1  0  0  0  0
 58 61  1  0  0  0  0
 58 69  1  0  0  0  0
 59 72  1  0  0  0  0
 60 70  1  0  0  0  0
 62 63  1  0  0  0  0
M  CHG  3  71   1  72   1  73   1
M  ISO  4  32 100  47 101  70 100  80 101
M  END
> <Batch ID>
0135

> <Smiles>
CNC(C)C(=O)NC(C(=O)N1Cc2cc([101O:1][101CH:1]3CNC(CCNCC(C)[100NH:0][100C:0](=O)N4CCCC(n5nc(-c6ccc(Oc7ccc(F)cc7F)cc6)c(C(N)=O)c5N)C4)C3)ccc2CC1C(=O)NC1CCCc2ccccc21)C(C)(C)C

> <Shape>
0.182

> <Color>
0.063

> <Negative vol penalty>
0.000

$$$$

  -OEChem-04052321003D

 85 94  0     1  0  0  0  0  0999 V2000
  -28.6420  -33.3131   14.4803 C   0  0  0  0  0  0  0  0  0  0  0  0
  -28.7620  -31.9649   14.8017 C   0  0  0  0  0  0  0  0  0  0  0  0
  -22.9127  -10.1141   19.9201 C   0  0  0  0  0  0  0  0  0  0  0  0
  -23.8206   -9.7836   22.1345 C   0  0  0  0  0  0  0  0  0  0  0  0
  -28.1650  -34.2152   15.4303 C   0  0  0  0  0  0  0  0  0  0  0  0
  -28.4061  -31.5182   16.0739 C   0  0  0  0  0  0  0  0  0  0  0  0
  -25.8693  -26.1319   17.5084 C   0  0  0  0  0  0  0  0  0  0  0  0
  -22.1201   -8.9769   20.0752 C   0  0  0  0  0  0  0  0  0  0  0  0
  -23.0280   -8.6463   22.2897 C   0  0  0  0  0  0  0  0  0  0  0  0
  -26.4078  -24.9411   17.9940 C   0  0  0  0  0  0  0  0  0  0  0  0
  -23.0853   -5.4152   21.2960 C   0  0  0  0  0  0  0  0  0  0  0  0
  -23.6850   -4.2754   21.8315 C   0  0  0  0  0  0  0  0  0  0  0  0
  -27.6021  -19.4899   20.9767 C   0  0  0  0  0  0  0  0  0  0  0  0
  -25.8329  -25.6044   20.2410 C   0  0  0  0  0  0  0  0  0  0  0  0
  -22.1125   -4.3096   23.6654 C   0  0  0  0  0  0  0  0  0  0  0  0
  -29.7453  -20.0249   20.0952 C   0  0  0  0  0  0  0  0  0  0  0  0
  -23.7630  -10.5175   20.9497 C   0  0  0  0  0  0  0  0  0  0  0  0
  -24.2445  -13.0164   21.1263 C   0  0  0  0  0  0  0  0  0  0  0  0
  -27.7940  -33.7779   16.7116 C   0  0  0  0  0  0  0  0  0  0  0  0
  -25.3174  -27.0743   18.3880 C   0  0  0  0  0  0  0  0  0  0  0  0
  -27.9251  -32.4156   17.0423 C   0  0  0  0  0  0  0  0  0  0  0  0
  -27.0914  -20.6125   20.3347 C   0  0  0  0  0  0  0  0  0  0  0  0
  -25.2857  -26.8052   19.7638 C   0  0  0  0  0  0  0  0  0  0  0  0
  -28.9533  -19.1835   20.8598 C   0  0  0  0  0  0  0  0  0  0  0  0
  -22.1777   -8.2430   21.2600 C   0  0  0  0  0  0  0  0  0  0  0  0
  -26.3923  -24.6785   19.3607 C   0  0  0  0  0  0  0  0  0  0  0  0
  -21.9991   -6.0022   21.9452 C   0  0  0  0  0  0  0  0  0  0  0  0
  -23.1986   -3.7226   23.0161 C   0  0  0  0  0  0  0  0  0  0  0  0
  -21.5128   -5.4494   23.1298 C   0  0  0  0  0  0  0  0  0  0  0  0
  -24.5824  -11.6918   20.7898 C   0  0  0  0  0  0  0  0  0  0  0  0
  -27.9668  -21.3901   19.5938 C   0  0  0  0  0  0  0  0  0  0  0  0
  -25.3528  -13.7513   20.7825 C   0  0  0  0  0  0  0  0  0  0  0  0
  -23.0369  -13.5360   21.6984 C   0  0  0  0  0  0  0  0  0  0  0  0
  -25.9821  -30.0871   19.1532 C   0  0  0  0  0  0  0  0  0  0  0  0
  -23.2464  -29.8426   20.8791 C   0  0  0  0  0  0  0  0  0  0  0  0
  -21.0062  -27.8335   22.4890 C   0  0  0  0  0  0  0  0  0  0  0  0
  -30.8876  -14.4614   20.6994 C   0  0  0  0  0  0  0  0  0  0  0  0
  -27.3284  -34.7979   17.7203 C   0  0  0  0  0  0  0  0  0  0  0  0
  -24.7164  -28.3421   17.8458 C   0  0  0  0  0  0  0  0  0  0  0  0
  -24.6865  -27.7752   20.7479 C   0  0  0  0  0  0  0  0  0  0  0  0
  -26.6191  -34.1838   18.9245 C   0  0  0  0  0  0  0  0  0  0  0  0
  -29.4571  -12.4689   18.1186 C   0  0  0  0  0  0  0  0  0  0  0  0
  -27.4094  -32.9941   19.4600 C   0  0  0  0  0  0  0  0  0  0  0  0
  -28.0364  -12.1935   18.6142 C   0  0  0  0  0  0  0  0  0  0  0  0
  -24.5381  -19.9282   20.9676 C   0  0  0  0  0  0  0  0  0  0  0  0
  -30.4625  -12.4849   19.2679 C   0  0  0  0  0  0  0  0  0  0  0  0
  -28.7023  -13.1228   20.8706 C   0  0  0  0  0  0  0  0  0  0  0  0
  -23.6441  -20.4242   19.8267 C   0  0  0  0  0  0  0  0  0  0  0  0
  -27.5258  -31.8887   18.4036 C   0  0  1  0  0  0  0  0  0  0  0  0
  -25.5604  -20.9689   20.4614 C   0  0  2  0  0  0  0  0  0  0  0  0
  -24.6440  -29.4597   18.8817 C   0  0  1  0  0  0  0  0  0  0  0  0
  -27.6444  -13.1525   19.7543 C   0  0  2  0  0  0  0  0  0  0  0  0
  -18.8925  -27.9255   23.8384 C   0  0  0  0  0  0  0  0  0  0  0  0
  -24.8374  -30.7961   23.3018 C   0  0  0  0  0  0  0  0  0  0  0  0
  -22.9778  -29.9704   24.7606 C   0  0  0  0  0  0  0  0  0  0  0  0
  -22.5486  -31.7839   23.1023 C   0  0  0  0  0  0  0  0  0  0  0  0
  -19.5270  -26.2203   20.4969 C   0  0  0  0  0  0  0  0  0  0  0  0
  -27.4689  -22.6129   18.8809 C   0  0  0  0  0  0  0  0  0  1  0  0
  -30.8830  -17.6993   21.4066 C   0  0  0  0  0  0  0  0  0  0  0  0
  -31.1612  -16.4261   22.1909 C   0  0  0  0  0  0  0  0  0  0  0  0
  -22.9048  -29.4175   22.2867 C   0  0  1  0  0  0  0  0  0  0  0  0
  -19.4897  -27.7801   22.4474 C   0  0  2  0  0  0  0  0  0  0  0  0
  -23.3302  -30.4744   23.3447 C   0  0  0  0  0  0  0  0  0  0  0  0
  -29.2852  -21.1242   19.4569 N   0  0  0  0  0  0  0  0  0  0  0  0
  -25.8092  -11.5883   20.2719 N   0  0  0  0  0  0  0  0  0  0  0  0
  -26.2519  -12.8571   20.2803 N   0  0  0  0  0  0  0  0  0  0  0  0
  -24.1171  -29.0035   20.1695 N   0  0  0  0  0  0  0  0  0  0  0  0
  -30.0329  -13.4152   20.3148 N   0  0  0  0  0  0  0  0  0  0  0  0
  -25.6361  -15.0687   20.8638 N   0  0  0  0  0  0  0  0  0  0  0  0
  -21.9975  -12.6423   21.9904 N   0  0  0  0  0  0  0  0  0  0  0  0
  -29.4978  -18.0567   21.4970 N   0  0  0  0  0  0  0  0  0  0  0  0
  -26.2893  -31.1419   18.3151 N   0  0  0  0  0  0  0  0  0  0  0  0
  -21.4780  -29.1132   22.2863 N   0  0  0  0  0  0  0  0  0  0  0  0
  -30.4008  -15.3012   21.6937 N   0  0  0  0  0  0  0  0  0  0  0  0
  -24.8616  -20.8990   19.1506 N   0  3  0  0  0  0  0  0  0  0  0  0
  -19.0326  -26.4831   21.8729 N   0  3  0  0  0  0  0  0  0  0  0  0
  -22.8779  -14.7588   21.9284 O   0  0  0  0  0  0  0  0  0  0  0  0
  -26.6831  -29.6476   20.0571 O   0  0  0  0  0  0  0  0  0  0  0  0
  -22.7530  -30.8773   20.4233 O   0  0  0  0  0  0  0  0  0  0  0  0
  -21.7026  -26.8400   22.6856 O   0  0  0  0  0  0  0  0  0  0  0  0
  -31.9997  -14.6376   20.1903 O   0  0  0  0  0  0  0  0  0  0  0  0
  -21.4043   -7.1333   21.4118 O   0  0  0  0  0  0  0  0  0  0  0  0
  -26.9178  -23.5173   19.8374 O   0  0  0  0  0  0  0  0  0  1  0  0
  -23.7737   -2.6271   23.5294 F   0  0  0  0  0  0  0  0  0  0  0  0
  -20.4689   -6.0082   23.7574 F   0  0  0  0  0  0  0  0  0  0  0  0
  1  2  1  0  0  0  0
  1  5  2  0  0  0  0
  2  6  2  0  0  0  0
  3  8  2  0  0  0  0
  3 17  1  0  0  0  0
  4  9  1  0  0  0  0
  4 17  2  0  0  0  0
  5 19  1  0  0  0  0
  6 21  1  0  0  0  0
  7 10  2  0  0  0  0
  7 20  1  0  0  0  0
  8 25  1  0  0  0  0
  9 25  2  0  0  0  0
 10 26  1  0  0  0  0
 11 12  2  0  0  0  0
 11 27  1  0  0  0  0
 12 28  1  0  0  0  0
 13 22  1  0  0  0  0
 13 24  2  0  0  0  0
 14 23  1  0  0  0  0
 14 26  2  0  0  0  0
 15 28  2  0  0  0  0
 15 29  1  0  0  0  0
 16 24  1  0  0  0  0
 16 64  2  0  0  0  0
 17 30  1  0  0  0  0
 18 30  1  0  0  0  0
 18 32  2  0  0  0  0
 18 33  1  0  0  0  0
 19 21  2  0  0  0  0
 19 38  1  0  0  0  0
 20 23  2  0  0  0  0
 20 39  1  0  0  0  0
 21 49  1  0  0  0  0
 22 31  2  0  0  0  0
 22 50  1  0  0  0  0
 23 40  1  0  0  0  0
 24 71  1  0  0  0  0
 25 82  1  0  0  0  0
 26 83  1  0  0  0  0
 27 29  2  0  0  0  0
 27 82  1  0  0  0  0
 28 84  1  0  0  0  0
 29 85  1  0  0  0  0
 30 65  2  0  0  0  0
 31 58  1  0  0  0  0
 31 64  1  0  0  0  0
 32 66  1  0  0  0  0
 32 69  1  0  0  0  0
 33 70  1  0  0  0  0
 33 77  2  0  0  0  0
 34 51  1  0  0  0  0
 34 72  1  0  0  0  0
 34 78  2  0  0  0  0
 35 61  1  0  0  0  0
 35 67  1  0  0  0  0
 35 79  2  0  0  0  0
 36 62  1  0  0  0  0
 36 73  1  0  0  0  0
 36 80  2  0  0  0  0
 37 68  1  0  0  0  0
 37 74  1  0  0  0  0
 37 81  2  0  0  0  0
 38 41  1  0  0  0  0
 39 51  1  0  0  0  0
 40 67  1  0  0  0  0
 41 43  1  0  0  0  0
 42 44  1  0  0  0  0
 42 46  1  0  0  0  0
 43 49  1  0  0  0  0
 44 52  1  0  0  0  0
 45 48  1  0  0  0  0
 45 50  1  0  0  0  0
 46 68  1  0  0  0  0
 47 52  1  0  0  0  0
 47 68  1  0  0  0  0
 48 75  1  0  0  0  0
 49 72  1  0  0  0  0
 50 75  1  0  0  0  0
 51 67  1  0  0  0  0
 52 66  1  0  0  0  0
 53 62  1  0  0  0  0
 54 63  1  0  0  0  0
 55 63  1  0  0  0  0
 56 63  1  0  0  0  0
 57 76  1  0  0  0  0
 58 83  1  0  0  0  0
 59 60  1  0  0  0  0
 59 71  1  0  0  0  0
 60 74  1  0  0  0  0
 61 63  1  0  0  0  0
 61 73  1  0  0  0  0
 62 76  1  0  0  0  0
 65 66  1  0  0  0  0
M  CHG  2  75   1  76   1
M  ISO  4  37 100  58 101  74 100  83 101
M  END
> <Batch ID>
0135

> <Smiles>
CNC(C)C(=O)NC(C(=O)N1Cc2cc([101O:1][101CH2:1]c3ncc(NCC[100NH:0][100C:0](=O)N4CCCC(n5nc(-c6ccc(Oc7ccc(F)cc7F)cc6)c(C(N)=O)c5N)C4)cc3C3CCN3)ccc2CC1C(=O)NC1CCCc2ccccc21)C(C)(C)C

> <Shape>
0.351

> <Color>
0.202

> <Negative vol penalty>
0.000

$$$$

  -OEChem-04052321003D

 84 92  0     1  0  0  0  0  0999 V2000
  -22.3490   -8.2415   20.6426 C   0  0  0  0  0  0  0  0  0  0  0  0
  -21.7716   -9.4791   20.9084 C   0  0  0  0  0  0  0  0  0  0  0  0
  -29.2911  -26.8416   20.3062 C   0  0  0  0  0  0  0  0  0  0  0  0
  -27.4452  -25.3986   19.7167 C   0  0  0  0  0  0  0  0  0  0  0  0
  -23.6919   -8.0206   20.9454 C   0  0  0  0  0  0  0  0  0  0  0  0
  -22.5367  -10.4961   21.4782 C   0  0  0  0  0  0  0  0  0  0  0  0
  -22.0672  -16.5050   20.3922 C   0  0  0  0  0  0  0  0  0  0  0  0
  -21.4339  -26.2099   24.3907 C   0  0  0  0  0  0  0  0  0  0  0  0
  -30.1009  -25.7238   20.5069 C   0  0  0  0  0  0  0  0  0  0  0  0
  -28.2550  -24.2808   19.9174 C   0  0  0  0  0  0  0  0  0  0  0  0
  -21.4333  -17.5364   21.0836 C   0  0  0  0  0  0  0  0  0  0  0  0
  -32.7565  -23.2618   20.8249 C   0  0  0  0  0  0  0  0  0  0  0  0
  -34.0465  -23.2919   20.2952 C   0  0  0  0  0  0  0  0  0  0  0  0
  -22.1044  -24.9938   24.3217 C   0  0  0  0  0  0  0  0  0  0  0  0
  -23.5169  -18.0803   22.1707 C   0  0  0  0  0  0  0  0  0  0  0  0
  -33.1291  -23.5619   18.0765 C   0  0  0  0  0  0  0  0  0  0  0  0
  -27.9632  -26.6791   19.9111 C   0  0  0  0  0  0  0  0  0  0  0  0
  -26.9479  -28.5505   18.5059 C   0  0  0  0  0  0  0  0  0  0  0  0
  -24.4763   -9.0386   21.5103 C   0  0  0  0  0  0  0  0  0  0  0  0
  -23.4306  -16.2461   20.5934 C   0  0  0  0  0  0  0  0  0  0  0  0
  -23.8910  -10.2882   21.7901 C   0  0  0  0  0  0  0  0  0  0  0  0
  -24.1664  -17.0466   21.4787 C   0  0  0  0  0  0  0  0  0  0  0  0
  -20.3083  -26.4225   23.6027 C   0  0  0  0  0  0  0  0  0  0  0  0
  -29.5828  -24.4434   20.3125 C   0  0  0  0  0  0  0  0  0  0  0  0
  -22.1574  -18.3224   21.9752 C   0  0  0  0  0  0  0  0  0  0  0  0
  -31.6528  -23.3816   19.9805 C   0  0  0  0  0  0  0  0  0  0  0  0
  -34.2328  -23.4420   18.9210 C   0  0  0  0  0  0  0  0  0  0  0  0
  -31.8391  -23.5317   18.6063 C   0  0  0  0  0  0  0  0  0  0  0  0
  -27.1261  -27.8334   19.7041 C   0  0  0  0  0  0  0  0  0  0  0  0
  -19.8970  -25.3953   22.7687 C   0  0  0  0  0  0  0  0  0  0  0  0
  -21.6126  -24.0304   23.4557 C   0  0  0  0  0  0  0  0  0  0  0  0
  -26.0625  -29.5487   18.8315 C   0  0  0  0  0  0  0  0  0  0  0  0
  -27.5307  -28.3336   17.2139 C   0  0  0  0  0  0  0  0  0  0  0  0
  -25.1078  -13.7755   21.6830 C   0  0  0  0  0  0  0  0  0  0  0  0
  -27.6377  -15.5974   20.7872 C   0  0  0  0  0  0  0  0  0  0  0  0
  -28.8814  -18.7076   20.1339 C   0  0  0  0  0  0  0  0  0  0  0  0
  -21.8810  -30.0620   23.0862 C   0  0  0  0  0  0  0  0  0  0  0  0
  -25.9113   -8.7377   21.8639 C   0  0  0  0  0  0  0  0  0  0  0  0
  -24.1058  -15.1469   19.8198 C   0  0  0  0  0  0  0  0  0  0  0  0
  -25.6369  -16.8227   21.7151 C   0  0  0  0  0  0  0  0  0  0  0  0
  -26.7502   -9.9870   22.1204 C   0  0  0  0  0  0  0  0  0  0  0  0
  -24.6437  -32.2370   22.5262 C   0  0  0  0  0  0  0  0  0  0  0  0
  -26.0025  -10.9541   23.0327 C   0  0  0  0  0  0  0  0  0  0  0  0
  -25.5771  -31.4198   21.6313 C   0  0  0  0  0  0  0  0  0  0  0  0
  -23.9384  -31.3588   23.5573 C   0  0  0  0  0  0  0  0  0  0  0  0
  -24.1534  -29.3823   22.1009 C   0  0  0  0  0  0  0  0  0  0  0  0
  -24.6946  -11.4244   22.3847 C   0  0  1  0  0  0  0  0  0  0  0  0
  -25.3818  -14.6432   20.4873 C   0  0  1  0  0  0  0  0  0  0  0  0
  -24.8449  -30.2159   21.0086 C   0  0  2  0  0  0  0  0  0  0  0  0
  -30.9937  -19.8830   19.4603 C   0  0  0  0  0  0  0  0  0  0  0  0
  -28.7319  -15.2457   23.6137 C   0  0  0  0  0  0  0  0  0  0  0  0
  -30.2834  -17.1614   23.1765 C   0  0  0  0  0  0  0  0  0  0  0  0
  -30.4493  -15.0859   21.8028 C   0  0  0  0  0  0  0  0  0  0  0  0
  -18.2432  -24.6179   21.0698 C   0  0  0  0  0  0  0  0  0  0  0  0
  -27.6446  -19.7587   17.6591 C   0  0  0  0  0  0  0  0  0  0  0  0
  -19.5926  -27.7281   23.6791 C   0  0  0  0  0  0  0  0  0  0  0  0
  -19.9077  -28.6711   22.5114 C   0  0  0  0  0  0  0  0  0  0  0  0
  -22.3383  -20.4597   23.0023 C   0  0  0  0  0  0  0  0  0  1  0  0
  -21.4571  -21.6931   23.0456 C   0  0  0  0  0  0  0  0  0  0  0  0
  -28.4905  -16.6467   21.4585 C   0  0  1  0  0  0  0  0  0  0  0  0
  -29.7037  -19.2405   18.9745 C   0  0  2  0  0  0  0  0  0  0  0  0
  -29.4607  -16.0382   22.5101 C   0  0  0  0  0  0  0  0  0  0  0  0
  -26.4114  -28.3337   20.7155 N   0  0  0  0  0  0  0  0  0  0  0  0
  -20.5224  -24.2005   22.6746 N   0  0  0  0  0  0  0  0  0  0  0  0
  -25.7756  -29.3758   20.1536 N   0  0  0  0  0  0  0  0  0  0  0  0
  -26.2505  -15.7318   20.9398 N   0  0  0  0  0  0  0  0  0  0  0  0
  -23.2625  -30.2367   22.9017 N   0  0  0  0  0  0  0  0  0  0  0  0
  -25.5093  -30.5488   18.1130 N   0  0  0  0  0  0  0  0  0  0  0  0
  -28.4202  -27.2624   17.0535 N   0  0  0  0  0  0  0  0  0  0  0  0
  -18.7501  -25.6075   21.9635 N   0  0  0  0  0  0  0  0  0  0  0  0
  -24.9614  -12.4345   21.3832 N   0  0  0  0  0  0  0  0  0  0  0  0
  -29.1549  -17.3799   20.3864 N   0  0  0  0  0  0  0  0  0  0  0  0
  -21.3180  -28.9778   22.4243 N   0  0  0  0  0  0  0  0  0  0  0  0
  -28.9275  -20.2610   18.2148 N   0  3  0  0  0  0  0  0  0  0  0  0
  -27.2829  -29.0777   16.2350 O   0  0  0  0  0  0  0  0  0  0  0  0
  -25.0360  -14.2846   22.7953 O   0  0  0  0  0  0  0  0  0  0  0  0
  -28.1821  -14.6959   20.1449 O   0  0  0  0  0  0  0  0  0  0  0  0
  -28.0795  -19.4008   20.7560 O   0  0  0  0  0  0  0  0  0  0  0  0
  -21.1988  -30.8196   23.7845 O   0  0  0  0  0  0  0  0  0  0  0  0
  -30.3728  -23.3523   20.5080 O   0  0  0  0  0  0  0  0  0  0  0  0
  -21.5410  -19.3293   22.6518 O   0  0  0  0  0  0  0  0  0  1  0  0
  -22.2565  -22.8242   23.3694 O   0  0  0  0  0  0  0  0  0  0  0  0
  -35.4717  -23.4725   18.4126 F   0  0  0  0  0  0  0  0  0  0  0  0
  -30.7826  -23.6485   17.7901 F   0  0  0  0  0  0  0  0  0  0  0  0
  1  2  1  0  0  0  0
  1  5  2  0  0  0  0
  2  6  2  0  0  0  0
  3  9  2  0  0  0  0
  3 17  1  0  0  0  0
  4 10  1  0  0  0  0
  4 17  2  0  0  0  0
  5 19  1  0  0  0  0
  6 21  1  0  0  0  0
  7 11  2  0  0  0  0
  7 20  1  0  0  0  0
  8 14  2  0  0  0  0
  8 23  1  0  0  0  0
  9 24  1  0  0  0  0
 10 24  2  0  0  0  0
 11 25  1  0  0  0  0
 12 13  2  0  0  0  0
 12 26  1  0  0  0  0
 13 27  1  0  0  0  0
 14 31  1  0  0  0  0
 15 22  1  0  0  0  0
 15 25  2  0  0  0  0
 16 27  2  0  0  0  0
 16 28  1  0  0  0  0
 17 29  1  0  0  0  0
 18 29  1  0  0  0  0
 18 32  2  0  0  0  0
 18 33  1  0  0  0  0
 19 21  2  0  0  0  0
 19 38  1  0  0  0  0
 20 22  2  0  0  0  0
 20 39  1  0  0  0  0
 21 47  1  0  0  0  0
 22 40  1  0  0  0  0
 23 30  2  0  0  0  0
 23 56  1  0  0  0  0
 24 80  1  0  0  0  0
 25 81  1  0  0  0  0
 26 28  2  0  0  0  0
 26 80  1  0  0  0  0
 27 83  1  0  0  0  0
 28 84  1  0  0  0  0
 29 63  2  0  0  0  0
 30 64  1  0  0  0  0
 30 70  1  0  0  0  0
 31 64  2  0  0  0  0
 31 82  1  0  0  0  0
 32 65  1  0  0  0  0
 32 68  1  0  0  0  0
 33 69  1  0  0  0  0
 33 75  2  0  0  0  0
 34 48  1  0  0  0  0
 34 71  1  0  0  0  0
 34 76  2  0  0  0  0
 35 60  1  0  0  0  0
 35 66  1  0  0  0  0
 35 77  2  0  0  0  0
 36 61  1  0  0  0  0
 36 72  1  0  0  0  0
 36 78  2  0  0  0  0
 37 67  1  0  0  0  0
 37 73  1  0  0  0  0
 37 79  2  0  0  0  0
 38 41  1  0  0  0  0
 39 48  1  0  0  0  0
 40 66  1  0  0  0  0
 41 43  1  0  0  0  0
 42 44  1  0  0  0  0
 42 45  1  0  0  0  0
 43 47  1  0  0  0  0
 44 49  1  0  0  0  0
 45 67  1  0  0  0  0
 46 49  1  0  0  0  0
 46 67  1  0  0  0  0
 47 71  1  0  0  0  0
 48 66  1  0  0  0  0
 49 65  1  0  0  0  0
 50 61  1  0  0  0  0
 51 62  1  0  0  0  0
 52 62  1  0  0  0  0
 53 62  1  0  0  0  0
 54 70  1  0  0  0  0
 55 74  1  0  0  0  0
 56 57  1  0  0  0  0
 57 73  1  0  0  0  0
 58 59  1  0  0  0  0
 58 81  1  0  0  0  0
 59 82  1  0  0  0  0
 60 62  1  0  0  0  0
 60 72  1  0  0  0  0
 61 74  1  0  0  0  0
 63 65  1  0  0  0  0
M  CHG  1  74   1
M  ISO  4  37 100  58 101  73 100  81 101
M  END
> <Batch ID>
0135

> <Smiles>
CNc1nc(OC[101CH2:1][101O:1]c2ccc3c(c2)CN(C(=O)C(NC(=O)C(C)NC)C(C)(C)C)C(C(=O)NC2CCCc4ccccc42)C3)ccc1CC[100NH:0][100C:0](=O)N1CCCC(n2nc(-c3ccc(Oc4ccc(F)cc4F)cc3)c(C(N)=O)c2N)C1

> <Shape>
0.258

> <Color>
0.046

> <Negative vol penalty>
0.000

$$$$

  -OEChem-04052321003D

 90 99  0     1  0  0  0  0  0999 V2000
  -25.8008  -32.8823   21.9443 C   0  0  0  0  0  0  0  0  0  0  0  0
  -25.9176  -31.4960   21.9416 C   0  0  0  0  0  0  0  0  0  0  0  0
  -31.2422  -19.0701   17.1219 C   0  0  0  0  0  0  0  0  0  0  0  0
  -30.6588  -20.1367   17.8057 C   0  0  0  0  0  0  0  0  0  0  0  0
  -23.1047   -9.8094   19.8929 C   0  0  0  0  0  0  0  0  0  0  0  0
  -23.9050   -9.7413   22.1715 C   0  0  0  0  0  0  0  0  0  0  0  0
  -24.6223  -33.4806   22.3883 C   0  0  0  0  0  0  0  0  0  0  0  0
  -24.8562  -30.7072   22.3840 C   0  0  0  0  0  0  0  0  0  0  0  0
  -23.9525  -26.7737   19.3252 C   0  0  0  0  0  0  0  0  0  0  0  0
  -30.5348  -17.8800   16.9519 C   0  0  0  0  0  0  0  0  0  0  0  0
  -29.3680  -20.0131   18.3196 C   0  0  0  0  0  0  0  0  0  0  0  0
  -26.5851  -21.1090   22.2029 C   0  0  0  0  0  0  0  0  0  0  0  0
  -27.5710  -20.1226   22.2253 C   0  0  0  0  0  0  0  0  0  0  0  0
  -22.4041   -8.6218   20.1035 C   0  0  0  0  0  0  0  0  0  0  0  0
  -23.2044   -8.5537   22.3821 C   0  0  0  0  0  0  0  0  0  0  0  0
  -24.8042  -25.6751   19.4322 C   0  0  0  0  0  0  0  0  0  0  0  0
  -23.5952   -5.2712   21.6726 C   0  0  0  0  0  0  0  0  0  0  0  0
  -24.2572   -4.2368   22.3339 C   0  0  0  0  0  0  0  0  0  0  0  0
  -23.1555  -24.5355   20.7748 C   0  0  0  0  0  0  0  0  0  0  0  0
  -26.0529  -20.5253   19.9197 C   0  0  0  0  0  0  0  0  0  0  0  0
  -22.5819   -4.2774   24.0743 C   0  0  0  0  0  0  0  0  0  0  0  0
  -23.8552  -10.3692   20.9269 C   0  0  0  0  0  0  0  0  0  0  0  0
  -24.1109  -12.9073   20.9139 C   0  0  0  0  0  0  0  0  0  0  0  0
  -23.5424  -32.6984   22.8272 C   0  0  0  0  0  0  0  0  0  0  0  0
  -22.6983  -26.7658   19.9523 C   0  0  0  0  0  0  0  0  0  0  0  0
  -23.6627  -31.2956   22.8355 C   0  0  0  0  0  0  0  0  0  0  0  0
  -22.2888  -25.6343   20.6721 C   0  0  0  0  0  0  0  0  0  0  0  0
  -25.8260  -21.3103   21.0501 C   0  0  0  0  0  0  0  0  0  0  0  0
  -29.2440  -17.7564   17.4658 C   0  0  0  0  0  0  0  0  0  0  0  0
  -28.6605  -18.8230   18.1497 C   0  0  0  0  0  0  0  0  0  0  0  0
  -27.0389  -19.5389   19.9421 C   0  0  0  0  0  0  0  0  0  0  0  0
  -27.7979  -19.3375   21.0949 C   0  0  0  0  0  0  0  0  0  0  0  0
  -22.4539   -7.9940   21.3481 C   0  0  0  0  0  0  0  0  0  0  0  0
  -24.4069  -24.5569   20.1595 C   0  0  0  0  0  0  0  0  0  0  0  0
  -22.4266   -5.8088   22.2121 C   0  0  0  0  0  0  0  0  0  0  0  0
  -23.7505   -3.7399   23.5348 C   0  0  0  0  0  0  0  0  0  0  0  0
  -21.9199   -5.3119   23.4130 C   0  0  0  0  0  0  0  0  0  0  0  0
  -24.5796  -11.5956   20.7099 C   0  0  0  0  0  0  0  0  0  0  0  0
  -25.1709  -13.7086   20.5664 C   0  0  0  0  0  0  0  0  0  0  0  0
  -22.8317  -13.3608   21.3763 C   0  0  0  0  0  0  0  0  0  0  0  0
  -21.3117  -28.5130   22.2169 C   0  0  0  0  0  0  0  0  0  0  0  0
  -18.7094  -26.7343   21.4509 C   0  0  0  0  0  0  0  0  0  0  0  0
  -17.4612  -23.8466   20.1280 C   0  0  0  0  0  0  0  0  0  0  0  0
  -30.6203  -14.9039   20.7096 C   0  0  0  0  0  0  0  0  0  0  0  0
  -22.3061  -33.3917   23.3425 C   0  0  0  0  0  0  0  0  0  0  0  0
  -21.7804  -27.9482   19.8050 C   0  0  0  0  0  0  0  0  0  0  0  0
  -20.9441  -25.5677   21.3472 C   0  0  0  0  0  0  0  0  0  0  0  0
  -21.0902  -32.4741   23.4426 C   0  0  0  0  0  0  0  0  0  0  0  0
  -29.5198  -12.5894   18.2381 C   0  0  0  0  0  0  0  0  0  0  0  0
  -21.4702  -31.1551   24.1080 C   0  0  0  0  0  0  0  0  0  0  0  0
  -28.1008  -12.2283   18.6811 C   0  0  0  0  0  0  0  0  0  0  0  0
  -30.4505  -12.7882   19.4323 C   0  0  0  0  0  0  0  0  0  0  0  0
  -28.5507  -13.3927   20.8813 C   0  0  0  0  0  0  0  0  0  0  0  0
  -22.5243  -30.4053   23.2844 C   0  0  1  0  0  0  0  0  0  0  0  0
  -20.7360  -28.0357   20.9137 C   0  0  1  0  0  0  0  0  0  0  0  0
  -27.5619  -13.2371   19.7132 C   0  0  2  0  0  0  0  0  0  0  0  0
  -28.5050  -16.4732   17.2708 C   0  0  0  0  0  0  0  0  0  0  0  0
  -15.2956  -22.6630   19.6732 C   0  0  0  0  0  0  0  0  0  0  0  0
  -31.5300  -16.7364   23.2486 C   0  0  0  0  0  0  0  0  0  0  0  0
  -18.4780  -26.0259   24.4097 C   0  0  0  0  0  0  0  0  0  0  0  0
  -16.9487  -24.1499   23.7693 C   0  0  0  0  0  0  0  0  0  0  0  0
  -16.3000  -26.5081   23.2790 C   0  0  0  0  0  0  0  0  0  0  0  0
  -17.9613  -23.8072   17.2113 C   0  0  0  0  0  0  0  0  0  0  0  0
  -27.2608  -18.7124   18.7172 C   0  0  0  0  0  0  0  0  0  0  0  0
  -24.7655  -22.3716   21.0264 C   0  0  0  0  0  0  0  0  0  1  0  0
  -29.6031  -18.0998   22.2928 C   0  0  0  0  0  0  0  0  0  0  0  0
  -18.1359  -25.4202   21.9233 C   0  0  1  0  0  0  0  0  0  0  0  0
  -16.3583  -23.5968   19.1152 C   0  0  2  0  0  0  0  0  0  0  0  0
  -30.6370  -16.9990   22.0398 C   0  0  2  0  0  0  0  0  0  0  0  0
  -17.4919  -25.5277   23.3344 C   0  0  0  0  0  0  0  0  0  0  0  0
  -25.8393  -11.5612   20.2669 N   0  0  0  0  0  0  0  0  0  0  0  0
  -26.1710  -12.8613   20.1897 N   0  0  0  0  0  0  0  0  0  0  0  0
  -20.0849  -26.7513   21.1794 N   0  0  0  0  0  0  0  0  0  0  0  0
  -29.8821  -13.7575   20.3722 N   0  0  0  0  0  0  0  0  0  0  0  0
  -25.3357  -15.0484   20.5493 N   0  0  0  0  0  0  0  0  0  0  0  0
  -21.8568  -12.4039   21.6893 N   0  0  0  0  0  0  0  0  0  0  0  0
  -28.8002  -18.3436   21.1358 N   0  0  0  0  0  0  0  0  0  0  0  0
  -21.9090  -29.7570   22.1462 N   0  0  0  0  0  0  0  0  0  0  0  0
  -17.2180  -24.9767   20.8797 N   0  0  0  0  0  0  0  0  0  0  0  0
  -30.0059  -15.7739   21.6020 N   0  0  0  0  0  0  0  0  0  0  0  0
  -16.9200  -22.9840   17.8784 N   0  3  0  0  0  0  0  0  0  0  0  0
  -22.5559  -14.5790   21.4922 O   0  0  0  0  0  0  0  0  0  0  0  0
  -21.2193  -27.8056   23.2133 O   0  0  0  0  0  0  0  0  0  0  0  0
  -17.9632  -27.7078   21.3205 O   0  0  0  0  0  0  0  0  0  0  0  0
  -18.4386  -23.1105   20.2435 O   0  0  0  0  0  0  0  0  0  0  0  0
  -31.7415  -15.1376   20.2456 O   0  0  0  0  0  0  0  0  0  0  0  0
  -21.7702   -6.8353   21.5540 O   0  0  0  0  0  0  0  0  0  0  0  0
  -25.2365  -23.4835   20.2661 O   0  0  0  0  0  0  0  0  0  1  0  0
  -24.3855   -2.7455   24.1689 F   0  0  0  0  0  0  0  0  0  0  0  0
  -20.7970   -5.8235   23.9356 F   0  0  0  0  0  0  0  0  0  0  0  0
  1  2  1  0  0  0  0
  1  7  2  0  0  0  0
  2  8  2  0  0  0  0
  3  4  1  0  0  0  0
  3 10  2  0  0  0  0
  4 11  2  0  0  0  0
  5 14  2  0  0  0  0
  5 22  1  0  0  0  0
  6 15  1  0  0  0  0
  6 22  2  0  0  0  0
  7 24  1  0  0  0  0
  8 26  1  0  0  0  0
  9 16  2  0  0  0  0
  9 25  1  0  0  0  0
 10 29  1  0  0  0  0
 11 30  1  0  0  0  0
 12 13  2  0  0  0  0
 12 28  1  0  0  0  0
 13 32  1  0  0  0  0
 14 33  1  0  0  0  0
 15 33  2  0  0  0  0
 16 34  1  0  0  0  0
 17 18  2  0  0  0  0
 17 35  1  0  0  0  0
 18 36  1  0  0  0  0
 19 27  1  0  0  0  0
 19 34  2  0  0  0  0
 20 28  2  0  0  0  0
 20 31  1  0  0  0  0
 21 36  2  0  0  0  0
 21 37  1  0  0  0  0
 22 38  1  0  0  0  0
 23 38  1  0  0  0  0
 23 39  2  0  0  0  0
 23 40  1  0  0  0  0
 24 26  2  0  0  0  0
 24 45  1  0  0  0  0
 25 27  2  0  0  0  0
 25 46  1  0  0  0  0
 26 54  1  0  0  0  0
 27 47  1  0  0  0  0
 28 65  1  0  0  0  0
 29 30  2  0  0  0  0
 29 57  1  0  0  0  0
 30 64  1  0  0  0  0
 31 32  2  0  0  0  0
 31 64  1  0  0  0  0
 32 77  1  0  0  0  0
 33 87  1  0  0  0  0
 34 88  1  0  0  0  0
 35 37  2  0  0  0  0
 35 87  1  0  0  0  0
 36 89  1  0  0  0  0
 37 90  1  0  0  0  0
 38 71  2  0  0  0  0
 39 72  1  0  0  0  0
 39 75  1  0  0  0  0
 40 76  1  0  0  0  0
 40 82  2  0  0  0  0
 41 55  1  0  0  0  0
 41 78  1  0  0  0  0
 41 83  2  0  0  0  0
 42 67  1  0  0  0  0
 42 73  1  0  0  0  0
 42 84  2  0  0  0  0
 43 68  1  0  0  0  0
 43 79  1  0  0  0  0
 43 85  2  0  0  0  0
 44 74  1  0  0  0  0
 44 80  1  0  0  0  0
 44 86  2  0  0  0  0
 45 48  1  0  0  0  0
 46 55  1  0  0  0  0
 47 73  1  0  0  0  0
 48 50  1  0  0  0  0
 49 51  1  0  0  0  0
 49 52  1  0  0  0  0
 50 54  1  0  0  0  0
 51 56  1  0  0  0  0
 52 74  1  0  0  0  0
 53 56  1  0  0  0  0
 53 74  1  0  0  0  0
 54 78  1  0  0  0  0
 55 73  1  0  0  0  0
 56 72  1  0  0  0  0
 58 68  1  0  0  0  0
 59 69  1  0  0  0  0
 60 70  1  0  0  0  0
 61 70  1  0  0  0  0
 62 70  1  0  0  0  0
 63 81  1  0  0  0  0
 65 88  1  0  0  0  0
 66 69  1  0  0  0  0
 66 77  1  0  0  0  0
 67 70  1  0  0  0  0
 67 79  1  0  0  0  0
 68 81  1  0  0  0  0
 69 80  1  0  0  0  0
 71 72  1  0  0  0  0
M  CHG  1  81   1
M  ISO  4  44 100  65 101  80 100  88 101
M  END
> <Batch ID>
0135

> <Smiles>
CNC(C)C(=O)NC(C(=O)N1Cc2cc([101O:1][101CH2:1]c3ccc(NCC(C)[100NH:0][100C:0](=O)N4CCCC(n5nc(-c6ccc(Oc7ccc(F)cc7F)cc6)c(C(N)=O)c5N)C4)c(Cc4ccccc4C)c3)ccc2CC1C(=O)NC1CCCc2ccccc21)C(C)(C)C

> <Shape>
0.321

> <Color>
0.201

> <Negative vol penalty>
0.000

$$$$

  -OEChem-04052321003D

 85 93  0     1  0  0  0  0  0999 V2000
  -34.6801  -22.9236   21.4803 C   0  0  0  0  0  0  0  0  0  0  0  0
  -33.5242  -22.8211   20.7129 C   0  0  0  0  0  0  0  0  0  0  0  0
  -24.5946  -32.2059   20.8920 C   0  0  0  0  0  0  0  0  0  0  0  0
  -25.2353  -31.4671   23.1012 C   0  0  0  0  0  0  0  0  0  0  0  0
  -35.3179  -21.7703   21.9352 C   0  0  0  0  0  0  0  0  0  0  0  0
  -33.0061  -21.5651   20.3991 C   0  0  0  0  0  0  0  0  0  0  0  0
  -27.9853  -21.3256   21.0147 C   0  0  0  0  0  0  0  0  0  0  0  0
  -25.1637  -33.4541   21.1443 C   0  0  0  0  0  0  0  0  0  0  0  0
  -25.8045  -32.7153   23.3535 C   0  0  0  0  0  0  0  0  0  0  0  0
  -27.1937  -21.8934   20.0173 C   0  0  0  0  0  0  0  0  0  0  0  0
  -26.1313  -36.9540   21.3395 C   0  0  0  0  0  0  0  0  0  0  0  0
  -25.4032  -38.0862   20.9742 C   0  0  0  0  0  0  0  0  0  0  0  0
  -26.8119  -19.7029   19.0818 C   0  0  0  0  0  0  0  0  0  0  0  0
  -23.7748  -21.3822   19.4909 C   0  0  0  0  0  0  0  0  0  0  0  0
  -23.6123  -37.4103   22.4483 C   0  0  0  0  0  0  0  0  0  0  0  0
  -24.6304  -31.2124   21.8704 C   0  0  0  0  0  0  0  0  0  0  0  0
  -24.6752  -28.7971   21.0507 C   0  0  0  0  0  0  0  0  0  0  0  0
  -34.8020  -20.4998   21.6349 C   0  0  0  0  0  0  0  0  0  0  0  0
  -28.2054  -19.9411   21.0468 C   0  0  0  0  0  0  0  0  0  0  0  0
  -33.6384  -20.3937   20.8493 C   0  0  0  0  0  0  0  0  0  0  0  0
  -27.6046  -19.1197   20.0821 C   0  0  0  0  0  0  0  0  0  0  0  0
  -25.7686  -33.7088   22.3751 C   0  0  0  0  0  0  0  0  0  0  0  0
  -26.6092  -21.0823   19.0489 C   0  0  0  0  0  0  0  0  0  0  0  0
  -25.5999  -36.0498   22.2592 C   0  0  0  0  0  0  0  0  0  0  0  0
  -24.4802  -21.7618   18.3222 C   0  0  0  0  0  0  0  0  0  1  0  0
  -24.1437  -38.3144   21.5286 C   0  0  0  0  0  0  0  0  0  0  0  0
  -24.3404  -36.2780   22.8136 C   0  0  0  0  0  0  0  0  0  0  0  0
  -24.0421  -29.9230   21.6106 C   0  0  0  0  0  0  0  0  0  0  0  0
  -22.4487  -21.6970   19.2913 C   0  0  0  0  0  0  0  0  0  0  0  0
  -23.5636  -22.2968   17.4440 C   0  0  0  0  0  0  0  0  0  0  0  0
  -23.6955  -27.8352   21.0140 C   0  0  0  0  0  0  0  0  0  0  0  0
  -26.0278  -28.6352   20.6037 C   0  0  0  0  0  0  0  0  0  0  0  0
  -30.7651  -18.0707   20.8160 C   0  0  0  0  0  0  0  0  0  0  0  0
  -28.6344  -15.7278   21.5183 C   0  0  0  0  0  0  0  0  0  0  0  0
  -25.3917  -14.6641   21.5134 C   0  0  0  0  0  0  0  0  0  0  0  0
  -19.4593  -25.1092   23.4160 C   0  0  0  0  0  0  0  0  0  0  0  0
  -35.5528  -19.2807   22.1091 C   0  0  0  0  0  0  0  0  0  0  0  0
  -29.0400  -19.3412   22.1449 C   0  0  0  0  0  0  0  0  0  0  0  0
  -27.7932  -17.6254   20.0842 C   0  0  0  0  0  0  0  0  0  0  0  0
  -34.7298  -17.9965   22.0479 C   0  0  0  0  0  0  0  0  0  0  0  0
  -18.7085  -28.1840   21.7855 C   0  0  0  0  0  0  0  0  0  0  0  0
  -34.0111  -17.8864   20.7070 C   0  0  0  0  0  0  0  0  0  0  0  0
  -20.0804  -28.8200   21.5544 C   0  0  0  0  0  0  0  0  0  0  0  0
  -18.6518  -27.4314   23.1131 C   0  0  0  0  0  0  0  0  0  0  0  0
  -21.0885  -27.0645   23.0713 C   0  0  0  0  0  0  0  0  0  0  0  0
  -33.0319  -19.0497   20.5088 C   0  0  1  0  0  0  0  0  0  0  0  0
  -29.6163  -17.9766   21.7799 C   0  0  1  0  0  0  0  0  0  0  0  0
  -21.2119  -27.7876   21.7191 C   0  0  2  0  0  0  0  0  0  0  0  0
  -23.7551  -22.8464   16.0850 C   0  0  0  0  0  0  0  0  0  0  0  0
  -23.9656  -12.6889   22.1151 C   0  0  0  0  0  0  0  0  0  0  0  0
  -20.4881  -23.8823   18.2382 C   0  0  0  0  0  0  0  0  0  0  0  0
  -20.0908  -21.5850   17.2528 C   0  0  0  0  0  0  0  0  0  0  0  0
  -21.5879  -22.2977   24.5107 C   0  0  0  0  0  0  0  0  0  0  0  0
  -29.6035  -14.2700   19.0192 C   0  0  0  0  0  0  0  0  0  0  0  0
  -27.5517  -12.8407   19.1421 C   0  0  0  0  0  0  0  0  0  0  0  0
  -29.2139  -12.7960   21.0016 C   0  0  0  0  0  0  0  0  0  0  0  0
  -23.8404  -16.2372   23.4827 C   0  0  0  0  0  0  0  0  0  0  0  0
  -21.2877  -21.5141   20.1868 C   0  0  0  0  0  0  0  0  0  0  0  0
  -20.2182  -22.1044   22.3654 C   0  0  0  0  0  0  0  0  0  0  0  0
  -27.7336  -14.8249   20.7108 C   0  0  1  0  0  0  0  0  0  0  0  0
  -24.5437  -14.0126   22.5908 C   0  0  2  0  0  0  0  0  0  0  0  0
  -21.0969  -22.7204   17.4507 C   0  0  0  0  0  0  0  0  0  0  0  0
  -20.4196  -22.8374   23.6912 C   0  0  2  0  0  0  0  0  0  0  0  0
  -28.5235  -13.7112   19.9670 C   0  0  0  0  0  0  0  0  0  0  0  0
  -22.7595  -29.6986   21.9081 N   0  0  0  0  0  0  0  0  0  0  0  0
  -22.3321  -22.2524   18.0437 N   0  0  0  0  0  0  0  0  0  0  0  0
  -22.5786  -28.4206   21.5337 N   0  0  0  0  0  0  0  0  0  0  0  0
  -28.6230  -17.0871   21.1747 N   0  0  0  0  0  0  0  0  0  0  0  0
  -19.7506  -26.4671   23.2055 N   0  0  0  0  0  0  0  0  0  0  0  0
  -23.6890  -26.5541   20.5883 N   0  0  0  0  0  0  0  0  0  0  0  0
  -26.9027  -29.7247   20.7135 N   0  0  0  0  0  0  0  0  0  0  0  0
  -31.8243  -18.8301   21.2755 N   0  0  0  0  0  0  0  0  0  0  0  0
  -26.7224  -14.3242   21.6356 N   0  0  0  0  0  0  0  0  0  0  0  0
  -20.5583  -24.2618   23.4848 N   0  0  0  0  0  0  0  0  0  0  0  0
  -23.4154  -14.9077   22.9739 N   0  3  0  0  0  0  0  0  0  0  0  0
  -21.4070  -22.2399   21.4878 N   0  3  0  0  0  0  0  0  0  0  0  0
  -26.4439  -27.5615   20.1061 O   0  0  0  0  0  0  0  0  0  0  0  0
  -30.6964  -17.4958   19.7361 O   0  0  0  0  0  0  0  0  0  0  0  0
  -29.3176  -15.2461   22.4254 O   0  0  0  0  0  0  0  0  0  0  0  0
  -24.9202  -15.3980   20.6476 O   0  0  0  0  0  0  0  0  0  0  0  0
  -18.3050  -24.6828   23.5286 O   0  0  0  0  0  0  0  0  0  0  0  0
  -26.3243  -34.9266   22.6216 O   0  0  0  0  0  0  0  0  0  0  0  0
  -25.8367  -21.6340   18.0739 O   0  0  0  0  0  0  0  0  0  1  0  0
  -23.4453  -39.4025   21.1788 F   0  0  0  0  0  0  0  0  0  0  0  0
  -23.8252  -35.4136   23.6986 F   0  0  0  0  0  0  0  0  0  0  0  0
  1  2  1  0  0  0  0
  1  5  2  0  0  0  0
  2  6  2  0  0  0  0
  3  8  2  0  0  0  0
  3 16  1  0  0  0  0
  4  9  1  0  0  0  0
  4 16  2  0  0  0  0
  5 18  1  0  0  0  0
  6 20  1  0  0  0  0
  7 10  2  0  0  0  0
  7 19  1  0  0  0  0
  8 22  1  0  0  0  0
  9 22  2  0  0  0  0
 10 23  1  0  0  0  0
 11 12  2  0  0  0  0
 11 24  1  0  0  0  0
 12 26  1  0  0  0  0
 13 21  1  0  0  0  0
 13 23  2  0  0  0  0
 14 25  1  0  0  0  0
 14 29  2  0  0  0  0
 15 26  2  0  0  0  0
 15 27  1  0  0  0  0
 16 28  1  0  0  0  0
 17 28  1  0  0  0  0
 17 31  2  0  0  0  0
 17 32  1  0  0  0  0
 18 20  2  0  0  0  0
 18 37  1  0  0  0  0
 19 21  2  0  0  0  0
 19 38  1  0  0  0  0
 20 46  1  0  0  0  0
 21 39  1  0  0  0  0
 22 82  1  0  0  0  0
 23 83  1  0  0  0  0
 24 27  2  0  0  0  0
 24 82  1  0  0  0  0
 25 30  2  0  0  0  0
 25 83  1  0  0  0  0
 26 84  1  0  0  0  0
 27 85  1  0  0  0  0
 28 65  2  0  0  0  0
 29 58  1  0  0  0  0
 29 66  1  0  0  0  0
 30 49  1  0  0  0  0
 30 66  1  0  0  0  0
 31 67  1  0  0  0  0
 31 70  1  0  0  0  0
 32 71  1  0  0  0  0
 32 77  2  0  0  0  0
 33 47  1  0  0  0  0
 33 72  1  0  0  0  0
 33 78  2  0  0  0  0
 34 60  1  0  0  0  0
 34 68  1  0  0  0  0
 34 79  2  0  0  0  0
 35 61  1  0  0  0  0
 35 73  1  0  0  0  0
 35 80  2  0  0  0  0
 36 69  1  0  0  0  0
 36 74  1  0  0  0  0
 36 81  2  0  0  0  0
 37 40  1  0  0  0  0
 38 47  1  0  0  0  0
 39 68  1  0  0  0  0
 40 42  1  0  0  0  0
 41 43  1  0  0  0  0
 41 44  1  0  0  0  0
 42 46  1  0  0  0  0
 43 48  1  0  0  0  0
 44 69  1  0  0  0  0
 45 48  1  0  0  0  0
 45 69  1  0  0  0  0
 46 72  1  0  0  0  0
 47 68  1  0  0  0  0
 48 67  1  0  0  0  0
 50 61  1  0  0  0  0
 51 62  1  0  0  0  0
 52 62  1  0  0  0  0
 53 63  1  0  0  0  0
 54 64  1  0  0  0  0
 55 64  1  0  0  0  0
 56 64  1  0  0  0  0
 57 75  1  0  0  0  0
 58 76  1  0  0  0  0
 59 63  1  0  0  0  0
 59 76  1  0  0  0  0
 60 64  1  0  0  0  0
 60 73  1  0  0  0  0
 61 75  1  0  0  0  0
 62 66  1  0  0  0  0
 63 74  1  0  0  0  0
 65 67  1  0  0  0  0
M  CHG  2  75   1  76   1
M  ISO  4  25 101  36 100  74 100  83 101
M  END
> <Batch ID>
0135

> <Smiles>
CNC(C)C(=O)NC(C(=O)N1Cc2cc([101O:1][101c:1]3cc(CNCC(C)[100NH:0][100C:0](=O)N4CCCC(n5nc(-c6ccc(Oc7ccc(F)cc7F)cc6)c(C(N)=O)c5N)C4)n(C(C)C)c3C)ccc2CC1C(=O)NC1CCCc2ccccc21)C(C)(C)C

> <Shape>
0.229

> <Color>
0.061

> <Negative vol penalty>
0.000

$$$$

  -OEChem-04052321003D

 88 97  0     1  0  0  0  0  0999 V2000
  -25.0089  -29.8689   24.9287 C   0  0  0  0  0  0  0  0  0  0  0  0
  -25.4349  -28.6078   24.5243 C   0  0  0  0  0  0  0  0  0  0  0  0
  -26.5541  -19.3777   23.0056 C   0  0  0  0  0  0  0  0  0  0  0  0
  -27.6846  -20.1934   22.9499 C   0  0  0  0  0  0  0  0  0  0  0  0
  -23.1978   -9.8955   21.5636 C   0  0  0  0  0  0  0  0  0  0  0  0
  -23.8287  -10.9430   23.6472 C   0  0  0  0  0  0  0  0  0  0  0  0
  -26.6953  -17.9984   23.1257 C   0  0  0  0  0  0  0  0  0  0  0  0
  -24.6187  -30.8100   23.9769 C   0  0  0  0  0  0  0  0  0  0  0  0
  -25.4700  -28.2867   23.1678 C   0  0  0  0  0  0  0  0  0  0  0  0
  -29.7396  -25.9067   21.8445 C   0  0  0  0  0  0  0  0  0  0  0  0
  -31.3940  -19.8748   23.0238 C   0  0  0  0  0  0  0  0  0  0  0  0
  -31.5352  -18.4954   23.1439 C   0  0  0  0  0  0  0  0  0  0  0  0
  -22.4844   -8.9253   22.2673 C   0  0  0  0  0  0  0  0  0  0  0  0
  -23.1152   -9.9729   24.3510 C   0  0  0  0  0  0  0  0  0  0  0  0
  -29.8376  -24.5523   22.1602 C   0  0  0  0  0  0  0  0  0  0  0  0
  -20.7939   -5.9642   23.5315 C   0  0  0  0  0  0  0  0  0  0  0  0
  -20.9471   -4.6339   23.1412 C   0  0  0  0  0  0  0  0  0  0  0  0
  -29.2554  -23.9869   19.8885 C   0  0  0  0  0  0  0  0  0  0  0  0
  -23.3136   -4.7693   23.6085 C   0  0  0  0  0  0  0  0  0  0  0  0
  -28.9729  -19.6379   23.0137 C   0  0  0  0  0  0  0  0  0  0  0  0
  -29.1165  -18.2352   23.1358 C   0  0  0  0  0  0  0  0  0  0  0  0
  -23.8701  -10.9043   22.2535 C   0  0  0  0  0  0  0  0  0  0  0  0
  -27.9675  -17.4295   23.1904 C   0  0  0  0  0  0  0  0  0  0  0  0
  -24.1245  -13.1408   21.0531 C   0  0  0  0  0  0  0  0  0  0  0  0
  -24.6582  -30.5037   22.6076 C   0  0  0  0  0  0  0  0  0  0  0  0
  -29.3875  -26.3120   20.5490 C   0  0  0  0  0  0  0  0  0  0  0  0
  -25.0788  -29.2243   22.1969 C   0  0  0  0  0  0  0  0  0  0  0  0
  -29.1560  -25.3471   19.5583 C   0  0  0  0  0  0  0  0  0  0  0  0
  -30.1218  -20.4437   22.9590 C   0  0  0  0  0  0  0  0  0  0  0  0
  -30.4048  -17.6797   23.1996 C   0  0  0  0  0  0  0  0  0  0  0  0
  -22.4431   -8.9640   23.6610 C   0  0  0  0  0  0  0  0  0  0  0  0
  -29.5927  -23.5921   21.1829 C   0  0  0  0  0  0  0  0  0  0  0  0
  -21.9006   -6.6971   23.9602 C   0  0  0  0  0  0  0  0  0  0  0  0
  -22.2069   -4.0364   23.1797 C   0  0  0  0  0  0  0  0  0  0  0  0
  -23.1604   -6.0997   23.9987 C   0  0  0  0  0  0  0  0  0  0  0  0
  -24.6077  -11.9065   21.5271 C   0  0  0  0  0  0  0  0  0  0  0  0
  -25.2066  -13.7190   20.4357 C   0  0  0  0  0  0  0  0  0  0  0  0
  -22.8145  -13.7136   21.1612 C   0  0  0  0  0  0  0  0  0  0  0  0
  -27.9863  -15.9561   23.3170 C   0  0  0  0  0  0  0  0  0  0  0  0
  -26.9743  -27.9541   19.2906 C   0  0  0  0  0  0  0  0  0  0  0  0
  -28.7306  -27.7024   16.5750 C   0  0  0  0  0  0  0  0  0  0  0  0
  -31.1138  -26.0112   14.8123 C   0  0  0  0  0  0  0  0  0  0  0  0
  -31.1194  -13.0673   21.1182 C   0  0  0  0  0  0  0  0  0  0  0  0
  -24.1819  -31.5376   21.6183 C   0  0  0  0  0  0  0  0  0  0  0  0
  -29.3121  -27.7772   20.2177 C   0  0  0  0  0  0  0  0  0  0  0  0
  -28.7946  -25.7303   18.1472 C   0  0  0  0  0  0  0  0  0  0  0  0
  -24.6045  -31.2455   20.1808 C   0  0  0  0  0  0  0  0  0  0  0  0
  -29.2443  -12.5936   18.1288 C   0  0  0  0  0  0  0  0  0  0  0  0
  -24.3400  -29.7840   19.8332 C   0  0  0  0  0  0  0  0  0  0  0  0
  -27.7998  -12.4752   18.6180 C   0  0  0  0  0  0  0  0  0  0  0  0
  -30.2247  -11.9414   19.1012 C   0  0  0  0  0  0  0  0  0  0  0  0
  -28.6743  -12.2924   20.9845 C   0  0  0  0  0  0  0  0  0  0  0  0
  -25.1543  -28.8468   20.7333 C   0  0  1  0  0  0  0  0  0  0  0  0
  -28.4436  -28.0701   18.9982 C   0  0  1  0  0  0  0  0  0  0  0  0
  -27.6541  -12.9845   20.0646 C   0  0  2  0  0  0  0  0  0  0  0  0
  -32.3104  -26.0212   12.6065 C   0  0  0  0  0  0  0  0  0  0  0  0
  -26.2498  -26.5457   15.2267 C   0  0  0  0  0  0  0  0  0  0  0  0
  -27.7252  -25.7133   13.3832 C   0  0  0  0  0  0  0  0  0  0  0  0
  -27.5424  -28.1620   13.8227 C   0  0  0  0  0  0  0  0  0  0  0  0
  -33.7465  -26.3884   16.1107 C   0  0  0  0  0  0  0  0  0  0  0  0
  -30.0414  -21.9364   22.8301 C   0  0  0  0  0  0  0  0  0  1  0  0
  -31.9033  -15.6973   22.9763 C   0  0  0  0  0  0  0  0  0  0  0  0
  -31.8643  -14.1933   23.2006 C   0  0  0  0  0  0  0  0  0  0  0  0
  -28.8175  -26.7031   15.4468 C   0  0  1  0  0  0  0  0  0  0  0  0
  -32.3360  -26.4934   14.0520 C   0  0  2  0  0  0  0  0  0  0  0  0
  -27.5886  -26.7735   14.4968 C   0  0  0  0  0  0  0  0  0  0  0  0
  -25.8965  -11.7111   21.2357 N   0  0  0  0  0  0  0  0  0  0  0  0
  -26.2322  -12.8303   20.5718 N   0  0  0  0  0  0  0  0  0  0  0  0
  -28.7272  -27.1754   17.8742 N   0  0  0  0  0  0  0  0  0  0  0  0
  -30.0354  -12.4692   20.4545 N   0  0  0  0  0  0  0  0  0  0  0  0
  -25.3714  -14.8957   19.7950 N   0  0  0  0  0  0  0  0  0  0  0  0
  -21.8198  -12.9852   21.8277 N   0  0  0  0  0  0  0  0  0  0  0  0
  -30.6524  -16.2906   23.3219 N   0  0  0  0  0  0  0  0  0  0  0  0
  -26.5322  -28.7951   20.2940 N   0  0  0  0  0  0  0  0  0  0  0  0
  -30.0968  -26.9420   14.7875 N   0  0  0  0  0  0  0  0  0  0  0  0
  -30.8526  -13.5469   22.3947 N   0  0  0  0  0  0  0  0  0  0  0  0
  -33.5801  -25.9800   14.6920 N   0  3  0  0  0  0  0  0  0  0  0  0
  -28.0080  -15.2493   22.2446 O   0  5  0  0  0  0  0  0  0  0  0  0
  -22.5302  -14.8308   20.6667 O   0  0  0  0  0  0  0  0  0  0  0  0
  -27.9800  -15.4421   24.4941 O   0  0  0  0  0  0  0  0  0  0  0  0
  -26.2919  -27.1615   18.6520 O   0  0  0  0  0  0  0  0  0  0  0  0
  -28.6752  -28.9066   16.3133 O   0  0  0  0  0  0  0  0  0  0  0  0
  -31.0647  -24.9166   15.3692 O   0  0  0  0  0  0  0  0  0  0  0  0
  -32.2403  -13.1711   20.6087 O   0  0  0  0  0  0  0  0  0  0  0  0
  -21.7468   -8.0176   24.3481 O   0  0  0  0  0  0  0  0  0  0  0  0
  -29.6870  -22.2694   21.4885 O   0  0  0  0  0  0  0  0  0  1  0  0
  -22.3536   -2.7584   22.8063 F   0  0  0  0  0  0  0  0  0  0  0  0
  -24.2271   -6.7983   24.4108 F   0  0  0  0  0  0  0  0  0  0  0  0
  1  2  1  0  0  0  0
  1  8  2  0  0  0  0
  2  9  2  0  0  0  0
  3  4  2  0  0  0  0
  3  7  1  0  0  0  0
  4 20  1  0  0  0  0
  5 13  2  0  0  0  0
  5 22  1  0  0  0  0
  6 14  1  0  0  0  0
  6 22  2  0  0  0  0
  7 23  2  0  0  0  0
  8 25  1  0  0  0  0
  9 27  1  0  0  0  0
 10 15  2  0  0  0  0
 10 26  1  0  0  0  0
 11 12  2  0  0  0  0
 11 29  1  0  0  0  0
 12 30  1  0  0  0  0
 13 31  1  0  0  0  0
 14 31  2  0  0  0  0
 15 32  1  0  0  0  0
 16 17  2  0  0  0  0
 16 33  1  0  0  0  0
 17 34  1  0  0  0  0
 18 28  1  0  0  0  0
 18 32  2  0  0  0  0
 19 34  2  0  0  0  0
 19 35  1  0  0  0  0
 20 21  1  0  0  0  0
 20 29  2  0  0  0  0
 21 23  1  0  0  0  0
 21 30  2  0  0  0  0
 22 36  1  0  0  0  0
 23 39  1  0  0  0  0
 24 36  1  0  0  0  0
 24 37  2  0  0  0  0
 24 38  1  0  0  0  0
 25 27  2  0  0  0  0
 25 44  1  0  0  0  0
 26 28  2  0  0  0  0
 26 45  1  0  0  0  0
 27 53  1  0  0  0  0
 28 46  1  0  0  0  0
 29 61  1  0  0  0  0
 30 73  1  0  0  0  0
 31 85  1  0  0  0  0
 32 86  1  0  0  0  0
 33 35  2  0  0  0  0
 33 85  1  0  0  0  0
 34 87  1  0  0  0  0
 35 88  1  0  0  0  0
 36 67  2  0  0  0  0
 37 68  1  0  0  0  0
 37 71  1  0  0  0  0
 38 72  1  0  0  0  0
 38 79  2  0  0  0  0
 39 78  1  0  0  0  0
 39 80  2  0  0  0  0
 40 54  1  0  0  0  0
 40 74  1  0  0  0  0
 40 81  2  0  0  0  0
 41 64  1  0  0  0  0
 41 69  1  0  0  0  0
 41 82  2  0  0  0  0
 42 65  1  0  0  0  0
 42 75  1  0  0  0  0
 42 83  2  0  0  0  0
 43 70  1  0  0  0  0
 43 76  1  0  0  0  0
 43 84  2  0  0  0  0
 44 47  1  0  0  0  0
 45 54  1  0  0  0  0
 46 69  1  0  0  0  0
 47 49  1  0  0  0  0
 48 50  1  0  0  0  0
 48 51  1  0  0  0  0
 49 53  1  0  0  0  0
 50 55  1  0  0  0  0
 51 70  1  0  0  0  0
 52 55  1  0  0  0  0
 52 70  1  0  0  0  0
 53 74  1  0  0  0  0
 54 69  1  0  0  0  0
 55 68  1  0  0  0  0
 56 65  1  0  0  0  0
 57 66  1  0  0  0  0
 58 66  1  0  0  0  0
 59 66  1  0  0  0  0
 60 77  1  0  0  0  0
 61 86  1  0  0  0  0
 62 63  1  0  0  0  0
 62 73  1  0  0  0  0
 63 76  1  0  0  0  0
 64 66  1  0  0  0  0
 64 75  1  0  0  0  0
 65 77  1  0  0  0  0
 67 68  1  0  0  0  0
M  CHG  2  77   1  78  -1
M  ISO  4  43 100  61 101  76 100  86 101
M  END
> <Batch ID>
0135

> <Smiles>
CNC(C)C(=O)NC(C(=O)N1Cc2cc([101O:1][101CH2:1]c3ccc(NCC[100NH:0][100C:0](=O)N4CCCC(n5nc(-c6ccc(Oc7ccc(F)cc7F)cc6)c(C(N)=O)c5N)C4)c4c(C(=O)O)cccc34)ccc2CC1C(=O)NC1CCCc2ccccc21)C(C)(C)C

> <Shape>
0.258

> <Color>
0.143

> <Negative vol penalty>
0.000

$$$$

  -OEChem-04052321003D

 90 99  0     1  0  0  0  0  0999 V2000
  -34.2068  -34.2751   14.5283 C   0  0  0  0  0  0  0  0  0  0  0  0
  -33.2426  -34.1023   15.5160 C   0  0  0  0  0  0  0  0  0  0  0  0
  -22.9800   -9.9253   19.9816 C   0  0  0  0  0  0  0  0  0  0  0  0
  -23.7190   -9.9559   22.2816 C   0  0  0  0  0  0  0  0  0  0  0  0
  -34.4623  -33.2502   13.6182 C   0  0  0  0  0  0  0  0  0  0  0  0
  -32.5323  -32.9049   15.5936 C   0  0  0  0  0  0  0  0  0  0  0  0
  -29.4810  -28.5230   20.3691 C   0  0  0  0  0  0  0  0  0  0  0  0
  -22.2055   -8.7957   20.2455 C   0  0  0  0  0  0  0  0  0  0  0  0
  -22.9444   -8.8263   22.5455 C   0  0  0  0  0  0  0  0  0  0  0  0
  -28.2673  -27.8865   20.6252 C   0  0  0  0  0  0  0  0  0  0  0  0
  -23.1577   -5.4884   22.0518 C   0  0  0  0  0  0  0  0  0  0  0  0
  -23.7409   -4.4617   22.7942 C   0  0  0  0  0  0  0  0  0  0  0  0
  -28.8490  -26.1559   19.0486 C   0  0  0  0  0  0  0  0  0  0  0  0
  -29.9718  -19.0337   21.2454 C   0  0  0  0  0  0  0  0  0  0  0  0
  -28.9760  -17.8712   23.1146 C   0  0  0  0  0  0  0  0  0  0  0  0
  -22.0289   -4.7088   24.4809 C   0  0  0  0  0  0  0  0  0  0  0  0
  -23.7368  -10.5054   20.9997 C   0  0  0  0  0  0  0  0  0  0  0  0
  -24.1424  -13.0187   20.8368 C   0  0  0  0  0  0  0  0  0  0  0  0
  -33.7616  -32.0359   13.6906 C   0  0  0  0  0  0  0  0  0  0  0  0
  -30.3846  -27.9856   19.4411 C   0  0  0  0  0  0  0  0  0  0  0  0
  -32.7776  -31.8633   14.6828 C   0  0  0  0  0  0  0  0  0  0  0  0
  -30.0746  -26.7861   18.7843 C   0  0  0  0  0  0  0  0  0  0  0  0
  -28.1401  -20.0405   22.4572 C   0  0  0  0  0  0  0  0  0  0  0  0
  -29.9185  -17.9231   22.0876 C   0  0  0  0  0  0  0  0  0  0  0  0
  -29.0826  -20.0925   21.4302 C   0  0  0  0  0  0  0  0  0  0  0  0
  -28.0868  -18.9299   23.2994 C   0  0  0  0  0  0  0  0  0  0  0  0
  -22.1876   -8.2462   21.5274 C   0  0  0  0  0  0  0  0  0  0  0  0
  -27.9499  -26.7043   19.9628 C   0  0  0  0  0  0  0  0  0  0  0  0
  -22.0100   -6.1254   22.5239 C   0  0  0  0  0  0  0  0  0  0  0  0
  -23.1765   -4.0718   24.0087 C   0  0  0  0  0  0  0  0  0  0  0  0
  -21.4456   -5.7356   23.7385 C   0  0  0  0  0  0  0  0  0  0  0  0
  -24.5376  -11.6719   20.7276 C   0  0  0  0  0  0  0  0  0  0  0  0
  -25.2561  -13.7341   20.4704 C   0  0  0  0  0  0  0  0  0  0  0  0
  -22.8814  -13.5734   21.2341 C   0  0  0  0  0  0  0  0  0  0  0  0
  -31.6376  -28.9814   16.6948 C   0  0  0  0  0  0  0  0  0  0  0  0
  -33.3994  -26.2712   16.9653 C   0  0  0  0  0  0  0  0  0  0  0  0
  -33.6997  -23.1280   18.2601 C   0  0  0  0  0  0  0  0  0  0  0  0
  -30.7616  -14.6207   20.6925 C   0  0  0  0  0  0  0  0  0  0  0  0
  -34.0391  -30.9748   12.6554 C   0  0  0  0  0  0  0  0  0  0  0  0
  -31.7013  -28.6701   19.1958 C   0  0  0  0  0  0  0  0  0  0  0  0
  -31.0192  -26.1573   17.7939 C   0  0  0  0  0  0  0  0  0  0  0  0
  -33.5066  -29.5964   13.0382 C   0  0  0  0  0  0  0  0  0  0  0  0
  -29.5868  -12.2213   18.3389 C   0  0  0  0  0  0  0  0  0  0  0  0
  -32.0744  -29.7013   13.5527 C   0  0  0  0  0  0  0  0  0  0  0  0
  -28.1386  -11.9712   18.7634 C   0  0  0  0  0  0  0  0  0  0  0  0
  -27.9569  -22.4676   22.9699 C   0  0  0  0  0  0  0  0  0  0  0  0
  -26.3123  -21.3586   21.4040 C   0  0  0  0  0  0  0  0  0  0  0  0
  -30.4982  -12.4416   19.5443 C   0  0  0  0  0  0  0  0  0  0  0  0
  -28.6027  -13.2449   20.8991 C   0  0  0  0  0  0  0  0  0  0  0  0
  -27.0182  -23.6608   23.0952 C   0  0  0  0  0  0  0  0  0  0  0  0
  -25.3861  -22.5601   21.5415 C   0  0  0  0  0  0  0  0  0  0  0  0
  -27.1870  -21.1749   22.6547 C   0  0  0  0  0  0  0  0  0  0  0  0
  -32.0037  -30.5695   14.8147 C   0  0  1  0  0  0  0  0  0  0  0  0
  -32.3218  -28.3072   17.8502 C   0  0  1  0  0  0  0  0  0  0  0  0
  -27.6352  -13.0727   19.7155 C   0  0  2  0  0  0  0  0  0  0  0  0
  -29.1597  -21.2698   20.5139 C   0  0  0  0  0  0  0  0  0  0  0  0
  -27.0868  -18.8497   24.4064 C   0  0  0  0  0  0  0  0  0  0  0  0
  -35.2328  -21.1413   18.2738 C   0  0  0  0  0  0  0  0  0  0  0  0
  -32.4573  -25.5280   14.1599 C   0  0  0  0  0  0  0  0  0  0  0  0
  -33.2124  -23.1825   14.6032 C   0  0  0  0  0  0  0  0  0  0  0  0
  -34.8695  -25.0470   14.6119 C   0  0  0  0  0  0  0  0  0  0  0  0
  -34.0945  -23.3068   21.1878 C   0  0  0  0  0  0  0  0  0  0  0  0
  -25.3517  -25.0338   21.8493 C   0  0  0  0  0  0  0  0  0  0  0  0
  -31.7483  -16.5476   23.1304 C   0  0  0  0  0  0  0  0  0  0  0  0
  -26.2099  -26.2380   21.5155 C   0  0  0  0  0  0  0  0  0  1  0  0
  -30.8696  -16.7915   21.8905 C   0  0  1  0  0  0  0  0  0  0  0  0
  -33.2297  -24.8373   16.5247 C   0  0  1  0  0  0  0  0  0  0  0  0
  -34.8493  -22.4372   18.9713 C   0  0  2  0  0  0  0  0  0  0  0  0
  -33.4234  -24.6613   14.9921 C   0  0  0  0  0  0  0  0  0  0  0  0
  -25.8035  -11.5372   20.3232 N   0  0  0  0  0  0  0  0  0  0  0  0
  -26.2133  -12.8085   20.1751 N   0  0  0  0  0  0  0  0  0  0  0  0
  -32.2914  -26.8677   17.5835 N   0  0  0  0  0  0  0  0  0  0  0  0
  -29.9653  -13.4996   20.4060 N   0  0  0  0  0  0  0  0  0  0  0  0
  -25.5003  -15.0584   20.3751 N   0  0  0  0  0  0  0  0  0  0  0  0
  -21.8442  -12.6959   21.5782 N   0  0  0  0  0  0  0  0  0  0  0  0
  -32.4583  -29.8227   15.9680 N   0  0  0  0  0  0  0  0  0  0  0  0
  -34.1494  -24.0489   17.3377 N   0  0  0  0  0  0  0  0  0  0  0  0
  -30.1781  -15.5795   21.5117 N   0  0  0  0  0  0  0  0  0  0  0  0
  -26.1940  -23.8113   21.8305 N   0  3  0  0  0  0  0  0  0  0  0  0
  -32.5159  -17.7730   23.4709 N   0  3  0  0  0  0  0  0  0  0  0  0
  -34.4726  -22.1201   20.3779 N   0  3  0  0  0  0  0  0  0  0  0  0
  -22.6753  -14.8103   21.2667 O   0  0  0  0  0  0  0  0  0  0  0  0
  -30.4531  -28.7540   16.4778 O   0  0  0  0  0  0  0  0  0  0  0  0
  -34.4779  -26.8389   16.7745 O   0  0  0  0  0  0  0  0  0  0  0  0
  -32.5208  -22.8733   18.4965 O   0  0  0  0  0  0  0  0  0  0  0  0
  -31.9056  -14.7597   20.2466 O   0  0  0  0  0  0  0  0  0  0  0  0
  -21.4317   -7.1441   21.7853 O   0  0  0  0  0  0  0  0  0  0  0  0
  -26.7657  -26.0814   20.2105 O   0  0  0  0  0  0  0  0  0  1  0  0
  -23.7358   -3.0848   24.7208 F   0  0  0  0  0  0  0  0  0  0  0  0
  -20.3425   -6.3430   24.1966 F   0  0  0  0  0  0  0  0  0  0  0  0
  1  2  1  0  0  0  0
  1  5  2  0  0  0  0
  2  6  2  0  0  0  0
  3  8  2  0  0  0  0
  3 17  1  0  0  0  0
  4  9  1  0  0  0  0
  4 17  2  0  0  0  0
  5 19  1  0  0  0  0
  6 21  1  0  0  0  0
  7 10  2  0  0  0  0
  7 20  1  0  0  0  0
  8 27  1  0  0  0  0
  9 27  2  0  0  0  0
 10 28  1  0  0  0  0
 11 12  2  0  0  0  0
 11 29  1  0  0  0  0
 12 30  1  0  0  0  0
 13 22  1  0  0  0  0
 13 28  2  0  0  0  0
 14 24  1  0  0  0  0
 14 25  2  0  0  0  0
 15 24  2  0  0  0  0
 15 26  1  0  0  0  0
 16 30  2  0  0  0  0
 16 31  1  0  0  0  0
 17 32  1  0  0  0  0
 18 32  1  0  0  0  0
 18 33  2  0  0  0  0
 18 34  1  0  0  0  0
 19 21  2  0  0  0  0
 19 39  1  0  0  0  0
 20 22  2  0  0  0  0
 20 40  1  0  0  0  0
 21 53  1  0  0  0  0
 22 41  1  0  0  0  0
 23 25  1  0  0  0  0
 23 26  2  0  0  0  0
 23 52  1  0  0  0  0
 24 66  1  0  0  0  0
 25 56  1  0  0  0  0
 26 57  1  0  0  0  0
 27 87  1  0  0  0  0
 28 88  1  0  0  0  0
 29 31  2  0  0  0  0
 29 87  1  0  0  0  0
 30 89  1  0  0  0  0
 31 90  1  0  0  0  0
 32 70  2  0  0  0  0
 33 71  1  0  0  0  0
 33 74  1  0  0  0  0
 34 75  1  0  0  0  0
 34 82  2  0  0  0  0
 35 54  1  0  0  0  0
 35 76  1  0  0  0  0
 35 83  2  0  0  0  0
 36 67  1  0  0  0  0
 36 72  1  0  0  0  0
 36 84  2  0  0  0  0
 37 68  1  0  0  0  0
 37 77  1  0  0  0  0
 37 85  2  0  0  0  0
 38 73  1  0  0  0  0
 38 78  1  0  0  0  0
 38 86  2  0  0  0  0
 39 42  1  0  0  0  0
 40 54  1  0  0  0  0
 41 72  1  0  0  0  0
 42 44  1  0  0  0  0
 43 45  1  0  0  0  0
 43 48  1  0  0  0  0
 44 53  1  0  0  0  0
 45 55  1  0  0  0  0
 46 50  1  0  0  0  0
 46 52  1  0  0  0  0
 47 51  1  0  0  0  0
 47 52  1  0  0  0  0
 48 73  1  0  0  0  0
 49 55  1  0  0  0  0
 49 73  1  0  0  0  0
 50 79  1  0  0  0  0
 51 79  1  0  0  0  0
 53 76  1  0  0  0  0
 54 72  1  0  0  0  0
 55 71  1  0  0  0  0
 58 68  1  0  0  0  0
 59 69  1  0  0  0  0
 60 69  1  0  0  0  0
 61 69  1  0  0  0  0
 62 81  1  0  0  0  0
 63 65  1  0  0  0  0
 63 79  1  0  0  0  0
 64 66  1  0  0  0  0
 64 80  1  0  0  0  0
 65 88  1  0  0  0  0
 66 78  1  0  0  0  0
 67 69  1  0  0  0  0
 67 77  1  0  0  0  0
 68 81  1  0  0  0  0
 70 71  1  0  0  0  0
M  CHG  3  79   1  80   1  81   1
M  ISO  4  38 100  65 101  78 100  88 101
M  END
> <Batch ID>
0135

> <Smiles>
CNC(C)C(=O)NC(C(=O)N1Cc2cc([101O:1][101CH2:1]CN3CCC(c4c(C)cc(C(CN)[100NH:0][100C:0](=O)N5CCCC(n6nc(-c7ccc(Oc8ccc(F)cc8F)cc7)c(C(N)=O)c6N)C5)cc4C)CC3)ccc2CC1C(=O)NC1CCCc2ccccc21)C(C)(C)C

> <Shape>
0.243

> <Color>
0.186

> <Negative vol penalty>
0.000

$$$$
