
  -OEChem-04052321023D

 82 90  0     1  0  0  0  0  0999 V2000
  -25.3239  -21.4238   29.4697 C   0  0  0  0  0  0  0  0  0  0  0  0
  -25.7536  -21.3051   28.1518 C   0  0  0  0  0  0  0  0  0  0  0  0
  -23.7112  -10.1896   22.4068 C   0  0  0  0  0  0  0  0  0  0  0  0
  -24.3470  -11.7088   24.1745 C   0  0  0  0  0  0  0  0  0  0  0  0
  -24.1986  -22.1907   29.7684 C   0  0  0  0  0  0  0  0  0  0  0  0
  -25.0574  -21.9526   27.1317 C   0  0  0  0  0  0  0  0  0  0  0  0
  -28.1350  -24.2921   23.8606 C   0  0  0  0  0  0  0  0  0  0  0  0
  -30.9455  -19.6236   21.1037 C   0  0  0  0  0  0  0  0  0  0  0  0
  -23.1580   -9.3236   23.3500 C   0  0  0  0  0  0  0  0  0  0  0  0
  -23.7938  -10.8428   25.1178 C   0  0  0  0  0  0  0  0  0  0  0  0
  -28.7755  -23.4985   22.9100 C   0  0  0  0  0  0  0  0  0  0  0  0
  -30.5544  -20.9074   20.7238 C   0  0  0  0  0  0  0  0  0  0  0  0
  -24.6593   -7.9656   26.6680 C   0  0  0  0  0  0  0  0  0  0  0  0
  -25.4010   -7.7022   27.8196 C   0  0  0  0  0  0  0  0  0  0  0  0
  -27.1361  -24.1546   21.2665 C   0  0  0  0  0  0  0  0  0  0  0  0
  -28.4093  -20.5671   21.7819 C   0  0  0  0  0  0  0  0  0  0  0  0
  -23.6135   -8.5983   29.1758 C   0  0  0  0  0  0  0  0  0  0  0  0
  -24.3058  -11.3822   22.8191 C   0  0  0  0  0  0  0  0  0  0  0  0
  -24.2287  -13.3302   21.1738 C   0  0  0  0  0  0  0  0  0  0  0  0
  -23.4939  -22.8558   28.7526 C   0  0  0  0  0  0  0  0  0  0  0  0
  -26.9820  -25.0155   23.5236 C   0  0  0  0  0  0  0  0  0  0  0  0
  -23.9208  -22.7281   27.4170 C   0  0  0  0  0  0  0  0  0  0  0  0
  -26.4843  -24.9587   22.2140 C   0  0  0  0  0  0  0  0  0  0  0  0
  -28.8004  -19.2832   22.1619 C   0  0  0  0  0  0  0  0  0  0  0  0
  -30.0685  -18.8115   21.8228 C   0  0  0  0  0  0  0  0  0  0  0  0
  -23.1993   -9.6502   24.7055 C   0  0  0  0  0  0  0  0  0  0  0  0
  -28.2744  -23.4274   21.6134 C   0  0  0  0  0  0  0  0  0  0  0  0
  -29.2863  -21.3791   21.0628 C   0  0  0  0  0  0  0  0  0  1  0  0
  -23.3948   -8.5454   26.7703 C   0  0  0  0  0  0  0  0  0  0  0  0
  -24.8781   -8.0185   29.0735 C   0  0  0  0  0  0  0  0  0  0  0  0
  -22.8719   -8.8617   28.0241 C   0  0  0  0  0  0  0  0  0  0  0  0
  -24.8779  -12.2769   21.8453 C   0  0  0  0  0  0  0  0  0  0  0  0
  -25.1975  -13.8694   20.3631 C   0  0  0  0  0  0  0  0  0  0  0  0
  -22.8714  -13.7810   21.2740 C   0  0  0  0  0  0  0  0  0  0  0  0
  -23.9585  -25.0016   24.5045 C   0  0  0  0  0  0  0  0  0  0  0  0
  -23.7217  -27.5819   22.5530 C   0  0  0  0  0  0  0  0  0  0  0  0
  -24.9277  -29.2994   19.8618 C   0  0  0  0  0  0  0  0  0  0  0  0
  -31.1769  -13.9615   20.6619 C   0  0  0  0  0  0  0  0  0  0  0  0
  -22.2555  -23.6349   29.1186 C   0  0  0  0  0  0  0  0  0  0  0  0
  -26.3181  -25.8880   24.5535 C   0  0  0  0  0  0  0  0  0  0  0  0
  -25.2613  -25.7320   21.7961 C   0  0  0  0  0  0  0  0  0  0  0  0
  -21.7937  -24.5939   28.0244 C   0  0  0  0  0  0  0  0  0  0  0  0
  -29.1858  -12.6875   17.9993 C   0  0  0  0  0  0  0  0  0  0  0  0
  -21.7949  -23.8965   26.6678 C   0  0  0  0  0  0  0  0  0  0  0  0
  -27.7974  -12.5328   18.6225 C   0  0  0  0  0  0  0  0  0  0  0  0
  -30.2927  -12.3542   18.9972 C   0  0  0  0  0  0  0  0  0  0  0  0
  -28.8325  -12.9388   20.8946 C   0  0  0  0  0  0  0  0  0  0  0  0
  -23.2066  -23.4354   26.2857 C   0  0  1  0  0  0  0  0  0  0  0  0
  -24.8542  -26.1779   24.2370 C   0  0  1  0  0  0  0  0  0  0  0  0
  -27.6849  -13.3181   19.9431 C   0  0  2  0  0  0  0  0  0  0  0  0
  -27.1825  -17.3706   22.0593 C   0  0  0  0  0  0  0  0  0  0  0  0
  -24.5028  -31.3535   18.4843 C   0  0  0  0  0  0  0  0  0  0  0  0
  -21.3746  -26.1827   21.1951 C   0  0  0  0  0  0  0  0  0  0  0  0
  -21.6110  -27.7880   19.2885 C   0  0  0  0  0  0  0  0  0  0  0  0
  -21.0535  -28.6348   21.5677 C   0  0  0  0  0  0  0  0  0  0  0  0
  -27.5764  -30.4375   20.5312 C   0  0  0  0  0  0  0  0  0  0  0  0
  -27.8409  -18.4350   22.9315 C   0  0  0  0  0  0  0  0  0  0  0  0
  -31.7703  -16.9876   21.8763 C   0  0  0  0  0  0  0  0  0  0  0  0
  -31.9168  -15.5680   22.4028 C   0  0  0  0  0  0  0  0  0  0  0  0
  -23.3903  -27.7930   21.0954 C   0  0  1  0  0  0  0  0  0  0  0  0
  -25.2556  -30.7691   19.6694 C   0  0  2  0  0  0  0  0  0  0  0  0
  -21.8793  -27.5834   20.7947 C   0  0  0  0  0  0  0  0  0  0  0  0
  -26.1599  -12.1525   21.4917 N   0  0  0  0  0  0  0  0  0  0  0  0
  -26.3241  -13.1346   20.5892 N   0  0  0  0  0  0  0  0  0  0  0  0
  -24.6440  -26.5658   22.8407 N   0  0  0  0  0  0  0  0  0  0  0  0
  -30.1290  -13.1335   20.2268 N   0  0  0  0  0  0  0  0  0  0  0  0
  -25.1871  -14.8955   19.4860 N   0  0  0  0  0  0  0  0  0  0  0  0
  -22.0094  -13.1147   22.1557 N   0  0  0  0  0  0  0  0  0  0  0  0
  -30.4818  -17.5149   22.1996 N   0  0  0  0  0  0  0  0  0  0  0  0
  -23.9927  -24.5543   25.8115 N   0  0  0  0  0  0  0  0  0  0  0  0
  -23.8895  -29.1200   20.7514 N   0  0  0  0  0  0  0  0  0  0  0  0
  -30.9371  -14.6702   21.8328 N   0  0  0  0  0  0  0  0  0  0  0  0
  -26.7161  -30.9472   19.4325 N   0  3  0  0  0  0  0  0  0  0  0  0
  -22.4314  -14.7357   20.5894 O   0  0  0  0  0  0  0  0  0  0  0  0
  -23.2850  -24.5354   23.5931 O   0  0  0  0  0  0  0  0  0  0  0  0
  -23.1874  -28.2970   23.4044 O   0  0  0  0  0  0  0  0  0  0  0  0
  -25.5296  -28.4007   19.2784 O   0  0  0  0  0  0  0  0  0  0  0  0
  -32.2449  -14.0658   20.0491 O   0  0  0  0  0  0  0  0  0  0  0  0
  -22.6594   -8.8055   25.6261 O   0  0  0  0  0  0  0  0  0  0  0  0
  -28.8973  -22.6531   20.6838 O   0  0  0  0  0  0  0  0  0  1  0  0
  -25.5898   -7.7642   30.1793 F   0  0  0  0  0  0  0  0  0  0  0  0
  -21.6571   -9.4177   28.1288 F   0  0  0  0  0  0  0  0  0  0  0  0
  1  2  1  0  0  0  0
  1  5  2  0  0  0  0
  2  6  2  0  0  0  0
  3  9  2  0  0  0  0
  3 18  1  0  0  0  0
  4 10  1  0  0  0  0
  4 18  2  0  0  0  0
  5 20  1  0  0  0  0
  6 22  1  0  0  0  0
  7 11  2  0  0  0  0
  7 21  1  0  0  0  0
  8 12  2  0  0  0  0
  8 25  1  0  0  0  0
  9 26  1  0  0  0  0
 10 26  2  0  0  0  0
 11 27  1  0  0  0  0
 12 28  1  0  0  0  0
 13 14  2  0  0  0  0
 13 29  1  0  0  0  0
 14 30  1  0  0  0  0
 15 23  1  0  0  0  0
 15 27  2  0  0  0  0
 16 24  1  0  0  0  0
 16 28  2  0  0  0  0
 17 30  2  0  0  0  0
 17 31  1  0  0  0  0
 18 32  1  0  0  0  0
 19 32  1  0  0  0  0
 19 33  2  0  0  0  0
 19 34  1  0  0  0  0
 20 22  2  0  0  0  0
 20 39  1  0  0  0  0
 21 23  2  0  0  0  0
 21 40  1  0  0  0  0
 22 48  1  0  0  0  0
 23 41  1  0  0  0  0
 24 25  2  0  0  0  0
 24 57  1  0  0  0  0
 25 69  1  0  0  0  0
 26 79  1  0  0  0  0
 27 80  1  0  0  0  0
 28 80  1  0  0  0  0
 29 31  2  0  0  0  0
 29 79  1  0  0  0  0
 30 81  1  0  0  0  0
 31 82  1  0  0  0  0
 32 63  2  0  0  0  0
 33 64  1  0  0  0  0
 33 67  1  0  0  0  0
 34 68  1  0  0  0  0
 34 74  2  0  0  0  0
 35 49  1  0  0  0  0
 35 70  1  0  0  0  0
 35 75  2  0  0  0  0
 36 60  1  0  0  0  0
 36 65  1  0  0  0  0
 36 76  2  0  0  0  0
 37 61  1  0  0  0  0
 37 71  1  0  0  0  0
 37 77  2  0  0  0  0
 38 66  1  0  0  0  0
 38 72  1  0  0  0  0
 38 78  2  0  0  0  0
 39 42  1  0  0  0  0
 40 49  1  0  0  0  0
 41 65  1  0  0  0  0
 42 44  1  0  0  0  0
 43 45  1  0  0  0  0
 43 46  1  0  0  0  0
 44 48  1  0  0  0  0
 45 50  1  0  0  0  0
 46 66  1  0  0  0  0
 47 50  1  0  0  0  0
 47 66  1  0  0  0  0
 48 70  1  0  0  0  0
 49 65  1  0  0  0  0
 50 64  1  0  0  0  0
 51 57  1  0  0  0  0
 52 61  1  0  0  0  0
 53 62  1  0  0  0  0
 54 62  1  0  0  0  0
 55 62  1  0  0  0  0
 56 73  1  0  0  0  0
 58 59  1  0  0  0  0
 58 69  1  0  0  0  0
 59 72  1  0  0  0  0
 60 62  1  0  0  0  0
 60 71  1  0  0  0  0
 61 73  1  0  0  0  0
 63 64  1  0  0  0  0
M  CHG  1  73   1
M  ISO  4  28 101  38 100  72 100  80 101
M  END
> <Batch ID>
0136

> <Smiles>
CCc1c[101c:1]([101O:1]c2ccc3c(c2)CN(C(=O)C(NC(=O)C(C)NC)C(C)(C)C)C(C(=O)NC2CCCc4ccccc42)C3)ccc1NCC[100NH:0][100C:0](=O)N1CCCC(n2nc(-c3ccc(Oc4ccc(F)cc4F)cc3)c(C(N)=O)c2N)C1

> <Shape>
0.193

> <Color>
0.119

> <Negative vol penalty>
0.000

$$$$

  -OEChem-04052321023D

 83 91  0     1  0  0  0  0  0999 V2000
  -29.2139  -11.3916   19.2311 C   0  0  0  0  0  0  0  0  0  0  0  0
  -29.2697  -12.5052   18.3992 C   0  0  0  0  0  0  0  0  0  0  0  0
  -21.8836  -20.8986   24.9673 C   0  0  0  0  0  0  0  0  0  0  0  0
  -23.6182  -22.4910   24.4263 C   0  0  0  0  0  0  0  0  0  0  0  0
  -28.7422  -11.5212   20.5367 C   0  0  0  0  0  0  0  0  0  0  0  0
  -28.8526  -13.7489   18.8720 C   0  0  0  0  0  0  0  0  0  0  0  0
  -30.2754  -20.7382   18.2062 C   0  0  0  0  0  0  0  0  0  0  0  0
  -22.7875  -19.8520   24.7850 C   0  0  0  0  0  0  0  0  0  0  0  0
  -24.5221  -21.4444   24.2440 C   0  0  0  0  0  0  0  0  0  0  0  0
  -29.6345  -21.9470   17.9383 C   0  0  0  0  0  0  0  0  0  0  0  0
  -25.2932  -18.3933   26.5246 C   0  0  0  0  0  0  0  0  0  0  0  0
  -25.3097  -17.3771   27.4800 C   0  0  0  0  0  0  0  0  0  0  0  0
  -28.9124  -22.0667   20.2369 C   0  0  0  0  0  0  0  0  0  0  0  0
  -24.7486  -15.7626   25.7725 C   0  0  0  0  0  0  0  0  0  0  0  0
  -22.2990  -22.2181   24.7879 C   0  0  0  0  0  0  0  0  0  0  0  0
  -20.6584  -23.6181   26.1504 C   0  0  0  0  0  0  0  0  0  0  0  0
  -28.3282  -12.7690   21.0289 C   0  0  0  0  0  0  0  0  0  0  0  0
  -30.2302  -20.1781   19.4910 C   0  0  0  0  0  0  0  0  0  0  0  0
  -28.3737  -13.8951   20.1850 C   0  0  0  0  0  0  0  0  0  0  0  0
  -29.5557  -20.8519   20.5191 C   0  0  0  0  0  0  0  0  0  0  0  0
  -24.1068  -20.1249   24.4234 C   0  0  0  0  0  0  0  0  0  0  0  0
  -28.9505  -22.6100   18.9530 C   0  0  0  0  0  0  0  0  0  0  0  0
  -25.0043  -18.0941   25.1931 C   0  0  0  0  0  0  0  0  0  0  0  0
  -25.0374  -16.0618   27.1039 C   0  0  0  0  0  0  0  0  0  0  0  0
  -24.7320  -16.7788   24.8171 C   0  0  0  0  0  0  0  0  0  0  0  0
  -21.3656  -23.2996   24.9755 C   0  0  0  0  0  0  0  0  0  0  0  0
  -19.9113  -24.7202   25.8134 C   0  0  0  0  0  0  0  0  0  0  0  0
  -20.6755  -22.9752   27.4318 C   0  0  0  0  0  0  0  0  0  0  0  0
  -29.0864  -17.4805   20.7232 C   0  0  0  0  0  0  0  0  0  0  0  0
  -30.5290  -18.5586   23.4212 C   0  0  0  0  0  0  0  0  0  0  0  0
  -30.8970  -21.7154   25.1291 C   0  0  0  0  0  0  0  0  0  0  0  0
  -20.5818  -28.9883   21.6679 C   0  0  0  0  0  0  0  0  0  0  0  0
  -27.7813  -12.8508   22.4321 C   0  0  0  0  0  0  0  0  0  0  0  0
  -30.9492  -18.8868   19.7703 C   0  0  0  0  0  0  0  0  0  0  0  0
  -29.4946  -20.3031   21.9204 C   0  0  0  0  0  0  0  0  0  0  0  0
  -27.7104  -14.2753   22.9761 C   0  0  0  0  0  0  0  0  0  0  0  0
  -17.7964  -26.8060   22.0627 C   0  0  0  0  0  0  0  0  0  0  0  0
  -27.0973  -15.2124   21.9404 C   0  0  0  0  0  0  0  0  0  0  0  0
  -18.3315  -25.6887   22.9600 C   0  0  0  0  0  0  0  0  0  0  0  0
  -29.3572  -27.1432   18.5932 C   0  0  0  0  0  0  0  0  0  0  0  0
  -27.5987  -25.9125   19.6154 C   0  0  0  0  0  0  0  0  0  0  0  0
  -18.8601  -27.3046   21.0871 C   0  0  0  0  0  0  0  0  0  0  0  0
  -20.6649  -26.6007   22.6106 C   0  0  0  0  0  0  0  0  0  0  0  0
  -27.9535  -15.2659   20.6693 C   0  0  1  0  0  0  0  0  0  0  0  0
  -30.4041  -18.1512   20.9905 C   0  0  1  0  0  0  0  0  0  0  0  0
  -19.6451  -26.1038   23.6495 C   0  0  2  0  0  0  0  0  0  0  0  0
  -28.3134  -27.2546   19.7036 C   0  0  2  0  0  0  0  0  0  0  0  0
  -29.8486  -25.6949   18.6882 C   0  0  2  0  0  0  0  0  0  0  0  0
  -28.7491  -24.9232   19.4338 C   0  0  2  0  0  0  0  0  0  1  0  0
  -32.7016  -22.5378   26.6667 C   0  0  0  0  0  0  0  0  0  0  0  0
  -28.7000  -17.5406   25.6412 C   0  0  0  0  0  0  0  0  0  0  0  0
  -29.3564  -19.5370   27.0020 C   0  0  0  0  0  0  0  0  0  0  0  0
  -31.0836  -17.8705   26.3224 C   0  0  0  0  0  0  0  0  0  0  0  0
  -31.3847  -24.1124   23.4632 C   0  0  0  0  0  0  0  0  0  0  0  0
  -22.3706  -30.5662   22.3533 C   0  0  0  0  0  0  0  0  0  0  0  0
  -26.4292  -28.4481   20.5902 C   0  0  0  0  0  0  0  0  0  0  0  0
  -23.4012  -30.6751   21.2451 C   0  0  0  0  0  0  0  0  0  0  0  0
  -25.4664  -29.5949   20.3469 C   0  0  0  0  0  0  0  0  0  0  0  0
  -30.1108  -19.4266   24.5834 C   0  0  1  0  0  0  0  0  0  0  0  0
  -32.1637  -22.5441   25.2443 C   0  0  2  0  0  0  0  0  0  0  0  0
  -29.8013  -18.5969   25.8614 C   0  0  0  0  0  0  0  0  0  0  0  0
  -21.0920  -24.1320   23.9674 N   0  0  0  0  0  0  0  0  0  0  0  0
  -20.2047  -24.9844   24.5079 N   0  0  0  0  0  0  0  0  0  0  0  0
  -30.2079  -19.0344   22.1419 N   0  0  0  0  0  0  0  0  0  0  0  0
  -20.0797  -27.6836   21.8047 N   0  0  0  0  0  0  0  0  0  0  0  0
  -19.0386  -25.4794   26.5093 N   0  0  0  0  0  0  0  0  0  0  0  0
  -21.6061  -23.4101   28.3852 N   0  0  0  0  0  0  0  0  0  0  0  0
  -29.1127  -16.1074   20.8759 N   0  0  0  0  0  0  0  0  0  0  0  0
  -31.1688  -20.4163   24.7552 N   0  0  0  0  0  0  0  0  0  0  0  0
  -21.7378  -29.2665   22.3869 N   0  0  0  0  0  0  0  0  0  0  0  0
  -27.4156  -28.3808   19.5184 N   0  0  0  0  0  0  0  0  0  0  0  0
  -31.8967  -23.9560   24.8490 N   0  3  0  0  0  0  0  0  0  0  0  0
  -24.4368  -29.6200   21.4151 N   0  3  0  0  0  0  0  0  0  0  0  0
  -19.8997  -22.0316   27.7171 O   0  0  0  0  0  0  0  0  0  0  0  0
  -28.1171  -18.1588   20.4037 O   0  0  0  0  0  0  0  0  0  0  0  0
  -31.1252  -17.5011   23.6399 O   0  0  0  0  0  0  0  0  0  0  0  0
  -29.7786  -22.1736   25.3524 O   0  0  0  0  0  0  0  0  0  0  0  0
  -20.0370  -29.8437   20.9618 O   0  0  0  0  0  0  0  0  0  0  0  0
  -31.0444  -25.6420   19.4603 O   0  0  0  0  0  0  0  0  0  0  0  0
  -24.9891  -19.1039   24.2456 O   0  0  0  0  0  0  0  0  0  0  0  0
  -28.3236  -23.7898   18.6940 O   0  0  0  0  0  0  0  0  0  1  0  0
  -25.0548  -15.0859   28.0212 F   0  0  0  0  0  0  0  0  0  0  0  0
  -24.4550  -16.4851   23.5393 F   0  0  0  0  0  0  0  0  0  0  0  0
  1  2  1  0  0  0  0
  1  5  2  0  0  0  0
  2  6  2  0  0  0  0
  3  8  2  0  0  0  0
  3 15  1  0  0  0  0
  4  9  1  0  0  0  0
  4 15  2  0  0  0  0
  5 17  1  0  0  0  0
  6 19  1  0  0  0  0
  7 10  2  0  0  0  0
  7 18  1  0  0  0  0
  8 21  1  0  0  0  0
  9 21  2  0  0  0  0
 10 22  1  0  0  0  0
 11 12  2  0  0  0  0
 11 23  1  0  0  0  0
 12 24  1  0  0  0  0
 13 20  1  0  0  0  0
 13 22  2  0  0  0  0
 14 24  2  0  0  0  0
 14 25  1  0  0  0  0
 15 26  1  0  0  0  0
 16 26  1  0  0  0  0
 16 27  2  0  0  0  0
 16 28  1  0  0  0  0
 17 19  2  0  0  0  0
 17 33  1  0  0  0  0
 18 20  2  0  0  0  0
 18 34  1  0  0  0  0
 19 44  1  0  0  0  0
 20 35  1  0  0  0  0
 21 80  1  0  0  0  0
 22 81  1  0  0  0  0
 23 25  2  0  0  0  0
 23 80  1  0  0  0  0
 24 82  1  0  0  0  0
 25 83  1  0  0  0  0
 26 62  2  0  0  0  0
 27 63  1  0  0  0  0
 27 66  1  0  0  0  0
 28 67  1  0  0  0  0
 28 74  2  0  0  0  0
 29 45  1  0  0  0  0
 29 68  1  0  0  0  0
 29 75  2  0  0  0  0
 30 59  1  0  0  0  0
 30 64  1  0  0  0  0
 30 76  2  0  0  0  0
 31 60  1  0  0  0  0
 31 69  1  0  0  0  0
 31 77  2  0  0  0  0
 32 65  1  0  0  0  0
 32 70  1  0  0  0  0
 32 78  2  0  0  0  0
 33 36  1  0  0  0  0
 34 45  1  0  0  0  0
 35 64  1  0  0  0  0
 36 38  1  0  0  0  0
 37 39  1  0  0  0  0
 37 42  1  0  0  0  0
 38 44  1  0  0  0  0
 39 46  1  0  0  0  0
 40 47  1  0  0  0  0
 40 48  1  0  0  0  0
 41 47  1  0  0  0  0
 41 49  1  0  0  0  0
 42 65  1  0  0  0  0
 43 46  1  0  0  0  0
 43 65  1  0  0  0  0
 44 68  1  0  0  0  0
 45 64  1  0  0  0  0
 46 63  1  0  0  0  0
 47 71  1  0  0  0  0
 48 49  1  0  0  0  0
 48 79  1  0  0  0  0
 49 81  1  0  0  0  0
 50 60  1  0  0  0  0
 51 61  1  0  0  0  0
 52 61  1  0  0  0  0
 53 61  1  0  0  0  0
 54 72  1  0  0  0  0
 55 57  1  0  0  0  0
 55 70  1  0  0  0  0
 56 58  1  0  0  0  0
 56 71  1  0  0  0  0
 57 73  1  0  0  0  0
 58 73  1  0  0  0  0
 59 61  1  0  0  0  0
 59 69  1  0  0  0  0
 60 72  1  0  0  0  0
 62 63  1  0  0  0  0
M  CHG  2  72   1  73   1
M  ISO  4  32 100  49 101  70 100  81 101
M  END
> <Batch ID>
0136

> <Smiles>
CNC(C)C(=O)NC(C(=O)N1Cc2cc([101O:1][101CH:1]3CC(NCCNCC[100NH:0][100C:0](=O)N4CCCC(n5nc(-c6ccc(Oc7ccc(F)cc7F)cc6)c(C(N)=O)c5N)C4)CC3O)ccc2CC1C(=O)NC1CCCc2ccccc21)C(C)(C)C

> <Shape>
0.209

> <Color>
0.060

> <Negative vol penalty>
0.000

$$$$

  -OEChem-04052321023D

 88 98  0     1  0  0  0  0  0999 V2000
  -16.4025  -29.1261   23.6308 C   0  0  0  0  0  0  0  0  0  0  0  0
  -17.2250  -28.0818   24.0410 C   0  0  0  0  0  0  0  0  0  0  0  0
  -24.7621   -8.7502   21.4272 C   0  0  0  0  0  0  0  0  0  0  0  0
  -23.5135  -10.7966   21.7277 C   0  0  0  0  0  0  0  0  0  0  0  0
  -16.9041  -30.1174   22.7884 C   0  0  0  0  0  0  0  0  0  0  0  0
  -18.5494  -28.0276   23.6080 C   0  0  0  0  0  0  0  0  0  0  0  0
  -25.7897  -22.3999   22.4360 C   0  0  0  0  0  0  0  0  0  0  0  0
  -27.9482  -21.8562   23.3753 C   0  0  0  0  0  0  0  0  0  0  0  0
  -23.3736  -25.9640   26.7664 C   0  0  0  0  0  0  0  0  0  0  0  0
  -24.0278   -8.1518   22.4511 C   0  0  0  0  0  0  0  0  0  0  0  0
  -22.7791  -10.1982   22.7516 C   0  0  0  0  0  0  0  0  0  0  0  0
  -25.3807  -22.9068   23.6695 C   0  0  0  0  0  0  0  0  0  0  0  0
  -27.5391  -22.3631   24.6088 C   0  0  0  0  0  0  0  0  0  0  0  0
  -24.0452  -24.7423   26.7611 C   0  0  0  0  0  0  0  0  0  0  0  0
  -22.2361   -5.9710   24.7421 C   0  0  0  0  0  0  0  0  0  0  0  0
  -21.7578   -4.6785   24.5271 C   0  0  0  0  0  0  0  0  0  0  0  0
  -25.6689  -25.6484   25.2242 C   0  0  0  0  0  0  0  0  0  0  0  0
  -20.4936   -5.4629   22.6236 C   0  0  0  0  0  0  0  0  0  0  0  0
  -24.5050  -10.0727   21.0656 C   0  0  0  0  0  0  0  0  0  0  0  0
  -25.3456  -10.2766   18.6657 C   0  0  0  0  0  0  0  0  0  0  0  0
  -27.0735  -21.8746   22.2890 C   0  0  0  0  0  0  0  0  0  0  0  0
  -18.2380  -30.0806   22.3527 C   0  0  0  0  0  0  0  0  0  0  0  0
  -23.8392  -27.0356   25.9908 C   0  0  0  0  0  0  0  0  0  0  0  0
  -19.0690  -29.0187   22.7579 C   0  0  0  0  0  0  0  0  0  0  0  0
  -25.0028  -26.8835   25.2234 C   0  0  0  0  0  0  0  0  0  0  0  0
  -23.0363   -8.8757   23.1132 C   0  0  0  0  0  0  0  0  0  0  0  0
  -26.2554  -22.8884   24.7558 C   0  0  0  0  0  0  0  0  0  1  0  0
  -25.1914  -24.5834   25.9877 C   0  0  0  0  0  0  0  0  0  0  0  0
  -21.8430   -7.0095   23.8979 C   0  0  0  0  0  0  0  0  0  0  0  0
  -20.8866   -4.4244   23.4679 C   0  0  0  0  0  0  0  0  0  0  0  0
  -20.9718   -6.7555   22.8386 C   0  0  0  0  0  0  0  0  0  0  0  0
  -25.2636  -10.6916   20.0084 C   0  0  0  0  0  0  0  0  0  0  0  0
  -26.1852  -11.1891   18.0750 C   0  0  0  0  0  0  0  0  0  0  0  0
  -24.7188   -9.1657   18.0109 C   0  0  0  0  0  0  0  0  0  0  0  0
  -22.6606  -28.7375   23.5787 C   0  0  0  0  0  0  0  0  0  0  0  0
  -25.3509  -30.4961   24.0167 C   0  0  0  0  0  0  0  0  0  0  0  0
  -28.5597  -30.6443   25.1694 C   0  0  0  0  0  0  0  0  0  0  0  0
  -27.5172  -16.8225   19.7315 C   0  0  0  0  0  0  0  0  0  0  0  0
  -18.7218  -31.1491   21.4046 C   0  0  0  0  0  0  0  0  0  0  0  0
  -23.1185  -28.3553   26.0283 C   0  0  0  0  0  0  0  0  0  0  0  0
  -25.5553  -28.0091   24.3891 C   0  0  0  0  0  0  0  0  0  0  0  0
  -20.2425  -31.2211   21.2927 C   0  0  0  0  0  0  0  0  0  0  0  0
  -29.5767  -13.6302   20.3200 C   0  0  0  0  0  0  0  0  0  0  0  0
  -20.8316  -29.8250   21.1182 C   0  0  0  0  0  0  0  0  0  0  0  0
  -29.1669  -21.4284   19.0093 C   0  0  0  0  0  0  0  0  0  0  0  0
  -28.9452  -12.8928   19.1428 C   0  0  0  0  0  0  0  0  0  0  0  0
  -29.4389  -19.9337   19.1529 C   0  0  0  0  0  0  0  0  0  0  0  0
  -29.1355  -26.5669   21.1563 C   0  0  0  0  0  0  0  0  0  0  0  0
  -30.5632  -26.6470   20.6948 C   0  0  0  0  0  0  0  0  0  0  0  0
  -27.7995  -19.8088   21.0641 C   0  0  0  0  0  0  0  0  0  0  0  0
  -29.3522  -15.1348   20.2056 C   0  0  0  0  0  0  0  0  0  0  0  0
  -26.9929  -14.4000   19.8642 C   0  0  0  0  0  0  0  0  0  0  0  0
  -27.5200  -21.3218   20.9437 C   0  0  2  0  0  0  0  0  0  0  0  0
  -20.5182  -28.9385   22.3296 C   0  0  1  0  0  0  0  0  0  0  0  0
  -23.3901  -29.2194   24.8007 C   0  0  1  0  0  0  0  0  0  0  0  0
  -28.7378  -22.0719   20.3397 C   0  0  2  0  0  0  0  0  0  0  0  0
  -27.4605  -13.2643   18.9368 C   0  0  2  0  0  0  0  0  0  0  0  0
  -28.2254  -19.2036   19.7247 C   0  0  2  0  0  0  0  0  0  0  0  0
  -29.5844  -25.7747   19.9617 C   0  0  0  0  0  0  0  0  0  0  0  0
  -30.5167  -32.2043   25.3534 C   0  0  0  0  0  0  0  0  0  0  0  0
  -25.9429  -30.0995   21.0498 C   0  0  0  0  0  0  0  0  0  0  0  0
  -28.2970  -30.8269   21.4936 C   0  0  0  0  0  0  0  0  0  0  0  0
  -26.4077  -32.4022   21.9076 C   0  0  0  0  0  0  0  0  0  0  0  0
  -28.5479  -30.4965   28.1253 C   0  0  0  0  0  0  0  0  0  0  0  0
  -28.4417  -23.5585   20.1077 C   0  0  0  0  0  0  0  0  0  0  0  0
  -26.7590  -30.4492   23.4742 C   0  0  1  0  0  0  0  0  0  0  0  0
  -29.2713  -31.6647   26.0394 C   0  0  2  0  0  0  0  0  0  0  0  0
  -26.8404  -30.9224   21.9954 C   0  0  0  0  0  0  0  0  0  0  0  0
  -25.9930  -11.7826   20.2564 N   0  0  0  0  0  0  0  0  0  0  0  0
  -26.5414  -12.0610   19.0615 N   0  0  0  0  0  0  0  0  0  0  0  0
  -24.8116  -29.2780   24.4541 N   0  0  0  0  0  0  0  0  0  0  0  0
  -27.9612  -15.4973   19.9055 N   0  0  0  0  0  0  0  0  0  0  0  0
  -26.6461  -11.3227   16.8132 N   0  0  0  0  0  0  0  0  0  0  0  0
  -23.4591   -9.3582   17.4273 N   0  0  0  0  0  0  0  0  0  0  0  0
  -21.3921  -29.2665   23.4355 N   0  0  0  0  0  0  0  0  0  0  0  0
  -27.5780  -31.2279   24.3968 N   0  0  0  0  0  0  0  0  0  0  0  0
  -28.5062  -17.7933   19.8684 N   0  0  0  0  0  0  0  0  0  0  0  0
  -29.7184  -24.2973   20.1197 N   0  3  0  0  0  0  0  0  0  0  0  0
  -29.6777  -31.0482   27.3339 N   0  3  0  0  0  0  0  0  0  0  0  0
  -25.2524   -8.0317   17.9596 O   0  0  0  0  0  0  0  0  0  0  0  0
  -23.2086  -27.9454   22.8211 O   0  0  0  0  0  0  0  0  0  0  0  0
  -24.7543  -31.5750   24.0577 O   0  0  0  0  0  0  0  0  0  0  0  0
  -28.8484  -29.4497   25.1720 O   0  0  0  0  0  0  0  0  0  0  0  0
  -26.3441  -17.1137   19.4794 O   0  0  0  0  0  0  0  0  0  0  0  0
  -25.8485  -23.3917   25.9802 O   0  0  0  0  0  0  0  0  0  1  0  0
  -22.3194   -8.2920   24.1122 O   0  0  0  0  0  0  0  0  0  0  0  0
  -20.4286   -3.1829   23.2606 F   0  0  0  0  0  0  0  0  0  0  0  0
  -20.5916   -7.7489   22.0235 F   0  0  0  0  0  0  0  0  0  0  0  0
  1  2  1  0  0  0  0
  1  5  2  0  0  0  0
  2  6  2  0  0  0  0
  3 10  2  0  0  0  0
  3 19  1  0  0  0  0
  4 11  1  0  0  0  0
  4 19  2  0  0  0  0
  5 22  1  0  0  0  0
  6 24  1  0  0  0  0
  7 12  2  0  0  0  0
  7 21  1  0  0  0  0
  8 13  1  0  0  0  0
  8 21  2  0  0  0  0
  9 14  2  0  0  0  0
  9 23  1  0  0  0  0
 10 26  1  0  0  0  0
 11 26  2  0  0  0  0
 12 27  1  0  0  0  0
 13 27  2  0  0  0  0
 14 28  1  0  0  0  0
 15 16  2  0  0  0  0
 15 29  1  0  0  0  0
 16 30  1  0  0  0  0
 17 25  1  0  0  0  0
 17 28  2  0  0  0  0
 18 30  2  0  0  0  0
 18 31  1  0  0  0  0
 19 32  1  0  0  0  0
 20 32  1  0  0  0  0
 20 33  2  0  0  0  0
 20 34  1  0  0  0  0
 21 53  1  0  0  0  0
 22 24  2  0  0  0  0
 22 39  1  0  0  0  0
 23 25  2  0  0  0  0
 23 40  1  0  0  0  0
 24 54  1  0  0  0  0
 25 41  1  0  0  0  0
 26 86  1  0  0  0  0
 27 85  1  0  0  0  0
 28 85  1  0  0  0  0
 29 31  2  0  0  0  0
 29 86  1  0  0  0  0
 30 87  1  0  0  0  0
 31 88  1  0  0  0  0
 32 69  2  0  0  0  0
 33 70  1  0  0  0  0
 33 73  1  0  0  0  0
 34 74  1  0  0  0  0
 34 80  2  0  0  0  0
 35 55  1  0  0  0  0
 35 75  1  0  0  0  0
 35 81  2  0  0  0  0
 36 66  1  0  0  0  0
 36 71  1  0  0  0  0
 36 82  2  0  0  0  0
 37 67  1  0  0  0  0
 37 76  1  0  0  0  0
 37 83  2  0  0  0  0
 38 72  1  0  0  0  0
 38 77  1  0  0  0  0
 38 84  2  0  0  0  0
 39 42  1  0  0  0  0
 40 55  1  0  0  0  0
 41 71  1  0  0  0  0
 42 44  1  0  0  0  0
 43 46  1  0  0  0  0
 43 51  1  0  0  0  0
 44 54  1  0  0  0  0
 45 47  1  0  0  0  0
 45 56  1  0  0  0  0
 46 57  1  0  0  0  0
 47 58  1  0  0  0  0
 48 49  1  0  0  0  0
 48 59  1  0  0  0  0
 49 59  1  0  0  0  0
 50 53  1  0  0  0  0
 50 58  1  0  0  0  0
 51 72  1  0  0  0  0
 52 57  1  0  0  0  0
 52 72  1  0  0  0  0
 53 56  1  0  0  0  0
 54 75  1  0  0  0  0
 55 71  1  0  0  0  0
 56 65  1  0  0  0  0
 57 70  1  0  0  0  0
 58 77  1  0  0  0  0
 59 78  1  0  0  0  0
 60 67  1  0  0  0  0
 61 68  1  0  0  0  0
 62 68  1  0  0  0  0
 63 68  1  0  0  0  0
 64 79  1  0  0  0  0
 65 78  1  0  0  0  0
 66 68  1  0  0  0  0
 66 76  1  0  0  0  0
 67 79  1  0  0  0  0
 69 70  1  0  0  0  0
M  CHG  2  78   1  79   1
M  ISO  4  27 101  38 100  77 100  85 101
M  END
> <Batch ID>
0136

> <Smiles>
CNC(C)C(=O)NC(C(=O)N1Cc2cc([101O:1][101c:1]3ccc(C4CC([100NH:0][100C:0](=O)N5CCCC(n6nc(-c7ccc(Oc8ccc(F)cc8F)cc7)c(C(N)=O)c6N)C5)CCC4CNC4CC4)cc3)ccc2CC1C(=O)NC1CCCc2ccccc21)C(C)(C)C

> <Shape>
0.283

> <Color>
0.069

> <Negative vol penalty>
0.000

$$$$

  -OEChem-04052321023D

 84 93  0     1  0  0  0  0  0999 V2000
  -18.8104  -26.3145   25.6527 C   0  0  0  0  0  0  0  0  0  0  0  0
  -19.7637  -25.7979   24.7811 C   0  0  0  0  0  0  0  0  0  0  0  0
  -26.5950  -13.2127   21.7848 C   0  0  0  0  0  0  0  0  0  0  0  0
  -26.0288  -14.7428   20.0030 C   0  0  0  0  0  0  0  0  0  0  0  0
  -18.2688  -27.5784   25.4219 C   0  0  0  0  0  0  0  0  0  0  0  0
  -20.1752  -26.5444   23.6776 C   0  0  0  0  0  0  0  0  0  0  0  0
  -32.2256  -23.5217   19.7801 C   0  0  0  0  0  0  0  0  0  0  0  0
  -25.7791  -26.6864   21.2114 C   0  0  0  0  0  0  0  0  0  0  0  0
  -31.7565  -22.6055   20.7238 C   0  0  0  0  0  0  0  0  0  0  0  0
  -25.2904  -12.7193   21.7757 C   0  0  0  0  0  0  0  0  0  0  0  0
  -24.7241  -14.2494   19.9938 C   0  0  0  0  0  0  0  0  0  0  0  0
  -26.3365  -26.0362   20.1113 C   0  0  0  0  0  0  0  0  0  0  0  0
  -23.4498  -10.5786   19.9149 C   0  0  0  0  0  0  0  0  0  0  0  0
  -23.2797   -9.1950   19.9628 C   0  0  0  0  0  0  0  0  0  0  0  0
  -29.9016  -21.9923   19.2735 C   0  0  0  0  0  0  0  0  0  0  0  0
  -25.8843  -27.9724   18.7454 C   0  0  0  0  0  0  0  0  0  0  0  0
  -22.0354   -9.4194   22.0216 C   0  0  0  0  0  0  0  0  0  0  0  0
  -26.9642  -14.2245   20.8985 C   0  0  0  0  0  0  0  0  0  0  0  0
  -29.4044  -14.2639   20.1558 C   0  0  0  0  0  0  0  0  0  0  0  0
  -18.6809  -28.3448   24.3204 C   0  0  0  0  0  0  0  0  0  0  0  0
  -31.5177  -23.6683   18.5988 C   0  0  0  0  0  0  0  0  0  0  0  0
  -25.2594  -27.9826   21.0840 C   0  0  0  0  0  0  0  0  0  0  0  0
  -19.6376  -27.8192   23.4312 C   0  0  0  0  0  0  0  0  0  0  0  0
  -30.3674  -22.9114   18.3481 C   0  0  0  0  0  0  0  0  0  0  0  0
  -25.3232  -28.6379   19.8460 C   0  0  0  0  0  0  0  0  0  0  0  0
  -30.6028  -21.8461   20.4723 C   0  0  0  0  0  0  0  0  0  0  0  0
  -24.3550  -13.2376   20.8802 C   0  0  0  0  0  0  0  0  0  0  0  0
  -26.3866  -26.6781   18.8773 C   0  0  0  0  0  0  0  0  0  0  0  0
  -22.9128  -11.3826   20.9203 C   0  0  0  0  0  0  0  0  0  0  0  0
  -22.5725   -8.6154   21.0162 C   0  0  0  0  0  0  0  0  0  0  0  0
  -22.2056  -10.8030   21.9736 C   0  0  0  0  0  0  0  0  0  0  0  0
  -28.3116  -14.7350   20.9078 C   0  0  0  0  0  0  0  0  0  0  0  0
  -30.4489  -15.0774   20.5213 C   0  0  0  0  0  0  0  0  0  0  0  0
  -29.4694  -13.1873   19.2111 C   0  0  0  0  0  0  0  0  0  0  0  0
  -22.3872  -29.2938   21.4517 C   0  0  0  0  0  0  0  0  0  0  0  0
  -24.0145  -32.0559   20.9564 C   0  0  0  0  0  0  0  0  0  0  0  0
  -26.7516  -33.6092   19.6364 C   0  0  0  0  0  0  0  0  0  0  0  0
  -30.7272  -20.6417   22.6814 C   0  0  0  0  0  0  0  0  0  0  0  0
  -18.0323  -29.6861   24.0858 C   0  0  0  0  0  0  0  0  0  0  0  0
  -24.6856  -28.6805   22.2866 C   0  0  0  0  0  0  0  0  0  0  0  0
  -31.8441  -24.5551   17.4360 C   0  0  0  0  0  0  0  0  0  0  0  0
  -29.8067  -23.2147   16.9921 C   0  0  0  0  0  0  0  0  0  0  0  0
  -24.7973  -30.0371   19.6614 C   0  0  0  0  0  0  0  0  0  0  0  0
  -18.7968  -30.5687   23.1025 C   0  0  0  0  0  0  0  0  0  0  0  0
  -32.0436  -17.7009   24.1967 C   0  0  0  0  0  0  0  0  0  0  0  0
  -19.1959  -29.7690   21.8663 C   0  0  0  0  0  0  0  0  0  0  0  0
  -31.3400  -16.5636   23.4526 C   0  0  0  0  0  0  0  0  0  0  0  0
  -31.1186  -18.8981   24.4082 C   0  0  0  0  0  0  0  0  0  0  0  0
  -29.7668  -18.2672   22.4476 C   0  0  0  0  0  0  0  0  0  0  0  0
  -20.1277  -28.6089   22.2369 C   0  0  1  0  0  0  0  0  0  0  0  0
  -23.7202  -29.8039   21.9214 C   0  0  1  0  0  0  0  0  0  0  0  0
  -30.6782  -17.0644   22.1538 C   0  0  2  0  0  0  0  0  0  0  0  0
  -30.5257  -24.5292   16.6439 C   0  0  1  0  0  0  0  0  0  0  0  0
  -27.7851  -35.8788   19.3573 C   0  0  0  0  0  0  0  0  0  0  0  0
  -29.3253  -26.9220   15.0142 C   0  0  0  0  0  0  0  0  0  0  0  0
  -22.0094  -32.6945   18.7469 C   0  0  0  0  0  0  0  0  0  0  0  0
  -23.6015  -34.4312   17.8999 C   0  0  0  0  0  0  0  0  0  0  0  0
  -22.6297  -34.6424   20.1876 C   0  0  0  0  0  0  0  0  0  0  0  0
  -29.1578  -32.8302   21.1732 C   0  0  0  0  0  0  0  0  0  0  0  0
  -27.5504  -26.8644   16.8118 C   0  0  0  0  0  0  0  0  0  1  0  0
  -24.3839  -32.8764   19.7443 C   0  0  1  0  0  0  0  0  0  0  0  0
  -27.7106  -34.6299   20.2219 C   0  0  2  0  0  0  0  0  0  0  0  0
  -28.6432  -26.0875   16.0861 C   0  0  2  0  0  0  0  0  0  0  0  0
  -23.1644  -33.6340   19.1474 C   0  0  0  0  0  0  0  0  0  0  0  0
  -28.6322  -15.7677   21.6920 N   0  0  0  0  0  0  0  0  0  0  0  0
  -29.9383  -15.9521   21.4347 N   0  0  0  0  0  0  0  0  0  0  0  0
  -24.2402  -30.6751   20.8656 N   0  0  0  0  0  0  0  0  0  0  0  0
  -30.5315  -19.3199   23.1345 N   0  0  0  0  0  0  0  0  0  0  0  0
  -31.7453  -15.1227   20.1473 N   0  0  0  0  0  0  0  0  0  0  0  0
  -28.3035  -12.4538   18.9528 N   0  0  0  0  0  0  0  0  0  0  0  0
  -30.1500  -20.9180   21.4424 N   0  0  0  0  0  0  0  0  0  0  0  0
  -21.4717  -29.0939   22.4672 N   0  0  0  0  0  0  0  0  0  0  0  0
  -25.4820  -33.7434   20.1575 N   0  0  0  0  0  0  0  0  0  0  0  0
  -29.6744  -25.6780   17.0830 N   0  3  0  0  0  0  0  0  0  0  0  0
  -29.0796  -34.0514   20.3309 N   0  3  0  0  0  0  0  0  0  0  0  0
  -30.5340  -12.8742   18.6262 O   0  0  0  0  0  0  0  0  0  0  0  0
  -22.2025  -29.0976   20.2563 O   0  0  0  0  0  0  0  0  0  0  0  0
  -23.5496  -32.6202   21.9499 O   0  0  0  0  0  0  0  0  0  0  0  0
  -27.0935  -32.7784   18.7977 O   0  0  0  0  0  0  0  0  0  0  0  0
  -31.3834  -21.4599   23.3310 O   0  0  0  0  0  0  0  0  0  0  0  0
  -23.0819  -12.7562   20.8708 O   0  0  0  0  0  0  0  0  0  0  0  0
  -26.9295  -26.0454   17.8018 O   0  0  0  0  0  0  0  0  0  1  0  0
  -22.4079   -7.2868   21.0613 F   0  0  0  0  0  0  0  0  0  0  0  0
  -21.6864  -11.5704   22.9418 F   0  0  0  0  0  0  0  0  0  0  0  0
  1  2  1  0  0  0  0
  1  5  2  0  0  0  0
  2  6  2  0  0  0  0
  3 10  2  0  0  0  0
  3 18  1  0  0  0  0
  4 11  1  0  0  0  0
  4 18  2  0  0  0  0
  5 20  1  0  0  0  0
  6 23  1  0  0  0  0
  7  9  2  0  0  0  0
  7 21  1  0  0  0  0
  8 12  2  0  0  0  0
  8 22  1  0  0  0  0
  9 26  1  0  0  0  0
 10 27  1  0  0  0  0
 11 27  2  0  0  0  0
 12 28  1  0  0  0  0
 13 14  2  0  0  0  0
 13 29  1  0  0  0  0
 14 30  1  0  0  0  0
 15 24  1  0  0  0  0
 15 26  2  0  0  0  0
 16 25  1  0  0  0  0
 16 28  2  0  0  0  0
 17 30  2  0  0  0  0
 17 31  1  0  0  0  0
 18 32  1  0  0  0  0
 19 32  1  0  0  0  0
 19 33  2  0  0  0  0
 19 34  1  0  0  0  0
 20 23  2  0  0  0  0
 20 39  1  0  0  0  0
 21 24  2  0  0  0  0
 21 41  1  0  0  0  0
 22 25  2  0  0  0  0
 22 40  1  0  0  0  0
 23 50  1  0  0  0  0
 24 42  1  0  0  0  0
 25 43  1  0  0  0  0
 26 71  1  0  0  0  0
 27 81  1  0  0  0  0
 28 82  1  0  0  0  0
 29 31  2  0  0  0  0
 29 81  1  0  0  0  0
 30 83  1  0  0  0  0
 31 84  1  0  0  0  0
 32 65  2  0  0  0  0
 33 66  1  0  0  0  0
 33 69  1  0  0  0  0
 34 70  1  0  0  0  0
 34 76  2  0  0  0  0
 35 51  1  0  0  0  0
 35 72  1  0  0  0  0
 35 77  2  0  0  0  0
 36 61  1  0  0  0  0
 36 67  1  0  0  0  0
 36 78  2  0  0  0  0
 37 62  1  0  0  0  0
 37 73  1  0  0  0  0
 37 79  2  0  0  0  0
 38 68  1  0  0  0  0
 38 71  1  0  0  0  0
 38 80  2  0  0  0  0
 39 44  1  0  0  0  0
 40 51  1  0  0  0  0
 41 53  1  0  0  0  0
 42 53  1  0  0  0  0
 43 67  1  0  0  0  0
 44 46  1  0  0  0  0
 45 47  1  0  0  0  0
 45 48  1  0  0  0  0
 46 50  1  0  0  0  0
 47 52  1  0  0  0  0
 48 68  1  0  0  0  0
 49 52  1  0  0  0  0
 49 68  1  0  0  0  0
 50 72  1  0  0  0  0
 51 67  1  0  0  0  0
 52 66  1  0  0  0  0
 53 74  1  0  0  0  0
 54 62  1  0  0  0  0
 55 63  1  0  0  0  0
 56 64  1  0  0  0  0
 57 64  1  0  0  0  0
 58 64  1  0  0  0  0
 59 75  1  0  0  0  0
 60 63  1  0  0  0  0
 60 82  1  0  0  0  0
 61 64  1  0  0  0  0
 61 73  1  0  0  0  0
 62 75  1  0  0  0  0
 63 74  1  0  0  0  0
 65 66  1  0  0  0  0
M  CHG  2  74   1  75   1
M  ISO  4  38 100  60 101  71 100  82 101
M  END
> <Batch ID>
0136

> <Smiles>
CNC(C)C(=O)NC(C(=O)N1Cc2cc([101O:1][101CH2:1]C(C)NC3Cc4ccc([100NH:0][100C:0](=O)N5CCCC(n6nc(-c7ccc(Oc8ccc(F)cc8F)cc7)c(C(N)=O)c6N)C5)cc4C3)ccc2CC1C(=O)NC1CCCc2ccccc21)C(C)(C)C

> <Shape>
0.276

> <Color>
0.069

> <Negative vol penalty>
0.000

$$$$

  -OEChem-04052321023D

 86 95  0     1  0  0  0  0  0999 V2000
  -20.3449  -33.4656   20.4772 C   0  0  0  0  0  0  0  0  0  0  0  0
  -21.5486  -33.3147   21.1582 C   0  0  0  0  0  0  0  0  0  0  0  0
  -23.1461  -10.7232   22.5024 C   0  0  0  0  0  0  0  0  0  0  0  0
  -23.6420   -9.4944   20.4821 C   0  0  0  0  0  0  0  0  0  0  0  0
  -19.4488  -32.4001   20.4033 C   0  0  0  0  0  0  0  0  0  0  0  0
  -21.8564  -32.0983   21.7666 C   0  0  0  0  0  0  0  0  0  0  0  0
  -27.7866  -28.4367   19.9452 C   0  0  0  0  0  0  0  0  0  0  0  0
  -22.4000   -9.6439   22.9756 C   0  0  0  0  0  0  0  0  0  0  0  0
  -22.8959   -8.4151   20.9554 C   0  0  0  0  0  0  0  0  0  0  0  0
  -29.0095  -27.7806   19.8029 C   0  0  0  0  0  0  0  0  0  0  0  0
  -19.3226   -8.3361   22.4816 C   0  0  0  0  0  0  0  0  0  0  0  0
  -18.0806   -8.6094   23.0544 C   0  0  0  0  0  0  0  0  0  0  0  0
  -28.2761  -26.0590   21.3347 C   0  0  0  0  0  0  0  0  0  0  0  0
  -29.4124  -18.3282   21.5771 C   0  0  0  0  0  0  0  0  0  0  0  0
  -18.8216   -7.6232   25.1317 C   0  0  0  0  0  0  0  0  0  0  0  0
  -23.7671  -10.6485   21.2555 C   0  0  0  0  0  0  0  0  0  0  0  0
  -24.0803  -13.0732   20.5272 C   0  0  0  0  0  0  0  0  0  0  0  0
  -19.7500  -31.1670   21.0028 C   0  0  0  0  0  0  0  0  0  0  0  0
  -26.7969  -27.8976   20.7719 C   0  0  0  0  0  0  0  0  0  0  0  0
  -20.9629  -31.0157   21.7017 C   0  0  0  0  0  0  0  0  0  0  0  0
  -27.0447  -26.7052   21.4715 C   0  0  0  0  0  0  0  0  0  0  0  0
  -29.8304  -19.6470   21.7166 C   0  0  0  0  0  0  0  0  0  0  0  0
  -31.1157  -20.0078   21.3279 C   0  0  0  0  0  0  0  0  0  0  0  0
  -22.2749   -8.4898   22.2022 C   0  0  0  0  0  0  0  0  0  0  0  0
  -29.2537  -26.5948   20.4961 C   0  0  0  0  0  0  0  0  0  0  0  0
  -20.3142   -7.7063   23.2338 C   0  0  0  0  0  0  0  0  0  0  0  0
  -17.8301   -8.2530   24.3795 C   0  0  0  0  0  0  0  0  0  0  0  0
  -20.0637   -7.3499   24.5588 C   0  0  0  0  0  0  0  0  0  0  0  0
  -24.5375  -11.7633   20.7658 C   0  0  0  0  0  0  0  0  0  0  0  0
  -31.9378  -19.0202   20.8096 C   0  0  0  0  0  0  0  0  0  0  0  0
  -30.3107  -17.4158   21.0475 C   0  0  0  0  0  0  0  0  0  0  0  0
  -25.1881  -13.7461   20.0729 C   0  0  0  0  0  0  0  0  0  0  0  0
  -22.7712  -13.6317   20.7008 C   0  0  0  0  0  0  0  0  0  0  0  0
  -23.3277  -28.2145   22.1646 C   0  0  0  0  0  0  0  0  0  0  0  0
  -23.7607  -25.2472   21.5182 C   0  0  0  0  0  0  0  0  0  0  0  0
  -23.4094  -21.9608   20.6738 C   0  0  0  0  0  0  0  0  0  0  0  0
  -30.6035  -14.9975   20.4056 C   0  0  0  0  0  0  0  0  0  0  0  0
  -18.7290  -30.0589   20.9365 C   0  0  0  0  0  0  0  0  0  0  0  0
  -25.4879  -28.6025   21.0030 C   0  0  0  0  0  0  0  0  0  0  0  0
  -25.9636  -26.1805   22.3765 C   0  0  0  0  0  0  0  0  0  0  0  0
  -19.2963  -28.6861   21.2885 C   0  0  0  0  0  0  0  0  0  0  0  0
  -29.7305  -12.0279   18.6459 C   0  0  0  0  0  0  0  0  0  0  0  0
  -20.1456  -28.7677   22.5529 C   0  0  0  0  0  0  0  0  0  0  0  0
  -28.2640  -11.8021   19.0209 C   0  0  0  0  0  0  0  0  0  0  0  0
  -30.5366  -12.5838   19.8184 C   0  0  0  0  0  0  0  0  0  0  0  0
  -31.7553  -22.1430   19.1709 C   0  0  0  0  0  0  0  0  0  0  0  0
  -28.5086  -13.5630   20.8171 C   0  0  0  0  0  0  0  0  0  0  0  0
  -31.0342  -23.6945   20.8850 C   0  0  0  0  0  0  0  0  0  0  0  0
  -31.1493  -23.0181   18.0817 C   0  0  0  0  0  0  0  0  0  0  0  0
  -21.3436  -29.7040   22.3534 C   0  0  1  0  0  0  0  0  0  0  0  0
  -24.3051  -27.6345   21.1851 C   0  0  1  0  0  0  0  0  0  0  0  0
  -27.6421  -13.0647   19.6489 C   0  0  2  0  0  0  0  0  0  0  0  0
  -30.4133  -24.6278   19.8420 C   0  0  2  0  0  0  0  0  0  1  0  0
  -28.8850  -20.6532   22.2848 C   0  0  0  0  0  0  0  0  0  0  0  0
  -33.3294  -19.3487   20.3763 C   0  0  0  0  0  0  0  0  0  0  0  0
  -22.1377  -19.8907   21.3020 C   0  0  0  0  0  0  0  0  0  0  0  0
  -25.5335  -24.9089   23.9772 C   0  0  0  0  0  0  0  0  0  0  0  0
  -24.9153  -22.4829   24.0014 C   0  0  0  0  0  0  0  0  0  0  0  0
  -23.1516  -24.2207   24.3052 C   0  0  0  0  0  0  0  0  0  0  0  0
  -22.1778  -21.7628   17.9900 C   0  0  0  0  0  0  0  0  0  0  0  0
  -31.5948  -21.4240   21.4655 C   0  0  0  0  0  0  0  0  0  0  0  0
  -24.1877  -23.8920   22.0225 C   0  0  1  0  0  0  0  0  0  0  0  0
  -22.1774  -21.1163   20.4026 C   0  0  2  0  0  0  0  0  0  0  0  0
  -24.4589  -23.8878   23.5535 C   0  0  0  0  0  0  0  0  0  0  0  0
  -25.8346  -11.6109   20.4861 N   0  0  0  0  0  0  0  0  0  0  0  0
  -31.5671  -17.7289   20.6588 N   0  0  0  0  0  0  0  0  0  0  0  0
  -26.2019  -12.8338   20.0669 N   0  0  0  0  0  0  0  0  0  0  0  0
  -24.6532  -26.3071   21.7196 N   0  0  0  0  0  0  0  0  0  0  0  0
  -29.8898  -13.7812   20.3595 N   0  0  0  0  0  0  0  0  0  0  0  0
  -31.0274  -22.2960   20.4378 N   0  0  2  0  0  0  0  0  0  0  0  0
  -25.3841  -15.0232   19.6818 N   0  0  0  0  0  0  0  0  0  0  0  0
  -21.8752  -13.5813   19.6242 N   0  0  0  0  0  0  0  0  0  0  0  0
  -29.8752  -16.0745   20.9097 N   0  0  0  0  0  0  0  0  0  0  0  0
  -22.3810  -29.0422   21.5917 N   0  0  0  0  0  0  0  0  0  0  0  0
  -23.1551  -22.9538   21.5960 N   0  0  0  0  0  0  0  0  0  0  0  0
  -31.1388  -24.4348   18.5463 N   0  3  0  0  0  0  0  0  0  0  0  0
  -22.1648  -20.6591   18.9843 N   0  3  0  0  0  0  0  0  0  0  0  0
  -22.4125  -14.1746   21.7732 O   0  0  0  0  0  0  0  0  0  0  0  0
  -23.4233  -27.9315   23.3531 O   0  0  0  0  0  0  0  0  0  0  0  0
  -22.6637  -25.3669   20.9654 O   0  0  0  0  0  0  0  0  0  0  0  0
  -24.4903  -21.7573   20.1253 O   0  0  0  0  0  0  0  0  0  0  0  0
  -31.7656  -15.0837   20.0007 O   0  0  0  0  0  0  0  0  0  0  0  0
  -21.5471   -7.4364   22.6639 O   0  0  0  0  0  0  0  0  0  0  0  0
  -30.4480  -25.9570   20.3491 O   0  0  0  0  0  0  0  0  0  1  0  0
  -16.6378   -8.5168   24.9299 F   0  0  0  0  0  0  0  0  0  0  0  0
  -21.0128   -6.7457   25.2868 F   0  0  0  0  0  0  0  0  0  0  0  0
  1  2  1  0  0  0  0
  1  5  2  0  0  0  0
  2  6  2  0  0  0  0
  3  8  2  0  0  0  0
  3 16  1  0  0  0  0
  4  9  1  0  0  0  0
  4 16  2  0  0  0  0
  5 18  1  0  0  0  0
  6 20  1  0  0  0  0
  7 10  2  0  0  0  0
  7 19  1  0  0  0  0
  8 24  1  0  0  0  0
  9 24  2  0  0  0  0
 10 25  1  0  0  0  0
 11 12  2  0  0  0  0
 11 26  1  0  0  0  0
 12 27  1  0  0  0  0
 13 21  1  0  0  0  0
 13 25  2  0  0  0  0
 14 22  2  0  0  0  0
 14 31  1  0  0  0  0
 15 27  2  0  0  0  0
 15 28  1  0  0  0  0
 16 29  1  0  0  0  0
 17 29  1  0  0  0  0
 17 32  2  0  0  0  0
 17 33  1  0  0  0  0
 18 20  2  0  0  0  0
 18 38  1  0  0  0  0
 19 21  2  0  0  0  0
 19 39  1  0  0  0  0
 20 50  1  0  0  0  0
 21 40  1  0  0  0  0
 22 23  1  0  0  0  0
 22 54  1  0  0  0  0
 23 30  2  0  0  0  0
 23 61  1  0  0  0  0
 24 83  1  0  0  0  0
 25 84  1  0  0  0  0
 26 28  2  0  0  0  0
 26 83  1  0  0  0  0
 27 85  1  0  0  0  0
 28 86  1  0  0  0  0
 29 65  2  0  0  0  0
 30 55  1  0  0  0  0
 30 66  1  0  0  0  0
 31 66  2  0  0  0  0
 31 73  1  0  0  0  0
 32 67  1  0  0  0  0
 32 71  1  0  0  0  0
 33 72  1  0  0  0  0
 33 78  2  0  0  0  0
 34 51  1  0  0  0  0
 34 74  1  0  0  0  0
 34 79  2  0  0  0  0
 35 62  1  0  0  0  0
 35 68  1  0  0  0  0
 35 80  2  0  0  0  0
 36 63  1  0  0  0  0
 36 75  1  0  0  0  0
 36 81  2  0  0  0  0
 37 69  1  0  0  0  0
 37 73  1  0  0  0  0
 37 82  2  0  0  0  0
 38 41  1  0  0  0  0
 39 51  1  0  0  0  0
 40 68  1  0  0  0  0
 41 43  1  0  0  0  0
 42 44  1  0  0  0  0
 42 45  1  0  0  0  0
 43 50  1  0  0  0  0
 44 52  1  0  0  0  0
 45 69  1  0  0  0  0
 46 49  1  0  0  0  0
 46 70  1  0  0  0  0
 47 52  1  0  0  0  0
 47 69  1  0  0  0  0
 48 53  1  0  0  0  0
 48 70  1  0  0  0  0
 49 76  1  0  0  0  0
 50 74  1  0  0  0  0
 51 68  1  0  0  0  0
 52 67  1  0  0  0  0
 53 76  1  0  0  0  0
 53 84  1  0  0  0  0
 56 63  1  0  0  0  0
 57 64  1  0  0  0  0
 58 64  1  0  0  0  0
 59 64  1  0  0  0  0
 60 77  1  0  0  0  0
 61 70  1  0  0  0  0
 62 64  1  0  0  0  0
 62 75  1  0  0  0  0
 63 77  1  0  0  0  0
 65 67  1  0  0  0  0
M  CHG  2  76   1  77   1
M  ISO  4  37 100  53 101  73 100  84 101
M  END
> <Batch ID>
0136

> <Smiles>
CNC(C)C(=O)NC(C(=O)N1Cc2cc([101O:1][101CH:1]3CN(Cc4c(C)cc([100NH:0][100C:0](=O)N5CCCC(n6nc(-c7ccc(Oc8ccc(F)cc8F)cc7)c(C(N)=O)c6N)C5)nc4C)CCN3)ccc2CC1C(=O)NC1CCCc2ccccc21)C(C)(C)C

> <Shape>
0.253

> <Color>
0.136

> <Negative vol penalty>
0.000

$$$$

  -OEChem-04052321023D

 83 91  0     1  0  0  0  0  0999 V2000
  -23.5424  -30.2198   21.9679 C   0  0  0  0  0  0  0  0  0  0  0  0
  -22.8716  -29.1087   21.4671 C   0  0  0  0  0  0  0  0  0  0  0  0
  -16.6604  -17.2919   14.6315 C   0  0  0  0  0  0  0  0  0  0  0  0
  -17.1896  -18.5330   14.2776 C   0  0  0  0  0  0  0  0  0  0  0  0
  -28.4335  -11.5406   20.3798 C   0  0  0  0  0  0  0  0  0  0  0  0
  -28.2398  -13.7817   19.4982 C   0  0  0  0  0  0  0  0  0  0  0  0
  -24.8890  -30.4152   21.6637 C   0  0  0  0  0  0  0  0  0  0  0  0
  -23.5467  -28.1928   20.6610 C   0  0  0  0  0  0  0  0  0  0  0  0
  -22.6805  -22.1338   20.4510 C   0  0  0  0  0  0  0  0  0  0  0  0
  -17.4366  -16.3818   15.3491 C   0  0  0  0  0  0  0  0  0  0  0  0
  -18.4949  -18.8640   14.6410 C   0  0  0  0  0  0  0  0  0  0  0  0
  -29.7917  -11.5330   20.0621 C   0  0  0  0  0  0  0  0  0  0  0  0
  -29.5980  -13.7741   19.1806 C   0  0  0  0  0  0  0  0  0  0  0  0
  -21.9563  -21.3194   19.5815 C   0  0  0  0  0  0  0  0  0  0  0  0
  -31.5818  -12.5086   16.7529 C   0  0  0  0  0  0  0  0  0  0  0  0
  -31.9565  -12.9873   15.4975 C   0  0  0  0  0  0  0  0  0  0  0  0
  -23.9659  -20.8928   18.3171 C   0  0  0  0  0  0  0  0  0  0  0  0
  -33.3107  -14.6886   16.5505 C   0  0  0  0  0  0  0  0  0  0  0  0
  -27.6575  -12.6649   20.0977 C   0  0  0  0  0  0  0  0  0  0  0  0
  -25.6653  -13.0970   21.6314 C   0  0  0  0  0  0  0  0  0  0  0  0
  -25.5835  -29.4962   20.8614 C   0  0  0  0  0  0  0  0  0  0  0  0
  -24.0529  -22.3429   20.2534 C   0  0  0  0  0  0  0  0  0  0  0  0
  -24.9035  -28.3768   20.3447 C   0  0  0  0  0  0  0  0  0  0  0  0
  -24.7057  -21.7083   19.1870 C   0  0  0  0  0  0  0  0  0  0  0  0
  -18.7420  -16.7127   15.7126 C   0  0  0  0  0  0  0  0  0  0  0  0
  -19.2712  -17.9538   15.3586 C   0  0  0  0  0  0  0  0  0  0  0  0
  -30.3739  -12.6498   19.4626 C   0  0  0  0  0  0  0  0  0  0  0  0
  -22.5984  -20.7011   18.5127 C   0  0  0  0  0  0  0  0  0  0  0  0
  -32.0715  -13.1198   17.9071 C   0  0  0  0  0  0  0  0  0  0  0  0
  -32.8209  -14.0773   15.3963 C   0  0  0  0  0  0  0  0  0  0  0  0
  -32.9360  -14.2098   17.8059 C   0  0  0  0  0  0  0  0  0  0  0  0
  -26.2544  -12.6732   20.4251 C   0  0  0  0  0  0  0  0  0  0  0  0
  -24.3184  -12.9067   21.4413 C   0  0  0  0  0  0  0  0  0  0  0  0
  -26.2807  -13.6163   22.8177 C   0  0  0  0  0  0  0  0  0  0  0  0
  -25.8715  -24.8792   19.6502 C   0  0  0  0  0  0  0  0  0  0  0  0
  -28.2887  -22.7492   20.0279 C   0  0  0  0  0  0  0  0  0  0  0  0
  -29.3251  -19.4987   19.9462 C   0  0  0  0  0  0  0  0  0  0  0  0
  -20.8846  -12.6771   16.5416 C   0  0  0  0  0  0  0  0  0  0  0  0
  -27.0261  -29.7747   20.5210 C   0  0  0  0  0  0  0  0  0  0  0  0
  -24.8252  -23.2029   21.2159 C   0  0  0  0  0  0  0  0  0  0  0  0
  -26.1815  -21.8842   18.9431 C   0  0  0  0  0  0  0  0  0  0  0  0
  -27.7668  -28.5600   19.9677 C   0  0  0  0  0  0  0  0  0  0  0  0
  -21.2279  -10.1590   19.0352 C   0  0  0  0  0  0  0  0  0  0  0  0
  -26.9279  -27.8633   18.9012 C   0  0  0  0  0  0  0  0  0  0  0  0
  -22.5019  -10.5560   19.7830 C   0  0  0  0  0  0  0  0  0  0  0  0
  -21.3349  -10.4556   17.5410 C   0  0  0  0  0  0  0  0  0  0  0  0
  -22.9820  -12.2407   17.9582 C   0  0  0  0  0  0  0  0  0  0  0  0
  -25.6078  -27.3479   19.4872 C   0  0  1  0  0  0  0  0  0  0  0  0
  -26.1153  -23.7571   20.6194 C   0  0  1  0  0  0  0  0  0  0  0  0
  -22.9008  -12.0123   19.4772 C   0  0  2  0  0  0  0  0  0  0  0  0
  -31.3660  -18.0732   20.2632 C   0  0  0  0  0  0  0  0  0  0  0  0
  -21.6227  -19.5299   13.9199 C   0  0  0  0  0  0  0  0  0  0  0  0
  -29.3285  -23.6352   17.2996 C   0  0  0  0  0  0  0  0  0  0  0  0
  -30.7510  -21.5756   17.2504 C   0  0  0  0  0  0  0  0  0  0  0  0
  -31.1012  -23.2889   19.0293 C   0  0  0  0  0  0  0  0  0  0  0  0
  -28.0840  -18.0167   22.1872 C   0  0  0  0  0  0  0  0  0  0  0  0
  -19.5508  -15.7187   16.4809 C   0  0  0  0  0  0  0  0  0  0  0  0
  -20.5649  -14.9589   15.6194 C   0  0  0  0  0  0  0  0  0  0  0  0
  -22.3481  -19.8372   16.3110 C   0  0  0  0  0  0  0  0  0  1  0  0
  -29.0462  -21.8184   19.1121 C   0  0  1  0  0  0  0  0  0  0  0  0
  -30.1385  -18.6758   20.9289 C   0  0  2  0  0  0  0  0  0  0  0  0
  -21.1721  -19.5700   15.3742 C   0  0  2  0  0  0  0  0  0  0  0  0
  -30.0285  -22.5775   18.1760 C   0  0  0  0  0  0  0  0  0  0  0  0
  -25.3553  -12.2457   19.5346 N   0  0  0  0  0  0  0  0  0  0  0  0
  -24.1877  -12.3999   20.1818 N   0  0  0  0  0  0  0  0  0  0  0  0
  -26.8918  -22.7397   19.9080 N   0  0  0  0  0  0  0  0  0  0  0  0
  -21.7145  -11.8530   17.3195 N   0  0  0  0  0  0  0  0  0  0  0  0
  -23.2450  -13.1250   22.2303 N   0  0  0  0  0  0  0  0  0  0  0  0
  -27.6759  -13.7466   22.8445 N   0  0  0  0  0  0  0  0  0  0  0  0
  -20.5631  -18.2986   15.7105 N   0  0  0  0  0  0  0  0  0  0  0  0
  -25.8290  -26.1298   20.2366 N   0  0  0  0  0  0  0  0  0  0  0  0
  -29.6855  -20.8293   19.9733 N   0  0  0  0  0  0  0  0  0  0  0  0
  -21.3146  -13.9893   16.3867 N   0  0  0  0  0  0  0  0  0  0  0  0
  -29.3125  -17.5663   21.4837 N   0  3  0  0  0  0  0  0  0  0  0  0
  -25.6144  -13.9394   23.8302 O   0  0  0  0  0  0  0  0  0  0  0  0
  -25.7337  -24.6291   18.4585 O   0  0  0  0  0  0  0  0  0  0  0  0
  -28.9130  -23.4534   20.8254 O   0  0  0  0  0  0  0  0  0  0  0  0
  -28.4595  -19.0093   19.2239 O   0  0  0  0  0  0  0  0  0  0  0  0
  -19.8351  -12.2748   16.0280 O   0  0  0  0  0  0  0  0  0  0  0  0
  -31.6993  -12.6428   19.1527 O   0  0  0  0  0  0  0  0  0  0  0  0
  -21.8938  -19.9061   17.6621 O   0  0  0  0  0  0  0  0  0  1  0  0
  -33.1819  -14.5360   14.1907 F   0  0  0  0  0  0  0  0  0  0  0  0
  -33.4107  -14.8004   18.9112 F   0  0  0  0  0  0  0  0  0  0  0  0
  1  2  1  0  0  0  0
  1  7  2  0  0  0  0
  2  8  2  0  0  0  0
  3  4  1  0  0  0  0
  3 10  2  0  0  0  0
  4 11  2  0  0  0  0
  5 12  2  0  0  0  0
  5 19  1  0  0  0  0
  6 13  1  0  0  0  0
  6 19  2  0  0  0  0
  7 21  1  0  0  0  0
  8 23  1  0  0  0  0
  9 14  2  0  0  0  0
  9 22  1  0  0  0  0
 10 25  1  0  0  0  0
 11 26  1  0  0  0  0
 12 27  1  0  0  0  0
 13 27  2  0  0  0  0
 14 28  1  0  0  0  0
 15 16  2  0  0  0  0
 15 29  1  0  0  0  0
 16 30  1  0  0  0  0
 17 24  1  0  0  0  0
 17 28  2  0  0  0  0
 18 30  2  0  0  0  0
 18 31  1  0  0  0  0
 19 32  1  0  0  0  0
 20 32  1  0  0  0  0
 20 33  2  0  0  0  0
 20 34  1  0  0  0  0
 21 23  2  0  0  0  0
 21 39  1  0  0  0  0
 22 24  2  0  0  0  0
 22 40  1  0  0  0  0
 23 48  1  0  0  0  0
 24 41  1  0  0  0  0
 25 26  2  0  0  0  0
 25 57  1  0  0  0  0
 26 70  1  0  0  0  0
 27 80  1  0  0  0  0
 28 81  1  0  0  0  0
 29 31  2  0  0  0  0
 29 80  1  0  0  0  0
 30 82  1  0  0  0  0
 31 83  1  0  0  0  0
 32 64  2  0  0  0  0
 33 65  1  0  0  0  0
 33 68  1  0  0  0  0
 34 69  1  0  0  0  0
 34 75  2  0  0  0  0
 35 49  1  0  0  0  0
 35 71  1  0  0  0  0
 35 76  2  0  0  0  0
 36 60  1  0  0  0  0
 36 66  1  0  0  0  0
 36 77  2  0  0  0  0
 37 61  1  0  0  0  0
 37 72  1  0  0  0  0
 37 78  2  0  0  0  0
 38 67  1  0  0  0  0
 38 73  1  0  0  0  0
 38 79  2  0  0  0  0
 39 42  1  0  0  0  0
 40 49  1  0  0  0  0
 41 66  1  0  0  0  0
 42 44  1  0  0  0  0
 43 45  1  0  0  0  0
 43 46  1  0  0  0  0
 44 48  1  0  0  0  0
 45 50  1  0  0  0  0
 46 67  1  0  0  0  0
 47 50  1  0  0  0  0
 47 67  1  0  0  0  0
 48 71  1  0  0  0  0
 49 66  1  0  0  0  0
 50 65  1  0  0  0  0
 51 61  1  0  0  0  0
 52 62  1  0  0  0  0
 53 63  1  0  0  0  0
 54 63  1  0  0  0  0
 55 63  1  0  0  0  0
 56 74  1  0  0  0  0
 57 58  1  0  0  0  0
 58 73  1  0  0  0  0
 59 62  1  0  0  0  0
 59 81  1  0  0  0  0
 60 63  1  0  0  0  0
 60 72  1  0  0  0  0
 61 74  1  0  0  0  0
 62 70  1  0  0  0  0
 64 65  1  0  0  0  0
M  CHG  1  74   1
M  ISO  4  38 100  59 101  73 100  81 101
M  END
> <Batch ID>
0136

> <Smiles>
CNC(C)C(=O)NC(C(=O)N1Cc2cc([101O:1][101CH2:1]C(C)Nc3ccccc3CC[100NH:0][100C:0](=O)N3CCCC(n4nc(-c5ccc(Oc6ccc(F)cc6F)cc5)c(C(N)=O)c4N)C3)ccc2CC1C(=O)NC1CCCc2ccccc21)C(C)(C)C

> <Shape>
0.203

> <Color>
0.070

> <Negative vol penalty>
0.000

$$$$

  -OEChem-04052321023D

 84 93  0     1  0  0  0  0  0999 V2000
  -27.8078  -37.6584   23.4879 C   0  0  0  0  0  0  0  0  0  0  0  0
  -28.2562  -36.7184   22.5655 C   0  0  0  0  0  0  0  0  0  0  0  0
  -24.3422   -9.0192   21.4809 C   0  0  0  0  0  0  0  0  0  0  0  0
  -24.4601  -10.5229   23.3681 C   0  0  0  0  0  0  0  0  0  0  0  0
  -27.0992  -37.2443   24.6150 C   0  0  0  0  0  0  0  0  0  0  0  0
  -27.9972  -35.3637   22.7703 C   0  0  0  0  0  0  0  0  0  0  0  0
  -26.6680  -29.3249   19.1531 C   0  0  0  0  0  0  0  0  0  0  0  0
  -27.2517  -20.3970   19.0473 C   0  0  0  0  0  0  0  0  0  0  0  0
  -23.9582   -7.9822   22.3310 C   0  0  0  0  0  0  0  0  0  0  0  0
  -24.0760   -9.4860   24.2184 C   0  0  0  0  0  0  0  0  0  0  0  0
  -27.1189  -28.0097   19.0502 C   0  0  0  0  0  0  0  0  0  0  0  0
  -21.1415   -6.9583   23.8965 C   0  0  0  0  0  0  0  0  0  0  0  0
  -20.0805   -6.1479   23.4924 C   0  0  0  0  0  0  0  0  0  0  0  0
  -27.3106  -19.0525   19.3968 C   0  0  0  0  0  0  0  0  0  0  0  0
  -25.8167  -27.4178   20.9927 C   0  0  0  0  0  0  0  0  0  0  0  0
  -21.5324   -4.2177   23.5510 C   0  0  0  0  0  0  0  0  0  0  0  0
  -24.5933  -10.2895   21.9994 C   0  0  0  0  0  0  0  0  0  0  0  0
  -24.1478  -12.2680   20.4519 C   0  0  0  0  0  0  0  0  0  0  0  0
  -26.8230  -35.8846   24.8287 C   0  0  0  0  0  0  0  0  0  0  0  0
  -25.7953  -29.6996   20.1848 C   0  0  0  0  0  0  0  0  0  0  0  0
  -27.2854  -34.9309   23.9020 C   0  0  0  0  0  0  0  0  0  0  0  0
  -25.3542  -28.7379   21.1050 C   0  0  0  0  0  0  0  0  0  0  0  0
  -28.3736  -21.0203   18.5124 C   0  0  0  0  0  0  0  0  0  0  0  0
  -23.8251   -8.2156   23.6998 C   0  0  0  0  0  0  0  0  0  0  0  0
  -26.6955  -27.0565   19.9718 C   0  0  0  0  0  0  0  0  0  0  0  0
  -22.3979   -6.3984   24.1278 C   0  0  0  0  0  0  0  0  0  0  0  0
  -20.2759   -4.7777   23.3197 C   0  0  0  0  0  0  0  0  0  0  0  0
  -22.5934   -5.0281   23.9551 C   0  0  0  0  0  0  0  0  0  0  0  0
  -24.9906  -11.3610   21.1217 C   0  0  0  0  0  0  0  0  0  0  0  0
  -29.5210  -20.2611   18.3482 C   0  0  0  0  0  0  0  0  0  0  0  0
  -28.5055  -18.3813   19.1929 C   0  0  0  0  0  0  0  0  0  0  0  0
  -25.0054  -13.0808   19.7518 C   0  0  0  0  0  0  0  0  0  0  0  0
  -22.7174  -12.3671   20.4618 C   0  0  0  0  0  0  0  0  0  0  0  0
  -25.9462  -31.7335   22.6228 C   0  0  0  0  0  0  0  0  0  0  0  0
  -22.8350  -30.8988   23.0055 C   0  0  0  0  0  0  0  0  0  0  0  0
  -20.3682  -28.5975   22.4899 C   0  0  0  0  0  0  0  0  0  0  0  0
  -29.6427  -16.1466   19.4363 C   0  0  0  0  0  0  0  0  0  0  0  0
  -26.0944  -35.4808   26.0860 C   0  0  0  0  0  0  0  0  0  0  0  0
  -25.2971  -31.1165   20.2662 C   0  0  0  0  0  0  0  0  0  0  0  0
  -24.4017  -29.0844   22.2190 C   0  0  0  0  0  0  0  0  0  0  0  0
  -25.5370  -34.0605   26.0374 C   0  0  0  0  0  0  0  0  0  0  0  0
  -29.9707  -12.6470   18.8688 C   0  0  0  0  0  0  0  0  0  0  0  0
  -26.5895  -33.0917   25.5079 C   0  0  0  0  0  0  0  0  0  0  0  0
  -28.6350  -12.0750   19.3492 C   0  0  0  0  0  0  0  0  0  0  0  0
  -28.8384  -24.6096   21.1094 C   0  0  0  0  0  0  0  0  0  0  0  0
  -30.4358  -13.8114   19.7414 C   0  0  0  0  0  0  0  0  0  0  0  0
  -28.1155  -14.3145   20.3988 C   0  0  0  0  0  0  0  0  0  0  0  0
  -28.5186  -23.2507   20.5200 C   0  0  0  0  0  0  0  0  0  0  0  0
  -29.0369  -24.8300   18.7209 C   0  0  0  0  0  0  0  0  0  0  0  0
  -27.0027  -33.4545   24.0764 C   0  0  1  0  0  0  0  0  0  0  0  0
  -24.8150  -31.5011   21.6615 C   0  0  1  0  0  0  0  0  0  0  0  0
  -27.5742  -13.1813   19.5120 C   0  0  2  0  0  0  0  0  0  0  0  0
  -28.5428  -25.5587   19.9608 C   0  0  1  0  0  0  0  0  0  1  0  0
  -30.7561  -20.8792   17.7793 C   0  0  0  0  0  0  0  0  0  0  0  0
  -17.9372  -28.1788   22.9506 C   0  0  0  0  0  0  0  0  0  0  0  0
  -23.5039  -30.2187   25.9038 C   0  0  0  0  0  0  0  0  0  0  0  0
  -21.3513  -28.9465   26.0290 C   0  0  0  0  0  0  0  0  0  0  0  0
  -21.3233  -31.4012   25.5863 C   0  0  0  0  0  0  0  0  0  0  0  0
  -19.7218  -28.4824   19.6041 C   0  0  0  0  0  0  0  0  0  0  0  0
  -28.3175  -22.4712   18.1345 C   0  0  0  0  0  0  0  0  0  0  0  0
  -22.1031  -29.8233   23.7714 C   0  0  1  0  0  0  0  0  0  0  0  0
  -18.9508  -28.7406   21.9658 C   0  0  2  0  0  0  0  0  0  0  0  0
  -22.0899  -30.0910   25.3029 C   0  0  0  0  0  0  0  0  0  0  0  0
  -26.2844  -11.5767   20.8696 N   0  0  0  0  0  0  0  0  0  0  0  0
  -29.6162  -18.9530   18.6759 N   0  0  0  0  0  0  0  0  0  0  0  0
  -26.2609  -12.6286   20.0335 N   0  0  0  0  0  0  0  0  0  0  0  0
  -23.9479  -30.4843   22.2602 N   0  0  0  0  0  0  0  0  0  0  0  0
  -29.3813  -14.8223   19.8468 N   0  0  0  0  0  0  0  0  0  0  0  0
  -24.8006  -14.1310   18.9286 N   0  0  0  0  0  0  0  0  0  0  0  0
  -21.9897  -11.4524   21.2351 N   0  0  0  0  0  0  0  0  0  0  0  0
  -28.5551  -17.0116   19.5523 N   0  0  0  0  0  0  0  0  0  0  0  0
  -25.9960  -33.0166   23.1334 N   0  0  0  0  0  0  0  0  0  0  0  0
  -20.7773  -29.7248   23.1705 N   0  0  0  0  0  0  0  0  0  0  0  0
  -29.0328  -23.3570   19.1033 N   0  3  2  0  0  0  0  0  0  0  0  0
  -18.8011  -28.0155   20.6724 N   0  3  0  0  0  0  0  0  0  0  0  0
  -22.1022  -13.2305   19.7913 O   0  0  0  0  0  0  0  0  0  0  0  0
  -26.7158  -30.8162   22.8833 O   0  0  0  0  0  0  0  0  0  0  0  0
  -22.4299  -32.0626   23.0607 O   0  0  0  0  0  0  0  0  0  0  0  0
  -21.0436  -27.5855   22.3163 O   0  0  0  0  0  0  0  0  0  0  0  0
  -30.7419  -16.4819   18.9875 O   0  0  0  0  0  0  0  0  0  0  0  0
  -23.4501   -7.2041   24.5297 O   0  0  0  0  0  0  0  0  0  0  0  0
  -27.1345  -25.7721   19.8740 O   0  0  0  0  0  0  0  0  0  1  0  0
  -19.2566   -3.9994   22.9331 F   0  0  0  0  0  0  0  0  0  0  0  0
  -23.7979   -4.4843   24.1770 F   0  0  0  0  0  0  0  0  0  0  0  0
  1  2  1  0  0  0  0
  1  5  2  0  0  0  0
  2  6  2  0  0  0  0
  3  9  2  0  0  0  0
  3 17  1  0  0  0  0
  4 10  1  0  0  0  0
  4 17  2  0  0  0  0
  5 19  1  0  0  0  0
  6 21  1  0  0  0  0
  7 11  2  0  0  0  0
  7 20  1  0  0  0  0
  8 14  2  0  0  0  0
  8 23  1  0  0  0  0
  9 24  1  0  0  0  0
 10 24  2  0  0  0  0
 11 25  1  0  0  0  0
 12 13  2  0  0  0  0
 12 26  1  0  0  0  0
 13 27  1  0  0  0  0
 14 31  1  0  0  0  0
 15 22  1  0  0  0  0
 15 25  2  0  0  0  0
 16 27  2  0  0  0  0
 16 28  1  0  0  0  0
 17 29  1  0  0  0  0
 18 29  1  0  0  0  0
 18 32  2  0  0  0  0
 18 33  1  0  0  0  0
 19 21  2  0  0  0  0
 19 38  1  0  0  0  0
 20 22  2  0  0  0  0
 20 39  1  0  0  0  0
 21 50  1  0  0  0  0
 22 40  1  0  0  0  0
 23 30  2  0  0  0  0
 23 60  1  0  0  0  0
 24 81  1  0  0  0  0
 25 82  1  0  0  0  0
 26 28  2  0  0  0  0
 26 81  1  0  0  0  0
 27 83  1  0  0  0  0
 28 84  1  0  0  0  0
 29 64  2  0  0  0  0
 30 54  1  0  0  0  0
 30 65  1  0  0  0  0
 31 65  2  0  0  0  0
 31 71  1  0  0  0  0
 32 66  1  0  0  0  0
 32 69  1  0  0  0  0
 33 70  1  0  0  0  0
 33 76  2  0  0  0  0
 34 51  1  0  0  0  0
 34 72  1  0  0  0  0
 34 77  2  0  0  0  0
 35 61  1  0  0  0  0
 35 67  1  0  0  0  0
 35 78  2  0  0  0  0
 36 62  1  0  0  0  0
 36 73  1  0  0  0  0
 36 79  2  0  0  0  0
 37 68  1  0  0  0  0
 37 71  1  0  0  0  0
 37 80  2  0  0  0  0
 38 41  1  0  0  0  0
 39 51  1  0  0  0  0
 40 67  1  0  0  0  0
 41 43  1  0  0  0  0
 42 44  1  0  0  0  0
 42 46  1  0  0  0  0
 43 50  1  0  0  0  0
 44 52  1  0  0  0  0
 45 48  1  0  0  0  0
 45 53  1  0  0  0  0
 46 68  1  0  0  0  0
 47 52  1  0  0  0  0
 47 68  1  0  0  0  0
 48 74  1  0  0  0  0
 49 53  1  0  0  0  0
 49 74  1  0  0  0  0
 50 72  1  0  0  0  0
 51 67  1  0  0  0  0
 52 66  1  0  0  0  0
 53 82  1  0  0  0  0
 55 62  1  0  0  0  0
 56 63  1  0  0  0  0
 57 63  1  0  0  0  0
 58 63  1  0  0  0  0
 59 75  1  0  0  0  0
 60 74  1  0  0  0  0
 61 63  1  0  0  0  0
 61 73  1  0  0  0  0
 62 75  1  0  0  0  0
 64 66  1  0  0  0  0
M  CHG  2  74   1  75   1
M  ISO  4  37 100  53 101  71 100  82 101
M  END
> <Batch ID>
0136

> <Smiles>
CNC(C)C(=O)NC(C(=O)N1Cc2cc([101O:1][101CH:1]3CCN(Cc4ccc([100NH:0][100C:0](=O)N5CCCC(n6nc(-c7ccc(Oc8ccc(F)cc8F)cc7)c(C(N)=O)c6N)C5)nc4C)C3)ccc2CC1C(=O)NC1CCCc2ccccc21)C(C)(C)C

> <Shape>
0.361

> <Color>
0.112

> <Negative vol penalty>
0.000

$$$$

  -OEChem-04052321023D

 84 92  0     1  0  0  0  0  0999 V2000
  -22.1360  -18.4706   24.5041 C   0  0  0  0  0  0  0  0  0  0  0  0
  -23.0734  -19.3877   24.0399 C   0  0  0  0  0  0  0  0  0  0  0  0
  -24.4905   -9.7638   21.6063 C   0  0  0  0  0  0  0  0  0  0  0  0
  -24.7751  -10.9474   23.6932 C   0  0  0  0  0  0  0  0  0  0  0  0
  -20.7752  -18.7141   24.3227 C   0  0  0  0  0  0  0  0  0  0  0  0
  -22.6506  -20.5485   23.3931 C   0  0  0  0  0  0  0  0  0  0  0  0
  -25.1203  -24.6714   24.9891 C   0  0  0  0  0  0  0  0  0  0  0  0
  -24.1536   -8.6066   22.3084 C   0  0  0  0  0  0  0  0  0  0  0  0
  -24.4381   -9.7902   24.3954 C   0  0  0  0  0  0  0  0  0  0  0  0
  -26.4080  -24.8735   24.4946 C   0  0  0  0  0  0  0  0  0  0  0  0
  -21.4450   -7.3604   23.9032 C   0  0  0  0  0  0  0  0  0  0  0  0
  -20.3431   -6.6300   23.4584 C   0  0  0  0  0  0  0  0  0  0  0  0
  -25.5401  -26.4629   22.9010 C   0  0  0  0  0  0  0  0  0  0  0  0
  -27.4653  -19.9864   20.9159 C   0  0  0  0  0  0  0  0  0  0  0  0
  -21.7622   -4.7079   23.0992 C   0  0  0  0  0  0  0  0  0  0  0  0
  -24.8013  -10.9342   22.2986 C   0  0  0  0  0  0  0  0  0  0  0  0
  -24.2750  -13.1359   21.1227 C   0  0  0  0  0  0  0  0  0  0  0  0
  -20.3352  -19.8830   23.6819 C   0  0  0  0  0  0  0  0  0  0  0  0
  -24.0294  -25.3565   24.4351 C   0  0  0  0  0  0  0  0  0  0  0  0
  -21.2827  -20.8072   23.2018 C   0  0  0  0  0  0  0  0  0  0  0  0
  -24.2398  -26.2696   23.3920 C   0  0  0  0  0  0  0  0  0  0  0  0
  -27.4036  -21.3697   20.7894 C   0  0  0  0  0  0  0  0  0  0  0  0
  -28.4929  -22.0645   20.2757 C   0  0  0  0  0  0  0  0  0  0  0  0
  -24.1273   -8.6198   23.7030 C   0  0  0  0  0  0  0  0  0  0  0  0
  -26.6177  -25.7672   23.4484 C   0  0  0  0  0  0  0  0  0  0  0  0
  -22.7055   -6.7647   23.9459 C   0  0  0  0  0  0  0  0  0  0  0  0
  -20.5016   -5.3037   23.0565 C   0  0  0  0  0  0  0  0  0  0  0  0
  -22.8641   -5.4384   23.5440 C   0  0  0  0  0  0  0  0  0  0  0  0
  -25.1500  -12.1297   21.5739 C   0  0  0  0  0  0  0  0  0  0  0  0
  -29.6115  -21.3352   19.9060 C   0  0  0  0  0  0  0  0  0  0  0  0
  -28.6298  -19.3501   20.5173 C   0  0  0  0  0  0  0  0  0  0  0  0
  -25.0916  -14.0456   20.4964 C   0  0  0  0  0  0  0  0  0  0  0  0
  -22.8513  -13.2392   21.2577 C   0  0  0  0  0  0  0  0  0  0  0  0
  -21.3674  -24.4911   22.9289 C   0  0  0  0  0  0  0  0  0  0  0  0
  -20.6840  -27.6552   23.1382 C   0  0  0  0  0  0  0  0  0  0  0  0
  -21.8334  -30.8525   23.4591 C   0  0  0  0  0  0  0  0  0  0  0  0
  -29.7438  -17.0996   20.3159 C   0  0  0  0  0  0  0  0  0  0  0  0
  -18.8554  -20.0800   23.4669 C   0  0  0  0  0  0  0  0  0  0  0  0
  -22.6502  -25.1473   24.9977 C   0  0  0  0  0  0  0  0  0  0  0  0
  -23.1051  -27.0452   22.7760 C   0  0  0  0  0  0  0  0  0  0  0  0
  -18.4781  -21.5140   23.1043 C   0  0  0  0  0  0  0  0  0  0  0  0
  -29.9687  -13.7333   19.1780 C   0  0  0  0  0  0  0  0  0  0  0  0
  -19.4106  -22.0547   22.0250 C   0  0  0  0  0  0  0  0  0  0  0  0
  -28.6631  -13.0988   19.6628 C   0  0  0  0  0  0  0  0  0  0  0  0
  -30.5175  -14.7418   20.1858 C   0  0  0  0  0  0  0  0  0  0  0  0
  -28.2619  -15.1452   21.0904 C   0  0  0  0  0  0  0  0  0  0  0  0
  -20.8625  -22.0898   22.5173 C   0  0  1  0  0  0  0  0  0  0  0  0
  -21.5422  -25.5142   24.0153 C   0  0  1  0  0  0  0  0  0  0  0  0
  -27.6365  -14.1703   20.0795 C   0  0  2  0  0  0  0  0  0  0  0  0
  -26.1620  -22.0837   21.2110 C   0  0  0  0  0  0  0  0  0  0  0  0
  -30.8125  -22.0279   19.3490 C   0  0  0  0  0  0  0  0  0  0  0  0
  -21.0388  -33.2306   23.5603 C   0  0  0  0  0  0  0  0  0  0  0  0
  -30.5135  -26.2832   21.7039 C   0  0  0  0  0  0  0  0  0  0  0  0
  -20.2269  -27.6282   20.1216 C   0  0  0  0  0  0  0  0  0  0  0  0
  -20.3800  -30.1271   20.1462 C   0  0  0  0  0  0  0  0  0  0  0  0
  -18.5665  -28.9778   21.4162 C   0  0  0  0  0  0  0  0  0  0  0  0
  -22.9404  -31.2287   26.1779 C   0  0  0  0  0  0  0  0  0  0  0  0
  -28.4552  -23.5569   20.1265 C   0  0  0  0  0  0  0  0  0  0  0  0
  -27.9896  -26.3144   21.5845 C   0  0  0  0  0  0  0  0  0  1  0  0
  -20.9427  -28.8644   22.2723 C   0  0  1  0  0  0  0  0  0  0  0  0
  -21.4018  -31.9920   24.3644 C   0  0  2  0  0  0  0  0  0  0  0  0
  -29.2780  -25.7482   20.9982 C   0  0  2  0  0  0  0  0  0  0  0  0
  -20.0503  -28.8835   20.9992 C   0  0  0  0  0  0  0  0  0  0  0  0
  -26.4248  -12.3764   21.2607 N   0  0  0  0  0  0  0  0  0  0  0  0
  -29.7084  -19.9912   20.0140 N   0  0  0  0  0  0  0  0  0  0  0  0
  -26.3567  -13.5481   20.6060 N   0  0  0  0  0  0  0  0  0  0  0  0
  -21.7743  -26.8012   23.3565 N   0  0  0  0  0  0  0  0  0  0  0  0
  -29.4913  -15.7281   20.5304 N   0  0  0  0  0  0  0  0  0  0  0  0
  -24.8436  -15.2144   19.8682 N   0  0  0  0  0  0  0  0  0  0  0  0
  -22.1680  -12.2167   21.9299 N   0  0  0  0  0  0  0  0  0  0  0  0
  -28.6828  -17.9404   20.6505 N   0  0  0  0  0  0  0  0  0  0  0  0
  -21.0722  -23.2232   23.3923 N   0  0  0  0  0  0  0  0  0  0  0  0
  -20.7763  -30.0282   23.1361 N   0  0  0  0  0  0  0  0  0  0  0  0
  -22.4994  -32.3487   25.3073 N   0  3  0  0  0  0  0  0  0  0  0  0
  -29.2581  -24.2650   21.1557 N   0  3  0  0  0  0  0  0  0  0  0  0
  -22.2024  -14.2013   20.7816 O   0  0  0  0  0  0  0  0  0  0  0  0
  -21.4897  -24.8274   21.7569 O   0  0  0  0  0  0  0  0  0  0  0  0
  -19.5578  -27.4788   23.6097 O   0  0  0  0  0  0  0  0  0  0  0  0
  -22.9918  -30.7101   23.0737 O   0  0  0  0  0  0  0  0  0  0  0  0
  -30.8118  -17.4966   19.8430 O   0  0  0  0  0  0  0  0  0  0  0  0
  -23.7984   -7.4909   24.3885 O   0  0  0  0  0  0  0  0  0  0  0  0
  -27.8736  -25.9659   22.9634 O   0  0  0  0  0  0  0  0  0  1  0  0
  -19.4431   -4.6019   22.6308 F   0  0  0  0  0  0  0  0  0  0  0  0
  -24.0724   -4.8603   23.5840 F   0  0  0  0  0  0  0  0  0  0  0  0
  1  2  1  0  0  0  0
  1  5  2  0  0  0  0
  2  6  2  0  0  0  0
  3  8  2  0  0  0  0
  3 16  1  0  0  0  0
  4  9  1  0  0  0  0
  4 16  2  0  0  0  0
  5 18  1  0  0  0  0
  6 20  1  0  0  0  0
  7 10  2  0  0  0  0
  7 19  1  0  0  0  0
  8 24  1  0  0  0  0
  9 24  2  0  0  0  0
 10 25  1  0  0  0  0
 11 12  2  0  0  0  0
 11 26  1  0  0  0  0
 12 27  1  0  0  0  0
 13 21  1  0  0  0  0
 13 25  2  0  0  0  0
 14 22  2  0  0  0  0
 14 31  1  0  0  0  0
 15 27  2  0  0  0  0
 15 28  1  0  0  0  0
 16 29  1  0  0  0  0
 17 29  1  0  0  0  0
 17 32  2  0  0  0  0
 17 33  1  0  0  0  0
 18 20  2  0  0  0  0
 18 38  1  0  0  0  0
 19 21  2  0  0  0  0
 19 39  1  0  0  0  0
 20 47  1  0  0  0  0
 21 40  1  0  0  0  0
 22 23  1  0  0  0  0
 22 50  1  0  0  0  0
 23 30  2  0  0  0  0
 23 58  1  0  0  0  0
 24 81  1  0  0  0  0
 25 82  1  0  0  0  0
 26 28  2  0  0  0  0
 26 81  1  0  0  0  0
 27 83  1  0  0  0  0
 28 84  1  0  0  0  0
 29 64  2  0  0  0  0
 30 51  1  0  0  0  0
 30 65  1  0  0  0  0
 31 65  2  0  0  0  0
 31 71  1  0  0  0  0
 32 66  1  0  0  0  0
 32 69  1  0  0  0  0
 33 70  1  0  0  0  0
 33 76  2  0  0  0  0
 34 48  1  0  0  0  0
 34 72  1  0  0  0  0
 34 77  2  0  0  0  0
 35 60  1  0  0  0  0
 35 67  1  0  0  0  0
 35 78  2  0  0  0  0
 36 61  1  0  0  0  0
 36 73  1  0  0  0  0
 36 79  2  0  0  0  0
 37 68  1  0  0  0  0
 37 71  1  0  0  0  0
 37 80  2  0  0  0  0
 38 41  1  0  0  0  0
 39 48  1  0  0  0  0
 40 67  1  0  0  0  0
 41 43  1  0  0  0  0
 42 44  1  0  0  0  0
 42 45  1  0  0  0  0
 43 47  1  0  0  0  0
 44 49  1  0  0  0  0
 45 68  1  0  0  0  0
 46 49  1  0  0  0  0
 46 68  1  0  0  0  0
 47 72  1  0  0  0  0
 48 67  1  0  0  0  0
 49 66  1  0  0  0  0
 52 61  1  0  0  0  0
 53 62  1  0  0  0  0
 54 63  1  0  0  0  0
 55 63  1  0  0  0  0
 56 63  1  0  0  0  0
 57 74  1  0  0  0  0
 58 75  1  0  0  0  0
 59 62  1  0  0  0  0
 59 82  1  0  0  0  0
 60 63  1  0  0  0  0
 60 73  1  0  0  0  0
 61 74  1  0  0  0  0
 62 75  1  0  0  0  0
 64 66  1  0  0  0  0
M  CHG  2  74   1  75   1
M  ISO  4  37 100  59 101  71 100  82 101
M  END
> <Batch ID>
0136

> <Smiles>
CNC(C)C(=O)NC(C(=O)N1Cc2cc([101O:1][101CH2:1]C(C)NCc3c(C)cc([100NH:0][100C:0](=O)N4CCCC(n5nc(-c6ccc(Oc7ccc(F)cc7F)cc6)c(C(N)=O)c5N)C4)nc3C)ccc2CC1C(=O)NC1CCCc2ccccc21)C(C)(C)C

> <Shape>
0.239

> <Color>
0.117

> <Negative vol penalty>
0.000

$$$$

  -OEChem-04052321023D

 89 98  0     1  0  0  0  0  0999 V2000
  -19.4903  -28.1409   26.7964 C   0  0  0  0  0  0  0  0  0  0  0  0
  -20.7323  -27.7105   26.3405 C   0  0  0  0  0  0  0  0  0  0  0  0
  -25.5077  -13.1818   20.6974 C   0  0  0  0  0  0  0  0  0  0  0  0
  -27.2139  -12.2383   19.2706 C   0  0  0  0  0  0  0  0  0  0  0  0
  -18.5393  -28.6066   25.8895 C   0  0  0  0  0  0  0  0  0  0  0  0
  -21.0235  -27.7446   24.9773 C   0  0  0  0  0  0  0  0  0  0  0  0
  -26.4556  -28.9113   22.4010 C   0  0  0  0  0  0  0  0  0  0  0  0
  -24.6700  -12.1048   20.4078 C   0  0  0  0  0  0  0  0  0  0  0  0
  -26.3762  -11.1612   18.9810 C   0  0  0  0  0  0  0  0  0  0  0  0
  -27.4496  -28.0780   21.8898 C   0  0  0  0  0  0  0  0  0  0  0  0
  -24.3309   -8.8825   21.3746 C   0  0  0  0  0  0  0  0  0  0  0  0
  -23.6539   -8.2839   22.4371 C   0  0  0  0  0  0  0  0  0  0  0  0
  -26.5412  -28.3641   19.6735 C   0  0  0  0  0  0  0  0  0  0  0  0
  -21.5419   -8.8203   21.3935 C   0  0  0  0  0  0  0  0  0  0  0  0
  -26.7797  -13.2485   20.1287 C   0  0  0  0  0  0  0  0  0  0  0  0
  -28.5769  -14.4554   21.4782 C   0  0  0  0  0  0  0  0  0  0  0  0
  -18.8224  -28.6554   24.5154 C   0  0  0  0  0  0  0  0  0  0  0  0
  -25.4887  -29.4694   21.5524 C   0  0  0  0  0  0  0  0  0  0  0  0
  -20.0748  -28.2101   24.0510 C   0  0  0  0  0  0  0  0  0  0  0  0
  -25.5375  -29.2062   20.1760 C   0  0  0  0  0  0  0  0  0  0  0  0
  -25.1042  -11.0945   19.5496 C   0  0  0  0  0  0  0  0  0  0  0  0
  -27.4908  -27.8020   20.5263 C   0  0  0  0  0  0  0  0  0  0  0  0
  -23.6134   -9.4501   20.3216 C   0  0  0  0  0  0  0  0  0  0  0  0
  -22.2594   -8.2527   22.4466 C   0  0  0  0  0  0  0  0  0  0  0  0
  -22.2190   -9.4189   20.3310 C   0  0  0  0  0  0  0  0  0  0  0  0
  -27.6453  -14.3611   20.4270 C   0  0  0  0  0  0  0  0  0  0  0  0
  -29.1399  -15.6991   21.3276 C   0  0  0  0  0  0  0  0  0  0  0  0
  -28.9041  -13.5038   22.4995 C   0  0  0  0  0  0  0  0  0  0  0  0
  -29.1757  -23.4296   20.5559 C   0  0  0  0  0  0  0  0  0  0  0  0
  -22.3251  -29.2691   21.3183 C   0  0  0  0  0  0  0  0  0  0  0  0
  -22.7373  -31.5598   19.0589 C   0  0  0  0  0  0  0  0  0  0  0  0
  -24.8049  -33.0551   16.7926 C   0  0  0  0  0  0  0  0  0  0  0  0
  -26.7868  -20.5132   18.4497 C   0  0  0  0  0  0  0  0  0  0  0  0
  -17.7455  -29.1224   23.5684 C   0  0  0  0  0  0  0  0  0  0  0  0
  -24.4390  -30.3878   22.1156 C   0  0  0  0  0  0  0  0  0  0  0  0
  -24.5350  -29.7969   19.2197 C   0  0  0  0  0  0  0  0  0  0  0  0
  -18.2683  -29.4777   22.1790 C   0  0  0  0  0  0  0  0  0  0  0  0
  -30.1755  -18.9788   18.0178 C   0  0  0  0  0  0  0  0  0  0  0  0
  -19.2121  -28.3928   21.6702 C   0  0  0  0  0  0  0  0  0  0  0  0
  -29.9446  -17.5938   18.6203 C   0  0  0  0  0  0  0  0  0  0  0  0
  -24.7685  -22.6742   20.4189 C   0  0  0  0  0  0  0  0  0  0  0  0
  -31.1172  -26.4328   19.1071 C   0  0  0  0  0  0  0  0  0  0  0  0
  -28.8872  -19.5520   17.4392 C   0  0  0  0  0  0  0  0  0  0  0  0
  -24.8241  -21.2406   19.8857 C   0  0  0  0  0  0  0  0  0  0  0  0
  -27.5231  -18.2284   19.0233 C   0  0  0  0  0  0  0  0  0  0  0  0
  -27.0704  -20.9320   20.8760 C   0  0  0  0  0  0  0  0  0  0  0  0
  -32.0612  -25.6063   18.2496 C   0  0  0  0  0  0  0  0  0  0  0  0
  -30.6662  -23.5705   18.6309 C   0  0  0  0  0  0  0  0  0  0  0  0
  -20.4371  -28.2550   22.5824 C   0  0  1  0  0  0  0  0  0  0  0  0
  -29.7072  -24.3663   19.5118 C   0  0  2  0  0  0  0  0  0  0  0  0
  -23.1982  -30.4890   21.2338 C   0  0  1  0  0  0  0  0  0  0  0  0
  -25.6506  -22.8596   21.6638 C   0  0  1  0  0  0  0  0  0  0  0  0
  -30.3983  -25.5793   20.1650 C   0  0  2  0  0  0  0  0  0  0  0  0
  -28.7945  -17.6235   19.6409 C   0  0  1  0  0  0  0  0  0  0  0  0
  -27.0911  -22.3695   21.4041 C   0  0  2  0  0  0  0  0  0  0  0  0
  -24.8474  -34.8760   15.0664 C   0  0  0  0  0  0  0  0  0  0  0  0
  -24.1667  -24.7050   22.4856 C   0  0  0  0  0  0  0  0  0  0  0  0
  -26.5065  -24.4850   23.3689 C   0  0  0  0  0  0  0  0  0  0  0  0
  -21.1635  -29.7791   17.1452 C   0  0  0  0  0  0  0  0  0  0  0  0
  -22.0405  -31.1599   15.2498 C   0  0  0  0  0  0  0  0  0  0  0  0
  -20.6086  -32.2133   16.9998 C   0  0  0  0  0  0  0  0  0  0  0  0
  -26.9342  -34.5258   18.2284 C   0  0  0  0  0  0  0  0  0  0  0  0
  -29.4025  -26.4488   20.9391 C   0  0  0  0  0  0  0  0  0  1  0  0
  -22.9837  -31.5604   17.5695 C   0  0  1  0  0  0  0  0  0  0  0  0
  -25.1120  -34.5165   16.5202 C   0  0  2  0  0  0  0  0  0  0  0  0
  -25.6008  -24.3068   22.1558 C   0  0  0  0  0  0  0  0  0  0  0  0
  -21.7169  -31.1653   16.7591 C   0  0  0  0  0  0  0  0  0  0  0  0
  -27.6151  -15.4576   19.6649 N   0  0  0  0  0  0  0  0  0  0  0  0
  -28.5346  -16.2527   20.2379 N   0  0  0  0  0  0  0  0  0  0  0  0
  -23.5243  -30.6836   19.8196 N   0  0  0  0  0  0  0  0  0  0  0  0
  -27.7948  -19.5354   18.4216 N   0  0  0  0  0  0  0  0  0  0  0  0
  -26.2118  -20.7975   19.6976 N   0  0  0  0  0  0  0  0  0  0  0  0
  -30.0886  -16.3623   22.0223 N   0  0  0  0  0  0  0  0  0  0  0  0
  -28.2306  -12.2747   22.5081 N   0  0  0  0  0  0  0  0  0  0  0  0
  -21.3808  -29.3218   22.3258 N   0  0  0  0  0  0  0  0  0  0  0  0
  -27.8086  -23.2339   20.4941 N   0  0  0  0  0  0  0  0  0  0  0  0
  -23.5138  -32.8800   17.2440 N   0  0  0  0  0  0  0  0  0  0  0  0
  -31.3017  -24.4800   17.6357 N   0  3  0  0  0  0  0  0  0  0  0  0
  -26.5408  -34.8110   16.8245 N   0  3  0  0  0  0  0  0  0  0  0  0
  -29.7564  -13.7430   23.3883 O   0  0  0  0  0  0  0  0  0  0  0  0
  -29.9477  -22.9193   21.3592 O   0  0  0  0  0  0  0  0  0  0  0  0
  -22.4945  -28.3488   20.5270 O   0  0  0  0  0  0  0  0  0  0  0  0
  -21.8832  -32.3144   19.5308 O   0  0  0  0  0  0  0  0  0  0  0  0
  -25.6268  -32.1580   16.6185 O   0  0  0  0  0  0  0  0  0  0  0  0
  -26.4192  -21.0903   17.4187 O   0  0  0  0  0  0  0  0  0  0  0  0
  -24.2871  -10.0433   19.2671 O   0  0  0  0  0  0  0  0  0  0  0  0
  -28.4689  -26.9805   20.0199 O   0  0  0  0  0  0  0  0  0  1  0  0
  -21.6095   -7.6765   23.4662 F   0  0  0  0  0  0  0  0  0  0  0  0
  -21.5243   -9.9615   19.3217 F   0  0  0  0  0  0  0  0  0  0  0  0
  1  2  1  0  0  0  0
  1  5  2  0  0  0  0
  2  6  2  0  0  0  0
  3  8  2  0  0  0  0
  3 15  1  0  0  0  0
  4  9  1  0  0  0  0
  4 15  2  0  0  0  0
  5 17  1  0  0  0  0
  6 19  1  0  0  0  0
  7 10  2  0  0  0  0
  7 18  1  0  0  0  0
  8 21  1  0  0  0  0
  9 21  2  0  0  0  0
 10 22  1  0  0  0  0
 11 12  2  0  0  0  0
 11 23  1  0  0  0  0
 12 24  1  0  0  0  0
 13 20  1  0  0  0  0
 13 22  2  0  0  0  0
 14 24  2  0  0  0  0
 14 25  1  0  0  0  0
 15 26  1  0  0  0  0
 16 26  1  0  0  0  0
 16 27  2  0  0  0  0
 16 28  1  0  0  0  0
 17 19  2  0  0  0  0
 17 34  1  0  0  0  0
 18 20  2  0  0  0  0
 18 35  1  0  0  0  0
 19 49  1  0  0  0  0
 20 36  1  0  0  0  0
 21 86  1  0  0  0  0
 22 87  1  0  0  0  0
 23 25  2  0  0  0  0
 23 86  1  0  0  0  0
 24 88  1  0  0  0  0
 25 89  1  0  0  0  0
 26 68  2  0  0  0  0
 27 69  1  0  0  0  0
 27 73  1  0  0  0  0
 28 74  1  0  0  0  0
 28 80  2  0  0  0  0
 29 50  1  0  0  0  0
 29 76  1  0  0  0  0
 29 81  2  0  0  0  0
 30 51  1  0  0  0  0
 30 75  1  0  0  0  0
 30 82  2  0  0  0  0
 31 64  1  0  0  0  0
 31 70  1  0  0  0  0
 31 83  2  0  0  0  0
 32 65  1  0  0  0  0
 32 77  1  0  0  0  0
 32 84  2  0  0  0  0
 33 71  1  0  0  0  0
 33 72  1  0  0  0  0
 33 85  2  0  0  0  0
 34 37  1  0  0  0  0
 35 51  1  0  0  0  0
 36 70  1  0  0  0  0
 37 39  1  0  0  0  0
 38 40  1  0  0  0  0
 38 43  1  0  0  0  0
 39 49  1  0  0  0  0
 40 54  1  0  0  0  0
 41 44  1  0  0  0  0
 41 52  1  0  0  0  0
 42 47  1  0  0  0  0
 42 53  1  0  0  0  0
 43 71  1  0  0  0  0
 44 72  1  0  0  0  0
 45 54  1  0  0  0  0
 45 71  1  0  0  0  0
 46 55  1  0  0  0  0
 46 72  1  0  0  0  0
 47 78  1  0  0  0  0
 48 50  1  0  0  0  0
 48 78  1  0  0  0  0
 49 75  1  0  0  0  0
 50 53  1  0  0  0  0
 51 70  1  0  0  0  0
 52 55  1  0  0  0  0
 52 66  1  0  0  0  0
 53 63  1  0  0  0  0
 54 69  1  0  0  0  0
 55 76  1  0  0  0  0
 56 65  1  0  0  0  0
 57 66  1  0  0  0  0
 58 66  1  0  0  0  0
 59 67  1  0  0  0  0
 60 67  1  0  0  0  0
 61 67  1  0  0  0  0
 62 79  1  0  0  0  0
 63 87  1  0  0  0  0
 64 67  1  0  0  0  0
 64 77  1  0  0  0  0
 65 79  1  0  0  0  0
 68 69  1  0  0  0  0
M  CHG  2  78   1  79   1
M  ISO  4  33 100  63 101  72 100  87 101
M  END
> <Batch ID>
0136

> <Smiles>
CNC(C)C(=O)NC(C(=O)N1Cc2cc([101O:1][101CH2:1]C3CCNCC3C(=O)NC3C[100N:0]([100C:0](=O)N4CCCC(n5nc(-c6ccc(Oc7ccc(F)cc7F)cc6)c(C(N)=O)c5N)C4)CCC3C(C)C)ccc2CC1C(=O)NC1CCCc2ccccc21)C(C)(C)C

> <Shape>
0.289

> <Color>
0.082

> <Negative vol penalty>
0.000

$$$$

  -OEChem-04052321023D

 88 98  0     1  0  0  0  0  0999 V2000
  -28.8152  -36.1493   18.0267 C   0  0  0  0  0  0  0  0  0  0  0  0
  -29.0970  -34.8338   17.6724 C   0  0  0  0  0  0  0  0  0  0  0  0
  -22.9676  -10.0571   20.2779 C   0  0  0  0  0  0  0  0  0  0  0  0
  -24.3187   -9.2012   22.0887 C   0  0  0  0  0  0  0  0  0  0  0  0
  -28.2364  -36.4280   19.2641 C   0  0  0  0  0  0  0  0  0  0  0  0
  -28.8012  -33.7963   18.5559 C   0  0  0  0  0  0  0  0  0  0  0  0
  -26.7342  -26.9378   18.6211 C   0  0  0  0  0  0  0  0  0  0  0  0
  -22.2130   -8.8840   20.2864 C   0  0  0  0  0  0  0  0  0  0  0  0
  -23.5641   -8.0281   22.0972 C   0  0  0  0  0  0  0  0  0  0  0  0
  -27.1045  -25.7063   19.1599 C   0  0  0  0  0  0  0  0  0  0  0  0
  -20.5600   -7.0091   23.2624 C   0  0  0  0  0  0  0  0  0  0  0  0
  -20.1493   -6.5136   24.4999 C   0  0  0  0  0  0  0  0  0  0  0  0
  -26.0326  -26.3001   21.2379 C   0  0  0  0  0  0  0  0  0  0  0  0
  -29.1014  -21.9842   21.8738 C   0  0  0  0  0  0  0  0  0  0  0  0
  -27.3980  -20.8768   20.5666 C   0  0  0  0  0  0  0  0  0  0  0  0
  -21.3532   -4.4619   24.0779 C   0  0  0  0  0  0  0  0  0  0  0  0
  -24.0205  -10.2157   21.1790 C   0  0  0  0  0  0  0  0  0  0  0  0
  -24.5562  -12.6009   21.9079 C   0  0  0  0  0  0  0  0  0  0  0  0
  -27.9245  -35.3926   20.1592 C   0  0  0  0  0  0  0  0  0  0  0  0
  -26.0186  -27.8655   19.3916 C   0  0  0  0  0  0  0  0  0  0  0  0
  -28.2189  -34.0616   19.8070 C   0  0  0  0  0  0  0  0  0  0  0  0
  -25.6523  -27.5415   20.7057 C   0  0  0  0  0  0  0  0  0  0  0  0
  -28.1225  -22.0265   20.8811 C   0  0  0  0  0  0  0  0  0  0  0  0
  -29.3558  -20.7921   22.5521 C   0  0  0  0  0  0  0  0  0  0  0  0
  -27.6523  -19.6847   21.2449 C   0  0  0  0  0  0  0  0  0  0  0  0
  -28.6313  -19.6424   22.2377 C   0  0  0  0  0  0  0  0  0  0  0  0
  -22.5112   -7.8695   21.1960 C   0  0  0  0  0  0  0  0  0  0  0  0
  -26.7562  -25.3885   20.4694 C   0  0  0  0  0  0  0  0  0  0  0  0
  -21.3674   -6.2310   22.4326 C   0  0  0  0  0  0  0  0  0  0  0  0
  -20.5458   -5.2400   24.9076 C   0  0  0  0  0  0  0  0  0  0  0  0
  -21.7640   -4.9574   22.8404 C   0  0  0  0  0  0  0  0  0  0  0  0
  -24.8007  -11.4270   21.1704 C   0  0  0  0  0  0  0  0  0  0  0  0
  -25.5750  -13.4497   21.5501 C   0  0  0  0  0  0  0  0  0  0  0  0
  -23.5025  -12.8975   22.8338 C   0  0  0  0  0  0  0  0  0  0  0  0
  -26.5757  -30.8135   20.4418 C   0  0  0  0  0  0  0  0  0  0  0  0
  -23.5019  -30.6136   21.4585 C   0  0  0  0  0  0  0  0  0  0  0  0
  -20.8817  -28.6359   22.3914 C   0  0  0  0  0  0  0  0  0  0  0  0
  -31.0364  -14.2850   20.6237 C   0  0  0  0  0  0  0  0  0  0  0  0
  -27.3429  -35.7469   21.5050 C   0  0  0  0  0  0  0  0  0  0  0  0
  -25.6036  -29.1788   18.7869 C   0  0  0  0  0  0  0  0  0  0  0  0
  -24.8668  -28.4945   21.5678 C   0  0  0  0  0  0  0  0  0  0  0  0
  -26.7161  -34.5586   22.2296 C   0  0  0  0  0  0  0  0  0  0  0  0
  -29.0238  -13.1063   17.8657 C   0  0  0  0  0  0  0  0  0  0  0  0
  -27.6450  -33.3498   22.1755 C   0  0  0  0  0  0  0  0  0  0  0  0
  -33.8896  -14.3004   23.1373 C   0  0  0  0  0  0  0  0  0  0  0  0
  -33.8779  -15.4316   24.1258 C   0  0  0  0  0  0  0  0  0  0  0  0
  -27.7342  -12.6372   18.5418 C   0  0  0  0  0  0  0  0  0  0  0  0
  -30.2480  -12.8795   18.7511 C   0  0  0  0  0  0  0  0  0  0  0  0
  -28.8547  -12.9689   20.7775 C   0  0  0  0  0  0  0  0  0  0  0  0
  -29.6069  -15.2583   22.5818 C   0  0  0  0  0  0  0  0  0  0  0  0
  -27.8900  -32.9067   20.7280 C   0  0  1  0  0  0  0  0  0  0  0  0
  -25.3218  -30.2548   19.8310 C   0  0  1  0  0  0  0  0  0  0  0  0
  -32.5852  -14.9106   23.5651 C   0  0  0  0  0  0  0  0  0  0  0  0
  -27.5906  -13.2448   19.9501 C   0  0  2  0  0  0  0  0  0  0  0  0
  -31.7053  -15.7121   22.6374 C   0  0  2  0  0  0  0  0  0  0  0  0
  -30.4386  -16.4004   23.1779 C   0  0  1  0  0  0  0  0  0  0  0  0
  -30.4086  -20.7738   23.6118 C   0  0  0  0  0  0  0  0  0  0  0  0
  -26.8625  -18.4675   20.8894 C   0  0  0  0  0  0  0  0  0  0  0  0
  -18.5116  -28.7612   23.2065 C   0  0  0  0  0  0  0  0  0  0  0  0
  -24.5001  -31.3985   24.2329 C   0  0  0  0  0  0  0  0  0  0  0  0
  -22.3220  -30.5925   25.1682 C   0  0  0  0  0  0  0  0  0  0  0  0
  -22.3562  -32.4892   23.5484 C   0  0  0  0  0  0  0  0  0  0  0  0
  -19.8691  -27.1700   20.0282 C   0  0  0  0  0  0  0  0  0  0  0  0
  -28.9049  -18.3606   22.9677 C   0  0  0  0  0  0  0  0  0  0  0  0
  -27.8510  -23.3007   20.1554 C   0  0  0  0  0  0  0  0  0  1  0  0
  -22.8223  -30.1455   22.7226 C   0  0  1  0  0  0  0  0  0  0  0  0
  -19.4177  -28.6482   21.9903 C   0  0  2  0  0  0  0  0  0  0  0  0
  -23.0166  -31.1390   23.9027 C   0  0  0  0  0  0  0  0  0  0  0  0
  -25.8893  -11.5182   20.4018 N   0  0  0  0  0  0  0  0  0  0  0  0
  -26.3379  -12.7596   20.6545 N   0  0  0  0  0  0  0  0  0  0  0  0
  -24.4898  -29.7685   20.9335 N   0  0  0  0  0  0  0  0  0  0  0  0
  -30.0445  -13.4664   20.0777 N   0  0  0  0  0  0  0  0  0  0  0  0
  -30.8038  -14.8529   21.8575 N   0  0  0  0  0  0  0  0  0  0  0  0
  -25.8838  -14.7116   21.9171 N   0  0  0  0  0  0  0  0  0  0  0  0
  -22.5382  -11.9124   23.0867 N   0  0  0  0  0  0  0  0  0  0  0  0
  -26.7517  -32.1670   20.2264 N   0  0  0  0  0  0  0  0  0  0  0  0
  -21.4277  -29.9019   22.3701 N   0  0  0  0  0  0  0  0  0  0  0  0
  -30.1710  -17.7000   22.5350 N   0  3  0  0  0  0  0  0  0  0  0  0
  -19.0701  -27.3964   21.2600 N   0  3  0  0  0  0  0  0  0  0  0  0
  -23.4092  -14.0093   23.4072 O   0  0  0  0  0  0  0  0  0  0  0  0
  -27.3272  -30.0718   21.0637 O   0  0  0  0  0  0  0  0  0  0  0  0
  -23.1635  -31.6860   20.9515 O   0  0  0  0  0  0  0  0  0  0  0  0
  -21.4801  -27.6067   22.6969 O   0  0  0  0  0  0  0  0  0  0  0  0
  -32.0872  -14.5301   20.0164 O   0  0  0  0  0  0  0  0  0  0  0  0
  -21.7750   -6.7248   21.2047 O   0  0  0  0  0  0  0  0  0  0  0  0
  -27.1194  -24.1792   21.0016 O   0  0  0  0  0  0  0  0  0  1  0  0
  -20.1526   -4.7648   26.0966 F   0  0  0  0  0  0  0  0  0  0  0  0
  -22.5405   -4.2057   22.0481 F   0  0  0  0  0  0  0  0  0  0  0  0
  1  2  1  0  0  0  0
  1  5  2  0  0  0  0
  2  6  2  0  0  0  0
  3  8  2  0  0  0  0
  3 17  1  0  0  0  0
  4  9  1  0  0  0  0
  4 17  2  0  0  0  0
  5 19  1  0  0  0  0
  6 21  1  0  0  0  0
  7 10  2  0  0  0  0
  7 20  1  0  0  0  0
  8 27  1  0  0  0  0
  9 27  2  0  0  0  0
 10 28  1  0  0  0  0
 11 12  2  0  0  0  0
 11 29  1  0  0  0  0
 12 30  1  0  0  0  0
 13 22  1  0  0  0  0
 13 28  2  0  0  0  0
 14 23  1  0  0  0  0
 14 24  2  0  0  0  0
 15 23  2  0  0  0  0
 15 25  1  0  0  0  0
 16 30  2  0  0  0  0
 16 31  1  0  0  0  0
 17 32  1  0  0  0  0
 18 32  1  0  0  0  0
 18 33  2  0  0  0  0
 18 34  1  0  0  0  0
 19 21  2  0  0  0  0
 19 39  1  0  0  0  0
 20 22  2  0  0  0  0
 20 40  1  0  0  0  0
 21 51  1  0  0  0  0
 22 41  1  0  0  0  0
 23 65  1  0  0  0  0
 24 26  1  0  0  0  0
 24 57  1  0  0  0  0
 25 26  2  0  0  0  0
 25 58  1  0  0  0  0
 26 64  1  0  0  0  0
 27 85  1  0  0  0  0
 28 86  1  0  0  0  0
 29 31  2  0  0  0  0
 29 85  1  0  0  0  0
 30 87  1  0  0  0  0
 31 88  1  0  0  0  0
 32 69  2  0  0  0  0
 33 70  1  0  0  0  0
 33 74  1  0  0  0  0
 34 75  1  0  0  0  0
 34 80  2  0  0  0  0
 35 52  1  0  0  0  0
 35 76  1  0  0  0  0
 35 81  2  0  0  0  0
 36 66  1  0  0  0  0
 36 71  1  0  0  0  0
 36 82  2  0  0  0  0
 37 67  1  0  0  0  0
 37 77  1  0  0  0  0
 37 83  2  0  0  0  0
 38 72  1  0  0  0  0
 38 73  1  0  0  0  0
 38 84  2  0  0  0  0
 39 42  1  0  0  0  0
 40 52  1  0  0  0  0
 41 71  1  0  0  0  0
 42 44  1  0  0  0  0
 43 47  1  0  0  0  0
 43 48  1  0  0  0  0
 44 51  1  0  0  0  0
 45 46  1  0  0  0  0
 45 53  1  0  0  0  0
 46 53  1  0  0  0  0
 47 54  1  0  0  0  0
 48 72  1  0  0  0  0
 49 54  1  0  0  0  0
 49 72  1  0  0  0  0
 50 56  1  0  0  0  0
 50 73  1  0  0  0  0
 51 76  1  0  0  0  0
 52 71  1  0  0  0  0
 53 55  1  0  0  0  0
 54 70  1  0  0  0  0
 55 56  1  0  0  0  0
 55 73  1  0  0  0  0
 56 78  1  0  0  0  0
 59 67  1  0  0  0  0
 60 68  1  0  0  0  0
 61 68  1  0  0  0  0
 62 68  1  0  0  0  0
 63 79  1  0  0  0  0
 64 78  1  0  0  0  0
 65 86  1  0  0  0  0
 66 68  1  0  0  0  0
 66 77  1  0  0  0  0
 67 79  1  0  0  0  0
 69 70  1  0  0  0  0
M  CHG  2  78   1  79   1
M  ISO  4  38 100  65 101  73 100  86 101
M  END
> <Batch ID>
0136

> <Smiles>
CNC(C)C(=O)NC(C(=O)N1Cc2cc([101O:1][101CH2:1]c3cc(C)c(CNC4C[100N:0]([100C:0](=O)N5CCCC(n6nc(-c7ccc(Oc8ccc(F)cc8F)cc7)c(C(N)=O)c6N)C5)C4C4CC4)c(C)c3)ccc2CC1C(=O)NC1CCCc2ccccc21)C(C)(C)C

> <Shape>
0.343

> <Color>
0.149

> <Negative vol penalty>
0.000

$$$$

  -OEChem-04052321023D

 85 94  0     1  0  0  0  0  0999 V2000
  -20.1184  -12.1788   24.3054 C   0  0  0  0  0  0  0  0  0  0  0  0
  -21.4207  -11.9931   24.7582 C   0  0  0  0  0  0  0  0  0  0  0  0
  -23.2865   -9.8003   19.9125 C   0  0  0  0  0  0  0  0  0  0  0  0
  -23.7349   -9.9412   22.2823 C   0  0  0  0  0  0  0  0  0  0  0  0
  -19.5638  -13.4578   24.2869 C   0  0  0  0  0  0  0  0  0  0  0  0
  -22.1695  -13.0867   25.1918 C   0  0  0  0  0  0  0  0  0  0  0  0
  -32.4133  -16.6958   28.3551 C   0  0  0  0  0  0  0  0  0  0  0  0
  -31.2452  -17.9151   26.6271 C   0  0  0  0  0  0  0  0  0  0  0  0
  -27.2339  -14.8556   29.9392 C   0  0  0  0  0  0  0  0  0  0  0  0
  -22.5592   -8.6283   20.1197 C   0  0  0  0  0  0  0  0  0  0  0  0
  -23.0075   -8.7693   22.4896 C   0  0  0  0  0  0  0  0  0  0  0  0
  -32.7203  -15.6905   27.4382 C   0  0  0  0  0  0  0  0  0  0  0  0
  -31.5522  -16.9097   25.7102 C   0  0  0  0  0  0  0  0  0  0  0  0
  -28.4781  -15.4815   30.0040 C   0  0  0  0  0  0  0  0  0  0  0  0
  -19.4760   -7.7702   21.2109 C   0  0  0  0  0  0  0  0  0  0  0  0
  -18.2476   -7.6463   20.5619 C   0  0  0  0  0  0  0  0  0  0  0  0
  -27.3887  -17.6338   30.0016 C   0  0  0  0  0  0  0  0  0  0  0  0
  -19.0490   -5.6727   19.4218 C   0  0  0  0  0  0  0  0  0  0  0  0
  -23.8745  -10.4568   20.9937 C   0  0  0  0  0  0  0  0  0  0  0  0
  -24.1357  -12.9865   20.7947 C   0  0  0  0  0  0  0  0  0  0  0  0
  -31.6757  -17.8081   27.9495 C   0  0  0  0  0  0  0  0  0  0  0  0
  -20.3028  -14.5662   24.7295 C   0  0  0  0  0  0  0  0  0  0  0  0
  -26.0563  -15.6157   29.8941 C   0  0  0  0  0  0  0  0  0  0  0  0
  -21.6247  -14.3819   25.1779 C   0  0  0  0  0  0  0  0  0  0  0  0
  -26.1308  -17.0151   29.9388 C   0  0  0  0  0  0  0  0  0  0  0  0
  -22.4196   -8.1128   21.4083 C   0  0  0  0  0  0  0  0  0  0  0  0
  -32.2898  -15.7974   26.1158 C   0  0  0  0  0  0  0  0  0  0  0  0
  -28.5558  -16.8708   30.0323 C   0  0  0  0  0  0  0  0  0  0  0  0
  -20.4910   -6.8454   20.9653 C   0  0  0  0  0  0  0  0  0  0  0  0
  -18.0341   -6.5975   19.6674 C   0  0  0  0  0  0  0  0  0  0  0  0
  -20.2775   -5.7966   20.0708 C   0  0  0  0  0  0  0  0  0  0  0  0
  -24.6264  -11.6671   20.7802 C   0  0  0  0  0  0  0  0  0  0  0  0
  -25.2380  -13.7656   20.5407 C   0  0  0  0  0  0  0  0  0  0  0  0
  -22.8028  -13.4651   21.0180 C   0  0  0  0  0  0  0  0  0  0  0  0
  -23.6919  -15.9663   27.7988 C   0  0  0  0  0  0  0  0  0  0  0  0
  -22.3871  -17.7657   30.1614 C   0  0  0  0  0  0  0  0  0  0  0  0
  -22.8651  -19.6707   32.9523 C   0  0  0  0  0  0  0  0  0  0  0  0
  -31.1076  -12.9190   21.3667 C   0  0  0  0  0  0  0  0  0  0  0  0
  -19.6770  -15.9360   24.6464 C   0  0  0  0  0  0  0  0  0  0  0  0
  -24.7209  -14.9249   29.8513 C   0  0  0  0  0  0  0  0  0  0  0  0
  -24.8953  -17.8762   29.9131 C   0  0  0  0  0  0  0  0  0  0  0  0
  -20.4070  -16.9904   25.4745 C   0  0  0  0  0  0  0  0  0  0  0  0
  -32.1110  -20.7110   30.0168 C   0  0  0  0  0  0  0  0  0  0  0  0
  -29.4624  -13.6587   18.2970 C   0  0  0  0  0  0  0  0  0  0  0  0
  -21.9121  -16.9036   25.2423 C   0  0  0  0  0  0  0  0  0  0  0  0
  -27.9921  -13.3512   18.5866 C   0  0  0  0  0  0  0  0  0  0  0  0
  -32.3426  -19.1976   30.1699 C   0  0  0  0  0  0  0  0  0  0  0  0
  -31.6434  -20.4373   28.5766 C   0  0  0  0  0  0  0  0  0  0  0  0
  -30.3943  -12.6788   19.0066 C   0  0  0  0  0  0  0  0  0  0  0  0
  -28.7055  -12.2510   20.7499 C   0  0  0  0  0  0  0  0  0  0  0  0
  -22.4601  -15.5397   25.6795 C   0  0  1  0  0  0  0  0  0  0  0  0
  -23.6096  -15.8070   29.2906 C   0  0  1  0  0  0  0  0  0  0  0  0
  -27.7289  -13.2467   20.1009 C   0  0  2  0  0  0  0  0  0  0  0  0
  -31.3227  -18.9631   29.0027 C   0  0  0  0  0  0  0  0  0  0  0  0
  -21.6120  -21.0401   34.6410 C   0  0  0  0  0  0  0  0  0  0  0  0
  -22.0866  -20.0093   28.1155 C   0  0  0  0  0  0  0  0  0  0  0  0
  -21.7411  -21.6019   30.0162 C   0  0  0  0  0  0  0  0  0  0  0  0
  -20.1331  -19.7300   29.6518 C   0  0  0  0  0  0  0  0  0  0  0  0
  -23.7468  -17.9378   35.1836 C   0  0  0  0  0  0  0  0  0  0  0  0
  -29.8784  -18.7705   29.4867 C   0  0  0  0  0  0  0  0  0  1  0  0
  -31.6670  -13.1330   23.7751 C   0  0  0  0  0  0  0  0  0  0  0  0
  -31.6636  -14.6023   24.1574 C   0  0  0  0  0  0  0  0  0  0  0  0
  -22.4419  -19.2237   30.5491 C   0  0  1  0  0  0  0  0  0  0  0  0
  -22.1745  -19.6679   34.3042 C   0  0  2  0  0  0  0  0  0  0  0  0
  -21.6242  -20.1253   29.5817 C   0  0  0  0  0  0  0  0  0  0  0  0
  -25.9383  -11.6075   20.5360 N   0  0  0  0  0  0  0  0  0  0  0  0
  -26.2812  -12.8993   20.3947 N   0  0  0  0  0  0  0  0  0  0  0  0
  -23.6133  -17.1540   29.8647 N   0  0  0  0  0  0  0  0  0  0  0  0
  -30.0934  -12.6280   20.4394 N   0  0  0  0  0  0  0  0  0  0  0  0
  -25.4069  -15.1004   20.4301 N   0  0  0  0  0  0  0  0  0  0  0  0
  -21.7893  -12.5289   21.2647 N   0  0  0  0  0  0  0  0  0  0  0  0
  -22.5887  -15.4850   27.1199 N   0  0  0  0  0  0  0  0  0  0  0  0
  -22.0082  -19.2927   31.9403 N   0  0  0  0  0  0  0  0  0  0  0  0
  -30.7364  -12.8540   22.7041 N   0  0  0  0  0  0  0  0  0  0  0  0
  -23.1344  -19.2776   35.3753 N   0  3  0  0  0  0  0  0  0  0  0  0
  -22.5157  -14.6857   20.9831 O   0  0  0  0  0  0  0  0  0  0  0  0
  -24.6822  -16.4886   27.3007 O   0  0  0  0  0  0  0  0  0  0  0  0
  -21.2971  -17.1889   30.1301 O   0  0  0  0  0  0  0  0  0  0  0  0
  -24.0455  -19.9810   32.8080 O   0  0  0  0  0  0  0  0  0  0  0  0
  -32.2571  -13.2199   21.0277 O   0  0  0  0  0  0  0  0  0  0  0  0
  -21.7098   -6.9693   21.6110 O   0  0  0  0  0  0  0  0  0  0  0  0
  -29.7689  -17.4843   30.0949 O   0  0  0  0  0  0  0  0  0  1  0  0
  -32.5905  -14.8175   25.2206 O   0  0  0  0  0  0  0  0  0  0  0  0
  -16.8538   -6.4778   19.0454 F   0  0  0  0  0  0  0  0  0  0  0  0
  -21.2484   -4.9044   19.8317 F   0  0  0  0  0  0  0  0  0  0  0  0
  1  2  1  0  0  0  0
  1  5  2  0  0  0  0
  2  6  2  0  0  0  0
  3 10  2  0  0  0  0
  3 19  1  0  0  0  0
  4 11  1  0  0  0  0
  4 19  2  0  0  0  0
  5 22  1  0  0  0  0
  6 24  1  0  0  0  0
  7 12  2  0  0  0  0
  7 21  1  0  0  0  0
  8 13  1  0  0  0  0
  8 21  2  0  0  0  0
  9 14  2  0  0  0  0
  9 23  1  0  0  0  0
 10 26  1  0  0  0  0
 11 26  2  0  0  0  0
 12 27  1  0  0  0  0
 13 27  2  0  0  0  0
 14 28  1  0  0  0  0
 15 16  2  0  0  0  0
 15 29  1  0  0  0  0
 16 30  1  0  0  0  0
 17 25  1  0  0  0  0
 17 28  2  0  0  0  0
 18 30  2  0  0  0  0
 18 31  1  0  0  0  0
 19 32  1  0  0  0  0
 20 32  1  0  0  0  0
 20 33  2  0  0  0  0
 20 34  1  0  0  0  0
 21 54  1  0  0  0  0
 22 24  2  0  0  0  0
 22 39  1  0  0  0  0
 23 25  2  0  0  0  0
 23 40  1  0  0  0  0
 24 51  1  0  0  0  0
 25 41  1  0  0  0  0
 26 81  1  0  0  0  0
 27 83  1  0  0  0  0
 28 82  1  0  0  0  0
 29 31  2  0  0  0  0
 29 81  1  0  0  0  0
 30 84  1  0  0  0  0
 31 85  1  0  0  0  0
 32 66  2  0  0  0  0
 33 67  1  0  0  0  0
 33 70  1  0  0  0  0
 34 71  1  0  0  0  0
 34 76  2  0  0  0  0
 35 52  1  0  0  0  0
 35 72  1  0  0  0  0
 35 77  2  0  0  0  0
 36 63  1  0  0  0  0
 36 68  1  0  0  0  0
 36 78  2  0  0  0  0
 37 64  1  0  0  0  0
 37 73  1  0  0  0  0
 37 79  2  0  0  0  0
 38 69  1  0  0  0  0
 38 74  1  0  0  0  0
 38 80  2  0  0  0  0
 39 42  1  0  0  0  0
 40 52  1  0  0  0  0
 41 68  1  0  0  0  0
 42 45  1  0  0  0  0
 43 47  1  0  0  0  0
 43 48  1  0  0  0  0
 44 46  1  0  0  0  0
 44 49  1  0  0  0  0
 45 51  1  0  0  0  0
 46 53  1  0  0  0  0
 47 54  1  0  0  0  0
 48 54  1  0  0  0  0
 49 69  1  0  0  0  0
 50 53  1  0  0  0  0
 50 69  1  0  0  0  0
 51 72  1  0  0  0  0
 52 68  1  0  0  0  0
 53 67  1  0  0  0  0
 54 60  1  0  0  0  0
 55 64  1  0  0  0  0
 56 65  1  0  0  0  0
 57 65  1  0  0  0  0
 58 65  1  0  0  0  0
 59 75  1  0  0  0  0
 60 82  1  0  0  0  0
 61 62  1  0  0  0  0
 61 74  1  0  0  0  0
 62 83  1  0  0  0  0
 63 65  1  0  0  0  0
 63 73  1  0  0  0  0
 64 75  1  0  0  0  0
 66 67  1  0  0  0  0
M  CHG  1  75   1
M  ISO  4  38 100  60 101  74 100  82 101
M  END
> <Batch ID>
0136

> <Smiles>
CNC(C)C(=O)NC(C(=O)N1Cc2cc([101O:1][101CH2:1]C3(c4ccc(OCC[100NH:0][100C:0](=O)N5CCCC(n6nc(-c7ccc(Oc8ccc(F)cc8F)cc7)c(C(N)=O)c6N)C5)cc4)CCC3)ccc2CC1C(=O)NC1CCCc2ccccc21)C(C)(C)C

> <Shape>
0.118

> <Color>
0.174

> <Negative vol penalty>
0.000

$$$$

  -OEChem-04052321023D

 88 98  0     1  0  0  0  0  0999 V2000
  -28.0810  -24.1728   14.1769 C   0  0  0  0  0  0  0  0  0  0  0  0
  -27.0563  -24.2636   15.1134 C   0  0  0  0  0  0  0  0  0  0  0  0
  -27.4251  -16.1878   18.7741 C   0  0  0  0  0  0  0  0  0  0  0  0
  -27.5085  -16.6956   21.1347 C   0  0  0  0  0  0  0  0  0  0  0  0
  -29.3983  -24.4211   14.5604 C   0  0  0  0  0  0  0  0  0  0  0  0
  -27.3484  -24.6017   16.4343 C   0  0  0  0  0  0  0  0  0  0  0  0
  -24.1439  -28.0436   18.3130 C   0  0  0  0  0  0  0  0  0  0  0  0
  -20.4391  -24.8997   23.3812 C   0  0  0  0  0  0  0  0  0  0  0  0
  -28.7118  -16.7030   18.6178 C   0  0  0  0  0  0  0  0  0  0  0  0
  -28.7953  -17.2107   20.9784 C   0  0  0  0  0  0  0  0  0  0  0  0
  -22.8875  -27.5917   18.7141 C   0  0  0  0  0  0  0  0  0  0  0  0
  -20.4854  -25.9431   22.4567 C   0  0  0  0  0  0  0  0  0  0  0  0
  -32.2424  -18.3299   21.2673 C   0  0  0  0  0  0  0  0  0  0  0  0
  -33.2068  -17.9639   22.2062 C   0  0  0  0  0  0  0  0  0  0  0  0
  -23.6326  -27.5753   21.0084 C   0  0  0  0  0  0  0  0  0  0  0  0
  -22.1898  -24.7658   21.2134 C   0  0  0  0  0  0  0  0  0  0  0  0
  -32.9053  -15.6419   21.6106 C   0  0  0  0  0  0  0  0  0  0  0  0
  -26.8234  -16.1842   20.0326 C   0  0  0  0  0  0  0  0  0  0  0  0
  -25.1406  -14.3231   20.4933 C   0  0  0  0  0  0  0  0  0  0  0  0
  -29.7056  -24.7719   15.8844 C   0  0  0  0  0  0  0  0  0  0  0  0
  -25.1592  -28.2547   19.2569 C   0  0  0  0  0  0  0  0  0  0  0  0
  -28.6712  -24.8536   16.8362 C   0  0  0  0  0  0  0  0  0  0  0  0
  -24.9002  -28.0323   20.6169 C   0  0  0  0  0  0  0  0  0  0  0  0
  -22.1435  -23.7223   22.1379 C   0  0  0  0  0  0  0  0  0  0  0  0
  -21.2681  -23.7893   23.2218 C   0  0  0  0  0  0  0  0  0  0  0  0
  -29.3970  -17.2145   19.7199 C   0  0  0  0  0  0  0  0  0  0  0  0
  -22.6325  -27.3547   20.0617 C   0  0  0  0  0  0  0  0  0  0  0  0
  -21.3608  -25.8761   21.3729 C   0  0  0  0  0  0  0  0  0  1  0  0
  -31.6094  -17.3520   20.5001 C   0  0  0  0  0  0  0  0  0  0  0  0
  -33.5383  -16.6199   22.3778 C   0  0  0  0  0  0  0  0  0  0  0  0
  -31.9409  -16.0080   20.6717 C   0  0  0  0  0  0  0  0  0  0  0  0
  -25.4940  -15.6526   20.1946 C   0  0  0  0  0  0  0  0  0  0  0  0
  -23.7680  -14.3349   20.5401 C   0  0  0  0  0  0  0  0  0  0  0  0
  -25.9782  -13.1796   20.7091 C   0  0  0  0  0  0  0  0  0  0  0  0
  -28.0419  -27.0158   19.7656 C   0  0  0  0  0  0  0  0  0  0  0  0
  -28.2078  -29.3292   22.0335 C   0  0  0  0  0  0  0  0  0  0  0  0
  -26.5549  -31.4425   24.1427 C   0  0  0  0  0  0  0  0  0  0  0  0
  -19.7629  -18.6457   21.6482 C   0  0  0  0  0  0  0  0  0  0  0  0
  -31.1500  -24.9848   16.2624 C   0  0  0  0  0  0  0  0  0  0  0  0
  -26.5009  -28.7679   18.8110 C   0  0  0  0  0  0  0  0  0  0  0  0
  -25.9499  -28.2629   21.6721 C   0  0  0  0  0  0  0  0  0  0  0  0
  -31.3308  -25.7037   17.5969 C   0  0  0  0  0  0  0  0  0  0  0  0
  -19.9790  -16.6241   18.7253 C   0  0  0  0  0  0  0  0  0  0  0  0
  -30.4218  -25.0938   18.6592 C   0  0  0  0  0  0  0  0  0  0  0  0
  -27.1165  -20.7513   21.1415 C   0  0  0  0  0  0  0  0  0  0  0  0
  -27.0249  -20.3742   19.6891 C   0  0  0  0  0  0  0  0  0  0  0  0
  -21.3850  -16.0260   18.7974 C   0  0  0  0  0  0  0  0  0  0  0  0
  -24.3621  -22.5093   22.6776 C   0  0  0  0  0  0  0  0  0  0  0  0
  -19.9483  -18.0584   19.2488 C   0  0  0  0  0  0  0  0  0  0  0  0
  -21.9148  -17.6379   20.6735 C   0  0  0  0  0  0  0  0  0  0  0  0
  -23.0414  -22.5448   21.9493 C   0  0  2  0  0  0  0  0  0  0  0  0
  -28.9452  -25.2419   18.2729 C   0  0  1  0  0  0  0  0  0  0  0  0
  -27.6188  -28.4571   19.8014 C   0  0  1  0  0  0  0  0  0  0  0  0
  -26.3338  -21.6124   20.1893 C   0  0  0  0  0  0  0  0  0  0  0  0
  -24.3357  -22.7287   21.1942 C   0  0  2  0  0  0  0  0  0  0  0  0
  -21.9854  -16.1733   20.2084 C   0  0  2  0  0  0  0  0  0  0  0  0
  -26.9609  -33.1861   25.9012 C   0  0  0  0  0  0  0  0  0  0  0  0
  -28.9200  -27.1401   24.0361 C   0  0  0  0  0  0  0  0  0  0  0  0
  -28.3810  -28.7472   25.8787 C   0  0  0  0  0  0  0  0  0  0  0  0
  -30.2350  -29.2524   24.2880 C   0  0  0  0  0  0  0  0  0  0  0  0
  -25.1745  -33.5273   22.5592 C   0  0  0  0  0  0  0  0  0  0  0  0
  -21.1996  -22.6858   24.2261 C   0  0  0  0  0  0  0  0  0  0  0  0
  -24.8149  -21.6616   20.2713 C   0  0  0  0  0  0  0  0  0  0  0  0
  -19.7252  -19.1684   24.0740 C   0  0  0  0  0  0  0  0  0  0  0  0
  -20.4564  -20.3467   24.6897 C   0  0  0  0  0  0  0  0  0  0  0  0
  -27.8404  -29.4221   23.4948 C   0  0  1  0  0  0  0  0  0  0  0  0
  -26.7262  -32.9249   24.4215 C   0  0  2  0  0  0  0  0  0  0  0  0
  -28.8247  -28.6342   24.4046 C   0  0  0  0  0  0  0  0  0  0  0  0
  -24.4315  -16.4510   20.0610 N   0  0  0  0  0  0  0  0  0  0  0  0
  -23.3970  -15.6206   20.2766 N   0  0  0  0  0  0  0  0  0  0  0  0
  -27.2478  -28.7590   21.1854 N   0  0  0  0  0  0  0  0  0  0  0  0
  -20.5303  -18.1290   20.5912 N   0  0  0  0  0  0  0  0  0  0  0  0
  -22.8541  -13.3708   20.7806 N   0  0  0  0  0  0  0  0  0  0  0  0
  -27.3675  -13.3435   20.6240 N   0  0  0  0  0  0  0  0  0  0  0  0
  -28.4887  -26.5912   18.5289 N   0  0  0  0  0  0  0  0  0  0  0  0
  -27.7504  -30.8451   23.8034 N   0  0  0  0  0  0  0  0  0  0  0  0
  -20.3879  -18.6711   22.8889 N   0  0  0  0  0  0  0  0  0  0  0  0
  -25.5101  -33.6754   23.9988 N   0  3  0  0  0  0  0  0  0  0  0  0
  -20.4871  -21.4786   23.7267 N   0  3  0  0  0  0  0  0  0  0  0  0
  -25.5080  -12.0427   20.9536 O   0  0  0  0  0  0  0  0  0  0  0  0
  -27.9699  -26.3395   20.7850 O   0  0  0  0  0  0  0  0  0  0  0  0
  -29.3032  -29.7537   21.6572 O   0  0  0  0  0  0  0  0  0  0  0  0
  -25.4697  -30.8709   24.2218 O   0  0  0  0  0  0  0  0  0  0  0  0
  -18.6046  -19.0493   21.4983 O   0  0  0  0  0  0  0  0  0  0  0  0
  -30.6527  -17.7170   19.5678 O   0  0  0  0  0  0  0  0  0  0  0  0
  -21.4072  -26.9129   20.4559 O   0  0  0  0  0  0  0  0  0  1  0  0
  -34.4655  -16.2687   23.2784 F   0  0  0  0  0  0  0  0  0  0  0  0
  -31.3370  -15.0641   19.9367 F   0  0  0  0  0  0  0  0  0  0  0  0
  1  2  1  0  0  0  0
  1  5  2  0  0  0  0
  2  6  2  0  0  0  0
  3  9  2  0  0  0  0
  3 18  1  0  0  0  0
  4 10  1  0  0  0  0
  4 18  2  0  0  0  0
  5 20  1  0  0  0  0
  6 22  1  0  0  0  0
  7 11  2  0  0  0  0
  7 21  1  0  0  0  0
  8 12  2  0  0  0  0
  8 25  1  0  0  0  0
  9 26  1  0  0  0  0
 10 26  2  0  0  0  0
 11 27  1  0  0  0  0
 12 28  1  0  0  0  0
 13 14  2  0  0  0  0
 13 29  1  0  0  0  0
 14 30  1  0  0  0  0
 15 23  1  0  0  0  0
 15 27  2  0  0  0  0
 16 24  1  0  0  0  0
 16 28  2  0  0  0  0
 17 30  2  0  0  0  0
 17 31  1  0  0  0  0
 18 32  1  0  0  0  0
 19 32  1  0  0  0  0
 19 33  2  0  0  0  0
 19 34  1  0  0  0  0
 20 22  2  0  0  0  0
 20 39  1  0  0  0  0
 21 23  2  0  0  0  0
 21 40  1  0  0  0  0
 22 52  1  0  0  0  0
 23 41  1  0  0  0  0
 24 25  2  0  0  0  0
 24 51  1  0  0  0  0
 25 62  1  0  0  0  0
 26 85  1  0  0  0  0
 27 86  1  0  0  0  0
 28 86  1  0  0  0  0
 29 31  2  0  0  0  0
 29 85  1  0  0  0  0
 30 87  1  0  0  0  0
 31 88  1  0  0  0  0
 32 69  2  0  0  0  0
 33 70  1  0  0  0  0
 33 73  1  0  0  0  0
 34 74  1  0  0  0  0
 34 80  2  0  0  0  0
 35 53  1  0  0  0  0
 35 75  1  0  0  0  0
 35 81  2  0  0  0  0
 36 66  1  0  0  0  0
 36 71  1  0  0  0  0
 36 82  2  0  0  0  0
 37 67  1  0  0  0  0
 37 76  1  0  0  0  0
 37 83  2  0  0  0  0
 38 72  1  0  0  0  0
 38 77  1  0  0  0  0
 38 84  2  0  0  0  0
 39 42  1  0  0  0  0
 40 53  1  0  0  0  0
 41 71  1  0  0  0  0
 42 44  1  0  0  0  0
 43 47  1  0  0  0  0
 43 49  1  0  0  0  0
 44 52  1  0  0  0  0
 45 46  1  0  0  0  0
 45 54  1  0  0  0  0
 46 54  1  0  0  0  0
 47 56  1  0  0  0  0
 48 51  1  0  0  0  0
 48 55  1  0  0  0  0
 49 72  1  0  0  0  0
 50 56  1  0  0  0  0
 50 72  1  0  0  0  0
 51 55  1  0  0  0  0
 52 75  1  0  0  0  0
 53 71  1  0  0  0  0
 54 63  1  0  0  0  0
 55 63  1  0  0  0  0
 56 70  1  0  0  0  0
 57 67  1  0  0  0  0
 58 68  1  0  0  0  0
 59 68  1  0  0  0  0
 60 68  1  0  0  0  0
 61 78  1  0  0  0  0
 62 79  1  0  0  0  0
 64 65  1  0  0  0  0
 64 77  1  0  0  0  0
 65 79  1  0  0  0  0
 66 68  1  0  0  0  0
 66 76  1  0  0  0  0
 67 78  1  0  0  0  0
 69 70  1  0  0  0  0
M  CHG  2  78   1  79   1
M  ISO  4  28 101  38 100  77 100  86 101
M  END
> <Batch ID>
0136

> <Smiles>
CNC(C)C(=O)NC(C(=O)N1Cc2cc([101O:1][101c:1]3ccc(CNCC[100NH:0][100C:0](=O)N4CCCC(n5nc(-c6ccc(Oc7ccc(F)cc7F)cc6)c(C(N)=O)c5N)C4)c(C4CC4CC4CC4)c3)ccc2CC1C(=O)NC1CCCc2ccccc21)C(C)(C)C

> <Shape>
0.214

> <Color>
0.077

> <Negative vol penalty>
0.000

$$$$

  -OEChem-04052321023D

 81 89  0     1  0  0  0  0  0999 V2000
  -28.4037  -24.0571   17.9528 C   0  0  0  0  0  0  0  0  0  0  0  0
  -27.1642  -24.3738   18.4994 C   0  0  0  0  0  0  0  0  0  0  0  0
  -27.9217  -17.8393   22.4427 C   0  0  0  0  0  0  0  0  0  0  0  0
  -27.4945  -19.4906   20.7317 C   0  0  0  0  0  0  0  0  0  0  0  0
  -29.5675  -24.5727   18.5218 C   0  0  0  0  0  0  0  0  0  0  0  0
  -27.0878  -25.2054   19.6161 C   0  0  0  0  0  0  0  0  0  0  0  0
  -23.4713  -28.7227   19.1755 C   0  0  0  0  0  0  0  0  0  0  0  0
  -28.9954  -17.3477   21.7003 C   0  0  0  0  0  0  0  0  0  0  0  0
  -28.5682  -18.9991   19.9892 C   0  0  0  0  0  0  0  0  0  0  0  0
  -22.1565  -28.3154   19.3978 C   0  0  0  0  0  0  0  0  0  0  0  0
  -29.4587  -15.3426   19.0190 C   0  0  0  0  0  0  0  0  0  0  0  0
  -29.5750  -13.9589   18.8872 C   0  0  0  0  0  0  0  0  0  0  0  0
  -17.3467  -24.3058   21.8495 C   0  0  0  0  0  0  0  0  0  0  0  0
  -22.2572  -29.2288   21.6282 C   0  0  0  0  0  0  0  0  0  0  0  0
  -19.2054  -23.3071   20.6872 C   0  0  0  0  0  0  0  0  0  0  0  0
  -31.7414  -14.0394   19.9536 C   0  0  0  0  0  0  0  0  0  0  0  0
  -16.6428  -23.1225   21.6772 C   0  0  0  0  0  0  0  0  0  0  0  0
  -27.1712  -18.9107   21.9584 C   0  0  0  0  0  0  0  0  0  0  0  0
  -26.0950  -20.4355   23.6974 C   0  0  0  0  0  0  0  0  0  0  0  0
  -29.5047  -25.4188   19.6402 C   0  0  0  0  0  0  0  0  0  0  0  0
  -24.1937  -29.3775   20.1833 C   0  0  0  0  0  0  0  0  0  0  0  0
  -28.2519  -25.7317   20.2015 C   0  0  0  0  0  0  0  0  0  0  0  0
  -23.5801  -29.6456   21.4153 C   0  0  0  0  0  0  0  0  0  0  0  0
  -18.6415  -24.3946   21.3476 C   0  0  0  0  0  0  0  0  0  0  0  0
  -29.3187  -17.9276   20.4736 C   0  0  0  0  0  0  0  0  0  0  0  0
  -21.5503  -28.5659   20.6253 C   0  0  0  0  0  0  0  0  0  0  0  0
  -30.4838  -16.0748   19.6181 C   0  0  0  0  0  0  0  0  0  0  0  0
  -30.7163  -13.3073   19.3545 C   0  0  0  0  0  0  0  0  0  0  0  0
  -31.6251  -15.4232   20.0854 C   0  0  0  0  0  0  0  0  0  0  0  0
  -26.0617  -19.4185   22.7246 C   0  0  0  0  0  0  0  0  0  0  0  0
  -18.4545  -22.1490   20.5443 C   0  0  0  0  0  0  0  0  0  0  0  0
  -24.7944  -20.5439   24.1255 C   0  0  0  0  0  0  0  0  0  0  0  0
  -27.2025  -21.2128   24.1717 C   0  0  0  0  0  0  0  0  0  0  0  0
  -26.8423  -28.7390   21.8207 C   0  0  0  0  0  0  0  0  0  0  0  0
  -26.3753  -31.7291   22.9884 C   0  0  0  0  0  0  0  0  0  0  0  0
  -24.2007  -34.2759   23.6453 C   0  0  0  0  0  0  0  0  0  0  0  0
  -19.5385  -19.2426   21.5695 C   0  0  0  0  0  0  0  0  0  0  0  0
  -30.7927  -25.9137   20.2492 C   0  0  0  0  0  0  0  0  0  0  0  0
  -25.6021  -29.8341   19.9184 C   0  0  0  0  0  0  0  0  0  0  0  0
  -24.3056  -30.3633   22.5230 C   0  0  0  0  0  0  0  0  0  0  0  0
  -30.6027  -27.0895   21.2041 C   0  0  0  0  0  0  0  0  0  0  0  0
  -20.7968  -17.9674   24.6464 C   0  0  0  0  0  0  0  0  0  0  0  0
  -29.4459  -26.8186   22.1608 C   0  0  0  0  0  0  0  0  0  0  0  0
  -22.2918  -18.2864   24.5906 C   0  0  0  0  0  0  0  0  0  0  0  0
  -20.2487  -17.5893   23.2721 C   0  0  0  0  0  0  0  0  0  0  0  0
  -22.0156  -18.8900   22.1496 C   0  0  0  0  0  0  0  0  0  0  0  0
  -28.1266  -26.6504   21.3975 C   0  0  1  0  0  0  0  0  0  0  0  0
  -26.4147  -30.0358   21.1937 C   0  0  1  0  0  0  0  0  0  0  0  0
  -22.6019  -19.3311   23.5017 C   0  0  2  0  0  0  0  0  0  0  0  0
  -24.1061  -36.5786   24.6382 C   0  0  0  0  0  0  0  0  0  0  0  0
  -26.5384  -30.5261   25.7877 C   0  0  0  0  0  0  0  0  0  0  0  0
  -25.5121  -32.6299   26.6760 C   0  0  0  0  0  0  0  0  0  0  0  0
  -27.7218  -32.7132   25.5215 C   0  0  0  0  0  0  0  0  0  0  0  0
  -23.2820  -35.4638   21.0951 C   0  0  0  0  0  0  0  0  0  0  0  0
  -18.9832  -20.9459   19.8521 C   0  0  0  0  0  0  0  0  0  0  0  0
  -18.8593  -26.7391   22.1731 C   0  0  0  0  0  0  0  0  0  0  0  0
  -19.9115  -27.8353   22.1863 C   0  0  0  0  0  0  0  0  0  1  0  0
  -25.6277  -32.3136   24.1625 C   0  0  1  0  0  0  0  0  0  0  0  0
  -24.2799  -35.7657   23.3648 C   0  0  2  0  0  0  0  0  0  0  0  0
  -26.3367  -32.0304   25.5169 C   0  0  0  0  0  0  0  0  0  0  0  0
  -24.8370  -18.9165   22.5452 N   0  0  0  0  0  0  0  0  0  0  0  0
  -24.0887  -19.6209   23.4112 N   0  0  0  0  0  0  0  0  0  0  0  0
  -17.2098  -22.0907   21.0373 N   0  3  0  0  0  0  0  0  0  0  0  0
  -25.6830  -30.7843   22.2177 N   0  0  0  0  0  0  0  0  0  0  0  0
  -20.5753  -18.6219   22.2858 N   0  0  0  0  0  0  0  0  0  0  0  0
  -24.1971  -21.3376   25.0397 N   0  0  0  0  0  0  0  0  0  0  0  0
  -28.4703  -20.9726   23.6245 N   0  0  0  0  0  0  0  0  0  0  0  0
  -19.3675  -25.5638   21.5035 N   0  0  0  0  0  0  0  0  0  0  0  0
  -27.6083  -27.9398   20.9936 N   0  0  0  0  0  0  0  0  0  0  0  0
  -25.4477  -33.7309   23.8671 N   0  0  0  0  0  0  0  0  0  0  0  0
  -19.9345  -20.2146   20.6590 N   0  0  0  0  0  0  0  0  0  0  0  0
  -23.2169  -36.1686   22.4012 N   0  3  0  0  0  0  0  0  0  0  0  0
  -27.0747  -22.0828   25.0662 O   0  0  0  0  0  0  0  0  0  0  0  0
  -26.5036  -28.4830   22.9702 O   0  0  0  0  0  0  0  0  0  0  0  0
  -27.5284  -32.1024   22.7592 O   0  0  0  0  0  0  0  0  0  0  0  0
  -23.1384  -33.6582   23.6693 O   0  0  0  0  0  0  0  0  0  0  0  0
  -18.3478  -18.9557   21.7334 O   0  0  0  0  0  0  0  0  0  0  0  0
  -30.3664  -17.4484   19.7490 O   0  0  0  0  0  0  0  0  0  0  0  0
  -20.2673  -28.1689   20.8452 O   0  0  0  0  0  0  0  0  0  1  0  0
  -30.8272  -11.9783   19.2292 F   0  0  0  0  0  0  0  0  0  0  0  0
  -32.6126  -16.1210   20.6629 F   0  0  0  0  0  0  0  0  0  0  0  0
  1  2  1  0  0  0  0
  1  5  2  0  0  0  0
  2  6  2  0  0  0  0
  3  8  2  0  0  0  0
  3 18  1  0  0  0  0
  4  9  1  0  0  0  0
  4 18  2  0  0  0  0
  5 20  1  0  0  0  0
  6 22  1  0  0  0  0
  7 10  2  0  0  0  0
  7 21  1  0  0  0  0
  8 25  1  0  0  0  0
  9 25  2  0  0  0  0
 10 26  1  0  0  0  0
 11 12  2  0  0  0  0
 11 27  1  0  0  0  0
 12 28  1  0  0  0  0
 13 17  2  0  0  0  0
 13 24  1  0  0  0  0
 14 23  1  0  0  0  0
 14 26  2  0  0  0  0
 15 24  2  0  0  0  0
 15 31  1  0  0  0  0
 16 28  2  0  0  0  0
 16 29  1  0  0  0  0
 17 63  1  0  0  0  0
 18 30  1  0  0  0  0
 19 30  1  0  0  0  0
 19 32  2  0  0  0  0
 19 33  1  0  0  0  0
 20 22  2  0  0  0  0
 20 38  1  0  0  0  0
 21 23  2  0  0  0  0
 21 39  1  0  0  0  0
 22 47  1  0  0  0  0
 23 40  1  0  0  0  0
 24 68  1  0  0  0  0
 25 78  1  0  0  0  0
 26 79  1  0  0  0  0
 27 29  2  0  0  0  0
 27 78  1  0  0  0  0
 28 80  1  0  0  0  0
 29 81  1  0  0  0  0
 30 61  2  0  0  0  0
 31 55  1  0  0  0  0
 31 63  2  0  0  0  0
 32 62  1  0  0  0  0
 32 66  1  0  0  0  0
 33 67  1  0  0  0  0
 33 73  2  0  0  0  0
 34 48  1  0  0  0  0
 34 69  1  0  0  0  0
 34 74  2  0  0  0  0
 35 58  1  0  0  0  0
 35 64  1  0  0  0  0
 35 75  2  0  0  0  0
 36 59  1  0  0  0  0
 36 70  1  0  0  0  0
 36 76  2  0  0  0  0
 37 65  1  0  0  0  0
 37 71  1  0  0  0  0
 37 77  2  0  0  0  0
 38 41  1  0  0  0  0
 39 48  1  0  0  0  0
 40 64  1  0  0  0  0
 41 43  1  0  0  0  0
 42 44  1  0  0  0  0
 42 45  1  0  0  0  0
 43 47  1  0  0  0  0
 44 49  1  0  0  0  0
 45 65  1  0  0  0  0
 46 49  1  0  0  0  0
 46 65  1  0  0  0  0
 47 69  1  0  0  0  0
 48 64  1  0  0  0  0
 49 62  1  0  0  0  0
 50 59  1  0  0  0  0
 51 60  1  0  0  0  0
 52 60  1  0  0  0  0
 53 60  1  0  0  0  0
 54 72  1  0  0  0  0
 55 71  1  0  0  0  0
 56 57  1  0  0  0  0
 56 68  1  0  0  0  0
 57 79  1  0  0  0  0
 58 60  1  0  0  0  0
 58 70  1  0  0  0  0
 59 72  1  0  0  0  0
 61 62  1  0  0  0  0
M  CHG  2  63   1  72   1
M  ISO  4  37 100  57 101  71 100  79 101
M  END
> <Batch ID>
0136

> <Smiles>
CNC(C)C(=O)NC(C(=O)N1Cc2cc([101O:1][101CH2:1]CNc3ccnc(C[100NH:0][100C:0](=O)N4CCCC(n5nc(-c6ccc(Oc7ccc(F)cc7F)cc6)c(C(N)=O)c5N)C4)c3)ccc2CC1C(=O)NC1CCCc2ccccc21)C(C)(C)C

> <Shape>
0.259

> <Color>
0.063

> <Negative vol penalty>
0.000

$$$$

  -OEChem-04052321023D

 82 90  0     1  0  0  0  0  0999 V2000
  -28.3587  -10.1041   16.4861 C   0  0  0  0  0  0  0  0  0  0  0  0
  -27.1776  -10.7655   16.8071 C   0  0  0  0  0  0  0  0  0  0  0  0
  -24.6964  -28.9711   22.1918 C   0  0  0  0  0  0  0  0  0  0  0  0
  -23.8934  -29.5829   19.9968 C   0  0  0  0  0  0  0  0  0  0  0  0
  -29.5146  -10.3446   17.2276 C   0  0  0  0  0  0  0  0  0  0  0  0
  -27.1515  -11.6670   17.8706 C   0  0  0  0  0  0  0  0  0  0  0  0
  -23.8573  -16.8156   18.2526 C   0  0  0  0  0  0  0  0  0  0  0  0
  -25.5480  -30.0758   22.1881 C   0  0  0  0  0  0  0  0  0  0  0  0
  -24.7450  -30.6876   19.9931 C   0  0  0  0  0  0  0  0  0  0  0  0
  -22.6447  -17.1093   18.8747 C   0  0  0  0  0  0  0  0  0  0  0  0
  -25.3083  -33.4077   22.7112 C   0  0  0  0  0  0  0  0  0  0  0  0
  -25.3650  -34.1864   23.8671 C   0  0  0  0  0  0  0  0  0  0  0  0
  -17.5736  -17.7092   22.7008 C   0  0  0  0  0  0  0  0  0  0  0  0
  -23.8399  -17.9469   20.7954 C   0  0  0  0  0  0  0  0  0  0  0  0
  -27.7268  -33.7184   24.0665 C   0  0  0  0  0  0  0  0  0  0  0  0
  -16.9098  -18.8632   22.3167 C   0  0  0  0  0  0  0  0  0  0  0  0
  -23.8691  -28.7246   21.0961 C   0  0  0  0  0  0  0  0  0  0  0  0
  -21.6637  -27.5331   21.5698 C   0  0  0  0  0  0  0  0  0  0  0  0
  -29.5051  -11.2567   18.2946 C   0  0  0  0  0  0  0  0  0  0  0  0
  -25.0723  -17.0757   18.9028 C   0  0  0  0  0  0  0  0  0  0  0  0
  -28.3081  -11.9189   18.6279 C   0  0  0  0  0  0  0  0  0  0  0  0
  -25.0666  -17.6580   20.1784 C   0  0  0  0  0  0  0  0  0  0  0  0
  -18.6753  -17.3120   21.9513 C   0  0  0  0  0  0  0  0  0  0  0  0
  -19.0739  -18.0702   20.8561 C   0  0  0  0  0  0  0  0  0  0  0  0
  -25.5723  -30.9340   21.0888 C   0  0  0  0  0  0  0  0  0  0  0  0
  -22.6358  -17.6724   20.1475 C   0  0  0  0  0  0  0  0  0  0  0  0
  -26.4609  -32.7843   22.2330 C   0  0  0  0  0  0  0  0  0  0  0  0
  -26.5742  -34.3418   24.5447 C   0  0  0  0  0  0  0  0  0  0  0  0
  -27.6701  -32.9396   22.9107 C   0  0  0  0  0  0  0  0  0  0  0  0
  -22.9895  -27.5834   21.0990 C   0  0  0  0  0  0  0  0  0  0  0  0
  -18.3428  -19.2079   20.5544 C   0  0  0  0  0  0  0  0  0  0  0  0
  -21.2707  -26.2354   21.3510 C   0  0  0  0  0  0  0  0  0  0  0  0
  -20.8594  -28.5670   22.1527 C   0  0  0  0  0  0  0  0  0  0  0  0
  -27.5092  -15.2949   19.8996 C   0  0  0  0  0  0  0  0  0  0  0  0
  -28.8354  -18.1782   20.5704 C   0  0  0  0  0  0  0  0  0  0  0  0
  -28.3750  -21.4856   21.2746 C   0  0  0  0  0  0  0  0  0  0  0  0
  -21.0060  -21.7146   18.0895 C   0  0  0  0  0  0  0  0  0  0  0  0
  -30.7677  -11.4484   19.0970 C   0  0  0  0  0  0  0  0  0  0  0  0
  -26.3722  -16.7778   18.2072 C   0  0  0  0  0  0  0  0  0  0  0  0
  -26.3438  -17.9755   20.9108 C   0  0  0  0  0  0  0  0  0  0  0  0
  -30.7493  -12.6991   19.9720 C   0  0  0  0  0  0  0  0  0  0  0  0
  -23.9588  -22.1597   20.0284 C   0  0  0  0  0  0  0  0  0  0  0  0
  -29.4284  -12.8024   20.7279 C   0  0  0  0  0  0  0  0  0  0  0  0
  -23.8634  -23.6074   20.5130 C   0  0  0  0  0  0  0  0  0  0  0  0
  -23.4104  -22.0014   18.6120 C   0  0  0  0  0  0  0  0  0  0  0  0
  -21.9462  -23.9625   18.9015 C   0  0  0  0  0  0  0  0  0  0  0  0
  -28.2461  -12.9226   19.7588 C   0  0  1  0  0  0  0  0  0  0  0  0
  -27.5415  -16.6094   19.1725 C   0  0  1  0  0  0  0  0  0  0  0  0
  -22.4357  -24.1617   20.3462 C   0  0  2  0  0  0  0  0  0  0  0  0
  -19.4101  -16.0725   22.3423 C   0  0  0  0  0  0  0  0  0  0  0  0
  -28.9853  -23.8802   21.7116 C   0  0  0  0  0  0  0  0  0  0  0  0
  -29.3050  -17.1617   23.4087 C   0  0  0  0  0  0  0  0  0  0  0  0
  -29.6760  -19.5327   24.1219 C   0  0  0  0  0  0  0  0  0  0  0  0
  -31.1981  -18.4831   22.4473 C   0  0  0  0  0  0  0  0  0  0  0  0
  -28.3091  -22.1498   18.3913 C   0  0  0  0  0  0  0  0  0  0  0  0
  -20.2603  -17.6576   20.0353 C   0  0  0  0  0  0  0  0  0  1  0  0
  -17.8690  -20.9046   18.7874 C   0  0  0  0  0  0  0  0  0  0  0  0
  -18.5728  -21.5795   17.6200 C   0  0  0  0  0  0  0  0  0  0  0  0
  -28.8426  -19.0994   21.7663 C   0  0  1  0  0  0  0  0  0  0  0  0
  -29.0263  -22.7357   20.7110 C   0  0  2  0  0  0  0  0  0  0  0  0
  -29.7312  -18.5616   22.9233 C   0  0  0  0  0  0  0  0  0  0  0  0
  -17.2673  -19.6254   21.2590 N   0  0  0  0  0  0  0  0  0  0  0  0
  -23.4105  -26.4108   20.6177 N   0  0  0  0  0  0  0  0  0  0  0  0
  -22.3432  -25.6115   20.7849 N   0  0  0  0  0  0  0  0  0  0  0  0
  -27.5890  -17.6600   20.1915 N   0  0  0  0  0  0  0  0  0  0  0  0
  -22.0531  -22.5451   18.5217 N   0  0  0  0  0  0  0  0  0  0  0  0
  -20.1157  -25.5785   21.5897 N   0  0  0  0  0  0  0  0  0  0  0  0
  -21.4188  -29.8431   22.3045 N   0  0  0  0  0  0  0  0  0  0  0  0
  -18.7435  -19.9852   19.4389 N   0  0  0  0  0  0  0  0  0  0  0  0
  -28.1556  -14.2692   19.2365 N   0  0  0  0  0  0  0  0  0  0  0  0
  -29.2400  -20.4119   21.2683 N   0  0  0  0  0  0  0  0  0  0  0  0
  -19.7502  -22.3071   18.0387 N   0  0  0  0  0  0  0  0  0  0  0  0
  -28.3248  -23.1708   19.4703 N   0  3  0  0  0  0  0  0  0  0  0  0
  -19.6852  -28.3611   22.5429 O   0  0  0  0  0  0  0  0  0  0  0  0
  -26.9413  -15.2173   20.9827 O   0  0  0  0  0  0  0  0  0  0  0  0
  -29.8956  -17.9334   19.9893 O   0  0  0  0  0  0  0  0  0  0  0  0
  -27.2160  -21.4648   21.6833 O   0  0  0  0  0  0  0  0  0  0  0  0
  -21.1767  -20.5312   17.7774 O   0  0  0  0  0  0  0  0  0  0  0  0
  -26.4031  -32.0121   21.0849 O   0  0  0  0  0  0  0  0  0  0  0  0
  -21.4536  -17.9594   20.7573 O   0  0  0  0  0  0  0  0  0  1  0  0
  -26.6289  -35.0908   25.6538 F   0  0  0  0  0  0  0  0  0  0  0  0
  -28.7809  -32.3441   22.4554 F   0  0  0  0  0  0  0  0  0  0  0  0
  1  2  1  0  0  0  0
  1  5  2  0  0  0  0
  2  6  2  0  0  0  0
  3  8  2  0  0  0  0
  3 17  1  0  0  0  0
  4  9  1  0  0  0  0
  4 17  2  0  0  0  0
  5 19  1  0  0  0  0
  6 21  1  0  0  0  0
  7 10  2  0  0  0  0
  7 20  1  0  0  0  0
  8 25  1  0  0  0  0
  9 25  2  0  0  0  0
 10 26  1  0  0  0  0
 11 12  2  0  0  0  0
 11 27  1  0  0  0  0
 12 28  1  0  0  0  0
 13 16  1  0  0  0  0
 13 23  2  0  0  0  0
 14 22  1  0  0  0  0
 14 26  2  0  0  0  0
 15 28  2  0  0  0  0
 15 29  1  0  0  0  0
 16 62  2  0  0  0  0
 17 30  1  0  0  0  0
 18 30  1  0  0  0  0
 18 32  2  0  0  0  0
 18 33  1  0  0  0  0
 19 21  2  0  0  0  0
 19 38  1  0  0  0  0
 20 22  2  0  0  0  0
 20 39  1  0  0  0  0
 21 47  1  0  0  0  0
 22 40  1  0  0  0  0
 23 24  1  0  0  0  0
 23 50  1  0  0  0  0
 24 31  2  0  0  0  0
 24 56  1  0  0  0  0
 25 79  1  0  0  0  0
 26 80  1  0  0  0  0
 27 29  2  0  0  0  0
 27 79  1  0  0  0  0
 28 81  1  0  0  0  0
 29 82  1  0  0  0  0
 30 63  2  0  0  0  0
 31 62  1  0  0  0  0
 31 69  1  0  0  0  0
 32 64  1  0  0  0  0
 32 67  1  0  0  0  0
 33 68  1  0  0  0  0
 33 74  2  0  0  0  0
 34 48  1  0  0  0  0
 34 70  1  0  0  0  0
 34 75  2  0  0  0  0
 35 59  1  0  0  0  0
 35 65  1  0  0  0  0
 35 76  2  0  0  0  0
 36 60  1  0  0  0  0
 36 71  1  0  0  0  0
 36 77  2  0  0  0  0
 37 66  1  0  0  0  0
 37 72  1  0  0  0  0
 37 78  2  0  0  0  0
 38 41  1  0  0  0  0
 39 48  1  0  0  0  0
 40 65  1  0  0  0  0
 41 43  1  0  0  0  0
 42 44  1  0  0  0  0
 42 45  1  0  0  0  0
 43 47  1  0  0  0  0
 44 49  1  0  0  0  0
 45 66  1  0  0  0  0
 46 49  1  0  0  0  0
 46 66  1  0  0  0  0
 47 70  1  0  0  0  0
 48 65  1  0  0  0  0
 49 64  1  0  0  0  0
 51 60  1  0  0  0  0
 52 61  1  0  0  0  0
 53 61  1  0  0  0  0
 54 61  1  0  0  0  0
 55 73  1  0  0  0  0
 56 80  1  0  0  0  0
 57 58  1  0  0  0  0
 57 69  1  0  0  0  0
 58 72  1  0  0  0  0
 59 61  1  0  0  0  0
 59 71  1  0  0  0  0
 60 73  1  0  0  0  0
 63 64  1  0  0  0  0
M  CHG  1  73   1
M  ISO  4  37 100  56 101  72 100  80 101
M  END
> <Batch ID>
0136

> <Smiles>
CNC(C)C(=O)NC(C(=O)N1Cc2cc([101O:1][101CH2:1]c3c(C)ccnc3NCC[100NH:0][100C:0](=O)N3CCCC(n4nc(-c5ccc(Oc6ccc(F)cc6F)cc5)c(C(N)=O)c4N)C3)ccc2CC1C(=O)NC1CCCc2ccccc21)C(C)(C)C

> <Shape>
0.209

> <Color>
0.058

> <Negative vol penalty>
0.000

$$$$

  -OEChem-04052321022D

  0  0  0     0  0  0  0  0  0999 V2000
M  END
$$$$

  -OEChem-04052321023D

 85 93  0     1  0  0  0  0  0999 V2000
  -32.4090  -14.4197   21.4537 C   0  0  0  0  0  0  0  0  0  0  0  0
  -31.5771  -15.5347   21.4452 C   0  0  0  0  0  0  0  0  0  0  0  0
  -30.0285  -24.0442   19.7170 C   0  0  0  0  0  0  0  0  0  0  0  0
  -27.7437  -23.8306   18.9612 C   0  0  0  0  0  0  0  0  0  0  0  0
  -31.9405  -13.1981   20.9719 C   0  0  0  0  0  0  0  0  0  0  0  0
  -30.2764  -15.4290   20.9538 C   0  0  0  0  0  0  0  0  0  0  0  0
  -25.3211  -18.4006   22.9837 C   0  0  0  0  0  0  0  0  0  0  0  0
  -21.9680  -25.3278   24.0981 C   0  0  0  0  0  0  0  0  0  0  0  0
  -30.1046  -22.6608   19.8780 C   0  0  0  0  0  0  0  0  0  0  0  0
  -27.8198  -22.4472   19.1222 C   0  0  0  0  0  0  0  0  0  0  0  0
  -24.6623  -19.5434   22.5322 C   0  0  0  0  0  0  0  0  0  0  0  0
  -29.0955  -19.8113   17.4354 C   0  0  0  0  0  0  0  0  0  0  0  0
  -28.5852  -19.0123   16.4123 C   0  0  0  0  0  0  0  0  0  0  0  0
  -21.9270  -23.9573   23.8673 C   0  0  0  0  0  0  0  0  0  0  0  0
  -23.1084  -18.1585   21.3129 C   0  0  0  0  0  0  0  0  0  0  0  0
  -27.0179  -18.0262   17.9641 C   0  0  0  0  0  0  0  0  0  0  0  0
  -28.8480  -24.6292   19.2586 C   0  0  0  0  0  0  0  0  0  0  0  0
  -29.0816  -26.7985   17.9368 C   0  0  0  0  0  0  0  0  0  0  0  0
  -30.6303  -13.0750   20.4833 C   0  0  0  0  0  0  0  0  0  0  0  0
  -24.8845  -17.1264   22.5936 C   0  0  0  0  0  0  0  0  0  0  0  0
  -29.7904  -14.2049   20.4637 C   0  0  0  0  0  0  0  0  0  0  0  0
  -23.7619  -17.0011   21.7628 C   0  0  0  0  0  0  0  0  0  0  0  0
  -21.2257  -26.1852   23.2936 C   0  0  0  0  0  0  0  0  0  0  0  0
  -29.0003  -21.8623   19.5806 C   0  0  0  0  0  0  0  0  0  0  0  0
  -23.5575  -19.4226   21.6944 C   0  0  0  0  0  0  0  0  0  0  0  0
  -28.5670  -19.7178   18.7229 C   0  0  0  0  0  0  0  0  0  0  0  0
  -27.5464  -18.1198   16.6766 C   0  0  0  0  0  0  0  0  0  0  0  0
  -27.5282  -18.8253   18.9872 C   0  0  0  0  0  0  0  0  0  0  0  0
  -28.7686  -26.0582   19.0926 C   0  0  0  0  0  0  0  0  0  0  0  0
  -20.4645  -25.6265   22.2796 C   0  0  0  0  0  0  0  0  0  0  0  0
  -21.1343  -23.4983   22.8277 C   0  0  0  0  0  0  0  0  0  0  0  0
  -28.8418  -28.1040   18.2898 C   0  0  0  0  0  0  0  0  0  0  0  0
  -29.5472  -26.3464   16.6583 C   0  0  0  0  0  0  0  0  0  0  0  0
  -26.1652  -14.7188   20.9606 C   0  0  0  0  0  0  0  0  0  0  0  0
  -23.4398  -13.1906   21.8320 C   0  0  0  0  0  0  0  0  0  0  0  0
  -20.1765  -13.4155   22.8051 C   0  0  0  0  0  0  0  0  0  0  0  0
  -25.2911  -30.6316   22.3952 C   0  0  0  0  0  0  0  0  0  0  0  0
  -30.1841  -11.7452   19.9291 C   0  0  0  0  0  0  0  0  0  0  0  0
  -25.5898  -15.9027   23.1108 C   0  0  0  0  0  0  0  0  0  0  0  0
  -23.2409  -15.6554   21.3314 C   0  0  0  0  0  0  0  0  0  0  0  0
  -28.6702  -11.6277   19.7723 C   0  0  0  0  0  0  0  0  0  0  0  0
  -28.8179  -31.0116   22.0893 C   0  0  0  0  0  0  0  0  0  0  0  0
  -28.1038  -12.8781   19.1070 C   0  0  0  0  0  0  0  0  0  0  0  0
  -29.2334  -29.8520   21.1823 C   0  0  0  0  0  0  0  0  0  0  0  0
  -27.6849  -30.6126   23.0322 C   0  0  0  0  0  0  0  0  0  0  0  0
  -26.9165  -28.8760   21.4613 C   0  0  0  0  0  0  0  0  0  0  0  0
  -28.3650  -14.1242   19.9617 C   0  0  1  0  0  0  0  0  0  0  0  0
  -25.3713  -14.6725   22.2355 C   0  0  1  0  0  0  0  0  0  0  0  0
  -28.0184  -29.2466   20.4540 C   0  0  2  0  0  0  0  0  0  0  0  0
  -19.6470  -26.4994   21.3845 C   0  0  0  0  0  0  0  0  0  0  0  0
  -18.1980  -11.9941   23.4074 C   0  0  0  0  0  0  0  0  0  0  0  0
  -22.9998  -12.5565   18.8800 C   0  0  0  0  0  0  0  0  0  0  0  0
  -20.6197  -12.0035   19.4253 C   0  0  0  0  0  0  0  0  0  0  0  0
  -22.4710  -10.6756   20.4411 C   0  0  0  0  0  0  0  0  0  0  0  0
  -20.0428  -14.5537   25.5338 C   0  0  0  0  0  0  0  0  0  0  0  0
  -21.2653  -27.6543   23.5365 C   0  0  0  0  0  0  0  0  0  0  0  0
  -22.9253  -30.5296   21.6522 C   0  0  0  0  0  0  0  0  0  0  0  0
  -22.0842  -29.8719   22.7303 C   0  0  0  0  0  0  0  0  0  0  0  0
  -21.5154  -20.4169   20.9894 C   0  0  0  0  0  0  0  0  0  1  0  0
  -20.8495  -21.7573   21.2328 C   0  0  0  0  0  0  0  0  0  0  0  0
  -22.0610  -13.0404   21.2359 C   0  0  1  0  0  0  0  0  0  0  0  0
  -19.4128  -12.7437   23.9320 C   0  0  2  0  0  0  0  0  0  0  0  0
  -22.0486  -12.0946   20.0020 C   0  0  0  0  0  0  0  0  0  0  0  0
  -28.3613  -26.8294   20.1042 N   0  0  0  0  0  0  0  0  0  0  0  0
  -20.3994  -24.3004   22.0250 N   0  0  0  0  0  0  0  0  0  0  0  0
  -28.4168  -28.0678   19.5852 N   0  0  0  0  0  0  0  0  0  0  0  0
  -23.9683  -14.4890   21.8584 N   0  0  0  0  0  0  0  0  0  0  0  0
  -26.5630  -30.0472   22.2786 N   0  0  0  0  0  0  0  0  0  0  0  0
  -28.9554  -29.2679   17.6154 N   0  0  0  0  0  0  0  0  0  0  0  0
  -29.7403  -24.9717   16.4655 N   0  0  0  0  0  0  0  0  0  0  0  0
  -27.4341  -14.1824   21.0682 N   0  0  0  0  0  0  0  0  0  0  0  0
  -21.1897  -12.6129   22.3252 N   0  0  0  0  0  0  0  0  0  0  0  0
  -24.2851  -30.0381   21.6424 N   0  0  0  0  0  0  0  0  0  0  0  0
  -18.9485  -13.7582   24.9200 N   0  3  0  0  0  0  0  0  0  0  0  0
  -22.0803  -28.3989   22.5362 N   0  3  0  0  0  0  0  0  0  0  0  0
  -29.8007  -27.1395   15.7201 O   0  0  0  0  0  0  0  0  0  0  0  0
  -25.6631  -15.2038   19.9535 O   0  0  0  0  0  0  0  0  0  0  0  0
  -24.0234  -12.1938   22.2649 O   0  0  0  0  0  0  0  0  0  0  0  0
  -19.8993  -14.5384   22.3895 O   0  0  0  0  0  0  0  0  0  0  0  0
  -25.0695  -31.6131   23.1125 O   0  0  0  0  0  0  0  0  0  0  0  0
  -29.0742  -20.5123   19.7374 O   0  0  0  0  0  0  0  0  0  0  0  0
  -22.9130  -20.5364   21.2518 O   0  0  0  0  0  0  0  0  0  1  0  0
  -21.0783  -22.1520   22.5801 O   0  0  0  0  0  0  0  0  0  0  0  0
  -27.0554  -17.3536   15.6937 F   0  0  0  0  0  0  0  0  0  0  0  0
  -27.0156  -18.7318   20.2219 F   0  0  0  0  0  0  0  0  0  0  0  0
  1  2  1  0  0  0  0
  1  5  2  0  0  0  0
  2  6  2  0  0  0  0
  3  9  2  0  0  0  0
  3 17  1  0  0  0  0
  4 10  1  0  0  0  0
  4 17  2  0  0  0  0
  5 19  1  0  0  0  0
  6 21  1  0  0  0  0
  7 11  2  0  0  0  0
  7 20  1  0  0  0  0
  8 14  2  0  0  0  0
  8 23  1  0  0  0  0
  9 24  1  0  0  0  0
 10 24  2  0  0  0  0
 11 25  1  0  0  0  0
 12 13  2  0  0  0  0
 12 26  1  0  0  0  0
 13 27  1  0  0  0  0
 14 31  1  0  0  0  0
 15 22  1  0  0  0  0
 15 25  2  0  0  0  0
 16 27  2  0  0  0  0
 16 28  1  0  0  0  0
 17 29  1  0  0  0  0
 18 29  1  0  0  0  0
 18 32  2  0  0  0  0
 18 33  1  0  0  0  0
 19 21  2  0  0  0  0
 19 38  1  0  0  0  0
 20 22  2  0  0  0  0
 20 39  1  0  0  0  0
 21 47  1  0  0  0  0
 22 40  1  0  0  0  0
 23 30  2  0  0  0  0
 23 56  1  0  0  0  0
 24 81  1  0  0  0  0
 25 82  1  0  0  0  0
 26 28  2  0  0  0  0
 26 81  1  0  0  0  0
 27 84  1  0  0  0  0
 28 85  1  0  0  0  0
 29 64  2  0  0  0  0
 30 50  1  0  0  0  0
 30 65  1  0  0  0  0
 31 65  2  0  0  0  0
 31 83  1  0  0  0  0
 32 66  1  0  0  0  0
 32 69  1  0  0  0  0
 33 70  1  0  0  0  0
 33 76  2  0  0  0  0
 34 48  1  0  0  0  0
 34 71  1  0  0  0  0
 34 77  2  0  0  0  0
 35 61  1  0  0  0  0
 35 67  1  0  0  0  0
 35 78  2  0  0  0  0
 36 62  1  0  0  0  0
 36 72  1  0  0  0  0
 36 79  2  0  0  0  0
 37 68  1  0  0  0  0
 37 73  1  0  0  0  0
 37 80  2  0  0  0  0
 38 41  1  0  0  0  0
 39 48  1  0  0  0  0
 40 67  1  0  0  0  0
 41 43  1  0  0  0  0
 42 44  1  0  0  0  0
 42 45  1  0  0  0  0
 43 47  1  0  0  0  0
 44 49  1  0  0  0  0
 45 68  1  0  0  0  0
 46 49  1  0  0  0  0
 46 68  1  0  0  0  0
 47 71  1  0  0  0  0
 48 67  1  0  0  0  0
 49 66  1  0  0  0  0
 51 62  1  0  0  0  0
 52 63  1  0  0  0  0
 53 63  1  0  0  0  0
 54 63  1  0  0  0  0
 55 74  1  0  0  0  0
 56 75  1  0  0  0  0
 57 58  1  0  0  0  0
 57 73  1  0  0  0  0
 58 75  1  0  0  0  0
 59 60  1  0  0  0  0
 59 82  1  0  0  0  0
 60 83  1  0  0  0  0
 61 63  1  0  0  0  0
 61 72  1  0  0  0  0
 62 74  1  0  0  0  0
 64 66  1  0  0  0  0
M  CHG  2  74   1  75   1
M  ISO  4  37 100  59 101  73 100  82 101
M  END
> <Batch ID>
0136

> <Smiles>
CNC(C)C(=O)NC(C(=O)N1Cc2cc([101O:1][101CH2:1]COc3ccc(CNCC[100NH:0][100C:0](=O)N4CCCC(n5nc(-c6ccc(Oc7ccc(F)cc7F)cc6)c(C(N)=O)c5N)C4)c(C)n3)ccc2CC1C(=O)NC1CCCc2ccccc21)C(C)(C)C

> <Shape>
0.256

> <Color>
0.077

> <Negative vol penalty>
0.000

$$$$

  -OEChem-04052321023D

 89 99  0     1  0  0  0  0  0999 V2000
  -27.1045  -31.1549   28.4741 C   0  0  0  0  0  0  0  0  0  0  0  0
  -27.4401  -30.3551   27.3864 C   0  0  0  0  0  0  0  0  0  0  0  0
  -25.8425  -14.2550   21.7973 C   0  0  0  0  0  0  0  0  0  0  0  0
  -25.7319  -15.2135   19.5823 C   0  0  0  0  0  0  0  0  0  0  0  0
  -25.7685  -31.4664   28.7231 C   0  0  0  0  0  0  0  0  0  0  0  0
  -26.4396  -29.8652   26.5477 C   0  0  0  0  0  0  0  0  0  0  0  0
  -27.6150  -30.3310   21.6439 C   0  0  0  0  0  0  0  0  0  0  0  0
  -24.4737  -13.9910   21.7514 C   0  0  0  0  0  0  0  0  0  0  0  0
  -24.3630  -14.9494   19.5364 C   0  0  0  0  0  0  0  0  0  0  0  0
  -28.5067  -29.4006   21.1118 C   0  0  0  0  0  0  0  0  0  0  0  0
  -22.4270  -11.6832   20.3664 C   0  0  0  0  0  0  0  0  0  0  0  0
  -21.9940  -10.4289   20.7961 C   0  0  0  0  0  0  0  0  0  0  0  0
  -26.6552  -28.1734   20.1709 C   0  0  0  0  0  0  0  0  0  0  0  0
  -29.9886  -22.8100   16.6704 C   0  0  0  0  0  0  0  0  0  0  0  0
  -30.8025  -23.2087   19.3088 C   0  0  0  0  0  0  0  0  0  0  0  0
  -20.6429  -11.4795   22.5014 C   0  0  0  0  0  0  0  0  0  0  0  0
  -26.4716  -14.8663   20.7127 C   0  0  0  0  0  0  0  0  0  0  0  0
  -28.9295  -14.2933   20.3411 C   0  0  0  0  0  0  0  0  0  0  0  0
  -24.7520  -30.9881   27.8813 C   0  0  0  0  0  0  0  0  0  0  0  0
  -26.2337  -30.1833   21.4525 C   0  0  0  0  0  0  0  0  0  0  0  0
  -25.0886  -30.1695   26.7864 C   0  0  0  0  0  0  0  0  0  0  0  0
  -25.7483  -29.1047   20.6995 C   0  0  0  0  0  0  0  0  0  0  0  0
  -30.1912  -21.7153   17.5107 C   0  0  0  0  0  0  0  0  0  0  0  0
  -30.1930  -24.1041   17.1493 C   0  0  0  0  0  0  0  0  0  0  0  0
  -30.5981  -21.9146   18.8299 C   0  0  0  0  0  0  0  0  0  0  0  0
  -23.7339  -14.3381   20.6210 C   0  0  0  0  0  0  0  0  0  0  0  0
  -28.0266  -28.3200   20.3776 C   0  0  0  0  0  0  0  0  0  0  0  0
  -21.9680  -12.8358   21.0041 C   0  0  0  0  0  0  0  0  0  0  0  0
  -30.6000  -24.3034   18.4685 C   0  0  0  0  0  0  0  0  0  0  0  0
  -21.1019  -10.3270   21.8636 C   0  0  0  0  0  0  0  0  0  0  0  0
  -21.0760  -12.7339   22.0716 C   0  0  0  0  0  0  0  0  0  0  0  0
  -27.8855  -15.1398   20.7597 C   0  0  0  0  0  0  0  0  0  0  0  0
  -30.0742  -15.0095   20.5929 C   0  0  0  0  0  0  0  0  0  0  0  0
  -28.8700  -12.9774   19.7751 C   0  0  0  0  0  0  0  0  0  0  0  0
  -23.7354  -29.7629   23.3722 C   0  0  0  0  0  0  0  0  0  0  0  0
  -22.0560  -30.0990   20.6174 C   0  0  0  0  0  0  0  0  0  0  0  0
  -22.0020  -29.8800   17.2121 C   0  0  0  0  0  0  0  0  0  0  0  0
  -31.2166  -20.8582   21.0317 C   0  0  0  0  0  0  0  0  0  0  0  0
  -23.3181  -31.3124   28.2181 C   0  0  0  0  0  0  0  0  0  0  0  0
  -25.2868  -31.2102   22.0105 C   0  0  0  0  0  0  0  0  0  0  0  0
  -24.2758  -28.9120   20.4481 C   0  0  0  0  0  0  0  0  0  0  0  0
  -22.3500  -31.0623   27.0646 C   0  0  0  0  0  0  0  0  0  0  0  0
  -31.8163  -18.3792   23.5160 C   0  0  0  0  0  0  0  0  0  0  0  0
  -22.6190  -29.7029   26.4271 C   0  0  0  0  0  0  0  0  0  0  0  0
  -27.4630  -20.2475   16.1749 C   0  0  0  0  0  0  0  0  0  0  0  0
  -27.9400  -18.8247   16.2637 C   0  0  0  0  0  0  0  0  0  0  0  0
  -27.4545  -28.2549   15.9945 C   0  0  0  0  0  0  0  0  0  0  0  0
  -28.9309  -28.5357   16.0298 C   0  0  0  0  0  0  0  0  0  0  0  0
  -30.9761  -17.1880   23.0498 C   0  0  0  0  0  0  0  0  0  0  0  0
  -31.1205  -19.7094   23.2330 C   0  0  0  0  0  0  0  0  0  0  0  0
  -29.8468  -18.7088   21.3768 C   0  0  0  0  0  0  0  0  0  0  0  0
  -24.0339  -29.6395   25.8393 C   0  0  1  0  0  0  0  0  0  0  0  0
  -23.8677  -30.6797   22.1891 C   0  0  1  0  0  0  0  0  0  0  0  0
  -28.5264  -19.8718   17.1694 C   0  0  0  0  0  0  0  0  0  0  0  0
  -28.4336  -27.1789   15.6146 C   0  0  0  0  0  0  0  0  0  0  0  0
  -30.5353  -17.3495   21.5817 C   0  0  2  0  0  0  0  0  0  0  0  0
  -20.4761  -30.1811   15.2428 C   0  0  0  0  0  0  0  0  0  0  0  0
  -20.6907  -27.4503   21.2733 C   0  0  0  0  0  0  0  0  0  0  0  0
  -19.9242  -27.3359   18.8926 C   0  0  0  0  0  0  0  0  0  0  0  0
  -19.1684  -29.2096   20.3557 C   0  0  0  0  0  0  0  0  0  0  0  0
  -23.7118  -32.0060   16.0651 C   0  0  0  0  0  0  0  0  0  0  0  0
  -29.9644  -20.3404   16.9710 C   0  0  0  0  0  0  0  0  0  0  0  0
  -29.9717  -25.2649   16.2366 C   0  0  0  0  0  0  0  0  0  0  0  0
  -28.6414  -25.9769   16.5223 C   0  0  0  0  0  0  0  0  0  0  0  0
  -30.1123  -27.1935   20.5695 C   0  0  0  0  0  0  0  0  0  1  0  0
  -30.5707  -25.7658   20.3437 C   0  0  0  0  0  0  0  0  0  0  0  0
  -21.5625  -29.1585   19.5447 C   0  0  1  0  0  0  0  0  0  0  0  0
  -21.5036  -30.8418   16.1487 C   0  0  2  0  0  0  0  0  0  0  0  0
  -20.3641  -28.2909   20.0228 C   0  0  0  0  0  0  0  0  0  0  0  0
  -28.3277  -16.3046   21.2411 N   0  0  0  0  0  0  0  0  0  0  0  0
  -29.6622  -16.1951   21.1266 N   0  0  0  0  0  0  0  0  0  0  0  0
  -23.3896  -29.9393   21.0197 N   0  0  0  0  0  0  0  0  0  0  0  0
  -30.7356  -19.7933   21.8225 N   0  0  0  0  0  0  0  0  0  0  0  0
  -31.3828  -14.7344   20.4077 N   0  0  0  0  0  0  0  0  0  0  0  0
  -27.6125  -12.3886   19.5839 N   0  0  0  0  0  0  0  0  0  0  0  0
  -30.8108  -20.8153   19.6983 N   0  0  0  0  0  0  0  0  0  0  0  0
  -24.0883  -30.3430   24.5757 N   0  0  0  0  0  0  0  0  0  0  0  0
  -21.2735  -29.9855   18.3781 N   0  0  0  0  0  0  0  0  0  0  0  0
  -22.6378  -31.3153   15.3059 N   0  3  0  0  0  0  0  0  0  0  0  0
  -29.9020  -12.3358   19.4638 O   0  0  0  0  0  0  0  0  0  0  0  0
  -23.3409  -28.6147   23.2057 O   0  0  0  0  0  0  0  0  0  0  0  0
  -21.2888  -30.9490   21.0763 O   0  0  0  0  0  0  0  0  0  0  0  0
  -22.9411  -29.1093   17.0258 O   0  0  0  0  0  0  0  0  0  0  0  0
  -31.9579  -21.7281   21.4962 O   0  0  0  0  0  0  0  0  0  0  0  0
  -22.3982  -14.0804   20.5758 O   0  0  0  0  0  0  0  0  0  0  0  0
  -28.8947  -27.4101   19.8576 O   0  0  0  0  0  0  0  0  0  1  0  0
  -30.8060  -25.5675   18.9549 O   0  0  0  0  0  0  0  0  0  0  0  0
  -20.6850   -9.1225   22.2752 F   0  0  0  0  0  0  0  0  0  0  0  0
  -20.6306  -13.8376   22.6875 F   0  0  0  0  0  0  0  0  0  0  0  0
  1  2  1  0  0  0  0
  1  5  2  0  0  0  0
  2  6  2  0  0  0  0
  3  8  2  0  0  0  0
  3 17  1  0  0  0  0
  4  9  1  0  0  0  0
  4 17  2  0  0  0  0
  5 19  1  0  0  0  0
  6 21  1  0  0  0  0
  7 10  2  0  0  0  0
  7 20  1  0  0  0  0
  8 26  1  0  0  0  0
  9 26  2  0  0  0  0
 10 27  1  0  0  0  0
 11 12  2  0  0  0  0
 11 28  1  0  0  0  0
 12 30  1  0  0  0  0
 13 22  1  0  0  0  0
 13 27  2  0  0  0  0
 14 23  2  0  0  0  0
 14 24  1  0  0  0  0
 15 25  2  0  0  0  0
 15 29  1  0  0  0  0
 16 30  2  0  0  0  0
 16 31  1  0  0  0  0
 17 32  1  0  0  0  0
 18 32  1  0  0  0  0
 18 33  2  0  0  0  0
 18 34  1  0  0  0  0
 19 21  2  0  0  0  0
 19 39  1  0  0  0  0
 20 22  2  0  0  0  0
 20 40  1  0  0  0  0
 21 52  1  0  0  0  0
 22 41  1  0  0  0  0
 23 25  1  0  0  0  0
 23 62  1  0  0  0  0
 24 29  2  0  0  0  0
 24 63  1  0  0  0  0
 25 76  1  0  0  0  0
 26 85  1  0  0  0  0
 27 86  1  0  0  0  0
 28 31  2  0  0  0  0
 28 85  1  0  0  0  0
 29 87  1  0  0  0  0
 30 88  1  0  0  0  0
 31 89  1  0  0  0  0
 32 70  2  0  0  0  0
 33 71  1  0  0  0  0
 33 74  1  0  0  0  0
 34 75  1  0  0  0  0
 34 80  2  0  0  0  0
 35 53  1  0  0  0  0
 35 77  1  0  0  0  0
 35 81  2  0  0  0  0
 36 67  1  0  0  0  0
 36 72  1  0  0  0  0
 36 82  2  0  0  0  0
 37 68  1  0  0  0  0
 37 78  1  0  0  0  0
 37 83  2  0  0  0  0
 38 73  1  0  0  0  0
 38 76  1  0  0  0  0
 38 84  2  0  0  0  0
 39 42  1  0  0  0  0
 40 53  1  0  0  0  0
 41 72  1  0  0  0  0
 42 44  1  0  0  0  0
 43 49  1  0  0  0  0
 43 50  1  0  0  0  0
 44 52  1  0  0  0  0
 45 46  1  0  0  0  0
 45 54  1  0  0  0  0
 46 54  1  0  0  0  0
 47 48  1  0  0  0  0
 47 55  1  0  0  0  0
 48 55  1  0  0  0  0
 49 56  1  0  0  0  0
 50 73  1  0  0  0  0
 51 56  1  0  0  0  0
 51 73  1  0  0  0  0
 52 77  1  0  0  0  0
 53 72  1  0  0  0  0
 54 62  1  0  0  0  0
 55 64  1  0  0  0  0
 56 71  1  0  0  0  0
 57 68  1  0  0  0  0
 58 69  1  0  0  0  0
 59 69  1  0  0  0  0
 60 69  1  0  0  0  0
 61 79  1  0  0  0  0
 63 64  1  0  0  0  0
 65 66  1  0  0  0  0
 65 86  1  0  0  0  0
 66 87  1  0  0  0  0
 67 69  1  0  0  0  0
 67 78  1  0  0  0  0
 68 79  1  0  0  0  0
 70 71  1  0  0  0  0
M  CHG  1  79   1
M  ISO  4  38 100  65 101  76 100  86 101
M  END
> <Batch ID>
0136

> <Smiles>
CNC(C)C(=O)NC(C(=O)N1Cc2cc([101O:1][101CH2:1]COc3cc([100NH:0][100C:0](=O)N4CCCC(n5nc(-c6ccc(Oc7ccc(F)cc7F)cc6)c(C(N)=O)c5N)C4)c(CC4CC4)cc3CCC3CC3)ccc2CC1C(=O)NC1CCCc2ccccc21)C(C)(C)C

> <Shape>
0.280

> <Color>
0.093

> <Negative vol penalty>
0.000

$$$$

  -OEChem-04052321023D

 84 93  0     1  0  0  0  0  0999 V2000
  -27.4142  -24.0289   14.2778 C   0  0  0  0  0  0  0  0  0  0  0  0
  -26.4386  -24.1984   15.2550 C   0  0  0  0  0  0  0  0  0  0  0  0
  -25.2208  -13.3153   19.8013 C   0  0  0  0  0  0  0  0  0  0  0  0
  -23.3571  -14.5933   20.6559 C   0  0  0  0  0  0  0  0  0  0  0  0
  -28.7584  -24.2176   14.5962 C   0  0  0  0  0  0  0  0  0  0  0  0
  -26.8068  -24.5558   16.5516 C   0  0  0  0  0  0  0  0  0  0  0  0
  -23.8712  -28.2106   18.4673 C   0  0  0  0  0  0  0  0  0  0  0  0
  -19.4170  -24.1615   21.4198 C   0  0  0  0  0  0  0  0  0  0  0  0
  -24.8621  -12.2446   20.6201 C   0  0  0  0  0  0  0  0  0  0  0  0
  -22.9983  -13.5226   21.4747 C   0  0  0  0  0  0  0  0  0  0  0  0
  -22.6125  -27.8363   18.9356 C   0  0  0  0  0  0  0  0  0  0  0  0
  -24.2250   -9.0430   22.2198 C   0  0  0  0  0  0  0  0  0  0  0  0
  -24.2250   -7.7671   21.6561 C   0  0  0  0  0  0  0  0  0  0  0  0
  -19.6657  -25.5264   21.3264 C   0  0  0  0  0  0  0  0  0  0  0  0
  -23.4582  -27.8418   21.1948 C   0  0  0  0  0  0  0  0  0  0  0  0
  -22.5727   -8.4794   20.0438 C   0  0  0  0  0  0  0  0  0  0  0  0
  -24.4683  -14.4897   19.8193 C   0  0  0  0  0  0  0  0  0  0  0  0
  -24.4044  -15.8434   17.6580 C   0  0  0  0  0  0  0  0  0  0  0  0
  -29.1425  -24.5869   15.8949 C   0  0  0  0  0  0  0  0  0  0  0  0
  -24.9374  -28.3930   19.3597 C   0  0  0  0  0  0  0  0  0  0  0  0
  -28.1575  -24.7483   16.8880 C   0  0  0  0  0  0  0  0  0  0  0  0
  -20.4035  -23.2539   21.0505 C   0  0  0  0  0  0  0  0  0  0  0  0
  -24.7288  -28.2209   20.7355 C   0  0  0  0  0  0  0  0  0  0  0  0
  -23.7508  -12.3482   21.4568 C   0  0  0  0  0  0  0  0  0  0  0  0
  -22.4066  -27.6491   20.2993 C   0  0  0  0  0  0  0  0  0  0  0  0
  -23.3987  -10.0371   21.6955 C   0  0  0  0  0  0  0  0  0  0  0  0
  -23.3989   -7.4853   20.5681 C   0  0  0  0  0  0  0  0  0  0  0  0
  -22.5726   -9.7552   20.6075 C   0  0  0  0  0  0  0  0  0  0  0  0
  -24.8387  -15.5964   18.9741 C   0  0  0  0  0  0  0  0  0  0  0  0
  -21.6120  -23.7582   20.5976 C   0  0  0  0  0  0  0  0  0  0  0  0
  -20.9071  -25.9291   20.8611 C   0  0  0  0  0  0  0  0  0  1  0  0
  -25.0381  -17.0083   17.3003 C   0  0  0  0  0  0  0  0  0  0  0  0
  -23.5082  -15.0876   16.8326 C   0  0  0  0  0  0  0  0  0  0  0  0
  -27.7726  -27.0180   19.7782 C   0  0  0  0  0  0  0  0  0  0  0  0
  -28.1590  -29.3791   21.9687 C   0  0  0  0  0  0  0  0  0  0  0  0
  -26.7134  -31.6320   24.0857 C   0  0  0  0  0  0  0  0  0  0  0  0
  -27.2342  -21.5928   20.4644 C   0  0  0  0  0  0  0  0  0  0  0  0
  -30.6115  -24.7334   16.2034 C   0  0  0  0  0  0  0  0  0  0  0  0
  -26.2823  -28.8227   18.8411 C   0  0  0  0  0  0  0  0  0  0  0  0
  -25.8353  -28.4240   21.7369 C   0  0  0  0  0  0  0  0  0  0  0  0
  -30.8888  -25.4771   17.5074 C   0  0  0  0  0  0  0  0  0  0  0  0
  -29.0103  -19.5295   18.1699 C   0  0  0  0  0  0  0  0  0  0  0  0
  -20.3115  -20.9286   19.9286 C   0  0  0  0  0  0  0  0  0  0  0  0
  -18.9358  -21.2151   20.4443 C   0  0  0  0  0  0  0  0  0  0  0  0
  -29.9983  -24.9445   18.6255 C   0  0  0  0  0  0  0  0  0  0  0  0
  -28.1034  -18.3098   17.9971 C   0  0  0  0  0  0  0  0  0  0  0  0
  -28.9775  -20.0587   19.6020 C   0  0  0  0  0  0  0  0  0  0  0  0
  -26.7222  -19.1288   19.9516 C   0  0  0  0  0  0  0  0  0  0  0  0
  -20.1350  -21.7904   21.1512 C   0  0  0  0  0  0  0  0  0  0  0  0
  -28.5154  -25.1598   18.2996 C   0  0  1  0  0  0  0  0  0  0  0  0
  -27.4262  -28.4801   19.7906 C   0  0  1  0  0  0  0  0  0  0  0  0
  -26.6788  -18.5931   18.5102 C   0  0  2  0  0  0  0  0  0  0  0  0
  -27.2872  -33.3981   25.7736 C   0  0  0  0  0  0  0  0  0  0  0  0
  -28.8469  -27.2097   24.0011 C   0  0  0  0  0  0  0  0  0  0  0  0
  -28.4747  -28.8915   25.8180 C   0  0  0  0  0  0  0  0  0  0  0  0
  -30.2788  -29.2558   24.1342 C   0  0  0  0  0  0  0  0  0  0  0  0
  -25.3723  -33.7436   22.5040 C   0  0  0  0  0  0  0  0  0  0  0  0
  -24.8292  -23.8661   20.1721 C   0  0  0  0  0  0  0  0  0  0  0  0
  -23.7119  -23.1969   19.3724 C   0  0  0  0  0  0  0  0  0  0  0  0
  -25.3794  -23.0086   21.3097 C   0  0  0  0  0  0  0  0  0  0  0  0
  -27.8629  -29.5301   23.4413 C   0  0  1  0  0  0  0  0  0  0  0  0
  -26.9731  -33.1102   24.3137 C   0  0  2  0  0  0  0  0  0  0  0  0
  -28.8453  -28.7160   24.3298 C   0  0  0  0  0  0  0  0  0  0  0  0
  -25.6832  -16.5292   19.4221 N   0  0  0  0  0  0  0  0  0  0  0  0
  -21.8901  -25.0771   20.4930 N   0  0  0  0  0  0  0  0  0  0  0  0
  -25.7846  -17.3738   18.3817 N   0  0  0  0  0  0  0  0  0  0  0  0
  -27.1338  -28.8378   21.1801 N   0  0  0  0  0  0  0  0  0  0  0  0
  -27.5981  -20.3085   20.0270 N   0  0  0  0  0  0  0  0  0  0  0  0
  -25.0240  -17.7454   16.1694 N   0  0  0  0  0  0  0  0  0  0  0  0
  -22.9456  -13.9156   17.3562 N   0  0  0  0  0  0  0  0  0  0  0  0
  -22.6217  -22.8382   20.2195 N   0  0  0  0  0  0  0  0  0  0  0  0
  -28.1409  -26.5376   18.5360 N   0  0  0  0  0  0  0  0  0  0  0  0
  -27.8602  -30.9637   23.7122 N   0  0  0  0  0  0  0  0  0  0  0  0
  -25.9060  -21.7453   20.8432 N   0  0  0  0  0  0  0  0  0  0  0  0
  -25.7794  -33.9122   23.9228 N   0  3  0  0  0  0  0  0  0  0  0  0
  -23.2278  -15.4323   15.6596 O   0  0  0  0  0  0  0  0  0  0  0  0
  -27.7117  -26.3738   20.8189 O   0  0  0  0  0  0  0  0  0  0  0  0
  -29.2567  -29.7351   21.5330 O   0  0  0  0  0  0  0  0  0  0  0  0
  -25.6050  -31.1207   24.2284 O   0  0  0  0  0  0  0  0  0  0  0  0
  -28.0323  -22.5351   20.5086 O   0  0  0  0  0  0  0  0  0  0  0  0
  -23.4003  -11.3035   22.2557 O   0  0  0  0  0  0  0  0  0  0  0  0
  -21.1791  -27.2831   20.7590 O   0  0  0  0  0  0  0  0  0  1  0  0
  -23.4002   -6.2605   20.0259 F   0  0  0  0  0  0  0  0  0  0  0  0
  -21.7775  -10.7065   20.0988 F   0  0  0  0  0  0  0  0  0  0  0  0
  1  2  1  0  0  0  0
  1  5  2  0  0  0  0
  2  6  2  0  0  0  0
  3  9  2  0  0  0  0
  3 17  1  0  0  0  0
  4 10  1  0  0  0  0
  4 17  2  0  0  0  0
  5 19  1  0  0  0  0
  6 21  1  0  0  0  0
  7 11  2  0  0  0  0
  7 20  1  0  0  0  0
  8 14  2  0  0  0  0
  8 22  1  0  0  0  0
  9 24  1  0  0  0  0
 10 24  2  0  0  0  0
 11 25  1  0  0  0  0
 12 13  2  0  0  0  0
 12 26  1  0  0  0  0
 13 27  1  0  0  0  0
 14 31  1  0  0  0  0
 15 23  1  0  0  0  0
 15 25  2  0  0  0  0
 16 27  2  0  0  0  0
 16 28  1  0  0  0  0
 17 29  1  0  0  0  0
 18 29  1  0  0  0  0
 18 32  2  0  0  0  0
 18 33  1  0  0  0  0
 19 21  2  0  0  0  0
 19 38  1  0  0  0  0
 20 23  2  0  0  0  0
 20 39  1  0  0  0  0
 21 50  1  0  0  0  0
 22 30  2  0  0  0  0
 22 49  1  0  0  0  0
 23 40  1  0  0  0  0
 24 81  1  0  0  0  0
 25 82  1  0  0  0  0
 26 28  2  0  0  0  0
 26 81  1  0  0  0  0
 27 83  1  0  0  0  0
 28 84  1  0  0  0  0
 29 64  2  0  0  0  0
 30 65  1  0  0  0  0
 30 71  1  0  0  0  0
 31 65  2  0  0  0  0
 31 82  1  0  0  0  0
 32 66  1  0  0  0  0
 32 69  1  0  0  0  0
 33 70  1  0  0  0  0
 33 76  2  0  0  0  0
 34 51  1  0  0  0  0
 34 72  1  0  0  0  0
 34 77  2  0  0  0  0
 35 61  1  0  0  0  0
 35 67  1  0  0  0  0
 35 78  2  0  0  0  0
 36 62  1  0  0  0  0
 36 73  1  0  0  0  0
 36 79  2  0  0  0  0
 37 68  1  0  0  0  0
 37 74  1  0  0  0  0
 37 80  2  0  0  0  0
 38 41  1  0  0  0  0
 39 51  1  0  0  0  0
 40 67  1  0  0  0  0
 41 45  1  0  0  0  0
 42 46  1  0  0  0  0
 42 47  1  0  0  0  0
 43 44  1  0  0  0  0
 43 49  1  0  0  0  0
 44 49  1  0  0  0  0
 45 50  1  0  0  0  0
 46 52  1  0  0  0  0
 47 68  1  0  0  0  0
 48 52  1  0  0  0  0
 48 68  1  0  0  0  0
 50 72  1  0  0  0  0
 51 67  1  0  0  0  0
 52 66  1  0  0  0  0
 53 62  1  0  0  0  0
 54 63  1  0  0  0  0
 55 63  1  0  0  0  0
 56 63  1  0  0  0  0
 57 75  1  0  0  0  0
 58 59  1  0  0  0  0
 58 60  1  0  0  0  0
 59 71  1  0  0  0  0
 60 74  1  0  0  0  0
 61 63  1  0  0  0  0
 61 73  1  0  0  0  0
 62 75  1  0  0  0  0
 64 66  1  0  0  0  0
M  CHG  1  75   1
M  ISO  4  31 101  37 100  74 100  82 101
M  END
> <Batch ID>
0136

> <Smiles>
CNC(C)C(=O)NC(C(=O)N1Cc2cc([101O:1][101c:1]3ccc(C4CC4)c(NCCC[100NH:0][100C:0](=O)N4CCCC(n5nc(-c6ccc(Oc7ccc(F)cc7F)cc6)c(C(N)=O)c5N)C4)n3)ccc2CC1C(=O)NC1CCCc2ccccc21)C(C)(C)C

> <Shape>
0.231

> <Color>
0.058

> <Negative vol penalty>
0.000

$$$$

  -OEChem-04052321023D

 86 95  0     1  0  0  0  0  0999 V2000
  -21.9063  -35.5480   14.4164 C   0  0  0  0  0  0  0  0  0  0  0  0
  -21.6674  -34.2041   14.6851 C   0  0  0  0  0  0  0  0  0  0  0  0
  -22.9437  -10.1481   19.8807 C   0  0  0  0  0  0  0  0  0  0  0  0
  -23.9405   -9.6715   22.0292 C   0  0  0  0  0  0  0  0  0  0  0  0
  -23.0637  -36.1589   14.8973 C   0  0  0  0  0  0  0  0  0  0  0  0
  -22.5864  -33.4699   15.4340 C   0  0  0  0  0  0  0  0  0  0  0  0
  -22.9136  -28.0934   20.1566 C   0  0  0  0  0  0  0  0  0  0  0  0
  -25.3302  -22.5265   22.1787 C   0  0  0  0  0  0  0  0  0  0  0  0
  -26.1089  -21.4129   22.4934 C   0  0  0  0  0  0  0  0  0  0  0  0
  -22.1713   -8.9911   19.9823 C   0  0  0  0  0  0  0  0  0  0  0  0
  -23.1681   -8.5145   22.1309 C   0  0  0  0  0  0  0  0  0  0  0  0
  -23.5646  -26.8777   20.3611 C   0  0  0  0  0  0  0  0  0  0  0  0
  -19.9843   -7.7092   22.9282 C   0  0  0  0  0  0  0  0  0  0  0  0
  -19.3540   -7.4576   24.1468 C   0  0  0  0  0  0  0  0  0  0  0  0
  -25.4905  -28.0583   21.2073 C   0  0  0  0  0  0  0  0  0  0  0  0
  -27.4953  -21.8362   20.5605 C   0  0  0  0  0  0  0  0  0  0  0  0
  -20.5636   -5.3754   24.3425 C   0  0  0  0  0  0  0  0  0  0  0  0
  -23.8284  -10.4883   20.9041 C   0  0  0  0  0  0  0  0  0  0  0  0
  -24.2867  -12.9746   21.2440 C   0  0  0  0  0  0  0  0  0  0  0  0
  -23.9926  -35.4343   15.6606 C   0  0  0  0  0  0  0  0  0  0  0  0
  -23.5514  -29.3033   20.4662 C   0  0  0  0  0  0  0  0  0  0  0  0
  -23.7580  -34.0713   15.9244 C   0  0  0  0  0  0  0  0  0  0  0  0
  -24.8445  -29.2879   21.0082 C   0  0  0  0  0  0  0  0  0  0  0  0
  -25.6340  -23.2949   21.0548 C   0  0  0  0  0  0  0  0  0  0  0  0
  -26.7165  -22.9498   20.2458 C   0  0  0  0  0  0  0  0  0  0  0  0
  -27.1915  -21.0677   21.6843 C   0  0  0  0  0  0  0  0  0  0  0  0
  -22.2834   -8.1743   21.1074 C   0  0  0  0  0  0  0  0  0  0  0  0
  -24.8544  -26.8601   20.8839 C   0  0  0  0  0  0  0  0  0  0  0  0
  -20.9042   -6.7938   22.4167 C   0  0  0  0  0  0  0  0  0  0  0  0
  -19.6436   -6.2907   24.8540 C   0  0  0  0  0  0  0  0  0  0  0  0
  -21.1938   -5.6269   23.1239 C   0  0  0  0  0  0  0  0  0  0  0  0
  -24.6270  -11.6830   20.7994 C   0  0  0  0  0  0  0  0  0  0  0  0
  -25.3720  -13.7487   20.9132 C   0  0  0  0  0  0  0  0  0  0  0  0
  -23.0961  -13.4337   21.8978 C   0  0  0  0  0  0  0  0  0  0  0  0
  -24.4513  -31.8555   18.7988 C   0  0  0  0  0  0  0  0  0  0  0  0
  -25.1901  -33.0276   21.7319 C   0  0  0  0  0  0  0  0  0  0  0  0
  -26.0052  -32.3927   24.9845 C   0  0  0  0  0  0  0  0  0  0  0  0
  -30.8906  -14.5440   20.6730 C   0  0  0  0  0  0  0  0  0  0  0  0
  -25.2523  -36.1256   16.1188 C   0  0  0  0  0  0  0  0  0  0  0  0
  -22.8253  -30.6051   20.2647 C   0  0  0  0  0  0  0  0  0  0  0  0
  -25.5653  -30.5582   21.3761 C   0  0  0  0  0  0  0  0  0  0  0  0
  -25.9929  -35.3738   17.2219 C   0  0  0  0  0  0  0  0  0  0  0  0
  -29.3850  -12.7228   18.0097 C   0  0  0  0  0  0  0  0  0  0  0  0
  -26.1050  -33.8924   16.8758 C   0  0  0  0  0  0  0  0  0  0  0  0
  -27.9879  -12.3914   18.5372 C   0  0  0  0  0  0  0  0  0  0  0  0
  -28.9792  -18.2371   23.2275 C   0  0  0  0  0  0  0  0  0  0  0  0
  -30.4339  -12.6702   19.1184 C   0  0  0  0  0  0  0  0  0  0  0  0
  -27.7238  -19.1033   23.1498 C   0  0  0  0  0  0  0  0  0  0  0  0
  -29.1185  -19.5296   21.2183 C   0  0  0  0  0  0  0  0  0  0  0  0
  -28.7297  -13.1646   20.8286 C   0  0  0  0  0  0  0  0  0  0  0  0
  -24.7190  -33.2478   16.7542 C   0  0  1  0  0  0  0  0  0  0  0  0
  -23.7654  -31.7996   20.1345 C   0  0  1  0  0  0  0  0  0  0  0  0
  -29.4210  -18.1321   21.7708 C   0  0  1  0  0  0  0  0  0  0  0  0
  -27.6290  -13.2595   19.7582 C   0  0  2  0  0  0  0  0  0  0  0  0
  -27.0599  -23.7566   19.0368 C   0  0  0  0  0  0  0  0  0  0  0  0
  -26.5872  -33.5532   27.1320 C   0  0  0  0  0  0  0  0  0  0  0  0
  -27.9870  -33.6062   20.6583 C   0  0  0  0  0  0  0  0  0  0  0  0
  -28.7679  -33.8548   23.0240 C   0  0  0  0  0  0  0  0  0  0  0  0
  -27.0363  -35.4031   22.1148 C   0  0  0  0  0  0  0  0  0  0  0  0
  -23.6606  -31.2423   26.3767 C   0  0  0  0  0  0  0  0  0  0  0  0
  -24.7811  -24.4876   20.7361 C   0  0  0  0  0  0  0  0  0  1  0  0
  -30.8763  -17.7271   21.6140 C   0  0  0  0  0  0  0  0  0  0  0  0
  -31.1985  -16.3993   22.2923 C   0  0  0  0  0  0  0  0  0  0  0  0
  -26.4141  -33.0043   22.6153 C   0  0  1  0  0  0  0  0  0  0  0  0
  -25.4703  -32.9614   26.2864 C   0  0  2  0  0  0  0  0  0  0  0  0
  -27.5388  -33.9431   22.0945 C   0  0  0  0  0  0  0  0  0  0  0  0
  -25.8339  -11.6352   20.2294 N   0  0  0  0  0  0  0  0  0  0  0  0
  -26.2616  -12.9065   20.3135 N   0  0  0  0  0  0  0  0  0  0  0  0
  -27.9615  -19.9674   21.9963 N   0  0  3  0  0  0  0  0  0  0  0  0
  -24.8159  -31.8059   21.1546 N   0  0  0  0  0  0  0  0  0  0  0  0
  -30.0342  -13.5159   20.2458 N   0  0  0  0  0  0  0  0  0  0  0  0
  -25.6426  -15.0607   21.0795 N   0  0  0  0  0  0  0  0  0  0  0  0
  -22.0794  -12.5061   22.1629 N   0  0  0  0  0  0  0  0  0  0  0  0
  -24.1641  -32.9912   18.0660 N   0  0  0  0  0  0  0  0  0  0  0  0
  -25.9509  -33.3171   23.9628 N   0  0  0  0  0  0  0  0  0  0  0  0
  -30.4328  -15.3023   21.7436 N   0  0  0  0  0  0  0  0  0  0  0  0
  -24.7954  -31.8950   27.0789 N   0  3  0  0  0  0  0  0  0  0  0  0
  -22.9316  -14.6343   22.2221 O   0  0  0  0  0  0  0  0  0  0  0  0
  -25.1879  -30.9370   18.4590 O   0  0  0  0  0  0  0  0  0  0  0  0
  -24.5841  -34.0891   21.5660 O   0  0  0  0  0  0  0  0  0  0  0  0
  -26.4321  -31.2445   24.8847 O   0  0  0  0  0  0  0  0  0  0  0  0
  -31.9800  -14.7728   20.1365 O   0  0  0  0  0  0  0  0  0  0  0  0
  -21.5297   -7.0454   21.2071 O   0  0  0  0  0  0  0  0  0  0  0  0
  -25.4923  -25.6748   21.0839 O   0  0  0  0  0  0  0  0  0  1  0  0
  -19.0394   -6.0500   26.0250 F   0  0  0  0  0  0  0  0  0  0  0  0
  -22.0775   -4.7444   22.6381 F   0  0  0  0  0  0  0  0  0  0  0  0
  1  2  1  0  0  0  0
  1  5  2  0  0  0  0
  2  6  2  0  0  0  0
  3 10  2  0  0  0  0
  3 18  1  0  0  0  0
  4 11  1  0  0  0  0
  4 18  2  0  0  0  0
  5 20  1  0  0  0  0
  6 22  1  0  0  0  0
  7 12  2  0  0  0  0
  7 21  1  0  0  0  0
  8  9  2  0  0  0  0
  8 24  1  0  0  0  0
  9 26  1  0  0  0  0
 10 27  1  0  0  0  0
 11 27  2  0  0  0  0
 12 28  1  0  0  0  0
 13 14  2  0  0  0  0
 13 29  1  0  0  0  0
 14 30  1  0  0  0  0
 15 23  1  0  0  0  0
 15 28  2  0  0  0  0
 16 25  1  0  0  0  0
 16 26  2  0  0  0  0
 17 30  2  0  0  0  0
 17 31  1  0  0  0  0
 18 32  1  0  0  0  0
 19 32  1  0  0  0  0
 19 33  2  0  0  0  0
 19 34  1  0  0  0  0
 20 22  2  0  0  0  0
 20 39  1  0  0  0  0
 21 23  2  0  0  0  0
 21 40  1  0  0  0  0
 22 51  1  0  0  0  0
 23 41  1  0  0  0  0
 24 25  2  0  0  0  0
 24 61  1  0  0  0  0
 25 55  1  0  0  0  0
 26 69  1  0  0  0  0
 27 83  1  0  0  0  0
 28 84  1  0  0  0  0
 29 31  2  0  0  0  0
 29 83  1  0  0  0  0
 30 85  1  0  0  0  0
 31 86  1  0  0  0  0
 32 67  2  0  0  0  0
 33 68  1  0  0  0  0
 33 72  1  0  0  0  0
 34 73  1  0  0  0  0
 34 78  2  0  0  0  0
 35 52  1  0  0  0  0
 35 74  1  0  0  0  0
 35 79  2  0  0  0  0
 36 64  1  0  0  0  0
 36 70  1  0  0  0  0
 36 80  2  0  0  0  0
 37 65  1  0  0  0  0
 37 75  1  0  0  0  0
 37 81  2  0  0  0  0
 38 71  1  0  0  0  0
 38 76  1  0  0  0  0
 38 82  2  0  0  0  0
 39 42  1  0  0  0  0
 40 52  1  0  0  0  0
 41 70  1  0  0  0  0
 42 44  1  0  0  0  0
 43 45  1  0  0  0  0
 43 47  1  0  0  0  0
 44 51  1  0  0  0  0
 45 54  1  0  0  0  0
 46 48  1  0  0  0  0
 46 53  1  0  0  0  0
 47 71  1  0  0  0  0
 48 69  1  0  0  0  0
 49 53  1  0  0  0  0
 49 69  1  0  0  0  0
 50 54  1  0  0  0  0
 50 71  1  0  0  0  0
 51 74  1  0  0  0  0
 52 70  1  0  0  0  0
 53 62  1  0  0  0  0
 54 68  1  0  0  0  0
 56 65  1  0  0  0  0
 57 66  1  0  0  0  0
 58 66  1  0  0  0  0
 59 66  1  0  0  0  0
 60 77  1  0  0  0  0
 61 84  1  0  0  0  0
 62 63  1  0  0  0  0
 63 76  1  0  0  0  0
 64 66  1  0  0  0  0
 64 75  1  0  0  0  0
 65 77  1  0  0  0  0
 67 68  1  0  0  0  0
M  CHG  1  77   1
M  ISO  4  38 100  61 101  76 100  84 101
M  END
> <Batch ID>
0136

> <Smiles>
CNC(C)C(=O)NC(C(=O)N1Cc2cc([101O:1][101CH2:1]c3ccc(N4CCC(CC[100NH:0][100C:0](=O)N5CCCC(n6nc(-c7ccc(Oc8ccc(F)cc8F)cc7)c(C(N)=O)c6N)C5)C4)cc3C)ccc2CC1C(=O)NC1CCCc2ccccc21)C(C)(C)C

> <Shape>
0.302

> <Color>
0.196

> <Negative vol penalty>
0.000

$$$$

  -OEChem-04052321023D

 83 92  0     1  0  0  0  0  0999 V2000
  -31.3907  -33.8477   21.0276 C   0  0  0  0  0  0  0  0  0  0  0  0
  -31.3621  -32.4933   21.3442 C   0  0  0  0  0  0  0  0  0  0  0  0
  -23.2883   -9.6290   20.1860 C   0  0  0  0  0  0  0  0  0  0  0  0
  -23.8892  -10.0224   22.4928 C   0  0  0  0  0  0  0  0  0  0  0  0
  -30.2328  -34.6150   21.1476 C   0  0  0  0  0  0  0  0  0  0  0  0
  -30.1758  -31.9057   21.7820 C   0  0  0  0  0  0  0  0  0  0  0  0
  -29.2766  -27.4490   19.5516 C   0  0  0  0  0  0  0  0  0  0  0  0
  -30.6627  -18.1473   20.1489 C   0  0  0  0  0  0  0  0  0  0  0  0
  -22.6219   -8.4617   20.5586 C   0  0  0  0  0  0  0  0  0  0  0  0
  -23.2228   -8.8550   22.8654 C   0  0  0  0  0  0  0  0  0  0  0  0
  -29.9881  -26.3464   20.0224 C   0  0  0  0  0  0  0  0  0  0  0  0
  -30.7204  -19.5287   19.9645 C   0  0  0  0  0  0  0  0  0  0  0  0
  -20.0338   -7.8711   23.3971 C   0  0  0  0  0  0  0  0  0  0  0  0
  -19.2052   -7.9293   24.5177 C   0  0  0  0  0  0  0  0  0  0  0  0
  -28.9059  -18.4386   21.7816 C   0  0  0  0  0  0  0  0  0  0  0  0
  -28.0684  -25.6676   21.3160 C   0  0  0  0  0  0  0  0  0  0  0  0
  -20.5421   -6.2293   25.5946 C   0  0  0  0  0  0  0  0  0  0  0  0
  -23.9221  -10.4093   21.1530 C   0  0  0  0  0  0  0  0  0  0  0  0
  -24.0724  -12.9130   20.6879 C   0  0  0  0  0  0  0  0  0  0  0  0
  -29.0293  -34.0344   21.5779 C   0  0  0  0  0  0  0  0  0  0  0  0
  -27.9571  -27.6756   19.9687 C   0  0  0  0  0  0  0  0  0  0  0  0
  -29.0010  -32.6663   21.9092 C   0  0  0  0  0  0  0  0  0  0  0  0
  -28.9636  -19.8200   21.5972 C   0  0  0  0  0  0  0  0  0  0  0  0
  -27.3415  -26.7725   20.8471 C   0  0  0  0  0  0  0  0  0  0  0  0
  -29.7554  -17.6022   21.0574 C   0  0  0  0  0  0  0  0  0  0  0  0
  -22.5891   -8.0747   21.8983 C   0  0  0  0  0  0  0  0  0  0  0  0
  -29.3850  -25.4570   20.9070 C   0  0  0  0  0  0  0  0  0  0  0  0
  -29.8708  -20.3651   20.6887 C   0  0  0  0  0  0  0  0  0  0  0  0
  -21.1165   -6.9919   23.3752 C   0  0  0  0  0  0  0  0  0  0  0  0
  -19.4594   -7.1085   25.6164 C   0  0  0  0  0  0  0  0  0  0  0  0
  -21.3707   -6.1710   24.4739 C   0  0  0  0  0  0  0  0  0  0  0  0
  -24.6111  -11.6150   20.7687 C   0  0  0  0  0  0  0  0  0  0  0  0
  -25.1245  -13.6967   20.2810 C   0  0  0  0  0  0  0  0  0  0  0  0
  -22.7401  -13.3697   20.9566 C   0  0  0  0  0  0  0  0  0  0  0  0
  -26.4749  -29.9919   21.5630 C   0  0  0  0  0  0  0  0  0  0  0  0
  -23.8248  -28.2760   20.8183 C   0  0  0  0  0  0  0  0  0  0  0  0
  -22.4673  -25.2586   19.9823 C   0  0  0  0  0  0  0  0  0  0  0  0
  -30.4678  -15.2285   20.6054 C   0  0  0  0  0  0  0  0  0  0  0  0
  -27.8149  -34.9145   21.7372 C   0  0  0  0  0  0  0  0  0  0  0  0
  -27.1942  -28.8551   19.4308 C   0  0  0  0  0  0  0  0  0  0  0  0
  -25.9204  -26.9597   21.3095 C   0  0  0  0  0  0  0  0  0  0  0  0
  -26.5077  -34.1342   21.8498 C   0  0  0  0  0  0  0  0  0  0  0  0
  -29.7078  -12.4198   18.5534 C   0  0  0  0  0  0  0  0  0  0  0  0
  -26.5640  -20.4555   22.3128 C   0  0  0  0  0  0  0  0  0  0  0  0
  -27.1501  -21.6604   21.6459 C   0  0  0  0  0  0  0  0  0  0  0  0
  -26.6582  -32.9800   22.8357 C   0  0  0  0  0  0  0  0  0  0  0  0
  -28.2697  -12.0668   18.9401 C   0  0  0  0  0  0  0  0  0  0  0  0
  -30.5192  -12.8930   19.7581 C   0  0  0  0  0  0  0  0  0  0  0  0
  -28.4728  -13.6344   20.9121 C   0  0  0  0  0  0  0  0  0  0  0  0
  -28.0481  -20.7006   22.3805 C   0  0  0  0  0  0  0  0  0  0  0  0
  -27.7273  -31.9872   22.3638 C   0  0  1  0  0  0  0  0  0  0  0  0
  -26.0285  -29.2701   20.3231 C   0  0  1  0  0  0  0  0  0  0  0  0
  -27.5980  -13.2143   19.7196 C   0  0  2  0  0  0  0  0  0  0  0  0
  -20.2688  -24.1605   19.4742 C   0  0  0  0  0  0  0  0  0  0  0  0
  -23.1355  -28.2861   23.7906 C   0  0  0  0  0  0  0  0  0  0  0  0
  -21.5167  -26.4277   23.3502 C   0  0  0  0  0  0  0  0  0  0  0  0
  -21.1864  -28.6501   22.2665 C   0  0  0  0  0  0  0  0  0  0  0  0
  -23.3382  -24.5132   17.2538 C   0  0  0  0  0  0  0  0  0  0  0  0
  -31.0726  -23.8299   20.5066 C   0  0  0  0  0  0  0  0  0  1  0  0
  -31.1905  -22.3417   20.7732 C   0  0  0  0  0  0  0  0  0  0  0  0
  -23.0609  -27.1505   21.4731 C   0  0  1  0  0  0  0  0  0  0  0  0
  -21.4866  -24.8622   18.8934 C   0  0  2  0  0  0  0  0  0  0  0  0
  -22.2523  -27.6259   22.7131 C   0  0  0  0  0  0  0  0  0  0  0  0
  -25.9049  -11.5722   20.4394 N   0  0  0  0  0  0  0  0  0  0  0  0
  -26.1879  -12.8531   20.1478 N   0  0  0  0  0  0  0  0  0  0  0  0
  -25.2182  -28.1314   20.7604 N   0  0  0  0  0  0  0  0  0  0  0  0
  -29.8235  -13.9836   20.4447 N   0  0  0  0  0  0  0  0  0  0  0  0
  -25.2344  -15.0181   20.0278 N   0  0  0  0  0  0  0  0  0  0  0  0
  -21.7821  -12.4319   21.3653 N   0  0  0  0  0  0  0  0  0  0  0  0
  -29.6964  -16.1989   21.2441 N   0  0  0  0  0  0  0  0  0  0  0  0
  -27.2024  -31.1402   21.3143 N   0  0  0  0  0  0  0  0  0  0  0  0
  -22.2465  -26.5458   20.4246 N   0  0  0  0  0  0  0  0  0  0  0  0
  -22.1387  -23.9424   17.9188 N   0  3  0  0  0  0  0  0  0  0  0  0
  -22.4049  -14.5709   20.8220 O   0  0  0  0  0  0  0  0  0  0  0  0
  -26.1799  -29.5414   22.6638 O   0  0  0  0  0  0  0  0  0  0  0  0
  -23.2073  -29.2443   20.3681 O   0  0  0  0  0  0  0  0  0  0  0  0
  -23.3394  -24.5007   20.4014 O   0  0  0  0  0  0  0  0  0  0  0  0
  -31.6092  -15.4280   20.1816 O   0  0  0  0  0  0  0  0  0  0  0  0
  -21.9387   -6.9359   22.2623 O   0  0  0  0  0  0  0  0  0  0  0  0
  -30.0774  -24.3803   21.3686 O   0  0  0  0  0  0  0  0  0  1  0  0
  -29.9422  -21.7194   20.4942 O   0  0  0  0  0  0  0  0  0  0  0  0
  -18.6645   -7.1656   26.6930 F   0  0  0  0  0  0  0  0  0  0  0  0
  -22.4100   -5.3253   24.4592 F   0  0  0  0  0  0  0  0  0  0  0  0
  1  2  1  0  0  0  0
  1  5  2  0  0  0  0
  2  6  2  0  0  0  0
  3  9  2  0  0  0  0
  3 18  1  0  0  0  0
  4 10  1  0  0  0  0
  4 18  2  0  0  0  0
  5 20  1  0  0  0  0
  6 22  1  0  0  0  0
  7 11  2  0  0  0  0
  7 21  1  0  0  0  0
  8 12  2  0  0  0  0
  8 25  1  0  0  0  0
  9 26  1  0  0  0  0
 10 26  2  0  0  0  0
 11 27  1  0  0  0  0
 12 28  1  0  0  0  0
 13 14  2  0  0  0  0
 13 29  1  0  0  0  0
 14 30  1  0  0  0  0
 15 23  1  0  0  0  0
 15 25  2  0  0  0  0
 16 24  1  0  0  0  0
 16 27  2  0  0  0  0
 17 30  2  0  0  0  0
 17 31  1  0  0  0  0
 18 32  1  0  0  0  0
 19 32  1  0  0  0  0
 19 33  2  0  0  0  0
 19 34  1  0  0  0  0
 20 22  2  0  0  0  0
 20 39  1  0  0  0  0
 21 24  2  0  0  0  0
 21 40  1  0  0  0  0
 22 51  1  0  0  0  0
 23 28  2  0  0  0  0
 23 50  1  0  0  0  0
 24 41  1  0  0  0  0
 25 70  1  0  0  0  0
 26 79  1  0  0  0  0
 27 80  1  0  0  0  0
 28 81  1  0  0  0  0
 29 31  2  0  0  0  0
 29 79  1  0  0  0  0
 30 82  1  0  0  0  0
 31 83  1  0  0  0  0
 32 64  2  0  0  0  0
 33 65  1  0  0  0  0
 33 68  1  0  0  0  0
 34 69  1  0  0  0  0
 34 74  2  0  0  0  0
 35 52  1  0  0  0  0
 35 71  1  0  0  0  0
 35 75  2  0  0  0  0
 36 61  1  0  0  0  0
 36 66  1  0  0  0  0
 36 76  2  0  0  0  0
 37 62  1  0  0  0  0
 37 72  1  0  0  0  0
 37 77  2  0  0  0  0
 38 67  1  0  0  0  0
 38 70  1  0  0  0  0
 38 78  2  0  0  0  0
 39 42  1  0  0  0  0
 40 52  1  0  0  0  0
 41 66  1  0  0  0  0
 42 46  1  0  0  0  0
 43 47  1  0  0  0  0
 43 48  1  0  0  0  0
 44 45  1  0  0  0  0
 44 50  1  0  0  0  0
 45 50  1  0  0  0  0
 46 51  1  0  0  0  0
 47 53  1  0  0  0  0
 48 67  1  0  0  0  0
 49 53  1  0  0  0  0
 49 67  1  0  0  0  0
 51 71  1  0  0  0  0
 52 66  1  0  0  0  0
 53 65  1  0  0  0  0
 54 62  1  0  0  0  0
 55 63  1  0  0  0  0
 56 63  1  0  0  0  0
 57 63  1  0  0  0  0
 58 73  1  0  0  0  0
 59 60  1  0  0  0  0
 59 80  1  0  0  0  0
 60 81  1  0  0  0  0
 61 63  1  0  0  0  0
 61 72  1  0  0  0  0
 62 73  1  0  0  0  0
 64 65  1  0  0  0  0
M  CHG  1  73   1
M  ISO  4  38 100  59 101  70 100  80 101
M  END
> <Batch ID>
0136

> <Smiles>
CNC(C)C(=O)NC(C(=O)N1Cc2cc([101O:1][101CH2:1]COc3ccc([100NH:0][100C:0](=O)N4CCCC(n5nc(-c6ccc(Oc7ccc(F)cc7F)cc6)c(C(N)=O)c5N)C4)cc3C3CC3)ccc2CC1C(=O)NC1CCCc2ccccc21)C(C)(C)C

> <Shape>
0.319

> <Color>
0.185

> <Negative vol penalty>
0.000

$$$$

  -OEChem-04052321023D

 88 97  0     1  0  0  0  0  0999 V2000
  -21.7388  -12.6669   19.4068 C   0  0  0  0  0  0  0  0  0  0  0  0
  -21.7183  -14.0156   19.7471 C   0  0  0  0  0  0  0  0  0  0  0  0
  -28.7517  -26.7047   16.7506 C   0  0  0  0  0  0  0  0  0  0  0  0
  -29.7826  -26.2969   18.8973 C   0  0  0  0  0  0  0  0  0  0  0  0
  -22.8789  -11.9037   19.6552 C   0  0  0  0  0  0  0  0  0  0  0  0
  -22.8375  -14.6017   20.3372 C   0  0  0  0  0  0  0  0  0  0  0  0
  -23.9706  -19.1015   18.3091 C   0  0  0  0  0  0  0  0  0  0  0  0
  -21.3650  -25.6812   24.2220 C   0  0  0  0  0  0  0  0  0  0  0  0
  -29.9935  -26.5730   16.1292 C   0  0  0  0  0  0  0  0  0  0  0  0
  -31.0244  -26.1652   18.2759 C   0  0  0  0  0  0  0  0  0  0  0  0
  -23.1985  -20.1920   18.7074 C   0  0  0  0  0  0  0  0  0  0  0  0
  -21.3468  -24.5103   23.4642 C   0  0  0  0  0  0  0  0  0  0  0  0
  -32.9516  -26.7002   14.0181 C   0  0  0  0  0  0  0  0  0  0  0  0
  -33.2964  -27.6417   13.0483 C   0  0  0  0  0  0  0  0  0  0  0  0
  -24.9399  -20.8581   20.2382 C   0  0  0  0  0  0  0  0  0  0  0  0
  -20.3908  -25.7264   21.6083 C   0  0  0  0  0  0  0  0  0  0  0  0
  -33.1043  -29.4034   14.6904 C   0  0  0  0  0  0  0  0  0  0  0  0
  -28.6462  -26.5667   18.1347 C   0  0  0  0  0  0  0  0  0  0  0  0
  -26.4282  -25.6829   19.0329 C   0  0  0  0  0  0  0  0  0  0  0  0
  -24.0161  -12.4830   20.2397 C   0  0  0  0  0  0  0  0  0  0  0  0
  -25.2306  -18.8746   18.8813 C   0  0  0  0  0  0  0  0  0  0  0  0
  -23.9934  -13.8453   20.5949 C   0  0  0  0  0  0  0  0  0  0  0  0
  -25.7270  -19.7655   19.8436 C   0  0  0  0  0  0  0  0  0  0  0  0
  -20.8961  -26.8747   23.6730 C   0  0  0  0  0  0  0  0  0  0  0  0
  -20.4090  -26.8973   22.3661 C   0  0  0  0  0  0  0  0  0  0  0  0
  -31.1299  -26.3032   16.8918 C   0  0  0  0  0  0  0  0  0  0  0  0
  -23.6819  -21.0688   19.6742 C   0  0  0  0  0  0  0  0  0  0  0  0
  -20.8597  -24.5329   22.1573 C   0  0  0  0  0  0  0  0  0  0  0  0
  -32.6831  -27.1104   15.3240 C   0  0  0  0  0  0  0  0  0  0  0  0
  -33.3727  -28.9933   13.3845 C   0  0  0  0  0  0  0  0  0  0  0  0
  -32.7595  -28.4620   15.6602 C   0  0  0  0  0  0  0  0  0  0  0  0
  -27.3638  -26.7032   18.7772 C   0  0  0  0  0  0  0  0  0  0  0  0
  -25.3847  -26.3222   19.6564 C   0  0  0  0  0  0  0  0  0  0  0  0
  -26.4963  -24.2823   18.7337 C   0  0  0  0  0  0  0  0  0  0  0  0
  -26.5230  -16.5386   20.6065 C   0  0  0  0  0  0  0  0  0  0  0  0
  -29.2317  -18.2814   20.2217 C   0  0  0  0  0  0  0  0  0  0  0  0
  -30.6592  -21.3202   19.6095 C   0  0  0  0  0  0  0  0  0  0  0  0
  -23.4605  -29.9677   23.4186 C   0  0  0  0  0  0  0  0  0  0  0  0
  -25.2082  -11.6067   20.5322 C   0  0  0  0  0  0  0  0  0  0  0  0
  -26.0624  -17.7088   18.4214 C   0  0  0  0  0  0  0  0  0  0  0  0
  -27.0820  -19.5777   20.4739 C   0  0  0  0  0  0  0  0  0  0  0  0
  -26.4859  -12.3918   20.8176 C   0  0  0  0  0  0  0  0  0  0  0  0
  -24.4221  -31.2536   20.2407 C   0  0  0  0  0  0  0  0  0  0  0  0
  -26.2071  -13.5277   21.7968 C   0  0  0  0  0  0  0  0  0  0  0  0
  -25.2008  -30.1029   19.6009 C   0  0  0  0  0  0  0  0  0  0  0  0
  -24.6708  -31.3357   21.7452 C   0  0  0  0  0  0  0  0  0  0  0  0
  -25.2042  -28.9316   21.8429 C   0  0  0  0  0  0  0  0  0  0  0  0
  -17.7538  -29.4404   21.4434 C   0  0  0  0  0  0  0  0  0  0  0  0
  -25.1966  -14.5230   21.2139 C   0  0  1  0  0  0  0  0  0  0  0  0
  -27.1129  -17.2845   19.4431 C   0  0  1  0  0  0  0  0  0  0  0  0
  -24.9418  -28.7738   20.3355 C   0  0  2  0  0  0  0  0  0  0  0  0
  -17.3930  -27.9822   21.6465 C   0  0  2  0  0  0  0  0  0  0  0  0
  -16.3775  -26.2286   23.1102 C   0  0  0  0  0  0  0  0  0  0  0  0
  -32.8952  -22.4386   19.3938 C   0  0  0  0  0  0  0  0  0  0  0  0
  -29.5511  -18.2227   23.2556 C   0  0  0  0  0  0  0  0  0  0  0  0
  -31.1979  -20.0971   23.0487 C   0  0  0  0  0  0  0  0  0  0  0  0
  -31.6751  -17.8959   21.9765 C   0  0  0  0  0  0  0  0  0  0  0  0
  -30.1241  -22.1087   16.8076 C   0  0  0  0  0  0  0  0  0  0  0  0
  -20.9257  -28.1153   24.5037 C   0  0  0  0  0  0  0  0  0  0  0  0
  -19.9008  -28.1630   21.7577 C   0  0  0  0  0  0  0  0  0  0  0  0
  -16.2381  -27.6031   22.5042 C   0  0  0  0  0  0  0  0  0  0  0  0
  -22.3211  -28.4652   25.0321 C   0  0  0  0  0  0  0  0  0  0  0  0
  -21.6555  -22.2921   19.4434 C   0  0  0  0  0  0  0  0  0  1  0  0
  -20.9808  -23.5286   20.0050 C   0  0  0  0  0  0  0  0  0  0  0  0
  -29.9011  -19.3992   20.9842 C   0  0  1  0  0  0  0  0  0  0  0  0
  -31.7631  -21.7408   18.6562 C   0  0  2  0  0  0  0  0  0  0  0  0
  -30.5549  -18.9065   22.3060 C   0  0  0  0  0  0  0  0  0  0  0  0
  -26.9510  -27.8999   19.2033 N   0  0  0  0  0  0  0  0  0  0  0  0
  -25.7445  -27.6356   19.7330 N   0  0  0  0  0  0  0  0  0  0  0  0
  -27.8549  -18.4195   19.9956 N   0  0  0  0  0  0  0  0  0  0  0  0
  -24.4056  -30.0435   22.3821 N   0  0  0  0  0  0  0  0  0  0  0  0
  -24.2036  -25.8836   20.1411 N   0  0  0  0  0  0  0  0  0  0  0  0
  -27.6405  -23.7915   18.0901 N   0  0  0  0  0  0  0  0  0  0  0  0
  -25.8400  -15.3911   20.2511 N   0  0  0  0  0  0  0  0  0  0  0  0
  -30.8335  -20.0266   20.0539 N   0  0  0  0  0  0  0  0  0  0  0  0
  -23.2649  -28.7044   23.9631 N   0  0  0  0  0  0  0  0  0  0  0  0
  -18.5608  -28.5642   22.2660 N   0  3  1  0  0  0  0  0  0  0  0  0
  -31.2287  -22.6740   17.6244 N   0  3  0  0  0  0  0  0  0  0  0  0
  -25.5629  -23.4924   19.0135 O   0  0  0  0  0  0  0  0  0  0  0  0
  -26.6774  -16.9713   21.7425 O   0  0  0  0  0  0  0  0  0  0  0  0
  -29.9069  -17.3244   19.8346 O   0  0  0  0  0  0  0  0  0  0  0  0
  -29.7366  -22.0659   19.9310 O   0  0  0  0  0  0  0  0  0  0  0  0
  -22.8335  -30.9519   23.8247 O   0  0  0  0  0  0  0  0  0  0  0  0
  -32.3418  -26.1744   16.2858 O   0  0  0  0  0  0  0  0  0  0  0  0
  -22.9301  -22.1336   20.0652 O   0  0  0  0  0  0  0  0  0  1  0  0
  -20.8413  -23.3828   21.4130 O   0  0  0  0  0  0  0  0  0  0  0  0
  -33.7053  -29.8970   12.4535 F   0  0  0  0  0  0  0  0  0  0  0  0
  -32.5038  -28.8619   16.9133 F   0  0  0  0  0  0  0  0  0  0  0  0
  1  2  1  0  0  0  0
  1  5  2  0  0  0  0
  2  6  2  0  0  0  0
  3  9  2  0  0  0  0
  3 18  1  0  0  0  0
  4 10  1  0  0  0  0
  4 18  2  0  0  0  0
  5 20  1  0  0  0  0
  6 22  1  0  0  0  0
  7 11  2  0  0  0  0
  7 21  1  0  0  0  0
  8 12  2  0  0  0  0
  8 24  1  0  0  0  0
  9 26  1  0  0  0  0
 10 26  2  0  0  0  0
 11 27  1  0  0  0  0
 12 28  1  0  0  0  0
 13 14  2  0  0  0  0
 13 29  1  0  0  0  0
 14 30  1  0  0  0  0
 15 23  1  0  0  0  0
 15 27  2  0  0  0  0
 16 25  1  0  0  0  0
 16 28  2  0  0  0  0
 17 30  2  0  0  0  0
 17 31  1  0  0  0  0
 18 32  1  0  0  0  0
 19 32  1  0  0  0  0
 19 33  2  0  0  0  0
 19 34  1  0  0  0  0
 20 22  2  0  0  0  0
 20 39  1  0  0  0  0
 21 23  2  0  0  0  0
 21 40  1  0  0  0  0
 22 49  1  0  0  0  0
 23 41  1  0  0  0  0
 24 25  2  0  0  0  0
 24 59  1  0  0  0  0
 25 60  1  0  0  0  0
 26 84  1  0  0  0  0
 27 85  1  0  0  0  0
 28 86  1  0  0  0  0
 29 31  2  0  0  0  0
 29 84  1  0  0  0  0
 30 87  1  0  0  0  0
 31 88  1  0  0  0  0
 32 68  2  0  0  0  0
 33 69  1  0  0  0  0
 33 72  1  0  0  0  0
 34 73  1  0  0  0  0
 34 79  2  0  0  0  0
 35 50  1  0  0  0  0
 35 74  1  0  0  0  0
 35 80  2  0  0  0  0
 36 65  1  0  0  0  0
 36 70  1  0  0  0  0
 36 81  2  0  0  0  0
 37 66  1  0  0  0  0
 37 75  1  0  0  0  0
 37 82  2  0  0  0  0
 38 71  1  0  0  0  0
 38 76  1  0  0  0  0
 38 83  2  0  0  0  0
 39 42  1  0  0  0  0
 40 50  1  0  0  0  0
 41 70  1  0  0  0  0
 42 44  1  0  0  0  0
 43 45  1  0  0  0  0
 43 46  1  0  0  0  0
 44 49  1  0  0  0  0
 45 51  1  0  0  0  0
 46 71  1  0  0  0  0
 47 51  1  0  0  0  0
 47 71  1  0  0  0  0
 48 52  1  0  0  0  0
 48 77  1  0  0  0  0
 49 74  1  0  0  0  0
 50 70  1  0  0  0  0
 51 69  1  0  0  0  0
 52 61  1  0  0  0  0
 52 77  1  0  0  0  0
 53 61  1  0  0  0  0
 54 66  1  0  0  0  0
 55 67  1  0  0  0  0
 56 67  1  0  0  0  0
 57 67  1  0  0  0  0
 58 78  1  0  0  0  0
 59 62  1  0  0  0  0
 60 77  1  0  0  0  0
 62 76  1  0  0  0  0
 63 64  1  0  0  0  0
 63 85  1  0  0  0  0
 64 86  1  0  0  0  0
 65 67  1  0  0  0  0
 65 75  1  0  0  0  0
 66 78  1  0  0  0  0
 68 69  1  0  0  0  0
M  CHG  2  77   1  78   1
M  ISO  4  38 100  63 101  76 100  85 101
M  END
> <Batch ID>
0136

> <Smiles>
CCC1CN1Cc1cc(OC[101CH2:1][101O:1]c2ccc3c(c2)CN(C(=O)C(NC(=O)C(C)NC)C(C)(C)C)C(C(=O)NC2CCCc4ccccc42)C3)ccc1CC[100NH:0][100C:0](=O)N1CCCC(n2nc(-c3ccc(Oc4ccc(F)cc4F)cc3)c(C(N)=O)c2N)C1

> <Shape>
0.224

> <Color>
0.067

> <Negative vol penalty>
0.000

$$$$

  -OEChem-04052321023D

 84 92  0     1  0  0  0  0  0999 V2000
  -22.3194   -8.1323   20.5662 C   0  0  0  0  0  0  0  0  0  0  0  0
  -22.2186   -9.5109   20.4088 C   0  0  0  0  0  0  0  0  0  0  0  0
  -25.7087  -31.2879   22.2056 C   0  0  0  0  0  0  0  0  0  0  0  0
  -27.2172  -31.8498   20.4040 C   0  0  0  0  0  0  0  0  0  0  0  0
  -23.3439   -7.5938   21.3436 C   0  0  0  0  0  0  0  0  0  0  0  0
  -23.1416  -10.3518   21.0295 C   0  0  0  0  0  0  0  0  0  0  0  0
  -24.8163  -14.0075   17.9512 C   0  0  0  0  0  0  0  0  0  0  0  0
  -25.7116  -32.6187   22.6231 C   0  0  0  0  0  0  0  0  0  0  0  0
  -27.2200  -33.1807   20.8215 C   0  0  0  0  0  0  0  0  0  0  0  0
  -23.9741  -15.0986   17.7414 C   0  0  0  0  0  0  0  0  0  0  0  0
  -24.2450  -35.5221   21.6999 C   0  0  0  0  0  0  0  0  0  0  0  0
  -23.0186  -36.1027   22.0233 C   0  0  0  0  0  0  0  0  0  0  0  0
  -24.6566  -19.8656   20.5455 C   0  0  0  0  0  0  0  0  0  0  0  0
  -25.2427  -16.3784   19.3452 C   0  0  0  0  0  0  0  0  0  0  0  0
  -24.7126  -19.8205   18.1415 C   0  0  0  0  0  0  0  0  0  0  0  0
  -23.8077  -36.5190   24.2685 C   0  0  0  0  0  0  0  0  0  0  0  0
  -25.6075  -20.8721   20.4951 C   0  0  0  0  0  0  0  0  0  0  0  0
  -26.4616  -30.9033   21.0960 C   0  0  0  0  0  0  0  0  0  0  0  0
  -25.5817  -28.9284   19.7421 C   0  0  0  0  0  0  0  0  0  0  0  0
  -24.2856   -8.4280   21.9663 C   0  0  0  0  0  0  0  0  0  0  0  0
  -25.8731  -14.0902   18.8691 C   0  0  0  0  0  0  0  0  0  0  0  0
  -24.1788   -9.8239   21.8170 C   0  0  0  0  0  0  0  0  0  0  0  0
  -26.0984  -15.2877   19.5629 C   0  0  0  0  0  0  0  0  0  0  0  0
  -24.2059  -19.3351   19.3419 C   0  0  0  0  0  0  0  0  0  0  0  0
  -26.4672  -33.5652   21.9311 C   0  0  0  0  0  0  0  0  0  0  0  0
  -24.1855  -16.2834   18.4406 C   0  0  0  0  0  0  0  0  0  0  0  0
  -25.2527  -35.4399   22.6608 C   0  0  0  0  0  0  0  0  0  0  0  0
  -22.8000  -36.6012   23.3075 C   0  0  0  0  0  0  0  0  0  0  0  0
  -25.0341  -35.9384   23.9451 C   0  0  0  0  0  0  0  0  0  0  0  0
  -26.4595  -29.5286   20.6646 C   0  0  0  0  0  0  0  0  0  0  0  0
  -25.6609  -20.8292   18.1987 C   0  0  0  0  0  0  0  0  0  0  0  0
  -25.9935  -27.6197   19.6776 C   0  0  0  0  0  0  0  0  0  0  0  0
  -24.4915  -29.5026   19.0090 C   0  0  0  0  0  0  0  0  0  0  0  0
  -26.6329  -12.5741   21.5576 C   0  0  0  0  0  0  0  0  0  0  0  0
  -29.3587  -14.3149   21.3099 C   0  0  0  0  0  0  0  0  0  0  0  0
  -30.9228  -17.0902   20.0859 C   0  0  0  0  0  0  0  0  0  0  0  0
  -30.0541  -23.8070   19.3317 C   0  0  0  0  0  0  0  0  0  0  0  0
  -25.3474   -7.8021   22.8355 C   0  0  0  0  0  0  0  0  0  0  0  0
  -26.7888  -12.9130   19.0643 C   0  0  0  0  0  0  0  0  0  0  0  0
  -27.2313  -15.4345   20.5444 C   0  0  0  0  0  0  0  0  0  0  0  0
  -26.5069   -8.7428   23.1535 C   0  0  0  0  0  0  0  0  0  0  0  0
  -29.2483  -25.0462   22.5708 C   0  0  0  0  0  0  0  0  0  0  0  0
  -25.9831  -10.1104   23.5801 C   0  0  0  0  0  0  0  0  0  0  0  0
  -28.3842  -26.2762   22.2873 C   0  0  0  0  0  0  0  0  0  0  0  0
  -30.3626  -24.8893   21.5385 C   0  0  0  0  0  0  0  0  0  0  0  0
  -29.0458  -26.1113   19.8513 C   0  0  0  0  0  0  0  0  0  0  0  0
  -25.1756  -10.7676   22.4542 C   0  0  1  0  0  0  0  0  0  0  0  0
  -27.5209  -12.9408   20.4024 C   0  0  1  0  0  0  0  0  0  0  0  0
  -27.8741  -26.2802   20.8336 C   0  0  2  0  0  0  0  0  0  0  0  0
  -21.7490  -18.7860   19.2702 C   0  0  0  0  0  0  0  0  0  0  0  0
  -33.1430  -18.2599   20.0827 C   0  0  0  0  0  0  0  0  0  0  0  0
  -28.8466  -15.2895   24.1556 C   0  0  0  0  0  0  0  0  0  0  0  0
  -30.5031  -17.1228   23.7515 C   0  0  0  0  0  0  0  0  0  0  0  0
  -31.2344  -14.7398   23.6551 C   0  0  0  0  0  0  0  0  0  0  0  0
  -31.1706  -16.8600   17.1457 C   0  0  0  0  0  0  0  0  0  0  0  0
  -27.1479  -22.3473   16.8910 C   0  0  0  0  0  0  0  0  0  0  0  0
  -29.6464  -22.8464   17.0800 C   0  0  0  0  0  0  0  0  0  0  0  0
  -23.1681  -18.2362   19.3390 C   0  0  1  0  0  0  0  0  0  1  0  0
  -29.8063  -15.6744   21.7899 C   0  0  1  0  0  0  0  0  0  0  0  0
  -32.2465  -17.2642   19.3633 C   0  0  2  0  0  0  0  0  0  0  0  0
  -28.5483  -21.7847   17.1387 C   0  0  2  0  0  0  0  0  0  0  0  0
  -30.0750  -15.7036   23.3210 C   0  0  0  0  0  0  0  0  0  0  0  0
  -26.1231  -21.3693   19.3485 N   0  0  0  0  0  0  0  0  0  0  0  0
  -27.3609  -28.6715   21.1513 N   0  0  0  0  0  0  0  0  0  0  0  0
  -27.0516  -27.5194   20.5324 N   0  0  0  0  0  0  0  0  0  0  0  0
  -28.0953  -14.2533   20.7052 N   0  0  0  0  0  0  0  0  0  0  0  0
  -29.8120  -24.8993   20.1810 N   0  0  0  0  0  0  0  0  0  0  0  0
  -25.5501  -26.5565   18.9738 N   0  0  0  0  0  0  0  0  0  0  0  0
  -24.2045  -30.8620   19.1937 N   0  0  0  0  0  0  0  0  0  0  0  0
  -26.1691  -21.3123   16.9672 N   0  0  0  0  0  0  0  0  0  0  0  0
  -26.0620  -11.3201   21.4525 N   0  0  0  0  0  0  0  0  0  0  0  0
  -30.9603  -16.0359   20.9737 N   0  0  0  0  0  0  0  0  0  0  0  0
  -29.4909  -23.8940   18.0645 N   0  0  0  0  0  0  0  0  0  0  0  0
  -28.8364  -20.7356   16.1172 N   0  3  0  0  0  0  0  0  0  0  0  0
  -32.0181  -17.7551   17.9749 N   0  3  0  0  0  0  0  0  0  0  0  0
  -23.7822  -28.8263   18.2260 O   0  0  0  0  0  0  0  0  0  0  0  0
  -26.4782  -13.3694   22.4770 O   0  0  0  0  0  0  0  0  0  0  0  0
  -30.1057  -13.3447   21.4595 O   0  0  0  0  0  0  0  0  0  0  0  0
  -29.9538  -17.8192   19.8856 O   0  0  0  0  0  0  0  0  0  0  0  0
  -30.7183  -22.8245   19.6790 O   0  0  0  0  0  0  0  0  0  0  0  0
  -26.4700  -34.8640   22.3380 O   0  0  0  0  0  0  0  0  0  0  0  0
  -23.3647  -17.3497   18.2382 O   0  0  0  0  0  0  0  0  0  1  0  0
  -21.6228  -37.1600   23.6175 F   0  0  0  0  0  0  0  0  0  0  0  0
  -25.9989  -35.8634   24.8722 F   0  0  0  0  0  0  0  0  0  0  0  0
  1  2  1  0  0  0  0
  1  5  2  0  0  0  0
  2  6  2  0  0  0  0
  3  8  2  0  0  0  0
  3 18  1  0  0  0  0
  4  9  1  0  0  0  0
  4 18  2  0  0  0  0
  5 20  1  0  0  0  0
  6 22  1  0  0  0  0
  7 10  2  0  0  0  0
  7 21  1  0  0  0  0
  8 25  1  0  0  0  0
  9 25  2  0  0  0  0
 10 26  1  0  0  0  0
 11 12  2  0  0  0  0
 11 27  1  0  0  0  0
 12 28  1  0  0  0  0
 13 17  2  0  0  0  0
 13 24  1  0  0  0  0
 14 23  1  0  0  0  0
 14 26  2  0  0  0  0
 15 24  2  0  0  0  0
 15 31  1  0  0  0  0
 16 28  2  0  0  0  0
 16 29  1  0  0  0  0
 17 63  1  0  0  0  0
 18 30  1  0  0  0  0
 19 30  1  0  0  0  0
 19 32  2  0  0  0  0
 19 33  1  0  0  0  0
 20 22  2  0  0  0  0
 20 38  1  0  0  0  0
 21 23  2  0  0  0  0
 21 39  1  0  0  0  0
 22 47  1  0  0  0  0
 23 40  1  0  0  0  0
 24 58  1  0  0  0  0
 25 81  1  0  0  0  0
 26 82  1  0  0  0  0
 27 29  2  0  0  0  0
 27 81  1  0  0  0  0
 28 83  1  0  0  0  0
 29 84  1  0  0  0  0
 30 64  2  0  0  0  0
 31 63  2  0  0  0  0
 31 70  1  0  0  0  0
 32 65  1  0  0  0  0
 32 68  1  0  0  0  0
 33 69  1  0  0  0  0
 33 76  2  0  0  0  0
 34 48  1  0  0  0  0
 34 71  1  0  0  0  0
 34 77  2  0  0  0  0
 35 59  1  0  0  0  0
 35 66  1  0  0  0  0
 35 78  2  0  0  0  0
 36 60  1  0  0  0  0
 36 72  1  0  0  0  0
 36 79  2  0  0  0  0
 37 67  1  0  0  0  0
 37 73  1  0  0  0  0
 37 80  2  0  0  0  0
 38 41  1  0  0  0  0
 39 48  1  0  0  0  0
 40 66  1  0  0  0  0
 41 43  1  0  0  0  0
 42 44  1  0  0  0  0
 42 45  1  0  0  0  0
 43 47  1  0  0  0  0
 44 49  1  0  0  0  0
 45 67  1  0  0  0  0
 46 49  1  0  0  0  0
 46 67  1  0  0  0  0
 47 71  1  0  0  0  0
 48 66  1  0  0  0  0
 49 65  1  0  0  0  0
 50 58  1  0  0  0  0
 51 60  1  0  0  0  0
 52 62  1  0  0  0  0
 53 62  1  0  0  0  0
 54 62  1  0  0  0  0
 55 75  1  0  0  0  0
 56 61  1  0  0  0  0
 56 70  1  0  0  0  0
 57 61  1  0  0  0  0
 57 73  1  0  0  0  0
 58 82  1  0  0  0  0
 59 62  1  0  0  0  0
 59 72  1  0  0  0  0
 60 75  1  0  0  0  0
 61 74  1  0  0  0  0
 64 65  1  0  0  0  0
M  CHG  2  74   1  75   1
M  ISO  4  37 100  58 101  73 100  82 101
M  END
> <Batch ID>
0136

> <Smiles>
CNC(C)C(=O)NC(C(=O)N1Cc2cc([101O:1][101CH:1](C)c3ccnc(NCC(N)C[100NH:0][100C:0](=O)N4CCCC(n5nc(-c6ccc(Oc7ccc(F)cc7F)cc6)c(C(N)=O)c5N)C4)c3)ccc2CC1C(=O)NC1CCCc2ccccc21)C(C)(C)C

> <Shape>
0.263

> <Color>
0.065

> <Negative vol penalty>
0.000

$$$$

  -OEChem-04052321022D

  0  0  0     0  0  0  0  0  0999 V2000
M  END
$$$$

  -OEChem-04052321023D

 89 99  0     1  0  0  0  0  0999 V2000
  -20.8447   -6.4504   23.8993 C   0  0  0  0  0  0  0  0  0  0  0  0
  -21.8711   -6.4744   22.9605 C   0  0  0  0  0  0  0  0  0  0  0  0
  -27.8529  -29.8776   21.7588 C   0  0  0  0  0  0  0  0  0  0  0  0
  -26.2263  -29.2118   20.1010 C   0  0  0  0  0  0  0  0  0  0  0  0
  -19.8749   -7.4521   23.8960 C   0  0  0  0  0  0  0  0  0  0  0  0
  -21.9276   -7.4997   22.0171 C   0  0  0  0  0  0  0  0  0  0  0  0
  -27.6887  -11.7995   21.5545 C   0  0  0  0  0  0  0  0  0  0  0  0
  -26.9014  -30.6999   22.3621 C   0  0  0  0  0  0  0  0  0  0  0  0
  -25.2748  -30.0341   20.7044 C   0  0  0  0  0  0  0  0  0  0  0  0
  -28.8415  -12.5291   21.2634 C   0  0  0  0  0  0  0  0  0  0  0  0
  -25.5414  -33.7467   21.8220 C   0  0  0  0  0  0  0  0  0  0  0  0
  -25.9370  -35.0328   22.1896 C   0  0  0  0  0  0  0  0  0  0  0  0
  -27.6510  -13.7452   19.5453 C   0  0  0  0  0  0  0  0  0  0  0  0
  -31.2468  -22.2144   23.8353 C   0  0  0  0  0  0  0  0  0  0  0  0
  -32.1601  -20.1418   24.6443 C   0  0  0  0  0  0  0  0  0  0  0  0
  -25.4005  -34.5396   24.4930 C   0  0  0  0  0  0  0  0  0  0  0  0
  -27.5153  -29.1336   20.6282 C   0  0  0  0  0  0  0  0  0  0  0  0
  -29.7325  -28.6759   19.4524 C   0  0  0  0  0  0  0  0  0  0  0  0
  -19.9251   -8.4955   22.9582 C   0  0  0  0  0  0  0  0  0  0  0  0
  -26.5070  -12.0510   20.8517 C   0  0  0  0  0  0  0  0  0  0  0  0
  -20.9569   -8.5156   22.0004 C   0  0  0  0  0  0  0  0  0  0  0  0
  -26.4898  -13.0262   19.8410 C   0  0  0  0  0  0  0  0  0  0  0  0
  -31.9312  -21.5027   24.8142 C   0  0  0  0  0  0  0  0  0  0  0  0
  -25.6124  -30.7782   21.8350 C   0  0  0  0  0  0  0  0  0  0  0  0
  -28.8228  -13.4993   20.2611 C   0  0  0  0  0  0  0  0  0  0  0  0
  -25.0752  -32.8571   22.7900 C   0  0  0  0  0  0  0  0  0  0  0  0
  -25.8666  -35.4292   23.5250 C   0  0  0  0  0  0  0  0  0  0  0  0
  -25.0048  -33.2535   24.1255 C   0  0  0  0  0  0  0  0  0  0  0  0
  -28.4979  -28.2844   20.0041 C   0  0  0  0  0  0  0  0  0  0  0  0
  -30.8155  -21.5242   22.7139 C   0  0  0  0  0  0  0  0  0  0  0  0
  -31.6877  -19.5444   23.4868 C   0  0  0  0  0  0  0  0  0  0  0  0
  -30.2879  -27.5078   18.9902 C   0  0  0  0  0  0  0  0  0  0  0  0
  -30.3243  -29.9789   19.3655 C   0  0  0  0  0  0  0  0  0  0  0  0
  -22.8849  -11.2066   20.3589 C   0  0  0  0  0  0  0  0  0  0  0  0
  -23.1268  -14.2567   20.1380 C   0  0  0  0  0  0  0  0  0  0  0  0
  -23.7530  -17.6011   20.3832 C   0  0  0  0  0  0  0  0  0  0  0  0
  -29.5983  -21.7736   20.5224 C   0  0  0  0  0  0  0  0  0  0  0  0
  -18.8277   -9.5301   22.9639 C   0  0  0  0  0  0  0  0  0  0  0  0
  -25.2579  -11.2467   21.0896 C   0  0  0  0  0  0  0  0  0  0  0  0
  -25.2053  -13.2387   19.0874 C   0  0  0  0  0  0  0  0  0  0  0  0
  -19.1711  -10.7867   22.1681 C   0  0  0  0  0  0  0  0  0  0  0  0
  -29.0721  -23.1949   17.3006 C   0  0  0  0  0  0  0  0  0  0  0  0
  -19.7624  -10.4148   20.8121 C   0  0  0  0  0  0  0  0  0  0  0  0
  -28.9835  -24.6975   17.5773 C   0  0  0  0  0  0  0  0  0  0  0  0
  -32.3225  -16.1472   22.0573 C   0  0  0  0  0  0  0  0  0  0  0  0
  -30.0024  -17.0878   22.3069 C   0  0  0  0  0  0  0  0  0  0  0  0
  -32.8504  -23.6692   25.9090 C   0  0  0  0  0  0  0  0  0  0  0  0
  -28.4260  -22.3739   18.4152 C   0  0  0  0  0  0  0  0  0  0  0  0
  -31.7862  -15.2527   20.9365 C   0  0  0  0  0  0  0  0  0  0  0  0
  -29.5565  -16.1568   21.1762 C   0  0  0  0  0  0  0  0  0  0  0  0
  -28.8208  -24.1784   20.0453 C   0  0  0  0  0  0  0  0  0  0  0  0
  -33.5853  -23.9553   27.2025 C   0  0  0  0  0  0  0  0  0  0  0  0
  -33.6859  -21.5820   26.6612 C   0  0  0  0  0  0  0  0  0  0  0  0
  -32.4251  -22.2065   26.0596 C   0  0  2  0  0  0  0  0  0  0  0  0
  -21.0663   -9.6248   20.9767 C   0  0  1  0  0  0  0  0  0  0  0  0
  -23.9688  -12.0726   20.9302 C   0  0  1  0  0  0  0  0  0  0  0  0
  -29.5156  -25.0442   18.9817 C   0  0  2  0  0  0  0  0  0  0  0  0
  -31.4903  -17.4269   22.1801 C   0  0  0  0  0  0  0  0  0  0  0  0
  -22.6143  -19.8333   20.2495 C   0  0  0  0  0  0  0  0  0  0  0  0
  -23.0327  -14.0225   17.0982 C   0  0  0  0  0  0  0  0  0  0  0  0
  -22.8165  -16.5142   16.9839 C   0  0  0  0  0  0  0  0  0  0  0  0
  -21.0542  -15.1618   18.1189 C   0  0  0  0  0  0  0  0  0  0  0  0
  -24.4692  -18.2637   23.1773 C   0  0  0  0  0  0  0  0  0  0  0  0
  -23.3055  -15.4491   19.2328 C   0  0  1  0  0  0  0  0  0  0  0  0
  -23.0576  -18.7017   21.1638 C   0  0  2  0  0  0  0  0  0  0  0  0
  -22.5743  -15.2749   17.8718 C   0  0  0  0  0  0  0  0  0  0  0  0
  -28.2813  -26.9703   19.9025 N   0  0  0  0  0  0  0  0  0  0  0  0
  -31.0190  -20.2028   22.5137 N   0  0  0  0  0  0  0  0  0  0  0  0
  -29.3872  -26.5260   19.2815 N   0  0  0  0  0  0  0  0  0  0  0  0
  -24.0676  -13.2264   20.0202 N   0  0  0  0  0  0  0  0  0  0  0  0
  -28.9822  -22.7536   19.7158 N   0  0  0  0  0  0  0  0  0  0  0  0
  -30.3735  -14.9407   21.1670 N   0  0  0  0  0  0  0  0  0  1  0  0
  -31.4539  -27.2351   18.3669 N   0  0  0  0  0  0  0  0  0  0  0  0
  -31.1433  -30.4122   20.4170 N   0  0  0  0  0  0  0  0  0  0  0  0
  -30.1191  -22.2581   21.7218 N   0  0  0  0  0  0  0  0  0  0  0  0
  -31.9230  -18.1888   23.3315 N   0  0  0  0  0  0  0  0  0  0  0  0
  -22.1580  -10.5149   21.3090 N   0  0  0  0  0  0  0  0  0  0  0  0
  -22.8720  -16.6122   19.9994 N   0  0  0  0  0  0  0  0  0  0  0  0
  -34.2713  -22.6633   27.5234 N   0  3  0  0  0  0  0  0  0  0  0  0
  -23.9742  -19.2632   22.1960 N   0  3  0  0  0  0  0  0  0  0  0  0
  -30.1193  -30.7431   18.3920 O   0  0  0  0  0  0  0  0  0  0  0  0
  -22.7181  -11.1689   19.1455 O   0  0  0  0  0  0  0  0  0  0  0  0
  -22.1764  -14.2340   20.9251 O   0  0  0  0  0  0  0  0  0  0  0  0
  -24.9567  -17.6187   20.1353 O   0  0  0  0  0  0  0  0  0  0  0  0
  -29.6836  -20.5966   20.1625 O   0  0  0  0  0  0  0  0  0  0  0  0
  -24.6836  -31.5803   22.4236 O   0  0  0  0  0  0  0  0  0  0  0  0
  -29.9506  -14.2111   19.9851 O   0  0  0  0  0  0  0  0  0  1  0  0
  -26.2479  -36.6638   23.8781 F   0  0  0  0  0  0  0  0  0  0  0  0
  -24.5590  -32.4028   25.0600 F   0  0  0  0  0  0  0  0  0  0  0  0
  1  2  1  0  0  0  0
  1  5  2  0  0  0  0
  2  6  2  0  0  0  0
  3  8  2  0  0  0  0
  3 17  1  0  0  0  0
  4  9  1  0  0  0  0
  4 17  2  0  0  0  0
  5 19  1  0  0  0  0
  6 21  1  0  0  0  0
  7 10  2  0  0  0  0
  7 20  1  0  0  0  0
  8 24  1  0  0  0  0
  9 24  2  0  0  0  0
 10 25  1  0  0  0  0
 11 12  2  0  0  0  0
 11 26  1  0  0  0  0
 12 27  1  0  0  0  0
 13 22  1  0  0  0  0
 13 25  2  0  0  0  0
 14 23  1  0  0  0  0
 14 30  2  0  0  0  0
 15 23  2  0  0  0  0
 15 31  1  0  0  0  0
 16 27  2  0  0  0  0
 16 28  1  0  0  0  0
 17 29  1  0  0  0  0
 18 29  1  0  0  0  0
 18 32  2  0  0  0  0
 18 33  1  0  0  0  0
 19 21  2  0  0  0  0
 19 38  1  0  0  0  0
 20 22  2  0  0  0  0
 20 39  1  0  0  0  0
 21 55  1  0  0  0  0
 22 40  1  0  0  0  0
 23 54  1  0  0  0  0
 24 86  1  0  0  0  0
 25 87  1  0  0  0  0
 26 28  2  0  0  0  0
 26 86  1  0  0  0  0
 27 88  1  0  0  0  0
 28 89  1  0  0  0  0
 29 67  2  0  0  0  0
 30 68  1  0  0  0  0
 30 75  1  0  0  0  0
 31 68  2  0  0  0  0
 31 76  1  0  0  0  0
 32 69  1  0  0  0  0
 32 73  1  0  0  0  0
 33 74  1  0  0  0  0
 33 81  2  0  0  0  0
 34 56  1  0  0  0  0
 34 77  1  0  0  0  0
 34 82  2  0  0  0  0
 35 64  1  0  0  0  0
 35 70  1  0  0  0  0
 35 83  2  0  0  0  0
 36 65  1  0  0  0  0
 36 78  1  0  0  0  0
 36 84  2  0  0  0  0
 37 71  1  0  0  0  0
 37 75  1  0  0  0  0
 37 85  2  0  0  0  0
 38 41  1  0  0  0  0
 39 56  1  0  0  0  0
 40 70  1  0  0  0  0
 41 43  1  0  0  0  0
 42 44  1  0  0  0  0
 42 48  1  0  0  0  0
 43 55  1  0  0  0  0
 44 57  1  0  0  0  0
 45 49  1  0  0  0  0
 45 58  1  0  0  0  0
 46 50  1  0  0  0  0
 46 58  1  0  0  0  0
 47 52  1  0  0  0  0
 47 54  1  0  0  0  0
 48 71  1  0  0  0  0
 49 72  1  0  0  0  0
 50 72  1  0  0  0  0
 51 57  1  0  0  0  0
 51 71  1  0  0  0  0
 52 79  1  0  0  0  0
 53 54  1  0  0  0  0
 53 79  1  0  0  0  0
 55 77  1  0  0  0  0
 56 70  1  0  0  0  0
 57 69  1  0  0  0  0
 58 76  1  0  0  0  0
 59 65  1  0  0  0  0
 60 66  1  0  0  0  0
 61 66  1  0  0  0  0
 62 66  1  0  0  0  0
 63 80  1  0  0  0  0
 64 66  1  0  0  0  0
 64 78  1  0  0  0  0
 65 80  1  0  0  0  0
 67 69  1  0  0  0  0
 72 87  1  0  0  0  0
M  CHG  2  79   1  80   1
M  ISO  4  37 100  72 101  75 100  87 101
M  END
> <Batch ID>
0136

> <Smiles>
CNC(C)C(=O)NC(C(=O)N1Cc2cc([101O:1][101N:1]3CCC(Nc4cc(C5CCNC5)cc([100NH:0][100C:0](=O)N5CCCC(n6nc(-c7ccc(Oc8ccc(F)cc8F)cc7)c(C(N)=O)c6N)C5)n4)CC3)ccc2CC1C(=O)NC1CCCc2ccccc21)C(C)(C)C

> <Shape>
0.287

> <Color>
0.064

> <Negative vol penalty>
0.000

$$$$

  -OEChem-04052321023D

 87 96  0     1  0  0  0  0  0999 V2000
  -19.2791  -27.8478   16.3205 C   0  0  0  0  0  0  0  0  0  0  0  0
  -20.6667  -27.8754   16.4167 C   0  0  0  0  0  0  0  0  0  0  0  0
  -23.2613   -9.9907   21.9290 C   0  0  0  0  0  0  0  0  0  0  0  0
  -24.7928   -8.2596   21.2254 C   0  0  0  0  0  0  0  0  0  0  0  0
  -18.5282  -28.9301   16.7774 C   0  0  0  0  0  0  0  0  0  0  0  0
  -21.3043  -28.9858   16.9690 C   0  0  0  0  0  0  0  0  0  0  0  0
  -24.9634  -27.7042   20.2268 C   0  0  0  0  0  0  0  0  0  0  0  0
  -22.2035   -9.0845   21.8560 C   0  0  0  0  0  0  0  0  0  0  0  0
  -23.7349   -7.3534   21.1525 C   0  0  0  0  0  0  0  0  0  0  0  0
  -26.1782  -27.2843   19.6869 C   0  0  0  0  0  0  0  0  0  0  0  0
  -21.9048   -5.4860   23.2935 C   0  0  0  0  0  0  0  0  0  0  0  0
  -22.1007   -4.2181   23.8408 C   0  0  0  0  0  0  0  0  0  0  0  0
  -32.3843  -24.9376   19.7920 C   0  0  0  0  0  0  0  0  0  0  0  0
  -27.1045  -29.4764   20.0815 C   0  0  0  0  0  0  0  0  0  0  0  0
  -21.6906   -3.2214   21.6785 C   0  0  0  0  0  0  0  0  0  0  0  0
  -32.9080  -23.7285   19.3634 C   0  0  0  0  0  0  0  0  0  0  0  0
  -24.5560   -9.5782   21.6137 C   0  0  0  0  0  0  0  0  0  0  0  0
  -26.4645  -10.7815   22.8044 C   0  0  0  0  0  0  0  0  0  0  0  0
  -19.1563  -30.0502   17.3443 C   0  0  0  0  0  0  0  0  0  0  0  0
  -24.8064  -29.0189   20.6890 C   0  0  0  0  0  0  0  0  0  0  0  0
  -20.5611  -30.0846   17.4327 C   0  0  0  0  0  0  0  0  0  0  0  0
  -25.8874  -29.9098   20.6293 C   0  0  0  0  0  0  0  0  0  0  0  0
  -30.1945  -23.9977   19.4661 C   0  0  0  0  0  0  0  0  0  0  0  0
  -22.4403   -7.7658   21.4678 C   0  0  0  0  0  0  0  0  0  0  0  0
  -27.2481  -28.1712   19.6115 C   0  0  0  0  0  0  0  0  0  0  0  0
  -21.6017   -5.6217   21.9387 C   0  0  0  0  0  0  0  0  0  0  0  0
  -31.0007  -25.0666   19.8415 C   0  0  0  0  0  0  0  0  0  0  0  0
  -21.9936   -3.0858   23.0333 C   0  0  0  0  0  0  0  0  0  0  0  0
  -21.4947   -4.4894   21.1312 C   0  0  0  0  0  0  0  0  0  0  0  0
  -25.6491  -10.5140   21.6883 C   0  0  0  0  0  0  0  0  0  0  0  0
  -30.8162  -22.8308   19.0518 C   0  0  0  0  0  0  0  0  0  0  0  0
  -27.3456  -11.7387   22.3643 C   0  0  0  0  0  0  0  0  0  0  0  0
  -26.4286  -10.2152   24.1211 C   0  0  0  0  0  0  0  0  0  0  0  0
  -22.9464  -31.4699   19.8911 C   0  0  0  0  0  0  0  0  0  0  0  0
  -24.2977  -32.8416   22.5017 C   0  0  0  0  0  0  0  0  0  0  0  0
  -26.9270  -32.9693   24.6736 C   0  0  0  0  0  0  0  0  0  0  0  0
  -27.9735  -16.5936   19.6573 C   0  0  0  0  0  0  0  0  0  0  0  0
  -18.3052  -31.2162   17.7811 C   0  0  0  0  0  0  0  0  0  0  0  0
  -23.4976  -29.4485   21.2932 C   0  0  0  0  0  0  0  0  0  0  0  0
  -25.7766  -31.3259   21.1303 C   0  0  0  0  0  0  0  0  0  0  0  0
  -19.0365  -32.1952   18.6959 C   0  0  0  0  0  0  0  0  0  0  0  0
  -28.2976  -13.4562   17.7062 C   0  0  0  0  0  0  0  0  0  0  0  0
  -20.4174  -32.5201   18.1352 C   0  0  0  0  0  0  0  0  0  0  0  0
  -27.6604  -12.4434   18.6587 C   0  0  0  0  0  0  0  0  0  0  0  0
  -30.9378  -17.9824   17.9851 C   0  0  0  0  0  0  0  0  0  0  0  0
  -27.6633  -14.8313   17.8693 C   0  0  0  0  0  0  0  0  0  0  0  0
  -29.9156  -16.8501   18.0030 C   0  0  0  0  0  0  0  0  0  0  0  0
  -27.0766  -14.3633   20.2174 C   0  0  0  0  0  0  0  0  0  0  0  0
  -28.9772  -18.7851   19.0774 C   0  0  0  0  0  0  0  0  0  0  0  0
  -21.2879  -31.2606   18.0482 C   0  0  1  0  0  0  0  0  0  0  0  0
  -23.2924  -30.9599   21.2614 C   0  0  1  0  0  0  0  0  0  0  0  0
  -27.6845  -12.9534   20.1112 C   0  0  1  0  0  0  0  0  0  0  0  0
  -30.0430  -19.2089   18.0835 C   0  0  1  0  0  0  0  0  0  0  0  0
  -28.7083  -24.1133   19.5100 C   0  0  0  0  0  0  0  0  0  0  0  0
  -27.7640  -34.2194   26.6821 C   0  0  0  0  0  0  0  0  0  0  0  0
  -25.0573  -35.1965   20.7164 C   0  0  0  0  0  0  0  0  0  0  0  0
  -26.6666  -35.9307   22.4881 C   0  0  0  0  0  0  0  0  0  0  0  0
  -24.2242  -35.8345   22.9865 C   0  0  0  0  0  0  0  0  0  0  0  0
  -26.9474  -30.5197   26.3342 C   0  0  0  0  0  0  0  0  0  0  0  0
  -29.9981  -21.6448   18.6336 C   0  0  0  0  0  0  0  0  0  0  0  0
  -29.6165  -28.3860   19.5868 C   0  0  0  0  0  0  0  0  0  1  0  0
  -30.7734  -27.4094   19.5016 C   0  0  0  0  0  0  0  0  0  0  0  0
  -25.5273  -33.6806   22.7528 C   0  0  1  0  0  0  0  0  0  0  0  0
  -26.9796  -33.0130   26.1901 C   0  0  2  0  0  0  0  0  0  0  0  0
  -25.3707  -35.1345   22.2246 C   0  0  0  0  0  0  0  0  0  0  0  0
  -32.1569  -22.6680   18.9907 N   0  0  0  0  0  0  0  0  0  0  0  0
  -25.9825  -11.2426   20.6197 N   0  0  0  0  0  0  0  0  0  0  0  0
  -27.0171  -11.9774   21.0622 N   0  0  0  0  0  0  0  0  0  0  0  0
  -24.4747  -31.7003   21.7067 N   0  0  0  0  0  0  0  0  0  0  0  0
  -27.7130  -15.2758   19.2650 N   0  0  0  0  0  0  0  0  0  0  0  0
  -28.8327  -17.3468   18.8585 N   0  0  0  0  0  0  0  0  0  0  0  0
  -28.3616  -12.3912   22.9679 N   0  0  0  0  0  0  0  0  0  0  0  0
  -25.4591   -9.2434   24.4043 N   0  0  0  0  0  0  0  0  0  0  0  0
  -21.8023  -30.9106   19.3549 N   0  0  0  0  0  0  0  0  0  0  0  0
  -25.7977  -33.5905   24.1836 N   0  0  0  0  0  0  0  0  0  0  0  0
  -30.7919  -20.3822   18.5626 N   0  3  0  0  0  0  0  0  0  0  0  0
  -27.6291  -31.7815   26.7216 N   0  3  0  0  0  0  0  0  0  0  0  0
  -27.2219  -10.5726   25.0247 O   0  0  0  0  0  0  0  0  0  0  0  0
  -23.6636  -32.3099   19.3602 O   0  0  0  0  0  0  0  0  0  0  0  0
  -23.2213  -33.1822   22.9986 O   0  0  0  0  0  0  0  0  0  0  0  0
  -27.8021  -32.4405   23.9917 O   0  0  0  0  0  0  0  0  0  0  0  0
  -27.4987  -17.0613   20.7007 O   0  0  0  0  0  0  0  0  0  0  0  0
  -21.4083   -6.8812   21.3967 O   0  0  0  0  0  0  0  0  0  0  0  0
  -28.4429  -27.7613   19.0808 O   0  0  0  0  0  0  0  0  0  1  0  0
  -30.4546  -26.2424   20.2577 O   0  0  0  0  0  0  0  0  0  0  0  0
  -22.1833   -1.8683   23.5587 F   0  0  0  0  0  0  0  0  0  0  0  0
  -21.2050   -4.6135   19.8287 F   0  0  0  0  0  0  0  0  0  0  0  0
  1  2  1  0  0  0  0
  1  5  2  0  0  0  0
  2  6  2  0  0  0  0
  3  8  2  0  0  0  0
  3 17  1  0  0  0  0
  4  9  1  0  0  0  0
  4 17  2  0  0  0  0
  5 19  1  0  0  0  0
  6 21  1  0  0  0  0
  7 10  2  0  0  0  0
  7 20  1  0  0  0  0
  8 24  1  0  0  0  0
  9 24  2  0  0  0  0
 10 25  1  0  0  0  0
 11 12  2  0  0  0  0
 11 26  1  0  0  0  0
 12 28  1  0  0  0  0
 13 16  2  0  0  0  0
 13 27  1  0  0  0  0
 14 22  1  0  0  0  0
 14 25  2  0  0  0  0
 15 28  2  0  0  0  0
 15 29  1  0  0  0  0
 16 66  1  0  0  0  0
 17 30  1  0  0  0  0
 18 30  1  0  0  0  0
 18 32  2  0  0  0  0
 18 33  1  0  0  0  0
 19 21  2  0  0  0  0
 19 38  1  0  0  0  0
 20 22  2  0  0  0  0
 20 39  1  0  0  0  0
 21 50  1  0  0  0  0
 22 40  1  0  0  0  0
 23 27  2  0  0  0  0
 23 31  1  0  0  0  0
 23 54  1  0  0  0  0
 24 83  1  0  0  0  0
 25 84  1  0  0  0  0
 26 29  2  0  0  0  0
 26 83  1  0  0  0  0
 27 85  1  0  0  0  0
 28 86  1  0  0  0  0
 29 87  1  0  0  0  0
 30 67  2  0  0  0  0
 31 60  1  0  0  0  0
 31 66  2  0  0  0  0
 32 68  1  0  0  0  0
 32 72  1  0  0  0  0
 33 73  1  0  0  0  0
 33 78  2  0  0  0  0
 34 51  1  0  0  0  0
 34 74  1  0  0  0  0
 34 79  2  0  0  0  0
 35 63  1  0  0  0  0
 35 69  1  0  0  0  0
 35 80  2  0  0  0  0
 36 64  1  0  0  0  0
 36 75  1  0  0  0  0
 36 81  2  0  0  0  0
 37 70  1  0  0  0  0
 37 71  1  0  0  0  0
 37 82  2  0  0  0  0
 38 41  1  0  0  0  0
 39 51  1  0  0  0  0
 40 69  1  0  0  0  0
 41 43  1  0  0  0  0
 42 44  1  0  0  0  0
 42 46  1  0  0  0  0
 43 50  1  0  0  0  0
 44 52  1  0  0  0  0
 45 47  1  0  0  0  0
 45 53  1  0  0  0  0
 46 70  1  0  0  0  0
 47 71  1  0  0  0  0
 48 52  1  0  0  0  0
 48 70  1  0  0  0  0
 49 53  1  0  0  0  0
 49 71  1  0  0  0  0
 50 74  1  0  0  0  0
 51 69  1  0  0  0  0
 52 68  1  0  0  0  0
 53 76  1  0  0  0  0
 55 64  1  0  0  0  0
 56 65  1  0  0  0  0
 57 65  1  0  0  0  0
 58 65  1  0  0  0  0
 59 77  1  0  0  0  0
 60 76  1  0  0  0  0
 61 62  1  0  0  0  0
 61 84  1  0  0  0  0
 62 85  1  0  0  0  0
 63 65  1  0  0  0  0
 63 75  1  0  0  0  0
 64 77  1  0  0  0  0
 67 68  1  0  0  0  0
M  CHG  2  76   1  77   1
M  ISO  4  37 100  61 101  71 100  84 101
M  END
> <Batch ID>
0136

> <Smiles>
CNC(C)C(=O)NC(C(=O)N1Cc2cc([101O:1][101CH2:1]COc3ccnc(CNC4CC[100N:0]([100C:0](=O)N5CCCC(n6nc(-c7ccc(Oc8ccc(F)cc8F)cc7)c(C(N)=O)c6N)C5)C4)c3C)ccc2CC1C(=O)NC1CCCc2ccccc21)C(C)(C)C

> <Shape>
0.304

> <Color>
0.109

> <Negative vol penalty>
0.000

$$$$

  -OEChem-04052321023D

 87 95  0     1  0  0  0  0  0999 V2000
  -21.8807  -12.2316   19.6315 C   0  0  0  0  0  0  0  0  0  0  0  0
  -21.7406  -13.5769   19.9571 C   0  0  0  0  0  0  0  0  0  0  0  0
  -28.1252  -28.9928   21.4055 C   0  0  0  0  0  0  0  0  0  0  0  0
  -26.8858  -27.0377   20.7138 C   0  0  0  0  0  0  0  0  0  0  0  0
  -23.1083  -11.5959   19.8127 C   0  0  0  0  0  0  0  0  0  0  0  0
  -22.8279  -14.2871   20.4651 C   0  0  0  0  0  0  0  0  0  0  0  0
  -23.3485  -18.8425   18.3152 C   0  0  0  0  0  0  0  0  0  0  0  0
  -19.9436  -24.4859   23.0196 C   0  0  0  0  0  0  0  0  0  0  0  0
  -20.9405  -23.5809   22.6550 C   0  0  0  0  0  0  0  0  0  0  0  0
  -29.2858  -28.2245   21.4975 C   0  0  0  0  0  0  0  0  0  0  0  0
  -28.0464  -26.2694   20.8057 C   0  0  0  0  0  0  0  0  0  0  0  0
  -22.4935  -19.8538   18.7512 C   0  0  0  0  0  0  0  0  0  0  0  0
  -31.6017  -26.9482   19.3903 C   0  0  0  0  0  0  0  0  0  0  0  0
  -32.7730  -27.4755   18.8465 C   0  0  0  0  0  0  0  0  0  0  0  0
  -24.2504  -20.7254   20.1557 C   0  0  0  0  0  0  0  0  0  0  0  0
  -33.8248  -27.3803   21.0194 C   0  0  0  0  0  0  0  0  0  0  0  0
  -26.9252  -28.3993   21.0137 C   0  0  0  0  0  0  0  0  0  0  0  0
  -25.2549  -29.8899   19.7906 C   0  0  0  0  0  0  0  0  0  0  0  0
  -24.2138  -12.3011   20.3140 C   0  0  0  0  0  0  0  0  0  0  0  0
  -24.6596  -18.7585   18.8053 C   0  0  0  0  0  0  0  0  0  0  0  0
  -24.0711  -13.6599   20.6543 C   0  0  0  0  0  0  0  0  0  0  0  0
  -25.1209  -19.7136   19.7224 C   0  0  0  0  0  0  0  0  0  0  0  0
  -19.5733  -25.5060   22.1432 C   0  0  0  0  0  0  0  0  0  0  0  0
  -21.5671  -23.6961   21.4142 C   0  0  0  0  0  0  0  0  0  0  0  0
  -20.2000  -25.6212   20.9024 C   0  0  0  0  0  0  0  0  0  0  0  0
  -21.1969  -24.7162   20.5378 C   0  0  0  0  0  0  0  0  0  0  0  0
  -29.2464  -26.8629   21.1976 C   0  0  0  0  0  0  0  0  0  0  0  0
  -22.9435  -20.7937   19.6738 C   0  0  0  0  0  0  0  0  0  0  0  0
  -31.5420  -26.6371   20.7487 C   0  0  0  0  0  0  0  0  0  0  0  0
  -33.8845  -27.6915   19.6610 C   0  0  0  0  0  0  0  0  0  0  0  0
  -32.6535  -26.8531   21.5633 C   0  0  0  0  0  0  0  0  0  0  0  0
  -25.7259  -29.1923   20.9190 C   0  0  0  0  0  0  0  0  0  0  0  0
  -24.0883  -30.4789   20.2133 C   0  0  0  0  0  0  0  0  0  0  0  0
  -25.8212  -29.9960   18.4777 C   0  0  0  0  0  0  0  0  0  0  0  0
  -26.2991  -16.6016   20.4678 C   0  0  0  0  0  0  0  0  0  0  0  0
  -28.7791  -18.6095   19.8848 C   0  0  0  0  0  0  0  0  0  0  0  0
  -29.8369  -21.7687   19.1448 C   0  0  0  0  0  0  0  0  0  0  0  0
  -20.1803  -29.1368   24.5466 C   0  0  0  0  0  0  0  0  0  0  0  0
  -25.5078  -11.5591   20.5370 C   0  0  0  0  0  0  0  0  0  0  0  0
  -25.5779  -17.6774   18.3048 C   0  0  0  0  0  0  0  0  0  0  0  0
  -26.5259  -19.6795   20.2638 C   0  0  0  0  0  0  0  0  0  0  0  0
  -26.7117  -12.4781   20.7282 C   0  0  0  0  0  0  0  0  0  0  0  0
  -21.9686  -32.1895   24.1467 C   0  0  0  0  0  0  0  0  0  0  0  0
  -26.3789  -13.5965   21.7107 C   0  0  0  0  0  0  0  0  0  0  0  0
  -23.0918  -31.8304   23.1724 C   0  0  0  0  0  0  0  0  0  0  0  0
  -21.6640  -31.0402   25.1051 C   0  0  0  0  0  0  0  0  0  0  0  0
  -22.5021  -29.3896   23.4782 C   0  0  0  0  0  0  0  0  0  0  0  0
  -25.2338  -14.4704   21.1846 C   0  0  1  0  0  0  0  0  0  0  0  0
  -26.7309  -17.3835   19.2595 C   0  0  1  0  0  0  0  0  0  0  0  0
  -22.8071  -30.4971   22.4551 C   0  0  2  0  0  0  0  0  0  0  0  0
  -31.9244  -23.1097   18.7688 C   0  0  0  0  0  0  0  0  0  0  0  0
  -17.3793  -25.9475   19.7446 C   0  0  0  0  0  0  0  0  0  0  0  0
  -18.3611  -27.4982   18.0431 C   0  0  0  0  0  0  0  0  0  0  0  0
  -29.2982  -18.6400   22.8914 C   0  0  0  0  0  0  0  0  0  0  0  0
  -30.7222  -20.6715   22.5545 C   0  0  0  0  0  0  0  0  0  0  0  0
  -31.3578  -18.5126   21.4784 C   0  0  0  0  0  0  0  0  0  0  0  0
  -29.0420  -22.4459   16.3756 C   0  0  0  0  0  0  0  0  0  0  0  0
  -18.5026  -26.4615   22.5581 C   0  0  0  0  0  0  0  0  0  0  0  0
  -21.8712  -24.8392   19.2080 C   0  0  0  0  0  0  0  0  0  0  0  0
  -19.7999  -26.7153   19.9641 C   0  0  0  0  0  0  0  0  0  0  0  0
  -22.6377  -22.7107   21.0477 C   0  0  0  0  0  0  0  0  0  1  0  0
  -18.8040  -27.1837   23.8756 C   0  0  0  0  0  0  0  0  0  0  0  0
  -23.2796  -25.4265   19.2767 C   0  0  0  0  0  0  0  0  0  0  0  0
  -29.3752  -19.8048   20.5885 C   0  0  1  0  0  0  0  0  0  0  0  0
  -30.8266  -22.2845   18.1158 C   0  0  2  0  0  0  0  0  0  0  0  0
  -18.6560  -26.3360   18.9946 C   0  0  0  0  0  0  0  0  0  0  0  0
  -30.1612  -19.4070   21.8696 C   0  0  0  0  0  0  0  0  0  0  0  0
  -24.9241  -29.3249   21.9790 N   0  0  0  0  0  0  0  0  0  0  0  0
  -23.9375  -30.1128   21.5185 N   0  0  0  0  0  0  0  0  0  0  0  0
  -27.3837  -18.5995   19.7487 N   0  0  0  0  0  0  0  0  0  0  0  0
  -21.4015  -29.8057   24.3616 N   0  0  0  0  0  0  0  0  0  0  0  0
  -23.1871  -31.2691   19.5922 N   0  0  0  0  0  0  0  0  0  0  0  0
  -27.0244  -29.3277   18.2131 N   0  0  0  0  0  0  0  0  0  0  0  0
  -25.7190  -15.3830   20.1715 N   0  0  0  0  0  0  0  0  0  0  0  0
  -30.1745  -20.5087   19.5915 N   0  0  0  0  0  0  0  0  0  0  0  0
  -20.0097  -27.9782   23.7988 N   0  0  0  0  0  0  0  0  0  0  0  0
  -23.8916  -25.4568   17.9254 N   0  3  0  0  0  0  0  0  0  0  0  0
  -30.1316  -23.1380   17.1111 N   0  3  0  0  0  0  0  0  0  0  0  0
  -25.2849  -30.6770   17.5710 O   0  0  0  0  0  0  0  0  0  0  0  0
  -26.4802  -17.0688   21.5861 O   0  0  0  0  0  0  0  0  0  0  0  0
  -29.5248  -17.7211   19.4648 O   0  0  0  0  0  0  0  0  0  0  0  0
  -28.8638  -22.4202   19.5181 O   0  0  0  0  0  0  0  0  0  0  0  0
  -19.3046  -29.5450   25.3170 O   0  0  0  0  0  0  0  0  0  0  0  0
  -30.3787  -26.1129   21.2870 O   0  0  0  0  0  0  0  0  0  0  0  0
  -22.1108  -21.7814   20.1015 O   0  0  0  0  0  0  0  0  0  1  0  0
  -35.0097  -28.1964   19.1383 F   0  0  0  0  0  0  0  0  0  0  0  0
  -32.6026  -26.5549   22.8688 F   0  0  0  0  0  0  0  0  0  0  0  0
  1  2  1  0  0  0  0
  1  5  2  0  0  0  0
  2  6  2  0  0  0  0
  3 10  2  0  0  0  0
  3 17  1  0  0  0  0
  4 11  1  0  0  0  0
  4 17  2  0  0  0  0
  5 19  1  0  0  0  0
  6 21  1  0  0  0  0
  7 12  2  0  0  0  0
  7 20  1  0  0  0  0
  8  9  2  0  0  0  0
  8 23  1  0  0  0  0
  9 24  1  0  0  0  0
 10 27  1  0  0  0  0
 11 27  2  0  0  0  0
 12 28  1  0  0  0  0
 13 14  2  0  0  0  0
 13 29  1  0  0  0  0
 14 30  1  0  0  0  0
 15 22  1  0  0  0  0
 15 28  2  0  0  0  0
 16 30  2  0  0  0  0
 16 31  1  0  0  0  0
 17 32  1  0  0  0  0
 18 32  1  0  0  0  0
 18 33  2  0  0  0  0
 18 34  1  0  0  0  0
 19 21  2  0  0  0  0
 19 39  1  0  0  0  0
 20 22  2  0  0  0  0
 20 40  1  0  0  0  0
 21 48  1  0  0  0  0
 22 41  1  0  0  0  0
 23 25  2  0  0  0  0
 23 58  1  0  0  0  0
 24 26  2  0  0  0  0
 24 61  1  0  0  0  0
 25 26  1  0  0  0  0
 25 60  1  0  0  0  0
 26 59  1  0  0  0  0
 27 84  1  0  0  0  0
 28 85  1  0  0  0  0
 29 31  2  0  0  0  0
 29 84  1  0  0  0  0
 30 86  1  0  0  0  0
 31 87  1  0  0  0  0
 32 68  2  0  0  0  0
 33 69  1  0  0  0  0
 33 72  1  0  0  0  0
 34 73  1  0  0  0  0
 34 79  2  0  0  0  0
 35 49  1  0  0  0  0
 35 74  1  0  0  0  0
 35 80  2  0  0  0  0
 36 64  1  0  0  0  0
 36 70  1  0  0  0  0
 36 81  2  0  0  0  0
 37 65  1  0  0  0  0
 37 75  1  0  0  0  0
 37 82  2  0  0  0  0
 38 71  1  0  0  0  0
 38 76  1  0  0  0  0
 38 83  2  0  0  0  0
 39 42  1  0  0  0  0
 40 49  1  0  0  0  0
 41 70  1  0  0  0  0
 42 44  1  0  0  0  0
 43 45  1  0  0  0  0
 43 46  1  0  0  0  0
 44 48  1  0  0  0  0
 45 50  1  0  0  0  0
 46 71  1  0  0  0  0
 47 50  1  0  0  0  0
 47 71  1  0  0  0  0
 48 74  1  0  0  0  0
 49 70  1  0  0  0  0
 50 69  1  0  0  0  0
 51 65  1  0  0  0  0
 52 66  1  0  0  0  0
 53 66  1  0  0  0  0
 54 67  1  0  0  0  0
 55 67  1  0  0  0  0
 56 67  1  0  0  0  0
 57 78  1  0  0  0  0
 58 62  1  0  0  0  0
 59 63  1  0  0  0  0
 60 66  1  0  0  0  0
 61 85  1  0  0  0  0
 62 76  1  0  0  0  0
 63 77  1  0  0  0  0
 64 67  1  0  0  0  0
 64 75  1  0  0  0  0
 65 78  1  0  0  0  0
 68 69  1  0  0  0  0
M  CHG  2  77   1  78   1
M  ISO  4  38 100  61 101  76 100  85 101
M  END
> <Batch ID>
0136

> <Smiles>
CNC(C)C(=O)NC(C(=O)N1Cc2cc([101O:1][101CH2:1]c3ccc(CC[100NH:0][100C:0](=O)N4CCCC(n5nc(-c6ccc(Oc7ccc(F)cc7F)cc6)c(C(N)=O)c5N)C4)c(CC(C)C)c3CCN)ccc2CC1C(=O)NC1CCCc2ccccc21)C(C)(C)C

> <Shape>
0.242

> <Color>
0.065

> <Negative vol penalty>
0.000

$$$$

  -OEChem-04052321023D

 89 97  0     1  0  0  0  0  0999 V2000
  -21.8061  -26.2778   11.2758 C   0  0  0  0  0  0  0  0  0  0  0  0
  -22.0435  -25.2733   12.2085 C   0  0  0  0  0  0  0  0  0  0  0  0
  -31.0328  -21.7827   21.1922 C   0  0  0  0  0  0  0  0  0  0  0  0
  -28.6691  -21.7039   20.6983 C   0  0  0  0  0  0  0  0  0  0  0  0
  -22.1517  -27.5962   11.5697 C   0  0  0  0  0  0  0  0  0  0  0  0
  -22.6278  -25.5864   13.4353 C   0  0  0  0  0  0  0  0  0  0  0  0
  -21.4768  -22.9486   18.8411 C   0  0  0  0  0  0  0  0  0  0  0  0
  -31.1071  -23.0585   20.6332 C   0  0  0  0  0  0  0  0  0  0  0  0
  -28.7434  -22.9797   20.1394 C   0  0  0  0  0  0  0  0  0  0  0  0
  -22.1396  -21.9548   19.5600 C   0  0  0  0  0  0  0  0  0  0  0  0
  -29.7618  -24.3697   17.2305 C   0  0  0  0  0  0  0  0  0  0  0  0
  -29.1180  -24.5816   16.0114 C   0  0  0  0  0  0  0  0  0  0  0  0
  -23.2853  -23.6509   20.8367 C   0  0  0  0  0  0  0  0  0  0  0  0
  -27.7381  -26.2800   17.0353 C   0  0  0  0  0  0  0  0  0  0  0  0
  -29.8138  -21.1054   21.2247 C   0  0  0  0  0  0  0  0  0  0  0  0
  -30.0457  -19.4188   23.1246 C   0  0  0  0  0  0  0  0  0  0  0  0
  -22.7316  -27.9271   12.8045 C   0  0  0  0  0  0  0  0  0  0  0  0
  -21.7217  -24.3034   19.1077 C   0  0  0  0  0  0  0  0  0  0  0  0
  -22.9827  -26.9102   13.7455 C   0  0  0  0  0  0  0  0  0  0  0  0
  -22.6223  -24.6599   20.1216 C   0  0  0  0  0  0  0  0  0  0  0  0
  -29.9624  -23.6570   20.1068 C   0  0  0  0  0  0  0  0  0  0  0  0
  -23.0462  -22.3058   20.5559 C   0  0  0  0  0  0  0  0  0  0  0  0
  -29.3937  -25.1130   18.3521 C   0  0  0  0  0  0  0  0  0  0  0  0
  -28.1062  -25.5368   15.9138 C   0  0  0  0  0  0  0  0  0  0  0  0
  -28.3819  -26.0681   18.2545 C   0  0  0  0  0  0  0  0  0  0  0  0
  -29.7366  -19.7873   21.8015 C   0  0  0  0  0  0  0  0  0  0  0  0
  -29.8103  -18.0664   23.1683 C   0  0  0  0  0  0  0  0  0  0  0  0
  -30.5045  -20.2269   24.2165 C   0  0  0  0  0  0  0  0  0  0  0  0
  -22.8832  -26.7443   17.4354 C   0  0  0  0  0  0  0  0  0  0  0  0
  -22.0498  -28.4412   20.0713 C   0  0  0  0  0  0  0  0  0  0  0  0
  -21.4083  -28.4577   23.4232 C   0  0  0  0  0  0  0  0  0  0  0  0
  -26.2838  -14.4359   19.9692 C   0  0  0  0  0  0  0  0  0  0  0  0
  -23.1316  -29.3590   13.0583 C   0  0  0  0  0  0  0  0  0  0  0  0
  -20.9786  -25.3632   18.3416 C   0  0  0  0  0  0  0  0  0  0  0  0
  -22.9055  -26.0999   20.4604 C   0  0  0  0  0  0  0  0  0  0  0  0
  -23.4029  -29.6641   14.5292 C   0  0  0  0  0  0  0  0  0  0  0  0
  -29.8100  -14.1739   20.3864 C   0  0  0  0  0  0  0  0  0  0  0  0
  -24.2836  -28.5817   15.1453 C   0  0  0  0  0  0  0  0  0  0  0  0
  -30.2189  -15.5495   20.9158 C   0  0  0  0  0  0  0  0  0  0  0  0
  -28.6805  -14.2756   19.3637 C   0  0  0  0  0  0  0  0  0  0  0  0
  -27.9013  -16.3934   20.3544 C   0  0  0  0  0  0  0  0  0  0  0  0
  -24.7058  -16.5302   25.5491 C   0  0  0  0  0  0  0  0  0  0  0  0
  -23.5919  -27.2140   15.0970 C   0  0  1  0  0  0  0  0  0  0  0  0
  -21.6891  -26.7132   18.3469 C   0  0  1  0  0  0  0  0  0  0  0  0
  -28.9993  -16.3376   21.4303 C   0  0  2  0  0  0  0  0  0  0  0  0
  -24.0622  -17.0238   24.2597 C   0  0  1  0  0  0  0  0  0  0  0  0
  -24.7103  -18.3896   24.1258 C   0  0  2  0  0  0  0  0  0  0  0  0
  -24.6623  -18.9165   25.5562 C   0  0  2  0  0  0  0  0  0  0  0  0
  -21.3392  -11.1842   22.6771 C   0  0  0  0  0  0  0  0  0  0  0  0
  -20.7896  -30.0010   25.3028 C   0  0  0  0  0  0  0  0  0  0  0  0
  -25.6181  -20.4546   27.2952 C   0  0  0  0  0  0  0  0  0  0  0  0
  -27.1340  -19.3507   25.6258 C   0  0  0  0  0  0  0  0  0  0  0  0
  -24.9113  -29.4978   20.1424 C   0  0  0  0  0  0  0  0  0  0  0  0
  -24.5055  -30.2377   22.4996 C   0  0  0  0  0  0  0  0  0  0  0  0
  -23.1552  -31.2076   20.6398 C   0  0  0  0  0  0  0  0  0  0  0  0
  -18.8880  -26.9975   23.9468 C   0  0  0  0  0  0  0  0  0  0  0  0
  -22.5104  -12.0954   22.8210 C   0  0  0  0  0  0  0  0  0  0  0  0
  -23.9144  -14.7431   20.6407 C   0  0  0  0  0  0  0  0  0  0  0  0
  -23.4053  -14.9918   23.1637 C   0  0  0  0  0  0  0  0  0  0  0  0
  -24.2547  -19.0539   21.7615 C   0  0  0  0  0  0  0  0  0  0  0  0
  -23.3990  -19.9828   20.9231 C   0  0  0  0  0  0  0  0  0  1  0  0
  -22.7379  -28.8204   21.3604 C   0  0  1  0  0  0  0  0  0  0  0  0
  -20.2702  -29.0588   24.2280 C   0  0  2  0  0  0  0  0  0  0  0  0
  -25.7432  -19.9419   25.8597 C   0  0  0  0  0  0  0  0  0  0  0  0
  -23.6370  -14.0394   21.9770 C   0  0  1  0  0  0  0  0  0  0  0  0
  -23.8238  -29.9137   21.1531 C   0  0  0  0  0  0  0  0  0  0  0  0
  -29.3356  -18.7524   21.0584 N   0  0  0  0  0  0  0  0  0  0  0  0
  -29.3912  -17.7203   21.9174 N   0  0  0  0  0  0  0  0  0  0  0  0
  -24.8120  -17.7202   26.4085 N   0  0  0  0  0  0  0  0  0  0  0  0
  -22.1587  -27.0995   19.6790 N   0  0  0  0  0  0  0  0  0  0  0  0
  -27.5540  -15.0330   19.9144 N   0  0  0  0  0  0  0  0  0  0  0  0
  -29.9231  -17.1513   24.1544 N   0  0  0  0  0  0  0  0  0  0  0  0
  -30.6939  -21.5985   23.9992 N   0  0  0  0  0  0  0  0  0  0  0  0
  -22.5905  -27.1171   16.1374 N   0  0  0  0  0  0  0  0  0  0  0  0
  -21.6804  -29.1977   22.2919 N   0  0  0  0  0  0  0  0  0  0  0  0
  -25.2732  -15.2205   20.5113 N   0  0  0  0  0  0  0  0  0  0  0  0
  -24.3118  -16.1329   23.1380 N   0  0  0  0  0  0  0  0  0  0  0  0
  -22.4760  -13.1541   21.8269 N   0  0  0  0  0  0  0  0  0  0  0  0
  -23.9494  -19.2697   23.1984 N   0  3  0  0  0  0  0  0  0  0  0  0
  -19.4784  -27.9830   24.8887 N   0  3  0  0  0  0  0  0  0  0  0  0
  -30.7552  -19.7441   25.3467 O   0  0  0  0  0  0  0  0  0  0  0  0
  -23.9884  -26.4530   17.8773 O   0  0  0  0  0  0  0  0  0  0  0  0
  -21.4321  -29.3020   19.4395 O   0  0  0  0  0  0  0  0  0  0  0  0
  -21.9996  -27.4362   23.7659 O   0  0  0  0  0  0  0  0  0  0  0  0
  -26.0675  -13.2867   19.5697 O   0  0  0  0  0  0  0  0  0  0  0  0
  -30.0344  -24.9020   19.5615 O   0  0  0  0  0  0  0  0  0  0  0  0
  -23.6950  -21.3378   21.2586 O   0  0  0  0  0  0  0  0  0  1  0  0
  -27.4891  -25.7412   14.7427 F   0  0  0  0  0  0  0  0  0  0  0  0
  -28.0248  -26.7860   19.3282 F   0  0  0  0  0  0  0  0  0  0  0  0
  1  2  1  0  0  0  0
  1  5  2  0  0  0  0
  2  6  2  0  0  0  0
  3  8  2  0  0  0  0
  3 15  1  0  0  0  0
  4  9  1  0  0  0  0
  4 15  2  0  0  0  0
  5 17  1  0  0  0  0
  6 19  1  0  0  0  0
  7 10  2  0  0  0  0
  7 18  1  0  0  0  0
  8 21  1  0  0  0  0
  9 21  2  0  0  0  0
 10 22  1  0  0  0  0
 11 12  2  0  0  0  0
 11 23  1  0  0  0  0
 12 24  1  0  0  0  0
 13 20  1  0  0  0  0
 13 22  2  0  0  0  0
 14 24  2  0  0  0  0
 14 25  1  0  0  0  0
 15 26  1  0  0  0  0
 16 26  1  0  0  0  0
 16 27  2  0  0  0  0
 16 28  1  0  0  0  0
 17 19  2  0  0  0  0
 17 33  1  0  0  0  0
 18 20  2  0  0  0  0
 18 34  1  0  0  0  0
 19 43  1  0  0  0  0
 20 35  1  0  0  0  0
 21 86  1  0  0  0  0
 22 87  1  0  0  0  0
 23 25  2  0  0  0  0
 23 86  1  0  0  0  0
 24 88  1  0  0  0  0
 25 89  1  0  0  0  0
 26 67  2  0  0  0  0
 27 68  1  0  0  0  0
 27 72  1  0  0  0  0
 28 73  1  0  0  0  0
 28 81  2  0  0  0  0
 29 44  1  0  0  0  0
 29 74  1  0  0  0  0
 29 82  2  0  0  0  0
 30 62  1  0  0  0  0
 30 70  1  0  0  0  0
 30 83  2  0  0  0  0
 31 63  1  0  0  0  0
 31 75  1  0  0  0  0
 31 84  2  0  0  0  0
 32 71  1  0  0  0  0
 32 76  1  0  0  0  0
 32 85  2  0  0  0  0
 33 36  1  0  0  0  0
 34 44  1  0  0  0  0
 35 70  1  0  0  0  0
 36 38  1  0  0  0  0
 37 39  1  0  0  0  0
 37 40  1  0  0  0  0
 38 43  1  0  0  0  0
 39 45  1  0  0  0  0
 40 71  1  0  0  0  0
 41 45  1  0  0  0  0
 41 71  1  0  0  0  0
 42 46  1  0  0  0  0
 42 69  1  0  0  0  0
 43 74  1  0  0  0  0
 44 70  1  0  0  0  0
 45 68  1  0  0  0  0
 46 47  1  0  0  0  0
 46 77  1  0  0  0  0
 47 48  1  0  0  0  0
 47 79  1  0  0  0  0
 48 64  1  0  0  0  0
 48 69  1  0  0  0  0
 49 57  1  0  0  0  0
 50 63  1  0  0  0  0
 51 64  1  0  0  0  0
 52 64  1  0  0  0  0
 53 66  1  0  0  0  0
 54 66  1  0  0  0  0
 55 66  1  0  0  0  0
 56 80  1  0  0  0  0
 57 78  1  0  0  0  0
 58 65  1  0  0  0  0
 58 76  1  0  0  0  0
 59 65  1  0  0  0  0
 59 77  1  0  0  0  0
 60 61  1  0  0  0  0
 60 79  1  0  0  0  0
 61 87  1  0  0  0  0
 62 66  1  0  0  0  0
 62 75  1  0  0  0  0
 63 80  1  0  0  0  0
 65 78  1  0  0  0  0
 67 68  1  0  0  0  0
M  CHG  2  79   1  80   1
M  ISO  4  32 100  61 101  76 100  87 101
M  END
> <Batch ID>
0136

> <Smiles>
CCNC(CNC1CNC(C(C)C)C1NC[101CH2:1][101O:1]c1ccc2c(c1)CN(C(=O)C(NC(=O)C(C)NC)C(C)(C)C)C(C(=O)NC1CCCc3ccccc31)C2)C[100NH:0][100C:0](=O)N1CCCC(n2nc(-c3ccc(Oc4ccc(F)cc4F)cc3)c(C(N)=O)c2N)C1

> <Shape>
0.185

> <Color>
0.053

> <Negative vol penalty>
0.000

$$$$

  -OEChem-04052321023D

 86 95  0     1  0  0  0  0  0999 V2000
  -29.5613  -36.3405   19.3169 C   0  0  0  0  0  0  0  0  0  0  0  0
  -29.6524  -34.9537   19.2555 C   0  0  0  0  0  0  0  0  0  0  0  0
  -22.8461  -10.3865   19.9657 C   0  0  0  0  0  0  0  0  0  0  0  0
  -23.9345   -9.6445   21.9910 C   0  0  0  0  0  0  0  0  0  0  0  0
  -28.7303  -36.9422   20.2610 C   0  0  0  0  0  0  0  0  0  0  0  0
  -28.9133  -34.1677   20.1389 C   0  0  0  0  0  0  0  0  0  0  0  0
  -29.7499  -21.0605   20.7103 C   0  0  0  0  0  0  0  0  0  0  0  0
  -26.3980  -28.7044   18.9849 C   0  0  0  0  0  0  0  0  0  0  0  0
  -30.2610  -19.8226   21.1001 C   0  0  0  0  0  0  0  0  0  0  0  0
  -22.0088   -9.2717   20.0072 C   0  0  0  0  0  0  0  0  0  0  0  0
  -23.0972   -8.5297   22.0326 C   0  0  0  0  0  0  0  0  0  0  0  0
  -26.8150  -27.4028   19.2602 C   0  0  0  0  0  0  0  0  0  0  0  0
  -22.8815   -5.5178   20.5117 C   0  0  0  0  0  0  0  0  0  0  0  0
  -23.4634   -4.2802   20.7859 C   0  0  0  0  0  0  0  0  0  0  0  0
  -27.6219  -20.4952   21.7050 C   0  0  0  0  0  0  0  0  0  0  0  0
  -25.4645  -27.3994   21.2590 C   0  0  0  0  0  0  0  0  0  0  0  0
  -22.0712   -4.0605   22.7482 C   0  0  0  0  0  0  0  0  0  0  0  0
  -23.8090  -10.5729   20.9576 C   0  0  0  0  0  0  0  0  0  0  0  0
  -24.4439  -12.9832   21.5005 C   0  0  0  0  0  0  0  0  0  0  0  0
  -28.4304  -21.3968   21.0128 C   0  0  0  0  0  0  0  0  0  0  0  0
  -27.9732  -36.1631   21.1500 C   0  0  0  0  0  0  0  0  0  0  0  0
  -25.5182  -29.3683   19.8518 C   0  0  0  0  0  0  0  0  0  0  0  0
  -28.0723  -34.7596   21.0966 C   0  0  0  0  0  0  0  0  0  0  0  0
  -25.0358  -28.7084   20.9911 C   0  0  0  0  0  0  0  0  0  0  0  0
  -28.1330  -19.2572   22.0948 C   0  0  0  0  0  0  0  0  0  0  0  0
  -29.4525  -18.9209   21.7923 C   0  0  0  0  0  0  0  0  0  0  0  0
  -22.1343   -8.3433   21.0406 C   0  0  0  0  0  0  0  0  0  0  0  0
  -26.3505  -26.7511   20.3989 C   0  0  0  0  0  0  0  0  0  0  0  0
  -21.8945   -6.0269   21.3557 C   0  0  0  0  0  0  0  0  0  0  0  0
  -23.0582   -3.5515   21.9042 C   0  0  0  0  0  0  0  0  0  0  0  0
  -21.4893   -5.2983   22.4739 C   0  0  0  0  0  0  0  0  0  0  0  0
  -24.6746  -11.7240   20.9150 C   0  0  0  0  0  0  0  0  0  0  0  0
  -25.5551  -13.7220   21.1750 C   0  0  0  0  0  0  0  0  0  0  0  0
  -23.3252  -13.4439   22.2699 C   0  0  0  0  0  0  0  0  0  0  0  0
  -25.6821  -31.9940   21.6358 C   0  0  0  0  0  0  0  0  0  0  0  0
  -22.5436  -31.3637   22.1601 C   0  0  0  0  0  0  0  0  0  0  0  0
  -20.0250  -29.0622   22.2418 C   0  0  0  0  0  0  0  0  0  0  0  0
  -31.0897  -14.2168   20.6564 C   0  0  0  0  0  0  0  0  0  0  0  0
  -27.1250  -36.8596   22.1845 C   0  0  0  0  0  0  0  0  0  0  0  0
  -25.0569  -30.7625   19.5266 C   0  0  0  0  0  0  0  0  0  0  0  0
  -24.0741  -29.3698   21.9430 C   0  0  0  0  0  0  0  0  0  0  0  0
  -26.0887  -35.9480   22.8367 C   0  0  0  0  0  0  0  0  0  0  0  0
  -29.3179  -12.7558   17.9356 C   0  0  0  0  0  0  0  0  0  0  0  0
  -27.8574  -22.9600   19.0656 C   0  0  0  0  0  0  0  0  0  0  0  0
  -26.7246  -34.6226   23.2438 C   0  0  0  0  0  0  0  0  0  0  0  0
  -27.9358  -12.4555   18.5182 C   0  0  0  0  0  0  0  0  0  0  0  0
  -27.9350  -24.4742   18.8368 C   0  0  0  0  0  0  0  0  0  0  0  0
  -28.6112  -23.9916   21.0951 C   0  0  0  0  0  0  0  0  0  0  0  0
  -30.4244  -12.5342   18.9645 C   0  0  0  0  0  0  0  0  0  0  0  0
  -28.8581  -12.9560   20.8198 C   0  0  0  0  0  0  0  0  0  0  0  0
  -27.8760  -22.7408   20.5895 C   0  0  2  0  0  0  0  0  0  0  0  0
  -27.2674  -33.8725   22.0214 C   0  0  1  0  0  0  0  0  0  0  0  0
  -24.5616  -31.5285   20.7495 C   0  0  1  0  0  0  0  0  0  0  0  0
  -27.7049  -13.2189   19.8362 C   0  0  2  0  0  0  0  0  0  0  0  0
  -28.0532  -25.1047   20.2190 C   0  0  2  0  0  0  0  0  0  1  0  0
  -27.2451  -18.3106   22.8351 C   0  0  0  0  0  0  0  0  0  0  0  0
  -17.5761  -28.8388   22.7422 C   0  0  0  0  0  0  0  0  0  0  0  0
  -23.1445  -31.4985   25.1485 C   0  0  0  0  0  0  0  0  0  0  0  0
  -20.9566  -30.3563   25.5691 C   0  0  0  0  0  0  0  0  0  0  0  0
  -21.0021  -32.5926   24.4648 C   0  0  0  0  0  0  0  0  0  0  0  0
  -19.4250  -28.1664   19.4856 C   0  0  0  0  0  0  0  0  0  0  0  0
  -31.3317  -17.2825   21.8922 C   0  0  0  0  0  0  0  0  0  0  0  0
  -31.6093  -15.8834   22.4204 C   0  0  0  0  0  0  0  0  0  0  0  0
  -21.7700  -30.5579   23.1756 C   0  0  1  0  0  0  0  0  0  0  0  0
  -18.6210  -29.0845   21.6649 C   0  0  2  0  0  0  0  0  0  0  0  0
  -21.7379  -31.2393   24.5728 C   0  0  0  0  0  0  0  0  0  0  0  0
  -25.8407  -11.6627   20.2665 N   0  0  0  0  0  0  0  0  0  0  0  0
  -26.3526  -12.8927   20.4425 N   0  0  0  0  0  0  0  0  0  0  0  0
  -23.6574  -30.7357   21.5850 N   0  0  0  0  0  0  0  0  0  0  0  0
  -30.1460  -13.2868   20.1900 N   0  0  0  0  0  0  0  0  0  0  0  0
  -25.9180  -14.9936   21.4467 N   0  0  0  0  0  0  0  0  0  0  0  0
  -22.2688  -12.5551   22.5111 N   0  0  0  0  0  0  0  0  0  0  0  0
  -29.9868  -17.6722   22.1789 N   0  0  0  0  0  0  0  0  0  0  0  0
  -26.1874  -33.2352   21.2990 N   0  0  0  0  0  0  0  0  0  0  0  0
  -20.4525  -30.3249   22.5940 N   0  0  0  0  0  0  0  0  0  0  0  0
  -30.7445  -14.8916   21.8210 N   0  0  0  0  0  0  0  0  0  0  0  0
  -18.4739  -28.0331   20.6190 N   0  3  0  0  0  0  0  0  0  0  0  0
  -23.2568  -14.6144   22.7160 O   0  0  0  0  0  0  0  0  0  0  0  0
  -26.0591  -31.2805   22.5581 O   0  0  0  0  0  0  0  0  0  0  0  0
  -22.1689  -32.5056   21.8818 O   0  0  0  0  0  0  0  0  0  0  0  0
  -20.6758  -28.0276   22.3707 O   0  0  0  0  0  0  0  0  0  0  0  0
  -32.1582  -14.4339   20.0749 O   0  0  0  0  0  0  0  0  0  0  0  0
  -21.3173   -7.2554   21.0816 O   0  0  0  0  0  0  0  0  0  0  0  0
  -26.7565  -25.4809   20.6703 O   0  0  0  0  0  0  0  0  0  1  0  0
  -23.6159   -2.3623   22.1666 F   0  0  0  0  0  0  0  0  0  0  0  0
  -20.5408   -5.7816   23.2878 F   0  0  0  0  0  0  0  0  0  0  0  0
  1  2  1  0  0  0  0
  1  5  2  0  0  0  0
  2  6  2  0  0  0  0
  3 10  2  0  0  0  0
  3 18  1  0  0  0  0
  4 11  1  0  0  0  0
  4 18  2  0  0  0  0
  5 21  1  0  0  0  0
  6 23  1  0  0  0  0
  7  9  2  0  0  0  0
  7 20  1  0  0  0  0
  8 12  2  0  0  0  0
  8 22  1  0  0  0  0
  9 26  1  0  0  0  0
 10 27  1  0  0  0  0
 11 27  2  0  0  0  0
 12 28  1  0  0  0  0
 13 14  2  0  0  0  0
 13 29  1  0  0  0  0
 14 30  1  0  0  0  0
 15 20  2  0  0  0  0
 15 25  1  0  0  0  0
 16 24  1  0  0  0  0
 16 28  2  0  0  0  0
 17 30  2  0  0  0  0
 17 31  1  0  0  0  0
 18 32  1  0  0  0  0
 19 32  1  0  0  0  0
 19 33  2  0  0  0  0
 19 34  1  0  0  0  0
 20 51  1  0  0  0  0
 21 23  2  0  0  0  0
 21 39  1  0  0  0  0
 22 24  2  0  0  0  0
 22 40  1  0  0  0  0
 23 52  1  0  0  0  0
 24 41  1  0  0  0  0
 25 26  2  0  0  0  0
 25 56  1  0  0  0  0
 26 73  1  0  0  0  0
 27 83  1  0  0  0  0
 28 84  1  0  0  0  0
 29 31  2  0  0  0  0
 29 83  1  0  0  0  0
 30 85  1  0  0  0  0
 31 86  1  0  0  0  0
 32 67  2  0  0  0  0
 33 68  1  0  0  0  0
 33 71  1  0  0  0  0
 34 72  1  0  0  0  0
 34 78  2  0  0  0  0
 35 53  1  0  0  0  0
 35 74  1  0  0  0  0
 35 79  2  0  0  0  0
 36 64  1  0  0  0  0
 36 69  1  0  0  0  0
 36 80  2  0  0  0  0
 37 65  1  0  0  0  0
 37 75  1  0  0  0  0
 37 81  2  0  0  0  0
 38 70  1  0  0  0  0
 38 76  1  0  0  0  0
 38 82  2  0  0  0  0
 39 42  1  0  0  0  0
 40 53  1  0  0  0  0
 41 69  1  0  0  0  0
 42 45  1  0  0  0  0
 43 46  1  0  0  0  0
 43 49  1  0  0  0  0
 44 47  1  0  0  0  0
 44 51  1  0  0  0  0
 45 52  1  0  0  0  0
 46 54  1  0  0  0  0
 47 55  1  0  0  0  0
 48 51  1  0  0  0  0
 48 55  1  0  0  0  0
 49 70  1  0  0  0  0
 50 54  1  0  0  0  0
 50 70  1  0  0  0  0
 52 74  1  0  0  0  0
 53 69  1  0  0  0  0
 54 68  1  0  0  0  0
 55 84  1  0  0  0  0
 57 65  1  0  0  0  0
 58 66  1  0  0  0  0
 59 66  1  0  0  0  0
 60 66  1  0  0  0  0
 61 77  1  0  0  0  0
 62 63  1  0  0  0  0
 62 73  1  0  0  0  0
 63 76  1  0  0  0  0
 64 66  1  0  0  0  0
 64 75  1  0  0  0  0
 65 77  1  0  0  0  0
 67 68  1  0  0  0  0
M  CHG  1  77   1
M  ISO  4  38 100  55 101  76 100  84 101
M  END
> <Batch ID>
0136

> <Smiles>
CNC(C)C(=O)NC(C(=O)N1Cc2cc([101O:1][101CH:1]3CCC(c4ccc(NCC[100NH:0][100C:0](=O)N5CCCC(n6nc(-c7ccc(Oc8ccc(F)cc8F)cc7)c(C(N)=O)c6N)C5)c(C)c4)C3)ccc2CC1C(=O)NC1CCCc2ccccc21)C(C)(C)C

> <Shape>
0.353

> <Color>
0.178

> <Negative vol penalty>
0.000

$$$$

  -OEChem-04052321023D

 81 89  0     1  0  0  0  0  0999 V2000
  -18.5084  -32.7131   20.2512 C   0  0  0  0  0  0  0  0  0  0  0  0
  -19.8123  -32.4150   19.8686 C   0  0  0  0  0  0  0  0  0  0  0  0
  -26.1503  -15.6093   20.7867 C   0  0  0  0  0  0  0  0  0  0  0  0
  -27.7344  -14.7295   19.1887 C   0  0  0  0  0  0  0  0  0  0  0  0
  -18.0434  -32.3181   21.5049 C   0  0  0  0  0  0  0  0  0  0  0  0
  -20.6524  -31.7226   20.7399 C   0  0  0  0  0  0  0  0  0  0  0  0
  -24.9677  -27.6470   19.2323 C   0  0  0  0  0  0  0  0  0  0  0  0
  -25.6845  -14.3184   21.0358 C   0  0  0  0  0  0  0  0  0  0  0  0
  -27.2686  -13.4385   19.4379 C   0  0  0  0  0  0  0  0  0  0  0  0
  -26.3499  -27.7554   19.0853 C   0  0  0  0  0  0  0  0  0  0  0  0
  -23.6280  -12.0834   19.5525 C   0  0  0  0  0  0  0  0  0  0  0  0
  -22.2474  -11.8929   19.6086 C   0  0  0  0  0  0  0  0  0  0  0  0
  -26.6463  -26.9616   21.3439 C   0  0  0  0  0  0  0  0  0  0  0  0
  -22.4489  -11.1011   21.8822 C   0  0  0  0  0  0  0  0  0  0  0  0
  -27.1752  -15.8149   19.8631 C   0  0  0  0  0  0  0  0  0  0  0  0
  -28.7001  -17.8190   20.2701 C   0  0  0  0  0  0  0  0  0  0  0  0
  -18.8752  -31.6121   22.3882 C   0  0  0  0  0  0  0  0  0  0  0  0
  -24.4131  -27.2047   20.4420 C   0  0  0  0  0  0  0  0  0  0  0  0
  -20.1985  -31.3190   22.0071 C   0  0  0  0  0  0  0  0  0  0  0  0
  -25.2569  -26.8460   21.5028 C   0  0  0  0  0  0  0  0  0  0  0  0
  -26.2437  -13.2329   20.3614 C   0  0  0  0  0  0  0  0  0  0  0  0
  -27.1893  -27.4154   20.1421 C   0  0  0  0  0  0  0  0  0  0  0  0
  -24.4191  -11.7826   20.6613 C   0  0  0  0  0  0  0  0  0  0  0  0
  -21.6578  -11.4018   20.7734 C   0  0  0  0  0  0  0  0  0  0  0  0
  -23.8296  -11.2915   21.8262 C   0  0  0  0  0  0  0  0  0  0  0  0
  -27.6564  -17.1483   19.6050 C   0  0  0  0  0  0  0  0  0  0  0  0
  -28.7650  -19.0465   19.6573 C   0  0  0  0  0  0  0  0  0  0  0  0
  -29.5364  -17.3724   21.3457 C   0  0  0  0  0  0  0  0  0  0  0  0
  -22.4773  -28.4755   22.6194 C   0  0  0  0  0  0  0  0  0  0  0  0
  -22.5980  -25.4969   23.8983 C   0  0  0  0  0  0  0  0  0  0  0  0
  -24.2874  -22.5494   24.2225 C   0  0  0  0  0  0  0  0  0  0  0  0
  -28.7666  -22.1898   15.0459 C   0  0  0  0  0  0  0  0  0  0  0  0
  -18.3430  -31.2474   23.7515 C   0  0  0  0  0  0  0  0  0  0  0  0
  -22.9212  -27.0679   20.5755 C   0  0  0  0  0  0  0  0  0  0  0  0
  -24.7123  -26.3465   22.8152 C   0  0  0  0  0  0  0  0  0  0  0  0
  -19.1779  -30.1894   24.4683 C   0  0  0  0  0  0  0  0  0  0  0  0
  -25.6027  -21.2680   16.3937 C   0  0  0  0  0  0  0  0  0  0  0  0
  -20.6625  -30.5271   24.3743 C   0  0  0  0  0  0  0  0  0  0  0  0
  -25.9405  -20.1656   17.3990 C   0  0  0  0  0  0  0  0  0  0  0  0
  -26.4987  -21.1997   15.1590 C   0  0  0  0  0  0  0  0  0  0  0  0
  -28.2837  -20.0933   16.4487 C   0  0  0  0  0  0  0  0  0  0  0  0
  -32.4895  -24.9087   19.5149 C   0  0  0  0  0  0  0  0  0  0  0  0
  -30.3516  -25.7012   18.6237 C   0  0  0  0  0  0  0  0  0  0  0  0
  -21.1322  -30.5478   22.9147 C   0  0  1  0  0  0  0  0  0  0  0  0
  -22.4460  -27.0959   22.0249 C   0  0  1  0  0  0  0  0  0  0  0  0
  -31.5291  -25.2871   20.6386 C   0  0  2  0  0  0  0  0  0  0  0  0
  -30.6231  -26.3303   19.9826 C   0  0  2  0  0  0  0  0  0  0  0  0
  -27.4437  -20.1555   17.7359 C   0  0  2  0  0  0  0  0  0  0  0  0
  -32.2574  -25.7874   21.8765 C   0  0  0  0  0  0  0  0  0  0  0  0
  -24.1549  -20.3181   25.3633 C   0  0  0  0  0  0  0  0  0  0  0  0
  -23.4258  -26.7968   26.5317 C   0  0  0  0  0  0  0  0  0  0  0  0
  -24.1857  -24.5465   27.3233 C   0  0  0  0  0  0  0  0  0  0  0  0
  -21.7844  -24.9242   26.7633 C   0  0  0  0  0  0  0  0  0  0  0  0
  -24.2398  -21.1025   21.6412 C   0  0  0  0  0  0  0  0  0  0  0  0
  -29.3431  -26.6131   20.7533 C   0  0  0  0  0  0  0  0  0  1  0  0
  -31.1781  -24.2712   15.9811 C   0  0  0  0  0  0  0  0  0  0  0  0
  -31.0863  -23.0719   15.0439 C   0  0  0  0  0  0  0  0  0  0  0  0
  -31.5710  -23.8687   17.3968 C   0  0  0  0  0  0  0  0  0  0  0  0
  -23.4869  -24.7981   24.8986 C   0  0  1  0  0  0  0  0  0  0  0  0
  -23.8285  -21.1071   24.1049 C   0  0  2  0  0  0  0  0  0  0  0  0
  -23.2312  -25.2776   26.3553 C   0  0  0  0  0  0  0  0  0  0  0  0
  -27.0981  -17.8884   18.6434 N   0  0  0  0  0  0  0  0  0  0  0  0
  -27.7937  -19.0369   18.6999 N   0  0  0  0  0  0  0  0  0  0  0  0
  -23.2466  -26.2361   22.8990 N   0  0  0  0  0  0  0  0  0  0  0  0
  -27.9111  -21.1950   15.5475 N   0  0  0  0  0  0  0  0  0  0  0  0
  -29.5574  -20.1224   19.8495 N   0  0  0  0  0  0  0  0  0  0  0  0
  -29.3353  -16.0832   21.8573 N   0  0  0  0  0  0  0  0  0  0  0  0
  -21.3163  -29.1989   22.4238 N   0  0  0  0  0  0  0  0  0  0  0  0
  -23.2837  -23.3677   24.6960 N   0  0  0  0  0  0  0  0  0  0  0  0
  -30.0881  -22.1160   15.4689 N   0  0  0  0  0  0  0  0  0  0  0  0
  -31.6873  -25.0988   18.2393 N   0  3  2  0  0  0  0  0  0  0  0  0
  -24.4949  -20.4442   22.9484 N   0  3  0  0  0  0  0  0  0  0  0  0
  -30.4244  -18.1012   21.8495 O   0  0  0  0  0  0  0  0  0  0  0  0
  -23.4800  -28.8550   23.2130 O   0  0  0  0  0  0  0  0  0  0  0  0
  -21.3734  -25.3849   23.9957 O   0  0  0  0  0  0  0  0  0  0  0  0
  -25.4238  -22.9130   23.9277 O   0  0  0  0  0  0  0  0  0  0  0  0
  -28.3801  -23.0810   14.2821 O   0  0  0  0  0  0  0  0  0  0  0  0
  -25.7896  -11.9731   20.6044 O   0  0  0  0  0  0  0  0  0  0  0  0
  -28.5387  -27.5209   20.0015 O   0  0  0  0  0  0  0  0  0  1  0  0
  -20.3318  -11.2203   20.8276 F   0  0  0  0  0  0  0  0  0  0  0  0
  -24.5843  -11.0020   22.8950 F   0  0  0  0  0  0  0  0  0  0  0  0
  1  2  1  0  0  0  0
  1  5  2  0  0  0  0
  2  6  2  0  0  0  0
  3  8  2  0  0  0  0
  3 15  1  0  0  0  0
  4  9  1  0  0  0  0
  4 15  2  0  0  0  0
  5 17  1  0  0  0  0
  6 19  1  0  0  0  0
  7 10  2  0  0  0  0
  7 18  1  0  0  0  0
  8 21  1  0  0  0  0
  9 21  2  0  0  0  0
 10 22  1  0  0  0  0
 11 12  2  0  0  0  0
 11 23  1  0  0  0  0
 12 24  1  0  0  0  0
 13 20  1  0  0  0  0
 13 22  2  0  0  0  0
 14 24  2  0  0  0  0
 14 25  1  0  0  0  0
 15 26  1  0  0  0  0
 16 26  1  0  0  0  0
 16 27  2  0  0  0  0
 16 28  1  0  0  0  0
 17 19  2  0  0  0  0
 17 33  1  0  0  0  0
 18 20  2  0  0  0  0
 18 34  1  0  0  0  0
 19 44  1  0  0  0  0
 20 35  1  0  0  0  0
 21 78  1  0  0  0  0
 22 79  1  0  0  0  0
 23 25  2  0  0  0  0
 23 78  1  0  0  0  0
 24 80  1  0  0  0  0
 25 81  1  0  0  0  0
 26 62  2  0  0  0  0
 27 63  1  0  0  0  0
 27 66  1  0  0  0  0
 28 67  1  0  0  0  0
 28 73  2  0  0  0  0
 29 45  1  0  0  0  0
 29 68  1  0  0  0  0
 29 74  2  0  0  0  0
 30 59  1  0  0  0  0
 30 64  1  0  0  0  0
 30 75  2  0  0  0  0
 31 60  1  0  0  0  0
 31 69  1  0  0  0  0
 31 76  2  0  0  0  0
 32 65  1  0  0  0  0
 32 70  1  0  0  0  0
 32 77  2  0  0  0  0
 33 36  1  0  0  0  0
 34 45  1  0  0  0  0
 35 64  1  0  0  0  0
 36 38  1  0  0  0  0
 37 39  1  0  0  0  0
 37 40  1  0  0  0  0
 38 44  1  0  0  0  0
 39 48  1  0  0  0  0
 40 65  1  0  0  0  0
 41 48  1  0  0  0  0
 41 65  1  0  0  0  0
 42 46  1  0  0  0  0
 42 71  1  0  0  0  0
 43 47  1  0  0  0  0
 43 71  1  0  0  0  0
 44 68  1  0  0  0  0
 45 64  1  0  0  0  0
 46 47  1  0  0  0  0
 46 49  1  0  0  0  0
 47 55  1  0  0  0  0
 48 63  1  0  0  0  0
 50 60  1  0  0  0  0
 51 61  1  0  0  0  0
 52 61  1  0  0  0  0
 53 61  1  0  0  0  0
 54 72  1  0  0  0  0
 55 79  1  0  0  0  0
 56 57  1  0  0  0  0
 56 58  1  0  0  0  0
 57 70  1  0  0  0  0
 58 71  1  0  0  0  0
 59 61  1  0  0  0  0
 59 69  1  0  0  0  0
 60 72  1  0  0  0  0
 62 63  1  0  0  0  0
M  CHG  2  71   1  72   1
M  ISO  4  32 100  55 101  70 100  79 101
M  END
> <Batch ID>
0136

> <Smiles>
CNC(C)C(=O)NC(C(=O)N1Cc2cc([101O:1][101CH2:1]C3CN(CCC[100NH:0][100C:0](=O)N4CCCC(n5nc(-c6ccc(Oc7ccc(F)cc7F)cc6)c(C(N)=O)c5N)C4)CC3C)ccc2CC1C(=O)NC1CCCc2ccccc21)C(C)(C)C

> <Shape>
0.205

> <Color>
0.091

> <Negative vol penalty>
0.000

$$$$

  -OEChem-04052321023D

 83 92  0     1  0  0  0  0  0999 V2000
  -25.1808  -37.2515   22.3238 C   0  0  0  0  0  0  0  0  0  0  0  0
  -25.9874  -36.1984   21.9045 C   0  0  0  0  0  0  0  0  0  0  0  0
  -24.0602   -9.5099   22.2703 C   0  0  0  0  0  0  0  0  0  0  0  0
  -24.3415   -8.8684   19.9580 C   0  0  0  0  0  0  0  0  0  0  0  0
  -24.1321  -37.0142   23.2114 C   0  0  0  0  0  0  0  0  0  0  0  0
  -25.7463  -34.9075   22.3734 C   0  0  0  0  0  0  0  0  0  0  0  0
  -26.5029  -29.6698   19.2912 C   0  0  0  0  0  0  0  0  0  0  0  0
  -30.1620  -21.0902   19.6724 C   0  0  0  0  0  0  0  0  0  0  0  0
  -23.0150   -8.5950   22.3969 C   0  0  0  0  0  0  0  0  0  0  0  0
  -23.2963   -7.9535   20.0847 C   0  0  0  0  0  0  0  0  0  0  0  0
  -27.5328  -28.7303   19.2769 C   0  0  0  0  0  0  0  0  0  0  0  0
  -29.9848  -22.3723   19.1528 C   0  0  0  0  0  0  0  0  0  0  0  0
  -20.5104   -6.1709   23.4294 C   0  0  0  0  0  0  0  0  0  0  0  0
  -20.4911   -5.3615   24.5652 C   0  0  0  0  0  0  0  0  0  0  0  0
  -27.6563  -22.3038   19.7825 C   0  0  0  0  0  0  0  0  0  0  0  0
  -26.3305  -27.3967   20.8879 C   0  0  0  0  0  0  0  0  0  0  0  0
  -22.6417   -4.4480   23.9507 C   0  0  0  0  0  0  0  0  0  0  0  0
  -24.7235   -9.6466   21.0508 C   0  0  0  0  0  0  0  0  0  0  0  0
  -27.1715  -10.3571   21.1507 C   0  0  0  0  0  0  0  0  0  0  0  0
  -23.8721  -35.7182   23.6840 C   0  0  0  0  0  0  0  0  0  0  0  0
  -25.3822  -29.4850   20.1135 C   0  0  0  0  0  0  0  0  0  0  0  0
  -29.0859  -20.3991   20.2479 C   0  0  0  0  0  0  0  0  0  0  0  0
  -24.6940  -34.6529   23.2692 C   0  0  0  0  0  0  0  0  0  0  0  0
  -27.8258  -21.0191   20.3182 C   0  0  0  0  0  0  0  0  0  0  0  0
  -25.2865  -28.3342   20.9088 C   0  0  0  0  0  0  0  0  0  0  0  0
  -22.6330   -7.8168   21.3041 C   0  0  0  0  0  0  0  0  0  0  0  0
  -27.4481  -27.5949   20.0775 C   0  0  0  0  0  0  0  0  0  0  0  0
  -28.7322  -22.9776   19.2055 C   0  0  0  0  0  0  0  0  0  0  0  0
  -21.5953   -6.1189   22.5542 C   0  0  0  0  0  0  0  0  0  0  0  0
  -21.5567   -4.5000   24.8258 C   0  0  0  0  0  0  0  0  0  0  0  0
  -22.6609   -5.2575   22.8149 C   0  0  0  0  0  0  0  0  0  0  0  0
  -25.8029  -10.5919   20.9192 C   0  0  0  0  0  0  0  0  0  0  0  0
  -27.7757  -11.5625   20.8889 C   0  0  0  0  0  0  0  0  0  0  0  0
  -27.8371   -9.1568   21.5651 C   0  0  0  0  0  0  0  0  0  0  0  0
  -24.0956  -31.0796   22.5436 C   0  0  0  0  0  0  0  0  0  0  0  0
  -21.7409  -28.8693   22.2395 C   0  0  0  0  0  0  0  0  0  0  0  0
  -20.8025  -25.7623   21.1849 C   0  0  0  0  0  0  0  0  0  0  0  0
  -28.1321  -16.9114   21.2717 C   0  0  0  0  0  0  0  0  0  0  0  0
  -22.7565  -35.5185   24.6791 C   0  0  0  0  0  0  0  0  0  0  0  0
  -24.2674  -30.4946   20.0973 C   0  0  0  0  0  0  0  0  0  0  0  0
  -26.6418  -20.3002   20.9122 C   0  0  0  0  0  0  0  0  0  0  0  0
  -29.3164  -19.0222   20.8148 C   0  0  0  0  0  0  0  0  0  0  0  0
  -24.0951  -28.0788   21.7941 C   0  0  0  0  0  0  0  0  0  0  0  0
  -22.3349  -34.0599   24.8370 C   0  0  0  0  0  0  0  0  0  0  0  0
  -25.9750  -15.7630   18.7405 C   0  0  0  0  0  0  0  0  0  0  0  0
  -23.5599  -33.1630   24.9838 C   0  0  0  0  0  0  0  0  0  0  0  0
  -25.8414  -14.2845   19.1029 C   0  0  0  0  0  0  0  0  0  0  0  0
  -27.0555  -19.1344   21.8040 C   0  0  0  0  0  0  0  0  0  0  0  0
  -25.9677  -16.6603   19.9793 C   0  0  0  0  0  0  0  0  0  0  0  0
  -26.8364  -14.8028   21.3626 C   0  0  0  0  0  0  0  0  0  0  0  0
  -24.4488  -33.2345   23.7363 C   0  0  1  0  0  0  0  0  0  0  0  0
  -23.4106  -30.4589   21.3591 C   0  0  1  0  0  0  0  0  0  0  0  0
  -26.9008  -13.8735   20.1407 C   0  0  1  0  0  0  0  0  0  0  0  0
  -18.8219  -24.2232   21.1071 C   0  0  0  0  0  0  0  0  0  0  0  0
  -22.0995  -28.2618   25.2080 C   0  0  0  0  0  0  0  0  0  0  0  0
  -20.8252  -26.1358   24.8555 C   0  0  0  0  0  0  0  0  0  0  0  0
  -19.7213  -28.3334   24.4377 C   0  0  0  0  0  0  0  0  0  0  0  0
  -20.8374  -25.6783   18.2267 C   0  0  0  0  0  0  0  0  0  0  0  0
  -29.1887  -26.5343   18.8523 C   0  0  0  0  0  0  0  0  0  1  0  0
  -29.6809  -25.1054   18.7279 C   0  0  0  0  0  0  0  0  0  0  0  0
  -21.4774  -27.5011   22.8205 C   0  0  1  0  0  0  0  0  0  0  0  0
  -19.6118  -25.2925   20.3687 C   0  0  2  0  0  0  0  0  0  0  0  0
  -21.0543  -27.5635   24.3153 C   0  0  0  0  0  0  0  0  0  0  0  0
  -25.5521  -11.8478   20.5398 N   0  0  0  0  0  0  0  0  0  0  0  0
  -26.7714  -12.4130   20.5309 N   0  0  0  0  0  0  0  0  0  0  0  0
  -23.0340  -29.0984   21.7482 N   0  0  0  0  0  0  0  0  0  0  0  0
  -28.0839  -18.3114   21.1581 N   0  0  0  0  0  0  0  0  0  0  0  0
  -26.9616  -16.2053   20.9598 N   0  0  0  0  0  0  0  0  0  0  0  0
  -29.0628  -11.9673   20.9325 N   0  0  0  0  0  0  0  0  0  0  0  0
  -27.0655   -8.0087   21.7905 N   0  0  0  0  0  0  0  0  0  0  0  0
  -23.8839  -32.4396   22.6670 N   0  0  0  0  0  0  0  0  0  0  0  0
  -20.4944  -26.8692   21.9471 N   0  0  0  0  0  0  0  0  0  0  0  0
  -20.0668  -24.7263   19.0674 N   0  3  0  0  0  0  0  0  0  0  0  0
  -29.0774   -9.1083   21.7465 O   0  0  0  0  0  0  0  0  0  0  0  0
  -24.7653  -30.3765   23.2911 O   0  0  0  0  0  0  0  0  0  0  0  0
  -20.8309  -29.7017   22.2157 O   0  0  0  0  0  0  0  0  0  0  0  0
  -21.8953  -25.2009   21.1525 O   0  0  0  0  0  0  0  0  0  0  0  0
  -29.1628  -16.3293   21.6332 O   0  0  0  0  0  0  0  0  0  0  0  0
  -21.6133   -6.9237   21.4274 O   0  0  0  0  0  0  0  0  0  0  0  0
  -28.4591  -26.6703   20.0659 O   0  0  0  0  0  0  0  0  0  1  0  0
  -28.5573  -24.2267   18.6941 O   0  0  0  0  0  0  0  0  0  0  0  0
  -21.5388   -3.7239   25.9174 F   0  0  0  0  0  0  0  0  0  0  0  0
  -23.7065   -5.2040   21.9784 F   0  0  0  0  0  0  0  0  0  0  0  0
  1  2  1  0  0  0  0
  1  5  2  0  0  0  0
  2  6  2  0  0  0  0
  3  9  2  0  0  0  0
  3 18  1  0  0  0  0
  4 10  1  0  0  0  0
  4 18  2  0  0  0  0
  5 20  1  0  0  0  0
  6 23  1  0  0  0  0
  7 11  2  0  0  0  0
  7 21  1  0  0  0  0
  8 12  2  0  0  0  0
  8 22  1  0  0  0  0
  9 26  1  0  0  0  0
 10 26  2  0  0  0  0
 11 27  1  0  0  0  0
 12 28  1  0  0  0  0
 13 14  2  0  0  0  0
 13 29  1  0  0  0  0
 14 30  1  0  0  0  0
 15 24  1  0  0  0  0
 15 28  2  0  0  0  0
 16 25  1  0  0  0  0
 16 27  2  0  0  0  0
 17 30  2  0  0  0  0
 17 31  1  0  0  0  0
 18 32  1  0  0  0  0
 19 32  1  0  0  0  0
 19 33  2  0  0  0  0
 19 34  1  0  0  0  0
 20 23  2  0  0  0  0
 20 39  1  0  0  0  0
 21 25  2  0  0  0  0
 21 40  1  0  0  0  0
 22 24  2  0  0  0  0
 22 42  1  0  0  0  0
 23 51  1  0  0  0  0
 24 41  1  0  0  0  0
 25 43  1  0  0  0  0
 26 79  1  0  0  0  0
 27 80  1  0  0  0  0
 28 81  1  0  0  0  0
 29 31  2  0  0  0  0
 29 79  1  0  0  0  0
 30 82  1  0  0  0  0
 31 83  1  0  0  0  0
 32 64  2  0  0  0  0
 33 65  1  0  0  0  0
 33 69  1  0  0  0  0
 34 70  1  0  0  0  0
 34 74  2  0  0  0  0
 35 52  1  0  0  0  0
 35 71  1  0  0  0  0
 35 75  2  0  0  0  0
 36 61  1  0  0  0  0
 36 66  1  0  0  0  0
 36 76  2  0  0  0  0
 37 62  1  0  0  0  0
 37 72  1  0  0  0  0
 37 77  2  0  0  0  0
 38 67  1  0  0  0  0
 38 68  1  0  0  0  0
 38 78  2  0  0  0  0
 39 44  1  0  0  0  0
 40 52  1  0  0  0  0
 41 48  1  0  0  0  0
 42 67  1  0  0  0  0
 43 66  1  0  0  0  0
 44 46  1  0  0  0  0
 45 47  1  0  0  0  0
 45 49  1  0  0  0  0
 46 51  1  0  0  0  0
 47 53  1  0  0  0  0
 48 67  1  0  0  0  0
 49 68  1  0  0  0  0
 50 53  1  0  0  0  0
 50 68  1  0  0  0  0
 51 71  1  0  0  0  0
 52 66  1  0  0  0  0
 53 65  1  0  0  0  0
 54 62  1  0  0  0  0
 55 63  1  0  0  0  0
 56 63  1  0  0  0  0
 57 63  1  0  0  0  0
 58 73  1  0  0  0  0
 59 60  1  0  0  0  0
 59 80  1  0  0  0  0
 60 81  1  0  0  0  0
 61 63  1  0  0  0  0
 61 72  1  0  0  0  0
 62 73  1  0  0  0  0
 64 65  1  0  0  0  0
M  CHG  1  73   1
M  ISO  4  38 100  59 101  67 100  80 101
M  END
> <Batch ID>
0136

> <Smiles>
CNC(C)C(=O)NC(C(=O)N1Cc2cc([101O:1][101CH2:1]COc3ccc4c(c3)CC[100N:0]([100C:0](=O)N3CCCC(n5nc(-c6ccc(Oc7ccc(F)cc7F)cc6)c(C(N)=O)c5N)C3)C4)ccc2CC1C(=O)NC1CCCc2ccccc21)C(C)(C)C

> <Shape>
0.339

> <Color>
0.120

> <Negative vol penalty>
0.000

$$$$

  -OEChem-04052321023D

 89 98  0     1  0  0  0  0  0999 V2000
  -27.1441  -35.0946   24.0543 C   0  0  0  0  0  0  0  0  0  0  0  0
  -27.4896  -33.7896   23.7179 C   0  0  0  0  0  0  0  0  0  0  0  0
  -22.5417   -6.7209   19.4346 C   0  0  0  0  0  0  0  0  0  0  0  0
  -22.6716   -6.2108   21.7926 C   0  0  0  0  0  0  0  0  0  0  0  0
  -25.8497  -35.3829   24.4847 C   0  0  0  0  0  0  0  0  0  0  0  0
  -26.5410  -32.7719   23.8128 C   0  0  0  0  0  0  0  0  0  0  0  0
  -26.5621  -29.7139   19.7764 C   0  0  0  0  0  0  0  0  0  0  0  0
  -22.3667   -5.3665   19.1512 C   0  0  0  0  0  0  0  0  0  0  0  0
  -22.4965   -4.8563   21.5092 C   0  0  0  0  0  0  0  0  0  0  0  0
  -27.5726  -28.7558   19.7087 C   0  0  0  0  0  0  0  0  0  0  0  0
  -19.9394   -2.7833   20.7449 C   0  0  0  0  0  0  0  0  0  0  0  0
  -19.0388   -2.0686   21.5346 C   0  0  0  0  0  0  0  0  0  0  0  0
  -26.0304  -27.0815   20.5069 C   0  0  0  0  0  0  0  0  0  0  0  0
  -30.0337  -22.5828   18.1892 C   0  0  0  0  0  0  0  0  0  0  0  0
  -27.6199  -22.4832   18.2138 C   0  0  0  0  0  0  0  0  0  0  0  0
  -20.8196   -0.5900   22.2273 C   0  0  0  0  0  0  0  0  0  0  0  0
  -22.6942   -7.1431   20.7553 C   0  0  0  0  0  0  0  0  0  0  0  0
  -21.8710   -9.4931   21.3100 C   0  0  0  0  0  0  0  0  0  0  0  0
  -24.8821  -34.3699   24.5757 C   0  0  0  0  0  0  0  0  0  0  0  0
  -25.2788  -29.3647   20.2210 C   0  0  0  0  0  0  0  0  0  0  0  0
  -25.2328  -33.0467   24.2462 C   0  0  0  0  0  0  0  0  0  0  0  0
  -25.0046  -28.0364   20.5769 C   0  0  0  0  0  0  0  0  0  0  0  0
  -30.0923  -21.1950   18.3169 C   0  0  0  0  0  0  0  0  0  0  0  0
  -28.9147  -20.4513   18.3930 C   0  0  0  0  0  0  0  0  0  0  0  0
  -27.6785  -21.0954   18.3415 C   0  0  0  0  0  0  0  0  0  0  0  0
  -22.3441   -4.4341   20.1885 C   0  0  0  0  0  0  0  0  0  0  0  0
  -27.3076  -27.4400   20.0767 C   0  0  0  0  0  0  0  0  0  0  0  0
  -21.2801   -2.4013   20.6962 C   0  0  0  0  0  0  0  0  0  0  0  0
  -28.7975  -23.2269   18.1377 C   0  0  0  0  0  0  0  0  0  0  0  0
  -19.4789   -0.9720   22.2759 C   0  0  0  0  0  0  0  0  0  0  0  0
  -21.7202   -1.3047   21.4375 C   0  0  0  0  0  0  0  0  0  0  0  0
  -22.8755   -8.5421   21.0487 C   0  0  0  0  0  0  0  0  0  0  0  0
  -22.5549  -10.6643   21.5266 C   0  0  0  0  0  0  0  0  0  0  0  0
  -20.4469   -9.3321   21.3531 C   0  0  0  0  0  0  0  0  0  0  0  0
  -23.4371  -30.2327   22.6619 C   0  0  0  0  0  0  0  0  0  0  0  0
  -21.2399  -28.3806   21.1572 C   0  0  0  0  0  0  0  0  0  0  0  0
  -20.6038  -25.8077   19.0072 C   0  0  0  0  0  0  0  0  0  0  0  0
  -26.5584  -14.1208   19.7052 C   0  0  0  0  0  0  0  0  0  0  0  0
  -23.5091  -34.7217   25.0912 C   0  0  0  0  0  0  0  0  0  0  0  0
  -24.1925  -30.4043   20.2628 C   0  0  0  0  0  0  0  0  0  0  0  0
  -23.6381  -27.6059   21.0416 C   0  0  0  0  0  0  0  0  0  0  0  0
  -22.4587  -33.6513   24.8062 C   0  0  0  0  0  0  0  0  0  0  0  0
  -27.4911  -11.5294   22.1892 C   0  0  0  0  0  0  0  0  0  0  0  0
  -22.9959  -32.2684   25.1607 C   0  0  0  0  0  0  0  0  0  0  0  0
  -26.2961  -10.5796   22.0950 C   0  0  0  0  0  0  0  0  0  0  0  0
  -28.5027  -16.6382   21.5474 C   0  0  0  0  0  0  0  0  0  0  0  0
  -27.7539  -12.2088   20.8515 C   0  0  0  0  0  0  0  0  0  0  0  0
  -28.1735  -15.1553   21.4067 C   0  0  0  0  0  0  0  0  0  0  0  0
  -25.3849  -12.0063   20.2001 C   0  0  0  0  0  0  0  0  0  0  0  0
  -27.7369  -16.2677   19.3208 C   0  0  0  0  0  0  0  0  0  0  0  0
  -24.2249  -31.9198   24.3124 C   0  0  1  0  0  0  0  0  0  0  0  0
  -23.0595  -30.0463   21.2196 C   0  0  1  0  0  0  0  0  0  0  0  0
  -25.0582  -11.2968   21.5262 C   0  0  1  0  0  0  0  0  0  0  0  0
  -28.7889  -17.0300   20.1055 C   0  0  1  0  0  0  0  0  0  0  0  0
  -31.8126  -20.1161   19.7876 C   0  0  0  0  0  0  0  0  0  0  0  0
  -18.7108  -24.5004   18.0048 C   0  0  0  0  0  0  0  0  0  0  0  0
  -20.8836  -26.8817   23.7909 C   0  0  0  0  0  0  0  0  0  0  0  0
  -19.7464  -25.0520   22.5154 C   0  0  0  0  0  0  0  0  0  0  0  0
  -18.7578  -27.3419   22.5567 C   0  0  0  0  0  0  0  0  0  0  0  0
  -21.3448  -26.6196   16.2593 C   0  0  0  0  0  0  0  0  0  0  0  0
  -31.4289  -20.5303   18.3703 C   0  0  0  0  0  0  0  0  0  0  0  0
  -28.9820  -18.9589   18.5305 C   0  0  0  0  0  0  0  0  0  0  0  0
  -29.2985  -26.6851   19.0171 C   0  0  0  0  0  0  0  0  0  1  0  0
  -29.8168  -25.3310   18.5730 C   0  0  0  0  0  0  0  0  0  0  0  0
  -20.8555  -26.9217   21.2095 C   0  0  1  0  0  0  0  0  0  0  0  0
  -19.6461  -25.6875   17.8355 C   0  0  2  0  0  0  0  0  0  0  0  0
  -20.0872  -26.5576   22.5113 C   0  0  0  0  0  0  0  0  0  0  0  0
  -24.1041   -9.0641   21.0944 N   0  0  0  0  0  0  0  0  0  0  0  0
  -23.8761  -10.3558   21.3869 N   0  0  0  0  0  0  0  0  0  0  0  0
  -22.6111  -28.6603   21.0713 N   0  0  0  0  0  0  0  0  0  0  0  0
  -26.5503  -12.8801   20.3526 N   0  0  0  0  0  0  0  0  0  0  0  0
  -27.5254  -15.0461   20.0956 N   0  0  0  0  0  0  0  0  0  0  0  0
  -26.4749  -20.3602   18.4167 N   0  0  0  0  0  0  0  0  0  0  0  0
  -22.1491  -11.9178   21.8208 N   0  0  0  0  0  0  0  0  0  0  0  0
  -19.9104   -8.0610   21.1069 N   0  0  0  0  0  0  0  0  0  0  0  0
  -23.8230  -31.5207   22.9806 N   0  0  0  0  0  0  0  0  0  0  0  0
  -20.1143  -26.6506   19.9825 N   0  0  0  0  0  0  0  0  0  0  0  0
  -28.6611  -18.4833   19.9090 N   0  3  0  0  0  0  0  0  0  0  0  0
  -20.4030  -25.5118   16.5638 N   0  3  0  0  0  0  0  0  0  0  0  0
  -19.6722  -10.2908   21.5865 O   0  0  0  0  0  0  0  0  0  0  0  0
  -23.3809  -29.2789   23.4293 O   0  0  0  0  0  0  0  0  0  0  0  0
  -20.3556  -29.2403   21.1841 O   0  0  0  0  0  0  0  0  0  0  0  0
  -21.6770  -25.2106   19.0543 O   0  0  0  0  0  0  0  0  0  0  0  0
  -25.7093  -14.4075   18.8509 O   0  0  0  0  0  0  0  0  0  0  0  0
  -22.1731   -3.1124   19.9123 O   0  0  0  0  0  0  0  0  0  0  0  0
  -28.2991  -26.4966   20.0118 O   0  0  0  0  0  0  0  0  0  1  0  0
  -28.7405  -24.5810   18.0122 O   0  0  0  0  0  0  0  0  0  0  0  0
  -18.6142   -0.2867   23.0354 F   0  0  0  0  0  0  0  0  0  0  0  0
  -23.0072   -0.9337   21.3957 F   0  0  0  0  0  0  0  0  0  0  0  0
  1  2  1  0  0  0  0
  1  5  2  0  0  0  0
  2  6  2  0  0  0  0
  3  8  2  0  0  0  0
  3 17  1  0  0  0  0
  4  9  1  0  0  0  0
  4 17  2  0  0  0  0
  5 19  1  0  0  0  0
  6 21  1  0  0  0  0
  7 10  2  0  0  0  0
  7 20  1  0  0  0  0
  8 26  1  0  0  0  0
  9 26  2  0  0  0  0
 10 27  1  0  0  0  0
 11 12  2  0  0  0  0
 11 28  1  0  0  0  0
 12 30  1  0  0  0  0
 13 22  1  0  0  0  0
 13 27  2  0  0  0  0
 14 23  1  0  0  0  0
 14 29  2  0  0  0  0
 15 25  2  0  0  0  0
 15 29  1  0  0  0  0
 16 30  2  0  0  0  0
 16 31  1  0  0  0  0
 17 32  1  0  0  0  0
 18 32  1  0  0  0  0
 18 33  2  0  0  0  0
 18 34  1  0  0  0  0
 19 21  2  0  0  0  0
 19 39  1  0  0  0  0
 20 22  2  0  0  0  0
 20 40  1  0  0  0  0
 21 51  1  0  0  0  0
 22 41  1  0  0  0  0
 23 24  2  0  0  0  0
 23 61  1  0  0  0  0
 24 25  1  0  0  0  0
 24 62  1  0  0  0  0
 25 73  1  0  0  0  0
 26 85  1  0  0  0  0
 27 86  1  0  0  0  0
 28 31  2  0  0  0  0
 28 85  1  0  0  0  0
 29 87  1  0  0  0  0
 30 88  1  0  0  0  0
 31 89  1  0  0  0  0
 32 68  2  0  0  0  0
 33 69  1  0  0  0  0
 33 74  1  0  0  0  0
 34 75  1  0  0  0  0
 34 80  2  0  0  0  0
 35 52  1  0  0  0  0
 35 76  1  0  0  0  0
 35 81  2  0  0  0  0
 36 65  1  0  0  0  0
 36 70  1  0  0  0  0
 36 82  2  0  0  0  0
 37 66  1  0  0  0  0
 37 77  1  0  0  0  0
 37 83  2  0  0  0  0
 38 71  1  0  0  0  0
 38 72  1  0  0  0  0
 38 84  2  0  0  0  0
 39 42  1  0  0  0  0
 40 52  1  0  0  0  0
 41 70  1  0  0  0  0
 42 44  1  0  0  0  0
 43 45  1  0  0  0  0
 43 47  1  0  0  0  0
 44 51  1  0  0  0  0
 45 53  1  0  0  0  0
 46 48  1  0  0  0  0
 46 54  1  0  0  0  0
 47 71  1  0  0  0  0
 48 72  1  0  0  0  0
 49 53  1  0  0  0  0
 49 71  1  0  0  0  0
 50 54  1  0  0  0  0
 50 72  1  0  0  0  0
 51 76  1  0  0  0  0
 52 70  1  0  0  0  0
 53 69  1  0  0  0  0
 54 78  1  0  0  0  0
 55 61  1  0  0  0  0
 56 66  1  0  0  0  0
 57 67  1  0  0  0  0
 58 67  1  0  0  0  0
 59 67  1  0  0  0  0
 60 79  1  0  0  0  0
 62 78  1  0  0  0  0
 63 64  1  0  0  0  0
 63 86  1  0  0  0  0
 64 87  1  0  0  0  0
 65 67  1  0  0  0  0
 65 77  1  0  0  0  0
 66 79  1  0  0  0  0
 68 69  1  0  0  0  0
M  CHG  2  78   1  79   1
M  ISO  4  38 100  63 101  72 100  86 101
M  END
> <Batch ID>
0136

> <Smiles>
CCc1cc(OC[101CH2:1][101O:1]c2ccc3c(c2)CN(C(=O)C(NC(=O)C(C)NC)C(C)(C)C)C(C(=O)NC2CCCc4ccccc42)C3)cc(N)c1CNC1CC[100N:0]([100C:0](=O)N2CCCC(n3nc(-c4ccc(Oc5ccc(F)cc5F)cc4)c(C(N)=O)c3N)C2)C1

> <Shape>
0.300

> <Color>
0.076

> <Negative vol penalty>
0.000

$$$$

  -OEChem-04052321023D

 82 90  0     1  0  0  0  0  0999 V2000
  -28.8076  -17.1374   15.7105 C   0  0  0  0  0  0  0  0  0  0  0  0
  -28.8173  -17.9213   16.8597 C   0  0  0  0  0  0  0  0  0  0  0  0
  -23.0708   -9.8731   19.9406 C   0  0  0  0  0  0  0  0  0  0  0  0
  -23.8349   -9.8758   22.2325 C   0  0  0  0  0  0  0  0  0  0  0  0
  -29.6567  -17.4478   14.6491 C   0  0  0  0  0  0  0  0  0  0  0  0
  -29.6770  -19.0156   16.9487 C   0  0  0  0  0  0  0  0  0  0  0  0
  -27.3962  -23.1311   18.8208 C   0  0  0  0  0  0  0  0  0  0  0  0
  -22.3267   -8.7200   20.1900 C   0  0  0  0  0  0  0  0  0  0  0  0
  -23.0908   -8.7227   22.4820 C   0  0  0  0  0  0  0  0  0  0  0  0
  -27.2030  -23.1799   20.2006 C   0  0  0  0  0  0  0  0  0  0  0  0
  -19.3806   -7.9229   21.6454 C   0  0  0  0  0  0  0  0  0  0  0  0
  -18.0728   -7.8782   21.1625 C   0  0  0  0  0  0  0  0  0  0  0  0
  -29.1360  -24.6071   20.4147 C   0  0  0  0  0  0  0  0  0  0  0  0
  -18.6288   -5.9370   19.8360 C   0  0  0  0  0  0  0  0  0  0  0  0
  -23.8250  -10.4510   20.9618 C   0  0  0  0  0  0  0  0  0  0  0  0
  -24.1682  -12.9761   20.8453 C   0  0  0  0  0  0  0  0  0  0  0  0
  -30.5204  -18.5521   14.7213 C   0  0  0  0  0  0  0  0  0  0  0  0
  -28.4689  -23.8123   18.2277 C   0  0  0  0  0  0  0  0  0  0  0  0
  -30.5395  -19.3403   15.8878 C   0  0  0  0  0  0  0  0  0  0  0  0
  -29.3390  -24.5675   19.0268 C   0  0  0  0  0  0  0  0  0  0  0  0
  -22.3366   -8.1448   21.4607 C   0  0  0  0  0  0  0  0  0  0  0  0
  -28.0746  -23.9156   20.9982 C   0  0  0  0  0  0  0  0  0  0  0  0
  -20.3126   -6.9746   21.2236 C   0  0  0  0  0  0  0  0  0  0  0  0
  -17.6969   -6.8853   20.2578 C   0  0  0  0  0  0  0  0  0  0  0  0
  -19.9367   -5.9817   20.3189 C   0  0  0  0  0  0  0  0  0  0  0  0
  -24.5943  -11.6418   20.7046 C   0  0  0  0  0  0  0  0  0  0  0  0
  -25.2601  -13.7255   20.4813 C   0  0  0  0  0  0  0  0  0  0  0  0
  -22.8988  -13.4920   21.2675 C   0  0  0  0  0  0  0  0  0  0  0  0
  -31.0218  -22.9443   16.5445 C   0  0  0  0  0  0  0  0  0  0  0  0
  -31.4260  -26.1483   16.2386 C   0  0  0  0  0  0  0  0  0  0  0  0
  -30.8296  -29.2744   17.4708 C   0  0  0  0  0  0  0  0  0  0  0  0
  -30.7448  -14.7408   20.6611 C   0  0  0  0  0  0  0  0  0  0  0  0
  -31.4539  -18.8203   13.5674 C   0  0  0  0  0  0  0  0  0  0  0  0
  -28.6479  -23.7715   16.7348 C   0  0  0  0  0  0  0  0  0  0  0  0
  -30.4941  -25.3332   18.4369 C   0  0  0  0  0  0  0  0  0  0  0  0
  -32.0665  -20.2183   13.5917 C   0  0  0  0  0  0  0  0  0  0  0  0
  -29.6013  -12.3610   18.2726 C   0  0  0  0  0  0  0  0  0  0  0  0
  -32.5817  -20.5512   14.9883 C   0  0  0  0  0  0  0  0  0  0  0  0
  -28.1645  -12.0674   18.7077 C   0  0  0  0  0  0  0  0  0  0  0  0
  -30.5208  -12.5793   19.4721 C   0  0  0  0  0  0  0  0  0  0  0  0
  -28.6221  -13.3092   20.8634 C   0  0  0  0  0  0  0  0  0  0  0  0
  -28.4463  -19.6175   22.4179 C   0  0  0  0  0  0  0  0  0  0  0  0
  -31.4401  -20.5500   16.0122 C   0  0  1  0  0  0  0  0  0  0  0  0
  -30.0749  -24.0841   16.2954 C   0  0  1  0  0  0  0  0  0  0  0  0
  -30.5883  -19.0397   23.2825 C   0  0  2  0  0  0  0  0  0  0  0  0
  -27.6456  -13.1372   19.6873 C   0  0  2  0  0  0  0  0  0  0  0  0
  -29.3573  -19.8933   23.6047 C   0  0  1  0  0  0  0  0  0  0  0  0
  -29.9480  -17.7256   22.8246 C   0  0  2  0  0  0  0  0  0  0  0  0
  -31.5359  -18.8592   24.4610 C   0  0  0  0  0  0  0  0  0  0  0  0
  -31.3210  -31.6945   17.0246 C   0  0  0  0  0  0  0  0  0  0  0  0
  -34.2611  -25.7657   17.2997 C   0  0  0  0  0  0  0  0  0  0  0  0
  -34.3593  -28.2307   17.7264 C   0  0  0  0  0  0  0  0  0  0  0  0
  -34.0673  -27.3802   15.3996 C   0  0  0  0  0  0  0  0  0  0  0  0
  -27.9581  -29.9200   17.1598 C   0  0  0  0  0  0  0  0  0  0  0  0
  -30.8143  -16.8893   21.9015 C   0  0  0  0  0  0  0  0  0  0  0  0
  -28.8212  -23.4909   24.5226 C   0  0  0  0  0  0  0  0  0  0  0  0
  -28.5277  -21.9987   24.4045 C   0  0  0  0  0  0  0  0  0  0  0  0
  -29.0521  -24.1242   23.1562 C   0  0  0  0  0  0  0  0  0  1  0  0
  -32.1421  -27.2159   17.0301 C   0  0  1  0  0  0  0  0  0  0  0  0
  -30.3486  -30.5474   16.7981 C   0  0  2  0  0  0  0  0  0  0  0  0
  -33.6869  -27.1322   16.8756 C   0  0  0  0  0  0  0  0  0  0  0  0
  -25.8583  -11.5459   20.2838 N   0  0  0  0  0  0  0  0  0  0  0  0
  -26.2358  -12.8294   20.1569 N   0  0  0  0  0  0  0  0  0  0  0  0
  -30.6309  -25.2570   16.9730 N   0  0  0  0  0  0  0  0  0  0  0  0
  -29.9725  -13.6067   20.3608 N   0  0  0  0  0  0  0  0  0  0  0  0
  -25.4712  -15.0570   20.4101 N   0  0  0  0  0  0  0  0  0  0  0  0
  -21.8869  -12.5829   21.6051 N   0  0  0  0  0  0  0  0  0  0  0  0
  -30.6675  -21.7694   15.9092 N   0  0  0  0  0  0  0  0  0  0  0  0
  -31.5677  -28.4895   16.6103 N   0  0  0  0  0  0  0  0  0  0  0  0
  -30.1478  -15.6686   21.5058 N   0  0  0  0  0  0  0  0  0  0  0  0
  -29.6385  -21.3142   23.7537 N   0  0  0  0  0  0  0  0  0  0  0  0
  -28.7056  -18.1722   22.0895 N   0  3  0  0  0  0  0  0  0  0  0  0
  -29.0174  -30.9465   17.3363 N   0  3  0  0  0  0  0  0  0  0  0  0
  -22.6634  -14.7227   21.3273 O   0  0  0  0  0  0  0  0  0  0  0  0
  -32.0020  -23.1183   17.2591 O   0  0  0  0  0  0  0  0  0  0  0  0
  -31.5613  -26.1110   15.0131 O   0  0  0  0  0  0  0  0  0  0  0  0
  -30.5790  -29.0051   18.6435 O   0  0  0  0  0  0  0  0  0  0  0  0
  -31.8800  -14.9164   20.2057 O   0  0  0  0  0  0  0  0  0  0  0  0
  -21.6104   -7.0198   21.7045 O   0  0  0  0  0  0  0  0  0  0  0  0
  -27.8887  -23.9643   22.3454 O   0  0  0  0  0  0  0  0  0  1  0  0
  -16.4405   -6.8416   19.7954 F   0  0  0  0  0  0  0  0  0  0  0  0
  -20.8273   -5.0672   19.9109 F   0  0  0  0  0  0  0  0  0  0  0  0
  1  2  1  0  0  0  0
  1  5  2  0  0  0  0
  2  6  2  0  0  0  0
  3  8  2  0  0  0  0
  3 15  1  0  0  0  0
  4  9  1  0  0  0  0
  4 15  2  0  0  0  0
  5 17  1  0  0  0  0
  6 19  1  0  0  0  0
  7 10  2  0  0  0  0
  7 18  1  0  0  0  0
  8 21  1  0  0  0  0
  9 21  2  0  0  0  0
 10 22  1  0  0  0  0
 11 12  2  0  0  0  0
 11 23  1  0  0  0  0
 12 24  1  0  0  0  0
 13 20  1  0  0  0  0
 13 22  2  0  0  0  0
 14 24  2  0  0  0  0
 14 25  1  0  0  0  0
 15 26  1  0  0  0  0
 16 26  1  0  0  0  0
 16 27  2  0  0  0  0
 16 28  1  0  0  0  0
 17 19  2  0  0  0  0
 17 33  1  0  0  0  0
 18 20  2  0  0  0  0
 18 34  1  0  0  0  0
 19 43  1  0  0  0  0
 20 35  1  0  0  0  0
 21 79  1  0  0  0  0
 22 80  1  0  0  0  0
 23 25  2  0  0  0  0
 23 79  1  0  0  0  0
 24 81  1  0  0  0  0
 25 82  1  0  0  0  0
 26 62  2  0  0  0  0
 27 63  1  0  0  0  0
 27 66  1  0  0  0  0
 28 67  1  0  0  0  0
 28 74  2  0  0  0  0
 29 44  1  0  0  0  0
 29 68  1  0  0  0  0
 29 75  2  0  0  0  0
 30 59  1  0  0  0  0
 30 64  1  0  0  0  0
 30 76  2  0  0  0  0
 31 60  1  0  0  0  0
 31 69  1  0  0  0  0
 31 77  2  0  0  0  0
 32 65  1  0  0  0  0
 32 70  1  0  0  0  0
 32 78  2  0  0  0  0
 33 36  1  0  0  0  0
 34 44  1  0  0  0  0
 35 64  1  0  0  0  0
 36 38  1  0  0  0  0
 37 39  1  0  0  0  0
 37 40  1  0  0  0  0
 38 43  1  0  0  0  0
 39 46  1  0  0  0  0
 40 65  1  0  0  0  0
 41 46  1  0  0  0  0
 41 65  1  0  0  0  0
 42 47  1  0  0  0  0
 42 72  1  0  0  0  0
 43 68  1  0  0  0  0
 44 64  1  0  0  0  0
 45 47  1  0  0  0  0
 45 48  1  0  0  0  0
 45 49  1  0  0  0  0
 46 63  1  0  0  0  0
 47 71  1  0  0  0  0
 48 55  1  0  0  0  0
 48 72  1  0  0  0  0
 50 60  1  0  0  0  0
 51 61  1  0  0  0  0
 52 61  1  0  0  0  0
 53 61  1  0  0  0  0
 54 73  1  0  0  0  0
 55 70  1  0  0  0  0
 56 57  1  0  0  0  0
 56 58  1  0  0  0  0
 57 71  1  0  0  0  0
 58 80  1  0  0  0  0
 59 61  1  0  0  0  0
 59 69  1  0  0  0  0
 60 73  1  0  0  0  0
 62 63  1  0  0  0  0
M  CHG  2  72   1  73   1
M  ISO  4  32 100  58 101  70 100  80 101
M  END
> <Batch ID>
0136

> <Smiles>
CNC(C)C(=O)NC(C(=O)N1Cc2cc([101O:1][101CH2:1]CCNC3CNC(C[100NH:0][100C:0](=O)N4CCCC(n5nc(-c6ccc(Oc7ccc(F)cc7F)cc6)c(C(N)=O)c5N)C4)C3C)ccc2CC1C(=O)NC1CCCc2ccccc21)C(C)(C)C

> <Shape>
0.203

> <Color>
0.184

> <Negative vol penalty>
0.000

$$$$

  -OEChem-04052321023D

 86 95  0     1  0  0  0  0  0999 V2000
  -15.0493  -27.6918   24.7252 C   0  0  0  0  0  0  0  0  0  0  0  0
  -15.6147  -26.4596   24.4131 C   0  0  0  0  0  0  0  0  0  0  0  0
  -23.0188   -9.8884   19.9802 C   0  0  0  0  0  0  0  0  0  0  0  0
  -23.7301   -9.9630   22.2879 C   0  0  0  0  0  0  0  0  0  0  0  0
  -15.7464  -28.8674   24.4492 C   0  0  0  0  0  0  0  0  0  0  0  0
  -16.8772  -26.4023   23.8238 C   0  0  0  0  0  0  0  0  0  0  0  0
  -21.1666  -22.1236   24.7181 C   0  0  0  0  0  0  0  0  0  0  0  0
  -26.2049  -19.0237   20.9353 C   0  0  0  0  0  0  0  0  0  0  0  0
  -22.2666   -8.7449   20.2490 C   0  0  0  0  0  0  0  0  0  0  0  0
  -22.9778   -8.8196   22.5567 C   0  0  0  0  0  0  0  0  0  0  0  0
  -21.5325  -20.9949   23.9861 C   0  0  0  0  0  0  0  0  0  0  0  0
  -24.8452  -19.3182   21.0348 C   0  0  0  0  0  0  0  0  0  0  0  0
  -23.2710   -5.4817   22.1063 C   0  0  0  0  0  0  0  0  0  0  0  0
  -23.8683   -4.4772   22.8677 C   0  0  0  0  0  0  0  0  0  0  0  0
  -25.1083  -19.7347   23.4000 C   0  0  0  0  0  0  0  0  0  0  0  0
  -23.2811  -22.2645   22.9139 C   0  0  0  0  0  0  0  0  0  0  0  0
  -22.1317   -4.7061   24.5317 C   0  0  0  0  0  0  0  0  0  0  0  0
  -23.7506  -10.4974   20.9996 C   0  0  0  0  0  0  0  0  0  0  0  0
  -26.4681  -19.4402   23.3006 C   0  0  0  0  0  0  0  0  0  0  0  0
  -24.1021  -13.0170   20.8107 C   0  0  0  0  0  0  0  0  0  0  0  0
  -17.0221  -28.8241   23.8651 C   0  0  0  0  0  0  0  0  0  0  0  0
  -21.8494  -23.3362   24.5452 C   0  0  0  0  0  0  0  0  0  0  0  0
  -17.5915  -27.5784   23.5386 C   0  0  0  0  0  0  0  0  0  0  0  0
  -22.9236  -23.4064   23.6468 C   0  0  0  0  0  0  0  0  0  0  0  0
  -27.0164  -19.0848   22.0682 C   0  0  0  0  0  0  0  0  0  0  0  0
  -22.2460   -8.2106   21.5373 C   0  0  0  0  0  0  0  0  0  0  0  0
  -24.2969  -19.6736   22.2671 C   0  0  0  0  0  0  0  0  0  1  0  0
  -22.5880  -21.0659   23.0817 C   0  0  0  0  0  0  0  0  0  0  0  0
  -22.1041   -6.0984   22.5575 C   0  0  0  0  0  0  0  0  0  0  0  0
  -23.2986   -4.0894   24.0805 C   0  0  0  0  0  0  0  0  0  0  0  0
  -21.5344   -5.7106   23.7702 C   0  0  0  0  0  0  0  0  0  0  0  0
  -24.5284  -11.6783   20.7224 C   0  0  0  0  0  0  0  0  0  0  0  0
  -25.2038  -13.7528   20.4482 C   0  0  0  0  0  0  0  0  0  0  0  0
  -27.2888  -19.5138   24.5028 C   0  0  0  0  0  0  0  0  0  0  0  0
  -22.8245  -13.5480   21.1868 C   0  0  0  0  0  0  0  0  0  0  0  0
  -21.0379  -26.2462   23.5568 C   0  0  0  0  0  0  0  0  0  0  0  0
  -24.0765  -26.9673   24.4337 C   0  0  0  0  0  0  0  0  0  0  0  0
  -27.2605  -25.8825   25.0097 C   0  0  0  0  0  0  0  0  0  0  0  0
  -30.6852  -14.7651   20.7220 C   0  0  0  0  0  0  0  0  0  0  0  0
  -17.7171  -30.1231   23.5422 C   0  0  0  0  0  0  0  0  0  0  0  0
  -21.4596  -24.5376   25.3620 C   0  0  0  0  0  0  0  0  0  0  0  0
  -23.7018  -24.6791   23.4392 C   0  0  0  0  0  0  0  0  0  0  0  0
  -19.2087  -29.9621   23.2600 C   0  0  0  0  0  0  0  0  0  0  0  0
  -29.5916  -12.3119   18.3848 C   0  0  0  0  0  0  0  0  0  0  0  0
  -19.4489  -28.7951   22.3076 C   0  0  0  0  0  0  0  0  0  0  0  0
  -27.8817  -21.5030   26.0111 C   0  0  0  0  0  0  0  0  0  0  0  0
  -26.7187  -21.9252   25.1648 C   0  0  0  0  0  0  0  0  0  0  0  0
  -28.1445  -12.0346   18.7957 C   0  0  0  0  0  0  0  0  0  0  0  0
  -30.4837  -12.5670   19.5976 C   0  0  0  0  0  0  0  0  0  0  0  0
  -28.5551  -13.3438   20.9208 C   0  0  0  0  0  0  0  0  0  0  0  0
  -18.9693  -27.4742   22.9214 C   0  0  1  0  0  0  0  0  0  0  0  0
  -26.8807  -20.4982   25.5580 C   0  0  0  0  0  0  0  0  0  0  0  0
  -21.8929  -25.8564   24.7292 C   0  0  1  0  0  0  0  0  0  0  0  0
  -27.6056  -13.1358   19.7286 C   0  0  2  0  0  0  0  0  0  0  0  0
  -29.6640  -25.9905   25.7234 C   0  0  0  0  0  0  0  0  0  0  0  0
  -24.4782  -28.1165   21.6359 C   0  0  0  0  0  0  0  0  0  0  0  0
  -26.9484  -28.0457   22.0371 C   0  0  0  0  0  0  0  0  0  0  0  0
  -25.4933  -29.4721   23.4761 C   0  0  0  0  0  0  0  0  0  0  0  0
  -26.5816  -25.1940   27.8069 C   0  0  0  0  0  0  0  0  0  0  0  0
  -30.4732  -18.0761   20.8936 C   0  0  0  0  0  0  0  0  0  0  0  0
  -28.9949  -18.4140   20.7039 C   0  0  0  0  0  0  0  0  0  0  0  0
  -30.7309  -16.9519   21.8946 C   0  0  0  0  0  0  0  0  0  0  0  0
  -25.4190  -26.9591   23.7433 C   0  0  1  0  0  0  0  0  0  0  0  0
  -28.2150  -26.1282   26.1643 C   0  0  2  0  0  0  0  0  0  0  0  0
  -25.5690  -28.1247   22.7253 C   0  0  0  0  0  0  0  0  0  0  0  0
  -25.8015  -11.5671   20.3342 N   0  0  0  0  0  0  0  0  0  0  0  0
  -26.1847  -12.8453   20.1752 N   0  0  0  0  0  0  0  0  0  0  0  0
  -23.2786  -25.8282   24.2565 N   0  0  0  0  0  0  0  0  0  0  0  0
  -29.9174  -13.6230   20.4403 N   0  0  0  0  0  0  0  0  0  0  0  0
  -25.4194  -15.0810   20.3395 N   0  0  0  0  0  0  0  0  0  0  0  0
  -21.8031  -12.6517   21.5298 N   0  0  0  0  0  0  0  0  0  0  0  0
  -28.3909  -18.7826   21.9454 N   0  0  0  0  0  0  0  0  0  0  0  0
  -19.9255  -26.9928   23.8953 N   0  0  0  0  0  0  0  0  0  0  0  0
  -26.4226  -26.9576   24.8022 N   0  0  0  0  0  0  0  0  0  0  0  0
  -30.0710  -15.7202   21.5228 N   0  0  0  0  0  0  0  0  0  0  0  0
  -27.9629  -25.1518   27.2616 N   0  3  0  0  0  0  0  0  0  0  0  0
  -28.2922  -18.8321   24.7122 O   0  0  0  0  0  0  0  0  0  0  0  0
  -22.5905  -14.7803   21.2019 O   0  0  0  0  0  0  0  0  0  0  0  0
  -21.3640  -25.8968   22.4284 O   0  0  0  0  0  0  0  0  0  0  0  0
  -23.7509  -27.9453   25.1113 O   0  0  0  0  0  0  0  0  0  0  0  0
  -27.2610  -24.8424   24.3549 O   0  0  0  0  0  0  0  0  0  0  0  0
  -31.8310  -14.9242   20.2875 O   0  0  0  0  0  0  0  0  0  0  0  0
  -21.5119   -7.0950   21.8000 O   0  0  0  0  0  0  0  0  0  0  0  0
  -22.9468  -19.9658   22.3655 O   0  0  0  0  0  0  0  0  0  1  0  0
  -23.8715   -3.1237   24.8109 F   0  0  0  0  0  0  0  0  0  0  0  0
  -20.4128   -6.2986   24.2084 F   0  0  0  0  0  0  0  0  0  0  0  0
  1  2  1  0  0  0  0
  1  5  2  0  0  0  0
  2  6  2  0  0  0  0
  3  9  2  0  0  0  0
  3 18  1  0  0  0  0
  4 10  1  0  0  0  0
  4 18  2  0  0  0  0
  5 21  1  0  0  0  0
  6 23  1  0  0  0  0
  7 11  2  0  0  0  0
  7 22  1  0  0  0  0
  8 12  2  0  0  0  0
  8 25  1  0  0  0  0
  9 26  1  0  0  0  0
 10 26  2  0  0  0  0
 11 28  1  0  0  0  0
 12 27  1  0  0  0  0
 13 14  2  0  0  0  0
 13 29  1  0  0  0  0
 14 30  1  0  0  0  0
 15 19  1  0  0  0  0
 15 27  2  0  0  0  0
 16 24  1  0  0  0  0
 16 28  2  0  0  0  0
 17 30  2  0  0  0  0
 17 31  1  0  0  0  0
 18 32  1  0  0  0  0
 19 25  2  0  0  0  0
 19 34  1  0  0  0  0
 20 32  1  0  0  0  0
 20 33  2  0  0  0  0
 20 35  1  0  0  0  0
 21 23  2  0  0  0  0
 21 40  1  0  0  0  0
 22 24  2  0  0  0  0
 22 41  1  0  0  0  0
 23 51  1  0  0  0  0
 24 42  1  0  0  0  0
 25 72  1  0  0  0  0
 26 83  1  0  0  0  0
 27 84  1  0  0  0  0
 28 84  1  0  0  0  0
 29 31  2  0  0  0  0
 29 83  1  0  0  0  0
 30 85  1  0  0  0  0
 31 86  1  0  0  0  0
 32 66  2  0  0  0  0
 33 67  1  0  0  0  0
 33 70  1  0  0  0  0
 34 52  1  0  0  0  0
 34 77  2  0  0  0  0
 35 71  1  0  0  0  0
 35 78  2  0  0  0  0
 36 53  1  0  0  0  0
 36 73  1  0  0  0  0
 36 79  2  0  0  0  0
 37 63  1  0  0  0  0
 37 68  1  0  0  0  0
 37 80  2  0  0  0  0
 38 64  1  0  0  0  0
 38 74  1  0  0  0  0
 38 81  2  0  0  0  0
 39 69  1  0  0  0  0
 39 75  1  0  0  0  0
 39 82  2  0  0  0  0
 40 43  1  0  0  0  0
 41 53  1  0  0  0  0
 42 68  1  0  0  0  0
 43 45  1  0  0  0  0
 44 48  1  0  0  0  0
 44 49  1  0  0  0  0
 45 51  1  0  0  0  0
 46 47  1  0  0  0  0
 46 52  1  0  0  0  0
 47 52  1  0  0  0  0
 48 54  1  0  0  0  0
 49 69  1  0  0  0  0
 50 54  1  0  0  0  0
 50 69  1  0  0  0  0
 51 73  1  0  0  0  0
 53 68  1  0  0  0  0
 54 67  1  0  0  0  0
 55 64  1  0  0  0  0
 56 65  1  0  0  0  0
 57 65  1  0  0  0  0
 58 65  1  0  0  0  0
 59 76  1  0  0  0  0
 60 61  1  0  0  0  0
 60 62  1  0  0  0  0
 61 72  1  0  0  0  0
 62 75  1  0  0  0  0
 63 65  1  0  0  0  0
 63 74  1  0  0  0  0
 64 76  1  0  0  0  0
 66 67  1  0  0  0  0
M  CHG  1  76   1
M  ISO  4  27 101  39 100  75 100  84 101
M  END
> <Batch ID>
0136

> <Smiles>
CNC(C)C(=O)NC(C(=O)N1Cc2cc([101O:1][101c:1]3ccc(NCCC[100NH:0][100C:0](=O)N4CCCC(n5nc(-c6ccc(Oc7ccc(F)cc7F)cc6)c(C(N)=O)c5N)C4)c(C(=O)C4CC4)c3)ccc2CC1C(=O)NC1CCCc2ccccc21)C(C)(C)C

> <Shape>
0.251

> <Color>
0.212

> <Negative vol penalty>
0.000

$$$$

  -OEChem-04052321023D

 83 91  0     1  0  0  0  0  0999 V2000
  -43.3548  -23.5261   25.8259 C   0  0  0  0  0  0  0  0  0  0  0  0
  -42.2282  -22.7620   26.1131 C   0  0  0  0  0  0  0  0  0  0  0  0
  -23.0746   -9.8689   19.9413 C   0  0  0  0  0  0  0  0  0  0  0  0
  -23.8387   -9.8744   22.2333 C   0  0  0  0  0  0  0  0  0  0  0  0
  -43.5659  -23.9948   24.5299 C   0  0  0  0  0  0  0  0  0  0  0  0
  -41.3115  -22.4671   25.1046 C   0  0  0  0  0  0  0  0  0  0  0  0
  -39.8612  -17.6154   25.1553 C   0  0  0  0  0  0  0  0  0  0  0  0
  -30.9233  -15.4607   27.8637 C   0  0  0  0  0  0  0  0  0  0  0  0
  -22.3321   -8.7150   20.1916 C   0  0  0  0  0  0  0  0  0  0  0  0
  -23.0961   -8.7205   22.4836 C   0  0  0  0  0  0  0  0  0  0  0  0
  -38.9178  -17.2428   26.1118 C   0  0  0  0  0  0  0  0  0  0  0  0
  -32.2817  -15.6447   28.1217 C   0  0  0  0  0  0  0  0  0  0  0  0
  -19.8696   -7.9198   23.0914 C   0  0  0  0  0  0  0  0  0  0  0  0
  -19.1149   -7.8783   24.2636 C   0  0  0  0  0  0  0  0  0  0  0  0
  -37.1842  -17.3590   24.4384 C   0  0  0  0  0  0  0  0  0  0  0  0
  -32.6356  -16.2670   25.8142 C   0  0  0  0  0  0  0  0  0  0  0  0
  -20.3590   -5.9411   24.9961 C   0  0  0  0  0  0  0  0  0  0  0  0
  -23.8280  -10.4486   20.9621 C   0  0  0  0  0  0  0  0  0  0  0  0
  -24.1678  -12.9741   20.8437 C   0  0  0  0  0  0  0  0  0  0  0  0
  -42.6562  -23.6975   23.5029 C   0  0  0  0  0  0  0  0  0  0  0  0
  -39.4708  -17.8736   23.8334 C   0  0  0  0  0  0  0  0  0  0  0  0
  -41.5099  -22.9335   23.7939 C   0  0  0  0  0  0  0  0  0  0  0  0
  -38.1249  -17.7322   23.4664 C   0  0  0  0  0  0  0  0  0  0  0  0
  -30.4211  -15.6797   26.5809 C   0  0  0  0  0  0  0  0  0  0  0  0
  -31.2772  -16.0829   25.5562 C   0  0  0  0  0  0  0  0  0  0  0  0
  -22.3428   -8.1408   21.4628 C   0  0  0  0  0  0  0  0  0  0  0  0
  -37.5786  -17.1174   25.7541 C   0  0  0  0  0  0  0  0  0  0  0  0
  -33.1378  -16.0479   27.0969 C   0  0  0  0  0  0  0  0  0  0  0  0
  -20.8691   -6.9719   22.8714 C   0  0  0  0  0  0  0  0  0  0  0  0
  -19.3596   -6.8890   25.2160 C   0  0  0  0  0  0  0  0  0  0  0  0
  -21.1138   -5.9826   23.8238 C   0  0  0  0  0  0  0  0  0  0  0  0
  -24.5957  -11.6402   20.7040 C   0  0  0  0  0  0  0  0  0  0  0  0
  -25.2587  -13.7247   20.4790 C   0  0  0  0  0  0  0  0  0  0  0  0
  -22.8977  -13.4886   21.2654 C   0  0  0  0  0  0  0  0  0  0  0  0
  -39.5608  -20.4127   21.9232 C   0  0  0  0  0  0  0  0  0  0  0  0
  -38.5114  -18.2934   19.7029 C   0  0  0  0  0  0  0  0  0  0  0  0
  -36.9027  -15.3596   19.0308 C   0  0  0  0  0  0  0  0  0  0  0  0
  -30.7420  -14.7476   20.6582 C   0  0  0  0  0  0  0  0  0  0  0  0
  -42.9025  -24.2661   22.1279 C   0  0  0  0  0  0  0  0  0  0  0  0
  -40.5048  -18.2486   22.8074 C   0  0  0  0  0  0  0  0  0  0  0  0
  -37.6575  -17.9783   22.0560 C   0  0  0  0  0  0  0  0  0  0  0  0
  -42.0764  -23.5943   21.0340 C   0  0  0  0  0  0  0  0  0  0  0  0
  -29.6018  -12.3643   18.2715 C   0  0  0  0  0  0  0  0  0  0  0  0
  -40.6223  -23.4545   21.4731 C   0  0  0  0  0  0  0  0  0  0  0  0
  -28.1654  -12.0692   18.7068 C   0  0  0  0  0  0  0  0  0  0  0  0
  -30.5210  -12.5848   19.4709 C   0  0  0  0  0  0  0  0  0  0  0  0
  -28.6212  -13.3132   20.8616 C   0  0  0  0  0  0  0  0  0  0  0  0
  -40.5054  -22.5717   22.7215 C   0  0  1  0  0  0  0  0  0  0  0  0
  -39.9169  -18.9871   21.6089 C   0  0  1  0  0  0  0  0  0  0  0  0
  -27.6450  -13.1390   19.6856 C   0  0  2  0  0  0  0  0  0  0  0  0
  -28.9620  -15.4749   26.3329 C   0  0  0  0  0  0  0  0  0  0  0  0
  -36.1653  -13.9103   17.1195 C   0  0  0  0  0  0  0  0  0  0  0  0
  -36.2169  -20.2213   19.1295 C   0  0  0  0  0  0  0  0  0  0  0  0
  -35.0331  -18.3533   17.9558 C   0  0  0  0  0  0  0  0  0  0  0  0
  -37.2286  -19.1701   17.0983 C   0  0  0  0  0  0  0  0  0  0  0  0
  -38.5677  -13.0940   19.9546 C   0  0  0  0  0  0  0  0  0  0  0  0
  -31.6233  -16.7228   23.1694 C   0  0  0  0  0  0  0  0  0  0  0  0
  -30.8086  -16.8971   21.8969 C   0  0  0  0  0  0  0  0  0  0  0  0
  -35.2912  -16.6430   26.2519 C   0  0  0  0  0  0  0  0  0  1  0  0
  -37.1571  -17.8190   19.2340 C   0  0  1  0  0  0  0  0  0  0  0  0
  -37.2673  -14.1948   18.1282 C   0  0  2  0  0  0  0  0  0  0  0  0
  -36.4171  -18.8881   18.3815 C   0  0  0  0  0  0  0  0  0  0  0  0
  -25.8599  -11.5457   20.2833 N   0  0  0  0  0  0  0  0  0  0  0  0
  -26.2356  -12.8297   20.1554 N   0  0  0  0  0  0  0  0  0  0  0  0
  -38.7053  -18.3488   21.0904 N   0  0  0  0  0  0  0  0  0  0  0  0
  -29.9713  -13.6121   20.3588 N   0  0  0  0  0  0  0  0  0  0  0  0
  -25.4680  -15.0564   20.4068 N   0  0  0  0  0  0  0  0  0  0  0  0
  -21.8870  -12.5784   21.6037 N   0  0  0  0  0  0  0  0  0  0  0  0
  -30.7863  -16.3092   24.2515 N   0  0  0  0  0  0  0  0  0  0  0  0
  -40.6258  -21.1742   22.3653 N   0  0  0  0  0  0  0  0  0  0  0  0
  -37.3846  -16.5552   18.5415 N   0  0  0  0  0  0  0  0  0  0  0  0
  -30.1437  -15.6752   21.5022 N   0  0  0  0  0  0  0  0  0  0  0  0
  -37.4932  -12.9637   18.9371 N   0  3  0  0  0  0  0  0  0  0  0  0
  -22.6606  -14.7190   21.3242 O   0  0  0  0  0  0  0  0  0  0  0  0
  -38.4058  -20.7939   21.7742 O   0  0  0  0  0  0  0  0  0  0  0  0
  -39.3680  -18.5967   18.8688 O   0  0  0  0  0  0  0  0  0  0  0  0
  -36.2520  -15.2231   20.0645 O   0  0  0  0  0  0  0  0  0  0  0  0
  -31.8770  -14.9243   20.2027 O   0  0  0  0  0  0  0  0  0  0  0  0
  -21.6181   -7.0149   21.7075 O   0  0  0  0  0  0  0  0  0  0  0  0
  -36.6556  -16.7545   26.6859 O   0  0  0  0  0  0  0  0  0  1  0  0
  -34.4719  -16.2286   27.3507 O   0  0  0  0  0  0  0  0  0  0  0  0
  -18.6357   -6.8502   26.3424 F   0  0  0  0  0  0  0  0  0  0  0  0
  -22.0734   -5.0700   23.6186 F   0  0  0  0  0  0  0  0  0  0  0  0
  1  2  1  0  0  0  0
  1  5  2  0  0  0  0
  2  6  2  0  0  0  0
  3  9  2  0  0  0  0
  3 18  1  0  0  0  0
  4 10  1  0  0  0  0
  4 18  2  0  0  0  0
  5 20  1  0  0  0  0
  6 22  1  0  0  0  0
  7 11  2  0  0  0  0
  7 21  1  0  0  0  0
  8 12  2  0  0  0  0
  8 24  1  0  0  0  0
  9 26  1  0  0  0  0
 10 26  2  0  0  0  0
 11 27  1  0  0  0  0
 12 28  1  0  0  0  0
 13 14  2  0  0  0  0
 13 29  1  0  0  0  0
 14 30  1  0  0  0  0
 15 23  1  0  0  0  0
 15 27  2  0  0  0  0
 16 25  1  0  0  0  0
 16 28  2  0  0  0  0
 17 30  2  0  0  0  0
 17 31  1  0  0  0  0
 18 32  1  0  0  0  0
 19 32  1  0  0  0  0
 19 33  2  0  0  0  0
 19 34  1  0  0  0  0
 20 22  2  0  0  0  0
 20 39  1  0  0  0  0
 21 23  2  0  0  0  0
 21 40  1  0  0  0  0
 22 48  1  0  0  0  0
 23 41  1  0  0  0  0
 24 25  2  0  0  0  0
 24 51  1  0  0  0  0
 25 69  1  0  0  0  0
 26 79  1  0  0  0  0
 27 80  1  0  0  0  0
 28 81  1  0  0  0  0
 29 31  2  0  0  0  0
 29 79  1  0  0  0  0
 30 82  1  0  0  0  0
 31 83  1  0  0  0  0
 32 63  2  0  0  0  0
 33 64  1  0  0  0  0
 33 67  1  0  0  0  0
 34 68  1  0  0  0  0
 34 74  2  0  0  0  0
 35 49  1  0  0  0  0
 35 70  1  0  0  0  0
 35 75  2  0  0  0  0
 36 60  1  0  0  0  0
 36 65  1  0  0  0  0
 36 76  2  0  0  0  0
 37 61  1  0  0  0  0
 37 71  1  0  0  0  0
 37 77  2  0  0  0  0
 38 66  1  0  0  0  0
 38 72  1  0  0  0  0
 38 78  2  0  0  0  0
 39 42  1  0  0  0  0
 40 49  1  0  0  0  0
 41 65  1  0  0  0  0
 42 44  1  0  0  0  0
 43 45  1  0  0  0  0
 43 46  1  0  0  0  0
 44 48  1  0  0  0  0
 45 50  1  0  0  0  0
 46 66  1  0  0  0  0
 47 50  1  0  0  0  0
 47 66  1  0  0  0  0
 48 70  1  0  0  0  0
 49 65  1  0  0  0  0
 50 64  1  0  0  0  0
 52 61  1  0  0  0  0
 53 62  1  0  0  0  0
 54 62  1  0  0  0  0
 55 62  1  0  0  0  0
 56 73  1  0  0  0  0
 57 58  1  0  0  0  0
 57 69  1  0  0  0  0
 58 72  1  0  0  0  0
 59 80  1  0  0  0  0
 59 81  1  0  0  0  0
 60 62  1  0  0  0  0
 60 71  1  0  0  0  0
 61 73  1  0  0  0  0
 63 64  1  0  0  0  0
M  CHG  1  73   1
M  ISO  4  38 100  59 101  72 100  80 101
M  END
> <Batch ID>
0136

> <Smiles>
CNC(C)C(=O)NC(C(=O)N1Cc2cc([101O:1][101CH2:1]Oc3ccc(C)c(NCC[100NH:0][100C:0](=O)N4CCCC(n5nc(-c6ccc(Oc7ccc(F)cc7F)cc6)c(C(N)=O)c5N)C4)c3)ccc2CC1C(=O)NC1CCCc2ccccc21)C(C)(C)C

> <Shape>
0.163

> <Color>
0.191

> <Negative vol penalty>
0.000

$$$$

  -OEChem-04052321023D

 85 94  0     1  0  0  0  0  0999 V2000
  -27.6117  -35.1325   23.8535 C   0  0  0  0  0  0  0  0  0  0  0  0
  -28.3178  -33.9703   23.5599 C   0  0  0  0  0  0  0  0  0  0  0  0
  -23.4531  -11.3772   23.5580 C   0  0  0  0  0  0  0  0  0  0  0  0
  -24.6135  -13.3357   24.3673 C   0  0  0  0  0  0  0  0  0  0  0  0
  -26.2395  -35.0715   24.0927 C   0  0  0  0  0  0  0  0  0  0  0  0
  -27.6521  -32.7462   23.5064 C   0  0  0  0  0  0  0  0  0  0  0  0
  -31.2680  -20.5387   20.0548 C   0  0  0  0  0  0  0  0  0  0  0  0
  -31.0129  -20.7033   22.4517 C   0  0  0  0  0  0  0  0  0  0  0  0
  -28.8758  -28.0502   19.7706 C   0  0  0  0  0  0  0  0  0  0  0  0
  -30.3889  -21.6087   19.8877 C   0  0  0  0  0  0  0  0  0  0  0  0
  -30.1338  -21.7734   22.2846 C   0  0  0  0  0  0  0  0  0  0  0  0
  -22.9268  -11.1627   24.8318 C   0  0  0  0  0  0  0  0  0  0  0  0
  -24.0871  -13.1212   25.6411 C   0  0  0  0  0  0  0  0  0  0  0  0
  -29.5939  -26.8692   19.9527 C   0  0  0  0  0  0  0  0  0  0  0  0
  -21.1586  -13.6437   27.2447 C   0  0  0  0  0  0  0  0  0  0  0  0
  -20.6415  -14.7463   27.9248 C   0  0  0  0  0  0  0  0  0  0  0  0
  -27.5405  -25.7040   20.4478 C   0  0  0  0  0  0  0  0  0  0  0  0
  -22.2419  -14.4010   29.7015 C   0  0  0  0  0  0  0  0  0  0  0  0
  -24.2965  -12.4637   23.3258 C   0  0  0  0  0  0  0  0  0  0  0  0
  -24.1236  -12.9106   20.8202 C   0  0  0  0  0  0  0  0  0  0  0  0
  -31.5799  -20.0860   21.3368 C   0  0  0  0  0  0  0  0  0  0  0  0
  -25.5550  -33.8474   24.0327 C   0  0  0  0  0  0  0  0  0  0  0  0
  -27.4835  -28.0695   19.9366 C   0  0  0  0  0  0  0  0  0  0  0  0
  -26.2697  -32.6686   23.7464 C   0  0  0  0  0  0  0  0  0  0  0  0
  -26.8067  -26.8861   20.2646 C   0  0  0  0  0  0  0  0  0  0  0  0
  -29.8218  -22.2261   21.0026 C   0  0  0  0  0  0  0  0  0  0  0  0
  -23.2437  -12.0346   25.8733 C   0  0  0  0  0  0  0  0  0  0  0  0
  -28.9266  -25.6965   20.2942 C   0  0  0  0  0  0  0  0  0  0  0  0
  -22.2173  -12.9197   27.7931 C   0  0  0  0  0  0  0  0  0  0  0  0
  -21.1832  -15.1250   29.1531 C   0  0  0  0  0  0  0  0  0  0  0  0
  -22.7590  -13.2984   29.0214 C   0  0  0  0  0  0  0  0  0  0  0  0
  -24.8410  -12.6856   22.0103 C   0  0  0  0  0  0  0  0  0  0  0  0
  -25.0926  -13.0615   19.8585 C   0  0  0  0  0  0  0  0  0  0  0  0
  -22.7079  -12.9774   20.6033 C   0  0  0  0  0  0  0  0  0  0  0  0
  -25.4783  -29.5718   21.8926 C   0  0  0  0  0  0  0  0  0  0  0  0
  -23.2249  -28.2017   20.0038 C   0  0  0  0  0  0  0  0  0  0  0  0
  -22.3878  -25.6937   17.8460 C   0  0  0  0  0  0  0  0  0  0  0  0
  -30.8226  -14.7846   20.0788 C   0  0  0  0  0  0  0  0  0  0  0  0
  -24.0797  -33.8246   24.3452 C   0  0  0  0  0  0  0  0  0  0  0  0
  -26.7203  -29.3457   19.7103 C   0  0  0  0  0  0  0  0  0  0  0  0
  -25.3106  -26.8492   20.4347 C   0  0  0  0  0  0  0  0  0  0  0  0
  -23.3827  -32.5414   23.9005 C   0  0  0  0  0  0  0  0  0  0  0  0
  -29.5588  -11.7119   18.7989 C   0  0  0  0  0  0  0  0  0  0  0  0
  -24.1958  -31.3201   24.3176 C   0  0  0  0  0  0  0  0  0  0  0  0
  -28.1416  -11.6333   19.3694 C   0  0  0  0  0  0  0  0  0  0  0  0
  -33.5893  -18.8447   20.3845 C   0  0  0  0  0  0  0  0  0  0  0  0
  -30.5330  -12.3411   19.7924 C   0  0  0  0  0  0  0  0  0  0  0  0
  -28.7035  -13.5785   20.8858 C   0  0  0  0  0  0  0  0  0  0  0  0
  -34.7591  -18.0625   20.9584 C   0  0  0  0  0  0  0  0  0  0  0  0
  -33.4534  -19.0942   22.7525 C   0  0  0  0  0  0  0  0  0  0  0  0
  -25.5787  -31.3254   23.6549 C   0  0  1  0  0  0  0  0  0  0  0  0
  -25.3643  -29.3629   20.4090 C   0  0  1  0  0  0  0  0  0  0  0  0
  -27.6737  -13.0022   19.8991 C   0  0  2  0  0  0  0  0  0  0  0  0
  -32.5471  -18.9087   21.5215 C   0  0  1  0  0  0  0  0  0  0  0  0
  -20.4622  -24.8166   16.4970 C   0  0  0  0  0  0  0  0  0  0  0  0
  -21.9666  -27.0678   22.5418 C   0  0  0  0  0  0  0  0  0  0  0  0
  -20.6735  -25.4758   21.1059 C   0  0  0  0  0  0  0  0  0  0  0  0
  -20.3284  -27.9343   20.8625 C   0  0  0  0  0  0  0  0  0  0  0  0
  -23.8535  -26.0595   15.3010 C   0  0  0  0  0  0  0  0  0  0  0  0
  -28.8776  -23.3781   20.8221 C   0  0  0  0  0  0  0  0  0  1  0  0
  -31.8326  -17.5375   21.6327 C   0  0  0  0  0  0  0  0  0  0  0  0
  -30.9601  -17.2384   20.4238 C   0  0  0  0  0  0  0  0  0  0  0  0
  -22.4713  -26.8936   20.0157 C   0  0  1  0  0  0  0  0  0  0  0  0
  -21.6888  -25.7156   16.4987 C   0  0  2  0  0  0  0  0  0  0  0  0
  -21.3884  -26.8437   21.1302 C   0  0  0  0  0  0  0  0  0  0  0  0
  -26.1637  -12.6919   21.8242 N   0  0  0  0  0  0  0  0  0  0  0  0
  -26.2850  -12.9227   20.5058 N   0  0  0  0  0  0  0  0  0  0  0  0
  -24.6097  -28.1240   20.2090 N   0  0  0  0  0  0  0  0  0  0  0  0
  -30.0313  -13.6374   20.2547 N   0  0  0  0  0  0  0  0  0  0  0  0
  -25.0324  -13.2979   18.5308 N   0  0  0  0  0  0  0  0  0  0  0  0
  -21.8548  -12.8002   21.7011 N   0  0  0  0  0  0  0  0  0  0  0  0
  -25.4795  -30.8996   22.2753 N   0  0  0  0  0  0  0  0  0  0  0  0
  -21.9485  -26.7115   18.6659 N   0  0  0  0  0  0  0  0  0  0  0  0
  -30.2697  -15.9732   20.5394 N   0  0  0  0  0  0  0  0  0  0  0  0
  -34.6897  -18.2978   22.4380 N   0  3  0  0  0  0  0  0  0  0  0  0
  -22.6142  -25.2500   15.4273 N   0  3  0  0  0  0  0  0  0  0  0  0
  -22.2138  -13.1716   19.4669 O   0  0  0  0  0  0  0  0  0  0  0  0
  -25.5577  -28.6003   22.6352 O   0  0  0  0  0  0  0  0  0  0  0  0
  -22.6086  -29.2529   19.8123 O   0  0  0  0  0  0  0  0  0  0  0  0
  -23.2360  -24.8552   18.1428 O   0  0  0  0  0  0  0  0  0  0  0  0
  -31.9369  -14.7527   19.5456 O   0  0  0  0  0  0  0  0  0  0  0  0
  -22.7301  -11.8257   27.1164 O   0  0  0  0  0  0  0  0  0  0  0  0
  -29.6252  -24.5425   20.4732 O   0  0  0  0  0  0  0  0  0  1  0  0
  -20.6875  -16.1848   29.8053 F   0  0  0  0  0  0  0  0  0  0  0  0
  -23.7769  -12.6074   29.5527 F   0  0  0  0  0  0  0  0  0  0  0  0
  1  2  1  0  0  0  0
  1  5  2  0  0  0  0
  2  6  2  0  0  0  0
  3 12  2  0  0  0  0
  3 19  1  0  0  0  0
  4 13  1  0  0  0  0
  4 19  2  0  0  0  0
  5 22  1  0  0  0  0
  6 24  1  0  0  0  0
  7 10  2  0  0  0  0
  7 21  1  0  0  0  0
  8 11  1  0  0  0  0
  8 21  2  0  0  0  0
  9 14  2  0  0  0  0
  9 23  1  0  0  0  0
 10 26  1  0  0  0  0
 11 26  2  0  0  0  0
 12 27  1  0  0  0  0
 13 27  2  0  0  0  0
 14 28  1  0  0  0  0
 15 16  2  0  0  0  0
 15 29  1  0  0  0  0
 16 30  1  0  0  0  0
 17 25  1  0  0  0  0
 17 28  2  0  0  0  0
 18 30  2  0  0  0  0
 18 31  1  0  0  0  0
 19 32  1  0  0  0  0
 20 32  1  0  0  0  0
 20 33  2  0  0  0  0
 20 34  1  0  0  0  0
 21 54  1  0  0  0  0
 22 24  2  0  0  0  0
 22 39  1  0  0  0  0
 23 25  2  0  0  0  0
 23 40  1  0  0  0  0
 24 51  1  0  0  0  0
 25 41  1  0  0  0  0
 26 60  1  0  0  0  0
 27 82  1  0  0  0  0
 28 83  1  0  0  0  0
 29 31  2  0  0  0  0
 29 82  1  0  0  0  0
 30 84  1  0  0  0  0
 31 85  1  0  0  0  0
 32 66  2  0  0  0  0
 33 67  1  0  0  0  0
 33 70  1  0  0  0  0
 34 71  1  0  0  0  0
 34 77  2  0  0  0  0
 35 52  1  0  0  0  0
 35 72  1  0  0  0  0
 35 78  2  0  0  0  0
 36 63  1  0  0  0  0
 36 68  1  0  0  0  0
 36 79  2  0  0  0  0
 37 64  1  0  0  0  0
 37 73  1  0  0  0  0
 37 80  2  0  0  0  0
 38 69  1  0  0  0  0
 38 74  1  0  0  0  0
 38 81  2  0  0  0  0
 39 42  1  0  0  0  0
 40 52  1  0  0  0  0
 41 68  1  0  0  0  0
 42 44  1  0  0  0  0
 43 45  1  0  0  0  0
 43 47  1  0  0  0  0
 44 51  1  0  0  0  0
 45 53  1  0  0  0  0
 46 49  1  0  0  0  0
 46 54  1  0  0  0  0
 47 69  1  0  0  0  0
 48 53  1  0  0  0  0
 48 69  1  0  0  0  0
 49 75  1  0  0  0  0
 50 54  1  0  0  0  0
 50 75  1  0  0  0  0
 51 72  1  0  0  0  0
 52 68  1  0  0  0  0
 53 67  1  0  0  0  0
 54 61  1  0  0  0  0
 55 64  1  0  0  0  0
 56 65  1  0  0  0  0
 57 65  1  0  0  0  0
 58 65  1  0  0  0  0
 59 76  1  0  0  0  0
 60 83  1  0  0  0  0
 61 62  1  0  0  0  0
 62 74  1  0  0  0  0
 63 65  1  0  0  0  0
 63 73  1  0  0  0  0
 64 76  1  0  0  0  0
 66 67  1  0  0  0  0
M  CHG  2  75   1  76   1
M  ISO  4  38 100  60 101  74 100  83 101
M  END
> <Batch ID>
0136

> <Smiles>
CNC(C)C(=O)NC(C(=O)N1Cc2cc([101O:1][101CH2:1]c3ccc(C4(CC[100NH:0][100C:0](=O)N5CCCC(n6nc(-c7ccc(Oc8ccc(F)cc8F)cc7)c(C(N)=O)c6N)C5)CCNC4)cc3)ccc2CC1C(=O)NC1CCCc2ccccc21)C(C)(C)C

> <Shape>
0.251

> <Color>
0.087

> <Negative vol penalty>
0.000

$$$$

  -OEChem-04052321023D

 81 89  0     1  0  0  0  0  0999 V2000
  -27.9274  -33.2914   14.0197 C   0  0  0  0  0  0  0  0  0  0  0  0
  -28.1144  -31.9540   14.3538 C   0  0  0  0  0  0  0  0  0  0  0  0
  -22.8809  -10.1682   19.9718 C   0  0  0  0  0  0  0  0  0  0  0  0
  -23.8052   -9.8848   22.1859 C   0  0  0  0  0  0  0  0  0  0  0  0
  -27.4531  -34.1880   14.9763 C   0  0  0  0  0  0  0  0  0  0  0  0
  -27.8282  -31.5125   15.6452 C   0  0  0  0  0  0  0  0  0  0  0  0
  -25.5700  -26.0518   17.2533 C   0  0  0  0  0  0  0  0  0  0  0  0
  -29.2937  -21.1245   19.1821 C   0  0  0  0  0  0  0  0  0  0  0  0
  -27.1176  -20.6249   20.1050 C   0  0  0  0  0  0  0  0  0  0  0  0
  -29.8275  -20.0170   19.8410 C   0  0  0  0  0  0  0  0  0  0  0  0
  -27.6513  -19.5174   20.7640 C   0  0  0  0  0  0  0  0  0  0  0  0
  -22.0807   -9.0416   20.1616 C   0  0  0  0  0  0  0  0  0  0  0  0
  -23.0050   -8.7582   22.3757 C   0  0  0  0  0  0  0  0  0  0  0  0
  -26.1751  -24.8906   17.7323 C   0  0  0  0  0  0  0  0  0  0  0  0
  -23.0281   -5.5032   21.4615 C   0  0  0  0  0  0  0  0  0  0  0  0
  -23.6234   -4.3721   22.0198 C   0  0  0  0  0  0  0  0  0  0  0  0
  -25.6647  -25.5639   19.9918 C   0  0  0  0  0  0  0  0  0  0  0  0
  -22.0671   -4.4641   23.8655 C   0  0  0  0  0  0  0  0  0  0  0  0
  -23.7432  -10.5898   20.9839 C   0  0  0  0  0  0  0  0  0  0  0  0
  -24.2460  -13.0883   21.0948 C   0  0  0  0  0  0  0  0  0  0  0  0
  -27.1518  -33.7554   16.2773 C   0  0  0  0  0  0  0  0  0  0  0  0
  -25.0164  -26.9845   18.1421 C   0  0  0  0  0  0  0  0  0  0  0  0
  -27.3507  -32.4044   16.6205 C   0  0  0  0  0  0  0  0  0  0  0  0
  -25.0509  -26.7349   19.5214 C   0  0  0  0  0  0  0  0  0  0  0  0
  -27.9388  -21.4285   19.3141 C   0  0  0  0  0  0  0  0  0  0  0  0
  -29.0063  -19.2134   20.6319 C   0  0  0  0  0  0  0  0  0  0  0  0
  -22.1428   -8.3366   21.3635 C   0  0  0  0  0  0  0  0  0  0  0  0
  -26.2251  -24.6480   19.1019 C   0  0  0  0  0  0  0  0  0  0  0  0
  -21.9524   -6.1149   22.1052 C   0  0  0  0  0  0  0  0  0  0  0  0
  -23.1429   -3.8526   23.2218 C   0  0  0  0  0  0  0  0  0  0  0  0
  -21.4719   -5.5953   23.3072 C   0  0  0  0  0  0  0  0  0  0  0  0
  -24.5705  -11.7532   20.7882 C   0  0  0  0  0  0  0  0  0  0  0  0
  -25.3571  -13.8055   20.7237 C   0  0  0  0  0  0  0  0  0  0  0  0
  -23.0476  -13.6316   21.6642 C   0  0  0  0  0  0  0  0  0  0  0  0
  -25.5895  -30.0323   18.8395 C   0  0  0  0  0  0  0  0  0  0  0  0
  -22.9375  -29.7052   20.6785 C   0  0  0  0  0  0  0  0  0  0  0  0
  -20.8465  -27.6329   22.4050 C   0  0  0  0  0  0  0  0  0  0  0  0
  -30.8964  -14.4684   20.5765 C   0  0  0  0  0  0  0  0  0  0  0  0
  -26.6864  -34.7710   17.2906 C   0  0  0  0  0  0  0  0  0  0  0  0
  -24.3436  -28.2192   17.6080 C   0  0  0  0  0  0  0  0  0  0  0  0
  -24.4532  -27.6949   20.5163 C   0  0  0  0  0  0  0  0  0  0  0  0
  -26.0514  -34.1473   18.5307 C   0  0  0  0  0  0  0  0  0  0  0  0
  -29.4280  -12.4248   18.0577 C   0  0  0  0  0  0  0  0  0  0  0  0
  -26.9098  -32.9979   19.0493 C   0  0  0  0  0  0  0  0  0  0  0  0
  -28.0094  -12.1731   18.5719 C   0  0  0  0  0  0  0  0  0  0  0  0
  -30.4434  -12.4608   19.1978 C   0  0  0  0  0  0  0  0  0  0  0  0
  -28.7022  -13.1522   20.7990 C   0  0  0  0  0  0  0  0  0  0  0  0
  -27.0281  -31.8824   18.0038 C   0  0  1  0  0  0  0  0  0  0  0  0
  -24.2679  -29.3484   18.6311 C   0  0  1  0  0  0  0  0  0  0  0  0
  -27.6349  -13.1630   19.6913 C   0  0  2  0  0  0  0  0  0  0  0  0
  -18.7867  -27.6611   23.8381 C   0  0  0  0  0  0  0  0  0  0  0  0
  -24.5849  -30.7570   23.0215 C   0  0  0  0  0  0  0  0  0  0  0  0
  -22.8202  -29.8800   24.5657 C   0  0  0  0  0  0  0  0  0  0  0  0
  -22.2520  -31.6501   22.9024 C   0  0  0  0  0  0  0  0  0  0  0  0
  -19.3545  -25.9329   20.4964 C   0  0  0  0  0  0  0  0  0  0  0  0
  -27.3638  -22.6198   18.6060 C   0  0  0  0  0  0  0  0  0  1  0  0
  -30.9236  -17.7226   21.2037 C   0  0  0  0  0  0  0  0  0  0  0  0
  -31.1984  -16.4668   22.0168 C   0  0  0  0  0  0  0  0  0  0  0  0
  -22.6701  -29.2878   22.1045 C   0  0  1  0  0  0  0  0  0  0  0  0
  -19.3329  -27.5188   22.4259 C   0  0  2  0  0  0  0  0  0  0  0  0
  -23.0949  -30.3764   23.1302 C   0  0  0  0  0  0  0  0  0  0  0  0
  -25.7919  -11.6270   20.2627 N   0  0  0  0  0  0  0  0  0  0  0  0
  -26.2447  -12.8920   20.2361 N   0  0  0  0  0  0  0  0  0  0  0  0
  -23.8120  -28.8908   19.9453 N   0  0  0  0  0  0  0  0  0  0  0  0
  -30.0302  -13.4200   20.2250 N   0  0  0  0  0  0  0  0  0  0  0  0
  -25.6515  -15.1222   20.7702 N   0  0  0  0  0  0  0  0  0  0  0  0
  -22.0036  -12.7538   21.9868 N   0  0  0  0  0  0  0  0  0  0  0  0
  -29.5452  -18.0925   21.2968 N   0  0  0  0  0  0  0  0  0  0  0  0
  -25.8201  -31.0859   17.9756 N   0  0  0  0  0  0  0  0  0  0  0  0
  -21.2578  -28.9272   22.1663 N   0  0  0  0  0  0  0  0  0  0  0  0
  -30.4249  -15.3362   21.5539 N   0  0  0  0  0  0  0  0  0  0  0  0
  -18.9057  -26.1963   21.8878 N   0  3  0  0  0  0  0  0  0  0  0  0
  -22.9003  -14.8610   21.8653 O   0  0  0  0  0  0  0  0  0  0  0  0
  -26.3434  -29.6346   19.7199 O   0  0  0  0  0  0  0  0  0  0  0  0
  -22.3849  -30.7126   20.2296 O   0  0  0  0  0  0  0  0  0  0  0  0
  -21.5896  -26.6709   22.5861 O   0  0  0  0  0  0  0  0  0  0  0  0
  -32.0054  -14.6230   20.0538 O   0  0  0  0  0  0  0  0  0  0  0  0
  -21.3619   -7.2373   21.5492 O   0  0  0  0  0  0  0  0  0  0  0  0
  -26.8157  -23.5157   19.5721 O   0  0  0  0  0  0  0  0  0  1  0  0
  -23.7137   -2.7654   23.7571 F   0  0  0  0  0  0  0  0  0  0  0  0
  -20.4379   -6.1778   23.9296 F   0  0  0  0  0  0  0  0  0  0  0  0
  1  2  1  0  0  0  0
  1  5  2  0  0  0  0
  2  6  2  0  0  0  0
  3 12  2  0  0  0  0
  3 19  1  0  0  0  0
  4 13  1  0  0  0  0
  4 19  2  0  0  0  0
  5 21  1  0  0  0  0
  6 23  1  0  0  0  0
  7 14  2  0  0  0  0
  7 22  1  0  0  0  0
  8 10  2  0  0  0  0
  8 25  1  0  0  0  0
  9 11  1  0  0  0  0
  9 25  2  0  0  0  0
 10 26  1  0  0  0  0
 11 26  2  0  0  0  0
 12 27  1  0  0  0  0
 13 27  2  0  0  0  0
 14 28  1  0  0  0  0
 15 16  2  0  0  0  0
 15 29  1  0  0  0  0
 16 30  1  0  0  0  0
 17 24  1  0  0  0  0
 17 28  2  0  0  0  0
 18 30  2  0  0  0  0
 18 31  1  0  0  0  0
 19 32  1  0  0  0  0
 20 32  1  0  0  0  0
 20 33  2  0  0  0  0
 20 34  1  0  0  0  0
 21 23  2  0  0  0  0
 21 39  1  0  0  0  0
 22 24  2  0  0  0  0
 22 40  1  0  0  0  0
 23 48  1  0  0  0  0
 24 41  1  0  0  0  0
 25 56  1  0  0  0  0
 26 68  1  0  0  0  0
 27 78  1  0  0  0  0
 28 79  1  0  0  0  0
 29 31  2  0  0  0  0
 29 78  1  0  0  0  0
 30 80  1  0  0  0  0
 31 81  1  0  0  0  0
 32 62  2  0  0  0  0
 33 63  1  0  0  0  0
 33 66  1  0  0  0  0
 34 67  1  0  0  0  0
 34 73  2  0  0  0  0
 35 49  1  0  0  0  0
 35 69  1  0  0  0  0
 35 74  2  0  0  0  0
 36 59  1  0  0  0  0
 36 64  1  0  0  0  0
 36 75  2  0  0  0  0
 37 60  1  0  0  0  0
 37 70  1  0  0  0  0
 37 76  2  0  0  0  0
 38 65  1  0  0  0  0
 38 71  1  0  0  0  0
 38 77  2  0  0  0  0
 39 42  1  0  0  0  0
 40 49  1  0  0  0  0
 41 64  1  0  0  0  0
 42 44  1  0  0  0  0
 43 45  1  0  0  0  0
 43 46  1  0  0  0  0
 44 48  1  0  0  0  0
 45 50  1  0  0  0  0
 46 65  1  0  0  0  0
 47 50  1  0  0  0  0
 47 65  1  0  0  0  0
 48 69  1  0  0  0  0
 49 64  1  0  0  0  0
 50 63  1  0  0  0  0
 51 60  1  0  0  0  0
 52 61  1  0  0  0  0
 53 61  1  0  0  0  0
 54 61  1  0  0  0  0
 55 72  1  0  0  0  0
 56 79  1  0  0  0  0
 57 58  1  0  0  0  0
 57 68  1  0  0  0  0
 58 71  1  0  0  0  0
 59 61  1  0  0  0  0
 59 70  1  0  0  0  0
 60 72  1  0  0  0  0
 62 63  1  0  0  0  0
M  CHG  1  72   1
M  ISO  4  38 100  56 101  71 100  79 101
M  END
> <Batch ID>
0136

> <Smiles>
CNC(C)C(=O)NC(C(=O)N1Cc2cc([101O:1][101CH2:1]c3ccc(NCC[100NH:0][100C:0](=O)N4CCCC(n5nc(-c6ccc(Oc7ccc(F)cc7F)cc6)c(C(N)=O)c5N)C4)cc3)ccc2CC1C(=O)NC1CCCc2ccccc21)C(C)(C)C

> <Shape>
0.349

> <Color>
0.203

> <Negative vol penalty>
0.000

$$$$

  -OEChem-04052321023D

 89 98  0     1  0  0  0  0  0999 V2000
  -31.6754  -33.4964   20.1719 C   0  0  0  0  0  0  0  0  0  0  0  0
  -31.6546  -32.1061   20.1282 C   0  0  0  0  0  0  0  0  0  0  0  0
  -22.5908  -10.2471   20.0510 C   0  0  0  0  0  0  0  0  0  0  0  0
  -24.2138   -9.7617   21.7736 C   0  0  0  0  0  0  0  0  0  0  0  0
  -30.6874  -34.1855   20.8739 C   0  0  0  0  0  0  0  0  0  0  0  0
  -30.6463  -31.4039   20.7876 C   0  0  0  0  0  0  0  0  0  0  0  0
  -28.0325  -26.1635   18.9954 C   0  0  0  0  0  0  0  0  0  0  0  0
  -28.2794  -19.3625   23.4037 C   0  0  0  0  0  0  0  0  0  0  0  0
  -27.2492  -18.6669   21.3320 C   0  0  0  0  0  0  0  0  0  0  0  0
  -27.9064  -20.6816   23.1463 C   0  0  0  0  0  0  0  0  0  0  0  0
  -26.8761  -19.9861   21.0747 C   0  0  0  0  0  0  0  0  0  0  0  0
  -21.8989   -9.0798   20.3739 C   0  0  0  0  0  0  0  0  0  0  0  0
  -23.5219   -8.5944   22.0965 C   0  0  0  0  0  0  0  0  0  0  0  0
  -28.2466  -24.8354   19.3614 C   0  0  0  0  0  0  0  0  0  0  0  0
  -20.7544   -7.7424   23.8389 C   0  0  0  0  0  0  0  0  0  0  0  0
  -20.5392   -7.4712   25.1901 C   0  0  0  0  0  0  0  0  0  0  0  0
  -26.4338  -24.9861   20.9458 C   0  0  0  0  0  0  0  0  0  0  0  0
  -21.7670   -5.4021   24.9703 C   0  0  0  0  0  0  0  0  0  0  0  0
  -23.7483  -10.5880   20.7508 C   0  0  0  0  0  0  0  0  0  0  0  0
  -24.2687  -13.0764   20.9630 C   0  0  0  0  0  0  0  0  0  0  0  0
  -29.6609  -33.4918   21.5341 C   0  0  0  0  0  0  0  0  0  0  0  0
  -27.0228  -26.9175   19.6107 C   0  0  0  0  0  0  0  0  0  0  0  0
  -29.6444  -32.0843   21.5002 C   0  0  0  0  0  0  0  0  0  0  0  0
  -26.2072  -26.3228   20.5840 C   0  0  0  0  0  0  0  0  0  0  0  0
  -27.9509  -18.3551   22.4965 C   0  0  0  0  0  0  0  0  0  0  0  0
  -27.2047  -20.9935   21.9819 C   0  0  0  0  0  0  0  0  0  0  0  0
  -22.3644   -8.2535   21.3967 C   0  0  0  0  0  0  0  0  0  0  0  0
  -27.4491  -24.2473   20.3388 C   0  0  0  0  0  0  0  0  0  0  0  0
  -21.4759   -6.8434   23.0534 C   0  0  0  0  0  0  0  0  0  0  0  0
  -21.0455   -6.3011   25.7558 C   0  0  0  0  0  0  0  0  0  0  0  0
  -21.9822   -5.6733   23.6191 C   0  0  0  0  0  0  0  0  0  0  0  0
  -24.4638  -11.7934   20.4173 C   0  0  0  0  0  0  0  0  0  0  0  0
  -25.1893  -13.8668   20.3195 C   0  0  0  0  0  0  0  0  0  0  0  0
  -23.3385  -13.5144   21.9623 C   0  0  0  0  0  0  0  0  0  0  0  0
  -26.9580  -29.5497   21.3914 C   0  0  0  0  0  0  0  0  0  0  0  0
  -23.7467  -29.2073   21.0877 C   0  0  0  0  0  0  0  0  0  0  0  0
  -21.0958  -27.1381   20.5063 C   0  0  0  0  0  0  0  0  0  0  0  0
  -30.4201  -12.6897   17.6541 C   0  0  0  0  0  0  0  0  0  0  0  0
  -28.6417  -34.2785   22.3196 C   0  0  0  0  0  0  0  0  0  0  0  0
  -26.7872  -28.3409   19.1856 C   0  0  0  0  0  0  0  0  0  0  0  0
  -25.0967  -27.0829   21.2603 C   0  0  0  0  0  0  0  0  0  0  0  0
  -27.3954  -33.4732   22.6784 C   0  0  0  0  0  0  0  0  0  0  0  0
  -27.5690  -14.2359   16.1853 C   0  0  0  0  0  0  0  0  0  0  0  0
  -27.7842  -32.1044   23.2279 C   0  0  0  0  0  0  0  0  0  0  0  0
  -26.4323  -13.9010   17.1526 C   0  0  0  0  0  0  0  0  0  0  0  0
  -31.6484  -16.4387   20.9006 C   0  0  0  0  0  0  0  0  0  0  0  0
  -31.8016  -15.3464   23.1777 C   0  0  0  0  0  0  0  0  0  0  0  0
  -28.5633  -13.0834   16.0623 C   0  0  0  0  0  0  0  0  0  0  0  0
  -27.9738  -12.2633   18.3103 C   0  0  0  0  0  0  0  0  0  0  0  0
  -30.1401  -16.5715   21.0769 C   0  0  0  0  0  0  0  0  0  0  0  0
  -30.2922  -15.4880   23.3361 C   0  0  0  0  0  0  0  0  0  0  0  0
  -28.5530  -31.2880   22.1820 C   0  0  1  0  0  0  0  0  0  0  0  0
  -26.0654  -29.1690   20.2442 C   0  0  1  0  0  0  0  0  0  0  0  0
  -26.9757  -13.4166   18.5103 C   0  0  2  0  0  0  0  0  0  0  0  0
  -32.2519  -15.2986   21.7188 C   0  0  0  0  0  0  0  0  0  0  0  0
  -18.5906  -27.1399   20.3592 C   0  0  0  0  0  0  0  0  0  0  0  0
  -32.3999  -11.1182   20.3457 C   0  0  0  0  0  0  0  0  0  0  0  0
  -23.5704  -29.3415   24.1308 C   0  0  0  0  0  0  0  0  0  0  0  0
  -21.2547  -28.4038   23.9685 C   0  0  0  0  0  0  0  0  0  0  0  0
  -21.7820  -30.6076   22.9254 C   0  0  0  0  0  0  0  0  0  0  0  0
  -21.1452  -26.2500   17.6836 C   0  0  0  0  0  0  0  0  0  0  0  0
  -28.3493  -16.9445   22.7709 C   0  0  0  0  0  0  0  0  0  0  0  0
  -26.8023  -22.4125   21.7066 C   0  0  0  0  0  0  0  0  0  1  0  0
  -32.6084  -13.6231   19.9010 C   0  0  0  0  0  0  0  0  0  0  0  0
  -22.6696  -28.4907   21.8657 C   0  0  1  0  0  0  0  0  0  0  0  0
  -19.8946  -27.2736   19.5881 C   0  0  2  0  0  0  0  0  0  0  0  0
  -32.1681  -12.2621   19.3631 C   0  0  2  0  0  0  0  0  0  0  0  0
  -22.3413  -29.1969   23.2114 C   0  0  0  0  0  0  0  0  0  0  0  0
  -25.4322  -11.7660   19.4978 N   0  0  0  0  0  0  0  0  0  0  0  0
  -25.8537  -13.0415   19.4607 N   0  0  0  0  0  0  0  0  0  0  0  0
  -24.9099  -28.4737   20.8148 N   0  0  0  0  0  0  0  0  0  0  0  0
  -29.0416  -12.6728   17.3846 N   0  0  0  0  0  0  0  0  0  0  0  0
  -25.4871  -15.1804   20.4101 N   0  0  0  0  0  0  0  0  0  0  0  0
  -22.4637  -12.5719   22.5198 N   0  0  0  0  0  0  0  0  0  0  0  0
  -27.6419  -30.7355   21.2027 N   0  0  0  0  0  0  0  0  0  0  0  0
  -21.5300  -28.3643   20.9637 N   0  0  0  0  0  0  0  0  0  0  0  0
  -30.7878  -12.2917   18.9336 N   0  0  0  0  0  0  0  0  0  0  0  0
  -29.8136  -16.6833   22.5470 N   0  3  0  0  0  0  0  0  0  0  0  0
  -31.8462  -13.9943   21.1204 N   0  3  0  0  0  0  0  0  0  0  0  0
  -19.9272  -26.2209   18.5337 N   0  3  0  0  0  0  0  0  0  0  0  0
  -23.2734  -14.7096   22.3375 O   0  0  0  0  0  0  0  0  0  0  0  0
  -27.0204  -28.8222   22.3756 O   0  0  0  0  0  0  0  0  0  0  0  0
  -23.5598  -30.3726   20.7288 O   0  0  0  0  0  0  0  0  0  0  0  0
  -21.5964  -26.0527   20.7925 O   0  0  0  0  0  0  0  0  0  0  0  0
  -31.2604  -13.0390   16.8182 O   0  0  0  0  0  0  0  0  0  0  0  0
  -21.6894   -7.1145   21.7122 O   0  0  0  0  0  0  0  0  0  0  0  0
  -27.6564  -22.9513   20.6984 O   0  0  0  0  0  0  0  0  0  1  0  0
  -20.8401   -6.0415   27.0537 F   0  0  0  0  0  0  0  0  0  0  0  0
  -22.6771   -4.8064   22.8698 F   0  0  0  0  0  0  0  0  0  0  0  0
  1  2  1  0  0  0  0
  1  5  2  0  0  0  0
  2  6  2  0  0  0  0
  3 12  2  0  0  0  0
  3 19  1  0  0  0  0
  4 13  1  0  0  0  0
  4 19  2  0  0  0  0
  5 21  1  0  0  0  0
  6 23  1  0  0  0  0
  7 14  2  0  0  0  0
  7 22  1  0  0  0  0
  8 10  2  0  0  0  0
  8 25  1  0  0  0  0
  9 11  1  0  0  0  0
  9 25  2  0  0  0  0
 10 26  1  0  0  0  0
 11 26  2  0  0  0  0
 12 27  1  0  0  0  0
 13 27  2  0  0  0  0
 14 28  1  0  0  0  0
 15 16  2  0  0  0  0
 15 29  1  0  0  0  0
 16 30  1  0  0  0  0
 17 24  1  0  0  0  0
 17 28  2  0  0  0  0
 18 30  2  0  0  0  0
 18 31  1  0  0  0  0
 19 32  1  0  0  0  0
 20 32  1  0  0  0  0
 20 33  2  0  0  0  0
 20 34  1  0  0  0  0
 21 23  2  0  0  0  0
 21 39  1  0  0  0  0
 22 24  2  0  0  0  0
 22 40  1  0  0  0  0
 23 52  1  0  0  0  0
 24 41  1  0  0  0  0
 25 62  1  0  0  0  0
 26 63  1  0  0  0  0
 27 86  1  0  0  0  0
 28 87  1  0  0  0  0
 29 31  2  0  0  0  0
 29 86  1  0  0  0  0
 30 88  1  0  0  0  0
 31 89  1  0  0  0  0
 32 69  2  0  0  0  0
 33 70  1  0  0  0  0
 33 73  1  0  0  0  0
 34 74  1  0  0  0  0
 34 81  2  0  0  0  0
 35 53  1  0  0  0  0
 35 75  1  0  0  0  0
 35 82  2  0  0  0  0
 36 65  1  0  0  0  0
 36 71  1  0  0  0  0
 36 83  2  0  0  0  0
 37 66  1  0  0  0  0
 37 76  1  0  0  0  0
 37 84  2  0  0  0  0
 38 72  1  0  0  0  0
 38 77  1  0  0  0  0
 38 85  2  0  0  0  0
 39 42  1  0  0  0  0
 40 53  1  0  0  0  0
 41 71  1  0  0  0  0
 42 44  1  0  0  0  0
 43 45  1  0  0  0  0
 43 48  1  0  0  0  0
 44 52  1  0  0  0  0
 45 54  1  0  0  0  0
 46 50  1  0  0  0  0
 46 55  1  0  0  0  0
 47 51  1  0  0  0  0
 47 55  1  0  0  0  0
 48 72  1  0  0  0  0
 49 54  1  0  0  0  0
 49 72  1  0  0  0  0
 50 78  1  0  0  0  0
 51 78  1  0  0  0  0
 52 75  1  0  0  0  0
 53 71  1  0  0  0  0
 54 70  1  0  0  0  0
 55 79  1  0  0  0  0
 56 66  1  0  0  0  0
 57 67  1  0  0  0  0
 58 68  1  0  0  0  0
 59 68  1  0  0  0  0
 60 68  1  0  0  0  0
 61 80  1  0  0  0  0
 62 78  1  0  0  0  0
 63 87  1  0  0  0  0
 64 67  1  0  0  0  0
 64 79  1  0  0  0  0
 65 68  1  0  0  0  0
 65 76  1  0  0  0  0
 66 80  1  0  0  0  0
 67 77  1  0  0  0  0
 69 70  1  0  0  0  0
M  CHG  3  78   1  79   1  80   1
M  ISO  4  38 100  63 101  77 100  87 101
M  END
> <Batch ID>
0136

> <Smiles>
CNC(C)C(=O)NC(C(=O)N1Cc2cc([101O:1][101CH2:1]c3ccc(CN4CCC(NCC(C)[100NH:0][100C:0](=O)N5CCCC(n6nc(-c7ccc(Oc8ccc(F)cc8F)cc7)c(C(N)=O)c6N)C5)CC4)cc3)ccc2CC1C(=O)NC1CCCc2ccccc21)C(C)(C)C

> <Shape>
0.298

> <Color>
0.119

> <Negative vol penalty>
0.000

$$$$

  -OEChem-04052321023D

 83 91  0     1  0  0  0  0  0999 V2000
  -29.0286  -22.5564   18.6469 C   0  0  0  0  0  0  0  0  0  0  0  0
  -27.7915  -22.8528   19.2102 C   0  0  0  0  0  0  0  0  0  0  0  0
  -24.5390  -14.7125   18.7083 C   0  0  0  0  0  0  0  0  0  0  0  0
  -23.0690  -14.4579   20.6087 C   0  0  0  0  0  0  0  0  0  0  0  0
  -30.1731  -23.2141   19.0955 C   0  0  0  0  0  0  0  0  0  0  0  0
  -27.6985  -23.8064   20.2233 C   0  0  0  0  0  0  0  0  0  0  0  0
  -23.8224  -26.9932   19.5418 C   0  0  0  0  0  0  0  0  0  0  0  0
  -25.2052  -13.5406   19.0666 C   0  0  0  0  0  0  0  0  0  0  0  0
  -23.7352  -13.2859   20.9670 C   0  0  0  0  0  0  0  0  0  0  0  0
  -22.5502  -26.5284   19.8725 C   0  0  0  0  0  0  0  0  0  0  0  0
  -23.7742  -10.0490   19.9970 C   0  0  0  0  0  0  0  0  0  0  0  0
  -22.9974   -8.9485   20.3589 C   0  0  0  0  0  0  0  0  0  0  0  0
  -22.6709  -27.7097   21.9722 C   0  0  0  0  0  0  0  0  0  0  0  0
  -24.0378   -8.9310   22.5393 C   0  0  0  0  0  0  0  0  0  0  0  0
  -17.3212  -23.9768   22.4486 C   0  0  0  0  0  0  0  0  0  0  0  0
  -23.4709  -15.1712   19.4794 C   0  0  0  0  0  0  0  0  0  0  0  0
  -21.6654  -16.4999   18.2619 C   0  0  0  0  0  0  0  0  0  0  0  0
  -30.0927  -24.1832   20.1080 C   0  0  0  0  0  0  0  0  0  0  0  0
  -24.5340  -27.8123   20.4301 C   0  0  0  0  0  0  0  0  0  0  0  0
  -28.8433  -24.4768   20.6869 C   0  0  0  0  0  0  0  0  0  0  0  0
  -23.9509  -28.1857   21.6494 C   0  0  0  0  0  0  0  0  0  0  0  0
  -18.7212  -25.2270   20.9880 C   0  0  0  0  0  0  0  0  0  0  0  0
  -17.5836  -25.8309   20.4639 C   0  0  0  0  0  0  0  0  0  0  0  0
  -18.5961  -24.2812   21.9994 C   0  0  0  0  0  0  0  0  0  0  0  0
  -24.8033  -12.8273   20.1959 C   0  0  0  0  0  0  0  0  0  0  0  0
  -21.9755  -26.8842   21.0891 C   0  0  0  0  0  0  0  0  0  0  0  0
  -24.6830  -10.5905   20.9062 C   0  0  0  0  0  0  0  0  0  0  0  0
  -23.1291   -8.3895   21.6300 C   0  0  0  0  0  0  0  0  0  0  0  0
  -24.8147  -10.0315   22.1774 C   0  0  0  0  0  0  0  0  0  0  0  0
  -22.7827  -16.3820   19.1101 C   0  0  0  0  0  0  0  0  0  0  0  0
  -16.3540  -25.4569   20.9817 C   0  0  0  0  0  0  0  0  0  0  0  0
  -21.3955  -17.8463   18.2346 C   0  0  0  0  0  0  0  0  0  0  0  0
  -20.9365  -15.4831   17.5614 C   0  0  0  0  0  0  0  0  0  0  0  0
  -27.2834  -27.5562   22.0046 C   0  0  0  0  0  0  0  0  0  0  0  0
  -26.6467  -30.6275   22.8320 C   0  0  0  0  0  0  0  0  0  0  0  0
  -24.3205  -33.0830   23.2857 C   0  0  0  0  0  0  0  0  0  0  0  0
  -22.5284  -22.3103   22.0609 C   0  0  0  0  0  0  0  0  0  0  0  0
  -31.3641  -24.8337   20.5928 C   0  0  0  0  0  0  0  0  0  0  0  0
  -25.8943  -28.3272   20.0470 C   0  0  0  0  0  0  0  0  0  0  0  0
  -24.6649  -29.0793   22.6292 C   0  0  0  0  0  0  0  0  0  0  0  0
  -31.1266  -26.1009   21.4102 C   0  0  0  0  0  0  0  0  0  0  0  0
  -23.5379  -22.1038   18.6528 C   0  0  0  0  0  0  0  0  0  0  0  0
  -30.0305  -25.8707   22.4457 C   0  0  0  0  0  0  0  0  0  0  0  0
  -23.3580  -20.6246   18.3070 C   0  0  0  0  0  0  0  0  0  0  0  0
  -24.0257  -22.2927   20.0875 C   0  0  0  0  0  0  0  0  0  0  0  0
  -23.0232  -20.1467   20.7684 C   0  0  0  0  0  0  0  0  0  0  0  0
  -28.6982  -25.5229   21.7707 C   0  0  1  0  0  0  0  0  0  0  0  0
  -26.7390  -28.7359   21.2499 C   0  0  1  0  0  0  0  0  0  0  0  0
  -22.4789  -19.9079   19.3496 C   0  0  2  0  0  0  0  0  0  0  0  0
  -17.6845  -26.8491   19.3780 C   0  0  0  0  0  0  0  0  0  0  0  0
  -15.0967  -26.0710   20.4584 C   0  0  0  0  0  0  0  0  0  0  0  0
  -24.0980  -35.4774   24.0032 C   0  0  0  0  0  0  0  0  0  0  0  0
  -27.0051  -29.7859   25.7429 C   0  0  0  0  0  0  0  0  0  0  0  0
  -25.8643  -31.9079   26.4241 C   0  0  0  0  0  0  0  0  0  0  0  0
  -28.0158  -31.9992   25.1649 C   0  0  0  0  0  0  0  0  0  0  0  0
  -23.2200  -33.8890   20.6592 C   0  0  0  0  0  0  0  0  0  0  0  0
  -20.0775  -25.5954   20.4626 C   0  0  0  0  0  0  0  0  0  1  0  0
  -19.6166  -22.6654   23.6036 C   0  0  0  0  0  0  0  0  0  0  0  0
  -20.9966  -22.1703   24.0086 C   0  0  0  0  0  0  0  0  0  0  0  0
  -25.9049  -31.2982   23.9628 C   0  0  1  0  0  0  0  0  0  0  0  0
  -24.2808  -34.5298   22.8278 C   0  0  2  0  0  0  0  0  0  0  0  0
  -26.6846  -31.2294   25.3063 C   0  0  0  0  0  0  0  0  0  0  0  0
  -16.1929  -24.5423   21.9640 N   0  0  0  0  0  0  0  0  0  0  0  0
  -23.1945  -17.5597   19.5870 N   0  0  0  0  0  0  0  0  0  0  0  0
  -22.3314  -18.4304   19.0366 N   0  0  0  0  0  0  0  0  0  0  0  0
  -25.9953  -29.5519   22.2117 N   0  0  0  0  0  0  0  0  0  0  0  0
  -23.1480  -21.5899   21.0265 N   0  0  0  0  0  0  0  0  0  0  0  0
  -20.4514  -18.5758   17.6030 N   0  0  0  0  0  0  0  0  0  0  0  0
  -21.3479  -14.1505   17.7001 N   0  0  0  0  0  0  0  0  0  0  0  0
  -19.7161  -23.6430   22.5613 N   0  0  0  0  0  0  0  0  0  0  0  0
  -28.0726  -26.7162   21.2424 N   0  0  0  0  0  0  0  0  0  0  0  0
  -25.6114  -32.6540   23.5111 N   0  0  0  0  0  0  0  0  0  0  0  0
  -21.7077  -21.5691   22.9023 N   0  0  0  0  0  0  0  0  0  0  0  0
  -23.1547  -34.7407   21.8747 N   0  3  0  0  0  0  0  0  0  0  0  0
  -19.9598  -15.7503   16.8210 O   0  0  0  0  0  0  0  0  0  0  0  0
  -27.0090  -27.4191   23.1910 O   0  0  0  0  0  0  0  0  0  0  0  0
  -27.7600  -31.0470   22.5061 O   0  0  0  0  0  0  0  0  0  0  0  0
  -23.3075  -32.4027   23.4325 O   0  0  0  0  0  0  0  0  0  0  0  0
  -22.6900  -23.5251   22.2195 O   0  0  0  0  0  0  0  0  0  0  0  0
  -25.4530  -11.6835   20.5457 O   0  0  0  0  0  0  0  0  0  0  0  0
  -20.7342  -26.4314   21.4146 O   0  0  0  0  0  0  0  0  0  1  0  0
  -22.3819   -7.3337   21.9780 F   0  0  0  0  0  0  0  0  0  0  0  0
  -25.6852  -10.5481   23.0556 F   0  0  0  0  0  0  0  0  0  0  0  0
  1  2  1  0  0  0  0
  1  5  2  0  0  0  0
  2  6  2  0  0  0  0
  3  8  2  0  0  0  0
  3 16  1  0  0  0  0
  4  9  1  0  0  0  0
  4 16  2  0  0  0  0
  5 18  1  0  0  0  0
  6 20  1  0  0  0  0
  7 10  2  0  0  0  0
  7 19  1  0  0  0  0
  8 25  1  0  0  0  0
  9 25  2  0  0  0  0
 10 26  1  0  0  0  0
 11 12  2  0  0  0  0
 11 27  1  0  0  0  0
 12 28  1  0  0  0  0
 13 21  1  0  0  0  0
 13 26  2  0  0  0  0
 14 28  2  0  0  0  0
 14 29  1  0  0  0  0
 15 24  2  0  0  0  0
 15 63  1  0  0  0  0
 16 30  1  0  0  0  0
 17 30  1  0  0  0  0
 17 32  2  0  0  0  0
 17 33  1  0  0  0  0
 18 20  2  0  0  0  0
 18 38  1  0  0  0  0
 19 21  2  0  0  0  0
 19 39  1  0  0  0  0
 20 47  1  0  0  0  0
 21 40  1  0  0  0  0
 22 23  2  0  0  0  0
 22 24  1  0  0  0  0
 22 57  1  0  0  0  0
 23 31  1  0  0  0  0
 23 50  1  0  0  0  0
 24 70  1  0  0  0  0
 25 80  1  0  0  0  0
 26 81  1  0  0  0  0
 27 29  2  0  0  0  0
 27 80  1  0  0  0  0
 28 82  1  0  0  0  0
 29 83  1  0  0  0  0
 30 64  2  0  0  0  0
 31 51  1  0  0  0  0
 31 63  2  0  0  0  0
 32 65  1  0  0  0  0
 32 68  1  0  0  0  0
 33 69  1  0  0  0  0
 33 75  2  0  0  0  0
 34 48  1  0  0  0  0
 34 71  1  0  0  0  0
 34 76  2  0  0  0  0
 35 60  1  0  0  0  0
 35 66  1  0  0  0  0
 35 77  2  0  0  0  0
 36 61  1  0  0  0  0
 36 72  1  0  0  0  0
 36 78  2  0  0  0  0
 37 67  1  0  0  0  0
 37 73  1  0  0  0  0
 37 79  2  0  0  0  0
 38 41  1  0  0  0  0
 39 48  1  0  0  0  0
 40 66  1  0  0  0  0
 41 43  1  0  0  0  0
 42 44  1  0  0  0  0
 42 45  1  0  0  0  0
 43 47  1  0  0  0  0
 44 49  1  0  0  0  0
 45 67  1  0  0  0  0
 46 49  1  0  0  0  0
 46 67  1  0  0  0  0
 47 71  1  0  0  0  0
 48 66  1  0  0  0  0
 49 65  1  0  0  0  0
 52 61  1  0  0  0  0
 53 62  1  0  0  0  0
 54 62  1  0  0  0  0
 55 62  1  0  0  0  0
 56 74  1  0  0  0  0
 57 81  1  0  0  0  0
 58 59  1  0  0  0  0
 58 70  1  0  0  0  0
 59 73  1  0  0  0  0
 60 62  1  0  0  0  0
 60 72  1  0  0  0  0
 61 74  1  0  0  0  0
 64 65  1  0  0  0  0
M  CHG  1  74   1
M  ISO  4  37 100  57 101  73 100  81 101
M  END
> <Batch ID>
0136

> <Smiles>
CNC(C)C(=O)NC(C(=O)N1Cc2cc([101O:1][101CH2:1]c3c(NCC[100NH:0][100C:0](=O)N4CCCC(n5nc(-c6ccc(Oc7ccc(F)cc7F)cc6)c(C(N)=O)c5N)C4)cnc(C)c3C)ccc2CC1C(=O)NC1CCCc2ccccc21)C(C)(C)C

> <Shape>
0.216

> <Color>
0.062

> <Negative vol penalty>
0.000

$$$$

  -OEChem-04052321023D

 88 97  0     1  0  0  0  0  0999 V2000
  -26.7494  -38.4045   25.9332 C   0  0  0  0  0  0  0  0  0  0  0  0
  -25.9486  -37.5059   26.6308 C   0  0  0  0  0  0  0  0  0  0  0  0
  -23.0086   -9.8527   20.9219 C   0  0  0  0  0  0  0  0  0  0  0  0
  -23.7950  -10.4407   23.1294 C   0  0  0  0  0  0  0  0  0  0  0  0
  -26.9013  -38.2753   24.5533 C   0  0  0  0  0  0  0  0  0  0  0  0
  -25.2984  -36.4782   25.9487 C   0  0  0  0  0  0  0  0  0  0  0  0
  -25.5762  -28.7557   27.0948 C   0  0  0  0  0  0  0  0  0  0  0  0
  -22.2437   -8.8225   21.4688 C   0  0  0  0  0  0  0  0  0  0  0  0
  -23.0300   -9.4105   23.6763 C   0  0  0  0  0  0  0  0  0  0  0  0
  -25.6663  -27.3636   27.0987 C   0  0  0  0  0  0  0  0  0  0  0  0
  -20.3632   -5.8087   22.2463 C   0  0  0  0  0  0  0  0  0  0  0  0
  -20.3940   -4.5679   21.6099 C   0  0  0  0  0  0  0  0  0  0  0  0
  -25.1133  -27.3105   24.7452 C   0  0  0  0  0  0  0  0  0  0  0  0
  -22.7786   -4.4390   21.9764 C   0  0  0  0  0  0  0  0  0  0  0  0
  -23.7844  -10.6618   21.7522 C   0  0  0  0  0  0  0  0  0  0  0  0
  -24.1777  -13.0593   20.9745 C   0  0  0  0  0  0  0  0  0  0  0  0
  -26.2603  -37.2397   23.8553 C   0  0  0  0  0  0  0  0  0  0  0  0
  -25.2691  -29.4323   25.9110 C   0  0  0  0  0  0  0  0  0  0  0  0
  -25.4408  -36.3358   24.5579 C   0  0  0  0  0  0  0  0  0  0  0  0
  -25.0339  -28.7056   24.7323 C   0  0  0  0  0  0  0  0  0  0  0  0
  -22.2543   -8.6014   22.8460 C   0  0  0  0  0  0  0  0  0  0  0  0
  -25.4352  -26.6428   25.9269 C   0  0  0  0  0  0  0  0  0  0  0  0
  -21.5402   -6.3647   22.7477 C   0  0  0  0  0  0  0  0  0  0  0  0
  -21.6017   -3.8830   21.4750 C   0  0  0  0  0  0  0  0  0  0  0  0
  -22.7478   -5.6799   22.6128 C   0  0  0  0  0  0  0  0  0  0  0  0
  -24.5752  -11.7258   21.1878 C   0  0  0  0  0  0  0  0  0  0  0  0
  -25.2811  -13.6622   20.4217 C   0  0  0  0  0  0  0  0  0  0  0  0
  -22.9233  -13.6960   21.2513 C   0  0  0  0  0  0  0  0  0  0  0  0
  -24.7093  -32.7304   24.2126 C   0  0  0  0  0  0  0  0  0  0  0  0
  -26.3069  -30.9833   22.2617 C   0  0  0  0  0  0  0  0  0  0  0  0
  -28.4166  -28.8951   20.5808 C   0  0  0  0  0  0  0  0  0  0  0  0
  -30.7868  -14.5671   20.3060 C   0  0  0  0  0  0  0  0  0  0  0  0
  -26.4168  -37.1687   22.3569 C   0  0  0  0  0  0  0  0  0  0  0  0
  -25.1010  -30.9270   25.8742 C   0  0  0  0  0  0  0  0  0  0  0  0
  -24.6724  -29.4735   23.4903 C   0  0  0  0  0  0  0  0  0  0  0  0
  -25.9936  -35.8276   21.7631 C   0  0  0  0  0  0  0  0  0  0  0  0
  -29.5718  -11.6692   18.6318 C   0  0  0  0  0  0  0  0  0  0  0  0
  -24.6508  -35.3889   22.3387 C   0  0  0  0  0  0  0  0  0  0  0  0
  -31.3429  -19.1444   19.7330 C   0  0  0  0  0  0  0  0  0  0  0  0
  -31.1984  -19.1016   22.2559 C   0  0  0  0  0  0  0  0  0  0  0  0
  -28.1337  -11.5323   19.1347 C   0  0  0  0  0  0  0  0  0  0  0  0
  -30.6562  -17.7798   19.6683 C   0  0  0  0  0  0  0  0  0  0  0  0
  -30.5122  -17.7365   22.1957 C   0  0  0  0  0  0  0  0  0  0  0  0
  -27.9715  -23.8103   23.4883 C   0  0  0  0  0  0  0  0  0  0  0  0
  -25.8035  -22.5008   23.4096 C   0  0  0  0  0  0  0  0  0  0  0  0
  -27.4617  -24.5746   24.7076 C   0  0  0  0  0  0  0  0  0  0  0  0
  -25.2988  -23.2687   24.6289 C   0  0  0  0  0  0  0  0  0  0  0  0
  -30.5073  -12.1746   19.7280 C   0  0  0  0  0  0  0  0  0  0  0  0
  -28.6375  -13.2865   20.8862 C   0  0  0  0  0  0  0  0  0  0  0  0
  -24.7390  -35.1929   23.8570 C   0  0  1  0  0  0  0  0  0  0  0  0
  -25.5784  -31.5555   24.5527 C   0  0  1  0  0  0  0  0  0  0  0  0
  -30.9769  -19.9442   20.9915 C   0  0  0  0  0  0  0  0  0  0  0  0
  -27.6463  -12.8331   19.8007 C   0  0  2  0  0  0  0  0  0  0  0  0
  -30.9121  -16.9640   20.9374 C   0  0  0  0  0  0  0  0  0  0  0  0
  -27.3290  -22.4270   23.4076 C   0  0  0  0  0  0  0  0  0  0  0  0
  -25.9359  -24.6551   24.7262 C   0  0  0  0  0  0  0  0  0  1  0  0
  -30.2525  -22.5929   19.6303 C   0  0  0  0  0  0  0  0  0  0  0  0
  -29.7293  -28.7193   18.4493 C   0  0  0  0  0  0  0  0  0  0  0  0
  -23.7375  -30.3777   20.7336 C   0  0  0  0  0  0  0  0  0  0  0  0
  -25.1337  -29.3124   18.9492 C   0  0  0  0  0  0  0  0  0  0  0  0
  -25.4101  -31.7372   19.4654 C   0  0  0  0  0  0  0  0  0  0  0  0
  -30.9840  -28.7093   22.0413 C   0  0  0  0  0  0  0  0  0  0  0  0
  -29.3846  -21.3429   19.6455 C   0  0  0  0  0  0  0  0  0  0  0  0
  -29.1543  -21.2034   22.2202 C   0  0  0  0  0  0  0  0  0  0  0  0
  -26.2664  -30.0152   21.1066 C   0  0  1  0  0  0  0  0  0  0  0  0
  -29.7557  -29.1422   19.9099 C   0  0  2  0  0  0  0  0  0  0  0  0
  -29.5485  -20.4907   20.9191 C   0  0  2  0  0  0  0  0  0  0  0  0
  -25.1385  -30.3516   20.0906 C   0  0  0  0  0  0  0  0  0  0  0  0
  -25.8329  -11.4946   20.8019 N   0  0  0  0  0  0  0  0  0  0  0  0
  -26.2351  -12.6910   20.3404 N   0  0  0  0  0  0  0  0  0  0  0  0
  -25.5187  -30.6716   23.3762 N   0  0  0  0  0  0  0  0  0  0  0  0
  -29.9887  -13.4113   20.3175 N   0  0  0  0  0  0  0  0  0  0  0  0
  -25.5185  -14.9232   20.0021 N   0  0  0  0  0  0  0  0  0  0  0  0
  -21.8965  -12.9303   21.8202 N   0  0  0  0  0  0  0  0  0  0  0  0
  -25.3843  -33.9353   24.1676 N   0  0  0  0  0  0  0  0  0  0  0  0
  -27.6070  -30.0101   20.5310 N   0  0  0  0  0  0  0  0  0  0  0  0
  -30.2171  -15.6973   20.8794 N   0  0  0  0  0  0  0  0  0  0  0  0
  -27.7771  -21.7604   22.1562 N   0  3  0  0  0  0  0  0  0  0  0  0
  -30.8308  -28.3762   20.6016 N   0  3  0  0  0  0  0  0  0  0  0  0
  -22.7136  -14.9041   20.9863 O   0  0  0  0  0  0  0  0  0  0  0  0
  -23.5141  -32.5577   24.0044 O   0  0  0  0  0  0  0  0  0  0  0  0
  -27.0128  -31.9923   22.1786 O   0  0  0  0  0  0  0  0  0  0  0  0
  -28.1172  -27.8193   21.0942 O   0  0  0  0  0  0  0  0  0  0  0  0
  -31.9209  -14.5916   19.8158 O   0  0  0  0  0  0  0  0  0  0  0  0
  -21.5078   -7.5963   23.3800 O   0  0  0  0  0  0  0  0  0  0  0  0
  -25.5292  -25.2842   25.9367 O   0  0  0  0  0  0  0  0  0  1  0  0
  -21.6308   -2.6908   20.8652 F   0  0  0  0  0  0  0  0  0  0  0  0
  -23.8815   -6.2085   23.0936 F   0  0  0  0  0  0  0  0  0  0  0  0
  1  2  1  0  0  0  0
  1  5  2  0  0  0  0
  2  6  2  0  0  0  0
  3  8  2  0  0  0  0
  3 15  1  0  0  0  0
  4  9  1  0  0  0  0
  4 15  2  0  0  0  0
  5 17  1  0  0  0  0
  6 19  1  0  0  0  0
  7 10  2  0  0  0  0
  7 18  1  0  0  0  0
  8 21  1  0  0  0  0
  9 21  2  0  0  0  0
 10 22  1  0  0  0  0
 11 12  2  0  0  0  0
 11 23  1  0  0  0  0
 12 24  1  0  0  0  0
 13 20  1  0  0  0  0
 13 22  2  0  0  0  0
 14 24  2  0  0  0  0
 14 25  1  0  0  0  0
 15 26  1  0  0  0  0
 16 26  1  0  0  0  0
 16 27  2  0  0  0  0
 16 28  1  0  0  0  0
 17 19  2  0  0  0  0
 17 33  1  0  0  0  0
 18 20  2  0  0  0  0
 18 34  1  0  0  0  0
 19 50  1  0  0  0  0
 20 35  1  0  0  0  0
 21 85  1  0  0  0  0
 22 86  1  0  0  0  0
 23 25  2  0  0  0  0
 23 85  1  0  0  0  0
 24 87  1  0  0  0  0
 25 88  1  0  0  0  0
 26 69  2  0  0  0  0
 27 70  1  0  0  0  0
 27 73  1  0  0  0  0
 28 74  1  0  0  0  0
 28 80  2  0  0  0  0
 29 51  1  0  0  0  0
 29 75  1  0  0  0  0
 29 81  2  0  0  0  0
 30 65  1  0  0  0  0
 30 71  1  0  0  0  0
 30 82  2  0  0  0  0
 31 66  1  0  0  0  0
 31 76  1  0  0  0  0
 31 83  2  0  0  0  0
 32 72  1  0  0  0  0
 32 77  1  0  0  0  0
 32 84  2  0  0  0  0
 33 36  1  0  0  0  0
 34 51  1  0  0  0  0
 35 71  1  0  0  0  0
 36 38  1  0  0  0  0
 37 41  1  0  0  0  0
 37 48  1  0  0  0  0
 38 50  1  0  0  0  0
 39 42  1  0  0  0  0
 39 52  1  0  0  0  0
 40 43  1  0  0  0  0
 40 52  1  0  0  0  0
 41 53  1  0  0  0  0
 42 54  1  0  0  0  0
 43 54  1  0  0  0  0
 44 46  1  0  0  0  0
 44 55  1  0  0  0  0
 45 47  1  0  0  0  0
 45 55  1  0  0  0  0
 46 56  1  0  0  0  0
 47 56  1  0  0  0  0
 48 72  1  0  0  0  0
 49 53  1  0  0  0  0
 49 72  1  0  0  0  0
 50 75  1  0  0  0  0
 51 71  1  0  0  0  0
 52 67  1  0  0  0  0
 53 70  1  0  0  0  0
 54 77  1  0  0  0  0
 55 78  1  0  0  0  0
 56 86  1  0  0  0  0
 57 63  1  0  0  0  0
 58 66  1  0  0  0  0
 59 68  1  0  0  0  0
 60 68  1  0  0  0  0
 61 68  1  0  0  0  0
 62 79  1  0  0  0  0
 63 67  1  0  0  0  0
 64 67  1  0  0  0  0
 64 78  1  0  0  0  0
 65 68  1  0  0  0  0
 65 76  1  0  0  0  0
 66 79  1  0  0  0  0
 69 70  1  0  0  0  0
M  CHG  2  78   1  79   1
M  ISO  4  32 100  56 101  77 100  86 101
M  END
> <Batch ID>
0136

> <Smiles>
CCC(CNC1CC[101CH:1]([101O:1]c2ccc3c(c2)CN(C(=O)C(NC(=O)C(C)NC)C(C)(C)C)C(C(=O)NC2CCCc4ccccc42)C3)CC1)C1CCC([100NH:0][100C:0](=O)N2CCCC(n3nc(-c4ccc(Oc5ccc(F)cc5F)cc4)c(C(N)=O)c3N)C2)CC1

> <Shape>
0.355

> <Color>
0.187

> <Negative vol penalty>
0.000

$$$$

  -OEChem-04052321023D

 84 93  0     1  0  0  0  0  0999 V2000
  -21.5996  -12.7804   19.5811 C   0  0  0  0  0  0  0  0  0  0  0  0
  -21.6698  -14.0152   20.2182 C   0  0  0  0  0  0  0  0  0  0  0  0
  -28.2804  -28.0767   16.0932 C   0  0  0  0  0  0  0  0  0  0  0  0
  -30.0535  -28.3629   17.7092 C   0  0  0  0  0  0  0  0  0  0  0  0
  -22.7359  -11.9774   19.4925 C   0  0  0  0  0  0  0  0  0  0  0  0
  -22.8763  -14.4471   20.7682 C   0  0  0  0  0  0  0  0  0  0  0  0
  -23.8846  -19.2889   19.6795 C   0  0  0  0  0  0  0  0  0  0  0  0
  -20.9270  -23.9334   22.8582 C   0  0  0  0  0  0  0  0  0  0  0  0
  -20.5005  -25.1738   22.3839 C   0  0  0  0  0  0  0  0  0  0  0  0
  -29.1825  -28.3264   15.0591 C   0  0  0  0  0  0  0  0  0  0  0  0
  -30.9557  -28.6126   16.6750 C   0  0  0  0  0  0  0  0  0  0  0  0
  -23.2091  -20.2611   20.4160 C   0  0  0  0  0  0  0  0  0  0  0  0
  -31.5878  -26.6356   13.3892 C   0  0  0  0  0  0  0  0  0  0  0  0
  -31.5488  -25.7939   12.2776 C   0  0  0  0  0  0  0  0  0  0  0  0
  -25.1584  -20.5532   21.8068 C   0  0  0  0  0  0  0  0  0  0  0  0
  -22.4484  -25.0368   24.3763 C   0  0  0  0  0  0  0  0  0  0  0  0
  -31.0563  -27.6879   10.8608 C   0  0  0  0  0  0  0  0  0  0  0  0
  -28.7159  -28.0950   17.4183 C   0  0  0  0  0  0  0  0  0  0  0  0
  -27.4673  -26.5897   19.0563 C   0  0  0  0  0  0  0  0  0  0  0  0
  -23.9591  -12.4039   20.0332 C   0  0  0  0  0  0  0  0  0  0  0  0
  -25.2005  -18.9332   20.0085 C   0  0  0  0  0  0  0  0  0  0  0  0
  -24.0297  -13.6483   20.6879 C   0  0  0  0  0  0  0  0  0  0  0  0
  -25.8492  -19.5780   21.0713 C   0  0  0  0  0  0  0  0  0  0  0  0
  -21.9009  -23.8648   23.8544 C   0  0  0  0  0  0  0  0  0  0  0  0
  -21.0481  -26.3458   22.9057 C   0  0  0  0  0  0  0  0  0  0  0  0
  -22.0220  -26.2773   23.9019 C   0  0  0  0  0  0  0  0  0  0  0  0
  -30.5201  -28.5943   15.3500 C   0  0  0  0  0  0  0  0  0  0  0  0
  -23.8450  -20.8913   21.4816 C   0  0  0  0  0  0  0  0  0  0  0  0
  -31.3609  -28.0034   13.2367 C   0  0  0  0  0  0  0  0  0  0  0  0
  -31.2831  -26.3201   11.0134 C   0  0  0  0  0  0  0  0  0  0  0  0
  -31.0952  -28.5296   11.9725 C   0  0  0  0  0  0  0  0  0  0  0  0
  -27.7844  -27.8376   18.4870 C   0  0  0  0  0  0  0  0  0  0  0  0
  -26.5384  -26.8805   20.0253 C   0  0  0  0  0  0  0  0  0  0  0  0
  -27.9677  -25.2845   18.7376 C   0  0  0  0  0  0  0  0  0  0  0  0
  -26.6287  -16.2599   20.9665 C   0  0  0  0  0  0  0  0  0  0  0  0
  -29.3208  -18.0367   20.6228 C   0  0  0  0  0  0  0  0  0  0  0  0
  -30.7576  -21.1308   20.5280 C   0  0  0  0  0  0  0  0  0  0  0  0
  -22.0306  -29.5642   21.7829 C   0  0  0  0  0  0  0  0  0  0  0  0
  -25.1490  -11.4804   19.9544 C   0  0  0  0  0  0  0  0  0  0  0  0
  -25.9245  -17.9016   19.1875 C   0  0  0  0  0  0  0  0  0  0  0  0
  -27.2682  -19.2468   21.4523 C   0  0  0  0  0  0  0  0  0  0  0  0
  -26.4790  -12.1754   20.2340 C   0  0  0  0  0  0  0  0  0  0  0  0
  -25.0617  -31.2965   21.9691 C   0  0  0  0  0  0  0  0  0  0  0  0
  -26.3702  -13.0571   21.4740 C   0  0  0  0  0  0  0  0  0  0  0  0
  -26.0191  -30.4656   21.1173 C   0  0  0  0  0  0  0  0  0  0  0  0
  -20.5752  -27.7010   19.1687 C   0  0  0  0  0  0  0  0  0  0  0  0
  -21.8514  -28.4516   18.9312 C   0  0  0  0  0  0  0  0  0  0  0  0
  -23.6788  -31.3535   21.3323 C   0  0  0  0  0  0  0  0  0  0  0  0
  -24.0173  -29.1514   20.2511 C   0  0  0  0  0  0  0  0  0  0  0  0
  -25.3262  -14.1625   21.2751 C   0  0  1  0  0  0  0  0  0  0  0  0
  -27.0853  -17.2511   19.9337 C   0  0  1  0  0  0  0  0  0  0  0  0
  -25.4381  -29.0679   20.8461 C   0  0  1  0  0  0  0  0  0  0  0  0
  -21.6811  -27.6406   20.1865 C   0  0  0  0  0  0  0  0  0  0  0  0
  -22.6227  -27.5187   24.4754 C   0  0  0  0  0  0  0  0  0  0  0  0
  -32.5540  -22.8553   20.2182 C   0  0  0  0  0  0  0  0  0  0  0  0
  -30.0346  -17.2826   23.4919 C   0  0  0  0  0  0  0  0  0  0  0  0
  -31.7025  -19.1497   23.4939 C   0  0  0  0  0  0  0  0  0  0  0  0
  -31.9594  -17.2518   21.8955 C   0  0  0  0  0  0  0  0  0  0  0  0
  -30.1915  -21.3685   17.6329 C   0  0  0  0  0  0  0  0  0  0  0  0
  -22.3626  -22.5223   24.3672 C   0  0  0  0  0  0  0  0  0  0  0  0
  -20.5765  -27.6623   22.3813 C   0  0  0  0  0  0  0  0  0  0  0  0
  -23.5466  -21.9758   23.5770 C   0  0  0  0  0  0  0  0  0  1  0  0
  -30.1222  -18.9478   21.5208 C   0  0  1  0  0  0  0  0  0  0  0  0
  -31.7400  -21.7558   19.5540 C   0  0  2  0  0  0  0  0  0  0  0  0
  -30.9273  -18.1631   22.5948 C   0  0  0  0  0  0  0  0  0  0  0  0
  -27.1114  -28.8460   19.0476 N   0  0  0  0  0  0  0  0  0  0  0  0
  -26.3621  -28.2322   19.9791 N   0  0  0  0  0  0  0  0  0  0  0  0
  -27.9317  -18.2270   20.6232 N   0  0  0  0  0  0  0  0  0  0  0  0
  -23.1538  -30.0123   21.0728 N   0  0  0  0  0  0  0  0  0  0  0  0
  -25.8632  -26.1093   20.9038 N   0  0  0  0  0  0  0  0  0  0  0  0
  -28.9183  -25.1647   17.7147 N   0  0  0  0  0  0  0  0  0  0  0  0
  -25.8664  -15.2265   20.4562 N   0  0  0  0  0  0  0  0  0  0  0  0
  -30.9449  -19.7692   20.6393 N   0  0  0  0  0  0  0  0  0  0  0  0
  -21.5466  -28.2791   21.4833 N   0  0  0  0  0  0  0  0  0  0  0  0
  -31.0147  -22.3442   18.3927 N   0  3  0  0  0  0  0  0  0  0  0  0
  -27.5712  -24.2529   19.3311 O   0  0  0  0  0  0  0  0  0  0  0  0
  -26.9459  -16.4200   22.1393 O   0  0  0  0  0  0  0  0  0  0  0  0
  -29.9063  -17.1921   19.9405 O   0  0  0  0  0  0  0  0  0  0  0  0
  -29.9112  -21.7855   21.1327 O   0  0  0  0  0  0  0  0  0  0  0  0
  -21.4727  -30.2794   22.6255 O   0  0  0  0  0  0  0  0  0  0  0  0
  -31.4008  -28.8378   14.3411 O   0  0  0  0  0  0  0  0  0  0  0  0
  -23.1878  -21.8401   22.2025 O   0  0  0  0  0  0  0  0  0  1  0  0
  -31.2472  -25.5119    9.9458 F   0  0  0  0  0  0  0  0  0  0  0  0
  -30.8776  -29.8430   11.8195 F   0  0  0  0  0  0  0  0  0  0  0  0
  1  2  1  0  0  0  0
  1  5  2  0  0  0  0
  2  6  2  0  0  0  0
  3 10  2  0  0  0  0
  3 18  1  0  0  0  0
  4 11  1  0  0  0  0
  4 18  2  0  0  0  0
  5 20  1  0  0  0  0
  6 22  1  0  0  0  0
  7 12  2  0  0  0  0
  7 21  1  0  0  0  0
  8  9  2  0  0  0  0
  8 24  1  0  0  0  0
  9 25  1  0  0  0  0
 10 27  1  0  0  0  0
 11 27  2  0  0  0  0
 12 28  1  0  0  0  0
 13 14  2  0  0  0  0
 13 29  1  0  0  0  0
 14 30  1  0  0  0  0
 15 23  1  0  0  0  0
 15 28  2  0  0  0  0
 16 24  2  0  0  0  0
 16 26  1  0  0  0  0
 17 30  2  0  0  0  0
 17 31  1  0  0  0  0
 18 32  1  0  0  0  0
 19 32  1  0  0  0  0
 19 33  2  0  0  0  0
 19 34  1  0  0  0  0
 20 22  2  0  0  0  0
 20 39  1  0  0  0  0
 21 23  2  0  0  0  0
 21 40  1  0  0  0  0
 22 50  1  0  0  0  0
 23 41  1  0  0  0  0
 24 60  1  0  0  0  0
 25 26  2  0  0  0  0
 25 61  1  0  0  0  0
 26 54  1  0  0  0  0
 27 81  1  0  0  0  0
 28 82  1  0  0  0  0
 29 31  2  0  0  0  0
 29 81  1  0  0  0  0
 30 83  1  0  0  0  0
 31 84  1  0  0  0  0
 32 66  2  0  0  0  0
 33 67  1  0  0  0  0
 33 70  1  0  0  0  0
 34 71  1  0  0  0  0
 34 76  2  0  0  0  0
 35 51  1  0  0  0  0
 35 72  1  0  0  0  0
 35 77  2  0  0  0  0
 36 63  1  0  0  0  0
 36 68  1  0  0  0  0
 36 78  2  0  0  0  0
 37 64  1  0  0  0  0
 37 73  1  0  0  0  0
 37 79  2  0  0  0  0
 38 69  1  0  0  0  0
 38 74  1  0  0  0  0
 38 80  2  0  0  0  0
 39 42  1  0  0  0  0
 40 51  1  0  0  0  0
 41 68  1  0  0  0  0
 42 44  1  0  0  0  0
 43 45  1  0  0  0  0
 43 48  1  0  0  0  0
 44 50  1  0  0  0  0
 45 52  1  0  0  0  0
 46 47  1  0  0  0  0
 46 53  1  0  0  0  0
 47 53  1  0  0  0  0
 48 69  1  0  0  0  0
 49 52  1  0  0  0  0
 49 69  1  0  0  0  0
 50 72  1  0  0  0  0
 51 68  1  0  0  0  0
 52 67  1  0  0  0  0
 53 74  1  0  0  0  0
 55 64  1  0  0  0  0
 56 65  1  0  0  0  0
 57 65  1  0  0  0  0
 58 65  1  0  0  0  0
 59 75  1  0  0  0  0
 60 62  1  0  0  0  0
 61 74  1  0  0  0  0
 62 82  1  0  0  0  0
 63 65  1  0  0  0  0
 63 73  1  0  0  0  0
 64 75  1  0  0  0  0
 66 67  1  0  0  0  0
M  CHG  1  75   1
M  ISO  4  38 100  62 101  74 100  82 101
M  END
> <Batch ID>
0136

> <Smiles>
CNC(C)C(=O)NC(C(=O)N1Cc2cc([101O:1][101CH2:1]Cc3ccc(C[100N:0](C4CC4)[100C:0](=O)N4CCCC(n5nc(-c6ccc(Oc7ccc(F)cc7F)cc6)c(C(N)=O)c5N)C4)c(C)c3)ccc2CC1C(=O)NC1CCCc2ccccc21)C(C)(C)C

> <Shape>
0.199

> <Color>
0.072

> <Negative vol penalty>
0.000

$$$$

  -OEChem-04052321023D

 86 95  0     1  0  0  0  0  0999 V2000
  -21.7400  -18.4678   22.3332 C   0  0  0  0  0  0  0  0  0  0  0  0
  -22.8189  -19.3457   22.3083 C   0  0  0  0  0  0  0  0  0  0  0  0
  -23.0647   -9.7917   19.9592 C   0  0  0  0  0  0  0  0  0  0  0  0
  -23.7439   -9.8971   22.2753 C   0  0  0  0  0  0  0  0  0  0  0  0
  -20.5057  -18.8674   21.8226 C   0  0  0  0  0  0  0  0  0  0  0  0
  -22.6644  -20.6235   21.7717 C   0  0  0  0  0  0  0  0  0  0  0  0
  -31.2703  -19.0421   20.5052 C   0  0  0  0  0  0  0  0  0  0  0  0
  -24.7762  -24.2103   24.6560 C   0  0  0  0  0  0  0  0  0  0  0  0
  -31.0925  -17.6599   20.5641 C   0  0  0  0  0  0  0  0  0  0  0  0
  -22.3161   -8.6466   20.2308 C   0  0  0  0  0  0  0  0  0  0  0  0
  -22.9953   -8.7519   22.5470 C   0  0  0  0  0  0  0  0  0  0  0  0
  -26.1609  -24.3542   24.5811 C   0  0  0  0  0  0  0  0  0  0  0  0
  -23.3158   -5.4111   22.1385 C   0  0  0  0  0  0  0  0  0  0  0  0
  -23.9089   -4.4192   22.9194 C   0  0  0  0  0  0  0  0  0  0  0  0
  -29.5820  -19.3319   22.2090 C   0  0  0  0  0  0  0  0  0  0  0  0
  -25.8792  -26.2343   23.0962 C   0  0  0  0  0  0  0  0  0  0  0  0
  -22.1484   -4.6555   24.5570 C   0  0  0  0  0  0  0  0  0  0  0  0
  -23.7787  -10.4170   20.9815 C   0  0  0  0  0  0  0  0  0  0  0  0
  -24.1167  -12.9365   20.7686 C   0  0  0  0  0  0  0  0  0  0  0  0
  -30.5150  -19.8781   21.3277 C   0  0  0  0  0  0  0  0  0  0  0  0
  -20.3334  -20.1540   21.2882 C   0  0  0  0  0  0  0  0  0  0  0  0
  -23.9314  -25.0720   23.9417 C   0  0  0  0  0  0  0  0  0  0  0  0
  -21.4269  -21.0402   21.2522 C   0  0  0  0  0  0  0  0  0  0  0  0
  -24.4841  -26.1009   23.1657 C   0  0  0  0  0  0  0  0  0  0  0  0
  -29.4042  -17.9496   22.2679 C   0  0  0  0  0  0  0  0  0  0  0  0
  -30.1595  -17.1136   21.4454 C   0  0  0  0  0  0  0  0  0  0  0  0
  -22.2814   -8.1267   21.5246 C   0  0  0  0  0  0  0  0  0  0  0  0
  -26.7127  -25.3645   23.7989 C   0  0  0  0  0  0  0  0  0  0  0  0
  -22.1389   -6.0253   22.5669 C   0  0  0  0  0  0  0  0  0  0  0  0
  -23.3252   -4.0414   24.1287 C   0  0  0  0  0  0  0  0  0  0  0  0
  -21.5552   -5.6475   23.7761 C   0  0  0  0  0  0  0  0  0  0  0  0
  -24.5526  -11.5996   20.7014 C   0  0  0  0  0  0  0  0  0  0  0  0
  -25.2186  -13.6753   20.4128 C   0  0  0  0  0  0  0  0  0  0  0  0
  -22.8308  -13.4635   21.1213 C   0  0  0  0  0  0  0  0  0  0  0  0
  -21.7813  -24.6986   21.6306 C   0  0  0  0  0  0  0  0  0  0  0  0
  -21.2341  -27.8511   22.1643 C   0  0  0  0  0  0  0  0  0  0  0  0
  -22.4072  -30.8401   23.3203 C   0  0  0  0  0  0  0  0  0  0  0  0
  -30.6721  -14.7520   20.7341 C   0  0  0  0  0  0  0  0  0  0  0  0
  -18.9928  -20.5243   20.7049 C   0  0  0  0  0  0  0  0  0  0  0  0
  -22.4392  -24.9203   24.0542 C   0  0  0  0  0  0  0  0  0  0  0  0
  -23.6203  -27.0649   22.3957 C   0  0  0  0  0  0  0  0  0  0  0  0
  -18.8134  -22.0257   20.4953 C   0  0  0  0  0  0  0  0  0  0  0  0
  -29.6486  -12.2371   18.4307 C   0  0  0  0  0  0  0  0  0  0  0  0
  -20.0468  -22.6221   19.8245 C   0  0  0  0  0  0  0  0  0  0  0  0
  -28.1957  -11.9571   18.8217 C   0  0  0  0  0  0  0  0  0  0  0  0
  -29.3952  -22.0443   20.8369 C   0  0  0  0  0  0  0  0  0  0  0  0
  -31.1761  -21.8955   22.6239 C   0  0  0  0  0  0  0  0  0  0  0  0
  -30.5204  -12.5196   19.6530 C   0  0  0  0  0  0  0  0  0  0  0  0
  -28.5641  -13.2920   20.9357 C   0  0  0  0  0  0  0  0  0  0  0  0
  -29.5313  -23.5615   20.8412 C   0  0  0  0  0  0  0  0  0  0  0  0
  -31.2988  -23.4139   22.6142 C   0  0  0  0  0  0  0  0  0  0  0  0
  -30.7039  -21.3594   21.2627 C   0  0  0  0  0  0  0  0  0  0  0  0
  -21.2923  -22.4431   20.7009 C   0  0  1  0  0  0  0  0  0  0  0  0
  -21.6860  -25.5322   22.8771 C   0  0  1  0  0  0  0  0  0  0  0  0
  -27.6336  -13.0657   19.7330 C   0  0  2  0  0  0  0  0  0  0  0  0
  -28.3954  -17.3923   23.2193 C   0  0  0  0  0  0  0  0  0  0  0  0
  -21.7439  -33.2453   23.5900 C   0  0  0  0  0  0  0  0  0  0  0  0
  -21.6740  -28.3045   19.1792 C   0  0  0  0  0  0  0  0  0  0  0  0
  -21.9447  -30.7464   19.6610 C   0  0  0  0  0  0  0  0  0  0  0  0
  -19.7821  -29.6097   20.1650 C   0  0  0  0  0  0  0  0  0  0  0  0
  -22.6932  -30.7097   26.2631 C   0  0  0  0  0  0  0  0  0  0  0  0
  -30.0058  -25.5228   22.3051 C   0  0  0  0  0  0  0  0  0  0  0  0
  -28.5946  -26.0373   22.5097 C   0  0  0  0  0  0  0  0  0  1  0  0
  -21.7970  -29.1412   21.6186 C   0  0  1  0  0  0  0  0  0  0  0  0
  -21.7914  -31.8740   24.2458 C   0  0  2  0  0  0  0  0  0  0  0  0
  -21.3160  -29.4313   20.1688 C   0  0  0  0  0  0  0  0  0  0  0  0
  -25.8316  -11.4923   20.3317 N   0  0  0  0  0  0  0  0  0  0  0  0
  -26.2088  -12.7712   20.1634 N   0  0  0  0  0  0  0  0  0  0  0  0
  -22.1672  -26.8716   22.5328 N   0  0  0  0  0  0  0  0  0  0  0  0
  -29.9279  -13.5834   20.4668 N   0  0  0  0  0  0  0  0  0  0  0  0
  -25.4273  -15.0035   20.2919 N   0  0  0  0  0  0  0  0  0  0  0  0
  -21.8105  -12.5645   21.4606 N   0  0  0  0  0  0  0  0  0  0  0  0
  -29.9936  -15.7071   21.4903 N   0  0  0  0  0  0  0  0  0  0  0  0
  -21.2977  -23.4123   21.7756 N   0  0  0  0  0  0  0  0  0  0  0  0
  -21.4479  -30.1789   22.5828 N   0  0  0  0  0  0  0  0  0  0  0  0
  -29.9782  -24.0415   22.2092 N   0  3  0  0  0  0  0  0  0  0  0  0
  -22.5843  -31.9814   25.5030 N   0  3  0  0  0  0  0  0  0  0  0  0
  -22.5889  -14.6943   21.1192 O   0  0  0  0  0  0  0  0  0  0  0  0
  -22.2569  -25.1868   20.6122 O   0  0  0  0  0  0  0  0  0  0  0  0
  -20.0118  -27.7200   22.2667 O   0  0  0  0  0  0  0  0  0  0  0  0
  -23.6183  -30.6417   23.2553 O   0  0  0  0  0  0  0  0  0  0  0  0
  -31.8163  -14.9063   20.2995 O   0  0  0  0  0  0  0  0  0  0  0  0
  -21.5508   -7.0094   21.7901 O   0  0  0  0  0  0  0  0  0  0  0  0
  -28.0640  -25.5067   23.7235 O   0  0  0  0  0  0  0  0  0  1  0  0
  -23.8941   -3.0877   24.8777 F   0  0  0  0  0  0  0  0  0  0  0  0
  -20.4240   -6.2332   24.1923 F   0  0  0  0  0  0  0  0  0  0  0  0
  1  2  1  0  0  0  0
  1  5  2  0  0  0  0
  2  6  2  0  0  0  0
  3 10  2  0  0  0  0
  3 18  1  0  0  0  0
  4 11  1  0  0  0  0
  4 18  2  0  0  0  0
  5 21  1  0  0  0  0
  6 23  1  0  0  0  0
  7  9  2  0  0  0  0
  7 20  1  0  0  0  0
  8 12  2  0  0  0  0
  8 22  1  0  0  0  0
  9 26  1  0  0  0  0
 10 27  1  0  0  0  0
 11 27  2  0  0  0  0
 12 28  1  0  0  0  0
 13 14  2  0  0  0  0
 13 29  1  0  0  0  0
 14 30  1  0  0  0  0
 15 20  2  0  0  0  0
 15 25  1  0  0  0  0
 16 24  1  0  0  0  0
 16 28  2  0  0  0  0
 17 30  2  0  0  0  0
 17 31  1  0  0  0  0
 18 32  1  0  0  0  0
 19 32  1  0  0  0  0
 19 33  2  0  0  0  0
 19 34  1  0  0  0  0
 20 52  1  0  0  0  0
 21 23  2  0  0  0  0
 21 39  1  0  0  0  0
 22 24  2  0  0  0  0
 22 40  1  0  0  0  0
 23 53  1  0  0  0  0
 24 41  1  0  0  0  0
 25 26  2  0  0  0  0
 25 56  1  0  0  0  0
 26 73  1  0  0  0  0
 27 83  1  0  0  0  0
 28 84  1  0  0  0  0
 29 31  2  0  0  0  0
 29 83  1  0  0  0  0
 30 85  1  0  0  0  0
 31 86  1  0  0  0  0
 32 67  2  0  0  0  0
 33 68  1  0  0  0  0
 33 71  1  0  0  0  0
 34 72  1  0  0  0  0
 34 78  2  0  0  0  0
 35 54  1  0  0  0  0
 35 74  1  0  0  0  0
 35 79  2  0  0  0  0
 36 64  1  0  0  0  0
 36 69  1  0  0  0  0
 36 80  2  0  0  0  0
 37 65  1  0  0  0  0
 37 75  1  0  0  0  0
 37 81  2  0  0  0  0
 38 70  1  0  0  0  0
 38 73  1  0  0  0  0
 38 82  2  0  0  0  0
 39 42  1  0  0  0  0
 40 54  1  0  0  0  0
 41 69  1  0  0  0  0
 42 44  1  0  0  0  0
 43 45  1  0  0  0  0
 43 48  1  0  0  0  0
 44 53  1  0  0  0  0
 45 55  1  0  0  0  0
 46 50  1  0  0  0  0
 46 52  1  0  0  0  0
 47 51  1  0  0  0  0
 47 52  1  0  0  0  0
 48 70  1  0  0  0  0
 49 55  1  0  0  0  0
 49 70  1  0  0  0  0
 50 76  1  0  0  0  0
 51 76  1  0  0  0  0
 53 74  1  0  0  0  0
 54 69  1  0  0  0  0
 55 68  1  0  0  0  0
 57 65  1  0  0  0  0
 58 66  1  0  0  0  0
 59 66  1  0  0  0  0
 60 66  1  0  0  0  0
 61 77  1  0  0  0  0
 62 63  1  0  0  0  0
 62 76  1  0  0  0  0
 63 84  1  0  0  0  0
 64 66  1  0  0  0  0
 64 75  1  0  0  0  0
 65 77  1  0  0  0  0
 67 68  1  0  0  0  0
M  CHG  2  76   1  77   1
M  ISO  4  38 100  63 101  73 100  84 101
M  END
> <Batch ID>
0136

> <Smiles>
CNC(C)C(=O)NC(C(=O)N1Cc2cc([101O:1][101CH2:1]CN3CCC(c4ccc([100NH:0][100C:0](=O)N5CCCC(n6nc(-c7ccc(Oc8ccc(F)cc8F)cc7)c(C(N)=O)c6N)C5)c(C)c4)CC3)ccc2CC1C(=O)NC1CCCc2ccccc21)C(C)(C)C

> <Shape>
0.259

> <Color>
0.207

> <Negative vol penalty>
0.000

$$$$

  -OEChem-04052321022D

  0  0  0     0  0  0  0  0  0999 V2000
M  END
$$$$

  -OEChem-04052321023D

 83 92  0     1  0  0  0  0  0999 V2000
  -28.0957  -31.4304   18.5435 C   0  0  0  0  0  0  0  0  0  0  0  0
  -28.0988  -30.2043   19.2008 C   0  0  0  0  0  0  0  0  0  0  0  0
  -23.2421   -9.8353   19.9074 C   0  0  0  0  0  0  0  0  0  0  0  0
  -23.9841   -9.8653   22.2064 C   0  0  0  0  0  0  0  0  0  0  0  0
  -27.1504  -32.3983   18.8805 C   0  0  0  0  0  0  0  0  0  0  0  0
  -27.1573  -29.9458   20.1964 C   0  0  0  0  0  0  0  0  0  0  0  0
  -29.5837  -20.1269   23.3413 C   0  0  0  0  0  0  0  0  0  0  0  0
  -25.0906  -25.3426   19.7674 C   0  0  0  0  0  0  0  0  0  0  0  0
  -28.9402  -21.2024   22.7241 C   0  0  0  0  0  0  0  0  0  0  0  0
  -22.5919   -8.6221   20.1330 C   0  0  0  0  0  0  0  0  0  0  0  0
  -23.3339   -8.6521   22.4321 C   0  0  0  0  0  0  0  0  0  0  0  0
  -25.8483  -24.2604   20.2130 C   0  0  0  0  0  0  0  0  0  0  0  0
  -20.1766   -7.5873   22.9966 C   0  0  0  0  0  0  0  0  0  0  0  0
  -19.4178   -7.4672   24.1608 C   0  0  0  0  0  0  0  0  0  0  0  0
  -27.7497  -19.6935   21.2238 C   0  0  0  0  0  0  0  0  0  0  0  0
  -24.5856  -24.2304   22.2683 C   0  0  0  0  0  0  0  0  0  0  0  0
  -20.8064   -5.6239   24.8757 C   0  0  0  0  0  0  0  0  0  0  0  0
  -23.9382  -10.4569   20.9441 C   0  0  0  0  0  0  0  0  0  0  0  0
  -24.0763  -13.0030   20.8672 C   0  0  0  0  0  0  0  0  0  0  0  0
  -26.1907  -32.1479   19.8739 C   0  0  0  0  0  0  0  0  0  0  0  0
  -24.0803  -25.8846   20.5747 C   0  0  0  0  0  0  0  0  0  0  0  0
  -26.1991  -30.9117   20.5479 C   0  0  0  0  0  0  0  0  0  0  0  0
  -29.2889  -18.8658   22.8772 C   0  0  0  0  0  0  0  0  0  0  0  0
  -28.3987  -18.6561   21.8509 C   0  0  0  0  0  0  0  0  0  0  0  0
  -23.8148  -25.3178   21.8295 C   0  0  0  0  0  0  0  0  0  0  0  0
  -28.0292  -20.9871   21.6720 C   0  0  0  0  0  0  0  0  0  0  0  0
  -22.6378   -8.0305   21.3953 C   0  0  0  0  0  0  0  0  0  0  0  0
  -25.5978  -23.7060   21.4648 C   0  0  0  0  0  0  0  0  0  0  0  0
  -21.2503   -6.7257   22.7719 C   0  0  0  0  0  0  0  0  0  0  0  0
  -19.7327   -6.4855   25.1003 C   0  0  0  0  0  0  0  0  0  0  0  0
  -21.5653   -5.7440   23.7114 C   0  0  0  0  0  0  0  0  0  0  0  0
  -24.6106  -11.7099   20.7115 C   0  0  0  0  0  0  0  0  0  0  0  0
  -25.1069  -13.8438   20.5245 C   0  0  0  0  0  0  0  0  0  0  0  0
  -22.7658  -13.4080   21.2845 C   0  0  0  0  0  0  0  0  0  0  0  0
  -23.5623  -28.7173   21.9207 C   0  0  0  0  0  0  0  0  0  0  0  0
  -20.7204  -27.3781   22.7284 C   0  0  0  0  0  0  0  0  0  0  0  0
  -18.9181  -24.5407   23.3182 C   0  0  0  0  0  0  0  0  0  0  0  0
  -30.8666  -14.2541   20.9391 C   0  0  0  0  0  0  0  0  0  0  0  0
  -25.2187  -33.2425   20.2367 C   0  0  0  0  0  0  0  0  0  0  0  0
  -23.2541  -27.0350   20.0684 C   0  0  0  0  0  0  0  0  0  0  0  0
  -28.5592  -17.1641   21.8807 C   0  0  0  0  0  0  0  0  0  0  0  0
  -22.7279  -25.8500   22.7261 C   0  0  0  0  0  0  0  0  0  0  0  0
  -24.0192  -32.7498   21.0420 C   0  0  0  0  0  0  0  0  0  0  0  0
  -29.2614  -13.3683   17.8870 C   0  0  0  0  0  0  0  0  0  0  0  0
  -24.4751  -31.8296   22.1700 C   0  0  0  0  0  0  0  0  0  0  0  0
  -27.8488  -12.9706   18.3187 C   0  0  0  0  0  0  0  0  0  0  0  0
  -30.3070  -12.9408   18.9147 C   0  0  0  0  0  0  0  0  0  0  0  0
  -28.6339  -13.0033   20.7231 C   0  0  0  0  0  0  0  0  0  0  0  0
  -25.1783  -30.5845   21.6161 C   0  0  1  0  0  0  0  0  0  0  0  0
  -22.5929  -27.8340   21.1873 C   0  0  1  0  0  0  0  0  0  0  0  0
  -27.5389  -13.4628   19.7452 C   0  0  2  0  0  0  0  0  0  0  0  0
  -29.5814  -17.3978   23.0597 C   0  0  1  0  0  0  0  0  0  0  0  0
  -16.6299  -23.7659   23.9974 C   0  0  0  0  0  0  0  0  0  0  0  0
  -21.3172  -28.1562   25.6178 C   0  0  0  0  0  0  0  0  0  0  0  0
  -19.5268  -26.5637   26.3432 C   0  0  0  0  0  0  0  0  0  0  0  0
  -18.9469  -28.5197   24.9079 C   0  0  0  0  0  0  0  0  0  0  0  0
  -18.5317  -23.0776   20.7748 C   0  0  0  0  0  0  0  0  0  0  0  0
  -27.3518  -22.1606   21.0276 C   0  0  0  0  0  0  0  0  0  1  0  0
  -31.0248  -17.0198   22.7633 C   0  0  0  0  0  0  0  0  0  0  0  0
  -31.2767  -15.5387   23.0226 C   0  0  0  0  0  0  0  0  0  0  0  0
  -20.2117  -26.5756   23.9016 C   0  0  1  0  0  0  0  0  0  0  0  0
  -17.5499  -24.0973   22.8327 C   0  0  2  0  0  0  0  0  0  0  0  0
  -20.0225  -27.4448   25.1768 C   0  0  0  0  0  0  0  0  0  0  0  0
  -25.8817  -11.7231   20.3015 N   0  0  0  0  0  0  0  0  0  0  0  0
  -26.1548  -13.0348   20.1967 N   0  0  0  0  0  0  0  0  0  0  0  0
  -21.9517  -26.9798   22.1889 N   0  0  0  0  0  0  0  0  0  0  0  0
  -29.9550  -13.4409   20.2458 N   0  0  0  0  0  0  0  0  0  0  0  0
  -25.2099  -15.1889   20.4745 N   0  0  0  0  0  0  0  0  0  0  0  0
  -21.8282  -12.4149   21.5992 N   0  0  0  0  0  0  0  0  0  0  0  0
  -24.2066  -29.6364   21.1147 N   0  0  0  0  0  0  0  0  0  0  0  0
  -18.9955  -25.9115   23.4452 N   0  0  0  0  0  0  0  0  0  0  0  0
  -30.4518  -14.6904   22.1915 N   0  0  0  0  0  0  0  0  0  0  0  0
  -17.6728  -22.8870   21.9718 N   0  3  0  0  0  0  0  0  0  0  0  0
  -22.4308  -14.6145   21.3597 O   0  0  0  0  0  0  0  0  0  0  0  0
  -23.7133  -28.5764   23.1286 O   0  0  0  0  0  0  0  0  0  0  0  0
  -20.0465  -28.3191   22.3018 O   0  0  0  0  0  0  0  0  0  0  0  0
  -19.8262  -23.7498   23.5640 O   0  0  0  0  0  0  0  0  0  0  0  0
  -31.9663  -14.5725   20.4741 O   0  0  0  0  0  0  0  0  0  0  0  0
  -29.1803  -16.8510   24.3330 O   0  0  0  0  0  0  0  0  0  0  0  0
  -22.0032   -6.8467   21.6160 O   0  0  0  0  0  0  0  0  0  0  0  0
  -26.3363  -22.6501   21.9025 O   0  0  0  0  0  0  0  0  0  1  0  0
  -19.0049   -6.3713   26.2190 F   0  0  0  0  0  0  0  0  0  0  0  0
  -22.5963   -4.9141   23.5017 F   0  0  0  0  0  0  0  0  0  0  0  0
  1  2  1  0  0  0  0
  1  5  2  0  0  0  0
  2  6  2  0  0  0  0
  3 10  2  0  0  0  0
  3 18  1  0  0  0  0
  4 11  1  0  0  0  0
  4 18  2  0  0  0  0
  5 20  1  0  0  0  0
  6 22  1  0  0  0  0
  7  9  2  0  0  0  0
  7 23  1  0  0  0  0
  8 12  2  0  0  0  0
  8 21  1  0  0  0  0
  9 26  1  0  0  0  0
 10 27  1  0  0  0  0
 11 27  2  0  0  0  0
 12 28  1  0  0  0  0
 13 14  2  0  0  0  0
 13 29  1  0  0  0  0
 14 30  1  0  0  0  0
 15 24  1  0  0  0  0
 15 26  2  0  0  0  0
 16 25  1  0  0  0  0
 16 28  2  0  0  0  0
 17 30  2  0  0  0  0
 17 31  1  0  0  0  0
 18 32  1  0  0  0  0
 19 32  1  0  0  0  0
 19 33  2  0  0  0  0
 19 34  1  0  0  0  0
 20 22  2  0  0  0  0
 20 39  1  0  0  0  0
 21 25  2  0  0  0  0
 21 40  1  0  0  0  0
 22 49  1  0  0  0  0
 23 24  2  0  0  0  0
 23 52  1  0  0  0  0
 24 41  1  0  0  0  0
 25 42  1  0  0  0  0
 26 58  1  0  0  0  0
 27 80  1  0  0  0  0
 28 81  1  0  0  0  0
 29 31  2  0  0  0  0
 29 80  1  0  0  0  0
 30 82  1  0  0  0  0
 31 83  1  0  0  0  0
 32 64  2  0  0  0  0
 33 65  1  0  0  0  0
 33 68  1  0  0  0  0
 34 69  1  0  0  0  0
 34 74  2  0  0  0  0
 35 50  1  0  0  0  0
 35 70  1  0  0  0  0
 35 75  2  0  0  0  0
 36 61  1  0  0  0  0
 36 66  1  0  0  0  0
 36 76  2  0  0  0  0
 37 62  1  0  0  0  0
 37 71  1  0  0  0  0
 37 77  2  0  0  0  0
 38 67  1  0  0  0  0
 38 72  1  0  0  0  0
 38 78  2  0  0  0  0
 39 43  1  0  0  0  0
 40 50  1  0  0  0  0
 41 52  1  0  0  0  0
 42 66  1  0  0  0  0
 43 45  1  0  0  0  0
 44 46  1  0  0  0  0
 44 47  1  0  0  0  0
 45 49  1  0  0  0  0
 46 51  1  0  0  0  0
 47 67  1  0  0  0  0
 48 51  1  0  0  0  0
 48 67  1  0  0  0  0
 49 70  1  0  0  0  0
 50 66  1  0  0  0  0
 51 65  1  0  0  0  0
 52 59  1  0  0  0  0
 52 79  1  0  0  0  0
 53 62  1  0  0  0  0
 54 63  1  0  0  0  0
 55 63  1  0  0  0  0
 56 63  1  0  0  0  0
 57 73  1  0  0  0  0
 58 81  1  0  0  0  0
 59 60  1  0  0  0  0
 60 72  1  0  0  0  0
 61 63  1  0  0  0  0
 61 71  1  0  0  0  0
 62 73  1  0  0  0  0
 64 65  1  0  0  0  0
M  CHG  1  73   1
M  ISO  4  38 100  58 101  72 100  81 101
M  END
> <Batch ID>
0136

> <Smiles>
CNC(C)C(=O)NC(C(=O)N1Cc2cc([101O:1][101CH2:1]c3ccc4c(c3)CC4(O)CC[100NH:0][100C:0](=O)N3CCCC(n4nc(-c5ccc(Oc6ccc(F)cc6F)cc5)c(C(N)=O)c4N)C3)ccc2CC1C(=O)NC1CCCc2ccccc21)C(C)(C)C

> <Shape>
0.289

> <Color>
0.198

> <Negative vol penalty>
0.000

$$$$

  -OEChem-04052321023D

 82 90  0     1  0  0  0  0  0999 V2000
  -27.5611  -33.2486   26.7285 C   0  0  0  0  0  0  0  0  0  0  0  0
  -27.8222  -32.1344   25.9373 C   0  0  0  0  0  0  0  0  0  0  0  0
  -22.1837  -13.7300   20.2662 C   0  0  0  0  0  0  0  0  0  0  0  0
  -23.5213  -12.7839   22.0418 C   0  0  0  0  0  0  0  0  0  0  0  0
  -26.2495  -33.5538   27.0895 C   0  0  0  0  0  0  0  0  0  0  0  0
  -26.7718  -31.3242   25.5076 C   0  0  0  0  0  0  0  0  0  0  0  0
  -27.1529  -30.0824   20.6130 C   0  0  0  0  0  0  0  0  0  0  0  0
  -21.4201  -12.5637   20.2200 C   0  0  0  0  0  0  0  0  0  0  0  0
  -22.7576  -11.6176   21.9956 C   0  0  0  0  0  0  0  0  0  0  0  0
  -28.0569  -29.0744   20.2803 C   0  0  0  0  0  0  0  0  0  0  0  0
  -22.5526   -8.8488   20.0663 C   0  0  0  0  0  0  0  0  0  0  0  0
  -23.2294   -7.6295   20.0934 C   0  0  0  0  0  0  0  0  0  0  0  0
  -26.2395  -27.4928   20.1589 C   0  0  0  0  0  0  0  0  0  0  0  0
  -29.0867  -22.7874   22.5487 C   0  0  0  0  0  0  0  0  0  0  0  0
  -22.0682   -7.0300   22.1254 C   0  0  0  0  0  0  0  0  0  0  0  0
  -31.2597  -21.5612   21.4441 C   0  0  0  0  0  0  0  0  0  0  0  0
  -23.2344  -13.8401   21.1771 C   0  0  0  0  0  0  0  0  0  0  0  0
  -23.7858  -16.1863   22.0131 C   0  0  0  0  0  0  0  0  0  0  0  0
  -25.1816  -32.7524   26.6561 C   0  0  0  0  0  0  0  0  0  0  0  0
  -25.7845  -29.8003   20.7320 C   0  0  0  0  0  0  0  0  0  0  0  0
  -25.4448  -31.6182   25.8643 C   0  0  0  0  0  0  0  0  0  0  0  0
  -25.3199  -28.4995   20.4907 C   0  0  0  0  0  0  0  0  0  0  0  0
  -29.3738  -21.4705   22.8903 C   0  0  0  0  0  0  0  0  0  0  0  0
  -30.4792  -20.8384   22.3319 C   0  0  0  0  0  0  0  0  0  0  0  0
  -21.7070  -11.5075   21.0847 C   0  0  0  0  0  0  0  0  0  0  0  0
  -27.6006  -27.7788   20.0561 C   0  0  0  0  0  0  0  0  0  0  0  0
  -21.6336   -9.1588   21.0688 C   0  0  0  0  0  0  0  0  0  0  0  0
  -22.9872   -6.7201   21.1229 C   0  0  0  0  0  0  0  0  0  0  0  0
  -21.3913   -8.2494   22.0983 C   0  0  0  0  0  0  0  0  0  0  0  0
  -24.0239  -15.0444   21.2250 C   0  0  0  0  0  0  0  0  0  0  0  0
  -29.9296  -23.4230   21.6514 C   0  0  0  0  0  0  0  0  0  0  0  0
  -24.8125  -17.0421   21.6968 C   0  0  0  0  0  0  0  0  0  0  0  0
  -22.7309  -16.4499   22.9476 C   0  0  0  0  0  0  0  0  0  0  0  0
  -23.6598  -29.9516   23.0914 C   0  0  0  0  0  0  0  0  0  0  0  0
  -21.5666  -29.1943   20.7319 C   0  0  0  0  0  0  0  0  0  0  0  0
  -21.0380  -27.7776   17.6725 C   0  0  0  0  0  0  0  0  0  0  0  0
  -30.2238  -18.0022   20.7263 C   0  0  0  0  0  0  0  0  0  0  0  0
  -23.7852  -33.0954   27.1112 C   0  0  0  0  0  0  0  0  0  0  0  0
  -24.8189  -30.9044   21.0653 C   0  0  0  0  0  0  0  0  0  0  0  0
  -23.8582  -28.1490   20.5859 C   0  0  0  0  0  0  0  0  0  0  0  0
  -22.6930  -32.3989   26.3035 C   0  0  0  0  0  0  0  0  0  0  0  0
  -28.2587  -16.8252   18.0004 C   0  0  0  0  0  0  0  0  0  0  0  0
  -23.0187  -30.9188   26.1304 C   0  0  0  0  0  0  0  0  0  0  0  0
  -26.9655  -16.3458   18.6620 C   0  0  0  0  0  0  0  0  0  0  0  0
  -29.4789  -16.5376   18.8724 C   0  0  0  0  0  0  0  0  0  0  0  0
  -28.0971  -16.5742   20.9127 C   0  0  0  0  0  0  0  0  0  0  0  0
  -24.3298  -30.7291   25.3580 C   0  0  1  0  0  0  0  0  0  0  0  0
  -23.5113  -30.3943   21.6632 C   0  0  1  0  0  0  0  0  0  0  0  0
  -26.8330  -16.8927   20.0961 C   0  0  2  0  0  0  0  0  0  0  0  0
  -28.4855  -20.7569   23.8549 C   0  0  0  0  0  0  0  0  0  0  0  0
  -19.2150  -27.2750   16.0228 C   0  0  0  0  0  0  0  0  0  0  0  0
  -20.6237  -26.8800   22.4827 C   0  0  0  0  0  0  0  0  0  0  0  0
  -19.5338  -25.8854   20.4600 C   0  0  0  0  0  0  0  0  0  0  0  0
  -18.7923  -28.1118   21.3065 C   0  0  0  0  0  0  0  0  0  0  0  0
  -22.3069  -29.4487   15.5853 C   0  0  0  0  0  0  0  0  0  0  0  0
  -30.8325  -19.4300   22.6627 C   0  0  0  0  0  0  0  0  0  0  0  0
  -30.4148  -25.5270   20.4011 C   0  0  0  0  0  0  0  0  0  0  0  0
  -29.8066  -26.9110   20.2466 C   0  0  0  0  0  0  0  0  0  1  0  0
  -21.0313  -27.9084   20.1498 C   0  0  1  0  0  0  0  0  0  0  0  0
  -20.2823  -28.2700   16.4514 C   0  0  2  0  0  0  0  0  0  0  0  0
  -20.0231  -27.2023   21.0998 C   0  0  0  0  0  0  0  0  0  0  0  0
  -31.0125  -22.8418   21.0882 N   0  0  0  0  0  0  0  0  0  0  0  0
  -25.1162  -15.1610   20.4650 N   0  0  0  0  0  0  0  0  0  0  0  0
  -25.5734  -16.3864   20.7741 N   0  0  0  0  0  0  0  0  0  0  0  0
  -22.9542  -29.2618   20.9209 N   0  0  0  0  0  0  0  0  0  0  0  0
  -29.2900  -17.0838   20.2185 N   0  0  0  0  0  0  0  0  0  0  0  0
  -25.1296  -18.2839   22.1206 N   0  0  0  0  0  0  0  0  0  0  0  0
  -21.7580  -15.4621   23.1531 N   0  0  0  0  0  0  0  0  0  0  0  0
  -29.6310  -24.7344   21.3206 N   0  0  0  0  0  0  0  0  0  0  0  0
  -24.1172  -30.9399   23.9421 N   0  0  0  0  0  0  0  0  0  0  0  0
  -20.4816  -28.2499   18.8423 N   0  0  0  0  0  0  0  0  0  0  0  0
  -29.9665  -18.4755   22.0071 N   0  0  0  0  0  0  0  0  0  0  0  0
  -21.2188  -28.4753   15.3105 N   0  3  0  0  0  0  0  0  0  0  0  0
  -22.6440  -17.5359   23.5695 O   0  0  0  0  0  0  0  0  0  0  0  0
  -23.3788  -28.7992   23.3991 O   0  0  0  0  0  0  0  0  0  0  0  0
  -20.7832  -30.1080   21.0022 O   0  0  0  0  0  0  0  0  0  0  0  0
  -22.0212  -27.0442   17.5963 O   0  0  0  0  0  0  0  0  0  0  0  0
  -31.2104  -18.3768   20.0836 O   0  0  0  0  0  0  0  0  0  0  0  0
  -20.9618  -10.3694   21.0400 O   0  0  0  0  0  0  0  0  0  0  0  0
  -28.4809  -26.7930   19.7319 O   0  0  0  0  0  0  0  0  0  1  0  0
  -23.6361   -5.5485   21.1480 F   0  0  0  0  0  0  0  0  0  0  0  0
  -20.5087   -8.5411   23.0635 F   0  0  0  0  0  0  0  0  0  0  0  0
  1  2  1  0  0  0  0
  1  5  2  0  0  0  0
  2  6  2  0  0  0  0
  3  8  2  0  0  0  0
  3 17  1  0  0  0  0
  4  9  1  0  0  0  0
  4 17  2  0  0  0  0
  5 19  1  0  0  0  0
  6 21  1  0  0  0  0
  7 10  2  0  0  0  0
  7 20  1  0  0  0  0
  8 25  1  0  0  0  0
  9 25  2  0  0  0  0
 10 26  1  0  0  0  0
 11 12  2  0  0  0  0
 11 27  1  0  0  0  0
 12 28  1  0  0  0  0
 13 22  1  0  0  0  0
 13 26  2  0  0  0  0
 14 23  2  0  0  0  0
 14 31  1  0  0  0  0
 15 28  2  0  0  0  0
 15 29  1  0  0  0  0
 16 24  2  0  0  0  0
 16 62  1  0  0  0  0
 17 30  1  0  0  0  0
 18 30  1  0  0  0  0
 18 32  2  0  0  0  0
 18 33  1  0  0  0  0
 19 21  2  0  0  0  0
 19 38  1  0  0  0  0
 20 22  2  0  0  0  0
 20 39  1  0  0  0  0
 21 47  1  0  0  0  0
 22 40  1  0  0  0  0
 23 24  1  0  0  0  0
 23 50  1  0  0  0  0
 24 56  1  0  0  0  0
 25 79  1  0  0  0  0
 26 80  1  0  0  0  0
 27 29  2  0  0  0  0
 27 79  1  0  0  0  0
 28 81  1  0  0  0  0
 29 82  1  0  0  0  0
 30 63  2  0  0  0  0
 31 62  2  0  0  0  0
 31 69  1  0  0  0  0
 32 64  1  0  0  0  0
 32 67  1  0  0  0  0
 33 68  1  0  0  0  0
 33 74  2  0  0  0  0
 34 48  1  0  0  0  0
 34 70  1  0  0  0  0
 34 75  2  0  0  0  0
 35 59  1  0  0  0  0
 35 65  1  0  0  0  0
 35 76  2  0  0  0  0
 36 60  1  0  0  0  0
 36 71  1  0  0  0  0
 36 77  2  0  0  0  0
 37 66  1  0  0  0  0
 37 72  1  0  0  0  0
 37 78  2  0  0  0  0
 38 41  1  0  0  0  0
 39 48  1  0  0  0  0
 40 65  1  0  0  0  0
 41 43  1  0  0  0  0
 42 44  1  0  0  0  0
 42 45  1  0  0  0  0
 43 47  1  0  0  0  0
 44 49  1  0  0  0  0
 45 66  1  0  0  0  0
 46 49  1  0  0  0  0
 46 66  1  0  0  0  0
 47 70  1  0  0  0  0
 48 65  1  0  0  0  0
 49 64  1  0  0  0  0
 51 60  1  0  0  0  0
 52 61  1  0  0  0  0
 53 61  1  0  0  0  0
 54 61  1  0  0  0  0
 55 73  1  0  0  0  0
 56 72  1  0  0  0  0
 57 58  1  0  0  0  0
 57 69  1  0  0  0  0
 58 80  1  0  0  0  0
 59 61  1  0  0  0  0
 59 71  1  0  0  0  0
 60 73  1  0  0  0  0
 63 64  1  0  0  0  0
M  CHG  1  73   1
M  ISO  4  37 100  58 101  72 100  80 101
M  END
> <Batch ID>
0136

> <Smiles>
CNC(C)C(=O)NC(C(=O)N1Cc2cc([101O:1][101CH2:1]CNc3cc(C)c(C[100NH:0][100C:0](=O)N4CCCC(n5nc(-c6ccc(Oc7ccc(F)cc7F)cc6)c(C(N)=O)c5N)C4)cn3)ccc2CC1C(=O)NC1CCCc2ccccc21)C(C)(C)C

> <Shape>
0.272

> <Color>
0.082

> <Negative vol penalty>
0.000

$$$$

  -OEChem-04052321023D

 87 96  0     1  0  0  0  0  0999 V2000
  -16.6320  -29.8700   23.6594 C   0  0  0  0  0  0  0  0  0  0  0  0
  -17.7317  -30.5291   24.1995 C   0  0  0  0  0  0  0  0  0  0  0  0
  -25.8414  -13.6057   20.6741 C   0  0  0  0  0  0  0  0  0  0  0  0
  -24.3459  -14.5820   19.0470 C   0  0  0  0  0  0  0  0  0  0  0  0
  -16.8114  -28.6842   22.9484 C   0  0  0  0  0  0  0  0  0  0  0  0
  -19.0115  -30.0020   24.0297 C   0  0  0  0  0  0  0  0  0  0  0  0
  -25.8307  -32.0466   23.2328 C   0  0  0  0  0  0  0  0  0  0  0  0
  -24.8192  -12.7613   21.1071 C   0  0  0  0  0  0  0  0  0  0  0  0
  -23.3236  -13.7375   19.4800 C   0  0  0  0  0  0  0  0  0  0  0  0
  -27.0939  -31.8192   23.7772 C   0  0  0  0  0  0  0  0  0  0  0  0
  -23.3492   -9.8968   20.0743 C   0  0  0  0  0  0  0  0  0  0  0  0
  -23.6607   -8.5522   20.2757 C   0  0  0  0  0  0  0  0  0  0  0  0
  -27.2914  -29.8062   22.4626 C   0  0  0  0  0  0  0  0  0  0  0  0
  -32.6065  -25.6575   25.8898 C   0  0  0  0  0  0  0  0  0  0  0  0
  -31.9862  -27.9116   26.4988 C   0  0  0  0  0  0  0  0  0  0  0  0
  -30.4036  -26.4913   25.3520 C   0  0  0  0  0  0  0  0  0  0  0  0
  -23.0182   -8.7509   22.5962 C   0  0  0  0  0  0  0  0  0  0  0  0
  -25.6048  -14.5161   19.6441 C   0  0  0  0  0  0  0  0  0  0  0  0
  -27.6001  -15.1349   18.1800 C   0  0  0  0  0  0  0  0  0  0  0  0
  -18.0950  -28.1475   22.7616 C   0  0  0  0  0  0  0  0  0  0  0  0
  -25.2829  -31.1482   22.3059 C   0  0  0  0  0  0  0  0  0  0  0  0
  -19.2081  -28.8072   23.3166 C   0  0  0  0  0  0  0  0  0  0  0  0
  -26.0222  -30.0258   21.9060 C   0  0  0  0  0  0  0  0  0  0  0  0
  -32.9273  -26.8823   26.4750 C   0  0  0  0  0  0  0  0  0  0  0  0
  -23.5603  -12.8271   20.5100 C   0  0  0  0  0  0  0  0  0  0  0  0
  -27.8233  -30.6974   23.3943 C   0  0  0  0  0  0  0  0  0  0  0  0
  -22.8722  -10.6685   21.1339 C   0  0  0  0  0  0  0  0  0  0  0  0
  -31.3447  -25.4620   25.3282 C   0  0  0  0  0  0  0  0  0  0  0  0
  -30.7244  -27.7161   25.9372 C   0  0  0  0  0  0  0  0  0  0  0  0
  -23.4952   -7.9792   21.5366 C   0  0  0  0  0  0  0  0  0  0  0  0
  -22.7067  -10.0955   22.3948 C   0  0  0  0  0  0  0  0  0  0  0  0
  -26.6602  -15.3891   19.1967 C   0  0  0  0  0  0  0  0  0  0  0  0
  -28.3787  -16.2657   18.1416 C   0  0  0  0  0  0  0  0  0  0  0  0
  -27.7554  -13.9799   17.3449 C   0  0  0  0  0  0  0  0  0  0  0  0
  -22.7116  -29.2805   22.2422 C   0  0  0  0  0  0  0  0  0  0  0  0
  -23.6588  -28.7414   19.1870 C   0  0  0  0  0  0  0  0  0  0  0  0
  -26.1945  -28.7069   16.9032 C   0  0  0  0  0  0  0  0  0  0  0  0
  -29.8421  -20.2653   22.0467 C   0  0  0  0  0  0  0  0  0  0  0  0
  -18.2343  -26.8382   22.0261 C   0  0  0  0  0  0  0  0  0  0  0  0
  -23.9301  -31.4219   21.7079 C   0  0  0  0  0  0  0  0  0  0  0  0
  -25.4874  -29.0417   20.8991 C   0  0  0  0  0  0  0  0  0  0  0  0
  -19.6614  -26.5442   21.5708 C   0  0  0  0  0  0  0  0  0  0  0  0
  -28.2207  -20.9620   19.0123 C   0  0  0  0  0  0  0  0  0  0  0  0
  -20.6483  -26.8083   22.7036 C   0  0  0  0  0  0  0  0  0  0  0  0
  -27.7220  -19.5745   18.6093 C   0  0  0  0  0  0  0  0  0  0  0  0
  -31.6710  -23.4491   22.5622 C   0  0  0  0  0  0  0  0  0  0  0  0
  -29.2409  -23.7836   23.1885 C   0  0  0  0  0  0  0  0  0  0  0  0
  -28.0628  -21.2141   20.5127 C   0  0  0  0  0  0  0  0  0  0  0  0
  -31.4935  -21.9466   22.7751 C   0  0  0  0  0  0  0  0  0  0  0  0
  -29.1201  -22.2749   23.3905 C   0  0  0  0  0  0  0  0  0  0  0  0
  -28.1783  -18.7849   20.9622 C   0  0  0  0  0  0  0  0  0  0  0  0
  -20.6147  -28.2801   23.1326 C   0  0  1  0  0  0  0  0  0  0  0  0
  -23.2549  -30.1688   21.1590 C   0  0  1  0  0  0  0  0  0  0  0  0
  -28.3783  -18.4799   19.4695 C   0  0  1  0  0  0  0  0  0  0  0  0
  -30.6757  -24.2812   23.3716 C   0  0  0  0  0  0  0  0  0  0  0  0
  -34.2767  -27.0916   27.0743 C   0  0  0  0  0  0  0  0  0  0  0  0
  -26.6694  -28.1861   14.4947 C   0  0  0  0  0  0  0  0  0  0  0  0
  -23.5615  -25.7572   19.8156 C   0  0  0  0  0  0  0  0  0  0  0  0
  -24.9227  -25.3496   17.7543 C   0  0  0  0  0  0  0  0  0  0  0  0
  -22.6585  -26.3799   17.5681 C   0  0  0  0  0  0  0  0  0  0  0  0
  -27.0561  -31.4841   16.3520 C   0  0  0  0  0  0  0  0  0  0  0  0
  -29.2917  -30.9520   25.2476 C   0  0  0  0  0  0  0  0  0  1  0  0
  -30.3063  -30.0573   25.9329 C   0  0  0  0  0  0  0  0  0  0  0  0
  -24.5675  -27.7442   18.5095 C   0  0  1  0  0  0  0  0  0  0  0  0
  -26.2898  -29.2666   15.4953 C   0  0  2  0  0  0  0  0  0  0  0  0
  -23.9371  -26.3251   18.4324 C   0  0  0  0  0  0  0  0  0  0  0  0
  -26.8250  -16.5873   19.7634 N   0  0  0  0  0  0  0  0  0  0  0  0
  -27.8775  -17.0961   19.1006 N   0  0  0  0  0  0  0  0  0  0  0  0
  -24.1576  -29.3496   20.3476 N   0  0  0  0  0  0  0  0  0  0  0  0
  -28.6690  -20.1251   21.2902 N   0  0  0  0  0  0  0  0  0  0  0  0
  -30.1024  -21.5369   22.5851 N   0  0  0  0  0  0  0  0  0  0  0  0
  -29.4363  -16.6209   17.3815 N   0  0  0  0  0  0  0  0  0  0  0  0
  -26.8697  -12.9073   17.5165 N   0  0  0  0  0  0  0  0  0  0  0  0
  -21.3429  -29.0989   22.1873 N   0  0  0  0  0  0  0  0  0  0  0  0
  -24.9082  -28.3181   17.2122 N   0  0  0  0  0  0  0  0  0  0  0  0
  -27.3167  -30.3448   15.4349 N   0  3  0  0  0  0  0  0  0  0  0  0
  -28.6633  -13.8946   16.4834 O   0  0  0  0  0  0  0  0  0  0  0  0
  -23.4777  -28.7945   23.0660 O   0  0  0  0  0  0  0  0  0  0  0  0
  -22.5502  -28.9775   18.7001 O   0  0  0  0  0  0  0  0  0  0  0  0
  -27.1648  -28.6196   17.6524 O   0  0  0  0  0  0  0  0  0  0  0  0
  -30.6135  -19.3151   22.2287 O   0  0  0  0  0  0  0  0  0  0  0  0
  -22.5626  -12.0031   20.9321 O   0  0  0  0  0  0  0  0  0  0  0  0
  -31.0289  -24.2593   24.7530 O   0  0  0  0  0  0  0  0  0  0  0  0
  -29.0647  -30.4712   23.9281 O   0  0  0  0  0  0  0  0  0  1  0  0
  -29.8066  -28.7212   25.9596 O   0  0  0  0  0  0  0  0  0  0  0  0
  -23.7930   -6.6876   21.7295 F   0  0  0  0  0  0  0  0  0  0  0  0
  -22.2477  -10.8316   23.4163 F   0  0  0  0  0  0  0  0  0  0  0  0
  1  2  1  0  0  0  0
  1  5  2  0  0  0  0
  2  6  2  0  0  0  0
  3  8  2  0  0  0  0
  3 18  1  0  0  0  0
  4  9  1  0  0  0  0
  4 18  2  0  0  0  0
  5 20  1  0  0  0  0
  6 22  1  0  0  0  0
  7 10  2  0  0  0  0
  7 21  1  0  0  0  0
  8 25  1  0  0  0  0
  9 25  2  0  0  0  0
 10 26  1  0  0  0  0
 11 12  2  0  0  0  0
 11 27  1  0  0  0  0
 12 30  1  0  0  0  0
 13 23  1  0  0  0  0
 13 26  2  0  0  0  0
 14 24  1  0  0  0  0
 14 28  2  0  0  0  0
 15 24  2  0  0  0  0
 15 29  1  0  0  0  0
 16 28  1  0  0  0  0
 16 29  2  0  0  0  0
 17 30  2  0  0  0  0
 17 31  1  0  0  0  0
 18 32  1  0  0  0  0
 19 32  1  0  0  0  0
 19 33  2  0  0  0  0
 19 34  1  0  0  0  0
 20 22  2  0  0  0  0
 20 39  1  0  0  0  0
 21 23  2  0  0  0  0
 21 40  1  0  0  0  0
 22 52  1  0  0  0  0
 23 41  1  0  0  0  0
 24 56  1  0  0  0  0
 25 82  1  0  0  0  0
 26 84  1  0  0  0  0
 27 31  2  0  0  0  0
 27 82  1  0  0  0  0
 28 83  1  0  0  0  0
 29 85  1  0  0  0  0
 30 86  1  0  0  0  0
 31 87  1  0  0  0  0
 32 67  2  0  0  0  0
 33 68  1  0  0  0  0
 33 72  1  0  0  0  0
 34 73  1  0  0  0  0
 34 77  2  0  0  0  0
 35 53  1  0  0  0  0
 35 74  1  0  0  0  0
 35 78  2  0  0  0  0
 36 64  1  0  0  0  0
 36 69  1  0  0  0  0
 36 79  2  0  0  0  0
 37 65  1  0  0  0  0
 37 75  1  0  0  0  0
 37 80  2  0  0  0  0
 38 70  1  0  0  0  0
 38 71  1  0  0  0  0
 38 81  2  0  0  0  0
 39 42  1  0  0  0  0
 40 53  1  0  0  0  0
 41 69  1  0  0  0  0
 42 44  1  0  0  0  0
 43 45  1  0  0  0  0
 43 48  1  0  0  0  0
 44 52  1  0  0  0  0
 45 54  1  0  0  0  0
 46 49  1  0  0  0  0
 46 55  1  0  0  0  0
 47 50  1  0  0  0  0
 47 55  1  0  0  0  0
 48 70  1  0  0  0  0
 49 71  1  0  0  0  0
 50 71  1  0  0  0  0
 51 54  1  0  0  0  0
 51 70  1  0  0  0  0
 52 74  1  0  0  0  0
 53 69  1  0  0  0  0
 54 68  1  0  0  0  0
 55 83  1  0  0  0  0
 57 65  1  0  0  0  0
 58 66  1  0  0  0  0
 59 66  1  0  0  0  0
 60 66  1  0  0  0  0
 61 76  1  0  0  0  0
 62 63  1  0  0  0  0
 62 84  1  0  0  0  0
 63 85  1  0  0  0  0
 64 66  1  0  0  0  0
 64 75  1  0  0  0  0
 65 76  1  0  0  0  0
 67 68  1  0  0  0  0
M  CHG  1  76   1
M  ISO  4  38 100  62 101  71 100  84 101
M  END
> <Batch ID>
0136

> <Smiles>
CNC(C)C(=O)NC(C(=O)N1Cc2cc([101O:1][101CH2:1]COc3cc(C)cc(OC4CC[100N:0]([100C:0](=O)N5CCCC(n6nc(-c7ccc(Oc8ccc(F)cc8F)cc7)c(C(N)=O)c6N)C5)CC4)c3)ccc2CC1C(=O)NC1CCCc2ccccc21)C(C)(C)C

> <Shape>
0.276

> <Color>
0.116

> <Negative vol penalty>
0.000

$$$$

  -OEChem-04052321023D

 87 97  0     1  0  0  0  0  0999 V2000
  -29.7628  -34.6217   23.8530 C   0  0  0  0  0  0  0  0  0  0  0  0
  -29.5739  -33.2574   23.6576 C   0  0  0  0  0  0  0  0  0  0  0  0
  -22.6944  -13.7119   22.6034 C   0  0  0  0  0  0  0  0  0  0  0  0
  -23.9894  -11.9658   23.6576 C   0  0  0  0  0  0  0  0  0  0  0  0
  -28.6726  -35.4408   24.1434 C   0  0  0  0  0  0  0  0  0  0  0  0
  -28.2945  -32.7110   23.7537 C   0  0  0  0  0  0  0  0  0  0  0  0
  -27.2824  -29.4630   20.0026 C   0  0  0  0  0  0  0  0  0  0  0  0
  -21.9279  -13.8426   23.7614 C   0  0  0  0  0  0  0  0  0  0  0  0
  -23.2229  -12.0966   24.8157 C   0  0  0  0  0  0  0  0  0  0  0  0
  -27.8283  -28.1840   20.1032 C   0  0  0  0  0  0  0  0  0  0  0  0
  -19.3624  -12.2186   25.2463 C   0  0  0  0  0  0  0  0  0  0  0  0
  -17.9785  -12.3113   25.0995 C   0  0  0  0  0  0  0  0  0  0  0  0
  -25.7100  -27.3492   20.9002 C   0  0  0  0  0  0  0  0  0  0  0  0
  -18.0105  -14.4786   26.1668 C   0  0  0  0  0  0  0  0  0  0  0  0
  -23.7252  -12.7734   22.5515 C   0  0  0  0  0  0  0  0  0  0  0  0
  -24.0605  -12.2971   20.0678 C   0  0  0  0  0  0  0  0  0  0  0  0
  -27.3778  -34.9058   24.2335 C   0  0  0  0  0  0  0  0  0  0  0  0
  -25.9471  -29.6971   20.3610 C   0  0  0  0  0  0  0  0  0  0  0  0
  -27.1861  -33.5235   24.0469 C   0  0  0  0  0  0  0  0  0  0  0  0
  -25.1489  -28.6315   20.8008 C   0  0  0  0  0  0  0  0  0  0  0  0
  -22.1922  -13.0350   24.8675 C   0  0  0  0  0  0  0  0  0  0  0  0
  -27.0429  -27.1275   20.5548 C   0  0  0  0  0  0  0  0  0  0  0  0
  -20.0705  -13.2558   25.8534 C   0  0  0  0  0  0  0  0  0  0  0  0
  -17.3025  -13.4413   25.5597 C   0  0  0  0  0  0  0  0  0  0  0  0
  -19.3945  -14.3858   26.3136 C   0  0  0  0  0  0  0  0  0  0  0  0
  -24.5169  -12.6375   21.3553 C   0  0  0  0  0  0  0  0  0  0  0  0
  -25.1926  -12.3005   19.2902 C   0  0  0  0  0  0  0  0  0  0  0  0
  -22.7319  -12.0042   19.6153 C   0  0  0  0  0  0  0  0  0  0  0  0
  -24.4927  -31.4833   22.5514 C   0  0  0  0  0  0  0  0  0  0  0  0
  -21.8121  -30.4879   21.0199 C   0  0  0  0  0  0  0  0  0  0  0  0
  -20.3034  -28.1499   19.0439 C   0  0  0  0  0  0  0  0  0  0  0  0
  -30.4658  -15.0945   19.7775 C   0  0  0  0  0  0  0  0  0  0  0  0
  -26.2370  -35.8231   24.5963 C   0  0  0  0  0  0  0  0  0  0  0  0
  -25.3657  -31.0773   20.2214 C   0  0  0  0  0  0  0  0  0  0  0  0
  -23.7040  -28.8263   21.1787 C   0  0  0  0  0  0  0  0  0  0  0  0
  -24.8612  -35.2265   24.3106 C   0  0  0  0  0  0  0  0  0  0  0  0
  -29.9160  -11.5841   19.5501 C   0  0  0  0  0  0  0  0  0  0  0  0
  -24.7842  -33.7923   24.8243 C   0  0  0  0  0  0  0  0  0  0  0  0
  -30.3023  -24.5923   21.1473 C   0  0  0  0  0  0  0  0  0  0  0  0
  -29.6780  -19.6453   17.9831 C   0  0  0  0  0  0  0  0  0  0  0  0
  -31.3161  -19.6560   19.9078 C   0  0  0  0  0  0  0  0  0  0  0  0
  -28.4287  -11.4253   19.8708 C   0  0  0  0  0  0  0  0  0  0  0  0
  -29.1461  -18.2867   18.4405 C   0  0  0  0  0  0  0  0  0  0  0  0
  -30.7877  -18.2971   20.3681 C   0  0  0  0  0  0  0  0  0  0  0  0
  -29.9648  -25.8569   20.3732 C   0  0  0  0  0  0  0  0  0  0  0  0
  -30.5571  -12.6936   20.3808 C   0  0  0  0  0  0  0  0  0  0  0  0
  -28.3891  -13.8407   20.6211 C   0  0  0  0  0  0  0  0  0  0  0  0
  -30.4217  -21.8970   22.1660 C   0  0  0  0  0  0  0  0  0  0  0  0
  -25.8101  -32.8976   24.1183 C   0  0  1  0  0  0  0  0  0  0  0  0
  -24.1403  -31.3014   21.1022 C   0  0  1  0  0  0  0  0  0  0  0  0
  -29.8853  -23.4816   20.1847 C   0  0  2  0  0  0  0  0  0  0  0  0
  -30.2770  -20.4746   19.1281 C   0  0  0  0  0  0  0  0  0  0  0  0
  -28.5946  -24.0141   19.5208 C   0  0  1  0  0  0  0  0  0  0  0  0
  -27.6861  -12.7711   19.7679 C   0  0  2  0  0  0  0  0  0  0  0  0
  -30.2132  -17.4947   19.1992 C   0  0  0  0  0  0  0  0  0  0  0  0
  -28.6138  -25.5397   19.7392 C   0  0  1  0  0  0  0  0  0  1  0  0
  -29.6861  -22.1682   20.8803 C   0  0  1  0  0  0  0  0  0  0  0  0
  -28.5464  -23.6532   18.0380 C   0  0  0  0  0  0  0  0  0  0  0  0
  -18.0952  -27.5882   17.9923 C   0  0  0  0  0  0  0  0  0  0  0  0
  -20.7635  -29.5513   23.7279 C   0  0  0  0  0  0  0  0  0  0  0  0
  -19.0515  -28.1856   22.5145 C   0  0  0  0  0  0  0  0  0  0  0  0
  -19.0589  -30.6690   22.2790 C   0  0  0  0  0  0  0  0  0  0  0  0
  -21.4353  -28.2955   16.3132 C   0  0  0  0  0  0  0  0  0  0  0  0
  -29.1902  -21.0341   20.0502 C   0  0  0  0  0  0  0  0  0  0  0  0
  -20.8751  -29.3125   21.1595 C   0  0  1  0  0  0  0  0  0  0  0  0
  -19.4336  -28.2861   17.8072 C   0  0  2  0  0  0  0  0  0  0  0  0
  -19.9650  -29.4260   22.4151 C   0  0  0  0  0  0  0  0  0  0  0  0
  -25.8362  -12.8420   21.3974 N   0  0  0  0  0  0  0  0  0  0  0  0
  -26.2184  -12.6294   20.1266 N   0  0  0  0  0  0  0  0  0  0  0  0
  -23.1833  -30.1954   21.0310 N   0  0  0  0  0  0  0  0  0  0  0  0
  -29.8060  -13.9432   20.2379 N   0  0  0  0  0  0  0  0  0  0  0  0
  -25.4008  -12.0539   17.9793 N   0  0  0  0  0  0  0  0  0  0  0  0
  -22.2897  -10.6749   19.6570 N   0  0  0  0  0  0  0  0  0  0  0  0
  -25.3454  -32.5432   22.7943 N   0  0  0  0  0  0  0  0  0  0  0  0
  -20.1459  -29.2198   19.8994 N   0  0  0  0  0  0  0  0  0  0  0  0
  -29.6791  -16.2343   19.6650 N   0  0  0  0  0  0  0  0  0  0  0  0
  -20.1162  -27.6875   16.6254 N   0  3  0  0  0  0  0  0  0  0  0  0
  -21.9656  -12.8925   19.1713 O   0  0  0  0  0  0  0  0  0  0  0  0
  -24.0243  -30.7197   23.3876 O   0  0  0  0  0  0  0  0  0  0  0  0
  -21.3445  -31.6228   20.8980 O   0  0  0  0  0  0  0  0  0  0  0  0
  -21.0453  -27.1887   19.2339 O   0  0  0  0  0  0  0  0  0  0  0  0
  -31.6659  -15.1045   19.4830 O   0  0  0  0  0  0  0  0  0  0  0  0
  -29.0408  -22.2899   22.1518 O   0  0  0  0  0  0  0  0  0  0  0  0
  -21.4446  -13.1625   25.9977 O   0  0  0  0  0  0  0  0  0  0  0  0
  -27.5734  -25.8782   20.6545 O   0  0  0  0  0  0  0  0  0  1  0  0
  -15.9737  -13.5310   25.4172 F   0  0  0  0  0  0  0  0  0  0  0  0
  -20.0695  -15.3860   26.8966 F   0  0  0  0  0  0  0  0  0  0  0  0
  1  2  1  0  0  0  0
  1  5  2  0  0  0  0
  2  6  2  0  0  0  0
  3  8  2  0  0  0  0
  3 15  1  0  0  0  0
  4  9  1  0  0  0  0
  4 15  2  0  0  0  0
  5 17  1  0  0  0  0
  6 19  1  0  0  0  0
  7 10  2  0  0  0  0
  7 18  1  0  0  0  0
  8 21  1  0  0  0  0
  9 21  2  0  0  0  0
 10 22  1  0  0  0  0
 11 12  2  0  0  0  0
 11 23  1  0  0  0  0
 12 24  1  0  0  0  0
 13 20  1  0  0  0  0
 13 22  2  0  0  0  0
 14 24  2  0  0  0  0
 14 25  1  0  0  0  0
 15 26  1  0  0  0  0
 16 26  1  0  0  0  0
 16 27  2  0  0  0  0
 16 28  1  0  0  0  0
 17 19  2  0  0  0  0
 17 33  1  0  0  0  0
 18 20  2  0  0  0  0
 18 34  1  0  0  0  0
 19 49  1  0  0  0  0
 20 35  1  0  0  0  0
 21 84  1  0  0  0  0
 22 85  1  0  0  0  0
 23 25  2  0  0  0  0
 23 84  1  0  0  0  0
 24 86  1  0  0  0  0
 25 87  1  0  0  0  0
 26 68  2  0  0  0  0
 27 69  1  0  0  0  0
 27 72  1  0  0  0  0
 28 73  1  0  0  0  0
 28 78  2  0  0  0  0
 29 50  1  0  0  0  0
 29 74  1  0  0  0  0
 29 79  2  0  0  0  0
 30 65  1  0  0  0  0
 30 70  1  0  0  0  0
 30 80  2  0  0  0  0
 31 66  1  0  0  0  0
 31 75  1  0  0  0  0
 31 81  2  0  0  0  0
 32 71  1  0  0  0  0
 32 76  1  0  0  0  0
 32 82  2  0  0  0  0
 33 36  1  0  0  0  0
 34 50  1  0  0  0  0
 35 70  1  0  0  0  0
 36 38  1  0  0  0  0
 37 42  1  0  0  0  0
 37 46  1  0  0  0  0
 38 49  1  0  0  0  0
 39 45  1  0  0  0  0
 39 51  1  0  0  0  0
 40 43  1  0  0  0  0
 40 52  1  0  0  0  0
 41 44  1  0  0  0  0
 41 52  1  0  0  0  0
 42 54  1  0  0  0  0
 43 55  1  0  0  0  0
 44 55  1  0  0  0  0
 45 56  1  0  0  0  0
 46 71  1  0  0  0  0
 47 54  1  0  0  0  0
 47 71  1  0  0  0  0
 48 57  1  0  0  0  0
 48 83  1  0  0  0  0
 49 74  1  0  0  0  0
 50 70  1  0  0  0  0
 51 53  1  0  0  0  0
 51 57  1  0  0  0  0
 52 64  1  0  0  0  0
 53 56  1  0  0  0  0
 53 58  1  0  0  0  0
 54 69  1  0  0  0  0
 55 76  1  0  0  0  0
 56 85  1  0  0  0  0
 57 64  1  0  0  0  0
 57 83  1  0  0  0  0
 59 66  1  0  0  0  0
 60 67  1  0  0  0  0
 61 67  1  0  0  0  0
 62 67  1  0  0  0  0
 63 77  1  0  0  0  0
 65 67  1  0  0  0  0
 65 75  1  0  0  0  0
 66 77  1  0  0  0  0
 68 69  1  0  0  0  0
M  CHG  1  77   1
M  ISO  4  32 100  56 101  76 100  85 101
M  END
> <Batch ID>
0136

> <Smiles>
CNC(C)C(=O)NC(C(=O)N1Cc2cc([101O:1][101CH:1]3CCC(C4(CC5CCC([100NH:0][100C:0](=O)N6CCCC(n7nc(-c8ccc(Oc9ccc(F)cc9F)cc8)c(C(N)=O)c7N)C6)CC5)CO4)C3C)ccc2CC1C(=O)NC1CCCc2ccccc21)C(C)(C)C

> <Shape>
0.295

> <Color>
0.085

> <Negative vol penalty>
0.000

$$$$

  -OEChem-04052321023D

 83 92  0     1  0  0  0  0  0999 V2000
  -27.8321  -10.1913   19.6115 C   0  0  0  0  0  0  0  0  0  0  0  0
  -28.4034  -11.3777   19.1627 C   0  0  0  0  0  0  0  0  0  0  0  0
  -23.9252  -29.4106   23.0814 C   0  0  0  0  0  0  0  0  0  0  0  0
  -22.6346  -29.3477   21.0400 C   0  0  0  0  0  0  0  0  0  0  0  0
  -26.5823  -10.2107   20.2292 C   0  0  0  0  0  0  0  0  0  0  0  0
  -27.7246  -12.5842   19.3303 C   0  0  0  0  0  0  0  0  0  0  0  0
  -30.1963  -18.0730   20.4567 C   0  0  0  0  0  0  0  0  0  0  0  0
  -28.8582  -23.4505   16.3831 C   0  0  0  0  0  0  0  0  0  0  0  0
  -29.3138  -24.4249   15.4952 C   0  0  0  0  0  0  0  0  0  0  0  0
  -22.8228  -29.9270   23.7625 C   0  0  0  0  0  0  0  0  0  0  0  0
  -21.5322  -29.8640   21.7210 C   0  0  0  0  0  0  0  0  0  0  0  0
  -30.4998  -19.1528   19.6287 C   0  0  0  0  0  0  0  0  0  0  0  0
  -18.2685  -30.8272   23.0013 C   0  0  0  0  0  0  0  0  0  0  0  0
  -17.0270  -30.2350   22.7704 C   0  0  0  0  0  0  0  0  0  0  0  0
  -30.4261  -24.2329   18.0464 C   0  0  0  0  0  0  0  0  0  0  0  0
  -28.3973  -20.1823   20.2106 C   0  0  0  0  0  0  0  0  0  0  0  0
  -17.8853  -28.1234   23.5713 C   0  0  0  0  0  0  0  0  0  0  0  0
  -23.8311  -29.1211   21.7201 C   0  0  0  0  0  0  0  0  0  0  0  0
  -25.3051  -27.2317   20.8454 C   0  0  0  0  0  0  0  0  0  0  0  0
  -25.8922  -11.4192   20.4132 C   0  0  0  0  0  0  0  0  0  0  0  0
  -28.9841  -18.0346   21.1606 C   0  0  0  0  0  0  0  0  0  0  0  0
  -26.4638  -12.6196   19.9499 C   0  0  0  0  0  0  0  0  0  0  0  0
  -30.8818  -25.2074   17.1584 C   0  0  0  0  0  0  0  0  0  0  0  0
  -28.0819  -19.1021   21.0489 C   0  0  0  0  0  0  0  0  0  0  0  0
  -29.4143  -23.3545   17.6588 C   0  0  0  0  0  0  0  0  0  0  0  0
  -30.3256  -25.3033   15.8828 C   0  0  0  0  0  0  0  0  0  0  0  0
  -21.6263  -30.1536   23.0823 C   0  0  0  0  0  0  0  0  0  0  0  0
  -29.5990  -20.2063   19.5032 C   0  0  0  0  0  0  0  0  0  0  0  0
  -19.3186  -30.0676   23.5172 C   0  0  0  0  0  0  0  0  0  0  0  0
  -16.8354  -28.8831   23.0554 C   0  0  0  0  0  0  0  0  0  0  0  0
  -19.1269  -28.7157   23.8022 C   0  0  0  0  0  0  0  0  0  0  0  0
  -24.9696  -28.5882   21.0160 C   0  0  0  0  0  0  0  0  0  0  0  0
  -26.4651  -27.2547   20.1104 C   0  0  0  0  0  0  0  0  0  0  0  0
  -24.6286  -26.0560   21.3099 C   0  0  0  0  0  0  0  0  0  0  0  0
  -26.4569  -16.1067   21.1718 C   0  0  0  0  0  0  0  0  0  0  0  0
  -25.5413  -17.9616   23.6705 C   0  0  0  0  0  0  0  0  0  0  0  0
  -25.7573  -20.9609   25.2843 C   0  0  0  0  0  0  0  0  0  0  0  0
  -29.5025  -29.2443   15.8724 C   0  0  0  0  0  0  0  0  0  0  0  0
  -24.5226  -11.3844   21.0439 C   0  0  0  0  0  0  0  0  0  0  0  0
  -28.6835  -16.8752   22.0705 C   0  0  0  0  0  0  0  0  0  0  0  0
  -26.7760  -19.1185   21.7990 C   0  0  0  0  0  0  0  0  0  0  0  0
  -24.0362  -12.7509   21.5197 C   0  0  0  0  0  0  0  0  0  0  0  0
  -29.5279  -31.0979   18.9122 C   0  0  0  0  0  0  0  0  0  0  0  0
  -32.1425  -26.4135   19.0636 C   0  0  0  0  0  0  0  0  0  0  0  0
  -31.5903  -27.4782   18.1682 C   0  0  0  0  0  0  0  0  0  0  0  0
  -24.2747  -13.8065   20.4446 C   0  0  0  0  0  0  0  0  0  0  0  0
  -28.3686  -30.5027   19.7132 C   0  0  0  0  0  0  0  0  0  0  0  0
  -29.2109  -31.1569   17.4195 C   0  0  0  0  0  0  0  0  0  0  0  0
  -27.6269  -29.2803   17.6265 C   0  0  0  0  0  0  0  0  0  0  0  0
  -31.9650  -26.1379   17.5943 C   0  0  0  0  0  0  0  0  0  0  0  0
  -25.7697  -13.9514   20.1357 C   0  0  1  0  0  0  0  0  0  0  0  0
  -27.1924  -16.6987   22.3407 C   0  0  1  0  0  0  0  0  0  0  0  0
  -27.9214  -29.1485   19.1305 C   0  0  2  0  0  0  0  0  0  0  0  0
  -24.8637  -22.1931   27.2794 C   0  0  0  0  0  0  0  0  0  0  0  0
  -22.9023  -18.4125   22.2069 C   0  0  0  0  0  0  0  0  0  0  0  0
  -22.4653  -20.3466   23.7355 C   0  0  0  0  0  0  0  0  0  0  0  0
  -22.6792  -18.0438   24.6704 C   0  0  0  0  0  0  0  0  0  0  0  0
  -28.4575  -21.2495   26.4609 C   0  0  0  0  0  0  0  0  0  0  0  0
  -30.7951  -26.3384   14.9135 C   0  0  0  0  0  0  0  0  0  0  0  0
  -28.9240  -22.3061   18.6136 C   0  0  0  0  0  0  0  0  0  1  0  0
  -29.6752  -27.2516   14.4032 C   0  0  0  0  0  0  0  0  0  0  0  0
  -24.7422  -19.2334   23.8214 C   0  0  1  0  0  0  0  0  0  0  0  0
  -25.9768  -21.3044   26.7466 C   0  0  2  0  0  0  0  0  0  0  0  0
  -23.2209  -19.0082   23.5928 C   0  0  0  0  0  0  0  0  0  0  0  0
  -25.8457  -29.4129   20.4361 N   0  0  0  0  0  0  0  0  0  0  0  0
  -26.7433  -28.5722   19.8940 N   0  0  0  0  0  0  0  0  0  0  0  0
  -26.5247  -17.9593   22.6712 N   0  0  0  0  0  0  0  0  0  0  0  0
  -28.7950  -29.8406   16.9291 N   0  0  0  0  0  0  0  0  0  0  0  0
  -27.2642  -26.2762   19.6345 N   0  0  0  0  0  0  0  0  0  0  0  0
  -23.4496  -26.2125   22.0514 N   0  0  0  0  0  0  0  0  0  0  0  0
  -26.4262  -14.7252   21.1676 N   0  0  0  0  0  0  0  0  0  0  0  0
  -25.0757  -19.7715   25.1359 N   0  0  0  0  0  0  0  0  0  0  0  0
  -29.0466  -27.9940   15.4731 N   0  0  0  0  0  0  0  0  0  0  0  0
  -27.2730  -22.0185   26.9220 N   0  3  0  0  0  0  0  0  0  0  0  0
  -25.0658  -24.9013   21.0884 O   0  0  0  0  0  0  0  0  0  0  0  0
  -25.9532  -16.8484   20.3364 O   0  0  0  0  0  0  0  0  0  0  0  0
  -25.3065  -17.0078   24.4167 O   0  0  0  0  0  0  0  0  0  0  0  0
  -26.1479  -21.6779   24.3657 O   0  0  0  0  0  0  0  0  0  0  0  0
  -30.4723  -29.7837   15.3288 O   0  0  0  0  0  0  0  0  0  0  0  0
  -20.5504  -30.6572   23.7466 O   0  0  0  0  0  0  0  0  0  0  0  0
  -29.8925  -21.2612   18.6952 O   0  0  0  0  0  0  0  0  0  1  0  0
  -15.6426  -28.3148   22.8351 F   0  0  0  0  0  0  0  0  0  0  0  0
  -20.1316  -27.9810   24.2990 F   0  0  0  0  0  0  0  0  0  0  0  0
  1  2  1  0  0  0  0
  1  5  2  0  0  0  0
  2  6  2  0  0  0  0
  3 10  2  0  0  0  0
  3 18  1  0  0  0  0
  4 11  1  0  0  0  0
  4 18  2  0  0  0  0
  5 20  1  0  0  0  0
  6 22  1  0  0  0  0
  7 12  2  0  0  0  0
  7 21  1  0  0  0  0
  8  9  2  0  0  0  0
  8 25  1  0  0  0  0
  9 26  1  0  0  0  0
 10 27  1  0  0  0  0
 11 27  2  0  0  0  0
 12 28  1  0  0  0  0
 13 14  2  0  0  0  0
 13 29  1  0  0  0  0
 14 30  1  0  0  0  0
 15 23  1  0  0  0  0
 15 25  2  0  0  0  0
 16 24  1  0  0  0  0
 16 28  2  0  0  0  0
 17 30  2  0  0  0  0
 17 31  1  0  0  0  0
 18 32  1  0  0  0  0
 19 32  1  0  0  0  0
 19 33  2  0  0  0  0
 19 34  1  0  0  0  0
 20 22  2  0  0  0  0
 20 39  1  0  0  0  0
 21 24  2  0  0  0  0
 21 40  1  0  0  0  0
 22 51  1  0  0  0  0
 23 26  2  0  0  0  0
 23 50  1  0  0  0  0
 24 41  1  0  0  0  0
 25 60  1  0  0  0  0
 26 59  1  0  0  0  0
 27 80  1  0  0  0  0
 28 81  1  0  0  0  0
 29 31  2  0  0  0  0
 29 80  1  0  0  0  0
 30 82  1  0  0  0  0
 31 83  1  0  0  0  0
 32 65  2  0  0  0  0
 33 66  1  0  0  0  0
 33 69  1  0  0  0  0
 34 70  1  0  0  0  0
 34 75  2  0  0  0  0
 35 52  1  0  0  0  0
 35 71  1  0  0  0  0
 35 76  2  0  0  0  0
 36 62  1  0  0  0  0
 36 67  1  0  0  0  0
 36 77  2  0  0  0  0
 37 63  1  0  0  0  0
 37 72  1  0  0  0  0
 37 78  2  0  0  0  0
 38 68  1  0  0  0  0
 38 73  1  0  0  0  0
 38 79  2  0  0  0  0
 39 42  1  0  0  0  0
 40 52  1  0  0  0  0
 41 67  1  0  0  0  0
 42 46  1  0  0  0  0
 43 47  1  0  0  0  0
 43 48  1  0  0  0  0
 44 45  1  0  0  0  0
 44 50  1  0  0  0  0
 45 50  1  0  0  0  0
 46 51  1  0  0  0  0
 47 53  1  0  0  0  0
 48 68  1  0  0  0  0
 49 53  1  0  0  0  0
 49 68  1  0  0  0  0
 51 71  1  0  0  0  0
 52 67  1  0  0  0  0
 53 66  1  0  0  0  0
 54 63  1  0  0  0  0
 55 64  1  0  0  0  0
 56 64  1  0  0  0  0
 57 64  1  0  0  0  0
 58 74  1  0  0  0  0
 59 61  1  0  0  0  0
 60 81  1  0  0  0  0
 61 73  1  0  0  0  0
 62 64  1  0  0  0  0
 62 72  1  0  0  0  0
 63 74  1  0  0  0  0
 65 66  1  0  0  0  0
M  CHG  1  74   1
M  ISO  4  38 100  60 101  73 100  81 101
M  END
> <Batch ID>
0136

> <Smiles>
CNC(C)C(=O)NC(C(=O)N1Cc2cc([101O:1][101CH2:1]c3ccc(CC[100NH:0][100C:0](=O)N4CCCC(n5nc(-c6ccc(Oc7ccc(F)cc7F)cc6)c(C(N)=O)c5N)C4)c(C4CC4)c3)ccc2CC1C(=O)NC1CCCc2ccccc21)C(C)(C)C

> <Shape>
0.229

> <Color>
0.065

> <Negative vol penalty>
0.000

$$$$

  -OEChem-04052321023D

 87 96  0     1  0  0  0  0  0999 V2000
  -20.1391  -29.7516   22.6601 C   0  0  0  0  0  0  0  0  0  0  0  0
  -20.3262  -28.3789   22.5334 C   0  0  0  0  0  0  0  0  0  0  0  0
  -22.9240  -10.1551   19.9898 C   0  0  0  0  0  0  0  0  0  0  0  0
  -24.0611   -9.4786   22.0113 C   0  0  0  0  0  0  0  0  0  0  0  0
  -20.8755  -30.6305   21.8669 C   0  0  0  0  0  0  0  0  0  0  0  0
  -21.2491  -27.8842   21.6125 C   0  0  0  0  0  0  0  0  0  0  0  0
  -24.1349  -24.1979   23.5433 C   0  0  0  0  0  0  0  0  0  0  0  0
  -22.1669   -8.9841   20.0237 C   0  0  0  0  0  0  0  0  0  0  0  0
  -23.3040   -8.3075   22.0453 C   0  0  0  0  0  0  0  0  0  0  0  0
  -23.5651  -22.9293   23.6428 C   0  0  0  0  0  0  0  0  0  0  0  0
  -20.1837   -7.3863   22.9595 C   0  0  0  0  0  0  0  0  0  0  0  0
  -19.6354   -7.0062   24.1844 C   0  0  0  0  0  0  0  0  0  0  0  0
  -24.7101  -22.2635   21.6267 C   0  0  0  0  0  0  0  0  0  0  0  0
  -27.7951  -19.0401   23.6067 C   0  0  0  0  0  0  0  0  0  0  0  0
  -20.8679   -4.9302   24.0918 C   0  0  0  0  0  0  0  0  0  0  0  0
  -28.4884  -17.6967   21.3350 C   0  0  0  0  0  0  0  0  0  0  0  0
  -23.8711  -10.4023   20.9836 C   0  0  0  0  0  0  0  0  0  0  0  0
  -24.3352  -12.8478   21.5420 C   0  0  0  0  0  0  0  0  0  0  0  0
  -21.8149  -30.1467   20.9427 C   0  0  0  0  0  0  0  0  0  0  0  0
  -24.9893  -24.5127   22.4769 C   0  0  0  0  0  0  0  0  0  0  0  0
  -21.9978  -28.7574   20.8053 C   0  0  0  0  0  0  0  0  0  0  0  0
  -25.2914  -23.5360   21.5173 C   0  0  0  0  0  0  0  0  0  0  0  0
  -29.1268  -18.7013   23.3941 C   0  0  0  0  0  0  0  0  0  0  0  0
  -29.4884  -18.0168   22.2391 C   0  0  0  0  0  0  0  0  0  0  0  0
  -22.3569   -8.0603   21.0514 C   0  0  0  0  0  0  0  0  0  0  0  0
  -23.8504  -21.9628   22.6829 C   0  0  0  0  0  0  0  0  0  0  0  0
  -21.0741   -6.5384   22.3006 C   0  0  0  0  0  0  0  0  0  0  0  0
  -19.9775   -5.7782   24.7505 C   0  0  0  0  0  0  0  0  0  0  0  0
  -21.4162   -5.3104   22.8668 C   0  0  0  0  0  0  0  0  0  0  0  0
  -24.6538  -11.6115   20.9488 C   0  0  0  0  0  0  0  0  0  0  0  0
  -26.8710  -18.6744   22.6412 C   0  0  0  0  0  0  0  0  0  0  0  0
  -25.3920  -13.6647   21.2220 C   0  0  0  0  0  0  0  0  0  0  0  0
  -23.1867  -13.2241   22.3134 C   0  0  0  0  0  0  0  0  0  0  0  0
  -24.9184  -26.6102   20.0896 C   0  0  0  0  0  0  0  0  0  0  0  0
  -27.9130  -25.4930   19.5360 C   0  0  0  0  0  0  0  0  0  0  0  0
  -30.1689  -22.9558   19.8829 C   0  0  0  0  0  0  0  0  0  0  0  0
  -30.8784  -14.5498   20.7107 C   0  0  0  0  0  0  0  0  0  0  0  0
  -22.5533  -31.1338   20.0738 C   0  0  0  0  0  0  0  0  0  0  0  0
  -25.6170  -25.8774   22.3985 C   0  0  0  0  0  0  0  0  0  0  0  0
  -26.2185  -23.8172   20.3641 C   0  0  0  0  0  0  0  0  0  0  0  0
  -23.7813  -30.5415   19.3872 C   0  0  0  0  0  0  0  0  0  0  0  0
  -29.2143  -12.9852   17.9794 C   0  0  0  0  0  0  0  0  0  0  0  0
  -30.5330  -18.0802   25.4703 C   0  0  0  0  0  0  0  0  0  0  0  0
  -29.7181  -19.2792   25.8425 C   0  0  0  0  0  0  0  0  0  0  0  0
  -23.4451  -29.1902   18.7647 C   0  0  0  0  0  0  0  0  0  0  0  0
  -27.8564  -12.5851   18.5591 C   0  0  0  0  0  0  0  0  0  0  0  0
  -30.3333  -12.8353   19.0078 C   0  0  0  0  0  0  0  0  0  0  0  0
  -28.7406  -13.1346   20.8646 C   0  0  0  0  0  0  0  0  0  0  0  0
  -30.1485  -19.0812   24.4132 C   0  0  0  0  0  0  0  0  0  0  0  0
  -23.0074  -28.1832   19.8352 C   0  0  1  0  0  0  0  0  0  0  0  0
  -26.0666  -26.2481   20.9886 C   0  0  1  0  0  0  0  0  0  0  0  0
  -27.5722  -13.3221   19.8817 C   0  0  2  0  0  0  0  0  0  0  0  0
  -32.5236  -22.3192   19.2934 C   0  0  0  0  0  0  0  0  0  0  0  0
  -22.8250  -18.6555   23.8584 C   0  0  0  0  0  0  0  0  0  0  0  0
  -27.0441  -24.9500   16.6620 C   0  0  0  0  0  0  0  0  0  0  0  0
  -29.0560  -23.4822   16.4047 C   0  0  0  0  0  0  0  0  0  0  0  0
  -29.3410  -25.9117   16.8933 C   0  0  0  0  0  0  0  0  0  0  0  0
  -30.9384  -22.7099   22.7301 C   0  0  0  0  0  0  0  0  0  0  0  0
  -31.2792  -16.2376   22.4855 C   0  0  0  0  0  0  0  0  0  0  0  0
  -25.0942  -19.7269   24.0416 C   0  0  0  0  0  0  0  0  0  0  0  0
  -30.8991  -17.6291   21.9594 C   0  0  1  0  0  0  0  0  0  0  0  0
  -28.5007  -24.3716   18.7137 C   0  0  1  0  0  0  0  0  0  0  0  0
  -31.6170  -22.9508   20.3384 C   0  0  2  0  0  0  0  0  0  0  0  0
  -23.5892  -19.9682   23.9515 C   0  0  1  0  0  0  0  0  0  1  0  0
  -28.4664  -24.6739   17.1890 C   0  0  0  0  0  0  0  0  0  0  0  0
  -27.1844  -18.0090   21.5069 N   0  0  0  0  0  0  0  0  0  0  0  0
  -25.8215  -11.6363   20.3008 N   0  0  0  0  0  0  0  0  0  0  0  0
  -26.2459  -12.8981   20.4850 N   0  0  0  0  0  0  0  0  0  0  0  0
  -26.8023  -25.1683   20.3276 N   0  0  0  0  0  0  0  0  0  0  0  0
  -30.0023  -13.5588   20.2378 N   0  0  0  0  0  0  0  0  0  0  0  0
  -25.6647  -14.9569   21.5019 N   0  0  0  0  0  0  0  0  0  0  0  0
  -22.1951  -12.2619   22.5483 N   0  0  0  0  0  0  0  0  0  0  0  0
  -25.5485  -19.0176   22.8670 N   0  0  0  0  0  0  0  0  0  0  0  0
  -24.1583  -27.6698   20.5468 N   0  0  0  0  0  0  0  0  0  0  0  0
  -29.8381  -24.1330   19.2457 N   0  0  0  0  0  0  0  0  0  0  0  0
  -30.4863  -15.1914   21.8792 N   0  0  0  0  0  0  0  0  0  0  0  0
  -31.7579  -22.1836   21.6083 N   0  3  0  0  0  0  0  0  0  0  0  0
  -23.0363  -14.3840   22.7668 O   0  0  0  0  0  0  0  0  0  0  0  0
  -24.7365  -25.9762   19.0568 O   0  0  0  0  0  0  0  0  0  0  0  0
  -28.4251  -26.6140   19.4834 O   0  0  0  0  0  0  0  0  0  0  0  0
  -29.4084  -22.0087   20.0702 O   0  0  0  0  0  0  0  0  0  0  0  0
  -31.9292  -14.8449   20.1313 O   0  0  0  0  0  0  0  0  0  0  0  0
  -21.6182   -6.9176   21.0850 O   0  0  0  0  0  0  0  0  0  0  0  0
  -23.2951  -20.7240   22.7773 O   0  0  0  0  0  0  0  0  0  1  0  0
  -19.4521   -5.4139   25.9276 F   0  0  0  0  0  0  0  0  0  0  0  0
  -22.2719   -4.4921   22.2392 F   0  0  0  0  0  0  0  0  0  0  0  0
  -31.2251  -17.6550   20.6237 F   0  0  0  0  0  0  0  0  0  0  0  0
  1  2  1  0  0  0  0
  1  5  2  0  0  0  0
  2  6  2  0  0  0  0
  3  8  2  0  0  0  0
  3 17  1  0  0  0  0
  4  9  1  0  0  0  0
  4 17  2  0  0  0  0
  5 19  1  0  0  0  0
  6 21  1  0  0  0  0
  7 10  2  0  0  0  0
  7 20  1  0  0  0  0
  8 25  1  0  0  0  0
  9 25  2  0  0  0  0
 10 26  1  0  0  0  0
 11 12  2  0  0  0  0
 11 27  1  0  0  0  0
 12 28  1  0  0  0  0
 13 22  1  0  0  0  0
 13 26  2  0  0  0  0
 14 23  2  0  0  0  0
 14 31  1  0  0  0  0
 15 28  2  0  0  0  0
 15 29  1  0  0  0  0
 16 24  2  0  0  0  0
 16 66  1  0  0  0  0
 17 30  1  0  0  0  0
 18 30  1  0  0  0  0
 18 32  2  0  0  0  0
 18 33  1  0  0  0  0
 19 21  2  0  0  0  0
 19 38  1  0  0  0  0
 20 22  2  0  0  0  0
 20 39  1  0  0  0  0
 21 50  1  0  0  0  0
 22 40  1  0  0  0  0
 23 24  1  0  0  0  0
 23 49  1  0  0  0  0
 24 61  1  0  0  0  0
 25 83  1  0  0  0  0
 26 84  1  0  0  0  0
 27 29  2  0  0  0  0
 27 83  1  0  0  0  0
 28 85  1  0  0  0  0
 29 86  1  0  0  0  0
 30 67  2  0  0  0  0
 31 66  2  0  0  0  0
 31 73  1  0  0  0  0
 32 68  1  0  0  0  0
 32 71  1  0  0  0  0
 33 72  1  0  0  0  0
 33 78  2  0  0  0  0
 34 51  1  0  0  0  0
 34 74  1  0  0  0  0
 34 79  2  0  0  0  0
 35 62  1  0  0  0  0
 35 69  1  0  0  0  0
 35 80  2  0  0  0  0
 36 63  1  0  0  0  0
 36 75  1  0  0  0  0
 36 81  2  0  0  0  0
 37 70  1  0  0  0  0
 37 76  1  0  0  0  0
 37 82  2  0  0  0  0
 38 41  1  0  0  0  0
 39 51  1  0  0  0  0
 40 69  1  0  0  0  0
 41 45  1  0  0  0  0
 42 46  1  0  0  0  0
 42 47  1  0  0  0  0
 43 44  1  0  0  0  0
 43 49  1  0  0  0  0
 44 49  1  0  0  0  0
 45 50  1  0  0  0  0
 46 52  1  0  0  0  0
 47 70  1  0  0  0  0
 48 52  1  0  0  0  0
 48 70  1  0  0  0  0
 50 74  1  0  0  0  0
 51 69  1  0  0  0  0
 52 68  1  0  0  0  0
 53 63  1  0  0  0  0
 54 64  1  0  0  0  0
 55 65  1  0  0  0  0
 56 65  1  0  0  0  0
 57 65  1  0  0  0  0
 58 77  1  0  0  0  0
 59 61  1  0  0  0  0
 59 76  1  0  0  0  0
 60 64  1  0  0  0  0
 60 73  1  0  0  0  0
 61 87  1  0  0  0  0
 62 65  1  0  0  0  0
 62 75  1  0  0  0  0
 63 77  1  0  0  0  0
 64 84  1  0  0  0  0
 67 68  1  0  0  0  0
M  CHG  1  77   1
M  ISO  4  37 100  64 101  76 100  84 101
M  END
> <Batch ID>
0136

> <Smiles>
CNC(C)C(=O)NC(C(=O)N1Cc2cc([101O:1][101CH:1](C)CNc3cc(C4CC4)c(C(F)C[100NH:0][100C:0](=O)N4CCCC(n5nc(-c6ccc(Oc7ccc(F)cc7F)cc6)c(C(N)=O)c5N)C4)cn3)ccc2CC1C(=O)NC1CCCc2ccccc21)C(C)(C)C

> <Shape>
0.294

> <Color>
0.158

> <Negative vol penalty>
0.000

$$$$

  -OEChem-04052321023D

 86 95  0     1  0  0  0  0  0999 V2000
  -34.3640  -26.9621   17.6828 C   0  0  0  0  0  0  0  0  0  0  0  0
  -33.4292  -25.9722   17.9689 C   0  0  0  0  0  0  0  0  0  0  0  0
  -24.1611   -9.2886   22.0882 C   0  0  0  0  0  0  0  0  0  0  0  0
  -23.5492  -11.4289   23.0271 C   0  0  0  0  0  0  0  0  0  0  0  0
  -34.4744  -28.0760   18.5140 C   0  0  0  0  0  0  0  0  0  0  0  0
  -32.6052  -26.0951   19.0870 C   0  0  0  0  0  0  0  0  0  0  0  0
  -26.7918  -24.2377   19.5978 C   0  0  0  0  0  0  0  0  0  0  0  0
  -27.5970  -19.4591   23.8201 C   0  0  0  0  0  0  0  0  0  0  0  0
  -28.6420  -18.7443   23.2349 C   0  0  0  0  0  0  0  0  0  0  0  0
  -23.5787   -8.6435   23.1791 C   0  0  0  0  0  0  0  0  0  0  0  0
  -22.9668  -10.7838   24.1181 C   0  0  0  0  0  0  0  0  0  0  0  0
  -26.2173  -23.0968   20.1565 C   0  0  0  0  0  0  0  0  0  0  0  0
  -20.4686   -7.8080   24.2096 C   0  0  0  0  0  0  0  0  0  0  0  0
  -19.6553   -6.7046   23.9518 C   0  0  0  0  0  0  0  0  0  0  0  0
  -25.8196  -24.3076   22.2047 C   0  0  0  0  0  0  0  0  0  0  0  0
  -26.2190  -19.0311   21.8823 C   0  0  0  0  0  0  0  0  0  0  0  0
  -21.1186   -5.3155   25.2807 C   0  0  0  0  0  0  0  0  0  0  0  0
  -24.1464  -10.6814   22.0122 C   0  0  0  0  0  0  0  0  0  0  0  0
  -24.1244  -11.7017   19.6742 C   0  0  0  0  0  0  0  0  0  0  0  0
  -33.6446  -28.2173   19.6375 C   0  0  0  0  0  0  0  0  0  0  0  0
  -26.8946  -25.4209   20.3433 C   0  0  0  0  0  0  0  0  0  0  0  0
  -32.7055  -27.2113   19.9348 C   0  0  0  0  0  0  0  0  0  0  0  0
  -26.3935  -25.4628   21.6523 C   0  0  0  0  0  0  0  0  0  0  0  0
  -26.3854  -19.6025   23.1439 C   0  0  0  0  0  0  0  0  0  0  0  0
  -28.4756  -18.1729   21.9734 C   0  0  0  0  0  0  0  0  0  0  0  0
  -27.2641  -18.3164   21.2970 C   0  0  0  0  0  0  0  0  0  0  0  0
  -22.9815   -9.3911   24.1941 C   0  0  0  0  0  0  0  0  0  0  0  0
  -25.7337  -23.1308   21.4611 C   0  0  0  0  0  0  0  0  0  0  0  0
  -21.6070   -7.6652   25.0030 C   0  0  0  0  0  0  0  0  0  0  0  0
  -19.9803   -5.4583   24.4873 C   0  0  0  0  0  0  0  0  0  0  0  0
  -21.9320   -6.4190   25.5385 C   0  0  0  0  0  0  0  0  0  0  0  0
  -24.7483  -11.3484   20.8857 C   0  0  0  0  0  0  0  0  0  0  0  0
  -25.1157  -12.3075   18.9415 C   0  0  0  0  0  0  0  0  0  0  0  0
  -22.7700  -11.5005   19.2492 C   0  0  0  0  0  0  0  0  0  0  0  0
  -29.3035  -27.2190   21.3766 C   0  0  0  0  0  0  0  0  0  0  0  0
  -26.9106  -29.1917   22.3280 C   0  0  0  0  0  0  0  0  0  0  0  0
  -23.6372  -29.5535   23.2228 C   0  0  0  0  0  0  0  0  0  0  0  0
  -30.1506  -15.1641   20.4715 C   0  0  0  0  0  0  0  0  0  0  0  0
  -33.8333  -29.4161   20.5331 C   0  0  0  0  0  0  0  0  0  0  0  0
  -27.4928  -26.6506   19.7170 C   0  0  0  0  0  0  0  0  0  0  0  0
  -26.4615  -26.7141   22.4877 C   0  0  0  0  0  0  0  0  0  0  0  0
  -32.6659  -29.6529   21.4877 C   0  0  0  0  0  0  0  0  0  0  0  0
  -29.8639  -12.3165   18.3536 C   0  0  0  0  0  0  0  0  0  0  0  0
  -32.2524  -28.3473   22.1596 C   0  0  0  0  0  0  0  0  0  0  0  0
  -28.4640  -11.7774   18.6531 C   0  0  0  0  0  0  0  0  0  0  0  0
  -26.0160  -17.5720   17.8016 C   0  0  0  0  0  0  0  0  0  0  0  0
  -30.5339  -12.8744   19.6073 C   0  0  0  0  0  0  0  0  0  0  0  0
  -28.3436  -13.3462   20.6337 C   0  0  0  0  0  0  0  0  0  0  0  0
  -24.5899  -17.3480   17.3416 C   0  0  0  0  0  0  0  0  0  0  0  0
  -24.8092  -16.8543   19.7222 C   0  0  0  0  0  0  0  0  0  0  0  0
  -31.7767  -27.3208   21.1245 C   0  0  1  0  0  0  0  0  0  0  0  0
  -28.0113  -27.6524   20.7441 C   0  0  1  0  0  0  0  0  0  0  0  0
  -27.6058  -12.8237   19.3891 C   0  0  2  0  0  0  0  0  0  0  0  0
  -25.8526  -17.8662   19.2841 C   0  0  1  0  0  0  0  0  0  0  0  0
  -21.9825  -31.2795   23.9847 C   0  0  0  0  0  0  0  0  0  0  0  0
  -28.1501  -29.1458   25.1157 C   0  0  0  0  0  0  0  0  0  0  0  0
  -25.9993  -30.0626   26.0111 C   0  0  0  0  0  0  0  0  0  0  0  0
  -27.3335  -31.3902   24.3740 C   0  0  0  0  0  0  0  0  0  0  0  0
  -21.9187  -29.1205   20.8525 C   0  0  0  0  0  0  0  0  0  0  0  0
  -25.2549  -20.3760   23.7777 C   0  0  0  0  0  0  0  0  0  0  0  0
  -29.6124  -17.4142   21.3695 C   0  0  0  0  0  0  0  0  0  0  0  0
  -25.2954  -21.8582   23.4218 C   0  0  0  0  0  0  0  0  0  1  0  0
  -26.0827  -29.3409   23.5815 C   0  0  1  0  0  0  0  0  0  0  0  0
  -22.5791  -30.5522   22.7897 C   0  0  2  0  0  0  0  0  0  0  0  0
  -26.8917  -29.9606   24.7558 C   0  0  0  0  0  0  0  0  0  0  0  0
  -26.0362  -11.7002   20.9243 N   0  0  0  0  0  0  0  0  0  0  0  0
  -26.2297  -12.2809   19.7279 N   0  0  0  0  0  0  0  0  0  0  0  0
  -27.0611  -27.8886   21.8329 N   0  0  0  0  0  0  0  0  0  0  0  0
  -29.6690  -13.8622   20.2570 N   0  0  0  0  0  0  0  0  0  0  0  0
  -25.1344  -12.8549   17.7076 N   0  0  0  0  0  0  0  0  0  0  0  0
  -21.8826  -10.8614   20.1259 N   0  0  0  0  0  0  0  0  0  0  0  0
  -27.0786  -17.7463   20.0185 N   0  0  0  0  0  0  0  0  0  0  0  0
  -30.4309  -27.6276   20.6899 N   0  0  0  0  0  0  0  0  0  0  0  0
  -24.9003  -30.1061   23.2011 N   0  0  0  0  0  0  0  0  0  0  0  0
  -29.2645  -16.0394   21.0874 N   0  0  0  0  0  0  0  0  0  0  0  0
  -23.9221  -16.6987   18.5195 N   0  3  0  0  0  0  0  0  0  0  0  0
  -21.4777  -29.8581   22.0643 N   0  3  0  0  0  0  0  0  0  0  0  0
  -22.3630  -11.8615   18.1190 O   0  0  0  0  0  0  0  0  0  0  0  0
  -29.2795  -26.5638   22.4119 O   0  0  0  0  0  0  0  0  0  0  0  0
  -27.3997  -30.1952   21.8032 O   0  0  0  0  0  0  0  0  0  0  0  0
  -23.3696  -28.3998   23.5512 O   0  0  0  0  0  0  0  0  0  0  0  0
  -31.2842  -15.5216   20.1339 O   0  0  0  0  0  0  0  0  0  0  0  0
  -22.4129   -8.7619   25.2587 O   0  0  0  0  0  0  0  0  0  0  0  0
  -25.1730  -22.0185   22.0092 O   0  0  0  0  0  0  0  0  0  1  0  0
  -19.1983   -4.3990   24.2409 F   0  0  0  0  0  0  0  0  0  0  0  0
  -23.0237   -6.2759   26.3024 F   0  0  0  0  0  0  0  0  0  0  0  0
  1  2  1  0  0  0  0
  1  5  2  0  0  0  0
  2  6  2  0  0  0  0
  3 10  2  0  0  0  0
  3 18  1  0  0  0  0
  4 11  1  0  0  0  0
  4 18  2  0  0  0  0
  5 20  1  0  0  0  0
  6 22  1  0  0  0  0
  7 12  2  0  0  0  0
  7 21  1  0  0  0  0
  8  9  2  0  0  0  0
  8 24  1  0  0  0  0
  9 25  1  0  0  0  0
 10 27  1  0  0  0  0
 11 27  2  0  0  0  0
 12 28  1  0  0  0  0
 13 14  2  0  0  0  0
 13 29  1  0  0  0  0
 14 30  1  0  0  0  0
 15 23  1  0  0  0  0
 15 28  2  0  0  0  0
 16 24  2  0  0  0  0
 16 26  1  0  0  0  0
 17 30  2  0  0  0  0
 17 31  1  0  0  0  0
 18 32  1  0  0  0  0
 19 32  1  0  0  0  0
 19 33  2  0  0  0  0
 19 34  1  0  0  0  0
 20 22  2  0  0  0  0
 20 39  1  0  0  0  0
 21 23  2  0  0  0  0
 21 40  1  0  0  0  0
 22 51  1  0  0  0  0
 23 41  1  0  0  0  0
 24 60  1  0  0  0  0
 25 26  2  0  0  0  0
 25 61  1  0  0  0  0
 26 72  1  0  0  0  0
 27 83  1  0  0  0  0
 28 84  1  0  0  0  0
 29 31  2  0  0  0  0
 29 83  1  0  0  0  0
 30 85  1  0  0  0  0
 31 86  1  0  0  0  0
 32 66  2  0  0  0  0
 33 67  1  0  0  0  0
 33 70  1  0  0  0  0
 34 71  1  0  0  0  0
 34 78  2  0  0  0  0
 35 52  1  0  0  0  0
 35 73  1  0  0  0  0
 35 79  2  0  0  0  0
 36 63  1  0  0  0  0
 36 68  1  0  0  0  0
 36 80  2  0  0  0  0
 37 64  1  0  0  0  0
 37 74  1  0  0  0  0
 37 81  2  0  0  0  0
 38 69  1  0  0  0  0
 38 75  1  0  0  0  0
 38 82  2  0  0  0  0
 39 42  1  0  0  0  0
 40 52  1  0  0  0  0
 41 68  1  0  0  0  0
 42 44  1  0  0  0  0
 43 45  1  0  0  0  0
 43 47  1  0  0  0  0
 44 51  1  0  0  0  0
 45 53  1  0  0  0  0
 46 49  1  0  0  0  0
 46 54  1  0  0  0  0
 47 69  1  0  0  0  0
 48 53  1  0  0  0  0
 48 69  1  0  0  0  0
 49 76  1  0  0  0  0
 50 54  1  0  0  0  0
 50 76  1  0  0  0  0
 51 73  1  0  0  0  0
 52 68  1  0  0  0  0
 53 67  1  0  0  0  0
 54 72  1  0  0  0  0
 55 64  1  0  0  0  0
 56 65  1  0  0  0  0
 57 65  1  0  0  0  0
 58 65  1  0  0  0  0
 59 77  1  0  0  0  0
 60 62  1  0  0  0  0
 61 75  1  0  0  0  0
 62 84  1  0  0  0  0
 63 65  1  0  0  0  0
 63 74  1  0  0  0  0
 64 77  1  0  0  0  0
 66 67  1  0  0  0  0
M  CHG  2  76   1  77   1
M  ISO  4  38 100  62 101  75 100  84 101
M  END
> <Batch ID>
0136

> <Smiles>
CNC(C)C(=O)NC(C(=O)N1Cc2cc([101O:1][101CH2:1]Cc3ccc(C[100NH:0][100C:0](=O)N4CCCC(n5nc(-c6ccc(Oc7ccc(F)cc7F)cc6)c(C(N)=O)c5N)C4)c(NC4CCNC4)c3)ccc2CC1C(=O)NC1CCCc2ccccc21)C(C)(C)C

> <Shape>
0.232

> <Color>
0.079

> <Negative vol penalty>
0.000

$$$$

  -OEChem-04052321023D

 89 99  0     1  0  0  0  0  0999 V2000
  -18.4677  -27.0317   23.5511 C   0  0  0  0  0  0  0  0  0  0  0  0
  -19.6107  -26.6089   22.8802 C   0  0  0  0  0  0  0  0  0  0  0  0
  -30.2717  -22.6887   19.3645 C   0  0  0  0  0  0  0  0  0  0  0  0
  -23.0222  -16.5912   20.5569 C   0  0  0  0  0  0  0  0  0  0  0  0
  -24.5966  -16.6805   22.3873 C   0  0  0  0  0  0  0  0  0  0  0  0
  -17.9263  -28.2877   23.2804 C   0  0  0  0  0  0  0  0  0  0  0  0
  -20.2125  -27.4415   21.9373 C   0  0  0  0  0  0  0  0  0  0  0  0
  -25.2497  -27.6119   22.4295 C   0  0  0  0  0  0  0  0  0  0  0  0
  -27.7542  -20.0286   19.0669 C   0  0  0  0  0  0  0  0  0  0  0  0
  -22.4561  -17.7919   20.9852 C   0  0  0  0  0  0  0  0  0  0  0  0
  -24.0305  -17.8812   22.8156 C   0  0  0  0  0  0  0  0  0  0  0  0
  -25.9753  -26.5320   21.9283 C   0  0  0  0  0  0  0  0  0  0  0  0
  -28.4760  -19.0230   18.4191 C   0  0  0  0  0  0  0  0  0  0  0  0
  -20.8301  -21.0183   21.3866 C   0  0  0  0  0  0  0  0  0  0  0  0
  -20.5560  -21.9869   20.4210 C   0  0  0  0  0  0  0  0  0  0  0  0
  -29.5278  -23.6670   20.0082 C   0  0  0  0  0  0  0  0  0  0  0  0
  -30.4129  -20.4458   18.3894 C   0  0  0  0  0  0  0  0  0  0  0  0
  -26.4960  -27.8084   19.9487 C   0  0  0  0  0  0  0  0  0  0  0  0
  -22.8975  -22.0606   19.8303 C   0  0  0  0  0  0  0  0  0  0  0  0
  -29.6866  -21.4570   19.0410 C   0  0  0  0  0  0  0  0  0  0  0  0
  -24.0924  -16.0354   21.2580 C   0  0  0  0  0  0  0  0  0  0  0  0
  -24.0339  -13.5490   20.6907 C   0  0  0  0  0  0  0  0  0  0  0  0
  -18.5273  -29.1400   22.3408 C   0  0  0  0  0  0  0  0  0  0  0  0
  -25.1325  -28.7962   21.6879 C   0  0  0  0  0  0  0  0  0  0  0  0
  -19.6779  -28.7096   21.6528 C   0  0  0  0  0  0  0  0  0  0  0  0
  -25.7705  -28.9027   20.4438 C   0  0  0  0  0  0  0  0  0  0  0  0
  -28.3349  -21.2522   19.3887 C   0  0  0  0  0  0  0  0  0  0  0  0
  -22.9602  -18.4369   22.1145 C   0  0  0  0  0  0  0  0  0  0  0  0
  -29.8070  -19.2315   18.0797 C   0  0  0  0  0  0  0  0  0  0  0  0
  -26.5961  -26.6291   20.6864 C   0  0  0  0  0  0  0  0  0  0  0  0
  -22.1379  -20.5709   21.5741 C   0  0  0  0  0  0  0  0  0  0  0  0
  -21.5897  -22.5080   19.6429 C   0  0  0  0  0  0  0  0  0  0  0  0
  -23.1716  -21.0920   20.7959 C   0  0  0  0  0  0  0  0  0  0  0  0
  -24.6772  -14.7948   20.8164 C   0  0  0  0  0  0  0  0  0  0  0  0
  -28.2127  -23.3748   20.3079 C   0  0  0  0  0  0  0  0  0  0  0  0
  -25.0146  -12.7003   20.2385 C   0  0  0  0  0  0  0  0  0  0  0  0
  -22.6717  -13.1909   20.9586 C   0  0  0  0  0  0  0  0  0  0  0  0
  -22.7123  -30.4109   20.4076 C   0  0  0  0  0  0  0  0  0  0  0  0
  -25.0240  -32.5888   19.7483 C   0  0  0  0  0  0  0  0  0  0  0  0
  -28.3351  -33.2323   19.2292 C   0  0  0  0  0  0  0  0  0  0  0  0
  -30.3543  -14.3539   17.4679 C   0  0  0  0  0  0  0  0  0  0  0  0
  -17.8786  -30.4696   22.0474 C   0  0  0  0  0  0  0  0  0  0  0  0
  -24.3686  -29.9615   22.2544 C   0  0  0  0  0  0  0  0  0  0  0  0
  -25.6920  -30.1594   19.6174 C   0  0  0  0  0  0  0  0  0  0  0  0
  -18.7919  -31.4427   21.3063 C   0  0  0  0  0  0  0  0  0  0  0  0
  -30.6622  -16.7481   13.4992 C   0  0  0  0  0  0  0  0  0  0  0  0
  -30.2755  -18.2107   13.6940 C   0  0  0  0  0  0  0  0  0  0  0  0
  -29.8405  -12.3510   20.5115 C   0  0  0  0  0  0  0  0  0  0  0  0
  -19.4870  -30.7420   20.1433 C   0  0  0  0  0  0  0  0  0  0  0  0
  -28.3463  -12.4390   20.8279 C   0  0  0  0  0  0  0  0  0  0  0  0
  -30.0457  -15.8570   14.5752 C   0  0  0  0  0  0  0  0  0  0  0  0
  -30.6369  -18.7003   15.0911 C   0  0  0  0  0  0  0  0  0  0  0  0
  -30.1375  -12.4357   19.0206 C   0  0  0  0  0  0  0  0  0  0  0  0
  -28.2731  -14.1035   18.9061 C   0  0  0  0  0  0  0  0  0  0  0  0
  -20.3737  -29.5942   20.6411 C   0  0  1  0  0  0  0  0  0  0  0  0
  -23.8859  -30.9364   21.1848 C   0  0  1  0  0  0  0  0  0  0  0  0
  -27.5142  -13.0033   19.6642 C   0  0  2  0  0  0  0  0  0  0  0  0
  -30.4028  -16.3433   15.9824 C   0  0  1  0  0  0  0  0  0  0  0  0
  -30.0281  -17.8170   16.1823 C   0  0  1  0  0  0  0  0  0  0  0  0
  -29.9152  -35.1008   18.6732 C   0  0  0  0  0  0  0  0  0  0  0  0
  -24.1095  -32.4932   16.8389 C   0  0  0  0  0  0  0  0  0  0  0  0
  -26.2629  -33.5983   16.1985 C   0  0  0  0  0  0  0  0  0  0  0  0
  -24.6499  -34.7827   17.6878 C   0  0  0  0  0  0  0  0  0  0  0  0
  -29.8101  -32.8973   21.7731 C   0  0  0  0  0  0  0  0  0  0  0  0
  -27.3703  -24.4029   21.0040 C   0  0  0  0  0  0  0  0  0  1  0  0
  -25.9706  -32.8278   18.5968 C   0  0  1  0  0  0  0  0  0  0  0  0
  -29.2522  -34.3057   19.7871 C   0  0  2  0  0  0  0  0  0  0  0  0
  -25.2483  -33.4010   17.3450 C   0  0  0  0  0  0  0  0  0  0  0  0
  -27.6105  -22.1998   20.0134 N   0  0  0  0  0  0  0  0  0  0  0  0
  -25.9668  -14.7463   20.4720 N   0  0  0  0  0  0  0  0  0  0  0  0
  -26.1418  -13.4597   20.1255 N   0  0  0  0  0  0  0  0  0  0  0  0
  -24.9282  -31.2690   20.2115 N   0  0  0  0  0  0  0  0  0  0  0  0
  -29.5977  -13.6660   18.4364 N   0  0  0  0  0  0  0  0  0  0  0  0
  -25.0140  -11.3859   19.9305 N   0  0  0  0  0  0  0  0  0  0  0  0
  -22.3373  -12.7516   22.2468 N   0  0  0  0  0  0  0  0  0  0  0  0
  -21.6107  -30.1110   21.1861 N   0  0  0  0  0  0  0  0  0  0  0  0
  -27.0360  -33.6797   19.1143 N   0  0  0  0  0  0  0  0  0  0  0  0
  -29.7608  -15.5136   16.9771 N   0  0  0  0  0  0  0  0  0  0  0  0
  -30.3200  -33.6904   20.6251 N   0  3  0  0  0  0  0  0  0  0  0  0
  -21.7807  -13.2430   20.0772 O   0  0  0  0  0  0  0  0  0  0  0  0
  -22.7992  -30.2881   19.1914 O   0  0  0  0  0  0  0  0  0  0  0  0
  -24.3983  -33.5395   20.2240 O   0  0  0  0  0  0  0  0  0  0  0  0
  -28.7323  -32.1104   18.9223 O   0  0  0  0  0  0  0  0  0  0  0  0
  -31.4621  -13.9694   17.0810 O   0  0  0  0  0  0  0  0  0  0  0  0
  -22.4083  -19.6087   22.5326 O   0  0  0  0  0  0  0  0  0  0  0  0
  -30.5136  -18.2553   17.4492 O   0  0  0  0  0  0  0  0  0  0  0  0
  -27.3045  -25.5763   20.1946 O   0  0  0  0  0  0  0  0  0  1  0  0
  -21.3261  -23.4370   18.7146 F   0  0  0  0  0  0  0  0  0  0  0  0
  -24.4298  -20.6653   20.9707 F   0  0  0  0  0  0  0  0  0  0  0  0
  1  2  1  0  0  0  0
  1  6  2  0  0  0  0
  2  7  2  0  0  0  0
  3 16  2  0  0  0  0
  3 20  1  0  0  0  0
  4 10  2  0  0  0  0
  4 21  1  0  0  0  0
  5 11  1  0  0  0  0
  5 21  2  0  0  0  0
  6 23  1  0  0  0  0
  7 25  1  0  0  0  0
  8 12  2  0  0  0  0
  8 24  1  0  0  0  0
  9 13  2  0  0  0  0
  9 27  1  0  0  0  0
 10 28  1  0  0  0  0
 11 28  2  0  0  0  0
 12 30  1  0  0  0  0
 13 29  1  0  0  0  0
 14 15  2  0  0  0  0
 14 31  1  0  0  0  0
 15 32  1  0  0  0  0
 16 35  1  0  0  0  0
 17 20  1  0  0  0  0
 17 29  2  0  0  0  0
 18 26  1  0  0  0  0
 18 30  2  0  0  0  0
 19 32  2  0  0  0  0
 19 33  1  0  0  0  0
 20 27  2  0  0  0  0
 21 34  1  0  0  0  0
 22 34  1  0  0  0  0
 22 36  2  0  0  0  0
 22 37  1  0  0  0  0
 23 25  2  0  0  0  0
 23 42  1  0  0  0  0
 24 26  2  0  0  0  0
 24 43  1  0  0  0  0
 25 55  1  0  0  0  0
 26 44  1  0  0  0  0
 27 69  1  0  0  0  0
 28 85  1  0  0  0  0
 29 86  1  0  0  0  0
 30 87  1  0  0  0  0
 31 33  2  0  0  0  0
 31 85  1  0  0  0  0
 32 88  1  0  0  0  0
 33 89  1  0  0  0  0
 34 70  2  0  0  0  0
 35 65  1  0  0  0  0
 35 69  2  0  0  0  0
 36 71  1  0  0  0  0
 36 74  1  0  0  0  0
 37 75  1  0  0  0  0
 37 80  2  0  0  0  0
 38 56  1  0  0  0  0
 38 76  1  0  0  0  0
 38 81  2  0  0  0  0
 39 66  1  0  0  0  0
 39 72  1  0  0  0  0
 39 82  2  0  0  0  0
 40 67  1  0  0  0  0
 40 77  1  0  0  0  0
 40 83  2  0  0  0  0
 41 73  1  0  0  0  0
 41 78  1  0  0  0  0
 41 84  2  0  0  0  0
 42 45  1  0  0  0  0
 43 56  1  0  0  0  0
 44 72  1  0  0  0  0
 45 49  1  0  0  0  0
 46 47  1  0  0  0  0
 46 51  1  0  0  0  0
 47 52  1  0  0  0  0
 48 50  1  0  0  0  0
 48 53  1  0  0  0  0
 49 55  1  0  0  0  0
 50 57  1  0  0  0  0
 51 58  1  0  0  0  0
 52 59  1  0  0  0  0
 53 73  1  0  0  0  0
 54 57  1  0  0  0  0
 54 73  1  0  0  0  0
 55 76  1  0  0  0  0
 56 72  1  0  0  0  0
 57 71  1  0  0  0  0
 58 59  1  0  0  0  0
 58 78  1  0  0  0  0
 59 86  1  0  0  0  0
 60 67  1  0  0  0  0
 61 68  1  0  0  0  0
 62 68  1  0  0  0  0
 63 68  1  0  0  0  0
 64 79  1  0  0  0  0
 65 87  1  0  0  0  0
 66 68  1  0  0  0  0
 66 77  1  0  0  0  0
 67 79  1  0  0  0  0
 70 71  1  0  0  0  0
M  CHG  1  79   1
M  ISO  4  41 100  65 101  78 100  87 101
M  END
> <Batch ID>
0136

> <Smiles>
CNC(C)C(=O)NC(C(=O)N1Cc2cc([101O:1][101CH2:1]c3ccc4cc(OC5CCCCC5[100NH:0][100C:0](=O)N5CCCC(n6nc(-c7ccc(Oc8ccc(F)cc8F)cc7)c(C(N)=O)c6N)C5)ccc4n3)ccc2CC1C(=O)NC1CCCc2ccccc21)C(C)(C)C

> <Shape>
0.222

> <Color>
0.100

> <Negative vol penalty>
0.000

$$$$

  -OEChem-04052321023D

 80 89  0     1  0  0  0  0  0999 V2000
  -24.5216  -35.2692   23.5738 C   0  0  0  0  0  0  0  0  0  0  0  0
  -24.7687  -34.8294   22.2782 C   0  0  0  0  0  0  0  0  0  0  0  0
  -24.1121   -9.8226   21.9830 C   0  0  0  0  0  0  0  0  0  0  0  0
  -22.7846  -10.1251   19.9872 C   0  0  0  0  0  0  0  0  0  0  0  0
  -24.9356  -34.4986   24.6582 C   0  0  0  0  0  0  0  0  0  0  0  0
  -25.4193  -33.6133   22.0666 C   0  0  0  0  0  0  0  0  0  0  0  0
  -28.1940  -26.2751   19.2643 C   0  0  0  0  0  0  0  0  0  0  0  0
  -23.5172   -8.5782   22.1901 C   0  0  0  0  0  0  0  0  0  0  0  0
  -22.1897   -8.8806   20.1943 C   0  0  0  0  0  0  0  0  0  0  0  0
  -28.5674  -25.0736   19.8649 C   0  0  0  0  0  0  0  0  0  0  0  0
  -20.5995   -7.3847   23.4094 C   0  0  0  0  0  0  0  0  0  0  0  0
  -20.1749   -7.0772   24.7020 C   0  0  0  0  0  0  0  0  0  0  0  0
  -26.7325  -25.2859   21.4165 C   0  0  0  0  0  0  0  0  0  0  0  0
  -21.6601   -5.1720   24.7368 C   0  0  0  0  0  0  0  0  0  0  0  0
  -23.7458  -10.5962   20.8815 C   0  0  0  0  0  0  0  0  0  0  0  0
  -25.7284  -12.1494   20.4762 C   0  0  0  0  0  0  0  0  0  0  0  0
  -25.6026  -33.2786   24.4589 C   0  0  0  0  0  0  0  0  0  0  0  0
  -27.0917  -26.9977   19.7430 C   0  0  0  0  0  0  0  0  0  0  0  0
  -25.8236  -32.8097   23.1479 C   0  0  0  0  0  0  0  0  0  0  0  0
  -26.3456  -26.4950   20.8186 C   0  0  0  0  0  0  0  0  0  0  0  0
  -22.5560   -8.1071   21.2958 C   0  0  0  0  0  0  0  0  0  0  0  0
  -27.8384  -24.5802   20.9430 C   0  0  0  0  0  0  0  0  0  0  0  0
  -21.5544   -6.5857   22.7805 C   0  0  0  0  0  0  0  0  0  0  0  0
  -20.7052   -5.9709   25.3657 C   0  0  0  0  0  0  0  0  0  0  0  0
  -22.0847   -5.4794   23.4442 C   0  0  0  0  0  0  0  0  0  0  0  0
  -24.3596  -11.8821   20.6673 C   0  0  0  0  0  0  0  0  0  0  0  0
  -25.7933  -13.5122   20.3182 C   0  0  0  0  0  0  0  0  0  0  0  0
  -26.8418  -11.2465   20.4443 C   0  0  0  0  0  0  0  0  0  0  0  0
  -26.6807  -29.8830   21.0119 C   0  0  0  0  0  0  0  0  0  0  0  0
  -23.5403  -29.0947   20.8146 C   0  0  0  0  0  0  0  0  0  0  0  0
  -21.5160  -26.1709   21.4233 C   0  0  0  0  0  0  0  0  0  0  0  0
  -24.3217  -18.6452   21.7671 C   0  0  0  0  0  0  0  0  0  0  0  0
  -26.0218  -32.4808   25.6685 C   0  0  0  0  0  0  0  0  0  0  0  0
  -26.6858  -28.2787   19.0672 C   0  0  0  0  0  0  0  0  0  0  0  0
  -25.1419  -27.2224   21.3574 C   0  0  0  0  0  0  0  0  0  0  0  0
  -27.0873  -31.4365   25.3518 C   0  0  0  0  0  0  0  0  0  0  0  0
  -22.1524  -16.9358   19.6234 C   0  0  0  0  0  0  0  0  0  0  0  0
  -26.6686  -30.6177   24.1398 C   0  0  0  0  0  0  0  0  0  0  0  0
  -22.6266  -15.4856   19.6915 C   0  0  0  0  0  0  0  0  0  0  0  0
  -25.8827  -17.6545   24.7680 C   0  0  0  0  0  0  0  0  0  0  0  0
  -24.8891  -16.7465   24.1070 C   0  0  0  0  0  0  0  0  0  0  0  0
  -25.9520  -20.8108   23.0549 C   0  0  0  0  0  0  0  0  0  0  0  0
  -26.8615  -19.9512   20.8547 C   0  0  0  0  0  0  0  0  0  0  0  0
  -26.8975  -22.0063   22.9741 C   0  0  0  0  0  0  0  0  0  0  0  0
  -27.8035  -21.1500   20.7802 C   0  0  0  0  0  0  0  0  0  0  0  0
  -22.2191  -17.5937   20.9959 C   0  0  0  0  0  0  0  0  0  0  0  0
  -24.0832  -16.1153   21.6831 C   0  0  0  0  0  0  0  0  0  0  0  0
  -26.5567  -31.5050   22.8935 C   0  0  1  0  0  0  0  0  0  0  0  0
  -25.8551  -29.1906   19.9647 C   0  0  1  0  0  0  0  0  0  0  0  0
  -24.0276  -15.3967   20.3192 C   0  0  1  0  0  0  0  0  0  0  0  0
  -25.9399  -17.4363   23.2808 C   0  0  0  0  0  0  0  0  0  0  0  0
  -26.5170  -19.6012   22.3047 C   0  0  0  0  0  0  0  0  0  0  0  0
  -27.2410  -22.3573   21.5283 C   0  0  0  0  0  0  0  0  0  1  0  0
  -19.3224  -25.4689   20.4268 C   0  0  0  0  0  0  0  0  0  0  0  0
  -22.3232  -30.4764   23.2476 C   0  0  0  0  0  0  0  0  0  0  0  0
  -20.6209  -28.6433   23.3499 C   0  0  0  0  0  0  0  0  0  0  0  0
  -20.7375  -30.1243   21.3460 C   0  0  0  0  0  0  0  0  0  0  0  0
  -22.6099  -23.5584   20.5644 C   0  0  0  0  0  0  0  0  0  0  0  0
  -22.5521  -28.4048   21.7237 C   0  0  1  0  0  0  0  0  0  0  0  0
  -20.8336  -25.3047   20.3799 C   0  0  2  0  0  0  0  0  0  0  0  0
  -21.5862  -29.4062   22.4178 C   0  0  0  0  0  0  0  0  0  0  0  0
  -23.6090  -12.9864   20.6343 N   0  0  0  0  0  0  0  0  0  0  0  0
  -24.5094  -13.9609   20.4206 N   0  0  0  0  0  0  0  0  0  0  0  0
  -24.7887  -28.4737   20.6669 N   0  0  0  0  0  0  0  0  0  0  0  0
  -23.5579  -17.4845   21.5769 N   0  0  0  0  0  0  0  0  0  0  0  0
  -26.8228  -14.3586   20.1031 N   0  0  0  0  0  0  0  0  0  0  0  0
  -27.2170  -10.6917   19.2132 N   0  0  0  0  0  0  0  0  0  0  0  0
  -25.9595  -30.7398   21.8213 N   0  0  0  0  0  0  0  0  0  0  0  0
  -21.8830  -27.3964   20.9089 N   0  0  0  0  0  0  0  0  0  0  0  0
  -25.5916  -18.4951   22.3506 N   0  0  0  0  0  0  0  0  0  0  0  0
  -21.1575  -23.8679   20.6071 N   0  3  0  0  0  0  0  0  0  0  0  0
  -27.4745  -10.9281   21.4796 O   0  0  0  0  0  0  0  0  0  0  0  0
  -27.8828  -29.6555   21.0814 O   0  0  0  0  0  0  0  0  0  0  0  0
  -23.2141  -30.1421   20.2506 O   0  0  0  0  0  0  0  0  0  0  0  0
  -21.7013  -25.7990   22.5799 O   0  0  0  0  0  0  0  0  0  0  0  0
  -23.8877  -19.7615   21.4539 O   0  0  0  0  0  0  0  0  0  0  0  0
  -21.9755   -6.8927   21.4975 O   0  0  0  0  0  0  0  0  0  0  0  0
  -28.2011  -23.4081   21.5315 O   0  0  0  0  0  0  0  0  0  1  0  0
  -20.2984   -5.6768   26.6075 F   0  0  0  0  0  0  0  0  0  0  0  0
  -23.0032   -4.7088   22.8455 F   0  0  0  0  0  0  0  0  0  0  0  0
  1  2  1  0  0  0  0
  1  5  2  0  0  0  0
  2  6  2  0  0  0  0
  3  8  2  0  0  0  0
  3 15  1  0  0  0  0
  4  9  1  0  0  0  0
  4 15  2  0  0  0  0
  5 17  1  0  0  0  0
  6 19  1  0  0  0  0
  7 10  2  0  0  0  0
  7 18  1  0  0  0  0
  8 21  1  0  0  0  0
  9 21  2  0  0  0  0
 10 22  1  0  0  0  0
 11 12  2  0  0  0  0
 11 23  1  0  0  0  0
 12 24  1  0  0  0  0
 13 20  1  0  0  0  0
 13 22  2  0  0  0  0
 14 24  2  0  0  0  0
 14 25  1  0  0  0  0
 15 26  1  0  0  0  0
 16 26  1  0  0  0  0
 16 27  2  0  0  0  0
 16 28  1  0  0  0  0
 17 19  2  0  0  0  0
 17 33  1  0  0  0  0
 18 20  2  0  0  0  0
 18 34  1  0  0  0  0
 19 48  1  0  0  0  0
 20 35  1  0  0  0  0
 21 77  1  0  0  0  0
 22 78  1  0  0  0  0
 23 25  2  0  0  0  0
 23 77  1  0  0  0  0
 24 79  1  0  0  0  0
 25 80  1  0  0  0  0
 26 62  2  0  0  0  0
 27 63  1  0  0  0  0
 27 66  1  0  0  0  0
 28 67  1  0  0  0  0
 28 72  2  0  0  0  0
 29 49  1  0  0  0  0
 29 68  1  0  0  0  0
 29 73  2  0  0  0  0
 30 59  1  0  0  0  0
 30 64  1  0  0  0  0
 30 74  2  0  0  0  0
 31 60  1  0  0  0  0
 31 69  1  0  0  0  0
 31 75  2  0  0  0  0
 32 65  1  0  0  0  0
 32 70  1  0  0  0  0
 32 76  2  0  0  0  0
 33 36  1  0  0  0  0
 34 49  1  0  0  0  0
 35 64  1  0  0  0  0
 36 38  1  0  0  0  0
 37 39  1  0  0  0  0
 37 46  1  0  0  0  0
 38 48  1  0  0  0  0
 39 50  1  0  0  0  0
 40 41  1  0  0  0  0
 40 51  1  0  0  0  0
 41 51  1  0  0  0  0
 42 44  1  0  0  0  0
 42 52  1  0  0  0  0
 43 45  1  0  0  0  0
 43 52  1  0  0  0  0
 44 53  1  0  0  0  0
 45 53  1  0  0  0  0
 46 65  1  0  0  0  0
 47 50  1  0  0  0  0
 47 65  1  0  0  0  0
 48 68  1  0  0  0  0
 49 64  1  0  0  0  0
 50 63  1  0  0  0  0
 51 70  1  0  0  0  0
 52 70  1  0  0  0  0
 53 78  1  0  0  0  0
 54 60  1  0  0  0  0
 55 61  1  0  0  0  0
 56 61  1  0  0  0  0
 57 61  1  0  0  0  0
 58 71  1  0  0  0  0
 59 61  1  0  0  0  0
 59 69  1  0  0  0  0
 60 71  1  0  0  0  0
 62 63  1  0  0  0  0
M  CHG  1  71   1
M  ISO  4  32 100  53 101  70 100  78 101
M  END
> <Batch ID>
0136

> <Smiles>
CNC(C)C(=O)NC(C(=O)N1Cc2cc([101O:1][101CH:1]3CCC([100N:0](C4CC4)[100C:0](=O)N4CCCC(n5nc(-c6ccc(Oc7ccc(F)cc7F)cc6)c(C(N)=O)c5N)C4)CC3)ccc2CC1C(=O)NC1CCCc2ccccc21)C(C)(C)C

> <Shape>
0.307

> <Color>
0.077

> <Negative vol penalty>
0.000

$$$$

  -OEChem-04052321023D

 84 93  0     1  0  0  0  0  0999 V2000
  -21.7829  -29.8217   23.4071 C   0  0  0  0  0  0  0  0  0  0  0  0
  -22.4205  -28.6381   23.7649 C   0  0  0  0  0  0  0  0  0  0  0  0
  -22.9547   -9.9362   20.0359 C   0  0  0  0  0  0  0  0  0  0  0  0
  -23.6578  -10.0557   22.3443 C   0  0  0  0  0  0  0  0  0  0  0  0
  -22.3042  -30.6109   22.3828 C   0  0  0  0  0  0  0  0  0  0  0  0
  -23.5793  -28.2424   23.0978 C   0  0  0  0  0  0  0  0  0  0  0  0
  -28.3767  -25.2825   25.4914 C   0  0  0  0  0  0  0  0  0  0  0  0
  -31.4863  -18.9029   20.3751 C   0  0  0  0  0  0  0  0  0  0  0  0
  -31.2712  -17.5265   20.4444 C   0  0  0  0  0  0  0  0  0  0  0  0
  -22.1664   -8.8247   20.3335 C   0  0  0  0  0  0  0  0  0  0  0  0
  -22.8694   -8.9441   22.6419 C   0  0  0  0  0  0  0  0  0  0  0  0
  -28.7443  -23.9377   25.4915 C   0  0  0  0  0  0  0  0  0  0  0  0
  -23.0614   -5.5871   22.2891 C   0  0  0  0  0  0  0  0  0  0  0  0
  -23.6240   -4.5872   23.0823 C   0  0  0  0  0  0  0  0  0  0  0  0
  -30.1702  -24.3335   23.5865 C   0  0  0  0  0  0  0  0  0  0  0  0
  -29.6048  -17.8733   22.1592 C   0  0  0  0  0  0  0  0  0  0  0  0
  -21.8880   -4.9173   24.7299 C   0  0  0  0  0  0  0  0  0  0  0  0
  -23.7005  -10.5517   21.0413 C   0  0  0  0  0  0  0  0  0  0  0  0
  -24.1304  -13.0528   20.7818 C   0  0  0  0  0  0  0  0  0  0  0  0
  -23.4754  -30.2296   21.7093 C   0  0  0  0  0  0  0  0  0  0  0  0
  -28.8956  -26.1622   24.5305 C   0  0  0  0  0  0  0  0  0  0  0  0
  -24.1160  -29.0266   22.0626 C   0  0  0  0  0  0  0  0  0  0  0  0
  -29.8096  -25.6896   23.5779 C   0  0  0  0  0  0  0  0  0  0  0  0
  -30.7607  -19.7645   21.1979 C   0  0  0  0  0  0  0  0  0  0  0  0
  -30.3304  -17.0117   21.3364 C   0  0  0  0  0  0  0  0  0  0  0  0
  -22.1237   -8.3286   21.6365 C   0  0  0  0  0  0  0  0  0  0  0  0
  -29.6389  -23.4623   24.5372 C   0  0  0  0  0  0  0  0  0  0  0  0
  -21.9121   -6.2522   22.7163 C   0  0  0  0  0  0  0  0  0  0  0  0
  -29.8200  -19.2497   22.0899 C   0  0  0  0  0  0  0  0  0  0  0  0
  -23.0373   -4.2523   24.3027 C   0  0  0  0  0  0  0  0  0  0  0  0
  -21.3254   -5.9173   23.9367 C   0  0  0  0  0  0  0  0  0  0  0  0
  -24.5155  -11.6996   20.7344 C   0  0  0  0  0  0  0  0  0  0  0  0
  -25.2558  -13.7436   20.4042 C   0  0  0  0  0  0  0  0  0  0  0  0
  -22.8681  -13.6335   21.1358 C   0  0  0  0  0  0  0  0  0  0  0  0
  -27.6461  -27.9456   22.2150 C   0  0  0  0  0  0  0  0  0  0  0  0
  -30.6900  -29.0334   21.9433 C   0  0  0  0  0  0  0  0  0  0  0  0
  -34.0199  -28.4804   22.4455 C   0  0  0  0  0  0  0  0  0  0  0  0
  -30.7483  -14.6206   20.6622 C   0  0  0  0  0  0  0  0  0  0  0  0
  -23.9748  -31.0914   20.5768 C   0  0  0  0  0  0  0  0  0  0  0  0
  -28.5097  -27.6156   24.5604 C   0  0  0  0  0  0  0  0  0  0  0  0
  -30.4110  -26.5973   22.5373 C   0  0  0  0  0  0  0  0  0  0  0  0
  -25.4157  -30.7908   20.1723 C   0  0  0  0  0  0  0  0  0  0  0  0
  -29.6115  -12.1069   18.4114 C   0  0  0  0  0  0  0  0  0  0  0  0
  -25.6307  -29.2862   20.0417 C   0  0  0  0  0  0  0  0  0  0  0  0
  -30.5186  -23.2048   19.4414 C   0  0  0  0  0  0  0  0  0  0  0  0
  -30.4902  -21.9381   18.6324 C   0  0  0  0  0  0  0  0  0  0  0  0
  -28.1527  -11.8881   18.8190 C   0  0  0  0  0  0  0  0  0  0  0  0
  -30.5040  -12.3774   19.6214 C   0  0  0  0  0  0  0  0  0  0  0  0
  -28.5892  -13.2443   20.9064 C   0  0  0  0  0  0  0  0  0  0  0  0
  -25.3889  -28.5763   21.3792 C   0  0  1  0  0  0  0  0  0  0  0  0
  -28.7033  -28.3130   23.2175 C   0  0  1  0  0  0  0  0  0  0  0  0
  -30.1001  -21.9116   20.0842 C   0  0  0  0  0  0  0  0  0  0  0  0
  -27.6404  -13.0325   19.7154 C   0  0  2  0  0  0  0  0  0  0  0  0
  -36.2682  -29.5356   22.0861 C   0  0  0  0  0  0  0  0  0  0  0  0
  -30.5453  -28.3261   18.9787 C   0  0  0  0  0  0  0  0  0  0  0  0
  -33.0415  -28.4952   18.8879 C   0  0  0  0  0  0  0  0  0  0  0  0
  -31.6781  -30.4989   19.4787 C   0  0  0  0  0  0  0  0  0  0  0  0
  -34.5941  -28.5208   25.3485 C   0  0  0  0  0  0  0  0  0  0  0  0
  -31.0044  -21.2349   21.1102 C   0  0  0  0  0  0  0  0  0  0  0  0
  -29.0371  -21.2117   25.0152 C   0  0  0  0  0  0  0  0  0  1  0  0
  -29.2412  -19.8865   24.3069 C   0  0  0  0  0  0  0  0  0  0  0  0
  -31.9071  -28.6181   21.1527 C   0  0  1  0  0  0  0  0  0  0  0  0
  -35.1059  -29.3523   23.0495 C   0  0  2  0  0  0  0  0  0  0  0  0
  -31.7804  -28.9668   19.6428 C   0  0  0  0  0  0  0  0  0  0  0  0
  -25.7863  -11.5381   20.3562 N   0  0  0  0  0  0  0  0  0  0  0  0
  -26.2095  -12.7989   20.1626 N   0  0  0  0  0  0  0  0  0  0  0  0
  -29.9976  -28.0088   22.6040 N   0  0  0  0  0  0  0  0  0  0  0  0
  -29.9588  -13.4763   20.4214 N   0  0  0  0  0  0  0  0  0  0  0  0
  -25.5129  -15.0608   20.2585 N   0  0  0  0  0  0  0  0  0  0  0  0
  -21.8181  -12.7792   21.4990 N   0  0  0  0  0  0  0  0  0  0  0  0
  -30.1126  -15.6134   21.4072 N   0  0  0  0  0  0  0  0  0  0  0  0
  -26.5253  -28.7528   22.2578 N   0  0  0  0  0  0  0  0  0  0  0  0
  -33.0528  -29.2334   21.8139 N   0  0  0  0  0  0  0  0  0  0  0  0
  -35.6270  -28.7369   24.3028 N   0  3  0  0  0  0  0  0  0  0  0  0
  -22.6723  -14.8723   21.1142 O   0  0  0  0  0  0  0  0  0  0  0  0
  -27.8339  -27.0007   21.4576 O   0  0  0  0  0  0  0  0  0  0  0  0
  -30.3696  -30.2241   21.9793 O   0  0  0  0  0  0  0  0  0  0  0  0
  -34.0306  -27.2539   22.5228 O   0  0  0  0  0  0  0  0  0  0  0  0
  -31.8936  -14.7246   20.2156 O   0  0  0  0  0  0  0  0  0  0  0  0
  -21.3543   -7.2442   21.9273 O   0  0  0  0  0  0  0  0  0  0  0  0
  -29.9989  -22.1500   24.5346 O   0  0  0  0  0  0  0  0  0  1  0  0
  -29.0993  -20.0822   22.9052 O   0  0  0  0  0  0  0  0  0  0  0  0
  -23.5768   -3.2910   25.0636 F   0  0  0  0  0  0  0  0  0  0  0  0
  -20.2205   -6.5519   24.3518 F   0  0  0  0  0  0  0  0  0  0  0  0
  1  2  1  0  0  0  0
  1  5  2  0  0  0  0
  2  6  2  0  0  0  0
  3 10  2  0  0  0  0
  3 18  1  0  0  0  0
  4 11  1  0  0  0  0
  4 18  2  0  0  0  0
  5 20  1  0  0  0  0
  6 22  1  0  0  0  0
  7 12  2  0  0  0  0
  7 21  1  0  0  0  0
  8  9  2  0  0  0  0
  8 24  1  0  0  0  0
  9 25  1  0  0  0  0
 10 26  1  0  0  0  0
 11 26  2  0  0  0  0
 12 27  1  0  0  0  0
 13 14  2  0  0  0  0
 13 28  1  0  0  0  0
 14 30  1  0  0  0  0
 15 23  1  0  0  0  0
 15 27  2  0  0  0  0
 16 25  2  0  0  0  0
 16 29  1  0  0  0  0
 17 30  2  0  0  0  0
 17 31  1  0  0  0  0
 18 32  1  0  0  0  0
 19 32  1  0  0  0  0
 19 33  2  0  0  0  0
 19 34  1  0  0  0  0
 20 22  2  0  0  0  0
 20 39  1  0  0  0  0
 21 23  2  0  0  0  0
 21 40  1  0  0  0  0
 22 50  1  0  0  0  0
 23 41  1  0  0  0  0
 24 29  2  0  0  0  0
 24 59  1  0  0  0  0
 25 71  1  0  0  0  0
 26 80  1  0  0  0  0
 27 81  1  0  0  0  0
 28 31  2  0  0  0  0
 28 80  1  0  0  0  0
 29 82  1  0  0  0  0
 30 83  1  0  0  0  0
 31 84  1  0  0  0  0
 32 65  2  0  0  0  0
 33 66  1  0  0  0  0
 33 69  1  0  0  0  0
 34 70  1  0  0  0  0
 34 75  2  0  0  0  0
 35 51  1  0  0  0  0
 35 72  1  0  0  0  0
 35 76  2  0  0  0  0
 36 62  1  0  0  0  0
 36 67  1  0  0  0  0
 36 77  2  0  0  0  0
 37 63  1  0  0  0  0
 37 73  1  0  0  0  0
 37 78  2  0  0  0  0
 38 68  1  0  0  0  0
 38 71  1  0  0  0  0
 38 79  2  0  0  0  0
 39 42  1  0  0  0  0
 40 51  1  0  0  0  0
 41 67  1  0  0  0  0
 42 44  1  0  0  0  0
 43 47  1  0  0  0  0
 43 48  1  0  0  0  0
 44 50  1  0  0  0  0
 45 46  1  0  0  0  0
 45 52  1  0  0  0  0
 46 52  1  0  0  0  0
 47 53  1  0  0  0  0
 48 68  1  0  0  0  0
 49 53  1  0  0  0  0
 49 68  1  0  0  0  0
 50 72  1  0  0  0  0
 51 67  1  0  0  0  0
 52 59  1  0  0  0  0
 53 66  1  0  0  0  0
 54 63  1  0  0  0  0
 55 64  1  0  0  0  0
 56 64  1  0  0  0  0
 57 64  1  0  0  0  0
 58 74  1  0  0  0  0
 60 61  1  0  0  0  0
 60 81  1  0  0  0  0
 61 82  1  0  0  0  0
 62 64  1  0  0  0  0
 62 73  1  0  0  0  0
 63 74  1  0  0  0  0
 65 66  1  0  0  0  0
M  CHG  1  74   1
M  ISO  4  38 100  60 101  71 100  81 101
M  END
> <Batch ID>
0136

> <Smiles>
CNC(C)C(=O)NC(C(=O)N1Cc2cc([101O:1][101CH2:1]COc3cc([100NH:0][100C:0](=O)N4CCCC(n5nc(-c6ccc(Oc7ccc(F)cc7F)cc6)c(C(N)=O)c5N)C4)ccc3CC3CC3)ccc2CC1C(=O)NC1CCCc2ccccc21)C(C)(C)C

> <Shape>
0.281

> <Color>
0.226

> <Negative vol penalty>
0.000

$$$$

  -OEChem-04052321023D

 83 91  0     1  0  0  0  0  0999 V2000
  -29.6533  -34.7386   23.7777 C   0  0  0  0  0  0  0  0  0  0  0  0
  -29.5644  -33.3841   23.4728 C   0  0  0  0  0  0  0  0  0  0  0  0
  -21.3318  -10.4880   22.6616 C   0  0  0  0  0  0  0  0  0  0  0  0
  -23.0836  -10.5987   21.0015 C   0  0  0  0  0  0  0  0  0  0  0  0
  -28.5426  -35.4124   24.2839 C   0  0  0  0  0  0  0  0  0  0  0  0
  -28.3649  -32.7024   23.6748 C   0  0  0  0  0  0  0  0  0  0  0  0
  -27.1530  -29.7056   19.7767 C   0  0  0  0  0  0  0  0  0  0  0  0
  -21.2127   -9.1154   22.4445 C   0  0  0  0  0  0  0  0  0  0  0  0
  -22.9646   -9.2260   20.7844 C   0  0  0  0  0  0  0  0  0  0  0  0
  -27.8214  -28.4860   19.6794 C   0  0  0  0  0  0  0  0  0  0  0  0
  -20.6966   -5.5197   22.5860 C   0  0  0  0  0  0  0  0  0  0  0  0
  -20.6033   -4.6919   23.7047 C   0  0  0  0  0  0  0  0  0  0  0  0
  -25.9155  -27.3709   20.6505 C   0  0  0  0  0  0  0  0  0  0  0  0
  -22.7617   -5.4705   24.4610 C   0  0  0  0  0  0  0  0  0  0  0  0
  -22.2672  -11.2298   21.9401 C   0  0  0  0  0  0  0  0  0  0  0  0
  -22.7200  -13.2928   23.3707 C   0  0  0  0  0  0  0  0  0  0  0  0
  -27.3260  -34.7408   24.4832 C   0  0  0  0  0  0  0  0  0  0  0  0
  -25.8629  -29.7687   20.3226 C   0  0  0  0  0  0  0  0  0  0  0  0
  -27.2372  -33.3676   24.1854 C   0  0  0  0  0  0  0  0  0  0  0  0
  -25.2319  -28.5922   20.7513 C   0  0  0  0  0  0  0  0  0  0  0  0
  -22.0291   -8.4843   21.5059 C   0  0  0  0  0  0  0  0  0  0  0  0
  -27.2038  -27.3188   20.1190 C   0  0  0  0  0  0  0  0  0  0  0  0
  -21.8226   -6.3229   22.4047 C   0  0  0  0  0  0  0  0  0  0  0  0
  -21.6358   -4.6673   24.6422 C   0  0  0  0  0  0  0  0  0  0  0  0
  -22.8551   -6.2983   23.3422 C   0  0  0  0  0  0  0  0  0  0  0  0
  -22.3903  -12.6479   22.1635 C   0  0  0  0  0  0  0  0  0  0  0  0
  -22.7071  -14.6306   23.0599 C   0  0  0  0  0  0  0  0  0  0  0  0
  -23.0119  -12.7326   24.6578 C   0  0  0  0  0  0  0  0  0  0  0  0
  -24.5626  -31.1980   22.8465 C   0  0  0  0  0  0  0  0  0  0  0  0
  -21.8008  -30.0681   21.5745 C   0  0  0  0  0  0  0  0  0  0  0  0
  -20.6746  -27.0149   20.0165 C   0  0  0  0  0  0  0  0  0  0  0  0
  -24.0285  -18.8483   19.6525 C   0  0  0  0  0  0  0  0  0  0  0  0
  -26.1663  -35.5004   25.0770 C   0  0  0  0  0  0  0  0  0  0  0  0
  -25.1449  -31.0883   20.3960 C   0  0  0  0  0  0  0  0  0  0  0  0
  -23.8399  -28.6032   21.3263 C   0  0  0  0  0  0  0  0  0  0  0  0
  -24.8245  -34.7921   24.9094 C   0  0  0  0  0  0  0  0  0  0  0  0
  -21.0509  -17.0351   18.9293 C   0  0  0  0  0  0  0  0  0  0  0  0
  -24.9484  -33.3184   25.2831 C   0  0  0  0  0  0  0  0  0  0  0  0
  -27.1048  -21.1110   22.8985 C   0  0  0  0  0  0  0  0  0  0  0  0
  -27.7229  -21.4832   20.4765 C   0  0  0  0  0  0  0  0  0  0  0  0
  -21.1643  -15.7830   19.8007 C   0  0  0  0  0  0  0  0  0  0  0  0
  -25.9146  -20.2143   22.5381 C   0  0  0  0  0  0  0  0  0  0  0  0
  -26.9748  -20.1656   20.2433 C   0  0  0  0  0  0  0  0  0  0  0  0
  -22.4099  -17.4677   18.3834 C   0  0  0  0  0  0  0  0  0  0  0  0
  -23.5711  -16.3992   20.2764 C   0  0  0  0  0  0  0  0  0  0  0  0
  -25.9463  -32.5991   24.3674 C   0  0  1  0  0  0  0  0  0  0  0  0
  -24.0350  -31.1073   21.4425 C   0  0  1  0  0  0  0  0  0  0  0  0
  -27.3874  -22.1570   21.8182 C   0  0  0  0  0  0  0  0  0  0  0  0
  -22.2342  -15.9568   20.8954 C   0  0  2  0  0  0  0  0  0  0  0  0
  -25.6672  -20.1063   21.0277 C   0  0  0  0  0  0  0  0  0  0  0  0
  -18.8396  -26.6129   18.3526 C   0  0  0  0  0  0  0  0  0  0  0  0
  -29.7583  -22.2956   22.5993 C   0  0  0  0  0  0  0  0  0  0  0  0
  -20.0957  -29.4731   24.0339 C   0  0  0  0  0  0  0  0  0  0  0  0
  -18.9922  -27.6367   22.7385 C   0  0  0  0  0  0  0  0  0  0  0  0
  -18.7939  -29.9998   21.9646 C   0  0  0  0  0  0  0  0  0  0  0  0
  -22.5246  -25.6945   18.1211 C   0  0  0  0  0  0  0  0  0  0  0  0
  -29.7467  -25.7720   22.8782 C   0  0  0  0  0  0  0  0  0  0  0  0
  -27.5415  -25.1381   21.0058 C   0  0  0  0  0  0  0  0  0  1  0  0
  -21.0021  -28.7946   21.7136 C   0  0  1  0  0  0  0  0  0  0  0  0
  -20.3339  -26.8146   18.5508 C   0  0  2  0  0  0  0  0  0  0  0  0
  -28.5071  -23.1045   22.2434 C   0  0  1  0  0  0  0  0  0  0  0  0
  -28.7461  -24.2174   21.1986 C   0  0  2  0  0  0  0  0  0  0  0  0
  -19.7492  -28.9764   22.6161 C   0  0  0  0  0  0  0  0  0  0  0  0
  -22.1829  -13.5054   21.1607 N   0  0  0  0  0  0  0  0  0  0  0  0
  -22.3827  -14.7029   21.7371 N   0  0  0  0  0  0  0  0  0  0  0  0
  -23.1817  -29.9189   21.3830 N   0  0  0  0  0  0  0  0  0  0  0  0
  -23.3785  -17.6162   19.4723 N   0  0  0  0  0  0  0  0  0  0  0  0
  -22.9416  -15.7404   23.7918 N   0  0  0  0  0  0  0  0  0  0  0  0
  -22.9811  -11.3389   24.8025 N   0  0  0  0  0  0  0  0  0  0  0  0
  -25.3405  -32.3151   23.0841 N   0  0  0  0  0  0  0  0  0  0  0  0
  -20.7017  -28.3509   20.3566 N   0  0  0  0  0  0  0  0  0  0  0  0
  -24.9263  -18.9056   20.7115 N   0  0  0  0  0  0  0  0  0  0  0  0
  -21.0448  -25.6207   18.0122 N   0  3  0  0  0  0  0  0  0  0  0  0
  -29.9140  -25.0658   21.5837 N   0  3  0  0  0  0  0  0  0  0  0  0
  -23.2757  -13.4476   25.6542 O   0  0  0  0  0  0  0  0  0  0  0  0
  -24.2833  -30.3203   23.6547 O   0  0  0  0  0  0  0  0  0  0  0  0
  -21.2198  -31.1550   21.6266 O   0  0  0  0  0  0  0  0  0  0  0  0
  -20.8911  -26.0796   20.7839 O   0  0  0  0  0  0  0  0  0  0  0  0
  -23.8199  -19.8266   18.9270 O   0  0  0  0  0  0  0  0  0  0  0  0
  -21.9134   -7.1449   21.2939 O   0  0  0  0  0  0  0  0  0  0  0  0
  -27.8542  -26.1271   20.0257 O   0  0  0  0  0  0  0  0  0  1  0  0
  -21.5453   -3.8734   25.7173 F   0  0  0  0  0  0  0  0  0  0  0  0
  -23.9387   -7.0686   23.1741 F   0  0  0  0  0  0  0  0  0  0  0  0
  1  2  1  0  0  0  0
  1  5  2  0  0  0  0
  2  6  2  0  0  0  0
  3  8  2  0  0  0  0
  3 15  1  0  0  0  0
  4  9  1  0  0  0  0
  4 15  2  0  0  0  0
  5 17  1  0  0  0  0
  6 19  1  0  0  0  0
  7 10  2  0  0  0  0
  7 18  1  0  0  0  0
  8 21  1  0  0  0  0
  9 21  2  0  0  0  0
 10 22  1  0  0  0  0
 11 12  2  0  0  0  0
 11 23  1  0  0  0  0
 12 24  1  0  0  0  0
 13 20  1  0  0  0  0
 13 22  2  0  0  0  0
 14 24  2  0  0  0  0
 14 25  1  0  0  0  0
 15 26  1  0  0  0  0
 16 26  1  0  0  0  0
 16 27  2  0  0  0  0
 16 28  1  0  0  0  0
 17 19  2  0  0  0  0
 17 33  1  0  0  0  0
 18 20  2  0  0  0  0
 18 34  1  0  0  0  0
 19 46  1  0  0  0  0
 20 35  1  0  0  0  0
 21 80  1  0  0  0  0
 22 81  1  0  0  0  0
 23 25  2  0  0  0  0
 23 80  1  0  0  0  0
 24 82  1  0  0  0  0
 25 83  1  0  0  0  0
 26 64  2  0  0  0  0
 27 65  1  0  0  0  0
 27 68  1  0  0  0  0
 28 69  1  0  0  0  0
 28 75  2  0  0  0  0
 29 47  1  0  0  0  0
 29 70  1  0  0  0  0
 29 76  2  0  0  0  0
 30 59  1  0  0  0  0
 30 66  1  0  0  0  0
 30 77  2  0  0  0  0
 31 60  1  0  0  0  0
 31 71  1  0  0  0  0
 31 78  2  0  0  0  0
 32 67  1  0  0  0  0
 32 72  1  0  0  0  0
 32 79  2  0  0  0  0
 33 36  1  0  0  0  0
 34 47  1  0  0  0  0
 35 66  1  0  0  0  0
 36 38  1  0  0  0  0
 37 41  1  0  0  0  0
 37 44  1  0  0  0  0
 38 46  1  0  0  0  0
 39 42  1  0  0  0  0
 39 48  1  0  0  0  0
 40 43  1  0  0  0  0
 40 48  1  0  0  0  0
 41 49  1  0  0  0  0
 42 50  1  0  0  0  0
 43 50  1  0  0  0  0
 44 67  1  0  0  0  0
 45 49  1  0  0  0  0
 45 67  1  0  0  0  0
 46 70  1  0  0  0  0
 47 66  1  0  0  0  0
 48 61  1  0  0  0  0
 49 65  1  0  0  0  0
 50 72  1  0  0  0  0
 51 60  1  0  0  0  0
 52 61  1  0  0  0  0
 53 63  1  0  0  0  0
 54 63  1  0  0  0  0
 55 63  1  0  0  0  0
 56 73  1  0  0  0  0
 57 74  1  0  0  0  0
 58 62  1  0  0  0  0
 58 81  1  0  0  0  0
 59 63  1  0  0  0  0
 59 71  1  0  0  0  0
 60 73  1  0  0  0  0
 61 62  1  0  0  0  0
 62 74  1  0  0  0  0
 64 65  1  0  0  0  0
M  CHG  2  73   1  74   1
M  ISO  4  32 100  58 101  72 100  81 101
M  END
> <Batch ID>
0136

> <Smiles>
CNC(C)C(=O)NC(C(=O)N1Cc2cc([101O:1][101CH2:1]C(NC)C(C)C3CCC([100NH:0][100C:0](=O)N4CCCC(n5nc(-c6ccc(Oc7ccc(F)cc7F)cc6)c(C(N)=O)c5N)C4)CC3)ccc2CC1C(=O)NC1CCCc2ccccc21)C(C)(C)C

> <Shape>
0.254

> <Color>
0.084

> <Negative vol penalty>
0.000

$$$$

  -OEChem-04052321023D

 85 94  0     1  0  0  0  0  0999 V2000
  -16.8234  -14.4370   26.2269 C   0  0  0  0  0  0  0  0  0  0  0  0
  -17.9552  -14.7123   26.9875 C   0  0  0  0  0  0  0  0  0  0  0  0
  -23.0008   -9.8938   19.9816 C   0  0  0  0  0  0  0  0  0  0  0  0
  -23.7304   -9.9444   22.2842 C   0  0  0  0  0  0  0  0  0  0  0  0
  -16.7343  -14.9060   24.9169 C   0  0  0  0  0  0  0  0  0  0  0  0
  -18.9992  -15.4558   26.4382 C   0  0  0  0  0  0  0  0  0  0  0  0
  -29.4996  -19.1803   27.9797 C   0  0  0  0  0  0  0  0  0  0  0  0
  -27.9954  -17.4300   27.2651 C   0  0  0  0  0  0  0  0  0  0  0  0
  -22.6204  -19.4359   29.3625 C   0  0  0  0  0  0  0  0  0  0  0  0
  -22.2362   -8.7582   20.2488 C   0  0  0  0  0  0  0  0  0  0  0  0
  -22.9658   -8.8088   22.5515 C   0  0  0  0  0  0  0  0  0  0  0  0
  -28.5009  -19.7032   28.8012 C   0  0  0  0  0  0  0  0  0  0  0  0
  -26.9967  -17.9529   28.0866 C   0  0  0  0  0  0  0  0  0  0  0  0
  -23.9025  -19.3195   29.8976 C   0  0  0  0  0  0  0  0  0  0  0  0
  -23.2133   -5.4704   22.0771 C   0  0  0  0  0  0  0  0  0  0  0  0
  -23.8036   -4.4535   22.8275 C   0  0  0  0  0  0  0  0  0  0  0  0
  -24.8259  -20.2469   27.8712 C   0  0  0  0  0  0  0  0  0  0  0  0
  -22.0826   -4.6933   24.5062 C   0  0  0  0  0  0  0  0  0  0  0  0
  -23.7480  -10.4869   20.9993 C   0  0  0  0  0  0  0  0  0  0  0  0
  -24.1298  -13.0030   20.8240 C   0  0  0  0  0  0  0  0  0  0  0  0
  -29.2468  -18.0438   27.2116 C   0  0  0  0  0  0  0  0  0  0  0  0
  -17.7735  -15.6639   24.3545 C   0  0  0  0  0  0  0  0  0  0  0  0
  -22.4319  -19.9494   28.0713 C   0  0  0  0  0  0  0  0  0  0  0  0
  -18.9244  -15.9343   25.1191 C   0  0  0  0  0  0  0  0  0  0  0  0
  -23.5402  -20.3712   27.3230 C   0  0  0  0  0  0  0  0  0  0  0  0
  -22.2187   -8.2157   21.5337 C   0  0  0  0  0  0  0  0  0  0  0  0
  -27.2495  -19.0894   28.8547 C   0  0  0  0  0  0  0  0  0  1  0  0
  -25.0058  -19.7223   29.1508 C   0  0  0  0  0  0  0  0  0  0  0  0
  -22.0577   -6.0989   22.5413 C   0  0  0  0  0  0  0  0  0  0  0  0
  -23.2382   -4.0649   24.0420 C   0  0  0  0  0  0  0  0  0  0  0  0
  -21.4924   -5.7103   23.7558 C   0  0  0  0  0  0  0  0  0  0  0  0
  -24.5385  -11.6596   20.7238 C   0  0  0  0  0  0  0  0  0  0  0  0
  -25.2380  -13.7272   20.4579 C   0  0  0  0  0  0  0  0  0  0  0  0
  -22.8619  -13.5477   21.2133 C   0  0  0  0  0  0  0  0  0  0  0  0
  -21.2321  -18.8102   25.3572 C   0  0  0  0  0  0  0  0  0  0  0  0
  -21.6650  -21.8599   24.3404 C   0  0  0  0  0  0  0  0  0  0  0  0
  -23.3234  -24.8222   24.6887 C   0  0  0  0  0  0  0  0  0  0  0  0
  -30.7337  -14.6685   20.6963 C   0  0  0  0  0  0  0  0  0  0  0  0
  -17.6523  -16.1091   22.9186 C   0  0  0  0  0  0  0  0  0  0  0  0
  -21.0404  -20.0934   27.5188 C   0  0  0  0  0  0  0  0  0  0  0  0
  -23.3901  -20.9480   25.9398 C   0  0  0  0  0  0  0  0  0  0  0  0
  -18.6401  -17.2084   22.5363 C   0  0  0  0  0  0  0  0  0  0  0  0
  -29.5914  -12.2447   18.3516 C   0  0  0  0  0  0  0  0  0  0  0  0
  -20.0397  -16.8663   23.0374 C   0  0  0  0  0  0  0  0  0  0  0  0
  -28.1441  -11.9830   18.7719 C   0  0  0  0  0  0  0  0  0  0  0  0
  -30.6335  -16.0249   26.6525 C   0  0  0  0  0  0  0  0  0  0  0  0
  -30.4959  -12.4805   19.5592 C   0  0  0  0  0  0  0  0  0  0  0  0
  -28.5874  -13.2729   20.9022 C   0  0  0  0  0  0  0  0  0  0  0  0
  -29.8802  -17.4035   24.8689 C   0  0  0  0  0  0  0  0  0  0  0  0
  -30.3142  -17.4845   26.3334 C   0  0  1  0  0  0  0  0  0  0  0  0
  -20.0670  -16.7587   24.5668 C   0  0  1  0  0  0  0  0  0  0  0  0
  -21.0056  -20.1518   25.9948 C   0  0  1  0  0  0  0  0  0  0  0  0
  -27.6263  -13.0848   19.7159 C   0  0  2  0  0  0  0  0  0  0  0  0
  -31.4117  -15.5728   25.4248 C   0  0  1  0  0  0  0  0  0  0  0  0
  -31.4070  -14.0688   25.2211 C   0  0  0  0  0  0  0  0  0  0  0  0
  -23.4873  -27.1176   23.6878 C   0  0  0  0  0  0  0  0  0  0  0  0
  -23.2425  -20.7200   21.9905 C   0  0  0  0  0  0  0  0  0  0  0  0
  -24.1591  -23.0139   21.5831 C   0  0  0  0  0  0  0  0  0  0  0  0
  -21.7055  -22.6024   21.4001 C   0  0  0  0  0  0  0  0  0  0  0  0
  -22.5051  -26.1124   27.2235 C   0  0  0  0  0  0  0  0  0  0  0  0
  -30.8160  -16.8468   21.8825 C   0  0  0  0  0  0  0  0  0  0  0  0
  -31.6072  -16.6934   23.1681 C   0  0  0  0  0  0  0  0  0  0  0  0
  -22.7929  -22.6176   23.6825 C   0  0  1  0  0  0  0  0  0  0  0  0
  -22.8246  -26.2547   24.7504 C   0  0  2  0  0  0  0  0  0  0  0  0
  -22.9783  -22.2258   22.1893 C   0  0  0  0  0  0  0  0  0  0  0  0
  -25.8071  -11.5349   20.3251 N   0  0  0  0  0  0  0  0  0  0  0  0
  -26.2052  -12.8093   20.1715 N   0  0  0  0  0  0  0  0  0  0  0  0
  -22.0096  -21.0626   25.4410 N   0  0  0  0  0  0  0  0  0  0  0  0
  -29.9494  -13.5381   20.4130 N   0  0  0  0  0  0  0  0  0  0  0  0
  -25.4696  -15.0533   20.3561 N   0  0  0  0  0  0  0  0  0  0  0  0
  -21.8319  -12.6620   21.5584 N   0  0  0  0  0  0  0  0  0  0  0  0
  -20.0772  -18.0759   25.1661 N   0  0  0  0  0  0  0  0  0  0  0  0
  -22.5144  -24.0333   23.8987 N   0  0  0  0  0  0  0  0  0  0  0  0
  -30.1377  -15.6260   21.5078 N   0  0  0  0  0  0  0  0  0  0  0  0
  -30.6946  -16.2646   24.2771 N   0  3  2  0  0  0  0  0  0  0  0  0
  -23.1159  -26.8476   26.0862 N   0  3  0  0  0  0  0  0  0  0  0  0
  -22.6437  -14.7827   21.2382 O   0  0  0  0  0  0  0  0  0  0  0  0
  -22.3702  -18.4672   25.0593 O   0  0  0  0  0  0  0  0  0  0  0  0
  -20.5193  -21.9770   23.8986 O   0  0  0  0  0  0  0  0  0  0  0  0
  -24.3321  -24.4422   25.2792 O   0  0  0  0  0  0  0  0  0  0  0  0
  -31.8780  -14.8160   20.2540 O   0  0  0  0  0  0  0  0  0  0  0  0
  -26.2584  -19.6092   29.6705 O   0  0  0  0  0  0  0  0  0  1  0  0
  -21.4725   -7.1077   21.7948 O   0  0  0  0  0  0  0  0  0  0  0  0
  -23.8043   -3.0873   24.7618 F   0  0  0  0  0  0  0  0  0  0  0  0
  -20.3817   -6.3095   24.2064 F   0  0  0  0  0  0  0  0  0  0  0  0
  1  2  1  0  0  0  0
  1  5  2  0  0  0  0
  2  6  2  0  0  0  0
  3 10  2  0  0  0  0
  3 19  1  0  0  0  0
  4 11  1  0  0  0  0
  4 19  2  0  0  0  0
  5 22  1  0  0  0  0
  6 24  1  0  0  0  0
  7 12  2  0  0  0  0
  7 21  1  0  0  0  0
  8 13  1  0  0  0  0
  8 21  2  0  0  0  0
  9 14  2  0  0  0  0
  9 23  1  0  0  0  0
 10 26  1  0  0  0  0
 11 26  2  0  0  0  0
 12 27  1  0  0  0  0
 13 27  2  0  0  0  0
 14 28  1  0  0  0  0
 15 16  2  0  0  0  0
 15 29  1  0  0  0  0
 16 30  1  0  0  0  0
 17 25  1  0  0  0  0
 17 28  2  0  0  0  0
 18 30  2  0  0  0  0
 18 31  1  0  0  0  0
 19 32  1  0  0  0  0
 20 32  1  0  0  0  0
 20 33  2  0  0  0  0
 20 34  1  0  0  0  0
 21 50  1  0  0  0  0
 22 24  2  0  0  0  0
 22 39  1  0  0  0  0
 23 25  2  0  0  0  0
 23 40  1  0  0  0  0
 24 51  1  0  0  0  0
 25 41  1  0  0  0  0
 26 83  1  0  0  0  0
 27 82  1  0  0  0  0
 28 82  1  0  0  0  0
 29 31  2  0  0  0  0
 29 83  1  0  0  0  0
 30 84  1  0  0  0  0
 31 85  1  0  0  0  0
 32 66  2  0  0  0  0
 33 67  1  0  0  0  0
 33 70  1  0  0  0  0
 34 71  1  0  0  0  0
 34 77  2  0  0  0  0
 35 52  1  0  0  0  0
 35 72  1  0  0  0  0
 35 78  2  0  0  0  0
 36 63  1  0  0  0  0
 36 68  1  0  0  0  0
 36 79  2  0  0  0  0
 37 64  1  0  0  0  0
 37 73  1  0  0  0  0
 37 80  2  0  0  0  0
 38 69  1  0  0  0  0
 38 74  1  0  0  0  0
 38 81  2  0  0  0  0
 39 42  1  0  0  0  0
 40 52  1  0  0  0  0
 41 68  1  0  0  0  0
 42 44  1  0  0  0  0
 43 45  1  0  0  0  0
 43 47  1  0  0  0  0
 44 51  1  0  0  0  0
 45 53  1  0  0  0  0
 46 50  1  0  0  0  0
 46 54  1  0  0  0  0
 47 69  1  0  0  0  0
 48 53  1  0  0  0  0
 48 69  1  0  0  0  0
 49 50  1  0  0  0  0
 49 75  1  0  0  0  0
 51 72  1  0  0  0  0
 52 68  1  0  0  0  0
 53 67  1  0  0  0  0
 54 55  1  0  0  0  0
 54 75  1  0  0  0  0
 56 64  1  0  0  0  0
 57 65  1  0  0  0  0
 58 65  1  0  0  0  0
 59 65  1  0  0  0  0
 60 76  1  0  0  0  0
 61 62  1  0  0  0  0
 61 74  1  0  0  0  0
 62 75  1  0  0  0  0
 63 65  1  0  0  0  0
 63 73  1  0  0  0  0
 64 76  1  0  0  0  0
 66 67  1  0  0  0  0
M  CHG  2  75   1  76   1
M  ISO  4  27 101  38 100  74 100  82 101
M  END
> <Batch ID>
0136

> <Smiles>
CNC(C)C(=O)NC(C(=O)N1Cc2cc([101O:1][101c:1]3ccc(C4CC(C)N(CC[100NH:0][100C:0](=O)N5CCCC(n6nc(-c7ccc(Oc8ccc(F)cc8F)cc7)c(C(N)=O)c6N)C5)C4)cc3)ccc2CC1C(=O)NC1CCCc2ccccc21)C(C)(C)C

> <Shape>
0.169

> <Color>
0.193

> <Negative vol penalty>
0.000

$$$$

  -OEChem-04052321023D

 86 95  0     1  0  0  0  0  0999 V2000
  -29.5848  -33.4464   25.2588 C   0  0  0  0  0  0  0  0  0  0  0  0
  -29.3955  -32.1943   24.6829 C   0  0  0  0  0  0  0  0  0  0  0  0
  -24.2819   -9.4152   21.9949 C   0  0  0  0  0  0  0  0  0  0  0  0
  -22.9968  -10.0533   20.0511 C   0  0  0  0  0  0  0  0  0  0  0  0
  -28.4932  -34.1539   25.7606 C   0  0  0  0  0  0  0  0  0  0  0  0
  -28.1145  -31.6484   24.6094 C   0  0  0  0  0  0  0  0  0  0  0  0
  -27.1316  -29.6019   20.0827 C   0  0  0  0  0  0  0  0  0  0  0  0
  -23.4787   -8.2862   22.1553 C   0  0  0  0  0  0  0  0  0  0  0  0
  -22.1935   -8.9242   20.2115 C   0  0  0  0  0  0  0  0  0  0  0  0
  -27.6745  -28.3447   19.8209 C   0  0  0  0  0  0  0  0  0  0  0  0
  -20.4156   -7.5638   23.3883 C   0  0  0  0  0  0  0  0  0  0  0  0
  -19.9644   -7.2678   24.6745 C   0  0  0  0  0  0  0  0  0  0  0  0
  -25.5478  -27.3268   20.3307 C   0  0  0  0  0  0  0  0  0  0  0  0
  -21.0876   -5.1310   24.5769 C   0  0  0  0  0  0  0  0  0  0  0  0
  -24.0409  -10.2988   20.9428 C   0  0  0  0  0  0  0  0  0  0  0  0
  -26.0560  -11.5657   20.0254 C   0  0  0  0  0  0  0  0  0  0  0  0
  -27.1969  -33.6207   25.6844 C   0  0  0  0  0  0  0  0  0  0  0  0
  -25.7934  -29.7303   20.4817 C   0  0  0  0  0  0  0  0  0  0  0  0
  -27.0047  -32.3488   25.1118 C   0  0  0  0  0  0  0  0  0  0  0  0
  -24.9896  -28.5869   20.5945 C   0  0  0  0  0  0  0  0  0  0  0  0
  -22.4345   -8.0407   21.2636 C   0  0  0  0  0  0  0  0  0  0  0  0
  -26.8834  -27.2067   19.9476 C   0  0  0  0  0  0  0  0  0  0  0  0
  -21.2028   -6.6433   22.6963 C   0  0  0  0  0  0  0  0  0  0  0  0
  -20.3003   -6.0515   25.2688 C   0  0  0  0  0  0  0  0  0  0  0  0
  -21.5388   -5.4269   23.2906 C   0  0  0  0  0  0  0  0  0  0  0  0
  -24.8699  -11.4656   20.7769 C   0  0  0  0  0  0  0  0  0  0  0  0
  -26.4563  -12.8696   20.1877 C   0  0  0  0  0  0  0  0  0  0  0  0
  -26.7352  -10.5694   19.2498 C   0  0  0  0  0  0  0  0  0  0  0  0
  -24.3219  -30.8277   23.0767 C   0  0  0  0  0  0  0  0  0  0  0  0
  -21.6538  -30.3185   21.3034 C   0  0  0  0  0  0  0  0  0  0  0  0
  -20.1596  -28.6433   18.7329 C   0  0  0  0  0  0  0  0  0  0  0  0
  -25.3045  -18.3271   20.3712 C   0  0  0  0  0  0  0  0  0  0  0  0
  -26.0542  -34.4021   26.2831 C   0  0  0  0  0  0  0  0  0  0  0  0
  -25.2155  -31.0957   20.7345 C   0  0  0  0  0  0  0  0  0  0  0  0
  -23.5416  -28.6724   21.0001 C   0  0  0  0  0  0  0  0  0  0  0  0
  -24.6802  -33.9166   25.8284 C   0  0  0  0  0  0  0  0  0  0  0  0
  -24.8042  -16.4505   23.3553 C   0  0  0  0  0  0  0  0  0  0  0  0
  -24.5962  -32.3959   25.9135 C   0  0  0  0  0  0  0  0  0  0  0  0
  -26.2929  -16.0699   13.9181 C   0  0  0  0  0  0  0  0  0  0  0  0
  -25.3000  -15.6761   14.9759 C   0  0  0  0  0  0  0  0  0  0  0  0
  -24.8683  -14.9956   22.8875 C   0  0  0  0  0  0  0  0  0  0  0  0
  -25.9195  -23.0318   15.6840 C   0  0  0  0  0  0  0  0  0  0  0  0
  -24.1296  -17.3472   22.3195 C   0  0  0  0  0  0  0  0  0  0  0  0
  -25.2804  -21.6493   15.8219 C   0  0  0  0  0  0  0  0  0  0  0  0
  -24.7725  -15.8176   20.4971 C   0  0  0  0  0  0  0  0  0  0  0  0
  -26.7034  -21.9085   17.6581 C   0  0  0  0  0  0  0  0  0  0  0  0
  -25.6272  -31.7340   24.9913 C   0  0  1  0  0  0  0  0  0  0  0  0
  -23.9825  -31.0658   21.6324 C   0  0  1  0  0  0  0  0  0  0  0  0
  -25.4099  -17.1126   14.5457 C   0  0  0  0  0  0  0  0  0  0  0  0
  -25.4946  -14.8848   21.4843 C   0  0  2  0  0  0  0  0  0  0  0  0
  -27.0564  -23.0250   16.6958 C   0  0  2  0  0  0  0  0  0  0  0  0
  -17.9602  -28.4120   17.5468 C   0  0  0  0  0  0  0  0  0  0  0  0
  -20.5791  -28.6566   23.6257 C   0  0  0  0  0  0  0  0  0  0  0  0
  -18.8761  -27.6983   22.0605 C   0  0  0  0  0  0  0  0  0  0  0  0
  -18.8895  -30.1464   22.5393 C   0  0  0  0  0  0  0  0  0  0  0  0
  -21.3166  -29.5529   16.1652 C   0  0  0  0  0  0  0  0  0  0  0  0
  -25.9911  -18.1349   15.4733 C   0  0  0  0  0  0  0  0  0  0  0  0
  -24.9466  -18.7990   16.3792 C   0  0  0  0  0  0  0  0  0  0  0  0
  -26.4996  -19.1573   18.3608 C   0  0  0  0  0  0  0  0  0  0  0  0
  -28.4621  -24.5391   18.0789 C   0  0  0  0  0  0  0  0  0  0  0  0
  -28.4596  -25.9091   18.7280 C   0  0  0  0  0  0  0  0  0  1  0  0
  -20.7137  -29.1557   21.0961 C   0  0  1  0  0  0  0  0  0  0  0  0
  -19.3013  -29.1283   17.5784 C   0  0  2  0  0  0  0  0  0  0  0  0
  -25.4973  -19.8153   17.4021 C   0  0  1  0  0  0  0  0  0  0  0  0
  -19.7924  -28.9121   22.3246 C   0  0  0  0  0  0  0  0  0  0  0  0
  -24.5383  -12.6142   21.3726 N   0  0  0  0  0  0  0  0  0  0  0  0
  -25.5222  -13.4484   20.9955 N   0  0  0  0  0  0  0  0  0  0  0  0
  -23.0244  -30.0294   21.2425 N   0  0  0  0  0  0  0  0  0  0  0  0
  -24.7717  -17.1961   21.0115 N   0  0  0  0  0  0  0  0  0  0  0  0
  -26.1709  -20.9128   16.7249 N   0  0  1  0  0  0  0  0  0  0  0  0
  -27.5127  -13.5658   19.7170 N   0  0  0  0  0  0  0  0  0  0  0  0
  -26.1872   -9.2808   19.1900 N   0  0  0  0  0  0  0  0  0  0  0  0
  -25.1740  -31.7716   23.6174 N   0  0  0  0  0  0  0  0  0  0  0  0
  -19.9959  -29.4272   19.8554 N   0  0  0  0  0  0  0  0  0  0  0  0
  -25.9011  -18.0950   19.1380 N   0  0  0  0  0  0  0  0  0  0  0  0
  -27.1637  -24.3194   17.3931 N   0  3  0  0  0  0  0  0  0  0  0  0
  -19.9938  -28.8867   16.2811 N   0  3  0  0  0  0  0  0  0  0  0  0
  -27.8055  -10.8101   18.6414 O   0  0  0  0  0  0  0  0  0  0  0  0
  -23.8447  -29.8602   23.6579 O   0  0  0  0  0  0  0  0  0  0  0  0
  -21.1891  -31.4434   21.5047 O   0  0  0  0  0  0  0  0  0  0  0  0
  -20.8982  -27.6646   18.6486 O   0  0  0  0  0  0  0  0  0  0  0  0
  -25.2571  -19.4590   20.8646 O   0  0  0  0  0  0  0  0  0  0  0  0
  -21.6507   -6.9389   21.4197 O   0  0  0  0  0  0  0  0  0  0  0  0
  -27.4110  -25.9784   19.6933 O   0  0  0  0  0  0  0  0  0  1  0  0
  -19.8682   -5.7680   26.5046 F   0  0  0  0  0  0  0  0  0  0  0  0
  -22.2958   -4.5392   22.6313 F   0  0  0  0  0  0  0  0  0  0  0  0
  1  2  1  0  0  0  0
  1  5  2  0  0  0  0
  2  6  2  0  0  0  0
  3  8  2  0  0  0  0
  3 15  1  0  0  0  0
  4  9  1  0  0  0  0
  4 15  2  0  0  0  0
  5 17  1  0  0  0  0
  6 19  1  0  0  0  0
  7 10  2  0  0  0  0
  7 18  1  0  0  0  0
  8 21  1  0  0  0  0
  9 21  2  0  0  0  0
 10 22  1  0  0  0  0
 11 12  2  0  0  0  0
 11 23  1  0  0  0  0
 12 24  1  0  0  0  0
 13 20  1  0  0  0  0
 13 22  2  0  0  0  0
 14 24  2  0  0  0  0
 14 25  1  0  0  0  0
 15 26  1  0  0  0  0
 16 26  1  0  0  0  0
 16 27  2  0  0  0  0
 16 28  1  0  0  0  0
 17 19  2  0  0  0  0
 17 33  1  0  0  0  0
 18 20  2  0  0  0  0
 18 34  1  0  0  0  0
 19 47  1  0  0  0  0
 20 35  1  0  0  0  0
 21 83  1  0  0  0  0
 22 84  1  0  0  0  0
 23 25  2  0  0  0  0
 23 83  1  0  0  0  0
 24 85  1  0  0  0  0
 25 86  1  0  0  0  0
 26 66  2  0  0  0  0
 27 67  1  0  0  0  0
 27 71  1  0  0  0  0
 28 72  1  0  0  0  0
 28 78  2  0  0  0  0
 29 48  1  0  0  0  0
 29 73  1  0  0  0  0
 29 79  2  0  0  0  0
 30 62  1  0  0  0  0
 30 68  1  0  0  0  0
 30 80  2  0  0  0  0
 31 63  1  0  0  0  0
 31 74  1  0  0  0  0
 31 81  2  0  0  0  0
 32 69  1  0  0  0  0
 32 75  1  0  0  0  0
 32 82  2  0  0  0  0
 33 36  1  0  0  0  0
 34 48  1  0  0  0  0
 35 68  1  0  0  0  0
 36 38  1  0  0  0  0
 37 41  1  0  0  0  0
 37 43  1  0  0  0  0
 38 47  1  0  0  0  0
 39 40  1  0  0  0  0
 39 49  1  0  0  0  0
 40 49  1  0  0  0  0
 41 50  1  0  0  0  0
 42 44  1  0  0  0  0
 42 51  1  0  0  0  0
 43 69  1  0  0  0  0
 44 70  1  0  0  0  0
 45 50  1  0  0  0  0
 45 69  1  0  0  0  0
 46 51  1  0  0  0  0
 46 70  1  0  0  0  0
 47 73  1  0  0  0  0
 48 68  1  0  0  0  0
 49 57  1  0  0  0  0
 50 67  1  0  0  0  0
 51 76  1  0  0  0  0
 52 63  1  0  0  0  0
 53 65  1  0  0  0  0
 54 65  1  0  0  0  0
 55 65  1  0  0  0  0
 56 77  1  0  0  0  0
 57 58  1  0  0  0  0
 58 64  1  0  0  0  0
 59 64  1  0  0  0  0
 59 75  1  0  0  0  0
 60 61  1  0  0  0  0
 60 76  1  0  0  0  0
 61 84  1  0  0  0  0
 62 65  1  0  0  0  0
 62 74  1  0  0  0  0
 63 77  1  0  0  0  0
 64 70  1  0  0  0  0
 66 67  1  0  0  0  0
M  CHG  2  76   1  77   1
M  ISO  4  32 100  61 101  75 100  84 101
M  END
> <Batch ID>
0136

> <Smiles>
CNC(C)C(=O)NC(C(=O)N1Cc2cc([101O:1][101CH2:1]CNC3CCN(C(CCC4CC4)C[100NH:0][100C:0](=O)N4CCCC(n5nc(-c6ccc(Oc7ccc(F)cc7F)cc6)c(C(N)=O)c5N)C4)C3)ccc2CC1C(=O)NC1CCCc2ccccc21)C(C)(C)C

> <Shape>
0.282

> <Color>
0.100

> <Negative vol penalty>
0.000

$$$$

  -OEChem-04052321023D

 86 95  0     1  0  0  0  0  0999 V2000
  -38.9369  -29.4776   31.5668 C   0  0  0  0  0  0  0  0  0  0  0  0
  -38.1093  -29.9926   30.5742 C   0  0  0  0  0  0  0  0  0  0  0  0
  -23.0768   -9.8639   19.9443 C   0  0  0  0  0  0  0  0  0  0  0  0
  -23.8386   -9.8764   22.2371 C   0  0  0  0  0  0  0  0  0  0  0  0
  -39.4066  -28.1683   31.4713 C   0  0  0  0  0  0  0  0  0  0  0  0
  -37.7518  -29.1990   29.4849 C   0  0  0  0  0  0  0  0  0  0  0  0
  -32.3310  -28.0705   24.9398 C   0  0  0  0  0  0  0  0  0  0  0  0
  -31.3011  -23.8238   19.4435 C   0  0  0  0  0  0  0  0  0  0  0  0
  -22.3354   -8.7098   20.1969 C   0  0  0  0  0  0  0  0  0  0  0  0
  -23.0971   -8.7222   22.4897 C   0  0  0  0  0  0  0  0  0  0  0  0
  -32.0702  -27.9933   23.5724 C   0  0  0  0  0  0  0  0  0  0  0  0
  -31.9338  -24.9724   19.9186 C   0  0  0  0  0  0  0  0  0  0  0  0
  -19.8710   -7.9192   23.0963 C   0  0  0  0  0  0  0  0  0  0  0  0
  -19.1151   -7.8799   24.2678 C   0  0  0  0  0  0  0  0  0  0  0  0
  -32.8772  -25.7201   23.5529 C   0  0  0  0  0  0  0  0  0  0  0  0
  -30.3630  -25.0797   21.7511 C   0  0  0  0  0  0  0  0  0  0  0  0
  -20.3609   -5.9461   25.0067 C   0  0  0  0  0  0  0  0  0  0  0  0
  -23.8285  -10.4472   20.9644 C   0  0  0  0  0  0  0  0  0  0  0  0
  -24.1653  -12.9728   20.8397 C   0  0  0  0  0  0  0  0  0  0  0  0
  -39.0468  -27.3550   30.3851 C   0  0  0  0  0  0  0  0  0  0  0  0
  -32.8779  -26.9748   25.6231 C   0  0  0  0  0  0  0  0  0  0  0  0
  -38.2182  -27.8780   29.3741 C   0  0  0  0  0  0  0  0  0  0  0  0
  -33.1416  -25.7851   24.9295 C   0  0  0  0  0  0  0  0  0  0  0  0
  -30.1994  -23.3030   20.1222 C   0  0  0  0  0  0  0  0  0  0  0  0
  -29.7303  -23.9310   21.2760 C   0  0  0  0  0  0  0  0  0  0  0  0
  -22.3455   -8.1389   21.4696 C   0  0  0  0  0  0  0  0  0  0  0  0
  -32.3460  -26.8190   22.8782 C   0  0  0  0  0  0  0  0  0  0  0  0
  -31.4647  -25.6005   21.0724 C   0  0  0  0  0  0  0  0  0  1  0  0
  -20.8718   -6.9720   22.8798 C   0  0  0  0  0  0  0  0  0  0  0  0
  -19.3601   -6.8934   25.2231 C   0  0  0  0  0  0  0  0  0  0  0  0
  -21.1168   -5.9855   23.8350 C   0  0  0  0  0  0  0  0  0  0  0  0
  -24.5950  -11.6391   20.7040 C   0  0  0  0  0  0  0  0  0  0  0  0
  -25.2557  -13.7238   20.4742 C   0  0  0  0  0  0  0  0  0  0  0  0
  -22.8942  -13.4869   21.2587 C   0  0  0  0  0  0  0  0  0  0  0  0
  -35.5700  -26.4495   27.2295 C   0  0  0  0  0  0  0  0  0  0  0  0
  -34.1510  -23.6135   27.9118 C   0  0  0  0  0  0  0  0  0  0  0  0
  -31.8613  -21.2364   27.0434 C   0  0  0  0  0  0  0  0  0  0  0  0
  -30.7376  -14.7538   20.6563 C   0  0  0  0  0  0  0  0  0  0  0  0
  -39.6176  -25.9615   30.3013 C   0  0  0  0  0  0  0  0  0  0  0  0
  -33.1284  -27.0652   27.1034 C   0  0  0  0  0  0  0  0  0  0  0  0
  -33.7101  -24.5736   25.6207 C   0  0  0  0  0  0  0  0  0  0  0  0
  -38.8886  -25.0637   29.3050 C   0  0  0  0  0  0  0  0  0  0  0  0
  -29.6027  -12.3629   18.2746 C   0  0  0  0  0  0  0  0  0  0  0  0
  -38.6659  -25.7990   27.9872 C   0  0  0  0  0  0  0  0  0  0  0  0
  -28.1662  -12.0672   18.7092 C   0  0  0  0  0  0  0  0  0  0  0  0
  -31.5510  -19.1478   21.0188 C   0  0  0  0  0  0  0  0  0  0  0  0
  -29.0944  -18.6062   21.1502 C   0  0  0  0  0  0  0  0  0  0  0  0
  -30.5204  -12.5876   19.4744 C   0  0  0  0  0  0  0  0  0  0  0  0
  -28.6183  -13.3174   20.8612 C   0  0  0  0  0  0  0  0  0  0  0  0
  -31.2373  -20.3165   20.0946 C   0  0  0  0  0  0  0  0  0  0  0  0
  -28.7934  -19.7775   20.2251 C   0  0  0  0  0  0  0  0  0  0  0  0
  -37.7881  -27.0401   28.1896 C   0  0  1  0  0  0  0  0  0  0  0  0
  -34.1656  -26.0609   27.5963 C   0  0  1  0  0  0  0  0  0  0  0  0
  -30.4982  -18.0386   20.9098 C   0  0  0  0  0  0  0  0  0  0  0  0
  -27.6436  -13.1389   19.6847 C   0  0  2  0  0  0  0  0  0  0  0  0
  -28.5534  -23.3911   22.0202 C   0  0  0  0  0  0  0  0  0  0  0  0
  -30.9557  -19.0134   27.7750 C   0  0  0  0  0  0  0  0  0  0  0  0
  -36.6638  -22.2441   26.8533 C   0  0  0  0  0  0  0  0  0  0  0  0
  -35.3601  -20.1111   26.7176 C   0  0  0  0  0  0  0  0  0  0  0  0
  -35.7108  -21.2181   28.9254 C   0  0  0  0  0  0  0  0  0  0  0  0
  -29.1330  -22.3305   27.3871 C   0  0  0  0  0  0  0  0  0  0  0  0
  -29.5388  -22.0716   19.5954 C   0  0  0  0  0  0  0  0  0  0  0  0
  -30.8003  -16.9067   21.8893 C   0  0  0  0  0  0  0  0  0  0  0  0
  -34.1142  -22.2523   27.2600 C   0  0  1  0  0  0  0  0  0  0  0  0
  -30.7932  -20.5234   27.8529 C   0  0  2  0  0  0  0  0  0  0  0  0
  -35.4533  -21.4797   27.4254 C   0  0  0  0  0  0  0  0  0  0  0  0
  -25.8597  -11.5450   20.2848 N   0  0  0  0  0  0  0  0  0  0  0  0
  -26.2340  -12.8291   20.1539 N   0  0  0  0  0  0  0  0  0  0  0  0
  -33.9436  -24.7135   27.0675 N   0  0  0  0  0  0  0  0  0  0  0  0
  -29.9685  -13.6166   20.3590 N   0  0  0  0  0  0  0  0  0  0  0  0
  -25.4634  -15.0555   20.3987 N   0  0  0  0  0  0  0  0  0  0  0  0
  -21.8843  -12.5764   21.5984 N   0  0  0  0  0  0  0  0  0  0  0  0
  -36.3974  -26.6603   28.3160 N   0  0  0  0  0  0  0  0  0  0  0  0
  -32.9547  -21.5641   27.8171 N   0  0  0  0  0  0  0  0  0  0  0  0
  -30.1373  -15.6829   21.4972 N   0  0  0  0  0  0  0  0  0  0  0  0
  -29.8535  -20.8383   20.3965 N   0  3  0  0  0  0  0  0  0  0  0  0
  -29.4370  -20.8770   27.3461 N   0  3  0  0  0  0  0  0  0  0  0  0
  -22.6556  -14.7172   21.3141 O   0  0  0  0  0  0  0  0  0  0  0  0
  -35.8803  -26.5493   26.0482 O   0  0  0  0  0  0  0  0  0  0  0  0
  -34.3490  -23.6972   29.1264 O   0  0  0  0  0  0  0  0  0  0  0  0
  -31.7397  -21.4752   25.8440 O   0  0  0  0  0  0  0  0  0  0  0  0
  -31.8728  -14.9307   20.2014 O   0  0  0  0  0  0  0  0  0  0  0  0
  -21.6220   -7.0129   21.7165 O   0  0  0  0  0  0  0  0  0  0  0  0
  -32.0931  -26.7412   21.5433 O   0  0  0  0  0  0  0  0  0  1  0  0
  -18.6351   -6.8566   26.3488 F   0  0  0  0  0  0  0  0  0  0  0  0
  -22.0777   -5.0735   23.6332 F   0  0  0  0  0  0  0  0  0  0  0  0
  1  2  1  0  0  0  0
  1  5  2  0  0  0  0
  2  6  2  0  0  0  0
  3  9  2  0  0  0  0
  3 18  1  0  0  0  0
  4 10  1  0  0  0  0
  4 18  2  0  0  0  0
  5 20  1  0  0  0  0
  6 22  1  0  0  0  0
  7 11  2  0  0  0  0
  7 21  1  0  0  0  0
  8 12  2  0  0  0  0
  8 24  1  0  0  0  0
  9 26  1  0  0  0  0
 10 26  2  0  0  0  0
 11 27  1  0  0  0  0
 12 28  1  0  0  0  0
 13 14  2  0  0  0  0
 13 29  1  0  0  0  0
 14 30  1  0  0  0  0
 15 23  1  0  0  0  0
 15 27  2  0  0  0  0
 16 25  1  0  0  0  0
 16 28  2  0  0  0  0
 17 30  2  0  0  0  0
 17 31  1  0  0  0  0
 18 32  1  0  0  0  0
 19 32  1  0  0  0  0
 19 33  2  0  0  0  0
 19 34  1  0  0  0  0
 20 22  2  0  0  0  0
 20 39  1  0  0  0  0
 21 23  2  0  0  0  0
 21 40  1  0  0  0  0
 22 52  1  0  0  0  0
 23 41  1  0  0  0  0
 24 25  2  0  0  0  0
 24 62  1  0  0  0  0
 25 56  1  0  0  0  0
 26 83  1  0  0  0  0
 27 84  1  0  0  0  0
 28 84  1  0  0  0  0
 29 31  2  0  0  0  0
 29 83  1  0  0  0  0
 30 85  1  0  0  0  0
 31 86  1  0  0  0  0
 32 67  2  0  0  0  0
 33 68  1  0  0  0  0
 33 71  1  0  0  0  0
 34 72  1  0  0  0  0
 34 78  2  0  0  0  0
 35 53  1  0  0  0  0
 35 73  1  0  0  0  0
 35 79  2  0  0  0  0
 36 64  1  0  0  0  0
 36 69  1  0  0  0  0
 36 80  2  0  0  0  0
 37 65  1  0  0  0  0
 37 74  1  0  0  0  0
 37 81  2  0  0  0  0
 38 70  1  0  0  0  0
 38 75  1  0  0  0  0
 38 82  2  0  0  0  0
 39 42  1  0  0  0  0
 40 53  1  0  0  0  0
 41 69  1  0  0  0  0
 42 44  1  0  0  0  0
 43 45  1  0  0  0  0
 43 48  1  0  0  0  0
 44 52  1  0  0  0  0
 45 55  1  0  0  0  0
 46 50  1  0  0  0  0
 46 54  1  0  0  0  0
 47 51  1  0  0  0  0
 47 54  1  0  0  0  0
 48 70  1  0  0  0  0
 49 55  1  0  0  0  0
 49 70  1  0  0  0  0
 50 76  1  0  0  0  0
 51 76  1  0  0  0  0
 52 73  1  0  0  0  0
 53 69  1  0  0  0  0
 54 63  1  0  0  0  0
 55 68  1  0  0  0  0
 57 65  1  0  0  0  0
 58 66  1  0  0  0  0
 59 66  1  0  0  0  0
 60 66  1  0  0  0  0
 61 77  1  0  0  0  0
 62 76  1  0  0  0  0
 63 75  1  0  0  0  0
 64 66  1  0  0  0  0
 64 74  1  0  0  0  0
 65 77  1  0  0  0  0
 67 68  1  0  0  0  0
M  CHG  2  76   1  77   1
M  ISO  4  28 101  38 100  75 100  84 101
M  END
> <Batch ID>
0136

> <Smiles>
CNC(C)C(=O)NC(C(=O)N1Cc2cc([101O:1][101c:1]3ccc(CN4CCC(C[100NH:0][100C:0](=O)N5CCCC(n6nc(-c7ccc(Oc8ccc(F)cc8F)cc7)c(C(N)=O)c6N)C5)CC4)c(C)c3)ccc2CC1C(=O)NC1CCCc2ccccc21)C(C)(C)C

> <Shape>
0.215

> <Color>
0.187

> <Negative vol penalty>
0.000

$$$$

  -OEChem-04052321023D

 83 92  0     1  0  0  0  0  0999 V2000
  -28.9468  -34.3058   27.1106 C   0  0  0  0  0  0  0  0  0  0  0  0
  -28.4699  -33.0144   26.9101 C   0  0  0  0  0  0  0  0  0  0  0  0
  -24.4203   -9.4442   22.1489 C   0  0  0  0  0  0  0  0  0  0  0  0
  -24.0699   -9.0806   19.7862 C   0  0  0  0  0  0  0  0  0  0  0  0
  -28.1925  -35.3996   26.6880 C   0  0  0  0  0  0  0  0  0  0  0  0
  -27.2380  -32.8160   26.2877 C   0  0  0  0  0  0  0  0  0  0  0  0
  -29.6033  -21.0230   21.4953 C   0  0  0  0  0  0  0  0  0  0  0  0
  -27.3939  -29.1542   22.7932 C   0  0  0  0  0  0  0  0  0  0  0  0
  -28.8792  -22.2104   21.6010 C   0  0  0  0  0  0  0  0  0  0  0  0
  -23.2719   -8.7051   22.4329 C   0  0  0  0  0  0  0  0  0  0  0  0
  -22.9216   -8.3415   20.0702 C   0  0  0  0  0  0  0  0  0  0  0  0
  -27.3673  -27.8370   23.2495 C   0  0  0  0  0  0  0  0  0  0  0  0
  -22.3866   -5.4465   22.6074 C   0  0  0  0  0  0  0  0  0  0  0  0
  -22.4595   -4.5041   23.6331 C   0  0  0  0  0  0  0  0  0  0  0  0
  -25.0128  -27.7142   22.7393 C   0  0  0  0  0  0  0  0  0  0  0  0
  -27.2020  -21.0707   22.9145 C   0  0  0  0  0  0  0  0  0  0  0  0
  -20.7064   -5.6644   24.8237 C   0  0  0  0  0  0  0  0  0  0  0  0
  -24.8193   -9.6320   20.8255 C   0  0  0  0  0  0  0  0  0  0  0  0
  -27.3209   -9.9102   20.4109 C   0  0  0  0  0  0  0  0  0  0  0  0
  -26.9551  -35.2143   26.0515 C   0  0  0  0  0  0  0  0  0  0  0  0
  -26.2258  -29.7658   22.3159 C   0  0  0  0  0  0  0  0  0  0  0  0
  -26.4658  -33.9084   25.8574 C   0  0  0  0  0  0  0  0  0  0  0  0
  -29.1268  -19.8593   22.0992 C   0  0  0  0  0  0  0  0  0  0  0  0
  -25.0277  -29.0383   22.2751 C   0  0  0  0  0  0  0  0  0  0  0  0
  -27.9262  -19.8832   22.8088 C   0  0  0  0  0  0  0  0  0  0  0  0
  -27.6786  -22.2343   22.3106 C   0  0  0  0  0  0  0  0  0  0  0  0
  -22.5226   -8.1538   21.3936 C   0  0  0  0  0  0  0  0  0  0  0  0
  -26.1760  -27.1178   23.2253 C   0  0  0  0  0  0  0  0  0  0  0  0
  -21.4737   -6.4979   22.6899 C   0  0  0  0  0  0  0  0  0  0  0  0
  -21.6193   -4.6129   24.7412 C   0  0  0  0  0  0  0  0  0  0  0  0
  -20.6336   -6.6068   23.7980 C   0  0  0  0  0  0  0  0  0  0  0  0
  -26.0051  -10.3958   20.5315 C   0  0  0  0  0  0  0  0  0  0  0  0
  -28.0732  -11.0237   20.1271 C   0  0  0  0  0  0  0  0  0  0  0  0
  -27.8186   -8.5721   20.5434 C   0  0  0  0  0  0  0  0  0  0  0  0
  -24.4871  -32.2763   23.1978 C   0  0  0  0  0  0  0  0  0  0  0  0
  -22.8674  -31.6232   20.4642 C   0  0  0  0  0  0  0  0  0  0  0  0
  -21.9823  -29.3277   18.0991 C   0  0  0  0  0  0  0  0  0  0  0  0
  -29.3839  -16.2712   21.2629 C   0  0  0  0  0  0  0  0  0  0  0  0
  -26.1538  -36.4288   25.6547 C   0  0  0  0  0  0  0  0  0  0  0  0
  -26.2769  -31.1786   21.8023 C   0  0  0  0  0  0  0  0  0  0  0  0
  -23.7505  -29.6424   21.7533 C   0  0  0  0  0  0  0  0  0  0  0  0
  -25.0314  -36.1218   24.6667 C   0  0  0  0  0  0  0  0  0  0  0  0
  -26.6902  -15.7102   18.8557 C   0  0  0  0  0  0  0  0  0  0  0  0
  -24.2465  -34.8931   25.1152 C   0  0  0  0  0  0  0  0  0  0  0  0
  -26.3579  -14.2393   19.1029 C   0  0  0  0  0  0  0  0  0  0  0  0
  -27.1004  -16.4179   20.1440 C   0  0  0  0  0  0  0  0  0  0  0  0
  -30.7189  -18.2957   20.7503 C   0  0  0  0  0  0  0  0  0  0  0  0
  -27.9031  -14.2779   21.1081 C   0  0  0  0  0  0  0  0  0  0  0  0
  -29.9243  -18.5887   21.9718 C   0  0  2  0  0  0  0  0  0  0  0  0
  -25.1455  -33.6518   25.1638 C   0  0  1  0  0  0  0  0  0  0  0  0
  -24.9167  -31.8692   21.8167 C   0  0  1  0  0  0  0  0  0  0  0  0
  -27.5151  -13.5264   19.8241 C   0  0  1  0  0  0  0  0  0  0  0  0
  -27.3940  -18.6505   23.4635 C   0  0  0  0  0  0  0  0  0  0  0  0
  -20.6187  -29.0803   16.0070 C   0  0  0  0  0  0  0  0  0  0  0  0
  -20.3156  -31.5724   22.1363 C   0  0  0  0  0  0  0  0  0  0  0  0
  -19.1748  -30.4123   20.2334 C   0  0  0  0  0  0  0  0  0  0  0  0
  -20.0892  -32.7122   19.9217 C   0  0  0  0  0  0  0  0  0  0  0  0
  -24.3620  -28.6047   16.4949 C   0  0  0  0  0  0  0  0  0  0  0  0
  -25.7092  -23.5286   23.1305 C   0  0  0  0  0  0  0  0  0  0  0  0
  -25.1950  -24.9571   23.0675 C   0  0  0  0  0  0  0  0  0  1  0  0
  -21.6836  -30.7585   20.1035 C   0  0  1  0  0  0  0  0  0  0  0  0
  -21.9922  -29.3891   16.5823 C   0  0  2  0  0  0  0  0  0  0  0  0
  -20.3393  -31.3528   20.6104 C   0  0  0  0  0  0  0  0  0  0  0  0
  -25.9228  -11.7151   20.3401 N   0  0  0  0  0  0  0  0  0  0  0  0
  -27.1965  -12.0680   20.0965 N   0  0  0  0  0  0  0  0  0  0  0  0
  -23.8503  -31.0289   21.2682 N   0  0  0  0  0  0  0  0  0  0  0  0
  -28.1777  -15.6889   20.8265 N   0  0  0  0  0  0  0  0  0  0  0  0
  -29.4758  -17.6351   20.9900 N   0  0  0  0  0  0  0  0  0  0  0  0
  -29.3926  -11.2016   19.9034 N   0  0  0  0  0  0  0  0  0  0  0  0
  -26.9091   -7.5469   20.8368 N   0  0  0  0  0  0  0  0  0  0  0  0
  -26.9599  -23.4136   22.4160 N   0  0  0  0  0  0  0  0  0  0  0  0
  -25.3660  -33.1348   23.8302 N   0  0  0  0  0  0  0  0  0  0  0  0
  -21.7445  -30.5652   18.6588 N   0  0  0  0  0  0  0  0  0  0  0  0
  -22.9652  -28.4044   16.0304 N   0  3  0  0  0  0  0  0  0  0  0  0
  -29.0363   -8.2963   20.4220 O   0  0  0  0  0  0  0  0  0  0  0  0
  -23.4353  -31.8448   23.6551 O   0  0  0  0  0  0  0  0  0  0  0  0
  -22.9214  -32.7810   20.0421 O   0  0  0  0  0  0  0  0  0  0  0  0
  -22.1634  -28.2854   18.7247 O   0  0  0  0  0  0  0  0  0  0  0  0
  -30.2749  -15.6371   21.8347 O   0  0  0  0  0  0  0  0  0  0  0  0
  -21.4021   -7.4324   21.6704 O   0  0  0  0  0  0  0  0  0  0  0  0
  -26.1471  -25.8322   23.6707 O   0  0  0  0  0  0  0  0  0  1  0  0
  -21.6883   -3.7070   25.7254 F   0  0  0  0  0  0  0  0  0  0  0  0
  -19.7537   -7.6141   23.8823 F   0  0  0  0  0  0  0  0  0  0  0  0
  1  2  1  0  0  0  0
  1  5  2  0  0  0  0
  2  6  2  0  0  0  0
  3 10  2  0  0  0  0
  3 18  1  0  0  0  0
  4 11  1  0  0  0  0
  4 18  2  0  0  0  0
  5 20  1  0  0  0  0
  6 22  1  0  0  0  0
  7  9  2  0  0  0  0
  7 23  1  0  0  0  0
  8 12  2  0  0  0  0
  8 21  1  0  0  0  0
  9 26  1  0  0  0  0
 10 27  1  0  0  0  0
 11 27  2  0  0  0  0
 12 28  1  0  0  0  0
 13 14  2  0  0  0  0
 13 29  1  0  0  0  0
 14 30  1  0  0  0  0
 15 24  1  0  0  0  0
 15 28  2  0  0  0  0
 16 25  1  0  0  0  0
 16 26  2  0  0  0  0
 17 30  2  0  0  0  0
 17 31  1  0  0  0  0
 18 32  1  0  0  0  0
 19 32  1  0  0  0  0
 19 33  2  0  0  0  0
 19 34  1  0  0  0  0
 20 22  2  0  0  0  0
 20 39  1  0  0  0  0
 21 24  2  0  0  0  0
 21 40  1  0  0  0  0
 22 50  1  0  0  0  0
 23 25  2  0  0  0  0
 23 49  1  0  0  0  0
 24 41  1  0  0  0  0
 25 53  1  0  0  0  0
 26 71  1  0  0  0  0
 27 80  1  0  0  0  0
 28 81  1  0  0  0  0
 29 31  2  0  0  0  0
 29 80  1  0  0  0  0
 30 82  1  0  0  0  0
 31 83  1  0  0  0  0
 32 64  2  0  0  0  0
 33 65  1  0  0  0  0
 33 69  1  0  0  0  0
 34 70  1  0  0  0  0
 34 75  2  0  0  0  0
 35 51  1  0  0  0  0
 35 72  1  0  0  0  0
 35 76  2  0  0  0  0
 36 61  1  0  0  0  0
 36 66  1  0  0  0  0
 36 77  2  0  0  0  0
 37 62  1  0  0  0  0
 37 73  1  0  0  0  0
 37 78  2  0  0  0  0
 38 67  1  0  0  0  0
 38 68  1  0  0  0  0
 38 79  2  0  0  0  0
 39 42  1  0  0  0  0
 40 51  1  0  0  0  0
 41 66  1  0  0  0  0
 42 44  1  0  0  0  0
 43 45  1  0  0  0  0
 43 46  1  0  0  0  0
 44 50  1  0  0  0  0
 45 52  1  0  0  0  0
 46 67  1  0  0  0  0
 47 49  1  0  0  0  0
 47 68  1  0  0  0  0
 48 52  1  0  0  0  0
 48 67  1  0  0  0  0
 49 68  1  0  0  0  0
 50 72  1  0  0  0  0
 51 66  1  0  0  0  0
 52 65  1  0  0  0  0
 54 62  1  0  0  0  0
 55 63  1  0  0  0  0
 56 63  1  0  0  0  0
 57 63  1  0  0  0  0
 58 74  1  0  0  0  0
 59 60  1  0  0  0  0
 59 71  1  0  0  0  0
 60 81  1  0  0  0  0
 61 63  1  0  0  0  0
 61 73  1  0  0  0  0
 62 74  1  0  0  0  0
 64 65  1  0  0  0  0
M  CHG  1  74   1
M  ISO  4  38 100  60 101  68 100  81 101
M  END
> <Batch ID>
0136

> <Smiles>
CNC(C)C(=O)NC(C(=O)N1Cc2cc([101O:1][101CH2:1]CNc3ccc(C4C[100N:0]4[100C:0](=O)N4CCCC(n5nc(-c6ccc(Oc7ccc(F)cc7F)cc6)c(C(N)=O)c5N)C4)c(C)c3)ccc2CC1C(=O)NC1CCCc2ccccc21)C(C)(C)C

> <Shape>
0.251

> <Color>
0.101

> <Negative vol penalty>
0.000

$$$$

  -OEChem-04052321023D

 83 91  0     1  0  0  0  0  0999 V2000
  -27.9791  -37.4913   22.0627 C   0  0  0  0  0  0  0  0  0  0  0  0
  -28.4426  -36.2528   21.6307 C   0  0  0  0  0  0  0  0  0  0  0  0
  -24.8388  -13.8949   21.4743 C   0  0  0  0  0  0  0  0  0  0  0  0
  -26.2272  -12.9508   19.7371 C   0  0  0  0  0  0  0  0  0  0  0  0
  -26.9799  -37.5608   23.0326 C   0  0  0  0  0  0  0  0  0  0  0  0
  -27.9080  -35.0830   22.1693 C   0  0  0  0  0  0  0  0  0  0  0  0
  -27.0048  -29.7691   19.2620 C   0  0  0  0  0  0  0  0  0  0  0  0
  -24.3865  -12.6181   21.8068 C   0  0  0  0  0  0  0  0  0  0  0  0
  -25.7750  -11.6738   20.0697 C   0  0  0  0  0  0  0  0  0  0  0  0
  -27.7456  -28.5890   19.2129 C   0  0  0  0  0  0  0  0  0  0  0  0
  -22.5936   -9.6403   22.8756 C   0  0  0  0  0  0  0  0  0  0  0  0
  -21.2257   -9.4704   23.0894 C   0  0  0  0  0  0  0  0  0  0  0  0
  -26.3677  -27.6583   20.9605 C   0  0  0  0  0  0  0  0  0  0  0  0
  -30.7023  -24.6822   20.2259 C   0  0  0  0  0  0  0  0  0  0  0  0
  -20.7813  -10.2075   20.8319 C   0  0  0  0  0  0  0  0  0  0  0  0
  -25.7591  -14.0613   20.4394 C   0  0  0  0  0  0  0  0  0  0  0  0
  -27.3451  -16.0508   20.6244 C   0  0  0  0  0  0  0  0  0  0  0  0
  -26.4259  -36.3911   23.5763 C   0  0  0  0  0  0  0  0  0  0  0  0
  -25.9450  -29.9069   20.1698 C   0  0  0  0  0  0  0  0  0  0  0  0
  -26.9014  -35.1369   23.1484 C   0  0  0  0  0  0  0  0  0  0  0  0
  -25.6133  -28.8402   21.0174 C   0  0  0  0  0  0  0  0  0  0  0  0
  -31.2891  -23.4225   20.2713 C   0  0  0  0  0  0  0  0  0  0  0  0
  -31.0288  -22.5036   19.2608 C   0  0  0  0  0  0  0  0  0  0  0  0
  -24.8546  -11.5075   21.1046 C   0  0  0  0  0  0  0  0  0  0  0  0
  -27.4290  -27.5345   20.0642 C   0  0  0  0  0  0  0  0  0  0  0  0
  -23.0553  -10.0939   21.6399 C   0  0  0  0  0  0  0  0  0  0  0  0
  -20.3196   -9.7540   22.0675 C   0  0  0  0  0  0  0  0  0  0  0  0
  -22.1492  -10.3775   20.6181 C   0  0  0  0  0  0  0  0  0  0  0  0
  -26.2263  -15.3801   20.0950 C   0  0  0  0  0  0  0  0  0  0  0  0
  -29.8694  -24.9715   19.1571 C   0  0  0  0  0  0  0  0  0  0  0  0
  -30.1811  -22.8903   18.2353 C   0  0  0  0  0  0  0  0  0  0  0  0
  -27.3583  -17.2614   19.9758 C   0  0  0  0  0  0  0  0  0  0  0  0
  -28.2881  -15.6182   21.6139 C   0  0  0  0  0  0  0  0  0  0  0  0
  -25.3248  -31.8376   22.6175 C   0  0  0  0  0  0  0  0  0  0  0  0
  -22.4537  -30.3285   22.5763 C   0  0  0  0  0  0  0  0  0  0  0  0
  -20.6468  -27.5620   21.7226 C   0  0  0  0  0  0  0  0  0  0  0  0
  -26.8961  -20.2880   15.3098 C   0  0  0  0  0  0  0  0  0  0  0  0
  -25.3811  -36.5169   24.6567 C   0  0  0  0  0  0  0  0  0  0  0  0
  -25.1386  -31.1764   20.1918 C   0  0  0  0  0  0  0  0  0  0  0  0
  -24.4720  -28.9302   21.9960 C   0  0  0  0  0  0  0  0  0  0  0  0
  -24.6036  -35.2270   24.9052 C   0  0  0  0  0  0  0  0  0  0  0  0
  -23.8869  -19.4500   17.0183 C   0  0  0  0  0  0  0  0  0  0  0  0
  -25.5562  -34.0395   25.0009 C   0  0  0  0  0  0  0  0  0  0  0  0
  -24.3184  -18.3679   18.0098 C   0  0  0  0  0  0  0  0  0  0  0  0
  -24.6416  -19.3368   15.6956 C   0  0  0  0  0  0  0  0  0  0  0  0
  -26.5425  -18.2351   16.8121 C   0  0  0  0  0  0  0  0  0  0  0  0
  -26.3290  -33.8452   23.6907 C   0  0  1  0  0  0  0  0  0  0  0  0
  -24.4072  -31.3968   21.5124 C   0  0  1  0  0  0  0  0  0  0  0  0
  -25.8492  -18.3426   18.1810 C   0  0  2  0  0  0  0  0  0  0  0  0
  -32.1920  -23.0826   21.4109 C   0  0  0  0  0  0  0  0  0  0  0  0
  -31.6507  -21.1464   19.2925 C   0  0  0  0  0  0  0  0  0  0  0  0
  -18.3307  -26.6048   21.8519 C   0  0  0  0  0  0  0  0  0  0  0  0
  -22.8769  -29.7102   25.5341 C   0  0  0  0  0  0  0  0  0  0  0  0
  -21.0626  -27.9935   25.3633 C   0  0  0  0  0  0  0  0  0  0  0  0
  -20.5480  -30.3965   24.9346 C   0  0  0  0  0  0  0  0  0  0  0  0
  -20.4201  -27.4093   18.7757 C   0  0  0  0  0  0  0  0  0  0  0  0
  -29.2193  -26.3213   19.0747 C   0  0  0  0  0  0  0  0  0  1  0  0
  -29.4180  -22.3493   15.9222 C   0  0  0  0  0  0  0  0  0  0  0  0
  -29.2128  -21.1334   15.0316 C   0  0  0  0  0  0  0  0  0  0  0  0
  -21.8861  -29.0925   23.2313 C   0  0  1  0  0  0  0  0  0  0  0  0
  -19.3127  -27.4093   21.0145 C   0  0  2  0  0  0  0  0  0  0  0  0
  -21.6162  -29.2969   24.7488 C   0  0  0  0  0  0  0  0  0  0  0  0
  -25.5758  -16.1046   19.1806 N   0  0  0  0  0  0  0  0  0  0  0  0
  -29.5927  -24.1049   18.1570 N   0  0  0  0  0  0  0  0  0  0  0  0
  -26.2881  -17.2431   19.1305 N   0  0  0  0  0  0  0  0  0  0  0  0
  -23.7175  -30.1943   21.9841 N   0  0  0  0  0  0  0  0  0  0  0  0
  -26.0878  -19.3197   15.9279 N   0  0  0  0  0  0  0  0  0  0  0  0
  -28.1807  -18.3292   20.0518 N   0  0  0  0  0  0  0  0  0  0  0  0
  -28.1276  -14.3454   22.1785 N   0  0  0  0  0  0  0  0  0  0  0  0
  -29.9111  -21.9582   17.2022 N   0  0  0  0  0  0  0  0  0  0  0  0
  -25.4902  -33.2071   22.6990 N   0  0  0  0  0  0  0  0  0  0  0  0
  -20.7041  -28.7269   22.4582 N   0  0  0  0  0  0  0  0  0  0  0  0
  -28.2548  -20.2042   15.5881 N   0  0  0  0  0  0  0  0  0  0  0  0
  -19.4959  -26.7149   19.7087 N   0  3  0  0  0  0  0  0  0  0  0  0
  -29.2352  -16.3454   21.9983 O   0  0  0  0  0  0  0  0  0  0  0  0
  -25.8431  -30.9975   23.3436 O   0  0  0  0  0  0  0  0  0  0  0  0
  -21.7968  -31.3725   22.5833 O   0  0  0  0  0  0  0  0  0  0  0  0
  -21.5465  -26.7293   21.6352 O   0  0  0  0  0  0  0  0  0  0  0  0
  -26.4398  -21.1658   14.5693 O   0  0  0  0  0  0  0  0  0  0  0  0
  -24.4137  -10.2614   21.4289 O   0  0  0  0  0  0  0  0  0  0  0  0
  -28.1509  -26.3818   20.0188 O   0  0  0  0  0  0  0  0  0  1  0  0
  -19.0062   -9.5893   22.2725 F   0  0  0  0  0  0  0  0  0  0  0  0
  -22.5869  -10.8124   19.4285 F   0  0  0  0  0  0  0  0  0  0  0  0
  1  2  1  0  0  0  0
  1  5  2  0  0  0  0
  2  6  2  0  0  0  0
  3  8  2  0  0  0  0
  3 16  1  0  0  0  0
  4  9  1  0  0  0  0
  4 16  2  0  0  0  0
  5 18  1  0  0  0  0
  6 20  1  0  0  0  0
  7 10  2  0  0  0  0
  7 19  1  0  0  0  0
  8 24  1  0  0  0  0
  9 24  2  0  0  0  0
 10 25  1  0  0  0  0
 11 12  2  0  0  0  0
 11 26  1  0  0  0  0
 12 27  1  0  0  0  0
 13 21  1  0  0  0  0
 13 25  2  0  0  0  0
 14 22  2  0  0  0  0
 14 30  1  0  0  0  0
 15 27  2  0  0  0  0
 15 28  1  0  0  0  0
 16 29  1  0  0  0  0
 17 29  1  0  0  0  0
 17 32  2  0  0  0  0
 17 33  1  0  0  0  0
 18 20  2  0  0  0  0
 18 38  1  0  0  0  0
 19 21  2  0  0  0  0
 19 39  1  0  0  0  0
 20 47  1  0  0  0  0
 21 40  1  0  0  0  0
 22 23  1  0  0  0  0
 22 50  1  0  0  0  0
 23 31  2  0  0  0  0
 23 51  1  0  0  0  0
 24 80  1  0  0  0  0
 25 81  1  0  0  0  0
 26 28  2  0  0  0  0
 26 80  1  0  0  0  0
 27 82  1  0  0  0  0
 28 83  1  0  0  0  0
 29 63  2  0  0  0  0
 30 57  1  0  0  0  0
 30 64  2  0  0  0  0
 31 64  1  0  0  0  0
 31 70  1  0  0  0  0
 32 65  1  0  0  0  0
 32 68  1  0  0  0  0
 33 69  1  0  0  0  0
 33 75  2  0  0  0  0
 34 48  1  0  0  0  0
 34 71  1  0  0  0  0
 34 76  2  0  0  0  0
 35 60  1  0  0  0  0
 35 66  1  0  0  0  0
 35 77  2  0  0  0  0
 36 61  1  0  0  0  0
 36 72  1  0  0  0  0
 36 78  2  0  0  0  0
 37 67  1  0  0  0  0
 37 73  1  0  0  0  0
 37 79  2  0  0  0  0
 38 41  1  0  0  0  0
 39 48  1  0  0  0  0
 40 66  1  0  0  0  0
 41 43  1  0  0  0  0
 42 44  1  0  0  0  0
 42 45  1  0  0  0  0
 43 47  1  0  0  0  0
 44 49  1  0  0  0  0
 45 67  1  0  0  0  0
 46 49  1  0  0  0  0
 46 67  1  0  0  0  0
 47 71  1  0  0  0  0
 48 66  1  0  0  0  0
 49 65  1  0  0  0  0
 52 61  1  0  0  0  0
 53 62  1  0  0  0  0
 54 62  1  0  0  0  0
 55 62  1  0  0  0  0
 56 74  1  0  0  0  0
 57 81  1  0  0  0  0
 58 59  1  0  0  0  0
 58 70  1  0  0  0  0
 59 73  1  0  0  0  0
 60 62  1  0  0  0  0
 60 72  1  0  0  0  0
 61 74  1  0  0  0  0
 63 65  1  0  0  0  0
M  CHG  1  74   1
M  ISO  4  37 100  57 101  73 100  81 101
M  END
> <Batch ID>
0136

> <Smiles>
CNC(C)C(=O)NC(C(=O)N1Cc2cc([101O:1][101CH2:1]c3cc(C)c(C)c(NCC[100NH:0][100C:0](=O)N4CCCC(n5nc(-c6ccc(Oc7ccc(F)cc7F)cc6)c(C(N)=O)c5N)C4)n3)ccc2CC1C(=O)NC1CCCc2ccccc21)C(C)(C)C

> <Shape>
0.292

> <Color>
0.078

> <Negative vol penalty>
0.000

$$$$

  -OEChem-04052321023D

 83 92  0     1  0  0  0  0  0999 V2000
  -17.3200  -28.4657   24.7448 C   0  0  0  0  0  0  0  0  0  0  0  0
  -18.3089  -27.4888   24.6880 C   0  0  0  0  0  0  0  0  0  0  0  0
  -23.2218   -9.7222   20.1558 C   0  0  0  0  0  0  0  0  0  0  0  0
  -23.8077  -10.1039   22.4683 C   0  0  0  0  0  0  0  0  0  0  0  0
  -17.3024  -29.4937   23.8030 C   0  0  0  0  0  0  0  0  0  0  0  0
  -19.2801  -27.5387   23.6887 C   0  0  0  0  0  0  0  0  0  0  0  0
  -25.1492  -25.8575   24.1719 C   0  0  0  0  0  0  0  0  0  0  0  0
  -22.5314   -8.5666   20.5214 C   0  0  0  0  0  0  0  0  0  0  0  0
  -23.1173   -8.9483   22.8340 C   0  0  0  0  0  0  0  0  0  0  0  0
  -25.8239  -24.6921   23.8107 C   0  0  0  0  0  0  0  0  0  0  0  0
  -19.9067   -8.0204   23.3351 C   0  0  0  0  0  0  0  0  0  0  0  0
  -19.0687   -8.0927   24.4478 C   0  0  0  0  0  0  0  0  0  0  0  0
  -30.7479  -18.0895   20.1918 C   0  0  0  0  0  0  0  0  0  0  0  0
  -26.4795  -25.7234   21.7308 C   0  0  0  0  0  0  0  0  0  0  0  0
  -20.3653   -6.3689   25.5362 C   0  0  0  0  0  0  0  0  0  0  0  0
  -30.8087  -19.4643   20.0309 C   0  0  0  0  0  0  0  0  0  0  0  0
  -23.8600  -10.4908   21.1292 C   0  0  0  0  0  0  0  0  0  0  0  0
  -24.0587  -12.9917   20.6670 C   0  0  0  0  0  0  0  0  0  0  0  0
  -18.2796  -29.5616   22.7975 C   0  0  0  0  0  0  0  0  0  0  0  0
  -25.1254  -26.9626   23.3090 C   0  0  0  0  0  0  0  0  0  0  0  0
  -19.2748  -28.5678   22.7318 C   0  0  0  0  0  0  0  0  0  0  0  0
  -25.8060  -26.9025   22.0845 C   0  0  0  0  0  0  0  0  0  0  0  0
  -28.9919  -18.4488   21.7955 C   0  0  0  0  0  0  0  0  0  0  0  0
  -29.8195  -17.5801   21.0928 C   0  0  0  0  0  0  0  0  0  0  0  0
  -22.4792   -8.1797   21.8605 C   0  0  0  0  0  0  0  0  0  0  0  0
  -26.4867  -24.6239   22.5888 C   0  0  0  0  0  0  0  0  0  0  0  0
  -20.9739   -7.1223   23.3228 C   0  0  0  0  0  0  0  0  0  0  0  0
  -19.2980   -7.2670   25.5484 C   0  0  0  0  0  0  0  0  0  0  0  0
  -21.2032   -6.2966   24.4234 C   0  0  0  0  0  0  0  0  0  0  0  0
  -24.5737  -11.6843   20.7521 C   0  0  0  0  0  0  0  0  0  0  0  0
  -29.1314  -19.8076   21.5629 C   0  0  0  0  0  0  0  0  0  0  0  0
  -25.1282  -13.7569   20.2705 C   0  0  0  0  0  0  0  0  0  0  0  0
  -22.7322  -13.4716   20.9234 C   0  0  0  0  0  0  0  0  0  0  0  0
  -22.8458  -28.5683   21.7828 C   0  0  0  0  0  0  0  0  0  0  0  0
  -25.3024  -30.5319   20.9881 C   0  0  0  0  0  0  0  0  0  0  0  0
  -28.6602  -30.9303   20.5263 C   0  0  0  0  0  0  0  0  0  0  0  0
  -30.4943  -15.1944   20.6461 C   0  0  0  0  0  0  0  0  0  0  0  0
  -18.1918  -30.6653   21.7733 C   0  0  0  0  0  0  0  0  0  0  0  0
  -24.4156  -28.2218   23.7249 C   0  0  0  0  0  0  0  0  0  0  0  0
  -25.8278  -28.0684   21.1313 C   0  0  0  0  0  0  0  0  0  0  0  0
  -19.4769  -30.8562   20.9719 C   0  0  0  0  0  0  0  0  0  0  0  0
  -29.7044  -12.4004   18.5854 C   0  0  0  0  0  0  0  0  0  0  0  0
  -20.0121  -29.5105   20.4927 C   0  0  0  0  0  0  0  0  0  0  0  0
  -28.2568  -12.0725   18.9584 C   0  0  0  0  0  0  0  0  0  0  0  0
  -27.3455  -21.8856   24.0311 C   0  0  0  0  0  0  0  0  0  0  0  0
  -30.5126  -12.8587   19.7980 C   0  0  0  0  0  0  0  0  0  0  0  0
  -28.6536  -21.2558   23.5527 C   0  0  0  0  0  0  0  0  0  0  0  0
  -28.4687  -13.6355   20.9331 C   0  0  0  0  0  0  0  0  0  0  0  0
  -27.0072  -21.1279   21.7796 C   0  0  0  0  0  0  0  0  0  0  0  0
  -20.3601  -28.6016   21.6778 C   0  0  1  0  0  0  0  0  0  0  0  0
  -24.0247  -29.1052   22.5442 C   0  0  1  0  0  0  0  0  0  0  0  0
  -27.5980  -13.2313   19.7322 C   0  0  2  0  0  0  0  0  0  0  0  0
  -26.6352  -22.2584   22.7380 C   0  0  2  0  0  0  0  0  0  1  0  0
  -27.9859  -17.9247   22.7677 C   0  0  0  0  0  0  0  0  0  0  0  0
  -30.3652  -32.6387   19.8394 C   0  0  0  0  0  0  0  0  0  0  0  0
  -24.4723  -30.1845   18.0726 C   0  0  0  0  0  0  0  0  0  0  0  0
  -26.7062  -31.0937   17.4008 C   0  0  0  0  0  0  0  0  0  0  0  0
  -25.1225  -32.5161   18.7014 C   0  0  0  0  0  0  0  0  0  0  0  0
  -30.0348  -30.7805   23.1430 C   0  0  0  0  0  0  0  0  0  0  0  0
  -26.2960  -30.5957   19.8533 C   0  0  1  0  0  0  0  0  0  0  0  0
  -29.6224  -32.0028   21.0042 C   0  0  2  0  0  0  0  0  0  0  0  0
  -25.6474  -31.0747   18.5239 C   0  0  0  0  0  0  0  0  0  0  0  0
  -30.0216  -20.3396   20.6956 N   0  0  0  0  0  0  0  0  0  0  0  0
  -25.8696  -11.6189   20.4351 N   0  0  0  0  0  0  0  0  0  0  0  0
  -26.1778  -12.8948   20.1468 N   0  0  0  0  0  0  0  0  0  0  0  0
  -28.3144  -20.6752   22.2570 N   0  0  3  0  0  0  0  0  0  0  0  0
  -25.1139  -29.2752   21.5804 N   0  0  0  0  0  0  0  0  0  0  0  0
  -29.8297  -13.9611   20.4786 N   0  0  0  0  0  0  0  0  0  0  0  0
  -25.2637  -15.0763   20.0192 N   0  0  0  0  0  0  0  0  0  0  0  0
  -21.7540  -12.5506   21.3225 N   0  0  0  0  0  0  0  0  0  0  0  0
  -29.7341  -16.1779   21.2781 N   0  0  0  0  0  0  0  0  0  0  0  0
  -21.6232  -28.9965   22.2637 N   0  0  0  0  0  0  0  0  0  0  0  0
  -27.3942  -31.4357   20.3190 N   0  0  0  0  0  0  0  0  0  0  0  0
  -30.6257  -31.4194   21.9390 N   0  3  0  0  0  0  0  0  0  0  0  0
  -22.4194  -14.6786   20.7863 O   0  0  0  0  0  0  0  0  0  0  0  0
  -23.0318  -27.8220   20.8288 O   0  0  0  0  0  0  0  0  0  0  0  0
  -24.7204  -31.5608   21.3408 O   0  0  0  0  0  0  0  0  0  0  0  0
  -28.9988  -29.7620   20.3507 O   0  0  0  0  0  0  0  0  0  0  0  0
  -31.6429  -15.3739   20.2333 O   0  0  0  0  0  0  0  0  0  0  0  0
  -21.8054   -7.0523   22.2177 O   0  0  0  0  0  0  0  0  0  0  0  0
  -27.1455  -23.4873   22.2336 O   0  0  0  0  0  0  0  0  0  1  0  0
  -18.4942   -7.3376   26.6175 F   0  0  0  0  0  0  0  0  0  0  0  0
  -22.2277   -5.4327   24.4180 F   0  0  0  0  0  0  0  0  0  0  0  0
  1  2  1  0  0  0  0
  1  5  2  0  0  0  0
  2  6  2  0  0  0  0
  3  8  2  0  0  0  0
  3 17  1  0  0  0  0
  4  9  1  0  0  0  0
  4 17  2  0  0  0  0
  5 19  1  0  0  0  0
  6 21  1  0  0  0  0
  7 10  2  0  0  0  0
  7 20  1  0  0  0  0
  8 25  1  0  0  0  0
  9 25  2  0  0  0  0
 10 26  1  0  0  0  0
 11 12  2  0  0  0  0
 11 27  1  0  0  0  0
 12 28  1  0  0  0  0
 13 16  1  0  0  0  0
 13 24  2  0  0  0  0
 14 22  1  0  0  0  0
 14 26  2  0  0  0  0
 15 28  2  0  0  0  0
 15 29  1  0  0  0  0
 16 63  2  0  0  0  0
 17 30  1  0  0  0  0
 18 30  1  0  0  0  0
 18 32  2  0  0  0  0
 18 33  1  0  0  0  0
 19 21  2  0  0  0  0
 19 38  1  0  0  0  0
 20 22  2  0  0  0  0
 20 39  1  0  0  0  0
 21 50  1  0  0  0  0
 22 40  1  0  0  0  0
 23 24  1  0  0  0  0
 23 31  2  0  0  0  0
 23 54  1  0  0  0  0
 24 71  1  0  0  0  0
 25 80  1  0  0  0  0
 26 81  1  0  0  0  0
 27 29  2  0  0  0  0
 27 80  1  0  0  0  0
 28 82  1  0  0  0  0
 29 83  1  0  0  0  0
 30 64  2  0  0  0  0
 31 63  1  0  0  0  0
 31 66  1  0  0  0  0
 32 65  1  0  0  0  0
 32 69  1  0  0  0  0
 33 70  1  0  0  0  0
 33 75  2  0  0  0  0
 34 51  1  0  0  0  0
 34 72  1  0  0  0  0
 34 76  2  0  0  0  0
 35 60  1  0  0  0  0
 35 67  1  0  0  0  0
 35 77  2  0  0  0  0
 36 61  1  0  0  0  0
 36 73  1  0  0  0  0
 36 78  2  0  0  0  0
 37 68  1  0  0  0  0
 37 71  1  0  0  0  0
 37 79  2  0  0  0  0
 38 41  1  0  0  0  0
 39 51  1  0  0  0  0
 40 67  1  0  0  0  0
 41 43  1  0  0  0  0
 42 44  1  0  0  0  0
 42 46  1  0  0  0  0
 43 50  1  0  0  0  0
 44 52  1  0  0  0  0
 45 47  1  0  0  0  0
 45 53  1  0  0  0  0
 46 68  1  0  0  0  0
 47 66  1  0  0  0  0
 48 52  1  0  0  0  0
 48 68  1  0  0  0  0
 49 53  1  0  0  0  0
 49 66  1  0  0  0  0
 50 72  1  0  0  0  0
 51 67  1  0  0  0  0
 52 65  1  0  0  0  0
 53 81  1  0  0  0  0
 55 61  1  0  0  0  0
 56 62  1  0  0  0  0
 57 62  1  0  0  0  0
 58 62  1  0  0  0  0
 59 74  1  0  0  0  0
 60 62  1  0  0  0  0
 60 73  1  0  0  0  0
 61 74  1  0  0  0  0
 64 65  1  0  0  0  0
M  CHG  1  74   1
M  ISO  4  37 100  53 101  71 100  81 101
M  END
> <Batch ID>
0136

> <Smiles>
CNC(C)C(=O)NC(C(=O)N1Cc2cc([101O:1][101CH:1]3CCN(c4nccc([100NH:0][100C:0](=O)N5CCCC(n6nc(-c7ccc(Oc8ccc(F)cc8F)cc7)c(C(N)=O)c6N)C5)c4C)C3)ccc2CC1C(=O)NC1CCCc2ccccc21)C(C)(C)C

> <Shape>
0.284

> <Color>
0.207

> <Negative vol penalty>
0.000

$$$$

  -OEChem-04052321023D

 89 98  0     1  0  0  0  0  0999 V2000
  -28.7289  -36.6164   20.2901 C   0  0  0  0  0  0  0  0  0  0  0  0
  -29.0386  -35.4878   19.5378 C   0  0  0  0  0  0  0  0  0  0  0  0
  -23.0311  -10.1724   21.9914 C   0  0  0  0  0  0  0  0  0  0  0  0
  -24.2924   -9.2267   20.1606 C   0  0  0  0  0  0  0  0  0  0  0  0
  -28.1659  -36.4748   21.5577 C   0  0  0  0  0  0  0  0  0  0  0  0
  -28.7864  -34.2169   20.0533 C   0  0  0  0  0  0  0  0  0  0  0  0
  -27.7338  -20.0464   19.0940 C   0  0  0  0  0  0  0  0  0  0  0  0
  -30.0931  -20.5439   18.9429 C   0  0  0  0  0  0  0  0  0  0  0  0
  -26.9017  -27.6242   17.9796 C   0  0  0  0  0  0  0  0  0  0  0  0
  -27.4345  -21.3785   18.8090 C   0  0  0  0  0  0  0  0  0  0  0  0
  -29.7939  -21.8762   18.6577 C   0  0  0  0  0  0  0  0  0  0  0  0
  -22.2666   -9.0082   22.0661 C   0  0  0  0  0  0  0  0  0  0  0  0
  -23.5279   -8.0624   20.2354 C   0  0  0  0  0  0  0  0  0  0  0  0
  -27.3140  -26.2979   18.1008 C   0  0  0  0  0  0  0  0  0  0  0  0
  -22.6005   -5.8851   23.3182 C   0  0  0  0  0  0  0  0  0  0  0  0
  -22.3618   -5.3464   24.5825 C   0  0  0  0  0  0  0  0  0  0  0  0
  -26.2654  -26.1764   20.2699 C   0  0  0  0  0  0  0  0  0  0  0  0
  -19.9836   -5.6032   24.2429 C   0  0  0  0  0  0  0  0  0  0  0  0
  -24.0440  -10.2817   21.0385 C   0  0  0  0  0  0  0  0  0  0  0  0
  -26.0331  -11.7597   21.6442 C   0  0  0  0  0  0  0  0  0  0  0  0
  -29.0631  -19.6290   19.1611 C   0  0  0  0  0  0  0  0  0  0  0  0
  -27.8978  -35.2018   22.0850 C   0  0  0  0  0  0  0  0  0  0  0  0
  -26.1763  -28.2410   19.0091 C   0  0  0  0  0  0  0  0  0  0  0  0
  -28.2206  -34.0582   21.3297 C   0  0  0  0  0  0  0  0  0  0  0  0
  -25.8429  -27.5099   20.1582 C   0  0  0  0  0  0  0  0  0  0  0  0
  -28.4645  -22.2934   18.5908 C   0  0  0  0  0  0  0  0  0  0  0  0
  -22.5150   -7.9532   21.1882 C   0  0  0  0  0  0  0  0  0  0  0  0
  -26.9984  -25.5747   19.2473 C   0  0  0  0  0  0  0  0  0  0  0  0
  -21.5308   -6.2829   22.5163 C   0  0  0  0  0  0  0  0  0  0  0  0
  -21.0534   -5.2055   25.0449 C   0  0  0  0  0  0  0  0  0  0  0  0
  -20.2223   -6.1420   22.9786 C   0  0  0  0  0  0  0  0  0  0  0  0
  -24.8337  -11.4844   20.9604 C   0  0  0  0  0  0  0  0  0  0  0  0
  -26.3817  -13.0224   21.2310 C   0  0  0  0  0  0  0  0  0  0  0  0
  -26.7665  -10.9468   22.5699 C   0  0  0  0  0  0  0  0  0  0  0  0
  -26.6751  -30.7262   20.9271 C   0  0  0  0  0  0  0  0  0  0  0  0
  -23.6268  -30.1230   21.8579 C   0  0  0  0  0  0  0  0  0  0  0  0
  -21.0771  -27.8731   22.1464 C   0  0  0  0  0  0  0  0  0  0  0  0
  -27.0155  -16.8193   17.1903 C   0  0  0  0  0  0  0  0  0  0  0  0
  -27.3321  -35.0979   23.4793 C   0  0  0  0  0  0  0  0  0  0  0  0
  -25.7159  -29.6642   18.8515 C   0  0  0  0  0  0  0  0  0  0  0  0
  -25.0487  -28.1196   21.2833 C   0  0  0  0  0  0  0  0  0  0  0  0
  -26.7501  -33.7236   23.7997 C   0  0  0  0  0  0  0  0  0  0  0  0
  -23.7677  -16.4667   18.6061 C   0  0  0  0  0  0  0  0  0  0  0  0
  -27.7092  -32.6220   23.3599 C   0  0  0  0  0  0  0  0  0  0  0  0
  -23.8528  -15.1592   19.3956 C   0  0  0  0  0  0  0  0  0  0  0  0
  -30.7612  -16.2703   19.1730 C   0  0  0  0  0  0  0  0  0  0  0  0
  -24.5773  -16.3989   17.3130 C   0  0  0  0  0  0  0  0  0  0  0  0
  -26.0714  -14.6908   18.2743 C   0  0  0  0  0  0  0  0  0  0  0  0
  -31.1487  -16.8313   20.5272 C   0  0  0  0  0  0  0  0  0  0  0  0
  -27.9390  -32.6632   21.8443 C   0  0  1  0  0  0  0  0  0  0  0  0
  -29.3863  -18.1940   19.4681 C   0  0  1  0  0  0  0  0  0  0  0  0
  -25.4252  -30.3491   20.1833 C   0  0  1  0  0  0  0  0  0  0  0  0
  -30.2509  -17.4873   18.4123 C   0  0  2  0  0  0  0  0  0  0  0  0
  -25.3162  -14.7303   19.6139 C   0  0  2  0  0  0  0  0  0  0  0  0
  -18.7199  -27.6634   22.9815 C   0  0  0  0  0  0  0  0  0  0  0  0
  -30.3504  -16.3026   16.1961 C   0  0  0  0  0  0  0  0  0  0  0  0
  -30.9800  -18.9982   23.5028 C   0  0  0  0  0  0  0  0  0  0  0  0
  -29.2904  -17.4268   24.4950 C   0  0  0  0  0  0  0  0  0  0  0  0
  -24.6550  -30.0280   24.7291 C   0  0  0  0  0  0  0  0  0  0  0  0
  -22.5165  -28.9028   25.3839 C   0  0  0  0  0  0  0  0  0  0  0  0
  -22.4710  -31.2121   24.4418 C   0  0  0  0  0  0  0  0  0  0  0  0
  -20.0600  -27.1923   19.4518 C   0  0  0  0  0  0  0  0  0  0  0  0
  -28.1418  -23.7260   18.2825 C   0  0  0  0  0  0  0  0  0  1  0  0
  -29.3244  -17.8079   21.9779 C   0  0  0  0  0  0  0  0  0  0  0  0
  -22.9831  -29.2613   22.9172 C   0  0  1  0  0  0  0  0  0  0  0  0
  -19.6061  -27.9656   21.7831 C   0  0  2  0  0  0  0  0  0  0  0  0
  -29.4805  -17.1050   17.1560 C   0  0  1  0  0  0  0  0  0  0  0  0
  -30.1495  -17.7355   23.2677 C   0  0  0  0  0  0  0  0  0  0  0  0
  -23.1731  -29.8399   24.3478 C   0  0  0  0  0  0  0  0  0  0  0  0
  -24.4464  -12.4912   20.1728 N   0  0  0  0  0  0  0  0  0  0  0  0
  -25.4078  -13.4115   20.3592 N   0  0  0  0  0  0  0  0  0  0  0  0
  -24.6268  -29.5161   21.0849 N   0  0  0  0  0  0  0  0  0  0  0  0
  -25.9559  -15.9881   17.5898 N   0  0  0  0  0  0  0  0  0  0  0  0
  -27.4233  -13.8266   21.5322 N   0  0  0  0  0  0  0  0  0  0  0  0
  -26.2672   -9.6754   22.8838 N   0  0  0  0  0  0  0  0  0  0  0  0
  -26.8115  -32.0837   21.1462 N   0  0  0  0  0  0  0  0  0  0  0  0
  -21.5892  -29.0979   22.5189 N   0  0  0  0  0  0  0  0  0  0  0  0
  -28.2900  -16.3584   17.4968 N   0  0  0  0  0  0  0  0  0  0  0  0
  -30.1861  -17.9814   20.7640 N   0  3  1  0  0  0  0  0  0  0  0  0
  -19.2781  -26.9962   20.6997 N   0  3  0  0  0  0  0  0  0  0  0  0
  -27.8242  -11.3429   23.1156 O   0  0  0  0  0  0  0  0  0  0  0  0
  -27.4571  -29.8502   21.2776 O   0  0  0  0  0  0  0  0  0  0  0  0
  -23.2512  -31.2894   21.7166 O   0  0  0  0  0  0  0  0  0  0  0  0
  -21.7078  -26.8189   22.1075 O   0  0  0  0  0  0  0  0  0  0  0  0
  -26.8385  -17.8951   16.6087 O   0  0  0  0  0  0  0  0  0  0  0  0
  -21.7694   -6.8168   21.2610 O   0  0  0  0  0  0  0  0  0  0  0  0
  -27.4002  -24.2802   19.3684 O   0  0  0  0  0  0  0  0  0  1  0  0
  -20.8242   -4.6867   26.2584 F   0  0  0  0  0  0  0  0  0  0  0  0
  -19.1905   -6.5212   22.2122 F   0  0  0  0  0  0  0  0  0  0  0  0
  1  2  1  0  0  0  0
  1  5  2  0  0  0  0
  2  6  2  0  0  0  0
  3 12  2  0  0  0  0
  3 19  1  0  0  0  0
  4 13  1  0  0  0  0
  4 19  2  0  0  0  0
  5 22  1  0  0  0  0
  6 24  1  0  0  0  0
  7 10  2  0  0  0  0
  7 21  1  0  0  0  0
  8 11  1  0  0  0  0
  8 21  2  0  0  0  0
  9 14  2  0  0  0  0
  9 23  1  0  0  0  0
 10 26  1  0  0  0  0
 11 26  2  0  0  0  0
 12 27  1  0  0  0  0
 13 27  2  0  0  0  0
 14 28  1  0  0  0  0
 15 16  2  0  0  0  0
 15 29  1  0  0  0  0
 16 30  1  0  0  0  0
 17 25  1  0  0  0  0
 17 28  2  0  0  0  0
 18 30  2  0  0  0  0
 18 31  1  0  0  0  0
 19 32  1  0  0  0  0
 20 32  1  0  0  0  0
 20 33  2  0  0  0  0
 20 34  1  0  0  0  0
 21 51  1  0  0  0  0
 22 24  2  0  0  0  0
 22 39  1  0  0  0  0
 23 25  2  0  0  0  0
 23 40  1  0  0  0  0
 24 50  1  0  0  0  0
 25 41  1  0  0  0  0
 26 63  1  0  0  0  0
 27 86  1  0  0  0  0
 28 87  1  0  0  0  0
 29 31  2  0  0  0  0
 29 86  1  0  0  0  0
 30 88  1  0  0  0  0
 31 89  1  0  0  0  0
 32 70  2  0  0  0  0
 33 71  1  0  0  0  0
 33 74  1  0  0  0  0
 34 75  1  0  0  0  0
 34 81  2  0  0  0  0
 35 52  1  0  0  0  0
 35 76  1  0  0  0  0
 35 82  2  0  0  0  0
 36 65  1  0  0  0  0
 36 72  1  0  0  0  0
 36 83  2  0  0  0  0
 37 66  1  0  0  0  0
 37 77  1  0  0  0  0
 37 84  2  0  0  0  0
 38 73  1  0  0  0  0
 38 78  1  0  0  0  0
 38 85  2  0  0  0  0
 39 42  1  0  0  0  0
 40 52  1  0  0  0  0
 41 72  1  0  0  0  0
 42 44  1  0  0  0  0
 43 45  1  0  0  0  0
 43 47  1  0  0  0  0
 44 50  1  0  0  0  0
 45 54  1  0  0  0  0
 46 49  1  0  0  0  0
 46 53  1  0  0  0  0
 47 73  1  0  0  0  0
 48 54  1  0  0  0  0
 48 73  1  0  0  0  0
 49 79  1  0  0  0  0
 50 76  1  0  0  0  0
 51 53  1  0  0  0  0
 51 79  1  0  0  0  0
 52 72  1  0  0  0  0
 53 67  1  0  0  0  0
 54 71  1  0  0  0  0
 55 66  1  0  0  0  0
 56 67  1  0  0  0  0
 57 68  1  0  0  0  0
 58 68  1  0  0  0  0
 59 69  1  0  0  0  0
 60 69  1  0  0  0  0
 61 69  1  0  0  0  0
 62 80  1  0  0  0  0
 63 87  1  0  0  0  0
 64 68  1  0  0  0  0
 64 79  1  0  0  0  0
 65 69  1  0  0  0  0
 65 77  1  0  0  0  0
 66 80  1  0  0  0  0
 67 78  1  0  0  0  0
 70 71  1  0  0  0  0
M  CHG  2  79   1  80   1
M  ISO  4  38 100  63 101  78 100  87 101
M  END
> <Batch ID>
0136

> <Smiles>
CNC(C)C(=O)NC(C(=O)N1Cc2cc([101O:1][101CH2:1]c3ccc(C4C(C(C)[100NH:0][100C:0](=O)N5CCCC(n6nc(-c7ccc(Oc8ccc(F)cc8F)cc7)c(C(N)=O)c6N)C5)CCN4CC(C)C)cc3)ccc2CC1C(=O)NC1CCCc2ccccc21)C(C)(C)C

> <Shape>
0.295

> <Color>
0.094

> <Negative vol penalty>
0.000

$$$$

  -OEChem-04052321023D

 83 91  0     1  0  0  0  0  0999 V2000
  -20.9744  -29.2335   25.5874 C   0  0  0  0  0  0  0  0  0  0  0  0
  -22.1395  -28.7155   25.0310 C   0  0  0  0  0  0  0  0  0  0  0  0
  -24.2449  -12.0335   20.2890 C   0  0  0  0  0  0  0  0  0  0  0  0
  -24.4445  -12.7992   22.5717 C   0  0  0  0  0  0  0  0  0  0  0  0
  -19.7394  -28.9485   25.0066 C   0  0  0  0  0  0  0  0  0  0  0  0
  -22.0701  -27.9113   23.8940 C   0  0  0  0  0  0  0  0  0  0  0  0
  -25.5580  -29.1357   20.4326 C   0  0  0  0  0  0  0  0  0  0  0  0
  -24.9912  -23.7074   22.9310 C   0  0  0  0  0  0  0  0  0  0  0  0
  -24.2139  -10.7122   20.7349 C   0  0  0  0  0  0  0  0  0  0  0  0
  -24.4134  -11.4779   23.0177 C   0  0  0  0  0  0  0  0  0  0  0  0
  -26.8608  -28.6931   20.6574 C   0  0  0  0  0  0  0  0  0  0  0  0
  -26.1011  -24.5181   23.1686 C   0  0  0  0  0  0  0  0  0  0  0  0
  -23.7191   -7.1551   21.2979 C   0  0  0  0  0  0  0  0  0  0  0  0
  -22.7636   -6.3050   20.7413 C   0  0  0  0  0  0  0  0  0  0  0  0
  -26.5027  -26.8741   19.1139 C   0  0  0  0  0  0  0  0  0  0  0  0
  -27.4972  -22.9612   21.9587 C   0  0  0  0  0  0  0  0  0  0  0  0
  -21.0053   -7.7485   21.5550 C   0  0  0  0  0  0  0  0  0  0  0  0
  -24.3602  -13.0770   21.2074 C   0  0  0  0  0  0  0  0  0  0  0  0
  -23.2941  -15.3010   20.5556 C   0  0  0  0  0  0  0  0  0  0  0  0
  -19.6556  -28.1483   23.8562 C   0  0  0  0  0  0  0  0  0  0  0  0
  -24.7127  -28.4433   19.5537 C   0  0  0  0  0  0  0  0  0  0  0  0
  -20.8327  -27.6143   23.2980 C   0  0  0  0  0  0  0  0  0  0  0  0
  -25.1904  -27.3114   18.8778 C   0  0  0  0  0  0  0  0  0  0  0  0
  -25.1342  -22.5235   22.2074 C   0  0  0  0  0  0  0  0  0  0  0  0
  -26.3872  -22.1504   21.7212 C   0  0  0  0  0  0  0  0  0  0  0  0
  -24.2981  -10.4344   22.0992 C   0  0  0  0  0  0  0  0  0  0  0  0
  -27.3324  -27.5605   20.0002 C   0  0  0  0  0  0  0  0  0  0  0  0
  -27.3541  -24.1450   22.6824 C   0  0  0  0  0  0  0  0  0  0  0  0
  -23.3178   -8.3019   21.9832 C   0  0  0  0  0  0  0  0  0  0  0  0
  -21.4067   -6.6017   20.8697 C   0  0  0  0  0  0  0  0  0  0  0  0
  -21.9609   -8.5986   22.1117 C   0  0  0  0  0  0  0  0  0  0  0  0
  -24.3928  -14.4421   20.7474 C   0  0  0  0  0  0  0  0  0  0  0  0
  -23.8503  -16.4765   20.1135 C   0  0  0  0  0  0  0  0  0  0  0  0
  -21.8958  -15.0580   20.7588 C   0  0  0  0  0  0  0  0  0  0  0  0
  -21.9461  -26.9058   19.8467 C   0  0  0  0  0  0  0  0  0  0  0  0
  -22.1674  -26.6949   16.6173 C   0  0  0  0  0  0  0  0  0  0  0  0
  -24.1556  -26.6929   13.8435 C   0  0  0  0  0  0  0  0  0  0  0  0
  -27.7352  -20.4520   20.4387 C   0  0  0  0  0  0  0  0  0  0  0  0
  -18.2940  -27.8290   23.2916 C   0  0  0  0  0  0  0  0  0  0  0  0
  -23.3188  -28.9491   19.3018 C   0  0  0  0  0  0  0  0  0  0  0  0
  -24.3295  -26.5444   17.9088 C   0  0  0  0  0  0  0  0  0  0  0  0
  -18.3388  -27.2762   21.8694 C   0  0  0  0  0  0  0  0  0  0  0  0
  -28.5629  -17.5231   18.5911 C   0  0  0  0  0  0  0  0  0  0  0  0
  -19.4067  -26.1935   21.7508 C   0  0  0  0  0  0  0  0  0  0  0  0
  -27.4614  -16.5311   18.9716 C   0  0  0  0  0  0  0  0  0  0  0  0
  -28.9694  -18.4003   19.7739 C   0  0  0  0  0  0  0  0  0  0  0  0
  -26.7598  -18.1031   20.8219 C   0  0  0  0  0  0  0  0  0  0  0  0
  -20.8005  -26.7582   22.0505 C   0  0  1  0  0  0  0  0  0  0  0  0
  -22.3771  -27.8695   18.7774 C   0  0  1  0  0  0  0  0  0  0  0  0
  -26.2714  -17.2416   19.6459 C   0  0  2  0  0  0  0  0  0  0  0  0
  -24.0533  -26.4630   11.3467 C   0  0  0  0  0  0  0  0  0  0  0  0
  -21.7822  -23.6826   16.9129 C   0  0  0  0  0  0  0  0  0  0  0  0
  -22.6251  -23.4153   14.5706 C   0  0  0  0  0  0  0  0  0  0  0  0
  -20.5377  -24.7110   15.0029 C   0  0  0  0  0  0  0  0  0  0  0  0
  -25.2682  -29.4043   13.4321 C   0  0  0  0  0  0  0  0  0  0  0  0
  -23.9279  -21.6748   21.9682 C   0  0  0  0  0  0  0  0  0  0  0  0
  -30.1484  -26.2835   21.8690 C   0  0  0  0  0  0  0  0  0  0  0  0
  -29.1675  -27.3863   21.5029 C   0  0  0  0  0  0  0  0  0  1  0  0
  -29.4745  -24.9221   21.9368 C   0  0  0  0  0  0  0  0  0  0  0  0
  -22.7704  -25.7057   15.6494 C   0  0  1  0  0  0  0  0  0  0  0  0
  -24.0403  -27.4292   12.5210 C   0  0  2  0  0  0  0  0  0  0  0  0
  -21.9447  -24.3918   15.5536 C   0  0  0  0  0  0  0  0  0  0  0  0
  -25.5588  -15.0224   20.4513 N   0  0  0  0  0  0  0  0  0  0  0  0
  -25.1959  -16.2586   20.0689 N   0  0  0  0  0  0  0  0  0  0  0  0
  -22.9719  -27.0748   17.7010 N   0  0  0  0  0  0  0  0  0  0  0  0
  -27.7917  -19.0444   20.3593 N   0  0  0  0  0  0  0  0  0  0  0  0
  -23.3146  -17.6649   19.7625 N   0  0  0  0  0  0  0  0  0  0  0  0
  -21.4967  -13.7949   21.2166 N   0  0  0  0  0  0  0  0  0  0  0  0
  -26.5530  -20.9518   20.9839 N   0  0  0  0  0  0  0  0  0  0  0  0
  -21.3000  -27.5011   20.9133 N   0  0  0  0  0  0  0  0  0  0  0  0
  -22.9174  -26.4128   14.3818 N   0  0  0  0  0  0  0  0  0  0  0  0
  -25.1745  -28.3822   12.3582 N   0  3  0  0  0  0  0  0  0  0  0  0
  -21.0246  -15.9298   20.5253 O   0  0  0  0  0  0  0  0  0  0  0  0
  -22.1811  -25.7106   19.7132 O   0  0  0  0  0  0  0  0  0  0  0  0
  -21.0274  -27.1206   16.4154 O   0  0  0  0  0  0  0  0  0  0  0  0
  -25.2359  -26.3927   14.3468 O   0  0  0  0  0  0  0  0  0  0  0  0
  -28.6555  -21.1627   20.0264 O   0  0  0  0  0  0  0  0  0  0  0  0
  -24.1372  -20.3899   22.5388 O   0  0  0  0  0  0  0  0  0  0  0  0
  -24.2677   -9.1452   22.5347 O   0  0  0  0  0  0  0  0  0  0  0  0
  -28.6035  -27.1259   20.2182 O   0  0  0  0  0  0  0  0  0  1  0  0
  -28.4445  -24.9420   22.9159 O   0  0  0  0  0  0  0  0  0  0  0  0
  -20.4892   -5.7861   20.3338 F   0  0  0  0  0  0  0  0  0  0  0  0
  -21.5694   -9.6994   22.7679 F   0  0  0  0  0  0  0  0  0  0  0  0
  1  2  1  0  0  0  0
  1  5  2  0  0  0  0
  2  6  2  0  0  0  0
  3  9  2  0  0  0  0
  3 18  1  0  0  0  0
  4 10  1  0  0  0  0
  4 18  2  0  0  0  0
  5 20  1  0  0  0  0
  6 22  1  0  0  0  0
  7 11  2  0  0  0  0
  7 21  1  0  0  0  0
  8 12  2  0  0  0  0
  8 24  1  0  0  0  0
  9 26  1  0  0  0  0
 10 26  2  0  0  0  0
 11 27  1  0  0  0  0
 12 28  1  0  0  0  0
 13 14  2  0  0  0  0
 13 29  1  0  0  0  0
 14 30  1  0  0  0  0
 15 23  1  0  0  0  0
 15 27  2  0  0  0  0
 16 25  1  0  0  0  0
 16 28  2  0  0  0  0
 17 30  2  0  0  0  0
 17 31  1  0  0  0  0
 18 32  1  0  0  0  0
 19 32  1  0  0  0  0
 19 33  2  0  0  0  0
 19 34  1  0  0  0  0
 20 22  2  0  0  0  0
 20 39  1  0  0  0  0
 21 23  2  0  0  0  0
 21 40  1  0  0  0  0
 22 48  1  0  0  0  0
 23 41  1  0  0  0  0
 24 25  2  0  0  0  0
 24 56  1  0  0  0  0
 25 69  1  0  0  0  0
 26 79  1  0  0  0  0
 27 80  1  0  0  0  0
 28 81  1  0  0  0  0
 29 31  2  0  0  0  0
 29 79  1  0  0  0  0
 30 82  1  0  0  0  0
 31 83  1  0  0  0  0
 32 63  2  0  0  0  0
 33 64  1  0  0  0  0
 33 67  1  0  0  0  0
 34 68  1  0  0  0  0
 34 73  2  0  0  0  0
 35 49  1  0  0  0  0
 35 70  1  0  0  0  0
 35 74  2  0  0  0  0
 36 60  1  0  0  0  0
 36 65  1  0  0  0  0
 36 75  2  0  0  0  0
 37 61  1  0  0  0  0
 37 71  1  0  0  0  0
 37 76  2  0  0  0  0
 38 66  1  0  0  0  0
 38 69  1  0  0  0  0
 38 77  2  0  0  0  0
 39 42  1  0  0  0  0
 40 49  1  0  0  0  0
 41 65  1  0  0  0  0
 42 44  1  0  0  0  0
 43 45  1  0  0  0  0
 43 46  1  0  0  0  0
 44 48  1  0  0  0  0
 45 50  1  0  0  0  0
 46 66  1  0  0  0  0
 47 50  1  0  0  0  0
 47 66  1  0  0  0  0
 48 70  1  0  0  0  0
 49 65  1  0  0  0  0
 50 64  1  0  0  0  0
 51 61  1  0  0  0  0
 52 62  1  0  0  0  0
 53 62  1  0  0  0  0
 54 62  1  0  0  0  0
 55 72  1  0  0  0  0
 56 78  1  0  0  0  0
 57 58  1  0  0  0  0
 57 59  1  0  0  0  0
 58 80  1  0  0  0  0
 59 81  1  0  0  0  0
 60 62  1  0  0  0  0
 60 71  1  0  0  0  0
 61 72  1  0  0  0  0
 63 64  1  0  0  0  0
M  CHG  1  72   1
M  ISO  4  38 100  58 101  69 100  80 101
M  END
> <Batch ID>
0136

> <Smiles>
CNC(C)C(=O)NC(C(=O)N1Cc2cc([101O:1][101CH2:1]CCOc3ccc(CO)c([100NH:0][100C:0](=O)N4CCCC(n5nc(-c6ccc(Oc7ccc(F)cc7F)cc6)c(C(N)=O)c5N)C4)c3)ccc2CC1C(=O)NC1CCCc2ccccc21)C(C)(C)C

> <Shape>
0.222

> <Color>
0.077

> <Negative vol penalty>
0.000

$$$$

  -OEChem-04052321023D

 86 95  0     1  0  0  0  0  0999 V2000
  -16.8479  -30.0493   25.6537 C   0  0  0  0  0  0  0  0  0  0  0  0
  -17.8073  -29.1391   26.0858 C   0  0  0  0  0  0  0  0  0  0  0  0
  -23.2431   -9.6633   20.1316 C   0  0  0  0  0  0  0  0  0  0  0  0
  -23.7708  -10.0733   22.4533 C   0  0  0  0  0  0  0  0  0  0  0  0
  -17.0655  -30.7917   24.4938 C   0  0  0  0  0  0  0  0  0  0  0  0
  -18.9843  -28.9700   25.3575 C   0  0  0  0  0  0  0  0  0  0  0  0
  -24.5540  -27.7513   27.5933 C   0  0  0  0  0  0  0  0  0  0  0  0
  -28.9253  -20.0523   24.5665 C   0  0  0  0  0  0  0  0  0  0  0  0
  -22.5265   -8.5234   20.4957 C   0  0  0  0  0  0  0  0  0  0  0  0
  -23.0541   -8.9334   22.8175 C   0  0  0  0  0  0  0  0  0  0  0  0
  -25.2753  -26.5648   27.7190 C   0  0  0  0  0  0  0  0  0  0  0  0
  -28.0426  -20.7873   25.3579 C   0  0  0  0  0  0  0  0  0  0  0  0
  -19.8179   -8.0583   23.2437 C   0  0  0  0  0  0  0  0  0  0  0  0
  -18.9509   -8.1598   24.3316 C   0  0  0  0  0  0  0  0  0  0  0  0
  -26.4114  -27.0427   25.6454 C   0  0  0  0  0  0  0  0  0  0  0  0
  -27.5829  -22.2476   23.4888 C   0  0  0  0  0  0  0  0  0  0  0  0
  -20.1922   -6.4355   25.4819 C   0  0  0  0  0  0  0  0  0  0  0  0
  -23.8653  -10.4383   21.1104 C   0  0  0  0  0  0  0  0  0  0  0  0
  -24.1126  -12.9285   20.6154 C   0  0  0  0  0  0  0  0  0  0  0  0
  -18.2500  -30.6386   23.7562 C   0  0  0  0  0  0  0  0  0  0  0  0
  -24.7485  -28.5884   26.4852 C   0  0  0  0  0  0  0  0  0  0  0  0
  -19.2173  -29.7101   24.1859 C   0  0  0  0  0  0  0  0  0  0  0  0
  -29.1370  -20.4151   23.2364 C   0  0  0  0  0  0  0  0  0  0  0  0
  -25.6932  -28.2405   25.5092 C   0  0  0  0  0  0  0  0  0  0  0  0
  -28.4657  -21.5127   22.6975 C   0  0  0  0  0  0  0  0  0  0  0  0
  -22.4320   -8.1584   21.8387 C   0  0  0  0  0  0  0  0  0  0  0  0
  -26.2020  -26.2089   26.7436 C   0  0  0  0  0  0  0  0  0  0  0  0
  -27.3713  -21.8849   24.8190 C   0  0  0  0  0  0  0  0  0  0  0  0
  -20.8721   -7.1453   23.2749 C   0  0  0  0  0  0  0  0  0  0  0  0
  -19.1380   -7.3484   25.4506 C   0  0  0  0  0  0  0  0  0  0  0  0
  -21.0593   -6.3340   24.3939 C   0  0  0  0  0  0  0  0  0  0  0  0
  -24.6062  -11.6156   20.7348 C   0  0  0  0  0  0  0  0  0  0  0  0
  -25.2034  -13.6724   20.2370 C   0  0  0  0  0  0  0  0  0  0  0  0
  -22.7865  -13.4308   20.8276 C   0  0  0  0  0  0  0  0  0  0  0  0
  -22.9106  -29.6281   24.1094 C   0  0  0  0  0  0  0  0  0  0  0  0
  -25.5156  -31.4265   23.4006 C   0  0  0  0  0  0  0  0  0  0  0  0
  -28.8949  -31.8461   23.6259 C   0  0  0  0  0  0  0  0  0  0  0  0
  -30.5945  -15.0178   20.7581 C   0  0  0  0  0  0  0  0  0  0  0  0
  -18.4196  -31.4289   22.4829 C   0  0  0  0  0  0  0  0  0  0  0  0
  -23.9819  -29.8780   26.3778 C   0  0  0  0  0  0  0  0  0  0  0  0
  -25.9540  -29.1146   24.3107 C   0  0  0  0  0  0  0  0  0  0  0  0
  -19.8583  -31.4624   21.9737 C   0  0  0  0  0  0  0  0  0  0  0  0
  -29.7990  -12.2275   18.6945 C   0  0  0  0  0  0  0  0  0  0  0  0
  -31.2525  -18.9561   23.1951 C   0  0  0  0  0  0  0  0  0  0  0  0
  -20.4684  -30.0646   22.0053 C   0  0  0  0  0  0  0  0  0  0  0  0
  -28.3391  -11.9244   19.0361 C   0  0  0  0  0  0  0  0  0  0  0  0
  -31.0978  -17.4498   23.0032 C   0  0  0  0  0  0  0  0  0  0  0  0
  -29.4035  -18.4453   21.6561 C   0  0  0  0  0  0  0  0  0  0  0  0
  -30.5825  -12.6858   19.9226 C   0  0  0  0  0  0  0  0  0  0  0  0
  -28.5240  -13.5164   20.9932 C   0  0  0  0  0  0  0  0  0  0  0  0
  -30.0988  -19.6028   22.3985 C   0  0  1  0  0  0  0  0  0  0  0  0
  -20.5177  -29.5164   23.4366 C   0  0  1  0  0  0  0  0  0  0  0  0
  -23.8894  -30.4008   24.9476 C   0  0  1  0  0  0  0  0  0  0  0  0
  -27.6795  -13.1042   19.7753 C   0  0  2  0  0  0  0  0  0  0  0  0
  -30.4482  -17.3361   21.6318 C   0  0  2  0  0  0  0  0  0  0  0  0
  -28.6773  -21.9203   21.2765 C   0  0  0  0  0  0  0  0  0  0  0  0
  -30.7397  -33.3917   22.9152 C   0  0  0  0  0  0  0  0  0  0  0  0
  -25.3782  -30.2866   20.5737 C   0  0  0  0  0  0  0  0  0  0  0  0
  -27.7212  -31.0907   20.2105 C   0  0  0  0  0  0  0  0  0  0  0  0
  -25.9022  -32.7293   20.6892 C   0  0  0  0  0  0  0  0  0  0  0  0
  -29.6232  -32.4537   26.4294 C   0  0  0  0  0  0  0  0  0  0  0  0
  -26.2723  -23.9724   27.5493 C   0  0  0  0  0  0  0  0  0  1  0  0
  -26.7854  -22.6596   26.9898 C   0  0  0  0  0  0  0  0  0  0  0  0
  -26.7459  -31.2362   22.5469 C   0  0  1  0  0  0  0  0  0  0  0  0
  -29.7373  -33.0502   24.0066 C   0  0  2  0  0  0  0  0  0  0  0  0
  -26.4308  -31.3181   21.0265 C   0  0  0  0  0  0  0  0  0  0  0  0
  -25.9092  -11.5272   20.4548 N   0  0  0  0  0  0  0  0  0  0  0  0
  -26.2436  -12.7940   20.1556 N   0  0  0  0  0  0  0  0  0  0  0  0
  -25.1749  -30.3622   24.2474 N   0  0  0  0  0  0  0  0  0  0  0  0
  -29.9047  -13.8077   20.5766 N   0  0  0  0  0  0  0  0  0  0  0  0
  -25.3647  -14.9857   19.9692 N   0  0  0  0  0  0  0  0  0  0  0  0
  -21.7847  -12.5300   21.2136 N   0  0  0  0  0  0  0  0  0  0  0  0
  -21.6168  -30.1100   24.1675 N   0  0  0  0  0  0  0  0  0  0  0  0
  -27.7196  -32.2194   23.0091 N   0  0  0  0  0  0  0  0  0  0  0  0
  -29.8768  -16.0318   21.3806 N   0  0  0  0  0  0  0  0  0  0  0  0
  -30.4872  -32.7805   25.2659 N   0  3  0  0  0  0  0  0  0  0  0  0
  -22.4950  -14.6398   20.6634 O   0  0  0  0  0  0  0  0  0  0  0  0
  -23.3006  -28.6669   23.4570 O   0  0  0  0  0  0  0  0  0  0  0  0
  -24.8842  -32.4835   23.3244 O   0  0  0  0  0  0  0  0  0  0  0  0
  -29.2462  -30.6898   23.8498 O   0  0  0  0  0  0  0  0  0  0  0  0
  -31.7616  -15.1840   20.3878 O   0  0  0  0  0  0  0  0  0  0  0  0
  -21.7326   -7.0463   22.1944 O   0  0  0  0  0  0  0  0  0  0  0  0
  -26.9069  -25.0510   26.8636 O   0  0  0  0  0  0  0  0  0  1  0  0
  -26.5046  -22.6071   25.5963 O   0  0  0  0  0  0  0  0  0  0  0  0
  -18.3062   -7.4471   26.4959 F   0  0  0  0  0  0  0  0  0  0  0  0
  -22.0709   -5.4559   24.4302 F   0  0  0  0  0  0  0  0  0  0  0  0
  1  2  1  0  0  0  0
  1  5  2  0  0  0  0
  2  6  2  0  0  0  0
  3  9  2  0  0  0  0
  3 18  1  0  0  0  0
  4 10  1  0  0  0  0
  4 18  2  0  0  0  0
  5 20  1  0  0  0  0
  6 22  1  0  0  0  0
  7 11  2  0  0  0  0
  7 21  1  0  0  0  0
  8 12  2  0  0  0  0
  8 23  1  0  0  0  0
  9 26  1  0  0  0  0
 10 26  2  0  0  0  0
 11 27  1  0  0  0  0
 12 28  1  0  0  0  0
 13 14  2  0  0  0  0
 13 29  1  0  0  0  0
 14 30  1  0  0  0  0
 15 24  1  0  0  0  0
 15 27  2  0  0  0  0
 16 25  1  0  0  0  0
 16 28  2  0  0  0  0
 17 30  2  0  0  0  0
 17 31  1  0  0  0  0
 18 32  1  0  0  0  0
 19 32  1  0  0  0  0
 19 33  2  0  0  0  0
 19 34  1  0  0  0  0
 20 22  2  0  0  0  0
 20 39  1  0  0  0  0
 21 24  2  0  0  0  0
 21 40  1  0  0  0  0
 22 52  1  0  0  0  0
 23 25  2  0  0  0  0
 23 51  1  0  0  0  0
 24 41  1  0  0  0  0
 25 56  1  0  0  0  0
 26 82  1  0  0  0  0
 27 83  1  0  0  0  0
 28 84  1  0  0  0  0
 29 31  2  0  0  0  0
 29 82  1  0  0  0  0
 30 85  1  0  0  0  0
 31 86  1  0  0  0  0
 32 67  2  0  0  0  0
 33 68  1  0  0  0  0
 33 71  1  0  0  0  0
 34 72  1  0  0  0  0
 34 77  2  0  0  0  0
 35 53  1  0  0  0  0
 35 73  1  0  0  0  0
 35 78  2  0  0  0  0
 36 64  1  0  0  0  0
 36 69  1  0  0  0  0
 36 79  2  0  0  0  0
 37 65  1  0  0  0  0
 37 74  1  0  0  0  0
 37 80  2  0  0  0  0
 38 70  1  0  0  0  0
 38 75  1  0  0  0  0
 38 81  2  0  0  0  0
 39 42  1  0  0  0  0
 40 53  1  0  0  0  0
 41 69  1  0  0  0  0
 42 45  1  0  0  0  0
 43 46  1  0  0  0  0
 43 49  1  0  0  0  0
 44 47  1  0  0  0  0
 44 51  1  0  0  0  0
 45 52  1  0  0  0  0
 46 54  1  0  0  0  0
 47 55  1  0  0  0  0
 48 51  1  0  0  0  0
 48 55  1  0  0  0  0
 49 70  1  0  0  0  0
 50 54  1  0  0  0  0
 50 70  1  0  0  0  0
 52 73  1  0  0  0  0
 53 69  1  0  0  0  0
 54 68  1  0  0  0  0
 55 75  1  0  0  0  0
 57 65  1  0  0  0  0
 58 66  1  0  0  0  0
 59 66  1  0  0  0  0
 60 66  1  0  0  0  0
 61 76  1  0  0  0  0
 62 63  1  0  0  0  0
 62 83  1  0  0  0  0
 63 84  1  0  0  0  0
 64 66  1  0  0  0  0
 64 74  1  0  0  0  0
 65 76  1  0  0  0  0
 67 68  1  0  0  0  0
M  CHG  1  76   1
M  ISO  4  38 100  62 101  75 100  83 101
M  END
> <Batch ID>
0136

> <Smiles>
CNC(C)C(=O)NC(C(=O)N1Cc2cc([101O:1][101CH2:1]COc3ccc(C4CCC([100NH:0][100C:0](=O)N5CCCC(n6nc(-c7ccc(Oc8ccc(F)cc8F)cc7)c(C(N)=O)c6N)C5)C4)c(C)c3)ccc2CC1C(=O)NC1CCCc2ccccc21)C(C)(C)C

> <Shape>
0.288

> <Color>
0.196

> <Negative vol penalty>
0.000

$$$$

  -OEChem-04052321023D

 85 94  0     1  0  0  0  0  0999 V2000
  -28.1609  -32.3817   20.3022 C   0  0  0  0  0  0  0  0  0  0  0  0
  -28.1005  -31.0267   20.6115 C   0  0  0  0  0  0  0  0  0  0  0  0
  -22.8486  -10.3192   19.9751 C   0  0  0  0  0  0  0  0  0  0  0  0
  -23.9303   -9.6926   22.0425 C   0  0  0  0  0  0  0  0  0  0  0  0
  -27.0929  -33.2177   20.6255 C   0  0  0  0  0  0  0  0  0  0  0  0
  -26.9724  -30.5070   21.2453 C   0  0  0  0  0  0  0  0  0  0  0  0
  -25.4168  -26.1527   19.1801 C   0  0  0  0  0  0  0  0  0  0  0  0
  -22.0365   -9.1882   20.0571 C   0  0  0  0  0  0  0  0  0  0  0  0
  -23.1181   -8.5616   22.1247 C   0  0  0  0  0  0  0  0  0  0  0  0
  -26.1265  -25.0001   19.5142 C   0  0  0  0  0  0  0  0  0  0  0  0
  -22.9884   -5.4815   20.7365 C   0  0  0  0  0  0  0  0  0  0  0  0
  -23.5950   -4.2709   21.0714 C   0  0  0  0  0  0  0  0  0  0  0  0
  -28.7537  -21.4173   21.8520 C   0  0  0  0  0  0  0  0  0  0  0  0
  -24.4196  -24.4210   21.1174 C   0  0  0  0  0  0  0  0  0  0  0  0
  -28.0760  -20.3478   19.7944 C   0  0  0  0  0  0  0  0  0  0  0  0
  -22.1857   -4.1057   23.0268 C   0  0  0  0  0  0  0  0  0  0  0  0
  -23.7956  -10.5714   20.9677 C   0  0  0  0  0  0  0  0  0  0  0  0
  -24.3694  -13.0174   21.4099 C   0  0  0  0  0  0  0  0  0  0  0  0
  -25.9471  -32.7062   21.2549 C   0  0  0  0  0  0  0  0  0  0  0  0
  -24.2065  -26.4542   19.8210 C   0  0  0  0  0  0  0  0  0  0  0  0
  -25.8886  -31.3371   21.5785 C   0  0  0  0  0  0  0  0  0  0  0  0
  -29.3038  -20.2148   22.2959 C   0  0  0  0  0  0  0  0  0  0  0  0
  -23.6952  -25.5767   20.7878 C   0  0  0  0  0  0  0  0  0  0  0  0
  -28.1397  -21.4837   20.6013 C   0  0  0  0  0  0  0  0  0  0  0  0
  -28.6261  -19.1453   20.2382 C   0  0  0  0  0  0  0  0  0  0  0  0
  -29.2400  -19.0788   21.4890 C   0  0  0  0  0  0  0  0  0  0  0  0
  -22.1712   -8.3094   21.1320 C   0  0  0  0  0  0  0  0  0  0  0  0
  -25.6294  -24.1356   20.4851 C   0  0  0  0  0  0  0  0  0  0  0  0
  -21.9805   -6.0042   21.5468 C   0  0  0  0  0  0  0  0  0  0  0  0
  -23.1937   -3.5830   22.2165 C   0  0  0  0  0  0  0  0  0  0  0  0
  -21.5791   -5.3163   22.6919 C   0  0  0  0  0  0  0  0  0  0  0  0
  -24.6353  -11.7393   20.8832 C   0  0  0  0  0  0  0  0  0  0  0  0
  -25.4672  -13.7667   21.0636 C   0  0  0  0  0  0  0  0  0  0  0  0
  -23.2318  -13.4855   22.1464 C   0  0  0  0  0  0  0  0  0  0  0  0
  -23.1741  -28.8316   21.6610 C   0  0  0  0  0  0  0  0  0  0  0  0
  -20.3304  -27.2968   21.3778 C   0  0  0  0  0  0  0  0  0  0  0  0
  -18.6577  -24.3842   20.7734 C   0  0  0  0  0  0  0  0  0  0  0  0
  -30.9947  -14.3664   20.5814 C   0  0  0  0  0  0  0  0  0  0  0  0
  -24.8376  -33.6575   21.6273 C   0  0  0  0  0  0  0  0  0  0  0  0
  -23.4396  -27.6876   19.4301 C   0  0  0  0  0  0  0  0  0  0  0  0
  -22.3903  -25.8444   21.4908 C   0  0  0  0  0  0  0  0  0  0  0  0
  -23.5222  -32.9584   21.9606 C   0  0  0  0  0  0  0  0  0  0  0  0
  -29.2878  -12.7463   17.9096 C   0  0  0  0  0  0  0  0  0  0  0  0
  -29.4822  -19.1593   24.6471 C   0  0  0  0  0  0  0  0  0  0  0  0
  -29.1689  -20.6093   24.8463 C   0  0  0  0  0  0  0  0  0  0  0  0
  -23.7662  -31.7809   22.8991 C   0  0  0  0  0  0  0  0  0  0  0  0
  -27.9063  -12.4400   18.4905 C   0  0  0  0  0  0  0  0  0  0  0  0
  -30.3872  -12.5959   18.9588 C   0  0  0  0  0  0  0  0  0  0  0  0
  -28.7905  -13.0626   20.7772 C   0  0  0  0  0  0  0  0  0  0  0  0
  -29.9551  -20.1724   23.6397 C   0  0  0  0  0  0  0  0  0  0  0  0
  -24.6717  -30.7313   22.2434 C   0  0  1  0  0  0  0  0  0  0  0  0
  -22.4747  -28.1596   20.5134 C   0  0  1  0  0  0  0  0  0  0  0  0
  -27.6431  -13.2551   19.7709 C   0  0  2  0  0  0  0  0  0  0  0  0
  -28.5426  -17.9451   19.3517 C   0  0  0  0  0  0  0  0  0  0  0  0
  -16.3385  -23.4339   20.6483 C   0  0  0  0  0  0  0  0  0  0  0  0
  -20.1672  -27.3006   24.4247 C   0  0  0  0  0  0  0  0  0  0  0  0
  -18.3805  -25.5543   24.2616 C   0  0  0  0  0  0  0  0  0  0  0  0
  -18.0115  -27.8106   23.2638 C   0  0  0  0  0  0  0  0  0  0  0  0
  -18.9944  -23.6313   17.9311 C   0  0  0  0  0  0  0  0  0  0  0  0
  -27.5479  -22.7772   20.1238 C   0  0  0  0  0  0  0  0  0  1  0  0
  -31.1528  -17.4884   21.6826 C   0  0  0  0  0  0  0  0  0  0  0  0
  -31.4560  -16.1207   22.2752 C   0  0  0  0  0  0  0  0  0  0  0  0
  -19.6204  -26.2105   22.1490 C   0  0  1  0  0  0  0  0  0  0  0  0
  -17.4803  -24.0678   19.8690 C   0  0  2  0  0  0  0  0  0  0  0  0
  -19.0705  -26.7147   23.5131 C   0  0  0  0  0  0  0  0  0  0  0  0
  -25.8098  -11.6765   20.2502 N   0  0  0  0  0  0  0  0  0  0  0  0
  -26.2916  -12.9247   20.3770 N   0  0  0  0  0  0  0  0  0  0  0  0
  -21.6807  -27.0666   21.0783 N   0  0  0  0  0  0  0  0  0  0  0  0
  -30.0777  -13.3951   20.1469 N   0  0  0  0  0  0  0  0  0  0  0  0
  -25.7980  -15.0571   21.2825 N   0  0  0  0  0  0  0  0  0  0  0  0
  -22.1931  -12.5839   22.4157 N   0  0  0  0  0  0  0  0  0  0  0  0
  -29.7974  -17.8587   21.9376 N   0  0  0  0  0  0  0  0  0  0  0  0
  -23.9200  -29.9362   21.2963 N   0  0  0  0  0  0  0  0  0  0  0  0
  -18.5999  -25.6751   21.2544 N   0  0  0  0  0  0  0  0  0  0  0  0
  -30.6209  -15.0837   21.7113 N   0  0  0  0  0  0  0  0  0  0  0  0
  -17.8937  -23.1255   18.7910 N   0  3  0  0  0  0  0  0  0  0  0  0
  -23.1317  -14.6725   22.5394 O   0  0  0  0  0  0  0  0  0  0  0  0
  -23.0454  -28.3821   22.7938 O   0  0  0  0  0  0  0  0  0  0  0  0
  -19.7079  -28.3091   21.0470 O   0  0  0  0  0  0  0  0  0  0  0  0
  -19.5386  -23.5666   21.0307 O   0  0  0  0  0  0  0  0  0  0  0  0
  -32.0645  -14.5824   20.0020 O   0  0  0  0  0  0  0  0  0  0  0  0
  -21.3786   -7.2058   21.2125 O   0  0  0  0  0  0  0  0  0  0  0  0
  -26.3205  -23.0103   20.8136 O   0  0  0  0  0  0  0  0  0  1  0  0
  -23.7752   -2.4198   22.5372 F   0  0  0  0  0  0  0  0  0  0  0  0
  -20.6106   -5.8129   23.4736 F   0  0  0  0  0  0  0  0  0  0  0  0
  1  2  1  0  0  0  0
  1  5  2  0  0  0  0
  2  6  2  0  0  0  0
  3  8  2  0  0  0  0
  3 17  1  0  0  0  0
  4  9  1  0  0  0  0
  4 17  2  0  0  0  0
  5 19  1  0  0  0  0
  6 21  1  0  0  0  0
  7 10  2  0  0  0  0
  7 20  1  0  0  0  0
  8 27  1  0  0  0  0
  9 27  2  0  0  0  0
 10 28  1  0  0  0  0
 11 12  2  0  0  0  0
 11 29  1  0  0  0  0
 12 30  1  0  0  0  0
 13 22  1  0  0  0  0
 13 24  2  0  0  0  0
 14 23  1  0  0  0  0
 14 28  2  0  0  0  0
 15 24  1  0  0  0  0
 15 25  2  0  0  0  0
 16 30  2  0  0  0  0
 16 31  1  0  0  0  0
 17 32  1  0  0  0  0
 18 32  1  0  0  0  0
 18 33  2  0  0  0  0
 18 34  1  0  0  0  0
 19 21  2  0  0  0  0
 19 39  1  0  0  0  0
 20 23  2  0  0  0  0
 20 40  1  0  0  0  0
 21 51  1  0  0  0  0
 22 26  2  0  0  0  0
 22 50  1  0  0  0  0
 23 41  1  0  0  0  0
 24 60  1  0  0  0  0
 25 26  1  0  0  0  0
 25 54  1  0  0  0  0
 26 72  1  0  0  0  0
 27 82  1  0  0  0  0
 28 83  1  0  0  0  0
 29 31  2  0  0  0  0
 29 82  1  0  0  0  0
 30 84  1  0  0  0  0
 31 85  1  0  0  0  0
 32 66  2  0  0  0  0
 33 67  1  0  0  0  0
 33 70  1  0  0  0  0
 34 71  1  0  0  0  0
 34 77  2  0  0  0  0
 35 52  1  0  0  0  0
 35 73  1  0  0  0  0
 35 78  2  0  0  0  0
 36 63  1  0  0  0  0
 36 68  1  0  0  0  0
 36 79  2  0  0  0  0
 37 64  1  0  0  0  0
 37 74  1  0  0  0  0
 37 80  2  0  0  0  0
 38 69  1  0  0  0  0
 38 75  1  0  0  0  0
 38 81  2  0  0  0  0
 39 42  1  0  0  0  0
 40 52  1  0  0  0  0
 41 68  1  0  0  0  0
 42 46  1  0  0  0  0
 43 47  1  0  0  0  0
 43 48  1  0  0  0  0
 44 45  1  0  0  0  0
 44 50  1  0  0  0  0
 45 50  1  0  0  0  0
 46 51  1  0  0  0  0
 47 53  1  0  0  0  0
 48 69  1  0  0  0  0
 49 53  1  0  0  0  0
 49 69  1  0  0  0  0
 51 73  1  0  0  0  0
 52 68  1  0  0  0  0
 53 67  1  0  0  0  0
 55 64  1  0  0  0  0
 56 65  1  0  0  0  0
 57 65  1  0  0  0  0
 58 65  1  0  0  0  0
 59 76  1  0  0  0  0
 60 83  1  0  0  0  0
 61 62  1  0  0  0  0
 61 72  1  0  0  0  0
 62 75  1  0  0  0  0
 63 65  1  0  0  0  0
 63 74  1  0  0  0  0
 64 76  1  0  0  0  0
 66 67  1  0  0  0  0
M  CHG  1  76   1
M  ISO  4  38 100  60 101  75 100  83 101
M  END
> <Batch ID>
0136

> <Smiles>
CNC(C)C(=O)NC(C(=O)N1Cc2cc([101O:1][101CH2:1]c3cc(C)c(NCC[100NH:0][100C:0](=O)N4CCCC(n5nc(-c6ccc(Oc7ccc(F)cc7F)cc6)c(C(N)=O)c5N)C4)c(C4CC4)c3)ccc2CC1C(=O)NC1CCCc2ccccc21)C(C)(C)C

> <Shape>
0.347

> <Color>
0.160

> <Negative vol penalty>
0.000

$$$$

  -OEChem-04052321023D

 86 95  0     1  0  0  0  0  0999 V2000
  -30.5742  -25.0962   14.2252 C   0  0  0  0  0  0  0  0  0  0  0  0
  -29.3165  -25.6908   14.2153 C   0  0  0  0  0  0  0  0  0  0  0  0
  -23.0615  -10.0563   22.0867 C   0  0  0  0  0  0  0  0  0  0  0  0
  -23.9618   -9.2841   19.9819 C   0  0  0  0  0  0  0  0  0  0  0  0
  -31.0582  -24.5112   15.3946 C   0  0  0  0  0  0  0  0  0  0  0  0
  -28.5416  -25.6998   15.3746 C   0  0  0  0  0  0  0  0  0  0  0  0
  -23.7180  -29.7098   18.8343 C   0  0  0  0  0  0  0  0  0  0  0  0
  -20.0593  -25.4103   23.1206 C   0  0  0  0  0  0  0  0  0  0  0  0
  -20.0541  -26.5984   23.8515 C   0  0  0  0  0  0  0  0  0  0  0  0
  -22.3188   -8.8811   22.2002 C   0  0  0  0  0  0  0  0  0  0  0  0
  -23.2192   -8.1088   20.0955 C   0  0  0  0  0  0  0  0  0  0  0  0
  -22.4497  -29.6154   19.4055 C   0  0  0  0  0  0  0  0  0  0  0  0
  -22.8637   -5.6671   23.0982 C   0  0  0  0  0  0  0  0  0  0  0  0
  -22.8586   -5.0204   24.3340 C   0  0  0  0  0  0  0  0  0  0  0  0
  -23.4215  -28.6444   21.3884 C   0  0  0  0  0  0  0  0  0  0  0  0
  -20.7229  -26.6296   21.1433 C   0  0  0  0  0  0  0  0  0  0  0  0
  -20.4595   -5.2774   24.4586 C   0  0  0  0  0  0  0  0  0  0  0  0
  -23.8829  -10.2578   20.9775 C   0  0  0  0  0  0  0  0  0  0  0  0
  -25.9554  -11.7021   21.3331 C   0  0  0  0  0  0  0  0  0  0  0  0
  -30.2929  -24.5216   16.5714 C   0  0  0  0  0  0  0  0  0  0  0  0
  -24.8483  -29.2614   19.5327 C   0  0  0  0  0  0  0  0  0  0  0  0
  -29.0153  -25.1133   16.5605 C   0  0  0  0  0  0  0  0  0  0  0  0
  -24.7034  -28.7366   20.8249 C   0  0  0  0  0  0  0  0  0  0  0  0
  -20.3937  -25.4260   21.7665 C   0  0  0  0  0  0  0  0  0  0  0  0
  -20.3834  -27.8020   23.2282 C   0  0  0  0  0  0  0  0  0  0  0  0
  -22.3977   -7.9073   21.2047 C   0  0  0  0  0  0  0  0  0  0  0  0
  -22.3010  -29.0800   20.6815 C   0  0  0  0  0  0  0  0  0  0  0  0
  -21.6667   -6.1191   22.5426 C   0  0  0  0  0  0  0  0  0  0  0  0
  -20.7178  -27.8176   21.8742 C   0  0  0  0  0  0  0  0  0  1  0  0
  -21.6565   -4.8255   25.0142 C   0  0  0  0  0  0  0  0  0  0  0  0
  -20.4646   -5.9242   23.2228 C   0  0  0  0  0  0  0  0  0  0  0  0
  -24.6499  -11.4719   20.8594 C   0  0  0  0  0  0  0  0  0  0  0  0
  -26.2277  -12.9992   20.9727 C   0  0  0  0  0  0  0  0  0  0  0  0
  -26.8427  -10.8222   22.0360 C   0  0  0  0  0  0  0  0  0  0  0  0
  -27.0464  -27.0189   19.0394 C   0  0  0  0  0  0  0  0  0  0  0  0
  -28.4088  -28.3242   21.6780 C   0  0  0  0  0  0  0  0  0  0  0  0
  -28.0178  -30.1225   24.5520 C   0  0  0  0  0  0  0  0  0  0  0  0
  -24.8573  -18.2289   20.6400 C   0  0  0  0  0  0  0  0  0  0  0  0
  -30.8386  -23.8351   17.7984 C   0  0  0  0  0  0  0  0  0  0  0  0
  -26.2125  -29.3947   18.9133 C   0  0  0  0  0  0  0  0  0  0  0  0
  -25.8873  -28.2597   21.6246 C   0  0  0  0  0  0  0  0  0  0  0  0
  -30.1108  -24.2173   19.0847 C   0  0  0  0  0  0  0  0  0  0  0  0
  -23.7711  -16.1676   17.9134 C   0  0  0  0  0  0  0  0  0  0  0  0
  -28.6003  -24.1655   18.8789 C   0  0  0  0  0  0  0  0  0  0  0  0
  -23.9805  -14.7707   18.4924 C   0  0  0  0  0  0  0  0  0  0  0  0
  -24.1151  -21.8633   20.6635 C   0  0  0  0  0  0  0  0  0  0  0  0
  -23.2735  -17.1628   18.9635 C   0  0  0  0  0  0  0  0  0  0  0  0
  -22.9203  -19.8441   20.2825 C   0  0  0  0  0  0  0  0  0  0  0  0
  -24.3253  -15.8156   20.7583 C   0  0  0  0  0  0  0  0  0  0  0  0
  -28.1553  -25.1651   17.8046 C   0  0  1  0  0  0  0  0  0  0  0  0
  -27.2360  -28.4333   19.5096 C   0  0  1  0  0  0  0  0  0  0  0  0
  -22.7889  -21.1836   21.0034 C   0  0  2  0  0  0  0  0  0  0  0  0
  -24.8909  -14.8256   19.7301 C   0  0  1  0  0  0  0  0  0  0  0  0
  -25.1226  -20.7100   20.7278 C   0  0  2  0  0  0  0  0  0  0  0  0
  -20.3742  -29.0635   24.0265 C   0  0  0  0  0  0  0  0  0  0  0  0
  -26.2871  -20.9199   19.7687 C   0  0  0  0  0  0  0  0  0  0  0  0
  -29.3066  -30.9952   26.5205 C   0  0  0  0  0  0  0  0  0  0  0  0
  -28.4539  -25.5232   22.8872 C   0  0  0  0  0  0  0  0  0  0  0  0
  -28.8406  -26.5721   25.1274 C   0  0  0  0  0  0  0  0  0  0  0  0
  -30.5172  -26.8731   23.3051 C   0  0  0  0  0  0  0  0  0  0  0  0
  -27.3790  -32.9313   23.8724 C   0  0  0  0  0  0  0  0  0  0  0  0
  -20.3971  -24.1482   20.9802 C   0  0  0  0  0  0  0  0  0  0  0  0
  -21.5751  -21.9847   20.5673 C   0  0  0  0  0  0  0  0  0  0  0  0
  -28.3031  -28.0856   23.1649 C   0  0  1  0  0  0  0  0  0  0  0  0
  -28.7960  -31.2957   25.1199 C   0  0  2  0  0  0  0  0  0  0  0  0
  -29.0060  -26.7706   23.6056 C   0  0  0  0  0  0  0  0  0  0  0  0
  -24.1289  -12.5373   20.2450 N   0  0  0  0  0  0  0  0  0  0  0  0
  -25.1120  -13.4496   20.3303 N   0  0  0  0  0  0  0  0  0  0  0  0
  -27.1995  -28.4053   20.9732 N   0  0  0  0  0  0  0  0  0  0  0  0
  -24.1165  -17.1391   20.1648 N   0  0  0  0  0  0  0  0  0  0  0  0
  -24.3399  -19.5074   20.4152 N   0  0  0  0  0  0  0  0  0  0  0  0
  -27.3101  -13.7871   21.1458 N   0  0  0  0  0  0  0  0  0  0  0  0
  -26.4042   -9.5230   22.3259 N   0  0  0  0  0  0  0  0  0  0  0  0
  -28.1258  -26.5075   18.3445 N   0  0  0  0  0  0  0  0  0  0  0  0
  -28.8242  -29.2865   23.8091 N   0  0  0  0  0  0  0  0  0  0  0  0
  -27.9314  -32.5079   25.1849 N   0  3  0  0  0  0  0  0  0  0  0  0
  -21.5735  -23.2834   21.2769 N   0  3  0  0  0  0  0  0  0  0  0  0
  -27.9843  -11.1828   22.4107 O   0  0  0  0  0  0  0  0  0  0  0  0
  -25.9990  -26.4342   19.2899 O   0  0  0  0  0  0  0  0  0  0  0  0
  -29.5231  -28.4417   21.1621 O   0  0  0  0  0  0  0  0  0  0  0  0
  -26.8157  -29.9617   24.7509 O   0  0  0  0  0  0  0  0  0  0  0  0
  -25.9151  -18.0668   21.2622 O   0  0  0  0  0  0  0  0  0  0  0  0
  -21.6733   -6.7603   21.3152 O   0  0  0  0  0  0  0  0  0  0  0  0
  -21.0429  -28.9846   21.2507 O   0  0  0  0  0  0  0  0  0  1  0  0
  -21.6516   -4.2030   26.2003 F   0  0  0  0  0  0  0  0  0  0  0  0
  -19.3114   -6.3551   22.6935 F   0  0  0  0  0  0  0  0  0  0  0  0
  1  2  1  0  0  0  0
  1  5  2  0  0  0  0
  2  6  2  0  0  0  0
  3 10  2  0  0  0  0
  3 18  1  0  0  0  0
  4 11  1  0  0  0  0
  4 18  2  0  0  0  0
  5 20  1  0  0  0  0
  6 22  1  0  0  0  0
  7 12  2  0  0  0  0
  7 21  1  0  0  0  0
  8  9  2  0  0  0  0
  8 24  1  0  0  0  0
  9 25  1  0  0  0  0
 10 26  1  0  0  0  0
 11 26  2  0  0  0  0
 12 27  1  0  0  0  0
 13 14  2  0  0  0  0
 13 28  1  0  0  0  0
 14 30  1  0  0  0  0
 15 23  1  0  0  0  0
 15 27  2  0  0  0  0
 16 24  2  0  0  0  0
 16 29  1  0  0  0  0
 17 30  2  0  0  0  0
 17 31  1  0  0  0  0
 18 32  1  0  0  0  0
 19 32  1  0  0  0  0
 19 33  2  0  0  0  0
 19 34  1  0  0  0  0
 20 22  2  0  0  0  0
 20 39  1  0  0  0  0
 21 23  2  0  0  0  0
 21 40  1  0  0  0  0
 22 50  1  0  0  0  0
 23 41  1  0  0  0  0
 24 62  1  0  0  0  0
 25 29  2  0  0  0  0
 25 55  1  0  0  0  0
 26 83  1  0  0  0  0
 27 84  1  0  0  0  0
 28 31  2  0  0  0  0
 28 83  1  0  0  0  0
 29 84  1  0  0  0  0
 30 85  1  0  0  0  0
 31 86  1  0  0  0  0
 32 67  2  0  0  0  0
 33 68  1  0  0  0  0
 33 72  1  0  0  0  0
 34 73  1  0  0  0  0
 34 78  2  0  0  0  0
 35 51  1  0  0  0  0
 35 74  1  0  0  0  0
 35 79  2  0  0  0  0
 36 64  1  0  0  0  0
 36 69  1  0  0  0  0
 36 80  2  0  0  0  0
 37 65  1  0  0  0  0
 37 75  1  0  0  0  0
 37 81  2  0  0  0  0
 38 70  1  0  0  0  0
 38 71  1  0  0  0  0
 38 82  2  0  0  0  0
 39 42  1  0  0  0  0
 40 51  1  0  0  0  0
 41 69  1  0  0  0  0
 42 44  1  0  0  0  0
 43 45  1  0  0  0  0
 43 47  1  0  0  0  0
 44 50  1  0  0  0  0
 45 53  1  0  0  0  0
 46 52  1  0  0  0  0
 46 54  1  0  0  0  0
 47 70  1  0  0  0  0
 48 52  1  0  0  0  0
 48 71  1  0  0  0  0
 49 53  1  0  0  0  0
 49 70  1  0  0  0  0
 50 74  1  0  0  0  0
 51 69  1  0  0  0  0
 52 63  1  0  0  0  0
 53 68  1  0  0  0  0
 54 56  1  0  0  0  0
 54 71  1  0  0  0  0
 57 65  1  0  0  0  0
 58 66  1  0  0  0  0
 59 66  1  0  0  0  0
 60 66  1  0  0  0  0
 61 76  1  0  0  0  0
 62 77  1  0  0  0  0
 63 77  1  0  0  0  0
 64 66  1  0  0  0  0
 64 75  1  0  0  0  0
 65 76  1  0  0  0  0
 67 68  1  0  0  0  0
M  CHG  2  76   1  77   1
M  ISO  4  29 101  38 100  71 100  84 101
M  END
> <Batch ID>
0136

> <Smiles>
CNC(C)C(=O)NC(C(=O)N1Cc2cc([101O:1][101c:1]3cc(CNCC4CC(C)[100N:0]([100C:0](=O)N5CCCC(n6nc(-c7ccc(Oc8ccc(F)cc8F)cc7)c(C(N)=O)c6N)C5)C4)ccc3C)ccc2CC1C(=O)NC1CCCc2ccccc21)C(C)(C)C

> <Shape>
0.266

> <Color>
0.093

> <Negative vol penalty>
0.000

$$$$

  -OEChem-04052321023D

 87 96  0     1  0  0  0  0  0999 V2000
  -18.8097  -28.7448   21.9827 C   0  0  0  0  0  0  0  0  0  0  0  0
  -19.9962  -28.0748   21.7017 C   0  0  0  0  0  0  0  0  0  0  0  0
  -23.7907  -10.1792   22.5885 C   0  0  0  0  0  0  0  0  0  0  0  0
  -24.3337  -11.8684   24.2283 C   0  0  0  0  0  0  0  0  0  0  0  0
  -17.9831  -28.2947   23.0114 C   0  0  0  0  0  0  0  0  0  0  0  0
  -20.3572  -26.9549   22.4500 C   0  0  0  0  0  0  0  0  0  0  0  0
  -23.7612  -20.6830   21.8244 C   0  0  0  0  0  0  0  0  0  0  0  0
  -23.2569   -9.3741   23.5946 C   0  0  0  0  0  0  0  0  0  0  0  0
  -23.7998  -11.0633   25.2345 C   0  0  0  0  0  0  0  0  0  0  0  0
  -24.7798  -19.9456   22.4264 C   0  0  0  0  0  0  0  0  0  0  0  0
  -20.7379  -10.2607   26.4184 C   0  0  0  0  0  0  0  0  0  0  0  0
  -19.9030  -10.8670   27.3569 C   0  0  0  0  0  0  0  0  0  0  0  0
  -23.2349  -19.2118   24.1276 C   0  0  0  0  0  0  0  0  0  0  0  0
  -21.4162  -10.2154   29.1240 C   0  0  0  0  0  0  0  0  0  0  0  0
  -24.3292  -11.4264   22.9053 C   0  0  0  0  0  0  0  0  0  0  0  0
  -24.2016  -13.2227   21.0985 C   0  0  0  0  0  0  0  0  0  0  0  0
  -18.3295  -27.1630   23.7663 C   0  0  0  0  0  0  0  0  0  0  0  0
  -22.4723  -20.6990   22.3765 C   0  0  0  0  0  0  0  0  0  0  0  0
  -19.5351  -26.4901   23.4906 C   0  0  0  0  0  0  0  0  0  0  0  0
  -22.2011  -19.9481   23.5292 C   0  0  0  0  0  0  0  0  0  0  0  0
  -29.9087  -18.4878   24.0779 C   0  0  0  0  0  0  0  0  0  0  0  0
  -30.4478  -17.1798   24.0062 C   0  0  0  0  0  0  0  0  0  0  0  0
  -23.2613   -9.8161   24.9176 C   0  0  0  0  0  0  0  0  0  0  0  0
  -24.5175  -19.2121   23.5798 C   0  0  0  0  0  0  0  0  0  0  0  0
  -21.9120   -9.6316   26.8327 C   0  0  0  0  0  0  0  0  0  0  0  0
  -20.2421  -10.8444   28.7097 C   0  0  0  0  0  0  0  0  0  0  0  0
  -22.2511   -9.6090   28.1855 C   0  0  0  0  0  0  0  0  0  0  0  0
  -24.8813  -12.2583   21.8665 C   0  0  0  0  0  0  0  0  0  0  0  0
  -30.2439  -19.1444   22.9096 C   0  0  0  0  0  0  0  0  0  0  0  0
  -31.0997  -17.0679   22.7980 C   0  0  0  0  0  0  0  0  0  0  0  0
  -25.1616  -13.7312   20.2580 C   0  0  0  0  0  0  0  0  0  0  0  0
  -22.8256  -13.6231   21.1410 C   0  0  0  0  0  0  0  0  0  0  0  0
  -20.5783  -22.9467   23.5867 C   0  0  0  0  0  0  0  0  0  0  0  0
  -18.4236  -20.5243   23.6938 C   0  0  0  0  0  0  0  0  0  0  0  0
  -17.8472  -17.1630   23.8206 C   0  0  0  0  0  0  0  0  0  0  0  0
  -31.1263  -14.0988   20.6303 C   0  0  0  0  0  0  0  0  0  0  0  0
  -17.4273  -26.7422   24.8992 C   0  0  0  0  0  0  0  0  0  0  0  0
  -21.3779  -21.4781   21.6999 C   0  0  0  0  0  0  0  0  0  0  0  0
  -20.8292  -19.9159   24.1500 C   0  0  0  0  0  0  0  0  0  0  0  0
  -29.8905  -20.5112   22.4313 C   0  0  0  0  0  0  0  0  0  0  0  0
  -17.6981  -25.3257   25.3996 C   0  0  0  0  0  0  0  0  0  0  0  0
  -29.2350  -12.5210   18.0593 C   0  0  0  0  0  0  0  0  0  0  0  0
  -19.1952  -25.1041   25.5904 C   0  0  0  0  0  0  0  0  0  0  0  0
  -27.8434  -12.3618   18.6742 C   0  0  0  0  0  0  0  0  0  0  0  0
  -30.8996  -19.8216   20.2270 C   0  0  0  0  0  0  0  0  0  0  0  0
  -30.3369  -12.3203   19.0973 C   0  0  0  0  0  0  0  0  0  0  0  0
  -28.8216  -13.0022   20.9173 C   0  0  0  0  0  0  0  0  0  0  0  0
  -19.9490  -25.2568   24.2637 C   0  0  1  0  0  0  0  0  0  0  0  0
  -20.2295  -21.8341   22.6390 C   0  0  1  0  0  0  0  0  0  0  0  0
  -27.6762  -13.2509   19.9211 C   0  0  2  0  0  0  0  0  0  0  0  0
  -30.7431  -20.9579   21.2423 C   0  0  1  0  0  0  0  0  0  0  0  0
  -31.5739  -18.5899   20.8525 C   0  0  1  0  0  0  0  0  0  0  0  0
  -30.3127  -16.1213   25.0283 C   0  0  0  0  0  0  0  0  0  0  0  0
  -33.0878  -18.7799   20.9765 C   0  0  0  0  0  0  0  0  0  0  0  0
  -15.9831  -15.4871   23.9373 C   0  0  0  0  0  0  0  0  0  0  0  0
  -18.0283  -21.1735   26.6488 C   0  0  0  0  0  0  0  0  0  0  0  0
  -16.9288  -18.9407   26.9206 C   0  0  0  0  0  0  0  0  0  0  0  0
  -15.9230  -20.6482   25.4055 C   0  0  0  0  0  0  0  0  0  0  0  0
  -18.6344  -15.9350   21.2455 C   0  0  0  0  0  0  0  0  0  0  0  0
  -29.0997  -19.0553   25.2165 C   0  0  0  0  0  0  0  0  0  0  0  0
  -31.7701  -15.8770   22.2373 C   0  0  0  0  0  0  0  0  0  0  0  0
  -27.6516  -18.5620   25.2494 C   0  0  0  0  0  0  0  0  0  0  0  0
  -26.8418  -18.9851   24.0293 C   0  0  0  0  0  0  0  0  0  1  0  0
  -18.0489  -19.4709   24.7080 C   0  0  1  0  0  0  0  0  0  0  0  0
  -16.9128  -16.2705   23.0238 C   0  0  2  0  0  0  0  0  0  0  0  0
  -17.2587  -20.0603   25.9104 C   0  0  0  0  0  0  0  0  0  0  0  0
  -26.1732  -12.1582   21.5426 N   0  0  0  0  0  0  0  0  0  0  0  0
  -30.9852  -18.2694   22.1501 N   0  0  0  0  0  0  0  0  0  0  0  0
  -26.3130  -13.0661   20.5617 N   0  0  0  0  0  0  0  0  0  0  0  0
  -19.7941  -20.6989   23.4550 N   0  0  0  0  0  0  0  0  0  0  0  0
  -30.1206  -13.1937   20.2533 N   0  0  0  0  0  0  0  0  0  0  0  0
  -25.1248  -14.6777   19.2962 N   0  0  0  0  0  0  0  0  0  0  0  0
  -21.9762  -12.9985   22.0645 N   0  0  0  0  0  0  0  0  0  0  0  0
  -19.7862  -24.0708   23.4505 N   0  0  0  0  0  0  0  0  0  0  0  0
  -17.3331  -18.4333   23.9735 N   0  0  0  0  0  0  0  0  0  0  0  0
  -30.8377  -14.8938   21.7328 N   0  0  0  0  0  0  0  0  0  0  0  0
  -17.6950  -15.3008   22.2059 N   0  3  0  0  0  0  0  0  0  0  0  0
  -22.3592  -14.4969   20.3712 O   0  0  0  0  0  0  0  0  0  0  0  0
  -21.4971  -22.7960   24.3834 O   0  0  0  0  0  0  0  0  0  0  0  0
  -17.5328  -21.1637   23.1287 O   0  0  0  0  0  0  0  0  0  0  0  0
  -18.9236  -16.7714   24.2661 O   0  0  0  0  0  0  0  0  0  0  0  0
  -32.1996  -14.1954   20.0256 O   0  0  0  0  0  0  0  0  0  0  0  0
  -30.1049  -22.0688   20.6207 O   0  0  0  0  0  0  0  0  0  0  0  0
  -22.7403   -9.0308   25.8996 O   0  0  0  0  0  0  0  0  0  0  0  0
  -25.5100  -18.4921   24.1699 O   0  0  0  0  0  0  0  0  0  1  0  0
  -19.4410  -11.4281   29.6106 F   0  0  0  0  0  0  0  0  0  0  0  0
  -23.3783   -9.0073   28.5894 F   0  0  0  0  0  0  0  0  0  0  0  0
  1  2  1  0  0  0  0
  1  5  2  0  0  0  0
  2  6  2  0  0  0  0
  3  8  2  0  0  0  0
  3 15  1  0  0  0  0
  4  9  1  0  0  0  0
  4 15  2  0  0  0  0
  5 17  1  0  0  0  0
  6 19  1  0  0  0  0
  7 10  2  0  0  0  0
  7 18  1  0  0  0  0
  8 23  1  0  0  0  0
  9 23  2  0  0  0  0
 10 24  1  0  0  0  0
 11 12  2  0  0  0  0
 11 25  1  0  0  0  0
 12 26  1  0  0  0  0
 13 20  1  0  0  0  0
 13 24  2  0  0  0  0
 14 26  2  0  0  0  0
 14 27  1  0  0  0  0
 15 28  1  0  0  0  0
 16 28  1  0  0  0  0
 16 31  2  0  0  0  0
 16 32  1  0  0  0  0
 17 19  2  0  0  0  0
 17 37  1  0  0  0  0
 18 20  2  0  0  0  0
 18 38  1  0  0  0  0
 19 48  1  0  0  0  0
 20 39  1  0  0  0  0
 21 22  1  0  0  0  0
 21 29  2  0  0  0  0
 21 60  1  0  0  0  0
 22 30  2  0  0  0  0
 22 53  1  0  0  0  0
 23 84  1  0  0  0  0
 24 85  1  0  0  0  0
 25 27  2  0  0  0  0
 25 84  1  0  0  0  0
 26 86  1  0  0  0  0
 27 87  1  0  0  0  0
 28 67  2  0  0  0  0
 29 40  1  0  0  0  0
 29 68  1  0  0  0  0
 30 61  1  0  0  0  0
 30 68  1  0  0  0  0
 31 69  1  0  0  0  0
 31 72  1  0  0  0  0
 32 73  1  0  0  0  0
 32 78  2  0  0  0  0
 33 49  1  0  0  0  0
 33 74  1  0  0  0  0
 33 79  2  0  0  0  0
 34 64  1  0  0  0  0
 34 70  1  0  0  0  0
 34 80  2  0  0  0  0
 35 65  1  0  0  0  0
 35 75  1  0  0  0  0
 35 81  2  0  0  0  0
 36 71  1  0  0  0  0
 36 76  1  0  0  0  0
 36 82  2  0  0  0  0
 37 41  1  0  0  0  0
 38 49  1  0  0  0  0
 39 70  1  0  0  0  0
 40 51  1  0  0  0  0
 41 43  1  0  0  0  0
 42 44  1  0  0  0  0
 42 46  1  0  0  0  0
 43 48  1  0  0  0  0
 44 50  1  0  0  0  0
 45 51  1  0  0  0  0
 45 52  1  0  0  0  0
 46 71  1  0  0  0  0
 47 50  1  0  0  0  0
 47 71  1  0  0  0  0
 48 74  1  0  0  0  0
 49 70  1  0  0  0  0
 50 69  1  0  0  0  0
 51 83  1  0  0  0  0
 52 54  1  0  0  0  0
 52 68  1  0  0  0  0
 55 65  1  0  0  0  0
 56 66  1  0  0  0  0
 57 66  1  0  0  0  0
 58 66  1  0  0  0  0
 59 77  1  0  0  0  0
 60 62  1  0  0  0  0
 61 76  1  0  0  0  0
 62 63  1  0  0  0  0
 63 85  1  0  0  0  0
 64 66  1  0  0  0  0
 64 75  1  0  0  0  0
 65 77  1  0  0  0  0
 67 69  1  0  0  0  0
M  CHG  1  77   1
M  ISO  4  36 100  63 101  76 100  85 101
M  END
> <Batch ID>
0136

> <Smiles>
CNC(C)C(=O)NC(C(=O)N1Cc2cc([101O:1][101CH2:1]CCc3c(C)c(C[100NH:0][100C:0](=O)N4CCCC(n5nc(-c6ccc(Oc7ccc(F)cc7F)cc6)c(C(N)=O)c5N)C4)n4c3CC(O)CC4C)ccc2CC1C(=O)NC1CCCc2ccccc21)C(C)(C)C

> <Shape>
0.156

> <Color>
0.118

> <Negative vol penalty>
0.000

$$$$

  -OEChem-04052321023D

 88 96  0     1  0  0  0  0  0999 V2000
  -24.6643  -29.4100   25.0785 C   0  0  0  0  0  0  0  0  0  0  0  0
  -24.8398  -28.0908   24.6729 C   0  0  0  0  0  0  0  0  0  0  0  0
  -21.3996  -20.1214   17.5241 C   0  0  0  0  0  0  0  0  0  0  0  0
  -21.0695  -19.9548   19.9117 C   0  0  0  0  0  0  0  0  0  0  0  0
  -25.2087  -30.4484   24.3240 C   0  0  0  0  0  0  0  0  0  0  0  0
  -25.5591  -27.8094   23.5119 C   0  0  0  0  0  0  0  0  0  0  0  0
  -29.1844  -22.9768   22.5075 C   0  0  0  0  0  0  0  0  0  0  0  0
  -29.5901  -15.2054   22.0165 C   0  0  0  0  0  0  0  0  0  0  0  0
  -20.2748  -20.9404   17.4257 C   0  0  0  0  0  0  0  0  0  0  0  0
  -19.9447  -20.7738   19.8133 C   0  0  0  0  0  0  0  0  0  0  0  0
  -28.9742  -21.7681   21.8452 C   0  0  0  0  0  0  0  0  0  0  0  0
  -30.0184  -16.4884   21.6760 C   0  0  0  0  0  0  0  0  0  0  0  0
  -19.2882  -24.0742   19.5018 C   0  0  0  0  0  0  0  0  0  0  0  0
  -19.1507  -25.0990   20.4380 C   0  0  0  0  0  0  0  0  0  0  0  0
  -29.9643  -22.6958   19.8507 C   0  0  0  0  0  0  0  0  0  0  0  0
  -29.9582  -15.8876   19.3366 C   0  0  0  0  0  0  0  0  0  0  0  0
  -17.0599  -24.1416   21.1790 C   0  0  0  0  0  0  0  0  0  0  0  0
  -21.7970  -19.6286   18.7671 C   0  0  0  0  0  0  0  0  0  0  0  0
  -24.2898  -19.1875   19.0818 C   0  0  0  0  0  0  0  0  0  0  0  0
  -25.9432  -30.1790   23.1584 C   0  0  0  0  0  0  0  0  0  0  0  0
  -29.7772  -24.0594   21.8420 C   0  0  0  0  0  0  0  0  0  0  0  0
  -26.1127  -28.8452   22.7404 C   0  0  0  0  0  0  0  0  0  0  0  0
  -30.1832  -23.9163   20.5075 C   0  0  0  0  0  0  0  0  0  0  0  0
  -29.3458  -14.2634   21.0171 C   0  0  0  0  0  0  0  0  0  0  0  0
  -29.5299  -14.6046   19.6771 C   0  0  0  0  0  0  0  0  0  0  0  0
  -19.5474  -21.2666   18.5703 C   0  0  0  0  0  0  0  0  0  0  0  0
  -29.3615  -21.6284   20.5158 C   0  0  0  0  0  0  0  0  0  0  0  0
  -30.2024  -16.8295   20.3360 C   0  0  0  0  0  0  0  0  0  0  0  0
  -18.3115  -23.0831   19.4041 C   0  0  0  0  0  0  0  0  0  0  0  0
  -18.0366  -25.1327   21.2766 C   0  0  0  0  0  0  0  0  0  0  0  0
  -17.1974  -23.1168   20.2427 C   0  0  0  0  0  0  0  0  0  0  0  0
  -22.9585  -18.7821   18.8693 C   0  0  0  0  0  0  0  0  0  0  0  0
  -25.0066  -18.0160   19.1000 C   0  0  0  0  0  0  0  0  0  0  0  0
  -24.8301  -20.5051   19.2480 C   0  0  0  0  0  0  0  0  0  0  0  0
  -28.8512  -27.0030   21.0792 C   0  0  0  0  0  0  0  0  0  0  0  0
  -31.9267  -27.2948   20.0901 C   0  0  0  0  0  0  0  0  0  0  0  0
  -34.7780  -25.7665   19.0033 C   0  0  0  0  0  0  0  0  0  0  0  0
  -25.6369  -12.7211   20.7469 C   0  0  0  0  0  0  0  0  0  0  0  0
  -26.4725  -31.3370   22.3500 C   0  0  0  0  0  0  0  0  0  0  0  0
  -30.0213  -25.3480   22.5785 C   0  0  0  0  0  0  0  0  0  0  0  0
  -30.8422  -25.0417   19.7541 C   0  0  0  0  0  0  0  0  0  0  0  0
  -27.5400  -30.9344   21.3358 C   0  0  0  0  0  0  0  0  0  0  0  0
  -23.6494  -13.3059   17.8513 C   0  0  0  0  0  0  0  0  0  0  0  0
  -27.1007  -29.6956   20.5618 C   0  0  0  0  0  0  0  0  0  0  0  0
  -23.3974  -14.8144   17.8792 C   0  0  0  0  0  0  0  0  0  0  0  0
  -23.6580  -12.7091   19.2569 C   0  0  0  0  0  0  0  0  0  0  0  0
  -24.3308  -14.8712   20.2296 C   0  0  0  0  0  0  0  0  0  0  0  0
  -26.9077  -28.4984   21.5003 C   0  0  1  0  0  0  0  0  0  0  0  0
  -30.1653  -26.5493   21.6493 C   0  0  1  0  0  0  0  0  0  0  0  0
  -24.3688  -15.5276   18.8389 C   0  0  2  0  0  0  0  0  0  0  0  0
  -37.1139  -26.2704   18.2371 C   0  0  0  0  0  0  0  0  0  0  0  0
  -33.2697  -11.8888   19.3719 C   0  0  0  0  0  0  0  0  0  0  0  0
  -33.8946  -12.9025   17.1457 C   0  0  0  0  0  0  0  0  0  0  0  0
  -30.8400  -28.2190   17.3928 C   0  0  0  0  0  0  0  0  0  0  0  0
  -33.1039  -27.7914   16.4128 C   0  0  0  0  0  0  0  0  0  0  0  0
  -32.8272  -29.4983   18.2107 C   0  0  0  0  0  0  0  0  0  0  0  0
  -35.9659  -24.2129   21.2246 C   0  0  0  0  0  0  0  0  0  0  0  0
  -28.8879  -12.8963   21.4062 C   0  0  0  0  0  0  0  0  0  0  0  0
  -29.2758  -13.6125   18.5902 C   0  0  0  0  0  0  0  0  0  0  0  0
  -27.6064  -12.8960   22.2468 C   0  0  0  0  0  0  0  0  0  0  0  0
  -30.3677  -12.5528   18.4439 C   0  0  0  0  0  0  0  0  0  0  0  0
  -30.0807  -20.1082   18.8342 C   0  0  0  0  0  0  0  0  0  1  0  0
  -30.1888  -18.5982   18.7462 C   0  0  0  0  0  0  0  0  0  0  0  0
  -32.6617  -27.0442   18.7955 C   0  0  1  0  0  0  0  0  0  0  0  0
  -36.2282  -25.9237   19.4237 C   0  0  2  0  0  0  0  0  0  0  0  0
  -32.8005  -12.2433   17.9700 C   0  0  0  0  0  0  0  0  0  0  0  0
  -32.3441  -28.1175   17.7163 C   0  0  0  0  0  0  0  0  0  0  0  0
  -22.8342  -17.4567   18.7601 N   0  0  0  0  0  0  0  0  0  0  0  0
  -24.0967  -17.0191   18.9046 N   0  0  0  0  0  0  0  0  0  0  0  0
  -31.0536  -26.2838   20.5158 N   0  0  0  0  0  0  0  0  0  0  0  0
  -24.6006  -13.4293   20.1163 N   0  0  0  0  0  0  0  0  0  0  0  0
  -26.3203  -17.7518   19.2640 N   0  0  0  0  0  0  0  0  0  0  0  0
  -23.9532  -21.5975   19.2023 N   0  0  0  0  0  0  0  0  0  0  0  0
  -28.1877  -27.9283   21.8622 N   0  0  0  0  0  0  0  0  0  0  0  0
  -34.0755  -26.9449   19.1414 N   0  0  0  0  0  0  0  0  0  0  0  0
  -26.4895  -13.4807   21.5387 N   0  0  0  0  0  0  0  0  0  0  0  0
  -36.7311  -24.6596   20.0321 N   0  3  0  0  0  0  0  0  0  0  0  0
  -31.6574  -13.1900   18.0804 N   0  3  0  0  0  0  0  0  0  0  0  0
  -26.0564  -20.7089   19.4153 O   0  0  0  0  0  0  0  0  0  0  0  0
  -28.4683  -26.5483   20.0076 O   0  0  0  0  0  0  0  0  0  0  0  0
  -32.1255  -28.3457   20.7047 O   0  0  0  0  0  0  0  0  0  0  0  0
  -34.3156  -24.7054   18.5899 O   0  0  0  0  0  0  0  0  0  0  0  0
  -25.7940  -11.5032   20.6100 O   0  0  0  0  0  0  0  0  0  0  0  0
  -18.4498  -22.0659   18.4747 O   0  0  0  0  0  0  0  0  0  0  0  0
  -29.1569  -20.4499   19.8667 O   0  0  0  0  0  0  0  0  0  1  0  0
  -30.6236  -18.0896   20.0014 O   0  0  0  0  0  0  0  0  0  0  0  0
  -17.9055  -26.1160   22.1766 F   0  0  0  0  0  0  0  0  0  0  0  0
  -16.2564  -22.1668   20.1544 F   0  0  0  0  0  0  0  0  0  0  0  0
  1  2  1  0  0  0  0
  1  5  2  0  0  0  0
  2  6  2  0  0  0  0
  3  9  2  0  0  0  0
  3 18  1  0  0  0  0
  4 10  1  0  0  0  0
  4 18  2  0  0  0  0
  5 20  1  0  0  0  0
  6 22  1  0  0  0  0
  7 11  2  0  0  0  0
  7 21  1  0  0  0  0
  8 12  2  0  0  0  0
  8 24  1  0  0  0  0
  9 26  1  0  0  0  0
 10 26  2  0  0  0  0
 11 27  1  0  0  0  0
 12 28  1  0  0  0  0
 13 14  2  0  0  0  0
 13 29  1  0  0  0  0
 14 30  1  0  0  0  0
 15 23  1  0  0  0  0
 15 27  2  0  0  0  0
 16 25  1  0  0  0  0
 16 28  2  0  0  0  0
 17 30  2  0  0  0  0
 17 31  1  0  0  0  0
 18 32  1  0  0  0  0
 19 32  1  0  0  0  0
 19 33  2  0  0  0  0
 19 34  1  0  0  0  0
 20 22  2  0  0  0  0
 20 39  1  0  0  0  0
 21 23  2  0  0  0  0
 21 40  1  0  0  0  0
 22 48  1  0  0  0  0
 23 41  1  0  0  0  0
 24 25  2  0  0  0  0
 24 58  1  0  0  0  0
 25 59  1  0  0  0  0
 26 84  1  0  0  0  0
 27 85  1  0  0  0  0
 28 86  1  0  0  0  0
 29 31  2  0  0  0  0
 29 84  1  0  0  0  0
 30 87  1  0  0  0  0
 31 88  1  0  0  0  0
 32 68  2  0  0  0  0
 33 69  1  0  0  0  0
 33 72  1  0  0  0  0
 34 73  1  0  0  0  0
 34 79  2  0  0  0  0
 35 49  1  0  0  0  0
 35 74  1  0  0  0  0
 35 80  2  0  0  0  0
 36 64  1  0  0  0  0
 36 70  1  0  0  0  0
 36 81  2  0  0  0  0
 37 65  1  0  0  0  0
 37 75  1  0  0  0  0
 37 82  2  0  0  0  0
 38 71  1  0  0  0  0
 38 76  1  0  0  0  0
 38 83  2  0  0  0  0
 39 42  1  0  0  0  0
 40 49  1  0  0  0  0
 41 70  1  0  0  0  0
 42 44  1  0  0  0  0
 43 45  1  0  0  0  0
 43 46  1  0  0  0  0
 44 48  1  0  0  0  0
 45 50  1  0  0  0  0
 46 71  1  0  0  0  0
 47 50  1  0  0  0  0
 47 71  1  0  0  0  0
 48 74  1  0  0  0  0
 49 70  1  0  0  0  0
 50 69  1  0  0  0  0
 51 65  1  0  0  0  0
 52 66  1  0  0  0  0
 53 66  1  0  0  0  0
 54 67  1  0  0  0  0
 55 67  1  0  0  0  0
 56 67  1  0  0  0  0
 57 77  1  0  0  0  0
 58 60  1  0  0  0  0
 59 61  1  0  0  0  0
 60 76  1  0  0  0  0
 61 78  1  0  0  0  0
 62 63  1  0  0  0  0
 62 85  1  0  0  0  0
 63 86  1  0  0  0  0
 64 67  1  0  0  0  0
 64 75  1  0  0  0  0
 65 77  1  0  0  0  0
 66 78  1  0  0  0  0
 68 69  1  0  0  0  0
M  CHG  2  77   1  78   1
M  ISO  4  38 100  62 101  76 100  85 101
M  END
> <Batch ID>
0136

> <Smiles>
CNC(C)C(=O)NC(C(=O)N1Cc2cc([101O:1][101CH2:1]COc3ccc(CC[100NH:0][100C:0](=O)N4CCCC(n5nc(-c6ccc(Oc7ccc(F)cc7F)cc6)c(C(N)=O)c5N)C4)c(CCNC(C)C)c3)ccc2CC1C(=O)NC1CCCc2ccccc21)C(C)(C)C

> <Shape>
0.200

> <Color>
0.068

> <Negative vol penalty>
0.000

$$$$

  -OEChem-04052321023D

 85 93  0     1  0  0  0  0  0999 V2000
  -26.9288  -21.4885   13.1165 C   0  0  0  0  0  0  0  0  0  0  0  0
  -26.4900  -20.8005   14.2433 C   0  0  0  0  0  0  0  0  0  0  0  0
  -22.9189  -12.9642   20.3080 C   0  0  0  0  0  0  0  0  0  0  0  0
  -23.3701  -13.8765   22.4992 C   0  0  0  0  0  0  0  0  0  0  0  0
  -27.5956  -22.7046   13.2595 C   0  0  0  0  0  0  0  0  0  0  0  0
  -26.7186  -21.3278   15.5138 C   0  0  0  0  0  0  0  0  0  0  0  0
  -23.7736  -21.6543   22.0358 C   0  0  0  0  0  0  0  0  0  0  0  0
  -22.4684  -11.7810   20.8934 C   0  0  0  0  0  0  0  0  0  0  0  0
  -22.9195  -12.6933   23.0846 C   0  0  0  0  0  0  0  0  0  0  0  0
  -24.0880  -21.4146   23.3727 C   0  0  0  0  0  0  0  0  0  0  0  0
  -21.5364   -8.3847   21.7992 C   0  0  0  0  0  0  0  0  0  0  0  0
  -21.9723   -7.1798   21.2481 C   0  0  0  0  0  0  0  0  0  0  0  0
  -28.4267  -21.1399   24.2460 C   0  0  0  0  0  0  0  0  0  0  0  0
  -25.1803  -23.5620   23.4946 C   0  0  0  0  0  0  0  0  0  0  0  0
  -29.7100  -18.7225   24.7862 C   0  0  0  0  0  0  0  0  0  0  0  0
  -24.2621   -7.7967   21.7102 C   0  0  0  0  0  0  0  0  0  0  0  0
  -23.3698  -14.0119   21.1109 C   0  0  0  0  0  0  0  0  0  0  0  0
  -29.1072  -20.4692   23.2298 C   0  0  0  0  0  0  0  0  0  0  0  0
  -23.0697  -16.3723   20.1909 C   0  0  0  0  0  0  0  0  0  0  0  0
  -27.8240  -23.2518   14.5319 C   0  0  0  0  0  0  0  0  0  0  0  0
  -24.1704  -22.8470   21.4141 C   0  0  0  0  0  0  0  0  0  0  0  0
  -27.3902  -22.5518   15.6739 C   0  0  0  0  0  0  0  0  0  0  0  0
  -24.8675  -23.8155   22.1504 C   0  0  0  0  0  0  0  0  0  0  0  0
  -28.3879  -20.6019   25.5324 C   0  0  0  0  0  0  0  0  0  0  0  0
  -29.7488  -19.2605   23.4999 C   0  0  0  0  0  0  0  0  0  0  0  0
  -29.0296  -19.3932   25.8025 C   0  0  0  0  0  0  0  0  0  0  0  0
  -22.4687  -11.6455   22.2817 C   0  0  0  0  0  0  0  0  0  0  0  0
  -24.7939  -22.3673   24.1016 C   0  0  0  0  0  0  0  0  0  0  0  0
  -22.4634   -9.2957   22.3057 C   0  0  0  0  0  0  0  0  0  0  0  0
  -23.3351   -6.8858   21.2036 C   0  0  0  0  0  0  0  0  0  0  0  0
  -23.8261   -9.0017   22.2613 C   0  0  0  0  0  0  0  0  0  0  0  0
  -23.8358  -15.2342   20.5068 C   0  0  0  0  0  0  0  0  0  0  0  0
  -23.9708  -17.2507   19.6405 C   0  0  0  0  0  0  0  0  0  0  0  0
  -29.1320  -21.0532   21.8955 C   0  0  0  0  0  0  0  0  0  0  0  0
  -21.6689  -16.6138   20.3783 C   0  0  0  0  0  0  0  0  0  0  0  0
  -26.0581  -23.5791   18.9637 C   0  0  0  0  0  0  0  0  0  0  0  0
  -24.9449  -26.5773   19.5056 C   0  0  0  0  0  0  0  0  0  0  0  0
  -23.5824  -28.8097   21.6981 C   0  0  0  0  0  0  0  0  0  0  0  0
  -29.9350  -17.7291   20.2560 C   0  0  0  0  0  0  0  0  0  0  0  0
  -28.5908  -24.5461   14.6385 C   0  0  0  0  0  0  0  0  0  0  0  0
  -23.8002  -23.1019   19.9787 C   0  0  0  0  0  0  0  0  0  0  0  0
  -25.2986  -25.1209   21.5352 C   0  0  0  0  0  0  0  0  0  0  0  0
  -28.4625  -25.2196   16.0024 C   0  0  0  0  0  0  0  0  0  0  0  0
  -28.0684  -17.3851   17.1905 C   0  0  0  0  0  0  0  0  0  0  0  0
  -28.6654  -24.2027   17.1211 C   0  0  0  0  0  0  0  0  0  0  0  0
  -26.7143  -16.8593   17.6655 C   0  0  0  0  0  0  0  0  0  0  0  0
  -29.2086  -16.8513   18.0516 C   0  0  0  0  0  0  0  0  0  0  0  0
  -27.6839  -16.6040   19.9934 C   0  0  0  0  0  0  0  0  0  0  0  0
  -27.5975  -23.1034   17.0678 C   0  0  1  0  0  0  0  0  0  0  0  0
  -24.7019  -24.1301   19.3026 C   0  0  1  0  0  0  0  0  0  0  0  0
  -26.5063  -17.1438   19.1637 C   0  0  2  0  0  0  0  0  0  0  0  0
  -29.0014  -18.7978   27.1719 C   0  0  0  0  0  0  0  0  0  0  0  0
  -29.7436  -22.4149   21.7483 C   0  0  0  0  0  0  0  0  0  0  0  0
  -22.8196  -31.1948   21.8618 C   0  0  0  0  0  0  0  0  0  0  0  0
  -27.8512  -27.4939   19.6581 C   0  0  0  0  0  0  0  0  0  0  0  0
  -27.0553  -29.6067   20.7402 C   0  0  0  0  0  0  0  0  0  0  0  0
  -26.3313  -29.0465   18.4196 C   0  0  0  0  0  0  0  0  0  0  0  0
  -20.8053  -28.0001   22.3235 C   0  0  0  0  0  0  0  0  0  0  0  0
  -27.6464  -21.3449   26.6149 C   0  0  0  0  0  0  0  0  0  0  0  0
  -30.4853  -18.5221   22.4301 C   0  0  0  0  0  0  0  0  0  0  0  0
  -26.2844  -20.7370   26.9570 C   0  0  0  0  0  0  0  0  0  0  0  0
  -25.2968  -20.7767   25.7966 C   0  0  0  0  0  0  0  0  0  1  0  0
  -25.3801  -27.7404   20.3641 C   0  0  1  0  0  0  0  0  0  0  0  0
  -22.4069  -29.7611   21.5667 C   0  0  2  0  0  0  0  0  0  0  0  0
  -26.6482  -28.4466   19.8068 C   0  0  0  0  0  0  0  0  0  0  0  0
  -25.1243  -15.3740   20.1838 N   0  0  0  0  0  0  0  0  0  0  0  0
  -25.1748  -16.6103   19.6592 N   0  0  0  0  0  0  0  0  0  0  0  0
  -24.9185  -25.3207   20.1269 N   0  0  0  0  0  0  0  0  0  0  0  0
  -28.9620  -17.1029   19.4709 N   0  0  0  0  0  0  0  0  0  0  0  0
  -23.8427  -18.5008   19.1472 N   0  0  0  0  0  0  0  0  0  0  0  0
  -20.8887  -15.6044   20.9584 N   0  0  0  0  0  0  0  0  0  0  0  0
  -26.3469  -23.5868   17.6124 N   0  0  0  0  0  0  0  0  0  0  0  0
  -24.2172  -28.6123   20.4901 N   0  0  0  0  0  0  0  0  0  0  0  0
  -21.3229  -29.3793   22.5156 N   0  3  0  0  0  0  0  0  0  0  0  0
  -28.6845  -20.5143   20.8826 O   0  0  0  0  0  0  0  0  0  0  0  0
  -21.1222  -17.6865   20.0262 O   0  0  0  0  0  0  0  0  0  0  0  0
  -26.7889  -23.1781   19.8619 O   0  0  0  0  0  0  0  0  0  0  0  0
  -24.6329  -26.7776   18.3291 O   0  0  0  0  0  0  0  0  0  0  0  0
  -23.9075  -28.2961   22.7663 O   0  0  0  0  0  0  0  0  0  0  0  0
  -31.0288  -18.1029   19.8362 O   0  0  0  0  0  0  0  0  0  0  0  0
  -22.0290  -10.4912   22.8533 O   0  0  0  0  0  0  0  0  0  0  0  0
  -25.1027  -22.1356   25.4065 O   0  0  0  0  0  0  0  0  0  1  0  0
  -29.5424  -17.8871   21.5587 O   0  0  0  0  0  0  0  0  0  0  0  0
  -23.7534   -5.7279   20.6758 F   0  0  0  0  0  0  0  0  0  0  0  0
  -24.7213   -9.8724   22.7475 F   0  0  0  0  0  0  0  0  0  0  0  0
  1  2  1  0  0  0  0
  1  5  2  0  0  0  0
  2  6  2  0  0  0  0
  3  8  2  0  0  0  0
  3 17  1  0  0  0  0
  4  9  1  0  0  0  0
  4 17  2  0  0  0  0
  5 20  1  0  0  0  0
  6 22  1  0  0  0  0
  7 10  2  0  0  0  0
  7 21  1  0  0  0  0
  8 27  1  0  0  0  0
  9 27  2  0  0  0  0
 10 28  1  0  0  0  0
 11 12  2  0  0  0  0
 11 29  1  0  0  0  0
 12 30  1  0  0  0  0
 13 18  2  0  0  0  0
 13 24  1  0  0  0  0
 14 23  1  0  0  0  0
 14 28  2  0  0  0  0
 15 25  2  0  0  0  0
 15 26  1  0  0  0  0
 16 30  2  0  0  0  0
 16 31  1  0  0  0  0
 17 32  1  0  0  0  0
 18 25  1  0  0  0  0
 18 34  1  0  0  0  0
 19 32  1  0  0  0  0
 19 33  2  0  0  0  0
 19 35  1  0  0  0  0
 20 22  2  0  0  0  0
 20 40  1  0  0  0  0
 21 23  2  0  0  0  0
 21 41  1  0  0  0  0
 22 49  1  0  0  0  0
 23 42  1  0  0  0  0
 24 26  2  0  0  0  0
 24 59  1  0  0  0  0
 25 60  1  0  0  0  0
 26 52  1  0  0  0  0
 27 81  1  0  0  0  0
 28 82  1  0  0  0  0
 29 31  2  0  0  0  0
 29 81  1  0  0  0  0
 30 84  1  0  0  0  0
 31 85  1  0  0  0  0
 32 66  2  0  0  0  0
 33 67  1  0  0  0  0
 33 70  1  0  0  0  0
 34 53  1  0  0  0  0
 34 75  2  0  0  0  0
 35 71  1  0  0  0  0
 35 76  2  0  0  0  0
 36 50  1  0  0  0  0
 36 72  1  0  0  0  0
 36 77  2  0  0  0  0
 37 63  1  0  0  0  0
 37 68  1  0  0  0  0
 37 78  2  0  0  0  0
 38 64  1  0  0  0  0
 38 73  1  0  0  0  0
 38 79  2  0  0  0  0
 39 69  1  0  0  0  0
 39 80  2  0  0  0  0
 39 83  1  0  0  0  0
 40 43  1  0  0  0  0
 41 50  1  0  0  0  0
 42 68  1  0  0  0  0
 43 45  1  0  0  0  0
 44 46  1  0  0  0  0
 44 47  1  0  0  0  0
 45 49  1  0  0  0  0
 46 51  1  0  0  0  0
 47 69  1  0  0  0  0
 48 51  1  0  0  0  0
 48 69  1  0  0  0  0
 49 72  1  0  0  0  0
 50 68  1  0  0  0  0
 51 67  1  0  0  0  0
 54 64  1  0  0  0  0
 55 65  1  0  0  0  0
 56 65  1  0  0  0  0
 57 65  1  0  0  0  0
 58 74  1  0  0  0  0
 59 61  1  0  0  0  0
 60 83  1  0  0  0  0
 61 62  1  0  0  0  0
 62 82  1  0  0  0  0
 63 65  1  0  0  0  0
 63 73  1  0  0  0  0
 64 74  1  0  0  0  0
 66 67  1  0  0  0  0
M  CHG  1  74   1
M  ISO  4  39 100  62 101  82 101  83 100
M  END
> <Batch ID>
0136

> <Smiles>
CNC(C)C(=O)NC(C(=O)N1Cc2cc([101O:1][101CH2:1]CCc3cc(C(C)=O)c(C[100O:0][100C:0](=O)N4CCCC(n5nc(-c6ccc(Oc7ccc(F)cc7F)cc6)c(C(N)=O)c5N)C4)cc3C)ccc2CC1C(=O)NC1CCCc2ccccc21)C(C)(C)C

> <Shape>
0.180

> <Color>
0.064

> <Negative vol penalty>
0.000

$$$$

  -OEChem-04052321023D

 84 93  0     1  0  0  0  0  0999 V2000
  -29.1320  -33.1152   17.4995 C   0  0  0  0  0  0  0  0  0  0  0  0
  -29.6977  -31.8990   17.1303 C   0  0  0  0  0  0  0  0  0  0  0  0
  -23.3577  -15.6265   21.1682 C   0  0  0  0  0  0  0  0  0  0  0  0
  -22.6082  -14.4571   19.1914 C   0  0  0  0  0  0  0  0  0  0  0  0
  -28.3741  -33.2045   18.6663 C   0  0  0  0  0  0  0  0  0  0  0  0
  -29.5068  -30.7716   17.9284 C   0  0  0  0  0  0  0  0  0  0  0  0
  -31.6890  -18.0732   22.0177 C   0  0  0  0  0  0  0  0  0  0  0  0
  -29.5763  -16.9057   22.1198 C   0  0  0  0  0  0  0  0  0  0  0  0
  -28.7909  -23.6591   17.4644 C   0  0  0  0  0  0  0  0  0  0  0  0
  -31.0282  -19.2338   21.6151 C   0  0  0  0  0  0  0  0  0  0  0  0
  -28.9155  -18.0663   21.7173 C   0  0  0  0  0  0  0  0  0  0  0  0
  -22.3953  -16.6123   20.9500 C   0  0  0  0  0  0  0  0  0  0  0  0
  -21.6458  -15.4429   18.9732 C   0  0  0  0  0  0  0  0  0  0  0  0
  -29.3255  -22.4859   17.9950 C   0  0  0  0  0  0  0  0  0  0  0  0
  -19.8977  -19.2485   21.1150 C   0  0  0  0  0  0  0  0  0  0  0  0
  -19.1511  -19.6800   22.2114 C   0  0  0  0  0  0  0  0  0  0  0  0
  -27.9315  -22.7408   19.9472 C   0  0  0  0  0  0  0  0  0  0  0  0
  -18.3245  -17.4327   22.5330 C   0  0  0  0  0  0  0  0  0  0  0  0
  -23.4642  -14.5489   20.2889 C   0  0  0  0  0  0  0  0  0  0  0  0
  -24.3116  -12.3505   21.2670 C   0  0  0  0  0  0  0  0  0  0  0  0
  -30.9630  -16.9091   22.2700 C   0  0  0  0  0  0  0  0  0  0  0  0
  -28.1658  -32.0755   19.4741 C   0  0  0  0  0  0  0  0  0  0  0  0
  -27.8289  -24.3890   18.1773 C   0  0  0  0  0  0  0  0  0  0  0  0
  -28.7465  -30.8463   19.1079 C   0  0  0  0  0  0  0  0  0  0  0  0
  -27.3844  -23.9216   19.4223 C   0  0  0  0  0  0  0  0  0  0  0  0
  -29.6415  -19.2303   21.4650 C   0  0  0  0  0  0  0  0  0  0  0  0
  -21.5393  -16.5205   19.8525 C   0  0  0  0  0  0  0  0  0  0  0  0
  -28.8979  -22.0281   19.2379 C   0  0  0  0  0  0  0  0  0  0  0  0
  -19.8576  -17.9091   20.7276 C   0  0  0  0  0  0  0  0  0  0  0  0
  -18.3645  -18.7721   22.9204 C   0  0  0  0  0  0  0  0  0  0  0  0
  -19.0710  -17.0012   21.4366 C   0  0  0  0  0  0  0  0  0  0  0  0
  -24.4585  -13.5306   20.5135 C   0  0  0  0  0  0  0  0  0  0  0  0
  -25.5322  -11.7280   21.1715 C   0  0  0  0  0  0  0  0  0  0  0  0
  -23.1736  -11.8608   21.9887 C   0  0  0  0  0  0  0  0  0  0  0  0
  -27.6912  -27.3177   19.4051 C   0  0  0  0  0  0  0  0  0  0  0  0
  -24.6167  -26.4912   20.0267 C   0  0  0  0  0  0  0  0  0  0  0  0
  -22.3328  -24.0098   20.5500 C   0  0  0  0  0  0  0  0  0  0  0  0
  -30.9526  -14.0876   20.8921 C   0  0  0  0  0  0  0  0  0  0  0  0
  -27.3785  -32.2318   20.7510 C   0  0  0  0  0  0  0  0  0  0  0  0
  -27.2425  -25.6383   17.5791 C   0  0  0  0  0  0  0  0  0  0  0  0
  -26.3390  -24.6576   20.2185 C   0  0  0  0  0  0  0  0  0  0  0  0
  -26.9116  -30.9053   21.3449 C   0  0  0  0  0  0  0  0  0  0  0  0
  -29.5040  -12.5691   18.1655 C   0  0  0  0  0  0  0  0  0  0  0  0
  -28.0538  -29.8944   21.3573 C   0  0  0  0  0  0  0  0  0  0  0  0
  -28.0724  -12.9057   18.6009 C   0  0  0  0  0  0  0  0  0  0  0  0
  -31.7620  -13.9932   24.4443 C   0  0  0  0  0  0  0  0  0  0  0  0
  -30.4235  -12.2409   19.3403 C   0  0  0  0  0  0  0  0  0  0  0  0
  -30.8087  -13.4976   23.3674 C   0  0  0  0  0  0  0  0  0  0  0  0
  -28.7323  -12.8570   21.0438 C   0  0  0  0  0  0  0  0  0  0  0  0
  -31.6798  -15.6484   22.7072 C   0  0  1  0  0  0  0  0  0  0  0  0
  -28.5413  -29.5954   19.9345 C   0  0  1  0  0  0  0  0  0  0  0  0
  -26.6442  -26.5766   18.6227 C   0  0  1  0  0  0  0  0  0  0  0  0
  -31.7449  -15.5089   24.2420 C   0  0  2  0  0  0  0  0  0  0  0  0
  -27.7483  -12.3149   19.9833 C   0  0  1  0  0  0  0  0  0  0  0  0
  -19.9054  -23.6447   21.0713 C   0  0  0  0  0  0  0  0  0  0  0  0
  -25.1257  -27.2719   22.9321 C   0  0  0  0  0  0  0  0  0  0  0  0
  -23.0494  -26.0212   23.5590 C   0  0  0  0  0  0  0  0  0  0  0  0
  -22.9050  -27.9891   22.0328 C   0  0  0  0  0  0  0  0  0  0  0  0
  -21.8929  -22.5328   18.0234 C   0  0  0  0  0  0  0  0  0  0  0  0
  -28.9355  -20.4722   21.0361 C   0  0  0  0  0  0  0  0  0  1  0  0
  -32.9549  -16.1932   24.8609 C   0  0  0  0  0  0  0  0  0  0  0  0
  -23.8998  -25.8278   21.1778 C   0  0  1  0  0  0  0  0  0  0  0  0
  -20.9484  -23.7769   19.9724 C   0  0  2  0  0  0  0  0  0  0  0  0
  -23.7661  -26.7644   22.4115 C   0  0  0  0  0  0  0  0  0  0  0  0
  -25.6764  -13.6527   19.9789 N   0  0  0  0  0  0  0  0  0  0  0  0
  -26.3059  -12.5415   20.3970 N   0  0  0  0  0  0  0  0  0  0  0  0
  -25.8006  -25.8772   19.5940 N   0  0  0  0  0  0  0  0  0  0  0  0
  -30.0912  -13.0473   20.5120 N   0  0  0  0  0  0  0  0  0  0  0  0
  -31.0113  -14.4178   22.2486 N   0  0  0  0  0  0  0  0  0  0  0  0
  -26.0084  -10.5696   21.6753 N   0  0  0  0  0  0  0  0  0  0  0  0
  -21.9990  -12.6254   21.9826 N   0  0  0  0  0  0  0  0  0  0  0  0
  -27.6293  -28.6913   19.2673 N   0  0  0  0  0  0  0  0  0  0  0  0
  -22.6264  -25.3536   20.6467 N   0  0  0  0  0  0  0  0  0  0  0  0
  -32.9458  -15.9556   26.3205 N   0  3  0  0  0  0  0  0  0  0  0  0
  -20.9309  -22.5306   19.1554 N   0  3  0  0  0  0  0  0  0  0  0  0
  -23.2028  -10.7854   22.6338 O   0  0  0  0  0  0  0  0  0  0  0  0
  -28.4948  -26.6899   20.0847 O   0  0  0  0  0  0  0  0  0  0  0  0
  -24.1399  -27.5123   19.5251 O   0  0  0  0  0  0  0  0  0  0  0  0
  -23.0777  -23.0917   20.8854 O   0  0  0  0  0  0  0  0  0  0  0  0
  -31.6310  -14.7011   20.0575 O   0  0  0  0  0  0  0  0  0  0  0  0
  -20.6000  -17.4821   19.6394 O   0  0  0  0  0  0  0  0  0  0  0  0
  -29.4221  -20.8757   19.7620 O   0  0  0  0  0  0  0  0  0  1  0  0
  -17.6489  -19.1863   23.9742 F   0  0  0  0  0  0  0  0  0  0  0  0
  -19.0294  -15.7129   21.0698 F   0  0  0  0  0  0  0  0  0  0  0  0
  1  2  1  0  0  0  0
  1  5  2  0  0  0  0
  2  6  2  0  0  0  0
  3 12  2  0  0  0  0
  3 19  1  0  0  0  0
  4 13  1  0  0  0  0
  4 19  2  0  0  0  0
  5 22  1  0  0  0  0
  6 24  1  0  0  0  0
  7 10  2  0  0  0  0
  7 21  1  0  0  0  0
  8 11  1  0  0  0  0
  8 21  2  0  0  0  0
  9 14  2  0  0  0  0
  9 23  1  0  0  0  0
 10 26  1  0  0  0  0
 11 26  2  0  0  0  0
 12 27  1  0  0  0  0
 13 27  2  0  0  0  0
 14 28  1  0  0  0  0
 15 16  2  0  0  0  0
 15 29  1  0  0  0  0
 16 30  1  0  0  0  0
 17 25  1  0  0  0  0
 17 28  2  0  0  0  0
 18 30  2  0  0  0  0
 18 31  1  0  0  0  0
 19 32  1  0  0  0  0
 20 32  1  0  0  0  0
 20 33  2  0  0  0  0
 20 34  1  0  0  0  0
 21 50  1  0  0  0  0
 22 24  2  0  0  0  0
 22 39  1  0  0  0  0
 23 25  2  0  0  0  0
 23 40  1  0  0  0  0
 24 51  1  0  0  0  0
 25 41  1  0  0  0  0
 26 60  1  0  0  0  0
 27 81  1  0  0  0  0
 28 82  1  0  0  0  0
 29 31  2  0  0  0  0
 29 81  1  0  0  0  0
 30 83  1  0  0  0  0
 31 84  1  0  0  0  0
 32 65  2  0  0  0  0
 33 66  1  0  0  0  0
 33 70  1  0  0  0  0
 34 71  1  0  0  0  0
 34 76  2  0  0  0  0
 35 52  1  0  0  0  0
 35 72  1  0  0  0  0
 35 77  2  0  0  0  0
 36 62  1  0  0  0  0
 36 67  1  0  0  0  0
 36 78  2  0  0  0  0
 37 63  1  0  0  0  0
 37 73  1  0  0  0  0
 37 79  2  0  0  0  0
 38 68  1  0  0  0  0
 38 69  1  0  0  0  0
 38 80  2  0  0  0  0
 39 42  1  0  0  0  0
 40 52  1  0  0  0  0
 41 67  1  0  0  0  0
 42 44  1  0  0  0  0
 43 45  1  0  0  0  0
 43 47  1  0  0  0  0
 44 51  1  0  0  0  0
 45 54  1  0  0  0  0
 46 48  1  0  0  0  0
 46 53  1  0  0  0  0
 47 68  1  0  0  0  0
 48 69  1  0  0  0  0
 49 54  1  0  0  0  0
 49 68  1  0  0  0  0
 50 53  1  0  0  0  0
 50 69  1  0  0  0  0
 51 72  1  0  0  0  0
 52 67  1  0  0  0  0
 53 61  1  0  0  0  0
 54 66  1  0  0  0  0
 55 63  1  0  0  0  0
 56 64  1  0  0  0  0
 57 64  1  0  0  0  0
 58 64  1  0  0  0  0
 59 75  1  0  0  0  0
 60 82  1  0  0  0  0
 61 74  1  0  0  0  0
 62 64  1  0  0  0  0
 62 73  1  0  0  0  0
 63 75  1  0  0  0  0
 65 66  1  0  0  0  0
M  CHG  2  74   1  75   1
M  ISO  4  38 100  60 101  69 100  82 101
M  END
> <Batch ID>
0136

> <Smiles>
CNC(C)C(=O)NC(C(=O)N1Cc2cc([101O:1][101CH2:1]c3ccc(C4C(CN)CC[100N:0]4[100C:0](=O)N4CCCC(n5nc(-c6ccc(Oc7ccc(F)cc7F)cc6)c(C(N)=O)c5N)C4)cc3)ccc2CC1C(=O)NC1CCCc2ccccc21)C(C)(C)C

> <Shape>
0.211

> <Color>
0.117

> <Negative vol penalty>
0.000

$$$$

  -OEChem-04052321023D

 87 95  0     1  0  0  0  0  0999 V2000
  -18.5108  -24.8151   22.5991 C   0  0  0  0  0  0  0  0  0  0  0  0
  -19.8613  -24.8626   22.2685 C   0  0  0  0  0  0  0  0  0  0  0  0
  -22.5473  -13.2733   21.3402 C   0  0  0  0  0  0  0  0  0  0  0  0
  -22.9520  -15.6469   21.1416 C   0  0  0  0  0  0  0  0  0  0  0  0
  -17.7553  -25.9869   22.6099 C   0  0  0  0  0  0  0  0  0  0  0  0
  -20.4569  -26.0818   21.9474 C   0  0  0  0  0  0  0  0  0  0  0  0
  -24.9515  -26.7005   24.1969 C   0  0  0  0  0  0  0  0  0  0  0  0
  -21.5592  -13.5215   22.2928 C   0  0  0  0  0  0  0  0  0  0  0  0
  -21.9638  -15.8951   22.0942 C   0  0  0  0  0  0  0  0  0  0  0  0
  -26.0399  -26.0303   23.6400 C   0  0  0  0  0  0  0  0  0  0  0  0
  -18.5887  -16.0261   22.2036 C   0  0  0  0  0  0  0  0  0  0  0  0
  -17.6773  -17.0482   21.9386 C   0  0  0  0  0  0  0  0  0  0  0  0
  -26.7242  -28.0665   22.5422 C   0  0  0  0  0  0  0  0  0  0  0  0
  -27.5906  -22.0488   20.3708 C   0  0  0  0  0  0  0  0  0  0  0  0
  -29.7122  -22.7647   19.4633 C   0  0  0  0  0  0  0  0  0  0  0  0
  -18.3848  -18.1985   23.9420 C   0  0  0  0  0  0  0  0  0  0  0  0
  -23.2438  -14.3360   20.7646 C   0  0  0  0  0  0  0  0  0  0  0  0
  -24.0986  -13.9921   18.3858 C   0  0  0  0  0  0  0  0  0  0  0  0
  -18.3442  -27.2225   22.2981 C   0  0  0  0  0  0  0  0  0  0  0  0
  -24.7348  -28.0583   23.9214 C   0  0  0  0  0  0  0  0  0  0  0  0
  -19.7083  -27.2710   21.9527 C   0  0  0  0  0  0  0  0  0  0  0  0
  -25.6337  -28.7522   23.0989 C   0  0  0  0  0  0  0  0  0  0  0  0
  -28.0083  -20.7199   20.2991 C   0  0  0  0  0  0  0  0  0  0  0  0
  -30.1300  -21.4358   19.3917 C   0  0  0  0  0  0  0  0  0  0  0  0
  -29.2780  -20.4134   19.8096 C   0  0  0  0  0  0  0  0  0  0  0  0
  -21.2674  -14.8324   22.6698 C   0  0  0  0  0  0  0  0  0  0  0  0
  -26.9248  -26.7126   22.8102 C   0  0  0  0  0  0  0  0  0  0  0  0
  -19.3981  -16.0901   23.3379 C   0  0  0  0  0  0  0  0  0  0  0  0
  -28.4425  -23.0712   19.9529 C   0  0  0  0  0  0  0  0  0  0  0  0
  -17.5754  -18.1344   22.8078 C   0  0  0  0  0  0  0  0  0  0  0  0
  -19.2962  -17.1763   24.2070 C   0  0  0  0  0  0  0  0  0  0  0  0
  -24.2651  -14.0803   19.7809 C   0  0  0  0  0  0  0  0  0  0  0  0
  -25.3598  -13.7377   17.9049 C   0  0  0  0  0  0  0  0  0  0  0  0
  -22.9103  -14.1282   17.5953 C   0  0  0  0  0  0  0  0  0  0  0  0
  -22.4156  -29.7206   22.5208 C   0  0  0  0  0  0  0  0  0  0  0  0
  -24.1712  -32.2621   23.5113 C   0  0  0  0  0  0  0  0  0  0  0  0
  -27.2145  -33.4953   24.4412 C   0  0  0  0  0  0  0  0  0  0  0  0
  -30.8405  -14.8648   20.0363 C   0  0  0  0  0  0  0  0  0  0  0  0
  -17.4762  -28.4557   22.2771 C   0  0  0  0  0  0  0  0  0  0  0  0
  -23.5711  -28.7733   24.5514 C   0  0  0  0  0  0  0  0  0  0  0  0
  -25.4570  -30.2153   22.7883 C   0  0  0  0  0  0  0  0  0  0  0  0
  -18.2700  -29.7595   22.2893 C   0  0  0  0  0  0  0  0  0  0  0  0
  -29.4993  -11.6877   19.1509 C   0  0  0  0  0  0  0  0  0  0  0  0
  -19.4097  -29.7001   21.2773 C   0  0  0  0  0  0  0  0  0  0  0  0
  -27.9907  -11.9326   19.0861 C   0  0  0  0  0  0  0  0  0  0  0  0
  -30.1548  -12.4957   20.2686 C   0  0  0  0  0  0  0  0  0  0  0  0
  -28.3663  -14.1883   20.1675 C   0  0  0  0  0  0  0  0  0  0  0  0
  -20.3961  -28.5779   21.6226 C   0  0  1  0  0  0  0  0  0  0  0  0
  -23.1583  -30.0292   23.7900 C   0  0  1  0  0  0  0  0  0  0  0  0
  -27.6694  -13.4378   19.0197 C   0  0  2  0  0  0  0  0  0  0  0  0
  -27.0738  -19.6462   20.7540 C   0  0  0  0  0  0  0  0  0  0  0  0
  -31.4956  -21.1382   18.8628 C   0  0  0  0  0  0  0  0  0  0  0  0
  -28.3441  -35.6183   25.1583 C   0  0  0  0  0  0  0  0  0  0  0  0
  -30.4962  -18.3949   21.9077 C   0  0  0  0  0  0  0  0  0  0  0  0
  -31.7438  -17.4682   18.3214 C   0  0  0  0  0  0  0  0  0  0  0  0
  -24.1313  -33.2549   20.6264 C   0  0  0  0  0  0  0  0  0  0  0  0
  -26.0136  -34.8007   21.2058 C   0  0  0  0  0  0  0  0  0  0  0  0
  -23.8091  -35.0396   22.3484 C   0  0  0  0  0  0  0  0  0  0  0  0
  -27.9843  -32.3395   27.0546 C   0  0  0  0  0  0  0  0  0  0  0  0
  -28.4521  -26.5229   20.9972 C   0  0  0  0  0  0  0  0  0  1  0  0
  -29.0430  -25.3555   20.2306 C   0  0  0  0  0  0  0  0  0  0  0  0
  -25.2970  -33.0781   22.9233 C   0  0  1  0  0  0  0  0  0  0  0  0
  -27.6359  -34.3541   25.6198 C   0  0  2  0  0  0  0  0  0  0  0  0
  -30.8492  -18.5780   20.4327 C   0  0  1  0  0  0  0  0  0  0  0  0
  -31.3693  -17.2770   19.7901 C   0  0  1  0  0  0  0  0  0  0  0  0
  -24.8153  -34.0153   21.7801 C   0  0  0  0  0  0  0  0  0  0  0  0
  -25.5321  -13.8966   20.1616 N   0  0  0  0  0  0  0  0  0  0  0  0
  -26.1732  -13.6904   18.9986 N   0  0  0  0  0  0  0  0  0  0  0  0
  -24.3005  -30.8688   23.4230 N   0  0  0  0  0  0  0  0  0  0  0  0
  -29.8118  -13.9147   20.1472 N   0  0  0  0  0  0  0  0  0  0  0  0
  -25.8411  -13.5520   16.6574 N   0  0  0  0  0  0  0  0  0  0  0  0
  -21.6986  -14.3888   18.2497 N   0  0  0  0  0  0  0  0  0  0  0  0
  -29.7015  -19.0661   19.7369 N   0  0  0  0  0  0  0  0  0  0  0  0
  -21.2624  -28.9830   22.7088 N   0  0  0  0  0  0  0  0  0  0  0  0
  -25.9244  -33.7737   24.0418 N   0  0  0  0  0  0  0  0  0  0  0  0
  -30.4285  -16.1866   19.9189 N   0  0  0  0  0  0  0  0  0  0  0  0
  -28.5604  -33.5956   26.5091 N   0  3  0  0  0  0  0  0  0  0  0  0
  -22.9197  -14.0055   16.3469 O   0  0  0  0  0  0  0  0  0  0  0  0
  -22.8555  -30.1232   21.4502 O   0  0  0  0  0  0  0  0  0  0  0  0
  -23.2159  -32.8395   24.0361 O   0  0  0  0  0  0  0  0  0  0  0  0
  -27.9569  -32.6636   23.9239 O   0  0  0  0  0  0  0  0  0  0  0  0
  -32.0373  -14.5572   20.0362 O   0  0  0  0  0  0  0  0  0  0  0  0
  -20.3030  -15.0749   23.5992 O   0  0  0  0  0  0  0  0  0  0  0  0
  -27.9875  -26.0607   22.2648 O   0  0  0  0  0  0  0  0  0  1  0  0
  -28.0322  -24.3765   20.0232 O   0  0  0  0  0  0  0  0  0  0  0  0
  -16.7012  -19.1166   22.5523 F   0  0  0  0  0  0  0  0  0  0  0  0
  -20.0720  -17.2439   25.2976 F   0  0  0  0  0  0  0  0  0  0  0  0
  1  2  1  0  0  0  0
  1  5  2  0  0  0  0
  2  6  2  0  0  0  0
  3  8  2  0  0  0  0
  3 17  1  0  0  0  0
  4  9  1  0  0  0  0
  4 17  2  0  0  0  0
  5 19  1  0  0  0  0
  6 21  1  0  0  0  0
  7 10  2  0  0  0  0
  7 20  1  0  0  0  0
  8 26  1  0  0  0  0
  9 26  2  0  0  0  0
 10 27  1  0  0  0  0
 11 12  2  0  0  0  0
 11 28  1  0  0  0  0
 12 30  1  0  0  0  0
 13 22  1  0  0  0  0
 13 27  2  0  0  0  0
 14 23  2  0  0  0  0
 14 29  1  0  0  0  0
 15 24  1  0  0  0  0
 15 29  2  0  0  0  0
 16 30  2  0  0  0  0
 16 31  1  0  0  0  0
 17 32  1  0  0  0  0
 18 32  1  0  0  0  0
 18 33  2  0  0  0  0
 18 34  1  0  0  0  0
 19 21  2  0  0  0  0
 19 39  1  0  0  0  0
 20 22  2  0  0  0  0
 20 40  1  0  0  0  0
 21 48  1  0  0  0  0
 22 41  1  0  0  0  0
 23 25  1  0  0  0  0
 23 51  1  0  0  0  0
 24 25  2  0  0  0  0
 24 52  1  0  0  0  0
 25 73  1  0  0  0  0
 26 83  1  0  0  0  0
 27 84  1  0  0  0  0
 28 31  2  0  0  0  0
 28 83  1  0  0  0  0
 29 85  1  0  0  0  0
 30 86  1  0  0  0  0
 31 87  1  0  0  0  0
 32 67  2  0  0  0  0
 33 68  1  0  0  0  0
 33 71  1  0  0  0  0
 34 72  1  0  0  0  0
 34 78  2  0  0  0  0
 35 49  1  0  0  0  0
 35 74  1  0  0  0  0
 35 79  2  0  0  0  0
 36 62  1  0  0  0  0
 36 69  1  0  0  0  0
 36 80  2  0  0  0  0
 37 63  1  0  0  0  0
 37 75  1  0  0  0  0
 37 81  2  0  0  0  0
 38 70  1  0  0  0  0
 38 76  1  0  0  0  0
 38 82  2  0  0  0  0
 39 42  1  0  0  0  0
 40 49  1  0  0  0  0
 41 69  1  0  0  0  0
 42 44  1  0  0  0  0
 43 45  1  0  0  0  0
 43 46  1  0  0  0  0
 44 48  1  0  0  0  0
 45 50  1  0  0  0  0
 46 70  1  0  0  0  0
 47 50  1  0  0  0  0
 47 70  1  0  0  0  0
 48 74  1  0  0  0  0
 49 69  1  0  0  0  0
 50 68  1  0  0  0  0
 53 63  1  0  0  0  0
 54 64  1  0  0  0  0
 55 65  1  0  0  0  0
 56 66  1  0  0  0  0
 57 66  1  0  0  0  0
 58 66  1  0  0  0  0
 59 77  1  0  0  0  0
 60 61  1  0  0  0  0
 60 84  1  0  0  0  0
 61 85  1  0  0  0  0
 62 66  1  0  0  0  0
 62 75  1  0  0  0  0
 63 77  1  0  0  0  0
 64 65  1  0  0  0  0
 64 73  1  0  0  0  0
 65 76  1  0  0  0  0
 67 68  1  0  0  0  0
M  CHG  1  77   1
M  ISO  4  38 100  60 101  76 100  84 101
M  END
> <Batch ID>
0136

> <Smiles>
CNC(C)C(=O)NC(C(=O)N1Cc2cc([101O:1][101CH2:1]COc3cc(C)c(NC(C)C(C)[100NH:0][100C:0](=O)N4CCCC(n5nc(-c6ccc(Oc7ccc(F)cc7F)cc6)c(C(N)=O)c5N)C4)c(C)c3)ccc2CC1C(=O)NC1CCCc2ccccc21)C(C)(C)C

> <Shape>
0.279

> <Color>
0.089

> <Negative vol penalty>
0.000

$$$$

  -OEChem-04052321023D

 83 92  0     1  0  0  0  0  0999 V2000
  -30.3767  -31.4829   25.8707 C   0  0  0  0  0  0  0  0  0  0  0  0
  -29.8701  -30.4605   25.0748 C   0  0  0  0  0  0  0  0  0  0  0  0
  -24.3698  -10.5234   23.5102 C   0  0  0  0  0  0  0  0  0  0  0  0
  -24.2779  -12.4648   24.9453 C   0  0  0  0  0  0  0  0  0  0  0  0
  -29.5062  -32.3753   26.4949 C   0  0  0  0  0  0  0  0  0  0  0  0
  -28.4924  -30.3293   24.9036 C   0  0  0  0  0  0  0  0  0  0  0  0
  -27.2063  -29.4839   20.0790 C   0  0  0  0  0  0  0  0  0  0  0  0
  -30.0359  -19.9566   20.0687 C   0  0  0  0  0  0  0  0  0  0  0  0
  -23.8842   -9.7313   24.5506 C   0  0  0  0  0  0  0  0  0  0  0  0
  -23.7923  -11.6727   25.9857 C   0  0  0  0  0  0  0  0  0  0  0  0
  -27.3830  -28.1902   19.5903 C   0  0  0  0  0  0  0  0  0  0  0  0
  -20.8998   -9.0769   25.9990 C   0  0  0  0  0  0  0  0  0  0  0  0
  -19.8879   -8.1643   25.7010 C   0  0  0  0  0  0  0  0  0  0  0  0
  -30.0442  -21.3420   19.9508 C   0  0  0  0  0  0  0  0  0  0  0  0
  -25.0312  -27.7561   19.9065 C   0  0  0  0  0  0  0  0  0  0  0  0
  -21.3122   -6.3501   26.4204 C   0  0  0  0  0  0  0  0  0  0  0  0
  -24.5667  -11.8902   23.7076 C   0  0  0  0  0  0  0  0  0  0  0  0
  -24.3141  -13.3921   21.6611 C   0  0  0  0  0  0  0  0  0  0  0  0
  -28.1176  -32.2609   26.3234 C   0  0  0  0  0  0  0  0  0  0  0  0
  -25.9407  -29.9206   20.4961 C   0  0  0  0  0  0  0  0  0  0  0  0
  -27.6025  -31.2202   25.5271 C   0  0  0  0  0  0  0  0  0  0  0  0
  -24.8407  -29.0566   20.3978 C   0  0  0  0  0  0  0  0  0  0  0  0
  -28.8376  -19.2615   19.9496 C   0  0  0  0  0  0  0  0  0  0  0  0
  -23.5954  -10.3060   25.7883 C   0  0  0  0  0  0  0  0  0  0  0  0
  -26.2959  -27.3251   19.5067 C   0  0  0  0  0  0  0  0  0  0  0  0
  -22.1180   -8.6261   26.5076 C   0  0  0  0  0  0  0  0  0  0  0  0
  -20.0940   -6.8009   25.9117 C   0  0  0  0  0  0  0  0  0  0  0  0
  -22.3241   -7.2627   26.7183 C   0  0  0  0  0  0  0  0  0  0  0  0
  -25.0688  -12.7088   22.6334 C   0  0  0  0  0  0  0  0  0  0  0  0
  -27.6843  -19.9926   19.7147 C   0  0  0  0  0  0  0  0  0  0  0  0
  -28.8369  -21.9800   19.7157 C   0  0  0  0  0  0  0  0  0  0  0  0
  -25.2516  -14.0178   20.8761 C   0  0  0  0  0  0  0  0  0  0  0  0
  -22.8928  -13.4556   21.4834 C   0  0  0  0  0  0  0  0  0  0  0  0
  -24.7080  -30.9210   23.2499 C   0  0  0  0  0  0  0  0  0  0  0  0
  -22.1012  -31.5239   21.4159 C   0  0  0  0  0  0  0  0  0  0  0  0
  -20.3290  -30.8310   18.5829 C   0  0  0  0  0  0  0  0  0  0  0  0
  -29.9119  -17.0107   20.3045 C   0  0  0  0  0  0  0  0  0  0  0  0
  -27.2141  -33.2206   27.0564 C   0  0  0  0  0  0  0  0  0  0  0  0
  -25.7616  -31.3279   20.9960 C   0  0  0  0  0  0  0  0  0  0  0  0
  -23.4574  -29.4834   20.8136 C   0  0  0  0  0  0  0  0  0  0  0  0
  -25.7844  -33.2402   26.5217 C   0  0  0  0  0  0  0  0  0  0  0  0
  -30.2829  -13.4919   20.7020 C   0  0  0  0  0  0  0  0  0  0  0  0
  -25.2680  -31.8182   26.3262 C   0  0  0  0  0  0  0  0  0  0  0  0
  -25.1079  -20.0427   19.8974 C   0  0  0  0  0  0  0  0  0  0  0  0
  -25.5863  -18.9656   20.8200 C   0  0  0  0  0  0  0  0  0  0  0  0
  -28.8974  -13.0307   21.1599 C   0  0  0  0  0  0  0  0  0  0  0  0
  -30.6509  -14.8528   21.2906 C   0  0  0  0  0  0  0  0  0  0  0  0
  -28.2732  -15.4517   21.5292 C   0  0  0  0  0  0  0  0  0  0  0  0
  -26.1153  -31.0602   25.2971 C   0  0  1  0  0  0  0  0  0  0  0  0
  -26.3708  -19.2906   19.5785 C   0  0  0  0  0  0  0  0  0  0  0  0
  -24.5258  -31.4973   21.8743 C   0  0  1  0  0  0  0  0  0  0  0  0
  -27.8313  -14.1155   20.9103 C   0  0  2  0  0  0  0  0  0  0  0  0
  -18.2192  -31.4567   17.3767 C   0  0  0  0  0  0  0  0  0  0  0  0
  -20.4797  -29.8609   23.3946 C   0  0  0  0  0  0  0  0  0  0  0  0
  -18.6587  -29.7259   21.6817 C   0  0  0  0  0  0  0  0  0  0  0  0
  -19.3413  -31.9418   22.6018 C   0  0  0  0  0  0  0  0  0  0  0  0
  -21.8286  -31.8054   16.2248 C   0  0  0  0  0  0  0  0  0  0  0  0
  -27.7377  -25.4518   19.2462 C   0  0  0  0  0  0  0  0  0  1  0  0
  -27.5551  -23.9503   19.3546 C   0  0  0  0  0  0  0  0  0  0  0  0
  -20.8819  -30.7372   20.9995 C   0  0  1  0  0  0  0  0  0  0  0  0
  -19.7050  -31.7383   17.5380 C   0  0  2  0  0  0  0  0  0  0  0  0
  -19.8667  -30.5574   22.1633 C   0  0  0  0  0  0  0  0  0  0  0  0
  -26.3842  -12.8837   22.4819 N   0  0  0  0  0  0  0  0  0  0  0  0
  -27.6530  -21.3388   19.5943 N   0  0  0  0  0  0  0  0  0  0  0  0
  -26.4635  -13.6840   21.4052 N   0  0  0  0  0  0  0  0  0  0  0  0
  -23.3346  -30.8670   21.3016 N   0  0  0  0  0  0  0  0  0  0  0  0
  -29.5972  -15.8307   21.0112 N   0  0  0  0  0  0  0  0  0  0  0  0
  -25.1491  -14.8154   19.7918 N   0  0  0  0  0  0  0  0  0  0  0  0
  -22.0754  -12.7535   22.3796 N   0  0  0  0  0  0  0  0  0  0  0  0
  -28.8232  -17.8497   20.0694 N   0  0  0  0  0  0  0  0  0  0  0  0
  -25.7637  -31.4683   23.9539 N   0  0  0  0  0  0  0  0  0  0  0  0
  -20.3363  -31.4183   19.8304 N   0  0  0  0  0  0  0  0  0  0  0  0
  -20.3670  -31.5397   16.2177 N   0  3  0  0  0  0  0  0  0  0  0  0
  -22.3640  -14.1021   20.5475 O   0  0  0  0  0  0  0  0  0  0  0  0
  -23.9463  -30.0458   23.6441 O   0  0  0  0  0  0  0  0  0  0  0  0
  -21.9651  -32.6811   21.8207 O   0  0  0  0  0  0  0  0  0  0  0  0
  -20.7628  -29.7117   18.3196 O   0  0  0  0  0  0  0  0  0  0  0  0
  -31.0575  -17.2457   19.9114 O   0  0  0  0  0  0  0  0  0  0  0  0
  -23.1214   -9.5334   26.8037 O   0  0  0  0  0  0  0  0  0  0  0  0
  -26.4657  -26.0616   19.0306 O   0  0  0  0  0  0  0  0  0  1  0  0
  -28.8194  -23.3447   19.5955 O   0  0  0  0  0  0  0  0  0  0  0  0
  -19.1216   -5.9249   25.6270 F   0  0  0  0  0  0  0  0  0  0  0  0
  -23.4918   -6.8238   27.2078 F   0  0  0  0  0  0  0  0  0  0  0  0
  1  2  1  0  0  0  0
  1  5  2  0  0  0  0
  2  6  2  0  0  0  0
  3  9  2  0  0  0  0
  3 17  1  0  0  0  0
  4 10  1  0  0  0  0
  4 17  2  0  0  0  0
  5 19  1  0  0  0  0
  6 21  1  0  0  0  0
  7 11  2  0  0  0  0
  7 20  1  0  0  0  0
  8 14  2  0  0  0  0
  8 23  1  0  0  0  0
  9 24  1  0  0  0  0
 10 24  2  0  0  0  0
 11 25  1  0  0  0  0
 12 13  2  0  0  0  0
 12 26  1  0  0  0  0
 13 27  1  0  0  0  0
 14 31  1  0  0  0  0
 15 22  1  0  0  0  0
 15 25  2  0  0  0  0
 16 27  2  0  0  0  0
 16 28  1  0  0  0  0
 17 29  1  0  0  0  0
 18 29  1  0  0  0  0
 18 32  2  0  0  0  0
 18 33  1  0  0  0  0
 19 21  2  0  0  0  0
 19 38  1  0  0  0  0
 20 22  2  0  0  0  0
 20 39  1  0  0  0  0
 21 49  1  0  0  0  0
 22 40  1  0  0  0  0
 23 30  2  0  0  0  0
 23 70  1  0  0  0  0
 24 79  1  0  0  0  0
 25 80  1  0  0  0  0
 26 28  2  0  0  0  0
 26 79  1  0  0  0  0
 27 82  1  0  0  0  0
 28 83  1  0  0  0  0
 29 63  2  0  0  0  0
 30 50  1  0  0  0  0
 30 64  1  0  0  0  0
 31 64  2  0  0  0  0
 31 81  1  0  0  0  0
 32 65  1  0  0  0  0
 32 68  1  0  0  0  0
 33 69  1  0  0  0  0
 33 74  2  0  0  0  0
 34 51  1  0  0  0  0
 34 71  1  0  0  0  0
 34 75  2  0  0  0  0
 35 60  1  0  0  0  0
 35 66  1  0  0  0  0
 35 76  2  0  0  0  0
 36 61  1  0  0  0  0
 36 72  1  0  0  0  0
 36 77  2  0  0  0  0
 37 67  1  0  0  0  0
 37 70  1  0  0  0  0
 37 78  2  0  0  0  0
 38 41  1  0  0  0  0
 39 51  1  0  0  0  0
 40 66  1  0  0  0  0
 41 43  1  0  0  0  0
 42 46  1  0  0  0  0
 42 47  1  0  0  0  0
 43 49  1  0  0  0  0
 44 45  1  0  0  0  0
 44 50  1  0  0  0  0
 45 50  1  0  0  0  0
 46 52  1  0  0  0  0
 47 67  1  0  0  0  0
 48 52  1  0  0  0  0
 48 67  1  0  0  0  0
 49 71  1  0  0  0  0
 51 66  1  0  0  0  0
 52 65  1  0  0  0  0
 53 61  1  0  0  0  0
 54 62  1  0  0  0  0
 55 62  1  0  0  0  0
 56 62  1  0  0  0  0
 57 73  1  0  0  0  0
 58 59  1  0  0  0  0
 58 80  1  0  0  0  0
 59 81  1  0  0  0  0
 60 62  1  0  0  0  0
 60 72  1  0  0  0  0
 61 73  1  0  0  0  0
 63 65  1  0  0  0  0
M  CHG  1  73   1
M  ISO  4  37 100  58 101  70 100  80 101
M  END
> <Batch ID>
0136

> <Smiles>
CNC(C)C(=O)NC(C(=O)N1Cc2cc([101O:1][101CH2:1]COc3ccc([100NH:0][100C:0](=O)N4CCCC(n5nc(-c6ccc(Oc7ccc(F)cc7F)cc6)c(C(N)=O)c5N)C4)c(C4CC4)n3)ccc2CC1C(=O)NC1CCCc2ccccc21)C(C)(C)C

> <Shape>
0.276

> <Color>
0.118

> <Negative vol penalty>
0.000

$$$$

  -OEChem-04052321023D

 86 94  0     1  0  0  0  0  0999 V2000
  -29.9735  -24.2153   16.7050 C   0  0  0  0  0  0  0  0  0  0  0  0
  -29.2195  -23.7060   17.7573 C   0  0  0  0  0  0  0  0  0  0  0  0
  -24.6822  -10.9945   20.2156 C   0  0  0  0  0  0  0  0  0  0  0  0
  -25.3341  -11.5413   22.4768 C   0  0  0  0  0  0  0  0  0  0  0  0
  -30.1549  -25.5922   16.5813 C   0  0  0  0  0  0  0  0  0  0  0  0
  -28.6474  -24.5732   18.6873 C   0  0  0  0  0  0  0  0  0  0  0  0
  -23.8435  -23.3801   19.7571 C   0  0  0  0  0  0  0  0  0  0  0  0
  -24.6265   -9.6436   20.5583 C   0  0  0  0  0  0  0  0  0  0  0  0
  -25.2784  -10.1903   22.8195 C   0  0  0  0  0  0  0  0  0  0  0  0
  -23.6315  -22.3147   20.6310 C   0  0  0  0  0  0  0  0  0  0  0  0
  -23.9619   -6.0889   20.9297 C   0  0  0  0  0  0  0  0  0  0  0  0
  -22.8611   -5.3534   20.4908 C   0  0  0  0  0  0  0  0  0  0  0  0
  -23.2569  -23.8747   22.4325 C   0  0  0  0  0  0  0  0  0  0  0  0
  -21.3886   -6.8274   21.7140 C   0  0  0  0  0  0  0  0  0  0  0  0
  -25.0361  -11.9434   21.1748 C   0  0  0  0  0  0  0  0  0  0  0  0
  -24.0491  -14.2791   20.8955 C   0  0  0  0  0  0  0  0  0  0  0  0
  -29.5766  -26.4773   17.5048 C   0  0  0  0  0  0  0  0  0  0  0  0
  -23.7744  -24.7029   20.2175 C   0  0  0  0  0  0  0  0  0  0  0  0
  -28.8223  -25.9631   18.5767 C   0  0  0  0  0  0  0  0  0  0  0  0
  -23.4658  -24.9552   21.5619 C   0  0  0  0  0  0  0  0  0  0  0  0
  -24.9245   -9.2415   21.8602 C   0  0  0  0  0  0  0  0  0  0  0  0
  -23.3410  -22.5618   21.9695 C   0  0  0  0  0  0  0  0  0  0  0  0
  -23.7762   -7.1937   21.7608 C   0  0  0  0  0  0  0  0  0  0  0  0
  -21.5744   -5.7226   20.8829 C   0  0  0  0  0  0  0  0  0  0  0  0
  -22.4895   -7.5629   22.1529 C   0  0  0  0  0  0  0  0  0  0  0  0
  -25.0943  -13.3390   20.8213 C   0  0  0  0  0  0  0  0  0  0  0  0
  -24.6097  -15.4516   20.4512 C   0  0  0  0  0  0  0  0  0  0  0  0
  -26.3243  -20.1339   27.9066 C   0  0  0  0  0  0  0  0  0  0  0  0
  -25.6843  -19.7887   25.5029 C   0  0  0  0  0  0  0  0  0  0  0  0
  -22.6928  -14.1078   21.3275 C   0  0  0  0  0  0  0  0  0  0  0  0
  -25.8246  -27.1253   20.3978 C   0  0  0  0  0  0  0  0  0  0  0  0
  -23.1993  -28.7656   21.3671 C   0  0  0  0  0  0  0  0  0  0  0  0
  -20.0894  -28.6884   22.7704 C   0  0  0  0  0  0  0  0  0  0  0  0
  -28.8178  -19.1168   20.3887 C   0  0  0  0  0  0  0  0  0  0  0  0
  -29.8398  -27.9550   17.3568 C   0  0  0  0  0  0  0  0  0  0  0  0
  -23.9792  -25.8416   19.2564 C   0  0  0  0  0  0  0  0  0  0  0  0
  -23.3602  -26.3573   22.1016 C   0  0  0  0  0  0  0  0  0  0  0  0
  -27.6015  -19.8378   28.6477 C   0  0  0  0  0  0  0  0  0  0  0  0
  -28.8881  -28.8277   18.1709 C   0  0  0  0  0  0  0  0  0  0  0  0
  -29.0469  -16.3285   18.1865 C   0  0  0  0  0  0  0  0  0  0  0  0
  -28.7534  -28.2892   19.5918 C   0  0  0  0  0  0  0  0  0  0  0  0
  -27.9575  -15.3777   18.6856 C   0  0  0  0  0  0  0  0  0  0  0  0
  -29.7255  -17.0644   19.3397 C   0  0  0  0  0  0  0  0  0  0  0  0
  -27.7163  -16.8244   20.7466 C   0  0  0  0  0  0  0  0  0  0  0  0
  -28.1650  -26.8731   19.5916 C   0  0  1  0  0  0  0  0  0  0  0  0
  -26.5726  -20.5106   26.4665 C   0  0  2  0  0  0  0  0  0  0  0  0
  -24.3917  -27.1385   19.9457 C   0  0  1  0  0  0  0  0  0  0  0  0
  -28.6612  -20.3635   27.6772 C   0  0  2  0  0  0  0  0  0  0  0  0
  -28.0471  -20.1201   26.2860 C   0  0  2  0  0  0  0  0  0  0  0  0
  -26.9651  -16.1010   19.6158 C   0  0  2  0  0  0  0  0  0  0  0  0
  -30.0076  -19.6825   27.8773 C   0  0  0  0  0  0  0  0  0  0  0  0
  -18.2053  -30.1919   23.4682 C   0  0  0  0  0  0  0  0  0  0  0  0
  -24.7945  -29.6204   23.8237 C   0  0  0  0  0  0  0  0  0  0  0  0
  -22.6378  -30.2890   24.9053 C   0  0  0  0  0  0  0  0  0  0  0  0
  -23.3869  -31.4244   22.8142 C   0  0  0  0  0  0  0  0  0  0  0  0
  -18.2019  -27.3835   20.9012 C   0  0  0  0  0  0  0  0  0  0  0  0
  -28.7255  -20.9308   25.1864 C   0  0  0  0  0  0  0  0  0  0  0  0
  -24.1048  -19.5781   23.8490 C   0  0  0  0  0  0  0  0  0  0  0  0
  -27.7836  -21.0831   21.4946 C   0  0  0  0  0  0  0  0  0  0  0  0
  -28.5699  -21.4323   22.7445 C   0  0  0  0  0  0  0  0  0  0  0  0
  -23.8246  -20.3060   22.5471 C   0  0  0  0  0  0  0  0  0  1  0  0
  -22.5436  -29.0437   22.6981 C   0  0  1  0  0  0  0  0  0  0  0  0
  -18.7796  -29.3324   22.3528 C   0  0  2  0  0  0  0  0  0  0  0  0
  -23.3445  -30.0678   23.5509 C   0  0  0  0  0  0  0  0  0  0  0  0
  -26.2327  -13.8685   20.3655 N   0  0  0  0  0  0  0  0  0  0  0  0
  -24.9027  -20.4438   24.7215 N   0  0  0  0  0  0  0  0  0  0  0  0
  -25.9061  -15.1540   20.1493 N   0  0  0  0  0  0  0  0  0  0  0  0
  -23.5750  -27.4369   21.1239 N   0  0  0  0  0  0  0  0  0  0  0  0
  -28.7294  -17.7301   20.1827 N   0  0  0  0  0  0  0  0  0  0  0  0
  -24.1153  -16.6978   20.2932 N   0  0  0  0  0  0  0  0  0  0  0  0
  -22.2823  -12.8369   21.7524 N   0  0  0  0  0  0  0  0  0  0  0  0
  -26.7344  -26.9203   19.3781 N   0  0  0  0  0  0  0  0  0  0  0  0
  -21.1753  -29.4538   22.4013 N   0  0  0  0  0  0  0  0  0  0  0  0
  -27.8305  -19.6692   21.1953 N   0  0  0  0  0  0  0  0  0  0  0  0
  -17.7773  -28.2869   22.0015 N   0  3  0  0  0  0  0  0  0  0  0  0
  -28.0432  -20.6579   23.9045 N   0  3  0  0  0  0  0  0  0  0  0  0
  -25.2133  -20.0570   28.4171 O   0  0  0  0  0  0  0  0  0  0  0  0
  -21.8647  -15.0501   21.3210 O   0  0  0  0  0  0  0  0  0  0  0  0
  -26.0856  -27.2904   21.5836 O   0  0  0  0  0  0  0  0  0  0  0  0
  -23.3654  -29.6918   20.5695 O   0  0  0  0  0  0  0  0  0  0  0  0
  -20.1436  -27.6157   23.3677 O   0  0  0  0  0  0  0  0  0  0  0  0
  -29.7075  -19.8119   19.8863 O   0  0  0  0  0  0  0  0  0  0  0  0
  -24.8701   -7.9233   22.1951 O   0  0  0  0  0  0  0  0  0  0  0  0
  -23.1343  -21.5237   22.8248 O   0  0  0  0  0  0  0  0  0  1  0  0
  -20.5172   -5.0171   20.4601 F   0  0  0  0  0  0  0  0  0  0  0  0
  -22.3046   -8.6239   22.9503 F   0  0  0  0  0  0  0  0  0  0  0  0
  1  2  1  0  0  0  0
  1  5  2  0  0  0  0
  2  6  2  0  0  0  0
  3  8  2  0  0  0  0
  3 15  1  0  0  0  0
  4  9  1  0  0  0  0
  4 15  2  0  0  0  0
  5 17  1  0  0  0  0
  6 19  1  0  0  0  0
  7 10  2  0  0  0  0
  7 18  1  0  0  0  0
  8 21  1  0  0  0  0
  9 21  2  0  0  0  0
 10 22  1  0  0  0  0
 11 12  2  0  0  0  0
 11 23  1  0  0  0  0
 12 24  1  0  0  0  0
 13 20  1  0  0  0  0
 13 22  2  0  0  0  0
 14 24  2  0  0  0  0
 14 25  1  0  0  0  0
 15 26  1  0  0  0  0
 16 26  1  0  0  0  0
 16 27  2  0  0  0  0
 16 30  1  0  0  0  0
 17 19  2  0  0  0  0
 17 35  1  0  0  0  0
 18 20  2  0  0  0  0
 18 36  1  0  0  0  0
 19 45  1  0  0  0  0
 20 37  1  0  0  0  0
 21 83  1  0  0  0  0
 22 84  1  0  0  0  0
 23 25  2  0  0  0  0
 23 83  1  0  0  0  0
 24 85  1  0  0  0  0
 25 86  1  0  0  0  0
 26 65  2  0  0  0  0
 27 67  1  0  0  0  0
 27 70  1  0  0  0  0
 28 38  1  0  0  0  0
 28 46  1  0  0  0  0
 28 77  2  0  0  0  0
 29 46  1  0  0  0  0
 29 66  2  0  0  0  0
 30 71  1  0  0  0  0
 30 78  2  0  0  0  0
 31 47  1  0  0  0  0
 31 72  1  0  0  0  0
 31 79  2  0  0  0  0
 32 62  1  0  0  0  0
 32 68  1  0  0  0  0
 32 80  2  0  0  0  0
 33 63  1  0  0  0  0
 33 73  1  0  0  0  0
 33 81  2  0  0  0  0
 34 69  1  0  0  0  0
 34 74  1  0  0  0  0
 34 82  2  0  0  0  0
 35 39  1  0  0  0  0
 36 47  1  0  0  0  0
 37 68  1  0  0  0  0
 38 48  1  0  0  0  0
 39 41  1  0  0  0  0
 40 42  1  0  0  0  0
 40 43  1  0  0  0  0
 41 45  1  0  0  0  0
 42 50  1  0  0  0  0
 43 69  1  0  0  0  0
 44 50  1  0  0  0  0
 44 69  1  0  0  0  0
 45 72  1  0  0  0  0
 46 49  1  0  0  0  0
 47 68  1  0  0  0  0
 48 49  1  0  0  0  0
 48 51  1  0  0  0  0
 49 57  1  0  0  0  0
 50 67  1  0  0  0  0
 52 63  1  0  0  0  0
 53 64  1  0  0  0  0
 54 64  1  0  0  0  0
 55 64  1  0  0  0  0
 56 75  1  0  0  0  0
 57 76  1  0  0  0  0
 58 61  1  0  0  0  0
 58 66  1  0  0  0  0
 59 60  1  0  0  0  0
 59 74  1  0  0  0  0
 60 76  1  0  0  0  0
 61 84  1  0  0  0  0
 62 64  1  0  0  0  0
 62 73  1  0  0  0  0
 63 75  1  0  0  0  0
 65 67  1  0  0  0  0
M  CHG  2  75   1  76   1
M  ISO  4  34 100  61 101  74 100  84 101
M  END
> <Batch ID>
0136

> <Smiles>
CNC(C)C(=O)NC(C(=O)N1Cc2cc([101O:1][101CH2:1]CNC=C3C(=O)CC(C)C3CNCC[100NH:0][100C:0](=O)N3CCCC(n4nc(-c5ccc(Oc6ccc(F)cc6F)cc5)c(C(N)=O)c4N)C3)ccc2CC1C(=O)NC1CCCc2ccccc21)C(C)(C)C

> <Shape>
0.254

> <Color>
0.055

> <Negative vol penalty>
0.000

$$$$

  -OEChem-04052321023D

 85 93  0     1  0  0  0  0  0999 V2000
  -32.2217  -14.8305   20.5752 C   0  0  0  0  0  0  0  0  0  0  0  0
  -31.3242  -15.8825   20.4221 C   0  0  0  0  0  0  0  0  0  0  0  0
  -27.8171  -26.1177   18.0471 C   0  0  0  0  0  0  0  0  0  0  0  0
  -26.0694  -24.8816   19.1672 C   0  0  0  0  0  0  0  0  0  0  0  0
  -31.7805  -13.5146   20.4429 C   0  0  0  0  0  0  0  0  0  0  0  0
  -29.9853  -15.6190   20.1355 C   0  0  0  0  0  0  0  0  0  0  0  0
  -25.1149  -18.7960   22.0571 C   0  0  0  0  0  0  0  0  0  0  0  0
  -19.6050  -26.0562   23.1987 C   0  0  0  0  0  0  0  0  0  0  0  0
  -20.3398  -27.1013   21.1482 C   0  0  0  0  0  0  0  0  0  0  0  0
  -19.6779  -27.2864   23.8519 C   0  0  0  0  0  0  0  0  0  0  0  0
  -20.4127  -28.3316   21.8014 C   0  0  0  0  0  0  0  0  0  0  0  0
  -28.6476  -24.9987   18.1079 C   0  0  0  0  0  0  0  0  0  0  0  0
  -26.8999  -23.7625   19.2280 C   0  0  0  0  0  0  0  0  0  0  0  0
  -24.3364  -19.7792   21.4479 C   0  0  0  0  0  0  0  0  0  0  0  0
  -27.9206  -21.3041   17.1459 C   0  0  0  0  0  0  0  0  0  0  0  0
  -27.3680  -20.0696   16.8050 C   0  0  0  0  0  0  0  0  0  0  0  0
  -22.7452  -18.0949   20.7768 C   0  0  0  0  0  0  0  0  0  0  0  0
  -27.8773  -19.2318   19.0131 C   0  0  0  0  0  0  0  0  0  0  0  0
  -26.5280  -26.0592   18.5768 C   0  0  0  0  0  0  0  0  0  0  0  0
  -24.7711  -27.5521   17.4850 C   0  0  0  0  0  0  0  0  0  0  0  0
  -30.4335  -13.2346   20.1641 C   0  0  0  0  0  0  0  0  0  0  0  0
  -24.7192  -17.4512   22.0212 C   0  0  0  0  0  0  0  0  0  0  0  0
  -29.5260  -14.2981   19.9980 C   0  0  0  0  0  0  0  0  0  0  0  0
  -23.5191  -17.0969   21.3885 C   0  0  0  0  0  0  0  0  0  0  0  0
  -19.9360  -25.9636   21.8469 C   0  0  0  0  0  0  0  0  0  0  0  0
  -20.0817  -28.4242   23.1533 C   0  0  0  0  0  0  0  0  0  0  0  0
  -28.1890  -23.8211   18.6983 C   0  0  0  0  0  0  0  0  0  0  0  0
  -23.1529  -19.4283   20.8052 C   0  0  0  0  0  0  0  0  0  0  0  0
  -28.4516  -21.5025   18.4204 C   0  0  0  0  0  0  0  0  0  0  0  0
  -27.3464  -19.0335   17.7385 C   0  0  0  0  0  0  0  0  0  0  0  0
  -28.4299  -20.4664   19.3540 C   0  0  0  0  0  0  0  0  0  0  0  0
  -25.6699  -27.2149   18.5147 C   0  0  0  0  0  0  0  0  0  0  0  0
  -24.2013  -28.7313   17.8990 C   0  0  0  0  0  0  0  0  0  0  0  0
  -24.4776  -26.8613   16.2634 C   0  0  0  0  0  0  0  0  0  0  0  0
  -25.9563  -14.7803   20.8213 C   0  0  0  0  0  0  0  0  0  0  0  0
  -23.4530  -13.3958   22.3508 C   0  0  0  0  0  0  0  0  0  0  0  0
  -20.3153  -13.7199   23.6533 C   0  0  0  0  0  0  0  0  0  0  0  0
  -23.3696  -31.1830   23.2980 C   0  0  0  0  0  0  0  0  0  0  0  0
  -30.0131  -11.7974   19.9832 C   0  0  0  0  0  0  0  0  0  0  0  0
  -25.5566  -16.4061   22.7062 C   0  0  0  0  0  0  0  0  0  0  0  0
  -23.0397  -15.6700   21.3394 C   0  0  0  0  0  0  0  0  0  0  0  0
  -28.5020  -11.5919   20.0495 C   0  0  0  0  0  0  0  0  0  0  0  0
  -25.1227  -32.6086   20.5464 C   0  0  0  0  0  0  0  0  0  0  0  0
  -27.7836  -12.6338   19.1979 C   0  0  0  0  0  0  0  0  0  0  0  0
  -25.3806  -31.4183   19.6208 C   0  0  0  0  0  0  0  0  0  0  0  0
  -25.2240  -32.2117   22.0176 C   0  0  0  0  0  0  0  0  0  0  0  0
  -24.6368  -29.8783   21.4846 C   0  0  0  0  0  0  0  0  0  0  0  0
  -28.0606  -14.0520   19.7112 C   0  0  1  0  0  0  0  0  0  0  0  0
  -25.3187  -15.0001   22.1640 C   0  0  1  0  0  0  0  0  0  0  0  0
  -24.4905  -30.2168   19.9912 C   0  0  2  0  0  0  0  0  0  0  0  0
  -18.5146  -12.4045   24.8042 C   0  0  0  0  0  0  0  0  0  0  0  0
  -22.7188  -12.0829   19.6961 C   0  0  0  0  0  0  0  0  0  0  0  0
  -20.4575  -11.5841   20.6480 C   0  0  0  0  0  0  0  0  0  0  0  0
  -22.4948  -10.5944   21.6933 C   0  0  0  0  0  0  0  0  0  0  0  0
  -20.4228  -15.4507   26.0516 C   0  0  0  0  0  0  0  0  0  0  0  0
  -19.8575  -24.6335   21.1397 C   0  0  0  0  0  0  0  0  0  0  0  0
  -20.1577  -29.7396   23.8520 C   0  0  0  0  0  0  0  0  0  0  0  0
  -21.1584  -23.8206   21.1910 C   0  0  0  0  0  0  0  0  0  0  0  0
  -21.5258  -30.0208   24.4849 C   0  0  0  0  0  0  0  0  0  0  0  0
  -20.6826  -22.4231   19.0613 C   0  0  0  0  0  0  0  0  0  0  0  0
  -22.4334  -21.6950   20.7758 C   0  0  0  0  0  0  0  0  0  1  0  0
  -22.0274  -13.0621   21.9828 C   0  0  1  0  0  0  0  0  0  0  0  0
  -19.7309  -13.2985   24.9894 C   0  0  2  0  0  0  0  0  0  0  0  0
  -21.0950  -22.4187   20.5435 C   0  0  1  0  0  0  0  0  0  0  0  0
  -21.9344  -11.8576   21.0042 C   0  0  0  0  0  0  0  0  0  0  0  0
  -25.6743  -28.1078   19.5081 N   0  0  0  0  0  0  0  0  0  0  0  0
  -24.7714  -29.0177   19.1045 N   0  0  0  0  0  0  0  0  0  0  0  0
  -23.8964  -14.6837   22.0182 N   0  0  0  0  0  0  0  0  0  0  0  0
  -24.3546  -31.0678   22.3032 N   0  0  0  0  0  0  0  0  0  0  0  0
  -23.2733  -29.5407   17.3459 N   0  0  0  0  0  0  0  0  0  0  0  0
  -25.1535  -25.6633   15.9943 N   0  0  0  0  0  0  0  0  0  0  0  0
  -27.2611  -14.3297   20.8851 N   0  0  0  0  0  0  0  0  0  0  0  0
  -21.3163  -12.8657   23.2415 N   0  0  0  0  0  0  0  0  0  0  0  0
  -22.5847  -30.0545   23.5008 N   0  0  0  0  0  0  0  0  0  0  0  0
  -21.6336  -23.1905   18.2227 N   0  3  0  0  0  0  0  0  0  0  0  0
  -19.3187  -14.4958   25.7753 N   0  3  0  0  0  0  0  0  0  0  0  0
  -23.6527  -27.3019   15.4274 O   0  0  0  0  0  0  0  0  0  0  0  0
  -25.3117  -15.0015   19.8029 O   0  0  0  0  0  0  0  0  0  0  0  0
  -24.1453  -12.5475   22.9188 O   0  0  0  0  0  0  0  0  0  0  0  0
  -19.9206  -14.7060   23.0348 O   0  0  0  0  0  0  0  0  0  0  0  0
  -23.1985  -32.2169   23.9528 O   0  0  0  0  0  0  0  0  0  0  0  0
  -28.9991  -22.7289   18.7577 O   0  0  0  0  0  0  0  0  0  0  0  0
  -22.3915  -20.3859   20.2092 O   0  0  0  0  0  0  0  0  0  1  0  0
  -26.8144  -17.8485   17.4115 F   0  0  0  0  0  0  0  0  0  0  0  0
  -28.9375  -20.6513   20.5804 F   0  0  0  0  0  0  0  0  0  0  0  0
  1  2  1  0  0  0  0
  1  5  2  0  0  0  0
  2  6  2  0  0  0  0
  3 12  2  0  0  0  0
  3 19  1  0  0  0  0
  4 13  1  0  0  0  0
  4 19  2  0  0  0  0
  5 21  1  0  0  0  0
  6 23  1  0  0  0  0
  7 14  2  0  0  0  0
  7 22  1  0  0  0  0
  8 10  2  0  0  0  0
  8 25  1  0  0  0  0
  9 11  1  0  0  0  0
  9 25  2  0  0  0  0
 10 26  1  0  0  0  0
 11 26  2  0  0  0  0
 12 27  1  0  0  0  0
 13 27  2  0  0  0  0
 14 28  1  0  0  0  0
 15 16  2  0  0  0  0
 15 29  1  0  0  0  0
 16 30  1  0  0  0  0
 17 24  1  0  0  0  0
 17 28  2  0  0  0  0
 18 30  2  0  0  0  0
 18 31  1  0  0  0  0
 19 32  1  0  0  0  0
 20 32  1  0  0  0  0
 20 33  2  0  0  0  0
 20 34  1  0  0  0  0
 21 23  2  0  0  0  0
 21 39  1  0  0  0  0
 22 24  2  0  0  0  0
 22 40  1  0  0  0  0
 23 48  1  0  0  0  0
 24 41  1  0  0  0  0
 25 56  1  0  0  0  0
 26 57  1  0  0  0  0
 27 82  1  0  0  0  0
 28 83  1  0  0  0  0
 29 31  2  0  0  0  0
 29 82  1  0  0  0  0
 30 84  1  0  0  0  0
 31 85  1  0  0  0  0
 32 66  2  0  0  0  0
 33 67  1  0  0  0  0
 33 70  1  0  0  0  0
 34 71  1  0  0  0  0
 34 77  2  0  0  0  0
 35 49  1  0  0  0  0
 35 72  1  0  0  0  0
 35 78  2  0  0  0  0
 36 62  1  0  0  0  0
 36 68  1  0  0  0  0
 36 79  2  0  0  0  0
 37 63  1  0  0  0  0
 37 73  1  0  0  0  0
 37 80  2  0  0  0  0
 38 69  1  0  0  0  0
 38 74  1  0  0  0  0
 38 81  2  0  0  0  0
 39 42  1  0  0  0  0
 40 49  1  0  0  0  0
 41 68  1  0  0  0  0
 42 44  1  0  0  0  0
 43 45  1  0  0  0  0
 43 46  1  0  0  0  0
 44 48  1  0  0  0  0
 45 50  1  0  0  0  0
 46 69  1  0  0  0  0
 47 50  1  0  0  0  0
 47 69  1  0  0  0  0
 48 72  1  0  0  0  0
 49 68  1  0  0  0  0
 50 67  1  0  0  0  0
 51 63  1  0  0  0  0
 52 65  1  0  0  0  0
 53 65  1  0  0  0  0
 54 65  1  0  0  0  0
 55 76  1  0  0  0  0
 56 58  1  0  0  0  0
 57 59  1  0  0  0  0
 58 64  1  0  0  0  0
 59 74  1  0  0  0  0
 60 64  1  0  0  0  0
 60 75  1  0  0  0  0
 61 64  1  0  0  0  0
 61 83  1  0  0  0  0
 62 65  1  0  0  0  0
 62 73  1  0  0  0  0
 63 76  1  0  0  0  0
 66 67  1  0  0  0  0
M  CHG  2  75   1  76   1
M  ISO  4  38 100  61 101  74 100  83 101
M  END
> <Batch ID>
0136

> <Smiles>
CNC(C)C(=O)NC(C(=O)N1Cc2cc([101O:1][101CH2:1]C(CN)CCc3ccc(CC[100NH:0][100C:0](=O)N4CCCC(n5nc(-c6ccc(Oc7ccc(F)cc7F)cc6)c(C(N)=O)c5N)C4)cc3)ccc2CC1C(=O)NC1CCCc2ccccc21)C(C)(C)C

> <Shape>
0.238

> <Color>
0.085

> <Negative vol penalty>
0.000

$$$$

  -OEChem-04052321023D

 86 95  0     1  0  0  0  0  0999 V2000
  -26.1009  -38.7630   20.6707 C   0  0  0  0  0  0  0  0  0  0  0  0
  -26.3612  -37.7216   19.7857 C   0  0  0  0  0  0  0  0  0  0  0  0
  -24.2258   -8.4337   20.6664 C   0  0  0  0  0  0  0  0  0  0  0  0
  -23.3211  -10.6178   21.1648 C   0  0  0  0  0  0  0  0  0  0  0  0
  -26.1626  -38.5397   22.0455 C   0  0  0  0  0  0  0  0  0  0  0  0
  -26.6846  -36.4566   20.2751 C   0  0  0  0  0  0  0  0  0  0  0  0
  -25.9217  -29.5057   18.7194 C   0  0  0  0  0  0  0  0  0  0  0  0
  -28.0484  -18.7652   20.8485 C   0  0  0  0  0  0  0  0  0  0  0  0
  -23.3828   -7.8665   21.6220 C   0  0  0  0  0  0  0  0  0  0  0  0
  -22.4781  -10.0505   22.1204 C   0  0  0  0  0  0  0  0  0  0  0  0
  -26.6799  -28.3445   18.5762 C   0  0  0  0  0  0  0  0  0  0  0  0
  -20.1329   -6.9628   21.8546 C   0  0  0  0  0  0  0  0  0  0  0  0
  -19.4524   -5.7957   21.5077 C   0  0  0  0  0  0  0  0  0  0  0  0
  -28.0162  -17.3862   20.6740 C   0  0  0  0  0  0  0  0  0  0  0  0
  -26.6793  -28.0561   20.9712 C   0  0  0  0  0  0  0  0  0  0  0  0
  -20.5295   -4.6268   23.3272 C   0  0  0  0  0  0  0  0  0  0  0  0
  -30.4132  -18.6884   20.6069 C   0  0  0  0  0  0  0  0  0  0  0  0
  -24.1950   -9.8094   20.4378 C   0  0  0  0  0  0  0  0  0  0  0  0
  -24.7910  -10.5942   18.0849 C   0  0  0  0  0  0  0  0  0  0  0  0
  -29.2656  -19.4363   20.8157 C   0  0  0  0  0  0  0  0  0  0  0  0
  -26.4774  -37.2689   22.5521 C   0  0  0  0  0  0  0  0  0  0  0  0
  -25.5452  -29.9576   19.9924 C   0  0  0  0  0  0  0  0  0  0  0  0
  -26.7519  -36.2165   21.6581 C   0  0  0  0  0  0  0  0  0  0  0  0
  -25.9142  -29.2220   21.1277 C   0  0  0  0  0  0  0  0  0  0  0  0
  -22.5090   -8.6748   22.3490 C   0  0  0  0  0  0  0  0  0  0  0  0
  -27.0613  -27.6211   19.7024 C   0  0  0  0  0  0  0  0  0  0  0  0
  -21.0118   -6.9619   22.9378 C   0  0  0  0  0  0  0  0  0  0  0  0
  -19.6507   -4.6277   22.2440 C   0  0  0  0  0  0  0  0  0  0  0  0
  -21.2101   -5.7939   23.6741 C   0  0  0  0  0  0  0  0  0  0  0  0
  -25.0659  -10.3961   19.4512 C   0  0  0  0  0  0  0  0  0  0  0  0
  -29.2197  -16.7300   20.4714 C   0  0  0  0  0  0  0  0  0  0  0  0
  -25.9291  -11.1801   17.5871 C   0  0  0  0  0  0  0  0  0  0  0  0
  -28.3209  -23.0716   20.5837 C   0  0  0  0  0  0  0  0  0  0  0  0
  -27.8644  -24.1414   19.9214 C   0  0  0  0  0  0  0  0  0  0  0  0
  -23.6122  -10.2770   17.3329 C   0  0  0  0  0  0  0  0  0  0  0  0
  -26.1111  -32.5777   21.7007 C   0  0  0  0  0  0  0  0  0  0  0  0
  -23.9832  -31.2325   23.7464 C   0  0  0  0  0  0  0  0  0  0  0  0
  -22.4618  -28.4026   24.8970 C   0  0  0  0  0  0  0  0  0  0  0  0
  -30.2532  -14.4665   20.0785 C   0  0  0  0  0  0  0  0  0  0  0  0
  -26.5785  -37.0876   24.0460 C   0  0  0  0  0  0  0  0  0  0  0  0
  -24.7046  -31.1975   20.1282 C   0  0  0  0  0  0  0  0  0  0  0  0
  -25.5183  -29.6534   22.5153 C   0  0  0  0  0  0  0  0  0  0  0  0
  -28.5589  -21.7335   19.9350 C   0  0  0  0  0  0  0  0  0  0  0  0
  -26.5611  -35.6255   24.4846 C   0  0  0  0  0  0  0  0  0  0  0  0
  -30.6568  -11.3973   18.3194 C   0  0  0  0  0  0  0  0  0  0  0  0
  -27.5097  -34.7983   23.6229 C   0  0  0  0  0  0  0  0  0  0  0  0
  -29.2428  -10.8132   18.2804 C   0  0  0  0  0  0  0  0  0  0  0  0
  -28.7527  -21.5049   22.3070 C   0  0  0  0  0  0  0  0  0  0  0  0
  -30.9363  -12.1184   19.6368 C   0  0  0  0  0  0  0  0  0  0  0  0
  -28.5347  -12.5560   19.9680 C   0  0  0  0  0  0  0  0  0  0  0  0
  -29.3331  -20.9380   21.0016 C   0  0  1  0  0  0  0  0  0  0  0  0
  -27.0819  -34.8241   22.1505 C   0  0  1  0  0  0  0  0  0  0  0  0
  -28.6697  -23.0138   22.0513 C   0  0  2  0  0  0  0  0  0  0  0  0
  -24.8137  -31.8455   21.5050 C   0  0  1  0  0  0  0  0  0  0  0  0
  -28.1841  -11.8759   18.6345 C   0  0  2  0  0  0  0  0  0  0  0  0
  -28.0845  -23.5239   24.4274 C   0  0  0  0  0  0  0  0  0  0  0  0
  -20.7960  -27.6152   26.6007 C   0  0  0  0  0  0  0  0  0  0  0  0
  -26.0782  -31.5566   25.9410 C   0  0  0  0  0  0  0  0  0  0  0  0
  -24.7705  -29.9370   27.3320 C   0  0  0  0  0  0  0  0  0  0  0  0
  -23.7402  -32.1015   26.6419 C   0  0  0  0  0  0  0  0  0  0  0  0
  -20.6523  -27.3433   22.8084 C   0  0  0  0  0  0  0  0  0  0  0  0
  -27.6244  -25.4727   20.5527 C   0  0  0  0  0  0  0  0  0  1  0  0
  -27.6886  -23.6955   22.9960 C   0  0  0  0  0  0  0  0  0  0  0  0
  -24.0785  -30.2842   24.9171 C   0  0  1  0  0  0  0  0  0  0  0  0
  -21.0030  -28.0825   25.1683 C   0  0  2  0  0  0  0  0  0  0  0  0
  -24.6761  -30.9625   26.1821 C   0  0  0  0  0  0  0  0  0  0  0  0
  -30.4216  -17.3477   20.4333 N   0  0  0  0  0  0  0  0  0  0  0  0
  -26.2833  -10.8214   19.7992 N   0  0  0  0  0  0  0  0  0  0  0  0
  -26.7834  -11.2927   18.6443 N   0  0  0  0  0  0  0  0  0  0  0  0
  -24.7018  -30.8758   22.5965 N   0  0  0  0  0  0  0  0  0  0  0  0
  -29.8951  -13.1129   19.9044 N   0  0  0  0  0  0  0  0  0  0  0  0
  -26.2725  -11.6049   16.3525 N   0  0  0  0  0  0  0  0  0  0  0  0
  -22.5351   -9.6778   18.0001 N   0  0  0  0  0  0  0  0  0  0  0  0
  -29.1757  -15.3248   20.2948 N   0  0  0  0  0  0  0  0  0  0  0  0
  -25.9633  -33.9317   21.9336 N   0  0  0  0  0  0  0  0  0  0  0  0
  -22.7400  -29.7364   25.1087 N   0  0  0  0  0  0  0  0  0  0  0  0
  -20.5289  -27.0083   24.2505 N   0  3  0  0  0  0  0  0  0  0  0  0
  -23.5230  -10.5029   16.1022 O   0  0  0  0  0  0  0  0  0  0  0  0
  -27.1679  -31.9597   21.6460 O   0  0  0  0  0  0  0  0  0  0  0  0
  -23.2908  -32.2485   23.8460 O   0  0  0  0  0  0  0  0  0  0  0  0
  -23.2743  -27.5535   24.5371 O   0  0  0  0  0  0  0  0  0  0  0  0
  -31.4268  -14.8410   20.0115 O   0  0  0  0  0  0  0  0  0  0  0  0
  -21.6861   -8.1216   23.2814 O   0  0  0  0  0  0  0  0  0  0  0  0
  -27.8019  -26.4877   19.5656 O   0  0  0  0  0  0  0  0  0  1  0  0
  -18.9959   -3.5074   21.9117 F   0  0  0  0  0  0  0  0  0  0  0  0
  -22.0523   -5.7872   24.7164 F   0  0  0  0  0  0  0  0  0  0  0  0
  1  2  1  0  0  0  0
  1  5  2  0  0  0  0
  2  6  2  0  0  0  0
  3  9  2  0  0  0  0
  3 18  1  0  0  0  0
  4 10  1  0  0  0  0
  4 18  2  0  0  0  0
  5 21  1  0  0  0  0
  6 23  1  0  0  0  0
  7 11  2  0  0  0  0
  7 22  1  0  0  0  0
  8 14  2  0  0  0  0
  8 20  1  0  0  0  0
  9 25  1  0  0  0  0
 10 25  2  0  0  0  0
 11 26  1  0  0  0  0
 12 13  2  0  0  0  0
 12 27  1  0  0  0  0
 13 28  1  0  0  0  0
 14 31  1  0  0  0  0
 15 24  1  0  0  0  0
 15 26  2  0  0  0  0
 16 28  2  0  0  0  0
 16 29  1  0  0  0  0
 17 20  2  0  0  0  0
 17 67  1  0  0  0  0
 18 30  1  0  0  0  0
 19 30  1  0  0  0  0
 19 32  2  0  0  0  0
 19 35  1  0  0  0  0
 20 51  1  0  0  0  0
 21 23  2  0  0  0  0
 21 40  1  0  0  0  0
 22 24  2  0  0  0  0
 22 41  1  0  0  0  0
 23 52  1  0  0  0  0
 24 42  1  0  0  0  0
 25 83  1  0  0  0  0
 26 84  1  0  0  0  0
 27 29  2  0  0  0  0
 27 83  1  0  0  0  0
 28 85  1  0  0  0  0
 29 86  1  0  0  0  0
 30 68  2  0  0  0  0
 31 67  2  0  0  0  0
 31 74  1  0  0  0  0
 32 69  1  0  0  0  0
 32 72  1  0  0  0  0
 33 34  2  0  0  0  0
 33 43  1  0  0  0  0
 33 53  1  0  0  0  0
 34 62  1  0  0  0  0
 35 73  1  0  0  0  0
 35 78  2  0  0  0  0
 36 54  1  0  0  0  0
 36 75  1  0  0  0  0
 36 79  2  0  0  0  0
 37 64  1  0  0  0  0
 37 70  1  0  0  0  0
 37 80  2  0  0  0  0
 38 65  1  0  0  0  0
 38 76  1  0  0  0  0
 38 81  2  0  0  0  0
 39 71  1  0  0  0  0
 39 74  1  0  0  0  0
 39 82  2  0  0  0  0
 40 44  1  0  0  0  0
 41 54  1  0  0  0  0
 42 70  1  0  0  0  0
 43 51  1  0  0  0  0
 44 46  1  0  0  0  0
 45 47  1  0  0  0  0
 45 49  1  0  0  0  0
 46 52  1  0  0  0  0
 47 55  1  0  0  0  0
 48 51  1  0  0  0  0
 48 53  1  0  0  0  0
 49 71  1  0  0  0  0
 50 55  1  0  0  0  0
 50 71  1  0  0  0  0
 52 75  1  0  0  0  0
 53 63  1  0  0  0  0
 54 70  1  0  0  0  0
 55 69  1  0  0  0  0
 56 63  1  0  0  0  0
 57 65  1  0  0  0  0
 58 66  1  0  0  0  0
 59 66  1  0  0  0  0
 60 66  1  0  0  0  0
 61 77  1  0  0  0  0
 62 84  1  0  0  0  0
 64 66  1  0  0  0  0
 64 76  1  0  0  0  0
 65 77  1  0  0  0  0
 68 69  1  0  0  0  0
M  CHG  1  77   1
M  ISO  4  39 100  62 101  74 100  84 101
M  END
> <Batch ID>
0136

> <Smiles>
CCC1CC(c2ccc([100NH:0][100C:0](=O)N3CCCC(n4nc(-c5ccc(Oc6ccc(F)cc6F)cc5)c(C(N)=O)c4N)C3)nc2)CC1=C[101CH2:1][101O:1]c1ccc2c(c1)CN(C(=O)C(NC(=O)C(C)NC)C(C)(C)C)C(C(=O)NC1CCCc3ccccc31)C2

> <Shape>
0.301

> <Color>
0.116

> <Negative vol penalty>
0.000

$$$$

  -OEChem-04052321023D

 86 95  0     1  0  0  0  0  0999 V2000
  -29.4352  -36.1964   22.1802 C   0  0  0  0  0  0  0  0  0  0  0  0
  -29.3985  -34.8058   22.1694 C   0  0  0  0  0  0  0  0  0  0  0  0
  -22.7509  -12.2371   22.0913 C   0  0  0  0  0  0  0  0  0  0  0  0
  -24.0236  -10.2360   22.5528 C   0  0  0  0  0  0  0  0  0  0  0  0
  -28.3374  -36.9180   22.6471 C   0  0  0  0  0  0  0  0  0  0  0  0
  -28.2642  -34.1358   22.6266 C   0  0  0  0  0  0  0  0  0  0  0  0
  -26.8816  -30.3451   19.5666 C   0  0  0  0  0  0  0  0  0  0  0  0
  -21.9429  -11.9786   23.1985 C   0  0  0  0  0  0  0  0  0  0  0  0
  -23.2156   -9.9775   23.6601 C   0  0  0  0  0  0  0  0  0  0  0  0
  -27.6086  -29.1587   19.6541 C   0  0  0  0  0  0  0  0  0  0  0  0
  -20.1425   -8.7009   24.2581 C   0  0  0  0  0  0  0  0  0  0  0  0
  -19.6825   -7.3960   24.4341 C   0  0  0  0  0  0  0  0  0  0  0  0
  -25.8671  -28.1991   21.0199 C   0  0  0  0  0  0  0  0  0  0  0  0
  -20.8009   -7.2902   26.5731 C   0  0  0  0  0  0  0  0  0  0  0  0
  -23.7912  -11.3658   21.7684 C   0  0  0  0  0  0  0  0  0  0  0  0
  -24.2181  -11.7396   19.2813 C   0  0  0  0  0  0  0  0  0  0  0  0
  -27.1854  -36.2568   23.1012 C   0  0  0  0  0  0  0  0  0  0  0  0
  -25.6448  -30.4713   20.2153 C   0  0  0  0  0  0  0  0  0  0  0  0
  -27.1504  -34.8493   23.1012 C   0  0  0  0  0  0  0  0  0  0  0  0
  -25.1251  -29.3873   20.9370 C   0  0  0  0  0  0  0  0  0  0  0  0
  -22.1753  -10.8489   23.9829 C   0  0  0  0  0  0  0  0  0  0  0  0
  -27.1028  -28.0865   20.3832 C   0  0  0  0  0  0  0  0  0  0  0  0
  -20.9319   -9.3005   25.2395 C   0  0  0  0  0  0  0  0  0  0  0  0
  -20.0116   -6.6906   25.5916 C   0  0  0  0  0  0  0  0  0  0  0  0
  -21.2610   -8.5952   26.3970 C   0  0  0  0  0  0  0  0  0  0  0  0
  -24.6258  -11.6319   20.6244 C   0  0  0  0  0  0  0  0  0  0  0  0
  -25.3769  -11.9971   18.5903 C   0  0  0  0  0  0  0  0  0  0  0  0
  -22.9090  -11.6178   18.7094 C   0  0  0  0  0  0  0  0  0  0  0  0
  -24.4971  -32.3463   22.5112 C   0  0  0  0  0  0  0  0  0  0  0  0
  -21.7023  -30.8698   21.7824 C   0  0  0  0  0  0  0  0  0  0  0  0
  -29.8519  -22.2867   20.2208 C   0  0  0  0  0  0  0  0  0  0  0  0
  -19.1998  -28.7829   20.7680 C   0  0  0  0  0  0  0  0  0  0  0  0
  -30.6044  -14.4541   20.1677 C   0  0  0  0  0  0  0  0  0  0  0  0
  -26.0417  -37.0787   23.6408 C   0  0  0  0  0  0  0  0  0  0  0  0
  -24.8604  -31.7485   20.0891 C   0  0  0  0  0  0  0  0  0  0  0  0
  -23.7927  -29.4649   21.6350 C   0  0  0  0  0  0  0  0  0  0  0  0
  -24.7340  -36.3000   23.7579 C   0  0  0  0  0  0  0  0  0  0  0  0
  -30.0944  -11.2199   18.7689 C   0  0  0  0  0  0  0  0  0  0  0  0
  -24.9774  -34.9430   24.4108 C   0  0  0  0  0  0  0  0  0  0  0  0
  -28.5983  -10.9685   18.9646 C   0  0  0  0  0  0  0  0  0  0  0  0
  -30.1178  -19.2259   21.3915 C   0  0  0  0  0  0  0  0  0  0  0  0
  -30.8417  -18.9385   18.9858 C   0  0  0  0  0  0  0  0  0  0  0  0
  -29.5926  -17.7901   21.4051 C   0  0  0  0  0  0  0  0  0  0  0  0
  -30.3164  -17.5027   18.9996 C   0  0  0  0  0  0  0  0  0  0  0  0
  -28.8437  -25.0907   19.2798 C   0  0  0  0  0  0  0  0  0  0  0  0
  -30.6959  -11.9888   19.9432 C   0  0  0  0  0  0  0  0  0  0  0  0
  -28.5105  -12.9981   20.4718 C   0  0  0  0  0  0  0  0  0  0  0  0
  -30.0460  -27.1289   19.6233 C   0  0  0  0  0  0  0  0  0  0  0  0
  -25.9285  -34.0869   23.5658 C   0  0  1  0  0  0  0  0  0  0  0  0
  -23.8507  -31.9435   21.2160 C   0  0  1  0  0  0  0  0  0  0  0  0
  -27.8477  -12.2746   19.2872 C   0  0  2  0  0  0  0  0  0  0  0  0
  -30.0851  -19.8204   19.9814 C   0  0  0  0  0  0  0  0  0  0  0  0
  -30.3495  -16.9082   20.4097 C   0  0  0  0  0  0  0  0  0  0  0  0
  -28.6480  -26.5957   19.3697 C   0  0  2  0  0  0  0  0  0  1  0  0
  -29.8559  -24.8070   20.3820 C   0  0  1  0  0  0  0  0  0  0  0  0
  -16.7873  -28.2442   21.2005 C   0  0  0  0  0  0  0  0  0  0  0  0
  -22.4871  -29.4337   24.3577 C   0  0  0  0  0  0  0  0  0  0  0  0
  -20.3326  -28.1654   24.2248 C   0  0  0  0  0  0  0  0  0  0  0  0
  -20.3035  -30.6482   24.4643 C   0  0  0  0  0  0  0  0  0  0  0  0
  -18.4323  -29.4501   17.9887 C   0  0  0  0  0  0  0  0  0  0  0  0
  -30.6825  -23.5564   20.1597 C   0  0  0  0  0  0  0  0  0  0  0  0
  -20.9954  -29.6239   22.2589 C   0  0  1  0  0  0  0  0  0  0  0  0
  -17.7626  -29.0561   20.3625 C   0  0  2  0  0  0  0  0  0  0  0  0
  -21.0483  -29.4671   23.8049 C   0  0  0  0  0  0  0  0  0  0  0  0
  -25.9409  -11.8066   20.7797 N   0  0  0  0  0  0  0  0  0  0  0  0
  -26.3696  -12.0266   19.5252 N   0  0  0  0  0  0  0  0  0  0  0  0
  -23.0665  -30.7370   21.4872 N   0  0  0  0  0  0  0  0  0  0  0  0
  -29.9390  -13.2174   20.1959 N   0  0  0  0  0  0  0  0  0  0  0  0
  -25.6333  -12.1989   17.2804 N   0  0  0  0  0  0  0  0  0  0  0  0
  -21.8293  -11.3517   19.5625 N   0  0  0  0  0  0  0  0  0  0  0  0
  -25.2266  -33.5174   22.4356 N   0  0  0  0  0  0  0  0  0  0  0  0
  -30.6234  -21.1591   19.9802 N   0  0  0  0  0  0  0  0  0  0  0  0
  -19.6450  -29.6856   21.7104 N   0  0  0  0  0  0  0  0  0  0  0  0
  -29.8119  -15.5692   20.4113 N   0  0  0  0  0  0  0  0  0  0  0  0
  -30.7425  -26.0234   20.3740 N   0  3  0  0  0  0  0  0  0  0  0  0
  -17.5538  -28.7074   18.9287 N   0  3  0  0  0  0  0  0  0  0  0  0
  -22.7052  -11.7249   17.4763 O   0  0  0  0  0  0  0  0  0  0  0  0
  -24.3440  -31.6472   23.5059 O   0  0  0  0  0  0  0  0  0  0  0  0
  -21.0658  -31.9203   21.6693 O   0  0  0  0  0  0  0  0  0  0  0  0
  -28.6471  -22.2846   20.4584 O   0  0  0  0  0  0  0  0  0  0  0  0
  -19.8601  -27.8586   20.2987 O   0  0  0  0  0  0  0  0  0  0  0  0
  -31.8139  -14.5574   19.9368 O   0  0  0  0  0  0  0  0  0  0  0  0
  -21.3872  -10.5964   25.0636 O   0  0  0  0  0  0  0  0  0  0  0  0
  -27.8108  -26.9276   20.4707 O   0  0  0  0  0  0  0  0  0  1  0  0
  -19.5684   -5.4380   25.7612 F   0  0  0  0  0  0  0  0  0  0  0  0
  -22.0179   -9.1664   27.3439 F   0  0  0  0  0  0  0  0  0  0  0  0
  1  2  1  0  0  0  0
  1  5  2  0  0  0  0
  2  6  2  0  0  0  0
  3  8  2  0  0  0  0
  3 15  1  0  0  0  0
  4  9  1  0  0  0  0
  4 15  2  0  0  0  0
  5 17  1  0  0  0  0
  6 19  1  0  0  0  0
  7 10  2  0  0  0  0
  7 18  1  0  0  0  0
  8 21  1  0  0  0  0
  9 21  2  0  0  0  0
 10 22  1  0  0  0  0
 11 12  2  0  0  0  0
 11 23  1  0  0  0  0
 12 24  1  0  0  0  0
 13 20  1  0  0  0  0
 13 22  2  0  0  0  0
 14 24  2  0  0  0  0
 14 25  1  0  0  0  0
 15 26  1  0  0  0  0
 16 26  1  0  0  0  0
 16 27  2  0  0  0  0
 16 28  1  0  0  0  0
 17 19  2  0  0  0  0
 17 34  1  0  0  0  0
 18 20  2  0  0  0  0
 18 35  1  0  0  0  0
 19 49  1  0  0  0  0
 20 36  1  0  0  0  0
 21 83  1  0  0  0  0
 22 84  1  0  0  0  0
 23 25  2  0  0  0  0
 23 83  1  0  0  0  0
 24 85  1  0  0  0  0
 25 86  1  0  0  0  0
 26 65  2  0  0  0  0
 27 66  1  0  0  0  0
 27 69  1  0  0  0  0
 28 70  1  0  0  0  0
 28 77  2  0  0  0  0
 29 50  1  0  0  0  0
 29 71  1  0  0  0  0
 29 78  2  0  0  0  0
 30 62  1  0  0  0  0
 30 67  1  0  0  0  0
 30 79  2  0  0  0  0
 31 61  1  0  0  0  0
 31 72  1  0  0  0  0
 31 80  2  0  0  0  0
 32 63  1  0  0  0  0
 32 73  1  0  0  0  0
 32 81  2  0  0  0  0
 33 68  1  0  0  0  0
 33 74  1  0  0  0  0
 33 82  2  0  0  0  0
 34 37  1  0  0  0  0
 35 50  1  0  0  0  0
 36 67  1  0  0  0  0
 37 39  1  0  0  0  0
 38 40  1  0  0  0  0
 38 46  1  0  0  0  0
 39 49  1  0  0  0  0
 40 51  1  0  0  0  0
 41 43  1  0  0  0  0
 41 52  1  0  0  0  0
 42 44  1  0  0  0  0
 42 52  1  0  0  0  0
 43 53  1  0  0  0  0
 44 53  1  0  0  0  0
 45 54  1  0  0  0  0
 45 55  1  0  0  0  0
 46 68  1  0  0  0  0
 47 51  1  0  0  0  0
 47 68  1  0  0  0  0
 48 54  1  0  0  0  0
 48 75  1  0  0  0  0
 49 71  1  0  0  0  0
 50 67  1  0  0  0  0
 51 66  1  0  0  0  0
 52 72  1  0  0  0  0
 53 74  1  0  0  0  0
 54 84  1  0  0  0  0
 55 61  1  0  0  0  0
 55 75  1  0  0  0  0
 56 63  1  0  0  0  0
 57 64  1  0  0  0  0
 58 64  1  0  0  0  0
 59 64  1  0  0  0  0
 60 76  1  0  0  0  0
 62 64  1  0  0  0  0
 62 73  1  0  0  0  0
 63 76  1  0  0  0  0
 65 66  1  0  0  0  0
M  CHG  2  75   1  76   1
M  ISO  4  33 100  54 101  74 100  84 101
M  END
> <Batch ID>
0136

> <Smiles>
CNC(C)C(=O)NC(C(=O)N1Cc2cc([101O:1][101CH:1]3CNC(CC(=O)NC4CCC([100NH:0][100C:0](=O)N5CCCC(n6nc(-c7ccc(Oc8ccc(F)cc8F)cc7)c(C(N)=O)c6N)C5)CC4)C3)ccc2CC1C(=O)NC1CCCc2ccccc21)C(C)(C)C

> <Shape>
0.324

> <Color>
0.089

> <Negative vol penalty>
0.000

$$$$

  -OEChem-04052321023D

 87 96  0     1  0  0  0  0  0999 V2000
  -24.4987  -31.5317   17.7807 C   0  0  0  0  0  0  0  0  0  0  0  0
  -24.7041  -30.2131   17.3875 C   0  0  0  0  0  0  0  0  0  0  0  0
  -27.8485   -8.0687   19.2796 C   0  0  0  0  0  0  0  0  0  0  0  0
  -26.4879   -8.2218   19.5458 C   0  0  0  0  0  0  0  0  0  0  0  0
  -30.3938  -20.3615   20.5513 C   0  0  0  0  0  0  0  0  0  0  0  0
  -28.3757  -19.5791   19.4780 C   0  0  0  0  0  0  0  0  0  0  0  0
  -24.4203  -31.8497   19.1359 C   0  0  0  0  0  0  0  0  0  0  0  0
  -24.8322  -29.2118   18.3495 C   0  0  0  0  0  0  0  0  0  0  0  0
  -23.3716  -22.2814   19.4226 C   0  0  0  0  0  0  0  0  0  0  0  0
  -28.6905   -9.1808   19.2889 C   0  0  0  0  0  0  0  0  0  0  0  0
  -25.9692   -9.4870   19.8212 C   0  0  0  0  0  0  0  0  0  0  0  0
  -30.2471  -21.5992   19.9249 C   0  0  0  0  0  0  0  0  0  0  0  0
  -28.2289  -20.8167   18.8517 C   0  0  0  0  0  0  0  0  0  0  0  0
  -23.9942  -21.0979   19.8169 C   0  0  0  0  0  0  0  0  0  0  0  0
  -28.4008  -24.4005   20.3457 C   0  0  0  0  0  0  0  0  0  0  0  0
  -28.5888  -25.5452   21.1201 C   0  0  0  0  0  0  0  0  0  0  0  0
  -23.7626  -21.7528   22.1270 C   0  0  0  0  0  0  0  0  0  0  0  0
  -30.3937  -26.2313   19.6679 C   0  0  0  0  0  0  0  0  0  0  0  0
  -29.4581  -19.3514   20.3277 C   0  0  0  0  0  0  0  0  0  0  0  0
  -29.0935  -17.6861   22.2255 C   0  0  0  0  0  0  0  0  0  0  0  0
  -24.5378  -30.8503   20.1147 C   0  0  0  0  0  0  0  0  0  0  0  0
  -22.9488  -23.2160   20.3788 C   0  0  0  0  0  0  0  0  0  0  0  0
  -24.7566  -29.5169   19.7191 C   0  0  0  0  0  0  0  0  0  0  0  0
  -23.1325  -22.9461   21.7424 C   0  0  0  0  0  0  0  0  0  0  0  0
  -28.1718  -10.4460   19.5643 C   0  0  0  0  0  0  0  0  0  0  0  0
  -29.1646  -21.8268   19.0752 C   0  0  0  0  0  0  0  0  0  0  0  0
  -24.1925  -20.8348   21.1692 C   0  0  0  0  0  0  0  0  0  0  0  0
  -26.8111  -10.5991   19.8305 C   0  0  0  0  0  0  0  0  0  0  0  0
  -29.2093  -24.1711   19.2324 C   0  0  0  0  0  0  0  0  0  0  0  0
  -29.5852  -26.4607   20.7812 C   0  0  0  0  0  0  0  0  0  0  0  0
  -30.2057  -25.0865   18.8935 C   0  0  0  0  0  0  0  0  0  0  0  0
  -29.6095  -18.0725   20.9740 C   0  0  0  0  0  0  0  0  0  0  0  0
  -29.5121  -16.3875   22.3833 C   0  0  0  0  0  0  0  0  0  0  0  0
  -28.3062  -18.4341   23.1616 C   0  0  0  0  0  0  0  0  0  0  0  0
  -23.6827  -26.2373   21.0397 C   0  0  0  0  0  0  0  0  0  0  0  0
  -21.2483  -25.9552   23.1649 C   0  0  0  0  0  0  0  0  0  0  0  0
  -19.3094  -23.9154   25.0953 C   0  0  0  0  0  0  0  0  0  0  0  0
  -30.4123  -11.5722   19.3233 C   0  0  0  0  0  0  0  0  0  0  0  0
  -24.4935  -31.2493   21.5685 C   0  0  0  0  0  0  0  0  0  0  0  0
  -22.2547  -24.4756   19.9383 C   0  0  0  0  0  0  0  0  0  0  0  0
  -22.6788  -23.9076   22.8092 C   0  0  0  0  0  0  0  0  0  0  0  0
  -24.2650  -30.0744   22.5159 C   0  0  0  0  0  0  0  0  0  0  0  0
  -33.1116  -13.6224   20.4131 C   0  0  0  0  0  0  0  0  0  0  0  0
  -25.1751  -28.9069   22.1478 C   0  0  0  0  0  0  0  0  0  0  0  0
  -32.4348  -14.9418   20.7917 C   0  0  0  0  0  0  0  0  0  0  0  0
  -23.9917  -13.7198   20.5255 C   0  0  0  0  0  0  0  0  0  0  0  0
  -26.1833  -14.4678   21.5507 C   0  0  0  0  0  0  0  0  0  0  0  0
  -24.1757  -12.3325   21.1446 C   0  0  0  0  0  0  0  0  0  0  0  0
  -26.3658  -13.0819   22.1725 C   0  0  0  0  0  0  0  0  0  0  0  0
  -32.4566  -12.9789   19.1922 C   0  0  0  0  0  0  0  0  0  0  0  0
  -30.3255  -14.1196   19.6684 C   0  0  0  0  0  0  0  0  0  0  0  0
  -24.8756  -28.3991   20.7322 C   0  0  1  0  0  0  0  0  0  0  0  0
  -22.3274  -25.5919   20.9756 C   0  0  1  0  0  0  0  0  0  0  0  0
  -30.9093  -14.7728   20.9319 C   0  0  2  0  0  0  0  0  0  0  0  0
  -24.7034  -14.7871   21.3534 C   0  0  0  0  0  0  0  0  0  0  0  0
  -25.6494  -11.9925   21.3715 C   0  0  0  0  0  0  0  0  0  0  0  0
  -17.4271  -23.9783   26.7537 C   0  0  0  0  0  0  0  0  0  0  0  0
  -23.1799  -26.9297   25.3165 C   0  0  0  0  0  0  0  0  0  0  0  0
  -21.5778  -26.0785   27.0419 C   0  0  0  0  0  0  0  0  0  0  0  0
  -20.8745  -27.8863   25.4735 C   0  0  0  0  0  0  0  0  0  0  0  0
  -17.5633  -22.2827   23.3504 C   0  0  0  0  0  0  0  0  0  0  0  0
  -24.7417  -17.2767   21.5425 C   0  0  0  0  0  0  0  0  0  0  0  0
  -24.6289  -18.5416   20.7145 C   0  0  0  0  0  0  0  0  0  1  0  0
  -21.1329  -25.5251   24.6074 C   0  0  1  0  0  0  0  0  0  0  0  0
  -17.8053  -23.8414   25.2871 C   0  0  2  0  0  0  0  0  0  0  0  0
  -21.7017  -26.5875   25.5899 C   0  0  0  0  0  0  0  0  0  0  0  0
  -30.3030  -17.0983   20.3791 N   0  0  0  0  0  0  0  0  0  0  0  0
  -30.2258  -16.0869   21.2606 N   0  0  0  0  0  0  0  0  0  0  0  0
  -22.0108  -25.1282   22.3280 N   0  0  0  0  0  0  0  0  0  0  0  0
  -31.0127  -12.8468   19.3987 N   0  0  0  0  0  0  0  0  0  0  0  0
  -29.3356  -15.4849   23.3715 N   0  0  0  0  0  0  0  0  0  0  0  0
  -27.9648  -19.7553   22.8420 N   0  0  0  0  0  0  0  0  0  0  0  0
  -29.0397  -11.5660   19.5694 N   0  0  0  0  0  0  0  0  0  0  0  0
  -23.6798  -27.5840   20.7301 N   0  0  0  0  0  0  0  0  0  0  0  0
  -19.7271  -25.2015   24.8255 N   0  0  0  0  0  0  0  0  0  0  0  0
  -24.5824  -16.0956   20.6572 N   0  3  0  0  0  0  0  0  0  0  0  0
  -17.2828  -22.5385   24.7867 N   0  3  0  0  0  0  0  0  0  0  0  0
  -27.9309  -17.9507   24.2565 O   0  0  0  0  0  0  0  0  0  0  0  0
  -24.6587  -25.5637   21.3487 O   0  0  0  0  0  0  0  0  0  0  0  0
  -20.6769  -26.9832   22.7928 O   0  0  0  0  0  0  0  0  0  0  0  0
  -20.0409  -22.9315   25.1802 O   0  0  0  0  0  0  0  0  0  0  0  0
  -31.0721  -10.5570   19.0867 O   0  0  0  0  0  0  0  0  0  0  0  0
  -29.0210  -23.0345   18.4640 O   0  0  0  0  0  0  0  0  0  0  0  0
  -26.2815  -11.8322   20.1030 O   0  0  0  0  0  0  0  0  0  0  0  0
  -24.8005  -19.6807   21.5567 O   0  0  0  0  0  0  0  0  0  1  0  0
  -29.7646  -27.5607   21.5241 F   0  0  0  0  0  0  0  0  0  0  0  0
  -30.9848  -24.8721   17.8244 F   0  0  0  0  0  0  0  0  0  0  0  0
  1  2  1  0  0  0  0
  1  7  2  0  0  0  0
  2  8  2  0  0  0  0
  3  4  1  0  0  0  0
  3 10  2  0  0  0  0
  4 11  2  0  0  0  0
  5 12  2  0  0  0  0
  5 19  1  0  0  0  0
  6 13  1  0  0  0  0
  6 19  2  0  0  0  0
  7 21  1  0  0  0  0
  8 23  1  0  0  0  0
  9 14  2  0  0  0  0
  9 22  1  0  0  0  0
 10 25  1  0  0  0  0
 11 28  1  0  0  0  0
 12 26  1  0  0  0  0
 13 26  2  0  0  0  0
 14 27  1  0  0  0  0
 15 16  2  0  0  0  0
 15 29  1  0  0  0  0
 16 30  1  0  0  0  0
 17 24  1  0  0  0  0
 17 27  2  0  0  0  0
 18 30  2  0  0  0  0
 18 31  1  0  0  0  0
 19 32  1  0  0  0  0
 20 32  1  0  0  0  0
 20 33  2  0  0  0  0
 20 34  1  0  0  0  0
 21 23  2  0  0  0  0
 21 39  1  0  0  0  0
 22 24  2  0  0  0  0
 22 40  1  0  0  0  0
 23 52  1  0  0  0  0
 24 41  1  0  0  0  0
 25 28  2  0  0  0  0
 25 73  1  0  0  0  0
 26 83  1  0  0  0  0
 27 85  1  0  0  0  0
 28 84  1  0  0  0  0
 29 31  2  0  0  0  0
 29 83  1  0  0  0  0
 30 86  1  0  0  0  0
 31 87  1  0  0  0  0
 32 67  2  0  0  0  0
 33 68  1  0  0  0  0
 33 71  1  0  0  0  0
 34 72  1  0  0  0  0
 34 78  2  0  0  0  0
 35 53  1  0  0  0  0
 35 74  1  0  0  0  0
 35 79  2  0  0  0  0
 36 64  1  0  0  0  0
 36 69  1  0  0  0  0
 36 80  2  0  0  0  0
 37 65  1  0  0  0  0
 37 75  1  0  0  0  0
 37 81  2  0  0  0  0
 38 70  1  0  0  0  0
 38 73  1  0  0  0  0
 38 82  2  0  0  0  0
 39 42  1  0  0  0  0
 40 53  1  0  0  0  0
 41 69  1  0  0  0  0
 42 44  1  0  0  0  0
 43 45  1  0  0  0  0
 43 50  1  0  0  0  0
 44 52  1  0  0  0  0
 45 54  1  0  0  0  0
 46 48  1  0  0  0  0
 46 55  1  0  0  0  0
 47 49  1  0  0  0  0
 47 55  1  0  0  0  0
 48 56  1  0  0  0  0
 49 56  1  0  0  0  0
 50 70  1  0  0  0  0
 51 54  1  0  0  0  0
 51 70  1  0  0  0  0
 52 74  1  0  0  0  0
 53 69  1  0  0  0  0
 54 68  1  0  0  0  0
 55 76  1  0  0  0  0
 56 84  1  0  0  0  0
 57 65  1  0  0  0  0
 58 66  1  0  0  0  0
 59 66  1  0  0  0  0
 60 66  1  0  0  0  0
 61 77  1  0  0  0  0
 62 63  1  0  0  0  0
 62 76  1  0  0  0  0
 63 85  1  0  0  0  0
 64 66  1  0  0  0  0
 64 75  1  0  0  0  0
 65 77  1  0  0  0  0
 67 68  1  0  0  0  0
M  CHG  2  76   1  77   1
M  ISO  4  38 100  63 101  73 100  85 101
M  END
> <Batch ID>
0136

> <Smiles>
CNC(C)C(=O)NC(C(=O)N1Cc2cc([101O:1][101CH2:1]CNC3CCC(Oc4ccccc4[100NH:0][100C:0](=O)N4CCCC(n5nc(-c6ccc(Oc7ccc(F)cc7F)cc6)c(C(N)=O)c5N)C4)CC3)ccc2CC1C(=O)NC1CCCc2ccccc21)C(C)(C)C

> <Shape>
0.230

> <Color>
0.066

> <Negative vol penalty>
0.000

$$$$

  -OEChem-04052321023D

 87 96  0     1  0  0  0  0  0999 V2000
  -32.3476  -16.4914   22.9434 C   0  0  0  0  0  0  0  0  0  0  0  0
  -31.4246  -17.2966   22.2837 C   0  0  0  0  0  0  0  0  0  0  0  0
  -24.2109  -27.8852   20.9664 C   0  0  0  0  0  0  0  0  0  0  0  0
  -25.1154  -28.6924   23.0562 C   0  0  0  0  0  0  0  0  0  0  0  0
  -32.1790  -15.1075   22.9580 C   0  0  0  0  0  0  0  0  0  0  0  0
  -30.3329  -16.7181   21.6373 C   0  0  0  0  0  0  0  0  0  0  0  0
  -24.6936  -19.0523   21.1310 C   0  0  0  0  0  0  0  0  0  0  0  0
  -27.6107  -21.9252   16.3770 C   0  0  0  0  0  0  0  0  0  0  0  0
  -22.9372  -28.2968   21.3586 C   0  0  0  0  0  0  0  0  0  0  0  0
  -23.8417  -29.1040   23.4485 C   0  0  0  0  0  0  0  0  0  0  0  0
  -24.0549  -19.7478   20.1053 C   0  0  0  0  0  0  0  0  0  0  0  0
  -26.3458  -21.5409   15.9320 C   0  0  0  0  0  0  0  0  0  0  0  0
  -19.3882  -28.8105   21.9619 C   0  0  0  0  0  0  0  0  0  0  0  0
  -18.3270  -27.9301   21.7515 C   0  0  0  0  0  0  0  0  0  0  0  0
  -23.0748  -17.6860   19.3257 C   0  0  0  0  0  0  0  0  0  0  0  0
  -26.9048  -19.2265   16.3423 C   0  0  0  0  0  0  0  0  0  0  0  0
  -19.4043  -26.2938   23.1654 C   0  0  0  0  0  0  0  0  0  0  0  0
  -25.3000  -28.0830   21.8152 C   0  0  0  0  0  0  0  0  0  0  0  0
  -27.5736  -28.4108   20.7057 C   0  0  0  0  0  0  0  0  0  0  0  0
  -31.0794  -14.5125   22.3196 C   0  0  0  0  0  0  0  0  0  0  0  0
  -24.5361  -17.6644   21.2555 C   0  0  0  0  0  0  0  0  0  0  0  0
  -30.1500  -15.3248   21.6422 C   0  0  0  0  0  0  0  0  0  0  0  0
  -28.5227  -20.9603   16.8045 C   0  0  0  0  0  0  0  0  0  0  0  0
  -23.7105  -16.9756   20.3554 C   0  0  0  0  0  0  0  0  0  0  0  0
  -28.1697  -19.6109   16.7872 C   0  0  0  0  0  0  0  0  0  0  0  0
  -22.7526  -28.9062   22.5996 C   0  0  0  0  0  0  0  0  0  0  0  0
  -23.2477  -19.0643   19.2007 C   0  0  0  0  0  0  0  0  0  0  0  0
  -25.9929  -20.1915   15.9147 C   0  0  0  0  0  0  0  0  0  0  0  0
  -20.4575  -28.4326   22.7741 C   0  0  0  0  0  0  0  0  0  0  0  0
  -18.3350  -26.6717   22.3533 C   0  0  0  0  0  0  0  0  0  0  0  0
  -20.4655  -27.1743   23.3758 C   0  0  0  0  0  0  0  0  0  0  0  0
  -26.6159  -27.6575   21.4108 C   0  0  0  0  0  0  0  0  0  0  0  0
  -28.6456  -27.5628   20.5702 C   0  0  0  0  0  0  0  0  0  0  0  0
  -27.5008  -29.7567   20.2169 C   0  0  0  0  0  0  0  0  0  0  0  0
  -26.4947  -15.1642   21.1269 C   0  0  0  0  0  0  0  0  0  0  0  0
  -23.8356  -13.5294   22.0096 C   0  0  0  0  0  0  0  0  0  0  0  0
  -20.4277  -13.3784   22.1107 C   0  0  0  0  0  0  0  0  0  0  0  0
  -29.4438  -21.7933   19.7142 C   0  0  0  0  0  0  0  0  0  0  0  0
  -30.9649  -13.0086   22.3223 C   0  0  0  0  0  0  0  0  0  0  0  0
  -25.2105  -16.9328   22.3834 C   0  0  0  0  0  0  0  0  0  0  0  0
  -23.4925  -15.4889   20.4578 C   0  0  0  0  0  0  0  0  0  0  0  0
  -29.5786  -12.5027   21.9319 C   0  0  0  0  0  0  0  0  0  0  0  0
  -30.1933  -23.4847   22.8926 C   0  0  0  0  0  0  0  0  0  0  0  0
  -29.0745  -13.2313   20.6902 C   0  0  0  0  0  0  0  0  0  0  0  0
  -29.3895  -24.7807   22.7825 C   0  0  0  0  0  0  0  0  0  0  0  0
  -31.5280  -23.1453   17.0740 C   0  0  0  0  0  0  0  0  0  0  0  0
  -29.5402  -22.3409   22.1205 C   0  0  0  0  0  0  0  0  0  0  0  0
  -30.6056  -23.5027   18.2297 C   0  0  0  0  0  0  0  0  0  0  0  0
  -28.4447  -23.9439   20.5981 C   0  0  0  0  0  0  0  0  0  0  0  0
  -29.8893  -21.4021   17.2831 C   0  0  1  0  0  0  0  0  0  0  0  0
  -28.9394  -14.7365   20.9505 C   0  0  1  0  0  0  0  0  0  0  0  0
  -25.3902  -15.4433   22.1067 C   0  0  1  0  0  0  0  0  0  0  0  0
  -30.6568  -22.2191   16.2229 C   0  0  2  0  0  0  0  0  0  0  0  0
  -29.1046  -25.1326   21.3109 C   0  0  1  0  0  0  0  0  0  0  0  0
  -29.1299  -18.5601   17.2391 C   0  0  0  0  0  0  0  0  0  0  0  0
  -31.4766  -21.3583   15.2730 C   0  0  0  0  0  0  0  0  0  0  0  0
  -18.5427  -11.9013   22.8606 C   0  0  0  0  0  0  0  0  0  0  0  0
  -24.3084  -11.7100   19.6062 C   0  0  0  0  0  0  0  0  0  0  0  0
  -21.9533  -10.8955   19.8476 C   0  0  0  0  0  0  0  0  0  0  0  0
  -23.5948  -10.5232   21.6887 C   0  0  0  0  0  0  0  0  0  0  0  0
  -19.4100  -15.4316   23.9835 C   0  0  0  0  0  0  0  0  0  0  0  0
  -22.3751  -19.9921   15.8079 C   0  0  0  0  0  0  0  0  0  0  0  0
  -22.3823  -19.0304   16.9858 C   0  0  0  0  0  0  0  0  0  1  0  0
  -23.6915  -20.7421   15.6778 C   0  0  0  0  0  0  0  0  0  0  0  0
  -22.7036  -12.8527   21.2750 C   0  0  1  0  0  0  0  0  0  0  0  0
  -19.4671  -13.0481   23.2388 C   0  0  2  0  0  0  0  0  0  0  0  0
  -23.1455  -11.5231   20.6010 C   0  0  0  0  0  0  0  0  0  0  0  0
  -27.0418  -26.4257   21.7028 N   0  0  0  0  0  0  0  0  0  0  0  0
  -28.2789  -26.3984   21.1785 N   0  0  0  0  0  0  0  0  0  0  0  0
  -24.1785  -14.8172   21.5739 N   0  0  0  0  0  0  0  0  0  0  0  0
  -29.2586  -22.7306   20.7389 N   0  0  0  0  0  0  0  0  0  0  0  0
  -29.8300  -22.2832   18.4625 N   0  0  0  0  0  0  0  0  0  0  0  0
  -29.8565  -27.7070   19.9913 N   0  0  0  0  0  0  0  0  0  0  0  0
  -26.3259  -30.4868   20.4425 N   0  0  0  0  0  0  0  0  0  0  0  0
  -27.7385  -15.0123   21.7095 N   0  0  0  0  0  0  0  0  0  0  0  0
  -21.6219  -12.7017   22.2422 N   0  0  0  0  0  0  0  0  0  0  0  0
  -18.6306  -14.2359   23.5713 N   0  3  0  0  0  0  0  0  0  0  0  0
  -28.4432  -30.2903   19.5840 O   0  0  0  0  0  0  0  0  0  0  0  0
  -26.2372  -15.0904   19.9311 O   0  0  0  0  0  0  0  0  0  0  0  0
  -24.3903  -12.9400   22.9405 O   0  0  0  0  0  0  0  0  0  0  0  0
  -20.1455  -14.1559   21.2016 O   0  0  0  0  0  0  0  0  0  0  0  0
  -29.2985  -20.5806   19.9136 O   0  0  0  0  0  0  0  0  0  0  0  0
  -21.5099  -29.3081   22.9826 O   0  0  0  0  0  0  0  0  0  0  0  0
  -22.6191  -19.7455   18.1909 O   0  0  0  0  0  0  0  0  0  1  0  0
  -24.7589  -19.8162   15.4801 O   0  0  0  0  0  0  0  0  0  0  0  0
  -17.3152  -25.8269   22.1523 F   0  0  0  0  0  0  0  0  0  0  0  0
  -21.4894  -26.8060   24.1580 F   0  0  0  0  0  0  0  0  0  0  0  0
  1  2  1  0  0  0  0
  1  5  2  0  0  0  0
  2  6  2  0  0  0  0
  3  9  2  0  0  0  0
  3 18  1  0  0  0  0
  4 10  1  0  0  0  0
  4 18  2  0  0  0  0
  5 20  1  0  0  0  0
  6 22  1  0  0  0  0
  7 11  2  0  0  0  0
  7 21  1  0  0  0  0
  8 12  2  0  0  0  0
  8 23  1  0  0  0  0
  9 26  1  0  0  0  0
 10 26  2  0  0  0  0
 11 27  1  0  0  0  0
 12 28  1  0  0  0  0
 13 14  2  0  0  0  0
 13 29  1  0  0  0  0
 14 30  1  0  0  0  0
 15 24  1  0  0  0  0
 15 27  2  0  0  0  0
 16 25  1  0  0  0  0
 16 28  2  0  0  0  0
 17 30  2  0  0  0  0
 17 31  1  0  0  0  0
 18 32  1  0  0  0  0
 19 32  1  0  0  0  0
 19 33  2  0  0  0  0
 19 34  1  0  0  0  0
 20 22  2  0  0  0  0
 20 39  1  0  0  0  0
 21 24  2  0  0  0  0
 21 40  1  0  0  0  0
 22 51  1  0  0  0  0
 23 25  2  0  0  0  0
 23 50  1  0  0  0  0
 24 41  1  0  0  0  0
 25 55  1  0  0  0  0
 26 83  1  0  0  0  0
 27 84  1  0  0  0  0
 28 85  1  0  0  0  0
 29 31  2  0  0  0  0
 29 83  1  0  0  0  0
 30 86  1  0  0  0  0
 31 87  1  0  0  0  0
 32 68  2  0  0  0  0
 33 69  1  0  0  0  0
 33 73  1  0  0  0  0
 34 74  1  0  0  0  0
 34 78  2  0  0  0  0
 35 52  1  0  0  0  0
 35 75  1  0  0  0  0
 35 79  2  0  0  0  0
 36 65  1  0  0  0  0
 36 70  1  0  0  0  0
 36 80  2  0  0  0  0
 37 66  1  0  0  0  0
 37 76  1  0  0  0  0
 37 81  2  0  0  0  0
 38 71  1  0  0  0  0
 38 72  1  0  0  0  0
 38 82  2  0  0  0  0
 39 42  1  0  0  0  0
 40 52  1  0  0  0  0
 41 70  1  0  0  0  0
 42 44  1  0  0  0  0
 43 45  1  0  0  0  0
 43 47  1  0  0  0  0
 44 51  1  0  0  0  0
 45 54  1  0  0  0  0
 46 48  1  0  0  0  0
 46 53  1  0  0  0  0
 47 71  1  0  0  0  0
 48 72  1  0  0  0  0
 49 54  1  0  0  0  0
 49 71  1  0  0  0  0
 50 53  1  0  0  0  0
 50 72  1  0  0  0  0
 51 75  1  0  0  0  0
 52 70  1  0  0  0  0
 53 56  1  0  0  0  0
 54 69  1  0  0  0  0
 57 66  1  0  0  0  0
 58 67  1  0  0  0  0
 59 67  1  0  0  0  0
 60 67  1  0  0  0  0
 61 77  1  0  0  0  0
 62 63  1  0  0  0  0
 62 64  1  0  0  0  0
 63 84  1  0  0  0  0
 64 85  1  0  0  0  0
 65 67  1  0  0  0  0
 65 76  1  0  0  0  0
 66 77  1  0  0  0  0
 68 69  1  0  0  0  0
M  CHG  1  77   1
M  ISO  4  38 100  63 101  72 100  84 101
M  END
> <Batch ID>
0136

> <Smiles>
CNC(C)C(=O)NC(C(=O)N1Cc2cc([101O:1][101CH2:1]CCOc3ccc(C4C(C)CC[100N:0]4[100C:0](=O)N4CCCC(n5nc(-c6ccc(Oc7ccc(F)cc7F)cc6)c(C(N)=O)c5N)C4)c(C)c3)ccc2CC1C(=O)NC1CCCc2ccccc21)C(C)(C)C

> <Shape>
0.246

> <Color>
0.062

> <Negative vol penalty>
0.000

$$$$

  -OEChem-04052321023D

 83 92  0     1  0  0  0  0  0999 V2000
  -29.7580  -12.2770   19.9185 C   0  0  0  0  0  0  0  0  0  0  0  0
  -29.7501  -13.3962   20.7448 C   0  0  0  0  0  0  0  0  0  0  0  0
  -29.7602  -23.0664   20.1137 C   0  0  0  0  0  0  0  0  0  0  0  0
  -27.6760  -23.0714   18.8917 C   0  0  0  0  0  0  0  0  0  0  0  0
  -28.8573  -12.1887   18.8579 C   0  0  0  0  0  0  0  0  0  0  0  0
  -28.8421  -14.4281   20.5104 C   0  0  0  0  0  0  0  0  0  0  0  0
  -24.9740  -19.3571   23.9831 C   0  0  0  0  0  0  0  0  0  0  0  0
  -22.9931  -25.4204   24.7921 C   0  0  0  0  0  0  0  0  0  0  0  0
  -29.6214  -21.6980   20.3450 C   0  0  0  0  0  0  0  0  0  0  0  0
  -27.5372  -21.7028   19.1230 C   0  0  0  0  0  0  0  0  0  0  0  0
  -24.7231  -20.7285   23.9790 C   0  0  0  0  0  0  0  0  0  0  0  0
  -30.0988  -18.8213   18.6334 C   0  0  0  0  0  0  0  0  0  0  0  0
  -31.2202  -18.0143   18.4412 C   0  0  0  0  0  0  0  0  0  0  0  0
  -22.6143  -26.7484   24.6302 C   0  0  0  0  0  0  0  0  0  0  0  0
  -23.1607  -20.4311   22.1652 C   0  0  0  0  0  0  0  0  0  0  0  0
  -31.1198  -17.3240   20.7543 C   0  0  0  0  0  0  0  0  0  0  0  0
  -24.2962  -25.6050   22.8111 C   0  0  0  0  0  0  0  0  0  0  0  0
  -28.7875  -23.7532   19.3871 C   0  0  0  0  0  0  0  0  0  0  0  0
  -29.5709  -25.7845   18.0574 C   0  0  0  0  0  0  0  0  0  0  0  0
  -27.9313  -13.2157   18.6162 C   0  0  0  0  0  0  0  0  0  0  0  0
  -24.3272  -18.5124   23.0696 C   0  0  0  0  0  0  0  0  0  0  0  0
  -27.9290  -14.3540   19.4448 C   0  0  0  0  0  0  0  0  0  0  0  0
  -23.4032  -19.0489   22.1616 C   0  0  0  0  0  0  0  0  0  0  0  0
  -23.8498  -24.8303   23.8695 C   0  0  0  0  0  0  0  0  0  0  0  0
  -28.5099  -21.0161   19.8497 C   0  0  0  0  0  0  0  0  0  0  0  0
  -23.8185  -21.2661   23.0680 C   0  0  0  0  0  0  0  0  0  0  0  0
  -29.4879  -18.8797   19.8860 C   0  0  0  0  0  0  0  0  0  0  0  0
  -31.7307  -17.2657   19.5017 C   0  0  0  0  0  0  0  0  0  0  0  0
  -29.9984  -18.1310   20.9465 C   0  0  0  0  0  0  0  0  0  0  0  0
  -28.9301  -25.1670   19.1482 C   0  0  0  0  0  0  0  0  0  0  0  0
  -23.1162  -27.4373   23.5378 C   0  0  0  0  0  0  0  0  0  0  0  0
  -29.4335  -27.1302   18.2954 C   0  0  0  0  0  0  0  0  0  0  0  0
  -30.2311  -25.1944   16.9298 C   0  0  0  0  0  0  0  0  0  0  0  0
  -25.2838  -16.5962   20.7208 C   0  0  0  0  0  0  0  0  0  0  0  0
  -22.1476  -15.7714   20.6418 C   0  0  0  0  0  0  0  0  0  0  0  0
  -18.9116  -16.6164   21.3210 C   0  0  0  0  0  0  0  0  0  0  0  0
  -25.4600  -30.3322   21.4274 C   0  0  0  0  0  0  0  0  0  0  0  0
  -27.0088  -13.0968   17.4290 C   0  0  0  0  0  0  0  0  0  0  0  0
  -24.5887  -17.0316   23.1048 C   0  0  0  0  0  0  0  0  0  0  0  0
  -22.6674  -18.1823   21.1737 C   0  0  0  0  0  0  0  0  0  0  0  0
  -25.8283  -14.0636   17.4757 C   0  0  0  0  0  0  0  0  0  0  0  0
  -28.9916  -30.2737   21.8751 C   0  0  0  0  0  0  0  0  0  0  0  0
  -26.3011  -15.4660   17.8451 C   0  0  0  0  0  0  0  0  0  0  0  0
  -29.4342  -29.0140   21.1286 C   0  0  0  0  0  0  0  0  0  0  0  0
  -21.2579  -29.2193   23.3003 C   0  0  0  0  0  0  0  0  0  0  0  0
  -27.6446  -30.0759   22.5668 C   0  0  0  0  0  0  0  0  0  0  0  0
  -27.0038  -28.3381   20.9410 C   0  0  0  0  0  0  0  0  0  0  0  0
  -26.9427  -15.4829   19.2378 C   0  0  1  0  0  0  0  0  0  0  0  0
  -22.7236  -28.8638   23.3451 C   0  0  2  0  0  0  0  0  0  0  0  0
  -24.2589  -16.3352   21.7881 C   0  0  1  0  0  0  0  0  0  0  0  0
  -22.0753  -29.2729   22.0441 C   0  0  2  0  0  0  0  0  0  0  0  0
  -28.3305  -28.5070   20.1810 C   0  0  2  0  0  0  0  0  0  0  0  0
  -16.5645  -15.7543   21.1089 C   0  0  0  0  0  0  0  0  0  0  0  0
  -22.1802  -16.4230   17.6611 C   0  0  0  0  0  0  0  0  0  0  0  0
  -19.6776  -16.4685   17.7147 C   0  0  0  0  0  0  0  0  0  0  0  0
  -20.8970  -14.3630   18.2647 C   0  0  0  0  0  0  0  0  0  0  0  0
  -18.5051  -16.6655   24.2521 C   0  0  0  0  0  0  0  0  0  0  0  0
  -24.2759  -23.3990   24.0153 C   0  0  0  0  0  0  0  0  0  1  0  0
  -22.4129  -30.5862   21.4264 C   0  0  0  0  0  0  0  0  0  0  0  0
  -23.3091  -30.4580   20.1958 C   0  0  0  0  0  0  0  0  0  0  0  0
  -20.9266  -16.2793   19.9137 C   0  0  1  0  0  0  0  0  0  0  0  0
  -17.7920  -15.8498   22.0016 C   0  0  2  0  0  0  0  0  0  0  0  0
  -20.9355  -15.9003   18.4058 C   0  0  0  0  0  0  0  0  0  0  0  0
  -23.9502  -26.8979   22.6207 N   0  0  0  0  0  0  0  0  0  0  0  0
  -28.4234  -26.0480   20.0149 N   0  0  0  0  0  0  0  0  0  0  0  0
  -28.7459  -27.2329   19.4688 N   0  0  0  0  0  0  0  0  0  0  0  0
  -22.9619  -16.7415   21.2432 N   0  0  0  0  0  0  0  0  0  0  0  0
  -26.6417  -29.5959   21.6129 N   0  0  0  0  0  0  0  0  0  0  0  0
  -29.8351  -28.2238   17.6135 N   0  0  0  0  0  0  0  0  0  0  0  0
  -30.2809  -23.7966   16.8409 N   0  0  0  0  0  0  0  0  0  0  0  0
  -25.9229  -15.4593   20.2644 N   0  0  0  0  0  0  0  0  0  0  0  0
  -19.7728  -15.7742   20.6499 N   0  0  0  0  0  0  0  0  0  0  0  0
  -24.5656  -29.8108   20.5006 N   0  0  0  0  0  0  0  0  0  0  0  0
  -17.3988  -16.5250   23.2706 N   0  3  0  0  0  0  0  0  0  0  0  0
  -30.7756  -25.8862   16.0362 O   0  0  0  0  0  0  0  0  0  0  0  0
  -25.4791  -17.7440   20.3386 O   0  0  0  0  0  0  0  0  0  0  0  0
  -22.3668  -14.5581   20.6818 O   0  0  0  0  0  0  0  0  0  0  0  0
  -19.0102  -17.8403   21.3759 O   0  0  0  0  0  0  0  0  0  0  0  0
  -25.2221  -31.3797   22.0383 O   0  0  0  0  0  0  0  0  0  0  0  0
  -28.3742  -19.6807   20.0750 O   0  0  0  0  0  0  0  0  0  0  0  0
  -23.5723  -22.6045   23.0614 O   0  0  0  0  0  0  0  0  0  1  0  0
  -32.8066  -16.4896   19.3166 F   0  0  0  0  0  0  0  0  0  0  0  0
  -29.4151  -18.1821   22.1519 F   0  0  0  0  0  0  0  0  0  0  0  0
  1  2  1  0  0  0  0
  1  5  2  0  0  0  0
  2  6  2  0  0  0  0
  3  9  2  0  0  0  0
  3 18  1  0  0  0  0
  4 10  1  0  0  0  0
  4 18  2  0  0  0  0
  5 20  1  0  0  0  0
  6 22  1  0  0  0  0
  7 11  2  0  0  0  0
  7 21  1  0  0  0  0
  8 14  2  0  0  0  0
  8 24  1  0  0  0  0
  9 25  1  0  0  0  0
 10 25  2  0  0  0  0
 11 26  1  0  0  0  0
 12 13  2  0  0  0  0
 12 27  1  0  0  0  0
 13 28  1  0  0  0  0
 14 31  1  0  0  0  0
 15 23  1  0  0  0  0
 15 26  2  0  0  0  0
 16 28  2  0  0  0  0
 16 29  1  0  0  0  0
 17 24  2  0  0  0  0
 17 64  1  0  0  0  0
 18 30  1  0  0  0  0
 19 30  1  0  0  0  0
 19 32  2  0  0  0  0
 19 33  1  0  0  0  0
 20 22  2  0  0  0  0
 20 38  1  0  0  0  0
 21 23  2  0  0  0  0
 21 39  1  0  0  0  0
 22 48  1  0  0  0  0
 23 40  1  0  0  0  0
 24 58  1  0  0  0  0
 25 80  1  0  0  0  0
 26 81  1  0  0  0  0
 27 29  2  0  0  0  0
 27 80  1  0  0  0  0
 28 82  1  0  0  0  0
 29 83  1  0  0  0  0
 30 65  2  0  0  0  0
 31 49  1  0  0  0  0
 31 64  2  0  0  0  0
 32 66  1  0  0  0  0
 32 69  1  0  0  0  0
 33 70  1  0  0  0  0
 33 75  2  0  0  0  0
 34 50  1  0  0  0  0
 34 71  1  0  0  0  0
 34 76  2  0  0  0  0
 35 61  1  0  0  0  0
 35 67  1  0  0  0  0
 35 77  2  0  0  0  0
 36 62  1  0  0  0  0
 36 72  1  0  0  0  0
 36 78  2  0  0  0  0
 37 68  1  0  0  0  0
 37 73  1  0  0  0  0
 37 79  2  0  0  0  0
 38 41  1  0  0  0  0
 39 50  1  0  0  0  0
 40 67  1  0  0  0  0
 41 43  1  0  0  0  0
 42 44  1  0  0  0  0
 42 46  1  0  0  0  0
 43 48  1  0  0  0  0
 44 52  1  0  0  0  0
 45 49  1  0  0  0  0
 45 51  1  0  0  0  0
 46 68  1  0  0  0  0
 47 52  1  0  0  0  0
 47 68  1  0  0  0  0
 48 71  1  0  0  0  0
 49 51  1  0  0  0  0
 50 67  1  0  0  0  0
 51 59  1  0  0  0  0
 52 66  1  0  0  0  0
 53 62  1  0  0  0  0
 54 63  1  0  0  0  0
 55 63  1  0  0  0  0
 56 63  1  0  0  0  0
 57 74  1  0  0  0  0
 58 81  1  0  0  0  0
 59 60  1  0  0  0  0
 60 73  1  0  0  0  0
 61 63  1  0  0  0  0
 61 72  1  0  0  0  0
 62 74  1  0  0  0  0
 65 66  1  0  0  0  0
M  CHG  1  74   1
M  ISO  4  37 100  58 101  73 100  81 101
M  END
> <Batch ID>
0136

> <Smiles>
CNC(C)C(=O)NC(C(=O)N1Cc2cc([101O:1][101CH2:1]c3ccc(C4CC4CC[100NH:0][100C:0](=O)N4CCCC(n5nc(-c6ccc(Oc7ccc(F)cc7F)cc6)c(C(N)=O)c5N)C4)nc3)ccc2CC1C(=O)NC1CCCc2ccccc21)C(C)(C)C

> <Shape>
0.230

> <Color>
0.063

> <Negative vol penalty>
0.000

$$$$

  -OEChem-04052321023D

 79 87  0     1  0  0  0  0  0999 V2000
  -26.7908  -32.6003   28.2099 C   0  0  0  0  0  0  0  0  0  0  0  0
  -27.2168  -31.6063   27.3348 C   0  0  0  0  0  0  0  0  0  0  0  0
  -26.4917  -12.7357   21.6104 C   0  0  0  0  0  0  0  0  0  0  0  0
  -26.0089  -13.7390   19.4663 C   0  0  0  0  0  0  0  0  0  0  0  0
  -25.4422  -32.9504   28.2621 C   0  0  0  0  0  0  0  0  0  0  0  0
  -26.2943  -30.9609   26.5122 C   0  0  0  0  0  0  0  0  0  0  0  0
  -27.2384  -28.9160   20.8172 C   0  0  0  0  0  0  0  0  0  0  0  0
  -27.8608  -23.6136   17.4287 C   0  0  0  0  0  0  0  0  0  0  0  0
  -25.2380  -12.1244   21.6067 C   0  0  0  0  0  0  0  0  0  0  0  0
  -24.7551  -13.1277   19.4625 C   0  0  0  0  0  0  0  0  0  0  0  0
  -27.5355  -27.6510   20.3120 C   0  0  0  0  0  0  0  0  0  0  0  0
  -23.7840   -9.4314   20.1691 C   0  0  0  0  0  0  0  0  0  0  0  0
  -23.7168   -8.0879   20.5379 C   0  0  0  0  0  0  0  0  0  0  0  0
  -27.9663  -22.3413   16.8667 C   0  0  0  0  0  0  0  0  0  0  0  0
  -25.1940  -27.2885   19.8591 C   0  0  0  0  0  0  0  0  0  0  0  0
  -28.8125  -22.7829   19.4881 C   0  0  0  0  0  0  0  0  0  0  0  0
  -22.2399   -8.6623   22.3615 C   0  0  0  0  0  0  0  0  0  0  0  0
  -26.8772  -13.5430   20.5402 C   0  0  0  0  0  0  0  0  0  0  0  0
  -29.3739  -13.6539   20.0288 C   0  0  0  0  0  0  0  0  0  0  0  0
  -24.5041  -32.3156   27.4328 C   0  0  0  0  0  0  0  0  0  0  0  0
  -25.9134  -29.3732   20.8573 C   0  0  0  0  0  0  0  0  0  0  0  0
  -24.9317  -31.3018   26.5543 C   0  0  0  0  0  0  0  0  0  0  0  0
  -24.8830  -28.5608   20.3630 C   0  0  0  0  0  0  0  0  0  0  0  0
  -28.2840  -23.8344   18.7394 C   0  0  0  0  0  0  0  0  0  0  0  0
  -28.9180  -21.5106   18.9262 C   0  0  0  0  0  0  0  0  0  0  0  0
  -24.3697  -12.3203   20.5328 C   0  0  0  0  0  0  0  0  0  0  0  0
  -26.5129  -26.8359   19.8355 C   0  0  0  0  0  0  0  0  0  0  0  0
  -23.0792  -10.3904   20.8966 C   0  0  0  0  0  0  0  0  0  0  0  0
  -22.9447   -7.7033   21.6341 C   0  0  0  0  0  0  0  0  0  0  0  0
  -22.3071  -10.0059   21.9927 C   0  0  0  0  0  0  0  0  0  0  0  0
  -28.4949  -21.2898   17.6154 C   0  0  0  0  0  0  0  0  0  0  0  0
  -28.1719  -14.1753   20.5437 C   0  0  0  0  0  0  0  0  0  0  0  0
  -30.3061  -14.6320   20.2757 C   0  0  0  0  0  0  0  0  0  0  0  0
  -29.6254  -12.3978   19.3849 C   0  0  0  0  0  0  0  0  0  0  0  0
  -23.9082  -30.2394   23.1666 C   0  0  0  0  0  0  0  0  0  0  0  0
  -22.0050  -31.0608   20.6715 C   0  0  0  0  0  0  0  0  0  0  0  0
  -21.1819  -30.6230   17.3886 C   0  0  0  0  0  0  0  0  0  0  0  0
  -29.9151  -20.5467   21.0293 C   0  0  0  0  0  0  0  0  0  0  0  0
  -23.0499  -32.6950   27.5587 C   0  0  0  0  0  0  0  0  0  0  0  0
  -25.6126  -30.7509   21.3806 C   0  0  0  0  0  0  0  0  0  0  0  0
  -23.4463  -29.0129   20.3650 C   0  0  0  0  0  0  0  0  0  0  0  0
  -22.1938  -32.2241   26.3858 C   0  0  0  0  0  0  0  0  0  0  0  0
  -31.2794  -18.1930   23.3262 C   0  0  0  0  0  0  0  0  0  0  0  0
  -22.5011  -30.7678   26.0515 C   0  0  0  0  0  0  0  0  0  0  0  0
  -30.7517  -16.8475   22.8229 C   0  0  0  0  0  0  0  0  0  0  0  0
  -30.2472  -19.3063   23.1568 C   0  0  0  0  0  0  0  0  0  0  0  0
  -29.1721  -18.0990   21.2978 C   0  0  0  0  0  0  0  0  0  0  0  0
  -23.9649  -30.5959   25.6284 C   0  0  1  0  0  0  0  0  0  0  0  0
  -24.1691  -30.9106   21.8478 C   0  0  1  0  0  0  0  0  0  0  0  0
  -30.2004  -16.9596   21.3879 C   0  0  2  0  0  0  0  0  0  0  0  0
  -19.5581  -31.4071   15.6434 C   0  0  0  0  0  0  0  0  0  0  0  0
  -19.8244  -29.3367   21.9294 C   0  0  0  0  0  0  0  0  0  0  0  0
  -18.6187  -29.3841   19.7357 C   0  0  0  0  0  0  0  0  0  0  0  0
  -19.0213  -31.5073   20.9817 C   0  0  0  0  0  0  0  0  0  0  0  0
  -23.3521  -31.6899   15.6825 C   0  0  0  0  0  0  0  0  0  0  0  0
  -28.1707  -25.2032   19.3434 C   0  0  0  0  0  0  0  0  0  1  0  0
  -20.9606  -30.3507   19.8445 C   0  0  1  0  0  0  0  0  0  0  0  0
  -20.9261  -31.6199   16.2727 C   0  0  2  0  0  0  0  0  0  0  0  0
  -19.6330  -30.1351   20.6244 C   0  0  0  0  0  0  0  0  0  0  0  0
  -28.3237  -15.3902   21.0775 N   0  0  0  0  0  0  0  0  0  0  0  0
  -29.6320  -15.6403   20.8994 N   0  0  0  0  0  0  0  0  0  0  0  0
  -23.2023  -30.3655   20.8927 N   0  0  0  0  0  0  0  0  0  0  0  0
  -29.7731  -19.3555   21.7719 N   0  0  0  0  0  0  0  0  0  0  0  0
  -31.6283  -14.7192   20.0179 N   0  0  0  0  0  0  0  0  0  0  0  0
  -28.5550  -11.5098   19.2113 N   0  0  0  0  0  0  0  0  0  0  0  0
  -29.4582  -20.4643   19.7144 N   0  0  0  0  0  0  0  0  0  0  0  0
  -24.1525  -31.0421   24.2645 N   0  0  0  0  0  0  0  0  0  0  0  0
  -20.8139  -31.1271   18.6181 N   0  0  0  0  0  0  0  0  0  0  0  0
  -21.9597  -31.4820   15.2080 N   0  3  0  0  0  0  0  0  0  0  0  0
  -30.7688  -12.0655   18.9903 O   0  0  0  0  0  0  0  0  0  0  0  0
  -23.5131  -29.0796   23.1865 O   0  0  0  0  0  0  0  0  0  0  0  0
  -21.7701  -32.1937   21.0994 O   0  0  0  0  0  0  0  0  0  0  0  0
  -21.6569  -29.5072   17.1891 O   0  0  0  0  0  0  0  0  0  0  0  0
  -30.4307  -21.5568   21.5150 O   0  0  0  0  0  0  0  0  0  0  0  0
  -23.1463  -11.7238   20.5287 O   0  0  0  0  0  0  0  0  0  0  0  0
  -26.8000  -25.6004   19.3425 O   0  0  0  0  0  0  0  0  0  1  0  0
  -22.8791   -6.4129   21.9871 F   0  0  0  0  0  0  0  0  0  0  0  0
  -21.6268  -10.9225   22.6948 F   0  0  0  0  0  0  0  0  0  0  0  0
  -28.6069  -19.7304   16.8803 Cl  0  0  0  0  0  0  0  0  0  0  0  0
  1  2  1  0  0  0  0
  1  5  2  0  0  0  0
  2  6  2  0  0  0  0
  3  9  2  0  0  0  0
  3 18  1  0  0  0  0
  4 10  1  0  0  0  0
  4 18  2  0  0  0  0
  5 20  1  0  0  0  0
  6 22  1  0  0  0  0
  7 11  2  0  0  0  0
  7 21  1  0  0  0  0
  8 14  2  0  0  0  0
  8 24  1  0  0  0  0
  9 26  1  0  0  0  0
 10 26  2  0  0  0  0
 11 27  1  0  0  0  0
 12 13  2  0  0  0  0
 12 28  1  0  0  0  0
 13 29  1  0  0  0  0
 14 31  1  0  0  0  0
 15 23  1  0  0  0  0
 15 27  2  0  0  0  0
 16 24  2  0  0  0  0
 16 25  1  0  0  0  0
 17 29  2  0  0  0  0
 17 30  1  0  0  0  0
 18 32  1  0  0  0  0
 19 32  1  0  0  0  0
 19 33  2  0  0  0  0
 19 34  1  0  0  0  0
 20 22  2  0  0  0  0
 20 39  1  0  0  0  0
 21 23  2  0  0  0  0
 21 40  1  0  0  0  0
 22 48  1  0  0  0  0
 23 41  1  0  0  0  0
 24 56  1  0  0  0  0
 25 31  2  0  0  0  0
 25 66  1  0  0  0  0
 26 75  1  0  0  0  0
 27 76  1  0  0  0  0
 28 30  2  0  0  0  0
 28 75  1  0  0  0  0
 29 77  1  0  0  0  0
 30 78  1  0  0  0  0
 31 79  1  0  0  0  0
 32 60  2  0  0  0  0
 33 61  1  0  0  0  0
 33 64  1  0  0  0  0
 34 65  1  0  0  0  0
 34 70  2  0  0  0  0
 35 49  1  0  0  0  0
 35 67  1  0  0  0  0
 35 71  2  0  0  0  0
 36 57  1  0  0  0  0
 36 62  1  0  0  0  0
 36 72  2  0  0  0  0
 37 58  1  0  0  0  0
 37 68  1  0  0  0  0
 37 73  2  0  0  0  0
 38 63  1  0  0  0  0
 38 66  1  0  0  0  0
 38 74  2  0  0  0  0
 39 42  1  0  0  0  0
 40 49  1  0  0  0  0
 41 62  1  0  0  0  0
 42 44  1  0  0  0  0
 43 45  1  0  0  0  0
 43 46  1  0  0  0  0
 44 48  1  0  0  0  0
 45 50  1  0  0  0  0
 46 63  1  0  0  0  0
 47 50  1  0  0  0  0
 47 63  1  0  0  0  0
 48 67  1  0  0  0  0
 49 62  1  0  0  0  0
 50 61  1  0  0  0  0
 51 58  1  0  0  0  0
 52 59  1  0  0  0  0
 53 59  1  0  0  0  0
 54 59  1  0  0  0  0
 55 69  1  0  0  0  0
 56 76  1  0  0  0  0
 57 59  1  0  0  0  0
 57 68  1  0  0  0  0
 58 69  1  0  0  0  0
 60 61  1  0  0  0  0
M  CHG  1  69   1
M  ISO  4  38 100  56 101  66 100  76 101
M  END
> <Batch ID>
0136

> <Smiles>
CNC(C)C(=O)NC(C(=O)N1Cc2cc([101O:1][101CH2:1]c3ccc(Cl)c([100NH:0][100C:0](=O)N4CCCC(n5nc(-c6ccc(Oc7ccc(F)cc7F)cc6)c(C(N)=O)c5N)C4)c3)ccc2CC1C(=O)NC1CCCc2ccccc21)C(C)(C)C

> <Shape>
0.293

> <Color>
0.112

> <Negative vol penalty>
0.000

$$$$

  -OEChem-04052321023D

 84 93  0     1  0  0  0  0  0999 V2000
  -34.2179  -18.0733   26.1268 C   0  0  0  0  0  0  0  0  0  0  0  0
  -33.6630  -19.0960   25.3640 C   0  0  0  0  0  0  0  0  0  0  0  0
  -31.1677  -25.8196   19.5910 C   0  0  0  0  0  0  0  0  0  0  0  0
  -30.5002  -26.3057   21.8615 C   0  0  0  0  0  0  0  0  0  0  0  0
  -34.0277  -16.7439   25.7521 C   0  0  0  0  0  0  0  0  0  0  0  0
  -32.9185  -18.7897   24.2254 C   0  0  0  0  0  0  0  0  0  0  0  0
  -26.0625  -20.9090   23.5968 C   0  0  0  0  0  0  0  0  0  0  0  0
  -32.4979  -26.0681   19.9288 C   0  0  0  0  0  0  0  0  0  0  0  0
  -31.8305  -26.5543   22.1993 C   0  0  0  0  0  0  0  0  0  0  0  0
  -24.8128  -21.4590   23.3106 C   0  0  0  0  0  0  0  0  0  0  0  0
  -34.0639  -29.0673   21.8420 C   0  0  0  0  0  0  0  0  0  0  0  0
  -34.3372  -30.2007   22.6077 C   0  0  0  0  0  0  0  0  0  0  0  0
  -24.7604  -20.2710   21.2049 C   0  0  0  0  0  0  0  0  0  0  0  0
  -35.2801  -28.8038   24.3388 C   0  0  0  0  0  0  0  0  0  0  0  0
  -30.1687  -25.9384   20.5573 C   0  0  0  0  0  0  0  0  0  0  0  0
  -28.2532  -24.4823   19.7099 C   0  0  0  0  0  0  0  0  0  0  0  0
  -33.2724  -16.4209   24.6138 C   0  0  0  0  0  0  0  0  0  0  0  0
  -26.6597  -20.0248   22.6941 C   0  0  0  0  0  0  0  0  0  0  0  0
  -32.7192  -17.4548   23.8344 C   0  0  0  0  0  0  0  0  0  0  0  0
  -26.0064  -19.7072   21.4919 C   0  0  0  0  0  0  0  0  0  0  0  0
  -32.8294  -26.4355   21.2330 C   0  0  0  0  0  0  0  0  0  0  0  0
  -24.1635  -21.1409   22.1175 C   0  0  0  0  0  0  0  0  0  0  0  0
  -34.3986  -27.8021   22.3247 C   0  0  0  0  0  0  0  0  0  0  0  0
  -34.9453  -30.0690   23.8561 C   0  0  0  0  0  0  0  0  0  0  0  0
  -35.0068  -27.6704   23.5731 C   0  0  0  0  0  0  0  0  0  0  0  0
  -28.7943  -25.6823   20.2088 C   0  0  0  0  0  0  0  0  0  0  0  0
  -26.9170  -24.7518   19.5419 C   0  0  0  0  0  0  0  0  0  0  0  0
  -28.9006  -23.2353   19.4241 C   0  0  0  0  0  0  0  0  0  0  0  0
  -29.5913  -17.8216   21.9019 C   0  0  0  0  0  0  0  0  0  0  0  0
  -27.0745  -16.3100   21.0124 C   0  0  0  0  0  0  0  0  0  0  0  0
  -24.0451  -14.8090   20.5573 C   0  0  0  0  0  0  0  0  0  0  0  0
  -23.3188  -28.6092   22.1932 C   0  0  0  0  0  0  0  0  0  0  0  0
  -33.1338  -14.9711   24.2219 C   0  0  0  0  0  0  0  0  0  0  0  0
  -28.0323  -19.4566   22.9329 C   0  0  0  0  0  0  0  0  0  0  0  0
  -26.7024  -18.7785   20.5348 C   0  0  0  0  0  0  0  0  0  0  0  0
  -32.0176  -14.7170   23.2121 C   0  0  0  0  0  0  0  0  0  0  0  0
  -17.7431  -27.9141   23.5031 C   0  0  0  0  0  0  0  0  0  0  0  0
  -23.9109  -28.3632   18.6314 C   0  0  0  0  0  0  0  0  0  0  0  0
  -32.0812  -15.7357   22.0785 C   0  0  0  0  0  0  0  0  0  0  0  0
  -18.7741  -28.9962   23.8364 C   0  0  0  0  0  0  0  0  0  0  0  0
  -25.1904  -27.5256   18.5929 C   0  0  0  0  0  0  0  0  0  0  0  0
  -18.2910  -27.1491   22.2972 C   0  0  0  0  0  0  0  0  0  0  0  0
  -22.0029  -25.3167   21.7478 C   0  0  0  0  0  0  0  0  0  0  0  0
  -21.0388  -24.2528   23.8358 C   0  0  0  0  0  0  0  0  0  0  0  0
  -22.4172  -23.9376   21.2404 C   0  0  0  0  0  0  0  0  0  0  0  0
  -21.4559  -22.8763   23.3236 C   0  0  0  0  0  0  0  0  0  0  0  0
  -23.9227  -29.3369   19.8061 C   0  0  0  0  0  0  0  0  0  0  0  0
  -25.4121  -27.8590   21.0988 C   0  0  0  0  0  0  0  0  0  0  0  0
  -31.8846  -17.1618   22.6066 C   0  0  1  0  0  0  0  0  0  0  0  0
  -28.1912  -18.0200   22.4036 C   0  0  1  0  0  0  0  0  0  0  0  0
  -19.8273  -28.9204   22.7259 C   0  0  2  0  0  0  0  0  0  0  0  0
  -25.4514  -26.8388   19.9465 C   0  0  2  0  0  0  0  0  0  0  0  0
  -20.7927  -25.2129   22.6738 C   0  0  0  0  0  0  0  0  0  0  0  0
  -19.7820  -27.4607   22.2694 C   0  0  1  0  0  0  0  0  0  0  0  0
  -22.6646  -22.9634   22.3914 C   0  0  0  0  0  0  0  0  0  1  0  0
  -23.0072  -12.6731   19.7462 C   0  0  0  0  0  0  0  0  0  0  0  0
  -27.6178  -17.1452   18.1295 C   0  0  0  0  0  0  0  0  0  0  0  0
  -25.8090  -15.5719   17.4076 C   0  0  0  0  0  0  0  0  0  0  0  0
  -27.8365  -14.6921   18.5642 C   0  0  0  0  0  0  0  0  0  0  0  0
  -22.8091  -14.2731   23.1925 C   0  0  0  0  0  0  0  0  0  0  0  0
  -21.1895  -29.4416   23.1577 C   0  0  0  0  0  0  0  0  0  0  0  0
  -26.1203  -15.9928   19.8890 C   0  0  1  0  0  0  0  0  0  0  0  0
  -23.5313  -13.4363   20.9526 C   0  0  2  0  0  0  0  0  0  0  0  0
  -26.8404  -15.8712   18.5163 C   0  0  0  0  0  0  0  0  0  0  0  0
  -27.8768  -26.6429   20.3484 N   0  0  0  0  0  0  0  0  0  0  0  0
  -26.7456  -26.0466   19.9347 N   0  0  0  0  0  0  0  0  0  0  0  0
  -27.3168  -17.6641   21.2732 N   0  0  0  0  0  0  0  0  0  0  0  0
  -24.1572  -28.6175   21.0660 N   0  0  0  0  0  0  0  0  0  0  0  0
  -25.8836  -24.0053   19.0978 N   0  0  0  0  0  0  0  0  0  0  0  0
  -28.9810  -22.2754   20.4421 N   0  0  0  0  0  0  0  0  0  0  0  0
  -30.4846  -17.4132   22.8738 N   0  0  0  0  0  0  0  0  0  0  0  0
  -25.3984  -14.7913   20.2935 N   0  0  0  0  0  0  0  0  0  0  0  0
  -22.1535  -29.3581   22.0832 N   0  0  0  0  0  0  0  0  0  0  0  0
  -20.4878  -26.5618   23.2203 N   0  3  0  0  0  0  0  0  0  0  0  0
  -22.4267  -13.5627   21.9450 N   0  3  0  0  0  0  0  0  0  0  0  0
  -29.4077  -22.9863   18.3041 O   0  0  0  0  0  0  0  0  0  0  0  0
  -29.8436  -18.0224   20.7197 O   0  0  0  0  0  0  0  0  0  0  0  0
  -27.5967  -15.3842   21.6397 O   0  0  0  0  0  0  0  0  0  0  0  0
  -23.3180  -15.7972   20.4859 O   0  0  0  0  0  0  0  0  0  0  0  0
  -23.5862  -27.9764   23.2204 O   0  0  0  0  0  0  0  0  0  0  0  0
  -34.1274  -26.6779   21.5630 O   0  0  0  0  0  0  0  0  0  0  0  0
  -22.9417  -21.6779   21.8464 O   0  0  0  0  0  0  0  0  0  1  0  0
  -35.2091  -31.1576   24.5906 F   0  0  0  0  0  0  0  0  0  0  0  0
  -35.3318  -26.4577   24.0417 F   0  0  0  0  0  0  0  0  0  0  0  0
  1  2  1  0  0  0  0
  1  5  2  0  0  0  0
  2  6  2  0  0  0  0
  3  8  2  0  0  0  0
  3 15  1  0  0  0  0
  4  9  1  0  0  0  0
  4 15  2  0  0  0  0
  5 17  1  0  0  0  0
  6 19  1  0  0  0  0
  7 10  2  0  0  0  0
  7 18  1  0  0  0  0
  8 21  1  0  0  0  0
  9 21  2  0  0  0  0
 10 22  1  0  0  0  0
 11 12  2  0  0  0  0
 11 23  1  0  0  0  0
 12 24  1  0  0  0  0
 13 20  1  0  0  0  0
 13 22  2  0  0  0  0
 14 24  2  0  0  0  0
 14 25  1  0  0  0  0
 15 26  1  0  0  0  0
 16 26  1  0  0  0  0
 16 27  2  0  0  0  0
 16 28  1  0  0  0  0
 17 19  2  0  0  0  0
 17 33  1  0  0  0  0
 18 20  2  0  0  0  0
 18 34  1  0  0  0  0
 19 49  1  0  0  0  0
 20 35  1  0  0  0  0
 21 81  1  0  0  0  0
 22 82  1  0  0  0  0
 23 25  2  0  0  0  0
 23 81  1  0  0  0  0
 24 83  1  0  0  0  0
 25 84  1  0  0  0  0
 26 65  2  0  0  0  0
 27 66  1  0  0  0  0
 27 69  1  0  0  0  0
 28 70  1  0  0  0  0
 28 76  2  0  0  0  0
 29 50  1  0  0  0  0
 29 71  1  0  0  0  0
 29 77  2  0  0  0  0
 30 62  1  0  0  0  0
 30 67  1  0  0  0  0
 30 78  2  0  0  0  0
 31 63  1  0  0  0  0
 31 72  1  0  0  0  0
 31 79  2  0  0  0  0
 32 68  1  0  0  0  0
 32 73  1  0  0  0  0
 32 80  2  0  0  0  0
 33 36  1  0  0  0  0
 34 50  1  0  0  0  0
 35 67  1  0  0  0  0
 36 39  1  0  0  0  0
 37 40  1  0  0  0  0
 37 42  1  0  0  0  0
 38 41  1  0  0  0  0
 38 47  1  0  0  0  0
 39 49  1  0  0  0  0
 40 51  1  0  0  0  0
 41 52  1  0  0  0  0
 42 54  1  0  0  0  0
 43 45  1  0  0  0  0
 43 53  1  0  0  0  0
 44 46  1  0  0  0  0
 44 53  1  0  0  0  0
 45 55  1  0  0  0  0
 46 55  1  0  0  0  0
 47 68  1  0  0  0  0
 48 52  1  0  0  0  0
 48 68  1  0  0  0  0
 49 71  1  0  0  0  0
 50 67  1  0  0  0  0
 51 54  1  0  0  0  0
 51 61  1  0  0  0  0
 52 66  1  0  0  0  0
 53 74  1  0  0  0  0
 54 74  1  0  0  0  0
 55 82  1  0  0  0  0
 56 63  1  0  0  0  0
 57 64  1  0  0  0  0
 58 64  1  0  0  0  0
 59 64  1  0  0  0  0
 60 75  1  0  0  0  0
 61 73  1  0  0  0  0
 62 64  1  0  0  0  0
 62 72  1  0  0  0  0
 63 75  1  0  0  0  0
 65 66  1  0  0  0  0
M  CHG  2  74   1  75   1
M  ISO  4  32 100  55 101  73 100  82 101
M  END
> <Batch ID>
0136

> <Smiles>
CNC(C)C(=O)NC(C(=O)N1Cc2cc([101O:1][101CH:1]3CCC(NC4CCCC4C[100NH:0][100C:0](=O)N4CCCC(n5nc(-c6ccc(Oc7ccc(F)cc7F)cc6)c(C(N)=O)c5N)C4)CC3)ccc2CC1C(=O)NC1CCCc2ccccc21)C(C)(C)C

> <Shape>
0.206

> <Color>
0.094

> <Negative vol penalty>
0.000

$$$$

  -OEChem-04052321023D

 88 98  0     1  0  0  0  0  0999 V2000
  -32.5638  -26.6581   10.5440 C   0  0  0  0  0  0  0  0  0  0  0  0
  -32.2820  -25.5427   11.3263 C   0  0  0  0  0  0  0  0  0  0  0  0
  -23.1867   -9.8152   19.9335 C   0  0  0  0  0  0  0  0  0  0  0  0
  -23.8489   -9.8823   22.2561 C   0  0  0  0  0  0  0  0  0  0  0  0
  -33.1431  -27.7861   11.1235 C   0  0  0  0  0  0  0  0  0  0  0  0
  -32.5804  -25.5543   12.6883 C   0  0  0  0  0  0  0  0  0  0  0  0
  -32.5931  -17.1678   22.0040 C   0  0  0  0  0  0  0  0  0  0  0  0
  -29.4073  -22.8517   17.1754 C   0  0  0  0  0  0  0  0  0  0  0  0
  -32.4713  -18.4554   21.4818 C   0  0  0  0  0  0  0  0  0  0  0  0
  -22.4719   -8.6413   20.1712 C   0  0  0  0  0  0  0  0  0  0  0  0
  -23.1340   -8.7084   22.4938 C   0  0  0  0  0  0  0  0  0  0  0  0
  -29.5805  -21.6446   17.8510 C   0  0  0  0  0  0  0  0  0  0  0  0
  -19.4934   -7.7667   21.5117 C   0  0  0  0  0  0  0  0  0  0  0  0
  -18.2103   -7.6689   20.9735 C   0  0  0  0  0  0  0  0  0  0  0  0
  -30.7399  -22.8071   19.6184 C   0  0  0  0  0  0  0  0  0  0  0  0
  -30.1394  -18.4908   22.1130 C   0  0  0  0  0  0  0  0  0  0  0  0
  -18.8896   -5.7264   19.7076 C   0  0  0  0  0  0  0  0  0  0  0  0
  -23.8753  -10.4357   20.9760 C   0  0  0  0  0  0  0  0  0  0  0  0
  -24.1375  -12.9689   20.8289 C   0  0  0  0  0  0  0  0  0  0  0  0
  -33.4399  -27.8152   12.4953 C   0  0  0  0  0  0  0  0  0  0  0  0
  -29.9094  -24.0461   17.7118 C   0  0  0  0  0  0  0  0  0  0  0  0
  -33.1654  -26.6833   13.2865 C   0  0  0  0  0  0  0  0  0  0  0  0
  -31.4881  -16.5416   22.5808 C   0  0  0  0  0  0  0  0  0  0  0  0
  -30.5695  -24.0285   18.9488 C   0  0  0  0  0  0  0  0  0  0  0  0
  -31.2445  -19.1169   21.5362 C   0  0  0  0  0  0  0  0  0  0  0  0
  -30.2613  -17.2031   22.6352 C   0  0  0  0  0  0  0  0  0  0  0  0
  -22.4454   -8.0879   21.4513 C   0  0  0  0  0  0  0  0  0  0  0  0
  -30.2494  -21.6217   19.0713 C   0  0  0  0  0  0  0  0  0  0  0  0
  -20.4746   -6.8445   21.1479 C   0  0  0  0  0  0  0  0  0  0  0  0
  -17.9084   -6.6487   20.0714 C   0  0  0  0  0  0  0  0  0  0  0  0
  -20.1727   -5.8243   20.2458 C   0  0  0  0  0  0  0  0  0  0  0  0
  -24.6144  -11.6480   20.7309 C   0  0  0  0  0  0  0  0  0  0  0  0
  -25.2183  -13.7496   20.4991 C   0  0  0  0  0  0  0  0  0  0  0  0
  -22.8340  -13.4474   21.1863 C   0  0  0  0  0  0  0  0  0  0  0  0
  -32.0538  -26.1981   16.7767 C   0  0  0  0  0  0  0  0  0  0  0  0
  -31.0128  -27.8008   19.3978 C   0  0  0  0  0  0  0  0  0  0  0  0
  -29.5332  -27.6782   22.4706 C   0  0  0  0  0  0  0  0  0  0  0  0
  -30.8310  -14.1146   21.0186 C   0  0  0  0  0  0  0  0  0  0  0  0
  -34.1092  -29.0396   13.0675 C   0  0  0  0  0  0  0  0  0  0  0  0
  -29.6909  -25.3438   16.9834 C   0  0  0  0  0  0  0  0  0  0  0  0
  -31.1097  -25.2861   19.5773 C   0  0  0  0  0  0  0  0  0  0  0  0
  -34.0499  -29.1103   14.5912 C   0  0  0  0  0  0  0  0  0  0  0  0
  -25.9791  -17.3362   24.0418 C   0  0  0  0  0  0  0  0  0  0  0  0
  -29.4434  -13.0281   18.0398 C   0  0  0  0  0  0  0  0  0  0  0  0
  -34.4304  -27.7658   15.2032 C   0  0  0  0  0  0  0  0  0  0  0  0
  -28.0014  -12.6879   18.4215 C   0  0  0  0  0  0  0  0  0  0  0  0
  -27.0850  -16.4070   24.5865 C   0  0  0  0  0  0  0  0  0  0  0  0
  -26.9496  -17.6966   22.8966 C   0  0  0  0  0  0  0  0  0  0  0  0
  -30.4211  -12.5717   19.1182 C   0  0  0  0  0  0  0  0  0  0  0  0
  -30.6371  -12.8398   23.1051 C   0  0  0  0  0  0  0  0  0  0  0  0
  -28.6843  -12.7615   20.8657 C   0  0  0  0  0  0  0  0  0  0  0  0
  -30.2859  -12.9667   24.5716 C   0  0  0  0  0  0  0  0  0  0  0  0
  -31.3568  -15.1957   24.6505 C   0  0  0  0  0  0  0  0  0  0  0  0
  -31.6505  -15.1341   23.1436 C   0  0  1  0  0  0  0  0  0  0  0  0
  -33.4516  -26.6668   14.7724 C   0  0  1  0  0  0  0  0  0  0  0  0
  -30.6940  -26.4247   17.3744 C   0  0  1  0  0  0  0  0  0  0  0  0
  -27.6543  -13.2310   19.8202 C   0  0  2  0  0  0  0  0  0  0  0  0
  -28.0985  -17.3152   23.8559 C   0  0  0  0  0  0  0  0  0  0  0  0
  -28.8530  -29.1455   24.3895 C   0  0  0  0  0  0  0  0  0  0  0  0
  -33.9246  -27.9759   20.2929 C   0  0  0  0  0  0  0  0  0  0  0  0
  -33.1115  -28.5704   22.5849 C   0  0  0  0  0  0  0  0  0  0  0  0
  -32.5948  -30.0629   20.6541 C   0  0  0  0  0  0  0  0  0  0  0  0
  -26.6786  -26.9629   22.1570 C   0  0  0  0  0  0  0  0  0  0  0  0
  -31.1150  -20.4937   20.9777 C   0  0  0  0  0  0  0  0  0  1  0  0
  -31.4082  -27.8395   20.8542 C   0  0  1  0  0  0  0  0  0  0  0  0
  -28.4145  -28.5013   23.0835 C   0  0  2  0  0  0  0  0  0  0  0  0
  -32.7514  -28.5880   21.0840 C   0  0  0  0  0  0  0  0  0  0  0  0
  -25.8982  -11.5890   20.3671 N   0  0  0  0  0  0  0  0  0  0  0  0
  -26.2372  -12.8826   20.2336 N   0  0  0  0  0  0  0  0  0  0  0  0
  -30.8765  -26.5290   18.8235 N   0  0  0  0  0  0  0  0  0  0  0  0
  -30.0423  -13.1123   20.4230 N   0  0  0  0  0  0  0  0  0  0  0  0
  -30.8136  -14.1369   22.4348 N   0  0  0  0  0  0  0  0  0  0  0  0
  -25.3871  -15.0862   20.4131 N   0  0  0  0  0  0  0  0  0  0  0  0
  -21.8397  -12.5095   21.4961 N   0  0  0  0  0  0  0  0  0  0  0  0
  -29.1320  -16.5843   23.2151 N   0  0  0  0  0  0  0  0  0  0  0  0
  -32.2201  -26.7628   15.5265 N   0  0  0  0  0  0  0  0  0  0  0  0
  -30.2740  -28.4138   21.5699 N   0  0  0  0  0  0  0  0  0  0  0  0
  -31.3109  -13.8250   25.2246 N   0  3  0  0  0  0  0  0  0  0  0  0
  -27.2293  -27.6408   23.3587 N   0  3  0  0  0  0  0  0  0  0  0  0
  -22.5547  -14.6700   21.2136 O   0  0  0  0  0  0  0  0  0  0  0  0
  -32.8907  -25.5595   17.4040 O   0  0  0  0  0  0  0  0  0  0  0  0
  -30.8248  -28.8598   18.7939 O   0  0  0  0  0  0  0  0  0  0  0  0
  -29.7324  -26.5015   22.7645 O   0  0  0  0  0  0  0  0  0  0  0  0
  -31.4739  -14.9362   20.3567 O   0  0  0  0  0  0  0  0  0  0  0  0
  -21.7478   -6.9425   21.6837 O   0  0  0  0  0  0  0  0  0  0  0  0
  -30.4217  -20.4366   19.7371 O   0  0  0  0  0  0  0  0  0  1  0  0
  -16.6758   -6.5539   19.5558 F   0  0  0  0  0  0  0  0  0  0  0  0
  -21.1108   -4.9347   19.8934 F   0  0  0  0  0  0  0  0  0  0  0  0
  1  2  1  0  0  0  0
  1  5  2  0  0  0  0
  2  6  2  0  0  0  0
  3 10  2  0  0  0  0
  3 18  1  0  0  0  0
  4 11  1  0  0  0  0
  4 18  2  0  0  0  0
  5 20  1  0  0  0  0
  6 22  1  0  0  0  0
  7  9  2  0  0  0  0
  7 23  1  0  0  0  0
  8 12  2  0  0  0  0
  8 21  1  0  0  0  0
  9 25  1  0  0  0  0
 10 27  1  0  0  0  0
 11 27  2  0  0  0  0
 12 28  1  0  0  0  0
 13 14  2  0  0  0  0
 13 29  1  0  0  0  0
 14 30  1  0  0  0  0
 15 24  1  0  0  0  0
 15 28  2  0  0  0  0
 16 25  2  0  0  0  0
 16 26  1  0  0  0  0
 17 30  2  0  0  0  0
 17 31  1  0  0  0  0
 18 32  1  0  0  0  0
 19 32  1  0  0  0  0
 19 33  2  0  0  0  0
 19 34  1  0  0  0  0
 20 22  2  0  0  0  0
 20 39  1  0  0  0  0
 21 24  2  0  0  0  0
 21 40  1  0  0  0  0
 22 55  1  0  0  0  0
 23 26  2  0  0  0  0
 23 54  1  0  0  0  0
 24 41  1  0  0  0  0
 25 64  1  0  0  0  0
 26 75  1  0  0  0  0
 27 85  1  0  0  0  0
 28 86  1  0  0  0  0
 29 31  2  0  0  0  0
 29 85  1  0  0  0  0
 30 87  1  0  0  0  0
 31 88  1  0  0  0  0
 32 68  2  0  0  0  0
 33 69  1  0  0  0  0
 33 73  1  0  0  0  0
 34 74  1  0  0  0  0
 34 80  2  0  0  0  0
 35 56  1  0  0  0  0
 35 76  1  0  0  0  0
 35 81  2  0  0  0  0
 36 65  1  0  0  0  0
 36 70  1  0  0  0  0
 36 82  2  0  0  0  0
 37 66  1  0  0  0  0
 37 77  1  0  0  0  0
 37 83  2  0  0  0  0
 38 71  1  0  0  0  0
 38 72  1  0  0  0  0
 38 84  2  0  0  0  0
 39 42  1  0  0  0  0
 40 56  1  0  0  0  0
 41 70  1  0  0  0  0
 42 45  1  0  0  0  0
 43 47  1  0  0  0  0
 43 48  1  0  0  0  0
 44 46  1  0  0  0  0
 44 49  1  0  0  0  0
 45 55  1  0  0  0  0
 46 57  1  0  0  0  0
 47 58  1  0  0  0  0
 48 58  1  0  0  0  0
 49 71  1  0  0  0  0
 50 52  1  0  0  0  0
 50 72  1  0  0  0  0
 51 57  1  0  0  0  0
 51 71  1  0  0  0  0
 52 78  1  0  0  0  0
 53 54  1  0  0  0  0
 53 78  1  0  0  0  0
 54 72  1  0  0  0  0
 55 76  1  0  0  0  0
 56 70  1  0  0  0  0
 57 69  1  0  0  0  0
 58 75  1  0  0  0  0
 59 66  1  0  0  0  0
 60 67  1  0  0  0  0
 61 67  1  0  0  0  0
 62 67  1  0  0  0  0
 63 79  1  0  0  0  0
 64 86  1  0  0  0  0
 65 67  1  0  0  0  0
 65 77  1  0  0  0  0
 66 79  1  0  0  0  0
 68 69  1  0  0  0  0
M  CHG  2  78   1  79   1
M  ISO  4  38 100  64 101  72 100  86 101
M  END
> <Batch ID>
0136

> <Smiles>
CNC(C)C(=O)NC(C(=O)N1Cc2cc([101O:1][101CH2:1]c3ccc(C4CNCC[100N:0]4[100C:0](=O)N4CCCC(n5nc(-c6ccc(Oc7ccc(F)cc7F)cc6)c(C(N)=O)c5N)C4)c(NC4CCC4)c3)ccc2CC1C(=O)NC1CCCc2ccccc21)C(C)(C)C

> <Shape>
0.232

> <Color>
0.190

> <Negative vol penalty>
0.000

$$$$

  -OEChem-04052321023D

 88 97  0     1  0  0  0  0  0999 V2000
  -28.1276  -36.9065   24.4006 C   0  0  0  0  0  0  0  0  0  0  0  0
  -29.0504  -36.0013   24.9149 C   0  0  0  0  0  0  0  0  0  0  0  0
  -23.1474  -10.2066   22.1047 C   0  0  0  0  0  0  0  0  0  0  0  0
  -23.7762   -9.4970   19.8825 C   0  0  0  0  0  0  0  0  0  0  0  0
  -26.8770  -36.4598   23.9757 C   0  0  0  0  0  0  0  0  0  0  0  0
  -28.7227  -34.6489   25.0055 C   0  0  0  0  0  0  0  0  0  0  0  0
  -31.6947  -28.1443   24.5891 C   0  0  0  0  0  0  0  0  0  0  0  0
  -22.4005   -9.0397   22.2660 C   0  0  0  0  0  0  0  0  0  0  0  0
  -23.0292   -8.3300   20.0438 C   0  0  0  0  0  0  0  0  0  0  0  0
  -31.7875  -26.9544   25.3098 C   0  0  0  0  0  0  0  0  0  0  0  0
  -22.9847   -5.7873   22.9828 C   0  0  0  0  0  0  0  0  0  0  0  0
  -23.1136   -5.0966   24.1877 C   0  0  0  0  0  0  0  0  0  0  0  0
  -29.6267  -26.2854   24.4716 C   0  0  0  0  0  0  0  0  0  0  0  0
  -30.6132  -14.8487   25.0448 C   0  0  0  0  0  0  0  0  0  0  0  0
  -32.7307  -15.1537   23.9224 C   0  0  0  0  0  0  0  0  0  0  0  0
  -20.7518   -5.3861   24.6063 C   0  0  0  0  0  0  0  0  0  0  0  0
  -23.8352  -10.4353   20.9129 C   0  0  0  0  0  0  0  0  0  0  0  0
  -24.1347  -12.9661   20.7981 C   0  0  0  0  0  0  0  0  0  0  0  0
  -26.5374  -35.0999   24.0522 C   0  0  0  0  0  0  0  0  0  0  0  0
  -30.5605  -28.4190   23.8117 C   0  0  0  0  0  0  0  0  0  0  0  0
  -27.4659  -34.1839   24.5825 C   0  0  0  0  0  0  0  0  0  0  0  0
  -29.5231  -27.4783   23.7401 C   0  0  0  0  0  0  0  0  0  0  0  0
  -31.6613  -14.3336   24.2821 C   0  0  0  0  0  0  0  0  0  0  0  0
  -30.6345  -16.1840   25.4478 C   0  0  0  0  0  0  0  0  0  0  0  0
  -32.7520  -16.4890   24.3254 C   0  0  0  0  0  0  0  0  0  0  0  0
  -31.7039  -17.0041   25.0881 C   0  0  0  0  0  0  0  0  0  0  0  0
  -22.3414   -8.1014   21.2356 C   0  0  0  0  0  0  0  0  0  0  0  0
  -30.7522  -26.0260   25.2534 C   0  0  0  0  0  0  0  0  0  0  0  0
  -21.7393   -6.2776   22.5896 C   0  0  0  0  0  0  0  0  0  0  0  0
  -21.9971   -4.8959   24.9994 C   0  0  0  0  0  0  0  0  0  0  0  0
  -20.6229   -6.0769   23.4014 C   0  0  0  0  0  0  0  0  0  0  0  0
  -24.6065  -11.6408   20.7454 C   0  0  0  0  0  0  0  0  0  0  0  0
  -25.2504  -13.7367   20.5795 C   0  0  0  0  0  0  0  0  0  0  0  0
  -22.8066  -13.4567   21.0244 C   0  0  0  0  0  0  0  0  0  0  0  0
  -28.3101  -30.6637   23.8419 C   0  0  0  0  0  0  0  0  0  0  0  0
  -27.3771  -29.2155   21.0933 C   0  0  0  0  0  0  0  0  0  0  0  0
  -27.3422  -26.3953   19.1719 C   0  0  0  0  0  0  0  0  0  0  0  0
  -31.0990  -12.7780   21.4316 C   0  0  0  0  0  0  0  0  0  0  0  0
  -25.1561  -34.6715   23.6245 C   0  0  0  0  0  0  0  0  0  0  0  0
  -30.4875  -29.6952   23.0190 C   0  0  0  0  0  0  0  0  0  0  0  0
  -28.2931  -27.7164   22.9041 C   0  0  0  0  0  0  0  0  0  0  0  0
  -25.0254  -33.1663   23.4064 C   0  0  0  0  0  0  0  0  0  0  0  0
  -29.4942  -13.6400   18.3724 C   0  0  0  0  0  0  0  0  0  0  0  0
  -25.6574  -32.4021   24.5654 C   0  0  0  0  0  0  0  0  0  0  0  0
  -28.0170  -13.3450   18.6384 C   0  0  0  0  0  0  0  0  0  0  0  0
  -32.0853  -22.8666   25.4258 C   0  0  0  0  0  0  0  0  0  0  0  0
  -29.5800  -22.8460   25.6626 C   0  0  0  0  0  0  0  0  0  0  0  0
  -30.4051  -12.6244   19.0585 C   0  0  0  0  0  0  0  0  0  0  0  0
  -28.6936  -12.1655   20.7715 C   0  0  0  0  0  0  0  0  0  0  0  0
  -32.0311  -21.4992   24.7627 C   0  0  0  0  0  0  0  0  0  0  0  0
  -29.5308  -21.4789   24.9985 C   0  0  0  0  0  0  0  0  0  0  0  0
  -27.1567  -32.7053   24.6739 C   0  0  1  0  0  0  0  0  0  0  0  0
  -29.0591  -30.0996   22.6678 C   0  0  1  0  0  0  0  0  0  0  0  0
  -27.7377  -13.1958   20.1461 C   0  0  2  0  0  0  0  0  0  0  0  0
  -30.7943  -23.6520   25.2123 C   0  0  0  0  0  0  0  0  0  1  0  0
  -29.5003  -16.7107   26.2650 C   0  0  0  0  0  0  0  0  0  0  0  0
  -33.9089  -17.3463   23.9271 C   0  0  0  0  0  0  0  0  0  0  0  0
  -26.4684  -25.5062   16.9939 C   0  0  0  0  0  0  0  0  0  0  0  0
  -24.5891  -28.9807   22.3106 C   0  0  0  0  0  0  0  0  0  0  0  0
  -24.0378  -27.2903   20.5480 C   0  0  0  0  0  0  0  0  0  0  0  0
  -24.6216  -29.6259   19.8946 C   0  0  0  0  0  0  0  0  0  0  0  0
  -30.0722  -25.8637   18.1603 C   0  0  0  0  0  0  0  0  0  0  0  0
  -31.7268  -18.4411   25.5224 C   0  0  0  0  0  0  0  0  0  0  0  0
  -31.6382  -12.9063   23.8506 C   0  0  0  0  0  0  0  0  0  0  0  0
  -30.7842  -19.3402   24.7287 C   0  0  0  0  0  0  0  0  0  0  0  0
  -26.4375  -28.0863   20.7455 C   0  0  1  0  0  0  0  0  0  0  0  0
  -27.6375  -26.1762   17.6990 C   0  0  2  0  0  0  0  0  0  0  0  0
  -24.9437  -28.4919   20.8920 C   0  0  0  0  0  0  0  0  0  0  0  0
  -25.9196  -11.5699   20.5115 N   0  0  0  0  0  0  0  0  0  0  0  0
  -26.2824  -12.8603   20.4152 N   0  0  0  0  0  0  0  0  0  0  0  0
  -28.2658  -28.9819   22.1523 N   0  0  0  0  0  0  0  0  0  0  0  0
  -30.0897  -12.5319   20.4861 N   0  0  0  0  0  0  0  0  0  0  0  0
  -25.4395  -15.0717   20.5136 N   0  0  0  0  0  0  0  0  0  0  0  0
  -21.7775  -12.5280   21.2314 N   0  0  0  0  0  0  0  0  0  0  0  0
  -27.8950  -31.9703   23.6693 N   0  0  0  0  0  0  0  0  0  0  0  0
  -26.8081  -27.6449   19.4053 N   0  0  0  0  0  0  0  0  0  0  0  0
  -30.7140  -12.6756   22.7627 N   0  0  0  0  0  0  0  0  0  0  0  0
  -30.8234  -20.7443   25.2661 N   0  3  0  0  0  0  0  0  0  0  0  0
  -28.8419  -25.3141   17.5348 N   0  3  0  0  0  0  0  0  0  0  0  0
  -22.5374  -14.6819   21.0263 O   0  0  0  0  0  0  0  0  0  0  0  0
  -28.1215  -29.9647   24.8306 O   0  0  0  0  0  0  0  0  0  0  0  0
  -27.3293  -30.2635   20.4445 O   0  0  0  0  0  0  0  0  0  0  0  0
  -27.5599  -25.5418   20.0290 O   0  0  0  0  0  0  0  0  0  0  0  0
  -32.2559  -13.0728   21.1130 O   0  0  0  0  0  0  0  0  0  0  0  0
  -21.6129   -6.9625   21.3928 O   0  0  0  0  0  0  0  0  0  0  0  0
  -30.8399  -24.8641   25.9563 O   0  0  0  0  0  0  0  0  0  1  0  0
  -22.1208   -4.2311   26.1557 F   0  0  0  0  0  0  0  0  0  0  0  0
  -19.4237   -6.5445   23.0284 F   0  0  0  0  0  0  0  0  0  0  0  0
  1  2  1  0  0  0  0
  1  5  2  0  0  0  0
  2  6  2  0  0  0  0
  3  8  2  0  0  0  0
  3 17  1  0  0  0  0
  4  9  1  0  0  0  0
  4 17  2  0  0  0  0
  5 19  1  0  0  0  0
  6 21  1  0  0  0  0
  7 10  2  0  0  0  0
  7 20  1  0  0  0  0
  8 27  1  0  0  0  0
  9 27  2  0  0  0  0
 10 28  1  0  0  0  0
 11 12  2  0  0  0  0
 11 29  1  0  0  0  0
 12 30  1  0  0  0  0
 13 22  1  0  0  0  0
 13 28  2  0  0  0  0
 14 23  1  0  0  0  0
 14 24  2  0  0  0  0
 15 23  2  0  0  0  0
 15 25  1  0  0  0  0
 16 30  2  0  0  0  0
 16 31  1  0  0  0  0
 17 32  1  0  0  0  0
 18 32  1  0  0  0  0
 18 33  2  0  0  0  0
 18 34  1  0  0  0  0
 19 21  2  0  0  0  0
 19 39  1  0  0  0  0
 20 22  2  0  0  0  0
 20 40  1  0  0  0  0
 21 52  1  0  0  0  0
 22 41  1  0  0  0  0
 23 64  1  0  0  0  0
 24 26  1  0  0  0  0
 24 56  1  0  0  0  0
 25 26  2  0  0  0  0
 25 57  1  0  0  0  0
 26 63  1  0  0  0  0
 27 85  1  0  0  0  0
 28 86  1  0  0  0  0
 29 31  2  0  0  0  0
 29 85  1  0  0  0  0
 30 87  1  0  0  0  0
 31 88  1  0  0  0  0
 32 69  2  0  0  0  0
 33 70  1  0  0  0  0
 33 73  1  0  0  0  0
 34 74  1  0  0  0  0
 34 80  2  0  0  0  0
 35 53  1  0  0  0  0
 35 75  1  0  0  0  0
 35 81  2  0  0  0  0
 36 66  1  0  0  0  0
 36 71  1  0  0  0  0
 36 82  2  0  0  0  0
 37 67  1  0  0  0  0
 37 76  1  0  0  0  0
 37 83  2  0  0  0  0
 38 72  1  0  0  0  0
 38 77  1  0  0  0  0
 38 84  2  0  0  0  0
 39 42  1  0  0  0  0
 40 53  1  0  0  0  0
 41 71  1  0  0  0  0
 42 44  1  0  0  0  0
 43 45  1  0  0  0  0
 43 48  1  0  0  0  0
 44 52  1  0  0  0  0
 45 54  1  0  0  0  0
 46 50  1  0  0  0  0
 46 55  1  0  0  0  0
 47 51  1  0  0  0  0
 47 55  1  0  0  0  0
 48 72  1  0  0  0  0
 49 54  1  0  0  0  0
 49 72  1  0  0  0  0
 50 78  1  0  0  0  0
 51 78  1  0  0  0  0
 52 75  1  0  0  0  0
 53 71  1  0  0  0  0
 54 70  1  0  0  0  0
 55 86  1  0  0  0  0
 58 67  1  0  0  0  0
 59 68  1  0  0  0  0
 60 68  1  0  0  0  0
 61 68  1  0  0  0  0
 62 79  1  0  0  0  0
 63 65  1  0  0  0  0
 64 77  1  0  0  0  0
 65 78  1  0  0  0  0
 66 68  1  0  0  0  0
 66 76  1  0  0  0  0
 67 79  1  0  0  0  0
 69 70  1  0  0  0  0
M  CHG  2  78   1  79   1
M  ISO  4  38 100  55 101  77 100  86 101
M  END
> <Batch ID>
0136

> <Smiles>
CNC(C)C(=O)NC(C(=O)N1Cc2cc([101O:1][101CH:1]3CCN(CCc4c(C)cc(C[100NH:0][100C:0](=O)N5CCCC(n6nc(-c7ccc(Oc8ccc(F)cc8F)cc7)c(C(N)=O)c6N)C5)cc4C)CC3)ccc2CC1C(=O)NC1CCCc2ccccc21)C(C)(C)C

> <Shape>
0.277

> <Color>
0.190

> <Negative vol penalty>
0.000

$$$$

  -OEChem-04052321023D

 84 93  0     1  0  0  0  0  0999 V2000
  -17.1476  -30.3849   24.1572 C   0  0  0  0  0  0  0  0  0  0  0  0
  -16.6662  -29.0808   24.2115 C   0  0  0  0  0  0  0  0  0  0  0  0
  -18.0093  -14.8709   19.6276 C   0  0  0  0  0  0  0  0  0  0  0  0
  -29.8021  -23.7722   21.3956 C   0  0  0  0  0  0  0  0  0  0  0  0
  -30.5629  -23.2204   19.1699 C   0  0  0  0  0  0  0  0  0  0  0  0
  -18.3382  -30.6599   23.4858 C   0  0  0  0  0  0  0  0  0  0  0  0
  -17.3748  -28.0510   23.5935 C   0  0  0  0  0  0  0  0  0  0  0  0
  -19.1211  -14.0451   19.7936 C   0  0  0  0  0  0  0  0  0  0  0  0
  -18.8581  -21.0798   24.3140 C   0  0  0  0  0  0  0  0  0  0  0  0
  -17.8669  -16.0150   20.4127 C   0  0  0  0  0  0  0  0  0  0  0  0
  -29.9340  -25.1299   21.1041 C   0  0  0  0  0  0  0  0  0  0  0  0
  -30.6947  -24.5781   18.8783 C   0  0  0  0  0  0  0  0  0  0  0  0
  -18.8163  -19.8893   23.5896 C   0  0  0  0  0  0  0  0  0  0  0  0
  -28.1930  -27.4998   19.4352 C   0  0  0  0  0  0  0  0  0  0  0  0
  -27.1536  -28.3485   19.8159 C   0  0  0  0  0  0  0  0  0  0  0  0
  -19.9480  -15.5075   21.5299 C   0  0  0  0  0  0  0  0  0  0  0  0
  -20.9022  -20.4701   22.5263 C   0  0  0  0  0  0  0  0  0  0  0  0
  -28.6836  -29.5987   21.2063 C   0  0  0  0  0  0  0  0  0  0  0  0
  -30.1166  -22.8175   20.4285 C   0  0  0  0  0  0  0  0  0  0  0  0
  -30.6425  -20.6948   21.7421 C   0  0  0  0  0  0  0  0  0  0  0  0
  -20.0905  -14.3634   20.7448 C   0  0  0  0  0  0  0  0  0  0  0  0
  -19.0667  -29.6315   22.8676 C   0  0  0  0  0  0  0  0  0  0  0  0
  -19.9185  -21.9811   24.1416 C   0  0  0  0  0  0  0  0  0  0  0  0
  -18.5756  -28.3127   22.9121 C   0  0  0  0  0  0  0  0  0  0  0  0
  -20.9564  -21.6702   23.2515 C   0  0  0  0  0  0  0  0  0  0  0  0
  -18.8362  -16.3333   21.3639 C   0  0  0  0  0  0  0  0  0  0  0  0
  -30.3803  -25.5328   19.8455 C   0  0  0  0  0  0  0  0  0  0  0  0
  -19.8370  -19.5856   22.6935 C   0  0  0  0  0  0  0  0  0  0  0  0
  -29.4778  -27.7005   19.9401 C   0  0  0  0  0  0  0  0  0  0  0  0
  -27.3989  -29.3979   20.7014 C   0  0  0  0  0  0  0  0  0  0  0  0
  -29.7230  -28.7499   20.8256 C   0  0  0  0  0  0  0  0  0  0  0  0
  -29.9812  -21.4148   20.7292 C   0  0  0  0  0  0  0  0  0  0  0  0
  -30.1736  -19.4104   21.6125 C   0  0  0  0  0  0  0  0  0  0  0  0
  -31.5955  -21.1467   22.7134 C   0  0  0  0  0  0  0  0  0  0  0  0
  -20.1675  -24.9857   23.1346 C   0  0  0  0  0  0  0  0  0  0  0  0
  -23.2628  -24.6195   24.0330 C   0  0  0  0  0  0  0  0  0  0  0  0
  -25.8731  -22.5061   24.6393 C   0  0  0  0  0  0  0  0  0  0  0  0
  -26.0181  -15.9032   20.9973 C   0  0  0  0  0  0  0  0  0  0  0  0
  -20.3241  -29.9847   22.1133 C   0  0  0  0  0  0  0  0  0  0  0  0
  -19.9624  -23.2486   24.9502 C   0  0  0  0  0  0  0  0  0  0  0  0
  -22.1274  -22.5946   23.0450 C   0  0  0  0  0  0  0  0  0  0  0  0
  -21.2083  -28.7791   21.8048 C   0  0  0  0  0  0  0  0  0  0  0  0
  -27.4231  -17.2610   17.9510 C   0  0  0  0  0  0  0  0  0  0  0  0
  -20.3708  -27.6305   21.2516 C   0  0  0  0  0  0  0  0  0  0  0  0
  -21.4429  -12.9377   22.3425 C   0  0  0  0  0  0  0  0  0  0  0  0
  -28.2736  -18.4106   18.4944 C   0  0  0  0  0  0  0  0  0  0  0  0
  -22.9344  -12.7293   22.4394 C   0  0  0  0  0  0  0  0  0  0  0  0
  -26.1231  -17.1159   18.7365 C   0  0  0  0  0  0  0  0  0  0  0  0
  -27.1563  -18.0909   20.7503 C   0  0  0  0  0  0  0  0  0  0  0  0
  -19.3284  -27.1647   22.2753 C   0  0  1  0  0  0  0  0  0  0  0  0
  -21.2923  -13.4713   20.9225 C   0  0  2  0  0  0  0  0  0  0  0  0
  -20.8282  -24.3325   24.3155 C   0  0  1  0  0  0  0  0  0  0  0  0
  -28.4949  -18.2750   20.0125 C   0  0  2  0  0  0  0  0  0  0  0  0
  -23.4582  -13.9302   21.6719 C   0  0  1  0  0  0  0  0  0  0  0  0
  -28.2876  -22.5034   25.3227 C   0  0  0  0  0  0  0  0  0  0  0  0
  -24.0537  -25.5407   21.2338 C   0  0  0  0  0  0  0  0  0  0  0  0
  -26.3452  -24.6242   21.6552 C   0  0  0  0  0  0  0  0  0  0  0  0
  -25.4631  -26.4748   23.0765 C   0  0  0  0  0  0  0  0  0  0  0  0
  -25.3035  -20.9157   27.0693 C   0  0  0  0  0  0  0  0  0  0  0  0
  -18.6826  -17.5637   22.2088 C   0  0  0  0  0  0  0  0  0  1  0  0
  -24.8427  -13.7200   21.0909 C   0  0  0  0  0  0  0  0  0  0  0  0
  -24.5242  -24.1438   23.3535 C   0  0  1  0  0  0  0  0  0  0  0  0
  -26.8466  -22.4150   25.8005 C   0  0  2  0  0  0  0  0  0  0  0  0
  -25.0736  -25.1792   22.3320 C   0  0  0  0  0  0  0  0  0  0  0  0
  -29.1551  -20.6512   20.0091 N   0  0  0  0  0  0  0  0  0  0  0  0
  -29.2943  -19.4380   20.5702 N   0  0  0  0  0  0  0  0  0  0  0  0
  -22.1218  -23.8246   23.8541 N   0  0  0  0  0  0  0  0  0  0  0  0
  -26.4046  -16.9722   20.1719 N   0  0  0  0  0  0  0  0  0  0  0  0
  -30.4317  -18.2714   22.2895 N   0  0  0  0  0  0  0  0  0  0  0  0
  -32.9572  -21.1011   22.3848 N   0  0  0  0  0  0  0  0  0  0  0  0
  -19.9497  -26.3413   23.2904 N   0  0  0  0  0  0  0  0  0  0  0  0
  -25.4590  -23.8030   24.4205 N   0  0  0  0  0  0  0  0  0  0  0  0
  -25.3036  -14.8878   20.3735 N   0  0  0  0  0  0  0  0  0  0  0  0
  -26.6698  -21.1245   26.5246 N   0  3  0  0  0  0  0  0  0  0  0  0
  -31.2507  -21.5627   23.8454 O   0  0  0  0  0  0  0  0  0  0  0  0
  -19.8782  -24.3100   22.1540 O   0  0  0  0  0  0  0  0  0  0  0  0
  -23.2907  -25.6542   24.7039 O   0  0  0  0  0  0  0  0  0  0  0  0
  -25.5185  -21.5255   23.9888 O   0  0  0  0  0  0  0  0  0  0  0  0
  -26.2941  -15.8545   22.2008 O   0  0  0  0  0  0  0  0  0  0  0  0
  -22.5164  -14.1679   20.6119 O   0  0  0  0  0  0  0  0  0  0  0  0
  -30.5088  -26.8575   19.5606 O   0  0  0  0  0  0  0  0  0  0  0  0
  -19.7984  -18.4246   21.9847 O   0  0  0  0  0  0  0  0  0  1  0  0
  -26.4009  -30.2138   21.0657 F   0  0  0  0  0  0  0  0  0  0  0  0
  -30.9554  -28.9485   21.3131 F   0  0  0  0  0  0  0  0  0  0  0  0
  1  2  1  0  0  0  0
  1  6  2  0  0  0  0
  2  7  2  0  0  0  0
  3  8  1  0  0  0  0
  3 10  2  0  0  0  0
  4 11  2  0  0  0  0
  4 19  1  0  0  0  0
  5 12  1  0  0  0  0
  5 19  2  0  0  0  0
  6 22  1  0  0  0  0
  7 24  1  0  0  0  0
  8 21  2  0  0  0  0
  9 13  2  0  0  0  0
  9 23  1  0  0  0  0
 10 26  1  0  0  0  0
 11 27  1  0  0  0  0
 12 27  2  0  0  0  0
 13 28  1  0  0  0  0
 14 15  2  0  0  0  0
 14 29  1  0  0  0  0
 15 30  1  0  0  0  0
 16 21  1  0  0  0  0
 16 26  2  0  0  0  0
 17 25  1  0  0  0  0
 17 28  2  0  0  0  0
 18 30  2  0  0  0  0
 18 31  1  0  0  0  0
 19 32  1  0  0  0  0
 20 32  1  0  0  0  0
 20 33  2  0  0  0  0
 20 34  1  0  0  0  0
 21 51  1  0  0  0  0
 22 24  2  0  0  0  0
 22 39  1  0  0  0  0
 23 25  2  0  0  0  0
 23 40  1  0  0  0  0
 24 50  1  0  0  0  0
 25 41  1  0  0  0  0
 26 60  1  0  0  0  0
 27 81  1  0  0  0  0
 28 82  1  0  0  0  0
 29 31  2  0  0  0  0
 29 81  1  0  0  0  0
 30 83  1  0  0  0  0
 31 84  1  0  0  0  0
 32 65  2  0  0  0  0
 33 66  1  0  0  0  0
 33 69  1  0  0  0  0
 34 70  1  0  0  0  0
 34 75  2  0  0  0  0
 35 52  1  0  0  0  0
 35 71  1  0  0  0  0
 35 76  2  0  0  0  0
 36 62  1  0  0  0  0
 36 67  1  0  0  0  0
 36 77  2  0  0  0  0
 37 63  1  0  0  0  0
 37 72  1  0  0  0  0
 37 78  2  0  0  0  0
 38 68  1  0  0  0  0
 38 73  1  0  0  0  0
 38 79  2  0  0  0  0
 39 42  1  0  0  0  0
 40 52  1  0  0  0  0
 41 67  1  0  0  0  0
 42 44  1  0  0  0  0
 43 46  1  0  0  0  0
 43 48  1  0  0  0  0
 44 50  1  0  0  0  0
 45 47  1  0  0  0  0
 45 51  1  0  0  0  0
 46 53  1  0  0  0  0
 47 54  1  0  0  0  0
 48 68  1  0  0  0  0
 49 53  1  0  0  0  0
 49 68  1  0  0  0  0
 50 71  1  0  0  0  0
 51 80  1  0  0  0  0
 52 67  1  0  0  0  0
 53 66  1  0  0  0  0
 54 61  1  0  0  0  0
 54 80  1  0  0  0  0
 55 63  1  0  0  0  0
 56 64  1  0  0  0  0
 57 64  1  0  0  0  0
 58 64  1  0  0  0  0
 59 74  1  0  0  0  0
 60 82  1  0  0  0  0
 61 73  1  0  0  0  0
 62 64  1  0  0  0  0
 62 72  1  0  0  0  0
 63 74  1  0  0  0  0
 65 66  1  0  0  0  0
M  CHG  1  74   1
M  ISO  4  38 100  60 101  73 100  82 101
M  END
> <Batch ID>
0136

> <Smiles>
CNC(C)C(=O)NC(C(=O)N1Cc2cc([101O:1][101CH2:1]c3cccc(C4CCC(C[100NH:0][100C:0](=O)N5CCCC(n6nc(-c7ccc(Oc8ccc(F)cc8F)cc7)c(C(N)=O)c6N)C5)O4)c3)ccc2CC1C(=O)NC1CCCc2ccccc21)C(C)(C)C

> <Shape>
0.208

> <Color>
0.078

> <Negative vol penalty>
0.000

$$$$

  -OEChem-04052321023D

 94103  0     1  0  0  0  0  0999 V2000
  -23.7909   -8.3096   21.1774 C   0  0  0  0  0  0  0  0  0  0  0  0
  -24.5826   -9.4529   21.1385 C   0  0  0  0  0  0  0  0  0  0  0  0
  -19.9535  -26.9051   23.6981 C   0  0  0  0  0  0  0  0  0  0  0  0
  -19.5134  -27.8074   21.5006 C   0  0  0  0  0  0  0  0  0  0  0  0
  -22.4045   -8.4195   21.0789 C   0  0  0  0  0  0  0  0  0  0  0  0
  -23.9883  -10.7068   21.0002 C   0  0  0  0  0  0  0  0  0  0  0  0
  -25.9447  -14.1437   24.1632 C   0  0  0  0  0  0  0  0  0  0  0  0
  -18.9098  -25.9946   23.5333 C   0  0  0  0  0  0  0  0  0  0  0  0
  -18.4697  -26.8969   21.3357 C   0  0  0  0  0  0  0  0  0  0  0  0
  -27.1768  -14.6977   23.8185 C   0  0  0  0  0  0  0  0  0  0  0  0
  -15.9216  -24.5700   20.1907 C   0  0  0  0  0  0  0  0  0  0  0  0
  -15.8330  -23.8977   18.9718 C   0  0  0  0  0  0  0  0  0  0  0  0
  -26.0525  -16.6577   22.9740 C   0  0  0  0  0  0  0  0  0  0  0  0
  -28.2535  -24.7237   21.4885 C   0  0  0  0  0  0  0  0  0  0  0  0
  -30.3240  -25.6489   20.6556 C   0  0  0  0  0  0  0  0  0  0  0  0
  -18.0277  -22.9542   19.3325 C   0  0  0  0  0  0  0  0  0  0  0  0
  -20.2553  -27.8116   22.6818 C   0  0  0  0  0  0  0  0  0  0  0  0
  -21.4509  -29.7391   23.8493 C   0  0  0  0  0  0  0  0  0  0  0  0
  -21.7923   -9.6760   20.9490 C   0  0  0  0  0  0  0  0  0  0  0  0
  -24.7546  -14.8391   23.9054 C   0  0  0  0  0  0  0  0  0  0  0  0
  -22.5925  -10.8334   20.8986 C   0  0  0  0  0  0  0  0  0  0  0  0
  -24.8068  -16.1115   23.3187 C   0  0  0  0  0  0  0  0  0  0  0  0
  -29.1654  -25.7770   21.4216 C   0  0  0  0  0  0  0  0  0  0  0  0
  -28.5002  -23.5421   20.7894 C   0  0  0  0  0  0  0  0  0  0  0  0
  -30.5707  -24.4674   19.9564 C   0  0  0  0  0  0  0  0  0  0  0  0
  -29.6588  -23.4140   20.0233 C   0  0  0  0  0  0  0  0  0  0  0  0
  -18.1679  -25.9904   22.3521 C   0  0  0  0  0  0  0  0  0  0  0  0
  -27.2307  -15.9536   23.2212 C   0  0  0  0  0  0  0  0  0  0  0  0
  -17.0633  -24.4344   20.9805 C   0  0  0  0  0  0  0  0  0  0  0  0
  -16.8860  -23.0898   18.5427 C   0  0  0  0  0  0  0  0  0  0  0  0
  -18.1163  -23.6265   20.5515 C   0  0  0  0  0  0  0  0  0  0  0  0
  -21.3329  -28.7528   22.8517 C   0  0  0  0  0  0  0  0  0  0  0  0
  -22.6432  -30.3635   23.5755 C   0  0  0  0  0  0  0  0  0  0  0  0
  -20.5621  -30.0619   24.9271 C   0  0  0  0  0  0  0  0  0  0  0  0
  -22.1804  -14.2956   22.1217 C   0  0  0  0  0  0  0  0  0  0  0  0
  -30.7042  -19.8188   19.6892 C   0  0  0  0  0  0  0  0  0  0  0  0
  -21.0925  -16.9906   23.5625 C   0  0  0  0  0  0  0  0  0  0  0  0
  -21.8197  -19.9182   25.1585 C   0  0  0  0  0  0  0  0  0  0  0  0
  -27.6111  -28.6011   20.7358 C   0  0  0  0  0  0  0  0  0  0  0  0
  -20.2930   -9.7410   20.7986 C   0  0  0  0  0  0  0  0  0  0  0  0
  -23.4352  -14.2393   24.3076 C   0  0  0  0  0  0  0  0  0  0  0  0
  -23.5592  -16.9077   23.0393 C   0  0  0  0  0  0  0  0  0  0  0  0
  -19.7174  -11.1356   21.0309 C   0  0  0  0  0  0  0  0  0  0  0  0
  -25.5736  -31.4108   19.9415 C   0  0  0  0  0  0  0  0  0  0  0  0
  -20.5329  -12.1819   20.2778 C   0  0  0  0  0  0  0  0  0  0  0  0
  -24.2664  -31.1372   20.6873 C   0  0  0  0  0  0  0  0  0  0  0  0
  -26.1914  -30.1255   19.3952 C   0  0  0  0  0  0  0  0  0  0  0  0
  -25.0817  -28.7860   21.1411 C   0  0  0  0  0  0  0  0  0  0  0  0
  -28.7945  -18.3231   21.3834 C   0  0  0  0  0  0  0  0  0  0  0  0
  -31.6129  -17.5389   20.2128 C   0  0  0  0  0  0  0  0  0  0  0  0
  -21.9833  -12.2131   20.7744 C   0  0  1  0  0  0  0  0  0  0  0  0
  -22.2555  -14.8144   23.5299 C   0  0  1  0  0  0  0  0  0  0  0  0
  -31.1270  -18.8718   20.7724 C   0  0  2  0  0  0  0  0  0  0  0  0
  -24.4499  -30.0454   21.7585 C   0  0  2  0  0  0  0  0  0  0  0  0
  -28.6428  -16.8029   21.5002 C   0  0  1  0  0  0  0  0  0  1  0  0
  -29.8081  -15.9484   20.9838 C   0  0  1  0  0  0  0  0  0  0  0  0
  -27.5072  -22.4295   20.8768 C   0  0  0  0  0  0  0  0  0  0  0  0
  -31.8189  -24.3554   19.1431 C   0  0  0  0  0  0  0  0  0  0  0  0
  -20.7218  -21.9283   26.1839 C   0  0  0  0  0  0  0  0  0  0  0  0
  -28.6928  -14.6734   19.1306 C   0  0  0  0  0  0  0  0  0  0  0  0
  -30.4796  -13.5758   20.5113 C   0  0  0  0  0  0  0  0  0  0  0  0
  -20.5401  -18.1068   20.7771 C   0  0  0  0  0  0  0  0  0  0  0  0
  -20.3625  -20.3846   21.8011 C   0  0  0  0  0  0  0  0  0  0  0  0
  -18.7612  -18.5914   22.4667 C   0  0  0  0  0  0  0  0  0  0  0  0
  -22.9596  -19.3251   27.8246 C   0  0  0  0  0  0  0  0  0  0  0  0
  -28.9019  -27.0400   22.1696 C   0  0  0  0  0  0  0  0  0  0  0  0
  -29.9239  -22.1423   19.2705 C   0  0  0  0  0  0  0  0  0  0  0  0
  -21.1594  -18.4675   23.2575 C   0  0  1  0  0  0  0  0  0  0  0  0
  -21.2725  -20.5329   26.4341 C   0  0  2  0  0  0  0  0  0  0  0  0
  -29.3256  -14.5745   20.5160 C   0  0  0  0  0  0  0  0  0  0  0  0
  -20.2294  -18.8720   22.0789 C   0  0  0  0  0  0  0  0  0  0  0  0
  -22.3677  -28.7473   22.0072 N   0  0  0  0  0  0  0  0  0  0  0  0
  -23.1471  -29.7379   22.4733 N   0  0  0  0  0  0  0  0  0  0  0  0
  -30.0951  -18.8371   21.8063 N   0  0  0  0  0  0  0  0  0  0  0  0
  -22.2929  -16.2758   23.4451 N   0  0  0  0  0  0  0  0  0  0  0  0
  -26.3400  -29.1321   20.4615 N   0  0  0  0  0  0  0  0  0  0  0  0
  -23.2991  -31.3813   24.1724 N   0  0  0  0  0  0  0  0  0  0  0  0
  -19.5603  -31.0162   24.7040 N   0  0  0  0  0  0  0  0  0  0  0  0
  -22.0713  -12.9209   22.0337 N   0  0  0  0  0  0  0  0  0  0  0  0
  -30.3585  -21.0767   20.1450 N   0  0  0  0  0  0  0  0  0  0  0  0
  -20.8703  -19.1567   24.5104 N   0  0  0  0  0  0  0  0  0  0  0  0
  -27.6647  -27.6702   21.7660 N   0  0  0  0  0  0  0  0  0  0  0  0
  -30.5022  -16.6134   19.8317 N   0  3  0  0  0  0  0  0  0  0  0  0
  -22.3449  -20.6287   27.4645 N   0  3  0  0  0  0  0  0  0  0  0  0
  -20.6641  -29.5320   26.0595 O   0  0  0  0  0  0  0  0  0  0  0  0
  -22.2171  -15.0843   21.1845 O   0  0  0  0  0  0  0  0  0  0  0  0
  -30.6931  -19.4384   18.5244 O   0  0  0  0  0  0  0  0  0  0  0  0
  -20.0162  -16.4909   23.8998 O   0  0  0  0  0  0  0  0  0  0  0  0
  -22.9729  -20.0986   24.7735 O   0  0  0  0  0  0  0  0  0  0  0  0
  -28.6242  -28.9361   20.1125 O   0  0  0  0  0  0  0  0  0  0  0  0
  -17.1495  -25.1019   22.1908 O   0  0  0  0  0  0  0  0  0  0  0  0
  -28.4320  -16.4964   22.8832 O   0  0  0  0  0  0  0  0  0  1  0  0
  -16.8000  -22.4431   17.3729 F   0  0  0  0  0  0  0  0  0  0  0  0
  -19.2152  -23.4915   21.3065 F   0  0  0  0  0  0  0  0  0  0  0  0
  1  2  1  0  0  0  0
  1  5  2  0  0  0  0
  2  6  2  0  0  0  0
  3  8  2  0  0  0  0
  3 17  1  0  0  0  0
  4  9  1  0  0  0  0
  4 17  2  0  0  0  0
  5 19  1  0  0  0  0
  6 21  1  0  0  0  0
  7 10  2  0  0  0  0
  7 20  1  0  0  0  0
  8 27  1  0  0  0  0
  9 27  2  0  0  0  0
 10 28  1  0  0  0  0
 11 12  2  0  0  0  0
 11 29  1  0  0  0  0
 12 30  1  0  0  0  0
 13 22  1  0  0  0  0
 13 28  2  0  0  0  0
 14 23  1  0  0  0  0
 14 24  2  0  0  0  0
 15 23  2  0  0  0  0
 15 25  1  0  0  0  0
 16 30  2  0  0  0  0
 16 31  1  0  0  0  0
 17 32  1  0  0  0  0
 18 32  1  0  0  0  0
 18 33  2  0  0  0  0
 18 34  1  0  0  0  0
 19 21  2  0  0  0  0
 19 40  1  0  0  0  0
 20 22  2  0  0  0  0
 20 41  1  0  0  0  0
 21 51  1  0  0  0  0
 22 42  1  0  0  0  0
 23 66  1  0  0  0  0
 24 26  1  0  0  0  0
 24 57  1  0  0  0  0
 25 26  2  0  0  0  0
 25 58  1  0  0  0  0
 26 67  1  0  0  0  0
 27 91  1  0  0  0  0
 28 92  1  0  0  0  0
 29 31  2  0  0  0  0
 29 91  1  0  0  0  0
 30 93  1  0  0  0  0
 31 94  1  0  0  0  0
 32 72  2  0  0  0  0
 33 73  1  0  0  0  0
 33 77  1  0  0  0  0
 34 78  1  0  0  0  0
 34 85  2  0  0  0  0
 35 52  1  0  0  0  0
 35 79  1  0  0  0  0
 35 86  2  0  0  0  0
 36 53  1  0  0  0  0
 36 80  1  0  0  0  0
 36 87  2  0  0  0  0
 37 68  1  0  0  0  0
 37 75  1  0  0  0  0
 37 88  2  0  0  0  0
 38 69  1  0  0  0  0
 38 81  1  0  0  0  0
 38 89  2  0  0  0  0
 39 76  1  0  0  0  0
 39 82  1  0  0  0  0
 39 90  2  0  0  0  0
 40 43  1  0  0  0  0
 41 52  1  0  0  0  0
 42 75  1  0  0  0  0
 43 45  1  0  0  0  0
 44 46  1  0  0  0  0
 44 47  1  0  0  0  0
 45 51  1  0  0  0  0
 46 54  1  0  0  0  0
 47 76  1  0  0  0  0
 48 54  1  0  0  0  0
 48 76  1  0  0  0  0
 49 55  1  0  0  0  0
 49 74  1  0  0  0  0
 50 53  1  0  0  0  0
 50 83  1  0  0  0  0
 51 79  1  0  0  0  0
 52 75  1  0  0  0  0
 53 74  1  0  0  0  0
 54 73  1  0  0  0  0
 55 56  1  0  0  0  0
 55 92  1  0  0  0  0
 56 70  1  0  0  0  0
 56 83  1  0  0  0  0
 59 69  1  0  0  0  0
 60 70  1  0  0  0  0
 61 70  1  0  0  0  0
 62 71  1  0  0  0  0
 63 71  1  0  0  0  0
 64 71  1  0  0  0  0
 65 84  1  0  0  0  0
 66 82  1  0  0  0  0
 67 80  1  0  0  0  0
 68 71  1  0  0  0  0
 68 81  1  0  0  0  0
 69 84  1  0  0  0  0
 72 73  1  0  0  0  0
M  CHG  2  83   1  84   1
M  ISO  4  39 100  55 101  82 100  92 101
M  END
> <Batch ID>
0136

> <Smiles>
CNC(C)C(=O)NC(C(=O)N1Cc2cc([101O:1][101CH:1]3CNC(C(=O)NCc4c(C)cc(C[100NH:0][100C:0](=O)N5CCCC(n6nc(-c7ccc(Oc8ccc(F)cc8F)cc7)c(C(N)=O)c6N)C5)cc4C)CNC3C(C)C)ccc2CC1C(=O)NC1CCCc2ccccc21)C(C)(C)C

> <Shape>
0.240

> <Color>
0.071

> <Negative vol penalty>
0.000

$$$$

  -OEChem-04052321023D

 89 98  0     1  0  0  0  0  0999 V2000
  -19.4478   -8.9206   20.5256 C   0  0  0  0  0  0  0  0  0  0  0  0
  -19.4828   -9.9981   21.4048 C   0  0  0  0  0  0  0  0  0  0  0  0
  -30.0116  -22.6925   16.5907 C   0  0  0  0  0  0  0  0  0  0  0  0
  -30.0620  -23.2496   17.8685 C   0  0  0  0  0  0  0  0  0  0  0  0
  -25.5916  -30.5374   19.5441 C   0  0  0  0  0  0  0  0  0  0  0  0
  -24.4666  -29.4525   21.3865 C   0  0  0  0  0  0  0  0  0  0  0  0
  -20.6124   -8.2019   20.2588 C   0  0  0  0  0  0  0  0  0  0  0  0
  -20.6823  -10.3570   22.0187 C   0  0  0  0  0  0  0  0  0  0  0  0
  -24.4441  -17.2036   22.0273 C   0  0  0  0  0  0  0  0  0  0  0  0
  -29.4118  -21.4483   16.3955 C   0  0  0  0  0  0  0  0  0  0  0  0
  -29.5127  -22.5626   18.9510 C   0  0  0  0  0  0  0  0  0  0  0  0
  -25.4101  -31.7747   20.1618 C   0  0  0  0  0  0  0  0  0  0  0  0
  -24.2851  -30.6899   22.0043 C   0  0  0  0  0  0  0  0  0  0  0  0
  -25.2808  -18.3184   21.9716 C   0  0  0  0  0  0  0  0  0  0  0  0
  -26.1313  -32.8581   23.8239 C   0  0  0  0  0  0  0  0  0  0  0  0
  -26.4062  -32.9459   25.1885 C   0  0  0  0  0  0  0  0  0  0  0  0
  -27.2093  -16.9019   22.3215 C   0  0  0  0  0  0  0  0  0  0  0  0
  -24.1212  -33.6105   25.6060 C   0  0  0  0  0  0  0  0  0  0  0  0
  -25.1198  -29.3762   20.1564 C   0  0  0  0  0  0  0  0  0  0  0  0
  -26.3989  -27.2232   19.6708 C   0  0  0  0  0  0  0  0  0  0  0  0
  -21.8288   -8.5582   20.8623 C   0  0  0  0  0  0  0  0  0  0  0  0
  -24.9888  -15.9303   22.2152 C   0  0  0  0  0  0  0  0  0  0  0  0
  -21.8640   -9.6416   21.7608 C   0  0  0  0  0  0  0  0  0  0  0  0
  -26.3772  -15.7800   22.3657 C   0  0  0  0  0  0  0  0  0  0  0  0
  -28.8625  -20.7613   17.4781 C   0  0  0  0  0  0  0  0  0  0  0  0
  -24.7569  -31.8510   21.3919 C   0  0  0  0  0  0  0  0  0  0  0  0
  -26.6599  -18.1679   22.1185 C   0  0  0  0  0  0  0  0  0  0  0  0
  -28.9129  -21.3185   18.7559 C   0  0  0  0  0  0  0  0  0  0  0  0
  -24.8514  -33.1466   23.3502 C   0  0  0  0  0  0  0  0  0  0  0  0
  -25.4011  -33.3221   26.0796 C   0  0  0  0  0  0  0  0  0  0  0  0
  -23.8463  -33.5227   24.2413 C   0  0  0  0  0  0  0  0  0  0  0  0
  -25.3064  -28.0978   19.5185 C   0  0  0  0  0  0  0  0  0  0  0  0
  -26.0995  -26.1554   18.8604 C   0  0  0  0  0  0  0  0  0  0  0  0
  -27.5788  -27.3633   20.4732 C   0  0  0  0  0  0  0  0  0  0  0  0
  -24.3647  -12.2457   22.5470 C   0  0  0  0  0  0  0  0  0  0  0  0
  -26.8862  -12.5713   20.8305 C   0  0  0  0  0  0  0  0  0  0  0  0
  -29.3731  -13.3672   18.6353 C   0  0  0  0  0  0  0  0  0  0  0  0
  -22.4724  -22.3820   16.9238 C   0  0  0  0  0  0  0  0  0  0  0  0
  -23.0518   -7.7221   20.5795 C   0  0  0  0  0  0  0  0  0  0  0  0
  -24.1202  -14.7085   22.3432 C   0  0  0  0  0  0  0  0  0  0  0  0
  -26.9157  -14.3952   22.6005 C   0  0  0  0  0  0  0  0  0  0  0  0
  -24.3591   -8.3994   20.9824 C   0  0  0  0  0  0  0  0  0  0  0  0
  -22.4850  -25.5846   15.3681 C   0  0  0  0  0  0  0  0  0  0  0  0
  -24.2409   -8.9993   22.3799 C   0  0  0  0  0  0  0  0  0  0  0  0
  -23.3046  -26.4526   16.3245 C   0  0  0  0  0  0  0  0  0  0  0  0
  -21.6290  -24.5686   16.1210 C   0  0  0  0  0  0  0  0  0  0  0  0
  -23.1891  -24.5869   18.0288 C   0  0  0  0  0  0  0  0  0  0  0  0
  -25.8934  -20.3752   17.3647 C   0  0  0  0  0  0  0  0  0  0  0  0
  -23.1510  -10.0769   22.4273 C   0  0  1  0  0  0  0  0  0  0  0  0
  -24.7612  -13.4462   21.7390 C   0  0  1  0  0  0  0  0  0  0  0  0
  -24.5492  -19.8141   16.9301 C   0  0  1  0  0  0  0  0  0  0  0  0
  -24.1108  -25.5896   17.3137 C   0  0  2  0  0  0  0  0  0  0  0  0
  -24.8067  -18.3065   16.9202 C   0  0  1  0  0  0  0  0  0  0  0  0
  -26.2177  -18.1632   16.3383 C   0  0  1  0  0  0  0  0  0  0  0  0
  -26.2215  -17.9144   14.8354 C   0  0  0  0  0  0  0  0  0  0  0  0
  -31.0998  -12.3152   17.1489 C   0  0  0  0  0  0  0  0  0  0  0  0
  -28.6035  -11.9477   23.2730 C   0  0  0  0  0  0  0  0  0  0  0  0
  -30.5901  -11.8176   21.7548 C   0  0  0  0  0  0  0  0  0  0  0  0
  -28.6946  -10.2220   21.4652 C   0  0  0  0  0  0  0  0  0  0  0  0
  -28.1899  -14.5786   16.2081 C   0  0  0  0  0  0  0  0  0  0  0  0
  -28.2249  -19.4307   17.2506 C   0  0  0  0  0  0  0  0  0  0  0  0
  -23.4138  -20.2729   17.8317 C   0  0  0  0  0  0  0  0  0  0  0  0
  -28.7946  -19.0584   21.5635 C   0  0  0  0  0  0  0  0  0  1  0  0
  -29.2703  -20.3308   20.8895 C   0  0  0  0  0  0  0  0  0  0  0  0
  -28.3919  -12.6410   20.7950 C   0  0  1  0  0  0  0  0  0  0  0  0
  -29.6834  -12.8618   17.2379 C   0  0  2  0  0  0  0  0  0  0  0  0
  -29.0541  -11.6806   21.8230 C   0  0  0  0  0  0  0  0  0  0  0  0
  -24.3820  -27.6267   18.6773 N   0  0  0  0  0  0  0  0  0  0  0  0
  -24.8930  -26.4444   18.2937 N   0  0  0  0  0  0  0  0  0  0  0  0
  -26.2338  -13.4348   21.7188 N   0  0  0  0  0  0  0  0  0  0  0  0
  -22.4539  -23.7816   17.0410 N   0  0  0  0  0  0  0  0  0  0  0  0
  -26.7532  -25.0070   18.5843 N   0  0  0  0  0  0  0  0  0  0  0  0
  -27.7275  -28.5231   21.2459 N   0  0  0  0  0  0  0  0  0  0  0  0
  -23.6330  -11.3094   21.8416 N   0  0  0  0  0  0  0  0  0  0  0  0
  -28.7795  -12.3935   19.4104 N   0  0  0  0  0  0  0  0  0  0  0  0
  -23.2852  -21.7131   17.8307 N   0  0  0  0  0  0  0  0  0  0  0  0
  -26.8809  -19.5212   16.5993 N   0  3  2  0  0  0  0  0  0  0  0  0
  -29.5419  -13.9642   16.2451 N   0  3  0  0  0  0  0  0  0  0  0  0
  -28.4825  -26.4935   20.4914 O   0  0  0  0  0  0  0  0  0  0  0  0
  -24.6988  -12.1722   23.7237 O   0  0  0  0  0  0  0  0  0  0  0  0
  -26.3020  -11.7698   20.0958 O   0  0  0  0  0  0  0  0  0  0  0  0
  -29.6348  -14.5102   19.0036 O   0  0  0  0  0  0  0  0  0  0  0  0
  -21.8174  -21.7740   16.0704 O   0  0  0  0  0  0  0  0  0  0  0  0
  -24.8142  -17.7702   18.2404 O   0  0  0  0  0  0  0  0  0  0  0  0
  -24.5799  -33.0582   21.9952 O   0  0  0  0  0  0  0  0  0  0  0  0
  -27.4714  -19.2600   22.0586 O   0  0  0  0  0  0  0  0  0  1  0  0
  -28.3789  -20.6566   19.8301 O   0  0  0  0  0  0  0  0  0  0  0  0
  -25.6648  -33.4048   27.3902 F   0  0  0  0  0  0  0  0  0  0  0  0
  -22.6145  -33.7999   23.7923 F   0  0  0  0  0  0  0  0  0  0  0  0
  1  2  1  0  0  0  0
  1  7  2  0  0  0  0
  2  8  2  0  0  0  0
  3  4  1  0  0  0  0
  3 10  2  0  0  0  0
  4 11  2  0  0  0  0
  5 12  2  0  0  0  0
  5 19  1  0  0  0  0
  6 13  1  0  0  0  0
  6 19  2  0  0  0  0
  7 21  1  0  0  0  0
  8 23  1  0  0  0  0
  9 14  2  0  0  0  0
  9 22  1  0  0  0  0
 10 25  1  0  0  0  0
 11 28  1  0  0  0  0
 12 26  1  0  0  0  0
 13 26  2  0  0  0  0
 14 27  1  0  0  0  0
 15 16  2  0  0  0  0
 15 29  1  0  0  0  0
 16 30  1  0  0  0  0
 17 24  1  0  0  0  0
 17 27  2  0  0  0  0
 18 30  2  0  0  0  0
 18 31  1  0  0  0  0
 19 32  1  0  0  0  0
 20 32  1  0  0  0  0
 20 33  2  0  0  0  0
 20 34  1  0  0  0  0
 21 23  2  0  0  0  0
 21 39  1  0  0  0  0
 22 24  2  0  0  0  0
 22 40  1  0  0  0  0
 23 49  1  0  0  0  0
 24 41  1  0  0  0  0
 25 28  2  0  0  0  0
 25 61  1  0  0  0  0
 26 85  1  0  0  0  0
 27 86  1  0  0  0  0
 28 87  1  0  0  0  0
 29 31  2  0  0  0  0
 29 85  1  0  0  0  0
 30 88  1  0  0  0  0
 31 89  1  0  0  0  0
 32 68  2  0  0  0  0
 33 69  1  0  0  0  0
 33 72  1  0  0  0  0
 34 73  1  0  0  0  0
 34 79  2  0  0  0  0
 35 50  1  0  0  0  0
 35 74  1  0  0  0  0
 35 80  2  0  0  0  0
 36 65  1  0  0  0  0
 36 70  1  0  0  0  0
 36 81  2  0  0  0  0
 37 66  1  0  0  0  0
 37 75  1  0  0  0  0
 37 82  2  0  0  0  0
 38 71  1  0  0  0  0
 38 76  1  0  0  0  0
 38 83  2  0  0  0  0
 39 42  1  0  0  0  0
 40 50  1  0  0  0  0
 41 70  1  0  0  0  0
 42 44  1  0  0  0  0
 43 45  1  0  0  0  0
 43 46  1  0  0  0  0
 44 49  1  0  0  0  0
 45 52  1  0  0  0  0
 46 71  1  0  0  0  0
 47 52  1  0  0  0  0
 47 71  1  0  0  0  0
 48 51  1  0  0  0  0
 48 77  1  0  0  0  0
 49 74  1  0  0  0  0
 50 70  1  0  0  0  0
 51 53  1  0  0  0  0
 51 62  1  0  0  0  0
 52 69  1  0  0  0  0
 53 54  1  0  0  0  0
 53 84  1  0  0  0  0
 54 55  1  0  0  0  0
 54 77  1  0  0  0  0
 56 66  1  0  0  0  0
 57 67  1  0  0  0  0
 58 67  1  0  0  0  0
 59 67  1  0  0  0  0
 60 78  1  0  0  0  0
 61 77  1  0  0  0  0
 62 76  1  0  0  0  0
 63 64  1  0  0  0  0
 63 86  1  0  0  0  0
 64 87  1  0  0  0  0
 65 67  1  0  0  0  0
 65 75  1  0  0  0  0
 66 78  1  0  0  0  0
 68 69  1  0  0  0  0
M  CHG  2  77   1  78   1
M  ISO  4  38 100  63 101  76 100  86 101
M  END
> <Batch ID>
0136

> <Smiles>
CNC(C)C(=O)NC(C(=O)N1Cc2cc([101O:1][101CH2:1]COc3ccccc3CN3CC(C[100NH:0][100C:0](=O)N4CCCC(n5nc(-c6ccc(Oc7ccc(F)cc7F)cc6)c(C(N)=O)c5N)C4)C(O)C3C)ccc2CC1C(=O)NC1CCCc2ccccc21)C(C)(C)C

> <Shape>
0.237

> <Color>
0.060

> <Negative vol penalty>
0.000

$$$$

  -OEChem-04052321023D

 86 95  0     1  0  0  0  0  0999 V2000
  -22.0617  -24.5014   33.2213 C   0  0  0  0  0  0  0  0  0  0  0  0
  -22.9287  -23.4928   33.6292 C   0  0  0  0  0  0  0  0  0  0  0  0
  -23.1898   -9.8195   19.9313 C   0  0  0  0  0  0  0  0  0  0  0  0
  -23.5670   -9.9998   22.3108 C   0  0  0  0  0  0  0  0  0  0  0  0
  -21.1993  -24.2856   32.1473 C   0  0  0  0  0  0  0  0  0  0  0  0
  -22.9330  -22.2673   32.9640 C   0  0  0  0  0  0  0  0  0  0  0  0
  -29.9281  -11.5873   27.1081 C   0  0  0  0  0  0  0  0  0  0  0  0
  -27.3538  -16.9577   31.0718 C   0  0  0  0  0  0  0  0  0  0  0  0
  -30.5576  -11.6687   25.8660 C   0  0  0  0  0  0  0  0  0  0  0  0
  -22.4232   -8.6729   20.1396 C   0  0  0  0  0  0  0  0  0  0  0  0
  -22.8003   -8.8533   22.5192 C   0  0  0  0  0  0  0  0  0  0  0  0
  -27.4695  -15.5708   31.1559 C   0  0  0  0  0  0  0  0  0  0  0  0
  -21.2418   -5.7698   23.6474 C   0  0  0  0  0  0  0  0  0  0  0  0
  -21.7375   -4.8099   24.5296 C   0  0  0  0  0  0  0  0  0  0  0  0
  -25.9916  -15.3389   29.2635 C   0  0  0  0  0  0  0  0  0  0  0  0
  -30.5361  -14.0801   26.0131 C   0  0  0  0  0  0  0  0  0  0  0  0
  -23.6968   -4.5455   23.1409 C   0  0  0  0  0  0  0  0  0  0  0  0
  -23.7617  -10.4829   21.0169 C   0  0  0  0  0  0  0  0  0  0  0  0
  -24.1010  -12.9995   20.7733 C   0  0  0  0  0  0  0  0  0  0  0  0
  -21.1998  -23.0602   31.4623 C   0  0  0  0  0  0  0  0  0  0  0  0
  -26.5462  -17.5462   30.0881 C   0  0  0  0  0  0  0  0  0  0  0  0
  -22.0688  -22.0345   31.8806 C   0  0  0  0  0  0  0  0  0  0  0  0
  -29.6026  -12.7524   27.8027 C   0  0  0  0  0  0  0  0  0  0  0  0
  -25.8694  -16.7335   29.1674 C   0  0  0  0  0  0  0  0  0  0  0  0
  -30.8616  -12.9151   25.3185 C   0  0  0  0  0  0  0  0  0  0  0  0
  -29.9066  -13.9988   27.2552 C   0  0  0  0  0  0  0  0  0  0  0  0
  -22.2285   -8.1899   21.4336 C   0  0  0  0  0  0  0  0  0  0  0  0
  -26.7860  -14.7611   30.2535 C   0  0  0  0  0  0  0  0  0  0  0  0
  -21.9735   -6.1175   22.5118 C   0  0  0  0  0  0  0  0  0  0  0  0
  -22.9651   -4.1977   24.2764 C   0  0  0  0  0  0  0  0  0  0  0  0
  -23.2010   -5.5054   22.2587 C   0  0  0  0  0  0  0  0  0  0  0  0
  -24.5542  -11.6670   20.8022 C   0  0  0  0  0  0  0  0  0  0  0  0
  -25.2324  -13.7419   20.5385 C   0  0  0  0  0  0  0  0  0  0  0  0
  -22.7758  -13.5196   20.9434 C   0  0  0  0  0  0  0  0  0  0  0  0
  -23.9595  -19.3933   30.1192 C   0  0  0  0  0  0  0  0  0  0  0  0
  -24.4667  -19.4894   26.9167 C   0  0  0  0  0  0  0  0  0  0  0  0
  -25.3619  -17.9967   23.7564 C   0  0  0  0  0  0  0  0  0  0  0  0
  -31.0466  -12.7509   21.5706 C   0  0  0  0  0  0  0  0  0  0  0  0
  -20.2162  -22.8571   30.3372 C   0  0  0  0  0  0  0  0  0  0  0  0
  -26.4532  -19.0445   29.9939 C   0  0  0  0  0  0  0  0  0  0  0  0
  -25.0057  -17.3164   28.0799 C   0  0  0  0  0  0  0  0  0  0  0  0
  -20.5467  -21.6613   29.4477 C   0  0  0  0  0  0  0  0  0  0  0  0
  -29.5208  -13.4686   18.4347 C   0  0  0  0  0  0  0  0  0  0  0  0
  -20.8850  -20.4409   30.2980 C   0  0  0  0  0  0  0  0  0  0  0  0
  -28.0340  -13.2084   18.6833 C   0  0  0  0  0  0  0  0  0  0  0  0
  -30.4016  -12.4790   19.1943 C   0  0  0  0  0  0  0  0  0  0  0  0
  -28.6472  -12.1366   20.8910 C   0  0  0  0  0  0  0  0  0  0  0  0
  -28.9338  -12.6422   29.1219 C   0  0  2  0  0  0  0  0  0  0  0  0
  -22.1205  -20.7002   31.1684 C   0  0  1  0  0  0  0  0  0  0  0  0
  -25.1953  -19.5210   29.2742 C   0  0  1  0  0  0  0  0  0  0  0  0
  -27.7202  -13.1445   20.1901 C   0  0  2  0  0  0  0  0  0  0  0  0
  -28.1038  -11.4140   29.4282 C   0  0  2  0  0  0  0  0  0  0  0  0
  -27.4228  -12.7297   29.1934 C   0  0  1  0  0  0  0  0  0  1  0  0
  -29.5699  -15.2610   27.9796 C   0  0  0  0  0  0  0  0  0  0  0  0
  -25.5752  -19.0155   21.4730 C   0  0  0  0  0  0  0  0  0  0  0  0
  -29.0501   -8.6241   30.5081 C   0  0  0  0  0  0  0  0  0  0  0  0
  -29.5555   -9.9667   32.5856 C   0  0  0  0  0  0  0  0  0  0  0  0
  -21.5765  -18.5793   26.5579 C   0  0  0  0  0  0  0  0  0  0  0  0
  -22.1311  -17.9843   24.1901 C   0  0  0  0  0  0  0  0  0  0  0  0
  -22.3189  -20.3508   24.9563 C   0  0  0  0  0  0  0  0  0  0  0  0
  -28.1394  -17.0207   23.4533 C   0  0  0  0  0  0  0  0  0  0  0  0
  -31.5356  -13.0020   23.9907 C   0  0  0  0  0  0  0  0  0  0  0  0
  -24.0238  -18.6557   25.7387 C   0  0  1  0  0  0  0  0  0  0  0  0
  -26.3168  -18.5638   22.7215 C   0  0  2  0  0  0  0  0  0  0  0  0
  -29.3335  -10.0029   31.0821 C   0  0  0  0  0  0  0  0  0  0  0  0
  -22.5272  -18.8812   25.3823 C   0  0  0  0  0  0  0  0  0  0  0  0
  -25.8708  -11.5656   20.6017 N   0  0  0  0  0  0  0  0  0  0  0  0
  -26.2547  -12.8439   20.4444 N   0  0  0  0  0  0  0  0  0  0  0  0
  -24.9417  -18.7865   28.0330 N   0  0  0  0  0  0  0  0  0  0  0  0
  -30.0543  -12.4680   20.6175 N   0  0  0  0  0  0  0  0  0  0  0  0
  -25.4427  -15.0687   20.4053 N   0  0  0  0  0  0  0  0  0  0  0  0
  -21.7289  -12.6176   21.1770 N   0  0  0  0  0  0  0  0  0  0  0  0
  -23.3275  -20.5948   30.3770 N   0  0  0  0  0  0  0  0  0  0  0  0
  -24.9490  -18.9599   24.6525 N   0  0  0  0  0  0  0  0  0  0  0  0
  -30.6317  -12.7256   22.8965 N   0  0  0  0  0  0  0  0  0  0  0  0
  -28.1610  -10.8848   30.7973 N   0  3  0  0  0  0  0  0  0  0  0  0
  -27.3214  -17.5367   22.3257 N   0  3  0  0  0  0  0  0  0  0  0  0
  -22.5248  -14.7467   20.8736 O   0  0  0  0  0  0  0  0  0  0  0  0
  -23.6047  -18.2864   30.5073 O   0  0  0  0  0  0  0  0  0  0  0  0
  -24.4005  -20.7191   26.8463 O   0  0  0  0  0  0  0  0  0  0  0  0
  -25.0140  -16.8180   23.7665 O   0  0  0  0  0  0  0  0  0  0  0  0
  -32.2143  -13.0123   21.2625 O   0  0  0  0  0  0  0  0  0  0  0  0
  -21.4803   -7.0713   21.6373 O   0  0  0  0  0  0  0  0  0  0  0  0
  -26.8966  -13.4072   30.3338 O   0  0  0  0  0  0  0  0  0  1  0  0
  -23.4418   -3.2771   25.1245 F   0  0  0  0  0  0  0  0  0  0  0  0
  -23.9090   -5.8362   21.1700 F   0  0  0  0  0  0  0  0  0  0  0  0
  1  2  1  0  0  0  0
  1  5  2  0  0  0  0
  2  6  2  0  0  0  0
  3 10  2  0  0  0  0
  3 18  1  0  0  0  0
  4 11  1  0  0  0  0
  4 18  2  0  0  0  0
  5 20  1  0  0  0  0
  6 22  1  0  0  0  0
  7  9  2  0  0  0  0
  7 23  1  0  0  0  0
  8 12  2  0  0  0  0
  8 21  1  0  0  0  0
  9 25  1  0  0  0  0
 10 27  1  0  0  0  0
 11 27  2  0  0  0  0
 12 28  1  0  0  0  0
 13 14  2  0  0  0  0
 13 29  1  0  0  0  0
 14 30  1  0  0  0  0
 15 24  1  0  0  0  0
 15 28  2  0  0  0  0
 16 25  2  0  0  0  0
 16 26  1  0  0  0  0
 17 30  2  0  0  0  0
 17 31  1  0  0  0  0
 18 32  1  0  0  0  0
 19 32  1  0  0  0  0
 19 33  2  0  0  0  0
 19 34  1  0  0  0  0
 20 22  2  0  0  0  0
 20 39  1  0  0  0  0
 21 24  2  0  0  0  0
 21 40  1  0  0  0  0
 22 49  1  0  0  0  0
 23 26  2  0  0  0  0
 23 48  1  0  0  0  0
 24 41  1  0  0  0  0
 25 62  1  0  0  0  0
 26 54  1  0  0  0  0
 27 83  1  0  0  0  0
 28 84  1  0  0  0  0
 29 31  2  0  0  0  0
 29 83  1  0  0  0  0
 30 85  1  0  0  0  0
 31 86  1  0  0  0  0
 32 67  2  0  0  0  0
 33 68  1  0  0  0  0
 33 71  1  0  0  0  0
 34 72  1  0  0  0  0
 34 78  2  0  0  0  0
 35 50  1  0  0  0  0
 35 73  1  0  0  0  0
 35 79  2  0  0  0  0
 36 63  1  0  0  0  0
 36 69  1  0  0  0  0
 36 80  2  0  0  0  0
 37 64  1  0  0  0  0
 37 74  1  0  0  0  0
 37 81  2  0  0  0  0
 38 70  1  0  0  0  0
 38 75  1  0  0  0  0
 38 82  2  0  0  0  0
 39 42  1  0  0  0  0
 40 50  1  0  0  0  0
 41 69  1  0  0  0  0
 42 44  1  0  0  0  0
 43 45  1  0  0  0  0
 43 46  1  0  0  0  0
 44 49  1  0  0  0  0
 45 51  1  0  0  0  0
 46 70  1  0  0  0  0
 47 51  1  0  0  0  0
 47 70  1  0  0  0  0
 48 52  1  0  0  0  0
 48 53  1  0  0  0  0
 49 73  1  0  0  0  0
 50 69  1  0  0  0  0
 51 68  1  0  0  0  0
 52 53  1  0  0  0  0
 52 76  1  0  0  0  0
 53 84  1  0  0  0  0
 55 64  1  0  0  0  0
 56 65  1  0  0  0  0
 57 65  1  0  0  0  0
 58 66  1  0  0  0  0
 59 66  1  0  0  0  0
 60 66  1  0  0  0  0
 61 77  1  0  0  0  0
 62 75  1  0  0  0  0
 63 66  1  0  0  0  0
 63 74  1  0  0  0  0
 64 77  1  0  0  0  0
 65 76  1  0  0  0  0
 67 68  1  0  0  0  0
M  CHG  2  76   1  77   1
M  ISO  4  38 100  53 101  75 100  84 101
M  END
> <Batch ID>
0136

> <Smiles>
CNC(C)C(=O)NC(C(=O)N1Cc2cc([101O:1][101CH:1]3C(NC(C)C)C3c3ccc(C[100NH:0][100C:0](=O)N4CCCC(n5nc(-c6ccc(Oc7ccc(F)cc7F)cc6)c(C(N)=O)c5N)C4)cc3C)ccc2CC1C(=O)NC1CCCc2ccccc21)C(C)(C)C

> <Shape>
0.139

> <Color>
0.178

> <Negative vol penalty>
0.000

$$$$

  -OEChem-04052321023D

 83 92  0     1  0  0  0  0  0999 V2000
  -25.9812  -30.2747   31.0816 C   0  0  0  0  0  0  0  0  0  0  0  0
  -25.9435  -28.8991   30.8770 C   0  0  0  0  0  0  0  0  0  0  0  0
  -23.0792   -9.8600   19.9546 C   0  0  0  0  0  0  0  0  0  0  0  0
  -23.8334   -9.8911   22.2497 C   0  0  0  0  0  0  0  0  0  0  0  0
  -25.9682  -31.1413   29.9894 C   0  0  0  0  0  0  0  0  0  0  0  0
  -25.8918  -28.3894   29.5802 C   0  0  0  0  0  0  0  0  0  0  0  0
  -28.4855  -23.2275   27.5472 C   0  0  0  0  0  0  0  0  0  0  0  0
  -22.3373   -8.7078   20.2140 C   0  0  0  0  0  0  0  0  0  0  0  0
  -23.0913   -8.7388   22.5091 C   0  0  0  0  0  0  0  0  0  0  0  0
  -27.9810  -21.9456   27.3325 C   0  0  0  0  0  0  0  0  0  0  0  0
  -19.3871   -7.9189   21.6657 C   0  0  0  0  0  0  0  0  0  0  0  0
  -18.0816   -7.8650   21.1777 C   0  0  0  0  0  0  0  0  0  0  0  0
  -27.6400  -22.4764   25.0042 C   0  0  0  0  0  0  0  0  0  0  0  0
  -27.4839  -18.0445   25.2655 C   0  0  0  0  0  0  0  0  0  0  0  0
  -18.6488   -5.9103   19.8759 C   0  0  0  0  0  0  0  0  0  0  0  0
  -30.1198  -18.7064   25.0239 C   0  0  0  0  0  0  0  0  0  0  0  0
  -23.8273  -10.4517   20.9725 C   0  0  0  0  0  0  0  0  0  0  0  0
  -24.1639  -12.9763   20.8286 C   0  0  0  0  0  0  0  0  0  0  0  0
  -25.9260  -30.6417   28.6782 C   0  0  0  0  0  0  0  0  0  0  0  0
  -28.5611  -24.1485   26.4925 C   0  0  0  0  0  0  0  0  0  0  0  0
  -25.8769  -29.2501   28.4695 C   0  0  0  0  0  0  0  0  0  0  0  0
  -28.1483  -23.7684   25.2075 C   0  0  0  0  0  0  0  0  0  0  0  0
  -28.4024  -17.0656   24.9032 C   0  0  0  0  0  0  0  0  0  0  0  0
  -29.7475  -17.3948   24.7773 C   0  0  0  0  0  0  0  0  0  0  0  0
  -22.3433   -8.1471   21.4912 C   0  0  0  0  0  0  0  0  0  0  0  0
  -27.5554  -21.5709   26.0615 C   0  0  0  0  0  0  0  0  0  0  0  0
  -20.3236   -6.9685   21.2588 C   0  0  0  0  0  0  0  0  0  0  0  0
  -17.7124   -6.8607   20.2828 C   0  0  0  0  0  0  0  0  0  0  0  0
  -19.9544   -5.9642   20.3639 C   0  0  0  0  0  0  0  0  0  0  0  0
  -24.5945  -11.6417   20.7050 C   0  0  0  0  0  0  0  0  0  0  0  0
  -27.9573  -19.3273   25.4893 C   0  0  0  0  0  0  0  0  0  1  0  0
  -25.2554  -13.7246   20.4608 C   0  0  0  0  0  0  0  0  0  0  0  0
  -22.8913  -13.4934   21.2394 C   0  0  0  0  0  0  0  0  0  0  0  0
  -27.2635  -26.9886   25.8974 C   0  0  0  0  0  0  0  0  0  0  0  0
  -29.2324  -26.9136   23.3206 C   0  0  0  0  0  0  0  0  0  0  0  0
  -31.0251  -25.0451   21.0976 C   0  0  0  0  0  0  0  0  0  0  0  0
  -30.7364  -14.7576   20.6528 C   0  0  0  0  0  0  0  0  0  0  0  0
  -25.8659  -31.6186   27.5307 C   0  0  0  0  0  0  0  0  0  0  0  0
  -29.1327  -25.5186   26.7348 C   0  0  0  0  0  0  0  0  0  0  0  0
  -28.2274  -24.7133   24.0373 C   0  0  0  0  0  0  0  0  0  0  0  0
  -26.1886  -30.9896   26.1778 C   0  0  0  0  0  0  0  0  0  0  0  0
  -29.6100  -12.3474   18.2866 C   0  0  0  0  0  0  0  0  0  0  0  0
  -27.1474  -14.9654   25.7326 C   0  0  0  0  0  0  0  0  0  0  0  0
  -28.5485  -14.5386   25.4241 C   0  0  0  0  0  0  0  0  0  0  0  0
  -25.4331  -29.6756   26.0062 C   0  0  0  0  0  0  0  0  0  0  0  0
  -28.1721  -12.0547   18.7188 C   0  0  0  0  0  0  0  0  0  0  0  0
  -30.5236  -12.5819   19.4875 C   0  0  0  0  0  0  0  0  0  0  0  0
  -28.6168  -13.3223   20.8622 C   0  0  0  0  0  0  0  0  0  0  0  0
  -27.9253  -15.6735   24.6553 C   0  0  0  0  0  0  0  0  0  0  0  0
  -25.8453  -28.6583   27.0771 C   0  0  1  0  0  0  0  0  0  0  0  0
  -28.6851  -26.5446   25.6983 C   0  0  1  0  0  0  0  0  0  0  0  0
  -27.6460  -13.1341   19.6839 C   0  0  2  0  0  0  0  0  0  0  0  0
  -32.5022  -25.2638   19.0807 C   0  0  0  0  0  0  0  0  0  0  0  0
  -26.7819  -27.4678   21.5891 C   0  0  0  0  0  0  0  0  0  0  0  0
  -28.1116  -26.7397   19.5965 C   0  0  0  0  0  0  0  0  0  0  0  0
  -28.8377  -28.7253   20.9205 C   0  0  0  0  0  0  0  0  0  0  0  0
  -33.3128  -23.7885   22.4928 C   0  0  0  0  0  0  0  0  0  0  0  0
  -30.7745  -16.3874   24.3913 C   0  0  0  0  0  0  0  0  0  0  0  0
  -31.6093  -16.7673   23.1513 C   0  0  0  0  0  0  0  0  0  0  0  0
  -30.7944  -16.9202   21.8687 C   0  0  0  0  0  0  0  0  0  0  0  0
  -29.1172  -26.4119   21.9014 C   0  0  1  0  0  0  0  0  0  0  0  0
  -32.4531  -25.1700   20.5978 C   0  0  2  0  0  0  0  0  0  0  0  0
  -28.2087  -27.3188   21.0241 C   0  0  0  0  0  0  0  0  0  0  0  0
  -29.2564  -19.6847   25.3778 N   0  0  0  0  0  0  0  0  0  0  0  0
  -25.8606  -11.5446   20.2908 N   0  0  0  0  0  0  0  0  0  0  0  0
  -26.2350  -12.8277   20.1509 N   0  0  0  0  0  0  0  0  0  0  0  0
  -28.7878  -26.0437   24.3262 N   0  0  0  0  0  0  0  0  0  0  0  0
  -29.9686  -13.6178   20.3621 N   0  0  0  0  0  0  0  0  0  0  0  0
  -25.4630  -15.0558   20.3753 N   0  0  0  0  0  0  0  0  0  0  0  0
  -21.8805  -12.5853   21.5830 N   0  0  0  0  0  0  0  0  0  0  0  0
  -27.1254  -28.0688   26.7481 N   0  0  0  0  0  0  0  0  0  0  0  0
  -30.4822  -26.2747   21.4049 N   0  0  0  0  0  0  0  0  0  0  0  0
  -30.1331  -15.6932   21.4842 N   0  0  0  0  0  0  0  0  0  0  0  0
  -33.2556  -23.9879   21.0218 N   0  3  0  0  0  0  0  0  0  0  0  0
  -22.6522  -14.7240   21.2841 O   0  0  0  0  0  0  0  0  0  0  0  0
  -26.3591  -26.3960   25.3208 O   0  0  0  0  0  0  0  0  0  0  0  0
  -29.7062  -28.0332   23.5296 O   0  0  0  0  0  0  0  0  0  0  0  0
  -30.4478  -23.9651   21.2013 O   0  0  0  0  0  0  0  0  0  0  0  0
  -31.8731  -14.9311   20.2003 O   0  0  0  0  0  0  0  0  0  0  0  0
  -21.6192   -7.0229   21.7448 O   0  0  0  0  0  0  0  0  0  0  0  0
  -27.0619  -20.3205   25.8494 O   0  0  0  0  0  0  0  0  0  1  0  0
  -16.4582   -6.8082   19.8154 F   0  0  0  0  0  0  0  0  0  0  0  0
  -20.8494   -5.0478   19.9702 F   0  0  0  0  0  0  0  0  0  0  0  0
  1  2  1  0  0  0  0
  1  5  2  0  0  0  0
  2  6  2  0  0  0  0
  3  8  2  0  0  0  0
  3 17  1  0  0  0  0
  4  9  1  0  0  0  0
  4 17  2  0  0  0  0
  5 19  1  0  0  0  0
  6 21  1  0  0  0  0
  7 10  2  0  0  0  0
  7 20  1  0  0  0  0
  8 25  1  0  0  0  0
  9 25  2  0  0  0  0
 10 26  1  0  0  0  0
 11 12  2  0  0  0  0
 11 27  1  0  0  0  0
 12 28  1  0  0  0  0
 13 22  1  0  0  0  0
 13 26  2  0  0  0  0
 14 23  2  0  0  0  0
 14 31  1  0  0  0  0
 15 28  2  0  0  0  0
 15 29  1  0  0  0  0
 16 24  2  0  0  0  0
 16 64  1  0  0  0  0
 17 30  1  0  0  0  0
 18 30  1  0  0  0  0
 18 32  2  0  0  0  0
 18 33  1  0  0  0  0
 19 21  2  0  0  0  0
 19 38  1  0  0  0  0
 20 22  2  0  0  0  0
 20 39  1  0  0  0  0
 21 50  1  0  0  0  0
 22 40  1  0  0  0  0
 23 24  1  0  0  0  0
 23 49  1  0  0  0  0
 24 58  1  0  0  0  0
 25 80  1  0  0  0  0
 26 81  1  0  0  0  0
 27 29  2  0  0  0  0
 27 80  1  0  0  0  0
 28 82  1  0  0  0  0
 29 83  1  0  0  0  0
 30 65  2  0  0  0  0
 31 64  2  0  0  0  0
 31 81  1  0  0  0  0
 32 66  1  0  0  0  0
 32 69  1  0  0  0  0
 33 70  1  0  0  0  0
 33 75  2  0  0  0  0
 34 51  1  0  0  0  0
 34 71  1  0  0  0  0
 34 76  2  0  0  0  0
 35 61  1  0  0  0  0
 35 67  1  0  0  0  0
 35 77  2  0  0  0  0
 36 62  1  0  0  0  0
 36 72  1  0  0  0  0
 36 78  2  0  0  0  0
 37 68  1  0  0  0  0
 37 73  1  0  0  0  0
 37 79  2  0  0  0  0
 38 41  1  0  0  0  0
 39 51  1  0  0  0  0
 40 67  1  0  0  0  0
 41 45  1  0  0  0  0
 42 46  1  0  0  0  0
 42 47  1  0  0  0  0
 43 44  1  0  0  0  0
 43 49  1  0  0  0  0
 44 49  1  0  0  0  0
 45 50  1  0  0  0  0
 46 52  1  0  0  0  0
 47 68  1  0  0  0  0
 48 52  1  0  0  0  0
 48 68  1  0  0  0  0
 50 71  1  0  0  0  0
 51 67  1  0  0  0  0
 52 66  1  0  0  0  0
 53 62  1  0  0  0  0
 54 63  1  0  0  0  0
 55 63  1  0  0  0  0
 56 63  1  0  0  0  0
 57 74  1  0  0  0  0
 58 59  1  0  0  0  0
 59 60  1  0  0  0  0
 60 73  1  0  0  0  0
 61 63  1  0  0  0  0
 61 72  1  0  0  0  0
 62 74  1  0  0  0  0
 65 66  1  0  0  0  0
M  CHG  1  74   1
M  ISO  4  31 101  37 100  73 100  81 101
M  END
> <Batch ID>
0136

> <Smiles>
CNC(C)C(=O)NC(C(=O)N1Cc2cc([101O:1][101c:1]3cc(C4CC4)c(CCC[100NH:0][100C:0](=O)N4CCCC(n5nc(-c6ccc(Oc7ccc(F)cc7F)cc6)c(C(N)=O)c5N)C4)cn3)ccc2CC1C(=O)NC1CCCc2ccccc21)C(C)(C)C

> <Shape>
0.198

> <Color>
0.196

> <Negative vol penalty>
0.000

$$$$

  -OEChem-04052321023D

 85 95  0     1  0  0  0  0  0999 V2000
  -29.9795  -36.4875   20.9705 C   0  0  0  0  0  0  0  0  0  0  0  0
  -29.8396  -35.3677   20.1568 C   0  0  0  0  0  0  0  0  0  0  0  0
  -24.7596   -8.6627   21.4569 C   0  0  0  0  0  0  0  0  0  0  0  0
  -23.1321  -10.3787   20.9633 C   0  0  0  0  0  0  0  0  0  0  0  0
  -29.6608  -36.4074   22.3254 C   0  0  0  0  0  0  0  0  0  0  0  0
  -29.3820  -34.1669   20.6980 C   0  0  0  0  0  0  0  0  0  0  0  0
  -26.6152  -20.8053   21.6628 C   0  0  0  0  0  0  0  0  0  0  0  0
  -25.5240  -28.3805   18.9806 C   0  0  0  0  0  0  0  0  0  0  0  0
  -26.4537  -22.1832   21.8074 C   0  0  0  0  0  0  0  0  0  0  0  0
  -23.8719   -8.0811   22.3620 C   0  0  0  0  0  0  0  0  0  0  0  0
  -22.2444   -9.7971   21.8684 C   0  0  0  0  0  0  0  0  0  0  0  0
  -25.6039  -26.9887   18.9977 C   0  0  0  0  0  0  0  0  0  0  0  0
  -21.8975   -5.9379   24.5353 C   0  0  0  0  0  0  0  0  0  0  0  0
  -21.7461   -4.5519   24.4956 C   0  0  0  0  0  0  0  0  0  0  0  0
  -24.3580  -22.0630   20.6113 C   0  0  0  0  0  0  0  0  0  0  0  0
  -25.0085  -26.9893   21.3354 C   0  0  0  0  0  0  0  0  0  0  0  0
  -20.9921   -4.6999   22.2050 C   0  0  0  0  0  0  0  0  0  0  0  0
  -24.3898   -9.8116   20.7576 C   0  0  0  0  0  0  0  0  0  0  0  0
  -25.4264  -10.1317   18.4487 C   0  0  0  0  0  0  0  0  0  0  0  0
  -29.1899  -35.2076   22.8815 C   0  0  0  0  0  0  0  0  0  0  0  0
  -25.1958  -29.0889   20.1454 C   0  0  0  0  0  0  0  0  0  0  0  0
  -25.6482  -20.0562   20.9923 C   0  0  0  0  0  0  0  0  0  0  0  0
  -29.0580  -34.0703   22.0620 C   0  0  0  0  0  0  0  0  0  0  0  0
  -24.5196  -20.6851   20.4666 C   0  0  0  0  0  0  0  0  0  0  0  0
  -24.9225  -28.3899   21.3297 C   0  0  0  0  0  0  0  0  0  0  0  0
  -25.3250  -22.8120   21.2817 C   0  0  0  0  0  0  0  0  0  0  0  0
  -22.6143   -8.6483   22.5677 C   0  0  0  0  0  0  0  0  0  0  0  0
  -25.3490  -26.2930   20.1759 C   0  0  0  0  0  0  0  0  0  0  0  0
  -21.5961   -6.7050   23.4099 C   0  0  0  0  0  0  0  0  0  0  0  0
  -21.2934   -3.9329   23.3304 C   0  0  0  0  0  0  0  0  0  0  0  0
  -21.1435   -6.0860   22.2448 C   0  0  0  0  0  0  0  0  0  0  0  0
  -25.3066  -10.4132   19.8229 C   0  0  0  0  0  0  0  0  0  0  0  0
  -26.4314  -10.9612   18.0147 C   0  0  0  0  0  0  0  0  0  0  0  0
  -24.6945   -9.2035   17.6372 C   0  0  0  0  0  0  0  0  0  0  0  0
  -26.6740  -31.2496   21.9482 C   0  0  0  0  0  0  0  0  0  0  0  0
  -23.8181  -31.3516   23.4831 C   0  0  0  0  0  0  0  0  0  0  0  0
  -20.8923  -29.7793   24.2665 C   0  0  0  0  0  0  0  0  0  0  0  0
  -28.5720  -16.1537   20.0775 C   0  0  0  0  0  0  0  0  0  0  0  0
  -28.9033  -35.1566   24.3613 C   0  0  0  0  0  0  0  0  0  0  0  0
  -25.0875  -30.5886   20.1038 C   0  0  0  0  0  0  0  0  0  0  0  0
  -24.5462  -29.1023   22.6023 C   0  0  0  0  0  0  0  0  0  0  0  0
  -28.0686  -33.9486   24.7788 C   0  0  0  0  0  0  0  0  0  0  0  0
  -30.3825  -13.1749   19.5014 C   0  0  0  0  0  0  0  0  0  0  0  0
  -23.6520  -19.6241   18.2767 C   0  0  0  0  0  0  0  0  0  0  0  0
  -22.6105  -20.6002   18.7269 C   0  0  0  0  0  0  0  0  0  0  0  0
  -28.6124  -32.6763   24.1366 C   0  0  0  0  0  0  0  0  0  0  0  0
  -29.3100  -12.0919   19.4231 C   0  0  0  0  0  0  0  0  0  0  0  0
  -26.0049  -17.7576   22.1492 C   0  0  0  0  0  0  0  0  0  0  0  0
  -30.0253  -14.2146   20.5552 C   0  0  0  0  0  0  0  0  0  0  0  0
  -26.5796  -16.4335   21.6639 C   0  0  0  0  0  0  0  0  0  0  0  0
  -27.1196  -18.1592   20.0915 C   0  0  0  0  0  0  0  0  0  0  0  0
  -27.6022  -13.8078   20.2181 C   0  0  0  0  0  0  0  0  0  0  0  0
  -25.8473  -18.5635   20.8496 C   0  0  2  0  0  0  0  0  0  0  0  0
  -23.4725  -19.9027   19.7451 C   0  0  0  0  0  0  0  0  0  0  0  0
  -28.5411  -32.7565   22.6069 C   0  0  1  0  0  0  0  0  0  0  0  0
  -25.2480  -31.2375   21.4751 C   0  0  1  0  0  0  0  0  0  0  0  0
  -27.9272  -12.7156   19.1782 C   0  0  2  0  0  0  0  0  0  0  0  0
  -18.7715  -30.0993   25.5693 C   0  0  0  0  0  0  0  0  0  0  0  0
  -25.3353  -30.8256   26.0776 C   0  0  0  0  0  0  0  0  0  0  0  0
  -23.1551  -30.2177   27.1477 C   0  0  0  0  0  0  0  0  0  0  0  0
  -23.5084  -32.5233   26.2633 C   0  0  0  0  0  0  0  0  0  0  0  0
  -19.2247  -29.5407   21.8331 C   0  0  0  0  0  0  0  0  0  0  0  0
  -25.1534  -24.2856   21.4361 C   0  0  0  0  0  0  0  0  0  1  0  0
  -23.2003  -30.6077   24.6423 C   0  0  1  0  0  0  0  0  0  0  0  0
  -19.4504  -30.2515   24.2170 C   0  0  2  0  0  0  0  0  0  0  0  0
  -23.8087  -31.0300   26.0094 C   0  0  0  0  0  0  0  0  0  0  0  0
  -26.1669  -11.3483   20.2346 N   0  0  0  0  0  0  0  0  0  0  0  0
  -26.8369  -11.6616   19.1125 N   0  0  0  0  0  0  0  0  0  0  0  0
  -24.4596  -30.5692   22.5124 N   0  0  0  0  0  0  0  0  0  0  0  0
  -28.6949  -14.7828   20.3297 N   0  0  0  0  0  0  0  0  0  0  0  0
  -27.4192  -16.7982   20.5247 N   0  0  0  0  0  0  0  0  0  0  0  0
  -26.9990  -11.1525   16.8049 N   0  0  0  0  0  0  0  0  0  0  0  0
  -23.6956   -8.4294   18.2431 N   0  0  0  0  0  0  0  0  0  0  0  0
  -27.1890  -32.5158   22.1507 N   0  0  0  0  0  0  0  0  0  0  0  0
  -21.7599  -30.8156   24.5396 N   0  0  0  0  0  0  0  0  0  0  0  0
  -18.6812  -29.4626   23.2135 N   0  3  0  0  0  0  0  0  0  0  0  0
  -24.9310   -9.0530   16.4145 O   0  0  0  0  0  0  0  0  0  0  0  0
  -27.2631  -30.1886   22.1185 O   0  0  0  0  0  0  0  0  0  0  0  0
  -23.7286  -32.5810   23.4368 O   0  0  0  0  0  0  0  0  0  0  0  0
  -21.2161  -28.6076   24.0851 O   0  0  0  0  0  0  0  0  0  0  0  0
  -29.4738  -16.7867   19.5121 O   0  0  0  0  0  0  0  0  0  0  0  0
  -21.7477   -8.0809   23.4507 O   0  0  0  0  0  0  0  0  0  0  0  0
  -25.4275  -24.9252   20.1957 O   0  0  0  0  0  0  0  0  0  1  0  0
  -21.1496   -2.6017   23.2919 F   0  0  0  0  0  0  0  0  0  0  0  0
  -20.8535   -6.8175   21.1600 F   0  0  0  0  0  0  0  0  0  0  0  0
  1  2  1  0  0  0  0
  1  5  2  0  0  0  0
  2  6  2  0  0  0  0
  3 10  2  0  0  0  0
  3 18  1  0  0  0  0
  4 11  1  0  0  0  0
  4 18  2  0  0  0  0
  5 20  1  0  0  0  0
  6 23  1  0  0  0  0
  7  9  2  0  0  0  0
  7 22  1  0  0  0  0
  8 12  2  0  0  0  0
  8 21  1  0  0  0  0
  9 26  1  0  0  0  0
 10 27  1  0  0  0  0
 11 27  2  0  0  0  0
 12 28  1  0  0  0  0
 13 14  2  0  0  0  0
 13 29  1  0  0  0  0
 14 30  1  0  0  0  0
 15 24  1  0  0  0  0
 15 26  2  0  0  0  0
 16 25  1  0  0  0  0
 16 28  2  0  0  0  0
 17 30  2  0  0  0  0
 17 31  1  0  0  0  0
 18 32  1  0  0  0  0
 19 32  1  0  0  0  0
 19 33  2  0  0  0  0
 19 34  1  0  0  0  0
 20 23  2  0  0  0  0
 20 39  1  0  0  0  0
 21 25  2  0  0  0  0
 21 40  1  0  0  0  0
 22 24  2  0  0  0  0
 22 53  1  0  0  0  0
 23 55  1  0  0  0  0
 24 54  1  0  0  0  0
 25 41  1  0  0  0  0
 26 63  1  0  0  0  0
 27 82  1  0  0  0  0
 28 83  1  0  0  0  0
 29 31  2  0  0  0  0
 29 82  1  0  0  0  0
 30 84  1  0  0  0  0
 31 85  1  0  0  0  0
 32 67  2  0  0  0  0
 33 68  1  0  0  0  0
 33 72  1  0  0  0  0
 34 73  1  0  0  0  0
 34 77  2  0  0  0  0
 35 56  1  0  0  0  0
 35 74  1  0  0  0  0
 35 78  2  0  0  0  0
 36 64  1  0  0  0  0
 36 69  1  0  0  0  0
 36 79  2  0  0  0  0
 37 65  1  0  0  0  0
 37 75  1  0  0  0  0
 37 80  2  0  0  0  0
 38 70  1  0  0  0  0
 38 71  1  0  0  0  0
 38 81  2  0  0  0  0
 39 42  1  0  0  0  0
 40 56  1  0  0  0  0
 41 69  1  0  0  0  0
 42 46  1  0  0  0  0
 43 47  1  0  0  0  0
 43 49  1  0  0  0  0
 44 45  1  0  0  0  0
 44 54  1  0  0  0  0
 45 54  1  0  0  0  0
 46 55  1  0  0  0  0
 47 57  1  0  0  0  0
 48 50  1  0  0  0  0
 48 53  1  0  0  0  0
 49 70  1  0  0  0  0
 50 71  1  0  0  0  0
 51 53  1  0  0  0  0
 51 71  1  0  0  0  0
 52 57  1  0  0  0  0
 52 70  1  0  0  0  0
 55 74  1  0  0  0  0
 56 69  1  0  0  0  0
 57 68  1  0  0  0  0
 58 65  1  0  0  0  0
 59 66  1  0  0  0  0
 60 66  1  0  0  0  0
 61 66  1  0  0  0  0
 62 76  1  0  0  0  0
 63 83  1  0  0  0  0
 64 66  1  0  0  0  0
 64 75  1  0  0  0  0
 65 76  1  0  0  0  0
 67 68  1  0  0  0  0
M  CHG  1  76   1
M  ISO  4  38 100  63 101  71 100  83 101
M  END
> <Batch ID>
0136

> <Smiles>
CNC(C)C(=O)NC(C(=O)N1Cc2cc([101O:1][101CH2:1]c3ccc(C4CC[100N:0]([100C:0](=O)N5CCCC(n6nc(-c7ccc(Oc8ccc(F)cc8F)cc7)c(C(N)=O)c6N)C5)C4)c(C4CC4)c3)ccc2CC1C(=O)NC1CCCc2ccccc21)C(C)(C)C

> <Shape>
0.248

> <Color>
0.102

> <Negative vol penalty>
0.000

$$$$

  -OEChem-04052321023D

 86 95  0     1  0  0  0  0  0999 V2000
  -32.1990  -26.2545   22.9215 C   0  0  0  0  0  0  0  0  0  0  0  0
  -31.2675  -25.3247   22.4707 C   0  0  0  0  0  0  0  0  0  0  0  0
  -32.3897  -19.4052   20.6864 C   0  0  0  0  0  0  0  0  0  0  0  0
  -23.4543  -10.5092   22.7777 C   0  0  0  0  0  0  0  0  0  0  0  0
  -24.1766  -12.2232   24.3195 C   0  0  0  0  0  0  0  0  0  0  0  0
  -31.8392  -27.1831   23.8973 C   0  0  0  0  0  0  0  0  0  0  0  0
  -29.9759  -25.3223   22.9963 C   0  0  0  0  0  0  0  0  0  0  0  0
  -33.1460  -18.2339   20.7283 C   0  0  0  0  0  0  0  0  0  0  0  0
  -26.4231  -24.8565   19.4177 C   0  0  0  0  0  0  0  0  0  0  0  0
  -30.9972  -19.3352   20.6441 C   0  0  0  0  0  0  0  0  0  0  0  0
  -22.8292   -9.8312   23.8242 C   0  0  0  0  0  0  0  0  0  0  0  0
  -23.5515  -11.5453   25.3660 C   0  0  0  0  0  0  0  0  0  0  0  0
  -26.2063  -23.5812   18.8980 C   0  0  0  0  0  0  0  0  0  0  0  0
  -19.9578  -10.0826   25.5920 C   0  0  0  0  0  0  0  0  0  0  0  0
  -18.6697   -9.5955   25.3709 C   0  0  0  0  0  0  0  0  0  0  0  0
  -24.2766  -23.3346   20.3244 C   0  0  0  0  0  0  0  0  0  0  0  0
  -19.4446   -7.3488   25.8058 C   0  0  0  0  0  0  0  0  0  0  0  0
  -24.1281  -11.7052   23.0253 C   0  0  0  0  0  0  0  0  0  0  0  0
  -24.2107  -13.3917   21.1131 C   0  0  0  0  0  0  0  0  0  0  0  0
  -30.5397  -27.1983   24.4281 C   0  0  0  0  0  0  0  0  0  0  0  0
  -25.5733  -25.3771   20.4043 C   0  0  0  0  0  0  0  0  0  0  0  0
  -29.5988  -26.2511   23.9810 C   0  0  0  0  0  0  0  0  0  0  0  0
  -32.5097  -16.9926   20.7278 C   0  0  0  0  0  0  0  0  0  0  0  0
  -24.4833  -24.6178   20.8532 C   0  0  0  0  0  0  0  0  0  0  0  0
  -30.3610  -18.0939   20.6435 C   0  0  0  0  0  0  0  0  0  0  0  0
  -31.1172  -16.9225   20.6854 C   0  0  0  0  0  0  0  0  0  0  0  0
  -22.8778  -10.3492   25.1184 C   0  0  0  0  0  0  0  0  0  0  0  0
  -25.1346  -22.8188   19.3534 C   0  0  0  0  0  0  0  0  0  0  0  0
  -20.9895   -9.2028   25.9198 C   0  0  0  0  0  0  0  0  0  0  0  0
  -18.4130   -8.2286   25.4778 C   0  0  0  0  0  0  0  0  0  0  0  0
  -20.7328   -7.8360   26.0268 C   0  0  0  0  0  0  0  0  0  0  0  0
  -24.7745  -12.4057   21.9448 C   0  0  0  0  0  0  0  0  0  0  0  0
  -25.2252  -13.7377   20.2544 C   0  0  0  0  0  0  0  0  0  0  0  0
  -22.8881  -13.9453   21.1166 C   0  0  0  0  0  0  0  0  0  0  0  0
  -25.9484  -26.3277   23.4141 C   0  0  0  0  0  0  0  0  0  0  0  0
  -22.8553  -27.2525   23.0974 C   0  0  0  0  0  0  0  0  0  0  0  0
  -19.8671  -26.8712   21.4937 C   0  0  0  0  0  0  0  0  0  0  0  0
  -30.9543  -14.4646   20.1578 C   0  0  0  0  0  0  0  0  0  0  0  0
  -30.2112  -28.1907   25.5153 C   0  0  0  0  0  0  0  0  0  0  0  0
  -25.8051  -26.7651   20.9354 C   0  0  0  0  0  0  0  0  0  0  0  0
  -23.5299  -25.1388   21.8962 C   0  0  0  0  0  0  0  0  0  0  0  0
  -28.7128  -28.3627   25.7505 C   0  0  0  0  0  0  0  0  0  0  0  0
  -29.4165  -11.5735   18.7601 C   0  0  0  0  0  0  0  0  0  0  0  0
  -33.0997  -14.7489   21.8643 C   0  0  0  0  0  0  0  0  0  0  0  0
  -34.3402  -15.5860   21.8893 C   0  0  0  0  0  0  0  0  0  0  0  0
  -28.0247  -27.0034   25.8255 C   0  0  0  0  0  0  0  0  0  0  0  0
  -28.0072  -11.5883   19.3566 C   0  0  0  0  0  0  0  0  0  0  0  0
  -30.4615  -12.0614   19.7619 C   0  0  0  0  0  0  0  0  0  0  0  0
  -28.7664  -13.3815   20.9674 C   0  0  0  0  0  0  0  0  0  0  0  0
  -33.3456  -15.7550   20.7726 C   0  0  0  0  0  0  0  0  0  0  0  0
  -28.1807  -26.2327   24.5090 C   0  0  1  0  0  0  0  0  0  0  0  0
  -25.1787  -26.9920   22.3078 C   0  0  1  0  0  0  0  0  0  0  0  0
  -27.6711  -12.9597   19.9744 C   0  0  2  0  0  0  0  0  0  0  0  0
  -17.5134  -27.7415   21.4805 C   0  0  0  0  0  0  0  0  0  0  0  0
  -22.2438  -25.6295   25.6078 C   0  0  0  0  0  0  0  0  0  0  0  0
  -19.8160  -25.7460   25.0073 C   0  0  0  0  0  0  0  0  0  0  0  0
  -21.0823  -27.8410   25.4866 C   0  0  0  0  0  0  0  0  0  0  0  0
  -20.1178  -27.8404   18.7086 C   0  0  0  0  0  0  0  0  0  0  0  0
  -28.8544  -18.0517   20.5968 C   0  0  0  0  0  0  0  0  0  0  0  0
  -28.2842  -17.7618   19.2022 C   0  0  0  0  0  0  0  0  0  0  0  0
  -26.7617  -17.7668   19.1033 C   0  0  0  0  0  0  0  0  0  0  0  0
  -24.7419  -19.2209   19.3135 C   0  0  0  0  0  0  0  0  0  0  0  0
  -24.3092  -20.6177   19.7135 C   0  0  0  0  0  0  0  0  0  1  0  0
  -21.5148  -26.5978   23.3281 C   0  0  1  0  0  0  0  0  0  0  0  0
  -18.9092  -27.8848   20.8941 C   0  0  2  0  0  0  0  0  0  0  0  0
  -21.1831  -26.4427   24.8392 C   0  0  0  0  0  0  0  0  0  0  0  0
  -26.0484  -12.1422   21.6417 N   0  0  0  0  0  0  0  0  0  0  0  0
  -26.2933  -12.9677   20.6099 N   0  0  0  0  0  0  0  0  0  0  0  0
  -23.8023  -26.4990   22.3894 N   0  0  0  0  0  0  0  0  0  0  0  0
  -30.0787  -13.3677   20.3022 N   0  0  0  0  0  0  0  0  0  0  0  0
  -25.2989  -14.6225   19.2375 N   0  0  0  0  0  0  0  0  0  0  0  0
  -21.9701  -13.4768   22.0663 N   0  0  0  0  0  0  0  0  0  0  0  0
  -30.4693  -15.6624   20.6819 N   0  0  0  0  0  0  0  0  0  0  0  0
  -27.2627  -26.7426   23.5130 N   0  0  0  0  0  0  0  0  0  0  0  0
  -20.5413  -27.3865   22.5806 N   0  0  0  0  0  0  0  0  0  0  0  0
  -18.8197  -27.7025   19.4177 N   0  3  0  0  0  0  0  0  0  0  0  0
  -26.2167  -19.1091   19.4422 N   0  3  0  0  0  0  0  0  0  0  0  0
  -22.5260  -14.8175   20.2910 O   0  0  0  0  0  0  0  0  0  0  0  0
  -25.3906  -25.5010   24.1263 O   0  0  0  0  0  0  0  0  0  0  0  0
  -23.0525  -28.3932   23.5234 O   0  0  0  0  0  0  0  0  0  0  0  0
  -20.0009  -25.7347   21.0453 O   0  0  0  0  0  0  0  0  0  0  0  0
  -32.0418  -14.3559   19.5854 O   0  0  0  0  0  0  0  0  0  0  0  0
  -22.2677   -9.6881   26.1397 O   0  0  0  0  0  0  0  0  0  0  0  0
  -24.9210  -21.5734   18.8483 O   0  0  0  0  0  0  0  0  0  1  0  0
  -17.1756   -7.7611   25.2671 F   0  0  0  0  0  0  0  0  0  0  0  0
  -21.7196   -6.9860   26.3426 F   0  0  0  0  0  0  0  0  0  0  0  0
  1  2  1  0  0  0  0
  1  6  2  0  0  0  0
  2  7  2  0  0  0  0
  3  8  1  0  0  0  0
  3 10  2  0  0  0  0
  4 11  2  0  0  0  0
  4 18  1  0  0  0  0
  5 12  1  0  0  0  0
  5 18  2  0  0  0  0
  6 20  1  0  0  0  0
  7 22  1  0  0  0  0
  8 23  2  0  0  0  0
  9 13  2  0  0  0  0
  9 21  1  0  0  0  0
 10 25  1  0  0  0  0
 11 27  1  0  0  0  0
 12 27  2  0  0  0  0
 13 28  1  0  0  0  0
 14 15  2  0  0  0  0
 14 29  1  0  0  0  0
 15 30  1  0  0  0  0
 16 24  1  0  0  0  0
 16 28  2  0  0  0  0
 17 30  2  0  0  0  0
 17 31  1  0  0  0  0
 18 32  1  0  0  0  0
 19 32  1  0  0  0  0
 19 33  2  0  0  0  0
 19 34  1  0  0  0  0
 20 22  2  0  0  0  0
 20 39  1  0  0  0  0
 21 24  2  0  0  0  0
 21 40  1  0  0  0  0
 22 51  1  0  0  0  0
 23 26  1  0  0  0  0
 23 50  1  0  0  0  0
 24 41  1  0  0  0  0
 25 26  2  0  0  0  0
 25 59  1  0  0  0  0
 26 73  1  0  0  0  0
 27 83  1  0  0  0  0
 28 84  1  0  0  0  0
 29 31  2  0  0  0  0
 29 83  1  0  0  0  0
 30 85  1  0  0  0  0
 31 86  1  0  0  0  0
 32 67  2  0  0  0  0
 33 68  1  0  0  0  0
 33 71  1  0  0  0  0
 34 72  1  0  0  0  0
 34 78  2  0  0  0  0
 35 52  1  0  0  0  0
 35 74  1  0  0  0  0
 35 79  2  0  0  0  0
 36 64  1  0  0  0  0
 36 69  1  0  0  0  0
 36 80  2  0  0  0  0
 37 65  1  0  0  0  0
 37 75  1  0  0  0  0
 37 81  2  0  0  0  0
 38 70  1  0  0  0  0
 38 73  1  0  0  0  0
 38 82  2  0  0  0  0
 39 42  1  0  0  0  0
 40 52  1  0  0  0  0
 41 69  1  0  0  0  0
 42 46  1  0  0  0  0
 43 47  1  0  0  0  0
 43 48  1  0  0  0  0
 44 45  1  0  0  0  0
 44 50  1  0  0  0  0
 45 50  1  0  0  0  0
 46 51  1  0  0  0  0
 47 53  1  0  0  0  0
 48 70  1  0  0  0  0
 49 53  1  0  0  0  0
 49 70  1  0  0  0  0
 51 74  1  0  0  0  0
 52 69  1  0  0  0  0
 53 68  1  0  0  0  0
 54 65  1  0  0  0  0
 55 66  1  0  0  0  0
 56 66  1  0  0  0  0
 57 66  1  0  0  0  0
 58 76  1  0  0  0  0
 59 60  1  0  0  0  0
 60 61  1  0  0  0  0
 61 77  1  0  0  0  0
 62 63  1  0  0  0  0
 62 77  1  0  0  0  0
 63 84  1  0  0  0  0
 64 66  1  0  0  0  0
 64 75  1  0  0  0  0
 65 76  1  0  0  0  0
 67 68  1  0  0  0  0
M  CHG  2  76   1  77   1
M  ISO  4  38 100  63 101  73 100  84 101
M  END
> <Batch ID>
0136

> <Smiles>
CNC(C)C(=O)NC(C(=O)N1Cc2cc([101O:1][101CH2:1]CNCCCc3cccc(C4CC4)c3[100NH:0][100C:0](=O)N3CCCC(n4nc(-c5ccc(Oc6ccc(F)cc6F)cc5)c(C(N)=O)c4N)C3)ccc2CC1C(=O)NC1CCCc2ccccc21)C(C)(C)C

> <Shape>
0.173

> <Color>
0.099

> <Negative vol penalty>
0.000

$$$$

  -OEChem-04052321023D

 86 95  0     1  0  0  0  0  0999 V2000
  -23.6801  -31.7245   21.2668 C   0  0  0  0  0  0  0  0  0  0  0  0
  -24.6692  -30.9663   21.8851 C   0  0  0  0  0  0  0  0  0  0  0  0
  -22.6670  -10.2033   20.1700 C   0  0  0  0  0  0  0  0  0  0  0  0
  -24.3033   -9.4403   21.7754 C   0  0  0  0  0  0  0  0  0  0  0  0
  -22.3433  -31.5456   21.6201 C   0  0  0  0  0  0  0  0  0  0  0  0
  -24.3221  -30.0295   22.8579 C   0  0  0  0  0  0  0  0  0  0  0  0
  -26.7321  -25.6169   22.2535 C   0  0  0  0  0  0  0  0  0  0  0  0
  -21.9264   -9.0386   20.3712 C   0  0  0  0  0  0  0  0  0  0  0  0
  -23.5627   -8.2756   21.9767 C   0  0  0  0  0  0  0  0  0  0  0  0
  -28.0593  -25.5531   22.6759 C   0  0  0  0  0  0  0  0  0  0  0  0
  -20.7974   -7.3478   23.6835 C   0  0  0  0  0  0  0  0  0  0  0  0
  -20.6001   -6.9261   24.9983 C   0  0  0  0  0  0  0  0  0  0  0  0
  -27.3532  -24.4660   24.7103 C   0  0  0  0  0  0  0  0  0  0  0  0
  -29.8214  -17.5608   22.9067 C   0  0  0  0  0  0  0  0  0  0  0  0
  -21.7200   -4.8444   24.4988 C   0  0  0  0  0  0  0  0  0  0  0  0
  -23.8554  -10.4042   20.8720 C   0  0  0  0  0  0  0  0  0  0  0  0
  -24.1983  -12.9320   20.8810 C   0  0  0  0  0  0  0  0  0  0  0  0
  -21.9787  -30.5994   22.5909 C   0  0  0  0  0  0  0  0  0  0  0  0
  -25.7028  -25.1146   23.0625 C   0  0  0  0  0  0  0  0  0  0  0  0
  -22.9793  -29.8388   23.2256 C   0  0  0  0  0  0  0  0  0  0  0  0
  -26.0140  -24.5223   24.2947 C   0  0  0  0  0  0  0  0  0  0  0  0
  -31.5617  -19.2184   23.0000 C   0  0  0  0  0  0  0  0  0  0  0  0
  -30.3057  -18.7700   23.3934 C   0  0  0  0  0  0  0  0  0  0  0  0
  -22.3742   -8.0747   21.2746 C   0  0  0  0  0  0  0  0  0  0  0  0
  -28.3697  -24.9802   23.9058 C   0  0  0  0  0  0  0  0  0  0  0  0
  -21.4559   -6.5177   22.7762 C   0  0  0  0  0  0  0  0  0  0  0  0
  -21.0614   -5.6745   25.4060 C   0  0  0  0  0  0  0  0  0  0  0  0
  -21.9172   -5.2661   23.1839 C   0  0  0  0  0  0  0  0  0  0  0  0
  -24.6212  -11.6069   20.6642 C   0  0  0  0  0  0  0  0  0  0  0  0
  -32.2882  -18.4268   22.1252 C   0  0  0  0  0  0  0  0  0  0  0  0
  -30.6258  -16.8436   22.0359 C   0  0  0  0  0  0  0  0  0  0  0  0
  -25.2845  -13.6995   20.5381 C   0  0  0  0  0  0  0  0  0  0  0  0
  -22.9365  -13.4251   21.3503 C   0  0  0  0  0  0  0  0  0  0  0  0
  -23.1554  -26.3711   24.4893 C   0  0  0  0  0  0  0  0  0  0  0  0
  -22.5172  -23.2740   25.2124 C   0  0  0  0  0  0  0  0  0  0  0  0
  -23.6972  -20.1069   25.6856 C   0  0  0  0  0  0  0  0  0  0  0  0
  -30.7544  -14.7325   20.6672 C   0  0  0  0  0  0  0  0  0  0  0  0
  -20.5252  -30.4750   22.9735 C   0  0  0  0  0  0  0  0  0  0  0  0
  -24.2789  -25.1669   22.5805 C   0  0  0  0  0  0  0  0  0  0  0  0
  -24.9477  -23.9502   25.1915 C   0  0  0  0  0  0  0  0  0  0  0  0
  -20.2056  -29.1973   23.7452 C   0  0  0  0  0  0  0  0  0  0  0  0
  -29.5932  -12.4492   18.1943 C   0  0  0  0  0  0  0  0  0  0  0  0
  -21.2324  -28.9700   24.8501 C   0  0  0  0  0  0  0  0  0  0  0  0
  -28.1614  -12.1356   18.6342 C   0  0  0  0  0  0  0  0  0  0  0  0
  -32.2567  -20.6026   25.0292 C   0  0  0  0  0  0  0  0  0  0  0  0
  -30.5307  -12.6131   19.3893 C   0  0  0  0  0  0  0  0  0  0  0  0
  -28.6506  -13.2632   20.8424 C   0  0  0  0  0  0  0  0  0  0  0  0
  -32.4618  -22.0845   25.2645 C   0  0  0  0  0  0  0  0  0  0  0  0
  -31.2600  -21.7482   23.1597 C   0  0  0  0  0  0  0  0  0  0  0  0
  -32.1133  -20.5269   23.5106 C   0  0  2  0  0  0  0  0  0  0  0  0
  -22.6401  -28.7952   24.2677 C   0  0  1  0  0  0  0  0  0  0  0  0
  -23.2611  -25.0883   23.7142 C   0  0  1  0  0  0  0  0  0  0  0  0
  -27.6559  -13.1536   19.6752 C   0  0  2  0  0  0  0  0  0  0  0  0
  -29.4620  -19.5654   24.3339 C   0  0  0  0  0  0  0  0  0  0  0  0
  -33.6444  -18.8568   21.6688 C   0  0  0  0  0  0  0  0  0  0  0  0
  -22.9421  -17.7956   26.3062 C   0  0  0  0  0  0  0  0  0  0  0  0
  -22.3051  -24.1302   28.1333 C   0  0  0  0  0  0  0  0  0  0  0  0
  -22.5029  -21.7200   28.7816 C   0  0  0  0  0  0  0  0  0  0  0  0
  -20.5712  -22.4837   27.4003 C   0  0  0  0  0  0  0  0  0  0  0  0
  -24.5876  -18.9941   23.0919 C   0  0  0  0  0  0  0  0  0  0  0  0
  -31.8803  -24.0999   23.8699 C   0  0  0  0  0  0  0  0  0  0  0  0
  -30.6660  -24.8141   23.3099 C   0  0  0  0  0  0  0  0  0  1  0  0
  -22.8679  -22.3481   26.3519 C   0  0  1  0  0  0  0  0  0  0  0  0
  -23.2153  -18.7644   25.1662 C   0  0  2  0  0  0  0  0  0  0  0  0
  -22.0819  -22.6829   27.6510 C   0  0  0  0  0  0  0  0  0  0  0  0
  -25.8780  -11.5332   20.2180 N   0  0  0  0  0  0  0  0  0  0  0  0
  -31.8511  -17.2468   21.6312 N   0  0  0  0  0  0  0  0  0  0  0  0
  -26.2541  -12.8216   20.1516 N   0  0  0  0  0  0  0  0  0  0  0  0
  -23.5700  -24.0308   24.6788 N   0  0  0  0  0  0  0  0  0  0  0  0
  -29.9894  -13.5957   20.3308 N   0  0  0  0  0  0  0  0  0  0  0  0
  -25.4953  -15.0329   20.5326 N   0  0  0  0  0  0  0  0  0  0  0  0
  -22.7570  -13.5953   22.7299 N   0  0  0  0  0  0  0  0  0  0  0  0
  -30.1235  -15.6126   21.5458 N   0  0  0  0  0  0  0  0  0  0  0  0
  -22.7998  -27.4642   23.7224 N   0  0  0  0  0  0  0  0  0  0  0  0
  -22.6542  -20.9924   25.8569 N   0  0  0  0  0  0  0  0  0  0  0  0
  -31.4875  -22.7243   24.3025 N   0  3  2  0  0  0  0  0  0  0  0  0
  -24.2397  -18.1580   24.2695 N   0  3  0  0  0  0  0  0  0  0  0  0
  -21.9903  -13.6908   20.5707 O   0  0  0  0  0  0  0  0  0  0  0  0
  -23.3784  -26.3691   25.6943 O   0  0  0  0  0  0  0  0  0  0  0  0
  -21.3534  -23.3187   24.8057 O   0  0  0  0  0  0  0  0  0  0  0  0
  -24.8800  -20.3450   25.9198 O   0  0  0  0  0  0  0  0  0  0  0  0
  -31.8749  -14.9257   20.1885 O   0  0  0  0  0  0  0  0  0  0  0  0
  -21.6517   -6.9381   21.4714 O   0  0  0  0  0  0  0  0  0  0  0  0
  -29.6642  -24.9173   24.3208 O   0  0  0  0  0  0  0  0  0  1  0  0
  -20.8733   -5.2704   26.6691 F   0  0  0  0  0  0  0  0  0  0  0  0
  -22.5516   -4.4648   22.3171 F   0  0  0  0  0  0  0  0  0  0  0  0
  1  2  1  0  0  0  0
  1  5  2  0  0  0  0
  2  6  2  0  0  0  0
  3  8  2  0  0  0  0
  3 16  1  0  0  0  0
  4  9  1  0  0  0  0
  4 16  2  0  0  0  0
  5 18  1  0  0  0  0
  6 20  1  0  0  0  0
  7 10  2  0  0  0  0
  7 19  1  0  0  0  0
  8 24  1  0  0  0  0
  9 24  2  0  0  0  0
 10 25  1  0  0  0  0
 11 12  2  0  0  0  0
 11 26  1  0  0  0  0
 12 27  1  0  0  0  0
 13 21  1  0  0  0  0
 13 25  2  0  0  0  0
 14 23  2  0  0  0  0
 14 31  1  0  0  0  0
 15 27  2  0  0  0  0
 15 28  1  0  0  0  0
 16 29  1  0  0  0  0
 17 29  1  0  0  0  0
 17 32  2  0  0  0  0
 17 33  1  0  0  0  0
 18 20  2  0  0  0  0
 18 38  1  0  0  0  0
 19 21  2  0  0  0  0
 19 39  1  0  0  0  0
 20 51  1  0  0  0  0
 21 40  1  0  0  0  0
 22 23  1  0  0  0  0
 22 30  2  0  0  0  0
 22 50  1  0  0  0  0
 23 54  1  0  0  0  0
 24 83  1  0  0  0  0
 25 84  1  0  0  0  0
 26 28  2  0  0  0  0
 26 83  1  0  0  0  0
 27 85  1  0  0  0  0
 28 86  1  0  0  0  0
 29 66  2  0  0  0  0
 30 55  1  0  0  0  0
 30 67  1  0  0  0  0
 31 67  2  0  0  0  0
 31 73  1  0  0  0  0
 32 68  1  0  0  0  0
 32 71  1  0  0  0  0
 33 72  1  0  0  0  0
 33 78  2  0  0  0  0
 34 52  1  0  0  0  0
 34 74  1  0  0  0  0
 34 79  2  0  0  0  0
 35 63  1  0  0  0  0
 35 69  1  0  0  0  0
 35 80  2  0  0  0  0
 36 64  1  0  0  0  0
 36 75  1  0  0  0  0
 36 81  2  0  0  0  0
 37 70  1  0  0  0  0
 37 73  1  0  0  0  0
 37 82  2  0  0  0  0
 38 41  1  0  0  0  0
 39 52  1  0  0  0  0
 40 69  1  0  0  0  0
 41 43  1  0  0  0  0
 42 44  1  0  0  0  0
 42 46  1  0  0  0  0
 43 51  1  0  0  0  0
 44 53  1  0  0  0  0
 45 48  1  0  0  0  0
 45 50  1  0  0  0  0
 46 70  1  0  0  0  0
 47 53  1  0  0  0  0
 47 70  1  0  0  0  0
 48 76  1  0  0  0  0
 49 50  1  0  0  0  0
 49 76  1  0  0  0  0
 51 74  1  0  0  0  0
 52 69  1  0  0  0  0
 53 68  1  0  0  0  0
 56 64  1  0  0  0  0
 57 65  1  0  0  0  0
 58 65  1  0  0  0  0
 59 65  1  0  0  0  0
 60 77  1  0  0  0  0
 61 62  1  0  0  0  0
 61 76  1  0  0  0  0
 62 84  1  0  0  0  0
 63 65  1  0  0  0  0
 63 75  1  0  0  0  0
 64 77  1  0  0  0  0
 66 68  1  0  0  0  0
M  CHG  2  76   1  77   1
M  ISO  4  37 100  62 101  73 100  84 101
M  END
> <Batch ID>
0136

> <Smiles>
CNC(C)C(=O)NC(C(=O)N1Cc2cc([101O:1][101CH2:1]CN3CCC(c4c(C)cc([100NH:0][100C:0](=O)N5CCCC(n6nc(-c7ccc(Oc8ccc(F)cc8F)cc7)c(C(N)=O)c6N)C5)nc4C)C3)ccc2CC1C(=O)NC1CCCc2ccccc21)C(C)(C)C

> <Shape>
0.239

> <Color>
0.172

> <Negative vol penalty>
0.000

$$$$

  -OEChem-04052321023D

 86 95  0     1  0  0  0  0  0999 V2000
  -27.9819  -33.2741   21.6318 C   0  0  0  0  0  0  0  0  0  0  0  0
  -28.0690  -31.8860   21.5993 C   0  0  0  0  0  0  0  0  0  0  0  0
  -31.6831  -25.1700   21.5812 C   0  0  0  0  0  0  0  0  0  0  0  0
  -24.7949  -14.0703   19.1959 C   0  0  0  0  0  0  0  0  0  0  0  0
  -25.6725  -13.3869   21.3406 C   0  0  0  0  0  0  0  0  0  0  0  0
  -26.8579  -33.8882   22.1826 C   0  0  0  0  0  0  0  0  0  0  0  0
  -27.0325  -31.1112   22.1186 C   0  0  0  0  0  0  0  0  0  0  0  0
  -31.1838  -24.5285   22.7147 C   0  0  0  0  0  0  0  0  0  0  0  0
  -25.7913  -27.2460   19.0912 C   0  0  0  0  0  0  0  0  0  0  0  0
  -31.1193  -24.9161   20.3308 C   0  0  0  0  0  0  0  0  0  0  0  0
  -24.4306  -12.7515   18.9247 C   0  0  0  0  0  0  0  0  0  0  0  0
  -25.3082  -12.0680   21.0694 C   0  0  0  0  0  0  0  0  0  0  0  0
  -26.6258  -26.1293   19.1098 C   0  0  0  0  0  0  0  0  0  0  0  0
  -24.2836   -8.5798   21.0941 C   0  0  0  0  0  0  0  0  0  0  0  0
  -23.6515   -7.8593   22.1075 C   0  0  0  0  0  0  0  0  0  0  0  0
  -25.0729  -25.0008   20.5708 C   0  0  0  0  0  0  0  0  0  0  0  0
  -21.8586   -9.4784   22.1401 C   0  0  0  0  0  0  0  0  0  0  0  0
  -25.4159  -14.3881   20.4039 C   0  0  0  0  0  0  0  0  0  0  0  0
  -25.0118  -16.7351   21.3181 C   0  0  0  0  0  0  0  0  0  0  0  0
  -25.8028  -33.1205   22.7002 C   0  0  0  0  0  0  0  0  0  0  0  0
  -24.5947  -27.2527   19.8222 C   0  0  0  0  0  0  0  0  0  0  0  0
  -25.8939  -31.7156   22.6781 C   0  0  0  0  0  0  0  0  0  0  0  0
  -30.1208  -23.6330   22.5978 C   0  0  0  0  0  0  0  0  0  0  0  0
  -24.2238  -26.1180   20.5577 C   0  0  0  0  0  0  0  0  0  0  0  0
  -29.5570  -23.3790   21.3474 C   0  0  0  0  0  0  0  0  0  0  0  0
  -24.6872  -11.7504   19.8614 C   0  0  0  0  0  0  0  0  0  0  0  0
  -26.2680  -25.0075   19.8520 C   0  0  0  0  0  0  0  0  0  0  0  0
  -30.0563  -24.0205   20.2140 C   0  0  0  0  0  0  0  0  0  0  0  0
  -23.7033   -9.7496   20.6038 C   0  0  0  0  0  0  0  0  0  0  0  0
  -22.4390   -8.3086   22.6305 C   0  0  0  0  0  0  0  0  0  0  0  0
  -22.4907  -10.1989   21.1268 C   0  0  0  0  0  0  0  0  0  0  0  0
  -25.7929  -15.7501   20.6844 C   0  0  0  0  0  0  0  0  0  0  0  0
  -25.8170  -17.8476   21.3441 C   0  0  0  0  0  0  0  0  0  0  0  0
  -23.6778  -16.6518   21.8369 C   0  0  0  0  0  0  0  0  0  0  0  0
  -23.4412  -28.9901   22.2211 C   0  0  0  0  0  0  0  0  0  0  0  0
  -20.7469  -27.2755   21.6529 C   0  0  0  0  0  0  0  0  0  0  0  0
  -19.3311  -24.4346   20.3993 C   0  0  0  0  0  0  0  0  0  0  0  0
  -30.7794  -20.2441   22.2249 C   0  0  0  0  0  0  0  0  0  0  0  0
  -24.6292  -33.8295   23.3283 C   0  0  0  0  0  0  0  0  0  0  0  0
  -23.6926  -28.4551   19.7703 C   0  0  0  0  0  0  0  0  0  0  0  0
  -22.9398  -26.0670   21.3434 C   0  0  0  0  0  0  0  0  0  0  0  0
  -23.4072  -32.9345   23.5180 C   0  0  0  0  0  0  0  0  0  0  0  0
  -30.2150  -18.7834   19.0273 C   0  0  0  0  0  0  0  0  0  0  0  0
  -23.8143  -31.5978   24.1297 C   0  0  0  0  0  0  0  0  0  0  0  0
  -28.9541  -17.9409   19.2275 C   0  0  0  0  0  0  0  0  0  0  0  0
  -31.1087  -18.7647   20.2655 C   0  0  0  0  0  0  0  0  0  0  0  0
  -29.1744  -18.3034   21.7212 C   0  0  0  0  0  0  0  0  0  0  0  0
  -29.7543  -23.7882   25.1104 C   0  0  0  0  0  0  0  0  0  0  0  0
  -29.8255  -21.3998   25.6354 C   0  0  0  0  0  0  0  0  0  0  0  0
  -29.5989  -22.9519   23.8405 C   0  0  2  0  0  0  0  0  0  0  0  0
  -24.7791  -30.8407   23.2090 C   0  0  1  0  0  0  0  0  0  0  0  0
  -22.7477  -28.5453   20.9646 C   0  0  1  0  0  0  0  0  0  0  0  0
  -28.2145  -18.3367   20.5196 C   0  0  2  0  0  0  0  0  0  0  0  0
  -30.3095  -21.6473   24.2173 C   0  0  2  0  0  0  0  0  0  0  0  0
  -17.1105  -23.3012   20.1127 C   0  0  0  0  0  0  0  0  0  0  0  0
  -20.7514  -26.5242   24.6102 C   0  0  0  0  0  0  0  0  0  0  0  0
  -19.1345  -24.6892   24.0749 C   0  0  0  0  0  0  0  0  0  0  0  0
  -18.4963  -27.0674   23.6753 C   0  0  0  0  0  0  0  0  0  0  0  0
  -19.5821  -24.4324   17.4504 C   0  0  0  0  0  0  0  0  0  0  0  0
  -30.0928  -24.4840   17.8817 C   0  0  0  0  0  0  0  0  0  0  0  0
  -28.4077  -22.4095   21.2145 C   0  0  0  0  0  0  0  0  0  0  0  0
  -27.0670  -23.1181   21.0551 C   0  0  0  0  0  0  0  0  0  1  0  0
  -20.1879  -25.9654   22.1533 C   0  0  1  0  0  0  0  0  0  0  0  0
  -18.1416  -24.2229   19.4801 C   0  0  2  0  0  0  0  0  0  0  0  0
  -19.6677  -26.0629   23.6153 C   0  0  0  0  0  0  0  0  0  0  0  0
  -27.0014  -16.1975   20.3330 N   0  0  0  0  0  0  0  0  0  0  0  0
  -26.9857  -17.4759   20.7473 N   0  0  0  0  0  0  0  0  0  0  0  0
  -22.0945  -27.2698   21.2660 N   0  0  0  0  0  0  0  0  0  0  0  0
  -30.3473  -19.1511   21.4558 N   0  0  0  0  0  0  0  0  0  0  0  0
  -25.6321  -19.0977   21.8189 N   0  0  0  0  0  0  0  0  0  0  0  0
  -22.9934  -15.4337   21.7280 N   0  0  0  0  0  0  0  0  0  0  0  0
  -24.0564  -30.2231   22.1178 N   0  0  0  0  0  0  0  0  0  0  0  0
  -19.1760  -25.5570   21.1850 N   0  0  0  0  0  0  0  0  0  0  0  0
  -29.9971  -20.5470   23.3326 N   0  0  0  0  0  0  0  0  0  0  0  0
  -29.7264  -22.7784   26.2257 N   0  3  0  0  0  0  0  0  0  0  0  0
  -18.5838  -23.6191   18.1914 N   0  3  0  0  0  0  0  0  0  0  0  0
  -23.1036  -17.6335   22.3663 O   0  0  0  0  0  0  0  0  0  0  0  0
  -23.4186  -28.2687   23.2115 O   0  0  0  0  0  0  0  0  0  0  0  0
  -20.0128  -28.2654   21.6003 O   0  0  0  0  0  0  0  0  0  0  0  0
  -20.2991  -23.6777   20.4209 O   0  0  0  0  0  0  0  0  0  0  0  0
  -31.7846  -20.9048   21.9421 O   0  0  0  0  0  0  0  0  0  0  0  0
  -24.3317  -10.4634   19.5972 O   0  0  0  0  0  0  0  0  0  0  0  0
  -29.5195  -23.7842   18.9842 O   0  0  0  0  0  0  0  0  0  0  0  0
  -27.0810  -23.9164   19.8724 O   0  0  0  0  0  0  0  0  0  1  0  0
  -21.8313   -7.6158   23.6025 F   0  0  0  0  0  0  0  0  0  0  0  0
  -21.9277  -11.3214   20.6590 F   0  0  0  0  0  0  0  0  0  0  0  0
  1  2  1  0  0  0  0
  1  6  2  0  0  0  0
  2  7  2  0  0  0  0
  3  8  2  0  0  0  0
  3 10  1  0  0  0  0
  4 11  2  0  0  0  0
  4 18  1  0  0  0  0
  5 12  1  0  0  0  0
  5 18  2  0  0  0  0
  6 20  1  0  0  0  0
  7 22  1  0  0  0  0
  8 23  1  0  0  0  0
  9 13  2  0  0  0  0
  9 21  1  0  0  0  0
 10 28  2  0  0  0  0
 11 26  1  0  0  0  0
 12 26  2  0  0  0  0
 13 27  1  0  0  0  0
 14 15  2  0  0  0  0
 14 29  1  0  0  0  0
 15 30  1  0  0  0  0
 16 24  1  0  0  0  0
 16 27  2  0  0  0  0
 17 30  2  0  0  0  0
 17 31  1  0  0  0  0
 18 32  1  0  0  0  0
 19 32  1  0  0  0  0
 19 33  2  0  0  0  0
 19 34  1  0  0  0  0
 20 22  2  0  0  0  0
 20 39  1  0  0  0  0
 21 24  2  0  0  0  0
 21 40  1  0  0  0  0
 22 51  1  0  0  0  0
 23 25  2  0  0  0  0
 23 50  1  0  0  0  0
 24 41  1  0  0  0  0
 25 28  1  0  0  0  0
 25 61  1  0  0  0  0
 26 82  1  0  0  0  0
 27 84  1  0  0  0  0
 28 83  1  0  0  0  0
 29 31  2  0  0  0  0
 29 82  1  0  0  0  0
 30 85  1  0  0  0  0
 31 86  1  0  0  0  0
 32 66  2  0  0  0  0
 33 67  1  0  0  0  0
 33 70  1  0  0  0  0
 34 71  1  0  0  0  0
 34 77  2  0  0  0  0
 35 52  1  0  0  0  0
 35 72  1  0  0  0  0
 35 78  2  0  0  0  0
 36 63  1  0  0  0  0
 36 68  1  0  0  0  0
 36 79  2  0  0  0  0
 37 64  1  0  0  0  0
 37 73  1  0  0  0  0
 37 80  2  0  0  0  0
 38 69  1  0  0  0  0
 38 74  1  0  0  0  0
 38 81  2  0  0  0  0
 39 42  1  0  0  0  0
 40 52  1  0  0  0  0
 41 68  1  0  0  0  0
 42 44  1  0  0  0  0
 43 45  1  0  0  0  0
 43 46  1  0  0  0  0
 44 51  1  0  0  0  0
 45 53  1  0  0  0  0
 46 69  1  0  0  0  0
 47 53  1  0  0  0  0
 47 69  1  0  0  0  0
 48 50  1  0  0  0  0
 48 75  1  0  0  0  0
 49 54  1  0  0  0  0
 49 75  1  0  0  0  0
 50 54  1  0  0  0  0
 51 72  1  0  0  0  0
 52 68  1  0  0  0  0
 53 67  1  0  0  0  0
 54 74  1  0  0  0  0
 55 64  1  0  0  0  0
 56 65  1  0  0  0  0
 57 65  1  0  0  0  0
 58 65  1  0  0  0  0
 59 76  1  0  0  0  0
 60 83  1  0  0  0  0
 61 62  1  0  0  0  0
 62 84  1  0  0  0  0
 63 65  1  0  0  0  0
 63 73  1  0  0  0  0
 64 76  1  0  0  0  0
 66 67  1  0  0  0  0
M  CHG  2  75   1  76   1
M  ISO  4  38 100  62 101  74 100  84 101
M  END
> <Batch ID>
0136

> <Smiles>
CNC(C)C(=O)NC(C(=O)N1Cc2cc([101O:1][101CH2:1]Cc3c(OC)cccc3C3CNCC3[100NH:0][100C:0](=O)N3CCCC(n4nc(-c5ccc(Oc6ccc(F)cc6F)cc5)c(C(N)=O)c4N)C3)ccc2CC1C(=O)NC1CCCc2ccccc21)C(C)(C)C

> <Shape>
0.257

> <Color>
0.047

> <Negative vol penalty>
0.000

$$$$

  -OEChem-04052321023D

 81 90  0     1  0  0  0  0  0999 V2000
  -22.9861   -7.8612   22.1733 C   0  0  0  0  0  0  0  0  0  0  0  0
  -24.0293   -8.7777   22.2571 C   0  0  0  0  0  0  0  0  0  0  0  0
  -24.0252  -30.9080   23.0973 C   0  0  0  0  0  0  0  0  0  0  0  0
  -23.9969  -28.6821   24.0362 C   0  0  0  0  0  0  0  0  0  0  0  0
  -21.9428   -8.0747   21.2733 C   0  0  0  0  0  0  0  0  0  0  0  0
  -24.0305   -9.9078   21.4402 C   0  0  0  0  0  0  0  0  0  0  0  0
  -30.3841  -21.8837   19.5181 C   0  0  0  0  0  0  0  0  0  0  0  0
  -29.4311  -21.6857   21.7294 C   0  0  0  0  0  0  0  0  0  0  0  0
  -26.1311  -15.4805   22.8680 C   0  0  0  0  0  0  0  0  0  0  0  0
  -30.4280  -23.2705   19.6612 C   0  0  0  0  0  0  0  0  0  0  0  0
  -29.4751  -23.0725   21.8725 C   0  0  0  0  0  0  0  0  0  0  0  0
  -22.6305  -30.9238   23.0924 C   0  0  0  0  0  0  0  0  0  0  0  0
  -22.6021  -28.6978   24.0313 C   0  0  0  0  0  0  0  0  0  0  0  0
  -27.3347  -16.1281   22.5928 C   0  0  0  0  0  0  0  0  0  0  0  0
  -19.0348  -28.0092   23.9318 C   0  0  0  0  0  0  0  0  0  0  0  0
  -18.3752  -26.8718   23.4661 C   0  0  0  0  0  0  0  0  0  0  0  0
  -26.3156  -17.1996   20.6870 C   0  0  0  0  0  0  0  0  0  0  0  0
  -19.4526  -27.1263   21.3187 C   0  0  0  0  0  0  0  0  0  0  0  0
  -24.7084  -29.7872   23.5691 C   0  0  0  0  0  0  0  0  0  0  0  0
  -27.0010  -30.1963   24.6106 C   0  0  0  0  0  0  0  0  0  0  0  0
  -29.8856  -21.0913   20.5522 C   0  0  0  0  0  0  0  0  0  0  0  0
  -21.9263   -9.2129   20.4518 C   0  0  0  0  0  0  0  0  0  0  0  0
  -25.0119  -15.6795   22.0469 C   0  0  0  0  0  0  0  0  0  0  0  0
  -22.9867  -10.1360   20.5275 C   0  0  0  0  0  0  0  0  0  0  0  0
  -25.0982  -16.5553   20.9553 C   0  0  0  0  0  0  0  0  0  0  0  0
  -29.9736  -23.8649   20.8384 C   0  0  0  0  0  0  0  0  0  0  0  0
  -21.9189  -29.8187   23.5594 C   0  0  0  0  0  0  0  0  0  0  0  0
  -27.4279  -16.9855   21.5005 C   0  0  0  0  0  0  0  0  0  0  0  0
  -19.9032  -28.7052   23.0909 C   0  0  0  0  0  0  0  0  0  0  0  0
  -18.5841  -26.4303   22.1595 C   0  0  0  0  0  0  0  0  0  0  0  0
  -20.1122  -28.2637   21.7844 C   0  0  0  0  0  0  0  0  0  0  0  0
  -26.1492  -29.7701   23.5739 C   0  0  0  0  0  0  0  0  0  0  0  0
  -28.2674  -29.9753   24.1271 C   0  0  0  0  0  0  0  0  0  0  0  0
  -26.6764  -30.7429   25.8957 C   0  0  0  0  0  0  0  0  0  0  0  0
  -23.2220  -13.8092   20.2024 C   0  0  0  0  0  0  0  0  0  0  0  0
  -21.4233  -16.4913   19.8973 C   0  0  0  0  0  0  0  0  0  0  0  0
  -21.2554  -19.8974   20.0275 C   0  0  0  0  0  0  0  0  0  0  0  0
  -30.4822  -26.2046   20.0550 C   0  0  0  0  0  0  0  0  0  0  0  0
  -20.8011   -9.3767   19.4609 C   0  0  0  0  0  0  0  0  0  0  0  0
  -23.7132  -14.9942   22.3728 C   0  0  0  0  0  0  0  0  0  0  0  0
  -23.9200  -16.8187   20.0548 C   0  0  0  0  0  0  0  0  0  0  0  0
  -20.6874  -10.7905   18.8966 C   0  0  0  0  0  0  0  0  0  0  0  0
  -30.7232  -29.7568   20.0215 C   0  0  0  0  0  0  0  0  0  0  0  0
  -22.0588  -11.3094   18.4761 C   0  0  0  0  0  0  0  0  0  0  0  0
  -29.6593  -30.2018   21.0276 C   0  0  0  0  0  0  0  0  0  0  0  0
  -30.2719  -28.5361   19.2215 C   0  0  0  0  0  0  0  0  0  0  0  0
  -28.7572  -27.8411   21.0359 C   0  0  0  0  0  0  0  0  0  0  0  0
  -29.8387  -19.6168   20.4000 C   0  0  2  0  0  0  0  0  0  0  0  0
  -23.0110  -11.3866   19.6756 C   0  0  1  0  0  0  0  0  0  0  0  0
  -22.7835  -14.8723   21.1694 C   0  0  1  0  0  0  0  0  0  0  0  0
  -29.1045  -19.0202   19.2171 C   0  0  2  0  0  0  0  0  0  0  0  0
  -29.1926  -29.0280   21.9107 C   0  0  2  0  0  0  0  0  0  0  0  0
  -28.5203  -18.8947   20.5962 C   0  0  1  0  0  0  0  0  0  1  0  0
  -29.6733  -17.8432   18.5002 C   0  0  0  0  0  0  0  0  0  0  0  0
  -19.6599  -21.8053   19.6927 C   0  0  0  0  0  0  0  0  0  0  0  0
  -21.6592  -16.1548   16.8738 C   0  0  0  0  0  0  0  0  0  0  0  0
  -20.8985  -18.5266   16.6206 C   0  0  0  0  0  0  0  0  0  0  0  0
  -19.3910  -16.8408   17.6733 C   0  0  0  0  0  0  0  0  0  0  0  0
  -21.5487  -20.7874   22.8348 C   0  0  0  0  0  0  0  0  0  0  0  0
  -21.4098  -17.6676   18.9512 C   0  0  1  0  0  0  0  0  0  0  0  0
  -20.2623  -20.8322   20.6942 C   0  0  2  0  0  0  0  0  0  0  0  0
  -20.8626  -17.2912   17.5454 C   0  0  0  0  0  0  0  0  0  0  0  0
  -26.8181  -29.3131   22.5120 N   0  0  0  0  0  0  0  0  0  0  0  0
  -28.1036  -29.4510   22.8787 N   0  0  0  0  0  0  0  0  0  0  0  0
  -22.6739  -16.1202   20.4112 N   0  0  0  0  0  0  0  0  0  0  0  0
  -29.8484  -27.4633   20.1240 N   0  0  0  0  0  0  0  0  0  0  0  0
  -29.4940  -30.1804   24.6523 N   0  0  0  0  0  0  0  0  0  0  0  0
  -25.3252  -30.9027   26.2319 N   0  0  0  0  0  0  0  0  0  0  0  0
  -30.0181  -25.2737   20.9838 N   0  0  0  0  0  0  0  0  0  0  0  0
  -22.7170  -12.5532   20.4800 N   0  0  0  0  0  0  0  0  0  0  0  0
  -20.6581  -18.7226   19.6222 N   0  0  0  0  0  0  0  0  0  0  0  0
  -20.9319  -21.6182   21.7688 N   0  3  0  0  0  0  0  0  0  0  0  0
  -27.5587  -31.0950   26.7150 O   0  0  0  0  0  0  0  0  0  0  0  0
  -23.9625  -14.1066   19.2724 O   0  0  0  0  0  0  0  0  0  0  0  0
  -20.3623  -15.9271   20.1758 O   0  0  0  0  0  0  0  0  0  0  0  0
  -22.4414  -20.1826   19.8776 O   0  0  0  0  0  0  0  0  0  0  0  0
  -31.3899  -25.9783   19.2508 O   0  0  0  0  0  0  0  0  0  0  0  0
  -20.5579  -29.8338   23.5550 O   0  0  0  0  0  0  0  0  0  0  0  0
  -28.6017  -17.6184   21.2294 O   0  0  0  0  0  0  0  0  0  1  0  0
  -17.9519  -25.3372   21.7129 F   0  0  0  0  0  0  0  0  0  0  0  0
  -20.9462  -28.9276   20.9723 F   0  0  0  0  0  0  0  0  0  0  0  0
  1  2  1  0  0  0  0
  1  5  2  0  0  0  0
  2  6  2  0  0  0  0
  3 12  2  0  0  0  0
  3 19  1  0  0  0  0
  4 13  1  0  0  0  0
  4 19  2  0  0  0  0
  5 22  1  0  0  0  0
  6 24  1  0  0  0  0
  7 10  2  0  0  0  0
  7 21  1  0  0  0  0
  8 11  1  0  0  0  0
  8 21  2  0  0  0  0
  9 14  2  0  0  0  0
  9 23  1  0  0  0  0
 10 26  1  0  0  0  0
 11 26  2  0  0  0  0
 12 27  1  0  0  0  0
 13 27  2  0  0  0  0
 14 28  1  0  0  0  0
 15 16  2  0  0  0  0
 15 29  1  0  0  0  0
 16 30  1  0  0  0  0
 17 25  1  0  0  0  0
 17 28  2  0  0  0  0
 18 30  2  0  0  0  0
 18 31  1  0  0  0  0
 19 32  1  0  0  0  0
 20 32  1  0  0  0  0
 20 33  2  0  0  0  0
 20 34  1  0  0  0  0
 21 48  1  0  0  0  0
 22 24  2  0  0  0  0
 22 39  1  0  0  0  0
 23 25  2  0  0  0  0
 23 40  1  0  0  0  0
 24 49  1  0  0  0  0
 25 41  1  0  0  0  0
 26 69  1  0  0  0  0
 27 78  1  0  0  0  0
 28 79  1  0  0  0  0
 29 31  2  0  0  0  0
 29 78  1  0  0  0  0
 30 80  1  0  0  0  0
 31 81  1  0  0  0  0
 32 63  2  0  0  0  0
 33 64  1  0  0  0  0
 33 67  1  0  0  0  0
 34 68  1  0  0  0  0
 34 73  2  0  0  0  0
 35 50  1  0  0  0  0
 35 70  1  0  0  0  0
 35 74  2  0  0  0  0
 36 60  1  0  0  0  0
 36 65  1  0  0  0  0
 36 75  2  0  0  0  0
 37 61  1  0  0  0  0
 37 71  1  0  0  0  0
 37 76  2  0  0  0  0
 38 66  1  0  0  0  0
 38 69  1  0  0  0  0
 38 77  2  0  0  0  0
 39 42  1  0  0  0  0
 40 50  1  0  0  0  0
 41 65  1  0  0  0  0
 42 44  1  0  0  0  0
 43 45  1  0  0  0  0
 43 46  1  0  0  0  0
 44 49  1  0  0  0  0
 45 52  1  0  0  0  0
 46 66  1  0  0  0  0
 47 52  1  0  0  0  0
 47 66  1  0  0  0  0
 48 51  1  0  0  0  0
 48 53  1  0  0  0  0
 49 70  1  0  0  0  0
 50 65  1  0  0  0  0
 51 53  1  0  0  0  0
 51 54  1  0  0  0  0
 52 64  1  0  0  0  0
 53 79  1  0  0  0  0
 55 61  1  0  0  0  0
 56 62  1  0  0  0  0
 57 62  1  0  0  0  0
 58 62  1  0  0  0  0
 59 72  1  0  0  0  0
 60 62  1  0  0  0  0
 60 71  1  0  0  0  0
 61 72  1  0  0  0  0
 63 64  1  0  0  0  0
M  CHG  1  72   1
M  ISO  4  38 100  53 101  69 100  79 101
M  END
> <Batch ID>
0136

> <Smiles>
CNC(C)C(=O)NC(C(=O)N1Cc2cc([101O:1][101CH:1]3C(C)C3c3ccc([100NH:0][100C:0](=O)N4CCCC(n5nc(-c6ccc(Oc7ccc(F)cc7F)cc6)c(C(N)=O)c5N)C4)cc3)ccc2CC1C(=O)NC1CCCc2ccccc21)C(C)(C)C

> <Shape>
0.272

> <Color>
0.047

> <Negative vol penalty>
0.000

$$$$

  -OEChem-04052321023D

 86 95  0     1  0  0  0  0  0999 V2000
  -17.4917  -13.4794   21.7292 C   0  0  0  0  0  0  0  0  0  0  0  0
  -18.3075  -14.6032   21.6468 C   0  0  0  0  0  0  0  0  0  0  0  0
  -32.7188  -23.8874   22.3424 C   0  0  0  0  0  0  0  0  0  0  0  0
  -22.7070  -29.2638   21.6442 C   0  0  0  0  0  0  0  0  0  0  0  0
  -23.5832  -28.0345   23.5305 C   0  0  0  0  0  0  0  0  0  0  0  0
  -17.9999  -12.2865   22.2419 C   0  0  0  0  0  0  0  0  0  0  0  0
  -19.6318  -14.5352   22.0780 C   0  0  0  0  0  0  0  0  0  0  0  0
  -24.4411  -17.4688   19.6759 C   0  0  0  0  0  0  0  0  0  0  0  0
  -30.4470  -20.2640   22.0042 C   0  0  0  0  0  0  0  0  0  0  0  0
  -30.2861  -19.2405   19.8218 C   0  0  0  0  0  0  0  0  0  0  0  0
  -21.6197  -29.6732   22.4161 C   0  0  0  0  0  0  0  0  0  0  0  0
  -22.4959  -28.4439   24.3024 C   0  0  0  0  0  0  0  0  0  0  0  0
  -25.1052  -18.6385   20.0426 C   0  0  0  0  0  0  0  0  0  0  0  0
  -29.0566  -20.2465   22.1150 C   0  0  0  0  0  0  0  0  0  0  0  0
  -28.8957  -19.2230   19.9325 C   0  0  0  0  0  0  0  0  0  0  0  0
  -18.6958  -28.3631   23.4925 C   0  0  0  0  0  0  0  0  0  0  0  0
  -17.4280  -28.2896   22.9154 C   0  0  0  0  0  0  0  0  0  0  0  0
  -31.7127  -24.1637   21.3840 C   0  0  0  0  0  0  0  0  0  0  0  0
  -26.7354  -17.3288   21.2452 C   0  0  0  0  0  0  0  0  0  0  0  0
  -17.1574  -30.6727   23.2067 C   0  0  0  0  0  0  0  0  0  0  0  0
  -33.3358  -22.7152   21.9647 C   0  0  0  0  0  0  0  0  0  0  0  0
  -23.6887  -28.4444   22.2014 C   0  0  0  0  0  0  0  0  0  0  0  0
  -26.0478  -28.6789   21.2594 C   0  0  0  0  0  0  0  0  0  0  0  0
  -19.3339  -12.2012   22.6706 C   0  0  0  0  0  0  0  0  0  0  0  0
  -24.9139  -16.2188   20.1009 C   0  0  0  0  0  0  0  0  0  0  0  0
  -20.1580  -13.3404   22.5981 C   0  0  0  0  0  0  0  0  0  0  0  0
  -26.0770  -16.1446   20.8804 C   0  0  0  0  0  0  0  0  0  0  0  0
  -31.0617  -19.7610   20.8577 C   0  0  0  0  0  0  0  0  0  0  0  0
  -21.5142  -29.2633   23.7452 C   0  0  0  0  0  0  0  0  0  0  0  0
  -28.2810  -19.7260   21.0791 C   0  0  0  0  0  0  0  0  0  1  0  0
  -26.2509  -18.5689   20.8298 C   0  0  0  0  0  0  0  0  0  0  0  0
  -19.1943  -29.5913   23.9267 C   0  0  0  0  0  0  0  0  0  0  0  0
  -16.6588  -29.4444   22.7725 C   0  0  0  0  0  0  0  0  0  0  0  0
  -18.4251  -30.7461   23.7838 C   0  0  0  0  0  0  0  0  0  0  0  0
  -24.8119  -28.0207   21.4044 C   0  0  0  0  0  0  0  0  0  0  0  0
  -31.7454  -23.1519   20.4499 C   0  0  0  0  0  0  0  0  0  0  0  0
  -26.7653  -27.8777   20.4051 C   0  0  0  0  0  0  0  0  0  0  0  0
  -26.5065  -29.9047   21.8447 C   0  0  0  0  0  0  0  0  0  0  0  0
  -23.7473  -13.8733   21.9013 C   0  0  0  0  0  0  0  0  0  0  0  0
  -26.4482  -12.3389   20.9668 C   0  0  0  0  0  0  0  0  0  0  0  0
  -29.6570  -12.5573   19.8256 C   0  0  0  0  0  0  0  0  0  0  0  0
  -28.4851  -22.8303   18.7585 C   0  0  0  0  0  0  0  0  0  0  0  0
  -19.8248  -10.9032   23.2615 C   0  0  0  0  0  0  0  0  0  0  0  0
  -24.2013  -14.9647   19.6745 C   0  0  0  0  0  0  0  0  0  0  0  0
  -26.6370  -14.8261   21.3457 C   0  0  0  0  0  0  0  0  0  0  0  0
  -21.3460  -10.8107   23.3489 C   0  0  0  0  0  0  0  0  0  0  0  0
  -25.3111  -23.9378   17.5857 C   0  0  0  0  0  0  0  0  0  0  0  0
  -21.9266  -12.0966   23.9287 C   0  0  0  0  0  0  0  0  0  0  0  0
  -24.9978  -25.1485   18.4666 C   0  0  0  0  0  0  0  0  0  0  0  0
  -26.0393  -22.8456   18.3660 C   0  0  0  0  0  0  0  0  0  0  0  0
  -26.9432  -24.5038   19.9493 C   0  0  0  0  0  0  0  0  0  0  0  0
  -21.6070  -13.2993   23.0328 C   0  0  1  0  0  0  0  0  0  0  0  0
  -24.4790  -13.7782   20.5924 C   0  0  1  0  0  0  0  0  0  0  0  0
  -26.2585  -25.6550   19.1927 C   0  0  2  0  0  0  0  0  0  0  0  0
  -31.5118  -23.5923   17.9774 C   0  0  0  0  0  0  0  0  0  0  0  0
  -31.6235  -11.1331   19.1915 C   0  0  0  0  0  0  0  0  0  0  0  0
  -27.0395  -11.8452   23.9192 C   0  0  0  0  0  0  0  0  0  0  0  0
  -29.3979  -11.2957   23.2832 C   0  0  0  0  0  0  0  0  0  0  0  0
  -27.5180   -9.9014   22.4201 C   0  0  0  0  0  0  0  0  0  0  0  0
  -29.6424  -13.5714   17.0452 C   0  0  0  0  0  0  0  0  0  0  0  0
  -32.5480  -19.7794   20.7390 C   0  0  0  0  0  0  0  0  0  0  0  0
  -33.1085  -21.0611   20.0963 C   0  0  0  0  0  0  0  0  0  0  0  0
  -30.9160  -22.9482   19.2444 C   0  0  2  0  0  0  0  0  0  0  0  0
  -27.8562  -12.2321   21.5006 C   0  0  1  0  0  0  0  0  0  0  0  0
  -30.3744  -11.8437   18.6939 C   0  0  2  0  0  0  0  0  0  0  0  0
  -27.9415  -11.3437   22.7738 C   0  0  0  0  0  0  0  0  0  0  0  0
  -24.7445  -26.8888   20.6986 N   0  0  0  0  0  0  0  0  0  0  0  0
  -32.7357  -22.2770   20.8132 N   0  0  0  0  0  0  0  0  0  0  0  0
  -25.9471  -26.8294   20.1018 N   0  0  0  0  0  0  0  0  0  0  0  0
  -25.9010  -13.6285   20.9080 N   0  0  0  0  0  0  0  0  0  0  0  0
  -27.2261  -23.3910   19.0293 N   0  0  0  0  0  0  0  0  0  0  0  0
  -28.0098  -27.9747   19.8911 N   0  0  0  0  0  0  0  0  0  0  0  0
  -25.6416  -30.6015   22.6996 N   0  0  0  0  0  0  0  0  0  0  0  0
  -22.4822  -13.3179   21.8804 N   0  0  0  0  0  0  0  0  0  0  0  0
  -28.6794  -11.7655   20.3902 N   0  0  0  0  0  0  0  0  0  0  0  0
  -29.5579  -23.4106   19.4242 N   0  0  0  0  0  0  0  0  0  0  0  0
  -30.7761  -12.8175   17.6397 N   0  3  0  0  0  0  0  0  0  0  0  0
  -27.6433  -30.3769   21.6034 O   0  0  0  0  0  0  0  0  0  0  0  0
  -24.2909  -14.4096   22.8598 O   0  0  0  0  0  0  0  0  0  0  0  0
  -25.8582  -11.3166   20.6083 O   0  0  0  0  0  0  0  0  0  0  0  0
  -29.9384  -13.7011   20.1762 O   0  0  0  0  0  0  0  0  0  0  0  0
  -28.6424  -21.8862   17.9769 O   0  0  0  0  0  0  0  0  0  0  0  0
  -26.9006  -19.7091   21.1897 O   0  0  0  0  0  0  0  0  0  1  0  0
  -20.4534  -29.6628   24.4987 O   0  0  0  0  0  0  0  0  0  0  0  0
  -15.4420  -29.3740   22.2169 F   0  0  0  0  0  0  0  0  0  0  0  0
  -18.8992  -31.9291   24.1980 F   0  0  0  0  0  0  0  0  0  0  0  0
  1  2  1  0  0  0  0
  1  6  2  0  0  0  0
  2  7  2  0  0  0  0
  3 18  1  0  0  0  0
  3 21  2  0  0  0  0
  4 11  2  0  0  0  0
  4 22  1  0  0  0  0
  5 12  1  0  0  0  0
  5 22  2  0  0  0  0
  6 24  1  0  0  0  0
  7 26  1  0  0  0  0
  8 13  2  0  0  0  0
  8 25  1  0  0  0  0
  9 14  2  0  0  0  0
  9 28  1  0  0  0  0
 10 15  1  0  0  0  0
 10 28  2  0  0  0  0
 11 29  1  0  0  0  0
 12 29  2  0  0  0  0
 13 31  1  0  0  0  0
 14 30  1  0  0  0  0
 15 30  2  0  0  0  0
 16 17  2  0  0  0  0
 16 32  1  0  0  0  0
 17 33  1  0  0  0  0
 18 36  2  0  0  0  0
 19 27  1  0  0  0  0
 19 31  2  0  0  0  0
 20 33  2  0  0  0  0
 20 34  1  0  0  0  0
 21 68  1  0  0  0  0
 22 35  1  0  0  0  0
 23 35  1  0  0  0  0
 23 37  2  0  0  0  0
 23 38  1  0  0  0  0
 24 26  2  0  0  0  0
 24 43  1  0  0  0  0
 25 27  2  0  0  0  0
 25 44  1  0  0  0  0
 26 52  1  0  0  0  0
 27 45  1  0  0  0  0
 28 61  1  0  0  0  0
 29 84  1  0  0  0  0
 30 83  1  0  0  0  0
 31 83  1  0  0  0  0
 32 34  2  0  0  0  0
 32 84  1  0  0  0  0
 33 85  1  0  0  0  0
 34 86  1  0  0  0  0
 35 67  2  0  0  0  0
 36 63  1  0  0  0  0
 36 68  1  0  0  0  0
 37 69  1  0  0  0  0
 37 72  1  0  0  0  0
 38 73  1  0  0  0  0
 38 78  2  0  0  0  0
 39 53  1  0  0  0  0
 39 74  1  0  0  0  0
 39 79  2  0  0  0  0
 40 64  1  0  0  0  0
 40 70  1  0  0  0  0
 40 80  2  0  0  0  0
 41 65  1  0  0  0  0
 41 75  1  0  0  0  0
 41 81  2  0  0  0  0
 42 71  1  0  0  0  0
 42 76  1  0  0  0  0
 42 82  2  0  0  0  0
 43 46  1  0  0  0  0
 44 53  1  0  0  0  0
 45 70  1  0  0  0  0
 46 48  1  0  0  0  0
 47 49  1  0  0  0  0
 47 50  1  0  0  0  0
 48 52  1  0  0  0  0
 49 54  1  0  0  0  0
 50 71  1  0  0  0  0
 51 54  1  0  0  0  0
 51 71  1  0  0  0  0
 52 74  1  0  0  0  0
 53 70  1  0  0  0  0
 54 69  1  0  0  0  0
 55 63  1  0  0  0  0
 56 65  1  0  0  0  0
 57 66  1  0  0  0  0
 58 66  1  0  0  0  0
 59 66  1  0  0  0  0
 60 77  1  0  0  0  0
 61 62  1  0  0  0  0
 62 68  1  0  0  0  0
 63 76  1  0  0  0  0
 64 66  1  0  0  0  0
 64 75  1  0  0  0  0
 65 77  1  0  0  0  0
 67 69  1  0  0  0  0
M  CHG  1  77   1
M  ISO  4  30 101  42 100  76 100  83 101
M  END
> <Batch ID>
0136

> <Smiles>
CNC(C)C(=O)NC(C(=O)N1Cc2cc([101O:1][101c:1]3ccc(CCn4cccc4C(C)[100NH:0][100C:0](=O)N4CCCC(n5nc(-c6ccc(Oc7ccc(F)cc7F)cc6)c(C(N)=O)c5N)C4)cc3)ccc2CC1C(=O)NC1CCCc2ccccc21)C(C)(C)C

> <Shape>
0.259

> <Color>
0.062

> <Negative vol penalty>
0.000

$$$$

  -OEChem-04052321023D

 90100  0     1  0  0  0  0  0999 V2000
  -16.3847  -25.6176   24.8165 C   0  0  0  0  0  0  0  0  0  0  0  0
  -17.5152  -25.0603   24.2276 C   0  0  0  0  0  0  0  0  0  0  0  0
  -29.0465  -21.1072   13.4015 C   0  0  0  0  0  0  0  0  0  0  0  0
  -22.9077  -10.4943   20.3654 C   0  0  0  0  0  0  0  0  0  0  0  0
  -24.5454   -9.5070   21.8420 C   0  0  0  0  0  0  0  0  0  0  0  0
  -16.1583  -26.9904   24.7267 C   0  0  0  0  0  0  0  0  0  0  0  0
  -18.4196  -25.8754   23.5478 C   0  0  0  0  0  0  0  0  0  0  0  0
  -23.2357  -24.8173   24.7010 C   0  0  0  0  0  0  0  0  0  0  0  0
  -29.1830  -19.8014   12.9305 C   0  0  0  0  0  0  0  0  0  0  0  0
  -28.6775  -21.3355   14.7272 C   0  0  0  0  0  0  0  0  0  0  0  0
  -21.8928   -9.8078   21.0320 C   0  0  0  0  0  0  0  0  0  0  0  0
  -23.5305   -8.8206   22.5087 C   0  0  0  0  0  0  0  0  0  0  0  0
  -23.8035  -23.6961   24.0972 C   0  0  0  0  0  0  0  0  0  0  0  0
  -21.4111   -6.5289   24.3705 C   0  0  0  0  0  0  0  0  0  0  0  0
  -21.6242   -5.1823   24.6649 C   0  0  0  0  0  0  0  0  0  0  0  0
  -24.8906  -25.1228   22.4841 C   0  0  0  0  0  0  0  0  0  0  0  0
  -21.8654   -4.7054   22.3087 C   0  0  0  0  0  0  0  0  0  0  0  0
  -24.2340  -10.3438   20.7703 C   0  0  0  0  0  0  0  0  0  0  0  0
  -25.6239  -10.9522   18.7196 C   0  0  0  0  0  0  0  0  0  0  0  0
  -17.0653  -27.8241   24.0537 C   0  0  0  0  0  0  0  0  0  0  0  0
  -23.4828  -26.1009   24.1933 C   0  0  0  0  0  0  0  0  0  0  0  0
  -18.2044  -27.2604   23.4478 C   0  0  0  0  0  0  0  0  0  0  0  0
  -24.3268  -26.2588   23.0848 C   0  0  0  0  0  0  0  0  0  0  0  0
  -28.5815  -18.9521   15.1109 C   0  0  0  0  0  0  0  0  0  0  0  0
  -28.9505  -18.7238   13.7852 C   0  0  0  0  0  0  0  0  0  0  0  0
  -28.4450  -20.2580   15.5819 C   0  0  0  0  0  0  0  0  0  0  0  0
  -22.2042   -8.9710   22.1037 C   0  0  0  0  0  0  0  0  0  0  0  0
  -24.6287  -23.8485   22.9869 C   0  0  0  0  0  0  0  0  0  0  0  0
  -21.4250   -6.9638   23.0452 C   0  0  0  0  0  0  0  0  0  0  0  0
  -21.8514   -4.2705   23.6340 C   0  0  0  0  0  0  0  0  0  0  0  0
  -21.6523   -6.0521   22.0143 C   0  0  0  0  0  0  0  0  0  0  0  0
  -25.2829  -11.0522   20.0817 C   0  0  0  0  0  0  0  0  0  0  0  0
  -26.6775  -11.8197   18.5648 C   0  0  0  0  0  0  0  0  0  0  0  0
  -25.0405  -10.1472   17.6865 C   0  0  0  0  0  0  0  0  0  0  0  0
  -21.6818  -28.4069   22.9514 C   0  0  0  0  0  0  0  0  0  0  0  0
  -24.4594  -30.0807   23.0251 C   0  0  0  0  0  0  0  0  0  0  0  0
  -27.8716  -30.0313   23.0660 C   0  0  0  0  0  0  0  0  0  0  0  0
  -29.0537  -16.7692   19.5411 C   0  0  0  0  0  0  0  0  0  0  0  0
  -16.7538  -29.2956   23.9425 C   0  0  0  0  0  0  0  0  0  0  0  0
  -22.8843  -27.3022   24.8723 C   0  0  0  0  0  0  0  0  0  0  0  0
  -24.6399  -27.6167   22.5135 C   0  0  0  0  0  0  0  0  0  0  0  0
  -17.9536  -30.1424   23.5258 C   0  0  0  0  0  0  0  0  0  0  0  0
  -29.4966  -14.2414   21.9694 C   0  0  0  0  0  0  0  0  0  0  0  0
  -18.6777  -29.4990   22.3475 C   0  0  0  0  0  0  0  0  0  0  0  0
  -28.4502  -13.1893   21.6125 C   0  0  0  0  0  0  0  0  0  0  0  0
  -26.9407  -17.7051   16.6927 C   0  0  0  0  0  0  0  0  0  0  0  0
  -26.9301  -22.6634   20.7246 C   0  0  0  0  0  0  0  0  0  0  0  0
  -24.6238  -21.7586   20.2821 C   0  0  0  0  0  0  0  0  0  0  0  0
  -28.9532  -15.6450   21.7380 C   0  0  0  0  0  0  0  0  0  0  0  0
  -27.1517  -16.7095   17.8255 C   0  0  0  0  0  0  0  0  0  0  0  0
  -29.2436  -17.7380   17.2702 C   0  0  0  0  0  0  0  0  0  0  0  0
  -27.4569  -14.8307   19.9356 C   0  0  0  0  0  0  0  0  0  0  0  0
  -27.2337  -22.6100   19.2355 C   0  0  0  0  0  0  0  0  0  0  0  0
  -24.9320  -21.7075   18.7940 C   0  0  0  0  0  0  0  0  0  0  0  0
  -28.3293  -17.7835   16.0378 C   0  0  2  0  0  0  0  0  0  0  0  0
  -19.2214  -28.1152   22.7231 C   0  0  1  0  0  0  0  0  0  0  0  0
  -22.7911  -28.5203   23.9585 C   0  0  1  0  0  0  0  0  0  0  0  0
  -27.9507  -13.3886   20.1731 C   0  0  2  0  0  0  0  0  0  0  0  0
  -25.4375  -22.8352   20.9932 C   0  0  0  0  0  0  0  0  0  1  0  0
  -29.1039  -17.3353   13.2560 C   0  0  0  0  0  0  0  0  0  0  0  0
  -29.8636  -31.5573   23.0872 C   0  0  0  0  0  0  0  0  0  0  0  0
  -24.0406  -30.6647   20.0597 C   0  0  0  0  0  0  0  0  0  0  0  0
  -26.4474  -31.3409   19.9243 C   0  0  0  0  0  0  0  0  0  0  0  0
  -24.8796  -32.6046   21.3966 C   0  0  0  0  0  0  0  0  0  0  0  0
  -28.8061  -28.9655   25.6640 C   0  0  0  0  0  0  0  0  0  0  0  0
  -28.0514  -20.5297   16.9971 C   0  0  0  0  0  0  0  0  0  0  0  0
  -26.7634  -21.3397   17.1421 C   0  0  0  0  0  0  0  0  0  0  0  0
  -25.6126  -30.2810   22.0716 C   0  0  1  0  0  0  0  0  0  0  0  0
  -28.8792  -30.7645   23.9329 C   0  0  2  0  0  0  0  0  0  0  0  0
  -25.2378  -31.1969   20.8724 C   0  0  0  0  0  0  0  0  0  0  0  0
  -26.0571  -11.9150   20.7451 N   0  0  0  0  0  0  0  0  0  0  0  0
  -26.8952  -12.3651   19.7958 N   0  0  0  0  0  0  0  0  0  0  0  0
  -24.0258  -28.7601   23.2086 N   0  0  0  0  0  0  0  0  0  0  0  0
  -28.4540  -15.8167   20.3724 N   0  0  0  0  0  0  0  0  0  0  0  0
  -28.5269  -16.9425   18.2618 N   0  0  0  0  0  0  0  0  0  0  0  0
  -27.4297  -12.1615   17.4972 N   0  0  0  0  0  0  0  0  0  0  0  0
  -25.5564   -8.8623   17.4691 N   0  0  0  0  0  0  0  0  0  0  0  0
  -20.4288  -28.2433   23.5106 N   0  0  0  0  0  0  0  0  0  0  0  0
  -26.7258  -30.7743   22.8752 N   0  0  0  0  0  0  0  0  0  0  0  0
  -26.4167  -21.5125   18.5954 N   0  3  0  0  0  0  0  0  0  0  0  0
  -29.6479  -29.7964   24.7653 N   0  3  0  0  0  0  0  0  0  0  0  0
  -24.1007  -10.5613   16.9663 O   0  0  0  0  0  0  0  0  0  0  0  0
  -21.9431  -28.4651   21.7556 O   0  0  0  0  0  0  0  0  0  0  0  0
  -23.9664  -31.0592   23.5918 O   0  0  0  0  0  0  0  0  0  0  0  0
  -28.0815  -28.9131   22.6014 O   0  0  0  0  0  0  0  0  0  0  0  0
  -29.9961  -17.4674   19.9390 O   0  0  0  0  0  0  0  0  0  0  0  0
  -21.2141   -8.3013   22.7546 O   0  0  0  0  0  0  0  0  0  0  0  0
  -25.1873  -22.7486   22.3914 O   0  0  0  0  0  0  0  0  0  1  0  0
  -22.0576   -2.9776   23.9170 F   0  0  0  0  0  0  0  0  0  0  0  0
  -21.6681   -6.4641   20.7393 F   0  0  0  0  0  0  0  0  0  0  0  0
  1  2  1  0  0  0  0
  1  6  2  0  0  0  0
  2  7  2  0  0  0  0
  3  9  1  0  0  0  0
  3 10  2  0  0  0  0
  4 11  2  0  0  0  0
  4 18  1  0  0  0  0
  5 12  1  0  0  0  0
  5 18  2  0  0  0  0
  6 20  1  0  0  0  0
  7 22  1  0  0  0  0
  8 13  2  0  0  0  0
  8 21  1  0  0  0  0
  9 25  2  0  0  0  0
 10 26  1  0  0  0  0
 11 27  1  0  0  0  0
 12 27  2  0  0  0  0
 13 28  1  0  0  0  0
 14 15  2  0  0  0  0
 14 29  1  0  0  0  0
 15 30  1  0  0  0  0
 16 23  1  0  0  0  0
 16 28  2  0  0  0  0
 17 30  2  0  0  0  0
 17 31  1  0  0  0  0
 18 32  1  0  0  0  0
 19 32  1  0  0  0  0
 19 33  2  0  0  0  0
 19 34  1  0  0  0  0
 20 22  2  0  0  0  0
 20 39  1  0  0  0  0
 21 23  2  0  0  0  0
 21 40  1  0  0  0  0
 22 56  1  0  0  0  0
 23 41  1  0  0  0  0
 24 25  1  0  0  0  0
 24 26  2  0  0  0  0
 24 55  1  0  0  0  0
 25 60  1  0  0  0  0
 26 66  1  0  0  0  0
 27 87  1  0  0  0  0
 28 88  1  0  0  0  0
 29 31  2  0  0  0  0
 29 87  1  0  0  0  0
 30 89  1  0  0  0  0
 31 90  1  0  0  0  0
 32 71  2  0  0  0  0
 33 72  1  0  0  0  0
 33 76  1  0  0  0  0
 34 77  1  0  0  0  0
 34 82  2  0  0  0  0
 35 57  1  0  0  0  0
 35 78  1  0  0  0  0
 35 83  2  0  0  0  0
 36 68  1  0  0  0  0
 36 73  1  0  0  0  0
 36 84  2  0  0  0  0
 37 69  1  0  0  0  0
 37 79  1  0  0  0  0
 37 85  2  0  0  0  0
 38 74  1  0  0  0  0
 38 75  1  0  0  0  0
 38 86  2  0  0  0  0
 39 42  1  0  0  0  0
 40 57  1  0  0  0  0
 41 73  1  0  0  0  0
 42 44  1  0  0  0  0
 43 45  1  0  0  0  0
 43 49  1  0  0  0  0
 44 56  1  0  0  0  0
 45 58  1  0  0  0  0
 46 50  1  0  0  0  0
 46 55  1  0  0  0  0
 47 53  1  0  0  0  0
 47 59  1  0  0  0  0
 48 54  1  0  0  0  0
 48 59  1  0  0  0  0
 49 74  1  0  0  0  0
 50 75  1  0  0  0  0
 51 55  1  0  0  0  0
 51 75  1  0  0  0  0
 52 58  1  0  0  0  0
 52 74  1  0  0  0  0
 53 80  1  0  0  0  0
 54 80  1  0  0  0  0
 56 78  1  0  0  0  0
 57 73  1  0  0  0  0
 58 72  1  0  0  0  0
 59 88  1  0  0  0  0
 61 69  1  0  0  0  0
 62 70  1  0  0  0  0
 63 70  1  0  0  0  0
 64 70  1  0  0  0  0
 65 81  1  0  0  0  0
 66 67  1  0  0  0  0
 67 80  1  0  0  0  0
 68 70  1  0  0  0  0
 68 79  1  0  0  0  0
 69 81  1  0  0  0  0
 71 72  1  0  0  0  0
M  CHG  2  80   1  81   1
M  ISO  4  38 100  59 101  75 100  88 101
M  END
> <Batch ID>
0136

> <Smiles>
CNC(C)C(=O)NC(C(=O)N1Cc2cc([101O:1][101CH:1]3CCN(CCc4cccc(C)c4C4CC[100N:0]([100C:0](=O)N5CCCC(n6nc(-c7ccc(Oc8ccc(F)cc8F)cc7)c(C(N)=O)c6N)C5)C4)CC3)ccc2CC1C(=O)NC1CCCc2ccccc21)C(C)(C)C

> <Shape>
0.248

> <Color>
0.081

> <Negative vol penalty>
0.000

$$$$

  -OEChem-04052321023D

 83 91  0     1  0  0  0  0  0999 V2000
  -22.6780  -33.2297   24.9493 C   0  0  0  0  0  0  0  0  0  0  0  0
  -23.6638  -32.3528   24.5080 C   0  0  0  0  0  0  0  0  0  0  0  0
  -26.0816  -12.5829   22.1741 C   0  0  0  0  0  0  0  0  0  0  0  0
  -26.1052  -13.6463   20.0048 C   0  0  0  0  0  0  0  0  0  0  0  0
  -21.3592  -32.7928   25.0657 C   0  0  0  0  0  0  0  0  0  0  0  0
  -23.3313  -31.0379   24.1840 C   0  0  0  0  0  0  0  0  0  0  0  0
  -25.4631  -29.5060   19.8534 C   0  0  0  0  0  0  0  0  0  0  0  0
  -24.8642  -11.9769   21.8638 C   0  0  0  0  0  0  0  0  0  0  0  0
  -24.8878  -13.0403   19.6945 C   0  0  0  0  0  0  0  0  0  0  0  0
  -26.8094  -29.1468   19.8986 C   0  0  0  0  0  0  0  0  0  0  0  0
  -23.7885   -9.3301   20.0555 C   0  0  0  0  0  0  0  0  0  0  0  0
  -23.6411   -7.9773   20.3617 C   0  0  0  0  0  0  0  0  0  0  0  0
  -26.1796  -26.8197   19.9810 C   0  0  0  0  0  0  0  0  0  0  0  0
  -21.7811   -8.5076   21.8095 C   0  0  0  0  0  0  0  0  0  0  0  0
  -26.7021  -13.4176   21.2446 C   0  0  0  0  0  0  0  0  0  0  0  0
  -29.2492  -13.5323   21.3276 C   0  0  0  0  0  0  0  0  0  0  0  0
  -21.0087  -31.4746   24.7337 C   0  0  0  0  0  0  0  0  0  0  0  0
  -24.4630  -28.5235   19.8827 C   0  0  0  0  0  0  0  0  0  0  0  0
  -22.0068  -30.5825   24.2974 C   0  0  0  0  0  0  0  0  0  0  0  0
  -24.8214  -27.1688   19.9334 C   0  0  0  0  0  0  0  0  0  0  0  0
  -24.2673  -12.2056   20.6240 C   0  0  0  0  0  0  0  0  0  0  0  0
  -27.1679  -27.8036   19.9654 C   0  0  0  0  0  0  0  0  0  0  0  0
  -22.9323  -10.2717   20.6264 C   0  0  0  0  0  0  0  0  0  0  0  0
  -22.6374   -7.5660   21.2386 C   0  0  0  0  0  0  0  0  0  0  0  0
  -21.9286   -9.8605   21.5034 C   0  0  0  0  0  0  0  0  0  0  0  0
  -27.9595  -14.0443   21.5648 C   0  0  0  0  0  0  0  0  0  0  0  0
  -30.0966  -14.4996   21.8101 C   0  0  0  0  0  0  0  0  0  0  0  0
  -29.6458  -12.2933   20.7250 C   0  0  0  0  0  0  0  0  0  0  0  0
  -22.0819  -27.8047   21.8620 C   0  0  0  0  0  0  0  0  0  0  0  0
  -21.3302  -25.6539   19.5531 C   0  0  0  0  0  0  0  0  0  0  0  0
  -22.3706  -23.7440   16.9231 C   0  0  0  0  0  0  0  0  0  0  0  0
  -28.9396  -20.4543   22.7031 C   0  0  0  0  0  0  0  0  0  0  0  0
  -19.5783  -31.0347   24.9208 C   0  0  0  0  0  0  0  0  0  0  0  0
  -23.0157  -28.9262   19.8062 C   0  0  0  0  0  0  0  0  0  0  0  0
  -23.7865  -26.0747   19.9468 C   0  0  0  0  0  0  0  0  0  0  0  0
  -19.2425  -29.7316   24.2000 C   0  0  0  0  0  0  0  0  0  0  0  0
  -30.3584  -17.9802   25.0710 C   0  0  0  0  0  0  0  0  0  0  0  0
  -20.3249  -28.6871   24.4536 C   0  0  0  0  0  0  0  0  0  0  0  0
  -29.9393  -16.6496   24.4485 C   0  0  0  0  0  0  0  0  0  0  0  0
  -28.7161  -22.5465   19.9446 C   0  0  0  0  0  0  0  0  0  0  0  0
  -30.4129  -20.7250   19.5142 C   0  0  0  0  0  0  0  0  0  0  0  0
  -29.3863  -19.1017   24.7187 C   0  0  0  0  0  0  0  0  0  0  0  0
  -27.8883  -21.5418   20.7416 C   0  0  0  0  0  0  0  0  0  0  0  0
  -29.5617  -19.7602   20.3451 C   0  0  0  0  0  0  0  0  0  0  0  0
  -28.7471  -17.9372   22.6312 C   0  0  0  0  0  0  0  0  0  0  0  0
  -21.6811  -29.1556   23.9127 C   0  0  1  0  0  0  0  0  0  0  0  0
  -22.0702  -27.8651   20.3607 C   0  0  1  0  0  0  0  0  0  0  0  0
  -29.7311  -16.7965   22.9314 C   0  0  2  0  0  0  0  0  0  0  0  0
  -29.5519  -21.8220   18.8915 C   0  0  0  0  0  0  0  0  0  0  0  0
  -21.5370  -22.0594   15.2604 C   0  0  0  0  0  0  0  0  0  0  0  0
  -21.3515  -23.5070   21.7211 C   0  0  0  0  0  0  0  0  0  0  0  0
  -21.4641  -21.7799   19.9121 C   0  0  0  0  0  0  0  0  0  0  0  0
  -19.4902  -23.2976   20.0639 C   0  0  0  0  0  0  0  0  0  0  0  0
  -23.0329  -25.5015   14.6359 C   0  0  0  0  0  0  0  0  0  0  0  0
  -30.7492  -24.5536   16.4846 C   0  0  0  0  0  0  0  0  0  0  0  0
  -29.7742  -23.5672   17.1186 C   0  0  0  0  0  0  0  0  0  0  0  0
  -31.2921  -25.6391   17.4080 C   0  0  0  0  0  0  0  0  0  0  0  0
  -30.6208  -27.5211   18.9067 C   0  0  0  0  0  0  0  0  0  0  0  0
  -29.4100  -28.3138   19.3583 C   0  0  0  0  0  0  0  0  0  1  0  0
  -21.7044  -24.2200   19.2649 C   0  0  1  0  0  0  0  0  0  0  0  0
  -21.7867  -23.5337   15.5377 C   0  0  2  0  0  0  0  0  0  0  0  0
  -21.0222  -23.2216   20.2422 C   0  0  0  0  0  0  0  0  0  0  0  0
  -27.9808  -15.2436   22.1524 N   0  0  0  0  0  0  0  0  0  0  0  0
  -29.2942  -15.4932   22.2886 N   0  0  0  0  0  0  0  0  0  0  0  0
  -22.3847  -26.5193   19.8767 N   0  0  0  0  0  0  0  0  0  0  0  0
  -29.1675  -19.1913   23.2749 N   0  0  0  0  0  0  0  0  0  0  0  0
  -28.7370  -20.4956   21.3153 N   0  0  0  0  0  0  0  0  0  0  0  0
  -31.4425  -14.5885   21.8675 N   0  0  0  0  0  0  0  0  0  0  0  0
  -28.6467  -11.4147   20.2842 N   0  0  0  0  0  0  0  0  0  0  0  0
  -21.7355  -28.9934   22.4756 N   0  0  0  0  0  0  0  0  0  0  0  0
  -21.3887  -23.9903   17.8592 N   0  0  0  0  0  0  0  0  0  0  0  0
  -30.4347  -22.8052   18.2120 N   0  3  0  0  0  0  0  0  0  0  0  0
  -22.7181  -24.0562   14.4983 N   0  3  0  0  0  0  0  0  0  0  0  0
  -30.1885  -26.4675   17.9471 N   0  3  0  0  0  0  0  0  0  0  0  0
  -30.8503  -11.9673   20.5965 O   0  0  0  0  0  0  0  0  0  0  0  0
  -22.3815  -26.7568   22.4222 O   0  0  0  0  0  0  0  0  0  0  0  0
  -20.1466  -25.9951   19.4862 O   0  0  0  0  0  0  0  0  0  0  0  0
  -23.5769  -23.6911   17.1526 O   0  0  0  0  0  0  0  0  0  0  0  0
  -28.9209  -21.4820   23.3920 O   0  0  0  0  0  0  0  0  0  0  0  0
  -23.0795  -11.6143   20.3208 O   0  0  0  0  0  0  0  0  0  0  0  0
  -28.4907  -27.4478   20.0106 O   0  0  0  0  0  0  0  0  0  1  0  0
  -22.4950   -6.2667   21.5314 F   0  0  0  0  0  0  0  0  0  0  0  0
  -21.1022  -10.7603   22.0540 F   0  0  0  0  0  0  0  0  0  0  0  0
  1  2  1  0  0  0  0
  1  5  2  0  0  0  0
  2  6  2  0  0  0  0
  3  8  2  0  0  0  0
  3 15  1  0  0  0  0
  4  9  1  0  0  0  0
  4 15  2  0  0  0  0
  5 17  1  0  0  0  0
  6 19  1  0  0  0  0
  7 10  2  0  0  0  0
  7 18  1  0  0  0  0
  8 21  1  0  0  0  0
  9 21  2  0  0  0  0
 10 22  1  0  0  0  0
 11 12  2  0  0  0  0
 11 23  1  0  0  0  0
 12 24  1  0  0  0  0
 13 20  1  0  0  0  0
 13 22  2  0  0  0  0
 14 24  2  0  0  0  0
 14 25  1  0  0  0  0
 15 26  1  0  0  0  0
 16 26  1  0  0  0  0
 16 27  2  0  0  0  0
 16 28  1  0  0  0  0
 17 19  2  0  0  0  0
 17 33  1  0  0  0  0
 18 20  2  0  0  0  0
 18 34  1  0  0  0  0
 19 46  1  0  0  0  0
 20 35  1  0  0  0  0
 21 80  1  0  0  0  0
 22 81  1  0  0  0  0
 23 25  2  0  0  0  0
 23 80  1  0  0  0  0
 24 82  1  0  0  0  0
 25 83  1  0  0  0  0
 26 63  2  0  0  0  0
 27 64  1  0  0  0  0
 27 68  1  0  0  0  0
 28 69  1  0  0  0  0
 28 75  2  0  0  0  0
 29 47  1  0  0  0  0
 29 70  1  0  0  0  0
 29 76  2  0  0  0  0
 30 60  1  0  0  0  0
 30 65  1  0  0  0  0
 30 77  2  0  0  0  0
 31 61  1  0  0  0  0
 31 71  1  0  0  0  0
 31 78  2  0  0  0  0
 32 66  1  0  0  0  0
 32 67  1  0  0  0  0
 32 79  2  0  0  0  0
 33 36  1  0  0  0  0
 34 47  1  0  0  0  0
 35 65  1  0  0  0  0
 36 38  1  0  0  0  0
 37 39  1  0  0  0  0
 37 42  1  0  0  0  0
 38 46  1  0  0  0  0
 39 48  1  0  0  0  0
 40 43  1  0  0  0  0
 40 49  1  0  0  0  0
 41 44  1  0  0  0  0
 41 49  1  0  0  0  0
 42 66  1  0  0  0  0
 43 67  1  0  0  0  0
 44 67  1  0  0  0  0
 45 48  1  0  0  0  0
 45 66  1  0  0  0  0
 46 70  1  0  0  0  0
 47 65  1  0  0  0  0
 48 64  1  0  0  0  0
 49 72  1  0  0  0  0
 50 61  1  0  0  0  0
 51 62  1  0  0  0  0
 52 62  1  0  0  0  0
 53 62  1  0  0  0  0
 54 73  1  0  0  0  0
 55 56  1  0  0  0  0
 55 57  1  0  0  0  0
 56 72  1  0  0  0  0
 57 74  1  0  0  0  0
 58 59  1  0  0  0  0
 58 74  1  0  0  0  0
 59 81  1  0  0  0  0
 60 62  1  0  0  0  0
 60 71  1  0  0  0  0
 61 73  1  0  0  0  0
 63 64  1  0  0  0  0
M  CHG  3  72   1  73   1  74   1
M  ISO  4  32 100  59 101  67 100  81 101
M  END
> <Batch ID>
0136

> <Smiles>
CNC(C)C(=O)NC(C(=O)N1Cc2cc([101O:1][101CH2:1]CNCCCNC3CC[100N:0]([100C:0](=O)N4CCCC(n5nc(-c6ccc(Oc7ccc(F)cc7F)cc6)c(C(N)=O)c5N)C4)CC3)ccc2CC1C(=O)NC1CCCc2ccccc21)C(C)(C)C

> <Shape>
0.263

> <Color>
0.074

> <Negative vol penalty>
0.000

$$$$

  -OEChem-04052321023D

 89 98  0     1  0  0  0  0  0999 V2000
  -28.7293  -36.2176   20.1901 C   0  0  0  0  0  0  0  0  0  0  0  0
  -28.9225  -34.8488   20.3463 C   0  0  0  0  0  0  0  0  0  0  0  0
  -22.2155  -13.5435   22.2184 C   0  0  0  0  0  0  0  0  0  0  0  0
  -23.7478  -15.4111   22.2505 C   0  0  0  0  0  0  0  0  0  0  0  0
  -27.6854  -36.8540   20.8602 C   0  0  0  0  0  0  0  0  0  0  0  0
  -28.0725  -34.1158   21.1738 C   0  0  0  0  0  0  0  0  0  0  0  0
  -26.5955  -29.7542   19.0667 C   0  0  0  0  0  0  0  0  0  0  0  0
  -21.2675  -14.3096   22.8967 C   0  0  0  0  0  0  0  0  0  0  0  0
  -22.7998  -16.1773   22.9288 C   0  0  0  0  0  0  0  0  0  0  0  0
  -27.5071  -28.6994   19.0809 C   0  0  0  0  0  0  0  0  0  0  0  0
  -19.9991  -17.9115   22.1745 C   0  0  0  0  0  0  0  0  0  0  0  0
  -19.7912  -19.2193   21.7363 C   0  0  0  0  0  0  0  0  0  0  0  0
  -29.0351  -18.7626   22.0316 C   0  0  0  0  0  0  0  0  0  0  0  0
  -26.3622  -27.7434   20.9768 C   0  0  0  0  0  0  0  0  0  0  0  0
  -20.4412  -20.0508   23.9096 C   0  0  0  0  0  0  0  0  0  0  0  0
  -28.0991  -19.6545   21.5565 C   0  0  0  0  0  0  0  0  0  0  0  0
  -23.4557  -14.0943   21.8954 C   0  0  0  0  0  0  0  0  0  0  0  0
  -24.3000  -12.7108   19.9254 C   0  0  0  0  0  0  0  0  0  0  0  0
  -26.8163  -36.1268   21.6887 C   0  0  0  0  0  0  0  0  0  0  0  0
  -25.5652  -29.8173   20.0159 C   0  0  0  0  0  0  0  0  0  0  0  0
  -27.0168  -34.7433   21.8567 C   0  0  0  0  0  0  0  0  0  0  0  0
  -25.4373  -28.7987   20.9710 C   0  0  0  0  0  0  0  0  0  0  0  0
  -30.0302  -18.6215   21.0331 C   0  0  0  0  0  0  0  0  0  0  0  0
  -21.5597  -15.6264   23.2518 C   0  0  0  0  0  0  0  0  0  0  0  0
  -27.3923  -27.6953   20.0378 C   0  0  0  0  0  0  0  0  0  0  0  0
  -20.4280  -17.6733   23.4802 C   0  0  0  0  0  0  0  0  0  0  0  0
  -20.0123  -20.2889   22.6039 C   0  0  0  0  0  0  0  0  0  0  0  0
  -20.6491  -18.7429   24.3478 C   0  0  0  0  0  0  0  0  0  0  0  0
  -24.4356  -13.3032   21.1952 C   0  0  0  0  0  0  0  0  0  0  0  0
  -29.6720  -19.4316   19.9782 C   0  0  0  0  0  0  0  0  0  0  0  0
  -25.4987  -12.0745   19.7137 C   0  0  0  0  0  0  0  0  0  0  0  0
  -23.1899  -12.7337   19.0183 C   0  0  0  0  0  0  0  0  0  0  0  0
  -24.7551  -31.8576   22.3148 C   0  0  0  0  0  0  0  0  0  0  0  0
  -22.1523  -29.9378   22.5646 C   0  0  0  0  0  0  0  0  0  0  0  0
  -21.4782  -26.3939   22.5004 C   0  0  0  0  0  0  0  0  0  0  0  0
  -31.0220  -12.9686   21.8454 C   0  0  0  0  0  0  0  0  0  0  0  0
  -25.7309  -36.8668   22.4297 C   0  0  0  0  0  0  0  0  0  0  0  0
  -24.5740  -30.9477   19.9705 C   0  0  0  0  0  0  0  0  0  0  0  0
  -24.3369  -28.8093   21.9993 C   0  0  0  0  0  0  0  0  0  0  0  0
  -24.6461  -35.9526   22.9934 C   0  0  0  0  0  0  0  0  0  0  0  0
  -29.0960   -9.9829   22.0749 C   0  0  0  0  0  0  0  0  0  0  0  0
  -25.2718  -34.7548   23.7008 C   0  0  0  0  0  0  0  0  0  0  0  0
  -27.9233  -23.2971   18.4270 C   0  0  0  0  0  0  0  0  0  0  0  0
  -27.6454  -23.0557   20.9291 C   0  0  0  0  0  0  0  0  0  0  0  0
  -27.6710  -10.4418   21.7609 C   0  0  0  0  0  0  0  0  0  0  0  0
  -28.3565  -24.7474   18.6188 C   0  0  0  0  0  0  0  0  0  0  0  0
  -28.0787  -24.5069   21.1139 C   0  0  0  0  0  0  0  0  0  0  0  0
  -29.8646  -11.0341   22.8725 C   0  0  0  0  0  0  0  0  0  0  0  0
  -28.4593  -12.8377   21.9529 C   0  0  0  0  0  0  0  0  0  0  0  0
  -26.1007  -33.9096   22.7261 C   0  0  1  0  0  0  0  0  0  0  0  0
  -23.8721  -31.1808   21.3048 C   0  0  1  0  0  0  0  0  0  0  0  0
  -28.2507  -22.4419   19.6590 C   0  0  0  0  0  0  0  0  0  0  0  0
  -27.6627  -11.8341   21.1016 C   0  0  2  0  0  0  0  0  0  0  0  0
  -27.7554  -25.3531   19.8843 C   0  0  0  0  0  0  0  0  0  1  0  0
  -30.3454  -19.6685   18.6827 C   0  0  0  0  0  0  0  0  0  0  0  0
  -19.4063  -25.1389   21.8452 C   0  0  0  0  0  0  0  0  0  0  0  0
  -26.2467  -20.8959   19.6681 C   0  0  0  0  0  0  0  0  0  0  0  0
  -21.5013  -30.0345   25.5439 C   0  0  0  0  0  0  0  0  0  0  0  0
  -20.5978  -27.7075   25.3509 C   0  0  0  0  0  0  0  0  0  0  0  0
  -19.5419  -29.5644   24.0626 C   0  0  0  0  0  0  0  0  0  0  0  0
  -22.9516  -24.7666   20.5154 C   0  0  0  0  0  0  0  0  0  0  0  0
  -32.5127  -15.9376   21.8477 C   0  0  0  0  0  0  0  0  0  0  0  0
  -31.4738  -16.9860   22.2441 C   0  0  0  0  0  0  0  0  0  0  0  0
  -32.0350  -14.9640   20.7725 C   0  0  0  0  0  0  0  0  0  0  0  0
  -21.8098  -28.6988   23.3561 C   0  0  1  0  0  0  0  0  0  0  0  0
  -20.7769  -25.6221   21.3973 C   0  0  2  0  0  0  0  0  0  0  0  0
  -27.7599  -21.0083   19.4662 C   0  0  2  0  0  0  0  0  0  0  0  0
  -20.8895  -29.0071   24.5707 C   0  0  0  0  0  0  0  0  0  0  0  0
  -25.6263  -13.0644   21.7512 N   0  0  0  0  0  0  0  0  0  0  0  0
  -28.4968  -20.0549   20.3075 N   0  0  0  0  0  0  0  0  0  0  0  0
  -26.2499  -12.3148   20.8264 N   0  0  0  0  0  0  0  0  0  0  0  0
  -23.3963  -29.9390   21.9177 N   0  0  0  0  0  0  0  0  0  0  0  0
  -29.8196  -12.3308   22.1924 N   0  0  0  0  0  0  0  0  0  0  0  0
  -25.9727  -11.3383   18.6862 N   0  0  0  0  0  0  0  0  0  0  0  0
  -22.0353  -13.4344   19.3929 N   0  0  0  0  0  0  0  0  0  0  0  0
  -31.1259  -17.8363   21.1044 N   0  0  0  0  0  0  0  0  0  0  0  0
  -25.2353  -33.0877   21.9077 N   0  0  0  0  0  0  0  0  0  0  0  0
  -21.2442  -27.7493   22.4036 N   0  0  0  0  0  0  0  0  0  0  0  0
  -30.8896  -14.1909   21.1980 N   0  0  0  0  0  0  0  0  0  0  0  0
  -21.5866  -24.4359   20.9996 N   0  3  0  0  0  0  0  0  0  0  0  0
  -23.2148  -12.1363   17.9156 O   0  0  0  0  0  0  0  0  0  0  0  0
  -24.9827  -31.3053   23.3848 O   0  0  0  0  0  0  0  0  0  0  0  0
  -21.3429  -30.8673   22.5159 O   0  0  0  0  0  0  0  0  0  0  0  0
  -22.1620  -25.8486   23.3638 O   0  0  0  0  0  0  0  0  0  0  0  0
  -32.1314  -12.4820   22.0894 O   0  0  0  0  0  0  0  0  0  0  0  0
  -20.6348  -16.3744   23.9135 O   0  0  0  0  0  0  0  0  0  0  0  0
  -28.2811  -26.6649   20.0542 O   0  0  0  0  0  0  0  0  0  1  0  0
  -19.8140  -21.5448   22.1825 F   0  0  0  0  0  0  0  0  0  0  0  0
  -21.0624  -18.5204   25.6030 F   0  0  0  0  0  0  0  0  0  0  0  0
  1  2  1  0  0  0  0
  1  5  2  0  0  0  0
  2  6  2  0  0  0  0
  3  8  2  0  0  0  0
  3 17  1  0  0  0  0
  4  9  1  0  0  0  0
  4 17  2  0  0  0  0
  5 19  1  0  0  0  0
  6 21  1  0  0  0  0
  7 10  2  0  0  0  0
  7 20  1  0  0  0  0
  8 24  1  0  0  0  0
  9 24  2  0  0  0  0
 10 25  1  0  0  0  0
 11 12  2  0  0  0  0
 11 26  1  0  0  0  0
 12 27  1  0  0  0  0
 13 16  2  0  0  0  0
 13 23  1  0  0  0  0
 14 22  1  0  0  0  0
 14 25  2  0  0  0  0
 15 27  2  0  0  0  0
 15 28  1  0  0  0  0
 16 70  1  0  0  0  0
 17 29  1  0  0  0  0
 18 29  1  0  0  0  0
 18 31  2  0  0  0  0
 18 32  1  0  0  0  0
 19 21  2  0  0  0  0
 19 37  1  0  0  0  0
 20 22  2  0  0  0  0
 20 38  1  0  0  0  0
 21 50  1  0  0  0  0
 22 39  1  0  0  0  0
 23 30  2  0  0  0  0
 23 76  1  0  0  0  0
 24 86  1  0  0  0  0
 25 87  1  0  0  0  0
 26 28  2  0  0  0  0
 26 86  1  0  0  0  0
 27 88  1  0  0  0  0
 28 89  1  0  0  0  0
 29 69  2  0  0  0  0
 30 55  1  0  0  0  0
 30 70  1  0  0  0  0
 31 71  1  0  0  0  0
 31 74  1  0  0  0  0
 32 75  1  0  0  0  0
 32 81  2  0  0  0  0
 33 51  1  0  0  0  0
 33 77  1  0  0  0  0
 33 82  2  0  0  0  0
 34 65  1  0  0  0  0
 34 72  1  0  0  0  0
 34 83  2  0  0  0  0
 35 66  1  0  0  0  0
 35 78  1  0  0  0  0
 35 84  2  0  0  0  0
 36 73  1  0  0  0  0
 36 79  1  0  0  0  0
 36 85  2  0  0  0  0
 37 40  1  0  0  0  0
 38 51  1  0  0  0  0
 39 72  1  0  0  0  0
 40 42  1  0  0  0  0
 41 45  1  0  0  0  0
 41 48  1  0  0  0  0
 42 50  1  0  0  0  0
 43 46  1  0  0  0  0
 43 52  1  0  0  0  0
 44 47  1  0  0  0  0
 44 52  1  0  0  0  0
 45 53  1  0  0  0  0
 46 54  1  0  0  0  0
 47 54  1  0  0  0  0
 48 73  1  0  0  0  0
 49 53  1  0  0  0  0
 49 73  1  0  0  0  0
 50 77  1  0  0  0  0
 51 72  1  0  0  0  0
 52 67  1  0  0  0  0
 53 71  1  0  0  0  0
 54 87  1  0  0  0  0
 56 66  1  0  0  0  0
 57 67  1  0  0  0  0
 58 68  1  0  0  0  0
 59 68  1  0  0  0  0
 60 68  1  0  0  0  0
 61 80  1  0  0  0  0
 62 63  1  0  0  0  0
 62 64  1  0  0  0  0
 63 76  1  0  0  0  0
 64 79  1  0  0  0  0
 65 68  1  0  0  0  0
 65 78  1  0  0  0  0
 66 80  1  0  0  0  0
 67 70  1  0  0  0  0
 69 71  1  0  0  0  0
M  CHG  1  80   1
M  ISO  4  36 100  54 101  79 100  87 101
M  END
> <Batch ID>
0136

> <Smiles>
CNC(C)C(=O)NC(C(=O)N1Cc2cc([101O:1][101CH:1]3CCC(C(C)n4ccc(NCCC[100NH:0][100C:0](=O)N5CCCC(n6nc(-c7ccc(Oc8ccc(F)cc8F)cc7)c(C(N)=O)c6N)C5)c4C)CC3)ccc2CC1C(=O)NC1CCCc2ccccc21)C(C)(C)C

> <Shape>
0.262

> <Color>
0.071

> <Negative vol penalty>
0.000

$$$$

  -OEChem-04052321023D

 85 94  0     1  0  0  0  0  0999 V2000
  -32.2532  -14.3071   20.8536 C   0  0  0  0  0  0  0  0  0  0  0  0
  -31.3764  -15.3324   21.1934 C   0  0  0  0  0  0  0  0  0  0  0  0
  -28.5536  -27.0695   21.1612 C   0  0  0  0  0  0  0  0  0  0  0  0
  -26.9012  -25.7526   19.9898 C   0  0  0  0  0  0  0  0  0  0  0  0
  -31.7778  -13.1757   20.1919 C   0  0  0  0  0  0  0  0  0  0  0  0
  -30.0239  -15.2274   20.8707 C   0  0  0  0  0  0  0  0  0  0  0  0
  -25.2867  -17.3309   24.1325 C   0  0  0  0  0  0  0  0  0  0  0  0
  -22.4702  -23.0369   22.9960 C   0  0  0  0  0  0  0  0  0  0  0  0
  -21.5619  -24.0819   22.8270 C   0  0  0  0  0  0  0  0  0  0  0  0
  -29.3562  -25.9374   21.3019 C   0  0  0  0  0  0  0  0  0  0  0  0
  -27.7038  -24.6205   20.1304 C   0  0  0  0  0  0  0  0  0  0  0  0
  -24.5140  -18.4866   24.0262 C   0  0  0  0  0  0  0  0  0  0  0  0
  -28.4378  -22.3714   22.5457 C   0  0  0  0  0  0  0  0  0  0  0  0
  -27.8220  -21.1863   22.9480 C   0  0  0  0  0  0  0  0  0  0  0  0
  -22.8652  -17.2606   22.7622 C   0  0  0  0  0  0  0  0  0  0  0  0
  -20.7878  -21.7648   24.1741 C   0  0  0  0  0  0  0  0  0  0  0  0
  -28.5361  -20.1203   20.9008 C   0  0  0  0  0  0  0  0  0  0  0  0
  -27.3261  -26.9771   20.5052 C   0  0  0  0  0  0  0  0  0  0  0  0
  -26.5099  -29.0719   19.2997 C   0  0  0  0  0  0  0  0  0  0  0  0
  -30.4171  -13.0524   19.8695 C   0  0  0  0  0  0  0  0  0  0  0  0
  -24.8589  -16.1321   23.5442 C   0  0  0  0  0  0  0  0  0  0  0  0
  -29.5302  -14.0938   20.2029 C   0  0  0  0  0  0  0  0  0  0  0  0
  -23.6330  -16.0905   22.8647 C   0  0  0  0  0  0  0  0  0  0  0  0
  -22.0832  -21.8784   23.6695 C   0  0  0  0  0  0  0  0  0  0  0  0
  -19.8794  -22.8099   24.0052 C   0  0  0  0  0  0  0  0  0  0  0  0
  -20.2665  -23.9684   23.3317 C   0  0  0  0  0  0  0  0  0  0  0  0
  -28.9314  -24.7129   20.7865 C   0  0  0  0  0  0  0  0  0  0  0  0
  -23.3045  -18.4522   23.3385 C   0  0  0  0  0  0  0  0  0  0  0  0
  -29.1028  -22.4310   21.3209 C   0  0  0  0  0  0  0  0  0  0  0  0
  -27.8711  -20.0607   22.1256 C   0  0  0  0  0  0  0  0  0  0  0  0
  -29.1519  -21.3054   20.4985 C   0  0  0  0  0  0  0  0  0  0  0  0
  -26.4963  -28.1461   20.3601 C   0  0  0  0  0  0  0  0  0  0  0  0
  -25.5426  -29.9887   19.6319 C   0  0  0  0  0  0  0  0  0  0  0  0
  -27.3241  -29.1007   18.1199 C   0  0  0  0  0  0  0  0  0  0  0  0
  -25.9981  -14.2123   21.2813 C   0  0  0  0  0  0  0  0  0  0  0  0
  -23.5085  -12.3317   22.1689 C   0  0  0  0  0  0  0  0  0  0  0  0
  -20.4183  -12.0999   23.5983 C   0  0  0  0  0  0  0  0  0  0  0  0
  -20.6884  -29.8023   22.9263 C   0  0  0  0  0  0  0  0  0  0  0  0
  -29.9583  -11.8317   19.1118 C   0  0  0  0  0  0  0  0  0  0  0  0
  -25.6911  -14.8878   23.6908 C   0  0  0  0  0  0  0  0  0  0  0  0
  -23.1193  -14.8236   22.2326 C   0  0  0  0  0  0  0  0  0  0  0  0
  -28.4453  -11.6308   19.1392 C   0  0  0  0  0  0  0  0  0  0  0  0
  -23.3582  -31.9481   23.3956 C   0  0  0  0  0  0  0  0  0  0  0  0
  -27.7271  -12.9420   18.8361 C   0  0  0  0  0  0  0  0  0  0  0  0
  -24.4817  -31.3123   22.5795 C   0  0  0  0  0  0  0  0  0  0  0  0
  -18.4585  -26.9940   22.0154 C   0  0  0  0  0  0  0  0  0  0  0  0
  -22.5547  -30.8835   24.1317 C   0  0  0  0  0  0  0  0  0  0  0  0
  -18.9779  -28.4085   21.7973 C   0  0  0  0  0  0  0  0  0  0  0  0
  -23.0722  -29.1990   22.3892 C   0  0  0  0  0  0  0  0  0  0  0  0
  -28.0518  -14.0057   19.8919 C   0  0  1  0  0  0  0  0  0  0  0  0
  -25.4049  -13.8471   22.6126 C   0  0  1  0  0  0  0  0  0  0  0  0
  -23.9272  -30.2358   21.6314 C   0  0  2  0  0  0  0  0  0  0  0  0
  -19.7044  -26.2419   22.4710 C   0  0  1  0  0  0  0  0  0  0  0  0
  -20.4407  -27.2646   23.3473 C   0  0  2  0  0  0  0  0  0  0  0  0
  -18.4983  -22.6617   24.5559 C   0  0  0  0  0  0  0  0  0  0  0  0
  -19.9641  -27.3212   24.8027 C   0  0  0  0  0  0  0  0  0  0  0  0
  -18.6215  -10.4362   24.1473 C   0  0  0  0  0  0  0  0  0  0  0  0
  -22.6673  -12.2763   19.2364 C   0  0  0  0  0  0  0  0  0  0  0  0
  -20.4236  -11.4406   19.9681 C   0  0  0  0  0  0  0  0  0  0  0  0
  -22.4667  -10.0829   20.4208 C   0  0  0  0  0  0  0  0  0  0  0  0
  -20.6355  -12.6479   26.4986 C   0  0  0  0  0  0  0  0  0  0  0  0
  -23.0547  -20.7613   23.8498 C   0  0  0  0  0  0  0  0  0  1  0  0
  -22.0655  -12.1983   21.7459 C   0  0  1  0  0  0  0  0  0  0  0  0
  -19.8631  -11.1563   24.6500 C   0  0  2  0  0  0  0  0  0  0  0  0
  -21.9161  -11.5240   20.3530 C   0  0  0  0  0  0  0  0  0  0  0  0
  -25.5922  -28.4472   21.2960 N   0  0  0  0  0  0  0  0  0  0  0  0
  -25.0287  -29.5726   20.8248 N   0  0  0  0  0  0  0  0  0  0  0  0
  -23.9720  -13.6350   22.3979 N   0  0  0  0  0  0  0  0  0  0  0  0
  -22.0549  -29.8593   23.2161 N   0  0  0  0  0  0  0  0  0  0  0  0
  -20.1455  -28.5433   22.6655 N   0  0  0  0  0  0  0  0  0  0  0  0
  -25.0900  -31.1021   19.0171 N   0  0  0  0  0  0  0  0  0  0  0  0
  -28.2685  -28.0817   17.9348 N   0  0  0  0  0  0  0  0  0  0  0  0
  -19.3759  -25.0182   23.1544 N   0  0  0  0  0  0  0  0  0  0  0  0
  -27.2933  -13.7659   21.1009 N   0  0  0  0  0  0  0  0  0  0  0  0
  -21.3868  -11.4925   22.8274 N   0  0  0  0  0  0  0  0  0  0  0  0
  -19.5020  -11.9104   25.8836 N   0  3  0  0  0  0  0  0  0  0  0  0
  -27.2287  -30.0122   17.2635 O   0  0  0  0  0  0  0  0  0  0  0  0
  -25.3296  -14.8507   20.4767 O   0  0  0  0  0  0  0  0  0  0  0  0
  -24.1971  -11.3164   22.2983 O   0  0  0  0  0  0  0  0  0  0  0  0
  -20.0289  -13.2586   23.4710 O   0  0  0  0  0  0  0  0  0  0  0  0
  -19.9842  -30.8197   22.9365 O   0  0  0  0  0  0  0  0  0  0  0  0
  -29.7144  -23.6081   20.9233 O   0  0  0  0  0  0  0  0  0  0  0  0
  -22.5435  -19.5866   23.2319 O   0  0  0  0  0  0  0  0  0  1  0  0
  -27.2810  -18.9223   22.5127 F   0  0  0  0  0  0  0  0  0  0  0  0
  -29.7902  -21.3563   19.3213 F   0  0  0  0  0  0  0  0  0  0  0  0
  1  2  1  0  0  0  0
  1  5  2  0  0  0  0
  2  6  2  0  0  0  0
  3 10  2  0  0  0  0
  3 18  1  0  0  0  0
  4 11  1  0  0  0  0
  4 18  2  0  0  0  0
  5 20  1  0  0  0  0
  6 22  1  0  0  0  0
  7 12  2  0  0  0  0
  7 21  1  0  0  0  0
  8  9  2  0  0  0  0
  8 24  1  0  0  0  0
  9 26  1  0  0  0  0
 10 27  1  0  0  0  0
 11 27  2  0  0  0  0
 12 28  1  0  0  0  0
 13 14  2  0  0  0  0
 13 29  1  0  0  0  0
 14 30  1  0  0  0  0
 15 23  1  0  0  0  0
 15 28  2  0  0  0  0
 16 24  2  0  0  0  0
 16 25  1  0  0  0  0
 17 30  2  0  0  0  0
 17 31  1  0  0  0  0
 18 32  1  0  0  0  0
 19 32  1  0  0  0  0
 19 33  2  0  0  0  0
 19 34  1  0  0  0  0
 20 22  2  0  0  0  0
 20 39  1  0  0  0  0
 21 23  2  0  0  0  0
 21 40  1  0  0  0  0
 22 50  1  0  0  0  0
 23 41  1  0  0  0  0
 24 62  1  0  0  0  0
 25 26  2  0  0  0  0
 25 55  1  0  0  0  0
 26 73  1  0  0  0  0
 27 82  1  0  0  0  0
 28 83  1  0  0  0  0
 29 31  2  0  0  0  0
 29 82  1  0  0  0  0
 30 84  1  0  0  0  0
 31 85  1  0  0  0  0
 32 66  2  0  0  0  0
 33 67  1  0  0  0  0
 33 71  1  0  0  0  0
 34 72  1  0  0  0  0
 34 77  2  0  0  0  0
 35 51  1  0  0  0  0
 35 74  1  0  0  0  0
 35 78  2  0  0  0  0
 36 63  1  0  0  0  0
 36 68  1  0  0  0  0
 36 79  2  0  0  0  0
 37 64  1  0  0  0  0
 37 75  1  0  0  0  0
 37 80  2  0  0  0  0
 38 69  1  0  0  0  0
 38 70  1  0  0  0  0
 38 81  2  0  0  0  0
 39 42  1  0  0  0  0
 40 51  1  0  0  0  0
 41 68  1  0  0  0  0
 42 44  1  0  0  0  0
 43 45  1  0  0  0  0
 43 47  1  0  0  0  0
 44 50  1  0  0  0  0
 45 52  1  0  0  0  0
 46 48  1  0  0  0  0
 46 53  1  0  0  0  0
 47 69  1  0  0  0  0
 48 70  1  0  0  0  0
 49 52  1  0  0  0  0
 49 69  1  0  0  0  0
 50 74  1  0  0  0  0
 51 68  1  0  0  0  0
 52 67  1  0  0  0  0
 53 54  1  0  0  0  0
 53 73  1  0  0  0  0
 54 56  1  0  0  0  0
 54 70  1  0  0  0  0
 57 64  1  0  0  0  0
 58 65  1  0  0  0  0
 59 65  1  0  0  0  0
 60 65  1  0  0  0  0
 61 76  1  0  0  0  0
 62 83  1  0  0  0  0
 63 65  1  0  0  0  0
 63 75  1  0  0  0  0
 64 76  1  0  0  0  0
 66 67  1  0  0  0  0
M  CHG  1  76   1
M  ISO  4  38 100  62 101  70 100  83 101
M  END
> <Batch ID>
0136

> <Smiles>
CNC(C)C(=O)NC(C(=O)N1Cc2cc([101O:1][101CH2:1]c3ccc(NC4CC[100N:0]([100C:0](=O)N5CCCC(n6nc(-c7ccc(Oc8ccc(F)cc8F)cc7)c(C(N)=O)c6N)C5)C4C)c(C)c3)ccc2CC1C(=O)NC1CCCc2ccccc21)C(C)(C)C

> <Shape>
0.259

> <Color>
0.066

> <Negative vol penalty>
0.000

$$$$

  -OEChem-04052321023D

 84 92  0     1  0  0  0  0  0999 V2000
  -27.0665  -32.5249   26.6521 C   0  0  0  0  0  0  0  0  0  0  0  0
  -28.0076  -31.9135   25.8299 C   0  0  0  0  0  0  0  0  0  0  0  0
  -24.1197   -9.6458   21.8671 C   0  0  0  0  0  0  0  0  0  0  0  0
  -22.1068  -10.3352   20.7224 C   0  0  0  0  0  0  0  0  0  0  0  0
  -25.8290  -31.9186   26.8639 C   0  0  0  0  0  0  0  0  0  0  0  0
  -27.7121  -30.6949   25.2199 C   0  0  0  0  0  0  0  0  0  0  0  0
  -29.0146  -26.9898   19.2289 C   0  0  0  0  0  0  0  0  0  0  0  0
  -26.7405  -21.4018   21.4204 C   0  0  0  0  0  0  0  0  0  0  0  0
  -26.9310  -19.5859   19.8382 C   0  0  0  0  0  0  0  0  0  0  0  0
  -23.7131   -8.3144   21.7804 C   0  0  0  0  0  0  0  0  0  0  0  0
  -21.7002   -9.0037   20.6356 C   0  0  0  0  0  0  0  0  0  0  0  0
  -29.4682  -25.7386   18.8134 C   0  0  0  0  0  0  0  0  0  0  0  0
  -28.0850  -21.7156   21.2221 C   0  0  0  0  0  0  0  0  0  0  0  0
  -28.2756  -19.8998   19.6399 C   0  0  0  0  0  0  0  0  0  0  0  0
  -23.6675   -5.8710   19.4435 C   0  0  0  0  0  0  0  0  0  0  0  0
  -24.6160   -4.9280   19.0477 C   0  0  0  0  0  0  0  0  0  0  0  0
  -27.2681  -24.8232   19.1886 C   0  0  0  0  0  0  0  0  0  0  0  0
  -24.3265   -3.7580   21.1416 C   0  0  0  0  0  0  0  0  0  0  0  0
  -23.3165  -10.6562   21.3382 C   0  0  0  0  0  0  0  0  0  0  0  0
  -24.5108  -12.7470   20.4955 C   0  0  0  0  0  0  0  0  0  0  0  0
  -25.5145  -30.6967   26.2484 C   0  0  0  0  0  0  0  0  0  0  0  0
  -27.6849  -27.1649   19.6384 C   0  0  0  0  0  0  0  0  0  0  0  0
  -26.4697  -30.0711   25.4247 C   0  0  0  0  0  0  0  0  0  0  0  0
  -26.7994  -26.0781   19.6063 C   0  0  0  0  0  0  0  0  0  0  0  0
  -26.1635  -20.3368   20.7285 C   0  0  0  0  0  0  0  0  0  0  0  0
  -22.5034   -7.9933   21.1646 C   0  0  0  0  0  0  0  0  0  0  0  0
  -28.8526  -20.9647   20.3319 C   0  0  0  0  0  0  0  0  0  0  0  0
  -28.5956  -24.6544   18.7960 C   0  0  0  0  0  0  0  0  0  0  0  0
  -23.0485   -5.7576   20.6884 C   0  0  0  0  0  0  0  0  0  0  0  0
  -24.9455   -3.8715   19.8968 C   0  0  0  0  0  0  0  0  0  0  0  0
  -23.3780   -4.7011   21.5374 C   0  0  0  0  0  0  0  0  0  0  0  0
  -23.7358  -12.0318   21.4281 C   0  0  0  0  0  0  0  0  0  0  0  0
  -24.6305  -14.0025   21.0394 C   0  0  0  0  0  0  0  0  0  0  0  0
  -25.0723  -12.3150   19.2490 C   0  0  0  0  0  0  0  0  0  0  0  0
  -26.2682  -28.0361   22.3472 C   0  0  0  0  0  0  0  0  0  0  0  0
  -23.5898  -27.9470   20.5195 C   0  0  0  0  0  0  0  0  0  0  0  0
  -22.0066  -26.7174   17.7575 C   0  0  0  0  0  0  0  0  0  0  0  0
  -22.3987  -18.4278   23.6048 C   0  0  0  0  0  0  0  0  0  0  0  0
  -24.1816  -30.0564   26.5451 C   0  0  0  0  0  0  0  0  0  0  0  0
  -27.2043  -28.5269   20.0583 C   0  0  0  0  0  0  0  0  0  0  0  0
  -25.3571  -26.2180   20.0168 C   0  0  0  0  0  0  0  0  0  0  0  0
  -23.8054  -28.9499   25.5630 C   0  0  0  0  0  0  0  0  0  0  0  0
  -23.4626  -15.7167   25.6529 C   0  0  0  0  0  0  0  0  0  0  0  0
  -24.9870  -28.0121   25.3372 C   0  0  0  0  0  0  0  0  0  0  0  0
  -23.6862  -14.5743   24.6604 C   0  0  0  0  0  0  0  0  0  0  0  0
  -22.2709  -16.5848   25.2551 C   0  0  0  0  0  0  0  0  0  0  0  0
  -22.5427  -15.9666   22.8849 C   0  0  0  0  0  0  0  0  0  0  0  0
  -26.1770  -28.7613   24.7256 C   0  0  1  0  0  0  0  0  0  0  0  0
  -25.9626  -28.4758   20.9433 C   0  0  1  0  0  0  0  0  0  0  0  0
  -23.7680  -15.0966   23.2135 C   0  0  2  0  0  0  0  0  0  0  0  0
  -19.8093  -26.7962   16.5479 C   0  0  0  0  0  0  0  0  0  0  0  0
  -31.9937  -21.1711   18.6053 C   0  0  0  0  0  0  0  0  0  0  0  0
  -22.3727  -26.0925   22.6146 C   0  0  0  0  0  0  0  0  0  0  0  0
  -20.6222  -25.4627   20.9392 C   0  0  0  0  0  0  0  0  0  0  0  0
  -20.8070  -27.8249   21.7192 C   0  0  0  0  0  0  0  0  0  0  0  0
  -23.2542  -27.8518   15.3253 C   0  0  0  0  0  0  0  0  0  0  0  0
  -23.9606  -20.7473   21.8259 C   0  0  0  0  0  0  0  0  0  0  0  0
  -22.5567  -20.1620   21.8365 C   0  0  0  0  0  0  0  0  0  0  0  0
  -30.4106  -23.1273   18.6236 C   0  0  0  0  0  0  0  0  0  1  0  0
  -22.5706  -26.8906   20.1672 C   0  0  1  0  0  0  0  0  0  0  0  0
  -21.1983  -27.4032   16.6709 C   0  0  2  0  0  0  0  0  0  0  0  0
  -30.5567  -21.6220   18.8088 C   0  0  2  0  0  0  0  0  0  0  0  0
  -21.6208  -26.5643   21.3541 C   0  0  0  0  0  0  0  0  0  0  0  0
  -23.3877  -12.7715   22.4844 N   0  0  0  0  0  0  0  0  0  0  0  0
  -23.9467  -13.9644   22.2190 N   0  0  0  0  0  0  0  0  0  0  0  0
  -24.9365  -27.5684   20.4255 N   0  0  0  0  0  0  0  0  0  0  0  0
  -22.4109  -17.0490   23.8727 N   0  0  0  0  0  0  0  0  0  0  0  0
  -25.2528  -15.1242   20.6191 N   0  0  0  0  0  0  0  0  0  0  0  0
  -24.8529  -10.9926   18.8399 N   0  0  0  0  0  0  0  0  0  0  0  0
  -24.8041  -20.0195   20.9290 N   0  0  0  0  0  0  0  0  0  0  0  0
  -25.9641  -28.9788   23.3107 N   0  0  0  0  0  0  0  0  0  0  0  0
  -21.8878  -27.3657   18.9687 N   0  0  0  0  0  0  0  0  0  0  0  0
  -22.5434  -18.7823   22.2691 N   0  0  0  0  0  0  0  0  0  0  0  0
  -21.8856  -27.2748   15.3549 N   0  3  0  0  0  0  0  0  0  0  0  0
  -25.7623  -13.0744   18.5274 O   0  0  0  0  0  0  0  0  0  0  0  0
  -26.7432  -26.9234   22.5420 O   0  0  0  0  0  0  0  0  0  0  0  0
  -23.2053  -29.0690   20.8585 O   0  0  0  0  0  0  0  0  0  0  0  0
  -22.6736  -25.7055   17.5533 O   0  0  0  0  0  0  0  0  0  0  0  0
  -22.2740  -19.2799   24.4910 O   0  0  0  0  0  0  0  0  0  0  0  0
  -22.1064   -6.6942   21.0795 O   0  0  0  0  0  0  0  0  0  0  0  0
  -29.0360  -23.4320   18.3915 O   0  0  0  0  0  0  0  0  0  1  0  0
  -30.1713  -21.2725   20.1374 O   0  0  0  0  0  0  0  0  0  0  0  0
  -25.8553   -2.9652   19.5160 F   0  0  0  0  0  0  0  0  0  0  0  0
  -22.7858   -4.5862   22.7340 F   0  0  0  0  0  0  0  0  0  0  0  0
  1  2  1  0  0  0  0
  1  5  2  0  0  0  0
  2  6  2  0  0  0  0
  3 10  2  0  0  0  0
  3 19  1  0  0  0  0
  4 11  1  0  0  0  0
  4 19  2  0  0  0  0
  5 21  1  0  0  0  0
  6 23  1  0  0  0  0
  7 12  2  0  0  0  0
  7 22  1  0  0  0  0
  8 13  2  0  0  0  0
  8 25  1  0  0  0  0
  9 14  1  0  0  0  0
  9 25  2  0  0  0  0
 10 26  1  0  0  0  0
 11 26  2  0  0  0  0
 12 28  1  0  0  0  0
 13 27  1  0  0  0  0
 14 27  2  0  0  0  0
 15 16  2  0  0  0  0
 15 29  1  0  0  0  0
 16 30  1  0  0  0  0
 17 24  1  0  0  0  0
 17 28  2  0  0  0  0
 18 30  2  0  0  0  0
 18 31  1  0  0  0  0
 19 32  1  0  0  0  0
 20 32  1  0  0  0  0
 20 33  2  0  0  0  0
 20 34  1  0  0  0  0
 21 23  2  0  0  0  0
 21 39  1  0  0  0  0
 22 24  2  0  0  0  0
 22 40  1  0  0  0  0
 23 48  1  0  0  0  0
 24 41  1  0  0  0  0
 25 70  1  0  0  0  0
 26 80  1  0  0  0  0
 27 82  1  0  0  0  0
 28 81  1  0  0  0  0
 29 31  2  0  0  0  0
 29 80  1  0  0  0  0
 30 83  1  0  0  0  0
 31 84  1  0  0  0  0
 32 64  2  0  0  0  0
 33 65  1  0  0  0  0
 33 68  1  0  0  0  0
 34 69  1  0  0  0  0
 34 75  2  0  0  0  0
 35 49  1  0  0  0  0
 35 71  1  0  0  0  0
 35 76  2  0  0  0  0
 36 60  1  0  0  0  0
 36 66  1  0  0  0  0
 36 77  2  0  0  0  0
 37 61  1  0  0  0  0
 37 72  1  0  0  0  0
 37 78  2  0  0  0  0
 38 67  1  0  0  0  0
 38 73  1  0  0  0  0
 38 79  2  0  0  0  0
 39 42  1  0  0  0  0
 40 49  1  0  0  0  0
 41 66  1  0  0  0  0
 42 44  1  0  0  0  0
 43 45  1  0  0  0  0
 43 46  1  0  0  0  0
 44 48  1  0  0  0  0
 45 50  1  0  0  0  0
 46 67  1  0  0  0  0
 47 50  1  0  0  0  0
 47 67  1  0  0  0  0
 48 71  1  0  0  0  0
 49 66  1  0  0  0  0
 50 65  1  0  0  0  0
 51 61  1  0  0  0  0
 52 62  1  0  0  0  0
 53 63  1  0  0  0  0
 54 63  1  0  0  0  0
 55 63  1  0  0  0  0
 56 74  1  0  0  0  0
 57 58  1  0  0  0  0
 57 70  1  0  0  0  0
 58 73  1  0  0  0  0
 59 62  1  0  0  0  0
 59 81  1  0  0  0  0
 60 63  1  0  0  0  0
 60 72  1  0  0  0  0
 61 74  1  0  0  0  0
 62 82  1  0  0  0  0
 64 65  1  0  0  0  0
M  CHG  1  74   1
M  ISO  4  38 100  59 101  73 100  81 101
M  END
> <Batch ID>
0136

> <Smiles>
CNC(C)C(=O)NC(C(=O)N1Cc2cc([101O:1][101CH2:1]C(C)Oc3ccc(NCC[100NH:0][100C:0](=O)N4CCCC(n5nc(-c6ccc(Oc7ccc(F)cc7F)cc6)c(C(N)=O)c5N)C4)cc3)ccc2CC1C(=O)NC1CCCc2ccccc21)C(C)(C)C

> <Shape>
0.237

> <Color>
0.095

> <Negative vol penalty>
0.000

$$$$

  -OEChem-04052321023D

 84 93  0     1  0  0  0  0  0999 V2000
  -41.5991  -25.9295   20.3837 C   0  0  0  0  0  0  0  0  0  0  0  0
  -40.7016  -25.3412   21.2691 C   0  0  0  0  0  0  0  0  0  0  0  0
  -23.0773   -9.8646   19.9438 C   0  0  0  0  0  0  0  0  0  0  0  0
  -23.8344   -9.8779   22.2381 C   0  0  0  0  0  0  0  0  0  0  0  0
  -41.2399  -27.0876   19.6955 C   0  0  0  0  0  0  0  0  0  0  0  0
  -39.4446  -25.9114   21.4675 C   0  0  0  0  0  0  0  0  0  0  0  0
  -35.7283  -22.4713   21.4635 C   0  0  0  0  0  0  0  0  0  0  0  0
  -32.6422  -17.5008   23.4581 C   0  0  0  0  0  0  0  0  0  0  0  0
  -32.0543  -16.6187   22.5478 C   0  0  0  0  0  0  0  0  0  0  0  0
  -22.3336   -8.7119   20.1959 C   0  0  0  0  0  0  0  0  0  0  0  0
  -23.0906   -8.7251   22.4902 C   0  0  0  0  0  0  0  0  0  0  0  0
  -35.5600  -21.7145   22.6222 C   0  0  0  0  0  0  0  0  0  0  0  0
  -19.8619   -7.9277   23.0908 C   0  0  0  0  0  0  0  0  0  0  0  0
  -19.1036   -7.8905   24.2608 C   0  0  0  0  0  0  0  0  0  0  0  0
  -29.8766  -17.4580   23.1366 C   0  0  0  0  0  0  0  0  0  0  0  0
  -33.7334  -23.1446   23.2836 C   0  0  0  0  0  0  0  0  0  0  0  0
  -20.3448   -5.9555   25.0039 C   0  0  0  0  0  0  0  0  0  0  0  0
  -23.8278  -10.4476   20.9649 C   0  0  0  0  0  0  0  0  0  0  0  0
  -24.1688  -12.9726   20.8387 C   0  0  0  0  0  0  0  0  0  0  0  0
  -39.9743  -27.6668   19.8783 C   0  0  0  0  0  0  0  0  0  0  0  0
  -34.9062  -23.5788   21.2110 C   0  0  0  0  0  0  0  0  0  0  0  0
  -39.0686  -27.0791   20.7821 C   0  0  0  0  0  0  0  0  0  0  0  0
  -30.4598  -18.3566   24.0417 C   0  0  0  0  0  0  0  0  0  0  0  0
  -33.8917  -23.9123   22.1197 C   0  0  0  0  0  0  0  0  0  0  0  0
  -31.8553  -18.3853   24.2132 C   0  0  0  0  0  0  0  0  0  0  0  0
  -30.6731  -16.5975   22.3863 C   0  0  0  0  0  0  0  0  0  0  0  0
  -22.3401   -8.1421   21.4690 C   0  0  0  0  0  0  0  0  0  0  0  0
  -34.5643  -22.0528   23.5339 C   0  0  0  0  0  0  0  0  0  0  0  0
  -20.8617   -6.9787   22.8772 C   0  0  0  0  0  0  0  0  0  0  0  0
  -19.3450   -6.9045   25.2174 C   0  0  0  0  0  0  0  0  0  0  0  0
  -21.1031   -5.9926   23.8338 C   0  0  0  0  0  0  0  0  0  0  0  0
  -24.5967  -11.6381   20.7050 C   0  0  0  0  0  0  0  0  0  0  0  0
  -25.2612  -13.7215   20.4748 C   0  0  0  0  0  0  0  0  0  0  0  0
  -31.6779  -20.3063   25.7712 C   0  0  0  0  0  0  0  0  0  0  0  0
  -22.8976  -13.4890   21.2547 C   0  0  0  0  0  0  0  0  0  0  0  0
  -35.3939  -26.6994   20.8534 C   0  0  0  0  0  0  0  0  0  0  0  0
  -32.2374  -26.7116   20.1058 C   0  0  0  0  0  0  0  0  0  0  0  0
  -29.1912  -25.1961   20.3717 C   0  0  0  0  0  0  0  0  0  0  0  0
  -30.7267  -14.7696   20.6536 C   0  0  0  0  0  0  0  0  0  0  0  0
  -39.6487  -28.9454   19.1477 C   0  0  0  0  0  0  0  0  0  0  0  0
  -35.0832  -24.3689   19.9434 C   0  0  0  0  0  0  0  0  0  0  0  0
  -29.5868  -19.2266   24.8972 C   0  0  0  0  0  0  0  0  0  0  0  0
  -32.9694  -25.0797   21.8853 C   0  0  0  0  0  0  0  0  0  0  0  0
  -30.2971  -20.5304   25.1921 C   0  0  0  0  0  0  0  0  0  0  0  0
  -38.1584  -29.2758   19.1325 C   0  0  0  0  0  0  0  0  0  0  0  0
  -29.6162  -12.3492   18.2903 C   0  0  0  0  0  0  0  0  0  0  0  0
  -37.5595  -29.1045   20.5249 C   0  0  0  0  0  0  0  0  0  0  0  0
  -28.1761  -12.0582   18.7188 C   0  0  0  0  0  0  0  0  0  0  0  0
  -30.5297  -12.5815   19.4924 C   0  0  0  0  0  0  0  0  0  0  0  0
  -28.6208  -13.3088   20.8694 C   0  0  0  0  0  0  0  0  0  0  0  0
  -37.6866  -27.6538   21.0055 C   0  0  1  0  0  0  0  0  0  0  0  0
  -34.5235  -25.7849   20.0387 C   0  0  1  0  0  0  0  0  0  0  0  0
  -27.6495  -13.1321   19.6909 C   0  0  2  0  0  0  0  0  0  0  0  0
  -26.7921  -25.4619   19.6853 C   0  0  0  0  0  0  0  0  0  0  0  0
  -31.8697  -28.8664   22.2346 C   0  0  0  0  0  0  0  0  0  0  0  0
  -29.4090  -28.4085   22.1736 C   0  0  0  0  0  0  0  0  0  0  0  0
  -30.5711  -29.2456   20.1311 C   0  0  0  0  0  0  0  0  0  0  0  0
  -29.2234  -22.6561   18.8530 C   0  0  0  0  0  0  0  0  0  0  0  0
  -33.8371  -19.1416   25.5244 C   0  0  0  0  0  0  0  0  0  0  0  0
  -34.7421  -19.9330   24.5972 C   0  0  0  0  0  0  0  0  0  1  0  0
  -30.9544  -26.8635   20.8867 C   0  0  1  0  0  0  0  0  0  0  0  0
  -28.1409  -24.8561   19.3297 C   0  0  2  0  0  0  0  0  0  0  0  0
  -30.7195  -28.3251   21.3622 C   0  0  0  0  0  0  0  0  0  0  0  0
  -25.8622  -11.5417   20.2886 N   0  0  0  0  0  0  0  0  0  0  0  0
  -26.2387  -12.8250   20.1573 N   0  0  0  0  0  0  0  0  0  0  0  0
  -32.4294  -19.2904   25.1663 N   0  0  0  0  0  0  0  0  0  0  0  0
  -33.1864  -25.8252   20.6345 N   0  0  0  0  0  0  0  0  0  0  0  0
  -29.9692  -13.6144   20.3664 N   0  0  0  0  0  0  0  0  0  0  0  0
  -25.4712  -15.0529   20.3986 N   0  0  0  0  0  0  0  0  0  0  0  0
  -21.8856  -12.5804   21.5931 N   0  0  0  0  0  0  0  0  0  0  0  0
  -30.0780  -15.6965   21.4688 N   0  0  0  0  0  0  0  0  0  0  0  0
  -36.6841  -26.8226   20.3743 N   0  0  0  0  0  0  0  0  0  0  0  0
  -29.8938  -26.3341   20.0363 N   0  0  0  0  0  0  0  0  0  0  0  0
  -27.9785  -23.3787   19.2208 N   0  3  0  0  0  0  0  0  0  0  0  0
  -32.0969  -21.0572   26.6547 O   0  0  0  0  0  0  0  0  0  0  0  0
  -22.6609  -14.7197   21.3085 O   0  0  0  0  0  0  0  0  0  0  0  0
  -34.9288  -27.2535   21.8426 O   0  0  0  0  0  0  0  0  0  0  0  0
  -32.3889  -27.3503   19.0615 O   0  0  0  0  0  0  0  0  0  0  0  0
  -29.3680  -24.5218   21.3840 O   0  0  0  0  0  0  0  0  0  0  0  0
  -31.8563  -14.9375   20.1869 O   0  0  0  0  0  0  0  0  0  0  0  0
  -21.6143   -7.0174   21.7154 O   0  0  0  0  0  0  0  0  0  0  0  0
  -34.3982  -21.3162   24.6660 O   0  0  0  0  0  0  0  0  0  1  0  0
  -18.6176   -6.8699   26.3417 F   0  0  0  0  0  0  0  0  0  0  0  0
  -22.0630   -5.0790   23.6347 F   0  0  0  0  0  0  0  0  0  0  0  0
  1  2  1  0  0  0  0
  1  5  2  0  0  0  0
  2  6  2  0  0  0  0
  3 10  2  0  0  0  0
  3 18  1  0  0  0  0
  4 11  1  0  0  0  0
  4 18  2  0  0  0  0
  5 20  1  0  0  0  0
  6 22  1  0  0  0  0
  7 12  2  0  0  0  0
  7 21  1  0  0  0  0
  8  9  2  0  0  0  0
  8 25  1  0  0  0  0
  9 26  1  0  0  0  0
 10 27  1  0  0  0  0
 11 27  2  0  0  0  0
 12 28  1  0  0  0  0
 13 14  2  0  0  0  0
 13 29  1  0  0  0  0
 14 30  1  0  0  0  0
 15 23  1  0  0  0  0
 15 26  2  0  0  0  0
 16 24  1  0  0  0  0
 16 28  2  0  0  0  0
 17 30  2  0  0  0  0
 17 31  1  0  0  0  0
 18 32  1  0  0  0  0
 19 32  1  0  0  0  0
 19 33  2  0  0  0  0
 19 35  1  0  0  0  0
 20 22  2  0  0  0  0
 20 40  1  0  0  0  0
 21 24  2  0  0  0  0
 21 41  1  0  0  0  0
 22 51  1  0  0  0  0
 23 25  2  0  0  0  0
 23 42  1  0  0  0  0
 24 43  1  0  0  0  0
 25 66  1  0  0  0  0
 26 71  1  0  0  0  0
 27 81  1  0  0  0  0
 28 82  1  0  0  0  0
 29 31  2  0  0  0  0
 29 81  1  0  0  0  0
 30 83  1  0  0  0  0
 31 84  1  0  0  0  0
 32 64  2  0  0  0  0
 33 65  1  0  0  0  0
 33 69  1  0  0  0  0
 34 44  1  0  0  0  0
 34 66  1  0  0  0  0
 34 75  2  0  0  0  0
 35 70  1  0  0  0  0
 35 76  2  0  0  0  0
 36 52  1  0  0  0  0
 36 72  1  0  0  0  0
 36 77  2  0  0  0  0
 37 61  1  0  0  0  0
 37 67  1  0  0  0  0
 37 78  2  0  0  0  0
 38 62  1  0  0  0  0
 38 73  1  0  0  0  0
 38 79  2  0  0  0  0
 39 68  1  0  0  0  0
 39 71  1  0  0  0  0
 39 80  2  0  0  0  0
 40 45  1  0  0  0  0
 41 52  1  0  0  0  0
 42 44  1  0  0  0  0
 43 67  1  0  0  0  0
 45 47  1  0  0  0  0
 46 48  1  0  0  0  0
 46 49  1  0  0  0  0
 47 51  1  0  0  0  0
 48 53  1  0  0  0  0
 49 68  1  0  0  0  0
 50 53  1  0  0  0  0
 50 68  1  0  0  0  0
 51 72  1  0  0  0  0
 52 67  1  0  0  0  0
 53 65  1  0  0  0  0
 54 62  1  0  0  0  0
 55 63  1  0  0  0  0
 56 63  1  0  0  0  0
 57 63  1  0  0  0  0
 58 74  1  0  0  0  0
 59 60  1  0  0  0  0
 59 66  1  0  0  0  0
 60 82  1  0  0  0  0
 61 63  1  0  0  0  0
 61 73  1  0  0  0  0
 62 74  1  0  0  0  0
 64 65  1  0  0  0  0
M  CHG  1  74   1
M  ISO  4  39 100  60 101  71 100  82 101
M  END
> <Batch ID>
0136

> <Smiles>
CNC(C)C(=O)NC(C(=O)N1Cc2cc([101O:1][101CH2:1]CN3C(=O)CCc4cc([100NH:0][100C:0](=O)N5CCCC(n6nc(-c7ccc(Oc8ccc(F)cc8F)cc7)c(C(N)=O)c6N)C5)ccc43)ccc2CC1C(=O)NC1CCCc2ccccc21)C(C)(C)C

> <Shape>
0.216

> <Color>
0.192

> <Negative vol penalty>
0.000

$$$$

  -OEChem-04052321023D

 84 92  0     1  0  0  0  0  0999 V2000
  -29.7475  -12.3047   19.9316 C   0  0  0  0  0  0  0  0  0  0  0  0
  -29.6379  -13.6131   19.4716 C   0  0  0  0  0  0  0  0  0  0  0  0
  -29.5067  -28.3752   20.3861 C   0  0  0  0  0  0  0  0  0  0  0  0
  -27.7888  -27.2090   19.1508 C   0  0  0  0  0  0  0  0  0  0  0  0
  -28.5996  -11.5811   20.2517 C   0  0  0  0  0  0  0  0  0  0  0  0
  -28.3802  -14.1983   19.3306 C   0  0  0  0  0  0  0  0  0  0  0  0
  -25.0820  -20.5364   19.8472 C   0  0  0  0  0  0  0  0  0  0  0  0
  -30.3568  -27.2792   20.2385 C   0  0  0  0  0  0  0  0  0  0  0  0
  -28.6389  -26.1130   19.0032 C   0  0  0  0  0  0  0  0  0  0  0  0
  -24.2500  -21.3806   19.1132 C   0  0  0  0  0  0  0  0  0  0  0  0
  -29.6893  -23.5042   20.8799 C   0  0  0  0  0  0  0  0  0  0  0  0
  -29.1574  -22.2357   21.1113 C   0  0  0  0  0  0  0  0  0  0  0  0
  -22.3406  -20.0618   19.7720 C   0  0  0  0  0  0  0  0  0  0  0  0
  -20.1719  -25.0170   19.0032 C   0  0  0  0  0  0  0  0  0  0  0  0
  -29.6951  -21.5967   18.8442 C   0  0  0  0  0  0  0  0  0  0  0  0
  -21.3424  -24.2875   20.9411 C   0  0  0  0  0  0  0  0  0  0  0  0
  -28.2226  -28.3400   19.8423 C   0  0  0  0  0  0  0  0  0  0  0  0
  -27.2186  -30.5737   19.1281 C   0  0  0  0  0  0  0  0  0  0  0  0
  -27.3276  -12.1610   20.1237 C   0  0  0  0  0  0  0  0  0  0  0  0
  -24.5500  -19.4403   20.5415 C   0  0  0  0  0  0  0  0  0  0  0  0
  -27.2140  -13.4813   19.6481 C   0  0  0  0  0  0  0  0  0  0  0  0
  -23.1676  -19.2066   20.5162 C   0  0  0  0  0  0  0  0  0  0  0  0
  -20.6921  -23.9261   18.3156 C   0  0  0  0  0  0  0  0  0  0  0  0
  -20.4989  -25.2085   20.3411 C   0  0  0  0  0  0  0  0  0  0  0  0
  -29.9229  -26.1482   19.5471 C   0  0  0  0  0  0  0  0  0  0  0  0
  -22.8794  -21.1417   19.0731 C   0  0  0  0  0  0  0  0  0  0  0  0
  -30.2240  -23.8191   19.6306 C   0  0  0  0  0  0  0  0  0  0  0  0
  -29.1604  -21.2819   20.0935 C   0  0  0  0  0  0  0  0  0  0  0  0
  -30.2269  -22.8653   18.6128 C   0  0  0  0  0  0  0  0  0  0  0  0
  -27.3438  -29.4716   19.9949 C   0  0  0  0  0  0  0  0  0  0  0  0
  -21.5272  -23.0625   19.0059 C   0  0  0  0  0  0  0  0  0  1  0  0
  -26.2599  -31.3640   19.7137 C   0  0  0  0  0  0  0  0  0  0  0  0
  -27.9073  -30.8578   17.9030 C   0  0  0  0  0  0  0  0  0  0  0  0
  -24.9259  -16.2879   20.3834 C   0  0  0  0  0  0  0  0  0  0  0  0
  -23.0438  -16.3224   23.0251 C   0  0  0  0  0  0  0  0  0  0  0  0
  -20.6899  -17.9501   24.8842 C   0  0  0  0  0  0  0  0  0  0  0  0
  -21.7494  -30.1928   23.4734 C   0  0  0  0  0  0  0  0  0  0  0  0
  -26.1130  -11.3235   20.4371 C   0  0  0  0  0  0  0  0  0  0  0  0
  -25.4575  -18.5547   21.3505 C   0  0  0  0  0  0  0  0  0  0  0  0
  -22.5442  -18.0554   21.2608 C   0  0  0  0  0  0  0  0  0  0  0  0
  -24.8377  -12.1431   20.6159 C   0  0  0  0  0  0  0  0  0  0  0  0
  -24.4280  -32.4808   23.9901 C   0  0  0  0  0  0  0  0  0  0  0  0
  -24.6994  -13.1671   19.4939 C   0  0  0  0  0  0  0  0  0  0  0  0
  -25.4677  -32.0685   22.9466 C   0  0  0  0  0  0  0  0  0  0  0  0
  -23.6945  -31.2709   24.5646 C   0  0  0  0  0  0  0  0  0  0  0  0
  -24.1220  -29.9704   22.5153 C   0  0  0  0  0  0  0  0  0  0  0  0
  -25.8686  -14.1593   19.5053 C   0  0  1  0  0  0  0  0  0  0  0  0
  -24.8723  -17.1681   21.6000 C   0  0  1  0  0  0  0  0  0  0  0  0
  -24.8488  -31.1609   21.8665 C   0  0  2  0  0  0  0  0  0  0  0  0
  -20.8420  -24.8636   15.9806 C   0  0  0  0  0  0  0  0  0  0  0  0
  -18.8446  -23.4833   16.6589 C   0  0  0  0  0  0  0  0  0  0  0  0
  -19.3183  -17.7120   26.9722 C   0  0  0  0  0  0  0  0  0  0  0  0
  -21.2158  -14.3414   21.5955 C   0  0  0  0  0  0  0  0  0  0  0  0
  -19.4400  -14.8722   23.2786 C   0  0  0  0  0  0  0  0  0  0  0  0
  -21.5925  -13.8517   24.0188 C   0  0  0  0  0  0  0  0  0  0  0  0
  -21.8933  -20.3703   26.0897 C   0  0  0  0  0  0  0  0  0  0  0  0
  -19.5430  -27.7614   22.9662 C   0  0  0  0  0  0  0  0  0  0  0  0
  -20.2988  -26.5415   22.4408 C   0  0  0  0  0  0  0  0  0  0  0  0
  -19.9008  -29.0669   22.2593 C   0  0  0  0  0  0  0  0  0  0  0  0
  -20.3523  -23.7128   16.8813 C   0  0  0  0  0  0  0  0  0  0  0  0
  -21.5566  -16.2690   23.2789 C   0  0  1  0  0  0  0  0  0  0  0  0
  -20.6087  -18.2468   26.3708 C   0  0  2  0  0  0  0  0  0  0  0  0
  -20.9629  -14.8542   23.0272 C   0  0  0  0  0  0  0  0  0  0  0  0
  -21.8666  -23.2155   20.3056 N   0  0  0  0  0  0  0  0  0  0  0  0
  -26.5298  -29.5511   21.0509 N   0  0  0  0  0  0  0  0  0  0  0  0
  -25.8840  -30.7127   20.8515 N   0  0  0  0  0  0  0  0  0  0  0  0
  -23.4740  -17.2142   22.0323 N   0  0  0  0  0  0  0  0  0  0  0  0
  -23.1298  -30.4526   23.4888 N   0  0  0  0  0  0  0  0  0  0  0  0
  -25.7103  -32.5455   19.3612 N   0  0  0  0  0  0  0  0  0  0  0  0
  -28.8615  -29.9393   17.4446 N   0  0  0  0  0  0  0  0  0  0  0  0
  -19.9909  -26.3018   21.0615 N   0  0  0  0  0  0  0  0  0  0  0  0
  -25.6848  -15.1450   20.5488 N   0  0  0  0  0  0  0  0  0  0  0  0
  -21.3557  -16.7688   24.6348 N   0  0  0  0  0  0  0  0  0  0  0  0
  -21.2956  -29.4145   22.4155 N   0  0  0  0  0  0  0  0  0  0  0  0
  -20.6646  -19.7168   26.6095 N   0  3  0  0  0  0  0  0  0  0  0  0
  -27.6949  -31.9033   17.2433 O   0  0  0  0  0  0  0  0  0  0  0  0
  -24.3223  -16.6204   19.3701 O   0  0  0  0  0  0  0  0  0  0  0  0
  -23.7966  -15.6048   23.6883 O   0  0  0  0  0  0  0  0  0  0  0  0
  -20.2073  -18.6903   24.0300 O   0  0  0  0  0  0  0  0  0  0  0  0
  -20.9778  -30.6271   24.3353 O   0  0  0  0  0  0  0  0  0  0  0  0
  -30.7523  -25.0787   19.4027 O   0  0  0  0  0  0  0  0  0  0  0  0
  -22.0652  -21.9638   18.3568 O   0  0  0  0  0  0  0  0  0  1  0  0
  -28.6510  -20.0633   20.3164 F   0  0  0  0  0  0  0  0  0  0  0  0
  -30.7403  -23.1615   17.4109 F   0  0  0  0  0  0  0  0  0  0  0  0
  1  2  1  0  0  0  0
  1  5  2  0  0  0  0
  2  6  2  0  0  0  0
  3  8  2  0  0  0  0
  3 17  1  0  0  0  0
  4  9  1  0  0  0  0
  4 17  2  0  0  0  0
  5 19  1  0  0  0  0
  6 21  1  0  0  0  0
  7 10  2  0  0  0  0
  7 20  1  0  0  0  0
  8 25  1  0  0  0  0
  9 25  2  0  0  0  0
 10 26  1  0  0  0  0
 11 12  2  0  0  0  0
 11 27  1  0  0  0  0
 12 28  1  0  0  0  0
 13 22  1  0  0  0  0
 13 26  2  0  0  0  0
 14 23  1  0  0  0  0
 14 24  2  0  0  0  0
 15 28  2  0  0  0  0
 15 29  1  0  0  0  0
 16 24  1  0  0  0  0
 16 64  2  0  0  0  0
 17 30  1  0  0  0  0
 18 30  1  0  0  0  0
 18 32  2  0  0  0  0
 18 33  1  0  0  0  0
 19 21  2  0  0  0  0
 19 38  1  0  0  0  0
 20 22  2  0  0  0  0
 20 39  1  0  0  0  0
 21 47  1  0  0  0  0
 22 40  1  0  0  0  0
 23 31  2  0  0  0  0
 23 60  1  0  0  0  0
 24 71  1  0  0  0  0
 25 81  1  0  0  0  0
 26 82  1  0  0  0  0
 27 29  2  0  0  0  0
 27 81  1  0  0  0  0
 28 83  1  0  0  0  0
 29 84  1  0  0  0  0
 30 65  2  0  0  0  0
 31 64  1  0  0  0  0
 31 82  1  0  0  0  0
 32 66  1  0  0  0  0
 32 69  1  0  0  0  0
 33 70  1  0  0  0  0
 33 76  2  0  0  0  0
 34 48  1  0  0  0  0
 34 72  1  0  0  0  0
 34 77  2  0  0  0  0
 35 61  1  0  0  0  0
 35 67  1  0  0  0  0
 35 78  2  0  0  0  0
 36 62  1  0  0  0  0
 36 73  1  0  0  0  0
 36 79  2  0  0  0  0
 37 68  1  0  0  0  0
 37 74  1  0  0  0  0
 37 80  2  0  0  0  0
 38 41  1  0  0  0  0
 39 48  1  0  0  0  0
 40 67  1  0  0  0  0
 41 43  1  0  0  0  0
 42 44  1  0  0  0  0
 42 45  1  0  0  0  0
 43 47  1  0  0  0  0
 44 49  1  0  0  0  0
 45 68  1  0  0  0  0
 46 49  1  0  0  0  0
 46 68  1  0  0  0  0
 47 72  1  0  0  0  0
 48 67  1  0  0  0  0
 49 66  1  0  0  0  0
 50 60  1  0  0  0  0
 51 60  1  0  0  0  0
 52 62  1  0  0  0  0
 53 63  1  0  0  0  0
 54 63  1  0  0  0  0
 55 63  1  0  0  0  0
 56 75  1  0  0  0  0
 57 58  1  0  0  0  0
 57 59  1  0  0  0  0
 58 71  1  0  0  0  0
 59 74  1  0  0  0  0
 61 63  1  0  0  0  0
 61 73  1  0  0  0  0
 62 75  1  0  0  0  0
 65 66  1  0  0  0  0
M  CHG  1  75   1
M  ISO  4  31 101  37 100  74 100  82 101
M  END
> <Batch ID>
0136

> <Smiles>
CNC(C)C(=O)NC(C(=O)N1Cc2cc([101O:1][101c:1]3ncc(NCCC[100NH:0][100C:0](=O)N4CCCC(n5nc(-c6ccc(Oc7ccc(F)cc7F)cc6)c(C(N)=O)c5N)C4)cc3C(C)C)ccc2CC1C(=O)NC1CCCc2ccccc21)C(C)(C)C

> <Shape>
0.237

> <Color>
0.073

> <Negative vol penalty>
0.000

$$$$
