
  -OEChem-04052321053D

 85 94  0     1  0  0  0  0  0999 V2000
  -28.0366  -33.1407   25.7781 C   0  0  0  0  0  0  0  0  0  0  0  0
  -28.4416  -31.8586   25.4208 C   0  0  0  0  0  0  0  0  0  0  0  0
  -22.7572  -10.3514   21.9023 C   0  0  0  0  0  0  0  0  0  0  0  0
  -23.9567   -9.5403   19.9683 C   0  0  0  0  0  0  0  0  0  0  0  0
  -26.7065  -33.5229   25.6089 C   0  0  0  0  0  0  0  0  0  0  0  0
  -27.5163  -30.9575   24.8951 C   0  0  0  0  0  0  0  0  0  0  0  0
  -28.5510  -26.6867   20.6295 C   0  0  0  0  0  0  0  0  0  0  0  0
  -22.1585   -9.1010   22.0554 C   0  0  0  0  0  0  0  0  0  0  0  0
  -23.3580   -8.2898   20.1215 C   0  0  0  0  0  0  0  0  0  0  0  0
  -28.8008  -25.3177   20.7141 C   0  0  0  0  0  0  0  0  0  0  0  0
  -23.0034   -6.0693   23.2914 C   0  0  0  0  0  0  0  0  0  0  0  0
  -22.9524   -5.5279   24.5759 C   0  0  0  0  0  0  0  0  0  0  0  0
  -29.8570  -20.5156   22.0636 C   0  0  0  0  0  0  0  0  0  0  0  0
  -26.4609  -24.8731   20.3316 C   0  0  0  0  0  0  0  0  0  0  0  0
  -29.0200  -20.4363   19.8007 C   0  0  0  0  0  0  0  0  0  0  0  0
  -20.5399   -5.4739   24.4572 C   0  0  0  0  0  0  0  0  0  0  0  0
  -23.6563  -10.5711   20.8587 C   0  0  0  0  0  0  0  0  0  0  0  0
  -25.4862  -12.3010   21.2671 C   0  0  0  0  0  0  0  0  0  0  0  0
  -25.7666  -32.6292   25.0718 C   0  0  0  0  0  0  0  0  0  0  0  0
  -27.2503  -27.1603   20.4058 C   0  0  0  0  0  0  0  0  0  0  0  0
  -26.1721  -31.3277   24.7198 C   0  0  0  0  0  0  0  0  0  0  0  0
  -29.9163  -19.1161   22.1024 C   0  0  0  0  0  0  0  0  0  0  0  0
  -26.1977  -26.2486   20.2420 C   0  0  0  0  0  0  0  0  0  0  0  0
  -29.5431  -18.3727   20.9673 C   0  0  0  0  0  0  0  0  0  0  0  0
  -29.4087  -21.1718   20.9177 C   0  0  0  0  0  0  0  0  0  0  0  0
  -29.0830  -19.0432   19.8255 C   0  0  0  0  0  0  0  0  0  0  0  0
  -22.4589   -8.0702   21.1651 C   0  0  0  0  0  0  0  0  0  0  0  0
  -27.7553  -24.4107   20.5680 C   0  0  0  0  0  0  0  0  0  0  0  0
  -21.8227   -6.3130   22.5898 C   0  0  0  0  0  0  0  0  0  0  0  0
  -21.7206   -5.2302   25.1588 C   0  0  0  0  0  0  0  0  0  0  0  0
  -20.5909   -6.0153   23.1727 C   0  0  0  0  0  0  0  0  0  0  0  0
  -24.2747  -11.8628   20.6996 C   0  0  0  0  0  0  0  0  0  0  0  0
  -25.6307  -13.5899   20.8151 C   0  0  0  0  0  0  0  0  0  0  0  0
  -26.3993  -11.6051   22.1259 C   0  0  0  0  0  0  0  0  0  0  0  0
  -25.2133  -28.9770   22.0350 C   0  0  0  0  0  0  0  0  0  0  0  0
  -23.4411  -28.7377   19.3287 C   0  0  0  0  0  0  0  0  0  0  0  0
  -22.7102  -26.9914   16.4891 C   0  0  0  0  0  0  0  0  0  0  0  0
  -25.4000  -17.3617   16.7083 C   0  0  0  0  0  0  0  0  0  0  0  0
  -24.3299  -33.0722   24.9516 C   0  0  0  0  0  0  0  0  0  0  0  0
  -27.0018  -28.6393   20.2905 C   0  0  0  0  0  0  0  0  0  0  0  0
  -29.5682  -16.8635   20.9867 C   0  0  0  0  0  0  0  0  0  0  0  0
  -24.7865  -26.7052   19.9800 C   0  0  0  0  0  0  0  0  0  0  0  0
  -30.4279  -18.4290   23.3376 C   0  0  0  0  0  0  0  0  0  0  0  0
  -23.4919  -32.1806   24.0388 C   0  0  0  0  0  0  0  0  0  0  0  0
  -22.3674  -16.6250   18.4222 C   0  0  0  0  0  0  0  0  0  0  0  0
  -23.7363  -30.7093   24.3587 C   0  0  0  0  0  0  0  0  0  0  0  0
  -22.6914  -15.3537   19.2089 C   0  0  0  0  0  0  0  0  0  0  0  0
  -23.0574  -16.6369   17.0600 C   0  0  0  0  0  0  0  0  0  0  0  0
  -24.8399  -15.1507   17.8892 C   0  0  0  0  0  0  0  0  0  0  0  0
  -30.4862  -16.2942   22.0610 C   0  0  0  0  0  0  0  0  0  0  0  0
  -25.2033  -30.3299   24.1232 C   0  0  1  0  0  0  0  0  0  0  0  0
  -25.5530  -29.0256   20.5722 C   0  0  1  0  0  0  0  0  0  0  0  0
  -24.2115  -15.1184   19.2929 C   0  0  2  0  0  0  0  0  0  0  0  0
  -21.1892  -27.0233   14.4934 C   0  0  0  0  0  0  0  0  0  0  0  0
  -21.1340  -27.7687   21.0746 C   0  0  0  0  0  0  0  0  0  0  0  0
  -20.0084  -26.9311   19.0011 C   0  0  0  0  0  0  0  0  0  0  0  0
  -20.4749  -29.3671   19.2676 C   0  0  0  0  0  0  0  0  0  0  0  0
  -24.9891  -27.1764   14.6099 C   0  0  0  0  0  0  0  0  0  0  0  0
  -29.3441  -22.6705   20.8891 C   0  0  0  0  0  0  0  0  0  1  0  0
  -28.1811  -18.9811   17.4999 C   0  0  0  0  0  0  0  0  0  0  0  0
  -27.7944  -17.9579   16.4430 C   0  0  0  0  0  0  0  0  0  0  0  0
  -22.3911  -27.7799   18.8196 C   0  0  1  0  0  0  0  0  0  0  0  0
  -22.5438  -27.4367   15.0475 C   0  0  2  0  0  0  0  0  0  0  0  0
  -21.0282  -27.9528   19.5476 C   0  0  0  0  0  0  0  0  0  0  0  0
  -23.6909  -12.7975   19.9449 N   0  0  0  0  0  0  0  0  0  0  0  0
  -24.5393  -13.8359   20.0350 N   0  0  0  0  0  0  0  0  0  0  0  0
  -24.5933  -28.1614   19.8820 N   0  0  0  0  0  0  0  0  0  0  0  0
  -24.4968  -16.4100   17.2099 N   0  0  0  0  0  0  0  0  0  0  0  0
  -26.5836  -14.5255   21.0128 N   0  0  0  0  0  0  0  0  0  0  0  0
  -26.0982  -10.2865   22.4931 N   0  0  0  0  0  0  0  0  0  0  0  0
  -28.6636  -18.3322   18.6768 N   0  0  0  0  0  0  0  0  0  0  0  0
  -25.4601  -30.1576   22.7094 N   0  0  0  0  0  0  0  0  0  0  0  0
  -22.3262  -27.9755   17.3753 N   0  0  0  0  0  0  0  0  0  0  0  0
  -26.7457  -17.0723   16.8979 N   0  0  0  0  0  0  0  0  0  0  0  0
  -30.1641  -16.9541   23.3601 N   0  3  0  0  0  0  0  0  0  0  0  0
  -23.6051  -26.8331   14.1930 N   0  3  0  0  0  0  0  0  0  0  0  0
  -27.4430  -12.1424   22.5682 O   0  0  0  0  0  0  0  0  0  0  0  0
  -24.7595  -27.9453   22.5160 O   0  0  0  0  0  0  0  0  0  0  0  0
  -23.2492  -29.9524   19.2323 O   0  0  0  0  0  0  0  0  0  0  0  0
  -23.1348  -25.8802   16.7982 O   0  0  0  0  0  0  0  0  0  0  0  0
  -25.0340  -18.3954   16.1387 O   0  0  0  0  0  0  0  0  0  0  0  0
  -21.8750   -6.8498   21.3143 O   0  0  0  0  0  0  0  0  0  0  0  0
  -27.9962  -23.0740   20.6508 O   0  0  0  0  0  0  0  0  0  1  0  0
  -21.6718   -4.7089   26.3917 F   0  0  0  0  0  0  0  0  0  0  0  0
  -19.4533   -6.2461   22.5032 F   0  0  0  0  0  0  0  0  0  0  0  0
  1  2  1  0  0  0  0
  1  5  2  0  0  0  0
  2  6  2  0  0  0  0
  3  8  2  0  0  0  0
  3 17  1  0  0  0  0
  4  9  1  0  0  0  0
  4 17  2  0  0  0  0
  5 19  1  0  0  0  0
  6 21  1  0  0  0  0
  7 10  2  0  0  0  0
  7 20  1  0  0  0  0
  8 27  1  0  0  0  0
  9 27  2  0  0  0  0
 10 28  1  0  0  0  0
 11 12  2  0  0  0  0
 11 29  1  0  0  0  0
 12 30  1  0  0  0  0
 13 22  2  0  0  0  0
 13 25  1  0  0  0  0
 14 23  1  0  0  0  0
 14 28  2  0  0  0  0
 15 25  2  0  0  0  0
 15 26  1  0  0  0  0
 16 30  2  0  0  0  0
 16 31  1  0  0  0  0
 17 32  1  0  0  0  0
 18 32  1  0  0  0  0
 18 33  2  0  0  0  0
 18 34  1  0  0  0  0
 19 21  2  0  0  0  0
 19 39  1  0  0  0  0
 20 23  2  0  0  0  0
 20 40  1  0  0  0  0
 21 51  1  0  0  0  0
 22 24  1  0  0  0  0
 22 43  1  0  0  0  0
 23 42  1  0  0  0  0
 24 26  2  0  0  0  0
 24 41  1  0  0  0  0
 25 59  1  0  0  0  0
 26 71  1  0  0  0  0
 27 82  1  0  0  0  0
 28 83  1  0  0  0  0
 29 31  2  0  0  0  0
 29 82  1  0  0  0  0
 30 84  1  0  0  0  0
 31 85  1  0  0  0  0
 32 65  2  0  0  0  0
 33 66  1  0  0  0  0
 33 69  1  0  0  0  0
 34 70  1  0  0  0  0
 34 77  2  0  0  0  0
 35 52  1  0  0  0  0
 35 72  1  0  0  0  0
 35 78  2  0  0  0  0
 36 62  1  0  0  0  0
 36 67  1  0  0  0  0
 36 79  2  0  0  0  0
 37 63  1  0  0  0  0
 37 73  1  0  0  0  0
 37 80  2  0  0  0  0
 38 68  1  0  0  0  0
 38 74  1  0  0  0  0
 38 81  2  0  0  0  0
 39 44  1  0  0  0  0
 40 52  1  0  0  0  0
 41 50  1  0  0  0  0
 42 67  1  0  0  0  0
 43 75  1  0  0  0  0
 44 46  1  0  0  0  0
 45 47  1  0  0  0  0
 45 48  1  0  0  0  0
 46 51  1  0  0  0  0
 47 53  1  0  0  0  0
 48 68  1  0  0  0  0
 49 53  1  0  0  0  0
 49 68  1  0  0  0  0
 50 75  1  0  0  0  0
 51 72  1  0  0  0  0
 52 67  1  0  0  0  0
 53 66  1  0  0  0  0
 54 63  1  0  0  0  0
 55 64  1  0  0  0  0
 56 64  1  0  0  0  0
 57 64  1  0  0  0  0
 58 76  1  0  0  0  0
 59 83  1  0  0  0  0
 60 61  1  0  0  0  0
 60 71  1  0  0  0  0
 61 74  1  0  0  0  0
 62 64  1  0  0  0  0
 62 73  1  0  0  0  0
 63 76  1  0  0  0  0
 65 66  1  0  0  0  0
M  CHG  2  75   1  76   1
M  ISO  4  38 100  59 101  74 100  83 101
M  END
> <Batch ID>
0137

> <Smiles>
CNC(C)C(=O)NC(C(=O)N1Cc2cc([101O:1][101CH2:1]c3cc4c(c(NCC[100NH:0][100C:0](=O)N5CCCC(n6nc(-c7ccc(Oc8ccc(F)cc8F)cc7)c(C(N)=O)c6N)C5)c3)CCNC4)ccc2CC1C(=O)NC1CCCc2ccccc21)C(C)(C)C

> <Shape>
0.294

> <Color>
0.079

> <Negative vol penalty>
0.000

$$$$

  -OEChem-04052321053D

 82 90  0     1  0  0  0  0  0999 V2000
  -39.5483  -20.3216   14.0225 C   0  0  0  0  0  0  0  0  0  0  0  0
  -38.3250  -20.3476   14.6845 C   0  0  0  0  0  0  0  0  0  0  0  0
  -23.0736   -9.8710   19.9402 C   0  0  0  0  0  0  0  0  0  0  0  0
  -23.8388   -9.8731   22.2318 C   0  0  0  0  0  0  0  0  0  0  0  0
  -40.1755  -21.5165   13.6719 C   0  0  0  0  0  0  0  0  0  0  0  0
  -37.7286  -21.5687   14.9973 C   0  0  0  0  0  0  0  0  0  0  0  0
  -32.7776  -21.6411   13.9355 C   0  0  0  0  0  0  0  0  0  0  0  0
  -22.3307   -8.7170   20.1893 C   0  0  0  0  0  0  0  0  0  0  0  0
  -23.0958   -8.7192   22.4810 C   0  0  0  0  0  0  0  0  0  0  0  0
  -31.9243  -21.0023   14.8342 C   0  0  0  0  0  0  0  0  0  0  0  0
  -19.8693   -7.9189   23.0891 C   0  0  0  0  0  0  0  0  0  0  0  0
  -19.1151   -7.8762   24.2616 C   0  0  0  0  0  0  0  0  0  0  0  0
  -31.3686  -23.1356   15.8136 C   0  0  0  0  0  0  0  0  0  0  0  0
  -29.4151  -20.0978   19.2820 C   0  0  0  0  0  0  0  0  0  0  0  0
  -20.3588   -5.9375   24.9909 C   0  0  0  0  0  0  0  0  0  0  0  0
  -26.7038  -20.5772   19.2570 C   0  0  0  0  0  0  0  0  0  0  0  0
  -23.8277  -10.4490   20.9614 C   0  0  0  0  0  0  0  0  0  0  0  0
  -24.1684  -12.9745   20.8463 C   0  0  0  0  0  0  0  0  0  0  0  0
  -39.5818  -22.7527   13.9720 C   0  0  0  0  0  0  0  0  0  0  0  0
  -32.9415  -23.0332   13.9764 C   0  0  0  0  0  0  0  0  0  0  0  0
  -38.3491  -22.7812   14.6516 C   0  0  0  0  0  0  0  0  0  0  0  0
  -32.2227  -23.7899   14.9127 C   0  0  0  0  0  0  0  0  0  0  0  0
  -27.2017  -19.5728   20.0749 C   0  0  0  0  0  0  0  0  0  0  0  0
  -28.5725  -19.3340   20.0842 C   0  0  0  0  0  0  0  0  0  0  0  0
  -22.3418   -8.1411   21.4597 C   0  0  0  0  0  0  0  0  0  0  0  0
  -31.2219  -21.7493   15.7753 C   0  0  0  0  0  0  0  0  0  0  0  0
  -20.8683   -6.9710   22.8674 C   0  0  0  0  0  0  0  0  0  0  0  0
  -19.3598   -6.8855   25.2126 C   0  0  0  0  0  0  0  0  0  0  0  0
  -21.1130   -5.9803   23.8183 C   0  0  0  0  0  0  0  0  0  0  0  0
  -24.5958  -11.6407   20.7046 C   0  0  0  0  0  0  0  0  0  0  0  0
  -28.8612  -21.0888   18.4842 C   0  0  0  0  0  0  0  0  0  0  0  0
  -25.2595  -13.7252   20.4821 C   0  0  0  0  0  0  0  0  0  0  0  0
  -22.8987  -13.4890   21.2692 C   0  0  0  0  0  0  0  0  0  0  0  0
  -35.3895  -24.9890   14.5108 C   0  0  0  0  0  0  0  0  0  0  0  0
  -33.2340  -27.2757   13.7066 C   0  0  0  0  0  0  0  0  0  0  0  0
  -29.9621  -28.2133   13.4559 C   0  0  0  0  0  0  0  0  0  0  0  0
  -30.7433  -14.7456   20.6602 C   0  0  0  0  0  0  0  0  0  0  0  0
  -40.3204  -24.0183   13.6150 C   0  0  0  0  0  0  0  0  0  0  0  0
  -33.8453  -23.7099   12.9826 C   0  0  0  0  0  0  0  0  0  0  0  0
  -32.3479  -25.2891   14.9847 C   0  0  0  0  0  0  0  0  0  0  0  0
  -39.4421  -25.2664   13.6497 C   0  0  0  0  0  0  0  0  0  0  0  0
  -29.6010  -12.3661   18.2707 C   0  0  0  0  0  0  0  0  0  0  0  0
  -38.6020  -25.2929   14.9226 C   0  0  0  0  0  0  0  0  0  0  0  0
  -28.1647  -12.0709   18.7063 C   0  0  0  0  0  0  0  0  0  0  0  0
  -30.5208  -12.5845   19.4700 C   0  0  0  0  0  0  0  0  0  0  0  0
  -28.6220  -13.3119   20.8626 C   0  0  0  0  0  0  0  0  0  0  0  0
  -37.6586  -24.0856   14.9862 C   0  0  1  0  0  0  0  0  0  0  0  0
  -34.3288  -25.0791   13.4504 C   0  0  1  0  0  0  0  0  0  0  0  0
  -27.6452  -13.1396   19.6868 C   0  0  2  0  0  0  0  0  0  0  0  0
  -26.2600  -18.7808   20.9174 C   0  0  0  0  0  0  0  0  0  0  0  0
  -28.5141  -30.1557   12.8022 C   0  0  0  0  0  0  0  0  0  0  0  0
  -33.9131  -28.6642   16.3374 C   0  0  0  0  0  0  0  0  0  0  0  0
  -31.8224  -30.0177   16.0822 C   0  0  0  0  0  0  0  0  0  0  0  0
  -33.6413  -30.2035   14.3852 C   0  0  0  0  0  0  0  0  0  0  0  0
  -28.6610  -26.6654   11.2949 C   0  0  0  0  0  0  0  0  0  0  0  0
  -29.7002  -21.9550   17.5914 C   0  0  0  0  0  0  0  0  0  1  0  0
  -30.5250  -18.0404   20.9445 C   0  0  0  0  0  0  0  0  0  0  0  0
  -30.8113  -16.8935   21.9017 C   0  0  0  0  0  0  0  0  0  0  0  0
  -32.2273  -28.1091   14.4623 C   0  0  1  0  0  0  0  0  0  0  0  0
  -29.1876  -28.8762   12.3312 C   0  0  2  0  0  0  0  0  0  0  0  0
  -32.8999  -29.2202   15.3169 C   0  0  0  0  0  0  0  0  0  0  0  0
  -25.8597  -11.5462   20.2832 N   0  0  0  0  0  0  0  0  0  0  0  0
  -26.2359  -12.8302   20.1569 N   0  0  0  0  0  0  0  0  0  0  0  0
  -27.5376  -21.2976   18.4945 N   0  3  0  0  0  0  0  0  0  0  0  0
  -33.2488  -25.9039   13.9958 N   0  0  0  0  0  0  0  0  0  0  0  0
  -29.9720  -13.6109   20.3595 N   0  0  0  0  0  0  0  0  0  0  0  0
  -25.4693  -15.0569   20.4116 N   0  0  0  0  0  0  0  0  0  0  0  0
  -21.8879  -12.5787   21.6068 N   0  0  0  0  0  0  0  0  0  0  0  0
  -29.1244  -18.3229   20.9004 N   0  0  0  0  0  0  0  0  0  0  0  0
  -36.5165  -24.2906   14.1213 N   0  0  0  0  0  0  0  0  0  0  0  0
  -31.2830  -28.6087   13.4688 N   0  0  0  0  0  0  0  0  0  0  0  0
  -30.1458  -15.6724   21.5057 N   0  0  0  0  0  0  0  0  0  0  0  0
  -28.1367  -27.9553   11.8130 N   0  3  0  0  0  0  0  0  0  0  0  0
  -22.6622  -14.7194   21.3299 O   0  0  0  0  0  0  0  0  0  0  0  0
  -35.2001  -25.5154   15.6011 O   0  0  0  0  0  0  0  0  0  0  0  0
  -33.9749  -27.8207   12.8846 O   0  0  0  0  0  0  0  0  0  0  0  0
  -29.4461  -27.4264   14.2465 O   0  0  0  0  0  0  0  0  0  0  0  0
  -31.8782  -14.9225   20.2044 O   0  0  0  0  0  0  0  0  0  0  0  0
  -21.6167   -7.0152   21.7032 O   0  0  0  0  0  0  0  0  0  0  0  0
  -30.3888  -21.1282   16.6540 O   0  0  0  0  0  0  0  0  0  1  0  0
  -18.6365   -6.8454   26.3392 F   0  0  0  0  0  0  0  0  0  0  0  0
  -22.0722   -5.0675   23.6115 F   0  0  0  0  0  0  0  0  0  0  0  0
  1  2  1  0  0  0  0
  1  5  2  0  0  0  0
  2  6  2  0  0  0  0
  3  8  2  0  0  0  0
  3 17  1  0  0  0  0
  4  9  1  0  0  0  0
  4 17  2  0  0  0  0
  5 19  1  0  0  0  0
  6 21  1  0  0  0  0
  7 10  2  0  0  0  0
  7 20  1  0  0  0  0
  8 25  1  0  0  0  0
  9 25  2  0  0  0  0
 10 26  1  0  0  0  0
 11 12  2  0  0  0  0
 11 27  1  0  0  0  0
 12 28  1  0  0  0  0
 13 22  1  0  0  0  0
 13 26  2  0  0  0  0
 14 24  2  0  0  0  0
 14 31  1  0  0  0  0
 15 28  2  0  0  0  0
 15 29  1  0  0  0  0
 16 23  2  0  0  0  0
 16 64  1  0  0  0  0
 17 30  1  0  0  0  0
 18 30  1  0  0  0  0
 18 32  2  0  0  0  0
 18 33  1  0  0  0  0
 19 21  2  0  0  0  0
 19 38  1  0  0  0  0
 20 22  2  0  0  0  0
 20 39  1  0  0  0  0
 21 47  1  0  0  0  0
 22 40  1  0  0  0  0
 23 24  1  0  0  0  0
 23 50  1  0  0  0  0
 24 69  1  0  0  0  0
 25 79  1  0  0  0  0
 26 80  1  0  0  0  0
 27 29  2  0  0  0  0
 27 79  1  0  0  0  0
 28 81  1  0  0  0  0
 29 82  1  0  0  0  0
 30 62  2  0  0  0  0
 31 56  1  0  0  0  0
 31 64  2  0  0  0  0
 32 63  1  0  0  0  0
 32 67  1  0  0  0  0
 33 68  1  0  0  0  0
 33 74  2  0  0  0  0
 34 48  1  0  0  0  0
 34 70  1  0  0  0  0
 34 75  2  0  0  0  0
 35 59  1  0  0  0  0
 35 65  1  0  0  0  0
 35 76  2  0  0  0  0
 36 60  1  0  0  0  0
 36 71  1  0  0  0  0
 36 77  2  0  0  0  0
 37 66  1  0  0  0  0
 37 72  1  0  0  0  0
 37 78  2  0  0  0  0
 38 41  1  0  0  0  0
 39 48  1  0  0  0  0
 40 65  1  0  0  0  0
 41 43  1  0  0  0  0
 42 44  1  0  0  0  0
 42 45  1  0  0  0  0
 43 47  1  0  0  0  0
 44 49  1  0  0  0  0
 45 66  1  0  0  0  0
 46 49  1  0  0  0  0
 46 66  1  0  0  0  0
 47 70  1  0  0  0  0
 48 65  1  0  0  0  0
 49 63  1  0  0  0  0
 51 60  1  0  0  0  0
 52 61  1  0  0  0  0
 53 61  1  0  0  0  0
 54 61  1  0  0  0  0
 55 73  1  0  0  0  0
 56 80  1  0  0  0  0
 57 58  1  0  0  0  0
 57 69  1  0  0  0  0
 58 72  1  0  0  0  0
 59 61  1  0  0  0  0
 59 71  1  0  0  0  0
 60 73  1  0  0  0  0
 62 63  1  0  0  0  0
M  CHG  2  64   1  73   1
M  ISO  4  37 100  56 101  72 100  80 101
M  END
> <Batch ID>
0137

> <Smiles>
CNC(C)C(=O)NC(C(=O)N1Cc2cc([101O:1][101CH2:1]c3cc(NCC[100NH:0][100C:0](=O)N4CCCC(n5nc(-c6ccc(Oc7ccc(F)cc7F)cc6)c(C(N)=O)c5N)C4)c(C)cn3)ccc2CC1C(=O)NC1CCCc2ccccc21)C(C)(C)C

> <Shape>
0.203

> <Color>
0.191

> <Negative vol penalty>
0.000

$$$$

  -OEChem-04052321053D

 88 98  0     1  0  0  0  0  0999 V2000
  -21.6044  -12.2287   20.6776 C   0  0  0  0  0  0  0  0  0  0  0  0
  -21.5931  -13.5574   21.0896 C   0  0  0  0  0  0  0  0  0  0  0  0
  -30.0417  -27.9906   19.2177 C   0  0  0  0  0  0  0  0  0  0  0  0
  -28.9913  -25.9970   20.0893 C   0  0  0  0  0  0  0  0  0  0  0  0
  -22.8182  -11.5757   20.4671 C   0  0  0  0  0  0  0  0  0  0  0  0
  -22.7956  -14.2336   21.2924 C   0  0  0  0  0  0  0  0  0  0  0  0
  -22.7704  -18.8849   19.2899 C   0  0  0  0  0  0  0  0  0  0  0  0
  -31.2968  -27.4125   19.4079 C   0  0  0  0  0  0  0  0  0  0  0  0
  -30.2464  -25.4189   20.2795 C   0  0  0  0  0  0  0  0  0  0  0  0
  -22.0995  -19.8800   19.9994 C   0  0  0  0  0  0  0  0  0  0  0  0
  -34.7914  -26.5996   19.9997 C   0  0  0  0  0  0  0  0  0  0  0  0
  -35.7883  -27.3856   20.5777 C   0  0  0  0  0  0  0  0  0  0  0  0
  -21.8038  -23.4467   24.3434 C   0  0  0  0  0  0  0  0  0  0  0  0
  -24.2054  -20.6685   20.8728 C   0  0  0  0  0  0  0  0  0  0  0  0
  -21.4889  -24.6478   22.2837 C   0  0  0  0  0  0  0  0  0  0  0  0
  -34.4267  -27.6588   22.5546 C   0  0  0  0  0  0  0  0  0  0  0  0
  -20.9688  -24.3724   24.9482 C   0  0  0  0  0  0  0  0  0  0  0  0
  -28.8890  -27.2829   19.5585 C   0  0  0  0  0  0  0  0  0  0  0  0
  -26.7853  -27.8014   18.2118 C   0  0  0  0  0  0  0  0  0  0  0  0
  -24.0361  -12.2471   20.6581 C   0  0  0  0  0  0  0  0  0  0  0  0
  -24.1652  -18.7671   19.3752 C   0  0  0  0  0  0  0  0  0  0  0  0
  -24.0268  -13.5886   21.0855 C   0  0  0  0  0  0  0  0  0  0  0  0
  -24.8918  -19.6727   20.1614 C   0  0  0  0  0  0  0  0  0  0  0  0
  -22.0638  -23.5941   22.9855 C   0  0  0  0  0  0  0  0  0  0  0  0
  -31.3992  -26.1266   19.9388 C   0  0  0  0  0  0  0  0  0  0  0  0
  -22.8167  -20.7702   20.7933 C   0  0  0  0  0  0  0  0  0  0  0  0
  -33.6121  -26.3433   20.6991 C   0  0  0  0  0  0  0  0  0  0  0  0
  -35.6059  -27.9152   21.8551 C   0  0  0  0  0  0  0  0  0  0  0  0
  -33.4297  -26.8729   21.9766 C   0  0  0  0  0  0  0  0  0  0  0  0
  -27.5922  -27.8797   19.3628 C   0  0  0  0  0  0  0  0  0  0  0  0
  -20.6679  -25.5196   22.9806 C   0  0  0  0  0  0  0  0  0  0  0  0
  -25.6644  -28.5293   18.5282 C   0  0  0  0  0  0  0  0  0  0  0  0
  -27.0273  -27.1306   16.9680 C   0  0  0  0  0  0  0  0  0  0  0  0
  -26.1683  -16.5192   20.3939 C   0  0  0  0  0  0  0  0  0  0  0  0
  -28.4167  -18.5345   19.2085 C   0  0  0  0  0  0  0  0  0  0  0  0
  -29.2830  -21.7182   18.3362 C   0  0  0  0  0  0  0  0  0  0  0  0
  -22.2104  -29.6880   23.0274 C   0  0  0  0  0  0  0  0  0  0  0  0
  -25.3232  -11.4854   20.4636 C   0  0  0  0  0  0  0  0  0  0  0  0
  -24.8765  -17.7050   18.5826 C   0  0  0  0  0  0  0  0  0  0  0  0
  -26.3923  -19.6015   20.2708 C   0  0  0  0  0  0  0  0  0  0  0  0
  -26.5504  -12.3848   20.3391 C   0  0  0  0  0  0  0  0  0  0  0  0
  -24.6108  -32.0382   21.8479 C   0  0  0  0  0  0  0  0  0  0  0  0
  -26.5394  -13.4562   21.4248 C   0  0  0  0  0  0  0  0  0  0  0  0
  -17.2580  -23.7687   22.9116 C   0  0  0  0  0  0  0  0  0  0  0  0
  -16.6525  -23.4446   21.5743 C   0  0  0  0  0  0  0  0  0  0  0  0
  -25.5493  -31.1982   20.9798 C   0  0  0  0  0  0  0  0  0  0  0  0
  -24.1240  -31.2606   23.0686 C   0  0  0  0  0  0  0  0  0  0  0  0
  -24.4450  -29.1158   21.8979 C   0  0  0  0  0  0  0  0  0  0  0  0
  -19.3329  -28.9411   22.2952 C   0  0  0  0  0  0  0  0  0  0  0  0
  -25.3101  -14.3634   21.2922 C   0  0  1  0  0  0  0  0  0  0  0  0
  -20.0340  -26.6620   22.2593 C   0  0  2  0  0  0  0  0  0  0  0  0
  -26.2495  -17.3560   19.1486 C   0  0  1  0  0  0  0  0  0  0  0  0
  -17.8859  -24.3009   21.6533 C   0  0  0  0  0  0  0  0  0  0  0  0
  -24.9180  -29.8385   20.6250 C   0  0  2  0  0  0  0  0  0  0  0  0
  -20.3817  -28.0160   22.8882 C   0  0  1  0  0  0  0  0  0  0  0  0
  -18.5025  -26.6346   22.3781 C   0  0  2  0  0  0  0  0  0  0  0  0
  -31.2012  -23.0603   17.4325 C   0  0  0  0  0  0  0  0  0  0  0  0
  -29.7823  -18.4138   21.9344 C   0  0  0  0  0  0  0  0  0  0  0  0
  -31.0914  -20.4486   21.2911 C   0  0  0  0  0  0  0  0  0  0  0  0
  -31.3430  -18.3404   19.9816 C   0  0  0  0  0  0  0  0  0  0  0  0
  -27.7371  -22.5361   15.9486 C   0  0  0  0  0  0  0  0  0  0  0  0
  -22.9616  -22.6198   22.2812 C   0  0  0  0  0  0  0  0  0  1  0  0
  -29.2160  -19.6893   19.7623 C   0  0  1  0  0  0  0  0  0  0  0  0
  -29.9442  -22.2763   17.0888 C   0  0  2  0  0  0  0  0  0  0  0  0
  -17.8098  -25.7856   21.3268 C   0  0  1  0  0  0  0  0  0  0  0  0
  -30.3297  -19.2234   20.7420 C   0  0  0  0  0  0  0  0  0  0  0  0
  -20.3921  -25.4087   24.2994 N   0  0  0  0  0  0  0  0  0  0  0  0
  -27.0316  -28.6006   20.3375 N   0  0  0  0  0  0  0  0  0  0  0  0
  -25.8605  -28.9820   19.7998 N   0  0  0  0  0  0  0  0  0  0  0  0
  -27.0416  -18.5417   19.4818 N   0  0  0  0  0  0  0  0  0  0  0  0
  -23.5348  -29.9821   22.6632 N   0  0  0  0  0  0  0  0  0  0  0  0
  -24.5400  -28.8200   17.8400 N   0  0  0  0  0  0  0  0  0  0  0  0
  -28.2303  -26.4288   16.8104 N   0  0  0  0  0  0  0  0  0  0  0  0
  -25.5015  -15.3209   20.2240 N   0  0  0  0  0  0  0  0  0  0  0  0
  -29.7083  -20.4352   18.6091 N   0  0  0  0  0  0  0  0  0  0  0  0
  -21.7274  -28.4581   22.5975 N   0  0  0  0  0  0  0  0  0  0  0  0
  -18.1019  -28.0823   22.2051 N   0  3  0  0  0  0  0  0  0  0  0  0
  -29.0072  -23.1832   16.3675 N   0  3  0  0  0  0  0  0  0  0  0  0
  -26.2086  -27.1666   16.0183 O   0  0  0  0  0  0  0  0  0  0  0  0
  -26.6746  -16.9296   21.4317 O   0  0  0  0  0  0  0  0  0  0  0  0
  -28.9902  -17.6622   18.5514 O   0  0  0  0  0  0  0  0  0  0  0  0
  -28.4733  -22.3578   19.0038 O   0  0  0  0  0  0  0  0  0  0  0  0
  -21.5086  -30.4662   23.6822 O   0  0  0  0  0  0  0  0  0  0  0  0
  -18.4179  -26.0163   20.0586 O   0  0  0  0  0  0  0  0  0  0  0  0
  -32.6237  -25.5621   20.1243 O   0  0  0  0  0  0  0  0  0  0  0  0
  -22.1643  -21.7420   21.4874 O   0  0  0  0  0  0  0  0  0  1  0  0
  -36.5640  -28.6687   22.4107 F   0  0  0  0  0  0  0  0  0  0  0  0
  -32.2994  -26.6291   22.6539 F   0  0  0  0  0  0  0  0  0  0  0  0
  1  2  1  0  0  0  0
  1  5  2  0  0  0  0
  2  6  2  0  0  0  0
  3  8  2  0  0  0  0
  3 18  1  0  0  0  0
  4  9  1  0  0  0  0
  4 18  2  0  0  0  0
  5 20  1  0  0  0  0
  6 22  1  0  0  0  0
  7 10  2  0  0  0  0
  7 21  1  0  0  0  0
  8 25  1  0  0  0  0
  9 25  2  0  0  0  0
 10 26  1  0  0  0  0
 11 12  2  0  0  0  0
 11 27  1  0  0  0  0
 12 28  1  0  0  0  0
 13 17  2  0  0  0  0
 13 24  1  0  0  0  0
 14 23  1  0  0  0  0
 14 26  2  0  0  0  0
 15 24  2  0  0  0  0
 15 31  1  0  0  0  0
 16 28  2  0  0  0  0
 16 29  1  0  0  0  0
 17 67  1  0  0  0  0
 18 30  1  0  0  0  0
 19 30  1  0  0  0  0
 19 32  2  0  0  0  0
 19 33  1  0  0  0  0
 20 22  2  0  0  0  0
 20 38  1  0  0  0  0
 21 23  2  0  0  0  0
 21 39  1  0  0  0  0
 22 50  1  0  0  0  0
 23 40  1  0  0  0  0
 24 62  1  0  0  0  0
 25 85  1  0  0  0  0
 26 86  1  0  0  0  0
 27 29  2  0  0  0  0
 27 85  1  0  0  0  0
 28 87  1  0  0  0  0
 29 88  1  0  0  0  0
 30 68  2  0  0  0  0
 31 51  1  0  0  0  0
 31 67  2  0  0  0  0
 32 69  1  0  0  0  0
 32 72  1  0  0  0  0
 33 73  1  0  0  0  0
 33 79  2  0  0  0  0
 34 52  1  0  0  0  0
 34 74  1  0  0  0  0
 34 80  2  0  0  0  0
 35 63  1  0  0  0  0
 35 70  1  0  0  0  0
 35 81  2  0  0  0  0
 36 64  1  0  0  0  0
 36 75  1  0  0  0  0
 36 82  2  0  0  0  0
 37 71  1  0  0  0  0
 37 76  1  0  0  0  0
 37 83  2  0  0  0  0
 38 41  1  0  0  0  0
 39 52  1  0  0  0  0
 40 70  1  0  0  0  0
 41 43  1  0  0  0  0
 42 46  1  0  0  0  0
 42 47  1  0  0  0  0
 43 50  1  0  0  0  0
 44 45  1  0  0  0  0
 44 53  1  0  0  0  0
 45 53  1  0  0  0  0
 46 54  1  0  0  0  0
 47 71  1  0  0  0  0
 48 54  1  0  0  0  0
 48 71  1  0  0  0  0
 49 55  1  0  0  0  0
 49 77  1  0  0  0  0
 50 74  1  0  0  0  0
 51 55  1  0  0  0  0
 51 56  1  0  0  0  0
 52 70  1  0  0  0  0
 53 65  1  0  0  0  0
 54 69  1  0  0  0  0
 55 76  1  0  0  0  0
 56 65  1  0  0  0  0
 56 77  1  0  0  0  0
 57 64  1  0  0  0  0
 58 66  1  0  0  0  0
 59 66  1  0  0  0  0
 60 66  1  0  0  0  0
 61 78  1  0  0  0  0
 62 86  1  0  0  0  0
 63 66  1  0  0  0  0
 63 75  1  0  0  0  0
 64 78  1  0  0  0  0
 65 84  1  0  0  0  0
 68 69  1  0  0  0  0
M  CHG  2  77   1  78   1
M  ISO  4  37 100  62 101  76 100  86 101
M  END
> <Batch ID>
0137

> <Smiles>
CNC(C)C(=O)NC(C(=O)N1Cc2cc([101O:1][101CH2:1]c3ccnc(C4C([100NH:0][100C:0](=O)N5CCCC(n6nc(-c7ccc(Oc8ccc(F)cc8F)cc7)c(C(N)=O)c6N)C5)CNC4C(O)C4CC4)c3)ccc2CC1C(=O)NC1CCCc2ccccc21)C(C)(C)C

> <Shape>
0.256

> <Color>
0.080

> <Negative vol penalty>
0.000

$$$$

  -OEChem-04052321053D

 88 97  0     1  0  0  0  0  0999 V2000
  -22.9173  -30.6419   13.6122 C   0  0  0  0  0  0  0  0  0  0  0  0
  -23.9187  -30.0657   14.3872 C   0  0  0  0  0  0  0  0  0  0  0  0
  -25.1933   -8.3966   22.0331 C   0  0  0  0  0  0  0  0  0  0  0  0
  -24.7325   -8.1415   19.6752 C   0  0  0  0  0  0  0  0  0  0  0  0
  -22.3783  -31.8751   13.9762 C   0  0  0  0  0  0  0  0  0  0  0  0
  -24.3825  -30.7231   15.5262 C   0  0  0  0  0  0  0  0  0  0  0  0
  -24.8711  -27.6188   19.4973 C   0  0  0  0  0  0  0  0  0  0  0  0
  -31.7748  -24.0574   19.3118 C   0  0  0  0  0  0  0  0  0  0  0  0
  -23.9043   -7.9559   22.3327 C   0  0  0  0  0  0  0  0  0  0  0  0
  -23.4435   -7.7008   19.9748 C   0  0  0  0  0  0  0  0  0  0  0  0
  -25.9940  -26.7930   19.5255 C   0  0  0  0  0  0  0  0  0  0  0  0
  -31.7553  -22.9077   20.1013 C   0  0  0  0  0  0  0  0  0  0  0  0
  -22.2590   -5.0075   22.5141 C   0  0  0  0  0  0  0  0  0  0  0  0
  -22.1158   -4.0699   23.5368 C   0  0  0  0  0  0  0  0  0  0  0  0
  -27.0693  -28.3175   21.0548 C   0  0  0  0  0  0  0  0  0  0  0  0
  -29.3975  -23.2325   20.5163 C   0  0  0  0  0  0  0  0  0  0  0  0
  -20.7125   -5.6135   24.7555 C   0  0  0  0  0  0  0  0  0  0  0  0
  -25.6074   -8.4894   20.7043 C   0  0  0  0  0  0  0  0  0  0  0  0
  -28.0960   -8.1561   20.2531 C   0  0  0  0  0  0  0  0  0  0  0  0
  -22.8289  -32.5434   15.1255 C   0  0  0  0  0  0  0  0  0  0  0  0
  -24.8431  -28.8077   20.2403 C   0  0  0  0  0  0  0  0  0  0  0  0
  -23.8499  -31.9670   15.9052 C   0  0  0  0  0  0  0  0  0  0  0  0
  -25.9439  -29.1554   21.0363 C   0  0  0  0  0  0  0  0  0  0  0  0
  -29.4170  -24.3823   19.7267 C   0  0  0  0  0  0  0  0  0  0  0  0
  -30.6056  -24.7947   19.1245 C   0  0  0  0  0  0  0  0  0  0  0  0
  -23.0294   -7.6080   21.3036 C   0  0  0  0  0  0  0  0  0  0  0  0
  -27.0945  -27.1437   20.3020 C   0  0  0  0  0  0  0  0  0  0  0  0
  -30.5667  -22.4952   20.7035 C   0  0  0  0  0  0  0  0  0  0  0  0
  -21.6290   -6.2482   22.6121 C   0  0  0  0  0  0  0  0  0  0  0  0
  -21.3426   -4.3728   24.6575 C   0  0  0  0  0  0  0  0  0  0  0  0
  -20.8558   -6.5511   23.7328 C   0  0  0  0  0  0  0  0  0  0  0  0
  -26.9387   -8.9451   20.3941 C   0  0  0  0  0  0  0  0  0  0  0  0
  -29.0915   -9.0560   19.9604 C   0  0  0  0  0  0  0  0  0  0  0  0
  -28.2568   -6.7367   20.3757 C   0  0  0  0  0  0  0  0  0  0  0  0
  -24.5858  -31.8942   19.5254 C   0  0  0  0  0  0  0  0  0  0  0  0
  -24.4448  -32.2293   22.7488 C   0  0  0  0  0  0  0  0  0  0  0  0
  -25.1864  -30.9601   25.8287 C   0  0  0  0  0  0  0  0  0  0  0  0
  -29.9218  -14.6481   21.1638 C   0  0  0  0  0  0  0  0  0  0  0  0
  -22.2491  -33.8967   15.4526 C   0  0  0  0  0  0  0  0  0  0  0  0
  -23.6138  -29.6742   20.2201 C   0  0  0  0  0  0  0  0  0  0  0  0
  -25.9559  -30.4109   21.8682 C   0  0  0  0  0  0  0  0  0  0  0  0
  -22.5330  -34.3517   16.8818 C   0  0  0  0  0  0  0  0  0  0  0  0
  -29.8186  -13.3139   17.9153 C   0  0  0  0  0  0  0  0  0  0  0  0
  -24.0003  -34.1261   17.2324 C   0  0  0  0  0  0  0  0  0  0  0  0
  -29.1742  -11.9512   18.1675 C   0  0  0  0  0  0  0  0  0  0  0  0
  -29.1718  -14.4181   18.7535 C   0  0  0  0  0  0  0  0  0  0  0  0
  -29.4317  -16.9556   20.2366 C   0  0  0  0  0  0  0  0  0  0  0  0
  -31.3287  -16.5923   21.7720 C   0  0  0  0  0  0  0  0  0  0  0  0
  -28.4834  -12.7602   20.4555 C   0  0  0  0  0  0  0  0  0  0  0  0
  -28.8569  -18.0070   21.1804 C   0  0  0  0  0  0  0  0  0  0  0  0
  -30.7719  -17.6161   22.7478 C   0  0  0  0  0  0  0  0  0  0  0  0
  -24.3619  -32.6376   17.1615 C   0  0  1  0  0  0  0  0  0  0  0  0
  -23.8959  -31.1209   20.6134 C   0  0  1  0  0  0  0  0  0  0  0  0
  -29.1515  -11.6208   19.6705 C   0  0  1  0  0  0  0  0  0  0  0  0
  -24.9785  -31.4787   28.2752 C   0  0  0  0  0  0  0  0  0  0  0  0
  -26.7284  -34.2392   22.5143 C   0  0  0  0  0  0  0  0  0  0  0  0
  -27.1024  -33.9963   24.9779 C   0  0  0  0  0  0  0  0  0  0  0  0
  -24.9316  -34.8854   24.1294 C   0  0  0  0  0  0  0  0  0  0  0  0
  -31.5504  -26.1118   17.2277 C   0  0  0  0  0  0  0  0  0  0  0  0
  -23.5410  -28.5494   26.3185 C   0  0  0  0  0  0  0  0  0  0  0  0
  -28.1499  -25.1525   19.5425 C   0  0  0  0  0  0  0  0  0  1  0  0
  -29.4642  -19.7378   22.8716 C   0  0  0  0  0  0  0  0  0  0  0  0
  -29.3006  -21.0081   22.0605 C   0  0  0  0  0  0  0  0  0  0  0  0
  -25.4598  -32.4290   23.8483 C   0  0  1  0  0  0  0  0  0  0  0  0
  -24.3413  -30.7901   27.0783 C   0  0  2  0  0  0  0  0  0  0  0  0
  -26.0564  -33.8647   23.8504 C   0  0  0  0  0  0  0  0  0  0  0  0
  -27.1756  -10.2461   20.2066 N   0  0  0  0  0  0  0  0  0  0  0  0
  -28.4933  -10.2816   19.9448 N   0  0  0  0  0  0  0  0  0  0  0  0
  -24.7329  -31.2284   21.8101 N   0  0  0  0  0  0  0  0  0  0  0  0
  -29.1358  -14.0406   20.1733 N   0  0  0  0  0  0  0  0  0  0  0  0
  -30.2656  -15.9939   20.9677 N   0  0  0  0  0  0  0  0  0  0  0  0
  -30.4114   -8.9105   19.7174 N   0  0  0  0  0  0  0  0  0  0  0  0
  -27.1303   -5.9605   20.6806 N   0  0  0  0  0  0  0  0  0  0  0  0
  -30.6442  -25.9558   18.3219 N   0  0  0  0  0  0  0  0  0  0  0  0
  -23.8816  -31.9442   18.3375 N   0  0  0  0  0  0  0  0  0  0  0  0
  -24.7932  -32.0571   25.0916 N   0  0  0  0  0  0  0  0  0  0  0  0
  -29.9713  -18.6405   21.9781 N   0  3  0  0  0  0  0  0  0  0  0  0
  -24.1776  -29.3442   27.4001 N   0  3  0  0  0  0  0  0  0  0  0  0
  -29.3697   -6.1750   20.2357 O   0  0  0  0  0  0  0  0  0  0  0  0
  -25.6755  -32.4087   19.7477 O   0  0  0  0  0  0  0  0  0  0  0  0
  -23.4302  -32.9305   22.7277 O   0  0  0  0  0  0  0  0  0  0  0  0
  -26.1060  -30.1983   25.5377 O   0  0  0  0  0  0  0  0  0  0  0  0
  -30.2943  -14.0244   22.1657 O   0  0  0  0  0  0  0  0  0  0  0  0
  -21.7715   -7.1777   21.5956 O   0  0  0  0  0  0  0  0  0  0  0  0
  -28.2000  -26.3340   20.3311 O   0  0  0  0  0  0  0  0  0  1  0  0
  -30.5477  -21.3659   21.4798 O   0  0  0  0  0  0  0  0  0  0  0  0
  -21.2039   -3.4717   25.6388 F   0  0  0  0  0  0  0  0  0  0  0  0
  -20.2472   -7.7409   23.8320 F   0  0  0  0  0  0  0  0  0  0  0  0
  1  2  1  0  0  0  0
  1  5  2  0  0  0  0
  2  6  2  0  0  0  0
  3  9  2  0  0  0  0
  3 18  1  0  0  0  0
  4 10  1  0  0  0  0
  4 18  2  0  0  0  0
  5 20  1  0  0  0  0
  6 22  1  0  0  0  0
  7 11  2  0  0  0  0
  7 21  1  0  0  0  0
  8 12  2  0  0  0  0
  8 25  1  0  0  0  0
  9 26  1  0  0  0  0
 10 26  2  0  0  0  0
 11 27  1  0  0  0  0
 12 28  1  0  0  0  0
 13 14  2  0  0  0  0
 13 29  1  0  0  0  0
 14 30  1  0  0  0  0
 15 23  1  0  0  0  0
 15 27  2  0  0  0  0
 16 24  1  0  0  0  0
 16 28  2  0  0  0  0
 17 30  2  0  0  0  0
 17 31  1  0  0  0  0
 18 32  1  0  0  0  0
 19 32  1  0  0  0  0
 19 33  2  0  0  0  0
 19 34  1  0  0  0  0
 20 22  2  0  0  0  0
 20 39  1  0  0  0  0
 21 23  2  0  0  0  0
 21 40  1  0  0  0  0
 22 52  1  0  0  0  0
 23 41  1  0  0  0  0
 24 25  2  0  0  0  0
 24 61  1  0  0  0  0
 25 74  1  0  0  0  0
 26 84  1  0  0  0  0
 27 85  1  0  0  0  0
 28 86  1  0  0  0  0
 29 31  2  0  0  0  0
 29 84  1  0  0  0  0
 30 87  1  0  0  0  0
 31 88  1  0  0  0  0
 32 67  2  0  0  0  0
 33 68  1  0  0  0  0
 33 72  1  0  0  0  0
 34 73  1  0  0  0  0
 34 79  2  0  0  0  0
 35 53  1  0  0  0  0
 35 75  1  0  0  0  0
 35 80  2  0  0  0  0
 36 64  1  0  0  0  0
 36 69  1  0  0  0  0
 36 81  2  0  0  0  0
 37 65  1  0  0  0  0
 37 76  1  0  0  0  0
 37 82  2  0  0  0  0
 38 70  1  0  0  0  0
 38 71  1  0  0  0  0
 38 83  2  0  0  0  0
 39 42  1  0  0  0  0
 40 53  1  0  0  0  0
 41 69  1  0  0  0  0
 42 44  1  0  0  0  0
 43 45  1  0  0  0  0
 43 46  1  0  0  0  0
 44 52  1  0  0  0  0
 45 54  1  0  0  0  0
 46 70  1  0  0  0  0
 47 50  1  0  0  0  0
 47 71  1  0  0  0  0
 48 51  1  0  0  0  0
 48 71  1  0  0  0  0
 49 54  1  0  0  0  0
 49 70  1  0  0  0  0
 50 77  1  0  0  0  0
 51 77  1  0  0  0  0
 52 75  1  0  0  0  0
 53 69  1  0  0  0  0
 54 68  1  0  0  0  0
 55 65  1  0  0  0  0
 56 66  1  0  0  0  0
 57 66  1  0  0  0  0
 58 66  1  0  0  0  0
 59 74  1  0  0  0  0
 60 78  1  0  0  0  0
 61 85  1  0  0  0  0
 62 63  1  0  0  0  0
 62 77  1  0  0  0  0
 63 86  1  0  0  0  0
 64 66  1  0  0  0  0
 64 76  1  0  0  0  0
 65 78  1  0  0  0  0
 67 68  1  0  0  0  0
M  CHG  2  77   1  78   1
M  ISO  4  38 100  61 101  71 100  85 101
M  END
> <Batch ID>
0137

> <Smiles>
CNc1ccc(OCCN2CC[100N:0]([100C:0](=O)N3CCCC(n4nc(-c5ccc(Oc6ccc(F)cc6F)cc5)c(C(N)=O)c4N)C3)CC2)cc1[101CH2:1][101O:1]c1ccc2c(c1)CN(C(=O)C(NC(=O)C(C)NC)C(C)(C)C)C(C(=O)NC1CCCc3ccccc31)C2

> <Shape>
0.316

> <Color>
0.106

> <Negative vol penalty>
0.000

$$$$

  -OEChem-04052321053D

 84 93  0     1  0  0  0  0  0999 V2000
  -27.8672  -38.4712   25.2635 C   0  0  0  0  0  0  0  0  0  0  0  0
  -28.1912  -37.5829   24.2430 C   0  0  0  0  0  0  0  0  0  0  0  0
  -24.1600   -9.4024   22.1961 C   0  0  0  0  0  0  0  0  0  0  0  0
  -23.2491   -9.6251   19.9695 C   0  0  0  0  0  0  0  0  0  0  0  0
  -27.0793  -38.0459   26.3323 C   0  0  0  0  0  0  0  0  0  0  0  0
  -27.7283  -36.2685   24.2912 C   0  0  0  0  0  0  0  0  0  0  0  0
  -25.5953  -30.9401   20.0046 C   0  0  0  0  0  0  0  0  0  0  0  0
  -25.8121  -24.8615   18.0581 C   0  0  0  0  0  0  0  0  0  0  0  0
  -25.9118  -23.4780   17.9119 C   0  0  0  0  0  0  0  0  0  0  0  0
  -23.1713   -8.4691   22.5073 C   0  0  0  0  0  0  0  0  0  0  0  0
  -22.2604   -8.6917   20.2806 C   0  0  0  0  0  0  0  0  0  0  0  0
  -25.8469  -29.5916   19.7557 C   0  0  0  0  0  0  0  0  0  0  0  0
  -22.5733   -5.1902   21.9378 C   0  0  0  0  0  0  0  0  0  0  0  0
  -22.9640   -4.0310   22.6080 C   0  0  0  0  0  0  0  0  0  0  0  0
  -24.4272  -28.9904   21.6109 C   0  0  0  0  0  0  0  0  0  0  0  0
  -27.3721  -23.3802   19.8342 C   0  0  0  0  0  0  0  0  0  0  0  0
  -21.4964   -4.5966   24.4419 C   0  0  0  0  0  0  0  0  0  0  0  0
  -24.1989   -9.9805   20.9272 C   0  0  0  0  0  0  0  0  0  0  0  0
  -26.4912  -10.6872   20.0592 C   0  0  0  0  0  0  0  0  0  0  0  0
  -26.5985  -36.7282   26.3887 C   0  0  0  0  0  0  0  0  0  0  0  0
  -24.7650  -31.3249   21.0671 C   0  0  0  0  0  0  0  0  0  0  0  0
  -26.9343  -35.8248   25.3624 C   0  0  0  0  0  0  0  0  0  0  0  0
  -24.1645  -30.3443   21.8696 C   0  0  0  0  0  0  0  0  0  0  0  0
  -26.4924  -25.5045   19.0923 C   0  0  0  0  0  0  0  0  0  0  0  0
  -27.2724  -24.7638   19.9803 C   0  0  0  0  0  0  0  0  0  0  0  0
  -26.6918  -22.7373   18.8000 C   0  0  0  0  0  0  0  0  0  0  0  0
  -22.2215   -8.1137   21.5495 C   0  0  0  0  0  0  0  0  0  0  0  0
  -25.2652  -28.6166   20.5607 C   0  0  0  0  0  0  0  0  0  0  0  0
  -21.6442   -6.0527   22.5197 C   0  0  0  0  0  0  0  0  0  0  0  0
  -22.4256   -3.7342   23.8600 C   0  0  0  0  0  0  0  0  0  0  0  0
  -21.1057   -5.7559   23.7717 C   0  0  0  0  0  0  0  0  0  0  0  0
  -25.2197  -10.9452   20.6054 C   0  0  0  0  0  0  0  0  0  0  0  0
  -27.0732  -11.9259   19.9440 C   0  0  0  0  0  0  0  0  0  0  0  0
  -27.0925   -9.4394   19.6889 C   0  0  0  0  0  0  0  0  0  0  0  0
  -25.1623  -33.0286   23.7210 C   0  0  0  0  0  0  0  0  0  0  0  0
  -21.9535  -32.6355   23.9887 C   0  0  0  0  0  0  0  0  0  0  0  0
  -19.1832  -30.8046   23.2011 C   0  0  0  0  0  0  0  0  0  0  0  0
  -27.0217  -17.1258   18.6015 C   0  0  0  0  0  0  0  0  0  0  0  0
  -25.7894  -36.3014   27.5879 C   0  0  0  0  0  0  0  0  0  0  0  0
  -24.4821  -32.7828   21.3059 C   0  0  0  0  0  0  0  0  0  0  0  0
  -23.2493  -30.7044   23.0103 C   0  0  0  0  0  0  0  0  0  0  0  0
  -25.0274  -34.9959   27.3752 C   0  0  0  0  0  0  0  0  0  0  0  0
  -25.6595  -16.4216   21.7618 C   0  0  0  0  0  0  0  0  0  0  0  0
  -25.9354  -33.9444   26.7452 C   0  0  0  0  0  0  0  0  0  0  0  0
  -25.5223  -14.9006   21.7013 C   0  0  0  0  0  0  0  0  0  0  0  0
  -25.2763  -17.0846   20.4377 C   0  0  0  0  0  0  0  0  0  0  0  0
  -28.0186  -20.6659   19.0772 C   0  0  0  0  0  0  0  0  0  0  0  0
  -25.5485  -20.5653   18.7100 C   0  0  0  0  0  0  0  0  0  0  0  0
  -28.1566  -19.3063   18.3974 C   0  0  0  0  0  0  0  0  0  0  0  0
  -25.7316  -19.2149   18.0261 C   0  0  0  0  0  0  0  0  0  0  0  0
  -25.8604  -15.0221   19.2037 C   0  0  0  0  0  0  0  0  0  0  0  0
  -26.4305  -34.3978   25.3665 C   0  0  1  0  0  0  0  0  0  0  0  0
  -24.0313  -33.0780   22.7331 C   0  0  1  0  0  0  0  0  0  0  0  0
  -26.2946  -14.3235   20.5017 C   0  0  2  0  0  0  0  0  0  0  0  0
  -28.0109  -25.4305   21.0942 C   0  0  0  0  0  0  0  0  0  0  0  0
  -16.7071  -30.7088   23.5974 C   0  0  0  0  0  0  0  0  0  0  0  0
  -22.4473  -31.5439   26.7949 C   0  0  0  0  0  0  0  0  0  0  0  0
  -20.1266  -30.6050   26.7626 C   0  0  0  0  0  0  0  0  0  0  0  0
  -20.4754  -33.0698   26.6011 C   0  0  0  0  0  0  0  0  0  0  0  0
  -18.5927  -31.1103   20.3172 C   0  0  0  0  0  0  0  0  0  0  0  0
  -26.3712  -26.9868   19.2278 C   0  0  0  0  0  0  0  0  0  1  0  0
  -21.0520  -31.6042   24.6233 C   0  0  1  0  0  0  0  0  0  0  0  0
  -17.8153  -31.2174   22.6885 C   0  0  2  0  0  0  0  0  0  0  0  0
  -21.0441  -31.6987   26.1753 C   0  0  0  0  0  0  0  0  0  0  0  0
  -25.0059  -12.2457   20.8223 N   0  0  0  0  0  0  0  0  0  0  0  0
  -26.1510  -12.8159   20.4104 N   0  0  0  0  0  0  0  0  0  0  0  0
  -26.7909  -21.3478   18.6534 N   0  0  0  0  0  0  0  0  0  0  0  0
  -23.0087  -32.1434   23.2075 N   0  0  0  0  0  0  0  0  0  0  0  0
  -26.0075  -16.4745   19.3191 N   0  0  0  0  0  0  0  0  0  0  0  0
  -26.9313  -18.5231   18.5018 N   0  0  0  0  0  0  0  0  0  0  0  0
  -28.2789  -12.3298   19.4904 N   0  0  0  0  0  0  0  0  0  0  0  0
  -26.3554   -8.2617   19.8735 N   0  0  0  0  0  0  0  0  0  0  0  0
  -25.3914  -34.2245   24.3742 N   0  0  0  0  0  0  0  0  0  0  0  0
  -19.7404  -31.7743   24.0076 N   0  0  0  0  0  0  0  0  0  0  0  0
  -17.5885  -30.6717   21.3204 N   0  3  0  0  0  0  0  0  0  0  0  0
  -28.2554   -9.3692   19.2238 O   0  0  0  0  0  0  0  0  0  0  0  0
  -25.7803  -31.9824   23.8801 O   0  0  0  0  0  0  0  0  0  0  0  0
  -21.7255  -33.8336   24.1732 O   0  0  0  0  0  0  0  0  0  0  0  0
  -19.7038  -29.7279   22.9177 O   0  0  0  0  0  0  0  0  0  0  0  0
  -27.9543  -16.4994   18.0830 O   0  0  0  0  0  0  0  0  0  0  0  0
  -21.2567   -7.2027   21.8527 O   0  0  0  0  0  0  0  0  0  0  0  0
  -25.5114  -27.2903   20.3186 O   0  0  0  0  0  0  0  0  0  1  0  0
  -22.7997   -2.6202   24.5028 F   0  0  0  0  0  0  0  0  0  0  0  0
  -20.2118   -6.5800   24.3353 F   0  0  0  0  0  0  0  0  0  0  0  0
  1  2  1  0  0  0  0
  1  5  2  0  0  0  0
  2  6  2  0  0  0  0
  3 10  2  0  0  0  0
  3 18  1  0  0  0  0
  4 11  1  0  0  0  0
  4 18  2  0  0  0  0
  5 20  1  0  0  0  0
  6 22  1  0  0  0  0
  7 12  2  0  0  0  0
  7 21  1  0  0  0  0
  8  9  2  0  0  0  0
  8 24  1  0  0  0  0
  9 26  1  0  0  0  0
 10 27  1  0  0  0  0
 11 27  2  0  0  0  0
 12 28  1  0  0  0  0
 13 14  2  0  0  0  0
 13 29  1  0  0  0  0
 14 30  1  0  0  0  0
 15 23  1  0  0  0  0
 15 28  2  0  0  0  0
 16 25  1  0  0  0  0
 16 26  2  0  0  0  0
 17 30  2  0  0  0  0
 17 31  1  0  0  0  0
 18 32  1  0  0  0  0
 19 32  1  0  0  0  0
 19 33  2  0  0  0  0
 19 34  1  0  0  0  0
 20 22  2  0  0  0  0
 20 39  1  0  0  0  0
 21 23  2  0  0  0  0
 21 40  1  0  0  0  0
 22 52  1  0  0  0  0
 23 41  1  0  0  0  0
 24 25  2  0  0  0  0
 24 61  1  0  0  0  0
 25 55  1  0  0  0  0
 26 67  1  0  0  0  0
 27 81  1  0  0  0  0
 28 82  1  0  0  0  0
 29 31  2  0  0  0  0
 29 81  1  0  0  0  0
 30 83  1  0  0  0  0
 31 84  1  0  0  0  0
 32 65  2  0  0  0  0
 33 66  1  0  0  0  0
 33 71  1  0  0  0  0
 34 72  1  0  0  0  0
 34 76  2  0  0  0  0
 35 53  1  0  0  0  0
 35 73  1  0  0  0  0
 35 77  2  0  0  0  0
 36 62  1  0  0  0  0
 36 68  1  0  0  0  0
 36 78  2  0  0  0  0
 37 63  1  0  0  0  0
 37 74  1  0  0  0  0
 37 79  2  0  0  0  0
 38 69  1  0  0  0  0
 38 70  1  0  0  0  0
 38 80  2  0  0  0  0
 39 42  1  0  0  0  0
 40 53  1  0  0  0  0
 41 68  1  0  0  0  0
 42 44  1  0  0  0  0
 43 45  1  0  0  0  0
 43 46  1  0  0  0  0
 44 52  1  0  0  0  0
 45 54  1  0  0  0  0
 46 69  1  0  0  0  0
 47 49  1  0  0  0  0
 47 67  1  0  0  0  0
 48 50  1  0  0  0  0
 48 67  1  0  0  0  0
 49 70  1  0  0  0  0
 50 70  1  0  0  0  0
 51 54  1  0  0  0  0
 51 69  1  0  0  0  0
 52 73  1  0  0  0  0
 53 68  1  0  0  0  0
 54 66  1  0  0  0  0
 56 63  1  0  0  0  0
 57 64  1  0  0  0  0
 58 64  1  0  0  0  0
 59 64  1  0  0  0  0
 60 75  1  0  0  0  0
 61 82  1  0  0  0  0
 62 64  1  0  0  0  0
 62 74  1  0  0  0  0
 63 75  1  0  0  0  0
 65 66  1  0  0  0  0
M  CHG  1  75   1
M  ISO  4  38 100  61 101  70 100  82 101
M  END
> <Batch ID>
0137

> <Smiles>
CNC(C)C(=O)NC(C(=O)N1Cc2cc([101O:1][101CH2:1]c3ccc(N4CC[100N:0]([100C:0](=O)N5CCCC(n6nc(-c7ccc(Oc8ccc(F)cc8F)cc7)c(C(N)=O)c6N)C5)CC4)cc3C)ccc2CC1C(=O)NC1CCCc2ccccc21)C(C)(C)C

> <Shape>
0.276

> <Color>
0.092

> <Negative vol penalty>
0.000

$$$$

  -OEChem-04052321053D

 83 91  0     1  0  0  0  0  0999 V2000
  -40.9548  -25.2815   18.1881 C   0  0  0  0  0  0  0  0  0  0  0  0
  -40.1345  -24.5949   19.0775 C   0  0  0  0  0  0  0  0  0  0  0  0
  -23.0202   -9.8396   20.0620 C   0  0  0  0  0  0  0  0  0  0  0  0
  -23.6978  -10.0585   22.3707 C   0  0  0  0  0  0  0  0  0  0  0  0
  -40.4779  -26.4186   17.5374 C   0  0  0  0  0  0  0  0  0  0  0  0
  -38.8369  -25.0458   19.3176 C   0  0  0  0  0  0  0  0  0  0  0  0
  -35.4417  -21.2885   19.3071 C   0  0  0  0  0  0  0  0  0  0  0  0
  -22.2555   -8.7209   20.3925 C   0  0  0  0  0  0  0  0  0  0  0  0
  -22.9331   -8.9397   22.7012 C   0  0  0  0  0  0  0  0  0  0  0  0
  -35.3689  -20.4929   20.4497 C   0  0  0  0  0  0  0  0  0  0  0  0
  -23.2080   -5.5778   22.4712 C   0  0  0  0  0  0  0  0  0  0  0  0
  -23.7864   -4.6207   23.3049 C   0  0  0  0  0  0  0  0  0  0  0  0
  -33.4389  -21.7383   21.1866 C   0  0  0  0  0  0  0  0  0  0  0  0
  -31.9804  -16.7327   22.3489 C   0  0  0  0  0  0  0  0  0  0  0  0
  -31.7286  -18.6335   23.8187 C   0  0  0  0  0  0  0  0  0  0  0  0
  -29.7855  -17.6483   22.7743 C   0  0  0  0  0  0  0  0  0  0  0  0
  -22.0272   -4.9678   24.9240 C   0  0  0  0  0  0  0  0  0  0  0  0
  -23.7414  -10.5084   21.0511 C   0  0  0  0  0  0  0  0  0  0  0  0
  -24.1144  -13.0083   20.7056 C   0  0  0  0  0  0  0  0  0  0  0  0
  -39.1706  -26.8780   17.7623 C   0  0  0  0  0  0  0  0  0  0  0  0
  -34.5186  -22.3238   19.1007 C   0  0  0  0  0  0  0  0  0  0  0  0
  -38.3425  -26.1909   18.6703 C   0  0  0  0  0  0  0  0  0  0  0  0
  -33.5006  -22.5440   20.0394 C   0  0  0  0  0  0  0  0  0  0  0  0
  -32.5442  -17.6947   23.1869 C   0  0  0  0  0  0  0  0  0  0  0  0
  -30.6011  -16.7095   22.1425 C   0  0  0  0  0  0  0  0  0  0  0  0
  -22.2120   -8.2709   21.7121 C   0  0  0  0  0  0  0  0  0  0  0  0
  -34.3692  -20.7196   21.3911 C   0  0  0  0  0  0  0  0  0  0  0  0
  -22.0392   -6.2300   22.8640 C   0  0  0  0  0  0  0  0  0  0  0  0
  -30.3493  -18.6103   23.6124 C   0  0  0  0  0  0  0  0  0  0  0  0
  -23.1961   -4.3156   24.5312 C   0  0  0  0  0  0  0  0  0  0  0  0
  -21.4488   -5.9249   24.0904 C   0  0  0  0  0  0  0  0  0  0  0  0
  -24.5319  -11.6638   20.7103 C   0  0  0  0  0  0  0  0  0  0  0  0
  -25.2268  -13.7119   20.3133 C   0  0  0  0  0  0  0  0  0  0  0  0
  -22.8354  -13.5707   21.0273 C   0  0  0  0  0  0  0  0  0  0  0  0
  -34.7187  -25.4829   18.8118 C   0  0  0  0  0  0  0  0  0  0  0  0
  -31.5567  -25.2305   18.1335 C   0  0  0  0  0  0  0  0  0  0  0  0
  -28.6643  -23.4432   18.4270 C   0  0  0  0  0  0  0  0  0  0  0  0
  -30.6942  -14.7293   20.5880 C   0  0  0  0  0  0  0  0  0  0  0  0
  -38.7154  -28.1391   17.0715 C   0  0  0  0  0  0  0  0  0  0  0  0
  -34.5945  -23.1558   17.8500 C   0  0  0  0  0  0  0  0  0  0  0  0
  -32.4729  -23.6295   19.8548 C   0  0  0  0  0  0  0  0  0  0  0  0
  -37.2018  -28.3353   17.0972 C   0  0  0  0  0  0  0  0  0  0  0  0
  -29.6391  -12.1101   18.4192 C   0  0  0  0  0  0  0  0  0  0  0  0
  -36.6539  -28.0788   18.4974 C   0  0  0  0  0  0  0  0  0  0  0  0
  -28.1820  -11.8711   18.8216 C   0  0  0  0  0  0  0  0  0  0  0  0
  -30.5132  -12.4451   19.6265 C   0  0  0  0  0  0  0  0  0  0  0  0
  -28.5660  -13.3112   20.8626 C   0  0  0  0  0  0  0  0  0  0  0  0
  -36.9207  -26.6345   18.9383 C   0  0  1  0  0  0  0  0  0  0  0  0
  -33.9138  -24.5135   17.9933 C   0  0  1  0  0  0  0  0  0  0  0  0
  -27.6340  -13.0341   19.6716 C   0  0  2  0  0  0  0  0  0  0  0  0
  -26.2354  -23.5096   17.7999 C   0  0  0  0  0  0  0  0  0  0  0  0
  -31.0501  -27.2937   20.3237 C   0  0  0  0  0  0  0  0  0  0  0  0
  -28.6390  -26.6194   20.3045 C   0  0  0  0  0  0  0  0  0  0  0  0
  -29.6731  -27.6043   18.2592 C   0  0  0  0  0  0  0  0  0  0  0  0
  -28.8855  -20.9524   16.8441 C   0  0  0  0  0  0  0  0  0  0  0  0
  -34.0368  -17.7201   23.4101 C   0  0  0  0  0  0  0  0  0  0  0  0
  -27.9967  -21.3329   23.9193 C   0  0  0  0  0  0  0  0  0  0  0  0
  -34.7598  -18.5999   22.3962 C   0  0  0  0  0  0  0  0  0  1  0  0
  -28.3565  -19.9069   23.5516 C   0  0  0  0  0  0  0  0  0  0  0  0
  -30.2843  -25.2490   18.9457 C   0  0  1  0  0  0  0  0  0  0  0  0
  -27.6237  -23.0351   17.3998 C   0  0  2  0  0  0  0  0  0  0  0  0
  -29.9320  -26.6723   19.4630 C   0  0  0  0  0  0  0  0  0  0  0  0
  -25.8098  -11.5195   20.3494 N   0  0  0  0  0  0  0  0  0  0  0  0
  -26.2048  -12.7824   20.1142 N   0  0  0  0  0  0  0  0  0  0  0  0
  -32.5930  -24.4204   18.6188 N   0  0  0  0  0  0  0  0  0  0  0  0
  -29.9344  -13.5585   20.3816 N   0  0  0  0  0  0  0  0  0  0  0  0
  -25.4539  -15.0289   20.1225 N   0  0  0  0  0  0  0  0  0  0  0  0
  -21.8024  -12.7051   21.4117 N   0  0  0  0  0  0  0  0  0  0  0  0
  -30.0280  -15.7325   21.2911 N   0  0  0  0  0  0  0  0  0  0  0  0
  -35.9812  -25.7320   18.3081 N   0  0  0  0  0  0  0  0  0  0  0  0
  -29.2549  -24.6469   18.1053 N   0  0  0  0  0  0  0  0  0  0  0  0
  -29.0864  -22.2416   23.4824 N   0  3  0  0  0  0  0  0  0  0  0  0
  -27.5906  -21.5521   17.2571 N   0  3  0  0  0  0  0  0  0  0  0  0
  -22.6105  -14.8029   20.9594 O   0  0  0  0  0  0  0  0  0  0  0  0
  -34.2301  -25.9701   19.8246 O   0  0  0  0  0  0  0  0  0  0  0  0
  -31.6259  -25.9044   17.1026 O   0  0  0  0  0  0  0  0  0  0  0  0
  -28.9243  -22.7640   19.4178 O   0  0  0  0  0  0  0  0  0  0  0  0
  -31.8410  -14.8447   20.1480 O   0  0  0  0  0  0  0  0  0  0  0  0
  -21.4657   -7.1794   22.0349 O   0  0  0  0  0  0  0  0  0  0  0  0
  -34.2963  -19.9449   22.5075 O   0  0  0  0  0  0  0  0  0  1  0  0
  -29.5536  -19.5266   24.2285 O   0  0  0  0  0  0  0  0  0  0  0  0
  -23.7508   -3.3954   25.3310 F   0  0  0  0  0  0  0  0  0  0  0  0
  -20.3252   -6.5473   24.4727 F   0  0  0  0  0  0  0  0  0  0  0  0
  1  2  1  0  0  0  0
  1  5  2  0  0  0  0
  2  6  2  0  0  0  0
  3  8  2  0  0  0  0
  3 18  1  0  0  0  0
  4  9  1  0  0  0  0
  4 18  2  0  0  0  0
  5 20  1  0  0  0  0
  6 22  1  0  0  0  0
  7 10  2  0  0  0  0
  7 21  1  0  0  0  0
  8 26  1  0  0  0  0
  9 26  2  0  0  0  0
 10 27  1  0  0  0  0
 11 12  2  0  0  0  0
 11 28  1  0  0  0  0
 12 30  1  0  0  0  0
 13 23  1  0  0  0  0
 13 27  2  0  0  0  0
 14 24  1  0  0  0  0
 14 25  2  0  0  0  0
 15 24  2  0  0  0  0
 15 29  1  0  0  0  0
 16 25  1  0  0  0  0
 16 29  2  0  0  0  0
 17 30  2  0  0  0  0
 17 31  1  0  0  0  0
 18 32  1  0  0  0  0
 19 32  1  0  0  0  0
 19 33  2  0  0  0  0
 19 34  1  0  0  0  0
 20 22  2  0  0  0  0
 20 39  1  0  0  0  0
 21 23  2  0  0  0  0
 21 40  1  0  0  0  0
 22 48  1  0  0  0  0
 23 41  1  0  0  0  0
 24 56  1  0  0  0  0
 25 69  1  0  0  0  0
 26 79  1  0  0  0  0
 27 80  1  0  0  0  0
 28 31  2  0  0  0  0
 28 79  1  0  0  0  0
 29 81  1  0  0  0  0
 30 82  1  0  0  0  0
 31 83  1  0  0  0  0
 32 63  2  0  0  0  0
 33 64  1  0  0  0  0
 33 67  1  0  0  0  0
 34 68  1  0  0  0  0
 34 74  2  0  0  0  0
 35 49  1  0  0  0  0
 35 70  1  0  0  0  0
 35 75  2  0  0  0  0
 36 60  1  0  0  0  0
 36 65  1  0  0  0  0
 36 76  2  0  0  0  0
 37 61  1  0  0  0  0
 37 71  1  0  0  0  0
 37 77  2  0  0  0  0
 38 66  1  0  0  0  0
 38 69  1  0  0  0  0
 38 78  2  0  0  0  0
 39 42  1  0  0  0  0
 40 49  1  0  0  0  0
 41 65  1  0  0  0  0
 42 44  1  0  0  0  0
 43 45  1  0  0  0  0
 43 46  1  0  0  0  0
 44 48  1  0  0  0  0
 45 50  1  0  0  0  0
 46 66  1  0  0  0  0
 47 50  1  0  0  0  0
 47 66  1  0  0  0  0
 48 70  1  0  0  0  0
 49 65  1  0  0  0  0
 50 64  1  0  0  0  0
 51 61  1  0  0  0  0
 52 62  1  0  0  0  0
 53 62  1  0  0  0  0
 54 62  1  0  0  0  0
 55 73  1  0  0  0  0
 56 58  1  0  0  0  0
 57 59  1  0  0  0  0
 57 72  1  0  0  0  0
 58 80  1  0  0  0  0
 59 81  1  0  0  0  0
 60 62  1  0  0  0  0
 60 71  1  0  0  0  0
 61 73  1  0  0  0  0
 63 64  1  0  0  0  0
M  CHG  2  72   1  73   1
M  ISO  4  38 100  58 101  69 100  80 101
M  END
> <Batch ID>
0137

> <Smiles>
CNC(C)C(=O)NC(C(=O)N1Cc2cc([101O:1][101CH2:1]Cc3cc([100NH:0][100C:0](=O)N4CCCC(n5nc(-c6ccc(Oc7ccc(F)cc7F)cc6)c(C(N)=O)c5N)C4)cc(OCCN)c3)ccc2CC1C(=O)NC1CCCc2ccccc21)C(C)(C)C

> <Shape>
0.235

> <Color>
0.204

> <Negative vol penalty>
0.000

$$$$

  -OEChem-04052321053D

 84 93  0     1  0  0  0  0  0999 V2000
  -35.2987  -26.9865   11.7306 C   0  0  0  0  0  0  0  0  0  0  0  0
  -35.3175  -26.2637   12.9191 C   0  0  0  0  0  0  0  0  0  0  0  0
  -23.0709   -9.8689   19.9488 C   0  0  0  0  0  0  0  0  0  0  0  0
  -23.8286   -9.8852   22.2428 C   0  0  0  0  0  0  0  0  0  0  0  0
  -34.6681  -28.2290   11.6816 C   0  0  0  0  0  0  0  0  0  0  0  0
  -34.7066  -26.7836   14.0597 C   0  0  0  0  0  0  0  0  0  0  0  0
  -31.7957  -23.6385   18.4348 C   0  0  0  0  0  0  0  0  0  0  0  0
  -22.3237   -8.7190   20.2037 C   0  0  0  0  0  0  0  0  0  0  0  0
  -23.0814   -8.7353   22.4978 C   0  0  0  0  0  0  0  0  0  0  0  0
  -32.1965  -23.1915   19.6931 C   0  0  0  0  0  0  0  0  0  0  0  0
  -19.8506   -7.9490   23.1012 C   0  0  0  0  0  0  0  0  0  0  0  0
  -19.0925   -7.9168   24.2715 C   0  0  0  0  0  0  0  0  0  0  0  0
  -31.2083  -25.1498   20.6969 C   0  0  0  0  0  0  0  0  0  0  0  0
  -29.7650  -17.7077   22.6969 C   0  0  0  0  0  0  0  0  0  0  0  0
  -20.3281   -5.9798   25.0187 C   0  0  0  0  0  0  0  0  0  0  0  0
  -32.2564  -18.5175   21.9191 C   0  0  0  0  0  0  0  0  0  0  0  0
  -23.8234  -10.4520   20.9683 C   0  0  0  0  0  0  0  0  0  0  0  0
  -31.5096  -19.3634   22.7306 C   0  0  0  0  0  0  0  0  0  0  0  0
  -24.1720  -12.9756   20.8361 C   0  0  0  0  0  0  0  0  0  0  0  0
  -34.0408  -28.7600   12.8196 C   0  0  0  0  0  0  0  0  0  0  0  0
  -31.1066  -24.8520   18.2968 C   0  0  0  0  0  0  0  0  0  0  0  0
  -34.0681  -28.0350   14.0262 C   0  0  0  0  0  0  0  0  0  0  0  0
  -30.7976  -25.6087   19.4360 C   0  0  0  0  0  0  0  0  0  0  0  0
  -30.2332  -18.9518   23.1208 C   0  0  0  0  0  0  0  0  0  0  0  0
  -22.3290   -8.1522   21.4782 C   0  0  0  0  0  0  0  0  0  0  0  0
  -31.9054  -23.9486   20.8241 C   0  0  0  0  0  0  0  0  0  0  0  0
  -20.8475   -6.9965   22.8895 C   0  0  0  0  0  0  0  0  0  0  0  0
  -19.3312   -6.9323   25.2303 C   0  0  0  0  0  0  0  0  0  0  0  0
  -21.0862   -6.0119   23.8483 C   0  0  0  0  0  0  0  0  0  0  0  0
  -24.5959  -11.6395   20.7054 C   0  0  0  0  0  0  0  0  0  0  0  0
  -30.5853  -16.9401   21.8851 C   0  0  0  0  0  0  0  0  0  0  0  0
  -25.2665  -13.7204   20.4702 C   0  0  0  0  0  0  0  0  0  0  0  0
  -32.0668  -20.6580   23.1925 C   0  0  0  0  0  0  0  0  0  0  0  0
  -22.9025  -13.4969   21.2513 C   0  0  0  0  0  0  0  0  0  0  0  0
  -31.6869  -27.6056   16.8188 C   0  0  0  0  0  0  0  0  0  0  0  0
  -28.6596  -28.2983   17.7557 C   0  0  0  0  0  0  0  0  0  0  0  0
  -26.0942  -27.7140   19.9292 C   0  0  0  0  0  0  0  0  0  0  0  0
  -30.7353  -14.7524   20.6449 C   0  0  0  0  0  0  0  0  0  0  0  0
  -33.4128  -30.1284   12.7305 C   0  0  0  0  0  0  0  0  0  0  0  0
  -30.6578  -25.3071   16.9352 C   0  0  0  0  0  0  0  0  0  0  0  0
  -29.4097  -19.8114   24.0327 C   0  0  0  0  0  0  0  0  0  0  0  0
  -30.0423  -26.9085   19.3438 C   0  0  0  0  0  0  0  0  0  0  0  0
  -32.4644  -30.4398   13.8854 C   0  0  0  0  0  0  0  0  0  0  0  0
  -29.6167  -12.3298   18.2875 C   0  0  0  0  0  0  0  0  0  0  0  0
  -33.1022  -30.0582   15.2175 C   0  0  0  0  0  0  0  0  0  0  0  0
  -28.1759  -12.0442   18.7172 C   0  0  0  0  0  0  0  0  0  0  0  0
  -29.7284  -21.2800   23.7998 C   0  0  0  0  0  0  0  0  0  0  0  0
  -30.5313  -12.5622   19.4889 C   0  0  0  0  0  0  0  0  0  0  0  0
  -28.6250  -13.2985   20.8648 C   0  0  0  0  0  0  0  0  0  0  0  0
  -33.3950  -28.5542   15.2782 C   0  0  1  0  0  0  0  0  0  0  0  0
  -30.4124  -26.8108   16.8587 C   0  0  1  0  0  0  0  0  0  0  0  0
  -27.6528  -13.1220   19.6869 C   0  0  2  0  0  0  0  0  0  0  0  0
  -23.7594  -28.4602   20.4670 C   0  0  0  0  0  0  0  0  0  0  0  0
  -29.7673  -30.8443   19.0209 C   0  0  0  0  0  0  0  0  0  0  0  0
  -27.6358  -31.0435   20.3190 C   0  0  0  0  0  0  0  0  0  0  0  0
  -27.5893  -31.1352   17.8266 C   0  0  0  0  0  0  0  0  0  0  0  0
  -24.9939  -25.0098   19.4438 C   0  0  0  0  0  0  0  0  0  0  0  0
  -31.6051  -22.8457   24.2569 C   0  0  0  0  0  0  0  0  0  0  0  0
  -31.4831  -23.8923   23.1639 C   0  0  0  0  0  0  0  0  0  1  0  0
  -28.0365  -28.9290   18.9776 C   0  0  1  0  0  0  0  0  0  0  0  0
  -24.6146  -27.4655   19.6976 C   0  0  2  0  0  0  0  0  0  0  0  0
  -28.2732  -30.4645   19.0379 C   0  0  0  0  0  0  0  0  0  0  0  0
  -31.8195  -17.3147   21.4829 N   0  0  0  0  0  0  0  0  0  0  0  0
  -25.8609  -11.5383   20.2888 N   0  0  0  0  0  0  0  0  0  0  0  0
  -26.2413  -12.8202   20.1545 N   0  0  0  0  0  0  0  0  0  0  0  0
  -31.1661  -21.5356   23.8024 N   0  0  0  0  0  0  0  0  0  0  0  0
  -29.6305  -27.3142   17.9898 N   0  0  0  0  0  0  0  0  0  0  0  0
  -29.9742  -13.5988   20.3607 N   0  0  0  0  0  0  0  0  0  0  0  0
  -25.4805  -15.0509   20.3908 N   0  0  0  0  0  0  0  0  0  0  0  0
  -21.8879  -12.5920   21.5921 N   0  0  0  0  0  0  0  0  0  0  0  0
  -30.0896  -15.6832   21.4581 N   0  0  0  0  0  0  0  0  0  0  0  0
  -32.1809  -27.8132   15.5451 N   0  0  0  0  0  0  0  0  0  0  0  0
  -26.6302  -28.5412   18.9650 N   0  0  0  0  0  0  0  0  0  0  0  0
  -24.2455  -26.0900   20.1366 N   0  3  0  0  0  0  0  0  0  0  0  0
  -33.2635  -20.8816   23.0273 O   0  0  0  0  0  0  0  0  0  0  0  0
  -22.6695  -14.7284   21.3023 O   0  0  0  0  0  0  0  0  0  0  0  0
  -32.1845  -28.0024   17.8660 O   0  0  0  0  0  0  0  0  0  0  0  0
  -28.2931  -28.6602   16.6349 O   0  0  0  0  0  0  0  0  0  0  0  0
  -26.7118  -27.2264   20.8733 O   0  0  0  0  0  0  0  0  0  0  0  0
  -31.8652  -14.9158   20.1775 O   0  0  0  0  0  0  0  0  0  0  0  0
  -21.5998   -7.0302   21.7274 O   0  0  0  0  0  0  0  0  0  0  0  0
  -32.2960  -23.5149   22.0534 O   0  0  0  0  0  0  0  0  0  1  0  0
  -18.6041   -6.9024   26.3548 F   0  0  0  0  0  0  0  0  0  0  0  0
  -22.0433   -5.0949   23.6511 F   0  0  0  0  0  0  0  0  0  0  0  0
  1  2  1  0  0  0  0
  1  5  2  0  0  0  0
  2  6  2  0  0  0  0
  3  8  2  0  0  0  0
  3 17  1  0  0  0  0
  4  9  1  0  0  0  0
  4 17  2  0  0  0  0
  5 20  1  0  0  0  0
  6 22  1  0  0  0  0
  7 10  2  0  0  0  0
  7 21  1  0  0  0  0
  8 25  1  0  0  0  0
  9 25  2  0  0  0  0
 10 26  1  0  0  0  0
 11 12  2  0  0  0  0
 11 27  1  0  0  0  0
 12 28  1  0  0  0  0
 13 23  1  0  0  0  0
 13 26  2  0  0  0  0
 14 24  1  0  0  0  0
 14 31  2  0  0  0  0
 15 28  2  0  0  0  0
 15 29  1  0  0  0  0
 16 18  1  0  0  0  0
 16 63  2  0  0  0  0
 17 30  1  0  0  0  0
 18 24  2  0  0  0  0
 18 33  1  0  0  0  0
 19 30  1  0  0  0  0
 19 32  2  0  0  0  0
 19 34  1  0  0  0  0
 20 22  2  0  0  0  0
 20 39  1  0  0  0  0
 21 23  2  0  0  0  0
 21 40  1  0  0  0  0
 22 50  1  0  0  0  0
 23 42  1  0  0  0  0
 24 41  1  0  0  0  0
 25 81  1  0  0  0  0
 26 82  1  0  0  0  0
 27 29  2  0  0  0  0
 27 81  1  0  0  0  0
 28 83  1  0  0  0  0
 29 84  1  0  0  0  0
 30 64  2  0  0  0  0
 31 63  1  0  0  0  0
 31 71  1  0  0  0  0
 32 65  1  0  0  0  0
 32 69  1  0  0  0  0
 33 66  1  0  0  0  0
 33 75  2  0  0  0  0
 34 70  1  0  0  0  0
 34 76  2  0  0  0  0
 35 51  1  0  0  0  0
 35 72  1  0  0  0  0
 35 77  2  0  0  0  0
 36 60  1  0  0  0  0
 36 67  1  0  0  0  0
 36 78  2  0  0  0  0
 37 61  1  0  0  0  0
 37 73  1  0  0  0  0
 37 79  2  0  0  0  0
 38 68  1  0  0  0  0
 38 71  1  0  0  0  0
 38 80  2  0  0  0  0
 39 43  1  0  0  0  0
 40 51  1  0  0  0  0
 41 47  1  0  0  0  0
 42 67  1  0  0  0  0
 43 45  1  0  0  0  0
 44 46  1  0  0  0  0
 44 48  1  0  0  0  0
 45 50  1  0  0  0  0
 46 52  1  0  0  0  0
 47 66  1  0  0  0  0
 48 68  1  0  0  0  0
 49 52  1  0  0  0  0
 49 68  1  0  0  0  0
 50 72  1  0  0  0  0
 51 67  1  0  0  0  0
 52 65  1  0  0  0  0
 53 61  1  0  0  0  0
 54 62  1  0  0  0  0
 55 62  1  0  0  0  0
 56 62  1  0  0  0  0
 57 74  1  0  0  0  0
 58 59  1  0  0  0  0
 58 66  1  0  0  0  0
 59 82  1  0  0  0  0
 60 62  1  0  0  0  0
 60 73  1  0  0  0  0
 61 74  1  0  0  0  0
 64 65  1  0  0  0  0
M  CHG  1  74   1
M  ISO  4  38 100  59 101  71 100  82 101
M  END
> <Batch ID>
0137

> <Smiles>
CNC(C)C(=O)NC(C(=O)N1Cc2cc([101O:1][101CH2:1]CN3CCc4cc([100NH:0][100C:0](=O)N5CCCC(n6nc(-c7ccc(Oc8ccc(F)cc8F)cc7)c(C(N)=O)c6N)C5)ncc4C3=O)ccc2CC1C(=O)NC1CCCc2ccccc21)C(C)(C)C

> <Shape>
0.246

> <Color>
0.188

> <Negative vol penalty>
0.000

$$$$

  -OEChem-04052321053D

 82 90  0     1  0  0  0  0  0999 V2000
  -21.0630  -13.0700   25.6588 C   0  0  0  0  0  0  0  0  0  0  0  0
  -22.1586  -12.2750   25.3377 C   0  0  0  0  0  0  0  0  0  0  0  0
  -23.2882   -9.7994   19.9122 C   0  0  0  0  0  0  0  0  0  0  0  0
  -23.7411   -9.9381   22.2813 C   0  0  0  0  0  0  0  0  0  0  0  0
  -20.9483  -13.6133   26.9377 C   0  0  0  0  0  0  0  0  0  0  0  0
  -23.1407  -12.0237   26.2951 C   0  0  0  0  0  0  0  0  0  0  0  0
  -26.3743   -6.8690   26.9869 C   0  0  0  0  0  0  0  0  0  0  0  0
  -22.5621   -8.6267   20.1196 C   0  0  0  0  0  0  0  0  0  0  0  0
  -23.0149   -8.7654   22.4888 C   0  0  0  0  0  0  0  0  0  0  0  0
  -27.6558   -6.5034   26.5770 C   0  0  0  0  0  0  0  0  0  0  0  0
  -20.9770   -6.0042   23.6892 C   0  0  0  0  0  0  0  0  0  0  0  0
  -20.0763   -5.9781   24.7540 C   0  0  0  0  0  0  0  0  0  0  0  0
  -28.5183   -7.1201   28.7438 C   0  0  0  0  0  0  0  0  0  0  0  0
  -18.8659   -7.8259   23.7755 C   0  0  0  0  0  0  0  0  0  0  0  0
  -23.8778  -10.4551   20.9930 C   0  0  0  0  0  0  0  0  0  0  0  0
  -24.1369  -12.9853   20.7962 C   0  0  0  0  0  0  0  0  0  0  0  0
  -21.9247  -13.3606   27.9142 C   0  0  0  0  0  0  0  0  0  0  0  0
  -26.1566   -7.3739   28.2769 C   0  0  0  0  0  0  0  0  0  0  0  0
  -23.0397  -12.5652   27.5879 C   0  0  0  0  0  0  0  0  0  0  0  0
  -27.2327   -7.4889   29.1685 C   0  0  0  0  0  0  0  0  0  0  0  0
  -22.4254   -8.1097   21.4079 C   0  0  0  0  0  0  0  0  0  0  0  0
  -28.7285   -6.6317   27.4545 C   0  0  0  0  0  0  0  0  0  0  0  0
  -20.8221   -6.9413   22.6676 C   0  0  0  0  0  0  0  0  0  0  0  0
  -19.0207   -6.8889   24.7971 C   0  0  0  0  0  0  0  0  0  0  0  0
  -19.7666   -7.8521   22.7107 C   0  0  0  0  0  0  0  0  0  0  0  0
  -24.6285  -11.6662   20.7793 C   0  0  0  0  0  0  0  0  0  0  0  0
  -25.2381  -13.7654   20.5409 C   0  0  0  0  0  0  0  0  0  0  0  0
  -22.8040  -13.4627   21.0226 C   0  0  0  0  0  0  0  0  0  0  0  0
  -25.0890  -10.1250   29.4583 C   0  0  0  0  0  0  0  0  0  0  0  0
  -25.2695   -8.5347   32.2798 C   0  0  0  0  0  0  0  0  0  0  0  0
  -26.6633   -6.0027   34.0944 C   0  0  0  0  0  0  0  0  0  0  0  0
  -31.1099  -12.9220   21.3546 C   0  0  0  0  0  0  0  0  0  0  0  0
  -21.7815  -14.0085   29.2686 C   0  0  0  0  0  0  0  0  0  0  0  0
  -24.7640   -7.7387   28.7127 C   0  0  0  0  0  0  0  0  0  0  0  0
  -27.0488   -8.0065   30.5709 C   0  0  0  0  0  0  0  0  0  0  0  0
  -22.6753  -13.3870   30.3386 C   0  0  0  0  0  0  0  0  0  0  0  0
  -29.4582  -13.6638   18.2889 C   0  0  0  0  0  0  0  0  0  0  0  0
  -24.0935  -13.2021   29.8082 C   0  0  0  0  0  0  0  0  0  0  0  0
  -33.0224   -8.5335   27.0747 C   0  0  0  0  0  0  0  0  0  0  0  0
  -27.9888  -13.3550   18.5811 C   0  0  0  0  0  0  0  0  0  0  0  0
  -32.9851   -9.8601   26.3090 C   0  0  0  0  0  0  0  0  0  0  0  0
  -30.9836   -8.6843   25.7545 C   0  0  0  0  0  0  0  0  0  0  0  0
  -30.3922  -12.6838   18.9957 C   0  0  0  0  0  0  0  0  0  0  0  0
  -28.7071  -12.2530   20.7417 C   0  0  0  0  0  0  0  0  0  0  0  0
  -24.1132  -12.2495   28.6067 C   0  0  1  0  0  0  0  0  0  0  0  0
  -24.7411   -8.7244   29.8768 C   0  0  1  0  0  0  0  0  0  0  0  0
  -31.8456   -7.6965   26.5442 C   0  0  2  0  0  0  0  0  0  0  0  0
  -27.7285  -13.2487   20.0958 C   0  0  2  0  0  0  0  0  0  0  0  0
  -32.0315   -9.6038   25.1542 C   0  0  1  0  0  0  0  0  0  0  0  0
  -31.2068   -5.2304   29.4735 C   0  0  0  0  0  0  0  0  0  0  0  0
  -26.6404   -4.9760   36.3841 C   0  0  0  0  0  0  0  0  0  0  0  0
  -26.9648  -10.8442   33.3297 C   0  0  0  0  0  0  0  0  0  0  0  0
  -27.6853   -9.3655   35.2172 C   0  0  0  0  0  0  0  0  0  0  0  0
  -25.2783   -9.9655   34.9540 C   0  0  0  0  0  0  0  0  0  0  0  0
  -25.7094   -3.4045   33.0465 C   0  0  0  0  0  0  0  0  0  0  0  0
  -31.9661   -5.9887   28.3926 C   0  0  0  0  0  0  0  0  0  0  0  0
  -31.6739  -13.1338   23.7622 C   0  0  0  0  0  0  0  0  0  0  0  0
  -32.4109  -11.8893   24.2207 C   0  0  0  0  0  0  0  0  0  0  0  0
  -26.3352   -8.3403   33.3311 C   0  0  1  0  0  0  0  0  0  0  0  0
  -26.0426   -4.9425   34.9861 C   0  0  2  0  0  0  0  0  0  0  0  0
  -31.0732   -6.9810   27.6444 C   0  0  2  0  0  0  0  0  0  1  0  0
  -26.5700   -9.6209   34.1810 C   0  0  0  0  0  0  0  0  0  0  0  0
  -25.9399  -11.6078   20.5326 N   0  0  0  0  0  0  0  0  0  0  0  0
  -26.2816  -12.8999   20.3920 N   0  0  0  0  0  0  0  0  0  0  0  0
  -25.6692   -8.3559   30.9478 N   0  0  0  0  0  0  0  0  0  0  0  0
  -30.0941  -12.6313   20.4290 N   0  0  0  0  0  0  0  0  0  0  0  0
  -25.4059  -15.1004   20.4314 N   0  0  0  0  0  0  0  0  0  0  0  0
  -21.7917  -12.5255   21.2702 N   0  0  0  0  0  0  0  0  0  0  0  0
  -24.0036  -10.8758   29.0489 N   0  0  0  0  0  0  0  0  0  0  0  0
  -25.9337   -7.1727   34.1083 N   0  0  0  0  0  0  0  0  0  0  0  0
  -30.7414  -12.8553   22.6927 N   0  0  0  0  0  0  0  0  0  0  0  0
  -31.4295  -10.8572   24.6681 N   0  3  0  0  0  0  0  0  0  0  0  0
  -26.2672   -3.5859   34.4113 N   0  3  0  0  0  0  0  0  0  0  0  0
  -22.5161  -14.6831   20.9895 O   0  0  0  0  0  0  0  0  0  0  0  0
  -26.2556  -10.4973   29.5048 O   0  0  0  0  0  0  0  0  0  0  0  0
  -24.1228   -8.8273   32.6280 O   0  0  0  0  0  0  0  0  0  0  0  0
  -27.6943   -5.8133   33.4529 O   0  0  0  0  0  0  0  0  0  0  0  0
  -32.2585  -13.2241   21.0137 O   0  0  0  0  0  0  0  0  0  0  0  0
  -21.7167   -6.9655   21.6108 O   0  0  0  0  0  0  0  0  0  0  0  0
  -29.9804   -6.2762   27.0567 O   0  0  0  0  0  0  0  0  0  1  0  0
  -18.1550   -6.8626   25.8189 F   0  0  0  0  0  0  0  0  0  0  0  0
  -19.6120   -8.7539   21.7316 F   0  0  0  0  0  0  0  0  0  0  0  0
  1  2  1  0  0  0  0
  1  5  2  0  0  0  0
  2  6  2  0  0  0  0
  3  8  2  0  0  0  0
  3 15  1  0  0  0  0
  4  9  1  0  0  0  0
  4 15  2  0  0  0  0
  5 17  1  0  0  0  0
  6 19  1  0  0  0  0
  7 10  2  0  0  0  0
  7 18  1  0  0  0  0
  8 21  1  0  0  0  0
  9 21  2  0  0  0  0
 10 22  1  0  0  0  0
 11 12  2  0  0  0  0
 11 23  1  0  0  0  0
 12 24  1  0  0  0  0
 13 20  1  0  0  0  0
 13 22  2  0  0  0  0
 14 24  2  0  0  0  0
 14 25  1  0  0  0  0
 15 26  1  0  0  0  0
 16 26  1  0  0  0  0
 16 27  2  0  0  0  0
 16 28  1  0  0  0  0
 17 19  2  0  0  0  0
 17 33  1  0  0  0  0
 18 20  2  0  0  0  0
 18 34  1  0  0  0  0
 19 45  1  0  0  0  0
 20 35  1  0  0  0  0
 21 79  1  0  0  0  0
 22 80  1  0  0  0  0
 23 25  2  0  0  0  0
 23 79  1  0  0  0  0
 24 81  1  0  0  0  0
 25 82  1  0  0  0  0
 26 63  2  0  0  0  0
 27 64  1  0  0  0  0
 27 67  1  0  0  0  0
 28 68  1  0  0  0  0
 28 74  2  0  0  0  0
 29 46  1  0  0  0  0
 29 69  1  0  0  0  0
 29 75  2  0  0  0  0
 30 59  1  0  0  0  0
 30 65  1  0  0  0  0
 30 76  2  0  0  0  0
 31 60  1  0  0  0  0
 31 70  1  0  0  0  0
 31 77  2  0  0  0  0
 32 66  1  0  0  0  0
 32 71  1  0  0  0  0
 32 78  2  0  0  0  0
 33 36  1  0  0  0  0
 34 46  1  0  0  0  0
 35 65  1  0  0  0  0
 36 38  1  0  0  0  0
 37 40  1  0  0  0  0
 37 43  1  0  0  0  0
 38 45  1  0  0  0  0
 39 41  1  0  0  0  0
 39 47  1  0  0  0  0
 40 48  1  0  0  0  0
 41 49  1  0  0  0  0
 42 47  1  0  0  0  0
 42 49  1  0  0  0  0
 43 66  1  0  0  0  0
 44 48  1  0  0  0  0
 44 66  1  0  0  0  0
 45 69  1  0  0  0  0
 46 65  1  0  0  0  0
 47 61  1  0  0  0  0
 48 64  1  0  0  0  0
 49 72  1  0  0  0  0
 50 56  1  0  0  0  0
 51 60  1  0  0  0  0
 52 62  1  0  0  0  0
 53 62  1  0  0  0  0
 54 62  1  0  0  0  0
 55 73  1  0  0  0  0
 56 61  1  0  0  0  0
 57 58  1  0  0  0  0
 57 71  1  0  0  0  0
 58 72  1  0  0  0  0
 59 62  1  0  0  0  0
 59 70  1  0  0  0  0
 60 73  1  0  0  0  0
 61 80  1  0  0  0  0
 63 64  1  0  0  0  0
M  CHG  2  72   1  73   1
M  ISO  4  32 100  61 101  71 100  80 101
M  END
> <Batch ID>
0137

> <Smiles>
CC[101CH:1](C1CCC(NCC[100NH:0][100C:0](=O)N2CCCC(n3nc(-c4ccc(Oc5ccc(F)cc5F)cc4)c(C(N)=O)c3N)C2)C1)[101O:1]c1ccc2c(c1)CN(C(=O)C(NC(=O)C(C)NC)C(C)(C)C)C(C(=O)NC1CCCc3ccccc31)C2

> <Shape>
0.129

> <Color>
0.170

> <Negative vol penalty>
0.000

$$$$

  -OEChem-04052321053D

 84 92  0     1  0  0  0  0  0999 V2000
  -42.8525  -25.2354   17.3187 C   0  0  0  0  0  0  0  0  0  0  0  0
  -41.7509  -24.4855   17.7179 C   0  0  0  0  0  0  0  0  0  0  0  0
  -23.0011   -9.8905   19.9818 C   0  0  0  0  0  0  0  0  0  0  0  0
  -23.7264   -9.9447   22.2857 C   0  0  0  0  0  0  0  0  0  0  0  0
  -42.7520  -26.6227   17.2217 C   0  0  0  0  0  0  0  0  0  0  0  0
  -40.5482  -25.1226   18.0215 C   0  0  0  0  0  0  0  0  0  0  0  0
  -34.8961  -22.9937   17.0081 C   0  0  0  0  0  0  0  0  0  0  0  0
  -22.2357   -8.7555   20.2494 C   0  0  0  0  0  0  0  0  0  0  0  0
  -22.9610   -8.8097   22.5534 C   0  0  0  0  0  0  0  0  0  0  0  0
  -33.9712  -22.3574   17.8348 C   0  0  0  0  0  0  0  0  0  0  0  0
  -23.2087   -5.4705   22.0851 C   0  0  0  0  0  0  0  0  0  0  0  0
  -23.7973   -4.4548   22.8383 C   0  0  0  0  0  0  0  0  0  0  0  0
  -32.9006  -24.4772   18.2584 C   0  0  0  0  0  0  0  0  0  0  0  0
  -29.7565  -17.7003   22.6647 C   0  0  0  0  0  0  0  0  0  0  0  0
  -22.0734   -4.6978   24.5134 C   0  0  0  0  0  0  0  0  0  0  0  0
  -23.7465  -10.4851   20.9999 C   0  0  0  0  0  0  0  0  0  0  0  0
  -24.1292  -13.0008   20.8211 C   0  0  0  0  0  0  0  0  0  0  0  0
  -41.5447  -27.2762   17.5150 C   0  0  0  0  0  0  0  0  0  0  0  0
  -34.8367  -24.3804   16.8086 C   0  0  0  0  0  0  0  0  0  0  0  0
  -40.4318  -26.5200   17.9297 C   0  0  0  0  0  0  0  0  0  0  0  0
  -33.8243  -25.1283   17.4266 C   0  0  0  0  0  0  0  0  0  0  0  0
  -30.2438  -18.9377   23.0706 C   0  0  0  0  0  0  0  0  0  0  0  0
  -31.5190  -19.3366   22.6859 C   0  0  0  0  0  0  0  0  0  0  0  0
  -22.2157   -8.2151   21.5352 C   0  0  0  0  0  0  0  0  0  0  0  0
  -32.9750  -23.0995   18.4624 C   0  0  0  0  0  0  0  0  0  0  0  0
  -22.0524   -6.1000   22.5461 C   0  0  0  0  0  0  0  0  0  0  0  0
  -23.2297   -4.0684   24.0524 C   0  0  0  0  0  0  0  0  0  0  0  0
  -21.4848   -5.7136   23.7602 C   0  0  0  0  0  0  0  0  0  0  0  0
  -24.5378  -11.6572   20.7239 C   0  0  0  0  0  0  0  0  0  0  0  0
  -32.2610  -18.4685   21.9013 C   0  0  0  0  0  0  0  0  0  0  0  0
  -30.5773  -16.9055   21.8809 C   0  0  0  0  0  0  0  0  0  0  0  0
  -25.2382  -13.7241   20.4558 C   0  0  0  0  0  0  0  0  0  0  0  0
  -22.8608  -13.5464   21.2071 C   0  0  0  0  0  0  0  0  0  0  0  0
  -36.7859  -26.8185   17.4087 C   0  0  0  0  0  0  0  0  0  0  0  0
  -34.5432  -28.5057   15.7821 C   0  0  0  0  0  0  0  0  0  0  0  0
  -31.3045  -28.7640   14.7378 C   0  0  0  0  0  0  0  0  0  0  0  0
  -30.7168  -14.6910   20.6881 C   0  0  0  0  0  0  0  0  0  0  0  0
  -41.4978  -28.7819   17.4413 C   0  0  0  0  0  0  0  0  0  0  0  0
  -35.8256  -25.0479   15.8926 C   0  0  0  0  0  0  0  0  0  0  0  0
  -33.7048  -26.6166   17.2290 C   0  0  0  0  0  0  0  0  0  0  0  0
  -40.0798  -29.3467   17.4194 C   0  0  0  0  0  0  0  0  0  0  0  0
  -29.6007  -12.2345   18.3650 C   0  0  0  0  0  0  0  0  0  0  0  0
  -39.2233  -28.6809   18.4917 C   0  0  0  0  0  0  0  0  0  0  0  0
  -28.1504  -11.9758   18.7796 C   0  0  0  0  0  0  0  0  0  0  0  0
  -30.5011  -12.4801   19.5744 C   0  0  0  0  0  0  0  0  0  0  0  0
  -28.5851  -13.2685   20.9072 C   0  0  0  0  0  0  0  0  0  0  0  0
  -39.1029  -27.1724   18.2437 C   0  0  1  0  0  0  0  0  0  0  0  0
  -35.9837  -26.5398   16.1692 C   0  0  1  0  0  0  0  0  0  0  0  0
  -27.6275  -13.0799   19.7193 C   0  0  2  0  0  0  0  0  0  0  0  0
  -29.3827  -19.8164   23.9164 C   0  0  0  0  0  0  0  0  0  0  0  0
  -33.6380  -18.8428   21.4585 C   0  0  0  0  0  0  0  0  0  0  0  0
  -33.3686  -20.5487   23.9117 C   0  0  0  0  0  0  0  0  0  0  0  0
  -29.7621  -30.2733   13.4570 C   0  0  0  0  0  0  0  0  0  0  0  0
  -34.4104  -30.3955   18.1739 C   0  0  0  0  0  0  0  0  0  0  0  0
  -32.2489  -31.2770   17.2689 C   0  0  0  0  0  0  0  0  0  0  0  0
  -34.3482  -31.5279   15.9450 C   0  0  0  0  0  0  0  0  0  0  0  0
  -30.7581  -26.6779   12.7108 C   0  0  0  0  0  0  0  0  0  0  0  0
  -31.1343  -22.3163   21.4788 C   0  0  0  0  0  0  0  0  0  0  0  0
  -31.5356  -23.2451   20.3499 C   0  0  0  0  0  0  0  0  0  1  0  0
  -32.0753  -20.6760   23.1106 C   0  0  1  0  0  0  0  0  0  0  0  0
  -33.2817  -29.2454   16.1567 C   0  0  1  0  0  0  0  0  0  0  0  0
  -30.7065  -29.0839   13.3796 C   0  0  2  0  0  0  0  0  0  0  0  0
  -33.5754  -30.5837   16.8916 C   0  0  0  0  0  0  0  0  0  0  0  0
  -25.8071  -11.5315   20.3277 N   0  0  0  0  0  0  0  0  0  0  0  0
  -31.8215  -17.2589   21.4874 N   0  0  0  0  0  0  0  0  0  0  0  0
  -26.2058  -12.8055   20.1726 N   0  0  0  0  0  0  0  0  0  0  0  0
  -34.6991  -27.2242   16.3292 N   0  0  0  0  0  0  0  0  0  0  0  0
  -29.9451  -13.5414   20.4166 N   0  0  0  0  0  0  0  0  0  0  0  0
  -25.4704  -15.0500   20.3522 N   0  0  0  0  0  0  0  0  0  0  0  0
  -21.8299  -12.6616   21.5518 N   0  0  0  0  0  0  0  0  0  0  0  0
  -30.0716  -15.6464   21.4727 N   0  0  0  0  0  0  0  0  0  0  0  0
  -38.1473  -26.9083   17.1894 N   0  0  0  0  0  0  0  0  0  0  0  0
  -32.5156  -29.3961   14.9243 N   0  0  0  0  0  0  0  0  0  0  0  0
  -29.9456  -27.9126   12.8598 N   0  3  0  0  0  0  0  0  0  0  0  0
  -32.3323  -21.5824   21.9590 N   0  3  0  0  0  0  0  0  0  0  0  0
  -22.6428  -14.7815   21.2296 O   0  0  0  0  0  0  0  0  0  0  0  0
  -36.2122  -26.9443   18.4842 O   0  0  0  0  0  0  0  0  0  0  0  0
  -35.3569  -29.0422   15.0260 O   0  0  0  0  0  0  0  0  0  0  0  0
  -30.7507  -28.0299   15.5532 O   0  0  0  0  0  0  0  0  0  0  0  0
  -31.8552  -14.8306   20.2338 O   0  0  0  0  0  0  0  0  0  0  0  0
  -21.4688   -7.1078   21.7968 O   0  0  0  0  0  0  0  0  0  0  0  0
  -32.0714  -22.4811   19.2704 O   0  0  0  0  0  0  0  0  0  1  0  0
  -23.7942   -3.0918   24.7748 F   0  0  0  0  0  0  0  0  0  0  0  0
  -20.3733   -6.3139   24.2077 F   0  0  0  0  0  0  0  0  0  0  0  0
  1  2  1  0  0  0  0
  1  5  2  0  0  0  0
  2  6  2  0  0  0  0
  3  8  2  0  0  0  0
  3 16  1  0  0  0  0
  4  9  1  0  0  0  0
  4 16  2  0  0  0  0
  5 18  1  0  0  0  0
  6 20  1  0  0  0  0
  7 10  2  0  0  0  0
  7 19  1  0  0  0  0
  8 24  1  0  0  0  0
  9 24  2  0  0  0  0
 10 25  1  0  0  0  0
 11 12  2  0  0  0  0
 11 26  1  0  0  0  0
 12 27  1  0  0  0  0
 13 21  1  0  0  0  0
 13 25  2  0  0  0  0
 14 22  2  0  0  0  0
 14 31  1  0  0  0  0
 15 27  2  0  0  0  0
 15 28  1  0  0  0  0
 16 29  1  0  0  0  0
 17 29  1  0  0  0  0
 17 32  2  0  0  0  0
 17 33  1  0  0  0  0
 18 20  2  0  0  0  0
 18 38  1  0  0  0  0
 19 21  2  0  0  0  0
 19 39  1  0  0  0  0
 20 47  1  0  0  0  0
 21 40  1  0  0  0  0
 22 23  1  0  0  0  0
 22 50  1  0  0  0  0
 23 30  2  0  0  0  0
 23 60  1  0  0  0  0
 24 81  1  0  0  0  0
 25 82  1  0  0  0  0
 26 28  2  0  0  0  0
 26 81  1  0  0  0  0
 27 83  1  0  0  0  0
 28 84  1  0  0  0  0
 29 64  2  0  0  0  0
 30 51  1  0  0  0  0
 30 65  1  0  0  0  0
 31 65  2  0  0  0  0
 31 71  1  0  0  0  0
 32 66  1  0  0  0  0
 32 69  1  0  0  0  0
 33 70  1  0  0  0  0
 33 76  2  0  0  0  0
 34 48  1  0  0  0  0
 34 72  1  0  0  0  0
 34 77  2  0  0  0  0
 35 61  1  0  0  0  0
 35 67  1  0  0  0  0
 35 78  2  0  0  0  0
 36 62  1  0  0  0  0
 36 73  1  0  0  0  0
 36 79  2  0  0  0  0
 37 68  1  0  0  0  0
 37 71  1  0  0  0  0
 37 80  2  0  0  0  0
 38 41  1  0  0  0  0
 39 48  1  0  0  0  0
 40 67  1  0  0  0  0
 41 43  1  0  0  0  0
 42 44  1  0  0  0  0
 42 45  1  0  0  0  0
 43 47  1  0  0  0  0
 44 49  1  0  0  0  0
 45 68  1  0  0  0  0
 46 49  1  0  0  0  0
 46 68  1  0  0  0  0
 47 72  1  0  0  0  0
 48 67  1  0  0  0  0
 49 66  1  0  0  0  0
 52 60  1  0  0  0  0
 53 62  1  0  0  0  0
 54 63  1  0  0  0  0
 55 63  1  0  0  0  0
 56 63  1  0  0  0  0
 57 74  1  0  0  0  0
 58 59  1  0  0  0  0
 58 75  1  0  0  0  0
 59 82  1  0  0  0  0
 60 75  1  0  0  0  0
 61 63  1  0  0  0  0
 61 73  1  0  0  0  0
 62 74  1  0  0  0  0
 64 66  1  0  0  0  0
M  CHG  2  74   1  75   1
M  ISO  4  37 100  59 101  71 100  82 101
M  END
> <Batch ID>
0137

> <Smiles>
CNC(C)C(=O)NC(C(=O)N1Cc2cc([101O:1][101CH2:1]CNC(C)c3c(C)cc([100NH:0][100C:0](=O)N4CCCC(n5nc(-c6ccc(Oc7ccc(F)cc7F)cc6)c(C(N)=O)c5N)C4)nc3C)ccc2CC1C(=O)NC1CCCc2ccccc21)C(C)(C)C

> <Shape>
0.183

> <Color>
0.194

> <Negative vol penalty>
0.000

$$$$

  -OEChem-04052321053D

 88 96  0     1  0  0  0  0  0999 V2000
  -30.4817  -34.6976   18.9090 C   0  0  0  0  0  0  0  0  0  0  0  0
  -30.3328  -33.3320   19.1288 C   0  0  0  0  0  0  0  0  0  0  0  0
  -21.6231  -10.2302   20.1321 C   0  0  0  0  0  0  0  0  0  0  0  0
  -23.1712  -10.1635   21.9857 C   0  0  0  0  0  0  0  0  0  0  0  0
  -29.7686  -35.6094   19.6862 C   0  0  0  0  0  0  0  0  0  0  0  0
  -29.4715  -32.8773   20.1267 C   0  0  0  0  0  0  0  0  0  0  0  0
  -26.5718  -29.0234   18.5829 C   0  0  0  0  0  0  0  0  0  0  0  0
  -30.3715  -20.8718   21.7394 C   0  0  0  0  0  0  0  0  0  0  0  0
  -21.4950   -8.8424   20.1891 C   0  0  0  0  0  0  0  0  0  0  0  0
  -23.0431   -8.7757   22.0428 C   0  0  0  0  0  0  0  0  0  0  0  0
  -27.1641  -27.7624   18.5297 C   0  0  0  0  0  0  0  0  0  0  0  0
  -29.7671  -22.0045   21.1942 C   0  0  0  0  0  0  0  0  0  0  0  0
  -22.8464   -5.2504   22.9099 C   0  0  0  0  0  0  0  0  0  0  0  0
  -22.6820   -4.6646   24.1650 C   0  0  0  0  0  0  0  0  0  0  0  0
  -26.1431  -27.2004   20.6418 C   0  0  0  0  0  0  0  0  0  0  0  0
  -30.3995  -19.8362   19.5568 C   0  0  0  0  0  0  0  0  0  0  0  0
  -20.6564   -5.9395   24.4947 C   0  0  0  0  0  0  0  0  0  0  0  0
  -22.4612  -10.8908   21.0304 C   0  0  0  0  0  0  0  0  0  0  0  0
  -21.8176  -13.2789   21.6551 C   0  0  0  0  0  0  0  0  0  0  0  0
  -28.8908  -35.1655   20.6877 C   0  0  0  0  0  0  0  0  0  0  0  0
  -25.7681  -29.3869   19.6730 C   0  0  0  0  0  0  0  0  0  0  0  0
  -28.7470  -33.7841   20.9189 C   0  0  0  0  0  0  0  0  0  0  0  0
  -25.5396  -28.4657   20.7052 C   0  0  0  0  0  0  0  0  0  0  0  0
  -30.6878  -19.7876   20.9206 C   0  0  0  0  0  0  0  0  0  0  0  0
  -29.7950  -20.9689   19.0116 C   0  0  0  0  0  0  0  0  0  0  0  0
  -22.2050   -8.1152   21.1444 C   0  0  0  0  0  0  0  0  0  0  0  0
  -26.9521  -26.8517   19.5607 C   0  0  0  0  0  0  0  0  0  0  0  0
  -29.4789  -22.0531   19.8303 C   0  0  0  0  0  0  0  0  0  0  0  0
  -21.9159   -6.1809   22.4472 C   0  0  0  0  0  0  0  0  0  0  0  0
  -21.5870   -5.0091   24.9574 C   0  0  0  0  0  0  0  0  0  0  0  0
  -20.8208   -6.5253   23.2396 C   0  0  0  0  0  0  0  0  0  0  0  0
  -22.5944  -12.3243   20.9716 C   0  0  0  0  0  0  0  0  0  0  0  0
  -22.3383  -14.4884   21.2647 C   0  0  0  0  0  0  0  0  0  0  0  0
  -20.7232  -13.0893   22.5617 C   0  0  0  0  0  0  0  0  0  0  0  0
  -25.9179  -31.6289   21.9212 C   0  0  0  0  0  0  0  0  0  0  0  0
  -22.9830  -30.4902   22.7035 C   0  0  0  0  0  0  0  0  0  0  0  0
  -20.7701  -27.8931   22.6342 C   0  0  0  0  0  0  0  0  0  0  0  0
  -27.7232  -16.1462   19.2383 C   0  0  0  0  0  0  0  0  0  0  0  0
  -28.1773  -36.1900   21.5339 C   0  0  0  0  0  0  0  0  0  0  0  0
  -25.1147  -30.7413   19.7025 C   0  0  0  0  0  0  0  0  0  0  0  0
  -24.6688  -28.7996   21.8878 C   0  0  0  0  0  0  0  0  0  0  0  0
  -27.0011  -35.6175   22.3208 C   0  0  0  0  0  0  0  0  0  0  0  0
  -24.5913  -16.5890   17.6038 C   0  0  0  0  0  0  0  0  0  0  0  0
  -27.4005  -34.3140   23.0050 C   0  0  0  0  0  0  0  0  0  0  0  0
  -23.6543  -15.6324   18.3432 C   0  0  0  0  0  0  0  0  0  0  0  0
  -25.9971  -16.0086   17.4668 C   0  0  0  0  0  0  0  0  0  0  0  0
  -25.6754  -14.6139   19.4731 C   0  0  0  0  0  0  0  0  0  0  0  0
  -27.8035  -33.2515   21.9754 C   0  0  1  0  0  0  0  0  0  0  0  0
  -24.7322  -31.1898   21.1096 C   0  0  1  0  0  0  0  0  0  0  0  0
  -24.2605  -15.1791   19.6850 C   0  0  2  0  0  0  0  0  0  0  0  0
  -28.0166  -20.7648   17.2560 C   0  0  0  0  0  0  0  0  0  0  0  0
  -32.6769  -18.8748   22.1867 C   0  0  0  0  0  0  0  0  0  0  0  0
  -18.4650  -27.2486   23.3883 C   0  0  0  0  0  0  0  0  0  0  0  0
  -28.2029  -17.2288   23.1280 C   0  0  0  0  0  0  0  0  0  0  0  0
  -24.0152  -30.1429   25.5537 C   0  0  0  0  0  0  0  0  0  0  0  0
  -22.0536  -28.6551   26.0085 C   0  0  0  0  0  0  0  0  0  0  0  0
  -21.6880  -31.0438   25.3895 C   0  0  0  0  0  0  0  0  0  0  0  0
  -19.8565  -27.4567   19.8533 C   0  0  0  0  0  0  0  0  0  0  0  0
  -29.4947  -21.0045   17.5493 C   0  0  0  0  0  0  0  0  0  0  0  0
  -29.3588  -16.1861   21.1044 C   0  0  0  0  0  0  0  0  0  0  0  0
  -28.7781  -25.5154   18.8285 C   0  0  0  0  0  0  0  0  0  1  0  0
  -29.5918  -24.3984   19.4529 C   0  0  0  0  0  0  0  0  0  0  0  0
  -31.3353  -18.5775   21.5038 C   0  0  1  0  0  0  0  0  0  0  0  0
  -22.4653  -29.4106   23.6230 C   0  0  1  0  0  0  0  0  0  0  0  0
  -19.3003  -27.8318   22.2592 C   0  0  2  0  0  0  0  0  0  0  0  0
  -29.1636  -17.4328   21.9645 C   0  0  2  0  0  0  0  0  0  0  0  0
  -22.5736  -29.8072   25.1225 C   0  0  0  0  0  0  0  0  0  0  0  0
  -23.5368  -12.8795   20.2051 N   0  0  0  0  0  0  0  0  0  0  0  0
  -23.3556  -14.1961   20.4045 N   0  0  0  0  0  0  0  0  0  0  0  0
  -24.0572  -30.1388   21.8738 N   0  0  0  0  0  0  0  0  0  0  0  0
  -26.5150  -15.5999   18.7748 N   0  0  0  0  0  0  0  0  0  0  0  0
  -22.0207  -15.7628   21.5768 N   0  0  0  0  0  0  0  0  0  0  0  0
  -20.3164  -11.7802   22.8534 N   0  0  0  0  0  0  0  0  0  0  0  0
  -26.6285  -32.6728   21.3599 N   0  0  0  0  0  0  0  0  0  0  0  0
  -21.1074  -29.1136   23.1800 N   0  0  0  0  0  0  0  0  0  0  0  0
  -28.1394  -15.7101   20.4902 N   0  0  0  0  0  0  0  0  0  0  0  0
  -19.1097  -26.9851   21.0478 N   0  3  0  0  0  0  0  0  0  0  0  0
  -30.4724  -17.8630   22.5062 N   0  3  0  0  0  0  0  0  0  0  0  0
  -20.1132  -14.0526   23.0846 O   0  0  0  0  0  0  0  0  0  0  0  0
  -26.1687  -31.0637   22.9792 O   0  0  0  0  0  0  0  0  0  0  0  0
  -22.4491  -31.6022   22.7156 O   0  0  0  0  0  0  0  0  0  0  0  0
  -21.5409  -26.9512   22.4638 O   0  0  0  0  0  0  0  0  0  0  0  0
  -28.3794  -16.9662   18.5872 O   0  0  0  0  0  0  0  0  0  0  0  0
  -22.0801   -6.7610   21.2005 O   0  0  0  0  0  0  0  0  0  0  0  0
  -27.5296  -25.6204   19.5116 O   0  0  0  0  0  0  0  0  0  1  0  0
  -28.8835  -23.1729   19.3120 O   0  0  0  0  0  0  0  0  0  0  0  0
  -21.4284   -4.4453   26.1621 F   0  0  0  0  0  0  0  0  0  0  0  0
  -19.9229   -7.4177   22.7999 F   0  0  0  0  0  0  0  0  0  0  0  0
  1  2  1  0  0  0  0
  1  5  2  0  0  0  0
  2  6  2  0  0  0  0
  3  9  2  0  0  0  0
  3 18  1  0  0  0  0
  4 10  1  0  0  0  0
  4 18  2  0  0  0  0
  5 20  1  0  0  0  0
  6 22  1  0  0  0  0
  7 11  2  0  0  0  0
  7 21  1  0  0  0  0
  8 12  2  0  0  0  0
  8 24  1  0  0  0  0
  9 26  1  0  0  0  0
 10 26  2  0  0  0  0
 11 27  1  0  0  0  0
 12 28  1  0  0  0  0
 13 14  2  0  0  0  0
 13 29  1  0  0  0  0
 14 30  1  0  0  0  0
 15 23  1  0  0  0  0
 15 27  2  0  0  0  0
 16 24  2  0  0  0  0
 16 25  1  0  0  0  0
 17 30  2  0  0  0  0
 17 31  1  0  0  0  0
 18 32  1  0  0  0  0
 19 32  1  0  0  0  0
 19 33  2  0  0  0  0
 19 34  1  0  0  0  0
 20 22  2  0  0  0  0
 20 39  1  0  0  0  0
 21 23  2  0  0  0  0
 21 40  1  0  0  0  0
 22 48  1  0  0  0  0
 23 41  1  0  0  0  0
 24 63  1  0  0  0  0
 25 28  2  0  0  0  0
 25 59  1  0  0  0  0
 26 84  1  0  0  0  0
 27 85  1  0  0  0  0
 28 86  1  0  0  0  0
 29 31  2  0  0  0  0
 29 84  1  0  0  0  0
 30 87  1  0  0  0  0
 31 88  1  0  0  0  0
 32 68  2  0  0  0  0
 33 69  1  0  0  0  0
 33 72  1  0  0  0  0
 34 73  1  0  0  0  0
 34 79  2  0  0  0  0
 35 49  1  0  0  0  0
 35 74  1  0  0  0  0
 35 80  2  0  0  0  0
 36 64  1  0  0  0  0
 36 70  1  0  0  0  0
 36 81  2  0  0  0  0
 37 65  1  0  0  0  0
 37 75  1  0  0  0  0
 37 82  2  0  0  0  0
 38 71  1  0  0  0  0
 38 76  1  0  0  0  0
 38 83  2  0  0  0  0
 39 42  1  0  0  0  0
 40 49  1  0  0  0  0
 41 70  1  0  0  0  0
 42 44  1  0  0  0  0
 43 45  1  0  0  0  0
 43 46  1  0  0  0  0
 44 48  1  0  0  0  0
 45 50  1  0  0  0  0
 46 71  1  0  0  0  0
 47 50  1  0  0  0  0
 47 71  1  0  0  0  0
 48 74  1  0  0  0  0
 49 70  1  0  0  0  0
 50 69  1  0  0  0  0
 51 59  1  0  0  0  0
 52 63  1  0  0  0  0
 53 65  1  0  0  0  0
 54 66  1  0  0  0  0
 55 67  1  0  0  0  0
 56 67  1  0  0  0  0
 57 67  1  0  0  0  0
 58 77  1  0  0  0  0
 60 66  1  0  0  0  0
 60 76  1  0  0  0  0
 61 62  1  0  0  0  0
 61 85  1  0  0  0  0
 62 86  1  0  0  0  0
 63 78  1  0  0  0  0
 64 67  1  0  0  0  0
 64 75  1  0  0  0  0
 65 77  1  0  0  0  0
 66 78  1  0  0  0  0
 68 69  1  0  0  0  0
M  CHG  2  77   1  78   1
M  ISO  4  38 100  61 101  76 100  85 101
M  END
> <Batch ID>
0137

> <Smiles>
CCc1cc(C(C)NC(C)C[100NH:0][100C:0](=O)N2CCCC(n3nc(-c4ccc(Oc5ccc(F)cc5F)cc4)c(C(N)=O)c3N)C2)ccc1OC[101CH2:1][101O:1]c1ccc2c(c1)CN(C(=O)C(NC(=O)C(C)NC)C(C)(C)C)C(C(=O)NC1CCCc3ccccc31)C2

> <Shape>
0.305

> <Color>
0.097

> <Negative vol penalty>
0.000

$$$$

  -OEChem-04052321053D

 88 97  0     1  0  0  0  0  0999 V2000
  -31.5488  -31.5469   16.7435 C   0  0  0  0  0  0  0  0  0  0  0  0
  -31.1711  -30.4554   17.5191 C   0  0  0  0  0  0  0  0  0  0  0  0
  -22.9620  -10.0684   20.2508 C   0  0  0  0  0  0  0  0  0  0  0  0
  -24.2966   -9.2311   22.0824 C   0  0  0  0  0  0  0  0  0  0  0  0
  -31.0078  -32.8054   17.0028 C   0  0  0  0  0  0  0  0  0  0  0  0
  -30.2530  -30.6222   18.5552 C   0  0  0  0  0  0  0  0  0  0  0  0
  -26.7267  -26.9883   18.6296 C   0  0  0  0  0  0  0  0  0  0  0  0
  -29.3305  -20.8272   22.5467 C   0  0  0  0  0  0  0  0  0  0  0  0
  -27.6349  -19.7238   21.2259 C   0  0  0  0  0  0  0  0  0  0  0  0
  -29.0798  -22.0214   21.8709 C   0  0  0  0  0  0  0  0  0  0  0  0
  -27.3842  -20.9180   20.5501 C   0  0  0  0  0  0  0  0  0  0  0  0
  -22.2063   -8.8961   20.2655 C   0  0  0  0  0  0  0  0  0  0  0  0
  -23.5409   -8.0588   22.0972 C   0  0  0  0  0  0  0  0  0  0  0  0
  -27.0950  -25.7545   19.1642 C   0  0  0  0  0  0  0  0  0  0  0  0
  -20.5259   -7.0552   23.2474 C   0  0  0  0  0  0  0  0  0  0  0  0
  -20.1040   -6.5736   24.4866 C   0  0  0  0  0  0  0  0  0  0  0  0
  -26.0101  -26.3364   21.2387 C   0  0  0  0  0  0  0  0  0  0  0  0
  -21.3096   -4.5163   24.0974 C   0  0  0  0  0  0  0  0  0  0  0  0
  -24.0072  -10.2359   21.1592 C   0  0  0  0  0  0  0  0  0  0  0  0
  -24.5389  -12.6285   21.8666 C   0  0  0  0  0  0  0  0  0  0  0  0
  -30.0752  -32.9858   18.0364 C   0  0  0  0  0  0  0  0  0  0  0  0
  -26.0055  -27.9114   19.4005 C   0  0  0  0  0  0  0  0  0  0  0  0
  -29.7000  -31.8846   18.8294 C   0  0  0  0  0  0  0  0  0  0  0  0
  -25.6316  -27.5802   20.7107 C   0  0  0  0  0  0  0  0  0  0  0  0
  -28.6081  -19.6784   22.2241 C   0  0  0  0  0  0  0  0  0  0  0  0
  -28.1067  -22.0668   20.8727 C   0  0  0  0  0  0  0  0  0  0  0  0
  -22.4957   -7.8913   21.1887 C   0  0  0  0  0  0  0  0  0  0  0  0
  -26.7392  -25.4295   20.4699 C   0  0  0  0  0  0  0  0  0  0  0  0
  -21.3397   -6.2674   22.4332 C   0  0  0  0  0  0  0  0  0  0  0  0
  -20.4958   -5.3041   24.9116 C   0  0  0  0  0  0  0  0  0  0  0  0
  -21.7315   -4.9980   22.8582 C   0  0  0  0  0  0  0  0  0  0  0  0
  -24.7886  -11.4464   21.1441 C   0  0  0  0  0  0  0  0  0  0  0  0
  -25.5616  -13.4725   21.5084 C   0  0  0  0  0  0  0  0  0  0  0  0
  -23.4775  -12.9361   22.7801 C   0  0  0  0  0  0  0  0  0  0  0  0
  -26.5531  -30.8544   20.4693 C   0  0  0  0  0  0  0  0  0  0  0  0
  -23.4734  -30.6460   21.4665 C   0  0  0  0  0  0  0  0  0  0  0  0
  -34.6178  -16.1879   24.0152 C   0  0  0  0  0  0  0  0  0  0  0  0
  -20.8498  -28.6608   22.3734 C   0  0  0  0  0  0  0  0  0  0  0  0
  -31.0285  -14.2969   20.6217 C   0  0  0  0  0  0  0  0  0  0  0  0
  -29.5535  -34.3743   18.3093 C   0  0  0  0  0  0  0  0  0  0  0  0
  -25.5927  -29.2273   18.8002 C   0  0  0  0  0  0  0  0  0  0  0  0
  -24.8399  -28.5278   21.5731 C   0  0  0  0  0  0  0  0  0  0  0  0
  -28.3033  -34.3941   19.1851 C   0  0  0  0  0  0  0  0  0  0  0  0
  -29.0444  -13.0846   17.8596 C   0  0  0  0  0  0  0  0  0  0  0  0
  -28.4801  -33.4740   20.3888 C   0  0  0  0  0  0  0  0  0  0  0  0
  -27.7474  -12.6251   18.5283 C   0  0  0  0  0  0  0  0  0  0  0  0
  -30.2595  -12.8665   18.7597 C   0  0  0  0  0  0  0  0  0  0  0  0
  -28.8465  -12.9811   20.7709 C   0  0  0  0  0  0  0  0  0  0  0  0
  -29.5798  -15.2931   22.5549 C   0  0  0  0  0  0  0  0  0  0  0  0
  -28.6880  -32.0205   19.9464 C   0  0  1  0  0  0  0  0  0  0  0  0
  -25.3034  -30.2976   19.8481 C   0  0  1  0  0  0  0  0  0  0  0  0
  -27.5907  -13.2485   19.9283 C   0  0  2  0  0  0  0  0  0  0  0  0
  -30.4092  -16.4321   23.1616 C   0  0  1  0  0  0  0  0  0  0  0  0
  -31.6768  -15.7467   22.6213 C   0  0  1  0  0  0  0  0  0  0  0  0
  -35.2974  -17.1116   24.9709 C   0  0  0  0  0  0  0  0  0  0  0  0
  -18.4747  -28.7794   23.1748 C   0  0  0  0  0  0  0  0  0  0  0  0
  -24.4541  -31.4176   24.2509 C   0  0  0  0  0  0  0  0  0  0  0  0
  -22.2714  -30.6045   25.1689 C   0  0  0  0  0  0  0  0  0  0  0  0
  -22.3132  -32.5096   23.5591 C   0  0  0  0  0  0  0  0  0  0  0  0
  -19.8530  -27.2061   19.9966 C   0  0  0  0  0  0  0  0  0  0  0  0
  -28.8771  -18.3935   22.9505 C   0  0  0  0  0  0  0  0  0  0  0  0
  -27.8380  -23.3445   20.1518 C   0  0  0  0  0  0  0  0  0  1  0  0
  -32.5014  -14.9466   23.6120 C   0  0  0  0  0  0  0  0  0  0  0  0
  -22.7867  -30.1707   22.7241 C   0  0  1  0  0  0  0  0  0  0  0  0
  -19.3882  -28.6737   21.9636 C   0  0  2  0  0  0  0  0  0  0  0  0
  -22.9729  -31.1583   23.9104 C   0  0  0  0  0  0  0  0  0  0  0  0
  -25.8839  -11.5283   20.3841 N   0  0  0  0  0  0  0  0  0  0  0  0
  -26.3315  -12.7720   20.6270 N   0  0  0  0  0  0  0  0  0  0  0  0
  -24.4654  -29.8047   20.9431 N   0  0  0  0  0  0  0  0  0  0  0  0
  -30.0431  -13.4697   20.0770 N   0  0  0  0  0  0  0  0  0  0  0  0
  -30.7838  -14.8802   21.8457 N   0  0  0  0  0  0  0  0  0  0  0  0
  -25.8683  -14.7380   21.8643 N   0  0  0  0  0  0  0  0  0  0  0  0
  -22.5101  -11.9546   23.0353 N   0  0  0  0  0  0  0  0  0  0  0  0
  -27.4266  -31.4238   19.5625 N   0  0  0  0  0  0  0  0  0  0  0  0
  -33.3274  -15.8192   24.3831 N   0  0  0  0  0  0  0  0  0  0  0  0
  -21.3946  -29.9275   22.3620 N   0  0  0  0  0  0  0  0  0  0  0  0
  -30.1456  -17.7344   22.5225 N   0  3  0  0  0  0  0  0  0  0  0  0
  -19.0464  -27.4254   21.2247 N   0  3  0  0  0  0  0  0  0  0  0  0
  -23.3803  -14.0542   23.3405 O   0  0  0  0  0  0  0  0  0  0  0  0
  -26.7124  -30.7748   21.6817 O   0  0  0  0  0  0  0  0  0  0  0  0
  -23.1370  -31.7207   20.9630 O   0  0  0  0  0  0  0  0  0  0  0  0
  -35.2072  -15.8236   23.0045 O   0  0  0  0  0  0  0  0  0  0  0  0
  -21.4474  -27.6307   22.6771 O   0  0  0  0  0  0  0  0  0  0  0  0
  -32.0844  -14.5362   20.0210 O   0  0  0  0  0  0  0  0  0  0  0  0
  -21.7584   -6.7474   21.2036 O   0  0  0  0  0  0  0  0  0  0  0  0
  -27.1005  -24.2179   20.9980 O   0  0  0  0  0  0  0  0  0  1  0  0
  -20.0919   -4.8423   26.1023 F   0  0  0  0  0  0  0  0  0  0  0  0
  -22.5142   -4.2371   22.0809 F   0  0  0  0  0  0  0  0  0  0  0  0
  1  2  1  0  0  0  0
  1  5  2  0  0  0  0
  2  6  2  0  0  0  0
  3 12  2  0  0  0  0
  3 19  1  0  0  0  0
  4 13  1  0  0  0  0
  4 19  2  0  0  0  0
  5 21  1  0  0  0  0
  6 23  1  0  0  0  0
  7 14  2  0  0  0  0
  7 22  1  0  0  0  0
  8 10  2  0  0  0  0
  8 25  1  0  0  0  0
  9 11  1  0  0  0  0
  9 25  2  0  0  0  0
 10 26  1  0  0  0  0
 11 26  2  0  0  0  0
 12 27  1  0  0  0  0
 13 27  2  0  0  0  0
 14 28  1  0  0  0  0
 15 16  2  0  0  0  0
 15 29  1  0  0  0  0
 16 30  1  0  0  0  0
 17 24  1  0  0  0  0
 17 28  2  0  0  0  0
 18 30  2  0  0  0  0
 18 31  1  0  0  0  0
 19 32  1  0  0  0  0
 20 32  1  0  0  0  0
 20 33  2  0  0  0  0
 20 34  1  0  0  0  0
 21 23  2  0  0  0  0
 21 40  1  0  0  0  0
 22 24  2  0  0  0  0
 22 41  1  0  0  0  0
 23 50  1  0  0  0  0
 24 42  1  0  0  0  0
 25 61  1  0  0  0  0
 26 62  1  0  0  0  0
 27 85  1  0  0  0  0
 28 86  1  0  0  0  0
 29 31  2  0  0  0  0
 29 85  1  0  0  0  0
 30 87  1  0  0  0  0
 31 88  1  0  0  0  0
 32 67  2  0  0  0  0
 33 68  1  0  0  0  0
 33 72  1  0  0  0  0
 34 73  1  0  0  0  0
 34 79  2  0  0  0  0
 35 51  1  0  0  0  0
 35 74  1  0  0  0  0
 35 80  2  0  0  0  0
 36 64  1  0  0  0  0
 36 69  1  0  0  0  0
 36 81  2  0  0  0  0
 37 55  1  0  0  0  0
 37 75  1  0  0  0  0
 37 82  2  0  0  0  0
 38 65  1  0  0  0  0
 38 76  1  0  0  0  0
 38 83  2  0  0  0  0
 39 70  1  0  0  0  0
 39 71  1  0  0  0  0
 39 84  2  0  0  0  0
 40 43  1  0  0  0  0
 41 51  1  0  0  0  0
 42 69  1  0  0  0  0
 43 45  1  0  0  0  0
 44 46  1  0  0  0  0
 44 47  1  0  0  0  0
 45 50  1  0  0  0  0
 46 52  1  0  0  0  0
 47 70  1  0  0  0  0
 48 52  1  0  0  0  0
 48 70  1  0  0  0  0
 49 53  1  0  0  0  0
 49 71  1  0  0  0  0
 50 74  1  0  0  0  0
 51 69  1  0  0  0  0
 52 68  1  0  0  0  0
 53 54  1  0  0  0  0
 53 77  1  0  0  0  0
 54 63  1  0  0  0  0
 54 71  1  0  0  0  0
 56 65  1  0  0  0  0
 57 66  1  0  0  0  0
 58 66  1  0  0  0  0
 59 66  1  0  0  0  0
 60 78  1  0  0  0  0
 61 77  1  0  0  0  0
 62 86  1  0  0  0  0
 63 75  1  0  0  0  0
 64 66  1  0  0  0  0
 64 76  1  0  0  0  0
 65 78  1  0  0  0  0
 67 68  1  0  0  0  0
M  CHG  2  77   1  78   1
M  ISO  4  39 100  62 101  71 100  86 101
M  END
> <Batch ID>
0137

> <Smiles>
CNC(C)C(=O)NC(C(=O)N1Cc2cc([101O:1][101CH2:1]c3ccc(CNC4C[100N:0]([100C:0](=O)N5CCCC(n6nc(-c7ccc(Oc8ccc(F)cc8F)cc7)c(C(N)=O)c6N)C5)C4CNC(C)=O)cc3)ccc2CC1C(=O)NC1CCCc2ccccc21)C(C)(C)C

> <Shape>
0.332

> <Color>
0.143

> <Negative vol penalty>
0.000

$$$$

  -OEChem-04052321053D

 82 91  0     1  0  0  0  0  0999 V2000
  -38.7454  -31.1693   21.6106 C   0  0  0  0  0  0  0  0  0  0  0  0
  -38.0179  -29.9892   21.7270 C   0  0  0  0  0  0  0  0  0  0  0  0
  -23.0727   -9.8695   19.9422 C   0  0  0  0  0  0  0  0  0  0  0  0
  -23.8352   -9.8768   22.2347 C   0  0  0  0  0  0  0  0  0  0  0  0
  -38.5190  -32.0229   20.5317 C   0  0  0  0  0  0  0  0  0  0  0  0
  -37.0627  -29.6626   20.7651 C   0  0  0  0  0  0  0  0  0  0  0  0
  -35.6333  -24.0585   18.7507 C   0  0  0  0  0  0  0  0  0  0  0  0
  -29.2964  -18.6679   20.9892 C   0  0  0  0  0  0  0  0  0  0  0  0
  -29.0350  -19.7162   20.1057 C   0  0  0  0  0  0  0  0  0  0  0  0
  -22.3298   -8.7159   20.1929 C   0  0  0  0  0  0  0  0  0  0  0  0
  -23.0922   -8.7232   22.4854 C   0  0  0  0  0  0  0  0  0  0  0  0
  -34.6020  -23.1791   19.0775 C   0  0  0  0  0  0  0  0  0  0  0  0
  -19.3836   -7.9176   21.6474 C   0  0  0  0  0  0  0  0  0  0  0  0
  -18.0762   -7.8706   21.1636 C   0  0  0  0  0  0  0  0  0  0  0  0
  -31.5038  -18.4317   20.0515 C   0  0  0  0  0  0  0  0  0  0  0  0
  -33.3275  -23.9833   17.1939 C   0  0  0  0  0  0  0  0  0  0  0  0
  -18.6355   -5.9280   19.8406 C   0  0  0  0  0  0  0  0  0  0  0  0
  -23.8255  -10.4499   20.9631 C   0  0  0  0  0  0  0  0  0  0  0  0
  -24.1657  -12.9753   20.8429 C   0  0  0  0  0  0  0  0  0  0  0  0
  -37.5674  -31.7018   19.5509 C   0  0  0  0  0  0  0  0  0  0  0  0
  -35.5146  -24.9162   17.6476 C   0  0  0  0  0  0  0  0  0  0  0  0
  -36.8224  -30.5133   19.6728 C   0  0  0  0  0  0  0  0  0  0  0  0
  -31.2526  -19.4929   19.1692 C   0  0  0  0  0  0  0  0  0  0  0  0
  -34.3597  -24.8709   16.8537 C   0  0  0  0  0  0  0  0  0  0  0  0
  -30.5289  -18.0228   20.9589 C   0  0  0  0  0  0  0  0  0  0  0  0
  -29.9981  -20.1321   19.1744 C   0  0  0  0  0  0  0  0  0  0  0  0
  -22.3395   -8.1428   21.4645 C   0  0  0  0  0  0  0  0  0  0  0  0
  -33.4477  -23.1434   18.3007 C   0  0  0  0  0  0  0  0  0  0  0  0
  -20.3170   -6.9698   21.2277 C   0  0  0  0  0  0  0  0  0  0  0  0
  -17.7021   -6.8758   20.2602 C   0  0  0  0  0  0  0  0  0  0  0  0
  -19.9430   -5.9750   20.3244 C   0  0  0  0  0  0  0  0  0  0  0  0
  -24.5936  -11.6412   20.7046 C   0  0  0  0  0  0  0  0  0  0  0  0
  -25.2570  -13.7254   20.4784 C   0  0  0  0  0  0  0  0  0  0  0  0
  -22.8954  -13.4903   21.2633 C   0  0  0  0  0  0  0  0  0  0  0  0
  -35.4713  -28.0699   17.2526 C   0  0  0  0  0  0  0  0  0  0  0  0
  -35.4775  -27.2845   14.1053 C   0  0  0  0  0  0  0  0  0  0  0  0
  -34.7775  -24.9721   11.6949 C   0  0  0  0  0  0  0  0  0  0  0  0
  -30.7404  -14.7475   20.6607 C   0  0  0  0  0  0  0  0  0  0  0  0
  -37.3243  -32.6788   18.4280 C   0  0  0  0  0  0  0  0  0  0  0  0
  -36.6472  -25.8401   17.2926 C   0  0  0  0  0  0  0  0  0  0  0  0
  -32.3238  -19.9156   18.1913 C   0  0  0  0  0  0  0  0  0  0  0  0
  -34.1915  -25.7566   15.6472 C   0  0  0  0  0  0  0  0  0  0  0  0
  -36.5592  -32.0772   17.2520 C   0  0  0  0  0  0  0  0  0  0  0  0
  -29.6015  -12.3626   18.2750 C   0  0  0  0  0  0  0  0  0  0  0  0
  -35.3554  -31.2827   17.7488 C   0  0  0  0  0  0  0  0  0  0  0  0
  -28.1647  -12.0680   18.7096 C   0  0  0  0  0  0  0  0  0  0  0  0
  -30.5198  -12.5838   19.4749 C   0  0  0  0  0  0  0  0  0  0  0  0
  -28.6192  -13.3137   20.8637 C   0  0  0  0  0  0  0  0  0  0  0  0
  -30.6189  -21.5083   17.2231 C   0  0  0  0  0  0  0  0  0  0  0  0
  -35.7952  -30.1122   18.6364 C   0  0  1  0  0  0  0  0  0  0  0  0
  -36.2041  -27.0323   16.4501 C   0  0  1  0  0  0  0  0  0  0  0  0
  -27.6438  -13.1387   19.6872 C   0  0  2  0  0  0  0  0  0  0  0  0
  -32.0760  -21.3186   17.6342 C   0  0  1  0  0  0  0  0  0  1  0  0
  -34.8550  -24.6318    9.2099 C   0  0  0  0  0  0  0  0  0  0  0  0
  -33.0055  -29.0449   13.7896 C   0  0  0  0  0  0  0  0  0  0  0  0
  -32.5832  -27.9363   11.5849 C   0  0  0  0  0  0  0  0  0  0  0  0
  -34.6748  -29.2489   11.9386 C   0  0  0  0  0  0  0  0  0  0  0  0
  -36.6490  -22.6934   11.9486 C   0  0  0  0  0  0  0  0  0  0  0  0
  -30.8064  -16.8980   21.8977 C   0  0  0  0  0  0  0  0  0  0  0  0
  -34.4139  -27.0037   13.0714 C   0  0  1  0  0  0  0  0  0  0  0  0
  -35.5969  -24.4562   10.5258 C   0  0  2  0  0  0  0  0  0  0  0  0
  -33.6714  -28.2930   12.6199 C   0  0  0  0  0  0  0  0  0  0  0  0
  -25.8580  -11.5462   20.2849 N   0  0  0  0  0  0  0  0  0  0  0  0
  -26.2340  -12.8300   20.1562 N   0  0  0  0  0  0  0  0  0  0  0  0
  -29.7189  -21.1862   18.3151 N   0  0  0  0  0  0  0  0  0  0  0  0
  -35.3241  -26.6473   15.3448 N   0  0  0  0  0  0  0  0  0  0  0  0
  -29.9697  -13.6119   20.3616 N   0  0  0  0  0  0  0  0  0  0  0  0
  -25.4666  -15.0570   20.4053 N   0  0  0  0  0  0  0  0  0  0  0  0
  -21.8844  -12.5806   21.6016 N   0  0  0  0  0  0  0  0  0  0  0  0
  -36.2930  -29.0219   17.8252 N   0  0  0  0  0  0  0  0  0  0  0  0
  -35.0770  -26.2857   11.9883 N   0  0  0  0  0  0  0  0  0  0  0  0
  -30.1417  -15.6759   21.5035 N   0  0  0  0  0  0  0  0  0  0  0  0
  -35.9002  -23.0081   10.7047 N   0  3  0  0  0  0  0  0  0  0  0  0
  -22.6585  -14.7208   21.3210 O   0  0  0  0  0  0  0  0  0  0  0  0
  -34.2507  -28.0119   17.3442 O   0  0  0  0  0  0  0  0  0  0  0  0
  -36.4139  -28.0355   13.8212 O   0  0  0  0  0  0  0  0  0  0  0  0
  -33.9516  -24.2803   12.2863 O   0  0  0  0  0  0  0  0  0  0  0  0
  -31.8758  -14.9237   20.2058 O   0  0  0  0  0  0  0  0  0  0  0  0
  -21.6144   -7.0172   21.7096 O   0  0  0  0  0  0  0  0  0  0  0  0
  -32.4393  -22.2864   18.6179 O   0  0  0  0  0  0  0  0  0  1  0  0
  -16.4462   -6.8300   19.7969 F   0  0  0  0  0  0  0  0  0  0  0  0
  -20.8349   -5.0609   19.9185 F   0  0  0  0  0  0  0  0  0  0  0  0
  1  2  1  0  0  0  0
  1  5  2  0  0  0  0
  2  6  2  0  0  0  0
  3 10  2  0  0  0  0
  3 18  1  0  0  0  0
  4 11  1  0  0  0  0
  4 18  2  0  0  0  0
  5 20  1  0  0  0  0
  6 22  1  0  0  0  0
  7 12  2  0  0  0  0
  7 21  1  0  0  0  0
  8  9  2  0  0  0  0
  8 25  1  0  0  0  0
  9 26  1  0  0  0  0
 10 27  1  0  0  0  0
 11 27  2  0  0  0  0
 12 28  1  0  0  0  0
 13 14  2  0  0  0  0
 13 29  1  0  0  0  0
 14 30  1  0  0  0  0
 15 23  1  0  0  0  0
 15 25  2  0  0  0  0
 16 24  1  0  0  0  0
 16 28  2  0  0  0  0
 17 30  2  0  0  0  0
 17 31  1  0  0  0  0
 18 32  1  0  0  0  0
 19 32  1  0  0  0  0
 19 33  2  0  0  0  0
 19 34  1  0  0  0  0
 20 22  2  0  0  0  0
 20 39  1  0  0  0  0
 21 24  2  0  0  0  0
 21 40  1  0  0  0  0
 22 50  1  0  0  0  0
 23 26  2  0  0  0  0
 23 41  1  0  0  0  0
 24 42  1  0  0  0  0
 25 59  1  0  0  0  0
 26 65  1  0  0  0  0
 27 79  1  0  0  0  0
 28 80  1  0  0  0  0
 29 31  2  0  0  0  0
 29 79  1  0  0  0  0
 30 81  1  0  0  0  0
 31 82  1  0  0  0  0
 32 63  2  0  0  0  0
 33 64  1  0  0  0  0
 33 68  1  0  0  0  0
 34 69  1  0  0  0  0
 34 74  2  0  0  0  0
 35 51  1  0  0  0  0
 35 70  1  0  0  0  0
 35 75  2  0  0  0  0
 36 60  1  0  0  0  0
 36 66  1  0  0  0  0
 36 76  2  0  0  0  0
 37 61  1  0  0  0  0
 37 71  1  0  0  0  0
 37 77  2  0  0  0  0
 38 67  1  0  0  0  0
 38 72  1  0  0  0  0
 38 78  2  0  0  0  0
 39 43  1  0  0  0  0
 40 51  1  0  0  0  0
 41 53  1  0  0  0  0
 42 66  1  0  0  0  0
 43 45  1  0  0  0  0
 44 46  1  0  0  0  0
 44 47  1  0  0  0  0
 45 50  1  0  0  0  0
 46 52  1  0  0  0  0
 47 67  1  0  0  0  0
 48 52  1  0  0  0  0
 48 67  1  0  0  0  0
 49 53  1  0  0  0  0
 49 65  1  0  0  0  0
 50 70  1  0  0  0  0
 51 66  1  0  0  0  0
 52 64  1  0  0  0  0
 53 80  1  0  0  0  0
 54 61  1  0  0  0  0
 55 62  1  0  0  0  0
 56 62  1  0  0  0  0
 57 62  1  0  0  0  0
 58 73  1  0  0  0  0
 59 72  1  0  0  0  0
 60 62  1  0  0  0  0
 60 71  1  0  0  0  0
 61 73  1  0  0  0  0
 63 64  1  0  0  0  0
M  CHG  1  73   1
M  ISO  4  38 100  53 101  72 100  80 101
M  END
> <Batch ID>
0137

> <Smiles>
CNC(C)C(=O)NC(C(=O)N1Cc2cc([101O:1][101CH:1]3CNc4ccc(C[100NH:0][100C:0](=O)N5CCCC(n6nc(-c7ccc(Oc8ccc(F)cc8F)cc7)c(C(N)=O)c6N)C5)cc4C3)ccc2CC1C(=O)NC1CCCc2ccccc21)C(C)(C)C

> <Shape>
0.171

> <Color>
0.191

> <Negative vol penalty>
0.000

$$$$

  -OEChem-04052321053D

 82 91  0     1  0  0  0  0  0999 V2000
  -18.1295  -28.6360   23.9178 C   0  0  0  0  0  0  0  0  0  0  0  0
  -18.0909  -27.4912   23.1283 C   0  0  0  0  0  0  0  0  0  0  0  0
  -22.6708  -10.1636   20.1677 C   0  0  0  0  0  0  0  0  0  0  0  0
  -24.3661   -9.3249   21.6709 C   0  0  0  0  0  0  0  0  0  0  0  0
  -18.9256  -29.7161   23.5390 C   0  0  0  0  0  0  0  0  0  0  0  0
  -18.8476  -27.4263   21.9588 C   0  0  0  0  0  0  0  0  0  0  0  0
  -23.7910  -22.2710   21.0220 C   0  0  0  0  0  0  0  0  0  0  0  0
  -21.9438   -8.9843   20.3296 C   0  0  0  0  0  0  0  0  0  0  0  0
  -23.6390   -8.1456   21.8328 C   0  0  0  0  0  0  0  0  0  0  0  0
  -24.6064  -21.1922   20.6793 C   0  0  0  0  0  0  0  0  0  0  0  0
  -20.9399   -7.1054   23.5802 C   0  0  0  0  0  0  0  0  0  0  0  0
  -20.7908   -6.6104   24.8757 C   0  0  0  0  0  0  0  0  0  0  0  0
  -25.1493  -22.2567   18.5769 C   0  0  0  0  0  0  0  0  0  0  0  0
  -21.9034   -4.5675   24.2232 C   0  0  0  0  0  0  0  0  0  0  0  0
  -23.8820  -10.3339   20.8383 C   0  0  0  0  0  0  0  0  0  0  0  0
  -24.2118  -12.8598   20.9754 C   0  0  0  0  0  0  0  0  0  0  0  0
  -19.6999  -29.6607   22.3694 C   0  0  0  0  0  0  0  0  0  0  0  0
  -23.6636  -23.3551   20.1491 C   0  0  0  0  0  0  0  0  0  0  0  0
  -19.6538  -28.5072   21.5634 C   0  0  0  0  0  0  0  0  0  0  0  0
  -24.3437  -23.3458   18.9203 C   0  0  0  0  0  0  0  0  0  0  0  0
  -22.4278   -7.9753   21.1621 C   0  0  0  0  0  0  0  0  0  0  0  0
  -25.2836  -21.1850   19.4596 C   0  0  0  0  0  0  0  0  0  0  0  0
  -21.5706   -6.3314   22.6061 C   0  0  0  0  0  0  0  0  0  0  0  0
  -21.2726   -5.3415   25.1972 C   0  0  0  0  0  0  0  0  0  0  0  0
  -22.0524   -5.0624   22.9276 C   0  0  0  0  0  0  0  0  0  0  0  0
  -24.6338  -11.5517   20.6711 C   0  0  0  0  0  0  0  0  0  0  0  0
  -25.2814  -13.6528   20.6383 C   0  0  0  0  0  0  0  0  0  0  0  0
  -22.9646  -13.3172   21.5147 C   0  0  0  0  0  0  0  0  0  0  0  0
  -22.1385  -26.7196   19.4936 C   0  0  0  0  0  0  0  0  0  0  0  0
  -25.0374  -26.8462   18.4984 C   0  0  0  0  0  0  0  0  0  0  0  0
  -28.3955  -26.7051   17.9145 C   0  0  0  0  0  0  0  0  0  0  0  0
  -30.7653  -14.6882   20.6450 C   0  0  0  0  0  0  0  0  0  0  0  0
  -20.5085  -30.8715   21.9761 C   0  0  0  0  0  0  0  0  0  0  0  0
  -22.7478  -24.5104   20.4499 C   0  0  0  0  0  0  0  0  0  0  0  0
  -24.1495  -24.5178   17.9975 C   0  0  0  0  0  0  0  0  0  0  0  0
  -21.5698  -30.5780   20.9188 C   0  0  0  0  0  0  0  0  0  0  0  0
  -31.9369  -17.7567   24.0088 C   0  0  0  0  0  0  0  0  0  0  0  0
  -29.5062  -12.5677   18.0770 C   0  0  0  0  0  0  0  0  0  0  0  0
  -20.9787  -29.7448   19.7861 C   0  0  0  0  0  0  0  0  0  0  0  0
  -30.8874  -18.6902   23.4020 C   0  0  0  0  0  0  0  0  0  0  0  0
  -28.3115  -17.5526   20.7141 C   0  0  0  0  0  0  0  0  0  0  0  0
  -28.3890  -19.6811   22.0777 C   0  0  0  0  0  0  0  0  0  0  0  0
  -28.0946  -12.2175   18.5511 C   0  0  0  0  0  0  0  0  0  0  0  0
  -31.7576  -16.4009   23.3244 C   0  0  0  0  0  0  0  0  0  0  0  0
  -27.5197  -18.2796   19.6313 C   0  0  0  0  0  0  0  0  0  0  0  0
  -27.5965  -20.4020   20.9914 C   0  0  0  0  0  0  0  0  0  0  0  0
  -30.4860  -12.6642   19.2444 C   0  0  0  0  0  0  0  0  0  0  0  0
  -28.6598  -13.2257   20.8012 C   0  0  0  0  0  0  0  0  0  0  0  0
  -20.4796  -28.3892   20.3007 C   0  0  1  0  0  0  0  0  0  0  0  0
  -23.2849  -25.8568   19.9324 C   0  0  1  0  0  0  0  0  0  0  0  0
  -29.2082  -18.5175   21.5023 C   0  0  0  0  0  0  0  0  0  0  0  0
  -29.9459  -17.7813   22.6095 C   0  0  1  0  0  0  0  0  0  0  0  0
  -27.6243  -13.1722   19.6649 C   0  0  2  0  0  0  0  0  0  0  0  0
  -30.8931  -16.6925   22.1030 C   0  0  2  0  0  0  0  0  0  0  0  0
  -26.7092  -19.4379   20.2067 C   0  0  0  0  0  0  0  0  0  1  0  0
  -30.3070  -28.0912   17.0646 C   0  0  0  0  0  0  0  0  0  0  0  0
  -24.0509  -26.4473   15.6398 C   0  0  0  0  0  0  0  0  0  0  0  0
  -26.3671  -26.9662   14.8435 C   0  0  0  0  0  0  0  0  0  0  0  0
  -25.0638  -28.6889   16.0910 C   0  0  0  0  0  0  0  0  0  0  0  0
  -29.8335  -26.5129   20.4941 C   0  0  0  0  0  0  0  0  0  0  0  0
  -25.9834  -26.6891   17.3348 C   0  0  1  0  0  0  0  0  0  0  0  0
  -29.5241  -27.6480   18.2908 C   0  0  2  0  0  0  0  0  0  0  0  0
  -25.3618  -27.1767   15.9957 C   0  0  0  0  0  0  0  0  0  0  0  0
  -25.8746  -11.5117   20.1783 N   0  0  0  0  0  0  0  0  0  0  0  0
  -26.2415  -12.8045   20.1704 N   0  0  0  0  0  0  0  0  0  0  0  0
  -24.1796  -25.7723   18.7656 N   0  0  0  0  0  0  0  0  0  0  0  0
  -29.9816  -13.5863   20.2649 N   0  0  0  0  0  0  0  0  0  0  0  0
  -25.4849  -14.9859   20.6993 N   0  0  0  0  0  0  0  0  0  0  0  0
  -22.8325  -13.4098   22.9070 N   0  0  0  0  0  0  0  0  0  0  0  0
  -21.5915  -27.4857   20.5052 N   0  0  0  0  0  0  0  0  0  0  0  0
  -27.2113  -27.3814   17.7107 N   0  0  0  0  0  0  0  0  0  0  0  0
  -30.2103  -15.5156   21.6136 N   0  0  0  0  0  0  0  0  0  0  0  0
  -30.4653  -26.9794   19.2330 N   0  3  0  0  0  0  0  0  0  0  0  0
  -21.9905  -13.6188   20.7842 O   0  0  0  0  0  0  0  0  0  0  0  0
  -21.7767  -26.6943   18.3231 O   0  0  0  0  0  0  0  0  0  0  0  0
  -25.0526  -27.8937   19.1509 O   0  0  0  0  0  0  0  0  0  0  0  0
  -28.5498  -25.4904   17.8081 O   0  0  0  0  0  0  0  0  0  0  0  0
  -31.8750  -14.9207   20.1535 O   0  0  0  0  0  0  0  0  0  0  0  0
  -21.7185   -6.8245   21.3205 O   0  0  0  0  0  0  0  0  0  0  0  0
  -26.0816  -20.1308   19.1333 O   0  0  0  0  0  0  0  0  0  1  0  0
  -21.1307   -4.8669   26.4417 F   0  0  0  0  0  0  0  0  0  0  0  0
  -22.6603   -4.3147   21.9964 F   0  0  0  0  0  0  0  0  0  0  0  0
  1  2  1  0  0  0  0
  1  5  2  0  0  0  0
  2  6  2  0  0  0  0
  3  8  2  0  0  0  0
  3 15  1  0  0  0  0
  4  9  1  0  0  0  0
  4 15  2  0  0  0  0
  5 17  1  0  0  0  0
  6 19  1  0  0  0  0
  7 10  2  0  0  0  0
  7 18  1  0  0  0  0
  8 21  1  0  0  0  0
  9 21  2  0  0  0  0
 10 22  1  0  0  0  0
 11 12  2  0  0  0  0
 11 23  1  0  0  0  0
 12 24  1  0  0  0  0
 13 20  1  0  0  0  0
 13 22  2  0  0  0  0
 14 24  2  0  0  0  0
 14 25  1  0  0  0  0
 15 26  1  0  0  0  0
 16 26  1  0  0  0  0
 16 27  2  0  0  0  0
 16 28  1  0  0  0  0
 17 19  2  0  0  0  0
 17 33  1  0  0  0  0
 18 20  2  0  0  0  0
 18 34  1  0  0  0  0
 19 49  1  0  0  0  0
 20 35  1  0  0  0  0
 21 79  1  0  0  0  0
 22 80  1  0  0  0  0
 23 25  2  0  0  0  0
 23 79  1  0  0  0  0
 24 81  1  0  0  0  0
 25 82  1  0  0  0  0
 26 64  2  0  0  0  0
 27 65  1  0  0  0  0
 27 68  1  0  0  0  0
 28 69  1  0  0  0  0
 28 74  2  0  0  0  0
 29 50  1  0  0  0  0
 29 70  1  0  0  0  0
 29 75  2  0  0  0  0
 30 61  1  0  0  0  0
 30 66  1  0  0  0  0
 30 76  2  0  0  0  0
 31 62  1  0  0  0  0
 31 71  1  0  0  0  0
 31 77  2  0  0  0  0
 32 67  1  0  0  0  0
 32 72  1  0  0  0  0
 32 78  2  0  0  0  0
 33 36  1  0  0  0  0
 34 50  1  0  0  0  0
 35 66  1  0  0  0  0
 36 39  1  0  0  0  0
 37 40  1  0  0  0  0
 37 44  1  0  0  0  0
 38 43  1  0  0  0  0
 38 47  1  0  0  0  0
 39 49  1  0  0  0  0
 40 52  1  0  0  0  0
 41 45  1  0  0  0  0
 41 51  1  0  0  0  0
 42 46  1  0  0  0  0
 42 51  1  0  0  0  0
 43 53  1  0  0  0  0
 44 54  1  0  0  0  0
 45 55  1  0  0  0  0
 46 55  1  0  0  0  0
 47 67  1  0  0  0  0
 48 53  1  0  0  0  0
 48 67  1  0  0  0  0
 49 70  1  0  0  0  0
 50 66  1  0  0  0  0
 51 52  1  0  0  0  0
 52 54  1  0  0  0  0
 53 65  1  0  0  0  0
 54 72  1  0  0  0  0
 55 80  1  0  0  0  0
 56 62  1  0  0  0  0
 57 63  1  0  0  0  0
 58 63  1  0  0  0  0
 59 63  1  0  0  0  0
 60 73  1  0  0  0  0
 61 63  1  0  0  0  0
 61 71  1  0  0  0  0
 62 73  1  0  0  0  0
 64 65  1  0  0  0  0
M  CHG  1  73   1
M  ISO  4  32 100  55 101  72 100  80 101
M  END
> <Batch ID>
0137

> <Smiles>
CNC(C)C(=O)NC(C(=O)N1Cc2cc([101O:1][101CH:1]3CCC(C4CCCC4[100NH:0][100C:0](=O)N4CCCC(n5nc(-c6ccc(Oc7ccc(F)cc7F)cc6)c(C(N)=O)c5N)C4)CC3)ccc2CC1C(=O)NC1CCCc2ccccc21)C(C)(C)C

> <Shape>
0.315

> <Color>
0.192

> <Negative vol penalty>
0.000

$$$$

  -OEChem-04052321053D

 80 88  0     1  0  0  0  0  0999 V2000
  -26.3083  -30.5171   23.0323 C   0  0  0  0  0  0  0  0  0  0  0  0
  -26.0569  -29.2768   23.6103 C   0  0  0  0  0  0  0  0  0  0  0  0
  -25.7729  -11.7174   19.9160 C   0  0  0  0  0  0  0  0  0  0  0  0
  -24.6041  -11.5150   20.6498 C   0  0  0  0  0  0  0  0  0  0  0  0
  -20.7977  -23.2921   20.5384 C   0  0  0  0  0  0  0  0  0  0  0  0
  -22.8556  -23.3058   21.8041 C   0  0  0  0  0  0  0  0  0  0  0  0
  -26.5643  -30.6086   21.6649 C   0  0  0  0  0  0  0  0  0  0  0  0
  -26.0603  -28.1274   22.8208 C   0  0  0  0  0  0  0  0  0  0  0  0
  -27.6719  -21.1539   23.1199 C   0  0  0  0  0  0  0  0  0  0  0  0
  -26.4055  -12.9604   19.9407 C   0  0  0  0  0  0  0  0  0  0  0  0
  -24.0677  -12.5557   21.4081 C   0  0  0  0  0  0  0  0  0  0  0  0
  -20.6061  -24.6414   20.8352 C   0  0  0  0  0  0  0  0  0  0  0  0
  -22.6641  -24.6552   22.1009 C   0  0  0  0  0  0  0  0  0  0  0  0
  -27.1106  -19.9063   22.8515 C   0  0  0  0  0  0  0  0  0  0  0  0
  -19.5114  -26.4857   23.4476 C   0  0  0  0  0  0  0  0  0  0  0  0
  -18.2369  -26.8856   23.8492 C   0  0  0  0  0  0  0  0  0  0  0  0
  -27.6436  -20.1760   20.5143 C   0  0  0  0  0  0  0  0  0  0  0  0
  -18.1149  -28.3908   21.9633 C   0  0  0  0  0  0  0  0  0  0  0  0
  -21.9224  -22.6242   21.0229 C   0  0  0  0  0  0  0  0  0  0  0  0
  -22.8047  -20.6914   19.6111 C   0  0  0  0  0  0  0  0  0  0  0  0
  -26.5804  -29.4586   20.8599 C   0  0  0  0  0  0  0  0  0  0  0  0
  -28.2144  -21.9281   22.0841 C   0  0  0  0  0  0  0  0  0  0  0  0
  -26.3154  -28.2038   21.4410 C   0  0  0  0  0  0  0  0  0  0  0  0
  -28.2135  -21.4321   20.7726 C   0  0  0  0  0  0  0  0  0  0  0  0
  -25.8692  -14.0010   20.6991 C   0  0  0  0  0  0  0  0  0  0  0  0
  -24.7003  -13.7986   21.4328 C   0  0  0  0  0  0  0  0  0  0  0  0
  -21.5393  -25.3230   21.6164 C   0  0  0  0  0  0  0  0  0  0  0  0
  -27.0938  -19.4184   21.5481 C   0  0  0  0  0  0  0  0  0  0  0  0
  -20.0877  -27.0384   22.3038 C   0  0  0  0  0  0  0  0  0  0  0  0
  -17.5386  -27.8381   23.1070 C   0  0  0  0  0  0  0  0  0  0  0  0
  -19.3895  -27.9909   21.5617 C   0  0  0  0  0  0  0  0  0  0  0  0
  -22.1206  -21.2302   20.7172 C   0  0  0  0  0  0  0  0  0  0  0  0
  -22.7115  -19.3314   19.7789 C   0  0  0  0  0  0  0  0  0  0  0  0
  -23.4654  -21.3604   18.5287 C   0  0  0  0  0  0  0  0  0  0  0  0
  -27.5649  -24.7792   20.8379 C   0  0  0  0  0  0  0  0  0  0  0  0
  -30.2598  -24.2112   19.1241 C   0  0  0  0  0  0  0  0  0  0  0  0
  -32.4435  -21.9300   17.8302 C   0  0  0  0  0  0  0  0  0  0  0  0
  -22.9845  -14.7896   22.9885 C   0  0  0  0  0  0  0  0  0  0  0  0
  -26.8153  -29.6129   19.3781 C   0  0  0  0  0  0  0  0  0  0  0  0
  -28.8402  -23.2602   22.3942 C   0  0  0  0  0  0  0  0  0  0  0  0
  -28.8013  -22.2152   19.6282 C   0  0  0  0  0  0  0  0  0  0  0  0
  -27.1708  -28.3037   18.6782 C   0  0  0  0  0  0  0  0  0  0  0  0
  -19.9141  -16.5924   22.9875 C   0  0  0  0  0  0  0  0  0  0  0  0
  -26.2237  -27.1906   19.1150 C   0  0  0  0  0  0  0  0  0  0  0  0
  -20.2707  -17.9154   22.3058 C   0  0  0  0  0  0  0  0  0  0  0  0
  -21.0536  -16.0831   23.8683 C   0  0  0  0  0  0  0  0  0  0  0  0
  -22.7137  -17.3037   22.5179 C   0  0  0  0  0  0  0  0  0  0  0  0
  -26.3349  -26.9313   20.6222 C   0  0  1  0  0  0  0  0  0  0  0  0
  -28.9019  -24.1876   21.1845 C   0  0  1  0  0  0  0  0  0  0  0  0
  -21.6214  -17.8236   21.5690 C   0  0  2  0  0  0  0  0  0  0  0  0
  -34.5283  -21.7654   16.4432 C   0  0  0  0  0  0  0  0  0  0  0  0
  -28.6267  -24.7678   16.6075 C   0  0  0  0  0  0  0  0  0  0  0  0
  -30.4456  -23.6838   15.2716 C   0  0  0  0  0  0  0  0  0  0  0  0
  -30.9295  -25.7430   16.5937 C   0  0  0  0  0  0  0  0  0  0  0  0
  -33.9486  -20.6526   20.0351 C   0  0  0  0  0  0  0  0  0  0  0  0
  -26.5744  -15.3337   20.7068 C   0  0  0  0  0  0  0  0  0  0  0  0
  -25.8917  -16.3968   19.8436 C   0  0  0  0  0  0  0  0  0  0  0  0
  -26.5626  -17.7631   19.9252 C   0  0  0  0  0  0  0  0  0  1  0  0
  -30.5664  -23.5517   17.8012 C   0  0  1  0  0  0  0  0  0  0  0  0
  -33.9599  -21.8632   17.8504 C   0  0  2  0  0  0  0  0  0  0  0  0
  -30.1292  -24.4224   16.5895 C   0  0  0  0  0  0  0  0  0  0  0  0
  -21.6289  -20.2892   21.5277 N   0  0  0  0  0  0  0  0  0  0  0  0
  -22.0045  -19.1455   20.9303 N   0  0  0  0  0  0  0  0  0  0  0  0
  -29.3959  -23.5149   19.9813 N   0  0  0  0  0  0  0  0  0  0  0  0
  -22.3001  -16.0183   23.1021 N   0  0  0  0  0  0  0  0  0  0  0  0
  -23.1661  -18.2883   19.0524 N   0  0  0  0  0  0  0  0  0  0  0  0
  -23.4664  -22.7618   18.5105 N   0  0  0  0  0  0  0  0  0  0  0  0
  -24.1396  -14.8430   22.2092 N   0  0  0  0  0  0  0  0  0  0  0  0
  -27.5226  -26.1582   20.9158 N   0  0  0  0  0  0  0  0  0  0  0  0
  -31.9896  -23.2320   17.8246 N   0  0  0  0  0  0  0  0  0  0  0  0
  -34.4157  -20.6744   18.6251 N   0  3  0  0  0  0  0  0  0  0  0  0
  -24.0238  -20.7339   17.5964 O   0  0  0  0  0  0  0  0  0  0  0  0
  -26.6405  -24.0394   20.5218 O   0  0  0  0  0  0  0  0  0  0  0  0
  -30.7737  -25.3006   19.3902 O   0  0  0  0  0  0  0  0  0  0  0  0
  -31.7327  -20.9274   17.8166 O   0  0  0  0  0  0  0  0  0  0  0  0
  -22.5612  -13.7596   23.5194 O   0  0  0  0  0  0  0  0  0  0  0  0
  -21.3528  -26.6398   21.9060 O   0  0  0  0  0  0  0  0  0  0  0  0
  -26.5459  -18.2012   21.2832 O   0  0  0  0  0  0  0  0  0  1  0  0
  -16.3141  -28.2209   23.4919 F   0  0  0  0  0  0  0  0  0  0  0  0
  -19.9375  -28.5245   20.4613 F   0  0  0  0  0  0  0  0  0  0  0  0
  1  2  1  0  0  0  0
  1  7  2  0  0  0  0
  2  8  2  0  0  0  0
  3  4  1  0  0  0  0
  3 10  2  0  0  0  0
  4 11  2  0  0  0  0
  5 12  2  0  0  0  0
  5 19  1  0  0  0  0
  6 13  1  0  0  0  0
  6 19  2  0  0  0  0
  7 21  1  0  0  0  0
  8 23  1  0  0  0  0
  9 14  2  0  0  0  0
  9 22  1  0  0  0  0
 10 25  1  0  0  0  0
 11 26  1  0  0  0  0
 12 27  1  0  0  0  0
 13 27  2  0  0  0  0
 14 28  1  0  0  0  0
 15 16  2  0  0  0  0
 15 29  1  0  0  0  0
 16 30  1  0  0  0  0
 17 24  1  0  0  0  0
 17 28  2  0  0  0  0
 18 30  2  0  0  0  0
 18 31  1  0  0  0  0
 19 32  1  0  0  0  0
 20 32  1  0  0  0  0
 20 33  2  0  0  0  0
 20 34  1  0  0  0  0
 21 23  2  0  0  0  0
 21 39  1  0  0  0  0
 22 24  2  0  0  0  0
 22 40  1  0  0  0  0
 23 48  1  0  0  0  0
 24 41  1  0  0  0  0
 25 26  2  0  0  0  0
 25 56  1  0  0  0  0
 26 68  1  0  0  0  0
 27 77  1  0  0  0  0
 28 78  1  0  0  0  0
 29 31  2  0  0  0  0
 29 77  1  0  0  0  0
 30 79  1  0  0  0  0
 31 80  1  0  0  0  0
 32 62  2  0  0  0  0
 33 63  1  0  0  0  0
 33 66  1  0  0  0  0
 34 67  1  0  0  0  0
 34 72  2  0  0  0  0
 35 49  1  0  0  0  0
 35 69  1  0  0  0  0
 35 73  2  0  0  0  0
 36 59  1  0  0  0  0
 36 64  1  0  0  0  0
 36 74  2  0  0  0  0
 37 60  1  0  0  0  0
 37 70  1  0  0  0  0
 37 75  2  0  0  0  0
 38 65  1  0  0  0  0
 38 68  1  0  0  0  0
 38 76  2  0  0  0  0
 39 42  1  0  0  0  0
 40 49  1  0  0  0  0
 41 64  1  0  0  0  0
 42 44  1  0  0  0  0
 43 45  1  0  0  0  0
 43 46  1  0  0  0  0
 44 48  1  0  0  0  0
 45 50  1  0  0  0  0
 46 65  1  0  0  0  0
 47 50  1  0  0  0  0
 47 65  1  0  0  0  0
 48 69  1  0  0  0  0
 49 64  1  0  0  0  0
 50 63  1  0  0  0  0
 51 60  1  0  0  0  0
 52 61  1  0  0  0  0
 53 61  1  0  0  0  0
 54 61  1  0  0  0  0
 55 71  1  0  0  0  0
 56 57  1  0  0  0  0
 57 58  1  0  0  0  0
 58 78  1  0  0  0  0
 59 61  1  0  0  0  0
 59 70  1  0  0  0  0
 60 71  1  0  0  0  0
 62 63  1  0  0  0  0
M  CHG  1  71   1
M  ISO  4  38 100  58 101  68 100  78 101
M  END
> <Batch ID>
0137

> <Smiles>
CNC(C)C(=O)NC(C(=O)N1Cc2cc([101O:1][101CH2:1]CCc3ccccc3[100NH:0][100C:0](=O)N3CCCC(n4nc(-c5ccc(Oc6ccc(F)cc6F)cc5)c(C(N)=O)c4N)C3)ccc2CC1C(=O)NC1CCCc2ccccc21)C(C)(C)C

> <Shape>
0.195

> <Color>
0.069

> <Negative vol penalty>
0.000

$$$$

  -OEChem-04052321053D

 84 93  0     1  0  0  0  0  0999 V2000
  -31.7725  -34.3843   18.2224 C   0  0  0  0  0  0  0  0  0  0  0  0
  -31.9915  -33.1488   18.8232 C   0  0  0  0  0  0  0  0  0  0  0  0
  -23.3104  -10.2067   22.2377 C   0  0  0  0  0  0  0  0  0  0  0  0
  -23.6186   -9.5104   19.9448 C   0  0  0  0  0  0  0  0  0  0  0  0
  -30.7738  -35.2271   18.7082 C   0  0  0  0  0  0  0  0  0  0  0  0
  -31.2125  -32.7558   19.9109 C   0  0  0  0  0  0  0  0  0  0  0  0
  -29.6323  -27.9592   19.5370 C   0  0  0  0  0  0  0  0  0  0  0  0
  -29.6239  -19.3092   22.3566 C   0  0  0  0  0  0  0  0  0  0  0  0
  -29.4654  -17.9234   22.3562 C   0  0  0  0  0  0  0  0  0  0  0  0
  -22.5723   -9.0503   22.4896 C   0  0  0  0  0  0  0  0  0  0  0  0
  -22.8805   -8.3540   20.1968 C   0  0  0  0  0  0  0  0  0  0  0  0
  -30.5538  -26.9594   19.8450 C   0  0  0  0  0  0  0  0  0  0  0  0
  -19.4314   -7.9307   21.9369 C   0  0  0  0  0  0  0  0  0  0  0  0
  -18.2440   -8.0646   22.6565 C   0  0  0  0  0  0  0  0  0  0  0  0
  -29.5616  -26.7268   22.0314 C   0  0  0  0  0  0  0  0  0  0  0  0
  -31.1075  -17.7362   20.5939 C   0  0  0  0  0  0  0  0  0  0  0  0
  -19.1116   -6.5900   24.3624 C   0  0  0  0  0  0  0  0  0  0  0  0
  -23.8335  -10.4368   20.9652 C   0  0  0  0  0  0  0  0  0  0  0  0
  -24.1582  -12.9635   20.8314 C   0  0  0  0  0  0  0  0  0  0  0  0
  -29.9757  -34.8402   19.7963 C   0  0  0  0  0  0  0  0  0  0  0  0
  -28.6738  -28.3586   20.4794 C   0  0  0  0  0  0  0  0  0  0  0  0
  -30.2030  -33.5949   20.4126 C   0  0  0  0  0  0  0  0  0  0  0  0
  -28.6274  -27.7301   21.7320 C   0  0  0  0  0  0  0  0  0  0  0  0
  -31.2659  -19.1220   20.5943 C   0  0  0  0  0  0  0  0  0  0  0  0
  -30.5241  -19.9085   21.4756 C   0  0  0  0  0  0  0  0  0  0  0  0
  -30.2072  -17.1369   21.4749 C   0  0  0  0  0  0  0  0  0  0  0  0
  -22.3574   -8.1239   21.4692 C   0  0  0  0  0  0  0  0  0  0  0  0
  -30.5204  -26.3450   21.0934 C   0  0  0  0  0  0  0  0  0  0  0  0
  -20.4589   -7.1265   22.4300 C   0  0  0  0  0  0  0  0  0  0  0  0
  -18.0841   -7.3943   23.8692 C   0  0  0  0  0  0  0  0  0  0  0  0
  -20.2990   -6.4562   23.6428 C   0  0  0  0  0  0  0  0  0  0  0  0
  -24.5956  -11.6315   20.7041 C   0  0  0  0  0  0  0  0  0  0  0  0
  -25.2470  -13.7185   20.4692 C   0  0  0  0  0  0  0  0  0  0  0  0
  -22.8820  -13.4729   21.2406 C   0  0  0  0  0  0  0  0  0  0  0  0
  -28.0124  -31.0740   21.9936 C   0  0  0  0  0  0  0  0  0  0  0  0
  -25.4560  -29.3947   23.0737 C   0  0  0  0  0  0  0  0  0  0  0  0
  -24.0647  -26.3533   23.7528 C   0  0  0  0  0  0  0  0  0  0  0  0
  -30.7047  -14.8036   20.6657 C   0  0  0  0  0  0  0  0  0  0  0  0
  -28.9397  -35.8052   20.3161 C   0  0  0  0  0  0  0  0  0  0  0  0
  -27.6697  -29.4200   20.1221 C   0  0  0  0  0  0  0  0  0  0  0  0
  -27.6053  -28.1084   22.7716 C   0  0  0  0  0  0  0  0  0  0  0  0
  -27.9091  -35.1553   21.2358 C   0  0  0  0  0  0  0  0  0  0  0  0
  -29.6196  -12.3676   18.3066 C   0  0  0  0  0  0  0  0  0  0  0  0
  -28.5981  -34.2626   22.2630 C   0  0  0  0  0  0  0  0  0  0  0  0
  -28.1798  -12.0685   18.7305 C   0  0  0  0  0  0  0  0  0  0  0  0
  -30.5268  -12.6102   19.5115 C   0  0  0  0  0  0  0  0  0  0  0  0
  -31.1138  -21.9382   22.7378 C   0  0  0  0  0  0  0  0  0  0  0  0
  -29.8442  -22.1232   20.5956 C   0  0  0  0  0  0  0  0  0  0  0  0
  -31.6793  -23.3334   22.4637 C   0  0  0  0  0  0  0  0  0  0  0  0
  -30.4628  -23.5099   20.4076 C   0  0  0  0  0  0  0  0  0  0  0  0
  -28.6077  -13.3296   20.8784 C   0  0  0  0  0  0  0  0  0  0  0  0
  -29.3623  -33.1226   21.5789 C   0  0  1  0  0  0  0  0  0  0  0  0
  -27.0651  -30.1059   21.3432 C   0  0  1  0  0  0  0  0  0  0  0  0
  -27.6422  -13.1423   19.6967 C   0  0  2  0  0  0  0  0  0  0  0  0
  -32.2360  -19.7381   19.6395 C   0  0  0  0  0  0  0  0  0  0  0  0
  -21.9762  -25.3017   24.6637 C   0  0  0  0  0  0  0  0  0  0  0  0
  -26.3098  -30.1551   25.9026 C   0  0  0  0  0  0  0  0  0  0  0  0
  -24.8086  -28.3474   26.7668 C   0  0  0  0  0  0  0  0  0  0  0  0
  -23.8452  -30.2632   25.4922 C   0  0  0  0  0  0  0  0  0  0  0  0
  -23.5365  -24.9273   21.2139 C   0  0  0  0  0  0  0  0  0  0  0  0
  -25.1859  -28.5064   24.2641 C   0  0  1  0  0  0  0  0  0  0  0  0
  -22.7052  -25.7692   23.4136 C   0  0  2  0  0  0  0  0  0  0  0  0
  -25.0580  -29.3120   25.5877 C   0  0  0  0  0  0  0  0  0  0  0  0
  -25.8632  -11.5420   20.2930 N   0  0  0  0  0  0  0  0  0  0  0  0
  -26.2318  -12.8274   20.1587 N   0  0  0  0  0  0  0  0  0  0  0  0
  -30.6698  -21.3013   21.4893 N   0  0  0  0  0  0  0  0  0  0  0  0
  -26.6491  -29.1559   22.3770 N   0  0  0  0  0  0  0  0  0  0  0  0
  -29.9561  -13.6424   20.3797 N   0  0  0  0  0  0  0  0  0  0  0  0
  -30.7202  -24.1346   21.7043 N   0  0  0  0  0  0  0  0  0  1  0  0
  -25.4484  -15.0509   20.3891 N   0  0  0  0  0  0  0  0  0  0  0  0
  -21.8747  -12.5587   21.5782 N   0  0  0  0  0  0  0  0  0  0  0  0
  -30.0466  -15.7291   21.4751 N   0  0  0  0  0  0  0  0  0  0  0  0
  -28.4481  -32.0834   21.1564 N   0  0  0  0  0  0  0  0  0  0  0  0
  -24.0044  -27.7198   23.9268 N   0  0  0  0  0  0  0  0  0  0  0  0
  -22.8560  -24.6057   22.4947 N   0  3  0  0  0  0  0  0  0  0  0  0
  -22.6368  -14.7022   21.2891 O   0  0  0  0  0  0  0  0  0  0  0  0
  -28.3239  -30.9178   23.1684 O   0  0  0  0  0  0  0  0  0  0  0  0
  -24.6351  -30.2635   22.7688 O   0  0  0  0  0  0  0  0  0  0  0  0
  -25.0779  -25.6656   23.8570 O   0  0  0  0  0  0  0  0  0  0  0  0
  -31.8350  -14.9774   20.2029 O   0  0  0  0  0  0  0  0  0  0  0  0
  -21.6374   -6.9952   21.7148 O   0  0  0  0  0  0  0  0  0  0  0  0
  -31.4192  -25.3693   21.3968 O   0  0  0  0  0  0  0  0  0  1  0  0
  -16.9444   -7.5241   24.5609 F   0  0  0  0  0  0  0  0  0  0  0  0
  -21.2830   -5.6831   24.1222 F   0  0  0  0  0  0  0  0  0  0  0  0
  1  2  1  0  0  0  0
  1  5  2  0  0  0  0
  2  6  2  0  0  0  0
  3 10  2  0  0  0  0
  3 18  1  0  0  0  0
  4 11  1  0  0  0  0
  4 18  2  0  0  0  0
  5 20  1  0  0  0  0
  6 22  1  0  0  0  0
  7 12  2  0  0  0  0
  7 21  1  0  0  0  0
  8  9  2  0  0  0  0
  8 25  1  0  0  0  0
  9 26  1  0  0  0  0
 10 27  1  0  0  0  0
 11 27  2  0  0  0  0
 12 28  1  0  0  0  0
 13 14  2  0  0  0  0
 13 29  1  0  0  0  0
 14 30  1  0  0  0  0
 15 23  1  0  0  0  0
 15 28  2  0  0  0  0
 16 24  1  0  0  0  0
 16 26  2  0  0  0  0
 17 30  2  0  0  0  0
 17 31  1  0  0  0  0
 18 32  1  0  0  0  0
 19 32  1  0  0  0  0
 19 33  2  0  0  0  0
 19 34  1  0  0  0  0
 20 22  2  0  0  0  0
 20 39  1  0  0  0  0
 21 23  2  0  0  0  0
 21 40  1  0  0  0  0
 22 52  1  0  0  0  0
 23 41  1  0  0  0  0
 24 25  2  0  0  0  0
 24 55  1  0  0  0  0
 25 66  1  0  0  0  0
 26 72  1  0  0  0  0
 27 81  1  0  0  0  0
 28 82  1  0  0  0  0
 29 31  2  0  0  0  0
 29 81  1  0  0  0  0
 30 83  1  0  0  0  0
 31 84  1  0  0  0  0
 32 64  2  0  0  0  0
 33 65  1  0  0  0  0
 33 70  1  0  0  0  0
 34 71  1  0  0  0  0
 34 76  2  0  0  0  0
 35 53  1  0  0  0  0
 35 73  1  0  0  0  0
 35 77  2  0  0  0  0
 36 61  1  0  0  0  0
 36 67  1  0  0  0  0
 36 78  2  0  0  0  0
 37 62  1  0  0  0  0
 37 74  1  0  0  0  0
 37 79  2  0  0  0  0
 38 68  1  0  0  0  0
 38 72  1  0  0  0  0
 38 80  2  0  0  0  0
 39 42  1  0  0  0  0
 40 53  1  0  0  0  0
 41 67  1  0  0  0  0
 42 44  1  0  0  0  0
 43 45  1  0  0  0  0
 43 46  1  0  0  0  0
 44 52  1  0  0  0  0
 45 54  1  0  0  0  0
 46 68  1  0  0  0  0
 47 49  1  0  0  0  0
 47 66  1  0  0  0  0
 48 50  1  0  0  0  0
 48 66  1  0  0  0  0
 49 69  1  0  0  0  0
 50 69  1  0  0  0  0
 51 54  1  0  0  0  0
 51 68  1  0  0  0  0
 52 73  1  0  0  0  0
 53 67  1  0  0  0  0
 54 65  1  0  0  0  0
 56 62  1  0  0  0  0
 57 63  1  0  0  0  0
 58 63  1  0  0  0  0
 59 63  1  0  0  0  0
 60 75  1  0  0  0  0
 61 63  1  0  0  0  0
 61 74  1  0  0  0  0
 62 75  1  0  0  0  0
 64 65  1  0  0  0  0
 69 82  1  0  0  0  0
M  CHG  1  75   1
M  ISO  4  38 100  69 101  72 100  82 101
M  END
> <Batch ID>
0137

> <Smiles>
CNC(C)C(=O)NC(C(=O)N1Cc2cc([101O:1][101N:1]3CCN(c4ccc([100NH:0][100C:0](=O)N5CCCC(n6nc(-c7ccc(Oc8ccc(F)cc8F)cc7)c(C(N)=O)c6N)C5)cc4C)CC3)ccc2CC1C(=O)NC1CCCc2ccccc21)C(C)(C)C

> <Shape>
0.265

> <Color>
0.201

> <Negative vol penalty>
0.000

$$$$

  -OEChem-04052321053D

 88 97  0     1  0  0  0  0  0999 V2000
  -31.1980  -35.3077   18.0640 C   0  0  0  0  0  0  0  0  0  0  0  0
  -30.5685  -34.2304   17.4488 C   0  0  0  0  0  0  0  0  0  0  0  0
  -26.6238  -12.5757   21.6991 C   0  0  0  0  0  0  0  0  0  0  0  0
  -26.0035  -13.8409   19.7366 C   0  0  0  0  0  0  0  0  0  0  0  0
  -31.3492  -35.3266   19.4499 C   0  0  0  0  0  0  0  0  0  0  0  0
  -30.0908  -33.1707   18.2191 C   0  0  0  0  0  0  0  0  0  0  0  0
  -24.8015  -28.3432   18.4041 C   0  0  0  0  0  0  0  0  0  0  0  0
  -25.3505  -12.0075   21.7354 C   0  0  0  0  0  0  0  0  0  0  0  0
  -24.7301  -13.2727   19.7728 C   0  0  0  0  0  0  0  0  0  0  0  0
  -24.6015  -26.9686   18.5234 C   0  0  0  0  0  0  0  0  0  0  0  0
  -23.6729   -9.5498   20.1296 C   0  0  0  0  0  0  0  0  0  0  0  0
  -23.5826   -8.1747   20.3449 C   0  0  0  0  0  0  0  0  0  0  0  0
  -29.8447  -21.5062   17.2113 C   0  0  0  0  0  0  0  0  0  0  0  0
  -24.8482  -27.1465   20.9165 C   0  0  0  0  0  0  0  0  0  0  0  0
  -22.2887   -8.5729   22.3459 C   0  0  0  0  0  0  0  0  0  0  0  0
  -28.9259  -21.3777   16.1938 C   0  0  0  0  0  0  0  0  0  0  0  0
  -26.9504  -13.4925   20.6998 C   0  0  0  0  0  0  0  0  0  0  0  0
  -29.3977  -13.5875   19.9864 C   0  0  0  0  0  0  0  0  0  0  0  0
  -30.8645  -34.2711   20.2385 C   0  0  0  0  0  0  0  0  0  0  0  0
  -25.0375  -29.1295   19.5410 C   0  0  0  0  0  0  0  0  0  0  0  0
  -30.2369  -33.1748   19.6167 C   0  0  0  0  0  0  0  0  0  0  0  0
  -25.0483  -28.5313   20.8091 C   0  0  0  0  0  0  0  0  0  0  0  0
  -29.1233  -21.5707   18.4257 C   0  0  0  0  0  0  0  0  0  0  0  0
  -24.4037  -12.3560   20.7722 C   0  0  0  0  0  0  0  0  0  0  0  0
  -24.6277  -26.3696   19.7794 C   0  0  0  0  0  0  0  0  0  0  0  0
  -23.0712  -10.4366   21.0226 C   0  0  0  0  0  0  0  0  0  0  0  0
  -22.8905   -7.6862   21.4530 C   0  0  0  0  0  0  0  0  0  0  0  0
  -22.3791   -9.9481   22.1307 C   0  0  0  0  0  0  0  0  0  0  0  0
  -28.2654  -14.0802   20.6622 C   0  0  0  0  0  0  0  0  0  0  0  0
  -27.7787  -21.4828   18.1200 C   0  0  0  0  0  0  0  0  0  0  0  0
  -30.3862  -14.5006   20.2616 C   0  0  0  0  0  0  0  0  0  0  0  0
  -29.5431  -12.4097   19.1817 C   0  0  0  0  0  0  0  0  0  0  0  0
  -27.4416  -30.9467   20.5518 C   0  0  0  0  0  0  0  0  0  0  0  0
  -25.3588  -31.7055   22.9201 C   0  0  0  0  0  0  0  0  0  0  0  0
  -22.6207  -30.8320   24.7603 C   0  0  0  0  0  0  0  0  0  0  0  0
  -30.2807  -20.2980   21.7548 C   0  0  0  0  0  0  0  0  0  0  0  0
  -31.0933  -34.3138   21.7286 C   0  0  0  0  0  0  0  0  0  0  0  0
  -25.2248  -30.6150   19.3979 C   0  0  0  0  0  0  0  0  0  0  0  0
  -25.2775  -29.3341   22.0627 C   0  0  0  0  0  0  0  0  0  0  0  0
  -30.2257  -33.3278   22.5065 C   0  0  0  0  0  0  0  0  0  0  0  0
  -31.7609  -17.6382   23.6017 C   0  0  0  0  0  0  0  0  0  0  0  0
  -30.2522  -31.9545   21.8430 C   0  0  0  0  0  0  0  0  0  0  0  0
  -31.1351  -16.3802   22.9968 C   0  0  0  0  0  0  0  0  0  0  0  0
  -25.1761  -21.4077   16.9169 C   0  0  0  0  0  0  0  0  0  0  0  0
  -30.7626  -18.7922   23.6618 C   0  0  0  0  0  0  0  0  0  0  0  0
  -29.4844  -17.8563   21.7740 C   0  0  0  0  0  0  0  0  0  0  0  0
  -29.6833  -32.0182   20.4203 C   0  0  1  0  0  0  0  0  0  0  0  0
  -26.5845  -21.4730   19.0170 C   0  0  2  0  0  0  0  0  0  0  0  0
  -25.9681  -31.2397   20.5746 C   0  0  1  0  0  0  0  0  0  0  0  0
  -25.3568  -20.8373   18.3336 C   0  0  2  0  0  0  0  0  0  0  0  0
  -30.4689  -16.6818   21.6409 C   0  0  2  0  0  0  0  0  0  0  0  0
  -26.4173  -21.2182   16.0199 C   0  0  1  0  0  0  0  0  0  0  0  0
  -26.3045  -22.1389   14.8003 C   0  0  0  0  0  0  0  0  0  0  0  0
  -21.1783  -31.6369   26.6495 C   0  0  0  0  0  0  0  0  0  0  0  0
  -25.1141  -18.7084   19.6630 C   0  0  0  0  0  0  0  0  0  0  0  0
  -27.5285  -30.9097   24.9124 C   0  0  0  0  0  0  0  0  0  0  0  0
  -25.7664  -30.8182   26.6885 C   0  0  0  0  0  0  0  0  0  0  0  0
  -26.2533  -32.9714   25.5270 C   0  0  0  0  0  0  0  0  0  0  0  0
  -20.2142  -30.9184   23.0397 C   0  0  0  0  0  0  0  0  0  0  0  0
  -29.7327  -21.6785   19.7666 C   0  0  0  0  0  0  0  0  0  0  0  0
  -25.3452  -22.9220   20.6295 C   0  0  0  0  0  0  0  0  0  0  0  0
  -25.0797  -24.3711   20.9869 C   0  0  0  0  0  0  0  0  0  1  0  0
  -25.0354  -31.1390   24.2815 C   0  0  1  0  0  0  0  0  0  0  0  0
  -21.3736  -31.6090   25.1415 C   0  0  2  0  0  0  0  0  0  0  0  0
  -25.4611  -19.3066   18.3130 C   0  0  1  0  0  0  0  0  0  0  0  0
  -26.1435  -31.4439   25.3288 C   0  0  0  0  0  0  0  0  0  0  0  0
  -28.5106  -15.2179   21.3176 N   0  0  0  0  0  0  0  0  0  0  0  0
  -27.6712  -21.4018   16.7489 N   0  0  0  0  0  0  0  0  0  0  0  0
  -29.8084  -15.4476   21.0549 N   0  0  0  0  0  0  0  0  0  0  0  0
  -25.4617  -30.7820   21.8701 N   0  0  0  0  0  0  0  0  0  0  0  0
  -30.1681  -19.0278   22.3439 N   0  0  0  0  0  0  0  0  0  0  0  0
  -31.6845  -14.5776   19.9000 N   0  0  0  0  0  0  0  0  0  0  0  0
  -28.4268  -11.5816   19.0016 N   0  0  0  0  0  0  0  0  0  0  0  0
  -28.2376  -32.0722   20.4561 N   0  0  0  0  0  0  0  0  0  0  0  0
  -23.7186  -31.6569   24.6368 N   0  0  0  0  0  0  0  0  0  0  0  0
  -29.6948  -20.4342   20.5023 N   0  0  0  0  0  0  0  0  0  0  0  0
  -26.2309  -22.8653   19.4425 N   0  3  0  0  0  0  0  0  0  0  0  0
  -20.1677  -30.9892   24.5229 N   0  3  0  0  0  0  0  0  0  0  0  0
  -30.6349  -12.0922   18.6520 O   0  0  0  0  0  0  0  0  0  0  0  0
  -27.8278  -29.7856   20.6178 O   0  0  0  0  0  0  0  0  0  0  0  0
  -25.5075  -32.9233   22.7916 O   0  0  0  0  0  0  0  0  0  0  0  0
  -22.6216  -29.6144   24.5926 O   0  0  0  0  0  0  0  0  0  0  0  0
  -30.8651  -21.2393   22.3021 O   0  0  0  0  0  0  0  0  0  0  0  0
  -24.5752  -18.8014   17.3241 O   0  0  0  0  0  0  0  0  0  0  0  0
  -23.1611  -11.8015   20.8071 O   0  0  0  0  0  0  0  0  0  0  0  0
  -24.4321  -25.0183   19.8995 O   0  0  0  0  0  0  0  0  0  1  0  0
  -22.8025   -6.3655   21.6587 F   0  0  0  0  0  0  0  0  0  0  0  0
  -21.7979  -10.7950   22.9914 F   0  0  0  0  0  0  0  0  0  0  0  0
  1  2  1  0  0  0  0
  1  5  2  0  0  0  0
  2  6  2  0  0  0  0
  3  8  2  0  0  0  0
  3 17  1  0  0  0  0
  4  9  1  0  0  0  0
  4 17  2  0  0  0  0
  5 19  1  0  0  0  0
  6 21  1  0  0  0  0
  7 10  2  0  0  0  0
  7 20  1  0  0  0  0
  8 24  1  0  0  0  0
  9 24  2  0  0  0  0
 10 25  1  0  0  0  0
 11 12  2  0  0  0  0
 11 26  1  0  0  0  0
 12 27  1  0  0  0  0
 13 16  2  0  0  0  0
 13 23  1  0  0  0  0
 14 22  1  0  0  0  0
 14 25  2  0  0  0  0
 15 27  2  0  0  0  0
 15 28  1  0  0  0  0
 16 68  1  0  0  0  0
 17 29  1  0  0  0  0
 18 29  1  0  0  0  0
 18 31  2  0  0  0  0
 18 32  1  0  0  0  0
 19 21  2  0  0  0  0
 19 37  1  0  0  0  0
 20 22  2  0  0  0  0
 20 38  1  0  0  0  0
 21 47  1  0  0  0  0
 22 39  1  0  0  0  0
 23 30  2  0  0  0  0
 23 60  1  0  0  0  0
 24 85  1  0  0  0  0
 25 86  1  0  0  0  0
 26 28  2  0  0  0  0
 26 85  1  0  0  0  0
 27 87  1  0  0  0  0
 28 88  1  0  0  0  0
 29 67  2  0  0  0  0
 30 48  1  0  0  0  0
 30 68  1  0  0  0  0
 31 69  1  0  0  0  0
 31 72  1  0  0  0  0
 32 73  1  0  0  0  0
 32 79  2  0  0  0  0
 33 49  1  0  0  0  0
 33 74  1  0  0  0  0
 33 80  2  0  0  0  0
 34 63  1  0  0  0  0
 34 70  1  0  0  0  0
 34 81  2  0  0  0  0
 35 64  1  0  0  0  0
 35 75  1  0  0  0  0
 35 82  2  0  0  0  0
 36 71  1  0  0  0  0
 36 76  1  0  0  0  0
 36 83  2  0  0  0  0
 37 40  1  0  0  0  0
 38 49  1  0  0  0  0
 39 70  1  0  0  0  0
 40 42  1  0  0  0  0
 41 43  1  0  0  0  0
 41 45  1  0  0  0  0
 42 47  1  0  0  0  0
 43 51  1  0  0  0  0
 44 50  1  0  0  0  0
 44 52  1  0  0  0  0
 45 71  1  0  0  0  0
 46 51  1  0  0  0  0
 46 71  1  0  0  0  0
 47 74  1  0  0  0  0
 48 50  1  0  0  0  0
 48 77  1  0  0  0  0
 49 70  1  0  0  0  0
 50 65  1  0  0  0  0
 51 69  1  0  0  0  0
 52 53  1  0  0  0  0
 52 68  1  0  0  0  0
 54 64  1  0  0  0  0
 55 65  1  0  0  0  0
 56 66  1  0  0  0  0
 57 66  1  0  0  0  0
 58 66  1  0  0  0  0
 59 78  1  0  0  0  0
 60 76  1  0  0  0  0
 61 62  1  0  0  0  0
 61 77  1  0  0  0  0
 62 86  1  0  0  0  0
 63 66  1  0  0  0  0
 63 75  1  0  0  0  0
 64 78  1  0  0  0  0
 65 84  1  0  0  0  0
 67 69  1  0  0  0  0
M  CHG  2  77   1  78   1
M  ISO  4  36 100  62 101  76 100  86 101
M  END
> <Batch ID>
0137

> <Smiles>
CNC(C)C(=O)NC(C(=O)N1Cc2cc([101O:1][101CH2:1]CNC3c4c(C[100NH:0][100C:0](=O)N5CCCC(n6nc(-c7ccc(Oc8ccc(F)cc8F)cc7)c(C(N)=O)c6N)C5)ccn4C(C)CC3C(C)O)ccc2CC1C(=O)NC1CCCc2ccccc21)C(C)(C)C

> <Shape>
0.262

> <Color>
0.081

> <Negative vol penalty>
0.000

$$$$

  -OEChem-04052321053D

 81 90  0     1  0  0  0  0  0999 V2000
  -33.1209  -31.3454   20.2495 C   0  0  0  0  0  0  0  0  0  0  0  0
  -33.3554  -30.1677   20.9520 C   0  0  0  0  0  0  0  0  0  0  0  0
  -23.1134   -9.8917   19.9139 C   0  0  0  0  0  0  0  0  0  0  0  0
  -23.8782   -9.8747   22.2056 C   0  0  0  0  0  0  0  0  0  0  0  0
  -32.1575  -31.3746   19.2420 C   0  0  0  0  0  0  0  0  0  0  0  0
  -32.6258  -29.0189   20.6483 C   0  0  0  0  0  0  0  0  0  0  0  0
  -30.3558  -18.4142   24.1433 C   0  0  0  0  0  0  0  0  0  0  0  0
  -34.6212  -23.2321   20.8418 C   0  0  0  0  0  0  0  0  0  0  0  0
  -29.8011  -17.5314   23.2144 C   0  0  0  0  0  0  0  0  0  0  0  0
  -22.3868   -8.7243   20.1477 C   0  0  0  0  0  0  0  0  0  0  0  0
  -23.1515   -8.7072   22.4394 C   0  0  0  0  0  0  0  0  0  0  0  0
  -34.4923  -22.2270   21.7993 C   0  0  0  0  0  0  0  0  0  0  0  0
  -19.9365   -7.8538   23.0362 C   0  0  0  0  0  0  0  0  0  0  0  0
  -19.1828   -7.7851   24.2078 C   0  0  0  0  0  0  0  0  0  0  0  0
  -32.0100  -16.7121   22.6076 C   0  0  0  0  0  0  0  0  0  0  0  0
  -32.5934  -21.3406   20.6044 C   0  0  0  0  0  0  0  0  0  0  0  0
  -20.4537   -5.8548   24.9121 C   0  0  0  0  0  0  0  0  0  0  0  0
  -23.8591  -10.4669   20.9429 C   0  0  0  0  0  0  0  0  0  0  0  0
  -24.1643  -12.9983   20.8608 C   0  0  0  0  0  0  0  0  0  0  0  0
  -31.4225  -30.2230   18.9192 C   0  0  0  0  0  0  0  0  0  0  0  0
  -31.7334  -18.4414   24.2822 C   0  0  0  0  0  0  0  0  0  0  0  0
  -33.7290  -23.3056   19.7624 C   0  0  0  0  0  0  0  0  0  0  0  0
  -31.6508  -29.0331   19.6365 C   0  0  0  0  0  0  0  0  0  0  0  0
  -32.5517  -17.5993   23.5225 C   0  0  0  0  0  0  0  0  0  0  0  0
  -32.7148  -22.3461   19.6331 C   0  0  0  0  0  0  0  0  0  0  0  0
  -30.6225  -16.6862   22.4519 C   0  0  0  0  0  0  0  0  0  0  0  0
  -22.4058   -8.1320   21.4105 C   0  0  0  0  0  0  0  0  0  0  0  0
  -33.4765  -21.2827   21.6823 C   0  0  0  0  0  0  0  0  0  0  0  0
  -20.9488   -6.9229   22.8024 C   0  0  0  0  0  0  0  0  0  0  0  0
  -19.4414   -6.7856   25.1458 C   0  0  0  0  0  0  0  0  0  0  0  0
  -21.2073   -5.9235   23.7404 C   0  0  0  0  0  0  0  0  0  0  0  0
  -24.6104  -11.6726   20.7018 C   0  0  0  0  0  0  0  0  0  0  0  0
  -25.2447  -13.7689   20.5068 C   0  0  0  0  0  0  0  0  0  0  0  0
  -22.8874  -13.4892   21.2901 C   0  0  0  0  0  0  0  0  0  0  0  0
  -31.6145  -25.4482   18.7420 C   0  0  0  0  0  0  0  0  0  0  0  0
  -31.3612  -23.4220   16.2215 C   0  0  0  0  0  0  0  0  0  0  0  0
  -31.7254  -20.2555   15.0018 C   0  0  0  0  0  0  0  0  0  0  0  0
  -30.6957  -14.8905   20.6865 C   0  0  0  0  0  0  0  0  0  0  0  0
  -30.3585  -30.3157   17.8544 C   0  0  0  0  0  0  0  0  0  0  0  0
  -33.8980  -24.3801   18.7235 C   0  0  0  0  0  0  0  0  0  0  0  0
  -32.5461  -19.2699   25.2275 C   0  0  0  0  0  0  0  0  0  0  0  0
  -33.9926  -17.7813   23.8847 C   0  0  0  0  0  0  0  0  0  0  0  0
  -31.7436  -22.3689   18.4821 C   0  0  0  0  0  0  0  0  0  0  0  0
  -29.8914  -28.9564   17.3401 C   0  0  0  0  0  0  0  0  0  0  0  0
  -29.6109  -12.4973   18.2838 C   0  0  0  0  0  0  0  0  0  0  0  0
  -29.6221  -28.0088   18.5046 C   0  0  0  0  0  0  0  0  0  0  0  0
  -28.1765  -12.1784   18.7118 C   0  0  0  0  0  0  0  0  0  0  0  0
  -30.5253  -12.7209   19.4870 C   0  0  0  0  0  0  0  0  0  0  0  0
  -28.6112  -13.3966   20.8830 C   0  0  0  0  0  0  0  0  0  0  0  0
  -30.8971  -27.7597   19.3194 C   0  0  1  0  0  0  0  0  0  0  0  0
  -32.6177  -24.6643   17.9441 C   0  0  1  0  0  0  0  0  0  0  0  0
  -33.9660  -19.1335   24.6326 C   0  0  1  0  0  0  0  0  0  0  0  0
  -27.6383  -13.2273   19.7046 C   0  0  2  0  0  0  0  0  0  0  0  0
  -31.4027  -18.8990   12.9155 C   0  0  0  0  0  0  0  0  0  0  0  0
  -28.3503  -23.3846   16.7145 C   0  0  0  0  0  0  0  0  0  0  0  0
  -28.2100  -21.3426   15.2727 C   0  0  0  0  0  0  0  0  0  0  0  0
  -29.0117  -23.4976   14.3053 C   0  0  0  0  0  0  0  0  0  0  0  0
  -34.6046  -19.5872   14.8520 C   0  0  0  0  0  0  0  0  0  0  0  0
  -34.2885  -20.2981   23.6890 C   0  0  0  0  0  0  0  0  0  1  0  0
  -30.5054  -22.2216   15.8966 C   0  0  1  0  0  0  0  0  0  0  0  0
  -32.3760  -19.7332   13.7336 C   0  0  2  0  0  0  0  0  0  0  0  0
  -29.0363  -22.6120   15.5701 C   0  0  0  0  0  0  0  0  0  0  0  0
  -25.8756  -11.6014   20.2796 N   0  0  0  0  0  0  0  0  0  0  0  0
  -26.2337  -12.8921   20.1701 N   0  0  0  0  0  0  0  0  0  0  0  0
  -31.9461  -23.4428   17.4956 N   0  0  0  0  0  0  0  0  0  0  0  0
  -29.9535  -13.7301   20.3812 N   0  0  0  0  0  0  0  0  0  0  0  0
  -25.4358  -15.1042   20.4537 N   0  0  0  0  0  0  0  0  0  0  0  0
  -21.8895  -12.5605   21.6154 N   0  0  0  0  0  0  0  0  0  0  0  0
  -30.0369  -15.7935   21.5203 N   0  0  0  0  0  0  0  0  0  0  0  0
  -31.7580  -26.8185   18.6357 N   0  0  0  0  0  0  0  0  0  0  0  0
  -31.1886  -21.5125   14.8201 N   0  0  0  0  0  0  0  0  0  0  0  0
  -33.5557  -18.8860   14.0677 N   0  3  0  0  0  0  0  0  0  0  0  0
  -22.6336  -14.7153   21.3667 O   0  0  0  0  0  0  0  0  0  0  0  0
  -30.7715  -24.8539   19.4037 O   0  0  0  0  0  0  0  0  0  0  0  0
  -31.5112  -24.3051   15.3734 O   0  0  0  0  0  0  0  0  0  0  0  0
  -31.6931  -19.6112   16.0479 O   0  0  0  0  0  0  0  0  0  0  0  0
  -31.8212  -15.0826   20.2193 O   0  0  0  0  0  0  0  0  0  0  0  0
  -21.6967   -6.9930   21.6390 O   0  0  0  0  0  0  0  0  0  0  0  0
  -33.3480  -20.3010   22.6158 O   0  0  0  0  0  0  0  0  0  1  0  0
  -18.7186   -6.7207   26.2716 F   0  0  0  0  0  0  0  0  0  0  0  0
  -22.1793   -5.0271   23.5219 F   0  0  0  0  0  0  0  0  0  0  0  0
  1  2  1  0  0  0  0
  1  5  2  0  0  0  0
  2  6  2  0  0  0  0
  3 10  2  0  0  0  0
  3 18  1  0  0  0  0
  4 11  1  0  0  0  0
  4 18  2  0  0  0  0
  5 20  1  0  0  0  0
  6 23  1  0  0  0  0
  7  9  2  0  0  0  0
  7 21  1  0  0  0  0
  8 12  2  0  0  0  0
  8 22  1  0  0  0  0
  9 26  1  0  0  0  0
 10 27  1  0  0  0  0
 11 27  2  0  0  0  0
 12 28  1  0  0  0  0
 13 14  2  0  0  0  0
 13 29  1  0  0  0  0
 14 30  1  0  0  0  0
 15 24  1  0  0  0  0
 15 26  2  0  0  0  0
 16 25  1  0  0  0  0
 16 28  2  0  0  0  0
 17 30  2  0  0  0  0
 17 31  1  0  0  0  0
 18 32  1  0  0  0  0
 19 32  1  0  0  0  0
 19 33  2  0  0  0  0
 19 34  1  0  0  0  0
 20 23  2  0  0  0  0
 20 39  1  0  0  0  0
 21 24  2  0  0  0  0
 21 41  1  0  0  0  0
 22 25  2  0  0  0  0
 22 40  1  0  0  0  0
 23 50  1  0  0  0  0
 24 42  1  0  0  0  0
 25 43  1  0  0  0  0
 26 69  1  0  0  0  0
 27 78  1  0  0  0  0
 28 79  1  0  0  0  0
 29 31  2  0  0  0  0
 29 78  1  0  0  0  0
 30 80  1  0  0  0  0
 31 81  1  0  0  0  0
 32 63  2  0  0  0  0
 33 64  1  0  0  0  0
 33 67  1  0  0  0  0
 34 68  1  0  0  0  0
 34 73  2  0  0  0  0
 35 51  1  0  0  0  0
 35 70  1  0  0  0  0
 35 74  2  0  0  0  0
 36 60  1  0  0  0  0
 36 65  1  0  0  0  0
 36 75  2  0  0  0  0
 37 61  1  0  0  0  0
 37 71  1  0  0  0  0
 37 76  2  0  0  0  0
 38 66  1  0  0  0  0
 38 69  1  0  0  0  0
 38 77  2  0  0  0  0
 39 44  1  0  0  0  0
 40 51  1  0  0  0  0
 41 52  1  0  0  0  0
 42 52  1  0  0  0  0
 43 65  1  0  0  0  0
 44 46  1  0  0  0  0
 45 47  1  0  0  0  0
 45 48  1  0  0  0  0
 46 50  1  0  0  0  0
 47 53  1  0  0  0  0
 48 66  1  0  0  0  0
 49 53  1  0  0  0  0
 49 66  1  0  0  0  0
 50 70  1  0  0  0  0
 51 65  1  0  0  0  0
 52 59  1  0  0  0  0
 53 64  1  0  0  0  0
 54 61  1  0  0  0  0
 55 62  1  0  0  0  0
 56 62  1  0  0  0  0
 57 62  1  0  0  0  0
 58 72  1  0  0  0  0
 59 79  1  0  0  0  0
 60 62  1  0  0  0  0
 60 71  1  0  0  0  0
 61 72  1  0  0  0  0
 63 64  1  0  0  0  0
M  CHG  1  72   1
M  ISO  4  38 100  59 101  69 100  79 101
M  END
> <Batch ID>
0137

> <Smiles>
CNC(C)C(=O)NC(C(=O)N1Cc2cc([101O:1][101CH2:1]C3Cc4ccc([100NH:0][100C:0](=O)N5CCCC(n6nc(-c7ccc(Oc8ccc(F)cc8F)cc7)c(C(N)=O)c6N)C5)cc4C3)ccc2CC1C(=O)NC1CCCc2ccccc21)C(C)(C)C

> <Shape>
0.205

> <Color>
0.215

> <Negative vol penalty>
0.000

$$$$

  -OEChem-04052321053D

 86 95  0     1  0  0  0  0  0999 V2000
  -26.8045  -33.3917   14.7304 C   0  0  0  0  0  0  0  0  0  0  0  0
  -27.1982  -32.3108   15.5127 C   0  0  0  0  0  0  0  0  0  0  0  0
  -23.0375   -9.7065   20.2097 C   0  0  0  0  0  0  0  0  0  0  0  0
  -23.6559  -10.1341   22.5057 C   0  0  0  0  0  0  0  0  0  0  0  0
  -26.4259  -34.5886   15.3370 C   0  0  0  0  0  0  0  0  0  0  0  0
  -27.2145  -32.4265   16.9022 C   0  0  0  0  0  0  0  0  0  0  0  0
  -25.1833  -28.4029   19.2109 C   0  0  0  0  0  0  0  0  0  0  0  0
  -22.2577   -8.6256   20.6210 C   0  0  0  0  0  0  0  0  0  0  0  0
  -22.8760   -9.0533   22.9170 C   0  0  0  0  0  0  0  0  0  0  0  0
  -25.9719  -27.2570   19.3042 C   0  0  0  0  0  0  0  0  0  0  0  0
  -23.1363   -5.6835   23.0041 C   0  0  0  0  0  0  0  0  0  0  0  0
  -23.6870   -4.8050   23.9371 C   0  0  0  0  0  0  0  0  0  0  0  0
  -26.5178  -27.8258   21.5841 C   0  0  0  0  0  0  0  0  0  0  0  0
  -21.8882   -5.3059   25.4703 C   0  0  0  0  0  0  0  0  0  0  0  0
  -23.7367  -10.4607   21.1520 C   0  0  0  0  0  0  0  0  0  0  0  0
  -24.1339  -12.9168   20.5885 C   0  0  0  0  0  0  0  0  0  0  0  0
  -26.4284  -34.7159   16.7350 C   0  0  0  0  0  0  0  0  0  0  0  0
  -25.0645  -29.2761   20.3017 C   0  0  0  0  0  0  0  0  0  0  0  0
  -26.8369  -33.6267   17.5281 C   0  0  0  0  0  0  0  0  0  0  0  0
  -25.7250  -28.9808   21.5028 C   0  0  0  0  0  0  0  0  0  0  0  0
  -22.1769   -8.2991   21.9747 C   0  0  0  0  0  0  0  0  0  0  0  0
  -26.6416  -26.9698   20.4900 C   0  0  0  0  0  0  0  0  0  0  0  0
  -21.9617   -6.3733   23.3041 C   0  0  0  0  0  0  0  0  0  0  0  0
  -23.0629   -4.6161   25.1702 C   0  0  0  0  0  0  0  0  0  0  0  0
  -21.3376   -6.1845   24.5372 C   0  0  0  0  0  0  0  0  0  0  0  0
  -24.5429  -11.5770   20.7276 C   0  0  0  0  0  0  0  0  0  0  0  0
  -25.2604  -13.5773   20.1629 C   0  0  0  0  0  0  0  0  0  0  0  0
  -22.8504  -13.5112   20.8230 C   0  0  0  0  0  0  0  0  0  0  0  0
  -25.8046  -32.3223   20.8275 C   0  0  0  0  0  0  0  0  0  0  0  0
  -24.2789  -31.8020   23.6424 C   0  0  0  0  0  0  0  0  0  0  0  0
  -22.8489  -30.5537   26.4785 C   0  0  0  0  0  0  0  0  0  0  0  0
  -30.7410  -14.5718   20.5076 C   0  0  0  0  0  0  0  0  0  0  0  0
  -26.0562  -36.0448   17.3436 C   0  0  0  0  0  0  0  0  0  0  0  0
  -24.1886  -30.4941   20.1936 C   0  0  0  0  0  0  0  0  0  0  0  0
  -25.6141  -29.8753   22.7095 C   0  0  0  0  0  0  0  0  0  0  0  0
  -25.7426  -35.9651   18.8354 C   0  0  0  0  0  0  0  0  0  0  0  0
  -27.4907  -17.6527   17.4205 C   0  0  0  0  0  0  0  0  0  0  0  0
  -29.7055  -11.7937   18.5362 C   0  0  0  0  0  0  0  0  0  0  0  0
  -26.8056  -35.1467   19.5614 C   0  0  0  0  0  0  0  0  0  0  0  0
  -28.2389  -11.5966   18.9237 C   0  0  0  0  0  0  0  0  0  0  0  0
  -26.5582  -18.3825   18.3921 C   0  0  0  0  0  0  0  0  0  0  0  0
  -26.3849  -22.2929   19.9504 C   0  0  0  0  0  0  0  0  0  0  0  0
  -27.8398  -23.1006   18.0446 C   0  0  0  0  0  0  0  0  0  0  0  0
  -28.8695  -18.2970   17.5647 C   0  0  0  0  0  0  0  0  0  0  0  0
  -26.7021  -23.5675   20.7284 C   0  0  0  0  0  0  0  0  0  0  0  0
  -28.1534  -24.3731   18.8271 C   0  0  0  0  0  0  0  0  0  0  0  0
  -30.5517  -12.2271   19.7312 C   0  0  0  0  0  0  0  0  0  0  0  0
  -28.5833  -13.2178   20.8347 C   0  0  0  0  0  0  0  0  0  0  0  0
  -26.8441  -33.7054   19.0393 C   0  0  1  0  0  0  0  0  0  0  0  0
  -24.5511  -31.5820   21.1997 C   0  0  1  0  0  0  0  0  0  0  0  0
  -27.6797  -12.8346   19.6503 C   0  0  2  0  0  0  0  0  0  0  0  0
  -27.5196  -21.9328   18.9846 C   0  0  0  0  0  0  0  0  0  0  0  0
  -27.3674  -19.5461   18.9667 C   0  0  1  0  0  0  0  0  0  0  0  0
  -28.8180  -19.0829   18.8690 C   0  0  1  0  0  0  0  0  0  0  0  0
  -27.0272  -24.7315   19.7953 C   0  0  0  0  0  0  0  0  0  1  0  0
  -22.1753  -31.2196   28.8024 C   0  0  0  0  0  0  0  0  0  0  0  0
  -27.2009  -31.7028   24.5151 C   0  0  0  0  0  0  0  0  0  0  0  0
  -26.4140  -31.4176   26.8747 C   0  0  0  0  0  0  0  0  0  0  0  0
  -25.8441  -33.4934   25.6141 C   0  0  0  0  0  0  0  0  0  0  0  0
  -20.0014  -29.9411   25.9536 C   0  0  0  0  0  0  0  0  0  0  0  0
  -30.7727  -16.9144   21.3265 C   0  0  0  0  0  0  0  0  0  0  0  0
  -30.5717  -17.8616   20.1584 C   0  0  0  0  0  0  0  0  0  0  0  0
  -24.6959  -31.3229   25.0119 C   0  0  1  0  0  0  0  0  0  0  0  0
  -21.7269  -31.0788   27.3560 C   0  0  2  0  0  0  0  0  0  0  0  0
  -26.0306  -31.9660   25.4837 C   0  0  0  0  0  0  0  0  0  0  0  0
  -25.8289  -11.3954   20.4156 N   0  0  0  0  0  0  0  0  0  0  0  0
  -26.2376  -12.6298   20.0761 N   0  0  0  0  0  0  0  0  0  0  0  0
  -24.7507  -31.0574   22.5521 N   0  0  0  0  0  0  0  0  0  0  0  0
  -29.9680  -13.4066   20.3746 N   0  0  0  0  0  0  0  0  0  0  0  0
  -25.5005  -14.8703   19.8581 N   0  0  0  0  0  0  0  0  0  0  0  0
  -21.8024  -12.6883   21.2578 N   0  0  0  0  0  0  0  0  0  0  0  0
  -25.7483  -32.9383   19.5918 N   0  0  0  0  0  0  0  0  0  0  0  0
  -23.5640  -31.5786   25.8961 N   0  0  0  0  0  0  0  0  0  0  0  0
  -30.1096  -15.6456   21.1232 N   0  0  0  0  0  0  0  0  0  0  0  0
  -27.1514  -20.7532   18.2035 N   0  0  0  0  0  0  0  0  0  0  0  0
  -29.1271  -18.1698   20.0043 N   0  3  0  0  0  0  0  0  0  0  0  0
  -20.5598  -30.1531   27.3138 N   0  3  0  0  0  0  0  0  0  0  0  0
  -22.6348  -14.7327   20.6364 O   0  0  0  0  0  0  0  0  0  0  0  0
  -26.7520  -32.3351   21.6045 O   0  0  0  0  0  0  0  0  0  0  0  0
  -23.5550  -32.7960   23.5440 O   0  0  0  0  0  0  0  0  0  0  0  0
  -23.0711  -29.3543   26.3280 O   0  0  0  0  0  0  0  0  0  0  0  0
  -31.9058  -14.6512   20.1024 O   0  0  0  0  0  0  0  0  0  0  0  0
  -21.4158   -7.2446   22.3764 O   0  0  0  0  0  0  0  0  0  0  0  0
  -27.4125  -25.8523   20.5836 O   0  0  0  0  0  0  0  0  0  1  0  0
  -23.5909   -3.7713   26.0655 F   0  0  0  0  0  0  0  0  0  0  0  0
  -20.2083   -6.8435   24.8307 F   0  0  0  0  0  0  0  0  0  0  0  0
  1  2  1  0  0  0  0
  1  5  2  0  0  0  0
  2  6  2  0  0  0  0
  3  8  2  0  0  0  0
  3 15  1  0  0  0  0
  4  9  1  0  0  0  0
  4 15  2  0  0  0  0
  5 17  1  0  0  0  0
  6 19  1  0  0  0  0
  7 10  2  0  0  0  0
  7 18  1  0  0  0  0
  8 21  1  0  0  0  0
  9 21  2  0  0  0  0
 10 22  1  0  0  0  0
 11 12  2  0  0  0  0
 11 23  1  0  0  0  0
 12 24  1  0  0  0  0
 13 20  1  0  0  0  0
 13 22  2  0  0  0  0
 14 24  2  0  0  0  0
 14 25  1  0  0  0  0
 15 26  1  0  0  0  0
 16 26  1  0  0  0  0
 16 27  2  0  0  0  0
 16 28  1  0  0  0  0
 17 19  2  0  0  0  0
 17 33  1  0  0  0  0
 18 20  2  0  0  0  0
 18 34  1  0  0  0  0
 19 49  1  0  0  0  0
 20 35  1  0  0  0  0
 21 83  1  0  0  0  0
 22 84  1  0  0  0  0
 23 25  2  0  0  0  0
 23 83  1  0  0  0  0
 24 85  1  0  0  0  0
 25 86  1  0  0  0  0
 26 66  2  0  0  0  0
 27 67  1  0  0  0  0
 27 70  1  0  0  0  0
 28 71  1  0  0  0  0
 28 78  2  0  0  0  0
 29 50  1  0  0  0  0
 29 72  1  0  0  0  0
 29 79  2  0  0  0  0
 30 63  1  0  0  0  0
 30 68  1  0  0  0  0
 30 80  2  0  0  0  0
 31 64  1  0  0  0  0
 31 73  1  0  0  0  0
 31 81  2  0  0  0  0
 32 69  1  0  0  0  0
 32 74  1  0  0  0  0
 32 82  2  0  0  0  0
 33 36  1  0  0  0  0
 34 50  1  0  0  0  0
 35 68  1  0  0  0  0
 36 39  1  0  0  0  0
 37 41  1  0  0  0  0
 37 44  1  0  0  0  0
 38 40  1  0  0  0  0
 38 47  1  0  0  0  0
 39 49  1  0  0  0  0
 40 51  1  0  0  0  0
 41 53  1  0  0  0  0
 42 45  1  0  0  0  0
 42 52  1  0  0  0  0
 43 46  1  0  0  0  0
 43 52  1  0  0  0  0
 44 54  1  0  0  0  0
 45 55  1  0  0  0  0
 46 55  1  0  0  0  0
 47 69  1  0  0  0  0
 48 51  1  0  0  0  0
 48 69  1  0  0  0  0
 49 72  1  0  0  0  0
 50 68  1  0  0  0  0
 51 67  1  0  0  0  0
 52 75  1  0  0  0  0
 53 54  1  0  0  0  0
 53 75  1  0  0  0  0
 54 76  1  0  0  0  0
 55 84  1  0  0  0  0
 56 64  1  0  0  0  0
 57 65  1  0  0  0  0
 58 65  1  0  0  0  0
 59 65  1  0  0  0  0
 60 77  1  0  0  0  0
 61 62  1  0  0  0  0
 61 74  1  0  0  0  0
 62 76  1  0  0  0  0
 63 65  1  0  0  0  0
 63 73  1  0  0  0  0
 64 77  1  0  0  0  0
 66 67  1  0  0  0  0
M  CHG  2  76   1  77   1
M  ISO  4  32 100  55 101  74 100  84 101
M  END
> <Batch ID>
0137

> <Smiles>
CNC(C)C(=O)NC(C(=O)N1Cc2cc([101O:1][101CH:1]3CCC(NC4CCCC4NCC[100NH:0][100C:0](=O)N4CCCC(n5nc(-c6ccc(Oc7ccc(F)cc7F)cc6)c(C(N)=O)c5N)C4)CC3)ccc2CC1C(=O)NC1CCCc2ccccc21)C(C)(C)C

> <Shape>
0.327

> <Color>
0.225

> <Negative vol penalty>
0.000

$$$$

  -OEChem-04052321053D

 81 89  0     1  0  0  0  0  0999 V2000
  -28.6561  -32.5991   25.5568 C   0  0  0  0  0  0  0  0  0  0  0  0
  -28.8112  -31.2640   25.1979 C   0  0  0  0  0  0  0  0  0  0  0  0
  -23.9419  -10.0095   22.3373 C   0  0  0  0  0  0  0  0  0  0  0  0
  -24.5902  -11.6421   23.9960 C   0  0  0  0  0  0  0  0  0  0  0  0
  -27.4059  -33.2073   25.4517 C   0  0  0  0  0  0  0  0  0  0  0  0
  -27.7158  -30.5359   24.7348 C   0  0  0  0  0  0  0  0  0  0  0  0
  -28.8204  -27.7502   20.6525 C   0  0  0  0  0  0  0  0  0  0  0  0
  -30.7419  -18.6706   18.9070 C   0  0  0  0  0  0  0  0  0  0  0  0
  -23.5187   -9.1487   23.3499 C   0  0  0  0  0  0  0  0  0  0  0  0
  -24.1670  -10.7813   25.0087 C   0  0  0  0  0  0  0  0  0  0  0  0
  -29.5139  -26.5592   20.8631 C   0  0  0  0  0  0  0  0  0  0  0  0
  -31.0436  -20.0307   18.9742 C   0  0  0  0  0  0  0  0  0  0  0  0
  -24.9321   -7.0100   25.5528 C   0  0  0  0  0  0  0  0  0  0  0  0
  -25.3008   -5.6682   25.4579 C   0  0  0  0  0  0  0  0  0  0  0  0
  -27.4456  -25.3304   20.6849 C   0  0  0  0  0  0  0  0  0  0  0  0
  -28.3919  -19.1803   19.1417 C   0  0  0  0  0  0  0  0  0  0  0  0
  -22.9708   -5.0306   25.4181 C   0  0  0  0  0  0  0  0  0  0  0  0
  -24.4777  -11.2563   22.6603 C   0  0  0  0  0  0  0  0  0  0  0  0
  -24.1480  -13.1230   20.9532 C   0  0  0  0  0  0  0  0  0  0  0  0
  -26.2968  -32.4890   24.9779 C   0  0  0  0  0  0  0  0  0  0  0  0
  -27.4305  -27.7413   20.4671 C   0  0  0  0  0  0  0  0  0  0  0  0
  -26.4493  -31.1347   24.6245 C   0  0  0  0  0  0  0  0  0  0  0  0
  -26.7372  -26.5225   20.4696 C   0  0  0  0  0  0  0  0  0  0  0  0
  -28.6937  -20.5405   19.2089 C   0  0  0  0  0  0  0  0  0  0  0  0
  -29.4160  -18.2453   18.9908 C   0  0  0  0  0  0  0  0  0  0  0  0
  -23.6312   -9.5346   24.6856 C   0  0  0  0  0  0  0  0  0  0  0  0
  -28.8261  -25.3493   20.8821 C   0  0  0  0  0  0  0  0  0  0  0  0
  -30.0196  -20.9657   19.1251 C   0  0  0  0  0  0  0  0  0  0  0  0
  -23.5826   -7.3622   25.5805 C   0  0  0  0  0  0  0  0  0  0  0  0
  -24.3202   -4.6785   25.3905 C   0  0  0  0  0  0  0  0  0  0  0  0
  -22.6020   -6.3725   25.5131 C   0  0  0  0  0  0  0  0  0  0  0  0
  -24.9156  -12.1457   21.6147 C   0  0  0  0  0  0  0  0  0  0  0  0
  -25.0172  -13.6920   20.0547 C   0  0  0  0  0  0  0  0  0  0  0  0
  -22.7725  -13.4842   21.1347 C   0  0  0  0  0  0  0  0  0  0  0  0
  -24.9512  -28.9735   22.0288 C   0  0  0  0  0  0  0  0  0  0  0  0
  -23.2851  -27.8427   19.4856 C   0  0  0  0  0  0  0  0  0  0  0  0
  -23.0984  -25.6245   16.8988 C   0  0  0  0  0  0  0  0  0  0  0  0
  -30.0066  -15.8060   18.7740 C   0  0  0  0  0  0  0  0  0  0  0  0
  -24.9551  -33.1760   24.9264 C   0  0  0  0  0  0  0  0  0  0  0  0
  -26.7008  -29.0321   20.2146 C   0  0  0  0  0  0  0  0  0  0  0  0
  -25.2478  -26.4568   20.2554 C   0  0  0  0  0  0  0  0  0  0  0  0
  -23.9263  -32.4399   24.0721 C   0  0  0  0  0  0  0  0  0  0  0  0
  -29.6516  -12.2675   18.6003 C   0  0  0  0  0  0  0  0  0  0  0  0
  -23.9271  -30.9503   24.4006 C   0  0  0  0  0  0  0  0  0  0  0  0
  -28.3247  -12.0007   19.3146 C   0  0  0  0  0  0  0  0  0  0  0  0
  -30.4306  -13.4056   19.2572 C   0  0  0  0  0  0  0  0  0  0  0  0
  -28.3518  -14.3889   20.1412 C   0  0  0  0  0  0  0  0  0  0  0  0
  -25.2904  -30.3186   24.0943 C   0  0  1  0  0  0  0  0  0  0  0  0
  -25.2146  -28.9538   20.5496 C   0  0  1  0  0  0  0  0  0  0  0  0
  -27.5018  -13.2939   19.4763 C   0  0  2  0  0  0  0  0  0  0  0  0
  -27.5850  -21.5275   19.3706 C   0  0  0  0  0  0  0  0  0  0  0  0
  -21.5985  -24.9159   15.0159 C   0  0  0  0  0  0  0  0  0  0  0  0
  -21.4815  -26.3899   21.4722 C   0  0  0  0  0  0  0  0  0  0  0  0
  -20.6416  -24.9864   19.5767 C   0  0  0  0  0  0  0  0  0  0  0  0
  -20.2780  -27.4542   19.5556 C   0  0  0  0  0  0  0  0  0  0  0  0
  -25.1325  -26.3173   14.8638 C   0  0  0  0  0  0  0  0  0  0  0  0
  -30.8539  -24.1307   20.6389 C   0  0  0  0  0  0  0  0  0  1  0  0
  -31.1894  -22.7038   20.2505 C   0  0  0  0  0  0  0  0  0  0  0  0
  -22.6000  -26.5400   19.1501 C   0  0  1  0  0  0  0  0  0  0  0  0
  -22.7531  -25.8135   15.4327 C   0  0  2  0  0  0  0  0  0  0  0  0
  -21.2781  -26.3437   19.9446 C   0  0  0  0  0  0  0  0  0  0  0  0
  -26.1754  -12.0940   21.1740 N   0  0  0  0  0  0  0  0  0  0  0  0
  -26.2061  -13.0458   20.2258 N   0  0  0  0  0  0  0  0  0  0  0  0
  -24.5783  -27.7465   20.0187 N   0  0  0  0  0  0  0  0  0  0  0  0
  -29.5892  -14.5987   19.3732 N   0  0  0  0  0  0  0  0  0  0  0  0
  -24.8728  -14.6769   19.1428 N   0  0  0  0  0  0  0  0  0  0  0  0
  -22.0236  -12.7988   22.1009 N   0  0  0  0  0  0  0  0  0  0  0  0
  -29.1099  -16.8635   18.9224 N   0  0  0  0  0  0  0  0  0  0  0  0
  -25.4363  -30.0963   22.6717 N   0  0  0  0  0  0  0  0  0  0  0  0
  -22.4335  -26.5279   17.7007 N   0  0  0  0  0  0  0  0  0  0  0  0
  -23.9307  -25.4922   14.5777 N   0  3  0  0  0  0  0  0  0  0  0  0
  -22.2192  -14.3768   20.4486 O   0  0  0  0  0  0  0  0  0  0  0  0
  -24.3510  -28.0398   22.5481 O   0  0  0  0  0  0  0  0  0  0  0  0
  -22.6973  -28.9066   19.2757 O   0  0  0  0  0  0  0  0  0  0  0  0
  -23.8770  -24.7593   17.2936 O   0  0  0  0  0  0  0  0  0  0  0  0
  -31.0677  -15.8878   18.1501 O   0  0  0  0  0  0  0  0  0  0  0  0
  -23.2181   -8.6949   25.6740 O   0  0  0  0  0  0  0  0  0  0  0  0
  -29.5005  -24.1854   21.0881 O   0  0  0  0  0  0  0  0  0  1  0  0
  -30.3337  -22.2977   19.1892 O   0  0  0  0  0  0  0  0  0  0  0  0
  -24.6745   -3.3901   25.2978 F   0  0  0  0  0  0  0  0  0  0  0  0
  -21.3040   -6.7048   25.5381 F   0  0  0  0  0  0  0  0  0  0  0  0
  1  2  1  0  0  0  0
  1  5  2  0  0  0  0
  2  6  2  0  0  0  0
  3  9  2  0  0  0  0
  3 18  1  0  0  0  0
  4 10  1  0  0  0  0
  4 18  2  0  0  0  0
  5 20  1  0  0  0  0
  6 22  1  0  0  0  0
  7 11  2  0  0  0  0
  7 21  1  0  0  0  0
  8 12  2  0  0  0  0
  8 25  1  0  0  0  0
  9 26  1  0  0  0  0
 10 26  2  0  0  0  0
 11 27  1  0  0  0  0
 12 28  1  0  0  0  0
 13 14  2  0  0  0  0
 13 29  1  0  0  0  0
 14 30  1  0  0  0  0
 15 23  1  0  0  0  0
 15 27  2  0  0  0  0
 16 24  1  0  0  0  0
 16 25  2  0  0  0  0
 17 30  2  0  0  0  0
 17 31  1  0  0  0  0
 18 32  1  0  0  0  0
 19 32  1  0  0  0  0
 19 33  2  0  0  0  0
 19 34  1  0  0  0  0
 20 22  2  0  0  0  0
 20 39  1  0  0  0  0
 21 23  2  0  0  0  0
 21 40  1  0  0  0  0
 22 48  1  0  0  0  0
 23 41  1  0  0  0  0
 24 28  2  0  0  0  0
 24 51  1  0  0  0  0
 25 68  1  0  0  0  0
 26 77  1  0  0  0  0
 27 78  1  0  0  0  0
 28 79  1  0  0  0  0
 29 31  2  0  0  0  0
 29 77  1  0  0  0  0
 30 80  1  0  0  0  0
 31 81  1  0  0  0  0
 32 62  2  0  0  0  0
 33 63  1  0  0  0  0
 33 66  1  0  0  0  0
 34 67  1  0  0  0  0
 34 72  2  0  0  0  0
 35 49  1  0  0  0  0
 35 69  1  0  0  0  0
 35 73  2  0  0  0  0
 36 59  1  0  0  0  0
 36 64  1  0  0  0  0
 36 74  2  0  0  0  0
 37 60  1  0  0  0  0
 37 70  1  0  0  0  0
 37 75  2  0  0  0  0
 38 65  1  0  0  0  0
 38 68  1  0  0  0  0
 38 76  2  0  0  0  0
 39 42  1  0  0  0  0
 40 49  1  0  0  0  0
 41 64  1  0  0  0  0
 42 44  1  0  0  0  0
 43 45  1  0  0  0  0
 43 46  1  0  0  0  0
 44 48  1  0  0  0  0
 45 50  1  0  0  0  0
 46 65  1  0  0  0  0
 47 50  1  0  0  0  0
 47 65  1  0  0  0  0
 48 69  1  0  0  0  0
 49 64  1  0  0  0  0
 50 63  1  0  0  0  0
 52 60  1  0  0  0  0
 53 61  1  0  0  0  0
 54 61  1  0  0  0  0
 55 61  1  0  0  0  0
 56 71  1  0  0  0  0
 57 58  1  0  0  0  0
 57 78  1  0  0  0  0
 58 79  1  0  0  0  0
 59 61  1  0  0  0  0
 59 70  1  0  0  0  0
 60 71  1  0  0  0  0
 62 63  1  0  0  0  0
M  CHG  1  71   1
M  ISO  4  38 100  57 101  68 100  78 101
M  END
> <Batch ID>
0137

> <Smiles>
CNC(C)C(=O)NC(C(=O)N1Cc2cc([101O:1][101CH2:1]COc3ccc([100NH:0][100C:0](=O)N4CCCC(n5nc(-c6ccc(Oc7ccc(F)cc7F)cc6)c(C(N)=O)c5N)C4)cc3C)ccc2CC1C(=O)NC1CCCc2ccccc21)C(C)(C)C

> <Shape>
0.282

> <Color>
0.106

> <Negative vol penalty>
0.000

$$$$

  -OEChem-04052321053D

 88 98  0     1  0  0  0  0  0999 V2000
  -29.2267  -31.0847   26.6302 C   0  0  0  0  0  0  0  0  0  0  0  0
  -28.9839  -30.0731   25.7066 C   0  0  0  0  0  0  0  0  0  0  0  0
  -23.1980  -10.5289   21.5185 C   0  0  0  0  0  0  0  0  0  0  0  0
  -24.8169   -8.7665   21.8505 C   0  0  0  0  0  0  0  0  0  0  0  0
  -28.1606  -31.7937   27.1822 C   0  0  0  0  0  0  0  0  0  0  0  0
  -27.6746  -29.7692   25.3352 C   0  0  0  0  0  0  0  0  0  0  0  0
  -27.1647  -29.1646   20.3332 C   0  0  0  0  0  0  0  0  0  0  0  0
  -22.1839   -9.5772   21.4111 C   0  0  0  0  0  0  0  0  0  0  0  0
  -23.8028   -7.8147   21.7432 C   0  0  0  0  0  0  0  0  0  0  0  0
  -27.5919  -27.9530   19.7915 C   0  0  0  0  0  0  0  0  0  0  0  0
  -21.5859   -4.9384   21.9164 C   0  0  0  0  0  0  0  0  0  0  0  0
  -21.5687   -3.9001   22.8477 C   0  0  0  0  0  0  0  0  0  0  0  0
  -25.3088  -27.1755   19.7452 C   0  0  0  0  0  0  0  0  0  0  0  0
  -27.9183  -21.2695   17.1129 C   0  0  0  0  0  0  0  0  0  0  0  0
  -27.1784  -23.5537   16.8453 C   0  0  0  0  0  0  0  0  0  0  0  0
  -21.3404   -5.5083   24.6362 C   0  0  0  0  0  0  0  0  0  0  0  0
  -24.5145  -10.1235   21.7381 C   0  0  0  0  0  0  0  0  0  0  0  0
  -26.0129  -11.7405   23.0218 C   0  0  0  0  0  0  0  0  0  0  0  0
  -26.8382  -31.5048   26.8102 C   0  0  0  0  0  0  0  0  0  0  0  0
  -25.8052  -29.3869   20.5956 C   0  0  0  0  0  0  0  0  0  0  0  0
  -26.5898  -30.4741   25.8837 C   0  0  0  0  0  0  0  0  0  0  0  0
  -24.8666  -28.3917   20.2879 C   0  0  0  0  0  0  0  0  0  0  0  0
  -27.4560  -21.2738   18.4289 C   0  0  0  0  0  0  0  0  0  0  0  0
  -26.8548  -22.4181   18.9531 C   0  0  0  0  0  0  0  0  0  0  0  0
  -26.7160  -23.5581   18.1613 C   0  0  0  0  0  0  0  0  0  0  0  0
  -22.4863   -8.2201   21.5235 C   0  0  0  0  0  0  0  0  0  0  0  0
  -26.6643  -26.9572   19.5001 C   0  0  0  0  0  0  0  0  0  0  0  0
  -21.4805   -6.2616   22.3450 C   0  0  0  0  0  0  0  0  0  0  0  0
  -27.7796  -22.4094   16.3211 C   0  0  0  0  0  0  0  0  0  0  0  0
  -21.4459   -4.1851   24.2076 C   0  0  0  0  0  0  0  0  0  0  0  0
  -21.3577   -6.5466   23.7049 C   0  0  0  0  0  0  0  0  0  0  0  0
  -25.5626  -11.1061   21.8485 C   0  0  0  0  0  0  0  0  0  0  0  0
  -27.0141  -12.5789   22.5961 C   0  0  0  0  0  0  0  0  0  0  0  0
  -25.5662  -11.5857   24.3753 C   0  0  0  0  0  0  0  0  0  0  0  0
  -24.0916  -29.9737   23.2077 C   0  0  0  0  0  0  0  0  0  0  0  0
  -21.6850  -30.3657   21.0682 C   0  0  0  0  0  0  0  0  0  0  0  0
  -20.4173  -29.6773   17.9754 C   0  0  0  0  0  0  0  0  0  0  0  0
  -29.1509  -16.2173   19.1008 C   0  0  0  0  0  0  0  0  0  0  0  0
  -25.7157  -32.2665   27.4694 C   0  0  0  0  0  0  0  0  0  0  0  0
  -25.3575  -30.7093   21.1553 C   0  0  0  0  0  0  0  0  0  0  0  0
  -23.3935  -28.5884   20.5318 C   0  0  0  0  0  0  0  0  0  0  0  0
  -24.3805  -32.1349   26.7414 C   0  0  0  0  0  0  0  0  0  0  0  0
  -29.3803  -12.9032   18.1456 C   0  0  0  0  0  0  0  0  0  0  0  0
  -26.8538  -23.4841   21.3063 C   0  0  0  0  0  0  0  0  0  0  0  0
  -27.3108  -22.0685   21.4726 C   0  0  0  0  0  0  0  0  0  0  0  0
  -24.1089  -30.6771   26.3837 C   0  0  0  0  0  0  0  0  0  0  0  0
  -28.4474  -12.1798   19.1164 C   0  0  0  0  0  0  0  0  0  0  0  0
  -26.8430  -18.8279   18.6808 C   0  0  0  0  0  0  0  0  0  0  0  0
  -29.1024  -19.6531   19.4708 C   0  0  0  0  0  0  0  0  0  0  0  0
  -28.7714  -14.2223   17.6842 C   0  0  0  0  0  0  0  0  0  0  0  0
  -27.0404  -17.5578   19.5132 C   0  0  0  0  0  0  0  0  0  0  0  0
  -29.2344  -18.3803   20.3021 C   0  0  0  0  0  0  0  0  0  0  0  0
  -27.4798  -14.4360   19.7828 C   0  0  0  0  0  0  0  0  0  0  0  0
  -27.6212  -20.0198   19.2666 C   0  0  0  0  0  0  0  0  0  0  0  0
  -26.3579  -22.4219   20.3638 C   0  0  0  0  0  0  0  0  0  0  0  0
  -25.1850  -30.1317   25.4371 C   0  0  1  0  0  0  0  0  0  0  0  0
  -24.0068  -30.6333   21.8603 C   0  0  1  0  0  0  0  0  0  0  0  0
  -28.0507  -13.0954   20.2881 C   0  0  1  0  0  0  0  0  0  0  0  0
  -18.4131  -30.1072   16.5275 C   0  0  0  0  0  0  0  0  0  0  0  0
  -20.0829  -28.3356   22.6874 C   0  0  0  0  0  0  0  0  0  0  0  0
  -18.5397  -28.0969   20.7304 C   0  0  0  0  0  0  0  0  0  0  0  0
  -18.7632  -30.3000   21.8788 C   0  0  0  0  0  0  0  0  0  0  0  0
  -22.0505  -31.0430   15.9196 C   0  0  0  0  0  0  0  0  0  0  0  0
  -28.8364  -21.2026   14.5654 C   0  0  0  0  0  0  0  0  0  0  0  0
  -26.0764  -24.7972   18.6973 C   0  0  0  0  0  0  0  0  0  1  0  0
  -20.6594  -29.4571   20.4345 C   0  0  1  0  0  0  0  0  0  0  0  0
  -19.8075  -30.5752   16.9140 C   0  0  2  0  0  0  0  0  0  0  0  0
  -19.5392  -29.0427   21.4299 C   0  0  0  0  0  0  0  0  0  0  0  0
  -26.2234  -11.5072   20.7593 N   0  0  0  0  0  0  0  0  0  0  0  0
  -27.0991  -12.4028   21.2463 N   0  0  0  0  0  0  0  0  0  0  0  0
  -23.0060  -29.8961   21.0862 N   0  0  0  0  0  0  0  0  0  0  0  0
  -28.4051  -15.0613   18.8251 N   0  0  0  0  0  0  0  0  0  0  0  0
  -28.4706  -17.2828   19.7095 N   0  0  0  0  0  0  0  0  0  0  0  0
  -27.8213  -13.4422   23.2485 N   0  0  0  0  0  0  0  0  0  0  0  0
  -24.5275  -10.6819   24.6369 N   0  0  0  0  0  0  0  0  0  0  0  0
  -24.9546  -30.5993   24.0870 N   0  0  0  0  0  0  0  0  0  0  0  0
  -20.1759  -30.1530   19.2469 N   0  0  0  0  0  0  0  0  0  0  0  0
  -20.6574  -30.5810   15.6898 N   0  3  0  0  0  0  0  0  0  0  0  0
  -26.0620  -12.2420   25.3224 O   0  0  0  0  0  0  0  0  0  0  0  0
  -23.4223  -28.9722   23.4333 O   0  0  0  0  0  0  0  0  0  0  0  0
  -21.3285  -31.4551   21.5239 O   0  0  0  0  0  0  0  0  0  0  0  0
  -21.0417  -28.6542   17.7038 O   0  0  0  0  0  0  0  0  0  0  0  0
  -30.3537  -16.2935   18.8207 O   0  0  0  0  0  0  0  0  0  0  0  0
  -21.4970   -7.2912   21.4190 O   0  0  0  0  0  0  0  0  0  0  0  0
  -28.2315  -22.4056   15.0372 O   0  0  0  0  0  0  0  0  0  0  0  0
  -27.0817  -25.7650   18.9681 O   0  0  0  0  0  0  0  0  0  1  0  0
  -21.4278   -3.1879   25.1017 F   0  0  0  0  0  0  0  0  0  0  0  0
  -21.2549   -7.8157   24.1225 F   0  0  0  0  0  0  0  0  0  0  0  0
  1  2  1  0  0  0  0
  1  5  2  0  0  0  0
  2  6  2  0  0  0  0
  3  8  2  0  0  0  0
  3 17  1  0  0  0  0
  4  9  1  0  0  0  0
  4 17  2  0  0  0  0
  5 19  1  0  0  0  0
  6 21  1  0  0  0  0
  7 10  2  0  0  0  0
  7 20  1  0  0  0  0
  8 26  1  0  0  0  0
  9 26  2  0  0  0  0
 10 27  1  0  0  0  0
 11 12  2  0  0  0  0
 11 28  1  0  0  0  0
 12 30  1  0  0  0  0
 13 22  1  0  0  0  0
 13 27  2  0  0  0  0
 14 23  2  0  0  0  0
 14 29  1  0  0  0  0
 15 25  1  0  0  0  0
 15 29  2  0  0  0  0
 16 30  2  0  0  0  0
 16 31  1  0  0  0  0
 17 32  1  0  0  0  0
 18 32  1  0  0  0  0
 18 33  2  0  0  0  0
 18 34  1  0  0  0  0
 19 21  2  0  0  0  0
 19 39  1  0  0  0  0
 20 22  2  0  0  0  0
 20 40  1  0  0  0  0
 21 56  1  0  0  0  0
 22 41  1  0  0  0  0
 23 24  1  0  0  0  0
 23 54  1  0  0  0  0
 24 25  2  0  0  0  0
 24 55  1  0  0  0  0
 25 65  1  0  0  0  0
 26 84  1  0  0  0  0
 27 86  1  0  0  0  0
 28 31  2  0  0  0  0
 28 84  1  0  0  0  0
 29 85  1  0  0  0  0
 30 87  1  0  0  0  0
 31 88  1  0  0  0  0
 32 69  2  0  0  0  0
 33 70  1  0  0  0  0
 33 74  1  0  0  0  0
 34 75  1  0  0  0  0
 34 79  2  0  0  0  0
 35 57  1  0  0  0  0
 35 76  1  0  0  0  0
 35 80  2  0  0  0  0
 36 66  1  0  0  0  0
 36 71  1  0  0  0  0
 36 81  2  0  0  0  0
 37 67  1  0  0  0  0
 37 77  1  0  0  0  0
 37 82  2  0  0  0  0
 38 72  1  0  0  0  0
 38 73  1  0  0  0  0
 38 83  2  0  0  0  0
 39 42  1  0  0  0  0
 40 57  1  0  0  0  0
 41 71  1  0  0  0  0
 42 46  1  0  0  0  0
 43 47  1  0  0  0  0
 43 50  1  0  0  0  0
 44 45  1  0  0  0  0
 44 55  1  0  0  0  0
 45 55  1  0  0  0  0
 46 56  1  0  0  0  0
 47 58  1  0  0  0  0
 48 51  1  0  0  0  0
 48 54  1  0  0  0  0
 49 52  1  0  0  0  0
 49 54  1  0  0  0  0
 50 72  1  0  0  0  0
 51 73  1  0  0  0  0
 52 73  1  0  0  0  0
 53 58  1  0  0  0  0
 53 72  1  0  0  0  0
 56 76  1  0  0  0  0
 57 71  1  0  0  0  0
 58 70  1  0  0  0  0
 59 67  1  0  0  0  0
 60 68  1  0  0  0  0
 61 68  1  0  0  0  0
 62 68  1  0  0  0  0
 63 78  1  0  0  0  0
 64 85  1  0  0  0  0
 65 86  1  0  0  0  0
 66 68  1  0  0  0  0
 66 77  1  0  0  0  0
 67 78  1  0  0  0  0
 69 70  1  0  0  0  0
M  CHG  1  78   1
M  ISO  4  38 100  65 101  73 100  86 101
M  END
> <Batch ID>
0137

> <Smiles>
CNC(C)C(=O)NC(C(=O)N1Cc2cc([101O:1][101CH2:1]c3cc(OC)cc(C4CC[100N:0]([100C:0](=O)N5CCCC(n6nc(-c7ccc(Oc8ccc(F)cc8F)cc7)c(C(N)=O)c6N)C5)CC4)c3C3CC3)ccc2CC1C(=O)NC1CCCc2ccccc21)C(C)(C)C

> <Shape>
0.306

> <Color>
0.127

> <Negative vol penalty>
0.000

$$$$

  -OEChem-04052321053D

 83 91  0     1  0  0  0  0  0999 V2000
  -32.2712  -30.6684   14.2406 C   0  0  0  0  0  0  0  0  0  0  0  0
  -33.2039  -29.9435   14.9754 C   0  0  0  0  0  0  0  0  0  0  0  0
  -23.0069   -9.8861   19.9591 C   0  0  0  0  0  0  0  0  0  0  0  0
  -23.7449   -9.8873   22.2597 C   0  0  0  0  0  0  0  0  0  0  0  0
  -30.9232  -30.6283   14.5943 C   0  0  0  0  0  0  0  0  0  0  0  0
  -32.7892  -29.1789   16.0653 C   0  0  0  0  0  0  0  0  0  0  0  0
  -34.3563  -23.1224   19.5553 C   0  0  0  0  0  0  0  0  0  0  0  0
  -32.6663  -17.3713   23.5442 C   0  0  0  0  0  0  0  0  0  0  0  0
  -32.0741  -16.4925   22.6373 C   0  0  0  0  0  0  0  0  0  0  0  0
  -22.2426   -8.7456   20.2048 C   0  0  0  0  0  0  0  0  0  0  0  0
  -22.9805   -8.7467   22.5054 C   0  0  0  0  0  0  0  0  0  0  0  0
  -34.6269  -22.6603   20.8425 C   0  0  0  0  0  0  0  0  0  0  0  0
  -23.2241   -5.4191   21.9593 C   0  0  0  0  0  0  0  0  0  0  0  0
  -23.8165   -4.3861   22.6858 C   0  0  0  0  0  0  0  0  0  0  0  0
  -32.2615  -22.6034   21.3128 C   0  0  0  0  0  0  0  0  0  0  0  0
  -29.8978  -17.3774   23.2010 C   0  0  0  0  0  0  0  0  0  0  0  0
  -22.1018   -4.5911   24.3754 C   0  0  0  0  0  0  0  0  0  0  0  0
  -23.7582  -10.4570   20.9865 C   0  0  0  0  0  0  0  0  0  0  0  0
  -24.1410  -12.9761   20.8634 C   0  0  0  0  0  0  0  0  0  0  0  0
  -30.4905  -29.8551   15.6832 C   0  0  0  0  0  0  0  0  0  0  0  0
  -33.0345  -23.3393   19.1401 C   0  0  0  0  0  0  0  0  0  0  0  0
  -31.4343  -29.1294   16.4348 C   0  0  0  0  0  0  0  0  0  0  0  0
  -31.9767  -23.0660   20.0190 C   0  0  0  0  0  0  0  0  0  0  0  0
  -31.8743  -18.2532   24.2796 C   0  0  0  0  0  0  0  0  0  0  0  0
  -30.4900  -18.2562   24.1080 C   0  0  0  0  0  0  0  0  0  0  0  0
  -30.6898  -16.4955   22.4657 C   0  0  0  0  0  0  0  0  0  0  0  0
  -22.2293   -8.1759   21.4780 C   0  0  0  0  0  0  0  0  0  0  0  0
  -33.5796  -22.4034   21.7225 C   0  0  0  0  0  0  0  0  0  0  0  0
  -22.0707   -6.0382   22.4410 C   0  0  0  0  0  0  0  0  0  0  0  0
  -23.2553   -3.9721   23.8938 C   0  0  0  0  0  0  0  0  0  0  0  0
  -21.5095   -5.6242   23.6490 C   0  0  0  0  0  0  0  0  0  0  0  0
  -24.5484  -11.6349   20.7332 C   0  0  0  0  0  0  0  0  0  0  0  0
  -25.2483  -13.7073   20.5087 C   0  0  0  0  0  0  0  0  0  0  0  0
  -22.8749  -13.5130   21.2688 C   0  0  0  0  0  0  0  0  0  0  0  0
  -31.3724  -25.8724   18.1787 C   0  0  0  0  0  0  0  0  0  0  0  0
  -29.0745  -23.6575   17.5992 C   0  0  0  0  0  0  0  0  0  0  0  0
  -27.7765  -20.5790   18.2954 C   0  0  0  0  0  0  0  0  0  0  0  0
  -30.7284  -14.6670   20.7333 C   0  0  0  0  0  0  0  0  0  0  0  0
  -29.0294  -29.8804   16.0564 C   0  0  0  0  0  0  0  0  0  0  0  0
  -32.7582  -23.8127   17.7394 C   0  0  0  0  0  0  0  0  0  0  0  0
  -30.5392  -23.2631   19.6152 C   0  0  0  0  0  0  0  0  0  0  0  0
  -28.6210  -28.7486   16.9958 C   0  0  0  0  0  0  0  0  0  0  0  0
  -29.5987  -12.2647   18.3606 C   0  0  0  0  0  0  0  0  0  0  0  0
  -29.6232  -28.6148   18.1379 C   0  0  0  0  0  0  0  0  0  0  0  0
  -28.1506  -11.9970   18.7770 C   0  0  0  0  0  0  0  0  0  0  0  0
  -30.5058  -12.4822   19.5704 C   0  0  0  0  0  0  0  0  0  0  0  0
  -28.5974  -13.2404   20.9314 C   0  0  0  0  0  0  0  0  0  0  0  0
  -31.0201  -28.2686   17.6085 C   0  0  1  0  0  0  0  0  0  0  0  0
  -31.3981  -24.4884   17.5945 C   0  0  1  0  0  0  0  0  0  0  0  0
  -27.6332  -13.0794   19.7447 C   0  0  2  0  0  0  0  0  0  0  0  0
  -29.6223  -19.1929   24.8828 C   0  0  0  0  0  0  0  0  0  0  0  0
  -25.8712  -19.0618   17.6908 C   0  0  0  0  0  0  0  0  0  0  0  0
  -27.1900  -25.3499   19.3004 C   0  0  0  0  0  0  0  0  0  0  0  0
  -25.6606  -23.3732   19.4483 C   0  0  0  0  0  0  0  0  0  0  0  0
  -26.1573  -24.4005   17.2300 C   0  0  0  0  0  0  0  0  0  0  0  0
  -29.6103  -18.4890   17.2815 C   0  0  0  0  0  0  0  0  0  0  0  0
  -33.5310  -20.1666   24.5768 C   0  0  0  0  0  0  0  0  0  0  0  0
  -32.8584  -21.1147   23.5866 C   0  0  0  0  0  0  0  0  0  1  0  0
  -33.2544  -18.4232   26.3833 C   0  0  0  0  0  0  0  0  0  0  0  0
  -32.5437  -19.2022   25.2638 C   0  0  2  0  0  0  0  0  0  0  0  0
  -27.9473  -23.0517   18.4000 C   0  0  1  0  0  0  0  0  0  0  0  0
  -27.3092  -19.4544   17.3891 C   0  0  2  0  0  0  0  0  0  0  0  0
  -26.7659  -24.0419   18.6033 C   0  0  0  0  0  0  0  0  0  0  0  0
  -25.8155  -11.5180   20.3273 N   0  0  0  0  0  0  0  0  0  0  0  0
  -26.2139  -12.7951   20.1994 N   0  0  0  0  0  0  0  0  0  0  0  0
  -30.3206  -23.7335   18.2374 N   0  0  0  0  0  0  0  0  0  0  0  0
  -29.9548  -13.5241   20.4397 N   0  0  0  0  0  0  0  0  0  0  0  0
  -25.4804  -15.0351   20.4344 N   0  0  0  0  0  0  0  0  0  0  0  0
  -21.8455  -12.6209   21.5986 N   0  0  0  0  0  0  0  0  0  0  0  0
  -30.0879  -15.6043   21.5431 N   0  0  0  0  0  0  0  0  0  0  0  0
  -31.0949  -26.8661   17.2594 N   0  0  0  0  0  0  0  0  0  0  0  0
  -27.5802  -21.8155   17.7177 N   0  0  0  0  0  0  0  0  0  0  0  0
  -28.1719  -18.2525   17.5681 N   0  3  0  0  0  0  0  0  0  0  0  0
  -22.6575  -14.7474   21.3207 O   0  0  0  0  0  0  0  0  0  0  0  0
  -31.5869  -26.0273   19.3752 O   0  0  0  0  0  0  0  0  0  0  0  0
  -28.8591  -24.0423   16.4471 O   0  0  0  0  0  0  0  0  0  0  0  0
  -28.2632  -20.3806   19.4064 O   0  0  0  0  0  0  0  0  0  0  0  0
  -31.8644  -14.8166   20.2761 O   0  0  0  0  0  0  0  0  0  0  0  0
  -32.3013  -17.6608   27.1158 O   0  0  0  0  0  0  0  0  0  0  0  0
  -21.4834   -7.0630   21.7182 O   0  0  0  0  0  0  0  0  0  0  0  0
  -33.8409  -21.9529   22.9797 O   0  0  0  0  0  0  0  0  0  1  0  0
  -23.8233   -2.9791   24.5905 F   0  0  0  0  0  0  0  0  0  0  0  0
  -20.4008   -6.2143   24.1162 F   0  0  0  0  0  0  0  0  0  0  0  0
  1  2  1  0  0  0  0
  1  5  2  0  0  0  0
  2  6  2  0  0  0  0
  3 10  2  0  0  0  0
  3 18  1  0  0  0  0
  4 11  1  0  0  0  0
  4 18  2  0  0  0  0
  5 20  1  0  0  0  0
  6 22  1  0  0  0  0
  7 12  2  0  0  0  0
  7 21  1  0  0  0  0
  8  9  2  0  0  0  0
  8 24  1  0  0  0  0
  9 26  1  0  0  0  0
 10 27  1  0  0  0  0
 11 27  2  0  0  0  0
 12 28  1  0  0  0  0
 13 14  2  0  0  0  0
 13 29  1  0  0  0  0
 14 30  1  0  0  0  0
 15 23  1  0  0  0  0
 15 28  2  0  0  0  0
 16 25  1  0  0  0  0
 16 26  2  0  0  0  0
 17 30  2  0  0  0  0
 17 31  1  0  0  0  0
 18 32  1  0  0  0  0
 19 32  1  0  0  0  0
 19 33  2  0  0  0  0
 19 34  1  0  0  0  0
 20 22  2  0  0  0  0
 20 39  1  0  0  0  0
 21 23  2  0  0  0  0
 21 40  1  0  0  0  0
 22 48  1  0  0  0  0
 23 41  1  0  0  0  0
 24 25  2  0  0  0  0
 24 60  1  0  0  0  0
 25 51  1  0  0  0  0
 26 70  1  0  0  0  0
 27 80  1  0  0  0  0
 28 81  1  0  0  0  0
 29 31  2  0  0  0  0
 29 80  1  0  0  0  0
 30 82  1  0  0  0  0
 31 83  1  0  0  0  0
 32 64  2  0  0  0  0
 33 65  1  0  0  0  0
 33 68  1  0  0  0  0
 34 69  1  0  0  0  0
 34 74  2  0  0  0  0
 35 49  1  0  0  0  0
 35 71  1  0  0  0  0
 35 75  2  0  0  0  0
 36 61  1  0  0  0  0
 36 66  1  0  0  0  0
 36 76  2  0  0  0  0
 37 62  1  0  0  0  0
 37 72  1  0  0  0  0
 37 77  2  0  0  0  0
 38 67  1  0  0  0  0
 38 70  1  0  0  0  0
 38 78  2  0  0  0  0
 39 42  1  0  0  0  0
 40 49  1  0  0  0  0
 41 66  1  0  0  0  0
 42 44  1  0  0  0  0
 43 45  1  0  0  0  0
 43 46  1  0  0  0  0
 44 48  1  0  0  0  0
 45 50  1  0  0  0  0
 46 67  1  0  0  0  0
 47 50  1  0  0  0  0
 47 67  1  0  0  0  0
 48 71  1  0  0  0  0
 49 66  1  0  0  0  0
 50 65  1  0  0  0  0
 52 62  1  0  0  0  0
 53 63  1  0  0  0  0
 54 63  1  0  0  0  0
 55 63  1  0  0  0  0
 56 73  1  0  0  0  0
 57 58  1  0  0  0  0
 57 60  1  0  0  0  0
 58 81  1  0  0  0  0
 59 60  1  0  0  0  0
 59 79  1  0  0  0  0
 61 63  1  0  0  0  0
 61 72  1  0  0  0  0
 62 73  1  0  0  0  0
 64 65  1  0  0  0  0
M  CHG  1  73   1
M  ISO  4  38 100  58 101  70 100  81 101
M  END
> <Batch ID>
0137

> <Smiles>
CNC(C)C(=O)NC(C(=O)N1Cc2cc([101O:1][101CH2:1]CC(CO)c3ccc([100NH:0][100C:0](=O)N4CCCC(n5nc(-c6ccc(Oc7ccc(F)cc7F)cc6)c(C(N)=O)c5N)C4)cc3C)ccc2CC1C(=O)NC1CCCc2ccccc21)C(C)(C)C

> <Shape>
0.243

> <Color>
0.211

> <Negative vol penalty>
0.000

$$$$

  -OEChem-04052321053D

 86 95  0     1  0  0  0  0  0999 V2000
  -27.8351  -10.1814   19.6119 C   0  0  0  0  0  0  0  0  0  0  0  0
  -28.4064  -11.3681   19.1638 C   0  0  0  0  0  0  0  0  0  0  0  0
  -23.9252  -29.4167   23.0817 C   0  0  0  0  0  0  0  0  0  0  0  0
  -22.6352  -29.3493   21.0400 C   0  0  0  0  0  0  0  0  0  0  0  0
  -26.5852  -10.2004   20.2295 C   0  0  0  0  0  0  0  0  0  0  0  0
  -27.7276  -12.5745   19.3322 C   0  0  0  0  0  0  0  0  0  0  0  0
  -30.1990  -18.0627   20.4623 C   0  0  0  0  0  0  0  0  0  0  0  0
  -28.8609  -23.4426   16.3922 C   0  0  0  0  0  0  0  0  0  0  0  0
  -29.3164  -24.4177   15.5048 C   0  0  0  0  0  0  0  0  0  0  0  0
  -22.8226  -29.9342   23.7613 C   0  0  0  0  0  0  0  0  0  0  0  0
  -21.5325  -29.8667   21.7197 C   0  0  0  0  0  0  0  0  0  0  0  0
  -30.5025  -19.1431   19.6350 C   0  0  0  0  0  0  0  0  0  0  0  0
  -18.2683  -30.8318   22.9972 C   0  0  0  0  0  0  0  0  0  0  0  0
  -17.0269  -30.2387   22.7672 C   0  0  0  0  0  0  0  0  0  0  0  0
  -28.3999  -20.1721   20.2174 C   0  0  0  0  0  0  0  0  0  0  0  0
  -30.4287  -24.2243   18.0559 C   0  0  0  0  0  0  0  0  0  0  0  0
  -17.8856  -28.1290   23.5727 C   0  0  0  0  0  0  0  0  0  0  0  0
  -23.8316  -29.1243   21.7210 C   0  0  0  0  0  0  0  0  0  0  0  0
  -25.3063  -27.2336   20.8505 C   0  0  0  0  0  0  0  0  0  0  0  0
  -25.8951  -11.4088   20.4142 C   0  0  0  0  0  0  0  0  0  0  0  0
  -28.9867  -18.0237   21.1661 C   0  0  0  0  0  0  0  0  0  0  0  0
  -26.4667  -12.6095   19.9516 C   0  0  0  0  0  0  0  0  0  0  0  0
  -28.0845  -19.0913   21.0550 C   0  0  0  0  0  0  0  0  0  0  0  0
  -29.4170  -23.3459   17.6678 C   0  0  0  0  0  0  0  0  0  0  0  0
  -30.3280  -25.2960   15.8930 C   0  0  0  0  0  0  0  0  0  0  0  0
  -30.8842  -25.1994   17.1686 C   0  0  0  0  0  0  0  0  0  0  0  0
  -21.6262  -30.1592   23.0804 C   0  0  0  0  0  0  0  0  0  0  0  0
  -29.6017  -20.1966   19.5102 C   0  0  0  0  0  0  0  0  0  0  0  0
  -19.3183  -30.0734   23.5149 C   0  0  0  0  0  0  0  0  0  0  0  0
  -16.8356  -28.8874   23.0549 C   0  0  0  0  0  0  0  0  0  0  0  0
  -19.1270  -28.7220   23.8026 C   0  0  0  0  0  0  0  0  0  0  0  0
  -24.9704  -28.5903   21.0182 C   0  0  0  0  0  0  0  0  0  0  0  0
  -26.4665  -27.2553   20.1157 C   0  0  0  0  0  0  0  0  0  0  0  0
  -24.6300  -26.0586   21.3172 C   0  0  0  0  0  0  0  0  0  0  0  0
  -26.4596  -16.0958   21.1759 C   0  0  0  0  0  0  0  0  0  0  0  0
  -25.5437  -17.9490   23.6757 C   0  0  0  0  0  0  0  0  0  0  0  0
  -25.7594  -20.9472   25.2915 C   0  0  0  0  0  0  0  0  0  0  0  0
  -29.5045  -29.2370   15.8744 C   0  0  0  0  0  0  0  0  0  0  0  0
  -24.5255  -11.3735   21.0447 C   0  0  0  0  0  0  0  0  0  0  0  0
  -28.6860  -16.8638   22.0753 C   0  0  0  0  0  0  0  0  0  0  0  0
  -26.7785  -19.1072   21.8051 C   0  0  0  0  0  0  0  0  0  0  0  0
  -24.0390  -12.7397   21.5214 C   0  0  0  0  0  0  0  0  0  0  0  0
  -29.5286  -31.0968   18.9104 C   0  0  0  0  0  0  0  0  0  0  0  0
  -33.0057  -27.9179   18.5172 C   0  0  0  0  0  0  0  0  0  0  0  0
  -24.2775  -13.7959   20.4470 C   0  0  0  0  0  0  0  0  0  0  0  0
  -28.3692  -30.5030   19.7123 C   0  0  0  0  0  0  0  0  0  0  0  0
  -33.8662  -27.3257   17.4135 C   0  0  0  0  0  0  0  0  0  0  0  0
  -31.6228  -27.3408   18.2291 C   0  0  0  0  0  0  0  0  0  0  0  0
  -29.2120  -31.1527   17.4175 C   0  0  0  0  0  0  0  0  0  0  0  0
  -27.6284  -29.2761   17.6280 C   0  0  0  0  0  0  0  0  0  0  0  0
  -25.7725  -13.9412   20.1383 C   0  0  1  0  0  0  0  0  0  0  0  0
  -27.1950  -16.6870   22.3452 C   0  0  1  0  0  0  0  0  0  0  0  0
  -27.9225  -29.1475   19.1324 C   0  0  2  0  0  0  0  0  0  0  0  0
  -33.3135  -25.9020   17.2509 C   0  0  1  0  0  0  0  0  0  0  0  0
  -33.9813  -24.9268   18.2193 C   0  0  0  0  0  0  0  0  0  0  0  0
  -24.8656  -22.1782   27.2873 C   0  0  0  0  0  0  0  0  0  0  0  0
  -22.9048  -18.4007   22.2122 C   0  0  0  0  0  0  0  0  0  0  0  0
  -22.4676  -20.3338   23.7420 C   0  0  0  0  0  0  0  0  0  0  0  0
  -22.6815  -18.0304   24.6754 C   0  0  0  0  0  0  0  0  0  0  0  0
  -28.4596  -21.2352   26.4685 C   0  0  0  0  0  0  0  0  0  0  0  0
  -30.7979  -26.3296   14.9216 C   0  0  0  0  0  0  0  0  0  0  0  0
  -28.9267  -22.2969   18.6219 C   0  0  0  0  0  0  0  0  0  1  0  0
  -29.6780  -27.2413   14.4094 C   0  0  0  0  0  0  0  0  0  0  0  0
  -24.7445  -19.2207   23.8274 C   0  0  1  0  0  0  0  0  0  0  0  0
  -25.9788  -21.2898   26.7540 C   0  0  2  0  0  0  0  0  0  0  0  0
  -23.2233  -18.9955   23.5984 C   0  0  0  0  0  0  0  0  0  0  0  0
  -25.8465  -29.4141   20.4368 N   0  0  0  0  0  0  0  0  0  0  0  0
  -26.7444  -28.5725   19.8967 N   0  0  0  0  0  0  0  0  0  0  0  0
  -31.8883  -26.0602   17.5692 N   0  0  3  0  0  0  0  0  0  0  0  0
  -26.5272  -17.9474   22.6764 N   0  0  0  0  0  0  0  0  0  0  0  0
  -28.7965  -29.8353   16.9298 N   0  0  0  0  0  0  0  0  0  0  0  0
  -27.2659  -26.2760   19.6420 N   0  0  0  0  0  0  0  0  0  0  0  0
  -23.4507  -26.2164   22.0580 N   0  0  0  0  0  0  0  0  0  0  0  0
  -26.4289  -14.7143   21.1707 N   0  0  0  0  0  0  0  0  0  0  0  0
  -25.0779  -19.7579   25.1422 N   0  0  0  0  0  0  0  0  0  0  0  0
  -29.0490  -27.9857   15.4775 N   0  0  0  0  0  0  0  0  0  0  0  0
  -27.2750  -22.0038   26.9300 N   0  3  0  0  0  0  0  0  0  0  0  0
  -25.0675  -24.9036   21.0982 O   0  0  0  0  0  0  0  0  0  0  0  0
  -25.9559  -16.8380   20.3409 O   0  0  0  0  0  0  0  0  0  0  0  0
  -25.3089  -16.9947   24.4212 O   0  0  0  0  0  0  0  0  0  0  0  0
  -26.1501  -21.6649   24.3734 O   0  0  0  0  0  0  0  0  0  0  0  0
  -30.4743  -29.7756   15.3299 O   0  0  0  0  0  0  0  0  0  0  0  0
  -20.5499  -30.6638   23.7434 O   0  0  0  0  0  0  0  0  0  0  0  0
  -29.8952  -21.2520   18.7028 O   0  0  0  0  0  0  0  0  0  1  0  0
  -15.6430  -28.3184   22.8355 F   0  0  0  0  0  0  0  0  0  0  0  0
  -20.1317  -27.9887   24.3012 F   0  0  0  0  0  0  0  0  0  0  0  0
  1  2  1  0  0  0  0
  1  5  2  0  0  0  0
  2  6  2  0  0  0  0
  3 10  2  0  0  0  0
  3 18  1  0  0  0  0
  4 11  1  0  0  0  0
  4 18  2  0  0  0  0
  5 20  1  0  0  0  0
  6 22  1  0  0  0  0
  7 12  2  0  0  0  0
  7 21  1  0  0  0  0
  8  9  2  0  0  0  0
  8 24  1  0  0  0  0
  9 25  1  0  0  0  0
 10 27  1  0  0  0  0
 11 27  2  0  0  0  0
 12 28  1  0  0  0  0
 13 14  2  0  0  0  0
 13 29  1  0  0  0  0
 14 30  1  0  0  0  0
 15 23  1  0  0  0  0
 15 28  2  0  0  0  0
 16 24  2  0  0  0  0
 16 26  1  0  0  0  0
 17 30  2  0  0  0  0
 17 31  1  0  0  0  0
 18 32  1  0  0  0  0
 19 32  1  0  0  0  0
 19 33  2  0  0  0  0
 19 34  1  0  0  0  0
 20 22  2  0  0  0  0
 20 39  1  0  0  0  0
 21 23  2  0  0  0  0
 21 40  1  0  0  0  0
 22 51  1  0  0  0  0
 23 41  1  0  0  0  0
 24 62  1  0  0  0  0
 25 26  2  0  0  0  0
 25 61  1  0  0  0  0
 26 69  1  0  0  0  0
 27 83  1  0  0  0  0
 28 84  1  0  0  0  0
 29 31  2  0  0  0  0
 29 83  1  0  0  0  0
 30 85  1  0  0  0  0
 31 86  1  0  0  0  0
 32 67  2  0  0  0  0
 33 68  1  0  0  0  0
 33 72  1  0  0  0  0
 34 73  1  0  0  0  0
 34 78  2  0  0  0  0
 35 52  1  0  0  0  0
 35 74  1  0  0  0  0
 35 79  2  0  0  0  0
 36 64  1  0  0  0  0
 36 70  1  0  0  0  0
 36 80  2  0  0  0  0
 37 65  1  0  0  0  0
 37 75  1  0  0  0  0
 37 81  2  0  0  0  0
 38 71  1  0  0  0  0
 38 76  1  0  0  0  0
 38 82  2  0  0  0  0
 39 42  1  0  0  0  0
 40 52  1  0  0  0  0
 41 70  1  0  0  0  0
 42 45  1  0  0  0  0
 43 46  1  0  0  0  0
 43 49  1  0  0  0  0
 44 47  1  0  0  0  0
 44 48  1  0  0  0  0
 45 51  1  0  0  0  0
 46 53  1  0  0  0  0
 47 54  1  0  0  0  0
 48 69  1  0  0  0  0
 49 71  1  0  0  0  0
 50 53  1  0  0  0  0
 50 71  1  0  0  0  0
 51 74  1  0  0  0  0
 52 70  1  0  0  0  0
 53 68  1  0  0  0  0
 54 55  1  0  0  0  0
 54 69  1  0  0  0  0
 56 65  1  0  0  0  0
 57 66  1  0  0  0  0
 58 66  1  0  0  0  0
 59 66  1  0  0  0  0
 60 77  1  0  0  0  0
 61 63  1  0  0  0  0
 62 84  1  0  0  0  0
 63 76  1  0  0  0  0
 64 66  1  0  0  0  0
 64 75  1  0  0  0  0
 65 77  1  0  0  0  0
 67 68  1  0  0  0  0
M  CHG  1  77   1
M  ISO  4  38 100  62 101  76 100  84 101
M  END
> <Batch ID>
0137

> <Smiles>
CNC(C)C(=O)NC(C(=O)N1Cc2cc([101O:1][101CH2:1]c3ccc(CC[100NH:0][100C:0](=O)N4CCCC(n5nc(-c6ccc(Oc7ccc(F)cc7F)cc6)c(C(N)=O)c5N)C4)c(N4CCCC4C)c3)ccc2CC1C(=O)NC1CCCc2ccccc21)C(C)(C)C

> <Shape>
0.223

> <Color>
0.063

> <Negative vol penalty>
0.000

$$$$

  -OEChem-04052321053D

 84 92  0     1  0  0  0  0  0999 V2000
  -41.0687  -30.4162   18.8017 C   0  0  0  0  0  0  0  0  0  0  0  0
  -40.9552  -29.1258   19.3089 C   0  0  0  0  0  0  0  0  0  0  0  0
  -23.0040   -9.8861   19.9907 C   0  0  0  0  0  0  0  0  0  0  0  0
  -23.7227   -9.9582   22.2962 C   0  0  0  0  0  0  0  0  0  0  0  0
  -40.0524  -31.3440   19.0258 C   0  0  0  0  0  0  0  0  0  0  0  0
  -39.8257  -28.7627   20.0416 C   0  0  0  0  0  0  0  0  0  0  0  0
  -37.0904  -23.2838   20.1163 C   0  0  0  0  0  0  0  0  0  0  0  0
  -30.4476  -18.3822   23.9482 C   0  0  0  0  0  0  0  0  0  0  0  0
  -29.8631  -17.4785   23.0610 C   0  0  0  0  0  0  0  0  0  0  0  0
  -22.2384   -8.7528   20.2648 C   0  0  0  0  0  0  0  0  0  0  0  0
  -22.9571   -8.8250   22.5703 C   0  0  0  0  0  0  0  0  0  0  0  0
  -37.1629  -22.2113   21.0041 C   0  0  0  0  0  0  0  0  0  0  0  0
  -23.2076   -5.4824   22.1283 C   0  0  0  0  0  0  0  0  0  0  0  0
  -23.7946   -4.4727   22.8908 C   0  0  0  0  0  0  0  0  0  0  0  0
  -35.1826  -23.0127   22.1246 C   0  0  0  0  0  0  0  0  0  0  0  0
  -32.0439  -16.5777   22.5416 C   0  0  0  0  0  0  0  0  0  0  0  0
  -22.0657   -4.7276   24.5591 C   0  0  0  0  0  0  0  0  0  0  0  0
  -23.7462  -10.4888   21.0064 C   0  0  0  0  0  0  0  0  0  0  0  0
  -24.1283  -13.0033   20.8095 C   0  0  0  0  0  0  0  0  0  0  0  0
  -38.9055  -30.9893   19.7534 C   0  0  0  0  0  0  0  0  0  0  0  0
  -36.0680  -24.2365   20.2330 C   0  0  0  0  0  0  0  0  0  0  0  0
  -38.7937  -29.6870   20.2768 C   0  0  0  0  0  0  0  0  0  0  0  0
  -35.0979  -24.0950   21.2355 C   0  0  0  0  0  0  0  0  0  0  0  0
  -31.8304  -18.3838   24.1321 C   0  0  0  0  0  0  0  0  0  0  0  0
  -32.6285  -17.4815   23.4288 C   0  0  0  0  0  0  0  0  0  0  0  0
  -30.6611  -16.5762   22.3577 C   0  0  0  0  0  0  0  0  0  0  0  0
  -22.2149   -8.2223   21.5546 C   0  0  0  0  0  0  0  0  0  0  0  0
  -36.2106  -22.0771   22.0102 C   0  0  0  0  0  0  0  0  0  0  0  0
  -22.0497   -6.1148   22.5811 C   0  0  0  0  0  0  0  0  0  0  0  0
  -23.2236   -4.0953   24.1062 C   0  0  0  0  0  0  0  0  0  0  0  0
  -21.4788   -5.7374   23.7965 C   0  0  0  0  0  0  0  0  0  0  0  0
  -24.5377  -11.6591   20.7237 C   0  0  0  0  0  0  0  0  0  0  0  0
  -25.2380  -13.7243   20.4418 C   0  0  0  0  0  0  0  0  0  0  0  0
  -22.8585  -13.5512   21.1878 C   0  0  0  0  0  0  0  0  0  0  0  0
  -35.9691  -27.3628   20.7987 C   0  0  0  0  0  0  0  0  0  0  0  0
  -32.8042  -26.9759   20.2021 C   0  0  0  0  0  0  0  0  0  0  0  0
  -30.1062  -24.8877   20.1162 C   0  0  0  0  0  0  0  0  0  0  0  0
  -30.7154  -14.6956   20.6824 C   0  0  0  0  0  0  0  0  0  0  0  0
  -37.8548  -32.0404   20.0102 C   0  0  0  0  0  0  0  0  0  0  0  0
  -35.9883  -25.3729   19.2508 C   0  0  0  0  0  0  0  0  0  0  0  0
  -33.9686  -25.0794   21.3908 C   0  0  0  0  0  0  0  0  0  0  0  0
  -36.5198  -31.4658   20.4771 C   0  0  0  0  0  0  0  0  0  0  0  0
  -29.6071  -12.2209   18.3749 C   0  0  0  0  0  0  0  0  0  0  0  0
  -36.7395  -30.4271   21.5724 C   0  0  0  0  0  0  0  0  0  0  0  0
  -28.1558  -11.9647   18.7873 C   0  0  0  0  0  0  0  0  0  0  0  0
  -30.5039  -12.4762   19.5850 C   0  0  0  0  0  0  0  0  0  0  0  0
  -28.5838  -13.2738   20.9063 C   0  0  0  0  0  0  0  0  0  0  0  0
  -37.5725  -29.2480   21.0553 C   0  0  1  0  0  0  0  0  0  0  0  0
  -35.2011  -26.5671   19.7815 C   0  0  1  0  0  0  0  0  0  0  0  0
  -27.6297  -13.0756   19.7172 C   0  0  2  0  0  0  0  0  0  0  0  0
  -31.9453  -19.1480   26.5313 C   0  0  0  0  0  0  0  0  0  0  0  0
  -32.1923  -20.8214   24.6621 C   0  0  0  0  0  0  0  0  0  0  0  0
  -27.6452  -24.8681   19.6260 C   0  0  0  0  0  0  0  0  0  0  0  0
  -32.2614  -28.3231   22.8855 C   0  0  0  0  0  0  0  0  0  0  0  0
  -29.9232  -27.4343   22.7799 C   0  0  0  0  0  0  0  0  0  0  0  0
  -30.7306  -29.0257   21.0368 C   0  0  0  0  0  0  0  0  0  0  0  0
  -30.4427  -22.9404   17.9130 C   0  0  0  0  0  0  0  0  0  0  0  0
  -34.1174  -17.4634   23.6119 C   0  0  0  0  0  0  0  0  0  0  0  0
  -36.2704  -18.6422   23.1495 C   0  0  0  0  0  0  0  0  0  0  0  0
  -36.8517  -19.8188   22.3906 C   0  0  0  0  0  0  0  0  0  1  0  0
  -32.4334  -19.3612   25.0867 C   0  0  0  0  0  0  0  0  0  0  0  0
  -31.5908  -26.6483   21.0385 C   0  0  1  0  0  0  0  0  0  0  0  0
  -29.0410  -24.6613   19.0587 C   0  0  2  0  0  0  0  0  0  0  0  0
  -31.1488  -27.8402   21.9337 C   0  0  0  0  0  0  0  0  0  0  0  0
  -25.8082  -11.5311   20.3321 N   0  0  0  0  0  0  0  0  0  0  0  0
  -26.2068  -12.8040   20.1685 N   0  0  0  0  0  0  0  0  0  0  0  0
  -33.9374  -26.1769   20.4100 N   0  0  0  0  0  0  0  0  0  0  0  0
  -29.9450  -13.5436   20.4175 N   0  0  0  0  0  0  0  0  0  0  0  0
  -25.4698  -15.0494   20.3288 N   0  0  0  0  0  0  0  0  0  0  0  0
  -21.8270  -12.6685   21.5362 N   0  0  0  0  0  0  0  0  0  0  0  0
  -30.0676  -15.6567   21.4578 N   0  0  0  0  0  0  0  0  0  0  0  0
  -36.7533  -28.3626   20.2557 N   0  0  0  0  0  0  0  0  0  0  0  0
  -30.5659  -26.1876   20.1080 N   0  0  0  0  0  0  0  0  0  0  0  0
  -29.1296  -23.2735   18.5229 N   0  3  0  0  0  0  0  0  0  0  0  0
  -34.8017  -18.5990   22.9367 N   0  3  0  0  0  0  0  0  0  0  0  0
  -22.6399  -14.7863   21.2001 O   0  0  0  0  0  0  0  0  0  0  0  0
  -35.8572  -27.0908   21.9883 O   0  0  0  0  0  0  0  0  0  0  0  0
  -32.7462  -27.9018   19.3891 O   0  0  0  0  0  0  0  0  0  0  0  0
  -30.4893  -24.0010   20.8762 O   0  0  0  0  0  0  0  0  0  0  0  0
  -31.8551  -14.8323   20.2303 O   0  0  0  0  0  0  0  0  0  0  0  0
  -21.4678   -7.1166   21.8225 O   0  0  0  0  0  0  0  0  0  0  0  0
  -36.2794  -21.0316   22.8784 O   0  0  0  0  0  0  0  0  0  1  0  0
  -23.7865   -3.1245   24.8377 F   0  0  0  0  0  0  0  0  0  0  0  0
  -20.3658   -6.3405   24.2363 F   0  0  0  0  0  0  0  0  0  0  0  0
  1  2  1  0  0  0  0
  1  5  2  0  0  0  0
  2  6  2  0  0  0  0
  3 10  2  0  0  0  0
  3 18  1  0  0  0  0
  4 11  1  0  0  0  0
  4 18  2  0  0  0  0
  5 20  1  0  0  0  0
  6 22  1  0  0  0  0
  7 12  2  0  0  0  0
  7 21  1  0  0  0  0
  8  9  2  0  0  0  0
  8 24  1  0  0  0  0
  9 26  1  0  0  0  0
 10 27  1  0  0  0  0
 11 27  2  0  0  0  0
 12 28  1  0  0  0  0
 13 14  2  0  0  0  0
 13 29  1  0  0  0  0
 14 30  1  0  0  0  0
 15 23  1  0  0  0  0
 15 28  2  0  0  0  0
 16 25  1  0  0  0  0
 16 26  2  0  0  0  0
 17 30  2  0  0  0  0
 17 31  1  0  0  0  0
 18 32  1  0  0  0  0
 19 32  1  0  0  0  0
 19 33  2  0  0  0  0
 19 34  1  0  0  0  0
 20 22  2  0  0  0  0
 20 39  1  0  0  0  0
 21 23  2  0  0  0  0
 21 40  1  0  0  0  0
 22 48  1  0  0  0  0
 23 41  1  0  0  0  0
 24 25  2  0  0  0  0
 24 61  1  0  0  0  0
 25 58  1  0  0  0  0
 26 71  1  0  0  0  0
 27 81  1  0  0  0  0
 28 82  1  0  0  0  0
 29 31  2  0  0  0  0
 29 81  1  0  0  0  0
 30 83  1  0  0  0  0
 31 84  1  0  0  0  0
 32 65  2  0  0  0  0
 33 66  1  0  0  0  0
 33 69  1  0  0  0  0
 34 70  1  0  0  0  0
 34 76  2  0  0  0  0
 35 49  1  0  0  0  0
 35 72  1  0  0  0  0
 35 77  2  0  0  0  0
 36 62  1  0  0  0  0
 36 67  1  0  0  0  0
 36 78  2  0  0  0  0
 37 63  1  0  0  0  0
 37 73  1  0  0  0  0
 37 79  2  0  0  0  0
 38 68  1  0  0  0  0
 38 71  1  0  0  0  0
 38 80  2  0  0  0  0
 39 42  1  0  0  0  0
 40 49  1  0  0  0  0
 41 67  1  0  0  0  0
 42 44  1  0  0  0  0
 43 45  1  0  0  0  0
 43 46  1  0  0  0  0
 44 48  1  0  0  0  0
 45 50  1  0  0  0  0
 46 68  1  0  0  0  0
 47 50  1  0  0  0  0
 47 68  1  0  0  0  0
 48 72  1  0  0  0  0
 49 67  1  0  0  0  0
 50 66  1  0  0  0  0
 51 61  1  0  0  0  0
 52 61  1  0  0  0  0
 53 63  1  0  0  0  0
 54 64  1  0  0  0  0
 55 64  1  0  0  0  0
 56 64  1  0  0  0  0
 57 74  1  0  0  0  0
 58 75  1  0  0  0  0
 59 60  1  0  0  0  0
 59 75  1  0  0  0  0
 60 82  1  0  0  0  0
 62 64  1  0  0  0  0
 62 73  1  0  0  0  0
 63 74  1  0  0  0  0
 65 66  1  0  0  0  0
M  CHG  2  74   1  75   1
M  ISO  4  38 100  60 101  71 100  82 101
M  END
> <Batch ID>
0137

> <Smiles>
CNC(C)C(=O)NC(C(=O)N1Cc2cc([101O:1][101CH2:1]CNCc3cc([100NH:0][100C:0](=O)N4CCCC(n5nc(-c6ccc(Oc7ccc(F)cc7F)cc6)c(C(N)=O)c5N)C4)ccc3C(C)C)ccc2CC1C(=O)NC1CCCc2ccccc21)C(C)(C)C

> <Shape>
0.222

> <Color>
0.194

> <Negative vol penalty>
0.000

$$$$

  -OEChem-04052321053D

 81 89  0     1  0  0  0  0  0999 V2000
  -16.8520  -30.5209   23.3571 C   0  0  0  0  0  0  0  0  0  0  0  0
  -17.9154  -30.8094   24.2064 C   0  0  0  0  0  0  0  0  0  0  0  0
  -26.4025  -18.5754   19.7017 C   0  0  0  0  0  0  0  0  0  0  0  0
  -27.9782  -17.9200   21.4118 C   0  0  0  0  0  0  0  0  0  0  0  0
  -16.9418  -29.4506   22.4682 C   0  0  0  0  0  0  0  0  0  0  0  0
  -19.0690  -30.0269   24.1681 C   0  0  0  0  0  0  0  0  0  0  0  0
  -26.1645  -30.4957   25.0342 C   0  0  0  0  0  0  0  0  0  0  0  0
  -25.9105  -17.2711   19.6551 C   0  0  0  0  0  0  0  0  0  0  0  0
  -27.4862  -16.6156   21.3652 C   0  0  0  0  0  0  0  0  0  0  0  0
  -27.2054  -29.8944   25.7405 C   0  0  0  0  0  0  0  0  0  0  0  0
  -26.8904  -13.0311   21.4414 C   0  0  0  0  0  0  0  0  0  0  0  0
  -27.8171  -11.9888   21.4237 C   0  0  0  0  0  0  0  0  0  0  0  0
  -34.4241  -28.0771   23.5063 C   0  0  0  0  0  0  0  0  0  0  0  0
  -27.2793  -28.1194   24.1086 C   0  0  0  0  0  0  0  0  0  0  0  0
  -32.9511  -26.1858   23.3121 C   0  0  0  0  0  0  0  0  0  0  0  0
  -28.7485  -12.8519   19.3682 C   0  0  0  0  0  0  0  0  0  0  0  0
  -34.8649  -27.7972   22.2229 C   0  0  0  0  0  0  0  0  0  0  0  0
  -27.4364  -18.8999   20.5800 C   0  0  0  0  0  0  0  0  0  0  0  0
  -27.4929  -21.2979   21.4482 C   0  0  0  0  0  0  0  0  0  0  0  0
  -18.1008  -28.6605   22.4122 C   0  0  0  0  0  0  0  0  0  0  0  0
  -25.6650  -29.9066   23.8638 C   0  0  0  0  0  0  0  0  0  0  0  0
  -19.1738  -28.9441   23.2785 C   0  0  0  0  0  0  0  0  0  0  0  0
  -26.2337  -28.7165   23.3880 C   0  0  0  0  0  0  0  0  0  0  0  0
  -33.4488  -27.2512   24.0540 C   0  0  0  0  0  0  0  0  0  0  0  0
  -26.4523  -16.2912   20.4869 C   0  0  0  0  0  0  0  0  0  0  0  0
  -27.7610  -28.7046   25.2793 C   0  0  0  0  0  0  0  0  0  0  0  0
  -26.8926  -13.9837   20.4224 C   0  0  0  0  0  0  0  0  0  0  0  0
  -28.7462  -11.8992   20.3871 C   0  0  0  0  0  0  0  0  0  0  0  0
  -27.8216  -13.8941   19.3859 C   0  0  0  0  0  0  0  0  0  0  0  0
  -27.9455  -20.2470   20.6282 C   0  0  0  0  0  0  0  0  0  0  0  0
  -33.4577  -25.9907   22.0373 C   0  0  0  0  0  0  0  0  0  0  0  0
  -28.2960  -22.3619   21.1172 C   0  0  0  0  0  0  0  0  0  0  0  0
  -26.4408  -21.3112   22.4221 C   0  0  0  0  0  0  0  0  0  0  0  0
  -22.8497  -28.7338   22.9679 C   0  0  0  0  0  0  0  0  0  0  0  0
  -24.3173  -28.4634   20.0877 C   0  0  0  0  0  0  0  0  0  0  0  0
  -27.2331  -28.1818   18.3369 C   0  0  0  0  0  0  0  0  0  0  0  0
  -33.3047  -24.5209   19.9970 C   0  0  0  0  0  0  0  0  0  0  0  0
  -18.1330  -27.4849   21.4679 C   0  0  0  0  0  0  0  0  0  0  0  0
  -24.5598  -30.5817   23.0989 C   0  0  0  0  0  0  0  0  0  0  0  0
  -25.7472  -28.0543   22.1257 C   0  0  0  0  0  0  0  0  0  0  0  0
  -19.5366  -26.9351   21.2274 C   0  0  0  0  0  0  0  0  0  0  0  0
  -31.5763  -22.9532   17.3078 C   0  0  0  0  0  0  0  0  0  0  0  0
  -20.2828  -26.7800   22.5487 C   0  0  0  0  0  0  0  0  0  0  0  0
  -30.4404  -22.1959   17.9993 C   0  0  0  0  0  0  0  0  0  0  0  0
  -32.8587  -22.9337   18.1377 C   0  0  0  0  0  0  0  0  0  0  0  0
  -31.5714  -22.6333   20.2167 C   0  0  0  0  0  0  0  0  0  0  0  0
  -20.4515  -28.1337   23.2492 C   0  0  1  0  0  0  0  0  0  0  0  0
  -23.7845  -29.6243   22.1991 C   0  0  1  0  0  0  0  0  0  0  0  0
  -30.2403  -22.6805   19.4487 C   0  0  2  0  0  0  0  0  0  0  0  0
  -28.1113  -27.9410   15.9985 C   0  0  0  0  0  0  0  0  0  0  0  0
  -23.4881  -25.5270   20.0813 C   0  0  0  0  0  0  0  0  0  0  0  0
  -25.1588  -25.1313   18.2592 C   0  0  0  0  0  0  0  0  0  0  0  0
  -23.2445  -26.6846   17.8779 C   0  0  0  0  0  0  0  0  0  0  0  0
  -28.7335  -30.7266   18.5143 C   0  0  0  0  0  0  0  0  0  0  0  0
  -32.9358  -27.5092   25.4402 C   0  0  0  0  0  0  0  0  0  0  0  0
  -31.0172  -28.3277   26.8141 C   0  0  0  0  0  0  0  0  0  0  0  0
  -29.6513  -28.9748   26.6970 C   0  0  0  0  0  0  0  0  0  1  0  0
  -25.1338  -27.3961   19.3999 C   0  0  1  0  0  0  0  0  0  0  0  0
  -27.7456  -28.9131   17.1093 C   0  0  2  0  0  0  0  0  0  0  0  0
  -24.2644  -26.1960   18.9294 C   0  0  0  0  0  0  0  0  0  0  0  0
  -34.4053  -26.7716   21.4716 N   0  0  0  0  0  0  0  0  0  0  0  0
  -28.9574  -20.6104   19.8357 N   0  0  0  0  0  0  0  0  0  0  0  0
  -29.1473  -21.9016   20.1562 N   0  0  0  0  0  0  0  0  0  0  0  0
  -24.6604  -28.7498   21.4167 N   0  0  0  0  0  0  0  0  0  0  0  0
  -32.5933  -23.4097   19.4971 N   0  0  0  0  0  0  0  0  0  0  0  0
  -28.3498  -23.6370   21.5573 N   0  0  0  0  0  0  0  0  0  0  0  0
  -25.7150  -20.1318   22.6378 N   0  0  0  0  0  0  0  0  0  0  0  0
  -32.9443  -24.9025   21.2890 N   0  0  0  0  0  0  0  0  0  0  0  0
  -21.5186  -28.8923   22.6326 N   0  0  0  0  0  0  0  0  0  0  0  0
  -25.8592  -28.0658   18.3258 N   0  0  0  0  0  0  0  0  0  0  0  0
  -28.9555  -29.7135   17.4507 N   0  3  0  0  0  0  0  0  0  0  0  0
  -31.5771  -28.1154   25.4556 N   0  3  0  0  0  0  0  0  0  0  0  0
  -26.1420  -22.3430   23.0699 O   0  0  0  0  0  0  0  0  0  0  0  0
  -23.3028  -27.9592   23.8024 O   0  0  0  0  0  0  0  0  0  0  0  0
  -23.4132  -29.0275   19.4664 O   0  0  0  0  0  0  0  0  0  0  0  0
  -27.9774  -27.7528   19.2158 O   0  0  0  0  0  0  0  0  0  0  0  0
  -34.1506  -25.1088   19.3182 O   0  0  0  0  0  0  0  0  0  0  0  0
  -25.9723  -15.0183   20.4419 O   0  0  0  0  0  0  0  0  0  0  0  0
  -28.7767  -28.1153   25.9671 O   0  0  0  0  0  0  0  0  0  1  0  0
  -29.6372  -10.8991   20.3711 F   0  0  0  0  0  0  0  0  0  0  0  0
  -27.8294  -14.8070   18.4049 F   0  0  0  0  0  0  0  0  0  0  0  0
  1  2  1  0  0  0  0
  1  5  2  0  0  0  0
  2  6  2  0  0  0  0
  3  8  2  0  0  0  0
  3 18  1  0  0  0  0
  4  9  1  0  0  0  0
  4 18  2  0  0  0  0
  5 20  1  0  0  0  0
  6 22  1  0  0  0  0
  7 10  2  0  0  0  0
  7 21  1  0  0  0  0
  8 25  1  0  0  0  0
  9 25  2  0  0  0  0
 10 26  1  0  0  0  0
 11 12  2  0  0  0  0
 11 27  1  0  0  0  0
 12 28  1  0  0  0  0
 13 17  2  0  0  0  0
 13 24  1  0  0  0  0
 14 23  1  0  0  0  0
 14 26  2  0  0  0  0
 15 24  2  0  0  0  0
 15 31  1  0  0  0  0
 16 28  2  0  0  0  0
 16 29  1  0  0  0  0
 17 61  1  0  0  0  0
 18 30  1  0  0  0  0
 19 30  1  0  0  0  0
 19 32  2  0  0  0  0
 19 33  1  0  0  0  0
 20 22  2  0  0  0  0
 20 38  1  0  0  0  0
 21 23  2  0  0  0  0
 21 39  1  0  0  0  0
 22 47  1  0  0  0  0
 23 40  1  0  0  0  0
 24 55  1  0  0  0  0
 25 78  1  0  0  0  0
 26 79  1  0  0  0  0
 27 29  2  0  0  0  0
 27 78  1  0  0  0  0
 28 80  1  0  0  0  0
 29 81  1  0  0  0  0
 30 62  2  0  0  0  0
 31 61  2  0  0  0  0
 31 68  1  0  0  0  0
 32 63  1  0  0  0  0
 32 66  1  0  0  0  0
 33 67  1  0  0  0  0
 33 73  2  0  0  0  0
 34 48  1  0  0  0  0
 34 69  1  0  0  0  0
 34 74  2  0  0  0  0
 35 58  1  0  0  0  0
 35 64  1  0  0  0  0
 35 75  2  0  0  0  0
 36 59  1  0  0  0  0
 36 70  1  0  0  0  0
 36 76  2  0  0  0  0
 37 65  1  0  0  0  0
 37 68  1  0  0  0  0
 37 77  2  0  0  0  0
 38 41  1  0  0  0  0
 39 48  1  0  0  0  0
 40 64  1  0  0  0  0
 41 43  1  0  0  0  0
 42 44  1  0  0  0  0
 42 45  1  0  0  0  0
 43 47  1  0  0  0  0
 44 49  1  0  0  0  0
 45 65  1  0  0  0  0
 46 49  1  0  0  0  0
 46 65  1  0  0  0  0
 47 69  1  0  0  0  0
 48 64  1  0  0  0  0
 49 63  1  0  0  0  0
 50 59  1  0  0  0  0
 51 60  1  0  0  0  0
 52 60  1  0  0  0  0
 53 60  1  0  0  0  0
 54 71  1  0  0  0  0
 55 72  1  0  0  0  0
 56 57  1  0  0  0  0
 56 72  1  0  0  0  0
 57 79  1  0  0  0  0
 58 60  1  0  0  0  0
 58 70  1  0  0  0  0
 59 71  1  0  0  0  0
 62 63  1  0  0  0  0
M  CHG  2  71   1  72   1
M  ISO  4  37 100  57 101  68 100  79 101
M  END
> <Batch ID>
0137

> <Smiles>
CNC(C)C(=O)NC(C(=O)N1Cc2cc([101O:1][101CH2:1]CNCc3ccnc([100NH:0][100C:0](=O)N4CCCC(n5nc(-c6ccc(Oc7ccc(F)cc7F)cc6)c(C(N)=O)c5N)C4)c3)ccc2CC1C(=O)NC1CCCc2ccccc21)C(C)(C)C

> <Shape>
0.245

> <Color>
0.090

> <Negative vol penalty>
0.000

$$$$

  -OEChem-04052321053D

 82 91  0     1  0  0  0  0  0999 V2000
  -19.3472  -25.4755   17.4722 C   0  0  0  0  0  0  0  0  0  0  0  0
  -20.5628  -24.8859   17.8037 C   0  0  0  0  0  0  0  0  0  0  0  0
  -23.0449   -9.8181   20.0355 C   0  0  0  0  0  0  0  0  0  0  0  0
  -23.6598  -10.0555   22.3598 C   0  0  0  0  0  0  0  0  0  0  0  0
  -19.2946  -26.8332   17.1592 C   0  0  0  0  0  0  0  0  0  0  0  0
  -21.7269  -25.6533   17.8213 C   0  0  0  0  0  0  0  0  0  0  0  0
  -29.2011  -18.6716   20.6197 C   0  0  0  0  0  0  0  0  0  0  0  0
  -24.5837  -24.7565   21.9053 C   0  0  0  0  0  0  0  0  0  0  0  0
  -28.2676  -19.7053   20.6477 C   0  0  0  0  0  0  0  0  0  0  0  0
  -22.2778   -8.6972   20.3529 C   0  0  0  0  0  0  0  0  0  0  0  0
  -22.8927   -8.9346   22.6772 C   0  0  0  0  0  0  0  0  0  0  0  0
  -25.3572  -23.5966   21.8990 C   0  0  0  0  0  0  0  0  0  0  0  0
  -23.1920   -5.5729   22.4766 C   0  0  0  0  0  0  0  0  0  0  0  0
  -23.7533   -4.6244   23.3315 C   0  0  0  0  0  0  0  0  0  0  0  0
  -27.2937  -24.8984   21.2871 C   0  0  0  0  0  0  0  0  0  0  0  0
  -28.2845  -19.6464   23.0611 C   0  0  0  0  0  0  0  0  0  0  0  0
  -21.9498   -4.9719   24.9012 C   0  0  0  0  0  0  0  0  0  0  0  0
  -23.7359  -10.4973   21.0390 C   0  0  0  0  0  0  0  0  0  0  0  0
  -24.1043  -12.9969   20.6871 C   0  0  0  0  0  0  0  0  0  0  0  0
  -20.4571  -27.6198   17.1823 C   0  0  0  0  0  0  0  0  0  0  0  0
  -25.1581  -25.9967   21.5913 C   0  0  0  0  0  0  0  0  0  0  0  0
  -21.6901  -27.0225   17.5069 C   0  0  0  0  0  0  0  0  0  0  0  0
  -29.6869  -18.1185   21.8151 C   0  0  0  0  0  0  0  0  0  0  0  0
  -26.5260  -26.0729   21.2926 C   0  0  0  0  0  0  0  0  0  0  0  0
  -27.8115  -20.1943   21.8677 C   0  0  0  0  0  0  0  0  0  0  0  0
  -29.2150  -18.5964   23.0549 C   0  0  0  0  0  0  0  0  0  0  0  0
  -22.2017   -8.2554   21.6737 C   0  0  0  0  0  0  0  0  0  0  0  0
  -26.7118  -23.6669   21.5871 C   0  0  0  0  0  0  0  0  0  0  0  0
  -22.0096   -6.2209   22.8340 C   0  0  0  0  0  0  0  0  0  0  0  0
  -23.1322   -4.3239   24.5438 C   0  0  0  0  0  0  0  0  0  0  0  0
  -21.3885   -5.9204   24.0463 C   0  0  0  0  0  0  0  0  0  0  0  0
  -24.5289  -11.6549   20.7116 C   0  0  0  0  0  0  0  0  0  0  0  0
  -25.2229  -13.7043   20.3198 C   0  0  0  0  0  0  0  0  0  0  0  0
  -22.8142  -13.5542   20.9711 C   0  0  0  0  0  0  0  0  0  0  0  0
  -24.7015  -28.1684   19.3156 C   0  0  0  0  0  0  0  0  0  0  0  0
  -26.8348  -29.8781   21.0615 C   0  0  0  0  0  0  0  0  0  0  0  0
  -29.3943  -29.8762   23.3188 C   0  0  0  0  0  0  0  0  0  0  0  0
  -30.6919  -14.7291   20.7499 C   0  0  0  0  0  0  0  0  0  0  0  0
  -20.3583  -29.0728   16.7904 C   0  0  0  0  0  0  0  0  0  0  0  0
  -24.3159  -27.2424   21.6286 C   0  0  0  0  0  0  0  0  0  0  0  0
  -27.1950  -27.3827   20.9683 C   0  0  0  0  0  0  0  0  0  0  0  0
  -21.5769  -29.8975   17.1970 C   0  0  0  0  0  0  0  0  0  0  0  0
  -29.6873  -12.1174   18.5484 C   0  0  0  0  0  0  0  0  0  0  0  0
  -22.8636  -29.1679   16.8245 C   0  0  0  0  0  0  0  0  0  0  0  0
  -28.2233  -11.8710   18.9172 C   0  0  0  0  0  0  0  0  0  0  0  0
  -31.4742  -16.8965   23.0837 C   0  0  0  0  0  0  0  0  0  0  0  0
  -30.5292  -12.4570   19.7764 C   0  0  0  0  0  0  0  0  0  0  0  0
  -30.5352  -16.9112   24.2857 C   0  0  0  0  0  0  0  0  0  0  0  0
  -28.5502  -13.3272   20.9597 C   0  0  0  0  0  0  0  0  0  0  0  0
  -22.9706  -27.8272   17.5611 C   0  0  1  0  0  0  0  0  0  0  0  0
  -30.6971  -16.9934   21.7657 C   0  0  1  0  0  0  0  0  0  0  0  0
  -24.8933  -28.3792   20.7909 C   0  0  1  0  0  0  0  0  0  0  0  0
  -27.6503  -13.0360   19.7465 C   0  0  2  0  0  0  0  0  0  0  0  0
  -30.9593  -31.4241   24.5239 C   0  0  0  0  0  0  0  0  0  0  0  0
  -28.4707  -30.2087   18.5072 C   0  0  0  0  0  0  0  0  0  0  0  0
  -30.4144  -30.9022   19.9247 C   0  0  0  0  0  0  0  0  0  0  0  0
  -28.3240  -32.2634   19.9253 C   0  0  0  0  0  0  0  0  0  0  0  0
  -28.3670  -29.0415   25.9659 C   0  0  0  0  0  0  0  0  0  0  0  0
  -26.8105  -21.3116   21.9010 C   0  0  0  0  0  0  0  0  0  1  0  0
  -28.3383  -30.0134   21.0782 C   0  0  1  0  0  0  0  0  0  0  0  0
  -29.6276  -30.6916   24.5778 C   0  0  2  0  0  0  0  0  0  0  0  0
  -28.8741  -30.8218   19.8630 C   0  0  0  0  0  0  0  0  0  0  0  0
  -25.8167  -11.5155   20.3857 N   0  0  0  0  0  0  0  0  0  0  0  0
  -26.2109  -12.7790   20.1528 N   0  0  0  0  0  0  0  0  0  0  0  0
  -29.6855  -18.0854   24.2576 N   0  0  0  0  0  0  0  0  0  0  0  0
  -26.3280  -28.5718   21.0117 N   0  0  0  0  0  0  0  0  0  0  0  0
  -29.9323  -13.5706   20.5178 N   0  0  0  0  0  0  0  0  0  0  0  0
  -25.4479  -15.0212   20.1265 N   0  0  0  0  0  0  0  0  0  0  0  0
  -21.7761  -12.6852   21.3337 N   0  0  0  0  0  0  0  0  0  0  0  0
  -23.3802  -28.0356   18.9334 N   0  0  0  0  0  0  0  0  0  0  0  0
  -28.6822  -30.5859   22.3753 N   0  0  0  0  0  0  0  0  0  0  0  0
  -30.0485  -15.7390   21.4547 N   0  0  0  0  0  0  0  0  0  0  0  0
  -29.6267  -29.8058   25.7763 N   0  3  0  0  0  0  0  0  0  0  0  0
  -22.5844  -14.7847   20.8892 O   0  0  0  0  0  0  0  0  0  0  0  0
  -25.6797  -28.1305   18.5785 O   0  0  0  0  0  0  0  0  0  0  0  0
  -26.1358  -30.8938   21.0986 O   0  0  0  0  0  0  0  0  0  0  0  0
  -29.8061  -28.7260   23.1843 O   0  0  0  0  0  0  0  0  0  0  0  0
  -31.8554  -14.8562   20.3535 O   0  0  0  0  0  0  0  0  0  0  0  0
  -21.4531   -7.1618   21.9838 O   0  0  0  0  0  0  0  0  0  0  0  0
  -27.4689  -22.5362   21.5796 O   0  0  0  0  0  0  0  0  0  1  0  0
  -23.6706   -3.4119   25.3639 F   0  0  0  0  0  0  0  0  0  0  0  0
  -20.2519   -6.5389   24.3946 F   0  0  0  0  0  0  0  0  0  0  0  0
  1  2  1  0  0  0  0
  1  5  2  0  0  0  0
  2  6  2  0  0  0  0
  3 10  2  0  0  0  0
  3 18  1  0  0  0  0
  4 11  1  0  0  0  0
  4 18  2  0  0  0  0
  5 20  1  0  0  0  0
  6 22  1  0  0  0  0
  7  9  2  0  0  0  0
  7 23  1  0  0  0  0
  8 12  2  0  0  0  0
  8 21  1  0  0  0  0
  9 25  1  0  0  0  0
 10 27  1  0  0  0  0
 11 27  2  0  0  0  0
 12 28  1  0  0  0  0
 13 14  2  0  0  0  0
 13 29  1  0  0  0  0
 14 30  1  0  0  0  0
 15 24  1  0  0  0  0
 15 28  2  0  0  0  0
 16 25  2  0  0  0  0
 16 26  1  0  0  0  0
 17 30  2  0  0  0  0
 17 31  1  0  0  0  0
 18 32  1  0  0  0  0
 19 32  1  0  0  0  0
 19 33  2  0  0  0  0
 19 34  1  0  0  0  0
 20 22  2  0  0  0  0
 20 39  1  0  0  0  0
 21 24  2  0  0  0  0
 21 40  1  0  0  0  0
 22 50  1  0  0  0  0
 23 26  2  0  0  0  0
 23 51  1  0  0  0  0
 24 41  1  0  0  0  0
 25 59  1  0  0  0  0
 26 65  1  0  0  0  0
 27 79  1  0  0  0  0
 28 80  1  0  0  0  0
 29 31  2  0  0  0  0
 29 79  1  0  0  0  0
 30 81  1  0  0  0  0
 31 82  1  0  0  0  0
 32 63  2  0  0  0  0
 33 64  1  0  0  0  0
 33 68  1  0  0  0  0
 34 69  1  0  0  0  0
 34 74  2  0  0  0  0
 35 52  1  0  0  0  0
 35 70  1  0  0  0  0
 35 75  2  0  0  0  0
 36 60  1  0  0  0  0
 36 66  1  0  0  0  0
 36 76  2  0  0  0  0
 37 61  1  0  0  0  0
 37 71  1  0  0  0  0
 37 77  2  0  0  0  0
 38 67  1  0  0  0  0
 38 72  1  0  0  0  0
 38 78  2  0  0  0  0
 39 42  1  0  0  0  0
 40 52  1  0  0  0  0
 41 66  1  0  0  0  0
 42 44  1  0  0  0  0
 43 45  1  0  0  0  0
 43 47  1  0  0  0  0
 44 50  1  0  0  0  0
 45 53  1  0  0  0  0
 46 48  1  0  0  0  0
 46 51  1  0  0  0  0
 47 67  1  0  0  0  0
 48 65  1  0  0  0  0
 49 53  1  0  0  0  0
 49 67  1  0  0  0  0
 50 70  1  0  0  0  0
 51 72  1  0  0  0  0
 52 66  1  0  0  0  0
 53 64  1  0  0  0  0
 54 61  1  0  0  0  0
 55 62  1  0  0  0  0
 56 62  1  0  0  0  0
 57 62  1  0  0  0  0
 58 73  1  0  0  0  0
 59 80  1  0  0  0  0
 60 62  1  0  0  0  0
 60 71  1  0  0  0  0
 61 73  1  0  0  0  0
 63 64  1  0  0  0  0
M  CHG  1  73   1
M  ISO  4  38 100  59 101  72 100  80 101
M  END
> <Batch ID>
0137

> <Smiles>
CNC(C)C(=O)NC(C(=O)N1Cc2cc([101O:1][101CH2:1]c3ccc4c(c3)NCCC4[100NH:0][100C:0](=O)N3CCCC(n4nc(-c5ccc(Oc6ccc(F)cc6F)cc5)c(C(N)=O)c4N)C3)ccc2CC1C(=O)NC1CCCc2ccccc21)C(C)(C)C

> <Shape>
0.263

> <Color>
0.193

> <Negative vol penalty>
0.000

$$$$

  -OEChem-04052321053D

 84 93  0     1  0  0  0  0  0999 V2000
  -18.0313  -25.5591   22.9320 C   0  0  0  0  0  0  0  0  0  0  0  0
  -19.1195  -25.5012   22.0671 C   0  0  0  0  0  0  0  0  0  0  0  0
  -28.7386  -28.2151   13.4620 C   0  0  0  0  0  0  0  0  0  0  0  0
  -26.9782  -19.1325   20.4900 C   0  0  0  0  0  0  0  0  0  0  0  0
  -28.5552  -19.4997   18.6969 C   0  0  0  0  0  0  0  0  0  0  0  0
  -17.5712  -26.7930   23.3899 C   0  0  0  0  0  0  0  0  0  0  0  0
  -19.7475  -26.6774   21.6589 C   0  0  0  0  0  0  0  0  0  0  0  0
  -30.1276  -28.0873   13.4587 C   0  0  0  0  0  0  0  0  0  0  0  0
  -25.7165  -27.4661   20.5387 C   0  0  0  0  0  0  0  0  0  0  0  0
  -28.0213  -28.0005   14.6389 C   0  0  0  0  0  0  0  0  0  0  0  0
  -26.1914  -18.3564   19.6390 C   0  0  0  0  0  0  0  0  0  0  0  0
  -27.7684  -18.7236   17.8459 C   0  0  0  0  0  0  0  0  0  0  0  0
  -26.4558  -27.4755   19.3567 C   0  0  0  0  0  0  0  0  0  0  0  0
  -23.9519  -15.9808   18.0402 C   0  0  0  0  0  0  0  0  0  0  0  0
  -23.4564  -14.7747   18.5354 C   0  0  0  0  0  0  0  0  0  0  0  0
  -26.3117  -29.8827   19.2928 C   0  0  0  0  0  0  0  0  0  0  0  0
  -25.7143  -13.9992   18.9059 C   0  0  0  0  0  0  0  0  0  0  0  0
  -28.1601  -19.7042   20.0189 C   0  0  0  0  0  0  0  0  0  0  0  0
  -30.0203  -20.0635   21.7273 C   0  0  0  0  0  0  0  0  0  0  0  0
  -18.1999  -27.9843   22.9947 C   0  0  0  0  0  0  0  0  0  0  0  0
  -25.2592  -28.6661   21.1017 C   0  0  0  0  0  0  0  0  0  0  0  0
  -19.2945  -27.9284   22.1109 C   0  0  0  0  0  0  0  0  0  0  0  0
  -30.7992  -27.7448   14.6323 C   0  0  0  0  0  0  0  0  0  0  0  0
  -25.5689  -29.8859   20.4834 C   0  0  0  0  0  0  0  0  0  0  0  0
  -28.6929  -27.6580   15.8124 C   0  0  0  0  0  0  0  0  0  0  0  0
  -30.0819  -27.5301   15.8091 C   0  0  0  0  0  0  0  0  0  0  0  0
  -26.5865  -18.1519   18.3170 C   0  0  0  0  0  0  0  0  0  0  0  0
  -26.7510  -28.6837   18.7320 C   0  0  0  0  0  0  0  0  0  0  0  0
  -25.3287  -16.1961   17.9777 C   0  0  0  0  0  0  0  0  0  0  0  0
  -24.3376  -13.7839   18.9683 C   0  0  0  0  0  0  0  0  0  0  0  0
  -26.2099  -15.2053   18.4106 C   0  0  0  0  0  0  0  0  0  0  0  0
  -28.9731  -20.5065   20.8973 C   0  0  0  0  0  0  0  0  0  0  0  0
  -30.4677  -21.2015   22.3527 C   0  0  0  0  0  0  0  0  0  0  0  0
  -30.5420  -18.7414   21.9160 C   0  0  0  0  0  0  0  0  0  0  0  0
  -22.3992  -29.8974   21.7408 C   0  0  0  0  0  0  0  0  0  0  0  0
  -24.1520  -32.2368   23.1469 C   0  0  0  0  0  0  0  0  0  0  0  0
  -27.1224  -33.9044   23.3533 C   0  0  0  0  0  0  0  0  0  0  0  0
  -30.2810  -27.0031   20.8837 C   0  0  0  0  0  0  0  0  0  0  0  0
  -17.6371  -29.2972   23.4785 C   0  0  0  0  0  0  0  0  0  0  0  0
  -24.4857  -28.6407   22.3915 C   0  0  0  0  0  0  0  0  0  0  0  0
  -25.1186  -31.2032   21.0582 C   0  0  0  0  0  0  0  0  0  0  0  0
  -18.5922  -30.4738   23.2952 C   0  0  0  0  0  0  0  0  0  0  0  0
  -28.9681  -25.4976   23.8311 C   0  0  0  0  0  0  0  0  0  0  0  0
  -32.9144  -26.6752   13.6046 C   0  0  0  0  0  0  0  0  0  0  0  0
  -32.9176  -26.3280   15.0605 C   0  0  0  0  0  0  0  0  0  0  0  0
  -19.1983  -30.4563   21.8955 C   0  0  0  0  0  0  0  0  0  0  0  0
  -28.9150  -24.0078   23.4883 C   0  0  0  0  0  0  0  0  0  0  0  0
  -28.6337  -26.3674   22.6212 C   0  0  0  0  0  0  0  0  0  0  0  0
  -29.3886  -24.6024   21.0756 C   0  0  0  0  0  0  0  0  0  0  0  0
  -32.2870  -27.6143   14.5993 C   0  0  0  0  0  0  0  0  0  0  0  0
  -20.0177  -29.1808   21.6650 C   0  0  1  0  0  0  0  0  0  0  0  0
  -23.6314  -29.8873   22.6006 C   0  0  1  0  0  0  0  0  0  0  0  0
  -29.7733  -23.6864   22.2500 C   0  0  2  0  0  0  0  0  0  0  0  0
  -28.2407  -35.7934   24.5692 C   0  0  0  0  0  0  0  0  0  0  0  0
  -22.6123  -34.2434   21.4403 C   0  0  0  0  0  0  0  0  0  0  0  0
  -24.3737  -35.9414   21.9718 C   0  0  0  0  0  0  0  0  0  0  0  0
  -22.9947  -34.9617   23.8051 C   0  0  0  0  0  0  0  0  0  0  0  0
  -29.1793  -32.1071   24.4926 C   0  0  0  0  0  0  0  0  0  0  0  0
  -27.8940  -27.4337   17.0625 C   0  0  0  0  0  0  0  0  0  1  0  0
  -31.2405  -28.1561   17.9284 C   0  0  0  0  0  0  0  0  0  0  0  0
  -31.9386  -27.4825   19.1000 C   0  0  0  0  0  0  0  0  0  0  0  0
  -24.7608  -33.5395   22.6871 C   0  0  1  0  0  0  0  0  0  0  0  0
  -27.9771  -34.2959   24.5452 C   0  0  2  0  0  0  0  0  0  0  0  0
  -23.6923  -34.6467   22.4640 C   0  0  0  0  0  0  0  0  0  0  0  0
  -28.7673  -21.8233   20.9853 N   0  0  0  0  0  0  0  0  0  0  0  0
  -29.6913  -22.2174   21.8780 N   0  0  0  0  0  0  0  0  0  0  0  0
  -24.3598  -31.1257   22.3174 N   0  0  0  0  0  0  0  0  0  0  0  0
  -29.4838  -26.0133   21.4819 N   0  0  0  0  0  0  0  0  0  0  0  0
  -31.4454  -21.4223   23.2569 N   0  0  0  0  0  0  0  0  0  0  0  0
  -29.9662  -17.6866   21.1946 N   0  0  0  0  0  0  0  0  0  0  0  0
  -30.7614  -27.1827   16.9999 N   0  0  0  0  0  0  0  0  0  0  0  0
  -21.3050  -29.2821   22.3184 N   0  0  0  0  0  0  0  0  0  0  0  0
  -25.7810  -33.8833   23.6717 N   0  0  0  0  0  0  0  0  0  0  0  0
  -31.0613  -26.5818   19.8140 N   0  0  0  0  0  0  0  0  0  0  0  0
  -29.2881  -33.5887   24.4972 N   0  3  0  0  0  0  0  0  0  0  0  0
  -31.4798  -18.4999   22.7133 O   0  0  0  0  0  0  0  0  0  0  0  0
  -22.4378  -30.4257   20.6357 O   0  0  0  0  0  0  0  0  0  0  0  0
  -23.5217  -32.2046   24.2068 O   0  0  0  0  0  0  0  0  0  0  0  0
  -27.5970  -33.6469   22.2492 O   0  0  0  0  0  0  0  0  0  0  0  0
  -30.3002  -28.1742   21.2774 O   0  0  0  0  0  0  0  0  0  0  0  0
  -25.8190  -17.3944   17.4865 O   0  0  0  0  0  0  0  0  0  0  0  0
  -27.4719  -28.6957   17.5779 O   0  0  0  0  0  0  0  0  0  1  0  0
  -23.8615  -12.6263   19.4453 F   0  0  0  0  0  0  0  0  0  0  0  0
  -27.5335  -15.4068   18.3541 F   0  0  0  0  0  0  0  0  0  0  0  0
  1  2  1  0  0  0  0
  1  6  2  0  0  0  0
  2  7  2  0  0  0  0
  3  8  1  0  0  0  0
  3 10  2  0  0  0  0
  4 11  2  0  0  0  0
  4 18  1  0  0  0  0
  5 12  1  0  0  0  0
  5 18  2  0  0  0  0
  6 20  1  0  0  0  0
  7 22  1  0  0  0  0
  8 23  2  0  0  0  0
  9 13  2  0  0  0  0
  9 21  1  0  0  0  0
 10 25  1  0  0  0  0
 11 27  1  0  0  0  0
 12 27  2  0  0  0  0
 13 28  1  0  0  0  0
 14 15  2  0  0  0  0
 14 29  1  0  0  0  0
 15 30  1  0  0  0  0
 16 24  1  0  0  0  0
 16 28  2  0  0  0  0
 17 30  2  0  0  0  0
 17 31  1  0  0  0  0
 18 32  1  0  0  0  0
 19 32  1  0  0  0  0
 19 33  2  0  0  0  0
 19 34  1  0  0  0  0
 20 22  2  0  0  0  0
 20 39  1  0  0  0  0
 21 24  2  0  0  0  0
 21 40  1  0  0  0  0
 22 51  1  0  0  0  0
 23 26  1  0  0  0  0
 23 50  1  0  0  0  0
 24 41  1  0  0  0  0
 25 26  2  0  0  0  0
 25 59  1  0  0  0  0
 26 71  1  0  0  0  0
 27 81  1  0  0  0  0
 28 82  1  0  0  0  0
 29 31  2  0  0  0  0
 29 81  1  0  0  0  0
 30 83  1  0  0  0  0
 31 84  1  0  0  0  0
 32 65  2  0  0  0  0
 33 66  1  0  0  0  0
 33 69  1  0  0  0  0
 34 70  1  0  0  0  0
 34 76  2  0  0  0  0
 35 52  1  0  0  0  0
 35 72  1  0  0  0  0
 35 77  2  0  0  0  0
 36 62  1  0  0  0  0
 36 67  1  0  0  0  0
 36 78  2  0  0  0  0
 37 63  1  0  0  0  0
 37 73  1  0  0  0  0
 37 79  2  0  0  0  0
 38 68  1  0  0  0  0
 38 74  1  0  0  0  0
 38 80  2  0  0  0  0
 39 42  1  0  0  0  0
 40 52  1  0  0  0  0
 41 67  1  0  0  0  0
 42 46  1  0  0  0  0
 43 47  1  0  0  0  0
 43 48  1  0  0  0  0
 44 45  1  0  0  0  0
 44 50  1  0  0  0  0
 45 50  1  0  0  0  0
 46 51  1  0  0  0  0
 47 53  1  0  0  0  0
 48 68  1  0  0  0  0
 49 53  1  0  0  0  0
 49 68  1  0  0  0  0
 51 72  1  0  0  0  0
 52 67  1  0  0  0  0
 53 66  1  0  0  0  0
 54 63  1  0  0  0  0
 55 64  1  0  0  0  0
 56 64  1  0  0  0  0
 57 64  1  0  0  0  0
 58 75  1  0  0  0  0
 59 82  1  0  0  0  0
 60 61  1  0  0  0  0
 60 71  1  0  0  0  0
 61 74  1  0  0  0  0
 62 64  1  0  0  0  0
 62 73  1  0  0  0  0
 63 75  1  0  0  0  0
 65 66  1  0  0  0  0
M  CHG  1  75   1
M  ISO  4  38 100  59 101  74 100  82 101
M  END
> <Batch ID>
0137

> <Smiles>
CNC(C)C(=O)NC(C(=O)N1Cc2cc([101O:1][101CH2:1]c3cccc(C4CC4)c3NCC[100NH:0][100C:0](=O)N3CCCC(n4nc(-c5ccc(Oc6ccc(F)cc6F)cc5)c(C(N)=O)c4N)C3)ccc2CC1C(=O)NC1CCCc2ccccc21)C(C)(C)C

> <Shape>
0.248

> <Color>
0.090

> <Negative vol penalty>
0.000

$$$$

  -OEChem-04052321053D

 86 95  0     1  0  0  0  0  0999 V2000
  -29.1815  -30.6793   26.8086 C   0  0  0  0  0  0  0  0  0  0  0  0
  -29.0558  -29.5405   26.0194 C   0  0  0  0  0  0  0  0  0  0  0  0
  -23.0857  -10.7128   21.2034 C   0  0  0  0  0  0  0  0  0  0  0  0
  -24.2021   -8.5890   21.4863 C   0  0  0  0  0  0  0  0  0  0  0  0
  -28.0994  -31.5456   26.9578 C   0  0  0  0  0  0  0  0  0  0  0  0
  -27.8474  -29.2669   25.3796 C   0  0  0  0  0  0  0  0  0  0  0  0
  -28.4798  -27.8313   20.5647 C   0  0  0  0  0  0  0  0  0  0  0  0
  -21.9030  -10.0480   20.8797 C   0  0  0  0  0  0  0  0  0  0  0  0
  -23.0194   -7.9241   21.1626 C   0  0  0  0  0  0  0  0  0  0  0  0
  -28.8877  -26.5171   20.3404 C   0  0  0  0  0  0  0  0  0  0  0  0
  -20.1995   -5.6644   20.7626 C   0  0  0  0  0  0  0  0  0  0  0  0
  -19.8262   -4.5799   21.5564 C   0  0  0  0  0  0  0  0  0  0  0  0
  -30.6282  -20.6177   18.6547 C   0  0  0  0  0  0  0  0  0  0  0  0
  -30.6048  -22.0227   18.4747 C   0  0  0  0  0  0  0  0  0  0  0  0
  -26.6100  -25.9023   19.8371 C   0  0  0  0  0  0  0  0  0  0  0  0
  -19.7454   -6.0241   23.4915 C   0  0  0  0  0  0  0  0  0  0  0  0
  -24.2353   -9.9833   21.5066 C   0  0  0  0  0  0  0  0  0  0  0  0
  -25.8873  -11.0658   23.1211 C   0  0  0  0  0  0  0  0  0  0  0  0
  -26.8801  -31.2876   26.3118 C   0  0  0  0  0  0  0  0  0  0  0  0
  -27.1299  -28.1891   20.4372 C   0  0  0  0  0  0  0  0  0  0  0  0
  -26.7475  -30.1299   25.5214 C   0  0  0  0  0  0  0  0  0  0  0  0
  -26.1879  -27.2222   20.0578 C   0  0  0  0  0  0  0  0  0  0  0  0
  -21.8698   -8.6537   20.8593 C   0  0  0  0  0  0  0  0  0  0  0  0
  -27.9524  -25.5518   19.9794 C   0  0  0  0  0  0  0  0  0  0  0  0
  -20.3459   -6.9288   21.3333 C   0  0  0  0  0  0  0  0  0  0  0  0
  -19.5991   -4.7598   22.9208 C   0  0  0  0  0  0  0  0  0  0  0  0
  -20.1188   -7.1086   22.6977 C   0  0  0  0  0  0  0  0  0  0  0  0
  -25.4575  -10.6695   21.8405 C   0  0  0  0  0  0  0  0  0  0  0  0
  -30.0509  -20.3499   19.8763 C   0  0  0  0  0  0  0  0  0  0  0  0
  -30.0140  -22.5708   19.5918 C   0  0  0  0  0  0  0  0  0  0  0  0
  -27.0998  -11.6733   22.9036 C   0  0  0  0  0  0  0  0  0  0  0  0
  -25.2478  -10.8996   24.3936 C   0  0  0  0  0  0  0  0  0  0  0  0
  -24.9188  -29.3410   22.4090 C   0  0  0  0  0  0  0  0  0  0  0  0
  -23.1491  -29.5164   19.6962 C   0  0  0  0  0  0  0  0  0  0  0  0
  -22.5864  -28.3852   16.5259 C   0  0  0  0  0  0  0  0  0  0  0  0
  -30.4420  -14.9939   20.1067 C   0  0  0  0  0  0  0  0  0  0  0  0
  -25.7237  -32.2283   26.5410 C   0  0  0  0  0  0  0  0  0  0  0  0
  -26.7101  -29.6167   20.6565 C   0  0  0  0  0  0  0  0  0  0  0  0
  -24.7299  -27.5594   19.8878 C   0  0  0  0  0  0  0  0  0  0  0  0
  -24.5940  -32.0632   25.5277 C   0  0  0  0  0  0  0  0  0  0  0  0
  -30.0260  -11.8253   18.7894 C   0  0  0  0  0  0  0  0  0  0  0  0
  -24.2568  -30.5874   25.3399 C   0  0  0  0  0  0  0  0  0  0  0  0
  -28.8360  -11.2623   19.5660 C   0  0  0  0  0  0  0  0  0  0  0  0
  -28.8668  -18.1120   19.7692 C   0  0  0  0  0  0  0  0  0  0  0  0
  -31.1352  -18.2903   20.8791 C   0  0  0  0  0  0  0  0  0  0  0  0
  -29.7995  -13.2892   18.4298 C   0  0  0  0  0  0  0  0  0  0  0  0
  -28.6599  -16.7605   20.4590 C   0  0  0  0  0  0  0  0  0  0  0  0
  -30.8649  -16.9522   21.5609 C   0  0  0  0  0  0  0  0  0  0  0  0
  -28.3342  -13.6140   20.3958 C   0  0  0  0  0  0  0  0  0  0  0  0
  -25.4606  -29.8119   24.7914 C   0  0  1  0  0  0  0  0  0  0  0  0
  -29.8161  -19.0213   20.5701 C   0  0  0  0  0  0  0  0  0  0  0  0
  -25.2304  -29.7584   20.9996 C   0  0  1  0  0  0  0  0  0  0  0  0
  -28.5134  -12.1344   20.7923 C   0  0  1  0  0  0  0  0  0  0  0  0
  -21.0444  -28.6913   14.5698 C   0  0  0  0  0  0  0  0  0  0  0  0
  -29.2725  -21.2132   24.1813 C   0  0  0  0  0  0  0  0  0  0  0  0
  -20.9941  -27.9165   21.1477 C   0  0  0  0  0  0  0  0  0  0  0  0
  -19.9447  -27.4451   18.9240 C   0  0  0  0  0  0  0  0  0  0  0  0
  -20.1293  -29.7948   19.7410 C   0  0  0  0  0  0  0  0  0  0  0  0
  -24.8022  -29.2538   14.7668 C   0  0  0  0  0  0  0  0  0  0  0  0
  -29.7406  -23.9850   19.9204 C   0  0  0  0  0  0  0  0  0  1  0  0
  -29.0388  -21.6990   21.7252 C   0  0  0  0  0  0  0  0  0  0  0  0
  -22.2103  -28.5835   18.9700 C   0  0  1  0  0  0  0  0  0  0  0  0
  -22.3495  -29.1229   15.2204 C   0  0  2  0  0  0  0  0  0  0  0  0
  -30.0151  -21.5478   22.8952 C   0  0  1  0  0  0  0  0  0  0  0  0
  -20.8467  -28.4279   19.7007 C   0  0  0  0  0  0  0  0  0  0  0  0
  -26.3262  -10.9977   20.8805 N   0  0  0  0  0  0  0  0  0  0  0  0
  -29.6817  -21.5446   20.4372 N   0  0  0  0  0  0  0  0  0  0  0  0
  -27.3140  -11.6068   21.5583 N   0  0  0  0  0  0  0  0  0  0  0  0
  -24.3678  -28.9675   20.1195 N   0  0  0  0  0  0  0  0  0  0  0  0
  -29.4927  -14.0828   19.6196 N   0  0  0  0  0  0  0  0  0  0  0  0
  -29.9519  -16.1313   20.7660 N   0  0  0  0  0  0  0  0  0  0  0  0
  -27.9930  -12.2526   23.7338 N   0  0  0  0  0  0  0  0  0  0  0  0
  -24.0051  -10.2531   24.4374 N   0  0  0  0  0  0  0  0  0  0  0  0
  -25.6111  -30.0503   23.3719 N   0  0  0  0  0  0  0  0  0  0  0  0
  -22.1031  -29.0919   17.6068 N   0  0  0  0  0  0  0  0  0  0  0  0
  -23.4618  -28.8555   14.2652 N   0  3  0  0  0  0  0  0  0  0  0  0
  -25.7554  -11.3269   25.4581 O   0  0  0  0  0  0  0  0  0  0  0  0
  -24.1091  -28.4430   22.6082 O   0  0  0  0  0  0  0  0  0  0  0  0
  -22.8164  -30.6907   19.8748 O   0  0  0  0  0  0  0  0  0  0  0  0
  -23.1410  -27.2899   16.5809 O   0  0  0  0  0  0  0  0  0  0  0  0
  -31.6559  -14.8028   19.9621 O   0  0  0  0  0  0  0  0  0  0  0  0
  -30.7091  -22.7745   23.1113 O   0  0  0  0  0  0  0  0  0  0  0  0
  -20.7158   -8.0046   20.5437 O   0  0  0  0  0  0  0  0  0  0  0  0
  -28.3499  -24.2613   19.7594 O   0  0  0  0  0  0  0  0  0  1  0  0
  -19.2391   -3.7185   23.6827 F   0  0  0  0  0  0  0  0  0  0  0  0
  -20.2567   -8.3212   23.2514 F   0  0  0  0  0  0  0  0  0  0  0  0
  1  2  1  0  0  0  0
  1  5  2  0  0  0  0
  2  6  2  0  0  0  0
  3  8  2  0  0  0  0
  3 17  1  0  0  0  0
  4  9  1  0  0  0  0
  4 17  2  0  0  0  0
  5 19  1  0  0  0  0
  6 21  1  0  0  0  0
  7 10  2  0  0  0  0
  7 20  1  0  0  0  0
  8 23  1  0  0  0  0
  9 23  2  0  0  0  0
 10 24  1  0  0  0  0
 11 12  2  0  0  0  0
 11 25  1  0  0  0  0
 12 26  1  0  0  0  0
 13 14  1  0  0  0  0
 13 29  2  0  0  0  0
 14 30  2  0  0  0  0
 15 22  1  0  0  0  0
 15 24  2  0  0  0  0
 16 26  2  0  0  0  0
 16 27  1  0  0  0  0
 17 28  1  0  0  0  0
 18 28  1  0  0  0  0
 18 31  2  0  0  0  0
 18 32  1  0  0  0  0
 19 21  2  0  0  0  0
 19 37  1  0  0  0  0
 20 22  2  0  0  0  0
 20 38  1  0  0  0  0
 21 50  1  0  0  0  0
 22 39  1  0  0  0  0
 23 83  1  0  0  0  0
 24 84  1  0  0  0  0
 25 27  2  0  0  0  0
 25 83  1  0  0  0  0
 26 85  1  0  0  0  0
 27 86  1  0  0  0  0
 28 66  2  0  0  0  0
 29 51  1  0  0  0  0
 29 67  1  0  0  0  0
 30 60  1  0  0  0  0
 30 67  1  0  0  0  0
 31 68  1  0  0  0  0
 31 72  1  0  0  0  0
 32 73  1  0  0  0  0
 32 77  2  0  0  0  0
 33 52  1  0  0  0  0
 33 74  1  0  0  0  0
 33 78  2  0  0  0  0
 34 62  1  0  0  0  0
 34 69  1  0  0  0  0
 34 79  2  0  0  0  0
 35 63  1  0  0  0  0
 35 75  1  0  0  0  0
 35 80  2  0  0  0  0
 36 70  1  0  0  0  0
 36 71  1  0  0  0  0
 36 81  2  0  0  0  0
 37 40  1  0  0  0  0
 38 52  1  0  0  0  0
 39 69  1  0  0  0  0
 40 42  1  0  0  0  0
 41 43  1  0  0  0  0
 41 46  1  0  0  0  0
 42 50  1  0  0  0  0
 43 53  1  0  0  0  0
 44 47  1  0  0  0  0
 44 51  1  0  0  0  0
 45 48  1  0  0  0  0
 45 51  1  0  0  0  0
 46 70  1  0  0  0  0
 47 71  1  0  0  0  0
 48 71  1  0  0  0  0
 49 53  1  0  0  0  0
 49 70  1  0  0  0  0
 50 74  1  0  0  0  0
 52 69  1  0  0  0  0
 53 68  1  0  0  0  0
 54 63  1  0  0  0  0
 55 64  1  0  0  0  0
 56 65  1  0  0  0  0
 57 65  1  0  0  0  0
 58 65  1  0  0  0  0
 59 76  1  0  0  0  0
 60 84  1  0  0  0  0
 61 64  1  0  0  0  0
 61 67  1  0  0  0  0
 62 65  1  0  0  0  0
 62 75  1  0  0  0  0
 63 76  1  0  0  0  0
 64 82  1  0  0  0  0
 66 68  1  0  0  0  0
M  CHG  1  76   1
M  ISO  4  36 100  60 101  71 100  84 101
M  END
> <Batch ID>
0137

> <Smiles>
CNC(C)C(=O)NC(C(=O)N1Cc2cc([101O:1][101CH2:1]c3ccc(C4CC[100N:0]([100C:0](=O)N5CCCC(n6nc(-c7ccc(Oc8ccc(F)cc8F)cc7)c(C(N)=O)c6N)C5)CC4)n3CC(C)O)ccc2CC1C(=O)NC1CCCc2ccccc21)C(C)(C)C

> <Shape>
0.298

> <Color>
0.091

> <Negative vol penalty>
0.000

$$$$

  -OEChem-04052321053D

 84 93  0     1  0  0  0  0  0999 V2000
  -23.2059  -36.0833   22.8026 C   0  0  0  0  0  0  0  0  0  0  0  0
  -24.0809  -35.2447   22.1196 C   0  0  0  0  0  0  0  0  0  0  0  0
  -23.6695   -9.6154   20.3533 C   0  0  0  0  0  0  0  0  0  0  0  0
  -24.1246  -10.1665   22.6612 C   0  0  0  0  0  0  0  0  0  0  0  0
  -22.7483  -35.7276   24.0707 C   0  0  0  0  0  0  0  0  0  0  0  0
  -24.4998  -34.0504   22.7048 C   0  0  0  0  0  0  0  0  0  0  0  0
  -28.1226  -20.4284   21.5222 C   0  0  0  0  0  0  0  0  0  0  0  0
  -25.6804  -28.7652   19.8449 C   0  0  0  0  0  0  0  0  0  0  0  0
  -28.2055  -19.0573   21.7621 C   0  0  0  0  0  0  0  0  0  0  0  0
  -23.1214   -8.3965   20.7524 C   0  0  0  0  0  0  0  0  0  0  0  0
  -23.5765   -8.9476   23.0603 C   0  0  0  0  0  0  0  0  0  0  0  0
  -26.8695  -28.1729   19.4218 C   0  0  0  0  0  0  0  0  0  0  0  0
  -20.4966   -7.6330   23.5150 C   0  0  0  0  0  0  0  0  0  0  0  0
  -19.6199   -7.6426   24.5998 C   0  0  0  0  0  0  0  0  0  0  0  0
  -30.0487  -18.9021   20.2139 C   0  0  0  0  0  0  0  0  0  0  0  0
  -26.9413  -26.8783   21.4560 C   0  0  0  0  0  0  0  0  0  0  0  0
  -21.0901   -6.1487   25.8013 C   0  0  0  0  0  0  0  0  0  0  0  0
  -24.1712  -10.5004   21.3077 C   0  0  0  0  0  0  0  0  0  0  0  0
  -24.0626  -12.9844   20.7368 C   0  0  0  0  0  0  0  0  0  0  0  0
  -23.1542  -34.5236   24.6677 C   0  0  0  0  0  0  0  0  0  0  0  0
  -29.0078  -21.0534   20.6304 C   0  0  0  0  0  0  0  0  0  0  0  0
  -25.1176  -28.4260   21.0837 C   0  0  0  0  0  0  0  0  0  0  0  0
  -24.0483  -33.6788   23.9826 C   0  0  0  0  0  0  0  0  0  0  0  0
  -29.9688  -20.2791   19.9558 C   0  0  0  0  0  0  0  0  0  0  0  0
  -25.7437  -27.4658   21.8914 C   0  0  0  0  0  0  0  0  0  0  0  0
  -29.1697  -18.2947   21.1099 C   0  0  0  0  0  0  0  0  0  0  0  0
  -23.0749   -8.0625   22.1059 C   0  0  0  0  0  0  0  0  0  0  0  0
  -27.5017  -27.2314   20.2287 C   0  0  0  0  0  0  0  0  0  0  0  0
  -21.6701   -6.8812   23.5733 C   0  0  0  0  0  0  0  0  0  0  0  0
  -19.9166   -6.9005   25.7430 C   0  0  0  0  0  0  0  0  0  0  0  0
  -21.9668   -6.1390   24.7165 C   0  0  0  0  0  0  0  0  0  0  0  0
  -24.7380  -11.7595   20.8959 C   0  0  0  0  0  0  0  0  0  0  0  0
  -25.0376  -13.8645   20.3353 C   0  0  0  0  0  0  0  0  0  0  0  0
  -22.6777  -13.2986   20.9345 C   0  0  0  0  0  0  0  0  0  0  0  0
  -24.4559  -30.0133   23.7569 C   0  0  0  0  0  0  0  0  0  0  0  0
  -23.0759  -27.2074   24.6198 C   0  0  0  0  0  0  0  0  0  0  0  0
  -22.9046  -23.8216   24.2274 C   0  0  0  0  0  0  0  0  0  0  0  0
  -30.1595  -16.0001   20.7918 C   0  0  0  0  0  0  0  0  0  0  0  0
  -22.6701  -34.2043   26.0599 C   0  0  0  0  0  0  0  0  0  0  0  0
  -23.8204  -29.0542   21.5137 C   0  0  0  0  0  0  0  0  0  0  0  0
  -28.8632  -22.5332   20.3730 C   0  0  0  0  0  0  0  0  0  0  0  0
  -30.9584  -20.9039   19.0056 C   0  0  0  0  0  0  0  0  0  0  0  0
  -25.1698  -27.0520   23.2210 C   0  0  0  0  0  0  0  0  0  0  0  0
  -22.8673  -32.7425   26.4531 C   0  0  0  0  0  0  0  0  0  0  0  0
  -30.5407  -22.2924   18.5233 C   0  0  0  0  0  0  0  0  0  0  0  0
  -29.8034  -13.0433   18.8405 C   0  0  0  0  0  0  0  0  0  0  0  0
  -24.2726  -32.2761   26.0868 C   0  0  0  0  0  0  0  0  0  0  0  0
  -28.3982  -12.5465   19.1882 C   0  0  0  0  0  0  0  0  0  0  0  0
  -30.5054  -13.6530   20.0525 C   0  0  0  0  0  0  0  0  0  0  0  0
  -28.3423  -14.2051   21.0942 C   0  0  0  0  0  0  0  0  0  0  0  0
  -24.5059  -32.3630   24.5737 C   0  0  1  0  0  0  0  0  0  0  0  0
  -23.6080  -29.0127   23.0238 C   0  0  1  0  0  0  0  0  0  0  0  0
  -30.0957  -23.1600   19.7042 C   0  0  1  0  0  0  0  0  0  0  0  0
  -27.5709  -13.6415   19.8896 C   0  0  2  0  0  0  0  0  0  0  0  0
  -21.7069  -21.7957   25.0984 C   0  0  0  0  0  0  0  0  0  0  0  0
  -31.0944  -25.3532   19.0121 C   0  0  0  0  0  0  0  0  0  0  0  0
  -24.7754  -27.2945   27.1524 C   0  0  0  0  0  0  0  0  0  0  0  0
  -24.2675  -24.8666   27.4930 C   0  0  0  0  0  0  0  0  0  0  0  0
  -22.4172  -26.5396   27.5040 C   0  0  0  0  0  0  0  0  0  0  0  0
  -21.7781  -23.1987   21.5625 C   0  0  0  0  0  0  0  0  0  0  0  0
  -28.9205  -25.3232   20.2698 C   0  0  0  0  0  0  0  0  0  1  0  0
  -23.5466  -25.9549   25.3189 C   0  0  1  0  0  0  0  0  0  0  0  0
  -21.7225  -22.8878   24.0402 C   0  0  2  0  0  0  0  0  0  0  0  0
  -29.7950  -24.5871   19.2511 C   0  0  2  0  0  0  0  0  0  0  0  0
  -23.7637  -26.1729   26.8429 C   0  0  0  0  0  0  0  0  0  0  0  0
  -26.0413  -11.8495   20.6179 N   0  0  0  0  0  0  0  0  0  0  0  0
  -26.1927  -13.1414   20.2801 N   0  0  0  0  0  0  0  0  0  0  0  0
  -23.9030  -27.6993   23.6001 N   0  0  0  0  0  0  0  0  0  0  0  0
  -29.6645  -14.6851   20.6628 N   0  0  0  0  0  0  0  0  0  0  0  0
  -25.0110  -15.1786   20.0275 N   0  0  0  0  0  0  0  0  0  0  0  0
  -21.8131  -12.2761   21.3483 N   0  0  0  0  0  0  0  0  0  0  0  0
  -29.2588  -16.9023   21.3569 N   0  0  0  0  0  0  0  0  0  0  0  0
  -23.8654  -31.2545   23.8990 N   0  0  0  0  0  0  0  0  0  0  0  0
  -22.5732  -24.9171   24.9964 N   0  0  0  0  0  0  0  0  0  0  0  0
  -21.7803  -22.2415   22.6986 N   0  3  0  0  0  0  0  0  0  0  0  0
  -22.2173  -14.4480   20.7337 O   0  0  0  0  0  0  0  0  0  0  0  0
  -25.5634  -29.6833   24.1648 O   0  0  0  0  0  0  0  0  0  0  0  0
  -22.0099  -27.7261   24.9609 O   0  0  0  0  0  0  0  0  0  0  0  0
  -24.0122  -23.5995   23.7433 O   0  0  0  0  0  0  0  0  0  0  0  0
  -31.2886  -16.3095   20.4028 O   0  0  0  0  0  0  0  0  0  0  0  0
  -22.5399   -6.8733   22.4958 O   0  0  0  0  0  0  0  0  0  0  0  0
  -28.6627  -26.6522   19.8184 O   0  0  0  0  0  0  0  0  0  1  0  0
  -19.0753   -6.9111   26.7853 F   0  0  0  0  0  0  0  0  0  0  0  0
  -23.0933   -5.4158   24.7788 F   0  0  0  0  0  0  0  0  0  0  0  0
  1  2  1  0  0  0  0
  1  5  2  0  0  0  0
  2  6  2  0  0  0  0
  3 10  2  0  0  0  0
  3 18  1  0  0  0  0
  4 11  1  0  0  0  0
  4 18  2  0  0  0  0
  5 20  1  0  0  0  0
  6 23  1  0  0  0  0
  7  9  2  0  0  0  0
  7 21  1  0  0  0  0
  8 12  2  0  0  0  0
  8 22  1  0  0  0  0
  9 26  1  0  0  0  0
 10 27  1  0  0  0  0
 11 27  2  0  0  0  0
 12 28  1  0  0  0  0
 13 14  2  0  0  0  0
 13 29  1  0  0  0  0
 14 30  1  0  0  0  0
 15 24  1  0  0  0  0
 15 26  2  0  0  0  0
 16 25  1  0  0  0  0
 16 28  2  0  0  0  0
 17 30  2  0  0  0  0
 17 31  1  0  0  0  0
 18 32  1  0  0  0  0
 19 32  1  0  0  0  0
 19 33  2  0  0  0  0
 19 34  1  0  0  0  0
 20 23  2  0  0  0  0
 20 39  1  0  0  0  0
 21 24  2  0  0  0  0
 21 41  1  0  0  0  0
 22 25  2  0  0  0  0
 22 40  1  0  0  0  0
 23 51  1  0  0  0  0
 24 42  1  0  0  0  0
 25 43  1  0  0  0  0
 26 72  1  0  0  0  0
 27 81  1  0  0  0  0
 28 82  1  0  0  0  0
 29 31  2  0  0  0  0
 29 81  1  0  0  0  0
 30 83  1  0  0  0  0
 31 84  1  0  0  0  0
 32 66  2  0  0  0  0
 33 67  1  0  0  0  0
 33 70  1  0  0  0  0
 34 71  1  0  0  0  0
 34 76  2  0  0  0  0
 35 52  1  0  0  0  0
 35 73  1  0  0  0  0
 35 77  2  0  0  0  0
 36 62  1  0  0  0  0
 36 68  1  0  0  0  0
 36 78  2  0  0  0  0
 37 63  1  0  0  0  0
 37 74  1  0  0  0  0
 37 79  2  0  0  0  0
 38 69  1  0  0  0  0
 38 72  1  0  0  0  0
 38 80  2  0  0  0  0
 39 44  1  0  0  0  0
 40 52  1  0  0  0  0
 41 53  1  0  0  0  0
 42 45  1  0  0  0  0
 43 68  1  0  0  0  0
 44 47  1  0  0  0  0
 45 53  1  0  0  0  0
 46 48  1  0  0  0  0
 46 49  1  0  0  0  0
 47 51  1  0  0  0  0
 48 54  1  0  0  0  0
 49 69  1  0  0  0  0
 50 54  1  0  0  0  0
 50 69  1  0  0  0  0
 51 73  1  0  0  0  0
 52 68  1  0  0  0  0
 53 64  1  0  0  0  0
 54 67  1  0  0  0  0
 55 63  1  0  0  0  0
 56 64  1  0  0  0  0
 57 65  1  0  0  0  0
 58 65  1  0  0  0  0
 59 65  1  0  0  0  0
 60 75  1  0  0  0  0
 61 64  1  0  0  0  0
 61 82  1  0  0  0  0
 62 65  1  0  0  0  0
 62 74  1  0  0  0  0
 63 75  1  0  0  0  0
 66 67  1  0  0  0  0
M  CHG  1  75   1
M  ISO  4  38 100  61 101  72 100  82 101
M  END
> <Batch ID>
0137

> <Smiles>
CNC(C)C(=O)NC(C(=O)N1Cc2cc([101O:1][101CH2:1]C(C)C3CCc4cc([100NH:0][100C:0](=O)N5CCCC(n6nc(-c7ccc(Oc8ccc(F)cc8F)cc7)c(C(N)=O)c6N)C5)ccc4C3)ccc2CC1C(=O)NC1CCCc2ccccc21)C(C)(C)C

> <Shape>
0.310

> <Color>
0.158

> <Negative vol penalty>
0.000

$$$$

  -OEChem-04052321053D

 83 91  0     1  0  0  0  0  0999 V2000
  -16.8702  -30.0399   24.1200 C   0  0  0  0  0  0  0  0  0  0  0  0
  -16.9964  -28.6557   24.0605 C   0  0  0  0  0  0  0  0  0  0  0  0
  -23.9839   -9.6684   21.7654 C   0  0  0  0  0  0  0  0  0  0  0  0
  -24.4544  -10.9481   23.7599 C   0  0  0  0  0  0  0  0  0  0  0  0
  -17.8405  -30.8530   23.5357 C   0  0  0  0  0  0  0  0  0  0  0  0
  -18.0925  -28.0838   23.4156 C   0  0  0  0  0  0  0  0  0  0  0  0
  -22.4178  -22.3833   23.7511 C   0  0  0  0  0  0  0  0  0  0  0  0
  -23.5190   -8.6141   22.5515 C   0  0  0  0  0  0  0  0  0  0  0  0
  -23.9895   -9.8939   24.5460 C   0  0  0  0  0  0  0  0  0  0  0  0
  -22.9085  -21.3548   22.9478 C   0  0  0  0  0  0  0  0  0  0  0  0
  -21.8723   -5.7262   24.0224 C   0  0  0  0  0  0  0  0  0  0  0  0
  -20.6814   -5.1086   23.6406 C   0  0  0  0  0  0  0  0  0  0  0  0
  -24.5632  -22.8590   22.0432 C   0  0  0  0  0  0  0  0  0  0  0  0
  -19.5153   -7.2115   23.8758 C   0  0  0  0  0  0  0  0  0  0  0  0
  -24.4516  -10.8354   22.3696 C   0  0  0  0  0  0  0  0  0  0  0  0
  -24.1811  -12.9993   21.0459 C   0  0  0  0  0  0  0  0  0  0  0  0
  -18.9540  -30.2908   22.8917 C   0  0  0  0  0  0  0  0  0  0  0  0
  -22.9901  -23.6624   23.6984 C   0  0  0  0  0  0  0  0  0  0  0  0
  -19.0779  -28.8901   22.8209 C   0  0  0  0  0  0  0  0  0  0  0  0
  -24.0796  -23.9013   22.8487 C   0  0  0  0  0  0  0  0  0  0  0  0
  -23.5218   -8.7268   23.9418 C   0  0  0  0  0  0  0  0  0  0  0  0
  -23.9795  -21.5933   22.0916 C   0  0  0  0  0  0  0  0  0  0  0  0
  -21.8847   -7.0865   24.3311 C   0  0  0  0  0  0  0  0  0  0  0  0
  -19.5029   -5.8512   23.5672 C   0  0  0  0  0  0  0  0  0  0  0  0
  -20.7063   -7.8291   24.2577 C   0  0  0  0  0  0  0  0  0  0  0  0
  -24.9325  -11.9246   21.5580 C   0  0  0  0  0  0  0  0  0  0  0  0
  -25.0924  -13.7535   20.3480 C   0  0  0  0  0  0  0  0  0  0  0  0
  -22.7844  -13.2899   21.1884 C   0  0  0  0  0  0  0  0  0  0  0  0
  -21.9424  -26.5578   22.9093 C   0  0  0  0  0  0  0  0  0  0  0  0
  -24.8735  -27.4764   23.9520 C   0  0  0  0  0  0  0  0  0  0  0  0
  -28.1257  -26.6396   24.5601 C   0  0  0  0  0  0  0  0  0  0  0  0
  -31.0298  -14.3993   20.7741 C   0  0  0  0  0  0  0  0  0  0  0  0
  -19.9525  -31.2098   22.2337 C   0  0  0  0  0  0  0  0  0  0  0  0
  -22.4664  -24.7540   24.5909 C   0  0  0  0  0  0  0  0  0  0  0  0
  -24.7425  -25.2515   22.7696 C   0  0  0  0  0  0  0  0  0  0  0  0
  -21.2761  -30.5289   21.8952 C   0  0  0  0  0  0  0  0  0  0  0  0
  -29.1892  -13.3641   17.9075 C   0  0  0  0  0  0  0  0  0  0  0  0
  -21.0272  -29.1834   21.2209 C   0  0  0  0  0  0  0  0  0  0  0  0
  -27.8217  -12.9748   18.4718 C   0  0  0  0  0  0  0  0  0  0  0  0
  -29.1975  -19.1377   21.1387 C   0  0  0  0  0  0  0  0  0  0  0  0
  -30.3208  -12.9917   18.8629 C   0  0  0  0  0  0  0  0  0  0  0  0
  -28.8017  -13.1219   20.7992 C   0  0  0  0  0  0  0  0  0  0  0  0
  -27.8927  -18.4495   20.7568 C   0  0  0  0  0  0  0  0  0  0  0  0
  -27.0487  -18.7191   23.1091 C   0  0  0  0  0  0  0  0  0  0  0  0
  -20.2653  -28.2324   22.1518 C   0  0  1  0  0  0  0  0  0  0  0  0
  -22.7944  -26.1532   24.0789 C   0  0  1  0  0  0  0  0  0  0  0  0
  -28.3530  -19.4164   23.5102 C   0  0  2  0  0  0  0  0  0  0  0  0
  -27.6246  -13.5281   19.8960 C   0  0  2  0  0  0  0  0  0  0  0  0
  -29.5382  -18.9939   22.6232 C   0  0  1  0  0  0  0  0  0  0  0  0
  -28.6227  -19.2135   25.0030 C   0  0  0  0  0  0  0  0  0  0  0  0
  -30.2907  -27.6122   25.3750 C   0  0  0  0  0  0  0  0  0  0  0  0
  -25.2505  -28.8791   21.2686 C   0  0  0  0  0  0  0  0  0  0  0  0
  -27.7036  -28.9987   21.7548 C   0  0  0  0  0  0  0  0  0  0  0  0
  -26.0801  -30.1676   23.2450 C   0  0  0  0  0  0  0  0  0  0  0  0
  -28.2446  -24.7603   26.8434 C   0  0  0  0  0  0  0  0  0  0  0  0
  -31.5950  -15.7795   22.7577 C   0  0  0  0  0  0  0  0  0  0  0  0
  -25.4455  -18.3994   21.2254 C   0  0  0  0  0  0  0  0  0  0  0  0
  -31.3075  -17.2388   22.4573 C   0  0  0  0  0  0  0  0  0  0  0  0
  -24.3408  -19.2602   21.8059 C   0  0  0  0  0  0  0  0  0  1  0  0
  -26.2310  -27.6448   23.3134 C   0  0  1  0  0  0  0  0  0  0  0  0
  -29.0183  -26.8763   25.7650 C   0  0  2  0  0  0  0  0  0  0  0  0
  -26.3028  -28.8975   22.3953 C   0  0  0  0  0  0  0  0  0  0  0  0
  -26.2217  -11.9868   21.2146 N   0  0  0  0  0  0  0  0  0  0  0  0
  -26.2876  -13.1096   20.4790 N   0  0  0  0  0  0  0  0  0  0  0  0
  -24.1902  -26.2880   23.6573 N   0  0  0  0  0  0  0  0  0  0  0  0
  -30.0738  -13.5483   20.1952 N   0  0  0  0  0  0  0  0  0  0  0  0
  -24.9800  -14.8980   19.6409 N   0  0  0  0  0  0  0  0  0  0  0  0
  -21.9921  -12.4103   21.9388 N   0  0  0  0  0  0  0  0  0  0  0  0
  -21.1587  -27.6717   23.1427 N   0  0  0  0  0  0  0  0  0  0  0  0
  -27.1983  -27.6482   24.4056 N   0  0  0  0  0  0  0  0  0  0  0  0
  -30.7145  -14.8880   22.0360 N   0  0  0  0  0  0  0  0  0  0  0  0
  -26.7621  -18.9496   21.6354 N   0  3  2  0  0  0  0  0  0  0  0  0
  -29.9287  -17.5787   22.8908 N   0  3  0  0  0  0  0  0  0  0  0  0
  -29.3990  -25.5783   26.3905 N   0  3  0  0  0  0  0  0  0  0  0  0
  -22.2513  -14.2908   20.6522 O   0  0  0  0  0  0  0  0  0  0  0  0
  -21.9934  -25.9084   21.8713 O   0  0  0  0  0  0  0  0  0  0  0  0
  -24.4386  -28.3632   24.6908 O   0  0  0  0  0  0  0  0  0  0  0  0
  -28.2421  -25.6600   23.8271 O   0  0  0  0  0  0  0  0  0  0  0  0
  -32.0836  -14.7053   20.2060 O   0  0  0  0  0  0  0  0  0  0  0  0
  -23.0680   -7.6984   24.7093 O   0  0  0  0  0  0  0  0  0  0  0  0
  -24.4599  -20.5914   21.3060 O   0  0  0  0  0  0  0  0  0  1  0  0
  -18.3596   -5.2583   23.1990 F   0  0  0  0  0  0  0  0  0  0  0  0
  -20.7122   -9.1365   24.5519 F   0  0  0  0  0  0  0  0  0  0  0  0
  1  2  1  0  0  0  0
  1  5  2  0  0  0  0
  2  6  2  0  0  0  0
  3  8  2  0  0  0  0
  3 15  1  0  0  0  0
  4  9  1  0  0  0  0
  4 15  2  0  0  0  0
  5 17  1  0  0  0  0
  6 19  1  0  0  0  0
  7 10  2  0  0  0  0
  7 18  1  0  0  0  0
  8 21  1  0  0  0  0
  9 21  2  0  0  0  0
 10 22  1  0  0  0  0
 11 12  2  0  0  0  0
 11 23  1  0  0  0  0
 12 24  1  0  0  0  0
 13 20  1  0  0  0  0
 13 22  2  0  0  0  0
 14 24  2  0  0  0  0
 14 25  1  0  0  0  0
 15 26  1  0  0  0  0
 16 26  1  0  0  0  0
 16 27  2  0  0  0  0
 16 28  1  0  0  0  0
 17 19  2  0  0  0  0
 17 33  1  0  0  0  0
 18 20  2  0  0  0  0
 18 34  1  0  0  0  0
 19 45  1  0  0  0  0
 20 35  1  0  0  0  0
 21 80  1  0  0  0  0
 22 81  1  0  0  0  0
 23 25  2  0  0  0  0
 23 80  1  0  0  0  0
 24 82  1  0  0  0  0
 25 83  1  0  0  0  0
 26 63  2  0  0  0  0
 27 64  1  0  0  0  0
 27 67  1  0  0  0  0
 28 68  1  0  0  0  0
 28 75  2  0  0  0  0
 29 46  1  0  0  0  0
 29 69  1  0  0  0  0
 29 76  2  0  0  0  0
 30 60  1  0  0  0  0
 30 65  1  0  0  0  0
 30 77  2  0  0  0  0
 31 61  1  0  0  0  0
 31 70  1  0  0  0  0
 31 78  2  0  0  0  0
 32 66  1  0  0  0  0
 32 71  1  0  0  0  0
 32 79  2  0  0  0  0
 33 36  1  0  0  0  0
 34 46  1  0  0  0  0
 35 65  1  0  0  0  0
 36 38  1  0  0  0  0
 37 39  1  0  0  0  0
 37 41  1  0  0  0  0
 38 45  1  0  0  0  0
 39 48  1  0  0  0  0
 40 43  1  0  0  0  0
 40 49  1  0  0  0  0
 41 66  1  0  0  0  0
 42 48  1  0  0  0  0
 42 66  1  0  0  0  0
 43 72  1  0  0  0  0
 44 47  1  0  0  0  0
 44 72  1  0  0  0  0
 45 69  1  0  0  0  0
 46 65  1  0  0  0  0
 47 49  1  0  0  0  0
 47 50  1  0  0  0  0
 48 64  1  0  0  0  0
 49 73  1  0  0  0  0
 51 61  1  0  0  0  0
 52 62  1  0  0  0  0
 53 62  1  0  0  0  0
 54 62  1  0  0  0  0
 55 74  1  0  0  0  0
 56 58  1  0  0  0  0
 56 71  1  0  0  0  0
 57 59  1  0  0  0  0
 57 72  1  0  0  0  0
 58 73  1  0  0  0  0
 59 81  1  0  0  0  0
 60 62  1  0  0  0  0
 60 70  1  0  0  0  0
 61 74  1  0  0  0  0
 63 64  1  0  0  0  0
M  CHG  3  72   1  73   1  74   1
M  ISO  4  32 100  59 101  71 100  81 101
M  END
> <Batch ID>
0137

> <Smiles>
CNC(C)C(=O)NC(C(=O)N1Cc2cc([101O:1][101CH2:1]CN3CCC(NCC[100NH:0][100C:0](=O)N4CCCC(n5nc(-c6ccc(Oc7ccc(F)cc7F)cc6)c(C(N)=O)c5N)C4)C(C)C3)ccc2CC1C(=O)NC1CCCc2ccccc21)C(C)(C)C

> <Shape>
0.243

> <Color>
0.134

> <Negative vol penalty>
0.000

$$$$

  -OEChem-04052321053D

 85 93  0     1  0  0  0  0  0999 V2000
  -22.1104  -12.2819   18.5912 C   0  0  0  0  0  0  0  0  0  0  0  0
  -22.0353  -13.6673   18.6944 C   0  0  0  0  0  0  0  0  0  0  0  0
  -24.8406  -31.5453   23.0461 C   0  0  0  0  0  0  0  0  0  0  0  0
  -26.0230  -29.4644   23.3764 C   0  0  0  0  0  0  0  0  0  0  0  0
  -23.1406  -11.5914   19.2283 C   0  0  0  0  0  0  0  0  0  0  0  0
  -22.9898  -14.3628   19.4357 C   0  0  0  0  0  0  0  0  0  0  0  0
  -24.6714  -18.4980   17.0447 C   0  0  0  0  0  0  0  0  0  0  0  0
  -25.8355  -32.2225   23.7513 C   0  0  0  0  0  0  0  0  0  0  0  0
  -27.0178  -30.1416   24.0816 C   0  0  0  0  0  0  0  0  0  0  0  0
  -23.8481  -19.6230   17.0627 C   0  0  0  0  0  0  0  0  0  0  0  0
  -28.9565  -33.3821   23.1618 C   0  0  0  0  0  0  0  0  0  0  0  0
  -29.4312  -34.5788   22.6251 C   0  0  0  0  0  0  0  0  0  0  0  0
  -25.1796  -20.5615   18.8419 C   0  0  0  0  0  0  0  0  0  0  0  0
  -21.3578  -22.8326   18.8613 C   0  0  0  0  0  0  0  0  0  0  0  0
  -28.7235  -35.7520   24.6151 C   0  0  0  0  0  0  0  0  0  0  0  0
  -20.9221  -20.5951   20.3609 C   0  0  0  0  0  0  0  0  0  0  0  0
  -24.9344  -30.1662   22.8587 C   0  0  0  0  0  0  0  0  0  0  0  0
  -23.8631  -29.2211   20.7452 C   0  0  0  0  0  0  0  0  0  0  0  0
  -24.1137  -12.2798   19.9698 C   0  0  0  0  0  0  0  0  0  0  0  0
  -25.7503  -18.3913   17.9340 C   0  0  0  0  0  0  0  0  0  0  0  0
  -24.0332  -13.6808   20.0844 C   0  0  0  0  0  0  0  0  0  0  0  0
  -26.0167  -19.4353   18.8314 C   0  0  0  0  0  0  0  0  0  0  0  0
  -20.2557  -22.7827   19.7076 C   0  0  0  0  0  0  0  0  0  0  0  0
  -20.0262  -21.6459   20.4747 C   0  0  0  0  0  0  0  0  0  0  0  0
  -26.9241  -31.5207   24.2690 C   0  0  0  0  0  0  0  0  0  0  0  0
  -24.1004  -20.6537   17.9634 C   0  0  0  0  0  0  0  0  0  0  0  0
  -28.3652  -33.3703   24.4252 C   0  0  0  0  0  0  0  0  0  0  0  0
  -29.3147  -35.7637   23.3517 C   0  0  0  0  0  0  0  0  0  0  0  0
  -28.2488  -34.5552   25.1518 C   0  0  0  0  0  0  0  0  0  0  0  0
  -23.9067  -29.4660   22.1308 C   0  0  0  0  0  0  0  0  0  0  0  0
  -22.1936  -21.7283   18.8189 C   0  0  0  0  0  0  0  0  0  1  0  0
  -22.6938  -28.5257   20.5561 C   0  0  0  0  0  0  0  0  0  0  0  0
  -24.7962  -29.5891   19.7207 C   0  0  0  0  0  0  0  0  0  0  0  0
  -26.5385  -16.3900   20.2744 C   0  0  0  0  0  0  0  0  0  0  0  0
  -29.2944  -18.1010   20.2820 C   0  0  0  0  0  0  0  0  0  0  0  0
  -30.8889  -21.0288   19.5524 C   0  0  0  0  0  0  0  0  0  0  0  0
  -19.5520  -25.0600   24.1579 C   0  0  0  0  0  0  0  0  0  0  0  0
  -25.1814  -11.4858   20.6799 C   0  0  0  0  0  0  0  0  0  0  0  0
  -26.6450  -17.1832   17.8837 C   0  0  0  0  0  0  0  0  0  0  0  0
  -27.1744  -19.3784   19.7931 C   0  0  0  0  0  0  0  0  0  0  0  0
  -26.3675  -12.3317   21.1360 C   0  0  0  0  0  0  0  0  0  0  0  0
  -18.3174  -27.9822   22.4160 C   0  0  0  0  0  0  0  0  0  0  0  0
  -25.8827  -13.6049   21.8221 C   0  0  0  0  0  0  0  0  0  0  0  0
  -19.6230  -28.6705   22.0135 C   0  0  0  0  0  0  0  0  0  0  0  0
  -18.4326  -27.3423   23.7964 C   0  0  0  0  0  0  0  0  0  0  0  0
  -20.8676  -27.0661   23.5356 C   0  0  0  0  0  0  0  0  0  0  0  0
  -25.0640  -14.4731   20.8590 C   0  0  1  0  0  0  0  0  0  0  0  0
  -27.4077  -16.9500   19.1842 C   0  0  1  0  0  0  0  0  0  0  0  0
  -20.8230  -27.7133   22.1394 C   0  0  2  0  0  0  0  0  0  0  0  0
  -33.1327  -22.1417   19.7077 C   0  0  0  0  0  0  0  0  0  0  0  0
  -17.8227  -23.1718   17.8811 C   0  0  0  0  0  0  0  0  0  0  0  0
  -17.7912  -25.5701   18.5957 C   0  0  0  0  0  0  0  0  0  0  0  0
  -28.8677  -18.5388   23.2713 C   0  0  0  0  0  0  0  0  0  0  0  0
  -30.5532  -20.3874   23.1703 C   0  0  0  0  0  0  0  0  0  0  0  0
  -31.2314  -18.0518   22.6152 C   0  0  0  0  0  0  0  0  0  0  0  0
  -31.0650  -21.3443   16.6150 C   0  0  0  0  0  0  0  0  0  0  0  0
  -19.3356  -23.9560   19.7774 C   0  0  0  0  0  0  0  0  0  0  0  0
  -18.8623  -21.5396   21.3979 C   0  0  0  0  0  0  0  0  0  0  0  0
  -18.1055  -23.1420   24.7792 C   0  0  0  0  0  0  0  0  0  0  0  0
  -17.8451  -22.2867   23.5533 C   0  0  0  0  0  0  0  0  0  0  0  0
  -29.7815  -19.3401   20.9934 C   0  0  1  0  0  0  0  0  0  0  0  0
  -32.1992  -21.3118   18.8401 C   0  0  2  0  0  0  0  0  0  0  0  0
  -18.6660  -24.3248   18.4312 C   0  0  0  0  0  0  0  0  0  0  0  0
  -30.0854  -19.0800   22.4959 C   0  0  0  0  0  0  0  0  0  0  0  0
  -22.0037  -20.6069   19.5497 N   0  0  0  0  0  0  0  0  0  0  0  0
  -22.8492  -28.9670   22.7762 N   0  0  0  0  0  0  0  0  0  0  0  0
  -22.1300  -28.4016   21.7917 N   0  0  0  0  0  0  0  0  0  0  0  0
  -28.0166  -18.1737   19.7096 N   0  0  0  0  0  0  0  0  0  0  0  0
  -19.5830  -26.4288   23.8437 N   0  0  0  0  0  0  0  0  0  0  0  0
  -22.1033  -28.0146   19.4550 N   0  0  0  0  0  0  0  0  0  0  0  0
  -25.9457  -30.3016   20.0885 N   0  0  0  0  0  0  0  0  0  0  0  0
  -25.9390  -15.1870   19.9539 N   0  0  0  0  0  0  0  0  0  0  0  0
  -30.9241  -19.8275   20.2284 N   0  0  0  0  0  0  0  0  0  0  0  0
  -18.2975  -24.5355   24.4441 N   0  0  0  0  0  0  0  0  0  0  0  0
  -31.9499  -22.0557   17.5730 N   0  3  0  0  0  0  0  0  0  0  0  0
  -19.0213  -22.3361   22.6468 N   0  3  0  0  0  0  0  0  0  0  0  0
  -24.6077  -29.3093   18.5125 O   0  0  0  0  0  0  0  0  0  0  0  0
  -26.4217  -17.0033   21.3289 O   0  0  0  0  0  0  0  0  0  0  0  0
  -30.0238  -17.1076   20.2296 O   0  0  0  0  0  0  0  0  0  0  0  0
  -29.9313  -21.7983   19.5161 O   0  0  0  0  0  0  0  0  0  0  0  0
  -20.5671  -24.3555   24.1767 O   0  0  0  0  0  0  0  0  0  0  0  0
  -27.8951  -32.1812   24.9570 O   0  0  0  0  0  0  0  0  0  0  0  0
  -23.2980  -21.7526   17.9835 O   0  0  0  0  0  0  0  0  0  1  0  0
  -29.7720  -36.9126   22.8368 F   0  0  0  0  0  0  0  0  0  0  0  0
  -27.6828  -34.5499   26.3665 F   0  0  0  0  0  0  0  0  0  0  0  0
  1  2  1  0  0  0  0
  1  5  2  0  0  0  0
  2  6  2  0  0  0  0
  3  8  2  0  0  0  0
  3 17  1  0  0  0  0
  4  9  1  0  0  0  0
  4 17  2  0  0  0  0
  5 19  1  0  0  0  0
  6 21  1  0  0  0  0
  7 10  2  0  0  0  0
  7 20  1  0  0  0  0
  8 25  1  0  0  0  0
  9 25  2  0  0  0  0
 10 26  1  0  0  0  0
 11 12  2  0  0  0  0
 11 27  1  0  0  0  0
 12 28  1  0  0  0  0
 13 22  1  0  0  0  0
 13 26  2  0  0  0  0
 14 23  2  0  0  0  0
 14 31  1  0  0  0  0
 15 28  2  0  0  0  0
 15 29  1  0  0  0  0
 16 24  2  0  0  0  0
 16 65  1  0  0  0  0
 17 30  1  0  0  0  0
 18 30  1  0  0  0  0
 18 32  2  0  0  0  0
 18 33  1  0  0  0  0
 19 21  2  0  0  0  0
 19 38  1  0  0  0  0
 20 22  2  0  0  0  0
 20 39  1  0  0  0  0
 21 47  1  0  0  0  0
 22 40  1  0  0  0  0
 23 24  1  0  0  0  0
 23 57  1  0  0  0  0
 24 58  1  0  0  0  0
 25 82  1  0  0  0  0
 26 83  1  0  0  0  0
 27 29  2  0  0  0  0
 27 82  1  0  0  0  0
 28 84  1  0  0  0  0
 29 85  1  0  0  0  0
 30 66  2  0  0  0  0
 31 65  2  0  0  0  0
 31 83  1  0  0  0  0
 32 67  1  0  0  0  0
 32 70  1  0  0  0  0
 33 71  1  0  0  0  0
 33 77  2  0  0  0  0
 34 48  1  0  0  0  0
 34 72  1  0  0  0  0
 34 78  2  0  0  0  0
 35 61  1  0  0  0  0
 35 68  1  0  0  0  0
 35 79  2  0  0  0  0
 36 62  1  0  0  0  0
 36 73  1  0  0  0  0
 36 80  2  0  0  0  0
 37 69  1  0  0  0  0
 37 74  1  0  0  0  0
 37 81  2  0  0  0  0
 38 41  1  0  0  0  0
 39 48  1  0  0  0  0
 40 68  1  0  0  0  0
 41 43  1  0  0  0  0
 42 44  1  0  0  0  0
 42 45  1  0  0  0  0
 43 47  1  0  0  0  0
 44 49  1  0  0  0  0
 45 69  1  0  0  0  0
 46 49  1  0  0  0  0
 46 69  1  0  0  0  0
 47 72  1  0  0  0  0
 48 68  1  0  0  0  0
 49 67  1  0  0  0  0
 50 62  1  0  0  0  0
 51 63  1  0  0  0  0
 52 63  1  0  0  0  0
 53 64  1  0  0  0  0
 54 64  1  0  0  0  0
 55 64  1  0  0  0  0
 56 75  1  0  0  0  0
 57 63  1  0  0  0  0
 58 76  1  0  0  0  0
 59 60  1  0  0  0  0
 59 74  1  0  0  0  0
 60 76  1  0  0  0  0
 61 64  1  0  0  0  0
 61 73  1  0  0  0  0
 62 75  1  0  0  0  0
 66 67  1  0  0  0  0
M  CHG  2  75   1  76   1
M  ISO  4  31 101  37 100  74 100  83 101
M  END
> <Batch ID>
0137

> <Smiles>
CNC(C)C(=O)NC(C(=O)N1Cc2cc([101O:1][101c:1]3cc(CC(C)C)c(CNCC[100NH:0][100C:0](=O)N4CCCC(n5nc(-c6ccc(Oc7ccc(F)cc7F)cc6)c(C(N)=O)c5N)C4)cn3)ccc2CC1C(=O)NC1CCCc2ccccc21)C(C)(C)C

> <Shape>
0.208

> <Color>
0.066

> <Negative vol penalty>
0.000

$$$$

  -OEChem-04052321053D

 87 96  0     1  0  0  0  0  0999 V2000
  -16.5326  -25.7240   22.3445 C   0  0  0  0  0  0  0  0  0  0  0  0
  -17.8421  -25.2604   22.2681 C   0  0  0  0  0  0  0  0  0  0  0  0
  -23.3256  -10.2767   22.2408 C   0  0  0  0  0  0  0  0  0  0  0  0
  -23.4098   -9.8079   19.8722 C   0  0  0  0  0  0  0  0  0  0  0  0
  -16.2518  -27.0632   22.0767 C   0  0  0  0  0  0  0  0  0  0  0  0
  -18.8713  -26.1356   21.9229 C   0  0  0  0  0  0  0  0  0  0  0  0
  -22.9463  -25.6060   24.8825 C   0  0  0  0  0  0  0  0  0  0  0  0
  -26.0838  -20.2728   22.9944 C   0  0  0  0  0  0  0  0  0  0  0  0
  -27.0529  -19.3269   22.6603 C   0  0  0  0  0  0  0  0  0  0  0  0
  -22.5215   -9.1536   22.4346 C   0  0  0  0  0  0  0  0  0  0  0  0
  -22.6057   -8.6847   20.0660 C   0  0  0  0  0  0  0  0  0  0  0  0
  -23.7872  -24.5252   24.6207 C   0  0  0  0  0  0  0  0  0  0  0  0
  -19.2717   -8.3176   22.0290 C   0  0  0  0  0  0  0  0  0  0  0  0
  -18.1543   -8.4557   22.8524 C   0  0  0  0  0  0  0  0  0  0  0  0
  -25.2942  -25.9917   23.4386 C   0  0  0  0  0  0  0  0  0  0  0  0
  -27.7349  -21.5263   24.2352 C   0  0  0  0  0  0  0  0  0  0  0  0
  -19.0294   -6.7525   24.3257 C   0  0  0  0  0  0  0  0  0  0  0  0
  -23.7698  -10.6039   20.9596 C   0  0  0  0  0  0  0  0  0  0  0  0
  -24.2768  -13.1022   21.0541 C   0  0  0  0  0  0  0  0  0  0  0  0
  -17.2794  -27.9573   21.7374 C   0  0  0  0  0  0  0  0  0  0  0  0
  -23.2682  -26.8880   24.4141 C   0  0  0  0  0  0  0  0  0  0  0  0
  -18.6038  -27.4876   21.6490 C   0  0  0  0  0  0  0  0  0  0  0  0
  -24.4570  -27.0876   23.6979 C   0  0  0  0  0  0  0  0  0  0  0  0
  -26.4247  -21.3725   23.7818 C   0  0  0  0  0  0  0  0  0  0  0  0
  -28.7040  -20.5804   23.9012 C   0  0  0  0  0  0  0  0  0  0  0  0
  -28.3631  -19.4807   23.1137 C   0  0  0  0  0  0  0  0  0  0  0  0
  -22.1615   -8.3576   21.3472 C   0  0  0  0  0  0  0  0  0  0  0  0
  -24.9599  -24.7174   23.8962 C   0  0  0  0  0  0  0  0  0  0  0  0
  -20.2679   -7.3969   22.3539 C   0  0  0  0  0  0  0  0  0  0  0  0
  -18.0332   -7.6732   24.0007 C   0  0  0  0  0  0  0  0  0  0  0  0
  -20.1468   -6.6144   23.5023 C   0  0  0  0  0  0  0  0  0  0  0  0
  -24.6000  -11.7643   20.7587 C   0  0  0  0  0  0  0  0  0  0  0  0
  -25.3907  -13.8147   20.6823 C   0  0  0  0  0  0  0  0  0  0  0  0
  -23.0771  -13.6519   21.6146 C   0  0  0  0  0  0  0  0  0  0  0  0
  -21.9059  -28.9552   22.4205 C   0  0  0  0  0  0  0  0  0  0  0  0
  -24.3046  -30.8988   23.4159 C   0  0  0  0  0  0  0  0  0  0  0  0
  -27.8317  -30.5861   24.1084 C   0  0  0  0  0  0  0  0  0  0  0  0
  -30.9318  -14.4662   20.5528 C   0  0  0  0  0  0  0  0  0  0  0  0
  -16.9206  -29.3853   21.4105 C   0  0  0  0  0  0  0  0  0  0  0  0
  -22.3639  -28.0483   24.7278 C   0  0  0  0  0  0  0  0  0  0  0  0
  -24.8582  -28.4477   23.1903 C   0  0  0  0  0  0  0  0  0  0  0  0
  -18.1188  -30.3312   21.4174 C   0  0  0  0  0  0  0  0  0  0  0  0
  -29.4698  -12.4068   18.0432 C   0  0  0  0  0  0  0  0  0  0  0  0
  -19.2863  -29.7195   20.6497 C   0  0  0  0  0  0  0  0  0  0  0  0
  -28.0487  -12.1615   18.5534 C   0  0  0  0  0  0  0  0  0  0  0  0
  -30.9751  -17.7122   21.1201 C   0  0  0  0  0  0  0  0  0  0  0  0
  -30.9371  -16.7844   23.4458 C   0  0  0  0  0  0  0  0  0  0  0  0
  -30.4806  -12.4493   19.1871 C   0  0  0  0  0  0  0  0  0  0  0  0
  -29.5869  -18.3144   21.3379 C   0  0  0  0  0  0  0  0  0  0  0  0
  -29.5432  -17.3755   23.6578 C   0  0  0  0  0  0  0  0  0  0  0  0
  -28.7342  -13.1558   20.7761 C   0  0  0  0  0  0  0  0  0  0  0  0
  -19.7508  -28.4117   21.3019 C   0  0  1  0  0  0  0  0  0  0  0  0
  -22.5330  -29.2160   23.7608 C   0  0  1  0  0  0  0  0  0  0  0  0
  -27.6715  -13.1603   19.6639 C   0  0  2  0  0  0  0  0  0  0  0  0
  -31.2317  -16.4746   21.9795 C   0  0  0  0  0  0  0  0  0  0  0  0
  -30.1805  -20.7466   25.9374 C   0  0  0  0  0  0  0  0  0  0  0  0
  -30.7455  -22.0586   23.8602 C   0  0  0  0  0  0  0  0  0  0  0  0
  -29.3136  -31.8965   25.6525 C   0  0  0  0  0  0  0  0  0  0  0  0
  -24.9125  -32.5757   20.9403 C   0  0  0  0  0  0  0  0  0  0  0  0
  -27.2885  -32.7306   21.7141 C   0  0  0  0  0  0  0  0  0  0  0  0
  -25.4582  -33.6874   23.1131 C   0  0  0  0  0  0  0  0  0  0  0  0
  -28.7289  -28.1396   25.5114 C   0  0  0  0  0  0  0  0  0  0  0  0
  -25.3818  -22.3897   24.1410 C   0  0  0  0  0  0  0  0  0  1  0  0
  -30.0996  -20.7698   24.4003 C   0  0  0  0  0  0  0  0  0  0  0  0
  -25.7155  -31.1771   22.9565 C   0  0  1  0  0  0  0  0  0  0  0  0
  -28.4970  -30.6262   25.4722 C   0  0  2  0  0  0  0  0  0  0  0  0
  -25.8314  -32.5173   22.1769 C   0  0  0  0  0  0  0  0  0  0  0  0
  -25.8233  -11.6320   20.2392 N   0  0  0  0  0  0  0  0  0  0  0  0
  -26.2786  -12.8959   20.2051 N   0  0  0  0  0  0  0  0  0  0  0  0
  -29.3234  -18.5207   22.7684 N   0  0  0  0  0  0  0  0  0  0  0  0
  -23.9379  -29.5494   23.5173 N   0  0  0  0  0  0  0  0  0  0  0  0
  -30.0651  -13.4168   20.2055 N   0  0  0  0  0  0  0  0  0  0  0  0
  -25.6874  -15.1311   20.7202 N   0  0  0  0  0  0  0  0  0  0  0  0
  -22.0302  -12.7785   21.9394 N   0  0  0  0  0  0  0  0  0  0  0  0
  -20.5511  -28.6887   22.4755 N   0  0  0  0  0  0  0  0  0  0  0  0
  -26.5545  -31.1043   24.1478 N   0  0  0  0  0  0  0  0  0  0  0  0
  -30.4580  -15.3421   21.5218 N   0  0  0  0  0  0  0  0  0  0  0  0
  -29.4047  -29.4562   25.6404 N   0  3  0  0  0  0  0  0  0  0  0  0
  -22.9312  -14.8830   21.8060 O   0  0  0  0  0  0  0  0  0  0  0  0
  -22.5995  -28.9944   21.4110 O   0  0  0  0  0  0  0  0  0  0  0  0
  -23.5578  -31.8438   23.6820 O   0  0  0  0  0  0  0  0  0  0  0  0
  -28.3904  -30.1430   23.1074 O   0  0  0  0  0  0  0  0  0  0  0  0
  -32.0432  -14.6148   20.0336 O   0  0  0  0  0  0  0  0  0  0  0  0
  -21.3771   -7.2615   21.5359 O   0  0  0  0  0  0  0  0  0  0  0  0
  -25.7822  -23.6641   23.6388 O   0  0  0  0  0  0  0  0  0  1  0  0
  -16.9608   -7.8071   24.7921 F   0  0  0  0  0  0  0  0  0  0  0  0
  -21.1012   -5.7290   23.8202 F   0  0  0  0  0  0  0  0  0  0  0  0
  1  2  1  0  0  0  0
  1  5  2  0  0  0  0
  2  6  2  0  0  0  0
  3 10  2  0  0  0  0
  3 18  1  0  0  0  0
  4 11  1  0  0  0  0
  4 18  2  0  0  0  0
  5 20  1  0  0  0  0
  6 22  1  0  0  0  0
  7 12  2  0  0  0  0
  7 21  1  0  0  0  0
  8  9  2  0  0  0  0
  8 24  1  0  0  0  0
  9 26  1  0  0  0  0
 10 27  1  0  0  0  0
 11 27  2  0  0  0  0
 12 28  1  0  0  0  0
 13 14  2  0  0  0  0
 13 29  1  0  0  0  0
 14 30  1  0  0  0  0
 15 23  1  0  0  0  0
 15 28  2  0  0  0  0
 16 24  2  0  0  0  0
 16 25  1  0  0  0  0
 17 30  2  0  0  0  0
 17 31  1  0  0  0  0
 18 32  1  0  0  0  0
 19 32  1  0  0  0  0
 19 33  2  0  0  0  0
 19 34  1  0  0  0  0
 20 22  2  0  0  0  0
 20 39  1  0  0  0  0
 21 23  2  0  0  0  0
 21 40  1  0  0  0  0
 22 52  1  0  0  0  0
 23 41  1  0  0  0  0
 24 63  1  0  0  0  0
 25 26  2  0  0  0  0
 25 64  1  0  0  0  0
 26 70  1  0  0  0  0
 27 84  1  0  0  0  0
 28 85  1  0  0  0  0
 29 31  2  0  0  0  0
 29 84  1  0  0  0  0
 30 86  1  0  0  0  0
 31 87  1  0  0  0  0
 32 68  2  0  0  0  0
 33 69  1  0  0  0  0
 33 73  1  0  0  0  0
 34 74  1  0  0  0  0
 34 79  2  0  0  0  0
 35 53  1  0  0  0  0
 35 75  1  0  0  0  0
 35 80  2  0  0  0  0
 36 65  1  0  0  0  0
 36 71  1  0  0  0  0
 36 81  2  0  0  0  0
 37 66  1  0  0  0  0
 37 76  1  0  0  0  0
 37 82  2  0  0  0  0
 38 72  1  0  0  0  0
 38 77  1  0  0  0  0
 38 83  2  0  0  0  0
 39 42  1  0  0  0  0
 40 53  1  0  0  0  0
 41 71  1  0  0  0  0
 42 44  1  0  0  0  0
 43 45  1  0  0  0  0
 43 48  1  0  0  0  0
 44 52  1  0  0  0  0
 45 54  1  0  0  0  0
 46 49  1  0  0  0  0
 46 55  1  0  0  0  0
 47 50  1  0  0  0  0
 47 55  1  0  0  0  0
 48 72  1  0  0  0  0
 49 70  1  0  0  0  0
 50 70  1  0  0  0  0
 51 54  1  0  0  0  0
 51 72  1  0  0  0  0
 52 75  1  0  0  0  0
 53 71  1  0  0  0  0
 54 69  1  0  0  0  0
 55 77  1  0  0  0  0
 56 64  1  0  0  0  0
 57 64  1  0  0  0  0
 58 66  1  0  0  0  0
 59 67  1  0  0  0  0
 60 67  1  0  0  0  0
 61 67  1  0  0  0  0
 62 78  1  0  0  0  0
 63 85  1  0  0  0  0
 65 67  1  0  0  0  0
 65 76  1  0  0  0  0
 66 78  1  0  0  0  0
 68 69  1  0  0  0  0
M  CHG  1  78   1
M  ISO  4  38 100  63 101  77 100  85 101
M  END
> <Batch ID>
0137

> <Smiles>
CNC(C)C(=O)NC(C(=O)N1Cc2cc([101O:1][101CH2:1]c3ccc(N4CCC([100NH:0][100C:0](=O)N5CCCC(n6nc(-c7ccc(Oc8ccc(F)cc8F)cc7)c(C(N)=O)c6N)C5)CC4)c(C(C)C)c3)ccc2CC1C(=O)NC1CCCc2ccccc21)C(C)(C)C

> <Shape>
0.297

> <Color>
0.206

> <Negative vol penalty>
0.000

$$$$

  -OEChem-04052321053D

 86 96  0     1  0  0  0  0  0999 V2000
  -28.3117  -32.6943   20.5537 C   0  0  0  0  0  0  0  0  0  0  0  0
  -27.8303  -31.4499   20.1596 C   0  0  0  0  0  0  0  0  0  0  0  0
  -25.3644  -13.9372   18.7747 C   0  0  0  0  0  0  0  0  0  0  0  0
  -26.2006  -13.3020   20.9505 C   0  0  0  0  0  0  0  0  0  0  0  0
  -27.9005  -33.2477   21.7655 C   0  0  0  0  0  0  0  0  0  0  0  0
  -26.9381  -30.7578   20.9777 C   0  0  0  0  0  0  0  0  0  0  0  0
  -23.0665  -28.7722   18.3868 C   0  0  0  0  0  0  0  0  0  0  0  0
  -24.2107  -13.1859   18.9987 C   0  0  0  0  0  0  0  0  0  0  0  0
  -25.0468  -12.5507   21.1746 C   0  0  0  0  0  0  0  0  0  0  0  0
  -23.3120  -27.5992   17.6744 C   0  0  0  0  0  0  0  0  0  0  0  0
  -23.8241   -9.5321   20.2668 C   0  0  0  0  0  0  0  0  0  0  0  0
  -23.9772   -8.2537   20.8031 C   0  0  0  0  0  0  0  0  0  0  0  0
  -22.3001  -26.3166   19.4493 C   0  0  0  0  0  0  0  0  0  0  0  0
  -27.2727  -24.8008   18.7735 C   0  0  0  0  0  0  0  0  0  0  0  0
  -27.0343  -22.4083   18.8317 C   0  0  0  0  0  0  0  0  0  0  0  0
  -22.6378   -8.8930   22.7095 C   0  0  0  0  0  0  0  0  0  0  0  0
  -26.3594  -13.9952   19.7506 C   0  0  0  0  0  0  0  0  0  0  0  0
  -28.4912  -14.5975   18.4856 C   0  0  0  0  0  0  0  0  0  0  0  0
  -26.9953  -32.5663   22.5944 C   0  0  0  0  0  0  0  0  0  0  0  0
  -22.4447  -28.7252   19.6429 C   0  0  0  0  0  0  0  0  0  0  0  0
  -26.5154  -31.3020   22.2024 C   0  0  0  0  0  0  0  0  0  0  0  0
  -22.0455  -27.4906   20.1745 C   0  0  0  0  0  0  0  0  0  0  0  0
  -26.6870  -23.6385   18.2845 C   0  0  0  0  0  0  0  0  0  0  0  0
  -24.0519  -12.4927   20.1986 C   0  0  0  0  0  0  0  0  0  0  0  0
  -22.9314  -26.3709   18.2069 C   0  0  0  0  0  0  0  0  0  0  0  0
  -23.0779  -10.4911   20.9518 C   0  0  0  0  0  0  0  0  0  0  0  0
  -23.3841   -7.9341   22.0244 C   0  0  0  0  0  0  0  0  0  0  0  0
  -22.4847  -10.1715   22.1731 C   0  0  0  0  0  0  0  0  0  0  0  0
  -27.5516  -14.7706   19.5195 C   0  0  0  0  0  0  0  0  0  0  0  0
  -28.1928  -24.6802   19.8024 C   0  0  0  0  0  0  0  0  0  0  0  0
  -27.9652  -22.3947   19.8579 C   0  0  0  0  0  0  0  0  0  0  0  0
  -29.4284  -15.5771   18.7058 C   0  0  0  0  0  0  0  0  0  0  0  0
  -28.5147  -13.6371   17.4213 C   0  0  0  0  0  0  0  0  0  0  0  0
  -23.2888  -29.5450   22.5957 C   0  0  0  0  0  0  0  0  0  0  0  0
  -20.2082  -28.7843   23.2695 C   0  0  0  0  0  0  0  0  0  0  0  0
  -17.8716  -26.1964   22.3422 C   0  0  0  0  0  0  0  0  0  0  0  0
  -29.2189  -20.8866   21.4391 C   0  0  0  0  0  0  0  0  0  0  0  0
  -26.6163  -33.1834   23.9173 C   0  0  0  0  0  0  0  0  0  0  0  0
  -22.1629  -30.0018   20.3867 C   0  0  0  0  0  0  0  0  0  0  0  0
  -21.3565  -27.3877   21.5098 C   0  0  0  0  0  0  0  0  0  0  0  0
  -25.3784  -32.5538   24.5508 C   0  0  0  0  0  0  0  0  0  0  0  0
  -31.3796  -18.1690   22.2284 C   0  0  0  0  0  0  0  0  0  0  0  0
  -25.4677  -31.0319   24.4992 C   0  0  0  0  0  0  0  0  0  0  0  0
  -28.7407  -26.1999   21.8184 C   0  0  0  0  0  0  0  0  0  0  0  0
  -27.9617  -27.0320   20.8483 C   0  0  0  0  0  0  0  0  0  0  0  0
  -30.7320  -16.9745   21.5242 C   0  0  0  0  0  0  0  0  0  0  0  0
  -26.0818  -22.9312   15.9116 C   0  0  0  0  0  0  0  0  0  0  0  0
  -30.3344  -19.1283   22.7951 C   0  0  0  0  0  0  0  0  0  0  0  0
  -28.6773  -18.3915   21.1277 C   0  0  0  0  0  0  0  0  0  0  0  0
  -24.7974  -22.8825   15.1066 C   0  0  0  0  0  0  0  0  0  0  0  0
  -25.6779  -23.7119   17.1629 C   0  0  1  0  0  0  0  0  0  0  0  0
  -25.5272  -30.5315   23.0509 C   0  0  1  0  0  0  0  0  0  0  0  0
  -28.8347  -25.9139   20.3429 C   0  0  0  0  0  0  0  0  0  0  0  0
  -21.9869  -29.7924   21.8876 C   0  0  1  0  0  0  0  0  0  0  0  0
  -29.6902  -17.4307   20.4839 C   0  0  2  0  0  0  0  0  0  0  0  0
  -24.3065  -23.1120   17.4957 C   0  0  1  0  0  0  0  0  0  0  0  0
  -15.3642  -26.2212   22.2433 C   0  0  0  0  0  0  0  0  0  0  0  0
  -20.3743  -27.6569   26.0999 C   0  0  0  0  0  0  0  0  0  0  0  0
  -18.4195  -26.1903   25.5556 C   0  0  0  0  0  0  0  0  0  0  0  0
  -18.1661  -28.6715   25.5090 C   0  0  0  0  0  0  0  0  0  0  0  0
  -17.8589  -25.3276   19.5131 C   0  0  0  0  0  0  0  0  0  0  0  0
  -23.3915  -24.0387   18.2764 C   0  0  0  0  0  0  0  0  0  1  0  0
  -19.4832  -27.5255   23.6803 C   0  0  1  0  0  0  0  0  0  0  0  0
  -16.6542  -26.3489   21.4482 C   0  0  2  0  0  0  0  0  0  0  0  0
  -19.1344  -27.5102   25.1954 C   0  0  0  0  0  0  0  0  0  0  0  0
  -27.8635  -15.7806   20.3360 N   0  0  0  0  0  0  0  0  0  0  0  0
  -28.5554  -23.5029   20.3592 N   0  0  0  0  0  0  0  0  0  0  0  0
  -29.0097  -16.2510   19.8152 N   0  0  0  0  0  0  0  0  0  0  0  0
  -21.1087  -28.6635   22.2016 N   0  0  0  0  0  0  0  0  0  0  0  0
  -29.3842  -19.5208   21.7521 N   0  0  0  0  0  0  0  0  0  0  0  0
  -30.5616  -15.9192   18.0567 N   0  0  0  0  0  0  0  0  0  0  0  0
  -29.1671  -12.4157   17.6378 N   0  0  0  0  0  0  0  0  0  0  0  0
  -28.3130  -21.1364   20.4088 N   0  0  0  0  0  0  0  0  0  0  0  0
  -24.2107  -30.5640   22.4505 N   0  0  0  0  0  0  0  0  0  0  0  0
  -18.3254  -27.4155   22.7995 N   0  0  0  0  0  0  0  0  0  0  0  0
  -23.7067  -22.8310   16.1383 N   0  3  0  0  0  0  0  0  0  0  0  0
  -16.6572  -25.3033   20.3862 N   0  3  0  0  0  0  0  0  0  0  0  0
  -27.9874  -13.8622   16.3056 O   0  0  0  0  0  0  0  0  0  0  0  0
  -23.4448  -28.5070   23.2282 O   0  0  0  0  0  0  0  0  0  0  0  0
  -19.9787  -29.8375   23.8692 O   0  0  0  0  0  0  0  0  0  0  0  0
  -18.3678  -25.1046   22.6113 O   0  0  0  0  0  0  0  0  0  0  0  0
  -29.8558  -21.7677   22.0221 O   0  0  0  0  0  0  0  0  0  0  0  0
  -22.9262  -11.7597   20.4176 O   0  0  0  0  0  0  0  0  0  0  0  0
  -23.1704  -25.2244   17.5139 O   0  0  0  0  0  0  0  0  0  1  0  0
  -23.5299   -6.7059   22.5386 F   0  0  0  0  0  0  0  0  0  0  0  0
  -21.7657  -11.0882   22.8353 F   0  0  0  0  0  0  0  0  0  0  0  0
  1  2  1  0  0  0  0
  1  5  2  0  0  0  0
  2  6  2  0  0  0  0
  3  8  2  0  0  0  0
  3 17  1  0  0  0  0
  4  9  1  0  0  0  0
  4 17  2  0  0  0  0
  5 19  1  0  0  0  0
  6 21  1  0  0  0  0
  7 10  2  0  0  0  0
  7 20  1  0  0  0  0
  8 24  1  0  0  0  0
  9 24  2  0  0  0  0
 10 25  1  0  0  0  0
 11 12  2  0  0  0  0
 11 26  1  0  0  0  0
 12 27  1  0  0  0  0
 13 22  1  0  0  0  0
 13 25  2  0  0  0  0
 14 23  2  0  0  0  0
 14 30  1  0  0  0  0
 15 23  1  0  0  0  0
 15 31  2  0  0  0  0
 16 27  2  0  0  0  0
 16 28  1  0  0  0  0
 17 29  1  0  0  0  0
 18 29  1  0  0  0  0
 18 32  2  0  0  0  0
 18 33  1  0  0  0  0
 19 21  2  0  0  0  0
 19 38  1  0  0  0  0
 20 22  2  0  0  0  0
 20 39  1  0  0  0  0
 21 52  1  0  0  0  0
 22 40  1  0  0  0  0
 23 51  1  0  0  0  0
 24 83  1  0  0  0  0
 25 84  1  0  0  0  0
 26 28  2  0  0  0  0
 26 83  1  0  0  0  0
 27 85  1  0  0  0  0
 28 86  1  0  0  0  0
 29 66  2  0  0  0  0
 30 53  1  0  0  0  0
 30 67  2  0  0  0  0
 31 67  1  0  0  0  0
 31 73  1  0  0  0  0
 32 68  1  0  0  0  0
 32 71  1  0  0  0  0
 33 72  1  0  0  0  0
 33 78  2  0  0  0  0
 34 54  1  0  0  0  0
 34 74  1  0  0  0  0
 34 79  2  0  0  0  0
 35 63  1  0  0  0  0
 35 69  1  0  0  0  0
 35 80  2  0  0  0  0
 36 64  1  0  0  0  0
 36 75  1  0  0  0  0
 36 81  2  0  0  0  0
 37 70  1  0  0  0  0
 37 73  1  0  0  0  0
 37 82  2  0  0  0  0
 38 41  1  0  0  0  0
 39 54  1  0  0  0  0
 40 69  1  0  0  0  0
 41 43  1  0  0  0  0
 42 46  1  0  0  0  0
 42 48  1  0  0  0  0
 43 52  1  0  0  0  0
 44 45  1  0  0  0  0
 44 53  1  0  0  0  0
 45 53  1  0  0  0  0
 46 55  1  0  0  0  0
 47 50  1  0  0  0  0
 47 51  1  0  0  0  0
 48 70  1  0  0  0  0
 49 55  1  0  0  0  0
 49 70  1  0  0  0  0
 50 76  1  0  0  0  0
 51 56  1  0  0  0  0
 52 74  1  0  0  0  0
 54 69  1  0  0  0  0
 55 68  1  0  0  0  0
 56 62  1  0  0  0  0
 56 76  1  0  0  0  0
 57 64  1  0  0  0  0
 58 65  1  0  0  0  0
 59 65  1  0  0  0  0
 60 65  1  0  0  0  0
 61 77  1  0  0  0  0
 62 84  1  0  0  0  0
 63 65  1  0  0  0  0
 63 75  1  0  0  0  0
 64 77  1  0  0  0  0
 66 68  1  0  0  0  0
M  CHG  2  76   1  77   1
M  ISO  4  37 100  62 101  73 100  84 101
M  END
> <Batch ID>
0137

> <Smiles>
CNC(C)C(=O)NC(C(=O)N1Cc2cc([101O:1][101CH2:1]C3NCCC3c3cc([100NH:0][100C:0](=O)N4CCCC(n5nc(-c6ccc(Oc7ccc(F)cc7F)cc6)c(C(N)=O)c5N)C4)nc(C4CC4)c3)ccc2CC1C(=O)NC1CCCc2ccccc21)C(C)(C)C

> <Shape>
0.287

> <Color>
0.042

> <Negative vol penalty>
0.000

$$$$

  -OEChem-04052321053D

 85 94  0     1  0  0  0  0  0999 V2000
  -30.7557  -34.3721   19.9592 C   0  0  0  0  0  0  0  0  0  0  0  0
  -30.9456  -32.9943   19.9305 C   0  0  0  0  0  0  0  0  0  0  0  0
  -22.9365  -10.1996   20.2695 C   0  0  0  0  0  0  0  0  0  0  0  0
  -24.2603   -9.3278   22.0929 C   0  0  0  0  0  0  0  0  0  0  0  0
  -29.6494  -34.9087   20.6167 C   0  0  0  0  0  0  0  0  0  0  0  0
  -30.0298  -32.1521   20.5603 C   0  0  0  0  0  0  0  0  0  0  0  0
  -28.3025  -26.5681   18.7327 C   0  0  0  0  0  0  0  0  0  0  0  0
  -22.1734   -9.0320   20.2653 C   0  0  0  0  0  0  0  0  0  0  0  0
  -23.4971   -8.1603   22.0888 C   0  0  0  0  0  0  0  0  0  0  0  0
  -28.6995  -25.2893   19.1213 C   0  0  0  0  0  0  0  0  0  0  0  0
  -20.4724   -7.1596   23.2157 C   0  0  0  0  0  0  0  0  0  0  0  0
  -20.0437   -6.6630   24.4466 C   0  0  0  0  0  0  0  0  0  0  0  0
  -28.8436  -21.1524   22.9376 C   0  0  0  0  0  0  0  0  0  0  0  0
  -26.8258  -25.1745   20.6363 C   0  0  0  0  0  0  0  0  0  0  0  0
  -28.0111  -20.3001   20.8358 C   0  0  0  0  0  0  0  0  0  0  0  0
  -21.2375   -4.6039   24.0317 C   0  0  0  0  0  0  0  0  0  0  0  0
  -23.9800  -10.3475   21.1833 C   0  0  0  0  0  0  0  0  0  0  0  0
  -24.5246  -12.7263   21.9263 C   0  0  0  0  0  0  0  0  0  0  0  0
  -28.7145  -34.0721   21.2466 C   0  0  0  0  0  0  0  0  0  0  0  0
  -27.1684  -27.1649   19.3019 C   0  0  0  0  0  0  0  0  0  0  0  0
  -28.9107  -32.6780   21.2280 C   0  0  0  0  0  0  0  0  0  0  0  0
  -29.4029  -19.9065   23.2213 C   0  0  0  0  0  0  0  0  0  0  0  0
  -26.4150  -26.4598   20.2513 C   0  0  0  0  0  0  0  0  0  0  0  0
  -28.1476  -21.3492   21.7449 C   0  0  0  0  0  0  0  0  0  0  0  0
  -28.5705  -19.0542   21.1194 C   0  0  0  0  0  0  0  0  0  0  0  0
  -22.4537   -8.0124   21.1749 C   0  0  0  0  0  0  0  0  0  0  0  0
  -27.9628  -24.5935   20.0753 C   0  0  0  0  0  0  0  0  0  0  0  0
  -21.2836   -6.3783   22.3927 C   0  0  0  0  0  0  0  0  0  0  0  0
  -29.2664  -18.8574   22.3122 C   0  0  0  0  0  0  0  0  0  0  0  0
  -20.4262   -5.3852   24.8547 C   0  0  0  0  0  0  0  0  0  0  0  0
  -21.6662   -5.1005   22.8008 C   0  0  0  0  0  0  0  0  0  0  0  0
  -24.7691  -11.5531   21.1877 C   0  0  0  0  0  0  0  0  0  0  0  0
  -25.5537  -13.5688   21.5831 C   0  0  0  0  0  0  0  0  0  0  0  0
  -23.4624  -13.0276   22.8410 C   0  0  0  0  0  0  0  0  0  0  0  0
  -26.6415  -29.7674   21.0493 C   0  0  0  0  0  0  0  0  0  0  0  0
  -23.5319  -28.9440   20.6318 C   0  0  0  0  0  0  0  0  0  0  0  0
  -21.2457  -26.4962   19.9770 C   0  0  0  0  0  0  0  0  0  0  0  0
  -30.9722  -14.4906   20.6162 C   0  0  0  0  0  0  0  0  0  0  0  0
  -27.5596  -34.7009   21.9852 C   0  0  0  0  0  0  0  0  0  0  0  0
  -26.7380  -28.5343   18.8525 C   0  0  0  0  0  0  0  0  0  0  0  0
  -25.1781  -27.0480   20.8778 C   0  0  0  0  0  0  0  0  0  0  0  0
  -26.4357  -33.7193   22.3071 C   0  0  0  0  0  0  0  0  0  0  0  0
  -29.0287  -13.2017   17.9258 C   0  0  0  0  0  0  0  0  0  0  0  0
  -29.7227  -18.6058   25.4304 C   0  0  0  0  0  0  0  0  0  0  0  0
  -29.4519  -20.0302   25.8021 C   0  0  0  0  0  0  0  0  0  0  0  0
  -27.0044  -32.4277   22.8860 C   0  0  0  0  0  0  0  0  0  0  0  0
  -27.7304  -12.7492   18.5964 C   0  0  0  0  0  0  0  0  0  0  0  0
  -30.2421  -12.9507   18.8183 C   0  0  0  0  0  0  0  0  0  0  0  0
  -28.8444  -13.0705   20.8446 C   0  0  0  0  0  0  0  0  0  0  0  0
  -30.1439  -19.7143   24.5029 C   0  0  0  0  0  0  0  0  0  0  0  0
  -27.9262  -31.7304   21.8782 C   0  0  1  0  0  0  0  0  0  0  0  0
  -25.8604  -29.2503   19.8745 C   0  0  1  0  0  0  0  0  0  0  0  0
  -27.5867  -13.3546   20.0057 C   0  0  2  0  0  0  0  0  0  0  0  0
  -28.4131  -17.9433   20.1339 C   0  0  0  0  0  0  0  0  0  0  0  0
  -18.7762  -26.1202   19.7380 C   0  0  0  0  0  0  0  0  0  0  0  0
  -23.2220  -29.0673   23.6647 C   0  0  0  0  0  0  0  0  0  0  0  0
  -21.0812  -27.7910   23.4281 C   0  0  0  0  0  0  0  0  0  0  0  0
  -21.3109  -30.0431   22.3803 C   0  0  0  0  0  0  0  0  0  0  0  0
  -21.5351  -25.6098   17.1682 C   0  0  0  0  0  0  0  0  0  0  0  0
  -27.5474  -22.6899   21.4391 C   0  0  0  0  0  0  0  0  0  1  0  0
  -31.5657  -15.9971   22.4969 C   0  0  0  0  0  0  0  0  0  0  0  0
  -31.1501  -17.4150   22.1480 C   0  0  0  0  0  0  0  0  0  0  0  0
  -22.5458  -28.0779   21.3778 C   0  0  1  0  0  0  0  0  0  0  0  0
  -20.0736  -26.4443   19.0138 C   0  0  2  0  0  0  0  0  0  0  0  0
  -22.0643  -28.7342   22.7025 C   0  0  0  0  0  0  0  0  0  0  0  0
  -25.8672  -11.6388   20.4322 N   0  0  0  0  0  0  0  0  0  0  0  0
  -26.3218  -12.8761   20.6942 N   0  0  0  0  0  0  0  0  0  0  0  0
  -24.8016  -28.3922   20.4101 N   0  0  0  0  0  0  0  0  0  0  0  0
  -30.0426  -13.5517   20.1393 N   0  0  0  0  0  0  0  0  0  0  0  0
  -25.8673  -14.8272   21.9580 N   0  0  0  0  0  0  0  0  0  0  0  0
  -22.4881  -12.0487   23.0793 N   0  0  0  0  0  0  0  0  0  0  0  0
  -27.1463  -31.0415   20.8724 N   0  0  0  0  0  0  0  0  0  0  0  0
  -21.4732  -27.7764   20.4361 N   0  0  0  0  0  0  0  0  0  0  0  0
  -30.7050  -15.0161   21.8744 N   0  0  0  0  0  0  0  0  0  0  0  0
  -20.3039  -25.4025   17.9733 N   0  3  0  0  0  0  0  0  0  0  0  0
  -23.3706  -14.1382   23.4169 O   0  0  0  0  0  0  0  0  0  0  0  0
  -26.7751  -29.0632   22.0433 O   0  0  0  0  0  0  0  0  0  0  0  0
  -23.1859  -30.0659   20.2532 O   0  0  0  0  0  0  0  0  0  0  0  0
  -21.8924  -25.5002   20.2935 O   0  0  0  0  0  0  0  0  0  0  0  0
  -31.9639  -14.8389   19.9663 O   0  0  0  0  0  0  0  0  0  0  0  0
  -21.7091   -6.8730   21.1713 O   0  0  0  0  0  0  0  0  0  0  0  0
  -28.3486  -23.3455   20.4569 O   0  0  0  0  0  0  0  0  0  1  0  0
  -29.8128  -17.6383   22.5880 O   0  0  0  0  0  0  0  0  0  0  0  0
  -20.0157   -4.9090   26.0374 F   0  0  0  0  0  0  0  0  0  0  0  0
  -22.4464   -4.3457   22.0150 F   0  0  0  0  0  0  0  0  0  0  0  0
  1  2  1  0  0  0  0
  1  5  2  0  0  0  0
  2  6  2  0  0  0  0
  3  8  2  0  0  0  0
  3 17  1  0  0  0  0
  4  9  1  0  0  0  0
  4 17  2  0  0  0  0
  5 19  1  0  0  0  0
  6 21  1  0  0  0  0
  7 10  2  0  0  0  0
  7 20  1  0  0  0  0
  8 26  1  0  0  0  0
  9 26  2  0  0  0  0
 10 27  1  0  0  0  0
 11 12  2  0  0  0  0
 11 28  1  0  0  0  0
 12 30  1  0  0  0  0
 13 22  1  0  0  0  0
 13 24  2  0  0  0  0
 14 23  1  0  0  0  0
 14 27  2  0  0  0  0
 15 24  1  0  0  0  0
 15 25  2  0  0  0  0
 16 30  2  0  0  0  0
 16 31  1  0  0  0  0
 17 32  1  0  0  0  0
 18 32  1  0  0  0  0
 18 33  2  0  0  0  0
 18 34  1  0  0  0  0
 19 21  2  0  0  0  0
 19 39  1  0  0  0  0
 20 23  2  0  0  0  0
 20 40  1  0  0  0  0
 21 51  1  0  0  0  0
 22 29  2  0  0  0  0
 22 50  1  0  0  0  0
 23 41  1  0  0  0  0
 24 60  1  0  0  0  0
 25 29  1  0  0  0  0
 25 54  1  0  0  0  0
 26 81  1  0  0  0  0
 27 82  1  0  0  0  0
 28 31  2  0  0  0  0
 28 81  1  0  0  0  0
 29 83  1  0  0  0  0
 30 84  1  0  0  0  0
 31 85  1  0  0  0  0
 32 66  2  0  0  0  0
 33 67  1  0  0  0  0
 33 70  1  0  0  0  0
 34 71  1  0  0  0  0
 34 76  2  0  0  0  0
 35 52  1  0  0  0  0
 35 72  1  0  0  0  0
 35 77  2  0  0  0  0
 36 63  1  0  0  0  0
 36 68  1  0  0  0  0
 36 78  2  0  0  0  0
 37 64  1  0  0  0  0
 37 73  1  0  0  0  0
 37 79  2  0  0  0  0
 38 69  1  0  0  0  0
 38 74  1  0  0  0  0
 38 80  2  0  0  0  0
 39 42  1  0  0  0  0
 40 52  1  0  0  0  0
 41 68  1  0  0  0  0
 42 46  1  0  0  0  0
 43 47  1  0  0  0  0
 43 48  1  0  0  0  0
 44 45  1  0  0  0  0
 44 50  1  0  0  0  0
 45 50  1  0  0  0  0
 46 51  1  0  0  0  0
 47 53  1  0  0  0  0
 48 69  1  0  0  0  0
 49 53  1  0  0  0  0
 49 69  1  0  0  0  0
 51 72  1  0  0  0  0
 52 68  1  0  0  0  0
 53 67  1  0  0  0  0
 55 64  1  0  0  0  0
 56 65  1  0  0  0  0
 57 65  1  0  0  0  0
 58 65  1  0  0  0  0
 59 75  1  0  0  0  0
 60 82  1  0  0  0  0
 61 62  1  0  0  0  0
 61 74  1  0  0  0  0
 62 83  1  0  0  0  0
 63 65  1  0  0  0  0
 63 73  1  0  0  0  0
 64 75  1  0  0  0  0
 66 67  1  0  0  0  0
M  CHG  1  75   1
M  ISO  4  38 100  60 101  74 100  82 101
M  END
> <Batch ID>
0137

> <Smiles>
CNC(C)C(=O)NC(C(=O)N1Cc2cc([101O:1][101CH2:1]c3cc(C)c(OCC[100NH:0][100C:0](=O)N4CCCC(n5nc(-c6ccc(Oc7ccc(F)cc7F)cc6)c(C(N)=O)c5N)C4)c(C4CC4)c3)ccc2CC1C(=O)NC1CCCc2ccccc21)C(C)(C)C

> <Shape>
0.328

> <Color>
0.142

> <Negative vol penalty>
0.000

$$$$

  -OEChem-04052321053D

 87 96  0     1  0  0  0  0  0999 V2000
  -23.5292   -7.5636   24.4315 C   0  0  0  0  0  0  0  0  0  0  0  0
  -24.5989   -8.4285   24.6394 C   0  0  0  0  0  0  0  0  0  0  0  0
  -31.3912  -22.2595   23.7945 C   0  0  0  0  0  0  0  0  0  0  0  0
  -30.0860  -22.0861   24.2549 C   0  0  0  0  0  0  0  0  0  0  0  0
  -24.6718  -30.9495   19.7196 C   0  0  0  0  0  0  0  0  0  0  0  0
  -24.3128  -30.0749   21.9429 C   0  0  0  0  0  0  0  0  0  0  0  0
  -22.8594   -7.5665   23.2086 C   0  0  0  0  0  0  0  0  0  0  0  0
  -25.0001   -9.2960   23.6241 C   0  0  0  0  0  0  0  0  0  0  0  0
  -27.7855  -15.8209   22.6327 C   0  0  0  0  0  0  0  0  0  0  0  0
  -31.6918  -22.0385   22.4505 C   0  0  0  0  0  0  0  0  0  0  0  0
  -29.0814  -21.6917   23.3713 C   0  0  0  0  0  0  0  0  0  0  0  0
  -23.8632  -32.0456   20.0202 C   0  0  0  0  0  0  0  0  0  0  0  0
  -23.5042  -31.1710   22.2436 C   0  0  0  0  0  0  0  0  0  0  0  0
  -28.8357  -16.4544   21.9697 C   0  0  0  0  0  0  0  0  0  0  0  0
  -23.9238  -34.4125   23.1022 C   0  0  0  0  0  0  0  0  0  0  0  0
  -24.1199  -35.0430   24.3308 C   0  0  0  0  0  0  0  0  0  0  0  0
  -27.5540  -16.4273   19.9262 C   0  0  0  0  0  0  0  0  0  0  0  0
  -21.8358  -34.5529   24.9470 C   0  0  0  0  0  0  0  0  0  0  0  0
  -24.8965  -29.9641   20.6810 C   0  0  0  0  0  0  0  0  0  0  0  0
  -27.1229  -28.7253   20.5541 C   0  0  0  0  0  0  0  0  0  0  0  0
  -23.2465   -8.4413   22.1812 C   0  0  0  0  0  0  0  0  0  0  0  0
  -26.6140  -15.4756   21.9438 C   0  0  0  0  0  0  0  0  0  0  0  0
  -24.3357   -9.3096   22.3859 C   0  0  0  0  0  0  0  0  0  0  0  0
  -26.4893  -15.7919   20.5834 C   0  0  0  0  0  0  0  0  0  0  0  0
  -30.6872  -21.6440   21.5669 C   0  0  0  0  0  0  0  0  0  0  0  0
  -29.3819  -21.4706   22.0273 C   0  0  0  0  0  0  0  0  0  0  0  0
  -23.2795  -32.1564   21.2822 C   0  0  0  0  0  0  0  0  0  0  0  0
  -28.7212  -16.7550   20.6156 C   0  0  0  0  0  0  0  0  0  0  0  0
  -22.6836  -33.8523   22.7959 C   0  0  0  0  0  0  0  0  0  0  0  0
  -23.0760  -35.1132   25.2532 C   0  0  0  0  0  0  0  0  0  0  0  0
  -21.6396  -33.9224   23.7183 C   0  0  0  0  0  0  0  0  0  0  0  0
  -25.7312  -28.8313   20.3708 C   0  0  0  0  0  0  0  0  0  0  0  0
  -27.4328  -27.4635   20.1087 C   0  0  0  0  0  0  0  0  0  0  0  0
  -28.0525  -29.6819   21.0800 C   0  0  0  0  0  0  0  0  0  0  0  0
  -32.2437  -19.2483   19.9437 C   0  0  0  0  0  0  0  0  0  0  0  0
  -25.1212  -12.7479   21.2840 C   0  0  0  0  0  0  0  0  0  0  0  0
  -22.8467  -14.7325   20.0962 C   0  0  0  0  0  0  0  0  0  0  0  0
  -22.0588  -17.7902   18.8015 C   0  0  0  0  0  0  0  0  0  0  0  0
  -26.3617  -21.9923   19.8552 C   0  0  0  0  0  0  0  0  0  0  0  0
  -22.5222   -8.3749   20.8600 C   0  0  0  0  0  0  0  0  0  0  0  0
  -25.4796  -14.8167   22.6796 C   0  0  0  0  0  0  0  0  0  0  0  0
  -25.2445  -15.4605   19.8030 C   0  0  0  0  0  0  0  0  0  0  0  0
  -22.7712   -9.5879   19.9673 C   0  0  0  0  0  0  0  0  0  0  0  0
  -24.6528  -24.1002   17.5502 C   0  0  0  0  0  0  0  0  0  0  0  0
  -24.2590   -9.9218   19.9232 C   0  0  0  0  0  0  0  0  0  0  0  0
  -24.8905  -25.5089   18.0971 C   0  0  0  0  0  0  0  0  0  0  0  0
  -24.4762  -23.0810   18.6736 C   0  0  0  0  0  0  0  0  0  0  0  0
  -25.8008  -24.4724   20.2174 C   0  0  0  0  0  0  0  0  0  0  0  0
  -33.3498  -17.0282   19.8061 C   0  0  0  0  0  0  0  0  0  0  0  0
  -31.4023  -15.6457   20.2988 C   0  0  0  0  0  0  0  0  0  0  0  0
  -24.7849  -10.2828   21.3176 C   0  0  1  0  0  0  0  0  0  0  0  0
  -32.0790  -17.8144   19.5526 C   0  0  1  0  0  0  0  0  0  0  0  0
  -24.5366  -14.0480   21.7591 C   0  0  1  0  0  0  0  0  0  0  0  0
  -26.0403  -25.5257   19.1222 C   0  0  2  0  0  0  0  0  0  0  0  0
  -31.0568  -17.1173   20.4388 C   0  0  1  0  0  0  0  0  0  1  0  0
  -20.1256  -19.1040   17.8883 C   0  0  0  0  0  0  0  0  0  0  0  0
  -23.0082  -13.1540   17.4900 C   0  0  0  0  0  0  0  0  0  0  0  0
  -21.8125  -15.0387   16.3557 C   0  0  0  0  0  0  0  0  0  0  0  0
  -20.6896  -13.7761   18.1909 C   0  0  0  0  0  0  0  0  0  0  0  0
  -22.3053  -19.8445   20.9177 C   0  0  0  0  0  0  0  0  0  0  0  0
  -31.0338  -21.4130   20.1244 C   0  0  0  0  0  0  0  0  0  0  0  0
  -28.2898  -21.0481   21.1002 C   0  0  0  0  0  0  0  0  0  0  0  0
  -22.5750  -15.3642   18.7523 C   0  0  1  0  0  0  0  0  0  0  0  0
  -20.9405  -18.7639   19.1265 C   0  0  2  0  0  0  0  0  0  0  0  0
  -22.0457  -14.3379   17.7112 C   0  0  0  0  0  0  0  0  0  0  0  0
  -25.1940  -27.7251   19.8495 N   0  0  0  0  0  0  0  0  0  0  0  0
  -26.2538  -26.9121   19.7013 N   0  0  0  0  0  0  0  0  0  0  0  0
  -24.1656  -14.8109   20.5655 N   0  0  0  0  0  0  0  0  0  0  0  0
  -25.6007  -23.1472   19.6102 N   0  0  0  0  0  0  0  0  0  0  0  0
  -28.5961  -26.7831   20.0296 N   0  0  0  0  0  0  0  0  0  0  0  0
  -27.5657  -30.9301   21.4916 N   0  0  0  0  0  0  0  0  0  0  0  0
  -24.4008  -11.6332   21.6687 N   0  0  0  0  0  0  0  0  0  0  0  0
  -31.0965  -20.0055   19.8019 N   0  0  0  0  0  0  0  0  0  0  0  0
  -21.6715  -16.4821   19.0020 N   0  0  0  0  0  0  0  0  0  0  0  0
  -27.4130  -22.1436   20.7511 N   0  0  0  0  0  0  0  0  0  0  0  0
  -32.8733  -15.6221   20.0117 N   0  3  0  0  0  0  0  0  0  0  0  0
  -21.4998  -20.0282   19.6830 N   0  3  0  0  0  0  0  0  0  0  0  0
  -29.2809  -29.4430   21.1666 O   0  0  0  0  0  0  0  0  0  0  0  0
  -33.3313  -19.6434   20.3471 O   0  0  0  0  0  0  0  0  0  0  0  0
  -26.1488  -12.7556   20.6165 O   0  0  0  0  0  0  0  0  0  0  0  0
  -21.9213  -14.1957   20.7103 O   0  0  0  0  0  0  0  0  0  0  0  0
  -23.1642  -18.1535   18.4056 O   0  0  0  0  0  0  0  0  0  0  0  0
  -26.1254  -20.9082   19.3114 O   0  0  0  0  0  0  0  0  0  0  0  0
  -22.4906  -33.2260   21.5760 O   0  0  0  0  0  0  0  0  0  0  0  0
  -29.7450  -17.3727   19.9658 O   0  0  0  0  0  0  0  0  0  1  0  0
  -23.2650  -35.7173   26.4337 F   0  0  0  0  0  0  0  0  0  0  0  0
  -20.4463  -33.3850   23.4302 F   0  0  0  0  0  0  0  0  0  0  0  0
  1  2  1  0  0  0  0
  1  7  2  0  0  0  0
  2  8  2  0  0  0  0
  3  4  1  0  0  0  0
  3 10  2  0  0  0  0
  4 11  2  0  0  0  0
  5 12  2  0  0  0  0
  5 19  1  0  0  0  0
  6 13  1  0  0  0  0
  6 19  2  0  0  0  0
  7 21  1  0  0  0  0
  8 23  1  0  0  0  0
  9 14  2  0  0  0  0
  9 22  1  0  0  0  0
 10 25  1  0  0  0  0
 11 26  1  0  0  0  0
 12 27  1  0  0  0  0
 13 27  2  0  0  0  0
 14 28  1  0  0  0  0
 15 16  2  0  0  0  0
 15 29  1  0  0  0  0
 16 30  1  0  0  0  0
 17 24  1  0  0  0  0
 17 28  2  0  0  0  0
 18 30  2  0  0  0  0
 18 31  1  0  0  0  0
 19 32  1  0  0  0  0
 20 32  1  0  0  0  0
 20 33  2  0  0  0  0
 20 34  1  0  0  0  0
 21 23  2  0  0  0  0
 21 40  1  0  0  0  0
 22 24  2  0  0  0  0
 22 41  1  0  0  0  0
 23 51  1  0  0  0  0
 24 42  1  0  0  0  0
 25 26  2  0  0  0  0
 25 61  1  0  0  0  0
 26 62  1  0  0  0  0
 27 84  1  0  0  0  0
 28 85  1  0  0  0  0
 29 31  2  0  0  0  0
 29 84  1  0  0  0  0
 30 86  1  0  0  0  0
 31 87  1  0  0  0  0
 32 66  2  0  0  0  0
 33 67  1  0  0  0  0
 33 70  1  0  0  0  0
 34 71  1  0  0  0  0
 34 78  2  0  0  0  0
 35 52  1  0  0  0  0
 35 73  1  0  0  0  0
 35 79  2  0  0  0  0
 36 53  1  0  0  0  0
 36 72  1  0  0  0  0
 36 80  2  0  0  0  0
 37 63  1  0  0  0  0
 37 68  1  0  0  0  0
 37 81  2  0  0  0  0
 38 64  1  0  0  0  0
 38 74  1  0  0  0  0
 38 82  2  0  0  0  0
 39 69  1  0  0  0  0
 39 75  1  0  0  0  0
 39 83  2  0  0  0  0
 40 43  1  0  0  0  0
 41 53  1  0  0  0  0
 42 68  1  0  0  0  0
 43 45  1  0  0  0  0
 44 46  1  0  0  0  0
 44 47  1  0  0  0  0
 45 51  1  0  0  0  0
 46 54  1  0  0  0  0
 47 69  1  0  0  0  0
 48 54  1  0  0  0  0
 48 69  1  0  0  0  0
 49 52  1  0  0  0  0
 49 76  1  0  0  0  0
 50 55  1  0  0  0  0
 50 76  1  0  0  0  0
 51 72  1  0  0  0  0
 52 55  1  0  0  0  0
 53 68  1  0  0  0  0
 54 67  1  0  0  0  0
 55 85  1  0  0  0  0
 56 64  1  0  0  0  0
 57 65  1  0  0  0  0
 58 65  1  0  0  0  0
 59 65  1  0  0  0  0
 60 77  1  0  0  0  0
 61 73  1  0  0  0  0
 62 75  1  0  0  0  0
 63 65  1  0  0  0  0
 63 74  1  0  0  0  0
 64 77  1  0  0  0  0
 66 67  1  0  0  0  0
M  CHG  2  76   1  77   1
M  ISO  4  39 100  55 101  75 100  85 101
M  END
> <Batch ID>
0137

> <Smiles>
CNC(C)C(=O)NC(C(=O)N1Cc2cc([101O:1][101CH:1]3CNCC3C(=O)NCc3ccccc3C[100NH:0][100C:0](=O)N3CCCC(n4nc(-c5ccc(Oc6ccc(F)cc6F)cc5)c(C(N)=O)c4N)C3)ccc2CC1C(=O)NC1CCCc2ccccc21)C(C)(C)C

> <Shape>
0.209

> <Color>
0.082

> <Negative vol penalty>
0.000

$$$$

  -OEChem-04052321053D

 81 89  0     1  0  0  0  0  0999 V2000
  -25.9048   -6.9630   23.0526 C   0  0  0  0  0  0  0  0  0  0  0  0
  -26.6941   -8.0531   22.7004 C   0  0  0  0  0  0  0  0  0  0  0  0
  -21.4994  -30.1621   20.9884 C   0  0  0  0  0  0  0  0  0  0  0  0
  -22.5050  -28.9466   22.8183 C   0  0  0  0  0  0  0  0  0  0  0  0
  -24.5699   -6.9124   22.6532 C   0  0  0  0  0  0  0  0  0  0  0  0
  -26.1492   -9.0928   21.9477 C   0  0  0  0  0  0  0  0  0  0  0  0
  -27.5101  -15.0490   22.3698 C   0  0  0  0  0  0  0  0  0  0  0  0
  -30.7400  -23.4308   19.6692 C   0  0  0  0  0  0  0  0  0  0  0  0
  -28.8009  -23.7377   21.0772 C   0  0  0  0  0  0  0  0  0  0  0  0
  -20.2388  -29.7155   21.3846 C   0  0  0  0  0  0  0  0  0  0  0  0
  -21.2443  -28.5001   23.2145 C   0  0  0  0  0  0  0  0  0  0  0  0
  -28.3530  -15.8735   21.6259 C   0  0  0  0  0  0  0  0  0  0  0  0
  -30.4441  -22.0723   19.5577 C   0  0  0  0  0  0  0  0  0  0  0  0
  -28.5049  -22.3792   20.9657 C   0  0  0  0  0  0  0  0  0  0  0  0
  -19.0299  -26.1280   22.2655 C   0  0  0  0  0  0  0  0  0  0  0  0
  -18.8943  -24.7797   22.5960 C   0  0  0  0  0  0  0  0  0  0  0  0
  -26.4719  -16.5840   20.2933 C   0  0  0  0  0  0  0  0  0  0  0  0
  -18.1925  -25.3963   24.8241 C   0  0  0  0  0  0  0  0  0  0  0  0
  -22.6326  -29.7776   21.7053 C   0  0  0  0  0  0  0  0  0  0  0  0
  -24.5922  -31.4108   21.7144 C   0  0  0  0  0  0  0  0  0  0  0  0
  -24.0058   -7.9565   21.9035 C   0  0  0  0  0  0  0  0  0  0  0  0
  -26.1413  -14.9773   22.0735 C   0  0  0  0  0  0  0  0  0  0  0  0
  -24.8059   -9.0555   21.5368 C   0  0  0  0  0  0  0  0  0  0  0  0
  -25.6133  -15.7597   21.0365 C   0  0  0  0  0  0  0  0  0  0  0  0
  -29.9184  -24.2635   20.4290 C   0  0  0  0  0  0  0  0  0  0  0  0
  -20.1112  -28.8845   22.4976 C   0  0  0  0  0  0  0  0  0  0  0  0
  -29.3265  -21.5465   20.2060 C   0  0  0  0  0  0  0  0  0  0  0  0
  -27.8345  -16.6390   20.5856 C   0  0  0  0  0  0  0  0  0  0  0  0
  -18.7468  -27.1106   23.2144 C   0  0  0  0  0  0  0  0  0  0  0  0
  -18.4756  -24.4138   23.8752 C   0  0  0  0  0  0  0  0  0  0  0  0
  -18.3281  -26.7447   24.4936 C   0  0  0  0  0  0  0  0  0  0  0  0
  -23.9351  -30.2381   21.2962 C   0  0  0  0  0  0  0  0  0  0  0  0
  -25.7906  -31.3907   21.0436 C   0  0  0  0  0  0  0  0  0  0  0  0
  -24.1581  -32.4274   22.6275 C   0  0  0  0  0  0  0  0  0  0  0  0
  -24.1692  -12.6719   21.1253 C   0  0  0  0  0  0  0  0  0  0  0  0
  -21.9108  -14.9587   21.5638 C   0  0  0  0  0  0  0  0  0  0  0  0
  -21.1458  -18.2803   21.7335 C   0  0  0  0  0  0  0  0  0  0  0  0
  -29.0951  -26.9655   18.7310 C   0  0  0  0  0  0  0  0  0  0  0  0
  -22.5711   -7.8350   21.4545 C   0  0  0  0  0  0  0  0  0  0  0  0
  -25.2408  -14.1033   22.9026 C   0  0  0  0  0  0  0  0  0  0  0  0
  -24.1475  -15.7341   20.6913 C   0  0  0  0  0  0  0  0  0  0  0  0
  -21.9682   -9.1540   20.9779 C   0  0  0  0  0  0  0  0  0  0  0  0
  -27.7936  -29.7933   17.0029 C   0  0  0  0  0  0  0  0  0  0  0  0
  -22.9289   -9.8697   20.0337 C   0  0  0  0  0  0  0  0  0  0  0  0
  -26.7164  -30.3338   17.9450 C   0  0  0  0  0  0  0  0  0  0  0  0
  -27.8524  -28.2676   17.0291 C   0  0  0  0  0  0  0  0  0  0  0  0
  -26.9294  -28.2171   19.3137 C   0  0  0  0  0  0  0  0  0  0  0  0
  -24.2444  -10.2145   20.7422 C   0  0  1  0  0  0  0  0  0  0  0  0
  -23.9526  -13.7183   22.1816 C   0  0  1  0  0  0  0  0  0  0  0  0
  -26.8698  -29.7534   19.3638 C   0  0  2  0  0  0  0  0  0  0  0  0
  -19.2093  -19.8413   22.0662 C   0  0  0  0  0  0  0  0  0  0  0  0
  -20.9858  -14.4161   18.7072 C   0  0  0  0  0  0  0  0  0  0  0  0
  -19.7392  -16.5864   18.7728 C   0  0  0  0  0  0  0  0  0  0  0  0
  -19.1362  -14.7554   20.3560 C   0  0  0  0  0  0  0  0  0  0  0  0
  -22.3510  -19.4410   24.1746 C   0  0  0  0  0  0  0  0  0  0  0  0
  -30.2343  -25.7161   20.5477 C   0  0  0  0  0  0  0  0  0  0  0  0
  -30.1360  -19.3292   19.9153 C   0  0  0  0  0  0  0  0  0  0  0  0
  -29.7955  -17.9830   20.5249 C   0  0  0  0  0  0  0  0  0  1  0  0
  -21.2924  -16.0303   20.6988 C   0  0  1  0  0  0  0  0  0  0  0  0
  -20.3379  -19.0777   22.7414 C   0  0  2  0  0  0  0  0  0  0  0  0
  -20.3164  -15.4463   19.6387 C   0  0  0  0  0  0  0  0  0  0  0  0
  -24.6562  -29.5250   20.4270 N   0  0  0  0  0  0  0  0  0  0  0  0
  -25.7788  -30.2518   20.2934 N   0  0  0  0  0  0  0  0  0  0  0  0
  -23.3088  -14.8590   21.5269 N   0  0  0  0  0  0  0  0  0  0  0  0
  -27.9999  -27.7815   18.4031 N   0  0  0  0  0  0  0  0  0  0  0  0
  -26.8427  -32.2365   21.0281 N   0  0  0  0  0  0  0  0  0  0  0  0
  -22.8992  -32.2923   23.2286 N   0  0  0  0  0  0  0  0  0  0  0  0
  -24.0725  -11.3743   21.5906 N   0  0  0  0  0  0  0  0  0  0  0  0
  -20.6790  -16.9886   21.6120 N   0  0  0  0  0  0  0  0  0  0  0  0
  -29.1630  -26.5538   20.0564 N   0  0  0  0  0  0  0  0  0  0  0  0
  -21.2117  -20.0572   23.4471 N   0  3  0  0  0  0  0  0  0  0  0  0
  -24.8587  -33.4343   22.8898 O   0  0  0  0  0  0  0  0  0  0  0  0
  -24.4049  -13.0161   19.9731 O   0  0  0  0  0  0  0  0  0  0  0  0
  -21.1808  -14.2414   22.2524 O   0  0  0  0  0  0  0  0  0  0  0  0
  -22.0937  -18.7568   21.1130 O   0  0  0  0  0  0  0  0  0  0  0  0
  -29.9521  -26.6332   17.9051 O   0  0  0  0  0  0  0  0  0  0  0  0
  -18.8812  -28.4488   22.8846 O   0  0  0  0  0  0  0  0  0  0  0  0
  -29.0353  -20.2123   20.0953 O   0  0  0  0  0  0  0  0  0  0  0  0
  -28.6551  -17.4442   19.8575 O   0  0  0  0  0  0  0  0  0  1  0  0
  -18.3439  -23.1190   24.1919 F   0  0  0  0  0  0  0  0  0  0  0  0
  -18.0536  -27.6841   25.4090 F   0  0  0  0  0  0  0  0  0  0  0  0
  1  2  1  0  0  0  0
  1  5  2  0  0  0  0
  2  6  2  0  0  0  0
  3 10  2  0  0  0  0
  3 19  1  0  0  0  0
  4 11  1  0  0  0  0
  4 19  2  0  0  0  0
  5 21  1  0  0  0  0
  6 23  1  0  0  0  0
  7 12  2  0  0  0  0
  7 22  1  0  0  0  0
  8 13  2  0  0  0  0
  8 25  1  0  0  0  0
  9 14  1  0  0  0  0
  9 25  2  0  0  0  0
 10 26  1  0  0  0  0
 11 26  2  0  0  0  0
 12 28  1  0  0  0  0
 13 27  1  0  0  0  0
 14 27  2  0  0  0  0
 15 16  2  0  0  0  0
 15 29  1  0  0  0  0
 16 30  1  0  0  0  0
 17 24  1  0  0  0  0
 17 28  2  0  0  0  0
 18 30  2  0  0  0  0
 18 31  1  0  0  0  0
 19 32  1  0  0  0  0
 20 32  1  0  0  0  0
 20 33  2  0  0  0  0
 20 34  1  0  0  0  0
 21 23  2  0  0  0  0
 21 39  1  0  0  0  0
 22 24  2  0  0  0  0
 22 40  1  0  0  0  0
 23 48  1  0  0  0  0
 24 41  1  0  0  0  0
 25 56  1  0  0  0  0
 26 77  1  0  0  0  0
 27 78  1  0  0  0  0
 28 79  1  0  0  0  0
 29 31  2  0  0  0  0
 29 77  1  0  0  0  0
 30 80  1  0  0  0  0
 31 81  1  0  0  0  0
 32 62  2  0  0  0  0
 33 63  1  0  0  0  0
 33 66  1  0  0  0  0
 34 67  1  0  0  0  0
 34 72  2  0  0  0  0
 35 49  1  0  0  0  0
 35 68  1  0  0  0  0
 35 73  2  0  0  0  0
 36 59  1  0  0  0  0
 36 64  1  0  0  0  0
 36 74  2  0  0  0  0
 37 60  1  0  0  0  0
 37 69  1  0  0  0  0
 37 75  2  0  0  0  0
 38 65  1  0  0  0  0
 38 70  1  0  0  0  0
 38 76  2  0  0  0  0
 39 42  1  0  0  0  0
 40 49  1  0  0  0  0
 41 64  1  0  0  0  0
 42 44  1  0  0  0  0
 43 45  1  0  0  0  0
 43 46  1  0  0  0  0
 44 48  1  0  0  0  0
 45 50  1  0  0  0  0
 46 65  1  0  0  0  0
 47 50  1  0  0  0  0
 47 65  1  0  0  0  0
 48 68  1  0  0  0  0
 49 64  1  0  0  0  0
 50 63  1  0  0  0  0
 51 60  1  0  0  0  0
 52 61  1  0  0  0  0
 53 61  1  0  0  0  0
 54 61  1  0  0  0  0
 55 71  1  0  0  0  0
 56 70  1  0  0  0  0
 57 58  1  0  0  0  0
 57 78  1  0  0  0  0
 58 79  1  0  0  0  0
 59 61  1  0  0  0  0
 59 69  1  0  0  0  0
 60 71  1  0  0  0  0
 62 63  1  0  0  0  0
M  CHG  1  71   1
M  ISO  4  38 100  58 101  70 100  79 101
M  END
> <Batch ID>
0137

> <Smiles>
CNC(C)C(=O)NC(C(=O)N1Cc2cc([101O:1][101CH2:1]COc3ccc(C[100NH:0][100C:0](=O)N4CCCC(n5nc(-c6ccc(Oc7ccc(F)cc7F)cc6)c(C(N)=O)c5N)C4)cc3)ccc2CC1C(=O)NC1CCCc2ccccc21)C(C)(C)C

> <Shape>
0.269

> <Color>
0.051

> <Negative vol penalty>
0.000

$$$$

  -OEChem-04052321053D

 85 94  0     1  0  0  0  0  0999 V2000
  -31.4009  -30.7970   14.9463 C   0  0  0  0  0  0  0  0  0  0  0  0
  -31.1466  -29.4347   14.8240 C   0  0  0  0  0  0  0  0  0  0  0  0
  -23.1305   -9.8113   20.2650 C   0  0  0  0  0  0  0  0  0  0  0  0
  -23.7135  -10.1629   22.5831 C   0  0  0  0  0  0  0  0  0  0  0  0
  -31.6705  -31.3449   16.1996 C   0  0  0  0  0  0  0  0  0  0  0  0
  -31.1629  -28.6193   15.9551 C   0  0  0  0  0  0  0  0  0  0  0  0
  -28.0241  -22.7830   18.6756 C   0  0  0  0  0  0  0  0  0  0  0  0
  -31.0712  -18.4921   23.0840 C   0  0  0  0  0  0  0  0  0  0  0  0
  -22.3478   -8.7154   20.6281 C   0  0  0  0  0  0  0  0  0  0  0  0
  -22.9308   -9.0670   22.9462 C   0  0  0  0  0  0  0  0  0  0  0  0
  -28.3478  -21.5469   19.2335 C   0  0  0  0  0  0  0  0  0  0  0  0
  -31.4068  -17.1917   23.4605 C   0  0  0  0  0  0  0  0  0  0  0  0
  -19.6514   -8.3942   23.4085 C   0  0  0  0  0  0  0  0  0  0  0  0
  -18.8069   -8.5391   24.5091 C   0  0  0  0  0  0  0  0  0  0  0  0
  -28.7474  -22.6172   21.3581 C   0  0  0  0  0  0  0  0  0  0  0  0
  -29.0661  -16.5933   23.4799 C   0  0  0  0  0  0  0  0  0  0  0  0
  -19.9512   -6.7279   25.6257 C   0  0  0  0  0  0  0  0  0  0  0  0
  -23.8134  -10.5351   21.2425 C   0  0  0  0  0  0  0  0  0  0  0  0
  -24.2117  -13.0097   20.7679 C   0  0  0  0  0  0  0  0  0  0  0  0
  -31.6806  -30.5375   17.3480 C   0  0  0  0  0  0  0  0  0  0  0  0
  -28.0703  -23.9489   19.4534 C   0  0  0  0  0  0  0  0  0  0  0  0
  -31.4343  -29.1567   17.2249 C   0  0  0  0  0  0  0  0  0  0  0  0
  -28.4214  -23.8665   20.8084 C   0  0  0  0  0  0  0  0  0  0  0  0
  -28.7306  -17.8939   23.1035 C   0  0  0  0  0  0  0  0  0  0  0  0
  -29.7331  -18.8433   22.9055 C   0  0  0  0  0  0  0  0  0  0  0  0
  -22.2479   -8.3432   21.9687 C   0  0  0  0  0  0  0  0  0  0  0  0
  -28.7123  -21.4643   20.5741 C   0  0  0  0  0  0  0  0  0  0  0  0
  -30.4042  -16.2423   23.6584 C   0  0  0  0  0  0  0  0  0  0  0  0
  -20.6459   -7.4161   23.4165 C   0  0  0  0  0  0  0  0  0  0  0  0
  -18.9568   -7.7060   25.6177 C   0  0  0  0  0  0  0  0  0  0  0  0
  -20.7958   -6.5829   24.5251 C   0  0  0  0  0  0  0  0  0  0  0  0
  -24.6226  -11.6670   20.8681 C   0  0  0  0  0  0  0  0  0  0  0  0
  -25.3425  -13.6869   20.3817 C   0  0  0  0  0  0  0  0  0  0  0  0
  -22.9231  -13.5927   21.0031 C   0  0  0  0  0  0  0  0  0  0  0  0
  -29.7409  -26.6510   19.3478 C   0  0  0  0  0  0  0  0  0  0  0  0
  -27.7685  -27.5087   21.7760 C   0  0  0  0  0  0  0  0  0  0  0  0
  -25.7271  -26.5355   24.3318 C   0  0  0  0  0  0  0  0  0  0  0  0
  -31.1882  -12.5546   21.0116 C   0  0  0  0  0  0  0  0  0  0  0  0
  -32.0239  -31.1669   18.6749 C   0  0  0  0  0  0  0  0  0  0  0  0
  -27.6923  -25.2708   18.8435 C   0  0  0  0  0  0  0  0  0  0  0  0
  -28.4667  -25.0857   21.6914 C   0  0  0  0  0  0  0  0  0  0  0  0
  -31.6528  -30.2992   19.8747 C   0  0  0  0  0  0  0  0  0  0  0  0
  -25.2281  -18.4528   23.7133 C   0  0  0  0  0  0  0  0  0  0  0  0
  -29.4262  -13.0828   17.9631 C   0  0  0  0  0  0  0  0  0  0  0  0
  -26.1123  -17.2476   23.3409 C   0  0  0  0  0  0  0  0  0  0  0  0
  -26.5325  -19.2464   23.9200 C   0  0  0  0  0  0  0  0  0  0  0  0
  -32.1089  -28.8603   19.6544 C   0  0  0  0  0  0  0  0  0  0  0  0
  -27.9582  -12.9010   18.3529 C   0  0  0  0  0  0  0  0  0  0  0  0
  -30.3359  -12.1224   18.7261 C   0  0  0  0  0  0  0  0  0  0  0  0
  -28.7214  -11.9826   20.5829 C   0  0  0  0  0  0  0  0  0  0  0  0
  -27.2048  -18.2711   22.9070 C   0  0  0  0  0  0  0  0  0  0  0  0
  -31.4186  -28.2439   18.4317 C   0  0  1  0  0  0  0  0  0  0  0  0
  -28.2711  -26.4641   19.5976 C   0  0  1  0  0  0  0  0  0  0  0  0
  -27.7713  -12.9677   19.8806 C   0  0  2  0  0  0  0  0  0  0  0  0
  -24.2845  -27.4638   26.1634 C   0  0  0  0  0  0  0  0  0  0  0  0
  -30.2637  -28.1700   23.4028 C   0  0  0  0  0  0  0  0  0  0  0  0
  -28.8379  -28.1670   25.4608 C   0  0  0  0  0  0  0  0  0  0  0  0
  -28.3960  -29.8159   23.6418 C   0  0  0  0  0  0  0  0  0  0  0  0
  -23.2956  -25.2687   23.2173 C   0  0  0  0  0  0  0  0  0  0  0  0
  -29.3940  -20.2477   22.5006 C   0  0  0  0  0  0  0  0  0  1  0  0
  -31.8884  -12.9755   23.3550 C   0  0  0  0  0  0  0  0  0  0  0  0
  -31.9918  -14.4732   23.5813 C   0  0  0  0  0  0  0  0  0  0  0  0
  -27.8075  -27.3839   23.2800 C   0  0  1  0  0  0  0  0  0  0  0  0
  -24.3273  -26.9720   24.7250 C   0  0  2  0  0  0  0  0  0  0  0  0
  -28.8274  -28.3613   23.9295 C   0  0  0  0  0  0  0  0  0  0  0  0
  -25.9136  -11.4991   20.5694 N   0  0  0  0  0  0  0  0  0  0  0  0
  -26.3237  -12.7452   20.2777 N   0  0  0  0  0  0  0  0  0  0  0  0
  -28.0947  -26.3562   21.0472 N   0  0  0  0  0  0  0  0  0  0  0  0
  -30.1102  -12.2365   20.1691 N   0  0  0  0  0  0  0  0  0  0  0  0
  -25.5834  -14.9900   20.1242 N   0  0  0  0  0  0  0  0  0  0  0  0
  -21.8713  -12.7532   21.3942 N   0  0  0  0  0  0  0  0  0  0  0  0
  -30.0622  -27.8586   18.7578 N   0  0  0  0  0  0  0  0  0  0  0  0
  -26.4343  -27.5605   23.7400 N   0  0  0  0  0  0  0  0  0  0  0  0
  -30.8866  -12.6495   22.3646 N   0  0  0  0  0  0  0  0  0  0  0  0
  -23.3728  -25.8356   24.5882 N   0  3  0  0  0  0  0  0  0  0  0  0
  -22.7068  -14.8194   20.8544 O   0  0  0  0  0  0  0  0  0  0  0  0
  -30.5256  -25.7659   19.6680 O   0  0  0  0  0  0  0  0  0  0  0  0
  -27.4530  -28.5870   21.2666 O   0  0  0  0  0  0  0  0  0  0  0  0
  -26.1520  -25.4000   24.5333 O   0  0  0  0  0  0  0  0  0  0  0  0
  -32.3335  -12.7454   20.5886 O   0  0  0  0  0  0  0  0  0  0  0  0
  -21.4841   -7.2740   22.3234 O   0  0  0  0  0  0  0  0  0  0  0  0
  -29.0294  -20.2592   21.1210 O   0  0  0  0  0  0  0  0  0  1  0  0
  -30.7318  -14.9735   24.0261 O   0  0  0  0  0  0  0  0  0  0  0  0
  -18.1467   -7.8463   26.6752 F   0  0  0  0  0  0  0  0  0  0  0  0
  -21.7501   -5.6422   24.5391 F   0  0  0  0  0  0  0  0  0  0  0  0
  1  2  1  0  0  0  0
  1  5  2  0  0  0  0
  2  6  2  0  0  0  0
  3  9  2  0  0  0  0
  3 18  1  0  0  0  0
  4 10  1  0  0  0  0
  4 18  2  0  0  0  0
  5 20  1  0  0  0  0
  6 22  1  0  0  0  0
  7 11  2  0  0  0  0
  7 21  1  0  0  0  0
  8 12  2  0  0  0  0
  8 25  1  0  0  0  0
  9 26  1  0  0  0  0
 10 26  2  0  0  0  0
 11 27  1  0  0  0  0
 12 28  1  0  0  0  0
 13 14  2  0  0  0  0
 13 29  1  0  0  0  0
 14 30  1  0  0  0  0
 15 23  1  0  0  0  0
 15 27  2  0  0  0  0
 16 24  1  0  0  0  0
 16 28  2  0  0  0  0
 17 30  2  0  0  0  0
 17 31  1  0  0  0  0
 18 32  1  0  0  0  0
 19 32  1  0  0  0  0
 19 33  2  0  0  0  0
 19 34  1  0  0  0  0
 20 22  2  0  0  0  0
 20 39  1  0  0  0  0
 21 23  2  0  0  0  0
 21 40  1  0  0  0  0
 22 52  1  0  0  0  0
 23 41  1  0  0  0  0
 24 25  2  0  0  0  0
 24 51  1  0  0  0  0
 25 60  1  0  0  0  0
 26 81  1  0  0  0  0
 27 82  1  0  0  0  0
 28 83  1  0  0  0  0
 29 31  2  0  0  0  0
 29 81  1  0  0  0  0
 30 84  1  0  0  0  0
 31 85  1  0  0  0  0
 32 66  2  0  0  0  0
 33 67  1  0  0  0  0
 33 70  1  0  0  0  0
 34 71  1  0  0  0  0
 34 76  2  0  0  0  0
 35 53  1  0  0  0  0
 35 72  1  0  0  0  0
 35 77  2  0  0  0  0
 36 63  1  0  0  0  0
 36 68  1  0  0  0  0
 36 78  2  0  0  0  0
 37 64  1  0  0  0  0
 37 73  1  0  0  0  0
 37 79  2  0  0  0  0
 38 69  1  0  0  0  0
 38 74  1  0  0  0  0
 38 80  2  0  0  0  0
 39 42  1  0  0  0  0
 40 53  1  0  0  0  0
 41 68  1  0  0  0  0
 42 47  1  0  0  0  0
 43 45  1  0  0  0  0
 43 46  1  0  0  0  0
 44 48  1  0  0  0  0
 44 49  1  0  0  0  0
 45 51  1  0  0  0  0
 46 51  1  0  0  0  0
 47 52  1  0  0  0  0
 48 54  1  0  0  0  0
 49 69  1  0  0  0  0
 50 54  1  0  0  0  0
 50 69  1  0  0  0  0
 52 72  1  0  0  0  0
 53 68  1  0  0  0  0
 54 67  1  0  0  0  0
 55 64  1  0  0  0  0
 56 65  1  0  0  0  0
 57 65  1  0  0  0  0
 58 65  1  0  0  0  0
 59 75  1  0  0  0  0
 60 82  1  0  0  0  0
 61 62  1  0  0  0  0
 61 74  1  0  0  0  0
 62 83  1  0  0  0  0
 63 65  1  0  0  0  0
 63 73  1  0  0  0  0
 64 75  1  0  0  0  0
 66 67  1  0  0  0  0
M  CHG  1  75   1
M  ISO  4  38 100  60 101  74 100  82 101
M  END
> <Batch ID>
0137

> <Smiles>
CNC(C)C(=O)NC(C(=O)N1Cc2cc([101O:1][101CH2:1]c3ccc(OCC[100NH:0][100C:0](=O)N4CCCC(n5nc(-c6ccc(Oc7ccc(F)cc7F)cc6)c(C(N)=O)c5N)C4)cc3C3CCC3)ccc2CC1C(=O)NC1CCCc2ccccc21)C(C)(C)C

> <Shape>
0.230

> <Color>
0.171

> <Negative vol penalty>
0.000

$$$$

  -OEChem-04052321053D

 87 96  0     1  0  0  0  0  0999 V2000
  -18.0077  -30.8706   26.1475 C   0  0  0  0  0  0  0  0  0  0  0  0
  -19.2154  -31.4872   25.8364 C   0  0  0  0  0  0  0  0  0  0  0  0
  -24.5563  -13.7600   22.5068 C   0  0  0  0  0  0  0  0  0  0  0  0
  -26.0270  -14.1853   20.6378 C   0  0  0  0  0  0  0  0  0  0  0  0
  -17.8254  -29.5167   25.8688 C   0  0  0  0  0  0  0  0  0  0  0  0
  -20.2420  -30.7498   25.2475 C   0  0  0  0  0  0  0  0  0  0  0  0
  -25.6664  -31.4409   20.6199 C   0  0  0  0  0  0  0  0  0  0  0  0
  -23.9044  -12.7720   21.7690 C   0  0  0  0  0  0  0  0  0  0  0  0
  -25.3751  -13.1973   19.9000 C   0  0  0  0  0  0  0  0  0  0  0  0
  -27.0354  -31.1963   20.5208 C   0  0  0  0  0  0  0  0  0  0  0  0
  -24.4503   -9.5538   20.8870 C   0  0  0  0  0  0  0  0  0  0  0  0
  -24.1774   -8.3431   21.5237 C   0  0  0  0  0  0  0  0  0  0  0  0
  -26.5792  -28.8827   20.0124 C   0  0  0  0  0  0  0  0  0  0  0  0
  -21.8149   -8.6749   21.1423 C   0  0  0  0  0  0  0  0  0  0  0  0
  -25.6176  -14.4667   21.9412 C   0  0  0  0  0  0  0  0  0  0  0  0
  -26.9700  -15.3277   23.9255 C   0  0  0  0  0  0  0  0  0  0  0  0
  -18.8468  -28.7647   25.2672 C   0  0  0  0  0  0  0  0  0  0  0  0
  -24.7423  -30.4040   20.4264 C   0  0  0  0  0  0  0  0  0  0  0  0
  -20.0737  -29.3843   24.9616 C   0  0  0  0  0  0  0  0  0  0  0  0
  -25.1989  -29.1173   20.1071 C   0  0  0  0  0  0  0  0  0  0  0  0
  -24.3138  -12.4906   20.4656 C   0  0  0  0  0  0  0  0  0  0  0  0
  -27.4921  -29.9165   20.2199 C   0  0  0  0  0  0  0  0  0  0  0  0
  -23.4054  -10.3251   20.3780 C   0  0  0  0  0  0  0  0  0  0  0  0
  -22.8598   -7.9037   21.6514 C   0  0  0  0  0  0  0  0  0  0  0  0
  -22.0878   -9.8857   20.5056 C   0  0  0  0  0  0  0  0  0  0  0  0
  -26.2911  -15.4878   22.7027 C   0  0  0  0  0  0  0  0  0  0  0  0
  -27.4297  -16.5856   24.2303 C   0  0  0  0  0  0  0  0  0  0  0  0
  -27.1676  -14.1474   24.7152 C   0  0  0  0  0  0  0  0  0  0  0  0
  -22.5347  -29.0009   22.2323 C   0  0  0  0  0  0  0  0  0  0  0  0
  -21.8090  -27.4654   19.4686 C   0  0  0  0  0  0  0  0  0  0  0  0
  -22.8326  -26.3948   16.3941 C   0  0  0  0  0  0  0  0  0  0  0  0
  -28.5107  -21.2675   20.6020 C   0  0  0  0  0  0  0  0  0  0  0  0
  -18.6202  -27.2929   25.0283 C   0  0  0  0  0  0  0  0  0  0  0  0
  -23.2680  -30.6901   20.5105 C   0  0  0  0  0  0  0  0  0  0  0  0
  -24.2472  -27.9742   19.8702 C   0  0  0  0  0  0  0  0  0  0  0  0
  -19.6237  -26.6714   24.0603 C   0  0  0  0  0  0  0  0  0  0  0  0
  -25.4253  -20.6428   22.8085 C   0  0  0  0  0  0  0  0  0  0  0  0
  -21.0436  -27.1030   24.4133 C   0  0  0  0  0  0  0  0  0  0  0  0
  -32.9519  -27.1603   16.3039 C   0  0  0  0  0  0  0  0  0  0  0  0
  -26.1807  -19.7303   23.7700 C   0  0  0  0  0  0  0  0  0  0  0  0
  -32.5230  -26.0348   17.2501 C   0  0  0  0  0  0  0  0  0  0  0  0
  -28.7277  -24.5803   18.9546 C   0  0  0  0  0  0  0  0  0  0  0  0
  -30.5571  -23.8242   20.5170 C   0  0  0  0  0  0  0  0  0  0  0  0
  -26.3921  -21.4852   21.9819 C   0  0  0  0  0  0  0  0  0  0  0  0
  -27.4339  -19.2550   21.5775 C   0  0  0  0  0  0  0  0  0  0  0  0
  -29.7436  -25.4038   18.1739 C   0  0  0  0  0  0  0  0  0  0  0  0
  -31.5635  -24.6527   19.7291 C   0  0  0  0  0  0  0  0  0  0  0  0
  -21.2022  -28.6240   24.2995 C   0  0  1  0  0  0  0  0  0  0  0  0
  -22.4337  -29.4464   20.8009 C   0  0  1  0  0  0  0  0  0  0  0  0
  -32.2273  -28.4316   16.7836 C   0  0  2  0  0  0  0  0  0  0  0  0
  -31.1249  -27.9186   17.7271 C   0  0  1  0  0  0  0  0  0  0  0  0
  -27.2596  -18.8831   23.0606 C   0  0  2  0  0  0  0  0  0  0  0  0
  -29.3845  -23.3824   19.6413 C   0  0  0  0  0  0  0  0  0  0  0  0
  -31.8318  -26.7461   18.4024 C   0  0  1  0  0  0  0  0  0  0  0  0
  -22.0286  -25.1340   14.3788 C   0  0  0  0  0  0  0  0  0  0  0  0
  -32.8460  -29.7488   14.7377 C   0  0  0  0  0  0  0  0  0  0  0  0
  -30.6774  -28.4856   14.8093 C   0  0  0  0  0  0  0  0  0  0  0  0
  -22.1064  -24.8403   20.9953 C   0  0  0  0  0  0  0  0  0  0  0  0
  -22.2394  -23.6556   18.7938 C   0  0  0  0  0  0  0  0  0  0  0  0
  -20.1740  -24.9116   19.4094 C   0  0  0  0  0  0  0  0  0  0  0  0
  -23.2371  -28.7333   14.6257 C   0  0  0  0  0  0  0  0  0  0  0  0
  -30.6272  -28.9702   18.7023 C   0  0  0  0  0  0  0  0  0  0  0  0
  -29.2379  -28.6423   19.2278 C   0  0  0  0  0  0  0  0  0  1  0  0
  -22.2678  -26.1914   18.8011 C   0  0  1  0  0  0  0  0  0  0  0  0
  -22.1877  -26.5019   15.0240 C   0  0  2  0  0  0  0  0  0  0  0  0
  -31.6995  -29.2724   15.6298 C   0  0  0  0  0  0  0  0  0  0  0  0
  -21.7152  -24.9206   19.5062 C   0  0  0  0  0  0  0  0  0  0  0  0
  -26.3148  -16.7481   22.2610 N   0  0  0  0  0  0  0  0  0  0  0  0
  -27.0140  -17.3914   23.2114 N   0  0  0  0  0  0  0  0  0  0  0  0
  -22.8156  -28.3028   19.9698 N   0  0  0  0  0  0  0  0  0  0  0  0
  -27.4847  -20.7056   21.3864 N   0  0  0  0  0  0  0  0  0  0  0  0
  -28.1448  -17.0700   25.2678 N   0  0  0  0  0  0  0  0  0  0  0  0
  -28.3040  -13.3638   24.4727 N   0  0  0  0  0  0  0  0  0  0  0  0
  -21.3319  -29.0162   22.9125 N   0  0  0  0  0  0  0  0  0  0  0  0
  -21.8902  -26.3075   17.3968 N   0  0  0  0  0  0  0  0  0  0  0  0
  -28.4195  -22.6450   20.4196 N   0  0  0  0  0  0  0  0  0  0  0  0
  -30.8614  -25.8293   19.0952 N   0  3  0  0  0  0  0  0  0  0  0  0
  -23.0190  -27.3516   14.1252 N   0  3  0  0  0  0  0  0  0  0  0  0
  -26.3518  -13.7892   25.5982 O   0  0  0  0  0  0  0  0  0  0  0  0
  -23.6229  -28.6665   22.6856 O   0  0  0  0  0  0  0  0  0  0  0  0
  -20.6022  -27.7119   19.5363 O   0  0  0  0  0  0  0  0  0  0  0  0
  -24.0506  -26.3856   16.5581 O   0  0  0  0  0  0  0  0  0  0  0  0
  -29.4241  -20.6003   20.1069 O   0  0  0  0  0  0  0  0  0  0  0  0
  -23.6780  -11.5264   19.7454 O   0  0  0  0  0  0  0  0  0  0  0  0
  -28.8278  -29.6749   20.1232 O   0  0  0  0  0  0  0  0  0  1  0  0
  -22.5980   -6.7403   22.2615 F   0  0  0  0  0  0  0  0  0  0  0  0
  -21.0799  -10.6217   20.0176 F   0  0  0  0  0  0  0  0  0  0  0  0
  1  2  1  0  0  0  0
  1  5  2  0  0  0  0
  2  6  2  0  0  0  0
  3  8  2  0  0  0  0
  3 15  1  0  0  0  0
  4  9  1  0  0  0  0
  4 15  2  0  0  0  0
  5 17  1  0  0  0  0
  6 19  1  0  0  0  0
  7 10  2  0  0  0  0
  7 18  1  0  0  0  0
  8 21  1  0  0  0  0
  9 21  2  0  0  0  0
 10 22  1  0  0  0  0
 11 12  2  0  0  0  0
 11 23  1  0  0  0  0
 12 24  1  0  0  0  0
 13 20  1  0  0  0  0
 13 22  2  0  0  0  0
 14 24  2  0  0  0  0
 14 25  1  0  0  0  0
 15 26  1  0  0  0  0
 16 26  1  0  0  0  0
 16 27  2  0  0  0  0
 16 28  1  0  0  0  0
 17 19  2  0  0  0  0
 17 33  1  0  0  0  0
 18 20  2  0  0  0  0
 18 34  1  0  0  0  0
 19 48  1  0  0  0  0
 20 35  1  0  0  0  0
 21 84  1  0  0  0  0
 22 85  1  0  0  0  0
 23 25  2  0  0  0  0
 23 84  1  0  0  0  0
 24 86  1  0  0  0  0
 25 87  1  0  0  0  0
 26 68  2  0  0  0  0
 27 69  1  0  0  0  0
 27 72  1  0  0  0  0
 28 73  1  0  0  0  0
 28 79  2  0  0  0  0
 29 49  1  0  0  0  0
 29 74  1  0  0  0  0
 29 80  2  0  0  0  0
 30 64  1  0  0  0  0
 30 70  1  0  0  0  0
 30 81  2  0  0  0  0
 31 65  1  0  0  0  0
 31 75  1  0  0  0  0
 31 82  2  0  0  0  0
 32 71  1  0  0  0  0
 32 76  1  0  0  0  0
 32 83  2  0  0  0  0
 33 36  1  0  0  0  0
 34 49  1  0  0  0  0
 35 70  1  0  0  0  0
 36 38  1  0  0  0  0
 37 40  1  0  0  0  0
 37 44  1  0  0  0  0
 38 48  1  0  0  0  0
 39 41  1  0  0  0  0
 39 50  1  0  0  0  0
 40 52  1  0  0  0  0
 41 54  1  0  0  0  0
 42 46  1  0  0  0  0
 42 53  1  0  0  0  0
 43 47  1  0  0  0  0
 43 53  1  0  0  0  0
 44 71  1  0  0  0  0
 45 52  1  0  0  0  0
 45 71  1  0  0  0  0
 46 77  1  0  0  0  0
 47 77  1  0  0  0  0
 48 74  1  0  0  0  0
 49 70  1  0  0  0  0
 50 51  1  0  0  0  0
 50 66  1  0  0  0  0
 51 54  1  0  0  0  0
 51 62  1  0  0  0  0
 52 69  1  0  0  0  0
 53 76  1  0  0  0  0
 54 77  1  0  0  0  0
 55 65  1  0  0  0  0
 56 66  1  0  0  0  0
 57 66  1  0  0  0  0
 58 67  1  0  0  0  0
 59 67  1  0  0  0  0
 60 67  1  0  0  0  0
 61 78  1  0  0  0  0
 62 63  1  0  0  0  0
 63 85  1  0  0  0  0
 64 67  1  0  0  0  0
 64 75  1  0  0  0  0
 65 78  1  0  0  0  0
 68 69  1  0  0  0  0
M  CHG  2  77   1  78   1
M  ISO  4  32 100  63 101  76 100  85 101
M  END
> <Batch ID>
0137

> <Smiles>
CNC(C)C(=O)NC(C(=O)N1Cc2cc([101O:1][101CH2:1]CC3C(C(C)C)CCC3N3CCC([100NH:0][100C:0](=O)N4CCCC(n5nc(-c6ccc(Oc7ccc(F)cc7F)cc6)c(C(N)=O)c5N)C4)CC3)ccc2CC1C(=O)NC1CCCc2ccccc21)C(C)(C)C

> <Shape>
0.220

> <Color>
0.070

> <Negative vol penalty>
0.000

$$$$

  -OEChem-04052321053D

 83 91  0     1  0  0  0  0  0999 V2000
  -32.4484  -12.5671   21.2523 C   0  0  0  0  0  0  0  0  0  0  0  0
  -32.1107  -13.9071   21.4131 C   0  0  0  0  0  0  0  0  0  0  0  0
  -29.5732  -26.0342   21.7569 C   0  0  0  0  0  0  0  0  0  0  0  0
  -27.4392  -25.0844   21.1397 C   0  0  0  0  0  0  0  0  0  0  0  0
  -31.5867  -11.7093   20.5699 C   0  0  0  0  0  0  0  0  0  0  0  0
  -30.9116  -14.3904   20.8905 C   0  0  0  0  0  0  0  0  0  0  0  0
  -25.7911  -19.2226   22.2118 C   0  0  0  0  0  0  0  0  0  0  0  0
  -30.1430  -24.7612   21.7457 C   0  0  0  0  0  0  0  0  0  0  0  0
  -28.0091  -23.8113   21.1284 C   0  0  0  0  0  0  0  0  0  0  0  0
  -25.1130  -20.2706   21.5908 C   0  0  0  0  0  0  0  0  0  0  0  0
  -28.9854  -20.3516   20.5849 C   0  0  0  0  0  0  0  0  0  0  0  0
  -28.6795  -19.5128   19.5134 C   0  0  0  0  0  0  0  0  0  0  0  0
  -23.6656  -18.6791   20.4993 C   0  0  0  0  0  0  0  0  0  0  0  0
  -20.1551  -24.6669   20.3864 C   0  0  0  0  0  0  0  0  0  0  0  0
  -29.6289  -21.1225   17.9822 C   0  0  0  0  0  0  0  0  0  0  0  0
  -20.4334  -25.7254   22.8860 C   0  0  0  0  0  0  0  0  0  0  0  0
  -28.2212  -26.1959   21.4539 C   0  0  0  0  0  0  0  0  0  0  0  0
  -28.0030  -28.6158   20.6770 C   0  0  0  0  0  0  0  0  0  0  0  0
  -30.3719  -12.1802   20.0471 C   0  0  0  0  0  0  0  0  0  0  0  0
  -25.4179  -17.8923   21.9724 C   0  0  0  0  0  0  0  0  0  0  0  0
  -30.0335  -13.5384   20.1993 C   0  0  0  0  0  0  0  0  0  0  0  0
  -24.3389  -17.6162   21.1205 C   0  0  0  0  0  0  0  0  0  0  0  0
  -19.5976  -25.9093   20.6670 C   0  0  0  0  0  0  0  0  0  0  0  0
  -19.7349  -26.4557   21.9381 C   0  0  0  0  0  0  0  0  0  0  0  0
  -29.3610  -23.6497   21.4314 C   0  0  0  0  0  0  0  0  0  0  0  0
  -24.0519  -19.9988   20.7321 C   0  0  0  0  0  0  0  0  0  0  0  0
  -29.6131  -21.5760   20.3551 C   0  0  0  0  0  0  0  0  0  0  0  0
  -29.0013  -19.8982   18.2120 C   0  0  0  0  0  0  0  0  0  0  0  0
  -29.9348  -21.9614   19.0538 C   0  0  0  0  0  0  0  0  0  0  0  0
  -27.6318  -27.5106   21.4659 C   0  0  0  0  0  0  0  0  0  0  0  0
  -20.8350  -24.0167   21.4037 C   0  0  0  0  0  0  0  0  0  0  0  0
  -27.1453  -29.6168   21.0629 C   0  0  0  0  0  0  0  0  0  0  0  0
  -29.0311  -28.7277   19.6839 C   0  0  0  0  0  0  0  0  0  0  0  0
  -26.8553  -15.3507   20.7163 C   0  0  0  0  0  0  0  0  0  0  0  0
  -24.1495  -13.8357   21.6681 C   0  0  0  0  0  0  0  0  0  0  0  0
  -20.8399  -14.0489   22.4729 C   0  0  0  0  0  0  0  0  0  0  0  0
  -21.6747  -29.5856   23.4966 C   0  0  0  0  0  0  0  0  0  0  0  0
  -29.4950  -11.2257   19.2760 C   0  0  0  0  0  0  0  0  0  0  0  0
  -26.1423  -16.7744   22.6709 C   0  0  0  0  0  0  0  0  0  0  0  0
  -23.8859  -16.2063   20.8460 C   0  0  0  0  0  0  0  0  0  0  0  0
  -28.0689  -11.7333   19.0782 C   0  0  0  0  0  0  0  0  0  0  0  0
  -24.5992  -31.1232   24.8231 C   0  0  0  0  0  0  0  0  0  0  0  0
  -28.0790  -13.1874   18.6175 C   0  0  0  0  0  0  0  0  0  0  0  0
  -25.7415  -30.4714   24.0419 C   0  0  0  0  0  0  0  0  0  0  0  0
  -23.4737  -30.1317   25.1096 C   0  0  0  0  0  0  0  0  0  0  0  0
  -24.0881  -28.7822   23.1411 C   0  0  0  0  0  0  0  0  0  0  0  0
  -28.7301  -14.0946   19.6684 C   0  0  1  0  0  0  0  0  0  0  0  0
  -26.0072  -15.4347   21.9538 C   0  0  1  0  0  0  0  0  0  0  0  0
  -25.2218  -29.7572   22.7798 C   0  0  2  0  0  0  0  0  0  0  0  0
  -18.8587  -26.6365   19.5927 C   0  0  0  0  0  0  0  0  0  0  0  0
  -18.8881  -12.6360   23.1740 C   0  0  0  0  0  0  0  0  0  0  0  0
  -23.8653  -12.8130   18.8074 C   0  0  0  0  0  0  0  0  0  0  0  0
  -21.4842  -12.2370   19.3240 C   0  0  0  0  0  0  0  0  0  0  0  0
  -23.3341  -11.1264   20.5758 C   0  0  0  0  0  0  0  0  0  0  0  0
  -20.5436  -15.5191   25.0243 C   0  0  0  0  0  0  0  0  0  0  0  0
  -19.1579  -27.7822   22.2925 C   0  0  0  0  0  0  0  0  0  0  0  0
  -19.9861  -28.9699   21.7853 C   0  0  0  0  0  0  0  0  0  0  0  0
  -21.2851  -22.1464   19.8146 C   0  0  0  0  0  0  0  0  0  0  0  0
  -22.0095  -20.8107   19.8236 C   0  0  0  0  0  0  0  0  0  1  0  0
  -22.8051  -13.5543   21.0418 C   0  0  1  0  0  0  0  0  0  0  0  0
  -20.0508  -13.4954   23.6456 C   0  0  2  0  0  0  0  0  0  0  0  0
  -22.8817  -12.4593   19.9407 C   0  0  0  0  0  0  0  0  0  0  0  0
  -20.9890  -24.5156   22.6507 N   0  0  0  0  0  0  0  0  0  0  0  0
  -26.6174  -27.7834   22.2909 N   0  0  0  0  0  0  0  0  0  0  0  0
  -26.3439  -29.0715   22.0225 N   0  0  0  0  0  0  0  0  0  0  0  0
  -24.6299  -15.1474   21.5478 N   0  0  0  0  0  0  0  0  0  0  0  0
  -23.0250  -29.4903   23.8714 N   0  0  0  0  0  0  0  0  0  0  0  0
  -27.0060  -30.9013   20.6718 N   0  0  0  0  0  0  0  0  0  0  0  0
  -28.7098  -28.4289   18.3529 N   0  0  0  0  0  0  0  0  0  0  0  0
  -21.3849  -22.7800   21.1095 N   0  0  0  0  0  0  0  0  0  0  0  0
  -27.8091  -14.3516   20.7547 N   0  0  0  0  0  0  0  0  0  0  0  0
  -21.9015  -13.2338   22.1415 N   0  0  0  0  0  0  0  0  0  0  0  0
  -21.3349  -28.9548   22.3061 N   0  0  0  0  0  0  0  0  0  0  0  0
  -19.5069  -14.6077   24.4751 N   0  3  0  0  0  0  0  0  0  0  0  0
  -30.2043  -29.0663   19.9711 O   0  0  0  0  0  0  0  0  0  0  0  0
  -26.6579  -16.1333   19.7942 O   0  0  0  0  0  0  0  0  0  0  0  0
  -24.7481  -12.9269   22.2490 O   0  0  0  0  0  0  0  0  0  0  0  0
  -20.5420  -15.0974   21.9050 O   0  0  0  0  0  0  0  0  0  0  0  0
  -20.8352  -30.1927   24.1701 O   0  0  0  0  0  0  0  0  0  0  0  0
  -29.9168  -22.4073   21.4201 O   0  0  0  0  0  0  0  0  0  0  0  0
  -23.3888  -21.0198   20.1241 O   0  0  0  0  0  0  0  0  0  1  0  0
  -28.7088  -19.0918   17.1832 F   0  0  0  0  0  0  0  0  0  0  0  0
  -30.5389  -23.1359   18.8269 F   0  0  0  0  0  0  0  0  0  0  0  0
  1  2  1  0  0  0  0
  1  5  2  0  0  0  0
  2  6  2  0  0  0  0
  3  8  2  0  0  0  0
  3 17  1  0  0  0  0
  4  9  1  0  0  0  0
  4 17  2  0  0  0  0
  5 19  1  0  0  0  0
  6 21  1  0  0  0  0
  7 10  2  0  0  0  0
  7 20  1  0  0  0  0
  8 25  1  0  0  0  0
  9 25  2  0  0  0  0
 10 26  1  0  0  0  0
 11 12  2  0  0  0  0
 11 27  1  0  0  0  0
 12 28  1  0  0  0  0
 13 22  1  0  0  0  0
 13 26  2  0  0  0  0
 14 23  2  0  0  0  0
 14 31  1  0  0  0  0
 15 28  2  0  0  0  0
 15 29  1  0  0  0  0
 16 24  2  0  0  0  0
 16 63  1  0  0  0  0
 17 30  1  0  0  0  0
 18 30  1  0  0  0  0
 18 32  2  0  0  0  0
 18 33  1  0  0  0  0
 19 21  2  0  0  0  0
 19 38  1  0  0  0  0
 20 22  2  0  0  0  0
 20 39  1  0  0  0  0
 21 47  1  0  0  0  0
 22 40  1  0  0  0  0
 23 24  1  0  0  0  0
 23 50  1  0  0  0  0
 24 56  1  0  0  0  0
 25 80  1  0  0  0  0
 26 81  1  0  0  0  0
 27 29  2  0  0  0  0
 27 80  1  0  0  0  0
 28 82  1  0  0  0  0
 29 83  1  0  0  0  0
 30 64  2  0  0  0  0
 31 63  2  0  0  0  0
 31 70  1  0  0  0  0
 32 65  1  0  0  0  0
 32 68  1  0  0  0  0
 33 69  1  0  0  0  0
 33 75  2  0  0  0  0
 34 48  1  0  0  0  0
 34 71  1  0  0  0  0
 34 76  2  0  0  0  0
 35 60  1  0  0  0  0
 35 66  1  0  0  0  0
 35 77  2  0  0  0  0
 36 61  1  0  0  0  0
 36 72  1  0  0  0  0
 36 78  2  0  0  0  0
 37 67  1  0  0  0  0
 37 73  1  0  0  0  0
 37 79  2  0  0  0  0
 38 41  1  0  0  0  0
 39 48  1  0  0  0  0
 40 66  1  0  0  0  0
 41 43  1  0  0  0  0
 42 44  1  0  0  0  0
 42 45  1  0  0  0  0
 43 47  1  0  0  0  0
 44 49  1  0  0  0  0
 45 67  1  0  0  0  0
 46 49  1  0  0  0  0
 46 67  1  0  0  0  0
 47 71  1  0  0  0  0
 48 66  1  0  0  0  0
 49 65  1  0  0  0  0
 51 61  1  0  0  0  0
 52 62  1  0  0  0  0
 53 62  1  0  0  0  0
 54 62  1  0  0  0  0
 55 74  1  0  0  0  0
 56 57  1  0  0  0  0
 57 73  1  0  0  0  0
 58 59  1  0  0  0  0
 58 70  1  0  0  0  0
 59 81  1  0  0  0  0
 60 62  1  0  0  0  0
 60 72  1  0  0  0  0
 61 74  1  0  0  0  0
 64 65  1  0  0  0  0
M  CHG  1  74   1
M  ISO  4  37 100  59 101  73 100  81 101
M  END
> <Batch ID>
0137

> <Smiles>
CNC(C)C(=O)NC(C(=O)N1Cc2cc([101O:1][101CH2:1]CNc3cc(C)c(CC[100NH:0][100C:0](=O)N4CCCC(n5nc(-c6ccc(Oc7ccc(F)cc7F)cc6)c(C(N)=O)c5N)C4)cn3)ccc2CC1C(=O)NC1CCCc2ccccc21)C(C)(C)C

> <Shape>
0.254

> <Color>
0.051

> <Negative vol penalty>
0.000

$$$$

  -OEChem-04052321053D

 87 96  0     1  0  0  0  0  0999 V2000
  -27.6718  -37.7751   25.8149 C   0  0  0  0  0  0  0  0  0  0  0  0
  -28.0233  -36.5799   26.4341 C   0  0  0  0  0  0  0  0  0  0  0  0
  -22.9135  -10.0608   20.2456 C   0  0  0  0  0  0  0  0  0  0  0  0
  -24.3573   -9.6998   22.1488 C   0  0  0  0  0  0  0  0  0  0  0  0
  -26.4299  -37.8980   25.1933 C   0  0  0  0  0  0  0  0  0  0  0  0
  -27.1324  -35.5071   26.4330 C   0  0  0  0  0  0  0  0  0  0  0  0
  -28.9715  -29.1624   23.5601 C   0  0  0  0  0  0  0  0  0  0  0  0
  -30.8176  -17.8977   24.6630 C   0  0  0  0  0  0  0  0  0  0  0  0
  -28.5799  -17.1465   25.1783 C   0  0  0  0  0  0  0  0  0  0  0  0
  -22.2569   -8.8602   20.5160 C   0  0  0  0  0  0  0  0  0  0  0  0
  -23.7006   -8.4992   22.4193 C   0  0  0  0  0  0  0  0  0  0  0  0
  -29.3237  -27.8562   23.2197 C   0  0  0  0  0  0  0  0  0  0  0  0
  -30.4625  -19.1991   25.0175 C   0  0  0  0  0  0  0  0  0  0  0  0
  -28.2248  -18.4480   25.5329 C   0  0  0  0  0  0  0  0  0  0  0  0
  -20.8074   -7.5145   23.8615 C   0  0  0  0  0  0  0  0  0  0  0  0
  -20.4572   -7.2532   25.1861 C   0  0  0  0  0  0  0  0  0  0  0  0
  -27.0807  -27.1079   23.7270 C   0  0  0  0  0  0  0  0  0  0  0  0
  -21.8172   -5.2566   25.1517 C   0  0  0  0  0  0  0  0  0  0  0  0
  -23.9638  -10.4805   21.0620 C   0  0  0  0  0  0  0  0  0  0  0  0
  -24.0777  -13.0091   20.7441 C   0  0  0  0  0  0  0  0  0  0  0  0
  -25.5272  -36.8230   25.1762 C   0  0  0  0  0  0  0  0  0  0  0  0
  -27.6668  -29.4494   23.9711 C   0  0  0  0  0  0  0  0  0  0  0  0
  -25.8766  -35.6162   25.8118 C   0  0  0  0  0  0  0  0  0  0  0  0
  -26.7188  -28.4166   24.0574 C   0  0  0  0  0  0  0  0  0  0  0  0
  -29.8764  -16.8714   24.7433 C   0  0  0  0  0  0  0  0  0  0  0  0
  -22.6504   -8.0795   21.6028 C   0  0  0  0  0  0  0  0  0  0  0  0
  -29.1661  -19.4742   25.4525 C   0  0  0  0  0  0  0  0  0  0  0  0
  -28.3806  -26.8315   23.3031 C   0  0  0  0  0  0  0  0  0  0  0  0
  -21.6624   -6.6468   23.1819 C   0  0  0  0  0  0  0  0  0  0  0  0
  -20.9621   -6.1242   25.8313 C   0  0  0  0  0  0  0  0  0  0  0  0
  -22.1673   -5.5179   23.8271 C   0  0  0  0  0  0  0  0  0  0  0  0
  -24.6428  -11.7203   20.7829 C   0  0  0  0  0  0  0  0  0  0  0  0
  -25.1306  -13.8367   20.4393 C   0  0  0  0  0  0  0  0  0  0  0  0
  -22.7222  -13.4213   20.9639 C   0  0  0  0  0  0  0  0  0  0  0  0
  -25.2114  -32.0522   25.0990 C   0  0  0  0  0  0  0  0  0  0  0  0
  -23.7099  -30.1788   23.1895 C   0  0  0  0  0  0  0  0  0  0  0  0
  -21.5945  -28.7911   20.9011 C   0  0  0  0  0  0  0  0  0  0  0  0
  -31.0480  -13.3628   21.2208 C   0  0  0  0  0  0  0  0  0  0  0  0
  -24.1773  -37.0188   24.5328 C   0  0  0  0  0  0  0  0  0  0  0  0
  -27.2597  -30.8309   24.4064 C   0  0  0  0  0  0  0  0  0  0  0  0
  -25.3367  -28.7659   24.5377 C   0  0  0  0  0  0  0  0  0  0  0  0
  -23.4412  -35.7114   24.2515 C   0  0  0  0  0  0  0  0  0  0  0  0
  -29.3284  -13.8650   18.1439 C   0  0  0  0  0  0  0  0  0  0  0  0
  -23.4995  -34.7935   25.4684 C   0  0  0  0  0  0  0  0  0  0  0  0
  -27.8815  -13.4886   18.4678 C   0  0  0  0  0  0  0  0  0  0  0  0
  -27.5542  -22.3371   24.5198 C   0  0  0  0  0  0  0  0  0  0  0  0
  -29.9268  -22.8206   25.2393 C   0  0  0  0  0  0  0  0  0  0  0  0
  -27.6197  -23.4911   23.5267 C   0  0  0  0  0  0  0  0  0  0  0  0
  -29.9927  -23.9740   24.2455 C   0  0  0  0  0  0  0  0  0  0  0  0
  -30.3228  -12.9734   18.8844 C   0  0  0  0  0  0  0  0  0  0  0  0
  -28.6812  -12.5321   20.6688 C   0  0  0  0  0  0  0  0  0  0  0  0
  -24.9474  -34.4218   25.8103 C   0  0  1  0  0  0  0  0  0  0  0  0
  -25.8063  -31.1766   24.0356 C   0  0  1  0  0  0  0  0  0  0  0  0
  -27.6420  -13.4397   19.9888 C   0  0  2  0  0  0  0  0  0  0  0  0
  -28.9369  -21.7465   24.7892 C   0  0  0  0  0  0  0  0  0  0  0  0
  -28.6101  -24.5649   23.9764 C   0  0  0  0  0  0  0  0  0  1  0  0
  -19.1533  -28.4802   20.4099 C   0  0  0  0  0  0  0  0  0  0  0  0
  -23.5572  -28.0166   25.3355 C   0  0  0  0  0  0  0  0  0  0  0  0
  -21.5150  -27.1266   24.1930 C   0  0  0  0  0  0  0  0  0  0  0  0
  -21.5077  -29.4358   25.1364 C   0  0  0  0  0  0  0  0  0  0  0  0
  -21.8007  -30.2734   18.3478 C   0  0  0  0  0  0  0  0  0  0  0  0
  -31.5456  -15.2041   23.9311 C   0  0  0  0  0  0  0  0  0  0  0  0
  -31.6218  -13.7195   23.6088 C   0  0  0  0  0  0  0  0  0  0  0  0
  -22.8388  -28.9571   23.0409 C   0  0  1  0  0  0  0  0  0  0  0  0
  -20.3797  -29.3505   20.1829 C   0  0  2  0  0  0  0  0  0  0  0  0
  -22.3792  -28.3866   24.4122 C   0  0  0  0  0  0  0  0  0  0  0  0
  -25.9530  -11.7238   20.5234 N   0  0  0  0  0  0  0  0  0  0  0  0
  -26.2199  -13.0249   20.3185 N   0  0  0  0  0  0  0  0  0  0  0  0
  -24.8941  -30.0261   23.9209 N   0  0  0  0  0  0  0  0  0  0  0  0
  -30.0417  -12.9722   20.3220 N   0  0  0  0  0  0  0  0  0  0  0  0
  -25.2217  -15.1723   20.2655 N   0  0  0  0  0  0  0  0  0  0  0  0
  -21.7668  -12.4417   21.2672 N   0  0  0  0  0  0  0  0  0  0  0  0
  -30.2355  -15.5555   24.3847 N   0  0  0  0  0  0  0  0  0  0  0  0
  -25.4344  -33.4022   24.9061 N   0  0  0  0  0  0  0  0  0  0  0  0
  -21.7441  -29.3415   22.1564 N   0  0  0  0  0  0  0  0  0  0  0  0
  -30.6965  -13.3390   22.5649 N   0  0  0  0  0  0  0  0  0  0  0  0
  -20.6354  -29.4292   18.7169 N   0  3  0  0  0  0  0  0  0  0  0  0
  -22.3654  -14.6208   20.8773 O   0  0  0  0  0  0  0  0  0  0  0  0
  -24.5938  -31.5418   26.0262 O   0  0  0  0  0  0  0  0  0  0  0  0
  -23.3499  -31.2422   22.6768 O   0  0  0  0  0  0  0  0  0  0  0  0
  -22.3345  -27.9473   20.4001 O   0  0  0  0  0  0  0  0  0  0  0  0
  -32.1746  -13.7122   20.8523 O   0  0  0  0  0  0  0  0  0  0  0  0
  -22.0098   -6.9080   21.8671 O   0  0  0  0  0  0  0  0  0  0  0  0
  -28.8173  -20.7521   25.8007 O   0  0  0  0  0  0  0  0  0  0  0  0
  -28.7299  -25.5593   22.9649 O   0  0  0  0  0  0  0  0  0  1  0  0
  -20.6270   -5.8743   27.1038 F   0  0  0  0  0  0  0  0  0  0  0  0
  -22.9901   -4.6813   23.1798 F   0  0  0  0  0  0  0  0  0  0  0  0
  1  2  1  0  0  0  0
  1  5  2  0  0  0  0
  2  6  2  0  0  0  0
  3 10  2  0  0  0  0
  3 19  1  0  0  0  0
  4 11  1  0  0  0  0
  4 19  2  0  0  0  0
  5 21  1  0  0  0  0
  6 23  1  0  0  0  0
  7 12  2  0  0  0  0
  7 22  1  0  0  0  0
  8 13  2  0  0  0  0
  8 25  1  0  0  0  0
  9 14  1  0  0  0  0
  9 25  2  0  0  0  0
 10 26  1  0  0  0  0
 11 26  2  0  0  0  0
 12 28  1  0  0  0  0
 13 27  1  0  0  0  0
 14 27  2  0  0  0  0
 15 16  2  0  0  0  0
 15 29  1  0  0  0  0
 16 30  1  0  0  0  0
 17 24  1  0  0  0  0
 17 28  2  0  0  0  0
 18 30  2  0  0  0  0
 18 31  1  0  0  0  0
 19 32  1  0  0  0  0
 20 32  1  0  0  0  0
 20 33  2  0  0  0  0
 20 34  1  0  0  0  0
 21 23  2  0  0  0  0
 21 39  1  0  0  0  0
 22 24  2  0  0  0  0
 22 40  1  0  0  0  0
 23 52  1  0  0  0  0
 24 41  1  0  0  0  0
 25 73  1  0  0  0  0
 26 83  1  0  0  0  0
 27 84  1  0  0  0  0
 28 85  1  0  0  0  0
 29 31  2  0  0  0  0
 29 83  1  0  0  0  0
 30 86  1  0  0  0  0
 31 87  1  0  0  0  0
 32 67  2  0  0  0  0
 33 68  1  0  0  0  0
 33 71  1  0  0  0  0
 34 72  1  0  0  0  0
 34 78  2  0  0  0  0
 35 53  1  0  0  0  0
 35 74  1  0  0  0  0
 35 79  2  0  0  0  0
 36 64  1  0  0  0  0
 36 69  1  0  0  0  0
 36 80  2  0  0  0  0
 37 65  1  0  0  0  0
 37 75  1  0  0  0  0
 37 81  2  0  0  0  0
 38 70  1  0  0  0  0
 38 76  1  0  0  0  0
 38 82  2  0  0  0  0
 39 42  1  0  0  0  0
 40 53  1  0  0  0  0
 41 69  1  0  0  0  0
 42 44  1  0  0  0  0
 43 45  1  0  0  0  0
 43 50  1  0  0  0  0
 44 52  1  0  0  0  0
 45 54  1  0  0  0  0
 46 48  1  0  0  0  0
 46 55  1  0  0  0  0
 47 49  1  0  0  0  0
 47 55  1  0  0  0  0
 48 56  1  0  0  0  0
 49 56  1  0  0  0  0
 50 70  1  0  0  0  0
 51 54  1  0  0  0  0
 51 70  1  0  0  0  0
 52 74  1  0  0  0  0
 53 69  1  0  0  0  0
 54 68  1  0  0  0  0
 55 84  1  0  0  0  0
 56 85  1  0  0  0  0
 57 65  1  0  0  0  0
 58 66  1  0  0  0  0
 59 66  1  0  0  0  0
 60 66  1  0  0  0  0
 61 77  1  0  0  0  0
 62 63  1  0  0  0  0
 62 73  1  0  0  0  0
 63 76  1  0  0  0  0
 64 66  1  0  0  0  0
 64 75  1  0  0  0  0
 65 77  1  0  0  0  0
 67 68  1  0  0  0  0
M  CHG  1  77   1
M  ISO  4  38 100  56 101  76 100  85 101
M  END
> <Batch ID>
0137

> <Smiles>
CNC(C)C(=O)NC(C(=O)N1Cc2cc([101O:1][101CH:1]3CCC(Oc4ccc(NCC[100NH:0][100C:0](=O)N5CCCC(n6nc(-c7ccc(Oc8ccc(F)cc8F)cc7)c(C(N)=O)c6N)C5)cc4)CC3)ccc2CC1C(=O)NC1CCCc2ccccc21)C(C)(C)C

> <Shape>
0.291

> <Color>
0.201

> <Negative vol penalty>
0.000

$$$$

  -OEChem-04052321053D

 87 96  0     1  0  0  0  0  0999 V2000
  -25.8199  -26.8712   25.6860 C   0  0  0  0  0  0  0  0  0  0  0  0
  -26.3987  -26.0690   24.7078 C   0  0  0  0  0  0  0  0  0  0  0  0
  -23.0593   -9.8994   19.9006 C   0  0  0  0  0  0  0  0  0  0  0  0
  -23.8663   -9.8009   22.1757 C   0  0  0  0  0  0  0  0  0  0  0  0
  -24.4894  -27.2690   25.5624 C   0  0  0  0  0  0  0  0  0  0  0  0
  -25.6467  -25.6630   23.6059 C   0  0  0  0  0  0  0  0  0  0  0  0
  -28.1803  -26.1308   19.2462 C   0  0  0  0  0  0  0  0  0  0  0  0
  -29.2695  -19.6555   16.7597 C   0  0  0  0  0  0  0  0  0  0  0  0
  -22.3239   -8.7330   20.1109 C   0  0  0  0  0  0  0  0  0  0  0  0
  -23.1307   -8.6345   22.3861 C   0  0  0  0  0  0  0  0  0  0  0  0
  -29.1274  -25.1508   18.9518 C   0  0  0  0  0  0  0  0  0  0  0  0
  -29.6930  -20.9845   16.7570 C   0  0  0  0  0  0  0  0  0  0  0  0
  -19.9178   -7.7975   23.0161 C   0  0  0  0  0  0  0  0  0  0  0  0
  -19.1852   -7.6996   24.1990 C   0  0  0  0  0  0  0  0  0  0  0  0
  -27.5443  -24.0692   17.4878 C   0  0  0  0  0  0  0  0  0  0  0  0
  -28.5057  -21.3672   18.8258 C   0  0  0  0  0  0  0  0  0  0  0  0
  -20.4467   -5.7341   24.8176 C   0  0  0  0  0  0  0  0  0  0  0  0
  -23.8306  -10.4333   20.9330 C   0  0  0  0  0  0  0  0  0  0  0  0
  -24.1632  -12.9625   20.9254 C   0  0  0  0  0  0  0  0  0  0  0  0
  -23.7236  -26.8757   24.4535 C   0  0  0  0  0  0  0  0  0  0  0  0
  -26.9024  -26.0811   18.6710 C   0  0  0  0  0  0  0  0  0  0  0  0
  -24.3042  -26.0547   23.4680 C   0  0  0  0  0  0  0  0  0  0  0  0
  -28.4641  -19.1823   17.7956 C   0  0  0  0  0  0  0  0  0  0  0  0
  -26.5837  -25.0511   17.7745 C   0  0  0  0  0  0  0  0  0  0  0  0
  -28.0822  -20.0382   18.8286 C   0  0  0  0  0  0  0  0  0  0  0  0
  -22.3595   -8.1006   21.3537 C   0  0  0  0  0  0  0  0  0  0  0  0
  -28.8085  -24.1183   18.0748 C   0  0  0  0  0  0  0  0  0  0  0  0
  -29.3111  -21.8404   17.7901 C   0  0  0  0  0  0  0  0  0  1  0  0
  -20.9148   -6.8636   22.7339 C   0  0  0  0  0  0  0  0  0  0  0  0
  -19.4497   -6.6679   25.0998 C   0  0  0  0  0  0  0  0  0  0  0  0
  -21.1792   -5.8320   23.6346 C   0  0  0  0  0  0  0  0  0  0  0  0
  -24.5910  -11.6378   20.7161 C   0  0  0  0  0  0  0  0  0  0  0  0
  -25.2456  -13.7323   20.5757 C   0  0  0  0  0  0  0  0  0  0  0  0
  -22.9002  -13.4534   21.3941 C   0  0  0  0  0  0  0  0  0  0  0  0
  -23.9441  -25.7998   19.7994 C   0  0  0  0  0  0  0  0  0  0  0  0
  -23.1313  -26.2968   16.6987 C   0  0  0  0  0  0  0  0  0  0  0  0
  -24.0242  -26.1399   13.4086 C   0  0  0  0  0  0  0  0  0  0  0  0
  -30.7293  -14.7612   20.6999 C   0  0  0  0  0  0  0  0  0  0  0  0
  -22.2753  -27.2915   24.3872 C   0  0  0  0  0  0  0  0  0  0  0  0
  -25.9010  -27.1607   18.9781 C   0  0  0  0  0  0  0  0  0  0  0  0
  -25.2326  -24.9638   17.1148 C   0  0  0  0  0  0  0  0  0  0  0  0
  -21.6575  -27.1278   23.0009 C   0  0  0  0  0  0  0  0  0  0  0  0
  -29.5492  -12.4878   18.2269 C   0  0  0  0  0  0  0  0  0  0  0  0
  -22.0118  -25.7642   22.4162 C   0  0  0  0  0  0  0  0  0  0  0  0
  -28.1217  -12.1688   18.6747 C   0  0  0  0  0  0  0  0  0  0  0  0
  -30.4903  -12.6551   19.4179 C   0  0  0  0  0  0  0  0  0  0  0  0
  -28.6155  -13.3130   20.8760 C   0  0  0  0  0  0  0  0  0  0  0  0
  -26.5047  -17.3470   17.5173 C   0  0  0  0  0  0  0  0  0  0  0  0
  -28.2427  -16.8178   16.5123 C   0  0  0  0  0  0  0  0  0  0  0  0
  -27.9944  -17.6718   17.7778 C   0  0  0  0  0  0  0  0  0  0  0  0
  -23.5284  -25.6143   22.2456 C   0  0  1  0  0  0  0  0  0  0  0  0
  -24.4594  -26.7254   18.7339 C   0  0  1  0  0  0  0  0  0  0  0  0
  -27.6178  -13.1907   19.7116 C   0  0  2  0  0  0  0  0  0  0  0  0
  -23.1353  -26.5782   11.1031 C   0  0  0  0  0  0  0  0  0  0  0  0
  -31.7119  -16.5599   23.2346 C   0  0  0  0  0  0  0  0  0  0  0  0
  -21.4781  -23.7368   16.8521 C   0  0  0  0  0  0  0  0  0  0  0  0
  -21.4069  -23.7155   14.3496 C   0  0  0  0  0  0  0  0  0  0  0  0
  -20.3854  -25.6113   15.6085 C   0  0  0  0  0  0  0  0  0  0  0  0
  -26.1137  -28.1633   12.8617 C   0  0  0  0  0  0  0  0  0  0  0  0
  -27.2191  -19.5522   19.9458 C   0  0  0  0  0  0  0  0  0  0  0  0
  -27.9694  -19.3112   21.2558 C   0  0  0  0  0  0  0  0  0  0  0  0
  -29.8149  -17.9796   22.2852 C   0  0  0  0  0  0  0  0  0  0  0  0
  -22.9032  -25.4106   15.4980 C   0  0  1  0  0  0  0  0  0  0  0  0
  -23.9046  -27.1515   12.2830 C   0  0  2  0  0  0  0  0  0  0  0  0
  -30.8149  -16.8513   22.0354 C   0  0  2  0  0  0  0  0  0  0  0  0
  -21.5683  -24.6189   15.5908 C   0  0  0  0  0  0  0  0  0  0  0  0
  -25.8473  -11.5664   20.2680 N   0  0  0  0  0  0  0  0  0  0  0  0
  -26.2180  -12.8560   20.1928 N   0  0  0  0  0  0  0  0  0  0  0  0
  -24.2855  -26.0395   17.4519 N   0  0  0  0  0  0  0  0  0  0  0  0
  -29.9553  -13.6387   20.3625 N   0  0  0  0  0  0  0  0  0  0  0  0
  -25.4509  -15.0665   20.5614 N   0  0  0  0  0  0  0  0  0  0  0  0
  -21.8979  -12.5256   21.7087 N   0  0  0  0  0  0  0  0  0  0  0  0
  -23.9787  -26.3339   21.0734 N   0  0  0  0  0  0  0  0  0  0  0  0
  -23.0050  -26.2752   14.3273 N   0  0  0  0  0  0  0  0  0  0  0  0
  -30.1451  -15.6471   21.5969 N   0  0  0  0  0  0  0  0  0  0  0  0
  -26.9412  -16.1737   16.7456 N   0  3  0  0  0  0  0  0  0  0  0  0
  -25.2567  -27.5607   11.8084 N   0  3  0  0  0  0  0  0  0  0  0  0
  -28.9895  -18.2488   21.0764 N   0  3  0  0  0  0  0  0  0  0  0  0
  -22.6619  -14.6791   21.5143 O   0  0  0  0  0  0  0  0  0  0  0  0
  -23.5433  -24.6842   19.4886 O   0  0  0  0  0  0  0  0  0  0  0  0
  -22.3191  -27.1892   16.9546 O   0  0  0  0  0  0  0  0  0  0  0  0
  -24.9291  -25.3102   13.4650 O   0  0  0  0  0  0  0  0  0  0  0  0
  -31.8552  -14.9620   20.2319 O   0  0  0  0  0  0  0  0  0  0  0  0
  -21.6417   -6.9626   21.5594 O   0  0  0  0  0  0  0  0  0  0  0  0
  -29.7308  -23.1601   17.7862 O   0  0  0  0  0  0  0  0  0  1  0  0
  -18.7471   -6.5750   26.2365 F   0  0  0  0  0  0  0  0  0  0  0  0
  -22.1366   -4.9325   23.3695 F   0  0  0  0  0  0  0  0  0  0  0  0
  1  2  1  0  0  0  0
  1  5  2  0  0  0  0
  2  6  2  0  0  0  0
  3  9  2  0  0  0  0
  3 18  1  0  0  0  0
  4 10  1  0  0  0  0
  4 18  2  0  0  0  0
  5 20  1  0  0  0  0
  6 22  1  0  0  0  0
  7 11  2  0  0  0  0
  7 21  1  0  0  0  0
  8 12  2  0  0  0  0
  8 23  1  0  0  0  0
  9 26  1  0  0  0  0
 10 26  2  0  0  0  0
 11 27  1  0  0  0  0
 12 28  1  0  0  0  0
 13 14  2  0  0  0  0
 13 29  1  0  0  0  0
 14 30  1  0  0  0  0
 15 24  1  0  0  0  0
 15 27  2  0  0  0  0
 16 25  1  0  0  0  0
 16 28  2  0  0  0  0
 17 30  2  0  0  0  0
 17 31  1  0  0  0  0
 18 32  1  0  0  0  0
 19 32  1  0  0  0  0
 19 33  2  0  0  0  0
 19 34  1  0  0  0  0
 20 22  2  0  0  0  0
 20 39  1  0  0  0  0
 21 24  2  0  0  0  0
 21 40  1  0  0  0  0
 22 51  1  0  0  0  0
 23 25  2  0  0  0  0
 23 50  1  0  0  0  0
 24 41  1  0  0  0  0
 25 60  1  0  0  0  0
 26 84  1  0  0  0  0
 27 85  1  0  0  0  0
 28 85  1  0  0  0  0
 29 31  2  0  0  0  0
 29 84  1  0  0  0  0
 30 86  1  0  0  0  0
 31 87  1  0  0  0  0
 32 67  2  0  0  0  0
 33 68  1  0  0  0  0
 33 71  1  0  0  0  0
 34 72  1  0  0  0  0
 34 79  2  0  0  0  0
 35 52  1  0  0  0  0
 35 73  1  0  0  0  0
 35 80  2  0  0  0  0
 36 63  1  0  0  0  0
 36 69  1  0  0  0  0
 36 81  2  0  0  0  0
 37 64  1  0  0  0  0
 37 74  1  0  0  0  0
 37 82  2  0  0  0  0
 38 70  1  0  0  0  0
 38 75  1  0  0  0  0
 38 83  2  0  0  0  0
 39 42  1  0  0  0  0
 40 52  1  0  0  0  0
 41 69  1  0  0  0  0
 42 44  1  0  0  0  0
 43 45  1  0  0  0  0
 43 46  1  0  0  0  0
 44 51  1  0  0  0  0
 45 53  1  0  0  0  0
 46 70  1  0  0  0  0
 47 53  1  0  0  0  0
 47 70  1  0  0  0  0
 48 50  1  0  0  0  0
 48 76  1  0  0  0  0
 49 50  1  0  0  0  0
 49 76  1  0  0  0  0
 51 73  1  0  0  0  0
 52 69  1  0  0  0  0
 53 68  1  0  0  0  0
 54 64  1  0  0  0  0
 55 65  1  0  0  0  0
 56 66  1  0  0  0  0
 57 66  1  0  0  0  0
 58 66  1  0  0  0  0
 59 77  1  0  0  0  0
 60 61  1  0  0  0  0
 61 78  1  0  0  0  0
 62 65  1  0  0  0  0
 62 78  1  0  0  0  0
 63 66  1  0  0  0  0
 63 74  1  0  0  0  0
 64 77  1  0  0  0  0
 65 75  1  0  0  0  0
 67 68  1  0  0  0  0
M  CHG  3  76   1  77   1  78   1
M  ISO  4  28 101  38 100  75 100  85 101
M  END
> <Batch ID>
0137

> <Smiles>
CNC(C)C(=O)NC(C(=O)N1Cc2cc([101O:1][101c:1]3ccc(C4CNC4)c(CCNCC(C)[100NH:0][100C:0](=O)N4CCCC(n5nc(-c6ccc(Oc7ccc(F)cc7F)cc6)c(C(N)=O)c5N)C4)c3)ccc2CC1C(=O)NC1CCCc2ccccc21)C(C)(C)C

> <Shape>
0.256

> <Color>
0.182

> <Negative vol penalty>
0.000

$$$$

  -OEChem-04052321053D

 85 94  0     1  0  0  0  0  0999 V2000
  -28.6093  -36.1761   26.2908 C   0  0  0  0  0  0  0  0  0  0  0  0
  -28.3440  -34.8399   26.5729 C   0  0  0  0  0  0  0  0  0  0  0  0
  -24.1801   -9.5896   22.3274 C   0  0  0  0  0  0  0  0  0  0  0  0
  -24.2546   -9.1119   19.9603 C   0  0  0  0  0  0  0  0  0  0  0  0
  -27.7223  -36.9109   25.5052 C   0  0  0  0  0  0  0  0  0  0  0  0
  -27.1908  -34.2380   26.0704 C   0  0  0  0  0  0  0  0  0  0  0  0
  -24.6843  -21.1991   23.9549 C   0  0  0  0  0  0  0  0  0  0  0  0
  -28.0828  -29.6442   24.1349 C   0  0  0  0  0  0  0  0  0  0  0  0
  -25.4297  -21.8819   24.9155 C   0  0  0  0  0  0  0  0  0  0  0  0
  -23.0781   -8.7454   22.4632 C   0  0  0  0  0  0  0  0  0  0  0  0
  -23.1526   -8.2676   20.0960 C   0  0  0  0  0  0  0  0  0  0  0  0
  -28.2308  -28.5912   25.0365 C   0  0  0  0  0  0  0  0  0  0  0  0
  -22.4967   -5.4202   22.6586 C   0  0  0  0  0  0  0  0  0  0  0  0
  -22.4934   -4.5257   23.7288 C   0  0  0  0  0  0  0  0  0  0  0  0
  -27.4560  -20.9122   24.0326 C   0  0  0  0  0  0  0  0  0  0  0  0
  -25.9523  -27.9194   24.6167 C   0  0  0  0  0  0  0  0  0  0  0  0
  -20.4662   -5.5373   24.5680 C   0  0  0  0  0  0  0  0  0  0  0  0
  -24.7684   -9.7729   21.0760 C   0  0  0  0  0  0  0  0  0  0  0  0
  -27.2652  -10.2951   21.0482 C   0  0  0  0  0  0  0  0  0  0  0  0
  -26.5626  -36.3151   24.9848 C   0  0  0  0  0  0  0  0  0  0  0  0
  -25.3188  -20.3713   23.0180 C   0  0  0  0  0  0  0  0  0  0  0  0
  -26.8629  -29.8497   23.4745 C   0  0  0  0  0  0  0  0  0  0  0  0
  -26.2868  -34.9659   25.2782 C   0  0  0  0  0  0  0  0  0  0  0  0
  -26.7161  -20.2122   23.0693 C   0  0  0  0  0  0  0  0  0  0  0  0
  -25.7921  -28.9743   23.7053 C   0  0  0  0  0  0  0  0  0  0  0  0
  -26.8145  -21.7405   24.9528 C   0  0  0  0  0  0  0  0  0  0  0  0
  -22.5644   -8.0843   21.3475 C   0  0  0  0  0  0  0  0  0  0  0  0
  -27.1646  -27.7303   25.2797 C   0  0  0  0  0  0  0  0  0  0  0  0
  -21.4849   -6.3734   22.5431 C   0  0  0  0  0  0  0  0  0  0  0  0
  -21.4781   -4.5842   24.6835 C   0  0  0  0  0  0  0  0  0  0  0  0
  -20.4696   -6.4319   23.4978 C   0  0  0  0  0  0  0  0  0  0  0  0
  -25.9064  -10.6453   20.9350 C   0  0  0  0  0  0  0  0  0  0  0  0
  -27.9419  -11.4705   20.8315 C   0  0  0  0  0  0  0  0  0  0  0  0
  -27.8623   -9.0212   21.3246 C   0  0  0  0  0  0  0  0  0  0  0  0
  -24.7211  -32.1971   23.3980 C   0  0  0  0  0  0  0  0  0  0  0  0
  -23.3662  -30.3601   21.0933 C   0  0  0  0  0  0  0  0  0  0  0  0
  -22.9645  -27.2609   19.7220 C   0  0  0  0  0  0  0  0  0  0  0  0
  -26.6401  -17.0483   21.6289 C   0  0  0  0  0  0  0  0  0  0  0  0
  -25.6096  -37.1627   24.1798 C   0  0  0  0  0  0  0  0  0  0  0  0
  -26.7277  -30.9742   22.4848 C   0  0  0  0  0  0  0  0  0  0  0  0
  -24.4844  -19.6168   22.0099 C   0  0  0  0  0  0  0  0  0  0  0  0
  -27.4366  -19.3500   22.0638 C   0  0  0  0  0  0  0  0  0  0  0  0
  -24.4681  -29.1395   23.0067 C   0  0  0  0  0  0  0  0  0  0  0  0
  -24.6005  -36.3476   23.3751 C   0  0  0  0  0  0  0  0  0  0  0  0
  -27.5683  -15.6488   18.5413 C   0  0  0  0  0  0  0  0  0  0  0  0
  -23.9871  -35.2520   24.2412 C   0  0  0  0  0  0  0  0  0  0  0  0
  -27.3777  -14.1571   18.8141 C   0  0  0  0  0  0  0  0  0  0  0  0
  -26.4546  -16.4922   19.1643 C   0  0  0  0  0  0  0  0  0  0  0  0
  -26.0644  -14.7576   20.8830 C   0  0  0  0  0  0  0  0  0  0  0  0
  -25.0591  -34.2708   24.7308 C   0  0  1  0  0  0  0  0  0  0  0  0
  -25.2801  -31.3974   22.2553 C   0  0  1  0  0  0  0  0  0  0  0  0
  -27.2001  -13.8898   20.3192 C   0  0  1  0  0  0  0  0  0  0  0  0
  -25.2984  -19.0447   20.8321 C   0  0  1  0  0  0  0  0  0  0  0  0
  -25.5814  -20.1131   19.7704 C   0  0  0  0  0  0  0  0  0  0  0  0
  -21.7671  -26.0674   17.8675 C   0  0  0  0  0  0  0  0  0  0  0  0
  -20.7659  -30.5033   22.6832 C   0  0  0  0  0  0  0  0  0  0  0  0
  -19.9160  -28.5732   21.3339 C   0  0  0  0  0  0  0  0  0  0  0  0
  -20.4885  -30.7241   20.2076 C   0  0  0  0  0  0  0  0  0  0  0  0
  -25.5079  -26.4024   18.4759 C   0  0  0  0  0  0  0  0  0  0  0  0
  -27.6117  -22.4750   25.9772 C   0  0  0  0  0  0  0  0  0  0  0  0
  -28.5001  -24.6874   26.7220 C   0  0  0  0  0  0  0  0  0  0  0  0
  -28.6088  -26.1389   26.2984 C   0  0  0  0  0  0  0  0  0  1  0  0
  -22.3473  -29.2463   21.0753 C   0  0  1  0  0  0  0  0  0  0  0  0
  -23.0457  -26.7767   18.2856 C   0  0  2  0  0  0  0  0  0  0  0  0
  -20.9036  -29.7595   21.3398 C   0  0  0  0  0  0  0  0  0  0  0  0
  -25.7286  -11.9418   20.6673 N   0  0  0  0  0  0  0  0  0  0  0  0
  -26.9846  -12.4165   20.6105 N   0  0  0  0  0  0  0  0  0  0  0  0
  -24.3833  -30.2577   22.0528 N   0  0  0  0  0  0  0  0  0  0  0  0
  -26.5347  -18.4286   21.3641 N   0  0  0  0  0  0  0  0  0  0  0  0
  -26.2935  -16.1736   20.5884 N   0  0  0  0  0  0  0  0  0  0  0  0
  -29.2565  -11.7768   20.8103 N   0  0  0  0  0  0  0  0  0  0  0  0
  -27.0210   -7.9177   21.5216 N   0  0  0  0  0  0  0  0  0  0  0  0
  -25.4256  -33.3536   23.6730 N   0  0  0  0  0  0  0  0  0  0  0  0
  -22.5134  -28.5616   19.7978 N   0  0  0  0  0  0  0  0  0  0  0  0
  -24.1840  -25.8288   18.1220 N   0  3  0  0  0  0  0  0  0  0  0  0
  -27.7570  -23.9275   25.6833 N   0  3  0  0  0  0  0  0  0  0  0  0
  -29.1045   -8.8694   21.4109 O   0  0  0  0  0  0  0  0  0  0  0  0
  -23.7236  -31.7955   23.9856 O   0  0  0  0  0  0  0  0  0  0  0  0
  -23.2675  -31.2832   20.2809 O   0  0  0  0  0  0  0  0  0  0  0  0
  -23.2671  -26.5545   20.6812 O   0  0  0  0  0  0  0  0  0  0  0  0
  -27.0137  -16.6236   22.7295 O   0  0  0  0  0  0  0  0  0  0  0  0
  -21.4892   -7.2603   21.4796 O   0  0  0  0  0  0  0  0  0  0  0  0
  -27.3072  -26.6947   26.1661 O   0  0  0  0  0  0  0  0  0  1  0  0
  -21.4741   -3.7241   25.7104 F   0  0  0  0  0  0  0  0  0  0  0  0
  -19.4942   -7.3446   23.3915 F   0  0  0  0  0  0  0  0  0  0  0  0
  1  2  1  0  0  0  0
  1  5  2  0  0  0  0
  2  6  2  0  0  0  0
  3 10  2  0  0  0  0
  3 18  1  0  0  0  0
  4 11  1  0  0  0  0
  4 18  2  0  0  0  0
  5 20  1  0  0  0  0
  6 23  1  0  0  0  0
  7  9  2  0  0  0  0
  7 21  1  0  0  0  0
  8 12  2  0  0  0  0
  8 22  1  0  0  0  0
  9 26  1  0  0  0  0
 10 27  1  0  0  0  0
 11 27  2  0  0  0  0
 12 28  1  0  0  0  0
 13 14  2  0  0  0  0
 13 29  1  0  0  0  0
 14 30  1  0  0  0  0
 15 24  1  0  0  0  0
 15 26  2  0  0  0  0
 16 25  1  0  0  0  0
 16 28  2  0  0  0  0
 17 30  2  0  0  0  0
 17 31  1  0  0  0  0
 18 32  1  0  0  0  0
 19 32  1  0  0  0  0
 19 33  2  0  0  0  0
 19 34  1  0  0  0  0
 20 23  2  0  0  0  0
 20 39  1  0  0  0  0
 21 24  2  0  0  0  0
 21 41  1  0  0  0  0
 22 25  2  0  0  0  0
 22 40  1  0  0  0  0
 23 50  1  0  0  0  0
 24 42  1  0  0  0  0
 25 43  1  0  0  0  0
 26 60  1  0  0  0  0
 27 82  1  0  0  0  0
 28 83  1  0  0  0  0
 29 31  2  0  0  0  0
 29 82  1  0  0  0  0
 30 84  1  0  0  0  0
 31 85  1  0  0  0  0
 32 66  2  0  0  0  0
 33 67  1  0  0  0  0
 33 71  1  0  0  0  0
 34 72  1  0  0  0  0
 34 77  2  0  0  0  0
 35 51  1  0  0  0  0
 35 73  1  0  0  0  0
 35 78  2  0  0  0  0
 36 63  1  0  0  0  0
 36 68  1  0  0  0  0
 36 79  2  0  0  0  0
 37 64  1  0  0  0  0
 37 74  1  0  0  0  0
 37 80  2  0  0  0  0
 38 69  1  0  0  0  0
 38 70  1  0  0  0  0
 38 81  2  0  0  0  0
 39 44  1  0  0  0  0
 40 51  1  0  0  0  0
 41 53  1  0  0  0  0
 42 69  1  0  0  0  0
 43 68  1  0  0  0  0
 44 46  1  0  0  0  0
 45 47  1  0  0  0  0
 45 48  1  0  0  0  0
 46 50  1  0  0  0  0
 47 52  1  0  0  0  0
 48 70  1  0  0  0  0
 49 52  1  0  0  0  0
 49 70  1  0  0  0  0
 50 73  1  0  0  0  0
 51 68  1  0  0  0  0
 52 67  1  0  0  0  0
 53 54  1  0  0  0  0
 53 69  1  0  0  0  0
 55 64  1  0  0  0  0
 56 65  1  0  0  0  0
 57 65  1  0  0  0  0
 58 65  1  0  0  0  0
 59 75  1  0  0  0  0
 60 76  1  0  0  0  0
 61 62  1  0  0  0  0
 61 76  1  0  0  0  0
 62 83  1  0  0  0  0
 63 65  1  0  0  0  0
 63 74  1  0  0  0  0
 64 75  1  0  0  0  0
 66 67  1  0  0  0  0
M  CHG  2  75   1  76   1
M  ISO  4  38 100  62 101  69 100  83 101
M  END
> <Batch ID>
0137

> <Smiles>
CNC(C)C(=O)NC(C(=O)N1Cc2cc([101O:1][101CH2:1]CNCc3ccc4c(c3)C[100N:0]([100C:0](=O)N3CCCC(n5nc(-c6ccc(Oc7ccc(F)cc7F)cc6)c(C(N)=O)c5N)C3)C(C)C4)ccc2CC1C(=O)NC1CCCc2ccccc21)C(C)(C)C

> <Shape>
0.253

> <Color>
0.093

> <Negative vol penalty>
0.000

$$$$

  -OEChem-04052321053D

 86 94  0     1  0  0  0  0  0999 V2000
  -23.3707  -24.5010   20.9541 C   0  0  0  0  0  0  0  0  0  0  0  0
  -23.2944  -23.1362   21.2124 C   0  0  0  0  0  0  0  0  0  0  0  0
  -27.6941  -23.4346   20.8328 C   0  0  0  0  0  0  0  0  0  0  0  0
  -28.5327  -23.2234   18.5769 C   0  0  0  0  0  0  0  0  0  0  0  0
  -22.2031  -25.2552   20.8458 C   0  0  0  0  0  0  0  0  0  0  0  0
  -22.0503  -22.5249   21.3637 C   0  0  0  0  0  0  0  0  0  0  0  0
  -21.7199  -18.1430   18.8467 C   0  0  0  0  0  0  0  0  0  0  0  0
  -27.7558  -24.8240   20.7257 C   0  0  0  0  0  0  0  0  0  0  0  0
  -28.5943  -24.6128   18.4697 C   0  0  0  0  0  0  0  0  0  0  0  0
  -22.3291  -17.0297   19.4239 C   0  0  0  0  0  0  0  0  0  0  0  0
  -25.9210  -27.2987   19.3321 C   0  0  0  0  0  0  0  0  0  0  0  0
  -26.3059  -10.7581   21.1829 C   0  0  0  0  0  0  0  0  0  0  0  0
  -24.8275  -28.0334   19.7905 C   0  0  0  0  0  0  0  0  0  0  0  0
  -27.3141  -11.3700   20.4463 C   0  0  0  0  0  0  0  0  0  0  0  0
  -20.1855  -16.2919   20.2485 C   0  0  0  0  0  0  0  0  0  0  0  0
  -26.2543  -29.1675   21.3764 C   0  0  0  0  0  0  0  0  0  0  0  0
  -28.0826  -22.6343   19.7584 C   0  0  0  0  0  0  0  0  0  0  0  0
  -26.9313  -20.3682   19.5417 C   0  0  0  0  0  0  0  0  0  0  0  0
  -20.9437  -24.6510   20.9863 C   0  0  0  0  0  0  0  0  0  0  0  0
  -20.3382  -18.3452   18.9756 C   0  0  0  0  0  0  0  0  0  0  0  0
  -20.8647  -23.2719   21.2585 C   0  0  0  0  0  0  0  0  0  0  0  0
  -19.5608  -17.4072   19.6699 C   0  0  0  0  0  0  0  0  0  0  0  0
  -28.2058  -25.4131   19.5442 C   0  0  0  0  0  0  0  0  0  0  0  0
  -21.5623  -16.1054   20.1274 C   0  0  0  0  0  0  0  0  0  0  0  0
  -27.1811  -27.4984   19.8959 C   0  0  0  0  0  0  0  0  0  0  0  0
  -25.0161  -11.2761   21.1498 C   0  0  0  0  0  0  0  0  0  0  0  0
  -24.9942  -28.9678   20.8127 C   0  0  0  0  0  0  0  0  0  0  0  0
  -27.3478  -28.4328   20.9180 C   0  0  0  0  0  0  0  0  0  0  0  0
  -28.0197  -21.1991   19.8687 C   0  0  0  0  0  0  0  0  0  0  0  0
  -24.7879  -12.3990   20.3707 C   0  0  0  0  0  0  0  0  0  0  0  0
  -26.9830  -12.4886   19.6986 C   0  0  0  0  0  0  0  0  0  0  0  0
  -27.3719  -19.0982   19.8235 C   0  0  0  0  0  0  0  0  0  0  0  0
  -25.6376  -20.7136   19.0290 C   0  0  0  0  0  0  0  0  0  0  0  0
  -23.4314  -13.0126   20.2866 C   0  0  0  0  0  0  0  0  0  0  0  0
  -18.5128  -20.5930   20.2865 C   0  0  0  0  0  0  0  0  0  0  0  0
  -16.1116  -18.8851   18.9301 C   0  0  0  0  0  0  0  0  0  0  0  0
  -15.0113  -15.8891   17.7218 C   0  0  0  0  0  0  0  0  0  0  0  0
  -31.3200  -15.1592   19.6181 C   0  0  0  0  0  0  0  0  0  0  0  0
  -19.7108  -25.5161   20.9079 C   0  0  0  0  0  0  0  0  0  0  0  0
  -19.6923  -19.5372   18.3244 C   0  0  0  0  0  0  0  0  0  0  0  0
  -18.0708  -17.5676   19.8197 C   0  0  0  0  0  0  0  0  0  0  0  0
  -18.4218  -24.7228   20.7093 C   0  0  0  0  0  0  0  0  0  0  0  0
  -31.4999  -17.5154   22.2813 C   0  0  0  0  0  0  0  0  0  0  0  0
  -18.3727  -23.5357   21.6660 C   0  0  0  0  0  0  0  0  0  0  0  0
  -30.5259  -18.6175   21.8611 C   0  0  0  0  0  0  0  0  0  0  0  0
  -32.2432  -16.9316   21.0819 C   0  0  0  0  0  0  0  0  0  0  0  0
  -30.4023  -17.5575   19.5676 C   0  0  0  0  0  0  0  0  0  0  0  0
  -19.5331  -22.5680   21.4043 C   0  0  1  0  0  0  0  0  0  0  0  0
  -18.3553  -19.9120   18.9564 C   0  0  1  0  0  0  0  0  0  0  0  0
  -29.5883  -18.1384   20.7365 C   0  0  2  0  0  0  0  0  0  0  0  0
  -12.9909  -14.7935   16.7143 C   0  0  0  0  0  0  0  0  0  0  0  0
  -29.8623  -13.5413   16.6363 C   0  0  0  0  0  0  0  0  0  0  0  0
  -14.7965  -18.7855   21.6816 C   0  0  0  0  0  0  0  0  0  0  0  0
  -13.3386  -16.9320   20.8407 C   0  0  0  0  0  0  0  0  0  0  0  0
  -13.2175  -19.1887   19.7846 C   0  0  0  0  0  0  0  0  0  0  0  0
  -16.4619  -15.2466   15.2234 C   0  0  0  0  0  0  0  0  0  0  0  0
  -24.3738   -9.5331   22.6347 C   0  0  0  0  0  0  0  0  0  0  0  0
  -23.3204  -14.5057   20.0484 C   0  0  0  0  0  0  0  0  0  1  0  0
  -29.3612  -12.6124   18.9540 C   0  0  0  0  0  0  0  0  0  0  0  0
  -15.2410  -17.7317   19.3669 C   0  0  1  0  0  0  0  0  0  0  0  0
  -14.2949  -15.5241   16.4341 C   0  0  2  0  0  0  0  0  0  0  0  0
  -30.2820  -13.4907   18.1022 C   0  0  2  0  0  0  0  0  0  0  0  0
  -14.1768  -18.1572   20.4175 C   0  0  0  0  0  0  0  0  0  0  0  0
  -29.0725  -20.5145   20.3236 N   0  0  0  0  0  0  0  0  0  0  0  0
  -25.7416  -13.0208   19.6416 N   0  0  0  0  0  0  0  0  0  0  0  0
  -28.6477  -19.2401   20.2845 N   0  0  0  0  0  0  0  0  0  0  0  0
  -17.4866  -18.7528   19.1704 N   0  0  0  0  0  0  0  0  0  0  0  0
  -31.2969  -16.4948   20.0526 N   0  0  0  0  0  0  0  0  0  0  0  0
  -26.7887  -17.8852   19.7195 N   0  0  0  0  0  0  0  0  0  0  0  0
  -25.3502  -22.0655   18.7963 N   0  0  0  0  0  0  0  0  0  0  0  0
  -28.0212  -13.1019   18.9543 N   0  0  0  0  0  0  0  0  0  0  0  0
  -19.2598  -21.7546   20.2389 N   0  0  0  0  0  0  0  0  0  0  0  0
  -14.6813  -17.1583   18.1478 N   0  0  0  0  0  0  0  0  0  0  0  0
  -30.3856  -14.8270   18.6448 N   0  0  0  0  0  0  0  0  0  0  0  0
  -15.1556  -14.6440   15.5941 N   0  3  0  0  0  0  0  0  0  0  0  0
  -24.7567  -19.8504   18.7998 O   0  0  0  0  0  0  0  0  0  0  0  0
  -22.4357  -12.3029   20.4100 O   0  0  0  0  0  0  0  0  0  0  0  0
  -17.9936  -20.1019   21.2820 O   0  0  0  0  0  0  0  0  0  0  0  0
  -15.5917  -19.8641   18.3890 O   0  0  0  0  0  0  0  0  0  0  0  0
  -15.7834  -15.1233   18.2946 O   0  0  0  0  0  0  0  0  0  0  0  0
  -32.1110  -14.3234   20.0683 O   0  0  0  0  0  0  0  0  0  0  0  0
  -28.2659  -26.7688   19.4392 O   0  0  0  0  0  0  0  0  0  0  0  0
  -24.0255  -10.6858   21.8665 O   0  0  0  0  0  0  0  0  0  0  0  0
  -22.1545  -15.0182   20.6923 O   0  0  0  0  0  0  0  0  0  1  0  0
  -23.9443  -29.6744   21.2517 F   0  0  0  0  0  0  0  0  0  0  0  0
  -28.5562  -28.6299   21.4627 F   0  0  0  0  0  0  0  0  0  0  0  0
  1  2  1  0  0  0  0
  1  5  2  0  0  0  0
  2  6  2  0  0  0  0
  3  8  2  0  0  0  0
  3 17  1  0  0  0  0
  4  9  1  0  0  0  0
  4 17  2  0  0  0  0
  5 19  1  0  0  0  0
  6 21  1  0  0  0  0
  7 10  2  0  0  0  0
  7 20  1  0  0  0  0
  8 23  1  0  0  0  0
  9 23  2  0  0  0  0
 10 24  1  0  0  0  0
 11 13  2  0  0  0  0
 11 25  1  0  0  0  0
 12 14  2  0  0  0  0
 12 26  1  0  0  0  0
 13 27  1  0  0  0  0
 14 31  1  0  0  0  0
 15 22  1  0  0  0  0
 15 24  2  0  0  0  0
 16 27  2  0  0  0  0
 16 28  1  0  0  0  0
 17 29  1  0  0  0  0
 18 29  1  0  0  0  0
 18 32  2  0  0  0  0
 18 33  1  0  0  0  0
 19 21  2  0  0  0  0
 19 39  1  0  0  0  0
 20 22  2  0  0  0  0
 20 40  1  0  0  0  0
 21 48  1  0  0  0  0
 22 41  1  0  0  0  0
 23 82  1  0  0  0  0
 24 84  1  0  0  0  0
 25 28  2  0  0  0  0
 25 82  1  0  0  0  0
 26 30  2  0  0  0  0
 26 83  1  0  0  0  0
 27 85  1  0  0  0  0
 28 86  1  0  0  0  0
 29 64  2  0  0  0  0
 30 34  1  0  0  0  0
 30 65  1  0  0  0  0
 31 65  2  0  0  0  0
 31 71  1  0  0  0  0
 32 66  1  0  0  0  0
 32 69  1  0  0  0  0
 33 70  1  0  0  0  0
 33 76  2  0  0  0  0
 34 58  1  0  0  0  0
 34 77  2  0  0  0  0
 35 49  1  0  0  0  0
 35 72  1  0  0  0  0
 35 78  2  0  0  0  0
 36 60  1  0  0  0  0
 36 67  1  0  0  0  0
 36 79  2  0  0  0  0
 37 61  1  0  0  0  0
 37 73  1  0  0  0  0
 37 80  2  0  0  0  0
 38 68  1  0  0  0  0
 38 74  1  0  0  0  0
 38 81  2  0  0  0  0
 39 42  1  0  0  0  0
 40 49  1  0  0  0  0
 41 67  1  0  0  0  0
 42 44  1  0  0  0  0
 43 45  1  0  0  0  0
 43 46  1  0  0  0  0
 44 48  1  0  0  0  0
 45 50  1  0  0  0  0
 46 68  1  0  0  0  0
 47 50  1  0  0  0  0
 47 68  1  0  0  0  0
 48 72  1  0  0  0  0
 49 67  1  0  0  0  0
 50 66  1  0  0  0  0
 51 61  1  0  0  0  0
 52 62  1  0  0  0  0
 53 63  1  0  0  0  0
 54 63  1  0  0  0  0
 55 63  1  0  0  0  0
 56 75  1  0  0  0  0
 57 83  1  0  0  0  0
 58 84  1  0  0  0  0
 59 62  1  0  0  0  0
 59 71  1  0  0  0  0
 60 63  1  0  0  0  0
 60 73  1  0  0  0  0
 61 75  1  0  0  0  0
 62 74  1  0  0  0  0
 64 66  1  0  0  0  0
M  CHG  1  75   1
M  ISO  4  38 100  58 101  74 100  84 101
M  END
> <Batch ID>
0137

> <Smiles>
CNC(C)C(=O)NC(C(=O)N1Cc2cc([101O:1][101CH2:1]C(=O)c3nc(NCC(C)[100NH:0][100C:0](=O)N4CCCC(n5nc(-c6ccc(Oc7ccc(F)cc7F)cc6)c(C(N)=O)c5N)C4)ccc3OC)ccc2CC1C(=O)NC1CCCc2ccccc21)C(C)(C)C

> <Shape>
0.203

> <Color>
0.082

> <Negative vol penalty>
0.000

$$$$

  -OEChem-04052321053D

 89 98  0     1  0  0  0  0  0999 V2000
  -17.3880  -14.5710   17.5646 C   0  0  0  0  0  0  0  0  0  0  0  0
  -18.0619  -14.7812   18.7634 C   0  0  0  0  0  0  0  0  0  0  0  0
  -22.9958   -9.9020   19.9800 C   0  0  0  0  0  0  0  0  0  0  0  0
  -23.7283   -9.9416   22.2819 C   0  0  0  0  0  0  0  0  0  0  0  0
  -17.5002  -15.5000   16.5310 C   0  0  0  0  0  0  0  0  0  0  0  0
  -18.8493  -15.9201   18.9289 C   0  0  0  0  0  0  0  0  0  0  0  0
  -20.9479  -20.5742   23.9539 C   0  0  0  0  0  0  0  0  0  0  0  0
  -22.2277   -8.7680   20.2439 C   0  0  0  0  0  0  0  0  0  0  0  0
  -22.9601   -8.8076   22.5459 C   0  0  0  0  0  0  0  0  0  0  0  0
  -22.1082  -21.1389   24.4818 C   0  0  0  0  0  0  0  0  0  0  0  0
  -23.1958   -5.4702   22.0590 C   0  0  0  0  0  0  0  0  0  0  0  0
  -23.7835   -4.4486   22.8049 C   0  0  0  0  0  0  0  0  0  0  0  0
  -22.1646  -22.7148   22.6562 C   0  0  0  0  0  0  0  0  0  0  0  0
  -31.6277  -19.2834   22.7693 C   0  0  0  0  0  0  0  0  0  0  0  0
  -29.8195  -17.6928   22.7070 C   0  0  0  0  0  0  0  0  0  0  0  0
  -22.0654   -4.6880   24.4865 C   0  0  0  0  0  0  0  0  0  0  0  0
  -23.7462  -10.4888   20.9990 C   0  0  0  0  0  0  0  0  0  0  0  0
  -24.1364  -13.0043   20.8325 C   0  0  0  0  0  0  0  0  0  0  0  0
  -18.2816  -16.6557   16.6874 C   0  0  0  0  0  0  0  0  0  0  0  0
  -20.3924  -21.0694   22.7654 C   0  0  0  0  0  0  0  0  0  0  0  0
  -18.9731  -16.8648   17.8960 C   0  0  0  0  0  0  0  0  0  0  0  0
  -20.9957  -22.1563   22.1167 C   0  0  0  0  0  0  0  0  0  0  0  0
  -30.3374  -18.9117   23.1345 C   0  0  0  0  0  0  0  0  0  0  0  0
  -22.2098   -8.2208   21.5268 C   0  0  0  0  0  0  0  0  0  0  0  0
  -22.7183  -22.2074   23.8314 C   0  0  0  0  0  0  0  0  0  0  0  0
  -22.0429   -6.1009   22.5268 C   0  0  0  0  0  0  0  0  0  0  0  0
  -23.2183   -4.0574   24.0186 C   0  0  0  0  0  0  0  0  0  0  0  0
  -21.4777   -5.7097   23.7406 C   0  0  0  0  0  0  0  0  0  0  0  0
  -24.5403  -11.6599   20.7269 C   0  0  0  0  0  0  0  0  0  0  0  0
  -32.3736  -18.4201   21.9794 C   0  0  0  0  0  0  0  0  0  0  0  0
  -25.2465  -13.7260   20.4677 C   0  0  0  0  0  0  0  0  0  0  0  0
  -30.6111  -16.8698   21.9185 C   0  0  0  0  0  0  0  0  0  0  0  0
  -22.8708  -13.5517   21.2253 C   0  0  0  0  0  0  0  0  0  0  0  0
  -19.8295  -19.8625   19.8791 C   0  0  0  0  0  0  0  0  0  0  0  0
  -18.3626  -22.7156   19.3998 C   0  0  0  0  0  0  0  0  0  0  0  0
  -18.0633  -26.0019   20.2702 C   0  0  0  0  0  0  0  0  0  0  0  0
  -30.7287  -14.6744   20.6886 C   0  0  0  0  0  0  0  0  0  0  0  0
  -18.4104  -17.6078   15.5248 C   0  0  0  0  0  0  0  0  0  0  0  0
  -19.1254  -20.4665   22.2234 C   0  0  0  0  0  0  0  0  0  0  0  0
  -20.4278  -22.7379   20.8488 C   0  0  0  0  0  0  0  0  0  0  0  0
  -18.9646  -18.9753   15.9160 C   0  0  0  0  0  0  0  0  0  0  0  0
  -29.5979  -12.2339   18.3558 C   0  0  0  0  0  0  0  0  0  0  0  0
  -20.1843  -18.8187   16.8186 C   0  0  0  0  0  0  0  0  0  0  0  0
  -28.1481  -11.9776   18.7734 C   0  0  0  0  0  0  0  0  0  0  0  0
  -27.2200  -19.6770   23.2105 C   0  0  0  0  0  0  0  0  0  0  0  0
  -27.8457  -20.2320   25.5940 C   0  0  0  0  0  0  0  0  0  0  0  0
  -30.5028  -12.4702   19.5637 C   0  0  0  0  0  0  0  0  0  0  0  0
  -28.5933  -13.2574   20.9066 C   0  0  0  0  0  0  0  0  0  0  0  0
  -26.9661  -21.1559   22.9416 C   0  0  0  0  0  0  0  0  0  0  0  0
  -27.5984  -21.7075   25.3040 C   0  0  0  0  0  0  0  0  0  0  0  0
  -19.8170  -18.1003   18.1226 C   0  0  1  0  0  0  0  0  0  0  0  0
  -18.9349  -20.7181   20.7308 C   0  0  1  0  0  0  0  0  0  0  0  0
  -27.6315  -13.0782   19.7206 C   0  0  2  0  0  0  0  0  0  0  0  0
  -28.2247  -19.4404   24.3408 C   0  0  0  0  0  0  0  0  0  0  0  0
  -16.8068  -28.0909   19.6747 C   0  0  0  0  0  0  0  0  0  0  0  0
  -20.1028  -23.0514   16.9161 C   0  0  0  0  0  0  0  0  0  0  0  0
  -19.5130  -25.4846   16.9170 C   0  0  0  0  0  0  0  0  0  0  0  0
  -17.7246  -23.7696   16.6284 C   0  0  0  0  0  0  0  0  0  0  0  0
  -16.8742  -26.1963   22.9735 C   0  0  0  0  0  0  0  0  0  0  0  0
  -33.7573  -18.7429   21.5470 C   0  0  0  0  0  0  0  0  0  0  0  0
  -26.1734  -23.2744   23.9890 C   0  0  0  0  0  0  0  0  0  0  0  0
  -33.8182  -19.4958   20.2136 C   0  0  0  0  0  0  0  0  0  0  0  0
  -24.7710  -23.3345   23.4165 C   0  0  0  0  0  0  0  0  0  1  0  0
  -18.7985  -24.0708   18.8974 C   0  0  1  0  0  0  0  0  0  0  0  0
  -16.8455  -26.8589   20.5654 C   0  0  2  0  0  0  0  0  0  0  0  0
  -19.0468  -24.0821   17.3625 C   0  0  0  0  0  0  0  0  0  0  0  0
  -25.8081  -11.5323   20.3262 N   0  0  0  0  0  0  0  0  0  0  0  0
  -26.2103  -12.8059   20.1768 N   0  0  0  0  0  0  0  0  0  0  0  0
  -31.8503  -17.2524   21.5815 N   0  3  0  0  0  0  0  0  0  0  0  0
  -19.1912  -22.1099   20.3550 N   0  0  0  0  0  0  0  0  0  0  0  0
  -29.9526  -13.5287   20.4133 N   0  0  0  0  0  0  0  0  0  0  0  0
  -25.4825  -15.0517   20.3706 N   0  0  0  0  0  0  0  0  0  0  0  0
  -21.8382  -12.6683   21.5683 N   0  0  0  0  0  0  0  0  0  0  0  0
  -29.5718  -19.7514   23.9203 N   0  0  0  0  0  0  0  0  0  0  0  0
  -30.0890  -15.6276   21.4803 N   0  0  0  0  0  0  0  0  0  0  0  0
  -19.1505  -19.0095   19.0302 N   0  0  0  0  0  0  0  0  0  0  0  0
  -17.7835  -25.0182   19.3454 N   0  0  0  0  0  0  0  0  0  0  0  0
  -26.5529  -21.8379   24.2230 N   0  3  0  0  0  0  0  0  0  0  0  0
  -16.8594  -27.3067   21.9867 N   0  3  0  0  0  0  0  0  0  0  0  0
  -22.6568  -14.7874   21.2550 O   0  0  0  0  0  0  0  0  0  0  0  0
  -21.0458  -19.9694   19.9835 O   0  0  0  0  0  0  0  0  0  0  0  0
  -17.3214  -22.2162   18.9661 O   0  0  0  0  0  0  0  0  0  0  0  0
  -19.1545  -26.1890   20.8037 O   0  0  0  0  0  0  0  0  0  0  0  0
  -31.8663  -14.8128   20.2316 O   0  0  0  0  0  0  0  0  0  0  0  0
  -33.1971  -18.7175   19.1985 O   0  0  0  0  0  0  0  0  0  0  0  0
  -21.4602   -7.1145   21.7847 O   0  0  0  0  0  0  0  0  0  0  0  0
  -23.8513  -22.7600   24.3441 O   0  0  0  0  0  0  0  0  0  1  0  0
  -23.7819   -3.0753   24.7341 F   0  0  0  0  0  0  0  0  0  0  0  0
  -20.3695   -6.3110   24.1946 F   0  0  0  0  0  0  0  0  0  0  0  0
  1  2  1  0  0  0  0
  1  5  2  0  0  0  0
  2  6  2  0  0  0  0
  3  8  2  0  0  0  0
  3 17  1  0  0  0  0
  4  9  1  0  0  0  0
  4 17  2  0  0  0  0
  5 19  1  0  0  0  0
  6 21  1  0  0  0  0
  7 10  2  0  0  0  0
  7 20  1  0  0  0  0
  8 24  1  0  0  0  0
  9 24  2  0  0  0  0
 10 25  1  0  0  0  0
 11 12  2  0  0  0  0
 11 26  1  0  0  0  0
 12 27  1  0  0  0  0
 13 22  1  0  0  0  0
 13 25  2  0  0  0  0
 14 23  1  0  0  0  0
 14 30  2  0  0  0  0
 15 23  2  0  0  0  0
 15 32  1  0  0  0  0
 16 27  2  0  0  0  0
 16 28  1  0  0  0  0
 17 29  1  0  0  0  0
 18 29  1  0  0  0  0
 18 31  2  0  0  0  0
 18 33  1  0  0  0  0
 19 21  2  0  0  0  0
 19 38  1  0  0  0  0
 20 22  2  0  0  0  0
 20 39  1  0  0  0  0
 21 51  1  0  0  0  0
 22 40  1  0  0  0  0
 23 74  1  0  0  0  0
 24 86  1  0  0  0  0
 25 87  1  0  0  0  0
 26 28  2  0  0  0  0
 26 86  1  0  0  0  0
 27 88  1  0  0  0  0
 28 89  1  0  0  0  0
 29 67  2  0  0  0  0
 30 60  1  0  0  0  0
 30 69  1  0  0  0  0
 31 68  1  0  0  0  0
 31 72  1  0  0  0  0
 32 69  2  0  0  0  0
 32 75  1  0  0  0  0
 33 73  1  0  0  0  0
 33 80  2  0  0  0  0
 34 52  1  0  0  0  0
 34 76  1  0  0  0  0
 34 81  2  0  0  0  0
 35 64  1  0  0  0  0
 35 70  1  0  0  0  0
 35 82  2  0  0  0  0
 36 65  1  0  0  0  0
 36 77  1  0  0  0  0
 36 83  2  0  0  0  0
 37 71  1  0  0  0  0
 37 75  1  0  0  0  0
 37 84  2  0  0  0  0
 38 41  1  0  0  0  0
 39 52  1  0  0  0  0
 40 70  1  0  0  0  0
 41 43  1  0  0  0  0
 42 44  1  0  0  0  0
 42 47  1  0  0  0  0
 43 51  1  0  0  0  0
 44 53  1  0  0  0  0
 45 49  1  0  0  0  0
 45 54  1  0  0  0  0
 46 50  1  0  0  0  0
 46 54  1  0  0  0  0
 47 71  1  0  0  0  0
 48 53  1  0  0  0  0
 48 71  1  0  0  0  0
 49 78  1  0  0  0  0
 50 78  1  0  0  0  0
 51 76  1  0  0  0  0
 52 70  1  0  0  0  0
 53 68  1  0  0  0  0
 54 74  1  0  0  0  0
 55 65  1  0  0  0  0
 56 66  1  0  0  0  0
 57 66  1  0  0  0  0
 58 66  1  0  0  0  0
 59 79  1  0  0  0  0
 60 62  1  0  0  0  0
 61 63  1  0  0  0  0
 61 78  1  0  0  0  0
 62 85  1  0  0  0  0
 63 87  1  0  0  0  0
 64 66  1  0  0  0  0
 64 77  1  0  0  0  0
 65 79  1  0  0  0  0
 67 68  1  0  0  0  0
M  CHG  3  69   1  78   1  79   1
M  ISO  4  37 100  63 101  75 100  87 101
M  END
> <Batch ID>
0137

> <Smiles>
CNC(C)C(=O)NC(C(=O)N1Cc2cc([101O:1][101CH2:1]CN3CCC(Nc4cc(CCO)nc([100NH:0][100C:0](=O)N5CCCC(n6nc(-c7ccc(Oc8ccc(F)cc8F)cc7)c(C(N)=O)c6N)C5)c4)CC3)ccc2CC1C(=O)NC1CCCc2ccccc21)C(C)(C)C

> <Shape>
0.193

> <Color>
0.178

> <Negative vol penalty>
0.000

$$$$

  -OEChem-04052321053D

 88 97  0     1  0  0  0  0  0999 V2000
  -29.4911  -35.8210   24.4051 C   0  0  0  0  0  0  0  0  0  0  0  0
  -29.3049  -34.4609   24.1795 C   0  0  0  0  0  0  0  0  0  0  0  0
  -25.6773   -6.7715   19.9801 C   0  0  0  0  0  0  0  0  0  0  0  0
  -25.0419   -8.1872   21.8319 C   0  0  0  0  0  0  0  0  0  0  0  0
  -28.4027  -36.6269   24.7365 C   0  0  0  0  0  0  0  0  0  0  0  0
  -28.0302  -33.9057   24.2863 C   0  0  0  0  0  0  0  0  0  0  0  0
  -26.9618  -30.7464   20.4755 C   0  0  0  0  0  0  0  0  0  0  0  0
  -29.2851  -25.0008   21.9872 C   0  0  0  0  0  0  0  0  0  0  0  0
  -29.6543  -23.6594   22.0874 C   0  0  0  0  0  0  0  0  0  0  0  0
  -30.5557  -17.2024   20.6236 C   0  0  0  0  0  0  0  0  0  0  0  0
  -30.4017  -18.5614   20.8974 C   0  0  0  0  0  0  0  0  0  0  0  0
  -25.1123   -5.6722   20.6265 C   0  0  0  0  0  0  0  0  0  0  0  0
  -24.4769   -7.0879   22.4784 C   0  0  0  0  0  0  0  0  0  0  0  0
  -27.5156  -29.4683   20.5338 C   0  0  0  0  0  0  0  0  0  0  0  0
  -21.6227   -5.2878   22.2936 C   0  0  0  0  0  0  0  0  0  0  0  0
  -20.3653   -5.4548   22.8737 C   0  0  0  0  0  0  0  0  0  0  0  0
  -25.4170  -28.6029   21.3500 C   0  0  0  0  0  0  0  0  0  0  0  0
  -29.1642  -24.7880   19.5836 C   0  0  0  0  0  0  0  0  0  0  0  0
  -28.3047  -17.1235   19.7496 C   0  0  0  0  0  0  0  0  0  0  0  0
  -21.2875   -4.8918   25.0347 C   0  0  0  0  0  0  0  0  0  0  0  0
  -25.6422   -8.0290   20.5828 C   0  0  0  0  0  0  0  0  0  0  0  0
  -25.5883  -10.0469   19.0230 C   0  0  0  0  0  0  0  0  0  0  0  0
  -27.1125  -36.0831   24.8379 C   0  0  0  0  0  0  0  0  0  0  0  0
  -25.6325  -30.9647   20.8650 C   0  0  0  0  0  0  0  0  0  0  0  0
  -26.9238  -34.7049   24.6207 C   0  0  0  0  0  0  0  0  0  0  0  0
  -24.8479  -29.8843   21.2932 C   0  0  0  0  0  0  0  0  0  0  0  0
  -29.0401  -25.5651   20.7353 C   0  0  0  0  0  0  0  0  0  0  0  0
  -29.7784  -22.8823   20.9357 C   0  0  0  0  0  0  0  0  0  0  0  0
  -29.5334  -23.4466   19.6838 C   0  0  0  0  0  0  0  0  0  0  0  0
  -28.1507  -18.4825   20.0234 C   0  0  0  0  0  0  0  0  0  0  0  0
  -29.5072  -16.4834   20.0496 C   0  0  0  0  0  0  0  0  0  0  0  0
  -29.1993  -19.2015   20.5973 C   0  0  0  0  0  0  0  0  0  0  0  0
  -24.5121   -5.8304   21.8756 C   0  0  0  0  0  0  0  0  0  0  0  0
  -26.7440  -28.3967   20.9738 C   0  0  0  0  0  0  0  0  0  0  0  0
  -22.7126   -4.9227   23.0840 C   0  0  0  0  0  0  0  0  0  0  0  0
  -20.1977   -5.2569   24.2442 C   0  0  0  0  0  0  0  0  0  0  0  0
  -22.5450   -4.7247   24.4545 C   0  0  0  0  0  0  0  0  0  0  0  0
  -26.2261   -9.1649   19.9158 C   0  0  0  0  0  0  0  0  0  0  0  0
  -26.5654  -10.9461   18.6719 C   0  0  0  0  0  0  0  0  0  0  0  0
  -24.2338  -10.0528   18.5530 C   0  0  0  0  0  0  0  0  0  0  0  0
  -24.2119  -32.6884   23.1265 C   0  0  0  0  0  0  0  0  0  0  0  0
  -21.5072  -31.7172   21.6220 C   0  0  0  0  0  0  0  0  0  0  0  0
  -19.9720  -29.4212   19.6175 C   0  0  0  0  0  0  0  0  0  0  0  0
  -30.7911  -14.3164   20.0089 C   0  0  0  0  0  0  0  0  0  0  0  0
  -25.9745  -36.9852   25.2451 C   0  0  0  0  0  0  0  0  0  0  0  0
  -25.0420  -32.3448   20.7709 C   0  0  0  0  0  0  0  0  0  0  0  0
  -23.4097  -30.0621   21.7033 C   0  0  0  0  0  0  0  0  0  0  0  0
  -24.5963  -36.3887   24.9709 C   0  0  0  0  0  0  0  0  0  0  0  0
  -31.5581  -10.8766   19.5022 C   0  0  0  0  0  0  0  0  0  0  0  0
  -24.5360  -34.9418   25.4501 C   0  0  0  0  0  0  0  0  0  0  0  0
  -30.1869  -10.1972   19.4912 C   0  0  0  0  0  0  0  0  0  0  0  0
  -31.6139  -12.0253   20.5078 C   0  0  0  0  0  0  0  0  0  0  0  0
  -29.1758  -12.3453   20.3573 C   0  0  0  0  0  0  0  0  0  0  0  0
  -25.5524  -34.0702   24.7027 C   0  0  1  0  0  0  0  0  0  0  0  0
  -23.8327  -32.5406   21.6801 C   0  0  1  0  0  0  0  0  0  0  0  0
  -29.0508  -11.2235   19.3135 C   0  0  2  0  0  0  0  0  0  0  0  0
  -29.6604  -22.6341   18.4370 C   0  0  0  0  0  0  0  0  0  0  0  0
  -26.8518  -19.1428   19.6928 C   0  0  0  0  0  0  0  0  0  0  0  0
  -17.7467  -28.8741   18.5945 C   0  0  0  0  0  0  0  0  0  0  0  0
  -20.5152  -30.7084   24.3253 C   0  0  0  0  0  0  0  0  0  0  0  0
  -18.7868  -29.3643   23.1111 C   0  0  0  0  0  0  0  0  0  0  0  0
  -18.7778  -31.8528   22.9374 C   0  0  0  0  0  0  0  0  0  0  0  0
  -21.0506  -29.6403   16.8702 C   0  0  0  0  0  0  0  0  0  0  0  0
  -30.1760  -21.4488   21.0678 C   0  0  0  0  0  0  0  0  0  0  0  0
  -28.6435  -27.0082   20.6277 C   0  0  0  0  0  0  0  0  0  1  0  0
  -20.5786  -30.5339   21.7501 C   0  0  1  0  0  0  0  0  0  0  0  0
  -19.0780  -29.5834   18.4013 C   0  0  2  0  0  0  0  0  0  0  0  0
  -19.6922  -30.6115   23.0252 C   0  0  0  0  0  0  0  0  0  0  0  0
  -27.5091   -9.4756   20.1192 N   0  0  0  0  0  0  0  0  0  0  0  0
  -27.6855  -10.5628   19.3491 N   0  0  0  0  0  0  0  0  0  0  0  0
  -22.8797  -31.4318   21.5997 N   0  0  0  0  0  0  0  0  0  0  0  0
  -30.5103  -12.9597   20.2759 N   0  0  0  0  0  0  0  0  0  0  0  0
  -26.5671  -12.0193   17.8530 N   0  0  0  0  0  0  0  0  0  0  0  0
  -23.3622   -9.0569   19.0143 N   0  0  0  0  0  0  0  0  0  0  0  0
  -29.6641  -15.1028   19.7724 N   0  0  0  0  0  0  0  0  0  0  0  0
  -29.0638  -20.5542   20.8762 N   0  0  0  0  0  0  0  0  0  0  0  0
  -25.0641  -33.7463   23.3794 N   0  0  0  0  0  0  0  0  0  0  0  0
  -19.8258  -30.4687   20.5022 N   0  0  0  0  0  0  0  0  0  0  0  0
  -19.7407  -29.0179   17.1922 N   0  3  0  0  0  0  0  0  0  0  0  0
  -23.8133  -10.9060   17.7352 O   0  0  0  0  0  0  0  0  0  0  0  0
  -23.7633  -31.9018   23.9521 O   0  0  0  0  0  0  0  0  0  0  0  0
  -21.0320  -32.8524   21.5373 O   0  0  0  0  0  0  0  0  0  0  0  0
  -20.7219  -28.4594   19.7694 O   0  0  0  0  0  0  0  0  0  0  0  0
  -31.9478  -14.7431   19.9644 O   0  0  0  0  0  0  0  0  0  0  0  0
  -23.9604   -4.7580   22.5066 O   0  0  0  0  0  0  0  0  0  0  0  0
  -27.2822  -27.1482   21.0323 O   0  0  0  0  0  0  0  0  0  1  0  0
  -18.9905   -5.4189   24.8015 F   0  0  0  0  0  0  0  0  0  0  0  0
  -23.5884   -4.3751   25.2191 F   0  0  0  0  0  0  0  0  0  0  0  0
  1  2  1  0  0  0  0
  1  5  2  0  0  0  0
  2  6  2  0  0  0  0
  3 12  2  0  0  0  0
  3 21  1  0  0  0  0
  4 13  1  0  0  0  0
  4 21  2  0  0  0  0
  5 23  1  0  0  0  0
  6 25  1  0  0  0  0
  7 14  2  0  0  0  0
  7 24  1  0  0  0  0
  8  9  2  0  0  0  0
  8 27  1  0  0  0  0
  9 28  1  0  0  0  0
 10 11  2  0  0  0  0
 10 31  1  0  0  0  0
 11 32  1  0  0  0  0
 12 33  1  0  0  0  0
 13 33  2  0  0  0  0
 14 34  1  0  0  0  0
 15 16  2  0  0  0  0
 15 35  1  0  0  0  0
 16 36  1  0  0  0  0
 17 26  1  0  0  0  0
 17 34  2  0  0  0  0
 18 27  2  0  0  0  0
 18 29  1  0  0  0  0
 19 30  1  0  0  0  0
 19 31  2  0  0  0  0
 20 36  2  0  0  0  0
 20 37  1  0  0  0  0
 21 38  1  0  0  0  0
 22 38  1  0  0  0  0
 22 39  2  0  0  0  0
 22 40  1  0  0  0  0
 23 25  2  0  0  0  0
 23 45  1  0  0  0  0
 24 26  2  0  0  0  0
 24 46  1  0  0  0  0
 25 54  1  0  0  0  0
 26 47  1  0  0  0  0
 27 65  1  0  0  0  0
 28 29  2  0  0  0  0
 28 64  1  0  0  0  0
 29 57  1  0  0  0  0
 30 32  2  0  0  0  0
 30 58  1  0  0  0  0
 31 75  1  0  0  0  0
 32 76  1  0  0  0  0
 33 85  1  0  0  0  0
 34 86  1  0  0  0  0
 35 37  2  0  0  0  0
 35 85  1  0  0  0  0
 36 87  1  0  0  0  0
 37 88  1  0  0  0  0
 38 69  2  0  0  0  0
 39 70  1  0  0  0  0
 39 73  1  0  0  0  0
 40 74  1  0  0  0  0
 40 80  2  0  0  0  0
 41 55  1  0  0  0  0
 41 77  1  0  0  0  0
 41 81  2  0  0  0  0
 42 66  1  0  0  0  0
 42 71  1  0  0  0  0
 42 82  2  0  0  0  0
 43 67  1  0  0  0  0
 43 78  1  0  0  0  0
 43 83  2  0  0  0  0
 44 72  1  0  0  0  0
 44 75  1  0  0  0  0
 44 84  2  0  0  0  0
 45 48  1  0  0  0  0
 46 55  1  0  0  0  0
 47 71  1  0  0  0  0
 48 50  1  0  0  0  0
 49 51  1  0  0  0  0
 49 52  1  0  0  0  0
 50 54  1  0  0  0  0
 51 56  1  0  0  0  0
 52 72  1  0  0  0  0
 53 56  1  0  0  0  0
 53 72  1  0  0  0  0
 54 77  1  0  0  0  0
 55 71  1  0  0  0  0
 56 70  1  0  0  0  0
 59 67  1  0  0  0  0
 60 68  1  0  0  0  0
 61 68  1  0  0  0  0
 62 68  1  0  0  0  0
 63 79  1  0  0  0  0
 64 76  1  0  0  0  0
 65 86  1  0  0  0  0
 66 68  1  0  0  0  0
 66 78  1  0  0  0  0
 67 79  1  0  0  0  0
 69 70  1  0  0  0  0
M  CHG  1  79   1
M  ISO  4  44 100  65 101  75 100  86 101
M  END
> <Batch ID>
0137

> <Smiles>
CNC(C)C(=O)NC(C(=O)N1Cc2cc([101O:1][101CH2:1]c3ccc(CNc4ccc([100NH:0][100C:0](=O)N5CCCC(n6nc(-c7ccc(Oc8ccc(F)cc8F)cc7)c(C(N)=O)c6N)C5)cc4C)c(C)c3)ccc2CC1C(=O)NC1CCCc2ccccc21)C(C)(C)C

> <Shape>
0.291

> <Color>
0.071

> <Negative vol penalty>
0.000

$$$$

  -OEChem-04052321053D

 88 97  0     1  0  0  0  0  0999 V2000
  -30.4962  -35.2958   24.1073 C   0  0  0  0  0  0  0  0  0  0  0  0
  -30.4666  -34.5251   22.9495 C   0  0  0  0  0  0  0  0  0  0  0  0
  -24.4428   -9.3340   21.6144 C   0  0  0  0  0  0  0  0  0  0  0  0
  -22.5495  -10.5406   20.7216 C   0  0  0  0  0  0  0  0  0  0  0  0
  -29.8454  -34.8500   25.2569 C   0  0  0  0  0  0  0  0  0  0  0  0
  -29.7871  -33.3074   22.9410 C   0  0  0  0  0  0  0  0  0  0  0  0
  -25.9920  -29.0621   18.5946 C   0  0  0  0  0  0  0  0  0  0  0  0
  -26.2298  -20.9190   19.0753 C   0  0  0  0  0  0  0  0  0  0  0  0
  -23.6815   -8.1658   21.6500 C   0  0  0  0  0  0  0  0  0  0  0  0
  -21.7882   -9.3723   20.7572 C   0  0  0  0  0  0  0  0  0  0  0  0
  -25.9448  -27.7414   18.1507 C   0  0  0  0  0  0  0  0  0  0  0  0
  -21.3073   -6.7999   23.6304 C   0  0  0  0  0  0  0  0  0  0  0  0
  -21.3786   -6.0156   24.7816 C   0  0  0  0  0  0  0  0  0  0  0  0
  -25.8882  -19.7327   19.7151 C   0  0  0  0  0  0  0  0  0  0  0  0
  -24.7900  -27.1095   20.1722 C   0  0  0  0  0  0  0  0  0  0  0  0
  -22.1991   -4.1615   23.4678 C   0  0  0  0  0  0  0  0  0  0  0  0
  -23.8767  -10.5215   21.1502 C   0  0  0  0  0  0  0  0  0  0  0  0
  -25.4594  -12.1925   20.0499 C   0  0  0  0  0  0  0  0  0  0  0  0
  -29.1495  -33.6309   25.2597 C   0  0  0  0  0  0  0  0  0  0  0  0
  -25.4473  -29.4151   19.8376 C   0  0  0  0  0  0  0  0  0  0  0  0
  -29.1276  -32.8442   24.0921 C   0  0  0  0  0  0  0  0  0  0  0  0
  -24.8292  -28.4360   20.6284 C   0  0  0  0  0  0  0  0  0  0  0  0
  -26.5567  -22.0401   19.8300 C   0  0  0  0  0  0  0  0  0  0  0  0
  -22.3543   -8.1849   21.2214 C   0  0  0  0  0  0  0  0  0  0  0  0
  -25.3463  -26.7643   18.9408 C   0  0  0  0  0  0  0  0  0  0  0  0
  -21.6818   -6.2649   22.3977 C   0  0  0  0  0  0  0  0  0  0  0  0
  -21.8245   -4.6964   24.7004 C   0  0  0  0  0  0  0  0  0  0  0  0
  -22.1277   -4.9458   22.3165 C   0  0  0  0  0  0  0  0  0  0  0  0
  -24.6624  -11.7287   21.1137 C   0  0  0  0  0  0  0  0  0  0  0  0
  -26.5271  -21.9240   21.2103 C   0  0  0  0  0  0  0  0  0  0  0  0
  -25.8887  -19.7197   21.1006 C   0  0  0  0  0  0  0  0  0  0  0  0
  -25.9930  -13.3717   20.5095 C   0  0  0  0  0  0  0  0  0  0  0  0
  -25.6960  -11.6096   18.7616 C   0  0  0  0  0  0  0  0  0  0  0  0
  -26.6123  -30.6314   22.5334 C   0  0  0  0  0  0  0  0  0  0  0  0
  -23.4846  -30.7160   23.3892 C   0  0  0  0  0  0  0  0  0  0  0  0
  -20.3314  -29.4800   22.9689 C   0  0  0  0  0  0  0  0  0  0  0  0
  -25.4734  -18.2650   23.1149 C   0  0  0  0  0  0  0  0  0  0  0  0
  -28.5011  -33.1680   26.5403 C   0  0  0  0  0  0  0  0  0  0  0  0
  -25.4825  -30.8492   20.2902 C   0  0  0  0  0  0  0  0  0  0  0  0
  -24.2117  -28.7669   21.9617 C   0  0  0  0  0  0  0  0  0  0  0  0
  -27.4879  -32.0442   26.3385 C   0  0  0  0  0  0  0  0  0  0  0  0
  -28.4647  -23.1802   23.9501 C   0  0  0  0  0  0  0  0  0  0  0  0
  -26.0084  -15.3930   25.1502 C   0  0  0  0  0  0  0  0  0  0  0  0
  -28.0623  -30.9651   25.4262 C   0  0  0  0  0  0  0  0  0  0  0  0
  -28.3753  -23.2191   22.4282 C   0  0  0  0  0  0  0  0  0  0  0  0
  -27.1286  -23.7380   24.4104 C   0  0  0  0  0  0  0  0  0  0  0  0
  -25.7715  -14.2218   24.1940 C   0  0  0  0  0  0  0  0  0  0  0  0
  -25.0577  -16.5553   24.8697 C   0  0  0  0  0  0  0  0  0  0  0  0
  -24.8065  -15.8527   22.5219 C   0  0  0  0  0  0  0  0  0  0  0  0
  -28.3802  -31.5295   24.0363 C   0  0  1  0  0  0  0  0  0  0  0  0
  -26.8728  -23.1092   22.0865 C   0  0  2  0  0  0  0  0  0  0  0  0
  -25.3528  -31.0018   21.8025 C   0  0  1  0  0  0  0  0  0  0  0  0
  -26.1407  -23.0801   23.4490 C   0  0  2  0  0  0  0  0  0  0  0  0
  -25.7841  -14.6834   22.7235 C   0  0  2  0  0  0  0  0  0  0  0  0
  -17.9894  -29.7204   23.8373 C   0  0  0  0  0  0  0  0  0  0  0  0
  -24.2589  -29.1647   25.8999 C   0  0  0  0  0  0  0  0  0  0  0  0
  -21.8372  -28.6193   26.2255 C   0  0  0  0  0  0  0  0  0  0  0  0
  -22.5965  -30.9949   26.2757 C   0  0  0  0  0  0  0  0  0  0  0  0
  -19.3061  -30.2902   20.3135 C   0  0  0  0  0  0  0  0  0  0  0  0
  -24.7924  -23.7867   23.4213 C   0  0  0  0  0  0  0  0  0  0  0  0
  -26.5543  -23.5359   17.8329 C   0  0  0  0  0  0  0  0  0  0  0  0
  -24.1618  -23.8185   24.8036 C   0  0  0  0  0  0  0  0  0  0  0  0
  -26.3599  -25.0334   17.6631 C   0  0  0  0  0  0  0  0  0  1  0  0
  -22.5365  -29.7592   24.0708 C   0  0  1  0  0  0  0  0  0  0  0  0
  -18.9933  -30.1738   22.7888 C   0  0  2  0  0  0  0  0  0  0  0  0
  -22.8205  -29.6276   25.5938 C   0  0  0  0  0  0  0  0  0  0  0  0
  -24.6850  -12.5465   22.1696 N   0  0  0  0  0  0  0  0  0  0  0  0
  -26.2004  -20.7886   21.8674 N   0  0  0  0  0  0  0  0  0  0  0  0
  -25.5027  -13.5359   21.7715 N   0  0  0  0  0  0  0  0  0  0  0  0
  -24.2770  -30.1818   22.3632 N   0  0  0  0  0  0  0  0  0  0  0  0
  -25.1267  -16.9412   23.4586 N   0  0  0  0  0  0  0  0  0  0  0  0
  -26.8293  -14.2737   19.9531 N   0  0  0  0  0  0  0  0  0  0  0  0
  -25.0687  -10.3950   18.4524 N   0  0  0  0  0  0  0  0  0  0  0  0
  -26.8977  -23.2266   19.2020 N   0  0  0  0  0  0  0  0  0  0  0  0
  -25.5390  -18.5062   21.7430 N   0  0  0  0  0  0  0  0  0  0  0  0
  -27.1681  -31.6685   23.2579 N   0  0  0  0  0  0  0  0  0  0  0  0
  -21.1902  -30.2220   23.7519 N   0  0  0  0  0  0  0  0  0  0  0  0
  -22.8348  -24.4738   24.7151 N   0  3  0  0  0  0  0  0  0  0  0  0
  -18.4322  -29.8751   21.4408 N   0  3  0  0  0  0  0  0  0  0  0  0
  -26.4545  -12.1415   17.9159 O   0  0  0  0  0  0  0  0  0  0  0  0
  -27.0469  -29.4888   22.4476 O   0  0  0  0  0  0  0  0  0  0  0  0
  -23.5157  -31.8955   23.7488 O   0  0  0  0  0  0  0  0  0  0  0  0
  -20.5879  -28.3872   22.4683 O   0  0  0  0  0  0  0  0  0  0  0  0
  -25.7223  -19.1146   23.9742 O   0  0  0  0  0  0  0  0  0  0  0  0
  -21.6112   -7.0450   21.2558 O   0  0  0  0  0  0  0  0  0  0  0  0
  -25.2995  -25.4742   18.5102 O   0  0  0  0  0  0  0  0  0  1  0  0
  -21.8944   -3.9439   25.8062 F   0  0  0  0  0  0  0  0  0  0  0  0
  -22.4900   -4.4267   21.1353 F   0  0  0  0  0  0  0  0  0  0  0  0
  1  2  1  0  0  0  0
  1  5  2  0  0  0  0
  2  6  2  0  0  0  0
  3  9  2  0  0  0  0
  3 17  1  0  0  0  0
  4 10  1  0  0  0  0
  4 17  2  0  0  0  0
  5 19  1  0  0  0  0
  6 21  1  0  0  0  0
  7 11  2  0  0  0  0
  7 20  1  0  0  0  0
  8 14  2  0  0  0  0
  8 23  1  0  0  0  0
  9 24  1  0  0  0  0
 10 24  2  0  0  0  0
 11 25  1  0  0  0  0
 12 13  2  0  0  0  0
 12 26  1  0  0  0  0
 13 27  1  0  0  0  0
 14 31  1  0  0  0  0
 15 22  1  0  0  0  0
 15 25  2  0  0  0  0
 16 27  2  0  0  0  0
 16 28  1  0  0  0  0
 17 29  1  0  0  0  0
 18 29  1  0  0  0  0
 18 32  2  0  0  0  0
 18 33  1  0  0  0  0
 19 21  2  0  0  0  0
 19 38  1  0  0  0  0
 20 22  2  0  0  0  0
 20 39  1  0  0  0  0
 21 50  1  0  0  0  0
 22 40  1  0  0  0  0
 23 30  2  0  0  0  0
 23 74  1  0  0  0  0
 24 85  1  0  0  0  0
 25 86  1  0  0  0  0
 26 28  2  0  0  0  0
 26 85  1  0  0  0  0
 27 87  1  0  0  0  0
 28 88  1  0  0  0  0
 29 67  2  0  0  0  0
 30 51  1  0  0  0  0
 30 68  1  0  0  0  0
 31 68  2  0  0  0  0
 31 75  1  0  0  0  0
 32 69  1  0  0  0  0
 32 72  1  0  0  0  0
 33 73  1  0  0  0  0
 33 80  2  0  0  0  0
 34 52  1  0  0  0  0
 34 76  1  0  0  0  0
 34 81  2  0  0  0  0
 35 64  1  0  0  0  0
 35 70  1  0  0  0  0
 35 82  2  0  0  0  0
 36 65  1  0  0  0  0
 36 77  1  0  0  0  0
 36 83  2  0  0  0  0
 37 71  1  0  0  0  0
 37 75  1  0  0  0  0
 37 84  2  0  0  0  0
 38 41  1  0  0  0  0
 39 52  1  0  0  0  0
 40 70  1  0  0  0  0
 41 44  1  0  0  0  0
 42 45  1  0  0  0  0
 42 46  1  0  0  0  0
 43 47  1  0  0  0  0
 43 48  1  0  0  0  0
 44 50  1  0  0  0  0
 45 51  1  0  0  0  0
 46 53  1  0  0  0  0
 47 54  1  0  0  0  0
 48 71  1  0  0  0  0
 49 54  1  0  0  0  0
 49 71  1  0  0  0  0
 50 76  1  0  0  0  0
 51 53  1  0  0  0  0
 52 70  1  0  0  0  0
 53 60  1  0  0  0  0
 54 69  1  0  0  0  0
 55 65  1  0  0  0  0
 56 66  1  0  0  0  0
 57 66  1  0  0  0  0
 58 66  1  0  0  0  0
 59 79  1  0  0  0  0
 60 62  1  0  0  0  0
 61 63  1  0  0  0  0
 61 74  1  0  0  0  0
 62 78  1  0  0  0  0
 63 86  1  0  0  0  0
 64 66  1  0  0  0  0
 64 77  1  0  0  0  0
 65 79  1  0  0  0  0
 67 69  1  0  0  0  0
M  CHG  2  78   1  79   1
M  ISO  4  37 100  63 101  75 100  86 101
M  END
> <Batch ID>
0137

> <Smiles>
CNC(C)C(=O)NC(C(=O)N1Cc2cc([101O:1][101CH2:1]CNc3ccc([100NH:0][100C:0](=O)N4CCCC(n5nc(-c6ccc(Oc7ccc(F)cc7F)cc6)c(C(N)=O)c5N)C4)nc3C3CCCC3CCN)ccc2CC1C(=O)NC1CCCc2ccccc21)C(C)(C)C

> <Shape>
0.245

> <Color>
0.112

> <Negative vol penalty>
0.000

$$$$

  -OEChem-04052321053D

 84 93  0     1  0  0  0  0  0999 V2000
  -28.0724  -32.4141   27.2655 C   0  0  0  0  0  0  0  0  0  0  0  0
  -28.2090  -31.3737   26.3522 C   0  0  0  0  0  0  0  0  0  0  0  0
  -22.8615  -12.5815   22.9723 C   0  0  0  0  0  0  0  0  0  0  0  0
  -22.7430  -14.5895   21.6340 C   0  0  0  0  0  0  0  0  0  0  0  0
  -26.8018  -32.8339   27.6573 C   0  0  0  0  0  0  0  0  0  0  0  0
  -27.0751  -30.7516   25.8309 C   0  0  0  0  0  0  0  0  0  0  0  0
  -31.8733  -18.8943   19.2817 C   0  0  0  0  0  0  0  0  0  0  0  0
  -29.7862  -19.2655   18.1227 C   0  0  0  0  0  0  0  0  0  0  0  0
  -27.3788  -30.0369   20.8267 C   0  0  0  0  0  0  0  0  0  0  0  0
  -31.4896  -17.5808   19.5521 C   0  0  0  0  0  0  0  0  0  0  0  0
  -29.4025  -17.9520   18.3930 C   0  0  0  0  0  0  0  0  0  0  0  0
  -21.8574  -13.0767   23.8042 C   0  0  0  0  0  0  0  0  0  0  0  0
  -21.7388  -15.0847   22.4660 C   0  0  0  0  0  0  0  0  0  0  0  0
  -28.1593  -28.9707   20.3820 C   0  0  0  0  0  0  0  0  0  0  0  0
  -18.4898  -13.3737   23.7393 C   0  0  0  0  0  0  0  0  0  0  0  0
  -17.4602  -12.5048   24.1006 C   0  0  0  0  0  0  0  0  0  0  0  0
  -26.1661  -27.6465   20.0773 C   0  0  0  0  0  0  0  0  0  0  0  0
  -18.0403  -12.7858   26.4291 C   0  0  0  0  0  0  0  0  0  0  0  0
  -23.3043  -13.3380   21.8872 C   0  0  0  0  0  0  0  0  0  0  0  0
  -24.1776  -12.0453   19.8688 C   0  0  0  0  0  0  0  0  0  0  0  0
  -31.0216  -19.7367   18.5671 C   0  0  0  0  0  0  0  0  0  0  0  0
  -25.6517  -32.2232   27.1332 C   0  0  0  0  0  0  0  0  0  0  0  0
  -25.9846  -29.9120   20.9105 C   0  0  0  0  0  0  0  0  0  0  0  0
  -25.7880  -31.1627   26.2170 C   0  0  0  0  0  0  0  0  0  0  0  0
  -25.3699  -28.7135   20.5210 C   0  0  0  0  0  0  0  0  0  0  0  0
  -30.2542  -17.1096   19.1077 C   0  0  0  0  0  0  0  0  0  0  0  0
  -21.2960  -14.3282   23.5511 C   0  0  0  0  0  0  0  0  0  0  0  0
  -27.5532  -27.7743   20.0100 C   0  0  0  0  0  0  0  0  0  0  0  0
  -19.2947  -13.9486   24.7228 C   0  0  0  0  0  0  0  0  0  0  0  0
  -17.2355  -12.2108   25.4455 C   0  0  0  0  0  0  0  0  0  0  0  0
  -19.0700  -13.6546   26.0677 C   0  0  0  0  0  0  0  0  0  0  0  0
  -24.3420  -12.8273   21.0278 C   0  0  0  0  0  0  0  0  0  0  0  0
  -25.4566  -11.8230   19.4203 C   0  0  0  0  0  0  0  0  0  0  0  0
  -22.9761  -11.5632   19.2525 C   0  0  0  0  0  0  0  0  0  0  0  0
  -23.8577  -30.0521   23.2686 C   0  0  0  0  0  0  0  0  0  0  0  0
  -21.7249  -29.8286   20.8348 C   0  0  0  0  0  0  0  0  0  0  0  0
  -21.0762  -28.8438   17.6323 C   0  0  0  0  0  0  0  0  0  0  0  0
  -30.5901  -14.8094   20.0785 C   0  0  0  0  0  0  0  0  0  0  0  0
  -24.3001  -32.6799   27.6225 C   0  0  0  0  0  0  0  0  0  0  0  0
  -25.1546  -31.0805   21.3669 C   0  0  0  0  0  0  0  0  0  0  0  0
  -23.8753  -28.5352   20.5732 C   0  0  0  0  0  0  0  0  0  0  0  0
  -23.1444  -32.2180   26.7387 C   0  0  0  0  0  0  0  0  0  0  0  0
  -29.9616  -11.4271   20.9961 C   0  0  0  0  0  0  0  0  0  0  0  0
  -23.2914  -30.7385   26.3975 C   0  0  0  0  0  0  0  0  0  0  0  0
  -28.4343  -11.3295   20.9970 C   0  0  0  0  0  0  0  0  0  0  0  0
  -31.8412  -22.0344   19.4236 C   0  0  0  0  0  0  0  0  0  0  0  0
  -30.4435  -12.7829   21.5091 C   0  0  0  0  0  0  0  0  0  0  0  0
  -28.3273  -13.8494   20.8357 C   0  0  0  0  0  0  0  0  0  0  0  0
  -31.4293  -21.1330   18.2798 C   0  0  2  0  0  0  0  0  0  0  0  0
  -24.5817  -30.4795   25.6104 C   0  0  1  0  0  0  0  0  0  0  0  0
  -23.7858  -30.6690   21.9004 C   0  0  1  0  0  0  0  0  0  0  0  0
  -30.5348  -22.2707   18.7260 C   0  0  2  0  0  0  0  0  0  0  0  0
  -27.7928  -12.5252   20.2660 C   0  0  2  0  0  0  0  0  0  0  0  0
  -19.2315  -28.7579   15.9331 C   0  0  0  0  0  0  0  0  0  0  0  0
  -20.4822  -27.4627   22.3072 C   0  0  0  0  0  0  0  0  0  0  0  0
  -19.3114  -26.8446   20.1822 C   0  0  0  0  0  0  0  0  0  0  0  0
  -18.8316  -29.0340   21.2773 C   0  0  0  0  0  0  0  0  0  0  0  0
  -22.5699  -30.5741   15.7523 C   0  0  0  0  0  0  0  0  0  0  0  0
  -30.3537  -23.4862   17.8433 C   0  0  0  0  0  0  0  0  0  0  0  0
  -29.8890  -25.9383   17.9427 C   0  0  0  0  0  0  0  0  0  0  0  0
  -29.5333  -27.0508   18.9091 C   0  0  0  0  0  0  0  0  0  1  0  0
  -21.0471  -28.6920   20.1082 C   0  0  1  0  0  0  0  0  0  0  0  0
  -20.4045  -29.5601   16.4746 C   0  0  2  0  0  0  0  0  0  0  0  0
  -19.9464  -28.0107   20.9695 C   0  0  0  0  0  0  0  0  0  0  0  0
  -25.6243  -13.0842   21.2988 N   0  0  0  0  0  0  0  0  0  0  0  0
  -26.2774  -12.4601   20.3038 N   0  0  0  0  0  0  0  0  0  0  0  0
  -23.1074  -29.7045   21.0322 N   0  0  0  0  0  0  0  0  0  0  0  0
  -29.7969  -13.8677   20.7675 N   0  0  0  0  0  0  0  0  0  0  0  0
  -25.9480  -11.1465   18.3605 N   0  0  0  0  0  0  0  0  0  0  0  0
  -21.7467  -11.8839   19.8440 N   0  0  0  0  0  0  0  0  0  0  0  0
  -29.8642  -15.7754   19.3824 N   0  0  0  0  0  0  0  0  0  0  0  0
  -24.4180  -30.8741   24.2277 N   0  0  0  0  0  0  0  0  0  0  0  0
  -20.5629  -29.2444   18.8477 N   0  0  0  0  0  0  0  0  0  0  0  0
  -21.3765  -29.7780   15.3662 N   0  3  0  0  0  0  0  0  0  0  0  0
  -30.0319  -24.6649   18.6925 N   0  3  0  0  0  0  0  0  0  0  0  0
  -22.9932  -10.8547   18.2175 O   0  0  0  0  0  0  0  0  0  0  0  0
  -23.4346  -28.9151   23.4417 O   0  0  0  0  0  0  0  0  0  0  0  0
  -21.0536  -30.7943   21.2069 O   0  0  0  0  0  0  0  0  0  0  0  0
  -21.9646  -28.0094   17.4739 O   0  0  0  0  0  0  0  0  0  0  0  0
  -31.8222  -14.7463   20.0817 O   0  0  0  0  0  0  0  0  0  0  0  0
  -20.3160  -14.8116   24.3625 O   0  0  0  0  0  0  0  0  0  0  0  0
  -28.3128  -26.7318   19.5762 O   0  0  0  0  0  0  0  0  0  1  0  0
  -16.2458  -11.3776   25.7925 F   0  0  0  0  0  0  0  0  0  0  0  0
  -19.8392  -14.2048   27.0172 F   0  0  0  0  0  0  0  0  0  0  0  0
  1  2  1  0  0  0  0
  1  5  2  0  0  0  0
  2  6  2  0  0  0  0
  3 12  2  0  0  0  0
  3 19  1  0  0  0  0
  4 13  1  0  0  0  0
  4 19  2  0  0  0  0
  5 22  1  0  0  0  0
  6 24  1  0  0  0  0
  7 10  2  0  0  0  0
  7 21  1  0  0  0  0
  8 11  1  0  0  0  0
  8 21  2  0  0  0  0
  9 14  2  0  0  0  0
  9 23  1  0  0  0  0
 10 26  1  0  0  0  0
 11 26  2  0  0  0  0
 12 27  1  0  0  0  0
 13 27  2  0  0  0  0
 14 28  1  0  0  0  0
 15 16  2  0  0  0  0
 15 29  1  0  0  0  0
 16 30  1  0  0  0  0
 17 25  1  0  0  0  0
 17 28  2  0  0  0  0
 18 30  2  0  0  0  0
 18 31  1  0  0  0  0
 19 32  1  0  0  0  0
 20 32  1  0  0  0  0
 20 33  2  0  0  0  0
 20 34  1  0  0  0  0
 21 49  1  0  0  0  0
 22 24  2  0  0  0  0
 22 39  1  0  0  0  0
 23 25  2  0  0  0  0
 23 40  1  0  0  0  0
 24 50  1  0  0  0  0
 25 41  1  0  0  0  0
 26 71  1  0  0  0  0
 27 81  1  0  0  0  0
 28 82  1  0  0  0  0
 29 31  2  0  0  0  0
 29 81  1  0  0  0  0
 30 83  1  0  0  0  0
 31 84  1  0  0  0  0
 32 65  2  0  0  0  0
 33 66  1  0  0  0  0
 33 69  1  0  0  0  0
 34 70  1  0  0  0  0
 34 76  2  0  0  0  0
 35 51  1  0  0  0  0
 35 72  1  0  0  0  0
 35 77  2  0  0  0  0
 36 62  1  0  0  0  0
 36 67  1  0  0  0  0
 36 78  2  0  0  0  0
 37 63  1  0  0  0  0
 37 73  1  0  0  0  0
 37 79  2  0  0  0  0
 38 68  1  0  0  0  0
 38 71  1  0  0  0  0
 38 80  2  0  0  0  0
 39 42  1  0  0  0  0
 40 51  1  0  0  0  0
 41 67  1  0  0  0  0
 42 44  1  0  0  0  0
 43 45  1  0  0  0  0
 43 47  1  0  0  0  0
 44 50  1  0  0  0  0
 45 53  1  0  0  0  0
 46 49  1  0  0  0  0
 46 52  1  0  0  0  0
 47 68  1  0  0  0  0
 48 53  1  0  0  0  0
 48 68  1  0  0  0  0
 49 52  1  0  0  0  0
 50 72  1  0  0  0  0
 51 67  1  0  0  0  0
 52 59  1  0  0  0  0
 53 66  1  0  0  0  0
 54 63  1  0  0  0  0
 55 64  1  0  0  0  0
 56 64  1  0  0  0  0
 57 64  1  0  0  0  0
 58 74  1  0  0  0  0
 59 75  1  0  0  0  0
 60 61  1  0  0  0  0
 60 75  1  0  0  0  0
 61 82  1  0  0  0  0
 62 64  1  0  0  0  0
 62 73  1  0  0  0  0
 63 74  1  0  0  0  0
 65 66  1  0  0  0  0
M  CHG  2  74   1  75   1
M  ISO  4  38 100  61 101  71 100  82 101
M  END
> <Batch ID>
0137

> <Smiles>
CNC(C)C(=O)NC(C(=O)N1Cc2cc([101O:1][101CH2:1]CNCC3CC3c3ccc([100NH:0][100C:0](=O)N4CCCC(n5nc(-c6ccc(Oc7ccc(F)cc7F)cc6)c(C(N)=O)c5N)C4)cc3)ccc2CC1C(=O)NC1CCCc2ccccc21)C(C)(C)C

> <Shape>
0.276

> <Color>
0.102

> <Negative vol penalty>
0.000

$$$$

  -OEChem-04052321053D

 89 98  0     1  0  0  0  0  0999 V2000
  -27.6142  -35.0698   24.8437 C   0  0  0  0  0  0  0  0  0  0  0  0
  -27.6313  -33.7971   25.4052 C   0  0  0  0  0  0  0  0  0  0  0  0
  -23.2461   -9.6874   19.9032 C   0  0  0  0  0  0  0  0  0  0  0  0
  -23.8723   -9.8244   22.2325 C   0  0  0  0  0  0  0  0  0  0  0  0
  -26.6715  -35.3869   23.8667 C   0  0  0  0  0  0  0  0  0  0  0  0
  -26.7048  -32.8409   24.9907 C   0  0  0  0  0  0  0  0  0  0  0  0
  -28.8166  -28.3083   24.1904 C   0  0  0  0  0  0  0  0  0  0  0  0
  -22.5664   -8.4959   20.1559 C   0  0  0  0  0  0  0  0  0  0  0  0
  -23.1926   -8.6329   22.4853 C   0  0  0  0  0  0  0  0  0  0  0  0
  -29.1040  -27.5327   25.3127 C   0  0  0  0  0  0  0  0  0  0  0  0
  -19.9947   -7.6399   22.9412 C   0  0  0  0  0  0  0  0  0  0  0  0
  -19.1766   -7.5891   24.0698 C   0  0  0  0  0  0  0  0  0  0  0  0
  -31.6085  -17.0899   22.7242 C   0  0  0  0  0  0  0  0  0  0  0  0
  -27.0951  -26.2518   24.9346 C   0  0  0  0  0  0  0  0  0  0  0  0
  -20.4985   -5.7664   24.9458 C   0  0  0  0  0  0  0  0  0  0  0  0
  -32.0537  -18.0444   23.6244 C   0  0  0  0  0  0  0  0  0  0  0  0
  -23.8991  -10.3517   20.9415 C   0  0  0  0  0  0  0  0  0  0  0  0
  -29.3687  -17.8342   23.1863 C   0  0  0  0  0  0  0  0  0  0  0  0
  -24.0810  -12.8885   20.7444 C   0  0  0  0  0  0  0  0  0  0  0  0
  -25.7391  -34.4312   23.4331 C   0  0  0  0  0  0  0  0  0  0  0  0
  -27.6586  -28.0681   23.4368 C   0  0  0  0  0  0  0  0  0  0  0  0
  -25.7478  -33.1459   24.0079 C   0  0  0  0  0  0  0  0  0  0  0  0
  -26.7966  -27.0242   23.8017 C   0  0  0  0  0  0  0  0  0  0  0  0
  -30.2389  -16.9892   22.5065 C   0  0  0  0  0  0  0  0  0  0  0  0
  -22.5396   -7.9686   21.4470 C   0  0  0  0  0  0  0  0  0  0  0  0
  -28.2418  -26.5062   25.6867 C   0  0  0  0  0  0  0  0  0  0  0  0
  -21.0646   -6.7539   22.8148 C   0  0  0  0  0  0  0  0  0  0  0  0
  -19.4286   -6.6524   25.0722 C   0  0  0  0  0  0  0  0  0  0  0  0
  -21.3165   -5.8172   23.8171 C   0  0  0  0  0  0  0  0  0  0  0  0
  -24.6019  -11.5822   20.6809 C   0  0  0  0  0  0  0  0  0  0  0  0
  -29.9141  -18.7552   24.0660 C   0  0  0  0  0  0  0  0  0  0  0  0
  -25.1406  -13.6972   20.4128 C   0  0  0  0  0  0  0  0  0  0  0  0
  -27.9264  -17.7591   22.9852 C   0  0  0  0  0  0  0  0  0  0  0  0
  -22.7577  -13.3314   21.0736 C   0  0  0  0  0  0  0  0  0  0  0  0
  -25.0598  -29.7519   22.7195 C   0  0  0  0  0  0  0  0  0  0  0  0
  -24.4088  -27.2047   20.8194 C   0  0  0  0  0  0  0  0  0  0  0  0
  -24.8690  -23.8875   20.1625 C   0  0  0  0  0  0  0  0  0  0  0  0
  -30.5077  -15.1150   20.8448 C   0  0  0  0  0  0  0  0  0  0  0  0
  -24.7089  -34.8350   22.4083 C   0  0  0  0  0  0  0  0  0  0  0  0
  -27.3767  -28.8964   22.2134 C   0  0  0  0  0  0  0  0  0  0  0  0
  -25.5509  -26.7125   23.0145 C   0  0  0  0  0  0  0  0  0  0  0  0
  -24.0021  -33.6498   21.7554 C   0  0  0  0  0  0  0  0  0  0  0  0
  -29.6902  -12.5516   18.5129 C   0  0  0  0  0  0  0  0  0  0  0  0
  -23.5659  -32.6401   22.8123 C   0  0  0  0  0  0  0  0  0  0  0  0
  -28.2507  -12.1784   18.8742 C   0  0  0  0  0  0  0  0  0  0  0  0
  -28.7857  -20.7980   26.8146 C   0  0  0  0  0  0  0  0  0  0  0  0
  -30.0560  -21.8158   24.8965 C   0  0  0  0  0  0  0  0  0  0  0  0
  -30.5186  -12.8828   19.7530 C   0  0  0  0  0  0  0  0  0  0  0  0
  -28.4929  -13.5237   20.9999 C   0  0  0  0  0  0  0  0  0  0  0  0
  -29.3417  -21.8644   27.7453 C   0  0  0  0  0  0  0  0  0  0  0  0
  -30.6090  -22.8801   25.8315 C   0  0  0  0  0  0  0  0  0  0  0  0
  -24.7750  -32.0739   23.5667 C   0  0  1  0  0  0  0  0  0  0  0  0
  -25.9033  -28.8956   21.8178 C   0  0  1  0  0  0  0  0  0  0  0  0
  -27.6020  -13.2449   19.7783 C   0  0  2  0  0  0  0  0  0  0  0  0
  -29.7234  -20.5259   25.6421 C   0  0  0  0  0  0  0  0  0  0  0  0
  -24.1768  -22.0815   18.5636 C   0  0  0  0  0  0  0  0  0  0  0  0
  -21.6911  -27.0313   22.1956 C   0  0  0  0  0  0  0  0  0  0  0  0
  -21.4494  -24.7166   21.2727 C   0  0  0  0  0  0  0  0  0  0  0  0
  -21.6336  -26.6624   19.7227 C   0  0  0  0  0  0  0  0  0  0  0  0
  -27.6579  -23.4402   19.2789 C   0  0  0  0  0  0  0  0  0  0  0  0
  -30.0691  -24.2479   27.8458 C   0  0  0  0  0  0  0  0  0  0  0  0
  -29.8957  -25.5630   27.1118 C   0  0  0  0  0  0  0  0  0  1  0  0
  -23.6774  -25.8963   20.9987 C   0  0  1  0  0  0  0  0  0  0  0  0
  -25.2093  -23.1527   18.8785 C   0  0  2  0  0  0  0  0  0  0  0  0
  -22.1353  -26.0835   21.0636 C   0  0  0  0  0  0  0  0  0  0  0  0
  -31.2389  -18.8827   24.3034 N   0  0  0  0  0  0  0  0  0  0  0  0
  -25.8920  -11.5578   20.3360 N   0  0  0  0  0  0  0  0  0  0  0  0
  -26.1907  -12.8587   20.1797 N   0  0  0  0  0  0  0  0  0  0  0  0
  -25.3155  -27.5545   21.8300 N   0  0  0  0  0  0  0  0  0  0  0  0
  -29.8444  -13.9030   20.5588 N   0  0  0  0  0  0  0  0  0  0  0  0
  -25.2671  -15.0365   20.3008 N   0  0  0  0  0  0  0  0  0  0  0  0
  -27.3742  -18.5480   21.9828 N   0  0  0  0  0  0  0  0  0  0  0  0
  -21.7900  -12.3681   21.3896 N   0  0  0  0  0  0  0  0  0  0  0  0
  -29.7556  -16.0217   21.5911 N   0  0  0  0  0  0  0  0  0  0  0  0
  -25.4499  -31.0767   22.7639 N   0  0  0  0  0  0  0  0  0  0  0  0
  -24.1287  -25.0251   19.9191 N   0  0  0  0  0  0  0  0  0  0  0  0
  -29.6271  -23.1199   26.9546 N   0  3  0  0  0  0  0  0  0  0  0  0
  -26.5439  -22.4997   18.9935 N   0  3  0  0  0  0  0  0  0  0  0  0
  -27.2140  -17.0301   23.6942 O   0  0  0  0  0  0  0  0  0  0  0  0
  -22.4384  -14.5445   21.0712 O   0  0  0  0  0  0  0  0  0  0  0  0
  -24.1233  -29.2482   23.3286 O   0  0  0  0  0  0  0  0  0  0  0  0
  -24.1892  -27.8876   19.8159 O   0  0  0  0  0  0  0  0  0  0  0  0
  -25.2213  -23.4901   21.2708 O   0  0  0  0  0  0  0  0  0  0  0  0
  -31.6481  -15.3434   20.4333 O   0  0  0  0  0  0  0  0  0  0  0  0
  -21.8762   -6.8061   21.6940 O   0  0  0  0  0  0  0  0  0  0  0  0
  -28.5197  -25.7480   26.7821 O   0  0  0  0  0  0  0  0  0  1  0  0
  -29.0935  -19.6073   24.7567 O   0  0  0  0  0  0  0  0  0  0  0  0
  -18.6439   -6.6048   26.1567 F   0  0  0  0  0  0  0  0  0  0  0  0
  -22.3436   -4.9641   23.7019 F   0  0  0  0  0  0  0  0  0  0  0  0
  1  2  1  0  0  0  0
  1  5  2  0  0  0  0
  2  6  2  0  0  0  0
  3  8  2  0  0  0  0
  3 17  1  0  0  0  0
  4  9  1  0  0  0  0
  4 17  2  0  0  0  0
  5 20  1  0  0  0  0
  6 22  1  0  0  0  0
  7 10  2  0  0  0  0
  7 21  1  0  0  0  0
  8 25  1  0  0  0  0
  9 25  2  0  0  0  0
 10 26  1  0  0  0  0
 11 12  2  0  0  0  0
 11 27  1  0  0  0  0
 12 28  1  0  0  0  0
 13 16  1  0  0  0  0
 13 24  2  0  0  0  0
 14 23  1  0  0  0  0
 14 26  2  0  0  0  0
 15 28  2  0  0  0  0
 15 29  1  0  0  0  0
 16 66  2  0  0  0  0
 17 30  1  0  0  0  0
 18 24  1  0  0  0  0
 18 31  2  0  0  0  0
 18 33  1  0  0  0  0
 19 30  1  0  0  0  0
 19 32  2  0  0  0  0
 19 34  1  0  0  0  0
 20 22  2  0  0  0  0
 20 39  1  0  0  0  0
 21 23  2  0  0  0  0
 21 40  1  0  0  0  0
 22 52  1  0  0  0  0
 23 41  1  0  0  0  0
 24 74  1  0  0  0  0
 25 85  1  0  0  0  0
 26 86  1  0  0  0  0
 27 29  2  0  0  0  0
 27 85  1  0  0  0  0
 28 88  1  0  0  0  0
 29 89  1  0  0  0  0
 30 67  2  0  0  0  0
 31 66  1  0  0  0  0
 31 87  1  0  0  0  0
 32 68  1  0  0  0  0
 32 71  1  0  0  0  0
 33 72  1  0  0  0  0
 33 79  2  0  0  0  0
 34 73  1  0  0  0  0
 34 80  2  0  0  0  0
 35 53  1  0  0  0  0
 35 75  1  0  0  0  0
 35 81  2  0  0  0  0
 36 63  1  0  0  0  0
 36 69  1  0  0  0  0
 36 82  2  0  0  0  0
 37 64  1  0  0  0  0
 37 76  1  0  0  0  0
 37 83  2  0  0  0  0
 38 70  1  0  0  0  0
 38 74  1  0  0  0  0
 38 84  2  0  0  0  0
 39 42  1  0  0  0  0
 40 53  1  0  0  0  0
 41 69  1  0  0  0  0
 42 44  1  0  0  0  0
 43 45  1  0  0  0  0
 43 48  1  0  0  0  0
 44 52  1  0  0  0  0
 45 54  1  0  0  0  0
 46 50  1  0  0  0  0
 46 55  1  0  0  0  0
 47 51  1  0  0  0  0
 47 55  1  0  0  0  0
 48 70  1  0  0  0  0
 49 54  1  0  0  0  0
 49 70  1  0  0  0  0
 50 77  1  0  0  0  0
 51 77  1  0  0  0  0
 52 75  1  0  0  0  0
 53 69  1  0  0  0  0
 54 68  1  0  0  0  0
 55 87  1  0  0  0  0
 56 64  1  0  0  0  0
 57 65  1  0  0  0  0
 58 65  1  0  0  0  0
 59 65  1  0  0  0  0
 60 78  1  0  0  0  0
 61 62  1  0  0  0  0
 61 77  1  0  0  0  0
 62 86  1  0  0  0  0
 63 65  1  0  0  0  0
 63 76  1  0  0  0  0
 64 78  1  0  0  0  0
 67 68  1  0  0  0  0
M  CHG  2  77   1  78   1
M  ISO  4  38 100  62 101  74 100  86 101
M  END
> <Batch ID>
0137

> <Smiles>
CNC(C)C(=O)NC(C(=O)N1Cc2cc([101O:1][101CH2:1]CN3CCC(Oc4nccc([100NH:0][100C:0](=O)N5CCCC(n6nc(-c7ccc(Oc8ccc(F)cc8F)cc7)c(C(N)=O)c6N)C5)c4C(N)=O)CC3)ccc2CC1C(=O)NC1CCCc2ccccc21)C(C)(C)C

> <Shape>
0.266

> <Color>
0.173

> <Negative vol penalty>
0.000

$$$$

  -OEChem-04052321053D

 83 91  0     1  0  0  0  0  0999 V2000
  -26.9483  -29.2560   19.3477 C   0  0  0  0  0  0  0  0  0  0  0  0
  -26.7016  -27.9640   18.8974 C   0  0  0  0  0  0  0  0  0  0  0  0
  -30.4420  -23.0672   19.9620 C   0  0  0  0  0  0  0  0  0  0  0  0
  -28.7469  -22.7805   18.2646 C   0  0  0  0  0  0  0  0  0  0  0  0
  -26.3705  -29.6982   20.5359 C   0  0  0  0  0  0  0  0  0  0  0  0
  -25.8676  -27.1177   19.6289 C   0  0  0  0  0  0  0  0  0  0  0  0
  -24.4093  -21.2668   18.7531 C   0  0  0  0  0  0  0  0  0  0  0  0
  -26.1676  -11.3021   20.5009 C   0  0  0  0  0  0  0  0  0  0  0  0
  -25.9628  -11.9689   19.2930 C   0  0  0  0  0  0  0  0  0  0  0  0
  -30.9993  -24.1147   19.2287 C   0  0  0  0  0  0  0  0  0  0  0  0
  -29.3041  -23.8281   17.5312 C   0  0  0  0  0  0  0  0  0  0  0  0
  -24.8786  -20.0176   19.1571 C   0  0  0  0  0  0  0  0  0  0  0  0
  -30.3571  -27.3886   18.6794 C   0  0  0  0  0  0  0  0  0  0  0  0
  -30.7116  -28.5471   19.3706 C   0  0  0  0  0  0  0  0  0  0  0  0
  -23.2331  -19.9764   20.9205 C   0  0  0  0  0  0  0  0  0  0  0  0
  -25.6464  -13.3289   21.7082 C   0  0  0  0  0  0  0  0  0  0  0  0
  -33.0064  -28.2625   18.6708 C   0  0  0  0  0  0  0  0  0  0  0  0
  -29.3159  -22.4000   19.4799 C   0  0  0  0  0  0  0  0  0  0  0  0
  -27.7384  -21.4074   21.2217 C   0  0  0  0  0  0  0  0  0  0  0  0
  -25.5391  -28.8521   21.2881 C   0  0  0  0  0  0  0  0  0  0  0  0
  -23.3538  -21.8860   19.4378 C   0  0  0  0  0  0  0  0  0  0  0  0
  -25.2559  -27.5535   20.8183 C   0  0  0  0  0  0  0  0  0  0  0  0
  -22.7506  -21.2323   20.5217 C   0  0  0  0  0  0  0  0  0  0  0  0
  -26.0094  -11.9821   21.7085 C   0  0  0  0  0  0  0  0  0  0  0  0
  -25.5998  -13.3157   19.2927 C   0  0  0  0  0  0  0  0  0  0  0  0
  -25.4416  -13.9957   20.5003 C   0  0  0  0  0  0  0  0  0  0  0  0
  -30.4303  -24.4951   18.0133 C   0  0  0  0  0  0  0  0  0  0  0  0
  -24.2924  -19.3736   20.2427 C   0  0  0  0  0  0  0  0  0  0  0  0
  -31.3273  -26.6670   17.9839 C   0  0  0  0  0  0  0  0  0  0  0  0
  -32.0362  -28.9841   19.3663 C   0  0  0  0  0  0  0  0  0  0  0  0
  -32.6519  -27.1039   17.9796 C   0  0  0  0  0  0  0  0  0  0  0  0
  -28.7401  -21.3175   20.2367 C   0  0  0  0  0  0  0  0  0  0  0  0
  -27.5442  -20.1115   21.6333 C   0  0  0  0  0  0  0  0  0  0  0  0
  -27.0452  -22.5593   21.7200 C   0  0  0  0  0  0  0  0  0  0  0  0
  -23.0258  -24.5840   21.0862 C   0  0  0  0  0  0  0  0  0  0  0  0
  -19.9034  -23.7073   21.1512 C   0  0  0  0  0  0  0  0  0  0  0  0
  -17.5928  -21.2028   20.9626 C   0  0  0  0  0  0  0  0  0  0  0  0
  -28.4490  -14.8153   18.9908 C   0  0  0  0  0  0  0  0  0  0  0  0
  -24.9335  -29.3847   22.5629 C   0  0  0  0  0  0  0  0  0  0  0  0
  -22.8415  -23.2216   18.9729 C   0  0  0  0  0  0  0  0  0  0  0  0
  -21.6012  -21.8453   21.2777 C   0  0  0  0  0  0  0  0  0  0  0  0
  -24.4301  -28.2816   23.4881 C   0  0  0  0  0  0  0  0  0  0  0  0
  -29.8414  -15.9373   22.0695 C   0  0  0  0  0  0  0  0  0  0  0  0
  -23.5622  -27.3051   22.7084 C   0  0  0  0  0  0  0  0  0  0  0  0
  -29.6266  -17.4515   22.0378 C   0  0  0  0  0  0  0  0  0  0  0  0
  -30.1657  -15.3841   20.6836 C   0  0  0  0  0  0  0  0  0  0  0  0
  -28.9793  -17.2532   19.6005 C   0  0  0  0  0  0  0  0  0  0  0  0
  -24.3766  -26.6050   21.6131 C   0  0  1  0  0  0  0  0  0  0  0  0
  -22.1001  -23.9895   20.0628 C   0  0  1  0  0  0  0  0  0  0  0  0
  -28.5946  -17.8491   20.9655 C   0  0  2  0  0  0  0  0  0  0  0  0
  -26.2284  -11.2687   22.9995 C   0  0  0  0  0  0  0  0  0  0  0  0
  -15.1209  -20.7895   21.0895 C   0  0  0  0  0  0  0  0  0  0  0  0
  -20.0110  -24.0103   24.1854 C   0  0  0  0  0  0  0  0  0  0  0  0
  -17.8809  -22.7016   24.3218 C   0  0  0  0  0  0  0  0  0  0  0  0
  -17.9245  -24.8886   23.1226 C   0  0  0  0  0  0  0  0  0  0  0  0
  -17.5093  -20.1514   18.1974 C   0  0  0  0  0  0  0  0  0  0  0  0
  -25.3887  -14.0055   17.9842 C   0  0  0  0  0  0  0  0  0  0  0  0
  -26.6929  -14.4045   17.2858 C   0  0  0  0  0  0  0  0  0  0  0  0
  -24.5054  -15.9925   21.6673 C   0  0  0  0  0  0  0  0  0  0  0  0
  -23.8042  -17.2724   21.2441 C   0  0  0  0  0  0  0  0  0  1  0  0
  -19.0447  -22.8784   22.0756 C   0  0  1  0  0  0  0  0  0  0  0  0
  -16.3005  -21.0817   20.1753 C   0  0  2  0  0  0  0  0  0  0  0  0
  -18.7382  -23.6088   23.4135 C   0  0  0  0  0  0  0  0  0  0  0  0
  -29.1537  -20.0636   20.0348 N   0  0  0  0  0  0  0  0  0  0  0  0
  -28.4081  -19.3537   20.8986 N   0  0  0  0  0  0  0  0  0  0  0  0
  -21.1402  -23.1553   20.7887 N   0  0  0  0  0  0  0  0  0  0  0  0
  -29.1479  -15.7959   19.7138 N   0  0  0  0  0  0  0  0  0  0  0  0
  -26.7206  -19.5576   22.5483 N   0  0  0  0  0  0  0  0  0  0  0  0
  -27.3672  -23.8151   21.1874 N   0  0  0  0  0  0  0  0  0  0  0  0
  -25.0833  -15.3335   20.5185 N   0  0  0  0  0  0  0  0  0  0  0  0
  -23.4788  -25.8499   20.7671 N   0  0  0  0  0  0  0  0  0  0  0  0
  -17.8584  -22.5104   21.3103 N   0  0  0  0  0  0  0  0  0  0  0  0
  -27.4972  -15.2909   18.0971 N   0  0  0  0  0  0  0  0  0  0  0  0
  -16.4042  -19.9814   19.1756 N   0  3  0  0  0  0  0  0  0  0  0  0
  -26.1780  -22.4794   22.6228 O   0  0  0  0  0  0  0  0  0  0  0  0
  -23.3071  -23.9423   22.0916 O   0  0  0  0  0  0  0  0  0  0  0  0
  -19.4888  -24.8010   20.7592 O   0  0  0  0  0  0  0  0  0  0  0  0
  -18.2944  -20.2339   21.2444 O   0  0  0  0  0  0  0  0  0  0  0  0
  -28.6539  -13.6053   19.1351 O   0  0  0  0  0  0  0  0  0  0  0  0
  -30.9736  -25.5174   17.2975 O   0  0  0  0  0  0  0  0  0  0  0  0
  -24.7490  -18.1546   20.6395 O   0  0  0  0  0  0  0  0  0  1  0  0
  -32.3762  -30.0975   20.0288 F   0  0  0  0  0  0  0  0  0  0  0  0
  -33.5882  -26.4155   17.3123 F   0  0  0  0  0  0  0  0  0  0  0  0
  1  2  1  0  0  0  0
  1  5  2  0  0  0  0
  2  6  2  0  0  0  0
  3 10  2  0  0  0  0
  3 18  1  0  0  0  0
  4 11  1  0  0  0  0
  4 18  2  0  0  0  0
  5 20  1  0  0  0  0
  6 22  1  0  0  0  0
  7 12  2  0  0  0  0
  7 21  1  0  0  0  0
  8  9  2  0  0  0  0
  8 24  1  0  0  0  0
  9 25  1  0  0  0  0
 10 27  1  0  0  0  0
 11 27  2  0  0  0  0
 12 28  1  0  0  0  0
 13 14  2  0  0  0  0
 13 29  1  0  0  0  0
 14 30  1  0  0  0  0
 15 23  1  0  0  0  0
 15 28  2  0  0  0  0
 16 24  2  0  0  0  0
 16 26  1  0  0  0  0
 17 30  2  0  0  0  0
 17 31  1  0  0  0  0
 18 32  1  0  0  0  0
 19 32  1  0  0  0  0
 19 33  2  0  0  0  0
 19 34  1  0  0  0  0
 20 22  2  0  0  0  0
 20 39  1  0  0  0  0
 21 23  2  0  0  0  0
 21 40  1  0  0  0  0
 22 48  1  0  0  0  0
 23 41  1  0  0  0  0
 24 51  1  0  0  0  0
 25 26  2  0  0  0  0
 25 57  1  0  0  0  0
 26 70  1  0  0  0  0
 27 80  1  0  0  0  0
 28 81  1  0  0  0  0
 29 31  2  0  0  0  0
 29 80  1  0  0  0  0
 30 82  1  0  0  0  0
 31 83  1  0  0  0  0
 32 64  2  0  0  0  0
 33 65  1  0  0  0  0
 33 68  1  0  0  0  0
 34 69  1  0  0  0  0
 34 75  2  0  0  0  0
 35 49  1  0  0  0  0
 35 71  1  0  0  0  0
 35 76  2  0  0  0  0
 36 61  1  0  0  0  0
 36 66  1  0  0  0  0
 36 77  2  0  0  0  0
 37 62  1  0  0  0  0
 37 72  1  0  0  0  0
 37 78  2  0  0  0  0
 38 67  1  0  0  0  0
 38 73  1  0  0  0  0
 38 79  2  0  0  0  0
 39 42  1  0  0  0  0
 40 49  1  0  0  0  0
 41 66  1  0  0  0  0
 42 44  1  0  0  0  0
 43 45  1  0  0  0  0
 43 46  1  0  0  0  0
 44 48  1  0  0  0  0
 45 50  1  0  0  0  0
 46 67  1  0  0  0  0
 47 50  1  0  0  0  0
 47 67  1  0  0  0  0
 48 71  1  0  0  0  0
 49 66  1  0  0  0  0
 50 65  1  0  0  0  0
 52 62  1  0  0  0  0
 53 63  1  0  0  0  0
 54 63  1  0  0  0  0
 55 63  1  0  0  0  0
 56 74  1  0  0  0  0
 57 58  1  0  0  0  0
 58 73  1  0  0  0  0
 59 60  1  0  0  0  0
 59 70  1  0  0  0  0
 60 81  1  0  0  0  0
 61 63  1  0  0  0  0
 61 72  1  0  0  0  0
 62 74  1  0  0  0  0
 64 65  1  0  0  0  0
M  CHG  1  74   1
M  ISO  4  38 100  60 101  73 100  81 101
M  END
> <Batch ID>
0137

> <Smiles>
CNC(C)C(=O)NC(C(=O)N1Cc2cc([101O:1][101CH2:1]CNc3cc(C)ccc3CC[100NH:0][100C:0](=O)N3CCCC(n4nc(-c5ccc(Oc6ccc(F)cc6F)cc5)c(C(N)=O)c4N)C3)ccc2CC1C(=O)NC1CCCc2ccccc21)C(C)(C)C

> <Shape>
0.182

> <Color>
0.066

> <Negative vol penalty>
0.000

$$$$

  -OEChem-04052321053D

 82 90  0     1  0  0  0  0  0999 V2000
  -29.0175  -35.6588   22.4100 C   0  0  0  0  0  0  0  0  0  0  0  0
  -29.0109  -34.2685   22.4584 C   0  0  0  0  0  0  0  0  0  0  0  0
  -26.6241  -13.1364   20.1316 C   0  0  0  0  0  0  0  0  0  0  0  0
  -25.1139  -15.0132   20.3159 C   0  0  0  0  0  0  0  0  0  0  0  0
  -27.8520  -36.3705   22.6909 C   0  0  0  0  0  0  0  0  0  0  0  0
  -27.8389  -33.5891   22.7888 C   0  0  0  0  0  0  0  0  0  0  0  0
  -26.9625  -29.6355   19.7481 C   0  0  0  0  0  0  0  0  0  0  0  0
  -25.5358  -12.2727   20.0091 C   0  0  0  0  0  0  0  0  0  0  0  0
  -24.0256  -14.1495   20.1933 C   0  0  0  0  0  0  0  0  0  0  0  0
  -27.6950  -28.4735   19.9873 C   0  0  0  0  0  0  0  0  0  0  0  0
  -23.2663  -10.8210   22.0503 C   0  0  0  0  0  0  0  0  0  0  0  0
  -23.2885   -9.6420   22.7952 C   0  0  0  0  0  0  0  0  0  0  0  0
  -25.8039  -27.5277   21.1485 C   0  0  0  0  0  0  0  0  0  0  0  0
  -23.1690   -8.3514   20.7563 C   0  0  0  0  0  0  0  0  0  0  0  0
  -26.4132  -14.5067   20.2851 C   0  0  0  0  0  0  0  0  0  0  0  0
  -28.5719  -15.6017   19.4796 C   0  0  0  0  0  0  0  0  0  0  0  0
  -26.6626  -35.6991   23.0154 C   0  0  0  0  0  0  0  0  0  0  0  0
  -25.6467  -29.7567   20.2175 C   0  0  0  0  0  0  0  0  0  0  0  0
  -26.6567  -34.2925   23.0755 C   0  0  0  0  0  0  0  0  0  0  0  0
  -25.0560  -28.6912   20.9117 C   0  0  0  0  0  0  0  0  0  0  0  0
  -24.2365  -12.7792   20.0399 C   0  0  0  0  0  0  0  0  0  0  0  0
  -27.1167  -27.4206   20.6901 C   0  0  0  0  0  0  0  0  0  0  0  0
  -23.1954  -10.7653   20.6583 C   0  0  0  0  0  0  0  0  0  0  0  0
  -23.2398   -8.4072   22.1483 C   0  0  0  0  0  0  0  0  0  0  0  0
  -23.1468   -9.5305   20.0113 C   0  0  0  0  0  0  0  0  0  0  0  0
  -27.5371  -15.3994   20.4124 C   0  0  0  0  0  0  0  0  0  0  0  0
  -29.3849  -16.5400   20.0669 C   0  0  0  0  0  0  0  0  0  0  0  0
  -28.9852  -23.7647   20.2117 C   0  0  0  0  0  0  0  0  0  0  0  0
  -28.7796  -14.9957   18.1969 C   0  0  0  0  0  0  0  0  0  0  0  0
  -24.1597  -31.6973   22.2489 C   0  0  0  0  0  0  0  0  0  0  0  0
  -21.5205  -30.1176   21.2187 C   0  0  0  0  0  0  0  0  0  0  0  0
  -19.2221  -27.9237   19.9733 C   0  0  0  0  0  0  0  0  0  0  0  0
  -28.4064  -20.7851   24.1746 C   0  0  0  0  0  0  0  0  0  0  0  0
  -25.4398  -36.5129   23.3575 C   0  0  0  0  0  0  0  0  0  0  0  0
  -24.8609  -31.0061   19.9280 C   0  0  0  0  0  0  0  0  0  0  0  0
  -23.6398  -28.7634   21.4193 C   0  0  0  0  0  0  0  0  0  0  0  0
  -29.1235  -23.4780   18.7347 C   0  0  0  0  0  0  0  0  0  0  0  0
  -24.1444  -35.7056   23.3329 C   0  0  0  0  0  0  0  0  0  0  0  0
  -30.5968  -23.3595   18.3678 C   0  0  0  0  0  0  0  0  0  0  0  0
  -31.3980  -24.5728   18.8375 C   0  0  0  0  0  0  0  0  0  0  0  0
  -30.7726  -18.1312   24.3603 C   0  0  0  0  0  0  0  0  0  0  0  0
  -24.3244  -34.3848   24.0744 C   0  0  0  0  0  0  0  0  0  0  0  0
  -31.2521  -24.7837   20.3457 C   0  0  0  0  0  0  0  0  0  0  0  0
  -30.3051  -17.1484   23.2854 C   0  0  0  0  0  0  0  0  0  0  0  0
  -29.5942  -18.8013   25.0634 C   0  0  0  0  0  0  0  0  0  0  0  0
  -28.1580  -18.4713   23.0880 C   0  0  0  0  0  0  0  0  0  0  0  0
  -25.3988  -33.5187   23.4057 C   0  0  1  0  0  0  0  0  0  0  0  0
  -29.7940  -24.9038   20.8021 C   0  0  1  0  0  0  0  0  0  0  0  0
  -23.7037  -31.2224   20.8983 C   0  0  1  0  0  0  0  0  0  0  0  0
  -29.3116  -17.8120   22.3128 C   0  0  2  0  0  0  0  0  0  0  0  0
  -16.7847  -27.3405   20.1008 C   0  0  0  0  0  0  0  0  0  0  0  0
  -25.7380  -22.8243   22.6389 C   0  0  0  0  0  0  0  0  0  0  0  0
  -21.9772  -28.8144   23.9396 C   0  0  0  0  0  0  0  0  0  0  0  0
  -19.8871  -27.4851   23.5759 C   0  0  0  0  0  0  0  0  0  0  0  0
  -19.7751  -29.9743   23.6948 C   0  0  0  0  0  0  0  0  0  0  0  0
  -18.8260  -28.4507   17.0881 C   0  0  0  0  0  0  0  0  0  0  0  0
  -29.1648  -26.2415   20.4238 C   0  0  0  0  0  0  0  0  0  1  0  0
  -28.1706  -23.5047   22.3587 C   0  0  0  0  0  0  0  0  0  0  0  0
  -20.7810  -28.8750   21.6524 C   0  0  1  0  0  0  0  0  0  0  0  0
  -17.8482  -28.1413   19.3655 C   0  0  2  0  0  0  0  0  0  0  0  0
  -27.1638  -22.6792   23.1608 C   0  0  2  0  0  0  0  0  0  0  0  0
  -20.6265  -28.7860   23.1969 C   0  0  0  0  0  0  0  0  0  0  0  0
  -27.6775  -16.1489   21.5090 N   0  0  0  0  0  0  0  0  0  0  0  0
  -28.1743  -23.0936   20.9630 N   0  0  0  0  0  0  0  0  0  0  0  0
  -28.8102  -16.8312   21.2691 N   0  0  0  0  0  0  0  0  0  0  0  0
  -22.9146  -30.0084   21.1166 N   0  0  0  0  0  0  0  0  0  0  0  0
  -28.6911  -19.4125   24.0853 N   0  0  0  0  0  0  0  0  0  0  0  0
  -30.5283  -17.1362   19.6672 N   0  0  0  0  0  0  0  0  0  0  0  0
  -28.2222  -15.6123   17.0685 N   0  0  0  0  0  0  0  0  0  0  0  0
  -24.8688  -32.8830   22.2186 N   0  0  0  0  0  0  0  0  0  0  0  0
  -19.5167  -28.8775   20.9245 N   0  0  0  0  0  0  0  0  0  0  0  0
  -27.5464  -21.2854   23.2046 N   0  0  0  0  0  0  0  0  0  0  0  0
  -17.8432  -27.7261   17.9342 N   0  3  0  0  0  0  0  0  0  0  0  0
  -29.4260  -13.9297   18.0576 O   0  0  0  0  0  0  0  0  0  0  0  0
  -23.8872  -31.0376   23.2451 O   0  0  0  0  0  0  0  0  0  0  0  0
  -20.8840  -31.1451   20.9725 O   0  0  0  0  0  0  0  0  0  0  0  0
  -19.9588  -26.9980   19.6403 O   0  0  0  0  0  0  0  0  0  0  0  0
  -28.8875  -21.5121   25.0504 O   0  0  0  0  0  0  0  0  0  0  0  0
  -23.1743  -11.9367   19.9200 O   0  0  0  0  0  0  0  0  0  0  0  0
  -27.8296  -26.2856   20.9255 O   0  0  0  0  0  0  0  0  0  1  0  0
  -23.2627   -7.2751   22.8638 F   0  0  0  0  0  0  0  0  0  0  0  0
  -23.0798   -9.4705   18.6743 F   0  0  0  0  0  0  0  0  0  0  0  0
  1  2  1  0  0  0  0
  1  5  2  0  0  0  0
  2  6  2  0  0  0  0
  3  8  2  0  0  0  0
  3 15  1  0  0  0  0
  4  9  1  0  0  0  0
  4 15  2  0  0  0  0
  5 17  1  0  0  0  0
  6 19  1  0  0  0  0
  7 10  2  0  0  0  0
  7 18  1  0  0  0  0
  8 21  1  0  0  0  0
  9 21  2  0  0  0  0
 10 22  1  0  0  0  0
 11 12  2  0  0  0  0
 11 23  1  0  0  0  0
 12 24  1  0  0  0  0
 13 20  1  0  0  0  0
 13 22  2  0  0  0  0
 14 24  2  0  0  0  0
 14 25  1  0  0  0  0
 15 26  1  0  0  0  0
 16 26  1  0  0  0  0
 16 27  2  0  0  0  0
 16 29  1  0  0  0  0
 17 19  2  0  0  0  0
 17 34  1  0  0  0  0
 18 20  2  0  0  0  0
 18 35  1  0  0  0  0
 19 47  1  0  0  0  0
 20 36  1  0  0  0  0
 21 79  1  0  0  0  0
 22 80  1  0  0  0  0
 23 25  2  0  0  0  0
 23 79  1  0  0  0  0
 24 81  1  0  0  0  0
 25 82  1  0  0  0  0
 26 63  2  0  0  0  0
 27 65  1  0  0  0  0
 27 68  1  0  0  0  0
 28 37  1  0  0  0  0
 28 48  1  0  0  0  0
 28 64  2  0  0  0  0
 29 69  1  0  0  0  0
 29 74  2  0  0  0  0
 30 49  1  0  0  0  0
 30 70  1  0  0  0  0
 30 75  2  0  0  0  0
 31 59  1  0  0  0  0
 31 66  1  0  0  0  0
 31 76  2  0  0  0  0
 32 60  1  0  0  0  0
 32 71  1  0  0  0  0
 32 77  2  0  0  0  0
 33 67  1  0  0  0  0
 33 72  1  0  0  0  0
 33 78  2  0  0  0  0
 34 38  1  0  0  0  0
 35 49  1  0  0  0  0
 36 66  1  0  0  0  0
 37 39  1  0  0  0  0
 38 42  1  0  0  0  0
 39 40  1  0  0  0  0
 40 43  1  0  0  0  0
 41 44  1  0  0  0  0
 41 45  1  0  0  0  0
 42 47  1  0  0  0  0
 43 48  1  0  0  0  0
 44 50  1  0  0  0  0
 45 67  1  0  0  0  0
 46 50  1  0  0  0  0
 46 67  1  0  0  0  0
 47 70  1  0  0  0  0
 48 57  1  0  0  0  0
 49 66  1  0  0  0  0
 50 65  1  0  0  0  0
 51 60  1  0  0  0  0
 52 61  1  0  0  0  0
 53 62  1  0  0  0  0
 54 62  1  0  0  0  0
 55 62  1  0  0  0  0
 56 73  1  0  0  0  0
 57 80  1  0  0  0  0
 58 61  1  0  0  0  0
 58 64  1  0  0  0  0
 59 62  1  0  0  0  0
 59 71  1  0  0  0  0
 60 73  1  0  0  0  0
 61 72  1  0  0  0  0
 63 65  1  0  0  0  0
M  CHG  1  73   1
M  ISO  4  33 100  57 101  72 100  80 101
M  END
> <Batch ID>
0137

> <Smiles>
CNC(C)C(=O)NC(C(=O)N1Cc2cc([101O:1][101CH2:1]C3CCCC=C3NCC(C)[100NH:0][100C:0](=O)N3CCCC(n4nc(-c5ccc(Oc6ccc(F)cc6F)cc5)c(C(N)=O)c4N)C3)ccc2CC1C(=O)NC1CCCc2ccccc21)C(C)(C)C

> <Shape>
0.302

> <Color>
0.073

> <Negative vol penalty>
0.000

$$$$

  -OEChem-04052321053D

 84 93  0     1  0  0  0  0  0999 V2000
  -30.5928  -26.1670   13.7993 C   0  0  0  0  0  0  0  0  0  0  0  0
  -30.5321  -25.3114   14.8946 C   0  0  0  0  0  0  0  0  0  0  0  0
  -23.3954   -9.6459   20.1604 C   0  0  0  0  0  0  0  0  0  0  0  0
  -23.8400  -10.0537   22.4998 C   0  0  0  0  0  0  0  0  0  0  0  0
  -30.4084  -27.5377   13.9757 C   0  0  0  0  0  0  0  0  0  0  0  0
  -30.2881  -25.8263   16.1674 C   0  0  0  0  0  0  0  0  0  0  0  0
  -26.8809  -23.1058   18.7431 C   0  0  0  0  0  0  0  0  0  0  0  0
  -30.2085  -19.1631   23.2918 C   0  0  0  0  0  0  0  0  0  0  0  0
  -22.7291   -8.4664   20.4926 C   0  0  0  0  0  0  0  0  0  0  0  0
  -23.1737   -8.8742   22.8321 C   0  0  0  0  0  0  0  0  0  0  0  0
  -27.3204  -21.9139   19.3175 C   0  0  0  0  0  0  0  0  0  0  0  0
  -30.6547  -17.9013   23.6848 C   0  0  0  0  0  0  0  0  0  0  0  0
  -19.9768   -7.8293   23.1615 C   0  0  0  0  0  0  0  0  0  0  0  0
  -19.0773   -7.8729   24.2267 C   0  0  0  0  0  0  0  0  0  0  0  0
  -27.9409  -18.3341   23.2047 C   0  0  0  0  0  0  0  0  0  0  0  0
  -27.5057  -23.0187   21.4539 C   0  0  0  0  0  0  0  0  0  0  0  0
  -20.3751   -6.2004   25.3910 C   0  0  0  0  0  0  0  0  0  0  0  0
  -23.9509  -10.4395   21.1640 C   0  0  0  0  0  0  0  0  0  0  0  0
  -24.0825  -12.9451   20.7031 C   0  0  0  0  0  0  0  0  0  0  0  0
  -30.1524  -28.0685   15.2498 C   0  0  0  0  0  0  0  0  0  0  0  0
  -26.7607  -24.2678   19.5188 C   0  0  0  0  0  0  0  0  0  0  0  0
  -30.1015  -27.2055   16.3612 C   0  0  0  0  0  0  0  0  0  0  0  0
  -28.3871  -17.0723   23.5977 C   0  0  0  0  0  0  0  0  0  0  0  0
  -27.0620  -24.2235   20.8875 C   0  0  0  0  0  0  0  0  0  0  0  0
  -28.8516  -19.3795   23.0518 C   0  0  0  0  0  0  0  0  0  0  0  0
  -22.6182   -8.0805   21.8284 C   0  0  0  0  0  0  0  0  0  0  0  0
  -27.6357  -21.8709   20.6724 C   0  0  0  0  0  0  0  0  0  0  0  0
  -29.7440  -16.8559   23.8378 C   0  0  0  0  0  0  0  0  0  0  0  0
  -21.0754   -6.9712   23.2110 C   0  0  0  0  0  0  0  0  0  0  0  0
  -19.2765   -7.0584   25.3414 C   0  0  0  0  0  0  0  0  0  0  0  0
  -21.2746   -6.1568   24.3257 C   0  0  0  0  0  0  0  0  0  0  0  0
  -24.6398  -11.6578   20.8214 C   0  0  0  0  0  0  0  0  0  0  0  0
  -25.1431  -13.7485   20.3624 C   0  0  0  0  0  0  0  0  0  0  0  0
  -22.7272  -13.3762   20.8851 C   0  0  0  0  0  0  0  0  0  0  0  0
  -28.1138  -27.1437   19.4754 C   0  0  0  0  0  0  0  0  0  0  0  0
  -25.9564  -27.7651   21.8168 C   0  0  0  0  0  0  0  0  0  0  0  0
  -23.9349  -26.5594   24.2880 C   0  0  0  0  0  0  0  0  0  0  0  0
  -31.0496  -13.2896   21.2306 C   0  0  0  0  0  0  0  0  0  0  0  0
  -30.0067  -29.5623   15.3980 C   0  0  0  0  0  0  0  0  0  0  0  0
  -26.2596  -25.5390   18.8900 C   0  0  0  0  0  0  0  0  0  0  0  0
  -26.9305  -25.4382   21.7683 C   0  0  0  0  0  0  0  0  0  0  0  0
  -29.3805  -29.9846   16.7246 C   0  0  0  0  0  0  0  0  0  0  0  0
  -29.3637  -13.6237   18.1125 C   0  0  0  0  0  0  0  0  0  0  0  0
  -26.2232  -16.1613   24.6755 C   0  0  0  0  0  0  0  0  0  0  0  0
  -27.3276  -15.2311   25.0694 C   0  0  0  0  0  0  0  0  0  0  0  0
  -30.0302  -29.2358   17.8840 C   0  0  0  0  0  0  0  0  0  0  0  0
  -27.9116  -13.2739   18.4425 C   0  0  0  0  0  0  0  0  0  0  0  0
  -30.3455  -12.7709   18.9129 C   0  0  0  0  0  0  0  0  0  0  0  0
  -28.6838  -12.4409   20.7027 C   0  0  0  0  0  0  0  0  0  0  0  0
  -27.3996  -15.9647   23.7564 C   0  0  0  0  0  0  0  0  0  0  0  0
  -29.8143  -27.7232   17.7539 C   0  0  1  0  0  0  0  0  0  0  0  0
  -26.6660  -26.7892   19.6642 C   0  0  1  0  0  0  0  0  0  0  0  0
  -27.6565  -13.3134   19.9612 C   0  0  2  0  0  0  0  0  0  0  0  0
  -22.3203  -27.3127   26.0551 C   0  0  0  0  0  0  0  0  0  0  0  0
  -28.2894  -28.7046   23.5444 C   0  0  0  0  0  0  0  0  0  0  0  0
  -26.7885  -28.5343   25.5411 C   0  0  0  0  0  0  0  0  0  0  0  0
  -26.2371  -30.1253   23.7006 C   0  0  0  0  0  0  0  0  0  0  0  0
  -21.7133  -25.0247   23.0764 C   0  0  0  0  0  0  0  0  0  0  0  0
  -28.3711  -20.7366   22.6290 C   0  0  0  0  0  0  0  0  0  1  0  0
  -31.6015  -13.7796   23.6001 C   0  0  0  0  0  0  0  0  0  0  0  0
  -31.5238  -15.2785   23.8287 C   0  0  0  0  0  0  0  0  0  0  0  0
  -25.9466  -27.6426   23.3214 C   0  0  1  0  0  0  0  0  0  0  0  0
  -22.4792  -26.8319   24.6211 C   0  0  2  0  0  0  0  0  0  0  0  0
  -26.8198  -28.7291   24.0102 C   0  0  0  0  0  0  0  0  0  0  0  0
  -25.9526  -11.6397   20.5756 N   0  0  0  0  0  0  0  0  0  0  0  0
  -26.2289  -12.9255   20.2994 N   0  0  0  0  0  0  0  0  0  0  0  0
  -26.4426  -26.6589   21.1055 N   0  0  0  0  0  0  0  0  0  0  0  0
  -30.0501  -12.8534   20.3453 N   0  0  0  0  0  0  0  0  0  0  0  0
  -25.2436  -15.0715   20.1134 N   0  0  0  0  0  0  0  0  0  0  0  0
  -21.7633  -12.4205   21.2341 N   0  0  0  0  0  0  0  0  0  0  0  0
  -28.4713  -27.3677   18.1596 N   0  0  0  0  0  0  0  0  0  0  0  0
  -24.5442  -27.6599   23.7232 N   0  0  0  0  0  0  0  0  0  0  0  0
  -30.6845  -13.3447   22.5701 N   0  0  0  0  0  0  0  0  0  0  0  0
  -21.6677  -25.5940   24.4478 N   0  3  0  0  0  0  0  0  0  0  0  0
  -22.3782  -14.5706   20.7263 O   0  0  0  0  0  0  0  0  0  0  0  0
  -28.8517  -27.2107   20.4515 O   0  0  0  0  0  0  0  0  0  0  0  0
  -25.5411  -28.8011   21.2917 O   0  0  0  0  0  0  0  0  0  0  0  0
  -24.4783  -25.4796   24.5101 O   0  0  0  0  0  0  0  0  0  0  0  0
  -32.1818  -13.6116   20.8543 O   0  0  0  0  0  0  0  0  0  0  0  0
  -21.9679   -6.9297   22.1530 O   0  0  0  0  0  0  0  0  0  0  0  0
  -28.0655  -20.7090   21.2354 O   0  0  0  0  0  0  0  0  0  1  0  0
  -30.1986  -15.6297   24.2211 O   0  0  0  0  0  0  0  0  0  0  0  0
  -18.4135   -7.1015   26.3649 F   0  0  0  0  0  0  0  0  0  0  0  0
  -22.3288   -5.3313   24.3795 F   0  0  0  0  0  0  0  0  0  0  0  0
  1  2  1  0  0  0  0
  1  5  2  0  0  0  0
  2  6  2  0  0  0  0
  3  9  2  0  0  0  0
  3 18  1  0  0  0  0
  4 10  1  0  0  0  0
  4 18  2  0  0  0  0
  5 20  1  0  0  0  0
  6 22  1  0  0  0  0
  7 11  2  0  0  0  0
  7 21  1  0  0  0  0
  8 12  2  0  0  0  0
  8 25  1  0  0  0  0
  9 26  1  0  0  0  0
 10 26  2  0  0  0  0
 11 27  1  0  0  0  0
 12 28  1  0  0  0  0
 13 14  2  0  0  0  0
 13 29  1  0  0  0  0
 14 30  1  0  0  0  0
 15 23  1  0  0  0  0
 15 25  2  0  0  0  0
 16 24  1  0  0  0  0
 16 27  2  0  0  0  0
 17 30  2  0  0  0  0
 17 31  1  0  0  0  0
 18 32  1  0  0  0  0
 19 32  1  0  0  0  0
 19 33  2  0  0  0  0
 19 34  1  0  0  0  0
 20 22  2  0  0  0  0
 20 39  1  0  0  0  0
 21 24  2  0  0  0  0
 21 40  1  0  0  0  0
 22 51  1  0  0  0  0
 23 28  2  0  0  0  0
 23 50  1  0  0  0  0
 24 41  1  0  0  0  0
 25 59  1  0  0  0  0
 26 80  1  0  0  0  0
 27 81  1  0  0  0  0
 28 82  1  0  0  0  0
 29 31  2  0  0  0  0
 29 80  1  0  0  0  0
 30 83  1  0  0  0  0
 31 84  1  0  0  0  0
 32 65  2  0  0  0  0
 33 66  1  0  0  0  0
 33 69  1  0  0  0  0
 34 70  1  0  0  0  0
 34 75  2  0  0  0  0
 35 52  1  0  0  0  0
 35 71  1  0  0  0  0
 35 76  2  0  0  0  0
 36 62  1  0  0  0  0
 36 67  1  0  0  0  0
 36 77  2  0  0  0  0
 37 63  1  0  0  0  0
 37 72  1  0  0  0  0
 37 78  2  0  0  0  0
 38 68  1  0  0  0  0
 38 73  1  0  0  0  0
 38 79  2  0  0  0  0
 39 42  1  0  0  0  0
 40 52  1  0  0  0  0
 41 67  1  0  0  0  0
 42 46  1  0  0  0  0
 43 47  1  0  0  0  0
 43 48  1  0  0  0  0
 44 45  1  0  0  0  0
 44 50  1  0  0  0  0
 45 50  1  0  0  0  0
 46 51  1  0  0  0  0
 47 53  1  0  0  0  0
 48 68  1  0  0  0  0
 49 53  1  0  0  0  0
 49 68  1  0  0  0  0
 51 71  1  0  0  0  0
 52 67  1  0  0  0  0
 53 66  1  0  0  0  0
 54 63  1  0  0  0  0
 55 64  1  0  0  0  0
 56 64  1  0  0  0  0
 57 64  1  0  0  0  0
 58 74  1  0  0  0  0
 59 81  1  0  0  0  0
 60 61  1  0  0  0  0
 60 73  1  0  0  0  0
 61 82  1  0  0  0  0
 62 64  1  0  0  0  0
 62 72  1  0  0  0  0
 63 74  1  0  0  0  0
 65 66  1  0  0  0  0
M  CHG  1  74   1
M  ISO  4  38 100  59 101  73 100  81 101
M  END
> <Batch ID>
0137

> <Smiles>
CNC(C)C(=O)NC(C(=O)N1Cc2cc([101O:1][101CH2:1]c3ccc(OCC[100NH:0][100C:0](=O)N4CCCC(n5nc(-c6ccc(Oc7ccc(F)cc7F)cc6)c(C(N)=O)c5N)C4)c(C4CC4)c3)ccc2CC1C(=O)NC1CCCc2ccccc21)C(C)(C)C

> <Shape>
0.224

> <Color>
0.176

> <Negative vol penalty>
0.000

$$$$

  -OEChem-04052321053D

 87 96  0     1  0  0  0  0  0999 V2000
  -29.7650  -12.1624   20.1991 C   0  0  0  0  0  0  0  0  0  0  0  0
  -29.6025  -13.1746   21.1395 C   0  0  0  0  0  0  0  0  0  0  0  0
  -30.5439  -21.4742   20.3026 C   0  0  0  0  0  0  0  0  0  0  0  0
  -28.4437  -21.5884   19.1139 C   0  0  0  0  0  0  0  0  0  0  0  0
  -28.9960  -12.1629   19.0361 C   0  0  0  0  0  0  0  0  0  0  0  0
  -28.6715  -14.1886   20.9169 C   0  0  0  0  0  0  0  0  0  0  0  0
  -24.1714  -18.5078   24.4397 C   0  0  0  0  0  0  0  0  0  0  0  0
  -30.4768  -20.0811   20.2874 C   0  0  0  0  0  0  0  0  0  0  0  0
  -28.3766  -20.1952   19.0986 C   0  0  0  0  0  0  0  0  0  0  0  0
  -23.8478  -19.8585   24.5604 C   0  0  0  0  0  0  0  0  0  0  0  0
  -31.0706  -17.5826   18.0879 C   0  0  0  0  0  0  0  0  0  0  0  0
  -32.2276  -16.8816   17.7483 C   0  0  0  0  0  0  0  0  0  0  0  0
  -22.5189  -19.7133   22.5524 C   0  0  0  0  0  0  0  0  0  0  0  0
  -21.4297  -28.2969   22.6618 C   0  0  0  0  0  0  0  0  0  0  0  0
  -20.7065  -26.3223   23.8289 C   0  0  0  0  0  0  0  0  0  0  0  0
  -32.1969  -15.7873   19.9020 C   0  0  0  0  0  0  0  0  0  0  0  0
  -29.5273  -22.2279   19.7159 C   0  0  0  0  0  0  0  0  0  0  0  0
  -30.1883  -24.5007   18.7645 C   0  0  0  0  0  0  0  0  0  0  0  0
  -28.0484  -13.1721   18.8036 C   0  0  0  0  0  0  0  0  0  0  0  0
  -23.6792  -17.7510   23.3667 C   0  0  0  0  0  0  0  0  0  0  0  0
  -27.8901  -14.2033   19.7491 C   0  0  0  0  0  0  0  0  0  0  0  0
  -22.8357  -18.3525   22.4218 C   0  0  0  0  0  0  0  0  0  0  0  0
  -20.4432  -27.6016   23.3522 C   0  0  0  0  0  0  0  0  0  0  0  0
  -29.3932  -19.4416   19.6854 C   0  0  0  0  0  0  0  0  0  0  0  0
  -23.0237  -20.4622   23.6151 C   0  0  0  0  0  0  0  0  0  0  0  0
  -30.4767  -17.3860   19.3347 C   0  0  0  0  0  0  0  0  0  0  0  0
  -32.7908  -15.9839   18.6553 C   0  0  0  0  0  0  0  0  0  0  0  0
  -31.0398  -16.4883   20.2417 C   0  0  0  0  0  0  0  0  0  0  0  0
  -29.5957  -23.6671   19.7318 C   0  0  0  0  0  0  0  0  0  0  0  0
  -22.6530  -27.6736   22.4759 C   0  0  0  0  0  0  0  0  0  0  0  0
  -21.9622  -25.7872   23.5906 C   0  0  0  0  0  0  0  0  0  0  0  0
  -29.9879  -25.7739   19.2392 C   0  0  0  0  0  0  0  0  0  0  0  0
  -30.8599  -24.1551   17.5458 C   0  0  0  0  0  0  0  0  0  0  0  0
  -24.9987  -16.1674   20.9469 C   0  0  0  0  0  0  0  0  0  0  0  0
  -21.9414  -15.2286   20.4044 C   0  0  0  0  0  0  0  0  0  0  0  0
  -18.6080  -15.8527   20.7861 C   0  0  0  0  0  0  0  0  0  0  0  0
  -25.9082  -28.1594   22.9157 C   0  0  0  0  0  0  0  0  0  0  0  0
  -27.2738  -13.1564   17.5096 C   0  0  0  0  0  0  0  0  0  0  0  0
  -24.0160  -16.2886   23.2655 C   0  0  0  0  0  0  0  0  0  0  0  0
  -22.2648  -17.5791   21.2623 C   0  0  0  0  0  0  0  0  0  0  0  0
  -26.0443  -14.0611   17.5247 C   0  0  0  0  0  0  0  0  0  0  0  0
  -29.4448  -28.2048   23.3242 C   0  0  0  0  0  0  0  0  0  0  0  0
  -16.9911  -29.1764   22.5090 C   0  0  0  0  0  0  0  0  0  0  0  0
  -18.3494  -28.5208   22.2612 C   0  0  0  0  0  0  0  0  0  0  0  0
  -26.3947  -15.4284   18.1032 C   0  0  0  0  0  0  0  0  0  0  0  0
  -29.9380  -27.1222   22.3625 C   0  0  0  0  0  0  0  0  0  0  0  0
  -28.1199  -27.8181   23.9778 C   0  0  0  0  0  0  0  0  0  0  0  0
  -27.5417  -26.3658   22.0725 C   0  0  0  0  0  0  0  0  0  0  0  0
  -17.1182  -30.4237   23.3693 C   0  0  0  0  0  0  0  0  0  0  0  0
  -19.1877  -29.5039   24.4412 C   0  0  0  0  0  0  0  0  0  0  0  0
  -19.0815  -28.2379   23.5851 C   0  0  2  0  0  0  0  0  0  0  0  0
  -26.8730  -15.3070   19.5551 C   0  0  1  0  0  0  0  0  0  0  0  0
  -23.8757  -15.7397   21.8490 C   0  0  1  0  0  0  0  0  0  0  0  0
  -28.8466  -26.7352   21.3465 C   0  0  2  0  0  0  0  0  0  0  0  0
  -16.3507  -14.9253   20.2014 C   0  0  0  0  0  0  0  0  0  0  0  0
  -22.2747  -16.2290   17.5411 C   0  0  0  0  0  0  0  0  0  0  0  0
  -19.7833  -16.1642   17.3025 C   0  0  0  0  0  0  0  0  0  0  0  0
  -21.0465  -14.0607   17.7523 C   0  0  0  0  0  0  0  0  0  0  0  0
  -17.8710  -15.5378   23.6350 C   0  0  0  0  0  0  0  0  0  0  0  0
  -23.7352  -28.3907   21.7393 C   0  0  0  0  0  0  0  0  0  0  0  0
  -23.6698  -22.6279   24.3554 C   0  0  0  0  0  0  0  0  0  1  0  0
  -23.5483  -24.0253   23.7791 C   0  0  0  0  0  0  0  0  0  0  0  0
  -20.7845  -15.7681   19.5985 C   0  0  1  0  0  0  0  0  0  0  0  0
  -17.4624  -14.9653   21.2384 C   0  0  2  0  0  0  0  0  0  0  0  0
  -20.9844  -15.5708   18.0693 C   0  0  0  0  0  0  0  0  0  0  0  0
  -29.0592  -24.3529   20.7446 N   0  0  0  0  0  0  0  0  0  0  0  0
  -22.9458  -26.4322   22.9241 N   0  0  0  0  0  0  0  0  0  0  0  0
  -29.3139  -25.6310   20.4163 N   0  0  0  0  0  0  0  0  0  0  0  0
  -22.6282  -16.1536   21.2034 N   0  0  0  0  0  0  0  0  0  0  0  0
  -27.1278  -27.4639   22.9599 N   0  0  0  0  0  0  0  0  0  0  0  0
  -30.3242  -26.9904   18.7605 N   0  0  0  0  0  0  0  0  0  0  0  0
  -30.9777  -22.7997   17.2090 N   0  0  0  0  0  0  0  0  0  0  0  0
  -25.7466  -15.1199   20.4443 N   0  0  0  0  0  0  0  0  0  0  0  0
  -19.5843  -15.1321   20.1311 N   0  0  0  0  0  0  0  0  0  0  0  0
  -25.0269  -27.7654   21.9163 N   0  0  0  0  0  0  0  0  0  0  0  0
  -17.8204  -30.0761   24.6404 N   0  3  0  0  0  0  0  0  0  0  0  0
  -16.8920  -15.4687   22.5198 N   0  3  0  0  0  0  0  0  0  0  0  0
  -31.3556  -25.0217   16.7864 O   0  0  0  0  0  0  0  0  0  0  0  0
  -25.1727  -17.3595   20.7223 O   0  0  0  0  0  0  0  0  0  0  0  0
  -22.2209  -14.0293   20.3331 O   0  0  0  0  0  0  0  0  0  0  0  0
  -18.6325  -17.0644   20.9898 O   0  0  0  0  0  0  0  0  0  0  0  0
  -25.6278  -29.0681   23.7048 O   0  0  0  0  0  0  0  0  0  0  0  0
  -29.3276  -18.0822   19.6701 O   0  0  0  0  0  0  0  0  0  0  0  0
  -22.7068  -21.7806   23.7301 O   0  0  0  0  0  0  0  0  0  1  0  0
  -22.2456  -24.5279   24.0500 O   0  0  0  0  0  0  0  0  0  0  0  0
  -33.9010  -15.3096   18.3284 F   0  0  0  0  0  0  0  0  0  0  0  0
  -30.4731  -16.2944   21.4405 F   0  0  0  0  0  0  0  0  0  0  0  0
  1  2  1  0  0  0  0
  1  5  2  0  0  0  0
  2  6  2  0  0  0  0
  3  8  2  0  0  0  0
  3 17  1  0  0  0  0
  4  9  1  0  0  0  0
  4 17  2  0  0  0  0
  5 19  1  0  0  0  0
  6 21  1  0  0  0  0
  7 10  2  0  0  0  0
  7 20  1  0  0  0  0
  8 24  1  0  0  0  0
  9 24  2  0  0  0  0
 10 25  1  0  0  0  0
 11 12  2  0  0  0  0
 11 26  1  0  0  0  0
 12 27  1  0  0  0  0
 13 22  1  0  0  0  0
 13 25  2  0  0  0  0
 14 23  1  0  0  0  0
 14 30  2  0  0  0  0
 15 23  2  0  0  0  0
 15 31  1  0  0  0  0
 16 27  2  0  0  0  0
 16 28  1  0  0  0  0
 17 29  1  0  0  0  0
 18 29  1  0  0  0  0
 18 32  2  0  0  0  0
 18 33  1  0  0  0  0
 19 21  2  0  0  0  0
 19 38  1  0  0  0  0
 20 22  2  0  0  0  0
 20 39  1  0  0  0  0
 21 52  1  0  0  0  0
 22 40  1  0  0  0  0
 23 51  1  0  0  0  0
 24 83  1  0  0  0  0
 25 84  1  0  0  0  0
 26 28  2  0  0  0  0
 26 83  1  0  0  0  0
 27 86  1  0  0  0  0
 28 87  1  0  0  0  0
 29 66  2  0  0  0  0
 30 60  1  0  0  0  0
 30 67  1  0  0  0  0
 31 67  2  0  0  0  0
 31 85  1  0  0  0  0
 32 68  1  0  0  0  0
 32 71  1  0  0  0  0
 33 72  1  0  0  0  0
 33 78  2  0  0  0  0
 34 53  1  0  0  0  0
 34 73  1  0  0  0  0
 34 79  2  0  0  0  0
 35 63  1  0  0  0  0
 35 69  1  0  0  0  0
 35 80  2  0  0  0  0
 36 64  1  0  0  0  0
 36 74  1  0  0  0  0
 36 81  2  0  0  0  0
 37 70  1  0  0  0  0
 37 75  1  0  0  0  0
 37 82  2  0  0  0  0
 38 41  1  0  0  0  0
 39 53  1  0  0  0  0
 40 69  1  0  0  0  0
 41 45  1  0  0  0  0
 42 46  1  0  0  0  0
 42 47  1  0  0  0  0
 43 44  1  0  0  0  0
 43 49  1  0  0  0  0
 44 51  1  0  0  0  0
 45 52  1  0  0  0  0
 46 54  1  0  0  0  0
 47 70  1  0  0  0  0
 48 54  1  0  0  0  0
 48 70  1  0  0  0  0
 49 76  1  0  0  0  0
 50 51  1  0  0  0  0
 50 76  1  0  0  0  0
 52 73  1  0  0  0  0
 53 69  1  0  0  0  0
 54 68  1  0  0  0  0
 55 64  1  0  0  0  0
 56 65  1  0  0  0  0
 57 65  1  0  0  0  0
 58 65  1  0  0  0  0
 59 77  1  0  0  0  0
 60 75  1  0  0  0  0
 61 62  1  0  0  0  0
 61 84  1  0  0  0  0
 62 85  1  0  0  0  0
 63 65  1  0  0  0  0
 63 74  1  0  0  0  0
 64 77  1  0  0  0  0
 66 68  1  0  0  0  0
M  CHG  2  76   1  77   1
M  ISO  4  37 100  61 101  75 100  84 101
M  END
> <Batch ID>
0137

> <Smiles>
CNC(C)C(=O)NC(C(=O)N1Cc2cc([101O:1][101CH2:1]COc3cc(C4CCCNC4)cc(C[100NH:0][100C:0](=O)N4CCCC(n5nc(-c6ccc(Oc7ccc(F)cc7F)cc6)c(C(N)=O)c5N)C4)n3)ccc2CC1C(=O)NC1CCCc2ccccc21)C(C)(C)C

> <Shape>
0.228

> <Color>
0.063

> <Negative vol penalty>
0.000

$$$$

  -OEChem-04052321053D

 90 99  0     1  0  0  0  0  0999 V2000
  -17.5674  -29.1977   22.1028 C   0  0  0  0  0  0  0  0  0  0  0  0
  -18.9261  -29.3476   21.8442 C   0  0  0  0  0  0  0  0  0  0  0  0
  -26.4564  -12.8213   21.5808 C   0  0  0  0  0  0  0  0  0  0  0  0
  -25.8835  -13.7449   19.4231 C   0  0  0  0  0  0  0  0  0  0  0  0
  -17.1025  -28.0460   22.7364 C   0  0  0  0  0  0  0  0  0  0  0  0
  -19.8209  -28.3463   22.2200 C   0  0  0  0  0  0  0  0  0  0  0  0
  -24.9039  -26.6490   19.2555 C   0  0  0  0  0  0  0  0  0  0  0  0
  -25.2163  -12.1852   21.6378 C   0  0  0  0  0  0  0  0  0  0  0  0
  -24.6434  -13.1088   19.4800 C   0  0  0  0  0  0  0  0  0  0  0  0
  -26.2488  -26.9646   19.4432 C   0  0  0  0  0  0  0  0  0  0  0  0
  -23.7737   -9.4186   20.3349 C   0  0  0  0  0  0  0  0  0  0  0  0
  -23.7468   -8.0866   20.7480 C   0  0  0  0  0  0  0  0  0  0  0  0
  -26.5386  -24.9412   20.7242 C   0  0  0  0  0  0  0  0  0  0  0  0
  -28.6339  -21.1721   17.1021 C   0  0  0  0  0  0  0  0  0  0  0  0
  -29.1370  -23.3964   16.3381 C   0  0  0  0  0  0  0  0  0  0  0  0
  -22.3177   -8.6901   22.6003 C   0  0  0  0  0  0  0  0  0  0  0  0
  -26.7899  -13.6012   20.4734 C   0  0  0  0  0  0  0  0  0  0  0  0
  -29.2660  -13.7454   19.8768 C   0  0  0  0  0  0  0  0  0  0  0  0
  -17.9908  -27.0258   23.1114 C   0  0  0  0  0  0  0  0  0  0  0  0
  -24.3627  -25.4807   19.8109 C   0  0  0  0  0  0  0  0  0  0  0  0
  -19.3676  -27.1805   22.8603 C   0  0  0  0  0  0  0  0  0  0  0  0
  -25.1870  -24.6118   20.5400 C   0  0  0  0  0  0  0  0  0  0  0  0
  -28.6149  -22.1308   16.0952 C   0  0  0  0  0  0  0  0  0  0  0  0
  -24.3098  -12.3289   20.5874 C   0  0  0  0  0  0  0  0  0  0  0  0
  -27.0657  -26.1121   20.1801 C   0  0  0  0  0  0  0  0  0  0  0  0
  -23.0727  -10.3863   21.0545 C   0  0  0  0  0  0  0  0  0  0  0  0
  -23.0188   -7.7223   21.8807 C   0  0  0  0  0  0  0  0  0  0  0  0
  -22.3447  -10.0221   22.1871 C   0  0  0  0  0  0  0  0  0  0  0  0
  -28.0705  -14.2590   20.4143 C   0  0  0  0  0  0  0  0  0  0  0  0
  -29.1817  -21.5261   18.3245 C   0  0  0  0  0  0  0  0  0  0  0  0
  -29.6621  -23.6510   17.5948 C   0  0  0  0  0  0  0  0  0  0  0  0
  -30.1848  -14.7494   20.0617 C   0  0  0  0  0  0  0  0  0  0  0  0
  -29.5229  -12.4744   19.2650 C   0  0  0  0  0  0  0  0  0  0  0  0
  -22.0874  -24.8547   21.9404 C   0  0  0  0  0  0  0  0  0  0  0  0
  -29.9533  -22.2531   13.2066 C   0  0  0  0  0  0  0  0  0  0  0  0
  -22.6723  -21.7816   21.0825 C   0  0  0  0  0  0  0  0  0  0  0  0
  -24.8522  -19.5024   19.7785 C   0  0  0  0  0  0  0  0  0  0  0  0
  -29.6939  -20.6764   20.6401 C   0  0  0  0  0  0  0  0  0  0  0  0
  -17.4472  -25.8201   23.8363 C   0  0  0  0  0  0  0  0  0  0  0  0
  -22.9162  -25.1411   19.5767 C   0  0  0  0  0  0  0  0  0  0  0  0
  -24.6595  -23.3350   21.1399 C   0  0  0  0  0  0  0  0  0  0  0  0
  -18.4146  -24.6396   23.8655 C   0  0  0  0  0  0  0  0  0  0  0  0
  -26.5565  -23.5522   13.9817 C   0  0  0  0  0  0  0  0  0  0  0  0
  -31.1810  -18.4260   22.9642 C   0  0  0  0  0  0  0  0  0  0  0  0
  -26.5436  -22.1673   14.6202 C   0  0  0  0  0  0  0  0  0  0  0  0
  -19.8141  -25.1057   24.2537 C   0  0  0  0  0  0  0  0  0  0  0  0
  -30.6658  -17.0547   22.5214 C   0  0  0  0  0  0  0  0  0  0  0  0
  -27.7462  -23.4913   13.0361 C   0  0  0  0  0  0  0  0  0  0  0  0
  -30.1206  -19.5124   22.7937 C   0  0  0  0  0  0  0  0  0  0  0  0
  -29.0117  -18.2243   21.0104 C   0  0  0  0  0  0  0  0  0  0  0  0
  -28.0262  -21.7967   14.7350 C   0  0  1  0  0  0  0  0  0  0  0  0
  -20.3663  -26.1055   23.2305 C   0  0  1  0  0  0  0  0  0  0  0  0
  -22.3503  -24.1843   20.6216 C   0  0  1  0  0  0  0  0  0  0  0  0
  -30.0661  -17.1092   21.1026 C   0  0  2  0  0  0  0  0  0  0  0  0
  -25.6668  -17.2969   18.9012 C   0  0  0  0  0  0  0  0  0  0  0  0
  -23.0718  -21.1626   24.0435 C   0  0  0  0  0  0  0  0  0  0  0  0
  -24.1810  -19.0201   23.3745 C   0  0  0  0  0  0  0  0  0  0  0  0
  -21.7930  -19.4255   22.7779 C   0  0  0  0  0  0  0  0  0  0  0  0
  -23.9583  -20.1345   17.0289 C   0  0  0  0  0  0  0  0  0  0  0  0
  -30.4015  -23.0070   11.9802 C   0  0  0  0  0  0  0  0  0  0  0  0
  -30.5041  -26.8145   19.3238 C   0  0  0  0  0  0  0  0  0  0  0  0
  -30.7586  -25.3325   19.0766 C   0  0  0  0  0  0  0  0  0  0  0  0
  -29.0219  -27.1695   19.3368 C   0  0  0  0  0  0  0  0  0  1  0  0
  -23.6077  -20.6976   21.5610 C   0  0  1  0  0  0  0  0  0  0  0  0
  -24.6763  -18.4354   18.7131 C   0  0  2  0  0  0  0  0  0  0  0  0
  -23.1732  -20.1014   22.9297 C   0  0  0  0  0  0  0  0  0  0  0  0
  -28.2138  -15.4933   20.9040 N   0  0  0  0  0  0  0  0  0  0  0  0
  -29.6981  -22.7452   18.5978 N   0  0  0  0  0  0  0  0  0  0  0  0
  -29.5102  -15.7637   20.6751 N   0  0  0  0  0  0  0  0  0  0  0  0
  -23.2371  -23.0501   20.8886 N   0  0  0  0  0  0  0  0  0  0  0  0
  -28.6727  -22.5445   13.6527 N   0  0  0  0  0  0  0  0  0  0  0  0
  -29.6011  -19.5072   21.4244 N   0  0  0  0  0  0  0  0  0  0  0  0
  -31.4959  -14.8547   19.7578 N   0  0  0  0  0  0  0  0  0  0  0  0
  -28.4664  -11.5601   19.1550 N   0  0  0  0  0  0  0  0  0  0  0  0
  -29.1966  -20.5424   19.3442 N   0  0  0  0  0  0  0  0  0  0  0  0
  -30.1787  -24.9170   17.8223 N   0  0  0  0  0  0  0  0  0  0  0  0
  -20.8280  -25.4136   22.0462 N   0  0  0  0  0  0  0  0  0  0  0  0
  -23.6858  -19.7198   20.4811 N   0  0  0  0  0  0  0  0  0  0  0  0
  -24.8823  -19.0184   17.3572 N   0  3  0  0  0  0  0  0  0  0  0  0
  -30.6597  -12.1525   18.8437 O   0  0  0  0  0  0  0  0  0  0  0  0
  -22.9617  -24.8629   22.7990 O   0  0  0  0  0  0  0  0  0  0  0  0
  -30.7089  -21.4472   13.7524 O   0  0  0  0  0  0  0  0  0  0  0  0
  -21.4858  -21.5110   20.8812 O   0  0  0  0  0  0  0  0  0  0  0  0
  -25.9187  -20.0821   19.9709 O   0  0  0  0  0  0  0  0  0  0  0  0
  -30.2036  -21.7118   21.0764 O   0  0  0  0  0  0  0  0  0  0  0  0
  -31.7124  -22.6081   11.6367 O   0  0  0  0  0  0  0  0  0  0  0  0
  -23.0998  -11.7082   20.6426 O   0  0  0  0  0  0  0  0  0  0  0  0
  -28.3787  -26.4181   20.3654 O   0  0  0  0  0  0  0  0  0  1  0  0
  -22.9917   -6.4429   22.2764 F   0  0  0  0  0  0  0  0  0  0  0  0
  -21.6683  -10.9471   22.8818 F   0  0  0  0  0  0  0  0  0  0  0  0
  1  2  1  0  0  0  0
  1  5  2  0  0  0  0
  2  6  2  0  0  0  0
  3  8  2  0  0  0  0
  3 17  1  0  0  0  0
  4  9  1  0  0  0  0
  4 17  2  0  0  0  0
  5 19  1  0  0  0  0
  6 21  1  0  0  0  0
  7 10  2  0  0  0  0
  7 20  1  0  0  0  0
  8 24  1  0  0  0  0
  9 24  2  0  0  0  0
 10 25  1  0  0  0  0
 11 12  2  0  0  0  0
 11 26  1  0  0  0  0
 12 27  1  0  0  0  0
 13 22  1  0  0  0  0
 13 25  2  0  0  0  0
 14 23  1  0  0  0  0
 14 30  2  0  0  0  0
 15 23  2  0  0  0  0
 15 31  1  0  0  0  0
 16 27  2  0  0  0  0
 16 28  1  0  0  0  0
 17 29  1  0  0  0  0
 18 29  1  0  0  0  0
 18 32  2  0  0  0  0
 18 33  1  0  0  0  0
 19 21  2  0  0  0  0
 19 39  1  0  0  0  0
 20 22  2  0  0  0  0
 20 40  1  0  0  0  0
 21 52  1  0  0  0  0
 22 41  1  0  0  0  0
 23 51  1  0  0  0  0
 24 87  1  0  0  0  0
 25 88  1  0  0  0  0
 26 28  2  0  0  0  0
 26 87  1  0  0  0  0
 27 89  1  0  0  0  0
 28 90  1  0  0  0  0
 29 67  2  0  0  0  0
 30 68  1  0  0  0  0
 30 75  1  0  0  0  0
 31 68  2  0  0  0  0
 31 76  1  0  0  0  0
 32 69  1  0  0  0  0
 32 73  1  0  0  0  0
 33 74  1  0  0  0  0
 33 80  2  0  0  0  0
 34 53  1  0  0  0  0
 34 77  1  0  0  0  0
 34 81  2  0  0  0  0
 35 60  1  0  0  0  0
 35 71  1  0  0  0  0
 35 82  2  0  0  0  0
 36 64  1  0  0  0  0
 36 70  1  0  0  0  0
 36 83  2  0  0  0  0
 37 65  1  0  0  0  0
 37 78  1  0  0  0  0
 37 84  2  0  0  0  0
 38 72  1  0  0  0  0
 38 75  1  0  0  0  0
 38 85  2  0  0  0  0
 39 42  1  0  0  0  0
 40 53  1  0  0  0  0
 41 70  1  0  0  0  0
 42 46  1  0  0  0  0
 43 45  1  0  0  0  0
 43 48  1  0  0  0  0
 44 47  1  0  0  0  0
 44 49  1  0  0  0  0
 45 51  1  0  0  0  0
 46 52  1  0  0  0  0
 47 54  1  0  0  0  0
 48 71  1  0  0  0  0
 49 72  1  0  0  0  0
 50 54  1  0  0  0  0
 50 72  1  0  0  0  0
 51 71  1  0  0  0  0
 52 77  1  0  0  0  0
 53 70  1  0  0  0  0
 54 69  1  0  0  0  0
 55 65  1  0  0  0  0
 56 66  1  0  0  0  0
 57 66  1  0  0  0  0
 58 66  1  0  0  0  0
 59 79  1  0  0  0  0
 60 86  1  0  0  0  0
 61 62  1  0  0  0  0
 61 63  1  0  0  0  0
 62 76  1  0  0  0  0
 63 88  1  0  0  0  0
 64 66  1  0  0  0  0
 64 78  1  0  0  0  0
 65 79  1  0  0  0  0
 67 69  1  0  0  0  0
M  CHG  1  79   1
M  ISO  4  38 100  63 101  75 100  88 101
M  END
> <Batch ID>
0137

> <Smiles>
CNC(C)C(=O)NC(C(=O)N1Cc2cc([101O:1][101CH2:1]CCNc3cc(C4CCCN4C(=O)CO)cc([100NH:0][100C:0](=O)N4CCCC(n5nc(-c6ccc(Oc7ccc(F)cc7F)cc6)c(C(N)=O)c5N)C4)n3)ccc2CC1C(=O)NC1CCCc2ccccc21)C(C)(C)C

> <Shape>
0.253

> <Color>
0.077

> <Negative vol penalty>
0.000

$$$$

  -OEChem-04052321053D

 87 95  0     1  0  0  0  0  0999 V2000
  -21.6963  -35.7043   20.4752 C   0  0  0  0  0  0  0  0  0  0  0  0
  -21.8784  -34.4312   19.9447 C   0  0  0  0  0  0  0  0  0  0  0  0
  -22.9970   -9.8971   19.9885 C   0  0  0  0  0  0  0  0  0  0  0  0
  -23.7215   -9.9598   22.2924 C   0  0  0  0  0  0  0  0  0  0  0  0
  -22.5925  -36.1984   21.4221 C   0  0  0  0  0  0  0  0  0  0  0  0
  -22.9575  -33.6518   20.3601 C   0  0  0  0  0  0  0  0  0  0  0  0
  -23.0632  -27.5643   21.0215 C   0  0  0  0  0  0  0  0  0  0  0  0
  -26.5377  -20.3515   19.2909 C   0  0  0  0  0  0  0  0  0  0  0  0
  -22.2293   -8.7648   20.2606 C   0  0  0  0  0  0  0  0  0  0  0  0
  -22.9538   -8.8274   22.5646 C   0  0  0  0  0  0  0  0  0  0  0  0
  -23.5275  -26.5393   20.1984 C   0  0  0  0  0  0  0  0  0  0  0  0
  -23.1951   -5.4858   22.1107 C   0  0  0  0  0  0  0  0  0  0  0  0
  -23.7814   -4.4721   22.8684 C   0  0  0  0  0  0  0  0  0  0  0  0
  -27.4728  -19.3346   19.4482 C   0  0  0  0  0  0  0  0  0  0  0  0
  -25.6162  -26.5244   21.4052 C   0  0  0  0  0  0  0  0  0  0  0  0
  -22.0572   -4.7256   24.5417 C   0  0  0  0  0  0  0  0  0  0  0  0
  -23.7432  -10.4946   21.0044 C   0  0  0  0  0  0  0  0  0  0  0  0
  -24.1309  -13.0088   20.8150 C   0  0  0  0  0  0  0  0  0  0  0  0
  -23.6776  -35.4209   21.8565 C   0  0  0  0  0  0  0  0  0  0  0  0
  -23.8774  -28.0854   22.0374 C   0  0  0  0  0  0  0  0  0  0  0  0
  -23.8697  -34.1364   21.3128 C   0  0  0  0  0  0  0  0  0  0  0  0
  -25.1589  -27.5543   22.2415 C   0  0  0  0  0  0  0  0  0  0  0  0
  -26.3009  -21.2382   20.3354 C   0  0  0  0  0  0  0  0  0  0  0  0
  -22.2077   -8.2300   21.5487 C   0  0  0  0  0  0  0  0  0  0  0  0
  -24.8052  -26.0212   20.3882 C   0  0  0  0  0  0  0  0  0  0  0  0
  -22.0399   -6.1195   22.5685 C   0  0  0  0  0  0  0  0  0  0  0  0
  -23.2125   -4.0920   24.0839 C   0  0  0  0  0  0  0  0  0  0  0  0
  -21.4709   -5.7394   23.7840 C   0  0  0  0  0  0  0  0  0  0  0  0
  -24.5368  -11.6640   20.7237 C   0  0  0  0  0  0  0  0  0  0  0  0
  -27.0195  -21.0665   21.5075 C   0  0  0  0  0  0  0  0  0  0  0  0
  -28.1392  -19.2482   20.6600 C   0  0  0  0  0  0  0  0  0  0  0  0
  -25.2415  -13.7284   20.4471 C   0  0  0  0  0  0  0  0  0  0  0  0
  -22.8633  -13.5585   21.1982 C   0  0  0  0  0  0  0  0  0  0  0  0
  -25.1318  -30.9378   22.6652 C   0  0  0  0  0  0  0  0  0  0  0  0
  -26.0657  -29.4895   25.4134 C   0  0  0  0  0  0  0  0  0  0  0  0
  -26.8085  -26.5898   27.0526 C   0  0  0  0  0  0  0  0  0  0  0  0
  -30.7386  -14.6591   20.6924 C   0  0  0  0  0  0  0  0  0  0  0  0
  -24.6467  -36.0161   22.8471 C   0  0  0  0  0  0  0  0  0  0  0  0
  -23.3518  -29.1728   22.9339 C   0  0  0  0  0  0  0  0  0  0  0  0
  -26.0647  -28.0650   23.3310 C   0  0  0  0  0  0  0  0  0  0  0  0
  -25.5513  -34.9813   23.5113 C   0  0  0  0  0  0  0  0  0  0  0  0
  -29.5964  -12.2240   18.3596 C   0  0  0  0  0  0  0  0  0  0  0  0
  -26.1275  -34.0284   22.4688 C   0  0  0  0  0  0  0  0  0  0  0  0
  -28.1475  -11.9679   18.7781 C   0  0  0  0  0  0  0  0  0  0  0  0
  -30.4987  -12.4650   19.5678 C   0  0  0  0  0  0  0  0  0  0  0  0
  -28.5889  -13.2695   20.9017 C   0  0  0  0  0  0  0  0  0  0  0  0
  -25.0140  -33.2511   21.7565 C   0  0  1  0  0  0  0  0  0  0  0  0
  -24.4582  -29.9796   23.6064 C   0  0  1  0  0  0  0  0  0  0  0  0
  -27.6300  -13.0764   19.7144 C   0  0  2  0  0  0  0  0  0  0  0  0
  -28.0813  -22.7757   23.0257 C   0  0  0  0  0  0  0  0  0  0  0  0
  -26.2766  -21.2532   23.9090 C   0  0  0  0  0  0  0  0  0  0  0  0
  -27.5781  -25.7278   29.2801 C   0  0  0  0  0  0  0  0  0  0  0  0
  -31.6632  -16.6288   23.1210 C   0  0  0  0  0  0  0  0  0  0  0  0
  -28.9070  -30.4062   24.7838 C   0  0  0  0  0  0  0  0  0  0  0  0
  -29.7392  -28.7547   26.4714 C   0  0  0  0  0  0  0  0  0  0  0  0
  -28.2493  -30.6231   27.1869 C   0  0  0  0  0  0  0  0  0  0  0  0
  -24.3321  -25.0133   27.4282 C   0  0  0  0  0  0  0  0  0  0  0  0
  -24.9100  -22.7392   18.9077 C   0  0  0  0  0  0  0  0  0  0  0  0
  -29.8405  -18.0109   22.0017 C   0  0  0  0  0  0  0  0  0  0  0  0
  -24.2902  -24.1185   19.0577 C   0  0  0  0  0  0  0  0  0  1  0  0
  -26.8091  -21.9875   22.6653 C   0  0  0  0  0  0  0  0  0  0  0  0
  -27.2810  -28.7078   25.8503 C   0  0  1  0  0  0  0  0  0  0  0  0
  -26.3772  -26.0602   28.4082 C   0  0  2  0  0  0  0  0  0  0  0  0
  -30.8230  -16.8443   21.8659 C   0  0  2  0  0  0  0  0  0  0  0  0
  -28.5280  -29.6144   26.0513 C   0  0  0  0  0  0  0  0  0  0  0  0
  -25.8061  -11.5341   20.3286 N   0  0  0  0  0  0  0  0  0  0  0  0
  -27.9358  -20.0909   21.6974 N   0  0  0  0  0  0  0  0  0  0  0  0
  -26.2073  -12.8067   20.1683 N   0  0  0  0  0  0  0  0  0  0  0  0
  -25.5077  -29.1332   24.1774 N   0  0  0  0  0  0  0  0  0  0  0  0
  -29.9526  -13.5288   20.4141 N   0  0  0  0  0  0  0  0  0  0  0  0
  -25.4762  -15.0533   20.3380 N   0  0  0  0  0  0  0  0  0  0  0  0
  -21.8306  -12.6772   21.5461 N   0  0  0  0  0  0  0  0  0  0  0  0
  -25.3714  -22.2545   20.1884 N   0  0  0  0  0  0  0  0  0  0  0  0
  -29.0891  -18.2068   20.8049 N   0  0  0  0  0  0  0  0  0  0  0  0
  -24.5280  -32.1789   22.5984 N   0  0  0  0  0  0  0  0  0  0  0  0
  -26.8828  -27.9667   27.0422 N   0  0  0  0  0  0  0  0  0  0  0  0
  -30.1429  -15.6228   21.4969 N   0  0  0  0  0  0  0  0  0  0  0  0
  -25.5584  -24.8256   28.2455 N   0  3  0  0  0  0  0  0  0  0  0  0
  -22.6478  -14.7941   21.2152 O   0  0  0  0  0  0  0  0  0  0  0  0
  -26.1266  -30.5782   22.0465 O   0  0  0  0  0  0  0  0  0  0  0  0
  -25.6233  -30.3786   26.1451 O   0  0  0  0  0  0  0  0  0  0  0  0
  -27.0584  -25.8555   26.0993 O   0  0  0  0  0  0  0  0  0  0  0  0
  -31.8843  -14.8016   20.2519 O   0  0  0  0  0  0  0  0  0  0  0  0
  -21.4585   -7.1252   21.8147 O   0  0  0  0  0  0  0  0  0  0  0  0
  -25.2611  -25.0211   19.5858 O   0  0  0  0  0  0  0  0  0  1  0  0
  -23.7748   -3.1174   24.8107 F   0  0  0  0  0  0  0  0  0  0  0  0
  -20.3605   -6.3436   24.2284 F   0  0  0  0  0  0  0  0  0  0  0  0
  1  2  1  0  0  0  0
  1  5  2  0  0  0  0
  2  6  2  0  0  0  0
  3  9  2  0  0  0  0
  3 17  1  0  0  0  0
  4 10  1  0  0  0  0
  4 17  2  0  0  0  0
  5 19  1  0  0  0  0
  6 21  1  0  0  0  0
  7 11  2  0  0  0  0
  7 20  1  0  0  0  0
  8 14  2  0  0  0  0
  8 23  1  0  0  0  0
  9 24  1  0  0  0  0
 10 24  2  0  0  0  0
 11 25  1  0  0  0  0
 12 13  2  0  0  0  0
 12 26  1  0  0  0  0
 13 27  1  0  0  0  0
 14 31  1  0  0  0  0
 15 22  1  0  0  0  0
 15 25  2  0  0  0  0
 16 27  2  0  0  0  0
 16 28  1  0  0  0  0
 17 29  1  0  0  0  0
 18 29  1  0  0  0  0
 18 32  2  0  0  0  0
 18 33  1  0  0  0  0
 19 21  2  0  0  0  0
 19 38  1  0  0  0  0
 20 22  2  0  0  0  0
 20 39  1  0  0  0  0
 21 47  1  0  0  0  0
 22 40  1  0  0  0  0
 23 30  2  0  0  0  0
 23 73  1  0  0  0  0
 24 84  1  0  0  0  0
 25 85  1  0  0  0  0
 26 28  2  0  0  0  0
 26 84  1  0  0  0  0
 27 86  1  0  0  0  0
 28 87  1  0  0  0  0
 29 66  2  0  0  0  0
 30 61  1  0  0  0  0
 30 67  1  0  0  0  0
 31 67  2  0  0  0  0
 31 74  1  0  0  0  0
 32 68  1  0  0  0  0
 32 71  1  0  0  0  0
 33 72  1  0  0  0  0
 33 79  2  0  0  0  0
 34 48  1  0  0  0  0
 34 75  1  0  0  0  0
 34 80  2  0  0  0  0
 35 62  1  0  0  0  0
 35 69  1  0  0  0  0
 35 81  2  0  0  0  0
 36 63  1  0  0  0  0
 36 76  1  0  0  0  0
 36 82  2  0  0  0  0
 37 70  1  0  0  0  0
 37 77  1  0  0  0  0
 37 83  2  0  0  0  0
 38 41  1  0  0  0  0
 39 48  1  0  0  0  0
 40 69  1  0  0  0  0
 41 43  1  0  0  0  0
 42 44  1  0  0  0  0
 42 45  1  0  0  0  0
 43 47  1  0  0  0  0
 44 49  1  0  0  0  0
 45 70  1  0  0  0  0
 46 49  1  0  0  0  0
 46 70  1  0  0  0  0
 47 75  1  0  0  0  0
 48 69  1  0  0  0  0
 49 68  1  0  0  0  0
 50 61  1  0  0  0  0
 51 61  1  0  0  0  0
 52 63  1  0  0  0  0
 53 64  1  0  0  0  0
 54 65  1  0  0  0  0
 55 65  1  0  0  0  0
 56 65  1  0  0  0  0
 57 78  1  0  0  0  0
 58 60  1  0  0  0  0
 58 73  1  0  0  0  0
 59 64  1  0  0  0  0
 59 74  1  0  0  0  0
 60 85  1  0  0  0  0
 62 65  1  0  0  0  0
 62 76  1  0  0  0  0
 63 78  1  0  0  0  0
 64 77  1  0  0  0  0
 66 68  1  0  0  0  0
M  CHG  1  78   1
M  ISO  4  37 100  60 101  77 100  85 101
M  END
> <Batch ID>
0137

> <Smiles>
CNC(C)C(=O)NC(C(=O)N1Cc2cc([101O:1][101CH2:1]CNc3ccc(NCC(C)[100NH:0][100C:0](=O)N4CCCC(n5nc(-c6ccc(Oc7ccc(F)cc7F)cc6)c(C(N)=O)c5N)C4)nc3C(C)C)ccc2CC1C(=O)NC1CCCc2ccccc21)C(C)(C)C

> <Shape>
0.299

> <Color>
0.190

> <Negative vol penalty>
0.000

$$$$

  -OEChem-04052321053D

 81 90  0     1  0  0  0  0  0999 V2000
  -16.4116  -29.0607   23.0847 C   0  0  0  0  0  0  0  0  0  0  0  0
  -17.0816  -29.7385   22.0713 C   0  0  0  0  0  0  0  0  0  0  0  0
  -23.8555  -14.1168   20.3525 C   0  0  0  0  0  0  0  0  0  0  0  0
  -26.2401  -14.1601   20.7382 C   0  0  0  0  0  0  0  0  0  0  0  0
  -17.0536  -28.8095   24.2966 C   0  0  0  0  0  0  0  0  0  0  0  0
  -18.3938  -30.1664   22.2695 C   0  0  0  0  0  0  0  0  0  0  0  0
  -24.8282  -28.6638   18.1020 C   0  0  0  0  0  0  0  0  0  0  0  0
  -23.9099  -12.7349   20.1709 C   0  0  0  0  0  0  0  0  0  0  0  0
  -26.2945  -12.7782   20.5568 C   0  0  0  0  0  0  0  0  0  0  0  0
  -26.0623  -28.3418   17.5367 C   0  0  0  0  0  0  0  0  0  0  0  0
  -23.3641   -9.1469   19.9627 C   0  0  0  0  0  0  0  0  0  0  0  0
  -22.3905   -8.3713   20.5921 C   0  0  0  0  0  0  0  0  0  0  0  0
  -27.1507  -28.7407   19.6591 C   0  0  0  0  0  0  0  0  0  0  0  0
  -23.1231   -9.1961   22.7416 C   0  0  0  0  0  0  0  0  0  0  0  0
  -25.0206  -14.8295   20.6360 C   0  0  0  0  0  0  0  0  0  0  0  0
  -24.2270  -16.9591   21.7947 C   0  0  0  0  0  0  0  0  0  0  0  0
  -18.3777  -29.2261   24.5063 C   0  0  0  0  0  0  0  0  0  0  0  0
  -24.7485  -29.0110   19.4535 C   0  0  0  0  0  0  0  0  0  0  0  0
  -19.0538  -29.9217   23.4858 C   0  0  0  0  0  0  0  0  0  0  0  0
  -25.9156  -29.0521   20.2339 C   0  0  0  0  0  0  0  0  0  0  0  0
  -25.1294  -12.0656   20.2731 C   0  0  0  0  0  0  0  0  0  0  0  0
  -27.2206  -28.3804   18.3133 C   0  0  0  0  0  0  0  0  0  0  0  0
  -24.2173   -9.9471   20.7227 C   0  0  0  0  0  0  0  0  0  0  0  0
  -22.2700   -8.3959   21.9816 C   0  0  0  0  0  0  0  0  0  0  0  0
  -24.0967   -9.9717   22.1122 C   0  0  0  0  0  0  0  0  0  0  0  0
  -24.9651  -16.2571   20.8231 C   0  0  0  0  0  0  0  0  0  0  0  0
  -24.5111  -18.2809   21.5530 C   0  0  0  0  0  0  0  0  0  0  0  0
  -23.3619  -16.4608   22.8239 C   0  0  0  0  0  0  0  0  0  0  0  0
  -22.5628  -30.0168   22.3322 C   0  0  0  0  0  0  0  0  0  0  0  0
  -24.6324  -28.0384   23.4336 C   0  0  0  0  0  0  0  0  0  0  0  0
  -26.8101  -25.5144   24.1578 C   0  0  0  0  0  0  0  0  0  0  0  0
  -29.1775  -20.9130   19.0903 C   0  0  0  0  0  0  0  0  0  0  0  0
  -19.0140  -28.9734   25.8501 C   0  0  0  0  0  0  0  0  0  0  0  0
  -23.4492  -29.4250   20.0893 C   0  0  0  0  0  0  0  0  0  0  0  0
  -25.7867  -29.4648   21.6748 C   0  0  0  0  0  0  0  0  0  0  0  0
  -20.5324  -29.1304   25.8442 C   0  0  0  0  0  0  0  0  0  0  0  0
  -25.7403  -21.2606   18.0156 C   0  0  0  0  0  0  0  0  0  0  0  0
  -20.9338  -30.4117   25.1202 C   0  0  0  0  0  0  0  0  0  0  0  0
  -31.7389  -26.5268   18.6348 C   0  0  0  0  0  0  0  0  0  0  0  0
  -29.9130  -25.4657   20.0473 C   0  0  0  0  0  0  0  0  0  0  0  0
  -25.0825  -20.0712   18.7172 C   0  0  0  0  0  0  0  0  0  0  0  0
  -30.6721  -27.2407   17.8083 C   0  0  0  0  0  0  0  0  0  0  0  0
  -28.8590  -26.1877   19.2113 C   0  0  0  0  0  0  0  0  0  0  0  0
  -27.1407  -20.9076   17.5224 C   0  0  0  0  0  0  0  0  0  0  0  0
  -27.3981  -19.2018   19.2808 C   0  0  0  0  0  0  0  0  0  0  0  0
  -32.1027  -22.3852   17.9020 C   0  0  0  0  0  0  0  0  0  0  0  0
  -20.4862  -30.3800   23.6538 C   0  0  1  0  0  0  0  0  0  0  0  0
  -23.3291  -28.9841   21.5591 C   0  0  1  0  0  0  0  0  0  0  0  0
  -31.2302  -25.2382   19.2942 C   0  0  0  0  0  0  0  0  0  0  0  0
  -25.9896  -19.5027   19.8243 C   0  0  2  0  0  0  0  0  0  0  0  0
  -30.9122  -22.7065   18.8065 C   0  0  1  0  0  0  0  0  0  0  0  0
  -31.0735  -24.1239   18.2547 C   0  0  2  0  0  0  0  0  0  0  0  0
  -29.4001  -27.4845   18.6147 C   0  0  0  0  0  0  0  0  0  1  0  0
  -27.5898  -24.0694   26.0556 C   0  0  0  0  0  0  0  0  0  0  0  0
  -26.2435  -30.3768   24.5472 C   0  0  0  0  0  0  0  0  0  0  0  0
  -27.6691  -28.7206   25.7690 C   0  0  0  0  0  0  0  0  0  0  0  0
  -25.2335  -28.8852   26.2820 C   0  0  0  0  0  0  0  0  0  0  0  0
  -25.9380  -23.0412   22.7860 C   0  0  0  0  0  0  0  0  0  0  0  0
  -25.9727  -27.8488   24.0977 C   0  0  1  0  0  0  0  0  0  0  0  0
  -26.6199  -24.1990   24.8915 C   0  0  2  0  0  0  0  0  0  0  0  0
  -26.2768  -28.9563   25.1457 C   0  0  0  0  0  0  0  0  0  0  0  0
  -25.6654  -17.0660   20.0235 N   0  0  0  0  0  0  0  0  0  0  0  0
  -25.3685  -18.2900   20.4923 N   0  0  0  0  0  0  0  0  0  0  0  0
  -24.6056  -28.8263   22.2765 N   0  0  0  0  0  0  0  0  0  0  0  0
  -27.9588  -20.3904   18.6288 N   0  0  0  0  0  0  0  0  0  0  0  0
  -24.1086  -19.4248   22.1463 N   0  0  0  0  0  0  0  0  0  0  0  0
  -23.9157  -16.1645   24.0768 N   0  0  0  0  0  0  0  0  0  0  0  0
  -21.3782  -29.5519   22.8709 N   0  0  0  0  0  0  0  0  0  0  0  0
  -25.9707  -26.4953   24.6421 N   0  0  0  0  0  0  0  0  0  0  0  0
  -29.6479  -22.0420   18.4282 N   0  0  0  0  0  0  0  0  0  0  0  0
  -26.8413  -23.0526   23.9654 N   0  3  0  0  0  0  0  0  0  0  0  0
  -22.1372  -16.2682   22.6329 O   0  0  0  0  0  0  0  0  0  0  0  0
  -23.0129  -31.1519   22.4347 O   0  0  0  0  0  0  0  0  0  0  0  0
  -23.6338  -27.5081   23.9283 O   0  0  0  0  0  0  0  0  0  0  0  0
  -27.6245  -25.6583   23.2487 O   0  0  0  0  0  0  0  0  0  0  0  0
  -29.8062  -20.4165   20.0315 O   0  0  0  0  0  0  0  0  0  0  0  0
  -32.3573  -23.7934   17.6738 O   0  0  0  0  0  0  0  0  0  0  0  0
  -25.1828  -10.7171   20.0963 O   0  0  0  0  0  0  0  0  0  0  0  0
  -28.4215  -28.0605   17.7562 O   0  0  0  0  0  0  0  0  0  1  0  0
  -21.3340   -7.6523   22.5858 F   0  0  0  0  0  0  0  0  0  0  0  0
  -24.9127  -10.7393   22.8475 F   0  0  0  0  0  0  0  0  0  0  0  0
  1  2  1  0  0  0  0
  1  5  2  0  0  0  0
  2  6  2  0  0  0  0
  3  8  2  0  0  0  0
  3 15  1  0  0  0  0
  4  9  1  0  0  0  0
  4 15  2  0  0  0  0
  5 17  1  0  0  0  0
  6 19  1  0  0  0  0
  7 10  2  0  0  0  0
  7 18  1  0  0  0  0
  8 21  1  0  0  0  0
  9 21  2  0  0  0  0
 10 22  1  0  0  0  0
 11 12  2  0  0  0  0
 11 23  1  0  0  0  0
 12 24  1  0  0  0  0
 13 20  1  0  0  0  0
 13 22  2  0  0  0  0
 14 24  2  0  0  0  0
 14 25  1  0  0  0  0
 15 26  1  0  0  0  0
 16 26  1  0  0  0  0
 16 27  2  0  0  0  0
 16 28  1  0  0  0  0
 17 19  2  0  0  0  0
 17 33  1  0  0  0  0
 18 20  2  0  0  0  0
 18 34  1  0  0  0  0
 19 47  1  0  0  0  0
 20 35  1  0  0  0  0
 21 78  1  0  0  0  0
 22 79  1  0  0  0  0
 23 25  2  0  0  0  0
 23 78  1  0  0  0  0
 24 80  1  0  0  0  0
 25 81  1  0  0  0  0
 26 62  2  0  0  0  0
 27 63  1  0  0  0  0
 27 66  1  0  0  0  0
 28 67  1  0  0  0  0
 28 72  2  0  0  0  0
 29 48  1  0  0  0  0
 29 68  1  0  0  0  0
 29 73  2  0  0  0  0
 30 59  1  0  0  0  0
 30 64  1  0  0  0  0
 30 74  2  0  0  0  0
 31 60  1  0  0  0  0
 31 69  1  0  0  0  0
 31 75  2  0  0  0  0
 32 65  1  0  0  0  0
 32 70  1  0  0  0  0
 32 76  2  0  0  0  0
 33 36  1  0  0  0  0
 34 48  1  0  0  0  0
 35 64  1  0  0  0  0
 36 38  1  0  0  0  0
 37 41  1  0  0  0  0
 37 44  1  0  0  0  0
 38 47  1  0  0  0  0
 39 42  1  0  0  0  0
 39 49  1  0  0  0  0
 40 43  1  0  0  0  0
 40 49  1  0  0  0  0
 41 50  1  0  0  0  0
 42 53  1  0  0  0  0
 43 53  1  0  0  0  0
 44 65  1  0  0  0  0
 45 50  1  0  0  0  0
 45 65  1  0  0  0  0
 46 51  1  0  0  0  0
 46 77  1  0  0  0  0
 47 68  1  0  0  0  0
 48 64  1  0  0  0  0
 49 52  1  0  0  0  0
 50 63  1  0  0  0  0
 51 52  1  0  0  0  0
 51 70  1  0  0  0  0
 52 77  1  0  0  0  0
 53 79  1  0  0  0  0
 54 60  1  0  0  0  0
 55 61  1  0  0  0  0
 56 61  1  0  0  0  0
 57 61  1  0  0  0  0
 58 71  1  0  0  0  0
 59 61  1  0  0  0  0
 59 69  1  0  0  0  0
 60 71  1  0  0  0  0
 62 63  1  0  0  0  0
M  CHG  1  71   1
M  ISO  4  32 100  53 101  70 100  79 101
M  END
> <Batch ID>
0137

> <Smiles>
CNC(C)C(=O)NC(C(=O)N1Cc2cc([101O:1][101CH:1]3CCC(C4OCC4[100NH:0][100C:0](=O)N4CCCC(n5nc(-c6ccc(Oc7ccc(F)cc7F)cc6)c(C(N)=O)c5N)C4)CC3)ccc2CC1C(=O)NC1CCCc2ccccc21)C(C)(C)C

> <Shape>
0.241

> <Color>
0.096

> <Negative vol penalty>
0.000

$$$$

  -OEChem-04052321053D

 87 95  0     1  0  0  0  0  0999 V2000
  -26.9871  -32.4590   27.4208 C   0  0  0  0  0  0  0  0  0  0  0  0
  -27.2306  -31.9220   26.1617 C   0  0  0  0  0  0  0  0  0  0  0  0
  -24.1968  -10.0525   22.5381 C   0  0  0  0  0  0  0  0  0  0  0  0
  -23.2162  -10.5686   20.3912 C   0  0  0  0  0  0  0  0  0  0  0  0
  -25.7650  -32.2275   28.0486 C   0  0  0  0  0  0  0  0  0  0  0  0
  -26.2478  -31.1635   25.5249 C   0  0  0  0  0  0  0  0  0  0  0  0
  -27.1286  -29.8133   20.8768 C   0  0  0  0  0  0  0  0  0  0  0  0
  -23.7738   -8.7293   22.4133 C   0  0  0  0  0  0  0  0  0  0  0  0
  -22.7932   -9.2453   20.2663 C   0  0  0  0  0  0  0  0  0  0  0  0
  -28.0688  -28.8405   20.5398 C   0  0  0  0  0  0  0  0  0  0  0  0
  -20.9050   -6.9847   22.8017 C   0  0  0  0  0  0  0  0  0  0  0  0
  -20.3091   -6.3880   23.9127 C   0  0  0  0  0  0  0  0  0  0  0  0
  -26.2879  -27.2561   20.1695 C   0  0  0  0  0  0  0  0  0  0  0  0
  -22.0403   -4.7028   23.9362 C   0  0  0  0  0  0  0  0  0  0  0  0
  -23.9180  -10.9722   21.5271 C   0  0  0  0  0  0  0  0  0  0  0  0
  -24.0013  -13.2528   22.6672 C   0  0  0  0  0  0  0  0  0  0  0  0
  -24.7719  -31.4552   27.4238 C   0  0  0  0  0  0  0  0  0  0  0  0
  -25.7593  -29.5111   20.8732 C   0  0  0  0  0  0  0  0  0  0  0  0
  -24.9989  -30.9387   26.1318 C   0  0  0  0  0  0  0  0  0  0  0  0
  -25.3322  -28.2275   20.5043 C   0  0  0  0  0  0  0  0  0  0  0  0
  -23.0720   -8.3256   21.2774 C   0  0  0  0  0  0  0  0  0  0  0  0
  -27.6487  -27.5609   20.1889 C   0  0  0  0  0  0  0  0  0  0  0  0
  -22.0685   -6.4404   22.2577 C   0  0  0  0  0  0  0  0  0  0  0  0
  -20.8768   -5.2471   24.4800 C   0  0  0  0  0  0  0  0  0  0  0  0
  -22.6361   -5.2995   22.8250 C   0  0  0  0  0  0  0  0  0  0  0  0
  -24.3542  -12.3394   21.6557 C   0  0  0  0  0  0  0  0  0  0  0  0
  -24.6730  -14.4050   22.3390 C   0  0  0  0  0  0  0  0  0  0  0  0
  -23.1430  -13.0755   23.8019 C   0  0  0  0  0  0  0  0  0  0  0  0
  -23.4655  -29.4700   23.0733 C   0  0  0  0  0  0  0  0  0  0  0  0
  -21.5618  -28.8695   20.5164 C   0  0  0  0  0  0  0  0  0  0  0  0
  -29.0573  -19.5751   22.5638 C   0  0  0  0  0  0  0  0  0  0  0  0
  -21.2792  -27.6768   17.3314 C   0  0  0  0  0  0  0  0  0  0  0  0
  -29.2973  -17.0262   20.6391 C   0  0  0  0  0  0  0  0  0  0  0  0
  -23.4645  -31.2426   28.1452 C   0  0  0  0  0  0  0  0  0  0  0  0
  -24.7563  -30.5792   21.2134 C   0  0  0  0  0  0  0  0  0  0  0  0
  -23.8726  -27.8581   20.4652 C   0  0  0  0  0  0  0  0  0  0  0  0
  -22.6638  -30.0686   27.5913 C   0  0  0  0  0  0  0  0  0  0  0  0
  -27.1676  -15.6752   18.1260 C   0  0  0  0  0  0  0  0  0  0  0  0
  -22.5668  -30.1741   26.0767 C   0  0  0  0  0  0  0  0  0  0  0  0
  -26.2214  -14.7580   18.9027 C   0  0  0  0  0  0  0  0  0  0  0  0
  -30.1013  -22.9576   21.4690 C   0  0  0  0  0  0  0  0  0  0  0  0
  -28.5796  -15.6519   18.7071 C   0  0  0  0  0  0  0  0  0  0  0  0
  -27.7137  -15.0249   20.9277 C   0  0  0  0  0  0  0  0  0  0  0  0
  -29.3394  -24.9422   22.8320 C   0  0  0  0  0  0  0  0  0  0  0  0
  -29.0562  -22.6236   23.7440 C   0  0  0  0  0  0  0  0  0  0  0  0
  -23.9563  -30.0850   25.4330 C   0  0  1  0  0  0  0  0  0  0  0  0
  -23.4158  -30.0151   21.6740 C   0  0  1  0  0  0  0  0  0  0  0  0
  -29.5294  -24.3828   21.4226 C   0  0  1  0  0  0  0  0  0  0  0  0
  -26.2644  -15.0577   20.4132 C   0  0  2  0  0  0  0  0  0  0  0  0
  -29.2434  -22.0421   22.3482 C   0  0  2  0  0  0  0  0  0  0  0  0
  -19.5894  -27.2807   15.5190 C   0  0  0  0  0  0  0  0  0  0  0  0
  -29.0798  -17.7840   25.0357 C   0  0  0  0  0  0  0  0  0  0  0  0
  -31.2092  -16.7606   24.1958 C   0  0  0  0  0  0  0  0  0  0  0  0
  -20.5261  -26.4247   22.0198 C   0  0  0  0  0  0  0  0  0  0  0  0
  -19.6017  -25.5718   19.8550 C   0  0  0  0  0  0  0  0  0  0  0  0
  -18.7686  -27.7233   20.8035 C   0  0  0  0  0  0  0  0  0  0  0  0
  -22.6737  -29.5079   15.4709 C   0  0  0  0  0  0  0  0  0  0  0  0
  -29.8470  -26.7010   20.4790 C   0  0  0  0  0  0  0  0  0  1  0  0
  -21.0890  -27.6252   19.8044 C   0  0  1  0  0  0  0  0  0  0  0  0
  -29.9147  -18.3155   22.6679 C   0  0  1  0  0  0  0  0  0  0  0  0
  -20.6081  -28.2508   16.0967 C   0  0  2  0  0  0  0  0  0  0  0  0
  -30.4346  -25.3006   20.6033 C   0  0  2  0  0  0  0  0  0  0  0  0
  -30.2966  -17.9891   24.1273 C   0  0  0  0  0  0  0  0  0  0  0  0
  -20.0241  -26.8423   20.6232 C   0  0  0  0  0  0  0  0  0  0  0  0
  -25.1854  -12.8661   20.7525 N   0  0  0  0  0  0  0  0  0  0  0  0
  -25.3604  -14.1228   21.1953 N   0  0  0  0  0  0  0  0  0  0  0  0
  -22.9308  -28.9352   20.8121 N   0  0  0  0  0  0  0  0  0  0  0  0
  -28.5507  -15.9453   20.1420 N   0  0  0  0  0  0  0  0  0  0  0  0
  -24.7368  -15.6218   22.9200 N   0  0  0  0  0  0  0  0  0  0  0  0
  -22.5326  -11.8279   23.9895 N   0  0  0  0  0  0  0  0  0  0  0  0
  -23.8452  -30.3971   24.0251 N   0  0  0  0  0  0  0  0  0  0  0  0
  -29.8246  -20.7239   22.4303 N   0  0  0  0  0  0  0  0  0  0  0  0
  -20.6318  -28.0570   18.4880 N   0  0  0  0  0  0  0  0  0  0  0  0
  -29.2091  -17.2387   22.0094 N   0  0  0  0  0  0  0  0  0  0  0  0
  -28.4923  -24.0025   23.6260 N   0  3  0  0  0  0  0  0  0  0  0  0
  -21.6227  -28.5476   15.0463 N   0  3  0  0  0  0  0  0  0  0  0  0
  -22.9110  -14.0011   24.6161 O   0  0  0  0  0  0  0  0  0  0  0  0
  -23.1791  -28.2957   23.2748 O   0  0  0  0  0  0  0  0  0  0  0  0
  -20.7478  -29.7540   20.7935 O   0  0  0  0  0  0  0  0  0  0  0  0
  -27.8296  -19.5562   22.6251 O   0  0  0  0  0  0  0  0  0  0  0  0
  -22.2757  -26.9596   17.2753 O   0  0  0  0  0  0  0  0  0  0  0  0
  -29.9870  -17.7517   19.9145 O   0  0  0  0  0  0  0  0  0  0  0  0
  -30.5733  -24.7321   19.3020 O   0  0  0  0  0  0  0  0  0  0  0  0
  -22.6593   -7.0344   21.1551 O   0  0  0  0  0  0  0  0  0  0  0  0
  -28.5644  -26.6094   19.8602 O   0  0  0  0  0  0  0  0  0  1  0  0
  -20.3053   -4.6751   25.5479 F   0  0  0  0  0  0  0  0  0  0  0  0
  -23.7544   -4.7727   22.3076 F   0  0  0  0  0  0  0  0  0  0  0  0
  1  2  1  0  0  0  0
  1  5  2  0  0  0  0
  2  6  2  0  0  0  0
  3  8  2  0  0  0  0
  3 15  1  0  0  0  0
  4  9  1  0  0  0  0
  4 15  2  0  0  0  0
  5 17  1  0  0  0  0
  6 19  1  0  0  0  0
  7 10  2  0  0  0  0
  7 18  1  0  0  0  0
  8 21  1  0  0  0  0
  9 21  2  0  0  0  0
 10 22  1  0  0  0  0
 11 12  2  0  0  0  0
 11 23  1  0  0  0  0
 12 24  1  0  0  0  0
 13 20  1  0  0  0  0
 13 22  2  0  0  0  0
 14 24  2  0  0  0  0
 14 25  1  0  0  0  0
 15 26  1  0  0  0  0
 16 26  1  0  0  0  0
 16 27  2  0  0  0  0
 16 28  1  0  0  0  0
 17 19  2  0  0  0  0
 17 34  1  0  0  0  0
 18 20  2  0  0  0  0
 18 35  1  0  0  0  0
 19 46  1  0  0  0  0
 20 36  1  0  0  0  0
 21 84  1  0  0  0  0
 22 85  1  0  0  0  0
 23 25  2  0  0  0  0
 23 84  1  0  0  0  0
 24 86  1  0  0  0  0
 25 87  1  0  0  0  0
 26 65  2  0  0  0  0
 27 66  1  0  0  0  0
 27 69  1  0  0  0  0
 28 70  1  0  0  0  0
 28 77  2  0  0  0  0
 29 47  1  0  0  0  0
 29 71  1  0  0  0  0
 29 78  2  0  0  0  0
 30 59  1  0  0  0  0
 30 67  1  0  0  0  0
 30 79  2  0  0  0  0
 31 60  1  0  0  0  0
 31 72  1  0  0  0  0
 31 80  2  0  0  0  0
 32 61  1  0  0  0  0
 32 73  1  0  0  0  0
 32 81  2  0  0  0  0
 33 68  1  0  0  0  0
 33 74  1  0  0  0  0
 33 82  2  0  0  0  0
 34 37  1  0  0  0  0
 35 47  1  0  0  0  0
 36 67  1  0  0  0  0
 37 39  1  0  0  0  0
 38 40  1  0  0  0  0
 38 42  1  0  0  0  0
 39 46  1  0  0  0  0
 40 49  1  0  0  0  0
 41 48  1  0  0  0  0
 41 50  1  0  0  0  0
 42 68  1  0  0  0  0
 43 49  1  0  0  0  0
 43 68  1  0  0  0  0
 44 48  1  0  0  0  0
 44 75  1  0  0  0  0
 45 50  1  0  0  0  0
 45 75  1  0  0  0  0
 46 71  1  0  0  0  0
 47 67  1  0  0  0  0
 48 62  1  0  0  0  0
 49 66  1  0  0  0  0
 50 72  1  0  0  0  0
 51 61  1  0  0  0  0
 52 63  1  0  0  0  0
 53 63  1  0  0  0  0
 54 64  1  0  0  0  0
 55 64  1  0  0  0  0
 56 64  1  0  0  0  0
 57 76  1  0  0  0  0
 58 62  1  0  0  0  0
 58 85  1  0  0  0  0
 59 64  1  0  0  0  0
 59 73  1  0  0  0  0
 60 63  1  0  0  0  0
 60 74  1  0  0  0  0
 61 76  1  0  0  0  0
 62 83  1  0  0  0  0
 65 66  1  0  0  0  0
M  CHG  2  75   1  76   1
M  ISO  4  33 100  58 101  74 100  85 101
M  END
> <Batch ID>
0137

> <Smiles>
CNC(C)C(=O)NC(C(=O)N1Cc2cc([101O:1][101CH2:1]C(O)C3CNCC(NC(=O)C([100NH:0][100C:0](=O)N4CCCC(n5nc(-c6ccc(Oc7ccc(F)cc7F)cc6)c(C(N)=O)c5N)C4)C(C)C)C3)ccc2CC1C(=O)NC1CCCc2ccccc21)C(C)(C)C

> <Shape>
0.297

> <Color>
0.109

> <Negative vol penalty>
0.000

$$$$

  -OEChem-04052321053D

 87 96  0     1  0  0  0  0  0999 V2000
  -19.6753  -34.2827   21.4223 C   0  0  0  0  0  0  0  0  0  0  0  0
  -20.9379  -33.8462   21.0342 C   0  0  0  0  0  0  0  0  0  0  0  0
  -25.2492  -12.9013   19.5132 C   0  0  0  0  0  0  0  0  0  0  0  0
  -25.5271  -13.7882   21.7433 C   0  0  0  0  0  0  0  0  0  0  0  0
  -18.9973  -33.6269   22.4490 C   0  0  0  0  0  0  0  0  0  0  0  0
  -21.5238  -32.7541   21.6734 C   0  0  0  0  0  0  0  0  0  0  0  0
  -25.1595  -28.5239   19.1450 C   0  0  0  0  0  0  0  0  0  0  0  0
  -25.1045  -11.6185   20.0414 C   0  0  0  0  0  0  0  0  0  0  0  0
  -25.3823  -12.5053   22.2715 C   0  0  0  0  0  0  0  0  0  0  0  0
  -26.5453  -28.3738   19.1170 C   0  0  0  0  0  0  0  0  0  0  0  0
  -30.1126  -25.8815   21.0033 C   0  0  0  0  0  0  0  0  0  0  0  0
  -30.6274  -24.5914   21.1310 C   0  0  0  0  0  0  0  0  0  0  0  0
  -24.3018   -8.1611   20.8270 C   0  0  0  0  0  0  0  0  0  0  0  0
  -23.2723   -7.3653   20.3246 C   0  0  0  0  0  0  0  0  0  0  0  0
  -26.4148  -26.8731   21.0013 C   0  0  0  0  0  0  0  0  0  0  0  0
  -28.4745  -25.0714   19.4231 C   0  0  0  0  0  0  0  0  0  0  0  0
  -21.6520   -9.0062   21.0450 C   0  0  0  0  0  0  0  0  0  0  0  0
  -25.4606  -13.9862   20.3642 C   0  0  0  0  0  0  0  0  0  0  0  0
  -24.5908  -16.2501   19.5732 C   0  0  0  0  0  0  0  0  0  0  0  0
  -19.5711  -32.5202   23.0946 C   0  0  0  0  0  0  0  0  0  0  0  0
  -24.3907  -27.8572   20.1099 C   0  0  0  0  0  0  0  0  0  0  0  0
  -20.8534  -32.0837   22.7106 C   0  0  0  0  0  0  0  0  0  0  0  0
  -25.0192  -27.0145   21.0378 C   0  0  0  0  0  0  0  0  0  0  0  0
  -28.9892  -23.7813   19.5508 C   0  0  0  0  0  0  0  0  0  0  0  0
  -25.1710  -11.4205   21.4205 C   0  0  0  0  0  0  0  0  0  0  0  0
  -27.1735  -27.5506   20.0470 C   0  0  0  0  0  0  0  0  0  0  0  0
  -29.0362  -26.1215   20.1493 C   0  0  0  0  0  0  0  0  0  1  0  0
  -30.0657  -23.5413   20.4048 C   0  0  0  0  0  0  0  0  0  0  0  0
  -24.0063   -9.3795   21.4386 C   0  0  0  0  0  0  0  0  0  0  0  0
  -21.9475   -7.7878   20.4335 C   0  0  0  0  0  0  0  0  0  0  0  0
  -22.6815   -9.8020   21.5476 C   0  0  0  0  0  0  0  0  0  0  0  0
  -25.6107  -15.3115   19.8192 C   0  0  0  0  0  0  0  0  0  0  0  0
  -25.2459  -17.3420   19.0583 C   0  0  0  0  0  0  0  0  0  0  0  0
  -23.1776  -16.1445   19.7908 C   0  0  0  0  0  0  0  0  0  0  0  0
  -22.4753  -28.7720   22.4759 C   0  0  0  0  0  0  0  0  0  0  0  0
  -21.8870  -25.5904   22.7081 C   0  0  0  0  0  0  0  0  0  0  0  0
  -22.9495  -22.3983   22.1355 C   0  0  0  0  0  0  0  0  0  0  0  0
  -30.8676  -19.3387   19.5683 C   0  0  0  0  0  0  0  0  0  0  0  0
  -18.8199  -31.8729   24.2310 C   0  0  0  0  0  0  0  0  0  0  0  0
  -22.8942  -28.0087   20.1099 C   0  0  0  0  0  0  0  0  0  0  0  0
  -24.2371  -26.2607   22.0812 C   0  0  0  0  0  0  0  0  0  0  0  0
  -19.3518  -30.4915   24.6040 C   0  0  0  0  0  0  0  0  0  0  0  0
  -31.2669  -23.9402   15.4588 C   0  0  0  0  0  0  0  0  0  0  0  0
  -29.1470  -18.5322   16.5573 C   0  0  0  0  0  0  0  0  0  0  0  0
  -20.8735  -30.5152   24.7069 C   0  0  0  0  0  0  0  0  0  0  0  0
  -30.6010  -24.2846   16.8072 C   0  0  0  0  0  0  0  0  0  0  0  0
  -30.0605  -23.0204   15.1787 C   0  0  0  0  0  0  0  0  0  0  0  0
  -27.9536  -17.7000   17.0297 C   0  0  0  0  0  0  0  0  0  0  0  0
  -30.3951  -18.2536   17.3921 C   0  0  0  0  0  0  0  0  0  0  0  0
  -29.0194  -17.5726   19.3202 C   0  0  0  0  0  0  0  0  0  0  0  0
  -21.5116  -30.8874   23.3631 C   0  0  1  0  0  0  0  0  0  0  0  0
  -22.2610  -27.6860   21.4598 C   0  0  1  0  0  0  0  0  0  0  0  0
  -29.8781  -22.9155   16.7151 C   0  0  0  0  0  0  0  0  0  0  0  0
  -27.7227  -17.8603   18.5444 C   0  0  2  0  0  0  0  0  0  0  0  0
  -26.9073  -22.4340   19.1754 C   0  0  0  0  0  0  0  0  0  0  0  0
  -22.2695  -20.0059   22.4697 C   0  0  0  0  0  0  0  0  0  0  0  0
  -22.6171  -25.7982   25.6634 C   0  0  0  0  0  0  0  0  0  0  0  0
  -22.8459  -23.3055   25.7104 C   0  0  0  0  0  0  0  0  0  0  0  0
  -20.6416  -24.3440   25.1766 C   0  0  0  0  0  0  0  0  0  0  0  0
  -22.9469  -21.8710   19.2233 C   0  0  0  0  0  0  0  0  0  0  0  0
  -28.4536  -22.8642   17.2269 C   0  0  0  0  0  0  0  0  0  0  0  0
  -31.2122  -20.3463   21.8100 C   0  0  0  0  0  0  0  0  0  0  0  0
  -30.5544  -21.7141   21.8464 C   0  0  0  0  0  0  0  0  0  0  0  0
  -28.3760  -22.6695   18.7655 C   0  0  1  0  0  0  0  0  0  0  0  0
  -22.5037  -24.4419   23.4693 C   0  0  1  0  0  0  0  0  0  0  0  0
  -22.2491  -21.1977   21.5252 C   0  0  2  0  0  0  0  0  0  0  0  0
  -22.1673  -24.4880   24.9866 C   0  0  0  0  0  0  0  0  0  0  0  0
  -26.8217  -15.7672   19.4877 N   0  0  0  0  0  0  0  0  0  0  0  0
  -26.5669  -17.0041   19.0280 N   0  0  0  0  0  0  0  0  0  0  0  0
  -22.7771  -26.4465   22.0443 N   0  0  0  0  0  0  0  0  0  0  0  0
  -30.1090  -18.4246   18.8186 N   0  0  0  0  0  0  0  0  0  0  0  0
  -24.8150  -18.5486   18.6330 N   0  0  0  0  0  0  0  0  0  0  0  0
  -22.6714  -14.9526   20.3271 N   0  0  0  0  0  0  0  0  0  0  0  0
  -21.5006  -29.7514   22.4665 N   0  0  0  0  0  0  0  0  0  0  0  0
  -22.0650  -23.2239   22.7967 N   0  0  0  0  0  0  0  0  0  0  0  0
  -30.5271  -19.4441   20.9113 N   0  0  0  0  0  0  0  0  0  0  0  0
  -22.9159  -20.8005   20.2529 N   0  3  0  0  0  0  0  0  0  0  0  0
  -22.3852  -17.0732   19.5025 O   0  0  0  0  0  0  0  0  0  0  0  0
  -23.4518  -28.7240   23.2147 O   0  0  0  0  0  0  0  0  0  0  0  0
  -20.6602  -25.7189   22.6967 O   0  0  0  0  0  0  0  0  0  0  0  0
  -24.1608  -22.5830   22.0388 O   0  0  0  0  0  0  0  0  0  0  0  0
  -31.7772  -20.0149   19.0760 O   0  0  0  0  0  0  0  0  0  0  0  0
  -25.0295  -10.1688   21.9363 O   0  0  0  0  0  0  0  0  0  0  0  0
  -28.5260  -27.4028   20.0223 O   0  0  0  0  0  0  0  0  0  1  0  0
  -30.5808  -22.2873   20.5408 O   0  0  0  0  0  0  0  0  0  0  0  0
  -20.9591   -7.0242   19.9496 F   0  0  0  0  0  0  0  0  0  0  0  0
  -22.3916  -10.9721   22.1330 F   0  0  0  0  0  0  0  0  0  0  0  0
  1  2  1  0  0  0  0
  1  5  2  0  0  0  0
  2  6  2  0  0  0  0
  3  8  2  0  0  0  0
  3 18  1  0  0  0  0
  4  9  1  0  0  0  0
  4 18  2  0  0  0  0
  5 20  1  0  0  0  0
  6 22  1  0  0  0  0
  7 10  2  0  0  0  0
  7 21  1  0  0  0  0
  8 25  1  0  0  0  0
  9 25  2  0  0  0  0
 10 26  1  0  0  0  0
 11 12  2  0  0  0  0
 11 27  1  0  0  0  0
 12 28  1  0  0  0  0
 13 14  2  0  0  0  0
 13 29  1  0  0  0  0
 14 30  1  0  0  0  0
 15 23  1  0  0  0  0
 15 26  2  0  0  0  0
 16 24  1  0  0  0  0
 16 27  2  0  0  0  0
 17 30  2  0  0  0  0
 17 31  1  0  0  0  0
 18 32  1  0  0  0  0
 19 32  1  0  0  0  0
 19 33  2  0  0  0  0
 19 34  1  0  0  0  0
 20 22  2  0  0  0  0
 20 39  1  0  0  0  0
 21 23  2  0  0  0  0
 21 40  1  0  0  0  0
 22 51  1  0  0  0  0
 23 41  1  0  0  0  0
 24 28  2  0  0  0  0
 24 64  1  0  0  0  0
 25 83  1  0  0  0  0
 26 84  1  0  0  0  0
 27 84  1  0  0  0  0
 28 85  1  0  0  0  0
 29 31  2  0  0  0  0
 29 83  1  0  0  0  0
 30 86  1  0  0  0  0
 31 87  1  0  0  0  0
 32 68  2  0  0  0  0
 33 69  1  0  0  0  0
 33 72  1  0  0  0  0
 34 73  1  0  0  0  0
 34 78  2  0  0  0  0
 35 52  1  0  0  0  0
 35 74  1  0  0  0  0
 35 79  2  0  0  0  0
 36 65  1  0  0  0  0
 36 70  1  0  0  0  0
 36 80  2  0  0  0  0
 37 66  1  0  0  0  0
 37 75  1  0  0  0  0
 37 81  2  0  0  0  0
 38 71  1  0  0  0  0
 38 76  1  0  0  0  0
 38 82  2  0  0  0  0
 39 42  1  0  0  0  0
 40 52  1  0  0  0  0
 41 70  1  0  0  0  0
 42 45  1  0  0  0  0
 43 46  1  0  0  0  0
 43 47  1  0  0  0  0
 44 48  1  0  0  0  0
 44 49  1  0  0  0  0
 45 51  1  0  0  0  0
 46 53  1  0  0  0  0
 47 53  1  0  0  0  0
 48 54  1  0  0  0  0
 49 71  1  0  0  0  0
 50 54  1  0  0  0  0
 50 71  1  0  0  0  0
 51 74  1  0  0  0  0
 52 70  1  0  0  0  0
 53 61  1  0  0  0  0
 54 69  1  0  0  0  0
 55 64  1  0  0  0  0
 56 66  1  0  0  0  0
 57 67  1  0  0  0  0
 58 67  1  0  0  0  0
 59 67  1  0  0  0  0
 60 77  1  0  0  0  0
 61 64  1  0  0  0  0
 62 63  1  0  0  0  0
 62 76  1  0  0  0  0
 63 85  1  0  0  0  0
 65 67  1  0  0  0  0
 65 75  1  0  0  0  0
 66 77  1  0  0  0  0
 68 69  1  0  0  0  0
M  CHG  1  77   1
M  ISO  4  27 101  38 100  76 100  84 101
M  END
> <Batch ID>
0137

> <Smiles>
CNC(C)C(=O)NC(C(=O)N1Cc2cc([101O:1][101c:1]3ccc(OCC[100NH:0][100C:0](=O)N4CCCC(n5nc(-c6ccc(Oc7ccc(F)cc7F)cc6)c(C(N)=O)c5N)C4)c(C(C)CC4CCC4)c3)ccc2CC1C(=O)NC1CCCc2ccccc21)C(C)(C)C

> <Shape>
0.215

> <Color>
0.091

> <Negative vol penalty>
0.000

$$$$

  -OEChem-04052321053D

 86 95  0     1  0  0  0  0  0999 V2000
  -28.5207  -11.6859   19.1136 C   0  0  0  0  0  0  0  0  0  0  0  0
  -27.5535  -12.6586   19.3454 C   0  0  0  0  0  0  0  0  0  0  0  0
  -20.9088  -30.2076   22.3762 C   0  0  0  0  0  0  0  0  0  0  0  0
  -22.3250  -28.7930   23.7290 C   0  0  0  0  0  0  0  0  0  0  0  0
  -29.8572  -11.9485   19.4116 C   0  0  0  0  0  0  0  0  0  0  0  0
  -27.9220  -13.8942   19.8763 C   0  0  0  0  0  0  0  0  0  0  0  0
  -25.7130  -17.7732   17.4850 C   0  0  0  0  0  0  0  0  0  0  0  0
  -16.9893  -21.9041   19.3498 C   0  0  0  0  0  0  0  0  0  0  0  0
  -21.7039  -31.3084   22.6949 C   0  0  0  0  0  0  0  0  0  0  0  0
  -23.1202  -29.8938   24.0477 C   0  0  0  0  0  0  0  0  0  0  0  0
  -24.3822  -18.0421   17.8021 C   0  0  0  0  0  0  0  0  0  0  0  0
  -18.2729  -21.4363   19.0689 C   0  0  0  0  0  0  0  0  0  0  0  0
  -25.5685  -31.7039   22.5815 C   0  0  0  0  0  0  0  0  0  0  0  0
  -26.9525  -31.5408   22.5217 C   0  0  0  0  0  0  0  0  0  0  0  0
  -25.0963  -19.8276   19.2586 C   0  0  0  0  0  0  0  0  0  0  0  0
  -18.2319  -20.1109   21.0885 C   0  0  0  0  0  0  0  0  0  0  0  0
  -27.1196  -32.0991   24.8664 C   0  0  0  0  0  0  0  0  0  0  0  0
  -21.2193  -28.9499   22.8933 C   0  0  0  0  0  0  0  0  0  0  0  0
  -20.5591  -26.9333   21.4773 C   0  0  0  0  0  0  0  0  0  0  0  0
  -30.2437  -13.1914   19.9375 C   0  0  0  0  0  0  0  0  0  0  0  0
  -26.7477  -18.5237   18.0617 C   0  0  0  0  0  0  0  0  0  0  0  0
  -29.2648  -14.1732   20.1829 C   0  0  0  0  0  0  0  0  0  0  0  0
  -16.3269  -21.4755   20.5002 C   0  0  0  0  0  0  0  0  0  0  0  0
  -26.4392  -19.5679   18.9452 C   0  0  0  0  0  0  0  0  0  0  0  0
  -16.9482  -20.5788   21.3695 C   0  0  0  0  0  0  0  0  0  0  0  0
  -22.8096  -31.1515   23.5306 C   0  0  0  0  0  0  0  0  0  0  0  0
  -24.0738  -19.0675   18.6912 C   0  0  0  0  0  0  0  0  0  0  0  0
  -18.8942  -20.5396   19.9382 C   0  0  0  0  0  0  0  0  0  0  0  0
  -24.9600  -32.0647   23.7837 C   0  0  0  0  0  0  0  0  0  0  0  0
  -27.7280  -31.7384   23.6641 C   0  0  0  0  0  0  0  0  0  0  0  0
  -25.7356  -32.2623   24.9262 C   0  0  0  0  0  0  0  0  0  0  0  0
  -20.3980  -27.8124   22.5649 C   0  0  0  0  0  0  0  0  0  0  0  0
  -19.5322  -26.0309   21.6102 C   0  0  0  0  0  0  0  0  0  0  0  0
  -21.5486  -26.9323   20.4397 C   0  0  0  0  0  0  0  0  0  0  0  0
  -29.2127  -17.8608   19.9559 C   0  0  0  0  0  0  0  0  0  0  0  0
  -29.9684  -20.9675   19.4082 C   0  0  0  0  0  0  0  0  0  0  0  0
  -28.9154  -24.0960   18.5421 C   0  0  0  0  0  0  0  0  0  0  0  0
  -16.4006  -22.6509   24.7588 C   0  0  0  0  0  0  0  0  0  0  0  0
  -31.6939  -13.4121   20.2880 C   0  0  0  0  0  0  0  0  0  0  0  0
  -28.1767  -18.2386   17.6888 C   0  0  0  0  0  0  0  0  0  0  0  0
  -27.5121  -20.4162   19.5759 C   0  0  0  0  0  0  0  0  0  0  0  0
  -32.0531  -14.8808   20.4979 C   0  0  0  0  0  0  0  0  0  0  0  0
  -15.4713  -26.0853   24.6256 C   0  0  0  0  0  0  0  0  0  0  0  0
  -14.5403  -23.3181   20.2060 C   0  0  0  0  0  0  0  0  0  0  0  0
  -14.7897  -23.1879   21.6760 C   0  0  0  0  0  0  0  0  0  0  0  0
  -31.0167  -15.5623   21.3858 C   0  0  0  0  0  0  0  0  0  0  0  0
  -16.6855  -26.7685   23.9940 C   0  0  0  0  0  0  0  0  0  0  0  0
  -15.8844  -24.9412   25.5489 C   0  0  0  0  0  0  0  0  0  0  0  0
  -17.9847  -24.6198   24.3003 C   0  0  0  0  0  0  0  0  0  0  0  0
  -14.9536  -21.9891   20.7801 C   0  0  0  0  0  0  0  0  0  0  0  0
  -29.6286  -15.5346   20.7346 C   0  0  1  0  0  0  0  0  0  0  0  0
  -29.1759  -18.7307   18.7313 C   0  0  1  0  0  0  0  0  0  0  0  0
  -17.6163  -25.7443   23.3173 C   0  0  2  0  0  0  0  0  0  0  0  0
  -29.7564  -26.4379   18.2170 C   0  0  0  0  0  0  0  0  0  0  0  0
  -30.0901  -21.3412   22.4340 C   0  0  0  0  0  0  0  0  0  0  0  0
  -29.9829  -23.8149   22.0628 C   0  0  0  0  0  0  0  0  0  0  0  0
  -31.9055  -22.5030   21.1655 C   0  0  0  0  0  0  0  0  0  0  0  0
  -28.1209  -24.1094   15.6912 C   0  0  0  0  0  0  0  0  0  0  0  0
  -17.0484  -20.4179   23.8907 C   0  0  0  0  0  0  0  0  0  0  0  0
  -22.4488  -20.6806   19.3337 C   0  0  0  0  0  0  0  0  0  1  0  0
  -21.0110  -20.9534   18.9362 C   0  0  0  0  0  0  0  0  0  0  0  0
  -16.2597  -20.1035   22.6069 C   0  0  2  0  0  0  0  0  0  0  0  0
  -29.6364  -22.2817   20.0727 C   0  0  1  0  0  0  0  0  0  0  0  0
  -29.4633  -25.1040   17.5480 C   0  0  2  0  0  0  0  0  0  0  0  0
  -30.3834  -22.4681   21.4235 C   0  0  0  0  0  0  0  0  0  0  0  0
  -19.3511  -27.4972   23.3321 N   0  0  0  0  0  0  0  0  0  0  0  0
  -18.8450  -26.4099   22.7257 N   0  0  0  0  0  0  0  0  0  0  0  0
  -28.8944  -20.0943   19.1845 N   0  0  0  0  0  0  0  0  0  0  0  0
  -16.7647  -24.0047   24.8461 N   0  0  0  0  0  0  0  0  0  0  0  0
  -19.1590  -24.9582   20.8805 N   0  0  0  0  0  0  0  0  0  0  0  0
  -22.5319  -27.9309   20.4532 N   0  0  0  0  0  0  0  0  0  0  0  0
  -29.5357  -16.5419   19.6997 N   0  0  0  0  0  0  0  0  0  0  0  0
  -29.9165  -23.3199   19.0867 N   0  0  0  0  0  0  0  0  0  0  0  0
  -17.2877  -21.8326   24.0702 N   0  0  0  0  0  0  0  0  0  0  0  0
  -15.9766  -18.6256   22.5882 N   0  3  0  0  0  0  0  0  0  0  0  0
  -28.4823  -25.3344   16.4500 N   0  3  0  0  0  0  0  0  0  0  0  0
  -21.5507  -26.0811   19.5183 O   0  0  0  0  0  0  0  0  0  0  0  0
  -28.9678  -18.3504   21.0523 O   0  0  0  0  0  0  0  0  0  0  0  0
  -31.1365  -20.7275   19.0925 O   0  0  0  0  0  0  0  0  0  0  0  0
  -27.7194  -24.0086   18.8115 O   0  0  0  0  0  0  0  0  0  0  0  0
  -15.3594  -22.2054   25.2531 O   0  0  0  0  0  0  0  0  0  0  0  0
  -23.5858  -32.2255   23.8417 O   0  0  0  0  0  0  0  0  0  0  0  0
  -22.7758  -19.3315   19.0029 O   0  0  0  0  0  0  0  0  0  1  0  0
  -20.1546  -20.0793   19.6615 O   0  0  0  0  0  0  0  0  0  0  0  0
  -29.0569  -31.5802   23.6069 F   0  0  0  0  0  0  0  0  0  0  0  0
  -25.1566  -32.6078   26.0842 F   0  0  0  0  0  0  0  0  0  0  0  0
  1  2  1  0  0  0  0
  1  5  2  0  0  0  0
  2  6  2  0  0  0  0
  3  9  2  0  0  0  0
  3 18  1  0  0  0  0
  4 10  1  0  0  0  0
  4 18  2  0  0  0  0
  5 20  1  0  0  0  0
  6 22  1  0  0  0  0
  7 11  2  0  0  0  0
  7 21  1  0  0  0  0
  8 12  2  0  0  0  0
  8 23  1  0  0  0  0
  9 26  1  0  0  0  0
 10 26  2  0  0  0  0
 11 27  1  0  0  0  0
 12 28  1  0  0  0  0
 13 14  2  0  0  0  0
 13 29  1  0  0  0  0
 14 30  1  0  0  0  0
 15 24  1  0  0  0  0
 15 27  2  0  0  0  0
 16 25  1  0  0  0  0
 16 28  2  0  0  0  0
 17 30  2  0  0  0  0
 17 31  1  0  0  0  0
 18 32  1  0  0  0  0
 19 32  1  0  0  0  0
 19 33  2  0  0  0  0
 19 34  1  0  0  0  0
 20 22  2  0  0  0  0
 20 39  1  0  0  0  0
 21 24  2  0  0  0  0
 21 40  1  0  0  0  0
 22 51  1  0  0  0  0
 23 25  2  0  0  0  0
 23 50  1  0  0  0  0
 24 41  1  0  0  0  0
 25 62  1  0  0  0  0
 26 82  1  0  0  0  0
 27 83  1  0  0  0  0
 28 84  1  0  0  0  0
 29 31  2  0  0  0  0
 29 82  1  0  0  0  0
 30 85  1  0  0  0  0
 31 86  1  0  0  0  0
 32 66  2  0  0  0  0
 33 67  1  0  0  0  0
 33 70  1  0  0  0  0
 34 71  1  0  0  0  0
 34 77  2  0  0  0  0
 35 52  1  0  0  0  0
 35 72  1  0  0  0  0
 35 78  2  0  0  0  0
 36 63  1  0  0  0  0
 36 68  1  0  0  0  0
 36 79  2  0  0  0  0
 37 64  1  0  0  0  0
 37 73  1  0  0  0  0
 37 80  2  0  0  0  0
 38 69  1  0  0  0  0
 38 74  1  0  0  0  0
 38 81  2  0  0  0  0
 39 42  1  0  0  0  0
 40 52  1  0  0  0  0
 41 68  1  0  0  0  0
 42 46  1  0  0  0  0
 43 47  1  0  0  0  0
 43 48  1  0  0  0  0
 44 45  1  0  0  0  0
 44 50  1  0  0  0  0
 45 50  1  0  0  0  0
 46 51  1  0  0  0  0
 47 53  1  0  0  0  0
 48 69  1  0  0  0  0
 49 53  1  0  0  0  0
 49 69  1  0  0  0  0
 51 72  1  0  0  0  0
 52 68  1  0  0  0  0
 53 67  1  0  0  0  0
 54 64  1  0  0  0  0
 55 65  1  0  0  0  0
 56 65  1  0  0  0  0
 57 65  1  0  0  0  0
 58 76  1  0  0  0  0
 59 62  1  0  0  0  0
 59 74  1  0  0  0  0
 60 61  1  0  0  0  0
 60 83  1  0  0  0  0
 61 84  1  0  0  0  0
 62 75  1  0  0  0  0
 63 65  1  0  0  0  0
 63 73  1  0  0  0  0
 64 76  1  0  0  0  0
 66 67  1  0  0  0  0
M  CHG  2  75   1  76   1
M  ISO  4  38 100  60 101  74 100  83 101
M  END
> <Batch ID>
0137

> <Smiles>
CNC(C)C(=O)NC(C(=O)N1Cc2cc([101O:1][101CH2:1]COc3ccc(C4CC4)c(C(N)C[100NH:0][100C:0](=O)N4CCCC(n5nc(-c6ccc(Oc7ccc(F)cc7F)cc6)c(C(N)=O)c5N)C4)c3)ccc2CC1C(=O)NC1CCCc2ccccc21)C(C)(C)C

> <Shape>
0.251

> <Color>
0.047

> <Negative vol penalty>
0.000

$$$$

  -OEChem-04052321053D

 91100  0     1  0  0  0  0  0999 V2000
  -17.0435  -26.4803   22.6354 C   0  0  0  0  0  0  0  0  0  0  0  0
  -18.3719  -26.1201   22.8378 C   0  0  0  0  0  0  0  0  0  0  0  0
  -23.2450  -14.7086   20.2939 C   0  0  0  0  0  0  0  0  0  0  0  0
  -25.1984  -15.2758   21.5976 C   0  0  0  0  0  0  0  0  0  0  0  0
  -16.7377  -27.6766   21.9880 C   0  0  0  0  0  0  0  0  0  0  0  0
  -19.3954  -26.9556   22.3918 C   0  0  0  0  0  0  0  0  0  0  0  0
  -23.0619  -27.5444   25.8349 C   0  0  0  0  0  0  0  0  0  0  0  0
  -31.2324  -21.9146   26.0234 C   0  0  0  0  0  0  0  0  0  0  0  0
  -30.1262  -22.7223   26.2870 C   0  0  0  0  0  0  0  0  0  0  0  0
  -22.7848  -16.0199   20.4128 C   0  0  0  0  0  0  0  0  0  0  0  0
  -24.7383  -16.5872   21.7164 C   0  0  0  0  0  0  0  0  0  0  0  0
  -23.9803  -26.5043   25.9713 C   0  0  0  0  0  0  0  0  0  0  0  0
  -24.6493  -19.3763   19.8102 C   0  0  0  0  0  0  0  0  0  0  0  0
  -25.5683  -20.4051   19.6040 C   0  0  0  0  0  0  0  0  0  0  0  0
  -25.5598  -27.7300   24.6216 C   0  0  0  0  0  0  0  0  0  0  0  0
  -28.8803  -21.5791   24.5613 C   0  0  0  0  0  0  0  0  0  0  0  0
  -25.1777  -21.2043   21.8503 C   0  0  0  0  0  0  0  0  0  0  0  0
  -24.4517  -14.3364   20.8864 C   0  0  0  0  0  0  0  0  0  0  0  0
  -24.2808  -11.8111   21.2039 C   0  0  0  0  0  0  0  0  0  0  0  0
  -17.7578  -28.5318   21.5424 C   0  0  0  0  0  0  0  0  0  0  0  0
  -23.3821  -28.6822   25.0805 C   0  0  0  0  0  0  0  0  0  0  0  0
  -19.1029  -28.1639   21.7366 C   0  0  0  0  0  0  0  0  0  0  0  0
  -24.6447  -28.7843   24.4793 C   0  0  0  0  0  0  0  0  0  0  0  0
  -31.1627  -20.9393   25.0287 C   0  0  0  0  0  0  0  0  0  0  0  0
  -29.9866  -20.7715   24.2977 C   0  0  0  0  0  0  0  0  0  0  0  0
  -28.9501  -22.5545   25.5560 C   0  0  0  0  0  0  0  0  0  0  0  0
  -23.5315  -16.9593   21.1240 C   0  0  0  0  0  0  0  0  0  0  0  0
  -25.2283  -26.5957   25.3622 C   0  0  0  0  0  0  0  0  0  0  0  0
  -23.9944  -19.2615   21.0365 C   0  0  0  0  0  0  0  0  0  0  0  0
  -25.8325  -21.3191   20.6240 C   0  0  0  0  0  0  0  0  0  0  0  0
  -24.2587  -20.1755   22.0565 C   0  0  0  0  0  0  0  0  0  0  0  0
  -24.9273  -12.9818   20.7645 C   0  0  0  0  0  0  0  0  0  0  0  0
  -25.1364  -10.7948   20.8553 C   0  0  0  0  0  0  0  0  0  0  0  0
  -23.0195  -11.6561   21.8679 C   0  0  0  0  0  0  0  0  0  0  0  0
  -22.2003  -30.0433   22.4624 C   0  0  0  0  0  0  0  0  0  0  0  0
  -24.3511  -32.3660   23.1705 C   0  0  0  0  0  0  0  0  0  0  0  0
  -26.6254  -34.9036   23.3574 C   0  0  0  0  0  0  0  0  0  0  0  0
  -28.9797  -13.7032   18.1869 C   0  0  0  0  0  0  0  0  0  0  0  0
  -17.3785  -29.7919   20.8056 C   0  0  0  0  0  0  0  0  0  0  0  0
  -22.3904  -29.8072   24.9652 C   0  0  0  0  0  0  0  0  0  0  0  0
  -25.0450  -29.9935   23.6756 C   0  0  0  0  0  0  0  0  0  0  0  0
  -18.5191  -30.8008   20.6970 C   0  0  0  0  0  0  0  0  0  0  0  0
  -29.9121  -10.5523   20.1817 C   0  0  0  0  0  0  0  0  0  0  0  0
  -19.8058  -30.1069   20.2614 C   0  0  0  0  0  0  0  0  0  0  0  0
  -28.5054  -10.4830   20.7628 C   0  0  0  0  0  0  0  0  0  0  0  0
  -29.9451  -17.4273   22.6209 C   0  0  0  0  0  0  0  0  0  0  0  0
  -30.1237  -19.2442   20.9042 C   0  0  0  0  0  0  0  0  0  0  0  0
  -30.1602  -11.9239   19.5603 C   0  0  0  0  0  0  0  0  0  0  0  0
  -29.4394  -18.4462   23.6428 C   0  0  0  0  0  0  0  0  0  0  0  0
  -29.6117  -20.2558   21.9288 C   0  0  0  0  0  0  0  0  0  0  0  0
  -27.9836  -11.4450   18.4330 C   0  0  0  0  0  0  0  0  0  0  0  0
  -20.2409  -29.0556   21.2894 C   0  0  1  0  0  0  0  0  0  0  0  0
  -22.6309  -30.6933   23.7469 C   0  0  1  0  0  0  0  0  0  0  0  0
  -27.4351  -10.7181   19.6782 C   0  0  2  0  0  0  0  0  0  0  0  0
  -29.5821  -17.8506   21.2024 C   0  0  0  0  0  0  0  0  0  0  0  0
  -32.3629  -20.0888   24.7670 C   0  0  0  0  0  0  0  0  0  0  0  0
  -27.7539  -36.6455   21.9467 C   0  0  0  0  0  0  0  0  0  0  0  0
  -31.6346  -16.2199   17.6710 C   0  0  0  0  0  0  0  0  0  0  0  0
  -26.1518  -30.2187   21.9637 C   0  0  0  0  0  0  0  0  0  0  0  0
  -27.7835  -32.0212   21.3664 C   0  0  0  0  0  0  0  0  0  0  0  0
  -25.4925  -32.0382   20.3797 C   0  0  0  0  0  0  0  0  0  0  0  0
  -25.5018  -37.1105   24.9779 C   0  0  0  0  0  0  0  0  0  0  0  0
  -26.5967  -23.2531   25.1097 C   0  0  0  0  0  0  0  0  0  0  0  0
  -29.4989  -16.8515   18.9183 C   0  0  0  0  0  0  0  0  0  0  0  0
  -25.6003  -24.2646   25.6511 C   0  0  0  0  0  0  0  0  0  1  0  0
  -25.7957  -32.6284   22.8194 C   0  0  1  0  0  0  0  0  0  0  0  0
  -26.5781  -36.3373   22.8607 C   0  0  2  0  0  0  0  0  0  0  0  0
  -30.1811  -15.8658   17.9704 C   0  0  2  0  0  0  0  0  0  0  0  0
  -26.2975  -31.7230   21.6593 C   0  0  0  0  0  0  0  0  0  0  0  0
  -26.1031  -12.7336   20.1813 N   0  0  0  0  0  0  0  0  0  0  0  0
  -26.2021  -11.3952   20.2520 N   0  0  0  0  0  0  0  0  0  0  0  0
  -29.8988  -19.7968   23.2961 N   0  0  0  0  0  0  0  0  0  0  0  0
  -24.0384  -31.0642   23.5868 N   0  0  0  0  0  0  0  0  0  0  0  0
  -29.0385  -12.4111   18.7459 N   0  0  0  0  0  0  0  0  0  0  0  0
  -25.0737   -9.4551   21.0090 N   0  0  0  0  0  0  0  0  0  0  0  0
  -22.2678  -12.8046   22.1509 N   0  0  0  0  0  0  0  0  0  0  0  0
  -27.8524  -23.3578   25.8170 N   0  0  0  0  0  0  0  0  0  0  0  0
  -20.8643  -29.6917   22.4301 N   0  0  0  0  0  0  0  0  0  0  0  0
  -25.8966  -34.0583   22.5478 N   0  0  0  0  0  0  0  0  0  0  0  0
  -30.0793  -14.5113   18.4638 N   0  0  0  0  0  0  0  0  0  0  0  0
  -30.1743  -16.8844   20.2413 N   0  3  0  0  0  0  0  0  0  0  0  0
  -26.6153  -37.2852   24.0101 N   0  3  0  0  0  0  0  0  0  0  0  0
  -22.5799  -10.5337   22.2151 O   0  0  0  0  0  0  0  0  0  0  0  0
  -23.0191  -29.8747   21.5664 O   0  0  0  0  0  0  0  0  0  0  0  0
  -23.5317  -33.2842   23.0855 O   0  0  0  0  0  0  0  0  0  0  0  0
  -27.2498  -34.5666   24.3610 O   0  0  0  0  0  0  0  0  0  0  0  0
  -28.0308  -14.1004   17.5040 O   0  0  0  0  0  0  0  0  0  0  0  0
  -23.0829  -18.2391   21.2400 O   0  0  0  0  0  0  0  0  0  0  0  0
  -26.1263  -25.5816   25.4932 O   0  0  0  0  0  0  0  0  0  1  0  0
  -26.7162  -22.3061   20.4263 F   0  0  0  0  0  0  0  0  0  0  0  0
  -23.6335  -20.0696   23.2371 F   0  0  0  0  0  0  0  0  0  0  0  0
  1  2  1  0  0  0  0
  1  5  2  0  0  0  0
  2  6  2  0  0  0  0
  3 10  2  0  0  0  0
  3 18  1  0  0  0  0
  4 11  1  0  0  0  0
  4 18  2  0  0  0  0
  5 20  1  0  0  0  0
  6 22  1  0  0  0  0
  7 12  2  0  0  0  0
  7 21  1  0  0  0  0
  8  9  2  0  0  0  0
  8 24  1  0  0  0  0
  9 26  1  0  0  0  0
 10 27  1  0  0  0  0
 11 27  2  0  0  0  0
 12 28  1  0  0  0  0
 13 14  2  0  0  0  0
 13 29  1  0  0  0  0
 14 30  1  0  0  0  0
 15 23  1  0  0  0  0
 15 28  2  0  0  0  0
 16 25  1  0  0  0  0
 16 26  2  0  0  0  0
 17 30  2  0  0  0  0
 17 31  1  0  0  0  0
 18 32  1  0  0  0  0
 19 32  1  0  0  0  0
 19 33  2  0  0  0  0
 19 34  1  0  0  0  0
 20 22  2  0  0  0  0
 20 39  1  0  0  0  0
 21 23  2  0  0  0  0
 21 40  1  0  0  0  0
 22 52  1  0  0  0  0
 23 41  1  0  0  0  0
 24 25  2  0  0  0  0
 24 56  1  0  0  0  0
 25 72  1  0  0  0  0
 26 77  1  0  0  0  0
 27 88  1  0  0  0  0
 28 89  1  0  0  0  0
 29 31  2  0  0  0  0
 29 88  1  0  0  0  0
 30 90  1  0  0  0  0
 31 91  1  0  0  0  0
 32 70  2  0  0  0  0
 33 71  1  0  0  0  0
 33 75  1  0  0  0  0
 34 76  1  0  0  0  0
 34 83  2  0  0  0  0
 35 53  1  0  0  0  0
 35 78  1  0  0  0  0
 35 84  2  0  0  0  0
 36 66  1  0  0  0  0
 36 73  1  0  0  0  0
 36 85  2  0  0  0  0
 37 67  1  0  0  0  0
 37 79  1  0  0  0  0
 37 86  2  0  0  0  0
 38 74  1  0  0  0  0
 38 80  1  0  0  0  0
 38 87  2  0  0  0  0
 39 42  1  0  0  0  0
 40 53  1  0  0  0  0
 41 73  1  0  0  0  0
 42 44  1  0  0  0  0
 43 45  1  0  0  0  0
 43 48  1  0  0  0  0
 44 52  1  0  0  0  0
 45 54  1  0  0  0  0
 46 49  1  0  0  0  0
 46 55  1  0  0  0  0
 47 50  1  0  0  0  0
 47 55  1  0  0  0  0
 48 74  1  0  0  0  0
 49 72  1  0  0  0  0
 50 72  1  0  0  0  0
 51 54  1  0  0  0  0
 51 74  1  0  0  0  0
 52 78  1  0  0  0  0
 53 73  1  0  0  0  0
 54 71  1  0  0  0  0
 55 81  1  0  0  0  0
 57 67  1  0  0  0  0
 58 68  1  0  0  0  0
 59 69  1  0  0  0  0
 60 69  1  0  0  0  0
 61 69  1  0  0  0  0
 62 82  1  0  0  0  0
 63 65  1  0  0  0  0
 63 77  1  0  0  0  0
 64 68  1  0  0  0  0
 64 81  1  0  0  0  0
 65 89  1  0  0  0  0
 66 69  1  0  0  0  0
 66 79  1  0  0  0  0
 67 82  1  0  0  0  0
 68 80  1  0  0  0  0
 70 71  1  0  0  0  0
M  CHG  2  81   1  82   1
M  ISO  4  38 100  65 101  80 100  89 101
M  END
> <Batch ID>
0137

> <Smiles>
CNC(C)C(=O)NC(C(=O)N1Cc2cc([101O:1][101CH2:1]CNc3ccc(C)c(N4CCC(NCC(C)[100NH:0][100C:0](=O)N5CCCC(n6nc(-c7ccc(Oc8ccc(F)cc8F)cc7)c(C(N)=O)c6N)C5)CC4)c3)ccc2CC1C(=O)NC1CCCc2ccccc21)C(C)(C)C

> <Shape>
0.252

> <Color>
0.092

> <Negative vol penalty>
0.000

$$$$

  -OEChem-04052321053D

 85 94  0     1  0  0  0  0  0999 V2000
  -26.6778  -33.1337   19.9150 C   0  0  0  0  0  0  0  0  0  0  0  0
  -27.6895  -32.2961   20.3736 C   0  0  0  0  0  0  0  0  0  0  0  0
  -23.1187   -9.7484   20.2316 C   0  0  0  0  0  0  0  0  0  0  0  0
  -23.7618  -10.1083   22.5325 C   0  0  0  0  0  0  0  0  0  0  0  0
  -25.3434  -32.7540   20.0541 C   0  0  0  0  0  0  0  0  0  0  0  0
  -27.3673  -31.0788   20.9726 C   0  0  0  0  0  0  0  0  0  0  0  0
  -30.5318  -25.8478   20.6141 C   0  0  0  0  0  0  0  0  0  0  0  0
  -22.3675   -8.6375   20.6153 C   0  0  0  0  0  0  0  0  0  0  0  0
  -23.0105   -8.9975   22.9162 C   0  0  0  0  0  0  0  0  0  0  0  0
  -31.4456  -25.2433   21.4763 C   0  0  0  0  0  0  0  0  0  0  0  0
  -19.7591   -8.2628   23.4719 C   0  0  0  0  0  0  0  0  0  0  0  0
  -18.9441   -8.3907   24.5966 C   0  0  0  0  0  0  0  0  0  0  0  0
  -29.6719  -23.8948   22.4009 C   0  0  0  0  0  0  0  0  0  0  0  0
  -31.9373  -16.9068   22.2361 C   0  0  0  0  0  0  0  0  0  0  0  0
  -29.7226  -17.8080   22.5826 C   0  0  0  0  0  0  0  0  0  0  0  0
  -20.1540   -6.6000   25.6768 C   0  0  0  0  0  0  0  0  0  0  0  0
  -23.8159  -10.4838   21.1902 C   0  0  0  0  0  0  0  0  0  0  0  0
  -24.1539  -12.9659   20.7083 C   0  0  0  0  0  0  0  0  0  0  0  0
  -25.0051  -31.5271   20.6464 C   0  0  0  0  0  0  0  0  0  0  0  0
  -29.1770  -25.4875   20.6464 C   0  0  0  0  0  0  0  0  0  0  0  0
  -26.0272  -30.6830   21.1210 C   0  0  0  0  0  0  0  0  0  0  0  0
  -28.7434  -24.4944   21.5363 C   0  0  0  0  0  0  0  0  0  0  0  0
  -32.4744  -17.9230   23.0263 C   0  0  0  0  0  0  0  0  0  0  0  0
  -30.2597  -18.8242   23.3728 C   0  0  0  0  0  0  0  0  0  0  0  0
  -31.6356  -18.8817   23.5946 C   0  0  0  0  0  0  0  0  0  0  0  0
  -30.5613  -16.8493   22.0142 C   0  0  0  0  0  0  0  0  0  0  0  0
  -22.3134   -8.2621   21.9576 C   0  0  0  0  0  0  0  0  0  0  0  0
  -31.0151  -24.2687   22.3719 C   0  0  0  0  0  0  0  0  0  0  0  0
  -20.7714   -7.3035   23.4496 C   0  0  0  0  0  0  0  0  0  0  0  0
  -19.1415   -7.5593   25.6991 C   0  0  0  0  0  0  0  0  0  0  0  0
  -20.9689   -6.4721   24.5520 C   0  0  0  0  0  0  0  0  0  0  0  0
  -24.5926  -11.6310   20.7943 C   0  0  0  0  0  0  0  0  0  0  0  0
  -25.2602  -13.6646   20.2907 C   0  0  0  0  0  0  0  0  0  0  0  0
  -22.8620  -13.5244   20.9815 C   0  0  0  0  0  0  0  0  0  0  0  0
  -26.4636  -27.0173   21.2796 C   0  0  0  0  0  0  0  0  0  0  0  0
  -25.1209  -24.2176   20.3407 C   0  0  0  0  0  0  0  0  0  0  0  0
  -25.4468  -20.8473   19.9148 C   0  0  0  0  0  0  0  0  0  0  0  0
  -30.7067  -14.7863   20.5756 C   0  0  0  0  0  0  0  0  0  0  0  0
  -23.5471  -31.1812   20.8176 C   0  0  0  0  0  0  0  0  0  0  0  0
  -28.2087  -26.1299   19.6912 C   0  0  0  0  0  0  0  0  0  0  0  0
  -27.3033  -24.0574   21.5964 C   0  0  0  0  0  0  0  0  0  0  0  0
  -23.3031  -29.7060   21.1251 C   0  0  0  0  0  0  0  0  0  0  0  0
  -29.7224  -12.0317   18.5457 C   0  0  0  0  0  0  0  0  0  0  0  0
  -24.2597  -29.2216   22.2101 C   0  0  0  0  0  0  0  0  0  0  0  0
  -28.2639  -11.7917   18.9427 C   0  0  0  0  0  0  0  0  0  0  0  0
  -34.1798  -22.9842   23.5679 C   0  0  0  0  0  0  0  0  0  0  0  0
  -30.5747  -12.4488   19.7429 C   0  0  0  0  0  0  0  0  0  0  0  0
  -28.5977  -13.3509   20.9035 C   0  0  0  0  0  0  0  0  0  0  0  0
  -33.8294  -21.9012   24.5683 C   0  0  0  0  0  0  0  0  0  0  0  0
  -32.6376  -21.5008   22.4662 C   0  0  0  0  0  0  0  0  0  0  0  0
  -25.7186  -29.3434   21.7539 C   0  0  1  0  0  0  0  0  0  0  0  0
  -26.7610  -26.0531   20.1662 C   0  0  1  0  0  0  0  0  0  0  0  0
  -27.6863  -12.9917   19.7186 C   0  0  2  0  0  0  0  0  0  0  0  0
  -32.9928  -22.9714   22.6202 C   0  0  1  0  0  0  0  0  0  1  0  0
  -33.9511  -17.9626   23.2479 C   0  0  0  0  0  0  0  0  0  0  0  0
  -29.3398  -19.8383   23.9698 C   0  0  0  0  0  0  0  0  0  0  0  0
  -24.1661  -18.8234   19.1659 C   0  0  0  0  0  0  0  0  0  0  0  0
  -23.5993  -24.2049   22.9855 C   0  0  0  0  0  0  0  0  0  0  0  0
  -23.1050  -21.7795   22.6093 C   0  0  0  0  0  0  0  0  0  0  0  0
  -22.2528  -23.4879   21.0038 C   0  0  0  0  0  0  0  0  0  0  0  0
  -27.3483  -20.3166   17.7098 C   0  0  0  0  0  0  0  0  0  0  0  0
  -32.2135  -19.9744   24.4450 C   0  0  0  0  0  0  0  0  0  0  0  0
  -24.7204  -22.9383   21.0348 C   0  0  1  0  0  0  0  0  0  0  0  0
  -25.1060  -19.9423   18.7446 C   0  0  2  0  0  0  0  0  0  0  0  0
  -23.4462  -23.1120   21.9088 C   0  0  0  0  0  0  0  0  0  0  0  0
  -25.8773  -11.4878   20.4582 N   0  0  0  0  0  0  0  0  0  0  0  0
  -26.2554  -12.7417   20.1568 N   0  0  0  0  0  0  0  0  0  0  0  0
  -26.3938  -24.7195   20.6468 N   0  0  0  0  0  0  0  0  0  0  0  0
  -29.9683  -13.5933   20.4264 N   0  0  0  0  0  0  0  0  0  0  0  0
  -25.4691  -14.9723   20.0285 N   0  0  0  0  0  0  0  0  0  0  0  0
  -21.8377  -12.6649   21.4015 N   0  0  0  0  0  0  0  0  0  0  0  0
  -30.0153  -15.8165   21.2124 N   0  0  0  0  0  0  0  0  0  0  0  0
  -26.0569  -28.2658   20.8491 N   0  0  0  0  0  0  0  0  0  0  0  0
  -24.5946  -21.9287   19.9892 N   0  0  0  0  0  0  0  0  0  0  0  0
  -33.1969  -20.8291   23.7120 N   0  3  2  0  0  0  0  0  0  0  0  0
  -26.3443  -19.3302   18.1853 N   0  3  0  0  0  0  0  0  0  0  0  0
  -22.6185  -14.7470   20.8412 O   0  0  0  0  0  0  0  0  0  0  0  0
  -26.5921  -26.6549   22.4432 O   0  0  0  0  0  0  0  0  0  0  0  0
  -24.3362  -24.7482   19.5505 O   0  0  0  0  0  0  0  0  0  0  0  0
  -26.3739  -20.6160   20.6878 O   0  0  0  0  0  0  0  0  0  0  0  0
  -31.8573  -14.8957   20.1443 O   0  0  0  0  0  0  0  0  0  0  0  0
  -21.5802   -7.1783   22.3325 O   0  0  0  0  0  0  0  0  0  0  0  0
  -31.9048  -23.6776   23.2150 O   0  0  0  0  0  0  0  0  0  1  0  0
  -18.3598   -7.6832   26.7797 F   0  0  0  0  0  0  0  0  0  0  0  0
  -21.9407   -5.5494   24.5369 F   0  0  0  0  0  0  0  0  0  0  0  0
  1  2  1  0  0  0  0
  1  5  2  0  0  0  0
  2  6  2  0  0  0  0
  3  8  2  0  0  0  0
  3 17  1  0  0  0  0
  4  9  1  0  0  0  0
  4 17  2  0  0  0  0
  5 19  1  0  0  0  0
  6 21  1  0  0  0  0
  7 10  2  0  0  0  0
  7 20  1  0  0  0  0
  8 27  1  0  0  0  0
  9 27  2  0  0  0  0
 10 28  1  0  0  0  0
 11 12  2  0  0  0  0
 11 29  1  0  0  0  0
 12 30  1  0  0  0  0
 13 22  1  0  0  0  0
 13 28  2  0  0  0  0
 14 23  2  0  0  0  0
 14 26  1  0  0  0  0
 15 24  1  0  0  0  0
 15 26  2  0  0  0  0
 16 30  2  0  0  0  0
 16 31  1  0  0  0  0
 17 32  1  0  0  0  0
 18 32  1  0  0  0  0
 18 33  2  0  0  0  0
 18 34  1  0  0  0  0
 19 21  2  0  0  0  0
 19 39  1  0  0  0  0
 20 22  2  0  0  0  0
 20 40  1  0  0  0  0
 21 51  1  0  0  0  0
 22 41  1  0  0  0  0
 23 25  1  0  0  0  0
 23 55  1  0  0  0  0
 24 25  2  0  0  0  0
 24 56  1  0  0  0  0
 25 62  1  0  0  0  0
 26 72  1  0  0  0  0
 27 82  1  0  0  0  0
 28 83  1  0  0  0  0
 29 31  2  0  0  0  0
 29 82  1  0  0  0  0
 30 84  1  0  0  0  0
 31 85  1  0  0  0  0
 32 66  2  0  0  0  0
 33 67  1  0  0  0  0
 33 70  1  0  0  0  0
 34 71  1  0  0  0  0
 34 77  2  0  0  0  0
 35 52  1  0  0  0  0
 35 73  1  0  0  0  0
 35 78  2  0  0  0  0
 36 63  1  0  0  0  0
 36 68  1  0  0  0  0
 36 79  2  0  0  0  0
 37 64  1  0  0  0  0
 37 74  1  0  0  0  0
 37 80  2  0  0  0  0
 38 69  1  0  0  0  0
 38 72  1  0  0  0  0
 38 81  2  0  0  0  0
 39 42  1  0  0  0  0
 40 52  1  0  0  0  0
 41 68  1  0  0  0  0
 42 44  1  0  0  0  0
 43 45  1  0  0  0  0
 43 47  1  0  0  0  0
 44 51  1  0  0  0  0
 45 53  1  0  0  0  0
 46 49  1  0  0  0  0
 46 54  1  0  0  0  0
 47 69  1  0  0  0  0
 48 53  1  0  0  0  0
 48 69  1  0  0  0  0
 49 75  1  0  0  0  0
 50 54  1  0  0  0  0
 50 75  1  0  0  0  0
 51 73  1  0  0  0  0
 52 68  1  0  0  0  0
 53 67  1  0  0  0  0
 54 83  1  0  0  0  0
 57 64  1  0  0  0  0
 58 65  1  0  0  0  0
 59 65  1  0  0  0  0
 60 65  1  0  0  0  0
 61 76  1  0  0  0  0
 62 75  1  0  0  0  0
 63 65  1  0  0  0  0
 63 74  1  0  0  0  0
 64 76  1  0  0  0  0
 66 67  1  0  0  0  0
M  CHG  2  75   1  76   1
M  ISO  4  38 100  54 101  72 100  83 101
M  END
> <Batch ID>
0137

> <Smiles>
CNC(C)C(=O)NC(C(=O)N1Cc2cc([101O:1][101CH:1]3CCN(Cc4c(C)cc([100NH:0][100C:0](=O)N5CCCC(n6nc(-c7ccc(Oc8ccc(F)cc8F)cc7)c(C(N)=O)c6N)C5)cc4C)C3)ccc2CC1C(=O)NC1CCCc2ccccc21)C(C)(C)C

> <Shape>
0.247

> <Color>
0.191

> <Negative vol penalty>
0.000

$$$$

  -OEChem-04052321053D

 83 92  0     1  0  0  0  0  0999 V2000
  -29.0880  -36.3381   23.6345 C   0  0  0  0  0  0  0  0  0  0  0  0
  -29.3436  -35.0572   23.1554 C   0  0  0  0  0  0  0  0  0  0  0  0
  -23.7388   -9.9664   22.2792 C   0  0  0  0  0  0  0  0  0  0  0  0
  -22.9893   -9.8672   19.9845 C   0  0  0  0  0  0  0  0  0  0  0  0
  -27.9295  -36.5882   24.3688 C   0  0  0  0  0  0  0  0  0  0  0  0
  -28.4412  -34.0254   23.4113 C   0  0  0  0  0  0  0  0  0  0  0  0
  -27.0617  -29.3403   19.7164 C   0  0  0  0  0  0  0  0  0  0  0  0
  -25.6077  -20.9208   19.1005 C   0  0  0  0  0  0  0  0  0  0  0  0
  -23.5167   -8.5957   22.4110 C   0  0  0  0  0  0  0  0  0  0  0  0
  -22.7673   -8.4964   20.1163 C   0  0  0  0  0  0  0  0  0  0  0  0
  -27.5007  -28.0176   19.6749 C   0  0  0  0  0  0  0  0  0  0  0  0
  -20.8811   -6.5347   22.8908 C   0  0  0  0  0  0  0  0  0  0  0  0
  -20.2294   -6.0923   24.0419 C   0  0  0  0  0  0  0  0  0  0  0  0
  -24.7287  -20.0629   18.4489 C   0  0  0  0  0  0  0  0  0  0  0  0
  -25.5686  -27.3427   20.9519 C   0  0  0  0  0  0  0  0  0  0  0  0
  -22.1521   -4.7452   24.6128 C   0  0  0  0  0  0  0  0  0  0  0  0
  -23.7582  -22.3082   19.6583 C   0  0  0  0  0  0  0  0  0  0  0  0
  -23.4751  -10.6022   21.0659 C   0  0  0  0  0  0  0  0  0  0  0  0
  -24.8905  -12.6515   20.5141 C   0  0  0  0  0  0  0  0  0  0  0  0
  -27.0077  -35.5611   24.6255 C   0  0  0  0  0  0  0  0  0  0  0  0
  -25.8765  -29.6762   20.3864 C   0  0  0  0  0  0  0  0  0  0  0  0
  -27.2699  -34.2617   24.1509 C   0  0  0  0  0  0  0  0  0  0  0  0
  -25.1154  -28.6699   20.9983 C   0  0  0  0  0  0  0  0  0  0  0  0
  -25.1213  -22.0670   19.7193 C   0  0  0  0  0  0  0  0  0  0  0  0
  -23.0310   -7.8607   21.3296 C   0  0  0  0  0  0  0  0  0  0  0  0
  -26.7556  -27.0190   20.2952 C   0  0  0  0  0  0  0  0  0  0  0  0
  -22.1683   -6.0823   22.6006 C   0  0  0  0  0  0  0  0  0  0  0  0
  -20.8648   -5.1976   24.9029 C   0  0  0  0  0  0  0  0  0  0  0  0
  -22.8038   -5.1876   23.4616 C   0  0  0  0  0  0  0  0  0  0  0  0
  -23.7038  -12.0182   20.9293 C   0  0  0  0  0  0  0  0  0  0  0  0
  -23.3831  -20.3937   18.4450 C   0  0  0  0  0  0  0  0  0  0  0  0
  -24.5954  -13.9924   20.5516 C   0  0  0  0  0  0  0  0  0  0  0  0
  -26.1472  -12.0789   20.1288 C   0  0  0  0  0  0  0  0  0  0  0  0
  -25.1503  -31.5180   22.8732 C   0  0  0  0  0  0  0  0  0  0  0  0
  -22.1046  -30.7939   22.0238 C   0  0  0  0  0  0  0  0  0  0  0  0
  -19.9676  -28.6461   20.4531 C   0  0  0  0  0  0  0  0  0  0  0  0
  -21.1453  -18.2479   19.4872 C   0  0  0  0  0  0  0  0  0  0  0  0
  -25.7926  -35.8690   25.4642 C   0  0  0  0  0  0  0  0  0  0  0  0
  -25.4028  -31.1037   20.3992 C   0  0  0  0  0  0  0  0  0  0  0  0
  -23.8255  -28.9752   21.7132 C   0  0  0  0  0  0  0  0  0  0  0  0
  -24.7028  -34.8041   25.3718 C   0  0  0  0  0  0  0  0  0  0  0  0
  -20.6207  -16.4352   22.5064 C   0  0  0  0  0  0  0  0  0  0  0  0
  -25.3052  -33.4100   25.5149 C   0  0  0  0  0  0  0  0  0  0  0  0
  -21.4686  -15.1745   22.3281 C   0  0  0  0  0  0  0  0  0  0  0  0
  -27.8503  -23.7768   21.5161 C   0  0  0  0  0  0  0  0  0  0  0  0
  -19.9824  -16.8766   21.1912 C   0  0  0  0  0  0  0  0  0  0  0  0
  -27.4129  -22.7452   20.4763 C   0  0  0  0  0  0  0  0  0  0  0  0
  -21.7752  -15.7915   19.8942 C   0  0  0  0  0  0  0  0  0  0  0  0
  -25.5302  -24.1623   21.0402 C   0  0  0  0  0  0  0  0  0  0  0  0
  -26.3029  -33.1217   24.3866 C   0  0  1  0  0  0  0  0  0  0  0  0
  -24.4477  -31.4060   21.5498 C   0  0  1  0  0  0  0  0  0  0  0  0
  -22.4847  -15.3396   21.1821 C   0  0  2  0  0  0  0  0  0  0  0  0
  -26.8321  -24.8966   21.3578 C   0  0  2  0  0  0  0  0  0  1  0  0
  -17.5316  -28.3011   19.9590 C   0  0  0  0  0  0  0  0  0  0  0  0
  -21.6540  -29.8754   24.8984 C   0  0  0  0  0  0  0  0  0  0  0  0
  -19.5883  -28.6923   24.1229 C   0  0  0  0  0  0  0  0  0  0  0  0
  -19.7584  -31.1718   23.9082 C   0  0  0  0  0  0  0  0  0  0  0  0
  -20.4236  -28.7703   17.5315 C   0  0  0  0  0  0  0  0  0  0  0  0
  -22.4113  -19.4956   17.7552 C   0  0  0  0  0  0  0  0  0  0  0  0
  -21.1280  -29.6982   22.3769 C   0  0  1  0  0  0  0  0  0  0  0  0
  -18.8434  -28.8887   19.4623 C   0  0  2  0  0  0  0  0  0  0  0  0
  -20.5574  -29.8536   23.8149 C   0  0  0  0  0  0  0  0  0  0  0  0
  -22.8734  -21.4982   19.0349 N   0  0  0  0  0  0  0  0  0  0  0  0
  -22.7275  -12.8854   21.2101 N   0  0  0  0  0  0  0  0  0  0  0  0
  -23.3004  -14.0774   20.9710 N   0  0  0  0  0  0  0  0  0  0  0  0
  -25.9693  -22.9361   20.3729 N   0  0  3  0  0  0  0  0  0  0  0  0
  -23.4075  -30.3869   21.7035 N   0  0  0  0  0  0  0  0  0  0  0  0
  -20.9998  -17.0162   20.1465 N   0  0  0  0  0  0  0  0  0  0  0  0
  -25.3199  -15.0952   20.2665 N   0  0  0  0  0  0  0  0  0  0  0  0
  -26.2793  -10.6837   20.1468 N   0  0  0  0  0  0  0  0  0  0  0  0
  -25.6020  -32.7911   23.1644 N   0  0  0  0  0  0  0  0  0  0  0  0
  -20.1139  -29.7017   21.3281 N   0  0  0  0  0  0  0  0  0  0  0  0
  -22.1371  -18.2964   18.5152 N   0  0  0  0  0  0  0  0  0  0  0  0
  -19.1687  -28.2673   18.1474 N   0  3  0  0  0  0  0  0  0  0  0  0
  -27.1292  -12.7842   19.7947 O   0  0  0  0  0  0  0  0  0  0  0  0
  -25.2722  -30.5234   23.5786 O   0  0  0  0  0  0  0  0  0  0  0  0
  -21.7235  -31.9671   22.0249 O   0  0  0  0  0  0  0  0  0  0  0  0
  -20.6456  -27.6210   20.4534 O   0  0  0  0  0  0  0  0  0  0  0  0
  -20.4470  -19.2331   19.7494 O   0  0  0  0  0  0  0  0  0  0  0  0
  -22.8144   -6.5230   21.4578 O   0  0  0  0  0  0  0  0  0  0  0  0
  -27.1822  -25.7273   20.2568 O   0  0  0  0  0  0  0  0  0  1  0  0
  -20.2395   -4.7740   26.0091 F   0  0  0  0  0  0  0  0  0  0  0  0
  -24.0408   -4.7504   23.1888 F   0  0  0  0  0  0  0  0  0  0  0  0
  1  2  1  0  0  0  0
  1  5  2  0  0  0  0
  2  6  2  0  0  0  0
  3  9  2  0  0  0  0
  3 18  1  0  0  0  0
  4 10  1  0  0  0  0
  4 18  2  0  0  0  0
  5 20  1  0  0  0  0
  6 22  1  0  0  0  0
  7 11  2  0  0  0  0
  7 21  1  0  0  0  0
  8 14  2  0  0  0  0
  8 24  1  0  0  0  0
  9 25  1  0  0  0  0
 10 25  2  0  0  0  0
 11 26  1  0  0  0  0
 12 13  2  0  0  0  0
 12 27  1  0  0  0  0
 13 28  1  0  0  0  0
 14 31  1  0  0  0  0
 15 23  1  0  0  0  0
 15 26  2  0  0  0  0
 16 28  2  0  0  0  0
 16 29  1  0  0  0  0
 17 24  2  0  0  0  0
 17 63  1  0  0  0  0
 18 30  1  0  0  0  0
 19 30  1  0  0  0  0
 19 32  2  0  0  0  0
 19 33  1  0  0  0  0
 20 22  2  0  0  0  0
 20 38  1  0  0  0  0
 21 23  2  0  0  0  0
 21 39  1  0  0  0  0
 22 50  1  0  0  0  0
 23 40  1  0  0  0  0
 24 66  1  0  0  0  0
 25 80  1  0  0  0  0
 26 81  1  0  0  0  0
 27 29  2  0  0  0  0
 27 80  1  0  0  0  0
 28 82  1  0  0  0  0
 29 83  1  0  0  0  0
 30 64  2  0  0  0  0
 31 59  1  0  0  0  0
 31 63  2  0  0  0  0
 32 65  1  0  0  0  0
 32 69  1  0  0  0  0
 33 70  1  0  0  0  0
 33 75  2  0  0  0  0
 34 51  1  0  0  0  0
 34 71  1  0  0  0  0
 34 76  2  0  0  0  0
 35 60  1  0  0  0  0
 35 67  1  0  0  0  0
 35 77  2  0  0  0  0
 36 61  1  0  0  0  0
 36 72  1  0  0  0  0
 36 78  2  0  0  0  0
 37 68  1  0  0  0  0
 37 73  1  0  0  0  0
 37 79  2  0  0  0  0
 38 41  1  0  0  0  0
 39 51  1  0  0  0  0
 40 67  1  0  0  0  0
 41 43  1  0  0  0  0
 42 44  1  0  0  0  0
 42 46  1  0  0  0  0
 43 50  1  0  0  0  0
 44 52  1  0  0  0  0
 45 47  1  0  0  0  0
 45 53  1  0  0  0  0
 46 68  1  0  0  0  0
 47 66  1  0  0  0  0
 48 52  1  0  0  0  0
 48 68  1  0  0  0  0
 49 53  1  0  0  0  0
 49 66  1  0  0  0  0
 50 71  1  0  0  0  0
 51 67  1  0  0  0  0
 52 65  1  0  0  0  0
 53 81  1  0  0  0  0
 54 61  1  0  0  0  0
 55 62  1  0  0  0  0
 56 62  1  0  0  0  0
 57 62  1  0  0  0  0
 58 74  1  0  0  0  0
 59 73  1  0  0  0  0
 60 62  1  0  0  0  0
 60 72  1  0  0  0  0
 61 74  1  0  0  0  0
 64 65  1  0  0  0  0
M  CHG  1  74   1
M  ISO  4  37 100  53 101  73 100  81 101
M  END
> <Batch ID>
0137

> <Smiles>
CNC(C)C(=O)NC(C(=O)N1Cc2cc([101O:1][101CH:1]3CCN(c4ccc(C[100NH:0][100C:0](=O)N5CCCC(n6nc(-c7ccc(Oc8ccc(F)cc8F)cc7)c(C(N)=O)c6N)C5)nc4)C3)ccc2CC1C(=O)NC1CCCc2ccccc21)C(C)(C)C

> <Shape>
0.269

> <Color>
0.125

> <Negative vol penalty>
0.000

$$$$

  -OEChem-04052321053D

 86 95  0     1  0  0  0  0  0999 V2000
  -29.9208  -36.5857   20.7610 C   0  0  0  0  0  0  0  0  0  0  0  0
  -29.9921  -35.2116   20.5555 C   0  0  0  0  0  0  0  0  0  0  0  0
  -23.5251  -10.2545   22.1227 C   0  0  0  0  0  0  0  0  0  0  0  0
  -24.7170   -8.3729   21.1868 C   0  0  0  0  0  0  0  0  0  0  0  0
  -28.9944  -37.1074   21.6629 C   0  0  0  0  0  0  0  0  0  0  0  0
  -29.1377  -34.3583   21.2528 C   0  0  0  0  0  0  0  0  0  0  0  0
  -27.6779  -21.4380   19.4169 C   0  0  0  0  0  0  0  0  0  0  0  0
  -26.6750  -29.1373   19.2076 C   0  0  0  0  0  0  0  0  0  0  0  0
  -27.4711  -22.7875   19.1315 C   0  0  0  0  0  0  0  0  0  0  0  0
  -22.3737   -9.4740   22.2257 C   0  0  0  0  0  0  0  0  0  0  0  0
  -23.5656   -7.5923   21.2898 C   0  0  0  0  0  0  0  0  0  0  0  0
  -27.0312  -27.8007   19.3821 C   0  0  0  0  0  0  0  0  0  0  0  0
  -21.0402   -5.0006   21.6409 C   0  0  0  0  0  0  0  0  0  0  0  0
  -21.1745   -3.7097   22.1518 C   0  0  0  0  0  0  0  0  0  0  0  0
  -25.4512  -27.6228   21.1963 C   0  0  0  0  0  0  0  0  0  0  0  0
  -28.7039  -23.3966   21.1181 C   0  0  0  0  0  0  0  0  0  0  0  0
  -22.0392   -4.6170   24.2173 C   0  0  0  0  0  0  0  0  0  0  0  0
  -24.6968   -9.7040   21.6032 C   0  0  0  0  0  0  0  0  0  0  0  0
  -26.8962  -10.6679   22.4640 C   0  0  0  0  0  0  0  0  0  0  0  0
  -28.1216  -36.2607   22.3644 C   0  0  0  0  0  0  0  0  0  0  0  0
  -25.7105  -29.7307   20.0347 C   0  0  0  0  0  0  0  0  0  0  0  0
  -28.1996  -34.8690   22.1659 C   0  0  0  0  0  0  0  0  0  0  0  0
  -28.3977  -21.0677   20.5530 C   0  0  0  0  0  0  0  0  0  0  0  0
  -25.0828  -28.9664   21.0286 C   0  0  0  0  0  0  0  0  0  0  0  0
  -27.9841  -23.7668   19.9821 C   0  0  0  0  0  0  0  0  0  0  0  0
  -28.9107  -22.0470   21.4035 C   0  0  0  0  0  0  0  0  0  0  0  0
  -22.3940   -8.1429   21.8093 C   0  0  0  0  0  0  0  0  0  0  0  0
  -26.4213  -27.0441   20.3785 C   0  0  0  0  0  0  0  0  0  0  0  0
  -21.4054   -6.0998   22.4182 C   0  0  0  0  0  0  0  0  0  0  0  0
  -21.6740   -3.5179   23.4400 C   0  0  0  0  0  0  0  0  0  0  0  0
  -21.9048   -5.9080   23.7064 C   0  0  0  0  0  0  0  0  0  0  0  0
  -25.8864  -10.5100   21.4960 C   0  0  0  0  0  0  0  0  0  0  0  0
  -27.7973  -11.5265   21.8831 C   0  0  0  0  0  0  0  0  0  0  0  0
  -27.0097  -10.0901   23.7712 C   0  0  0  0  0  0  0  0  0  0  0  0
  -25.7097  -32.1396   22.1086 C   0  0  0  0  0  0  0  0  0  0  0  0
  -22.5195  -31.5574   22.1884 C   0  0  0  0  0  0  0  0  0  0  0  0
  -19.9659  -29.3431   21.7167 C   0  0  0  0  0  0  0  0  0  0  0  0
  -29.0804  -15.9796   18.9600 C   0  0  0  0  0  0  0  0  0  0  0  0
  -27.1690  -36.8673   23.3641 C   0  0  0  0  0  0  0  0  0  0  0  0
  -25.3182  -31.1663   19.8162 C   0  0  0  0  0  0  0  0  0  0  0  0
  -24.0267  -29.5507   21.9297 C   0  0  0  0  0  0  0  0  0  0  0  0
  -26.0449  -35.9239   23.7843 C   0  0  0  0  0  0  0  0  0  0  0  0
  -28.1825  -13.1885   17.1291 C   0  0  0  0  0  0  0  0  0  0  0  0
  -26.6021  -34.5422   24.1119 C   0  0  0  0  0  0  0  0  0  0  0  0
  -27.5863  -12.2452   18.1736 C   0  0  0  0  0  0  0  0  0  0  0  0
  -27.4240  -18.7355   20.3666 C   0  0  0  0  0  0  0  0  0  0  0  0
  -29.9302  -19.0726   20.2462 C   0  0  0  0  0  0  0  0  0  0  0  0
  -27.7410  -14.6262   17.3771 C   0  0  0  0  0  0  0  0  0  0  0  0
  -27.6592  -17.2459   20.6325 C   0  0  0  0  0  0  0  0  0  0  0  0
  -30.1064  -17.5856   20.5400 C   0  0  0  0  0  0  0  0  0  0  0  0
  -27.4824  -14.1986   19.7996 C   0  0  0  0  0  0  0  0  0  0  0  0
  -28.6100  -19.5937   20.8424 C   0  0  0  0  0  0  0  0  0  0  0  0
  -27.2729  -33.9128   22.8850 C   0  0  1  0  0  0  0  0  0  0  0  0
  -24.6948  -31.8099   21.0508 C   0  0  1  0  0  0  0  0  0  0  0  0
  -27.9030  -12.7283   19.6000 C   0  0  1  0  0  0  0  0  0  0  0  0
  -28.9979  -22.1465   23.9206 C   0  0  0  0  0  0  0  0  0  0  0  0
  -31.1340  -22.1905   22.5826 C   0  0  0  0  0  0  0  0  0  0  0  0
  -17.4709  -29.1455   21.8993 C   0  0  0  0  0  0  0  0  0  0  0  0
  -22.7608  -31.3461   25.2228 C   0  0  0  0  0  0  0  0  0  0  0  0
  -20.5169  -30.2360   25.2540 C   0  0  0  0  0  0  0  0  0  0  0  0
  -20.7369  -32.5768   24.4203 C   0  0  0  0  0  0  0  0  0  0  0  0
  -19.6832  -28.7730   18.8264 C   0  0  0  0  0  0  0  0  0  0  0  0
  -27.7626  -25.2097   19.6770 C   0  0  0  0  0  0  0  0  0  1  0  0
  -29.6841  -21.6745   22.6258 C   0  0  0  0  0  0  0  0  0  0  0  0
  -21.6148  -30.6710   23.0098 C   0  0  1  0  0  0  0  0  0  0  0  0
  -18.6417  -29.4734   20.9859 C   0  0  2  0  0  0  0  0  0  0  0  0
  -21.4286  -31.1967   24.4612 C   0  0  0  0  0  0  0  0  0  0  0  0
  -26.1230  -11.2120   20.3846 N   0  0  0  0  0  0  0  0  0  0  0  0
  -27.2919  -11.8195   20.6507 N   0  0  0  0  0  0  0  0  0  0  0  0
  -23.6821  -30.9602   21.6808 N   0  0  0  0  0  0  0  0  0  0  0  0
  -28.0558  -15.0461   18.7426 N   0  0  0  0  0  0  0  0  0  0  0  0
  -28.9508  -16.8172   20.0780 N   0  0  0  0  0  0  0  0  0  0  0  0
  -28.9647  -12.0520   22.3115 N   0  0  0  0  0  0  0  0  0  0  0  0
  -25.9951   -9.2293   24.2116 N   0  0  0  0  0  0  0  0  0  0  0  0
  -26.2753  -33.3932   21.9744 N   0  0  0  0  0  0  0  0  0  0  0  0
  -20.3722  -30.5454   22.2558 N   0  0  0  0  0  0  0  0  0  0  0  0
  -18.6009  -28.5476   19.8187 N   0  3  0  0  0  0  0  0  0  0  0  0
  -27.9738  -10.3430   24.5328 O   0  0  0  0  0  0  0  0  0  0  0  0
  -25.9599  -31.3180   22.9828 O   0  0  0  0  0  0  0  0  0  0  0  0
  -22.2028  -32.7343   21.9981 O   0  0  0  0  0  0  0  0  0  0  0  0
  -20.5767  -28.2802   21.8040 O   0  0  0  0  0  0  0  0  0  0  0  0
  -30.0543  -16.0600   18.2008 O   0  0  0  0  0  0  0  0  0  0  0  0
  -21.2707   -7.3809   21.9099 O   0  0  0  0  0  0  0  0  0  0  0  0
  -26.7699  -25.7304   20.5525 O   0  0  0  0  0  0  0  0  0  1  0  0
  -21.8015   -2.2782   23.9310 F   0  0  0  0  0  0  0  0  0  0  0  0
  -22.2562   -6.9601   24.4583 F   0  0  0  0  0  0  0  0  0  0  0  0
  1  2  1  0  0  0  0
  1  5  2  0  0  0  0
  2  6  2  0  0  0  0
  3 10  2  0  0  0  0
  3 18  1  0  0  0  0
  4 11  1  0  0  0  0
  4 18  2  0  0  0  0
  5 20  1  0  0  0  0
  6 22  1  0  0  0  0
  7  9  2  0  0  0  0
  7 23  1  0  0  0  0
  8 12  2  0  0  0  0
  8 21  1  0  0  0  0
  9 25  1  0  0  0  0
 10 27  1  0  0  0  0
 11 27  2  0  0  0  0
 12 28  1  0  0  0  0
 13 14  2  0  0  0  0
 13 29  1  0  0  0  0
 14 30  1  0  0  0  0
 15 24  1  0  0  0  0
 15 28  2  0  0  0  0
 16 25  2  0  0  0  0
 16 26  1  0  0  0  0
 17 30  2  0  0  0  0
 17 31  1  0  0  0  0
 18 32  1  0  0  0  0
 19 32  1  0  0  0  0
 19 33  2  0  0  0  0
 19 34  1  0  0  0  0
 20 22  2  0  0  0  0
 20 39  1  0  0  0  0
 21 24  2  0  0  0  0
 21 40  1  0  0  0  0
 22 53  1  0  0  0  0
 23 26  2  0  0  0  0
 23 52  1  0  0  0  0
 24 41  1  0  0  0  0
 25 63  1  0  0  0  0
 26 64  1  0  0  0  0
 27 83  1  0  0  0  0
 28 84  1  0  0  0  0
 29 31  2  0  0  0  0
 29 83  1  0  0  0  0
 30 85  1  0  0  0  0
 31 86  1  0  0  0  0
 32 68  2  0  0  0  0
 33 69  1  0  0  0  0
 33 73  1  0  0  0  0
 34 74  1  0  0  0  0
 34 78  2  0  0  0  0
 35 54  1  0  0  0  0
 35 75  1  0  0  0  0
 35 79  2  0  0  0  0
 36 65  1  0  0  0  0
 36 70  1  0  0  0  0
 36 80  2  0  0  0  0
 37 66  1  0  0  0  0
 37 76  1  0  0  0  0
 37 81  2  0  0  0  0
 38 71  1  0  0  0  0
 38 72  1  0  0  0  0
 38 82  2  0  0  0  0
 39 42  1  0  0  0  0
 40 54  1  0  0  0  0
 41 70  1  0  0  0  0
 42 44  1  0  0  0  0
 43 45  1  0  0  0  0
 43 48  1  0  0  0  0
 44 53  1  0  0  0  0
 45 55  1  0  0  0  0
 46 49  1  0  0  0  0
 46 52  1  0  0  0  0
 47 50  1  0  0  0  0
 47 52  1  0  0  0  0
 48 71  1  0  0  0  0
 49 72  1  0  0  0  0
 50 72  1  0  0  0  0
 51 55  1  0  0  0  0
 51 71  1  0  0  0  0
 53 75  1  0  0  0  0
 54 70  1  0  0  0  0
 55 69  1  0  0  0  0
 56 64  1  0  0  0  0
 57 64  1  0  0  0  0
 58 66  1  0  0  0  0
 59 67  1  0  0  0  0
 60 67  1  0  0  0  0
 61 67  1  0  0  0  0
 62 77  1  0  0  0  0
 63 84  1  0  0  0  0
 65 67  1  0  0  0  0
 65 76  1  0  0  0  0
 66 77  1  0  0  0  0
 68 69  1  0  0  0  0
M  CHG  1  77   1
M  ISO  4  38 100  63 101  72 100  84 101
M  END
> <Batch ID>
0137

> <Smiles>
CNC(C)C(=O)NC(C(=O)N1Cc2cc([101O:1][101CH2:1]c3ccc(C4CC[100N:0]([100C:0](=O)N5CCCC(n6nc(-c7ccc(Oc8ccc(F)cc8F)cc7)c(C(N)=O)c6N)C5)CC4)c(C(C)C)c3)ccc2CC1C(=O)NC1CCCc2ccccc21)C(C)(C)C

> <Shape>
0.296

> <Color>
0.089

> <Negative vol penalty>
0.000

$$$$

  -OEChem-04052321053D

 86 95  0     1  0  0  0  0  0999 V2000
  -16.8727  -29.3593   24.0636 C   0  0  0  0  0  0  0  0  0  0  0  0
  -17.2426  -28.0197   23.9993 C   0  0  0  0  0  0  0  0  0  0  0  0
  -31.8247  -18.9870   22.9726 C   0  0  0  0  0  0  0  0  0  0  0  0
  -32.2740  -18.4197   21.7802 C   0  0  0  0  0  0  0  0  0  0  0  0
  -23.8441  -10.0372   22.3459 C   0  0  0  0  0  0  0  0  0  0  0  0
  -24.3290  -11.5949   24.1279 C   0  0  0  0  0  0  0  0  0  0  0  0
  -17.7047  -30.3378   23.5213 C   0  0  0  0  0  0  0  0  0  0  0  0
  -18.4443  -27.6578   23.3916 C   0  0  0  0  0  0  0  0  0  0  0  0
  -22.1564  -23.0667   25.0189 C   0  0  0  0  0  0  0  0  0  0  0  0
  -30.9843  -18.2615   23.8170 C   0  0  0  0  0  0  0  0  0  0  0  0
  -31.8829  -17.1269   21.4321 C   0  0  0  0  0  0  0  0  0  0  0  0
  -23.3392   -9.1294   23.2768 C   0  0  0  0  0  0  0  0  0  0  0  0
  -23.8240  -10.6871   25.0588 C   0  0  0  0  0  0  0  0  0  0  0  0
  -22.3158  -21.7710   24.5295 C   0  0  0  0  0  0  0  0  0  0  0  0
  -20.4862   -8.6962   25.0392 C   0  0  0  0  0  0  0  0  0  0  0  0
  -19.2802   -8.0631   24.7388 C   0  0  0  0  0  0  0  0  0  0  0  0
  -24.1483  -22.5229   23.1527 C   0  0  0  0  0  0  0  0  0  0  0  0
  -20.3812   -5.9152   24.8462 C   0  0  0  0  0  0  0  0  0  0  0  0
  -24.3391  -11.2699   22.7715 C   0  0  0  0  0  0  0  0  0  0  0  0
  -24.1482  -13.2113   21.1276 C   0  0  0  0  0  0  0  0  0  0  0  0
  -18.9218  -29.9886   22.9152 C   0  0  0  0  0  0  0  0  0  0  0  0
  -22.9860  -24.1042   24.5699 C   0  0  0  0  0  0  0  0  0  0  0  0
  -19.2927  -28.6324   22.8394 C   0  0  0  0  0  0  0  0  0  0  0  0
  -23.9990  -23.8304   23.6398 C   0  0  0  0  0  0  0  0  0  0  0  0
  -30.5932  -16.9686   23.4689 C   0  0  0  0  0  0  0  0  0  0  0  0
  -31.0425  -16.4013   22.2765 C   0  0  0  0  0  0  0  0  0  0  0  0
  -23.3291   -9.4544   24.6332 C   0  0  0  0  0  0  0  0  0  0  0  0
  -23.3100  -21.4995   23.5941 C   0  0  0  0  0  0  0  0  0  0  0  0
  -21.6398   -7.9389   25.2429 C   0  0  0  0  0  0  0  0  0  0  0  0
  -19.2277   -6.6725   24.6423 C   0  0  0  0  0  0  0  0  0  0  0  0
  -21.5872   -6.5484   25.1465 C   0  0  0  0  0  0  0  0  0  0  0  0
  -24.8614  -12.2078   21.8104 C   0  0  0  0  0  0  0  0  0  0  0  0
  -25.0895  -13.8240   20.3370 C   0  0  0  0  0  0  0  0  0  0  0  0
  -22.7591  -13.5585   21.2014 C   0  0  0  0  0  0  0  0  0  0  0  0
  -22.5181  -26.8385   23.0179 C   0  0  0  0  0  0  0  0  0  0  0  0
  -25.6774  -27.2671   23.6157 C   0  0  0  0  0  0  0  0  0  0  0  0
  -28.7136  -25.8651   24.2959 C   0  0  0  0  0  0  0  0  0  0  0  0
  -31.0229  -14.3955   20.7523 C   0  0  0  0  0  0  0  0  0  0  0  0
  -19.7656  -31.0773   22.3009 C   0  0  0  0  0  0  0  0  0  0  0  0
  -22.8185  -25.4911   25.1275 C   0  0  0  0  0  0  0  0  0  0  0  0
  -24.9290  -24.9049   23.1408 C   0  0  0  0  0  0  0  0  0  0  0  0
  -21.1995  -30.6439   22.0070 C   0  0  0  0  0  0  0  0  0  0  0  0
  -29.2069  -12.9472   18.0539 C   0  0  0  0  0  0  0  0  0  0  0  0
  -21.2152  -29.2847   21.3148 C   0  0  0  0  0  0  0  0  0  0  0  0
  -27.8197  -12.6902   18.6471 C   0  0  0  0  0  0  0  0  0  0  0  0
  -26.0274  -15.9460   24.4723 C   0  0  0  0  0  0  0  0  0  0  0  0
  -30.3152  -12.7027   19.0765 C   0  0  0  0  0  0  0  0  0  0  0  0
  -27.4255  -15.4176   24.7960 C   0  0  0  0  0  0  0  0  0  0  0  0
  -28.7712  -13.1665   20.9394 C   0  0  0  0  0  0  0  0  0  0  0  0
  -27.7241  -17.4830   23.7429 C   0  0  0  0  0  0  0  0  0  0  0  0
  -20.6002  -28.2024   22.2103 C   0  0  1  0  0  0  0  0  0  0  0  0
  -23.3862  -26.5744   24.2156 C   0  0  1  0  0  0  0  0  0  0  0  0
  -27.6188  -13.4624   19.9657 C   0  0  2  0  0  0  0  0  0  0  0  0
  -26.2734  -17.1060   23.5183 C   0  0  2  0  0  0  0  0  0  0  0  0
  -31.1168  -26.4678   24.6944 C   0  0  0  0  0  0  0  0  0  0  0  0
  -26.0497  -27.7491   20.6258 C   0  0  0  0  0  0  0  0  0  0  0  0
  -28.5078  -27.3981   20.9461 C   0  0  0  0  0  0  0  0  0  0  0  0
  -27.3584  -29.2868   22.1013 C   0  0  0  0  0  0  0  0  0  0  0  0
  -28.6723  -24.7099   27.0204 C   0  0  0  0  0  0  0  0  0  0  0  0
  -29.6880  -16.2113   24.3970 C   0  0  0  0  0  0  0  0  0  0  0  0
  -23.9320  -17.9341   23.6329 C   0  0  0  0  0  0  0  0  0  0  0  0
  -23.1157  -19.1618   23.9857 C   0  0  0  0  0  0  0  0  0  1  0  0
  -26.9583  -26.9203   22.8959 C   0  0  1  0  0  0  0  0  0  0  0  0
  -29.7658  -26.1977   25.3384 C   0  0  2  0  0  0  0  0  0  0  0  0
  -27.1999  -27.8185   21.6501 C   0  0  0  0  0  0  0  0  0  0  0  0
  -26.1558  -12.1811   21.4822 N   0  0  0  0  0  0  0  0  0  0  0  0
  -26.2634  -13.1754   20.5844 N   0  0  0  0  0  0  0  0  0  0  0  0
  -24.7211  -26.2462   23.7112 N   0  0  0  0  0  0  0  0  0  0  0  0
  -30.0601  -13.4697   20.2978 N   0  0  0  0  0  0  0  0  0  0  0  0
  -28.3220  -16.1548   23.8994 N   0  0  1  0  0  0  0  0  0  0  0  0
  -25.0192  -14.8489   19.4612 N   0  0  0  0  0  0  0  0  0  0  0  0
  -21.9325  -12.8268   22.0649 N   0  0  0  0  0  0  0  0  0  0  0  0
  -30.6563  -15.0895   21.9050 N   0  0  0  0  0  0  0  0  0  0  0  0
  -21.5428  -27.7942   23.2298 N   0  0  0  0  0  0  0  0  0  0  0  0
  -28.0190  -26.9869   23.8954 N   0  0  0  0  0  0  0  0  0  0  0  0
  -25.3748  -18.2387   23.8055 N   0  3  0  0  0  0  0  0  0  0  0  0
  -29.9199  -25.0678   26.2977 N   0  3  0  0  0  0  0  0  0  0  0  0
  -22.2622  -14.4794   20.5096 O   0  0  0  0  0  0  0  0  0  0  0  0
  -22.7192  -26.2220   21.9782 O   0  0  0  0  0  0  0  0  0  0  0  0
  -25.5336  -28.3999   24.0823 O   0  0  0  0  0  0  0  0  0  0  0  0
  -28.5290  -24.7249   23.8761 O   0  0  0  0  0  0  0  0  0  0  0  0
  -32.0821  -14.5802   20.1473 O   0  0  0  0  0  0  0  0  0  0  0  0
  -22.8362   -8.5689   25.5418 O   0  0  0  0  0  0  0  0  0  0  0  0
  -23.4674  -20.2358   23.1144 O   0  0  0  0  0  0  0  0  0  1  0  0
  -18.0691   -6.0646   24.3554 F   0  0  0  0  0  0  0  0  0  0  0  0
  -22.6918   -5.8154   25.3424 F   0  0  0  0  0  0  0  0  0  0  0  0
  1  2  1  0  0  0  0
  1  7  2  0  0  0  0
  2  8  2  0  0  0  0
  3  4  1  0  0  0  0
  3 10  2  0  0  0  0
  4 11  2  0  0  0  0
  5 12  2  0  0  0  0
  5 19  1  0  0  0  0
  6 13  1  0  0  0  0
  6 19  2  0  0  0  0
  7 21  1  0  0  0  0
  8 23  1  0  0  0  0
  9 14  2  0  0  0  0
  9 22  1  0  0  0  0
 10 25  1  0  0  0  0
 11 26  1  0  0  0  0
 12 27  1  0  0  0  0
 13 27  2  0  0  0  0
 14 28  1  0  0  0  0
 15 16  2  0  0  0  0
 15 29  1  0  0  0  0
 16 30  1  0  0  0  0
 17 24  1  0  0  0  0
 17 28  2  0  0  0  0
 18 30  2  0  0  0  0
 18 31  1  0  0  0  0
 19 32  1  0  0  0  0
 20 32  1  0  0  0  0
 20 33  2  0  0  0  0
 20 34  1  0  0  0  0
 21 23  2  0  0  0  0
 21 39  1  0  0  0  0
 22 24  2  0  0  0  0
 22 40  1  0  0  0  0
 23 51  1  0  0  0  0
 24 41  1  0  0  0  0
 25 26  2  0  0  0  0
 25 60  1  0  0  0  0
 26 73  1  0  0  0  0
 27 83  1  0  0  0  0
 28 84  1  0  0  0  0
 29 31  2  0  0  0  0
 29 83  1  0  0  0  0
 30 85  1  0  0  0  0
 31 86  1  0  0  0  0
 32 66  2  0  0  0  0
 33 67  1  0  0  0  0
 33 71  1  0  0  0  0
 34 72  1  0  0  0  0
 34 78  2  0  0  0  0
 35 52  1  0  0  0  0
 35 74  1  0  0  0  0
 35 79  2  0  0  0  0
 36 63  1  0  0  0  0
 36 68  1  0  0  0  0
 36 80  2  0  0  0  0
 37 64  1  0  0  0  0
 37 75  1  0  0  0  0
 37 81  2  0  0  0  0
 38 69  1  0  0  0  0
 38 73  1  0  0  0  0
 38 82  2  0  0  0  0
 39 42  1  0  0  0  0
 40 52  1  0  0  0  0
 41 68  1  0  0  0  0
 42 44  1  0  0  0  0
 43 45  1  0  0  0  0
 43 47  1  0  0  0  0
 44 51  1  0  0  0  0
 45 53  1  0  0  0  0
 46 48  1  0  0  0  0
 46 54  1  0  0  0  0
 47 69  1  0  0  0  0
 48 70  1  0  0  0  0
 49 53  1  0  0  0  0
 49 69  1  0  0  0  0
 50 54  1  0  0  0  0
 50 70  1  0  0  0  0
 51 74  1  0  0  0  0
 52 68  1  0  0  0  0
 53 67  1  0  0  0  0
 54 76  1  0  0  0  0
 55 64  1  0  0  0  0
 56 65  1  0  0  0  0
 57 65  1  0  0  0  0
 58 65  1  0  0  0  0
 59 77  1  0  0  0  0
 60 70  1  0  0  0  0
 61 62  1  0  0  0  0
 61 76  1  0  0  0  0
 62 84  1  0  0  0  0
 63 65  1  0  0  0  0
 63 75  1  0  0  0  0
 64 77  1  0  0  0  0
 66 67  1  0  0  0  0
M  CHG  2  76   1  77   1
M  ISO  4  38 100  62 101  73 100  84 101
M  END
> <Batch ID>
0137

> <Smiles>
CNC(C)C(=O)NC(C(=O)N1Cc2cc([101O:1][101CH2:1]CNC3CCN(Cc4ccccc4[100NH:0][100C:0](=O)N4CCCC(n5nc(-c6ccc(Oc7ccc(F)cc7F)cc6)c(C(N)=O)c5N)C4)C3)ccc2CC1C(=O)NC1CCCc2ccccc21)C(C)(C)C

> <Shape>
0.212

> <Color>
0.123

> <Negative vol penalty>
0.000

$$$$

  -OEChem-04052321053D

 82 91  0     1  0  0  0  0  0999 V2000
  -23.0379  -37.6632   22.5752 C   0  0  0  0  0  0  0  0  0  0  0  0
  -23.9286  -36.9993   21.7379 C   0  0  0  0  0  0  0  0  0  0  0  0
  -24.3757  -13.9304   21.5323 C   0  0  0  0  0  0  0  0  0  0  0  0
  -25.5100  -14.0251   19.4012 C   0  0  0  0  0  0  0  0  0  0  0  0
  -22.5839  -37.0443   23.7392 C   0  0  0  0  0  0  0  0  0  0  0  0
  -24.3668  -35.7164   22.0646 C   0  0  0  0  0  0  0  0  0  0  0  0
  -31.0930  -22.4586   17.6739 C   0  0  0  0  0  0  0  0  0  0  0  0
  -26.3453  -29.5460   19.0106 C   0  0  0  0  0  0  0  0  0  0  0  0
  -29.8687  -21.8032   17.8151 C   0  0  0  0  0  0  0  0  0  0  0  0
  -23.7375  -12.7537   21.1403 C   0  0  0  0  0  0  0  0  0  0  0  0
  -24.8718  -12.8483   19.0093 C   0  0  0  0  0  0  0  0  0  0  0  0
  -27.3920  -28.6250   19.0229 C   0  0  0  0  0  0  0  0  0  0  0  0
  -24.5012   -9.4691   20.8930 C   0  0  0  0  0  0  0  0  0  0  0  0
  -24.4559   -8.4196   21.8106 C   0  0  0  0  0  0  0  0  0  0  0  0
  -28.8978  -23.7554   18.8968 C   0  0  0  0  0  0  0  0  0  0  0  0
  -26.4791  -27.6235   21.0186 C   0  0  0  0  0  0  0  0  0  0  0  0
  -22.0411   -8.4775   21.7577 C   0  0  0  0  0  0  0  0  0  0  0  0
  -25.2619  -14.5661   20.6627 C   0  0  0  0  0  0  0  0  0  0  0  0
  -27.1574  -15.8988   21.7298 C   0  0  0  0  0  0  0  0  0  0  0  0
  -23.0092  -35.7495   24.0755 C   0  0  0  0  0  0  0  0  0  0  0  0
  -31.1984  -23.7604   18.1356 C   0  0  0  0  0  0  0  0  0  0  0  0
  -25.3620  -29.5194   20.0100 C   0  0  0  0  0  0  0  0  0  0  0  0
  -23.9191  -35.0802   23.2349 C   0  0  0  0  0  0  0  0  0  0  0  0
  -30.1112  -24.4079   18.7424 C   0  0  0  0  0  0  0  0  0  0  0  0
  -25.4196  -28.5435   21.0152 C   0  0  0  0  0  0  0  0  0  0  0  0
  -28.7794  -22.4468   18.4221 C   0  0  0  0  0  0  0  0  0  0  0  0
  -23.9855  -12.2127   19.8788 C   0  0  0  0  0  0  0  0  0  0  0  0
  -27.4606  -27.6654   20.0287 C   0  0  0  0  0  0  0  0  0  0  0  0
  -23.3165  -10.0229   20.4077 C   0  0  0  0  0  0  0  0  0  0  0  0
  -23.2259   -7.9238   22.2430 C   0  0  0  0  0  0  0  0  0  0  0  0
  -22.0865   -9.5271   20.8400 C   0  0  0  0  0  0  0  0  0  0  0  0
  -25.9211  -15.7820   21.0668 C   0  0  0  0  0  0  0  0  0  0  0  0
  -27.3375  -17.2516   21.8848 C   0  0  0  0  0  0  0  0  0  0  0  0
  -28.0623  -14.8759   22.1665 C   0  0  0  0  0  0  0  0  0  0  0  0
  -24.3904  -31.5487   22.2553 C   0  0  0  0  0  0  0  0  0  0  0  0
  -22.0887  -29.3129   22.7304 C   0  0  0  0  0  0  0  0  0  0  0  0
  -21.1078  -26.0572   22.4380 C   0  0  0  0  0  0  0  0  0  0  0  0
  -26.3724  -22.2389   19.1360 C   0  0  0  0  0  0  0  0  0  0  0  0
  -22.5278  -35.1400   25.3683 C   0  0  0  0  0  0  0  0  0  0  0  0
  -24.2248  -30.5029   19.9673 C   0  0  0  0  0  0  0  0  0  0  0  0
  -32.4119  -24.6397   18.1212 C   0  0  0  0  0  0  0  0  0  0  0  0
  -24.3778  -28.4597   22.0997 C   0  0  0  0  0  0  0  0  0  0  0  0
  -22.7493  -33.6319   25.4505 C   0  0  0  0  0  0  0  0  0  0  0  0
  -24.3427  -21.1904   21.8670 C   0  0  0  0  0  0  0  0  0  0  0  0
  -24.1633  -33.2749   25.0032 C   0  0  0  0  0  0  0  0  0  0  0  0
  -24.6626  -19.7002   22.0053 C   0  0  0  0  0  0  0  0  0  0  0  0
  -24.3236  -21.6331   20.4050 C   0  0  0  0  0  0  0  0  0  0  0  0
  -25.8486  -19.8034   19.7760 C   0  0  0  0  0  0  0  0  0  0  0  0
  -30.5063  -25.7878   19.2000 C   0  0  1  0  0  0  0  0  0  0  0  0
  -24.3982  -33.6781   23.5424 C   0  0  1  0  0  0  0  0  0  0  0  0
  -23.5613  -30.7084   21.3256 C   0  0  1  0  0  0  0  0  0  0  0  0
  -25.9431  -19.3248   21.2340 C   0  0  2  0  0  0  0  0  0  0  0  0
  -31.7566  -26.0119   18.3240 C   0  0  1  0  0  0  0  0  0  0  0  0
  -19.1874  -24.5250   22.9495 C   0  0  0  0  0  0  0  0  0  0  0  0
  -22.8928  -29.2914   25.6737 C   0  0  0  0  0  0  0  0  0  0  0  0
  -21.6499  -27.1328   25.9256 C   0  0  0  0  0  0  0  0  0  0  0  0
  -20.4271  -29.2044   25.2652 C   0  0  0  0  0  0  0  0  0  0  0  0
  -20.7166  -25.4037   19.5782 C   0  0  0  0  0  0  0  0  0  0  0  0
  -29.4478  -26.8626   18.9979 C   0  0  0  0  0  0  0  0  0  1  0  0
  -21.9563  -28.0817   23.5939 C   0  0  1  0  0  0  0  0  0  0  0  0
  -19.8272  -25.4344   21.9120 C   0  0  2  0  0  0  0  0  0  0  0  0
  -21.7524  -28.4301   25.0954 C   0  0  0  0  0  0  0  0  0  0  0  0
  -25.3556  -16.9662   20.8178 N   0  0  0  0  0  0  0  0  0  0  0  0
  -26.2406  -17.8399   21.3272 N   0  0  0  0  0  0  0  0  0  0  0  0
  -23.2890  -29.4474   22.0183 N   0  0  0  0  0  0  0  0  0  0  0  0
  -25.5699  -21.2476   19.7394 N   0  0  0  0  0  0  0  0  0  0  0  0
  -28.3254  -17.9833   22.4424 N   0  0  0  0  0  0  0  0  0  0  0  0
  -27.7230  -13.5372   21.9273 N   0  0  0  0  0  0  0  0  0  0  0  0
  -27.5491  -21.7579   18.5628 N   0  0  0  0  0  0  0  0  0  0  0  0
  -23.7782  -32.7234   22.6487 N   0  0  0  0  0  0  0  0  0  0  0  0
  -20.8780  -27.2895   23.0126 N   0  0  0  0  0  0  0  0  0  0  0  0
  -32.6994  -26.9467   18.9733 N   0  3  0  0  0  0  0  0  0  0  0  0
  -20.1070  -24.6291   20.6897 N   0  3  0  0  0  0  0  0  0  0  0  0
  -29.1318  -15.1405   22.7661 O   0  0  0  0  0  0  0  0  0  0  0  0
  -25.5025  -31.1594   22.5919 O   0  0  0  0  0  0  0  0  0  0  0  0
  -21.1586  -30.1217   22.6837 O   0  0  0  0  0  0  0  0  0  0  0  0
  -22.2020  -25.5042   22.3515 O   0  0  0  0  0  0  0  0  0  0  0  0
  -26.0536  -23.4306   19.1522 O   0  0  0  0  0  0  0  0  0  0  0  0
  -23.3631  -11.0643   19.4961 O   0  0  0  0  0  0  0  0  0  0  0  0
  -28.4815  -26.7658   20.0435 O   0  0  0  0  0  0  0  0  0  1  0  0
  -23.1826   -6.9149   23.1230 F   0  0  0  0  0  0  0  0  0  0  0  0
  -20.9449  -10.0542   20.3765 F   0  0  0  0  0  0  0  0  0  0  0  0
  1  2  1  0  0  0  0
  1  5  2  0  0  0  0
  2  6  2  0  0  0  0
  3 10  2  0  0  0  0
  3 18  1  0  0  0  0
  4 11  1  0  0  0  0
  4 18  2  0  0  0  0
  5 20  1  0  0  0  0
  6 23  1  0  0  0  0
  7  9  2  0  0  0  0
  7 21  1  0  0  0  0
  8 12  2  0  0  0  0
  8 22  1  0  0  0  0
  9 26  1  0  0  0  0
 10 27  1  0  0  0  0
 11 27  2  0  0  0  0
 12 28  1  0  0  0  0
 13 14  2  0  0  0  0
 13 29  1  0  0  0  0
 14 30  1  0  0  0  0
 15 24  1  0  0  0  0
 15 26  2  0  0  0  0
 16 25  1  0  0  0  0
 16 28  2  0  0  0  0
 17 30  2  0  0  0  0
 17 31  1  0  0  0  0
 18 32  1  0  0  0  0
 19 32  1  0  0  0  0
 19 33  2  0  0  0  0
 19 34  1  0  0  0  0
 20 23  2  0  0  0  0
 20 39  1  0  0  0  0
 21 24  2  0  0  0  0
 21 41  1  0  0  0  0
 22 25  2  0  0  0  0
 22 40  1  0  0  0  0
 23 50  1  0  0  0  0
 24 49  1  0  0  0  0
 25 42  1  0  0  0  0
 26 69  1  0  0  0  0
 27 79  1  0  0  0  0
 28 80  1  0  0  0  0
 29 31  2  0  0  0  0
 29 79  1  0  0  0  0
 30 81  1  0  0  0  0
 31 82  1  0  0  0  0
 32 63  2  0  0  0  0
 33 64  1  0  0  0  0
 33 67  1  0  0  0  0
 34 68  1  0  0  0  0
 34 74  2  0  0  0  0
 35 51  1  0  0  0  0
 35 70  1  0  0  0  0
 35 75  2  0  0  0  0
 36 60  1  0  0  0  0
 36 65  1  0  0  0  0
 36 76  2  0  0  0  0
 37 61  1  0  0  0  0
 37 71  1  0  0  0  0
 37 77  2  0  0  0  0
 38 66  1  0  0  0  0
 38 69  1  0  0  0  0
 38 78  2  0  0  0  0
 39 43  1  0  0  0  0
 40 51  1  0  0  0  0
 41 53  1  0  0  0  0
 42 65  1  0  0  0  0
 43 45  1  0  0  0  0
 44 46  1  0  0  0  0
 44 47  1  0  0  0  0
 45 50  1  0  0  0  0
 46 52  1  0  0  0  0
 47 66  1  0  0  0  0
 48 52  1  0  0  0  0
 48 66  1  0  0  0  0
 49 53  1  0  0  0  0
 49 59  1  0  0  0  0
 50 70  1  0  0  0  0
 51 65  1  0  0  0  0
 52 64  1  0  0  0  0
 53 72  1  0  0  0  0
 54 61  1  0  0  0  0
 55 62  1  0  0  0  0
 56 62  1  0  0  0  0
 57 62  1  0  0  0  0
 58 73  1  0  0  0  0
 59 80  1  0  0  0  0
 60 62  1  0  0  0  0
 60 71  1  0  0  0  0
 61 73  1  0  0  0  0
 63 64  1  0  0  0  0
M  CHG  2  72   1  73   1
M  ISO  4  38 100  59 101  69 100  80 101
M  END
> <Batch ID>
0137

> <Smiles>
CNC(C)C(=O)NC(C(=O)N1Cc2cc([101O:1][101CH2:1]C3c4cc([100NH:0][100C:0](=O)N5CCCC(n6nc(-c7ccc(Oc8ccc(F)cc8F)cc7)c(C(N)=O)c6N)C5)ccc4CC3N)ccc2CC1C(=O)NC1CCCc2ccccc21)C(C)(C)C

> <Shape>
0.280

> <Color>
0.069

> <Negative vol penalty>
0.000

$$$$

  -OEChem-04052321053D

 84 93  0     1  0  0  0  0  0999 V2000
  -28.0092  -23.7590   14.6354 C   0  0  0  0  0  0  0  0  0  0  0  0
  -26.9057  -24.0025   15.4468 C   0  0  0  0  0  0  0  0  0  0  0  0
  -26.6962  -13.3015   19.8964 C   0  0  0  0  0  0  0  0  0  0  0  0
  -24.3416  -13.7525   20.1955 C   0  0  0  0  0  0  0  0  0  0  0  0
  -29.2959  -23.8493   15.1649 C   0  0  0  0  0  0  0  0  0  0  0  0
  -27.0882  -24.3353   16.7886 C   0  0  0  0  0  0  0  0  0  0  0  0
  -24.1601  -28.2012   18.2468 C   0  0  0  0  0  0  0  0  0  0  0  0
  -19.0095  -24.4980   20.4149 C   0  0  0  0  0  0  0  0  0  0  0  0
  -26.5662  -12.1291   20.6408 C   0  0  0  0  0  0  0  0  0  0  0  0
  -24.2116  -12.5800   20.9399 C   0  0  0  0  0  0  0  0  0  0  0  0
  -22.8191  -27.9217   18.5060 C   0  0  0  0  0  0  0  0  0  0  0  0
  -23.1852   -9.5205   22.6144 C   0  0  0  0  0  0  0  0  0  0  0  0
  -22.0954   -8.6943   22.3395 C   0  0  0  0  0  0  0  0  0  0  0  0
  -19.3687  -25.8408   20.3762 C   0  0  0  0  0  0  0  0  0  0  0  0
  -23.2929  -27.8712   20.8708 C   0  0  0  0  0  0  0  0  0  0  0  0
  -22.8653   -8.4360   20.0641 C   0  0  0  0  0  0  0  0  0  0  0  0
  -25.5839  -14.1132   19.6738 C   0  0  0  0  0  0  0  0  0  0  0  0
  -25.5682  -15.4691   17.5130 C   0  0  0  0  0  0  0  0  0  0  0  0
  -29.4946  -24.1929   16.5114 C   0  0  0  0  0  0  0  0  0  0  0  0
  -25.0813  -28.3071   19.2988 C   0  0  0  0  0  0  0  0  0  0  0  0
  -28.3787  -24.4290   17.3369 C   0  0  0  0  0  0  0  0  0  0  0  0
  -24.6446  -28.1546   20.6224 C   0  0  0  0  0  0  0  0  0  0  0  0
  -19.9735  -23.5196   20.1986 C   0  0  0  0  0  0  0  0  0  0  0  0
  -25.3239  -11.7683   21.1625 C   0  0  0  0  0  0  0  0  0  0  0  0
  -22.3858  -27.7538   19.8180 C   0  0  0  0  0  0  0  0  0  0  0  0
  -24.1150   -9.8045   21.6141 C   0  0  0  0  0  0  0  0  0  0  0  0
  -21.9355   -8.1520   21.0644 C   0  0  0  0  0  0  0  0  0  0  0  0
  -23.9550   -9.2622   20.3390 C   0  0  0  0  0  0  0  0  0  0  0  0
  -25.7176  -15.3247   18.9053 C   0  0  0  0  0  0  0  0  0  0  0  0
  -21.2724  -23.9329   19.9496 C   0  0  0  0  0  0  0  0  0  0  0  0
  -20.6946  -26.1502   20.1191 C   0  0  0  0  0  0  0  0  0  1  0  0
  -25.7934  -16.8039   17.2801 C   0  0  0  0  0  0  0  0  0  0  0  0
  -25.2538  -14.4848   16.5191 C   0  0  0  0  0  0  0  0  0  0  0  0
  -27.7059  -26.7287   20.1496 C   0  0  0  0  0  0  0  0  0  0  0  0
  -27.9104  -29.0610   22.3949 C   0  0  0  0  0  0  0  0  0  0  0  0
  -26.3150  -31.4198   24.2757 C   0  0  0  0  0  0  0  0  0  0  0  0
  -25.2654  -21.6864   20.7055 C   0  0  0  0  0  0  0  0  0  0  0  0
  -30.9026  -24.2320   17.0505 C   0  0  0  0  0  0  0  0  0  0  0  0
  -26.5193  -28.6355   19.0041 C   0  0  0  0  0  0  0  0  0  0  0  0
  -25.5897  -28.2786   21.7886 C   0  0  0  0  0  0  0  0  0  0  0  0
  -31.0226  -24.9568   18.3886 C   0  0  0  0  0  0  0  0  0  0  0  0
  -28.1940  -20.5565   19.0253 C   0  0  0  0  0  0  0  0  0  0  0  0
  -29.9292  -24.4941   19.3463 C   0  0  0  0  0  0  0  0  0  0  0  0
  -19.0393  -21.3671   17.7541 C   0  0  0  0  0  0  0  0  0  0  0  0
  -18.4762  -20.2944   18.6441 C   0  0  0  0  0  0  0  0  0  0  0  0
  -27.8780  -19.1005   18.6784 C   0  0  0  0  0  0  0  0  0  0  0  0
  -27.6091  -20.9539   20.3788 C   0  0  0  0  0  0  0  0  0  0  0  0
  -25.8486  -19.2405   20.1820 C   0  0  0  0  0  0  0  0  0  0  0  0
  -28.5367  -24.8169   18.7911 C   0  0  1  0  0  0  0  0  0  0  0  0
  -27.4696  -28.2123   20.1200 C   0  0  1  0  0  0  0  0  0  0  0  0
  -18.5729  -21.7099   19.1419 C   0  0  0  0  0  0  0  0  0  0  0  0
  -26.3701  -18.8097   18.8005 C   0  0  2  0  0  0  0  0  0  0  0  0
  -19.0612  -21.6440   21.6142 C   0  0  0  0  0  0  0  0  0  0  0  0
  -26.7405  -33.1436   26.0491 C   0  0  0  0  0  0  0  0  0  0  0  0
  -28.1063  -26.8525   24.4911 C   0  0  0  0  0  0  0  0  0  0  0  0
  -27.5737  -28.5620   26.2409 C   0  0  0  0  0  0  0  0  0  0  0  0
  -29.6443  -28.7882   24.8682 C   0  0  0  0  0  0  0  0  0  0  0  0
  -25.4001  -33.6199   22.5203 C   0  0  0  0  0  0  0  0  0  0  0  0
  -22.3489  -22.9257   19.7093 C   0  0  0  0  0  0  0  0  0  0  0  0
  -22.8701  -22.2692   20.9922 C   0  0  0  0  0  0  0  0  0  0  0  0
  -19.5941  -22.0796   20.2352 C   0  0  2  0  0  0  0  0  0  0  0  0
  -27.3958  -29.2374   23.8031 C   0  0  1  0  0  0  0  0  0  0  0  0
  -26.6423  -32.8755   24.5554 C   0  0  2  0  0  0  0  0  0  0  0  0
  -28.1623  -28.3557   24.8289 C   0  0  0  0  0  0  0  0  0  0  0  0
  -26.0149  -16.4758   19.5142 N   0  0  0  0  0  0  0  0  0  0  0  0
  -21.6591  -25.2275   19.9041 N   0  0  0  0  0  0  0  0  0  0  0  0
  -26.0542  -17.3562   18.4996 N   0  0  0  0  0  0  0  0  0  0  0  0
  -26.9869  -28.5944   21.4487 N   0  0  0  0  0  0  0  0  0  0  0  0
  -26.1762  -20.6536   20.4286 N   0  0  0  0  0  0  0  0  0  0  0  0
  -25.7919  -17.5472   16.1532 N   0  0  0  0  0  0  0  0  0  0  0  0
  -25.0532  -13.1601   16.9306 N   0  0  0  0  0  0  0  0  0  0  0  0
  -28.2309  -26.2192   18.9774 N   0  0  0  0  0  0  0  0  0  0  0  0
  -27.4547  -30.6680   24.0830 N   0  0  0  0  0  0  0  0  0  0  0  0
  -23.9260  -21.3173   20.7277 N   0  0  0  0  0  0  0  0  0  0  0  0
  -25.5877  -33.7620   23.9871 N   0  3  0  0  0  0  0  0  0  0  0  0
  -25.1700  -14.7683   15.3000 O   0  0  0  0  0  0  0  0  0  0  0  0
  -27.4335  -26.0936   21.1616 O   0  0  0  0  0  0  0  0  0  0  0  0
  -29.0865  -29.3342   22.1421 O   0  0  0  0  0  0  0  0  0  0  0  0
  -25.1636  -30.9917   24.2361 O   0  0  0  0  0  0  0  0  0  0  0  0
  -25.6192  -22.8522   20.9119 O   0  0  0  0  0  0  0  0  0  0  0  0
  -25.1967  -10.6242   21.8888 O   0  0  0  0  0  0  0  0  0  0  0  0
  -21.0775  -27.4803   20.0737 O   0  0  0  0  0  0  0  0  0  1  0  0
  -20.8899   -7.3575   20.8010 F   0  0  0  0  0  0  0  0  0  0  0  0
  -24.8456   -9.5304   19.3742 F   0  0  0  0  0  0  0  0  0  0  0  0
  1  2  1  0  0  0  0
  1  5  2  0  0  0  0
  2  6  2  0  0  0  0
  3  9  2  0  0  0  0
  3 17  1  0  0  0  0
  4 10  1  0  0  0  0
  4 17  2  0  0  0  0
  5 19  1  0  0  0  0
  6 21  1  0  0  0  0
  7 11  2  0  0  0  0
  7 20  1  0  0  0  0
  8 14  2  0  0  0  0
  8 23  1  0  0  0  0
  9 24  1  0  0  0  0
 10 24  2  0  0  0  0
 11 25  1  0  0  0  0
 12 13  2  0  0  0  0
 12 26  1  0  0  0  0
 13 27  1  0  0  0  0
 14 31  1  0  0  0  0
 15 22  1  0  0  0  0
 15 25  2  0  0  0  0
 16 27  2  0  0  0  0
 16 28  1  0  0  0  0
 17 29  1  0  0  0  0
 18 29  1  0  0  0  0
 18 32  2  0  0  0  0
 18 33  1  0  0  0  0
 19 21  2  0  0  0  0
 19 38  1  0  0  0  0
 20 22  2  0  0  0  0
 20 39  1  0  0  0  0
 21 49  1  0  0  0  0
 22 40  1  0  0  0  0
 23 30  2  0  0  0  0
 23 61  1  0  0  0  0
 24 81  1  0  0  0  0
 25 82  1  0  0  0  0
 26 28  2  0  0  0  0
 26 81  1  0  0  0  0
 27 83  1  0  0  0  0
 28 84  1  0  0  0  0
 29 65  2  0  0  0  0
 30 59  1  0  0  0  0
 30 66  1  0  0  0  0
 31 66  2  0  0  0  0
 31 82  1  0  0  0  0
 32 67  1  0  0  0  0
 32 70  1  0  0  0  0
 33 71  1  0  0  0  0
 33 76  2  0  0  0  0
 34 50  1  0  0  0  0
 34 72  1  0  0  0  0
 34 77  2  0  0  0  0
 35 62  1  0  0  0  0
 35 68  1  0  0  0  0
 35 78  2  0  0  0  0
 36 63  1  0  0  0  0
 36 73  1  0  0  0  0
 36 79  2  0  0  0  0
 37 69  1  0  0  0  0
 37 74  1  0  0  0  0
 37 80  2  0  0  0  0
 38 41  1  0  0  0  0
 39 50  1  0  0  0  0
 40 68  1  0  0  0  0
 41 43  1  0  0  0  0
 42 46  1  0  0  0  0
 42 47  1  0  0  0  0
 43 49  1  0  0  0  0
 44 45  1  0  0  0  0
 44 51  1  0  0  0  0
 45 51  1  0  0  0  0
 46 52  1  0  0  0  0
 47 69  1  0  0  0  0
 48 52  1  0  0  0  0
 48 69  1  0  0  0  0
 49 72  1  0  0  0  0
 50 68  1  0  0  0  0
 51 61  1  0  0  0  0
 52 67  1  0  0  0  0
 53 61  1  0  0  0  0
 54 63  1  0  0  0  0
 55 64  1  0  0  0  0
 56 64  1  0  0  0  0
 57 64  1  0  0  0  0
 58 75  1  0  0  0  0
 59 60  1  0  0  0  0
 60 74  1  0  0  0  0
 62 64  1  0  0  0  0
 62 73  1  0  0  0  0
 63 75  1  0  0  0  0
 65 67  1  0  0  0  0
M  CHG  1  75   1
M  ISO  4  31 101  37 100  74 100  82 101
M  END
> <Batch ID>
0137

> <Smiles>
CNC(C)C(=O)NC(C(=O)N1Cc2cc([101O:1][101c:1]3ccc(C(C)C4CC4)c(CC[100NH:0][100C:0](=O)N4CCCC(n5nc(-c6ccc(Oc7ccc(F)cc7F)cc6)c(C(N)=O)c5N)C4)n3)ccc2CC1C(=O)NC1CCCc2ccccc21)C(C)(C)C

> <Shape>
0.218

> <Color>
0.072

> <Negative vol penalty>
0.000

$$$$

  -OEChem-04052321053D

 82 90  0     1  0  0  0  0  0999 V2000
  -27.5510  -34.2986   23.9726 C   0  0  0  0  0  0  0  0  0  0  0  0
  -28.5534  -33.3605   23.7476 C   0  0  0  0  0  0  0  0  0  0  0  0
  -23.6234   -9.5700   20.1316 C   0  0  0  0  0  0  0  0  0  0  0  0
  -23.6631  -10.1277   22.4820 C   0  0  0  0  0  0  0  0  0  0  0  0
  -26.2445  -33.8764   24.2151 C   0  0  0  0  0  0  0  0  0  0  0  0
  -28.2501  -31.9996   23.7661 C   0  0  0  0  0  0  0  0  0  0  0  0
  -30.1690  -25.8102   20.7125 C   0  0  0  0  0  0  0  0  0  0  0  0
  -29.6567  -19.6973   23.7908 C   0  0  0  0  0  0  0  0  0  0  0  0
  -22.9624   -8.3775   20.4257 C   0  0  0  0  0  0  0  0  0  0  0  0
  -23.0020   -8.9352   22.7762 C   0  0  0  0  0  0  0  0  0  0  0  0
  -30.5664  -24.5182   21.0541 C   0  0  0  0  0  0  0  0  0  0  0  0
  -30.2317  -18.4785   24.1507 C   0  0  0  0  0  0  0  0  0  0  0  0
  -19.8152   -7.3928   21.1730 C   0  0  0  0  0  0  0  0  0  0  0  0
  -18.7234   -7.0438   20.3782 C   0  0  0  0  0  0  0  0  0  0  0  0
  -28.2591  -23.9079   21.4050 C   0  0  0  0  0  0  0  0  0  0  0  0
  -30.6708  -17.9986   21.8239 C   0  0  0  0  0  0  0  0  0  0  0  0
  -19.8484   -5.0070   19.7275 C   0  0  0  0  0  0  0  0  0  0  0  0
  -23.9738  -10.4451   21.1598 C   0  0  0  0  0  0  0  0  0  0  0  0
  -24.0727  -12.9251   20.5705 C   0  0  0  0  0  0  0  0  0  0  0  0
  -25.9232  -32.5099   24.2271 C   0  0  0  0  0  0  0  0  0  0  0  0
  -28.8122  -26.1643   20.7251 C   0  0  0  0  0  0  0  0  0  0  0  0
  -26.9384  -31.5587   24.0104 C   0  0  0  0  0  0  0  0  0  0  0  0
  -27.8469  -25.2042   21.0606 C   0  0  0  0  0  0  0  0  0  0  0  0
  -29.5887  -20.0667   22.4475 C   0  0  0  0  0  0  0  0  0  0  0  0
  -30.0958  -19.2174   21.4640 C   0  0  0  0  0  0  0  0  0  0  0  0
  -22.6516   -8.0601   21.7480 C   0  0  0  0  0  0  0  0  0  0  0  0
  -29.6116  -23.5676   21.4033 C   0  0  0  0  0  0  0  0  0  0  0  0
  -30.7388  -17.6292   23.1672 C   0  0  0  0  0  0  0  0  0  0  0  0
  -20.9236   -6.5490   21.2451 C   0  0  0  0  0  0  0  0  0  0  0  0
  -18.7400   -5.8509   19.6554 C   0  0  0  0  0  0  0  0  0  0  0  0
  -20.9402   -5.3561   20.5224 C   0  0  0  0  0  0  0  0  0  0  0  0
  -24.6572  -11.6768   20.8567 C   0  0  0  0  0  0  0  0  0  0  0  0
  -25.1398  -13.7625   20.3547 C   0  0  0  0  0  0  0  0  0  0  0  0
  -22.6889  -13.2947   20.5057 C   0  0  0  0  0  0  0  0  0  0  0  0
  -27.0570  -28.2642   22.3416 C   0  0  0  0  0  0  0  0  0  0  0  0
  -24.7187  -27.2771   20.3216 C   0  0  0  0  0  0  0  0  0  0  0  0
  -23.5035  -24.8371   18.2681 C   0  0  0  0  0  0  0  0  0  0  0  0
  -30.8398  -13.6586   22.1849 C   0  0  0  0  0  0  0  0  0  0  0  0
  -24.5060  -32.1001   24.5406 C   0  0  0  0  0  0  0  0  0  0  0  0
  -28.3979  -27.5547   20.3281 C   0  0  0  0  0  0  0  0  0  0  0  0
  -26.3760  -25.5282   21.0699 C   0  0  0  0  0  0  0  0  0  0  0  0
  -24.1950  -30.6518   24.1721 C   0  0  0  0  0  0  0  0  0  0  0  0
  -29.6721  -13.7337   18.8223 C   0  0  0  0  0  0  0  0  0  0  0  0
  -25.3053  -29.7266   24.6601 C   0  0  0  0  0  0  0  0  0  0  0  0
  -28.2017  -13.3277   18.9365 C   0  0  0  0  0  0  0  0  0  0  0  0
  -30.5455  -12.9780   19.8213 C   0  0  0  0  0  0  0  0  0  0  0  0
  -28.6297  -12.6608   21.3388 C   0  0  0  0  0  0  0  0  0  0  0  0
  -26.6440  -30.0743   23.9980 C   0  0  1  0  0  0  0  0  0  0  0  0
  -27.0284  -27.9485   20.8729 C   0  0  1  0  0  0  0  0  0  0  0  0
  -27.7011  -13.4370   20.3893 C   0  0  2  0  0  0  0  0  0  0  0  0
  -30.0330  -19.5914   20.0195 C   0  0  0  0  0  0  0  0  0  0  0  0
  -21.5518  -24.3030   16.7839 C   0  0  0  0  0  0  0  0  0  0  0  0
  -23.0069  -26.7064   22.7820 C   0  0  0  0  0  0  0  0  0  0  0  0
  -21.5045  -25.3263   21.3306 C   0  0  0  0  0  0  0  0  0  0  0  0
  -21.7775  -27.7643   20.8784 C   0  0  0  0  0  0  0  0  0  0  0  0
  -25.2337  -24.6155   15.8773 C   0  0  0  0  0  0  0  0  0  0  0  0
  -28.9656  -21.3827   22.0850 C   0  0  0  0  0  0  0  0  0  1  0  0
  -30.9769  -14.3055   24.5770 C   0  0  0  0  0  0  0  0  0  0  0  0
  -30.7996  -15.8086   24.6962 C   0  0  0  0  0  0  0  0  0  0  0  0
  -23.6775  -26.1842   20.3440 C   0  0  1  0  0  0  0  0  0  0  0  0
  -22.9519  -24.8923   16.8549 C   0  0  2  0  0  0  0  0  0  0  0  0
  -22.5194  -26.4894   21.3356 C   0  0  0  0  0  0  0  0  0  0  0  0
  -25.9920  -11.7133   20.8260 N   0  0  0  0  0  0  0  0  0  0  0  0
  -26.2551  -12.9947   20.5179 N   0  0  0  0  0  0  0  0  0  0  0  0
  -26.0215  -26.9030   20.6803 N   0  0  0  0  0  0  0  0  0  0  0  0
  -30.0173  -13.1234   21.1799 N   0  0  0  0  0  0  0  0  0  0  0  0
  -25.2234  -15.0734   20.0429 N   0  0  0  0  0  0  0  0  0  0  0  0
  -21.7222  -12.3109   20.7547 N   0  0  0  0  0  0  0  0  0  0  0  0
  -26.6877  -29.5605   22.6458 N   0  0  0  0  0  0  0  0  0  0  0  0
  -23.2481  -26.0011   18.9619 N   0  0  0  0  0  0  0  0  0  0  0  0
  -30.2593  -13.7679   23.4426 N   0  0  0  0  0  0  0  0  0  0  0  0
  -23.8312  -24.1280   15.9255 N   0  3  0  0  0  0  0  0  0  0  0  0
  -22.3203  -14.4589   20.2189 O   0  0  0  0  0  0  0  0  0  0  0  0
  -27.3880  -27.3954   23.1400 O   0  0  0  0  0  0  0  0  0  0  0  0
  -24.3898  -28.4190   19.9907 O   0  0  0  0  0  0  0  0  0  0  0  0
  -24.0979  -23.8579   18.7134 O   0  0  0  0  0  0  0  0  0  0  0  0
  -32.0035  -14.0178   21.9756 O   0  0  0  0  0  0  0  0  0  0  0  0
  -22.0064   -6.8966   22.0353 O   0  0  0  0  0  0  0  0  0  0  0  0
  -29.9968  -22.3060   21.7378 O   0  0  0  0  0  0  0  0  0  1  0  0
  -31.2994  -16.4396   23.5182 O   0  0  0  0  0  0  0  0  0  0  0  0
  -17.6909   -5.5150   18.8933 F   0  0  0  0  0  0  0  0  0  0  0  0
  -22.0017   -4.5409   20.5885 F   0  0  0  0  0  0  0  0  0  0  0  0
  1  2  1  0  0  0  0
  1  5  2  0  0  0  0
  2  6  2  0  0  0  0
  3  9  2  0  0  0  0
  3 18  1  0  0  0  0
  4 10  1  0  0  0  0
  4 18  2  0  0  0  0
  5 20  1  0  0  0  0
  6 22  1  0  0  0  0
  7 11  2  0  0  0  0
  7 21  1  0  0  0  0
  8 12  2  0  0  0  0
  8 24  1  0  0  0  0
  9 26  1  0  0  0  0
 10 26  2  0  0  0  0
 11 27  1  0  0  0  0
 12 28  1  0  0  0  0
 13 14  2  0  0  0  0
 13 29  1  0  0  0  0
 14 30  1  0  0  0  0
 15 23  1  0  0  0  0
 15 27  2  0  0  0  0
 16 25  1  0  0  0  0
 16 28  2  0  0  0  0
 17 30  2  0  0  0  0
 17 31  1  0  0  0  0
 18 32  1  0  0  0  0
 19 32  1  0  0  0  0
 19 33  2  0  0  0  0
 19 34  1  0  0  0  0
 20 22  2  0  0  0  0
 20 39  1  0  0  0  0
 21 23  2  0  0  0  0
 21 40  1  0  0  0  0
 22 48  1  0  0  0  0
 23 41  1  0  0  0  0
 24 25  2  0  0  0  0
 24 57  1  0  0  0  0
 25 51  1  0  0  0  0
 26 78  1  0  0  0  0
 27 79  1  0  0  0  0
 28 80  1  0  0  0  0
 29 31  2  0  0  0  0
 29 78  1  0  0  0  0
 30 81  1  0  0  0  0
 31 82  1  0  0  0  0
 32 63  2  0  0  0  0
 33 64  1  0  0  0  0
 33 67  1  0  0  0  0
 34 68  1  0  0  0  0
 34 73  2  0  0  0  0
 35 49  1  0  0  0  0
 35 69  1  0  0  0  0
 35 74  2  0  0  0  0
 36 60  1  0  0  0  0
 36 65  1  0  0  0  0
 36 75  2  0  0  0  0
 37 61  1  0  0  0  0
 37 70  1  0  0  0  0
 37 76  2  0  0  0  0
 38 66  1  0  0  0  0
 38 71  1  0  0  0  0
 38 77  2  0  0  0  0
 39 42  1  0  0  0  0
 40 49  1  0  0  0  0
 41 65  1  0  0  0  0
 42 44  1  0  0  0  0
 43 45  1  0  0  0  0
 43 46  1  0  0  0  0
 44 48  1  0  0  0  0
 45 50  1  0  0  0  0
 46 66  1  0  0  0  0
 47 50  1  0  0  0  0
 47 66  1  0  0  0  0
 48 69  1  0  0  0  0
 49 65  1  0  0  0  0
 50 64  1  0  0  0  0
 52 61  1  0  0  0  0
 53 62  1  0  0  0  0
 54 62  1  0  0  0  0
 55 62  1  0  0  0  0
 56 72  1  0  0  0  0
 57 79  1  0  0  0  0
 58 59  1  0  0  0  0
 58 71  1  0  0  0  0
 59 80  1  0  0  0  0
 60 62  1  0  0  0  0
 60 70  1  0  0  0  0
 61 72  1  0  0  0  0
 63 64  1  0  0  0  0
M  CHG  1  72   1
M  ISO  4  38 100  57 101  71 100  79 101
M  END
> <Batch ID>
0137

> <Smiles>
CNC(C)C(=O)NC(C(=O)N1Cc2cc([101O:1][101CH2:1]c3ccc(OCC[100NH:0][100C:0](=O)N4CCCC(n5nc(-c6ccc(Oc7ccc(F)cc7F)cc6)c(C(N)=O)c5N)C4)cc3C)ccc2CC1C(=O)NC1CCCc2ccccc21)C(C)(C)C

> <Shape>
0.274

> <Color>
0.140

> <Negative vol penalty>
0.000

$$$$

  -OEChem-04052321053D

 84 93  0     1  0  0  0  0  0999 V2000
  -19.7426  -23.9765   23.1918 C   0  0  0  0  0  0  0  0  0  0  0  0
  -20.9120  -24.2449   22.4876 C   0  0  0  0  0  0  0  0  0  0  0  0
  -24.5558  -12.4263   21.2241 C   0  0  0  0  0  0  0  0  0  0  0  0
  -26.1748  -12.5448   19.4347 C   0  0  0  0  0  0  0  0  0  0  0  0
  -18.8478  -25.0079   23.4737 C   0  0  0  0  0  0  0  0  0  0  0  0
  -21.1868  -25.5447   22.0640 C   0  0  0  0  0  0  0  0  0  0  0  0
  -31.6390  -21.9610   19.8374 C   0  0  0  0  0  0  0  0  0  0  0  0
  -25.9855  -26.9015   22.9450 C   0  0  0  0  0  0  0  0  0  0  0  0
  -30.4878  -21.2387   20.1617 C   0  0  0  0  0  0  0  0  0  0  0  0
  -24.1654  -11.1605   20.7871 C   0  0  0  0  0  0  0  0  0  0  0  0
  -25.7845  -11.2790   18.9978 C   0  0  0  0  0  0  0  0  0  0  0  0
  -26.9552  -26.4183   22.0675 C   0  0  0  0  0  0  0  0  0  0  0  0
  -25.3101   -7.9865   21.0077 C   0  0  0  0  0  0  0  0  0  0  0  0
  -25.1460   -6.9906   21.9703 C   0  0  0  0  0  0  0  0  0  0  0  0
  -29.1047  -22.7509   18.8405 C   0  0  0  0  0  0  0  0  0  0  0  0
  -26.9571  -28.5364   20.9128 C   0  0  0  0  0  0  0  0  0  0  0  0
  -22.8307   -6.7475   21.3239 C   0  0  0  0  0  0  0  0  0  0  0  0
  -25.5604  -13.1185   20.5479 C   0  0  0  0  0  0  0  0  0  0  0  0
  -26.9729  -14.7303   21.9315 C   0  0  0  0  0  0  0  0  0  0  0  0
  -19.1164  -26.3227   23.0618 C   0  0  0  0  0  0  0  0  0  0  0  0
  -31.4841  -23.0579   19.0230 C   0  0  0  0  0  0  0  0  0  0  0  0
  -25.4856  -28.2043   22.8061 C   0  0  0  0  0  0  0  0  0  0  0  0
  -20.2941  -26.5944   22.3396 C   0  0  0  0  0  0  0  0  0  0  0  0
  -30.2551  -23.4423   18.5403 C   0  0  0  0  0  0  0  0  0  0  0  0
  -25.9830  -29.0346   21.7915 C   0  0  0  0  0  0  0  0  0  0  0  0
  -29.2289  -21.6312   19.6668 C   0  0  0  0  0  0  0  0  0  0  0  0
  -24.7798  -10.5868   19.6740 C   0  0  0  0  0  0  0  0  0  0  0  0
  -27.4390  -27.2348   21.0494 C   0  0  0  0  0  0  0  0  0  0  0  0
  -24.2346   -8.3631   20.2032 C   0  0  0  0  0  0  0  0  0  0  0  0
  -23.9063   -6.3710   22.1284 C   0  0  0  0  0  0  0  0  0  0  0  0
  -22.9949   -7.7435   20.3613 C   0  0  0  0  0  0  0  0  0  0  0  0
  -25.9636  -14.4264   20.9984 C   0  0  0  0  0  0  0  0  0  0  0  0
  -26.9638  -16.1013   22.0129 C   0  0  0  0  0  0  0  0  0  0  0  0
  -27.8412  -13.8518   22.6596 C   0  0  0  0  0  0  0  0  0  0  0  0
  -22.6256  -29.4580   22.2125 C   0  0  0  0  0  0  0  0  0  0  0  0
  -24.1686  -32.2567   22.7684 C   0  0  0  0  0  0  0  0  0  0  0  0
  -27.1153  -33.9770   22.8347 C   0  0  0  0  0  0  0  0  0  0  0  0
  -26.7623  -21.1219   19.6138 C   0  0  0  0  0  0  0  0  0  0  0  0
  -18.0964  -27.3960   23.3488 C   0  0  0  0  0  0  0  0  0  0  0  0
  -32.2111  -24.1842   18.3455 C   0  0  0  0  0  0  0  0  0  0  0  0
  -24.4592  -28.7196   23.7773 C   0  0  0  0  0  0  0  0  0  0  0  0
  -25.4938  -30.4477   21.6122 C   0  0  0  0  0  0  0  0  0  0  0  0
  -18.6421  -28.8128   23.1906 C   0  0  0  0  0  0  0  0  0  0  0  0
  -23.6575  -19.4858   20.2142 C   0  0  0  0  0  0  0  0  0  0  0  0
  -19.4304  -28.9392   21.8908 C   0  0  0  0  0  0  0  0  0  0  0  0
  -24.0637  -18.0487   20.5485 C   0  0  0  0  0  0  0  0  0  0  0  0
  -24.5525  -20.0916   19.1344 C   0  0  0  0  0  0  0  0  0  0  0  0
  -26.3995  -18.5788   19.7421 C   0  0  0  0  0  0  0  0  0  0  0  0
  -20.6393  -27.9958   21.8848 C   0  0  1  0  0  0  0  0  0  0  0  0
  -30.8113  -24.6126   17.7818 C   0  0  2  0  0  0  0  0  0  0  0  0
  -23.6483  -29.8882   23.2257 C   0  0  1  0  0  0  0  0  0  0  0  0
  -25.5676  -17.9487   20.8711 C   0  0  2  0  0  0  0  0  0  0  0  0
  -31.3693  -27.2343   16.4936 C   0  0  0  0  0  0  0  0  0  0  0  0
  -28.0542  -36.2590   23.2910 C   0  0  0  0  0  0  0  0  0  0  0  0
  -23.1301  -33.2215   20.0665 C   0  0  0  0  0  0  0  0  0  0  0  0
  -24.8299  -35.0579   20.1472 C   0  0  0  0  0  0  0  0  0  0  0  0
  -23.0473  -34.9335   21.8877 C   0  0  0  0  0  0  0  0  0  0  0  0
  -28.7887  -32.9709   25.0588 C   0  0  0  0  0  0  0  0  0  0  0  0
  -31.3247  -27.0400   17.9935 C   0  0  0  0  0  0  0  0  0  0  0  0
  -28.9578  -26.2711   17.9085 C   0  0  0  0  0  0  0  0  0  0  0  0
  -28.3793  -27.2944   18.8658 C   0  0  0  0  0  0  0  0  0  1  0  0
  -24.9292  -33.2454   21.9182 C   0  0  1  0  0  0  0  0  0  0  0  0
  -27.7215  -34.8967   23.8793 C   0  0  2  0  0  0  0  0  0  0  0  0
  -23.9921  -34.0873   21.0068 C   0  0  0  0  0  0  0  0  0  0  0  0
  -25.3573  -15.5167   20.5213 N   0  0  0  0  0  0  0  0  0  0  0  0
  -25.9873  -16.5190   21.1572 N   0  0  0  0  0  0  0  0  0  0  0  0
  -24.4853  -30.9035   22.5831 N   0  0  0  0  0  0  0  0  0  0  0  0
  -25.9622  -19.9644   19.5104 N   0  0  0  0  0  0  0  0  0  0  0  0
  -27.6957  -16.9783   22.7323 N   0  0  0  0  0  0  0  0  0  0  0  0
  -27.7171  -12.4706   22.4568 N   0  0  0  0  0  0  0  0  0  0  0  0
  -28.0773  -20.8804   20.0100 N   0  0  0  0  0  0  0  0  0  0  0  0
  -21.7098  -28.5410   22.6918 N   0  0  0  0  0  0  0  0  0  0  0  0
  -25.7378  -34.0379   22.8383 N   0  0  0  0  0  0  0  0  0  0  0  0
  -28.9735  -34.3032   24.4280 N   0  3  0  0  0  0  0  0  0  0  0  0
  -30.3447  -25.9413   18.3232 N   0  3  1  0  0  0  0  0  0  0  0  0
  -28.6905  -14.2782   23.4784 O   0  0  0  0  0  0  0  0  0  0  0  0
  -22.6637  -29.9247   21.0800 O   0  0  0  0  0  0  0  0  0  0  0  0
  -23.3297  -32.6703   23.5727 O   0  0  0  0  0  0  0  0  0  0  0  0
  -27.7958  -33.2775   22.0876 O   0  0  0  0  0  0  0  0  0  0  0  0
  -26.3067  -22.2474   19.3953 O   0  0  0  0  0  0  0  0  0  0  0  0
  -24.3994   -9.3515   19.2475 O   0  0  0  0  0  0  0  0  0  0  0  0
  -28.3850  -26.7654   20.1911 O   0  0  0  0  0  0  0  0  0  1  0  0
  -23.7492   -5.4135   23.0518 F   0  0  0  0  0  0  0  0  0  0  0  0
  -21.9583   -8.1002   19.5906 F   0  0  0  0  0  0  0  0  0  0  0  0
  1  2  1  0  0  0  0
  1  5  2  0  0  0  0
  2  6  2  0  0  0  0
  3 10  2  0  0  0  0
  3 18  1  0  0  0  0
  4 11  1  0  0  0  0
  4 18  2  0  0  0  0
  5 20  1  0  0  0  0
  6 23  1  0  0  0  0
  7  9  2  0  0  0  0
  7 21  1  0  0  0  0
  8 12  2  0  0  0  0
  8 22  1  0  0  0  0
  9 26  1  0  0  0  0
 10 27  1  0  0  0  0
 11 27  2  0  0  0  0
 12 28  1  0  0  0  0
 13 14  2  0  0  0  0
 13 29  1  0  0  0  0
 14 30  1  0  0  0  0
 15 24  1  0  0  0  0
 15 26  2  0  0  0  0
 16 25  1  0  0  0  0
 16 28  2  0  0  0  0
 17 30  2  0  0  0  0
 17 31  1  0  0  0  0
 18 32  1  0  0  0  0
 19 32  1  0  0  0  0
 19 33  2  0  0  0  0
 19 34  1  0  0  0  0
 20 23  2  0  0  0  0
 20 39  1  0  0  0  0
 21 24  2  0  0  0  0
 21 40  1  0  0  0  0
 22 25  2  0  0  0  0
 22 41  1  0  0  0  0
 23 49  1  0  0  0  0
 24 50  1  0  0  0  0
 25 42  1  0  0  0  0
 26 71  1  0  0  0  0
 27 81  1  0  0  0  0
 28 82  1  0  0  0  0
 29 31  2  0  0  0  0
 29 81  1  0  0  0  0
 30 83  1  0  0  0  0
 31 84  1  0  0  0  0
 32 65  2  0  0  0  0
 33 66  1  0  0  0  0
 33 69  1  0  0  0  0
 34 70  1  0  0  0  0
 34 76  2  0  0  0  0
 35 51  1  0  0  0  0
 35 72  1  0  0  0  0
 35 77  2  0  0  0  0
 36 62  1  0  0  0  0
 36 67  1  0  0  0  0
 36 78  2  0  0  0  0
 37 63  1  0  0  0  0
 37 73  1  0  0  0  0
 37 79  2  0  0  0  0
 38 68  1  0  0  0  0
 38 71  1  0  0  0  0
 38 80  2  0  0  0  0
 39 43  1  0  0  0  0
 40 50  1  0  0  0  0
 41 51  1  0  0  0  0
 42 67  1  0  0  0  0
 43 45  1  0  0  0  0
 44 46  1  0  0  0  0
 44 47  1  0  0  0  0
 45 49  1  0  0  0  0
 46 52  1  0  0  0  0
 47 68  1  0  0  0  0
 48 52  1  0  0  0  0
 48 68  1  0  0  0  0
 49 72  1  0  0  0  0
 50 75  1  0  0  0  0
 51 67  1  0  0  0  0
 52 66  1  0  0  0  0
 53 59  1  0  0  0  0
 54 63  1  0  0  0  0
 55 64  1  0  0  0  0
 56 64  1  0  0  0  0
 57 64  1  0  0  0  0
 58 74  1  0  0  0  0
 59 75  1  0  0  0  0
 60 61  1  0  0  0  0
 60 75  1  0  0  0  0
 61 82  1  0  0  0  0
 62 64  1  0  0  0  0
 62 73  1  0  0  0  0
 63 74  1  0  0  0  0
 65 66  1  0  0  0  0
M  CHG  2  74   1  75   1
M  ISO  4  38 100  61 101  71 100  82 101
M  END
> <Batch ID>
0137

> <Smiles>
CCN(C[101CH2:1][101O:1]c1ccc2c(c1)CN(C(=O)C(NC(=O)C(C)NC)C(C)(C)C)C(C(=O)NC1CCCc3ccccc31)C2)C1Cc2ccc([100NH:0][100C:0](=O)N3CCCC(n4nc(-c5ccc(Oc6ccc(F)cc6F)cc5)c(C(N)=O)c4N)C3)cc21

> <Shape>
0.266

> <Color>
0.088

> <Negative vol penalty>
0.000

$$$$

  -OEChem-04052321053D

 84 93  0     1  0  0  0  0  0999 V2000
  -21.4594  -13.0470   19.5613 C   0  0  0  0  0  0  0  0  0  0  0  0
  -21.6214  -14.3040   20.1350 C   0  0  0  0  0  0  0  0  0  0  0  0
  -30.2173  -27.7025   18.7426 C   0  0  0  0  0  0  0  0  0  0  0  0
  -30.2755  -28.1836   21.1095 C   0  0  0  0  0  0  0  0  0  0  0  0
  -22.5279  -12.1518   19.5333 C   0  0  0  0  0  0  0  0  0  0  0  0
  -22.8518  -14.6661   20.6821 C   0  0  0  0  0  0  0  0  0  0  0  0
  -24.2625  -19.3473   19.3625 C   0  0  0  0  0  0  0  0  0  0  0  0
  -22.1354  -27.1556   23.4660 C   0  0  0  0  0  0  0  0  0  0  0  0
  -22.6263  -28.4620   23.5168 C   0  0  0  0  0  0  0  0  0  0  0  0
  -31.5955  -27.9037   18.6678 C   0  0  0  0  0  0  0  0  0  0  0  0
  -31.6538  -28.3848   21.0348 C   0  0  0  0  0  0  0  0  0  0  0  0
  -23.6588  -20.4080   20.0365 C   0  0  0  0  0  0  0  0  0  0  0  0
  -35.1538  -27.9372   17.9241 C   0  0  0  0  0  0  0  0  0  0  0  0
  -35.9060  -27.0113   17.2014 C   0  0  0  0  0  0  0  0  0  0  0  0
  -23.2989  -26.6398   25.5074 C   0  0  0  0  0  0  0  0  0  0  0  0
  -25.6077  -20.6157   21.4428 C   0  0  0  0  0  0  0  0  0  0  0  0
  -35.1619  -25.2520   18.6808 C   0  0  0  0  0  0  0  0  0  0  0  0
  -29.5573  -27.8426   19.9634 C   0  0  0  0  0  0  0  0  0  0  0  0
  -27.4269  -26.4596   19.7251 C   0  0  0  0  0  0  0  0  0  0  0  0
  -23.7749  -12.5067   20.0717 C   0  0  0  0  0  0  0  0  0  0  0  0
  -25.5411  -18.9050   19.7315 C   0  0  0  0  0  0  0  0  0  0  0  0
  -23.9377  -13.7743   20.6625 C   0  0  0  0  0  0  0  0  0  0  0  0
  -23.8072  -27.9482   25.5668 C   0  0  0  0  0  0  0  0  0  0  0  0
  -26.2265  -19.5509   20.7703 C   0  0  0  0  0  0  0  0  0  0  0  0
  -22.4764  -26.2429   24.4566 C   0  0  0  0  0  0  0  0  0  0  0  0
  -23.4846  -28.8724   24.5503 C   0  0  0  0  0  0  0  0  0  0  0  0
  -32.3138  -28.2448   19.8139 C   0  0  0  0  0  0  0  0  0  0  0  0
  -24.3302  -21.0405   21.0787 C   0  0  0  0  0  0  0  0  0  0  0  0
  -34.4056  -27.5206   19.0253 C   0  0  0  0  0  0  0  0  0  0  0  0
  -35.9101  -25.6687   17.5797 C   0  0  0  0  0  0  0  0  0  0  0  0
  -34.4097  -26.1780   19.4035 C   0  0  0  0  0  0  0  0  0  0  0  0
  -28.1335  -27.6355   20.0412 C   0  0  0  0  0  0  0  0  0  0  0  0
  -26.1116  -26.7745   19.9645 C   0  0  0  0  0  0  0  0  0  0  0  0
  -27.9159  -25.1956   19.2571 C   0  0  0  0  0  0  0  0  0  0  0  0
  -26.7359  -16.1801   20.8497 C   0  0  0  0  0  0  0  0  0  0  0  0
  -29.5672  -17.7146   20.4601 C   0  0  0  0  0  0  0  0  0  0  0  0
  -31.2509  -20.6741   20.2302 C   0  0  0  0  0  0  0  0  0  0  0  0
  -23.8523  -31.1671   23.5941 C   0  0  0  0  0  0  0  0  0  0  0  0
  -24.8869  -11.4880   20.0605 C   0  0  0  0  0  0  0  0  0  0  0  0
  -26.1894  -17.7769   18.9769 C   0  0  0  0  0  0  0  0  0  0  0  0
  -24.6412  -28.3336   26.7628 C   0  0  0  0  0  0  0  0  0  0  0  0
  -27.6091  -19.1274   21.1917 C   0  0  0  0  0  0  0  0  0  0  0  0
  -26.2652  -12.0878   20.3263 C   0  0  0  0  0  0  0  0  0  0  0  0
  -25.4010  -29.6337   26.5473 C   0  0  0  0  0  0  0  0  0  0  0  0
  -23.0707  -30.4579   20.0432 C   0  0  0  0  0  0  0  0  0  0  0  0
  -26.2126  -13.0396   21.5172 C   0  0  0  0  0  0  0  0  0  0  0  0
  -24.2700  -29.6259   19.5936 C   0  0  0  0  0  0  0  0  0  0  0  0
  -24.4912  -30.6715   25.9137 C   0  0  0  0  0  0  0  0  0  0  0  0
  -23.4391  -31.4185   21.1695 C   0  0  0  0  0  0  0  0  0  0  0  0
  -25.2610  -29.9045   21.9011 C   0  0  0  0  0  0  0  0  0  0  0  0
  -25.2641  -14.2131   21.2441 C   0  0  1  0  0  0  0  0  0  0  0  0
  -27.2842  -17.0756   19.7750 C   0  0  1  0  0  0  0  0  0  0  0  0
  -24.9071  -28.9030   20.7914 C   0  0  2  0  0  0  0  0  0  0  0  0
  -33.5631  -21.6086   19.9514 C   0  0  0  0  0  0  0  0  0  0  0  0
  -30.1814  -17.0580   23.3759 C   0  0  0  0  0  0  0  0  0  0  0  0
  -31.9949  -18.7828   23.3096 C   0  0  0  0  0  0  0  0  0  0  0  0
  -32.1174  -16.7888   21.8157 C   0  0  0  0  0  0  0  0  0  0  0  0
  -30.5268  -22.0203   17.6959 C   0  0  0  0  0  0  0  0  0  0  0  0
  -21.9488  -24.8495   24.4038 C   0  0  0  0  0  0  0  0  0  0  0  0
  -21.8798  -22.7023   23.1297 C   0  0  0  0  0  0  0  0  0  0  0  0
  -22.3197  -22.0690   21.8245 C   0  0  0  0  0  0  0  0  0  1  0  0
  -30.4284  -18.6046   21.3233 C   0  0  1  0  0  0  0  0  0  0  0  0
  -32.2928  -21.1661   19.2419 C   0  0  2  0  0  0  0  0  0  0  0  0
  -31.1537  -17.8155   22.4497 C   0  0  0  0  0  0  0  0  0  0  0  0
  -27.3333  -28.6237   20.4500 N   0  0  0  0  0  0  0  0  0  0  0  0
  -26.1103  -28.0695   20.3923 N   0  0  0  0  0  0  0  0  0  0  0  0
  -24.0012  -30.2132   24.6134 N   0  0  0  0  0  0  0  0  0  0  0  0
  -28.1981  -18.0154   20.4275 N   0  0  0  0  0  0  0  0  0  0  0  0
  -24.1016  -30.7297   22.2780 N   0  0  0  0  0  0  0  0  0  0  0  0
  -24.9676  -26.0672   19.8484 N   0  0  0  0  0  0  0  0  0  0  0  0
  -28.2634  -24.2218   20.2033 N   0  0  0  0  0  0  0  0  0  0  0  0
  -25.8989  -15.1857   20.3806 N   0  0  0  0  0  0  0  0  0  0  0  0
  -31.3259  -19.3097   20.4146 N   0  0  0  0  0  0  0  0  0  0  0  0
  -31.7632  -22.3208   18.4627 N   0  3  0  0  0  0  0  0  0  0  0  0
  -22.3490  -24.1116   23.1736 N   0  3  0  0  0  0  0  0  0  0  0  0
  -28.0565  -24.9433   18.0364 O   0  0  0  0  0  0  0  0  0  0  0  0
  -27.0503  -16.3758   22.0179 O   0  0  0  0  0  0  0  0  0  0  0  0
  -30.0909  -16.7910   19.8322 O   0  0  0  0  0  0  0  0  0  0  0  0
  -30.4528  -21.4256   20.7860 O   0  0  0  0  0  0  0  0  0  0  0  0
  -23.5825  -32.3460   23.8552 O   0  0  0  0  0  0  0  0  0  0  0  0
  -33.6587  -28.4409   19.7413 O   0  0  0  0  0  0  0  0  0  0  0  0
  -23.7388  -22.0831   21.7434 O   0  0  0  0  0  0  0  0  0  1  0  0
  -36.6313  -24.7794   16.8846 F   0  0  0  0  0  0  0  0  0  0  0  0
  -33.6920  -25.7715   20.4598 F   0  0  0  0  0  0  0  0  0  0  0  0
  1  2  1  0  0  0  0
  1  5  2  0  0  0  0
  2  6  2  0  0  0  0
  3 10  2  0  0  0  0
  3 18  1  0  0  0  0
  4 11  1  0  0  0  0
  4 18  2  0  0  0  0
  5 20  1  0  0  0  0
  6 22  1  0  0  0  0
  7 12  2  0  0  0  0
  7 21  1  0  0  0  0
  8  9  2  0  0  0  0
  8 25  1  0  0  0  0
  9 26  1  0  0  0  0
 10 27  1  0  0  0  0
 11 27  2  0  0  0  0
 12 28  1  0  0  0  0
 13 14  2  0  0  0  0
 13 29  1  0  0  0  0
 14 30  1  0  0  0  0
 15 23  1  0  0  0  0
 15 25  2  0  0  0  0
 16 24  1  0  0  0  0
 16 28  2  0  0  0  0
 17 30  2  0  0  0  0
 17 31  1  0  0  0  0
 18 32  1  0  0  0  0
 19 32  1  0  0  0  0
 19 33  2  0  0  0  0
 19 34  1  0  0  0  0
 20 22  2  0  0  0  0
 20 39  1  0  0  0  0
 21 24  2  0  0  0  0
 21 40  1  0  0  0  0
 22 51  1  0  0  0  0
 23 26  2  0  0  0  0
 23 41  1  0  0  0  0
 24 42  1  0  0  0  0
 25 59  1  0  0  0  0
 26 67  1  0  0  0  0
 27 81  1  0  0  0  0
 28 82  1  0  0  0  0
 29 31  2  0  0  0  0
 29 81  1  0  0  0  0
 30 83  1  0  0  0  0
 31 84  1  0  0  0  0
 32 65  2  0  0  0  0
 33 66  1  0  0  0  0
 33 70  1  0  0  0  0
 34 71  1  0  0  0  0
 34 76  2  0  0  0  0
 35 52  1  0  0  0  0
 35 72  1  0  0  0  0
 35 77  2  0  0  0  0
 36 62  1  0  0  0  0
 36 68  1  0  0  0  0
 36 78  2  0  0  0  0
 37 63  1  0  0  0  0
 37 73  1  0  0  0  0
 37 79  2  0  0  0  0
 38 67  1  0  0  0  0
 38 69  1  0  0  0  0
 38 80  2  0  0  0  0
 39 43  1  0  0  0  0
 40 52  1  0  0  0  0
 41 44  1  0  0  0  0
 42 68  1  0  0  0  0
 43 46  1  0  0  0  0
 44 48  1  0  0  0  0
 45 47  1  0  0  0  0
 45 49  1  0  0  0  0
 46 51  1  0  0  0  0
 47 53  1  0  0  0  0
 48 67  1  0  0  0  0
 49 69  1  0  0  0  0
 50 53  1  0  0  0  0
 50 69  1  0  0  0  0
 51 72  1  0  0  0  0
 52 68  1  0  0  0  0
 53 66  1  0  0  0  0
 54 63  1  0  0  0  0
 55 64  1  0  0  0  0
 56 64  1  0  0  0  0
 57 64  1  0  0  0  0
 58 74  1  0  0  0  0
 59 75  1  0  0  0  0
 60 61  1  0  0  0  0
 60 75  1  0  0  0  0
 61 82  1  0  0  0  0
 62 64  1  0  0  0  0
 62 73  1  0  0  0  0
 63 74  1  0  0  0  0
 65 66  1  0  0  0  0
M  CHG  2  74   1  75   1
M  ISO  4  38 100  61 101  67 100  82 101
M  END
> <Batch ID>
0137

> <Smiles>
CNC(C)C(=O)NC(C(=O)N1Cc2cc([101O:1][101CH2:1]CNCc3ccc4c(c3)CCC[100N:0]4[100C:0](=O)N3CCCC(n4nc(-c5ccc(Oc6ccc(F)cc6F)cc5)c(C(N)=O)c4N)C3)ccc2CC1C(=O)NC1CCCc2ccccc21)C(C)(C)C

> <Shape>
0.212

> <Color>
0.079

> <Negative vol penalty>
0.000

$$$$

  -OEChem-04052321053D

 82 90  0     1  0  0  0  0  0999 V2000
  -31.3769  -31.4950   17.7497 C   0  0  0  0  0  0  0  0  0  0  0  0
  -31.0700  -30.1547   17.9611 C   0  0  0  0  0  0  0  0  0  0  0  0
  -23.2609  -11.1199   23.1000 C   0  0  0  0  0  0  0  0  0  0  0  0
  -24.8783  -12.2223   24.5163 C   0  0  0  0  0  0  0  0  0  0  0  0
  -30.8371  -32.4726   18.5845 C   0  0  0  0  0  0  0  0  0  0  0  0
  -30.2240  -29.7910   19.0082 C   0  0  0  0  0  0  0  0  0  0  0  0
  -26.1853  -25.1874   19.0488 C   0  0  0  0  0  0  0  0  0  0  0  0
  -22.7158  -10.4855   24.2163 C   0  0  0  0  0  0  0  0  0  0  0  0
  -24.3333  -11.5878   25.6325 C   0  0  0  0  0  0  0  0  0  0  0  0
  -26.2444  -23.8923   19.5616 C   0  0  0  0  0  0  0  0  0  0  0  0
  -20.6260  -11.2718   26.7554 C   0  0  0  0  0  0  0  0  0  0  0  0
  -19.2364  -11.2483   26.8735 C   0  0  0  0  0  0  0  0  0  0  0  0
  -25.1347  -24.6426   21.5678 C   0  0  0  0  0  0  0  0  0  0  0  0
  -19.2759   -8.8327   26.8581 C   0  0  0  0  0  0  0  0  0  0  0  0
  -24.3422  -11.9883   23.2500 C   0  0  0  0  0  0  0  0  0  0  0  0
  -24.2493  -13.5175   21.2102 C   0  0  0  0  0  0  0  0  0  0  0  0
  -29.9763  -32.1216   19.6364 C   0  0  0  0  0  0  0  0  0  0  0  0
  -25.6093  -26.2238   19.7974 C   0  0  0  0  0  0  0  0  0  0  0  0
  -29.6732  -30.7647   19.8586 C   0  0  0  0  0  0  0  0  0  0  0  0
  -25.0672  -25.9494   21.0611 C   0  0  0  0  0  0  0  0  0  0  0  0
  -23.2520  -10.7195   25.4825 C   0  0  0  0  0  0  0  0  0  0  0  0
  -25.7216  -23.6203   20.8225 C   0  0  0  0  0  0  0  0  0  0  0  0
  -21.3406  -10.0757   26.6885 C   0  0  0  0  0  0  0  0  0  0  0  0
  -18.5613  -10.0288   26.9249 C   0  0  0  0  0  0  0  0  0  0  0  0
  -20.6656   -8.8562   26.7399 C   0  0  0  0  0  0  0  0  0  0  0  0
  -24.9060  -12.6435   22.0972 C   0  0  0  0  0  0  0  0  0  0  0  0
  -25.2120  -13.8640   20.2939 C   0  0  0  0  0  0  0  0  0  0  0  0
  -22.8906  -13.9752   21.2143 C   0  0  0  0  0  0  0  0  0  0  0  0
  -26.6635  -28.9624   21.0189 C   0  0  0  0  0  0  0  0  0  0  0  0
  -23.5353  -29.3820   21.7678 C   0  0  0  0  0  0  0  0  0  0  0  0
  -20.4914  -27.9711   22.3925 C   0  0  0  0  0  0  0  0  0  0  0  0
  -31.1923  -14.0386   20.5314 C   0  0  0  0  0  0  0  0  0  0  0  0
  -29.4549  -33.2095   20.5415 C   0  0  0  0  0  0  0  0  0  0  0  0
  -25.5293  -27.6099   19.2189 C   0  0  0  0  0  0  0  0  0  0  0  0
  -24.4199  -27.0227   21.8964 C   0  0  0  0  0  0  0  0  0  0  0  0
  -28.2687  -32.7732   21.3975 C   0  0  0  0  0  0  0  0  0  0  0  0
  -29.1940  -12.1940   18.2334 C   0  0  0  0  0  0  0  0  0  0  0  0
  -28.5422  -31.4154   22.0365 C   0  0  0  0  0  0  0  0  0  0  0  0
  -27.8092  -12.1789   18.8830 C   0  0  0  0  0  0  0  0  0  0  0  0
  -30.3069  -12.0962   19.2745 C   0  0  0  0  0  0  0  0  0  0  0  0
  -28.6185  -19.3386   20.4774 C   0  0  0  0  0  0  0  0  0  0  0  0
  -28.9704  -19.1076   22.8585 C   0  0  0  0  0  0  0  0  0  0  0  0
  -28.8533  -13.0871   21.0005 C   0  0  0  0  0  0  0  0  0  0  0  0
  -30.0168  -18.8057   20.1833 C   0  0  0  0  0  0  0  0  0  0  0  0
  -30.3790  -18.5679   22.6336 C   0  0  0  0  0  0  0  0  0  0  0  0
  -28.7397  -30.3328   20.9686 C   0  0  1  0  0  0  0  0  0  0  0  0
  -25.3818  -28.6937   20.2824 C   0  0  1  0  0  0  0  0  0  0  0  0
  -27.6996  -13.2400   19.9945 C   0  0  2  0  0  0  0  0  0  0  0  0
  -18.1340  -28.5669   23.0132 C   0  0  0  0  0  0  0  0  0  0  0  0
  -27.1907  -21.2266   23.4041 C   0  0  0  0  0  0  0  0  0  0  0  0
  -24.4193  -29.8693   24.6472 C   0  0  0  0  0  0  0  0  0  0  0  0
  -22.0468  -29.5115   25.3626 C   0  0  0  0  0  0  0  0  0  0  0  0
  -22.6161  -31.4007   23.8362 C   0  0  0  0  0  0  0  0  0  0  0  0
  -19.4163  -26.8103   19.8913 C   0  0  0  0  0  0  0  0  0  0  0  0
  -31.9338  -15.9968   21.8636 C   0  0  0  0  0  0  0  0  0  0  0  0
  -31.7806  -17.2592   21.0359 C   0  0  0  0  0  0  0  0  0  0  0  0
  -26.8740  -21.5418   20.9115 C   0  0  0  0  0  0  0  0  0  1  0  0
  -22.6629  -29.0335   22.9495 C   0  0  1  0  0  0  0  0  0  0  0  0
  -19.1034  -28.2989   21.8725 C   0  0  2  0  0  0  0  0  0  0  0  0
  -27.2386  -20.5622   22.0279 C   0  0  1  0  0  0  0  0  0  0  0  0
  -22.9501  -29.9337   24.1842 C   0  0  0  0  0  0  0  0  0  0  0  0
  -26.1868  -12.4468   21.7735 N   0  0  0  0  0  0  0  0  0  0  0  0
  -26.3427  -13.2020   20.6728 N   0  0  0  0  0  0  0  0  0  0  0  0
  -24.3717  -28.3632   21.2897 N   0  0  0  0  0  0  0  0  0  0  0  0
  -30.1458  -13.1309   20.2989 N   0  0  0  0  0  0  0  0  0  0  0  0
  -28.5737  -20.0198   21.7779 N   0  0  0  0  0  0  0  0  0  0  0  0
  -25.1932  -14.6672   19.2091 N   0  0  0  0  0  0  0  0  0  0  0  0
  -22.0355  -13.5210   22.2277 N   0  0  0  0  0  0  0  0  0  0  0  0
  -27.4634  -29.9201   20.4252 N   0  0  0  0  0  0  0  0  0  0  0  0
  -21.2856  -29.0954   22.4723 N   0  0  0  0  0  0  0  0  0  0  0  0
  -30.9551  -14.9911   21.5149 N   0  0  0  0  0  0  0  0  0  0  0  0
  -30.4356  -17.8765   21.2947 N   0  3  0  0  0  0  0  0  0  0  0  0
  -18.5732  -27.1665   21.0615 N   0  3  0  0  0  0  0  0  0  0  0  0
  -22.4435  -14.7507   20.3355 O   0  0  0  0  0  0  0  0  0  0  0  0
  -26.9080  -28.3476   22.0504 O   0  0  0  0  0  0  0  0  0  0  0  0
  -23.4718  -30.5141   21.2822 O   0  0  0  0  0  0  0  0  0  0  0  0
  -20.8353  -26.8321   22.7009 O   0  0  0  0  0  0  0  0  0  0  0  0
  -32.2570  -14.0060   19.9050 O   0  0  0  0  0  0  0  0  0  0  0  0
  -22.7203  -10.1007   26.5720 O   0  0  0  0  0  0  0  0  0  0  0  0
  -25.7786  -22.3572   21.3257 O   0  0  0  0  0  0  0  0  0  1  0  0
  -17.2270  -10.0063   27.0399 F   0  0  0  0  0  0  0  0  0  0  0  0
  -21.3468   -7.7039   26.6773 F   0  0  0  0  0  0  0  0  0  0  0  0
  1  2  1  0  0  0  0
  1  5  2  0  0  0  0
  2  6  2  0  0  0  0
  3  8  2  0  0  0  0
  3 15  1  0  0  0  0
  4  9  1  0  0  0  0
  4 15  2  0  0  0  0
  5 17  1  0  0  0  0
  6 19  1  0  0  0  0
  7 10  2  0  0  0  0
  7 18  1  0  0  0  0
  8 21  1  0  0  0  0
  9 21  2  0  0  0  0
 10 22  1  0  0  0  0
 11 12  2  0  0  0  0
 11 23  1  0  0  0  0
 12 24  1  0  0  0  0
 13 20  1  0  0  0  0
 13 22  2  0  0  0  0
 14 24  2  0  0  0  0
 14 25  1  0  0  0  0
 15 26  1  0  0  0  0
 16 26  1  0  0  0  0
 16 27  2  0  0  0  0
 16 28  1  0  0  0  0
 17 19  2  0  0  0  0
 17 33  1  0  0  0  0
 18 20  2  0  0  0  0
 18 34  1  0  0  0  0
 19 46  1  0  0  0  0
 20 35  1  0  0  0  0
 21 79  1  0  0  0  0
 22 80  1  0  0  0  0
 23 25  2  0  0  0  0
 23 79  1  0  0  0  0
 24 81  1  0  0  0  0
 25 82  1  0  0  0  0
 26 62  2  0  0  0  0
 27 63  1  0  0  0  0
 27 67  1  0  0  0  0
 28 68  1  0  0  0  0
 28 74  2  0  0  0  0
 29 47  1  0  0  0  0
 29 69  1  0  0  0  0
 29 75  2  0  0  0  0
 30 58  1  0  0  0  0
 30 64  1  0  0  0  0
 30 76  2  0  0  0  0
 31 59  1  0  0  0  0
 31 70  1  0  0  0  0
 31 77  2  0  0  0  0
 32 65  1  0  0  0  0
 32 71  1  0  0  0  0
 32 78  2  0  0  0  0
 33 36  1  0  0  0  0
 34 47  1  0  0  0  0
 35 64  1  0  0  0  0
 36 38  1  0  0  0  0
 37 39  1  0  0  0  0
 37 40  1  0  0  0  0
 38 46  1  0  0  0  0
 39 48  1  0  0  0  0
 40 65  1  0  0  0  0
 41 44  1  0  0  0  0
 41 66  1  0  0  0  0
 42 45  1  0  0  0  0
 42 66  1  0  0  0  0
 43 48  1  0  0  0  0
 43 65  1  0  0  0  0
 44 72  1  0  0  0  0
 45 72  1  0  0  0  0
 46 69  1  0  0  0  0
 47 64  1  0  0  0  0
 48 63  1  0  0  0  0
 49 59  1  0  0  0  0
 50 60  1  0  0  0  0
 51 61  1  0  0  0  0
 52 61  1  0  0  0  0
 53 61  1  0  0  0  0
 54 73  1  0  0  0  0
 55 56  1  0  0  0  0
 55 71  1  0  0  0  0
 56 72  1  0  0  0  0
 57 60  1  0  0  0  0
 57 80  1  0  0  0  0
 58 61  1  0  0  0  0
 58 70  1  0  0  0  0
 59 73  1  0  0  0  0
 60 66  1  0  0  0  0
 62 63  1  0  0  0  0
M  CHG  2  72   1  73   1
M  ISO  4  32 100  57 101  71 100  80 101
M  END
> <Batch ID>
0137

> <Smiles>
CNC(C)C(=O)NC(C(=O)N1Cc2cc([101O:1][101CH2:1]C(C)N3CCN(CC[100NH:0][100C:0](=O)N4CCCC(n5nc(-c6ccc(Oc7ccc(F)cc7F)cc6)c(C(N)=O)c5N)C4)CC3)ccc2CC1C(=O)NC1CCCc2ccccc21)C(C)(C)C

> <Shape>
0.244

> <Color>
0.096

> <Negative vol penalty>
0.000

$$$$

  -OEChem-04052321053D

 84 93  0     1  0  0  0  0  0999 V2000
  -17.9729  -23.8999   22.3296 C   0  0  0  0  0  0  0  0  0  0  0  0
  -19.3268  -23.5832   22.2839 C   0  0  0  0  0  0  0  0  0  0  0  0
  -22.9824  -10.0040   19.9679 C   0  0  0  0  0  0  0  0  0  0  0  0
  -23.6775  -10.0479   22.2813 C   0  0  0  0  0  0  0  0  0  0  0  0
  -17.5734  -25.2253   22.4960 C   0  0  0  0  0  0  0  0  0  0  0  0
  -20.2820  -24.5920   22.4036 C   0  0  0  0  0  0  0  0  0  0  0  0
  -24.0500  -23.3366   25.5456 C   0  0  0  0  0  0  0  0  0  0  0  0
  -22.2082   -8.8719   20.2219 C   0  0  0  0  0  0  0  0  0  0  0  0
  -22.9032   -8.9158   22.5354 C   0  0  0  0  0  0  0  0  0  0  0  0
  -25.0304  -22.4767   25.0525 C   0  0  0  0  0  0  0  0  0  0  0  0
  -23.1413   -5.5768   22.0603 C   0  0  0  0  0  0  0  0  0  0  0  0
  -23.7151   -4.5560   22.8181 C   0  0  0  0  0  0  0  0  0  0  0  0
  -26.4807  -24.3643   24.6613 C   0  0  0  0  0  0  0  0  0  0  0  0
  -27.1445  -21.3518   20.0909 C   0  0  0  0  0  0  0  0  0  0  0  0
  -28.1571  -21.0284   22.2484 C   0  0  0  0  0  0  0  0  0  0  0  0
  -21.9703   -4.8023   24.4711 C   0  0  0  0  0  0  0  0  0  0  0  0
  -23.7171  -10.5920   20.9975 C   0  0  0  0  0  0  0  0  0  0  0  0
  -24.1141  -13.1064   20.8314 C   0  0  0  0  0  0  0  0  0  0  0  0
  -18.5242  -26.2496   22.6275 C   0  0  0  0  0  0  0  0  0  0  0  0
  -24.2738  -24.7202   25.5901 C   0  0  0  0  0  0  0  0  0  0  0  0
  -19.8949  -25.9325   22.5707 C   0  0  0  0  0  0  0  0  0  0  0  0
  -25.5025  -25.2393   25.1577 C   0  0  0  0  0  0  0  0  0  0  0  0
  -28.1257  -20.7661   20.8833 C   0  0  0  0  0  0  0  0  0  0  0  0
  -22.1686   -8.3278   21.5057 C   0  0  0  0  0  0  0  0  0  0  0  0
  -26.2448  -22.9907   24.6075 C   0  0  0  0  0  0  0  0  0  0  0  0
  -21.9820   -6.2105   22.5079 C   0  0  0  0  0  0  0  0  0  0  0  0
  -23.1296   -4.1687   24.0234 C   0  0  0  0  0  0  0  0  0  0  0  0
  -21.3965   -5.8232   23.7133 C   0  0  0  0  0  0  0  0  0  0  0  0
  -24.5175  -11.7611   20.7356 C   0  0  0  0  0  0  0  0  0  0  0  0
  -26.2262  -22.1864   20.7072 C   0  0  0  0  0  0  0  0  0  0  0  0
  -27.1928  -21.8767   22.7683 C   0  0  0  0  0  0  0  0  0  1  0  0
  -25.2312  -13.8255   20.4830 C   0  0  0  0  0  0  0  0  0  0  0  0
  -22.8432  -13.6568   21.2024 C   0  0  0  0  0  0  0  0  0  0  0  0
  -22.9090  -27.2577   24.2475 C   0  0  0  0  0  0  0  0  0  0  0  0
  -24.9531  -28.8870   26.1682 C   0  0  0  0  0  0  0  0  0  0  0  0
  -27.8692  -28.9067   27.9411 C   0  0  0  0  0  0  0  0  0  0  0  0
  -30.7273  -14.7389   20.8054 C   0  0  0  0  0  0  0  0  0  0  0  0
  -18.0441  -27.6733   22.7582 C   0  0  0  0  0  0  0  0  0  0  0  0
  -23.2163  -25.6318   26.1497 C   0  0  0  0  0  0  0  0  0  0  0  0
  -25.8001  -26.7151   25.2034 C   0  0  0  0  0  0  0  0  0  0  0  0
  -19.1205  -28.6361   23.2531 C   0  0  0  0  0  0  0  0  0  0  0  0
  -29.6084  -12.3240   18.4405 C   0  0  0  0  0  0  0  0  0  0  0  0
  -30.5790  -20.3737   20.4873 C   0  0  0  0  0  0  0  0  0  0  0  0
  -20.4250  -28.4142   22.4942 C   0  0  0  0  0  0  0  0  0  0  0  0
  -31.2649  -19.3322   21.3658 C   0  0  0  0  0  0  0  0  0  0  0  0
  -28.1536  -12.0689   18.8385 C   0  0  0  0  0  0  0  0  0  0  0  0
  -29.0966  -18.4599   20.9126 C   0  0  0  0  0  0  0  0  0  0  0  0
  -30.4958  -12.5537   19.6619 C   0  0  0  0  0  0  0  0  0  0  0  0
  -28.5712  -13.3539   20.9770 C   0  0  0  0  0  0  0  0  0  0  0  0
  -29.1395  -19.8602   20.2720 C   0  0  1  0  0  0  0  0  0  0  0  0
  -20.9611  -26.9957   22.7217 C   0  0  1  0  0  0  0  0  0  0  0  0
  -23.3555  -27.0734   25.6704 C   0  0  1  0  0  0  0  0  0  0  0  0
  -30.5605  -18.0318   20.9947 C   0  0  2  0  0  0  0  0  0  0  0  0
  -27.6272  -13.1721   19.7762 C   0  0  2  0  0  0  0  0  0  0  0  0
  -25.1595  -22.8326   19.8874 C   0  0  0  0  0  0  0  0  0  0  0  0
  -29.2915  -30.3941   29.3771 C   0  0  0  0  0  0  0  0  0  0  0  0
  -25.9148  -30.3666   23.6790 C   0  0  0  0  0  0  0  0  0  0  0  0
  -27.9220  -31.1068   24.9796 C   0  0  0  0  0  0  0  0  0  0  0  0
  -25.6401  -31.8048   25.7065 C   0  0  0  0  0  0  0  0  0  0  0  0
  -27.6138  -27.0978   30.2695 C   0  0  0  0  0  0  0  0  0  0  0  0
  -30.8026  -16.9153   21.9957 C   0  0  0  0  0  0  0  0  0  0  0  0
  -26.3647  -29.4046   26.0324 C   0  0  1  0  0  0  0  0  0  0  0  0
  -28.1838  -29.3523   29.3577 C   0  0  2  0  0  0  0  0  0  0  0  0
  -26.4544  -30.6430   25.0966 C   0  0  0  0  0  0  0  0  0  0  0  0
  -25.7913  -11.6306   20.3558 N   0  0  0  0  0  0  0  0  0  0  0  0
  -26.2248  -22.4649   22.0301 N   0  0  0  0  0  0  0  0  0  0  0  0
  -26.1981  -12.9031   20.2099 N   0  0  0  0  0  0  0  0  0  0  0  0
  -24.7319  -27.5662   25.7531 N   0  0  0  0  0  0  0  0  0  0  0  0
  -29.9418  -13.6129   20.5088 N   0  0  0  0  0  0  0  0  0  0  0  0
  -25.4709  -15.1505   20.3866 N   0  0  0  0  0  0  0  0  0  0  0  0
  -21.8037  -12.7759   21.5306 N   0  0  0  0  0  0  0  0  0  0  0  0
  -21.5948  -26.8969   24.0191 N   0  0  0  0  0  0  0  0  0  0  0  0
  -26.8437  -29.6450   27.3893 N   0  0  0  0  0  0  0  0  0  0  0  0
  -30.1240  -15.6984   21.6092 N   0  0  0  0  0  0  0  0  0  0  0  0
  -28.6179  -28.1892   30.1822 N   0  3  0  0  0  0  0  0  0  0  0  0
  -22.6308  -14.8929   21.2256 O   0  0  0  0  0  0  0  0  0  0  0  0
  -23.6979  -27.6961   23.4187 O   0  0  0  0  0  0  0  0  0  0  0  0
  -24.0805  -29.6250   26.6324 O   0  0  0  0  0  0  0  0  0  0  0  0
  -28.4753  -27.9973   27.3788 O   0  0  0  0  0  0  0  0  0  0  0  0
  -31.8789  -14.8814   20.3806 O   0  0  0  0  0  0  0  0  0  0  0  0
  -21.4131   -7.2232   21.7541 O   0  0  0  0  0  0  0  0  0  0  0  0
  -27.2032  -22.1537   24.1252 O   0  0  0  0  0  0  0  0  0  1  0  0
  -23.6799   -3.1874   24.7503 F   0  0  0  0  0  0  0  0  0  0  0  0
  -20.2821   -6.4274   24.1478 F   0  0  0  0  0  0  0  0  0  0  0  0
  1  2  1  0  0  0  0
  1  5  2  0  0  0  0
  2  6  2  0  0  0  0
  3  8  2  0  0  0  0
  3 17  1  0  0  0  0
  4  9  1  0  0  0  0
  4 17  2  0  0  0  0
  5 19  1  0  0  0  0
  6 21  1  0  0  0  0
  7 10  2  0  0  0  0
  7 20  1  0  0  0  0
  8 24  1  0  0  0  0
  9 24  2  0  0  0  0
 10 25  1  0  0  0  0
 11 12  2  0  0  0  0
 11 26  1  0  0  0  0
 12 27  1  0  0  0  0
 13 22  1  0  0  0  0
 13 25  2  0  0  0  0
 14 23  1  0  0  0  0
 14 30  2  0  0  0  0
 15 23  2  0  0  0  0
 15 31  1  0  0  0  0
 16 27  2  0  0  0  0
 16 28  1  0  0  0  0
 17 29  1  0  0  0  0
 18 29  1  0  0  0  0
 18 32  2  0  0  0  0
 18 33  1  0  0  0  0
 19 21  2  0  0  0  0
 19 38  1  0  0  0  0
 20 22  2  0  0  0  0
 20 39  1  0  0  0  0
 21 51  1  0  0  0  0
 22 40  1  0  0  0  0
 23 50  1  0  0  0  0
 24 81  1  0  0  0  0
 25 82  1  0  0  0  0
 26 28  2  0  0  0  0
 26 81  1  0  0  0  0
 27 83  1  0  0  0  0
 28 84  1  0  0  0  0
 29 65  2  0  0  0  0
 30 55  1  0  0  0  0
 30 66  1  0  0  0  0
 31 66  2  0  0  0  0
 31 82  1  0  0  0  0
 32 67  1  0  0  0  0
 32 70  1  0  0  0  0
 33 71  1  0  0  0  0
 33 76  2  0  0  0  0
 34 52  1  0  0  0  0
 34 72  1  0  0  0  0
 34 77  2  0  0  0  0
 35 62  1  0  0  0  0
 35 68  1  0  0  0  0
 35 78  2  0  0  0  0
 36 63  1  0  0  0  0
 36 73  1  0  0  0  0
 36 79  2  0  0  0  0
 37 69  1  0  0  0  0
 37 74  1  0  0  0  0
 37 80  2  0  0  0  0
 38 41  1  0  0  0  0
 39 52  1  0  0  0  0
 40 68  1  0  0  0  0
 41 44  1  0  0  0  0
 42 46  1  0  0  0  0
 42 48  1  0  0  0  0
 43 45  1  0  0  0  0
 43 50  1  0  0  0  0
 44 51  1  0  0  0  0
 45 53  1  0  0  0  0
 46 54  1  0  0  0  0
 47 50  1  0  0  0  0
 47 53  1  0  0  0  0
 48 69  1  0  0  0  0
 49 54  1  0  0  0  0
 49 69  1  0  0  0  0
 51 72  1  0  0  0  0
 52 68  1  0  0  0  0
 53 61  1  0  0  0  0
 54 67  1  0  0  0  0
 56 63  1  0  0  0  0
 57 64  1  0  0  0  0
 58 64  1  0  0  0  0
 59 64  1  0  0  0  0
 60 75  1  0  0  0  0
 61 74  1  0  0  0  0
 62 64  1  0  0  0  0
 62 73  1  0  0  0  0
 63 75  1  0  0  0  0
 65 67  1  0  0  0  0
M  CHG  1  75   1
M  ISO  4  31 101  37 100  74 100  82 101
M  END
> <Batch ID>
0137

> <Smiles>
CNC(C)C(=O)NC(C(=O)N1Cc2cc([101O:1][101c:1]3cc(C4CCC(C[100NH:0][100C:0](=O)N5CCCC(n6nc(-c7ccc(Oc8ccc(F)cc8F)cc7)c(C(N)=O)c6N)C5)C4)cc(C)n3)ccc2CC1C(=O)NC1CCCc2ccccc21)C(C)(C)C

> <Shape>
0.305

> <Color>
0.241

> <Negative vol penalty>
0.000

$$$$

  -OEChem-04052321053D

 84 93  0     1  0  0  0  0  0999 V2000
  -25.3199  -25.0575   18.6111 C   0  0  0  0  0  0  0  0  0  0  0  0
  -26.2010  -24.6051   19.5882 C   0  0  0  0  0  0  0  0  0  0  0  0
  -23.1628   -9.7818   19.8952 C   0  0  0  0  0  0  0  0  0  0  0  0
  -23.9324   -9.7659   22.1853 C   0  0  0  0  0  0  0  0  0  0  0  0
  -25.1553  -26.4261   18.4023 C   0  0  0  0  0  0  0  0  0  0  0  0
  -26.9187  -25.5213   20.3563 C   0  0  0  0  0  0  0  0  0  0  0  0
  -32.3508  -17.7918   23.5820 C   0  0  0  0  0  0  0  0  0  0  0  0
  -30.1287  -18.5105   24.2007 C   0  0  0  0  0  0  0  0  0  0  0  0
  -26.9301  -24.3405   25.2808 C   0  0  0  0  0  0  0  0  0  0  0  0
  -31.8055  -16.9030   22.6556 C   0  0  0  0  0  0  0  0  0  0  0  0
  -29.5833  -17.6217   23.2742 C   0  0  0  0  0  0  0  0  0  0  0  0
  -22.4802   -8.5857   20.1163 C   0  0  0  0  0  0  0  0  0  0  0  0
  -23.2497   -8.5698   22.4064 C   0  0  0  0  0  0  0  0  0  0  0  0
  -27.7969  -23.3285   25.6909 C   0  0  0  0  0  0  0  0  0  0  0  0
  -20.0696   -7.5914   22.9981 C   0  0  0  0  0  0  0  0  0  0  0  0
  -19.3213   -7.4812   24.1701 C   0  0  0  0  0  0  0  0  0  0  0  0
  -29.3631  -24.9920   26.4650 C   0  0  0  0  0  0  0  0  0  0  0  0
  -20.6638   -5.5908   24.8493 C   0  0  0  0  0  0  0  0  0  0  0  0
  -23.8890  -10.3719   20.9297 C   0  0  0  0  0  0  0  0  0  0  0  0
  -24.1005  -12.9136   20.8772 C   0  0  0  0  0  0  0  0  0  0  0  0
  -31.5124  -18.5955   24.3546 C   0  0  0  0  0  0  0  0  0  0  0  0
  -25.8642  -27.3596   19.1748 C   0  0  0  0  0  0  0  0  0  0  0  0
  -27.2787  -25.6882   25.4501 C   0  0  0  0  0  0  0  0  0  0  0  0
  -26.7644  -26.9037   20.1567 C   0  0  0  0  0  0  0  0  0  0  0  0
  -28.4978  -26.0192   26.0585 C   0  0  0  0  0  0  0  0  0  0  0  0
  -30.4218  -16.8180   22.5017 C   0  0  0  0  0  0  0  0  0  0  0  0
  -22.5236   -7.9797   21.3719 C   0  0  0  0  0  0  0  0  0  0  0  0
  -29.0149  -23.6542   26.2805 C   0  0  0  0  0  0  0  0  0  0  0  0
  -21.1149   -6.7013   22.7517 C   0  0  0  0  0  0  0  0  0  0  0  0
  -19.6185   -6.4809   25.0957 C   0  0  0  0  0  0  0  0  0  0  0  0
  -21.4121   -5.7011   23.6773 C   0  0  0  0  0  0  0  0  0  0  0  0
  -24.5949  -11.6072   20.7018 C   0  0  0  0  0  0  0  0  0  0  0  0
  -25.1511  -13.7276   20.5307 C   0  0  0  0  0  0  0  0  0  0  0  0
  -22.8074  -13.3520   21.3144 C   0  0  0  0  0  0  0  0  0  0  0  0
  -27.7726  -28.1408   23.4892 C   0  0  0  0  0  0  0  0  0  0  0  0
  -28.0090  -29.8070   26.2623 C   0  0  0  0  0  0  0  0  0  0  0  0
  -28.6632  -29.7802   29.6117 C   0  0  0  0  0  0  0  0  0  0  0  0
  -30.5574  -15.0472   20.7150 C   0  0  0  0  0  0  0  0  0  0  0  0
  -25.6884  -28.8283   18.8804 C   0  0  0  0  0  0  0  0  0  0  0  0
  -26.3208  -26.7679   25.0266 C   0  0  0  0  0  0  0  0  0  0  0  0
  -28.9101  -27.4506   26.2814 C   0  0  0  0  0  0  0  0  0  0  0  0
  -26.2061  -29.7384   19.9913 C   0  0  0  0  0  0  0  0  0  0  0  0
  -29.5566  -12.6441   18.2858 C   0  0  0  0  0  0  0  0  0  0  0  0
  -27.5889  -29.2869   20.4503 C   0  0  0  0  0  0  0  0  0  0  0  0
  -28.1359  -12.2676   18.7122 C   0  0  0  0  0  0  0  0  0  0  0  0
  -31.6634  -20.9902   25.0989 C   0  0  0  0  0  0  0  0  0  0  0  0
  -30.4646  -12.8871   19.4901 C   0  0  0  0  0  0  0  0  0  0  0  0
  -28.5297  -13.4752   20.8971 C   0  0  0  0  0  0  0  0  0  0  0  0
  -31.5813  -19.2959   26.7638 C   0  0  0  0  0  0  0  0  0  0  0  0
  -32.0938  -19.5428   25.3421 C   0  0  1  0  0  0  0  0  0  0  0  0
  -27.5423  -27.8667   21.0270 C   0  0  1  0  0  0  0  0  0  0  0  0
  -27.0039  -28.1095   24.7799 C   0  0  1  0  0  0  0  0  0  0  0  0
  -27.5614  -13.2841   19.7183 C   0  0  2  0  0  0  0  0  0  0  0  0
  -32.0268  -21.6792   26.4068 C   0  0  1  0  0  0  0  0  0  0  0  0
  -28.8145  -31.3018   31.6015 C   0  0  0  0  0  0  0  0  0  0  0  0
  -30.7076  -30.8299   25.2718 C   0  0  0  0  0  0  0  0  0  0  0  0
  -31.2214  -31.5387   27.6174 C   0  0  0  0  0  0  0  0  0  0  0  0
  -29.2912  -32.5518   26.4047 C   0  0  0  0  0  0  0  0  0  0  0  0
  -32.6032  -20.6444   28.6391 C   0  0  0  0  0  0  0  0  0  0  0  0
  -26.4962  -28.3409   31.0229 C   0  0  0  0  0  0  0  0  0  0  0  0
  -31.2595  -22.9610   26.6511 C   0  0  0  0  0  0  0  0  0  1  0  0
  -29.1339  -30.1589   27.2055 C   0  0  1  0  0  0  0  0  0  0  0  0
  -27.9168  -30.3820   30.7886 C   0  0  2  0  0  0  0  0  0  0  0  0
  -30.0819  -31.2428   26.6191 C   0  0  0  0  0  0  0  0  0  0  0  0
  -25.8609  -11.5877   20.2767 N   0  0  0  0  0  0  0  0  0  0  0  0
  -26.1710  -12.8919   20.1821 N   0  0  0  0  0  0  0  0  0  0  0  0
  -27.9422  -28.4703   25.8446 N   0  0  0  0  0  0  0  0  0  0  0  0
  -29.8578  -13.8638   20.3971 N   0  0  0  0  0  0  0  0  0  0  0  0
  -25.2927  -15.0696   20.4932 N   0  0  0  0  0  0  0  0  0  0  0  0
  -21.8449  -12.3834   21.6303 N   0  0  0  0  0  0  0  0  0  0  0  0
  -29.8675  -15.9154   21.5605 N   0  0  0  0  0  0  0  0  0  0  0  0
  -27.0037  -27.8840   22.3701 N   0  0  0  0  0  0  0  0  0  0  0  0
  -28.5060  -30.5340   28.4678 N   0  0  0  0  0  0  0  0  0  0  0  0
  -31.6756  -20.6430   27.4617 N   0  3  2  0  0  0  0  0  0  0  0  0
  -27.4110  -29.3053   31.6864 N   0  3  0  0  0  0  0  0  0  0  0  0
  -22.5087  -14.5669   21.4060 O   0  0  0  0  0  0  0  0  0  0  0  0
  -28.9740  -28.3816   23.5072 O   0  0  0  0  0  0  0  0  0  0  0  0
  -27.2144  -30.6843   25.9148 O   0  0  0  0  0  0  0  0  0  0  0  0
  -29.3230  -28.7470   29.6992 O   0  0  0  0  0  0  0  0  0  0  0  0
  -31.6741  -15.2861   20.2483 O   0  0  0  0  0  0  0  0  0  0  0  0
  -21.8574   -6.8126   21.5880 O   0  0  0  0  0  0  0  0  0  0  0  0
  -29.8631  -22.6683   26.6811 O   0  0  0  0  0  0  0  0  0  1  0  0
  -18.9008   -6.3760   26.2218 F   0  0  0  0  0  0  0  0  0  0  0  0
  -22.4159   -4.8438   23.4466 F   0  0  0  0  0  0  0  0  0  0  0  0
  1  2  1  0  0  0  0
  1  5  2  0  0  0  0
  2  6  2  0  0  0  0
  3 12  2  0  0  0  0
  3 19  1  0  0  0  0
  4 13  1  0  0  0  0
  4 19  2  0  0  0  0
  5 22  1  0  0  0  0
  6 24  1  0  0  0  0
  7 10  2  0  0  0  0
  7 21  1  0  0  0  0
  8 11  1  0  0  0  0
  8 21  2  0  0  0  0
  9 14  2  0  0  0  0
  9 23  1  0  0  0  0
 10 26  1  0  0  0  0
 11 26  2  0  0  0  0
 12 27  1  0  0  0  0
 13 27  2  0  0  0  0
 14 28  1  0  0  0  0
 15 16  2  0  0  0  0
 15 29  1  0  0  0  0
 16 30  1  0  0  0  0
 17 25  1  0  0  0  0
 17 28  2  0  0  0  0
 18 30  2  0  0  0  0
 18 31  1  0  0  0  0
 19 32  1  0  0  0  0
 20 32  1  0  0  0  0
 20 33  2  0  0  0  0
 20 34  1  0  0  0  0
 21 50  1  0  0  0  0
 22 24  2  0  0  0  0
 22 39  1  0  0  0  0
 23 25  2  0  0  0  0
 23 40  1  0  0  0  0
 24 51  1  0  0  0  0
 25 41  1  0  0  0  0
 26 71  1  0  0  0  0
 27 81  1  0  0  0  0
 28 82  1  0  0  0  0
 29 31  2  0  0  0  0
 29 81  1  0  0  0  0
 30 83  1  0  0  0  0
 31 84  1  0  0  0  0
 32 65  2  0  0  0  0
 33 66  1  0  0  0  0
 33 69  1  0  0  0  0
 34 70  1  0  0  0  0
 34 76  2  0  0  0  0
 35 52  1  0  0  0  0
 35 72  1  0  0  0  0
 35 77  2  0  0  0  0
 36 62  1  0  0  0  0
 36 67  1  0  0  0  0
 36 78  2  0  0  0  0
 37 63  1  0  0  0  0
 37 73  1  0  0  0  0
 37 79  2  0  0  0  0
 38 68  1  0  0  0  0
 38 71  1  0  0  0  0
 38 80  2  0  0  0  0
 39 42  1  0  0  0  0
 40 52  1  0  0  0  0
 41 67  1  0  0  0  0
 42 44  1  0  0  0  0
 43 45  1  0  0  0  0
 43 47  1  0  0  0  0
 44 51  1  0  0  0  0
 45 53  1  0  0  0  0
 46 50  1  0  0  0  0
 46 54  1  0  0  0  0
 47 68  1  0  0  0  0
 48 53  1  0  0  0  0
 48 68  1  0  0  0  0
 49 50  1  0  0  0  0
 49 74  1  0  0  0  0
 51 72  1  0  0  0  0
 52 67  1  0  0  0  0
 53 66  1  0  0  0  0
 54 61  1  0  0  0  0
 54 74  1  0  0  0  0
 55 63  1  0  0  0  0
 56 64  1  0  0  0  0
 57 64  1  0  0  0  0
 58 64  1  0  0  0  0
 59 74  1  0  0  0  0
 60 75  1  0  0  0  0
 61 82  1  0  0  0  0
 62 64  1  0  0  0  0
 62 73  1  0  0  0  0
 63 75  1  0  0  0  0
 65 66  1  0  0  0  0
M  CHG  2  74   1  75   1
M  ISO  4  38 100  61 101  71 100  82 101
M  END
> <Batch ID>
0137

> <Smiles>
CNC(C)C(=O)NC(C(=O)N1Cc2cc([101O:1][101CH2:1]C3CC(c4ccc([100NH:0][100C:0](=O)N5CCCC(n6nc(-c7ccc(Oc8ccc(F)cc8F)cc7)c(C(N)=O)c6N)C5)cc4)CN3C)ccc2CC1C(=O)NC1CCCc2ccccc21)C(C)(C)C

> <Shape>
0.230

> <Color>
0.195

> <Negative vol penalty>
0.000

$$$$

  -OEChem-04052321053D

 85 93  0     1  0  0  0  0  0999 V2000
  -29.6123  -23.7540   19.1014 C   0  0  0  0  0  0  0  0  0  0  0  0
  -28.2358  -23.9557   19.1028 C   0  0  0  0  0  0  0  0  0  0  0  0
  -27.7145  -12.8431   20.3679 C   0  0  0  0  0  0  0  0  0  0  0  0
  -25.6180  -13.3683   19.2880 C   0  0  0  0  0  0  0  0  0  0  0  0
  -30.4024  -24.3396   20.0897 C   0  0  0  0  0  0  0  0  0  0  0  0
  -27.6485  -24.7422   20.0932 C   0  0  0  0  0  0  0  0  0  0  0  0
  -22.7987  -28.4300   19.4719 C   0  0  0  0  0  0  0  0  0  0  0  0
  -22.3889  -21.6859   22.4657 C   0  0  0  0  0  0  0  0  0  0  0  0
  -27.2933  -11.5252   20.5447 C   0  0  0  0  0  0  0  0  0  0  0  0
  -25.1968  -12.0503   19.4649 C   0  0  0  0  0  0  0  0  0  0  0  0
  -21.4476  -28.2614   19.7718 C   0  0  0  0  0  0  0  0  0  0  0  0
  -21.0588  -22.1004   22.5339 C   0  0  0  0  0  0  0  0  0  0  0  0
  -23.9476  -10.1484   21.9655 C   0  0  0  0  0  0  0  0  0  0  0  0
  -22.6499   -9.9399   22.4323 C   0  0  0  0  0  0  0  0  0  0  0  0
  -21.7864  -29.3646   21.8902 C   0  0  0  0  0  0  0  0  0  0  0  0
  -20.5998  -20.9706   20.4483 C   0  0  0  0  0  0  0  0  0  0  0  0
  -22.1252   -8.7058   20.4226 C   0  0  0  0  0  0  0  0  0  0  0  0
  -26.8768  -13.7647   19.7396 C   0  0  0  0  0  0  0  0  0  0  0  0
  -28.0107  -15.6552   18.4558 C   0  0  0  0  0  0  0  0  0  0  0  0
  -29.8257  -25.1415   21.0871 C   0  0  0  0  0  0  0  0  0  0  0  0
  -23.6575  -29.0585   20.3851 C   0  0  0  0  0  0  0  0  0  0  0  0
  -28.4315  -25.3379   21.0965 C   0  0  0  0  0  0  0  0  0  0  0  0
  -23.1474  -29.5422   21.5984 C   0  0  0  0  0  0  0  0  0  0  0  0
  -21.9299  -20.5561   20.3800 C   0  0  0  0  0  0  0  0  0  0  0  0
  -22.8245  -20.9138   21.3887 C   0  0  0  0  0  0  0  0  0  0  0  0
  -26.0345  -11.1288   20.0932 C   0  0  0  0  0  0  0  0  0  0  0  0
  -20.9419  -28.7261   20.9823 C   0  0  0  0  0  0  0  0  0  0  0  0
  -20.1643  -21.7427   21.5252 C   0  0  0  0  0  0  0  0  0  0  0  0
  -24.3342   -9.6356   20.7271 C   0  0  0  0  0  0  0  0  0  0  0  0
  -21.7387   -9.2186   21.6609 C   0  0  0  0  0  0  0  0  0  0  0  0
  -23.4230   -8.9143   19.9557 C   0  0  0  0  0  0  0  0  0  0  0  0
  -27.3112  -15.1263   19.5571 C   0  0  0  0  0  0  0  0  0  0  0  0
  -28.1835  -16.9824   18.7640 C   0  0  0  0  0  0  0  0  0  0  0  0
  -28.4637  -15.0048   17.2610 C   0  0  0  0  0  0  0  0  0  0  0  0
  -26.2435  -28.1727   22.0074 C   0  0  0  0  0  0  0  0  0  0  0  0
  -26.2986  -31.3002   22.8664 C   0  0  0  0  0  0  0  0  0  0  0  0
  -24.5773  -34.2133   23.3111 C   0  0  0  0  0  0  0  0  0  0  0  0
  -25.1834  -20.7847   22.2636 C   0  0  0  0  0  0  0  0  0  0  0  0
  -30.7148  -25.7148   22.1620 C   0  0  0  0  0  0  0  0  0  0  0  0
  -25.1069  -29.2564   20.0352 C   0  0  0  0  0  0  0  0  0  0  0  0
  -24.0234  -30.2419   22.6042 C   0  0  0  0  0  0  0  0  0  0  0  0
  -30.0597  -26.8407   22.9580 C   0  0  0  0  0  0  0  0  0  0  0  0
  -28.6305  -19.9290   22.5127 C   0  0  0  0  0  0  0  0  0  0  0  0
  -28.6436  -26.4500   23.3690 C   0  0  0  0  0  0  0  0  0  0  0  0
  -28.7482  -18.6518   21.6778 C   0  0  0  0  0  0  0  0  0  0  0  0
  -27.3084  -19.9879   23.2757 C   0  0  0  0  0  0  0  0  0  0  0  0
  -26.2250  -18.5236   21.6170 C   0  0  0  0  0  0  0  0  0  0  0  0
  -27.7603  -26.2048   22.1397 C   0  0  1  0  0  0  0  0  0  0  0  0
  -25.9958  -29.4521   21.2594 C   0  0  1  0  0  0  0  0  0  0  0  0
  -27.5121  -18.4497   20.7795 C   0  0  2  0  0  0  0  0  0  0  0  0
  -22.3683  -19.7300   19.2146 C   0  0  0  0  0  0  0  0  0  0  0  0
  -24.8854  -36.5890   24.0585 C   0  0  0  0  0  0  0  0  0  0  0  0
  -26.3948  -30.3714   25.7712 C   0  0  0  0  0  0  0  0  0  0  0  0
  -25.7479  -32.6895   26.4610 C   0  0  0  0  0  0  0  0  0  0  0  0
  -27.8911  -32.3046   25.2441 C   0  0  0  0  0  0  0  0  0  0  0  0
  -23.7441  -35.2724   20.6762 C   0  0  0  0  0  0  0  0  0  0  0  0
  -17.3835  -24.0371   21.6208 C   0  0  0  0  0  0  0  0  0  0  0  0
  -17.0503  -25.3557   22.2974 C   0  0  0  0  0  0  0  0  0  0  0  0
  -18.0056  -27.6122   22.7818 C   0  0  0  0  0  0  0  0  0  0  0  0
  -18.6020  -23.3811   22.2539 C   0  0  0  0  0  0  0  0  0  0  0  0
  -19.2792  -28.4248   22.6558 C   0  0  0  0  0  0  0  0  0  1  0  0
  -25.7030  -32.1102   23.9925 C   0  0  1  0  0  0  0  0  0  0  0  0
  -24.8750  -35.6361   22.8734 C   0  0  2  0  0  0  0  0  0  0  0  0
  -26.4178  -31.8541   25.3493 C   0  0  0  0  0  0  0  0  0  0  0  0
  -27.0571  -16.0428   20.4949 N   0  0  0  0  0  0  0  0  0  0  0  0
  -27.6000  -17.1609   19.9838 N   0  0  0  0  0  0  0  0  0  0  0  0
  -25.4348  -30.4057   22.2187 N   0  0  0  0  0  0  0  0  0  0  0  0
  -26.1822  -19.7929   22.3600 N   0  0  0  0  0  0  0  0  0  0  0  0
  -28.7761  -18.0026   18.1079 N   0  0  0  0  0  0  0  0  0  0  0  0
  -28.2023  -13.6368   17.1048 N   0  0  0  0  0  0  0  0  0  0  0  0
  -24.1800  -20.5044   21.3366 N   0  0  0  0  0  0  0  0  0  0  0  0
  -27.3411  -27.4626   21.5595 N   0  0  0  0  0  0  0  0  0  0  0  0
  -25.7329  -33.5016   23.5547 N   0  0  0  0  0  0  0  0  0  0  0  0
  -23.8465  -36.1051   21.9022 N   0  3  0  0  0  0  0  0  0  0  0  0
  -18.2269  -26.2618   22.2058 N   0  3  0  0  0  0  0  0  0  0  0  0
  -29.0963  -15.6151   16.3661 O   0  0  0  0  0  0  0  0  0  0  0  0
  -25.4951  -27.8541   22.9239 O   0  0  0  0  0  0  0  0  0  0  0  0
  -27.4846  -31.4605   22.5676 O   0  0  0  0  0  0  0  0  0  0  0  0
  -23.4340  -33.7781   23.4291 O   0  0  0  0  0  0  0  0  0  0  0  0
  -25.2301  -21.8200   22.9330 O   0  0  0  0  0  0  0  0  0  0  0  0
  -25.6232   -9.8428   20.2654 O   0  0  0  0  0  0  0  0  0  0  0  0
  -19.6237  -28.5623   21.2779 O   0  0  0  0  0  0  0  0  0  1  0  0
  -18.8570  -22.1496   21.5926 O   0  0  0  0  0  0  0  0  0  0  0  0
  -20.4929   -9.0172   22.1100 F   0  0  0  0  0  0  0  0  0  0  0  0
  -23.7889   -8.4183   18.7658 F   0  0  0  0  0  0  0  0  0  0  0  0
  1  2  1  0  0  0  0
  1  5  2  0  0  0  0
  2  6  2  0  0  0  0
  3  9  2  0  0  0  0
  3 18  1  0  0  0  0
  4 10  1  0  0  0  0
  4 18  2  0  0  0  0
  5 20  1  0  0  0  0
  6 22  1  0  0  0  0
  7 11  2  0  0  0  0
  7 21  1  0  0  0  0
  8 12  2  0  0  0  0
  8 25  1  0  0  0  0
  9 26  1  0  0  0  0
 10 26  2  0  0  0  0
 11 27  1  0  0  0  0
 12 28  1  0  0  0  0
 13 14  2  0  0  0  0
 13 29  1  0  0  0  0
 14 30  1  0  0  0  0
 15 23  1  0  0  0  0
 15 27  2  0  0  0  0
 16 24  1  0  0  0  0
 16 28  2  0  0  0  0
 17 30  2  0  0  0  0
 17 31  1  0  0  0  0
 18 32  1  0  0  0  0
 19 32  1  0  0  0  0
 19 33  2  0  0  0  0
 19 34  1  0  0  0  0
 20 22  2  0  0  0  0
 20 39  1  0  0  0  0
 21 23  2  0  0  0  0
 21 40  1  0  0  0  0
 22 48  1  0  0  0  0
 23 41  1  0  0  0  0
 24 25  2  0  0  0  0
 24 51  1  0  0  0  0
 25 71  1  0  0  0  0
 26 81  1  0  0  0  0
 27 82  1  0  0  0  0
 28 83  1  0  0  0  0
 29 31  2  0  0  0  0
 29 81  1  0  0  0  0
 30 84  1  0  0  0  0
 31 85  1  0  0  0  0
 32 65  2  0  0  0  0
 33 66  1  0  0  0  0
 33 69  1  0  0  0  0
 34 70  1  0  0  0  0
 34 76  2  0  0  0  0
 35 49  1  0  0  0  0
 35 72  1  0  0  0  0
 35 77  2  0  0  0  0
 36 62  1  0  0  0  0
 36 67  1  0  0  0  0
 36 78  2  0  0  0  0
 37 63  1  0  0  0  0
 37 73  1  0  0  0  0
 37 79  2  0  0  0  0
 38 68  1  0  0  0  0
 38 71  1  0  0  0  0
 38 80  2  0  0  0  0
 39 42  1  0  0  0  0
 40 49  1  0  0  0  0
 41 67  1  0  0  0  0
 42 44  1  0  0  0  0
 43 45  1  0  0  0  0
 43 46  1  0  0  0  0
 44 48  1  0  0  0  0
 45 50  1  0  0  0  0
 46 68  1  0  0  0  0
 47 50  1  0  0  0  0
 47 68  1  0  0  0  0
 48 72  1  0  0  0  0
 49 67  1  0  0  0  0
 50 66  1  0  0  0  0
 52 63  1  0  0  0  0
 53 64  1  0  0  0  0
 54 64  1  0  0  0  0
 55 64  1  0  0  0  0
 56 74  1  0  0  0  0
 57 58  1  0  0  0  0
 57 60  1  0  0  0  0
 58 75  1  0  0  0  0
 59 61  1  0  0  0  0
 59 75  1  0  0  0  0
 60 83  1  0  0  0  0
 61 82  1  0  0  0  0
 62 64  1  0  0  0  0
 62 73  1  0  0  0  0
 63 74  1  0  0  0  0
 65 66  1  0  0  0  0
M  CHG  2  74   1  75   1
M  ISO  4  38 100  61 101  71 100  82 101
M  END
> <Batch ID>
0137

> <Smiles>
CNC(C)C(=O)NC(C(=O)N1Cc2cc([101O:1][101CH2:1]CNCCCOc3ccc([100NH:0][100C:0](=O)N4CCCC(n5nc(-c6ccc(Oc7ccc(F)cc7F)cc6)c(C(N)=O)c5N)C4)c(C)c3)ccc2CC1C(=O)NC1CCCc2ccccc21)C(C)(C)C

> <Shape>
0.267

> <Color>
0.060

> <Negative vol penalty>
0.000

$$$$

  -OEChem-04052321053D

 88 98  0     1  0  0  0  0  0999 V2000
  -27.8002  -36.7641   23.4354 C   0  0  0  0  0  0  0  0  0  0  0  0
  -28.2686  -35.5165   23.0359 C   0  0  0  0  0  0  0  0  0  0  0  0
  -25.9642  -10.0178   23.2164 C   0  0  0  0  0  0  0  0  0  0  0  0
  -25.4531   -8.5833   21.3407 C   0  0  0  0  0  0  0  0  0  0  0  0
  -26.5644  -36.8724   24.0716 C   0  0  0  0  0  0  0  0  0  0  0  0
  -27.5018  -34.3763   23.2734 C   0  0  0  0  0  0  0  0  0  0  0  0
  -27.0821  -29.4137   19.7094 C   0  0  0  0  0  0  0  0  0  0  0  0
  -25.3990   -9.0838   24.0847 C   0  0  0  0  0  0  0  0  0  0  0  0
  -24.8880   -7.6493   22.2090 C   0  0  0  0  0  0  0  0  0  0  0  0
  -27.7032  -28.1666   19.7610 C   0  0  0  0  0  0  0  0  0  0  0  0
  -21.9795   -7.2469   23.8852 C   0  0  0  0  0  0  0  0  0  0  0  0
  -20.7545   -6.6855   23.5250 C   0  0  0  0  0  0  0  0  0  0  0  0
  -25.7903  -27.2689   20.9249 C   0  0  0  0  0  0  0  0  0  0  0  0
  -27.3948  -22.3505   20.5053 C   0  0  0  0  0  0  0  0  0  0  0  0
  -21.7590   -4.4882   23.5337 C   0  0  0  0  0  0  0  0  0  0  0  0
  -25.9912   -9.7676   21.8444 C   0  0  0  0  0  0  0  0  0  0  0  0
  -27.9167  -10.8010   20.5283 C   0  0  0  0  0  0  0  0  0  0  0  0
  -25.7776  -35.7342   24.3084 C   0  0  0  0  0  0  0  0  0  0  0  0
  -25.8130  -29.6009   20.2757 C   0  0  0  0  0  0  0  0  0  0  0  0
  -26.2548  -34.4694   23.9146 C   0  0  0  0  0  0  0  0  0  0  0  0
  -25.1542  -28.5188   20.8768 C   0  0  0  0  0  0  0  0  0  0  0  0
  -27.7499  -23.5896   21.0932 C   0  0  0  0  0  0  0  0  0  0  0  0
  -24.8609   -7.8996   23.5810 C   0  0  0  0  0  0  0  0  0  0  0  0
  -27.0585  -27.0947   20.3714 C   0  0  0  0  0  0  0  0  0  0  0  0
  -23.0943   -6.4291   24.0696 C   0  0  0  0  0  0  0  0  0  0  0  0
  -20.6443   -5.3061   23.3493 C   0  0  0  0  0  0  0  0  0  0  0  0
  -22.9841   -5.0497   23.8939 C   0  0  0  0  0  0  0  0  0  0  0  0
  -26.5744  -10.7322   20.9469 C   0  0  0  0  0  0  0  0  0  0  0  0
  -28.4204  -21.4664   20.7580 C   0  0  0  0  0  0  0  0  0  0  0  0
  -28.9818  -23.4250   21.6871 C   0  0  0  0  0  0  0  0  0  0  0  0
  -27.9587  -11.8854   19.6864 C   0  0  0  0  0  0  0  0  0  0  0  0
  -29.0264   -9.9598   20.8698 C   0  0  0  0  0  0  0  0  0  0  0  0
  -24.6450  -31.4078   22.6154 C   0  0  0  0  0  0  0  0  0  0  0  0
  -21.8057  -30.2270   21.5825 C   0  0  0  0  0  0  0  0  0  0  0  0
  -20.1185  -27.7418   19.9626 C   0  0  0  0  0  0  0  0  0  0  0  0
  -26.6474  -17.0232   18.3070 C   0  0  0  0  0  0  0  0  0  0  0  0
  -24.4697  -35.8954   25.0419 C   0  0  0  0  0  0  0  0  0  0  0  0
  -25.1452  -30.9458   20.1880 C   0  0  0  0  0  0  0  0  0  0  0  0
  -23.7824  -28.6624   21.4817 C   0  0  0  0  0  0  0  0  0  0  0  0
  -23.5497  -34.6834   24.9203 C   0  0  0  0  0  0  0  0  0  0  0  0
  -24.2399  -14.6312   17.6509 C   0  0  0  0  0  0  0  0  0  0  0  0
  -24.3276  -33.3954   25.1709 C   0  0  0  0  0  0  0  0  0  0  0  0
  -30.2003  -24.2153   23.8695 C   0  0  0  0  0  0  0  0  0  0  0  0
  -29.1028  -25.2003   23.6127 C   0  0  0  0  0  0  0  0  0  0  0  0
  -24.7337  -13.4006   18.4111 C   0  0  0  0  0  0  0  0  0  0  0  0
  -27.4710  -19.1285   20.9916 C   0  0  0  0  0  0  0  0  0  0  0  0
  -28.6009  -19.8247   18.8357 C   0  0  0  0  0  0  0  0  0  0  0  0
  -24.4474  -15.8990   18.4713 C   0  0  0  0  0  0  0  0  0  0  0  0
  -27.6054  -17.6643   20.5636 C   0  0  0  0  0  0  0  0  0  0  0  0
  -28.7319  -18.3486   18.4718 C   0  0  0  0  0  0  0  0  0  0  0  0
  -26.3714  -14.8952   19.6582 C   0  0  0  0  0  0  0  0  0  0  0  0
  -25.4408  -33.2123   24.1323 C   0  0  1  0  0  0  0  0  0  0  0  0
  -28.5666  -20.0087   20.3637 C   0  0  0  0  0  0  0  0  0  0  0  0
  -29.7663  -24.4981   22.4464 C   0  0  0  0  0  0  0  0  0  0  0  0
  -24.0704  -31.1496   21.2513 C   0  0  1  0  0  0  0  0  0  0  0  0
  -26.1916  -13.5820   18.8696 C   0  0  1  0  0  0  0  0  0  0  0  0
  -17.8006  -27.0357   19.3101 C   0  0  0  0  0  0  0  0  0  0  0  0
  -31.5242  -21.1189   20.7912 C   0  0  0  0  0  0  0  0  0  0  0  0
  -30.3913  -20.4242   22.9453 C   0  0  0  0  0  0  0  0  0  0  0  0
  -21.2645  -29.3566   24.4564 C   0  0  0  0  0  0  0  0  0  0  0  0
  -19.4510  -27.8643   23.5893 C   0  0  0  0  0  0  0  0  0  0  0  0
  -19.2898  -30.3334   23.2728 C   0  0  0  0  0  0  0  0  0  0  0  0
  -20.7795  -27.8257   17.0790 C   0  0  0  0  0  0  0  0  0  0  0  0
  -26.9389  -24.8235   21.0668 C   0  0  0  0  0  0  0  0  0  1  0  0
  -20.9669  -29.0165   21.9144 C   0  0  1  0  0  0  0  0  0  0  0  0
  -19.0523  -27.7862   18.8829 C   0  0  2  0  0  0  0  0  0  0  0  0
  -30.6238  -21.5598   21.9469 C   0  0  0  0  0  0  0  0  0  0  0  0
  -20.2697  -29.1401   23.2987 C   0  0  0  0  0  0  0  0  0  0  0  0
  -25.8183  -11.6963   20.4150 N   0  0  0  0  0  0  0  0  0  0  0  0
  -29.3798  -22.1306   21.4767 N   0  0  0  0  0  0  0  0  0  0  0  0
  -26.6885  -12.3812   19.6535 N   0  0  0  0  0  0  0  0  0  0  0  0
  -23.1737  -29.9988   21.3765 N   0  0  0  0  0  0  0  0  0  0  0  0
  -25.8425  -16.0332   18.8904 N   0  0  0  0  0  0  0  0  0  0  0  0
  -27.6753  -17.5558   19.0997 N   0  0  0  0  0  0  0  0  0  0  0  0
  -28.9578  -12.4538   18.9786 N   0  0  0  0  0  0  0  0  0  0  0  0
  -28.8082   -8.8899   21.7484 N   0  0  0  0  0  0  0  0  0  0  0  0
  -24.8906  -32.7418   22.8793 N   0  0  0  0  0  0  0  0  0  0  0  0
  -20.0473  -28.8380   20.7960 N   0  0  0  0  0  0  0  0  0  0  0  0
  -19.5629  -27.1711   17.6251 N   0  3  0  0  0  0  0  0  0  0  0  0
  -30.1809  -10.1611   20.4223 O   0  0  0  0  0  0  0  0  0  0  0  0
  -24.8489  -30.4665   23.3731 O   0  0  0  0  0  0  0  0  0  0  0  0
  -21.2658  -31.3332   21.5018 O   0  0  0  0  0  0  0  0  0  0  0  0
  -20.9308  -26.8245   20.0593 O   0  0  0  0  0  0  0  0  0  0  0  0
  -26.4600  -17.4086   17.1462 O   0  0  0  0  0  0  0  0  0  0  0  0
  -24.3096   -6.9879   24.4280 O   0  0  0  0  0  0  0  0  0  0  0  0
  -27.6659  -25.8700   20.4240 O   0  0  0  0  0  0  0  0  0  1  0  0
  -19.4675   -4.7669   23.0049 F   0  0  0  0  0  0  0  0  0  0  0  0
  -24.0513   -4.2587   24.0708 F   0  0  0  0  0  0  0  0  0  0  0  0
  1  2  1  0  0  0  0
  1  5  2  0  0  0  0
  2  6  2  0  0  0  0
  3  8  2  0  0  0  0
  3 16  1  0  0  0  0
  4  9  1  0  0  0  0
  4 16  2  0  0  0  0
  5 18  1  0  0  0  0
  6 20  1  0  0  0  0
  7 10  2  0  0  0  0
  7 19  1  0  0  0  0
  8 23  1  0  0  0  0
  9 23  2  0  0  0  0
 10 24  1  0  0  0  0
 11 12  2  0  0  0  0
 11 25  1  0  0  0  0
 12 26  1  0  0  0  0
 13 21  1  0  0  0  0
 13 24  2  0  0  0  0
 14 22  1  0  0  0  0
 14 29  2  0  0  0  0
 15 26  2  0  0  0  0
 15 27  1  0  0  0  0
 16 28  1  0  0  0  0
 17 28  1  0  0  0  0
 17 31  2  0  0  0  0
 17 32  1  0  0  0  0
 18 20  2  0  0  0  0
 18 37  1  0  0  0  0
 19 21  2  0  0  0  0
 19 38  1  0  0  0  0
 20 52  1  0  0  0  0
 21 39  1  0  0  0  0
 22 30  2  0  0  0  0
 22 64  1  0  0  0  0
 23 85  1  0  0  0  0
 24 86  1  0  0  0  0
 25 27  2  0  0  0  0
 25 85  1  0  0  0  0
 26 87  1  0  0  0  0
 27 88  1  0  0  0  0
 28 69  2  0  0  0  0
 29 53  1  0  0  0  0
 29 70  1  0  0  0  0
 30 54  1  0  0  0  0
 30 70  1  0  0  0  0
 31 71  1  0  0  0  0
 31 75  1  0  0  0  0
 32 76  1  0  0  0  0
 32 80  2  0  0  0  0
 33 55  1  0  0  0  0
 33 77  1  0  0  0  0
 33 81  2  0  0  0  0
 34 65  1  0  0  0  0
 34 72  1  0  0  0  0
 34 82  2  0  0  0  0
 35 66  1  0  0  0  0
 35 78  1  0  0  0  0
 35 83  2  0  0  0  0
 36 73  1  0  0  0  0
 36 74  1  0  0  0  0
 36 84  2  0  0  0  0
 37 40  1  0  0  0  0
 38 55  1  0  0  0  0
 39 72  1  0  0  0  0
 40 42  1  0  0  0  0
 41 45  1  0  0  0  0
 41 48  1  0  0  0  0
 42 52  1  0  0  0  0
 43 44  1  0  0  0  0
 43 54  1  0  0  0  0
 44 54  1  0  0  0  0
 45 56  1  0  0  0  0
 46 49  1  0  0  0  0
 46 53  1  0  0  0  0
 47 50  1  0  0  0  0
 47 53  1  0  0  0  0
 48 73  1  0  0  0  0
 49 74  1  0  0  0  0
 50 74  1  0  0  0  0
 51 56  1  0  0  0  0
 51 73  1  0  0  0  0
 52 77  1  0  0  0  0
 55 72  1  0  0  0  0
 56 71  1  0  0  0  0
 57 66  1  0  0  0  0
 58 67  1  0  0  0  0
 59 67  1  0  0  0  0
 60 68  1  0  0  0  0
 61 68  1  0  0  0  0
 62 68  1  0  0  0  0
 63 79  1  0  0  0  0
 64 86  1  0  0  0  0
 65 68  1  0  0  0  0
 65 78  1  0  0  0  0
 66 79  1  0  0  0  0
 67 70  1  0  0  0  0
 69 71  1  0  0  0  0
M  CHG  1  79   1
M  ISO  4  36 100  64 101  74 100  86 101
M  END
> <Batch ID>
0137

> <Smiles>
CNC(C)C(=O)NC(C(=O)N1Cc2cc([101O:1][101CH2:1]c3cc(C4CC[100N:0]([100C:0](=O)N5CCCC(n6nc(-c7ccc(Oc8ccc(F)cc8F)cc7)c(C(N)=O)c6N)C5)CC4)n(C(C)C)c3C3CC3)ccc2CC1C(=O)NC1CCCc2ccccc21)C(C)(C)C

> <Shape>
0.294

> <Color>
0.069

> <Negative vol penalty>
0.000

$$$$

  -OEChem-04052321053D

 86 95  0     1  0  0  0  0  0999 V2000
  -19.0402  -33.5475   21.0455 C   0  0  0  0  0  0  0  0  0  0  0  0
  -20.3751  -33.3010   20.7412 C   0  0  0  0  0  0  0  0  0  0  0  0
  -28.7745  -17.6809   19.5378 C   0  0  0  0  0  0  0  0  0  0  0  0
  -31.1034  -18.2134   19.1782 C   0  0  0  0  0  0  0  0  0  0  0  0
  -18.4111  -32.8210   22.0557 C   0  0  0  0  0  0  0  0  0  0  0  0
  -21.0821  -32.3287   21.4477 C   0  0  0  0  0  0  0  0  0  0  0  0
  -34.4058  -26.5983   17.7353 C   0  0  0  0  0  0  0  0  0  0  0  0
  -25.4619  -28.6471   19.2640 C   0  0  0  0  0  0  0  0  0  0  0  0
  -33.2780  -26.6854   18.5543 C   0  0  0  0  0  0  0  0  0  0  0  0
  -29.1348  -16.4130   19.9942 C   0  0  0  0  0  0  0  0  0  0  0  0
  -31.4638  -16.9455   19.6345 C   0  0  0  0  0  0  0  0  0  0  0  0
  -26.8536  -28.7116   19.3159 C   0  0  0  0  0  0  0  0  0  0  0  0
  -30.0670  -13.4547   18.6510 C   0  0  0  0  0  0  0  0  0  0  0  0
  -29.3375  -12.3646   18.1768 C   0  0  0  0  0  0  0  0  0  0  0  0
  -31.8055  -26.5060   16.6251 C   0  0  0  0  0  0  0  0  0  0  0  0
  -26.8432  -27.2566   21.2400 C   0  0  0  0  0  0  0  0  0  0  0  0
  -28.6885  -11.8152   20.4383 C   0  0  0  0  0  0  0  0  0  0  0  0
  -29.7588  -18.5811   19.1298 C   0  0  0  0  0  0  0  0  0  0  0  0
  -29.2385  -21.0608   19.4262 C   0  0  0  0  0  0  0  0  0  0  0  0
  -19.1080  -31.8326   22.7684 C   0  0  0  0  0  0  0  0  0  0  0  0
  -34.2167  -26.4780   16.3689 C   0  0  0  0  0  0  0  0  0  0  0  0
  -24.7485  -27.8943   20.2078 C   0  0  0  0  0  0  0  0  0  0  0  0
  -20.4622  -31.5893   22.4693 C   0  0  0  0  0  0  0  0  0  0  0  0
  -32.9291  -26.4292   15.8190 C   0  0  0  0  0  0  0  0  0  0  0  0
  -25.4426  -27.1821   21.1963 C   0  0  0  0  0  0  0  0  0  0  0  0
  -31.9874  -26.6401   18.0032 C   0  0  0  0  0  0  0  0  0  0  0  0
  -30.4794  -16.0453   20.0426 C   0  0  0  0  0  0  0  0  0  0  0  0
  -27.5443  -28.0186   20.3058 C   0  0  0  0  0  0  0  0  0  0  0  0
  -30.1073  -13.7251   20.0189 C   0  0  0  0  0  0  0  0  0  0  0  0
  -28.6482  -11.5448   19.0704 C   0  0  0  0  0  0  0  0  0  0  0  0
  -29.4181  -12.9054   20.9125 C   0  0  0  0  0  0  0  0  0  0  0  0
  -29.3872  -19.8907   18.6577 C   0  0  0  0  0  0  0  0  0  0  0  0
  -28.8785  -22.0253   18.5171 C   0  0  0  0  0  0  0  0  0  0  0  0
  -29.4106  -21.2582   20.8359 C   0  0  0  0  0  0  0  0  0  0  0  0
  -22.5808  -28.5622   22.4346 C   0  0  0  0  0  0  0  0  0  0  0  0
  -22.4717  -25.3348   22.7421 C   0  0  0  0  0  0  0  0  0  0  0  0
  -24.0400  -22.3311   22.3361 C   0  0  0  0  0  0  0  0  0  0  0  0
  -29.7554  -22.6024   12.6222 C   0  0  0  0  0  0  0  0  0  0  0  0
  -18.3991  -31.1060   23.8838 C   0  0  0  0  0  0  0  0  0  0  0  0
  -35.2592  -26.3323   15.3045 C   0  0  0  0  0  0  0  0  0  0  0  0
  -23.2490  -27.8134   20.1219 C   0  0  0  0  0  0  0  0  0  0  0  0
  -24.7248  -26.3432   22.2208 C   0  0  0  0  0  0  0  0  0  0  0  0
  -19.1125  -29.8328   24.3315 C   0  0  0  0  0  0  0  0  0  0  0  0
  -34.4449  -26.6661   14.0425 C   0  0  0  0  0  0  0  0  0  0  0  0
  -26.6308  -22.5704   14.3288 C   0  0  0  0  0  0  0  0  0  0  0  0
  -20.6041  -30.0933   24.5156 C   0  0  0  0  0  0  0  0  0  0  0  0
  -26.9695  -21.9856   15.7011 C   0  0  0  0  0  0  0  0  0  0  0  0
  -27.4509  -21.9168   13.2188 C   0  0  0  0  0  0  0  0  0  0  0  0
  -29.2486  -21.3499   14.8065 C   0  0  0  0  0  0  0  0  0  0  0  0
  -21.2557  -30.5255   23.1965 C   0  0  1  0  0  0  0  0  0  0  0  0
  -32.9906  -26.2542   14.3336 C   0  0  1  0  0  0  0  0  0  0  0  0
  -22.5944  -27.4310   21.4457 C   0  0  1  0  0  0  0  0  0  0  0  0
  -28.4870  -22.0166   15.9648 C   0  0  2  0  0  0  0  0  0  0  0  0
  -23.7141  -19.8718   22.7137 C   0  0  0  0  0  0  0  0  0  0  0  0
  -22.9872  -25.7268   25.7238 C   0  0  0  0  0  0  0  0  0  0  0  0
  -23.5901  -23.3011   25.8674 C   0  0  0  0  0  0  0  0  0  0  0  0
  -21.2883  -23.9738   25.1805 C   0  0  0  0  0  0  0  0  0  0  0  0
  -24.2883  -21.7367   19.4475 C   0  0  0  0  0  0  0  0  0  0  0  0
  -32.1124  -23.2349   12.1710 C   0  0  0  0  0  0  0  0  0  0  0  0
  -30.9740  -26.8586   20.2728 C   0  0  0  0  0  0  0  0  0  0  0  0
  -32.3135  -24.7032   12.4960 C   0  0  0  0  0  0  0  0  0  0  0  0
  -29.5846  -26.9413   20.8826 C   0  0  0  0  0  0  0  0  0  1  0  0
  -23.2106  -24.3146   23.5740 C   0  0  1  0  0  0  0  0  0  0  0  0
  -23.5677  -21.0220   21.7297 C   0  0  2  0  0  0  0  0  0  0  0  0
  -22.7828  -24.3463   25.0684 C   0  0  0  0  0  0  0  0  0  0  0  0
  -29.1414  -20.0913   17.3603 N   0  0  0  0  0  0  0  0  0  0  0  0
  -28.8347  -21.3986   17.3065 N   0  0  0  0  0  0  0  0  0  0  0  0
  -23.2582  -26.3009   22.0989 N   0  0  0  0  0  0  0  0  0  0  0  0
  -28.8811  -21.9812   13.5293 N   0  0  0  0  0  0  0  0  0  0  0  0
  -28.5981  -23.3398   18.6431 N   0  0  0  0  0  0  0  0  0  0  0  0
  -29.7825  -20.1604   21.6238 N   0  0  0  0  0  0  0  0  0  0  0  0
  -30.8845  -26.7240   18.8368 N   0  0  0  0  0  0  0  0  0  0  0  0
  -21.4704  -29.3792   22.3395 N   0  0  0  0  0  0  0  0  0  0  0  0
  -23.0028  -23.0270   22.9202 N   0  0  0  0  0  0  0  0  0  0  0  0
  -31.0934  -22.6257   12.9964 N   0  0  0  0  0  0  0  0  0  0  0  0
  -32.7774  -24.8486   13.9020 N   0  3  0  0  0  0  0  0  0  0  0  0
  -24.3606  -20.7005   20.5095 N   0  3  0  0  0  0  0  0  0  0  0  0
  -29.2237  -22.3714   21.3831 O   0  0  0  0  0  0  0  0  0  0  0  0
  -23.5082  -28.6838   23.2263 O   0  0  0  0  0  0  0  0  0  0  0  0
  -21.2424  -25.2725   22.6601 O   0  0  0  0  0  0  0  0  0  0  0  0
  -25.2125  -22.6978   22.2988 O   0  0  0  0  0  0  0  0  0  0  0  0
  -29.3713  -23.1041   11.5603 O   0  0  0  0  0  0  0  0  0  0  0  0
  -30.8314  -14.8083   20.4880 O   0  0  0  0  0  0  0  0  0  0  0  0
  -28.9027  -28.0804   20.3592 O   0  0  0  0  0  0  0  0  0  1  0  0
  -27.9464  -10.4988   18.6148 F   0  0  0  0  0  0  0  0  0  0  0  0
  -29.4521  -13.1608   22.2276 F   0  0  0  0  0  0  0  0  0  0  0  0
  1  2  1  0  0  0  0
  1  5  2  0  0  0  0
  2  6  2  0  0  0  0
  3 10  2  0  0  0  0
  3 18  1  0  0  0  0
  4 11  1  0  0  0  0
  4 18  2  0  0  0  0
  5 20  1  0  0  0  0
  6 23  1  0  0  0  0
  7  9  2  0  0  0  0
  7 21  1  0  0  0  0
  8 12  2  0  0  0  0
  8 22  1  0  0  0  0
  9 26  1  0  0  0  0
 10 27  1  0  0  0  0
 11 27  2  0  0  0  0
 12 28  1  0  0  0  0
 13 14  2  0  0  0  0
 13 29  1  0  0  0  0
 14 30  1  0  0  0  0
 15 24  1  0  0  0  0
 15 26  2  0  0  0  0
 16 25  1  0  0  0  0
 16 28  2  0  0  0  0
 17 30  2  0  0  0  0
 17 31  1  0  0  0  0
 18 32  1  0  0  0  0
 19 32  1  0  0  0  0
 19 33  2  0  0  0  0
 19 34  1  0  0  0  0
 20 23  2  0  0  0  0
 20 39  1  0  0  0  0
 21 24  2  0  0  0  0
 21 40  1  0  0  0  0
 22 25  2  0  0  0  0
 22 41  1  0  0  0  0
 23 50  1  0  0  0  0
 24 51  1  0  0  0  0
 25 42  1  0  0  0  0
 26 72  1  0  0  0  0
 27 83  1  0  0  0  0
 28 84  1  0  0  0  0
 29 31  2  0  0  0  0
 29 83  1  0  0  0  0
 30 85  1  0  0  0  0
 31 86  1  0  0  0  0
 32 66  2  0  0  0  0
 33 67  1  0  0  0  0
 33 70  1  0  0  0  0
 34 71  1  0  0  0  0
 34 78  2  0  0  0  0
 35 52  1  0  0  0  0
 35 73  1  0  0  0  0
 35 79  2  0  0  0  0
 36 63  1  0  0  0  0
 36 68  1  0  0  0  0
 36 80  2  0  0  0  0
 37 64  1  0  0  0  0
 37 74  1  0  0  0  0
 37 81  2  0  0  0  0
 38 69  1  0  0  0  0
 38 75  1  0  0  0  0
 38 82  2  0  0  0  0
 39 43  1  0  0  0  0
 40 44  1  0  0  0  0
 41 52  1  0  0  0  0
 42 68  1  0  0  0  0
 43 46  1  0  0  0  0
 44 51  1  0  0  0  0
 45 47  1  0  0  0  0
 45 48  1  0  0  0  0
 46 50  1  0  0  0  0
 47 53  1  0  0  0  0
 48 69  1  0  0  0  0
 49 53  1  0  0  0  0
 49 69  1  0  0  0  0
 50 73  1  0  0  0  0
 51 76  1  0  0  0  0
 52 68  1  0  0  0  0
 53 67  1  0  0  0  0
 54 64  1  0  0  0  0
 55 65  1  0  0  0  0
 56 65  1  0  0  0  0
 57 65  1  0  0  0  0
 58 77  1  0  0  0  0
 59 61  1  0  0  0  0
 59 75  1  0  0  0  0
 60 62  1  0  0  0  0
 60 72  1  0  0  0  0
 61 76  1  0  0  0  0
 62 84  1  0  0  0  0
 63 65  1  0  0  0  0
 63 74  1  0  0  0  0
 64 77  1  0  0  0  0
 66 67  1  0  0  0  0
M  CHG  2  76   1  77   1
M  ISO  4  38 100  62 101  75 100  84 101
M  END
> <Batch ID>
0137

> <Smiles>
CNC(C)C(=O)NC(C(=O)N1Cc2cc([101O:1][101CH2:1]CNc3ccc4c(c3)C(NCC[100NH:0][100C:0](=O)N3CCCC(n5nc(-c6ccc(Oc7ccc(F)cc7F)cc6)c(C(N)=O)c5N)C3)CC4)ccc2CC1C(=O)NC1CCCc2ccccc21)C(C)(C)C

> <Shape>
0.195

> <Color>
0.093

> <Negative vol penalty>
0.000

$$$$

  -OEChem-04052321053D

 85 94  0     1  0  0  0  0  0999 V2000
  -28.4061  -28.9456   20.4776 C   0  0  0  0  0  0  0  0  0  0  0  0
  -27.8469  -27.7102   20.7881 C   0  0  0  0  0  0  0  0  0  0  0  0
  -23.2895   -9.7959   19.9163 C   0  0  0  0  0  0  0  0  0  0  0  0
  -23.7359   -9.9428   22.2862 C   0  0  0  0  0  0  0  0  0  0  0  0
  -29.7717  -29.1577   20.6624 C   0  0  0  0  0  0  0  0  0  0  0  0
  -28.6532  -26.6857   21.2828 C   0  0  0  0  0  0  0  0  0  0  0  0
  -28.4543  -21.0846   25.7442 C   0  0  0  0  0  0  0  0  0  0  0  0
  -22.5631   -8.6237   20.1258 C   0  0  0  0  0  0  0  0  0  0  0  0
  -23.0094   -8.7706   22.4957 C   0  0  0  0  0  0  0  0  0  0  0  0
  -28.7420  -19.7208   25.7742 C   0  0  0  0  0  0  0  0  0  0  0  0
  -19.4799   -7.7652   21.2165 C   0  0  0  0  0  0  0  0  0  0  0  0
  -18.2521   -7.6386   20.5668 C   0  0  0  0  0  0  0  0  0  0  0  0
  -31.0740  -20.2266   26.1274 C   0  0  0  0  0  0  0  0  0  0  0  0
  -29.5008  -14.9217   27.0708 C   0  0  0  0  0  0  0  0  0  0  0  0
  -19.0563   -5.6631   19.4320 C   0  0  0  0  0  0  0  0  0  0  0  0
  -23.8760  -10.4555   20.9965 C   0  0  0  0  0  0  0  0  0  0  0  0
  -24.1349  -12.9850   20.7918 C   0  0  0  0  0  0  0  0  0  0  0  0
  -30.5935  -28.1383   21.1687 C   0  0  0  0  0  0  0  0  0  0  0  0
  -29.4777  -22.0314   25.8950 C   0  0  0  0  0  0  0  0  0  0  0  0
  -30.0313  -26.8839   21.4733 C   0  0  0  0  0  0  0  0  0  0  0  0
  -30.7964  -21.6018   26.1016 C   0  0  0  0  0  0  0  0  0  0  0  0
  -30.9349  -13.7488   24.9595 C   0  0  0  0  0  0  0  0  0  0  0  0
  -30.6812  -13.0101   26.1321 C   0  0  0  0  0  0  0  0  0  0  0  0
  -29.9639  -13.6112   27.1805 C   0  0  0  0  0  0  0  0  0  0  0  0
  -29.7506  -15.6510   25.9134 C   0  0  0  0  0  0  0  0  0  0  0  0
  -30.4609  -15.0689   24.8644 C   0  0  0  0  0  0  0  0  0  0  0  0
  -22.4230   -8.1111   21.4155 C   0  0  0  0  0  0  0  0  0  0  0  0
  -30.0524  -19.2916   25.9629 C   0  0  0  0  0  0  0  0  0  0  0  0
  -20.4960   -6.8408   20.9739 C   0  0  0  0  0  0  0  0  0  0  0  0
  -18.0403   -6.5875   19.6746 C   0  0  0  0  0  0  0  0  0  0  0  0
  -20.2841   -5.7898   20.0817 C   0  0  0  0  0  0  0  0  0  0  0  0
  -24.6269  -11.6661   20.7807 C   0  0  0  0  0  0  0  0  0  0  0  0
  -25.2366  -13.7646   20.5369 C   0  0  0  0  0  0  0  0  0  0  0  0
  -22.8013  -13.4628   21.0129 C   0  0  0  0  0  0  0  0  0  0  0  0
  -30.6828  -24.3411   24.0739 C   0  0  0  0  0  0  0  0  0  0  0  0
  -32.4004  -25.0143   26.7420 C   0  0  0  0  0  0  0  0  0  0  0  0
  -33.7243  -23.9155   29.6893 C   0  0  0  0  0  0  0  0  0  0  0  0
  -31.1064  -12.9255   21.3694 C   0  0  0  0  0  0  0  0  0  0  0  0
  -32.0724  -28.3995   21.3069 C   0  0  0  0  0  0  0  0  0  0  0  0
  -29.1469  -23.4987   25.8870 C   0  0  0  0  0  0  0  0  0  0  0  0
  -31.9282  -22.5777   26.2888 C   0  0  0  0  0  0  0  0  0  0  0  0
  -32.7910  -27.3813   22.1885 C   0  0  0  0  0  0  0  0  0  0  0  0
  -29.4629  -13.6564   18.2968 C   0  0  0  0  0  0  0  0  0  0  0  0
  -32.3722  -25.9627   21.8159 C   0  0  0  0  0  0  0  0  0  0  0  0
  -32.4565  -11.8851   24.1404 C   0  0  0  0  0  0  0  0  0  0  0  0
  -31.6225  -10.9390   24.9991 C   0  0  0  0  0  0  0  0  0  0  0  0
  -27.9927  -13.3482   18.5859 C   0  0  0  0  0  0  0  0  0  0  0  0
  -30.3952  -12.6792   19.0094 C   0  0  0  0  0  0  0  0  0  0  0  0
  -28.7055  -12.2538   20.7523 C   0  0  0  0  0  0  0  0  0  0  0  0
  -30.8687  -25.7556   22.0354 C   0  0  1  0  0  0  0  0  0  0  0  0
  -31.6638  -13.1457   23.7778 C   0  0  1  0  0  0  0  0  0  0  0  0
  -31.2008  -11.6023   26.3150 C   0  0  1  0  0  0  0  0  0  0  0  0
  -30.3429  -24.3788   25.5370 C   0  0  1  0  0  0  0  0  0  0  0  0
  -27.7284  -13.2470   20.1003 C   0  0  2  0  0  0  0  0  0  0  0  0
  -29.6573  -12.8785   28.4492 C   0  0  0  0  0  0  0  0  0  0  0  0
  -30.7129  -15.8904   23.6354 C   0  0  0  0  0  0  0  0  0  0  0  0
  -35.1102  -24.6851   31.6347 C   0  0  0  0  0  0  0  0  0  0  0  0
  -34.9112  -24.8477   25.0162 C   0  0  0  0  0  0  0  0  0  0  0  0
  -36.2600  -24.6724   27.1181 C   0  0  0  0  0  0  0  0  0  0  0  0
  -34.9070  -26.7204   26.6736 C   0  0  0  0  0  0  0  0  0  0  0  0
  -31.5360  -23.3810   31.6088 C   0  0  0  0  0  0  0  0  0  0  0  0
  -29.2425  -17.0599   25.8224 C   0  0  0  0  0  0  0  0  0  1  0  0
  -33.7324  -24.5699   27.2964 C   0  0  1  0  0  0  0  0  0  0  0  0
  -33.7026  -24.5086   31.0865 C   0  0  2  0  0  0  0  0  0  0  0  0
  -34.9318  -25.1840   26.5206 C   0  0  0  0  0  0  0  0  0  0  0  0
  -25.9390  -11.6072   20.5378 N   0  0  0  0  0  0  0  0  0  0  0  0
  -26.2808  -12.8989   20.3937 N   0  0  0  0  0  0  0  0  0  0  0  0
  -31.5550  -24.0017   26.2668 N   0  0  0  0  0  0  0  0  0  0  0  0
  -30.0933  -12.6314   20.4420 N   0  0  0  0  0  0  0  0  0  0  0  0
  -25.4044  -15.0993   20.4232 N   0  0  0  0  0  0  0  0  0  0  0  0
  -21.7886  -12.5262   21.2610 N   0  0  0  0  0  0  0  0  0  0  0  0
  -30.5847  -25.5660   23.4417 N   0  0  0  0  0  0  0  0  0  0  0  0
  -33.7114  -24.8946   28.7186 N   0  0  0  0  0  0  0  0  0  0  0  0
  -30.7342  -12.8633   22.7067 N   0  0  0  0  0  0  0  0  0  0  0  0
  -32.3681  -11.5650   27.2544 N   0  3  0  0  0  0  0  0  0  0  0  0
  -32.9448  -23.6218   32.0140 N   0  3  0  0  0  0  0  0  0  0  0  0
  -22.5132  -14.6831   20.9749 O   0  0  0  0  0  0  0  0  0  0  0  0
  -31.0113  -23.2797   23.5571 O   0  0  0  0  0  0  0  0  0  0  0  0
  -32.1175  -26.2150   26.7374 O   0  0  0  0  0  0  0  0  0  0  0  0
  -33.7538  -22.7047   29.4800 O   0  0  0  0  0  0  0  0  0  0  0  0
  -32.2559  -13.2268   21.0306 O   0  0  0  0  0  0  0  0  0  0  0  0
  -21.7141   -6.9674   21.6202 O   0  0  0  0  0  0  0  0  0  0  0  0
  -30.3360  -17.9609   25.9919 O   0  0  0  0  0  0  0  0  0  1  0  0
  -16.8607   -6.4652   19.0520 F   0  0  0  0  0  0  0  0  0  0  0  0
  -21.2561   -4.8979   19.8454 F   0  0  0  0  0  0  0  0  0  0  0  0
  1  2  1  0  0  0  0
  1  5  2  0  0  0  0
  2  6  2  0  0  0  0
  3  8  2  0  0  0  0
  3 16  1  0  0  0  0
  4  9  1  0  0  0  0
  4 16  2  0  0  0  0
  5 18  1  0  0  0  0
  6 20  1  0  0  0  0
  7 10  2  0  0  0  0
  7 19  1  0  0  0  0
  8 27  1  0  0  0  0
  9 27  2  0  0  0  0
 10 28  1  0  0  0  0
 11 12  2  0  0  0  0
 11 29  1  0  0  0  0
 12 30  1  0  0  0  0
 13 21  1  0  0  0  0
 13 28  2  0  0  0  0
 14 24  2  0  0  0  0
 14 25  1  0  0  0  0
 15 30  2  0  0  0  0
 15 31  1  0  0  0  0
 16 32  1  0  0  0  0
 17 32  1  0  0  0  0
 17 33  2  0  0  0  0
 17 34  1  0  0  0  0
 18 20  2  0  0  0  0
 18 39  1  0  0  0  0
 19 21  2  0  0  0  0
 19 40  1  0  0  0  0
 20 50  1  0  0  0  0
 21 41  1  0  0  0  0
 22 23  2  0  0  0  0
 22 26  1  0  0  0  0
 22 51  1  0  0  0  0
 23 24  1  0  0  0  0
 23 52  1  0  0  0  0
 24 55  1  0  0  0  0
 25 26  2  0  0  0  0
 25 62  1  0  0  0  0
 26 56  1  0  0  0  0
 27 82  1  0  0  0  0
 28 83  1  0  0  0  0
 29 31  2  0  0  0  0
 29 82  1  0  0  0  0
 30 84  1  0  0  0  0
 31 85  1  0  0  0  0
 32 66  2  0  0  0  0
 33 67  1  0  0  0  0
 33 70  1  0  0  0  0
 34 71  1  0  0  0  0
 34 77  2  0  0  0  0
 35 53  1  0  0  0  0
 35 72  1  0  0  0  0
 35 78  2  0  0  0  0
 36 63  1  0  0  0  0
 36 68  1  0  0  0  0
 36 79  2  0  0  0  0
 37 64  1  0  0  0  0
 37 73  1  0  0  0  0
 37 80  2  0  0  0  0
 38 69  1  0  0  0  0
 38 74  1  0  0  0  0
 38 81  2  0  0  0  0
 39 42  1  0  0  0  0
 40 53  1  0  0  0  0
 41 68  1  0  0  0  0
 42 44  1  0  0  0  0
 43 47  1  0  0  0  0
 43 48  1  0  0  0  0
 44 50  1  0  0  0  0
 45 46  1  0  0  0  0
 45 51  1  0  0  0  0
 46 52  1  0  0  0  0
 47 54  1  0  0  0  0
 48 69  1  0  0  0  0
 49 54  1  0  0  0  0
 49 69  1  0  0  0  0
 50 72  1  0  0  0  0
 51 74  1  0  0  0  0
 52 75  1  0  0  0  0
 53 68  1  0  0  0  0
 54 67  1  0  0  0  0
 57 64  1  0  0  0  0
 58 65  1  0  0  0  0
 59 65  1  0  0  0  0
 60 65  1  0  0  0  0
 61 76  1  0  0  0  0
 62 83  1  0  0  0  0
 63 65  1  0  0  0  0
 63 73  1  0  0  0  0
 64 76  1  0  0  0  0
 66 67  1  0  0  0  0
M  CHG  2  75   1  76   1
M  ISO  4  38 100  62 101  74 100  83 101
M  END
> <Batch ID>
0137

> <Smiles>
CNC(C)C(=O)NC(C(=O)N1Cc2cc([101O:1][101CH2:1]c3cc(C)c4c(c3C)C([100NH:0][100C:0](=O)N3CCCC(n5nc(-c6ccc(Oc7ccc(F)cc7F)cc6)c(C(N)=O)c5N)C3)CCC4N)ccc2CC1C(=O)NC1CCCc2ccccc21)C(C)(C)C

> <Shape>
0.150

> <Color>
0.170

> <Negative vol penalty>
0.000

$$$$

  -OEChem-04052321053D

 81 89  0     1  0  0  0  0  0999 V2000
  -17.5779  -22.1917   18.8503 C   0  0  0  0  0  0  0  0  0  0  0  0
  -18.8851  -21.7194   18.9098 C   0  0  0  0  0  0  0  0  0  0  0  0
  -23.0710   -9.8692   19.9414 C   0  0  0  0  0  0  0  0  0  0  0  0
  -23.8331   -9.8747   22.2341 C   0  0  0  0  0  0  0  0  0  0  0  0
  -16.5330  -21.3137   18.5650 C   0  0  0  0  0  0  0  0  0  0  0  0
  -19.1481  -20.3686   18.6852 C   0  0  0  0  0  0  0  0  0  0  0  0
  -23.1227  -19.6447   15.6318 C   0  0  0  0  0  0  0  0  0  0  0  0
  -22.3277   -8.7157   20.1912 C   0  0  0  0  0  0  0  0  0  0  0  0
  -23.0897   -8.7212   22.4839 C   0  0  0  0  0  0  0  0  0  0  0  0
  -24.3910  -19.7911   16.1919 C   0  0  0  0  0  0  0  0  0  0  0  0
  -19.3810   -7.9172   21.6447 C   0  0  0  0  0  0  0  0  0  0  0  0
  -18.0737   -7.8710   21.1607 C   0  0  0  0  0  0  0  0  0  0  0  0
  -24.5744  -17.3938   16.3880 C   0  0  0  0  0  0  0  0  0  0  0  0
  -28.5707  -17.8887   19.4673 C   0  0  0  0  0  0  0  0  0  0  0  0
  -18.6327   -5.9290   19.8365 C   0  0  0  0  0  0  0  0  0  0  0  0
  -29.4181  -18.4027   17.3053 C   0  0  0  0  0  0  0  0  0  0  0  0
  -23.8238  -10.4487   20.9628 C   0  0  0  0  0  0  0  0  0  0  0  0
  -24.1648  -12.9740   20.8443 C   0  0  0  0  0  0  0  0  0  0  0  0
  -16.7845  -19.9533   18.3273 C   0  0  0  0  0  0  0  0  0  0  0  0
  -22.5653  -18.3701   15.4552 C   0  0  0  0  0  0  0  0  0  0  0  0
  -18.1055  -19.4713   18.3979 C   0  0  0  0  0  0  0  0  0  0  0  0
  -23.3000  -17.2338   15.8230 C   0  0  0  0  0  0  0  0  0  0  0  0
  -28.3639  -17.9726   18.0949 C   0  0  0  0  0  0  0  0  0  0  0  0
  -29.8079  -18.2327   20.0006 C   0  0  0  0  0  0  0  0  0  0  0  0
  -22.3370   -8.1417   21.4625 C   0  0  0  0  0  0  0  0  0  0  0  0
  -25.1159  -18.6657   16.5728 C   0  0  0  0  0  0  0  0  0  0  0  0
  -20.3142   -6.9694   21.2246 C   0  0  0  0  0  0  0  0  0  0  0  0
  -17.6995   -6.8769   20.2566 C   0  0  0  0  0  0  0  0  0  0  0  0
  -19.9401   -5.9753   20.3205 C   0  0  0  0  0  0  0  0  0  0  0  0
  -24.5923  -11.6400   20.7052 C   0  0  0  0  0  0  0  0  0  0  0  0
  -30.7975  -18.6510   19.1257 C   0  0  0  0  0  0  0  0  0  0  0  0
  -25.2564  -13.7241   20.4806 C   0  0  0  0  0  0  0  0  0  0  0  0
  -22.8946  -13.4892   21.2648 C   0  0  0  0  0  0  0  0  0  0  0  0
  -19.9923  -16.8731   16.5698 C   0  0  0  0  0  0  0  0  0  0  0  0
  -20.9095  -14.5664   14.4817 C   0  0  0  0  0  0  0  0  0  0  0  0
  -23.4230  -13.1212   12.6815 C   0  0  0  0  0  0  0  0  0  0  0  0
  -30.7400  -14.7445   20.6645 C   0  0  0  0  0  0  0  0  0  0  0  0
  -15.6173  -19.0336   18.0693 C   0  0  0  0  0  0  0  0  0  0  0  0
  -21.2071  -18.2279   14.8249 C   0  0  0  0  0  0  0  0  0  0  0  0
  -22.7549  -15.8423   15.6359 C   0  0  0  0  0  0  0  0  0  0  0  0
  -16.0224  -17.6875   17.4741 C   0  0  0  0  0  0  0  0  0  0  0  0
  -29.6008  -12.3614   18.2771 C   0  0  0  0  0  0  0  0  0  0  0  0
  -17.2075  -17.1022   18.2355 C   0  0  0  0  0  0  0  0  0  0  0  0
  -28.1639  -12.0670   18.7111 C   0  0  0  0  0  0  0  0  0  0  0  0
  -30.5190  -12.5816   19.4773 C   0  0  0  0  0  0  0  0  0  0  0  0
  -28.6184  -13.3111   20.8662 C   0  0  0  0  0  0  0  0  0  0  0  0
  -18.4338  -18.0175   18.1357 C   0  0  1  0  0  0  0  0  0  0  0  0
  -20.5257  -16.9062   15.1655 C   0  0  1  0  0  0  0  0  0  0  0  0
  -27.6432  -13.1371   19.6893 C   0  0  2  0  0  0  0  0  0  0  0  0
  -23.8743  -11.2289   11.0963 C   0  0  0  0  0  0  0  0  0  0  0  0
  -20.8163  -12.5967   16.8101 C   0  0  0  0  0  0  0  0  0  0  0  0
  -22.1572  -11.0010   15.4231 C   0  0  0  0  0  0  0  0  0  0  0  0
  -19.8920  -11.7149   14.6601 C   0  0  0  0  0  0  0  0  0  0  0  0
  -24.2812  -14.9701   10.5358 C   0  0  0  0  0  0  0  0  0  0  0  0
  -30.0257  -18.1421   21.4728 C   0  0  0  0  0  0  0  0  0  0  0  0
  -27.0405  -17.6101   17.4878 C   0  0  0  0  0  0  0  0  0  1  0  0
  -30.8065  -16.8941   21.9029 C   0  0  0  0  0  0  0  0  0  0  0  0
  -21.8110  -13.3575   14.5523 C   0  0  1  0  0  0  0  0  0  0  0  0
  -23.5051  -12.6985   11.2258 C   0  0  2  0  0  0  0  0  0  0  0  0
  -21.1789  -12.1937   15.3668 C   0  0  0  0  0  0  0  0  0  0  0  0
  -30.6339  -18.7454   17.7870 N   0  0  0  0  0  0  0  0  0  0  0  0
  -25.8568  -11.5448   20.2857 N   0  0  0  0  0  0  0  0  0  0  0  0
  -26.2332  -12.8286   20.1580 N   0  0  0  0  0  0  0  0  0  0  0  0
  -21.4199  -15.7556   15.0211 N   0  0  0  0  0  0  0  0  0  0  0  0
  -29.9690  -13.6093   20.3645 N   0  0  0  0  0  0  0  0  0  0  0  0
  -32.0603  -19.0025   19.6649 N   0  0  0  0  0  0  0  0  0  0  0  0
  -25.4664  -15.0557   20.4083 N   0  0  0  0  0  0  0  0  0  0  0  0
  -21.8832  -12.5795   21.6024 N   0  0  0  0  0  0  0  0  0  0  0  0
  -19.0731  -17.8671   16.8461 N   0  0  0  0  0  0  0  0  0  0  0  0
  -22.1395  -13.0122   13.1734 N   0  0  0  0  0  0  0  0  0  0  0  0
  -30.1414  -15.6725   21.5078 N   0  0  0  0  0  0  0  0  0  0  0  0
  -24.5321  -13.5061   10.5090 N   0  3  0  0  0  0  0  0  0  0  0  0
  -22.6580  -14.7197   21.3233 O   0  0  0  0  0  0  0  0  0  0  0  0
  -20.3846  -16.0087   17.3448 O   0  0  0  0  0  0  0  0  0  0  0  0
  -19.7965  -14.4612   13.9604 O   0  0  0  0  0  0  0  0  0  0  0  0
  -24.4005  -13.5058   13.3195 O   0  0  0  0  0  0  0  0  0  0  0  0
  -31.8755  -14.9206   20.2100 O   0  0  0  0  0  0  0  0  0  0  0  0
  -21.6116   -7.0162   21.7067 O   0  0  0  0  0  0  0  0  0  0  0  0
  -26.3537  -18.8058   17.1205 O   0  0  0  0  0  0  0  0  0  1  0  0
  -16.4436   -6.8317   19.7930 F   0  0  0  0  0  0  0  0  0  0  0  0
  -20.8318   -5.0613   19.9142 F   0  0  0  0  0  0  0  0  0  0  0  0
  1  2  1  0  0  0  0
  1  5  2  0  0  0  0
  2  6  2  0  0  0  0
  3  8  2  0  0  0  0
  3 17  1  0  0  0  0
  4  9  1  0  0  0  0
  4 17  2  0  0  0  0
  5 19  1  0  0  0  0
  6 21  1  0  0  0  0
  7 10  2  0  0  0  0
  7 20  1  0  0  0  0
  8 25  1  0  0  0  0
  9 25  2  0  0  0  0
 10 26  1  0  0  0  0
 11 12  2  0  0  0  0
 11 27  1  0  0  0  0
 12 28  1  0  0  0  0
 13 22  1  0  0  0  0
 13 26  2  0  0  0  0
 14 23  2  0  0  0  0
 14 24  1  0  0  0  0
 15 28  2  0  0  0  0
 15 29  1  0  0  0  0
 16 23  1  0  0  0  0
 16 61  2  0  0  0  0
 17 30  1  0  0  0  0
 18 30  1  0  0  0  0
 18 32  2  0  0  0  0
 18 33  1  0  0  0  0
 19 21  2  0  0  0  0
 19 38  1  0  0  0  0
 20 22  2  0  0  0  0
 20 39  1  0  0  0  0
 21 47  1  0  0  0  0
 22 40  1  0  0  0  0
 23 56  1  0  0  0  0
 24 31  2  0  0  0  0
 24 55  1  0  0  0  0
 25 78  1  0  0  0  0
 26 79  1  0  0  0  0
 27 29  2  0  0  0  0
 27 78  1  0  0  0  0
 28 80  1  0  0  0  0
 29 81  1  0  0  0  0
 30 62  2  0  0  0  0
 31 61  1  0  0  0  0
 31 66  1  0  0  0  0
 32 63  1  0  0  0  0
 32 67  1  0  0  0  0
 33 68  1  0  0  0  0
 33 73  2  0  0  0  0
 34 48  1  0  0  0  0
 34 69  1  0  0  0  0
 34 74  2  0  0  0  0
 35 58  1  0  0  0  0
 35 64  1  0  0  0  0
 35 75  2  0  0  0  0
 36 59  1  0  0  0  0
 36 70  1  0  0  0  0
 36 76  2  0  0  0  0
 37 65  1  0  0  0  0
 37 71  1  0  0  0  0
 37 77  2  0  0  0  0
 38 41  1  0  0  0  0
 39 48  1  0  0  0  0
 40 64  1  0  0  0  0
 41 43  1  0  0  0  0
 42 44  1  0  0  0  0
 42 45  1  0  0  0  0
 43 47  1  0  0  0  0
 44 49  1  0  0  0  0
 45 65  1  0  0  0  0
 46 49  1  0  0  0  0
 46 65  1  0  0  0  0
 47 69  1  0  0  0  0
 48 64  1  0  0  0  0
 49 63  1  0  0  0  0
 50 59  1  0  0  0  0
 51 60  1  0  0  0  0
 52 60  1  0  0  0  0
 53 60  1  0  0  0  0
 54 72  1  0  0  0  0
 55 57  1  0  0  0  0
 56 79  1  0  0  0  0
 57 71  1  0  0  0  0
 58 60  1  0  0  0  0
 58 70  1  0  0  0  0
 59 72  1  0  0  0  0
 62 63  1  0  0  0  0
M  CHG  1  72   1
M  ISO  4  37 100  56 101  71 100  79 101
M  END
> <Batch ID>
0137

> <Smiles>
CNC(C)C(=O)NC(C(=O)N1Cc2cc([101O:1][101CH2:1]c3cnc(N)c(CC[100NH:0][100C:0](=O)N4CCCC(n5nc(-c6ccc(Oc7ccc(F)cc7F)cc6)c(C(N)=O)c5N)C4)c3)ccc2CC1C(=O)NC1CCCc2ccccc21)C(C)(C)C

> <Shape>
0.174

> <Color>
0.188

> <Negative vol penalty>
0.000

$$$$

  -OEChem-04052321053D

 83 92  0     1  0  0  0  0  0999 V2000
  -41.6798  -22.6644   26.5479 C   0  0  0  0  0  0  0  0  0  0  0  0
  -40.6128  -22.1678   25.8060 C   0  0  0  0  0  0  0  0  0  0  0  0
  -23.0003   -9.8918   19.9821 C   0  0  0  0  0  0  0  0  0  0  0  0
  -23.7258   -9.9454   22.2860 C   0  0  0  0  0  0  0  0  0  0  0  0
  -41.8189  -24.0394   26.7324 C   0  0  0  0  0  0  0  0  0  0  0  0
  -39.6837  -23.0459   25.2491 C   0  0  0  0  0  0  0  0  0  0  0  0
  -38.5398  -21.8805   20.4555 C   0  0  0  0  0  0  0  0  0  0  0  0
  -22.2344   -8.7571   20.2497 C   0  0  0  0  0  0  0  0  0  0  0  0
  -22.9599   -8.8107   22.5536 C   0  0  0  0  0  0  0  0  0  0  0  0
  -37.6531  -20.8242   20.2513 C   0  0  0  0  0  0  0  0  0  0  0  0
  -23.2059   -5.4715   22.0849 C   0  0  0  0  0  0  0  0  0  0  0  0
  -23.7941   -4.4553   22.8379 C   0  0  0  0  0  0  0  0  0  0  0  0
  -35.8618  -22.4025   19.9058 C   0  0  0  0  0  0  0  0  0  0  0  0
  -29.7595  -17.6982   22.6656 C   0  0  0  0  0  0  0  0  0  0  0  0
  -31.5205  -19.3362   22.6822 C   0  0  0  0  0  0  0  0  0  0  0  0
  -22.0704   -4.6990   24.5132 C   0  0  0  0  0  0  0  0  0  0  0  0
  -23.7461  -10.4859   21.0003 C   0  0  0  0  0  0  0  0  0  0  0  0
  -24.1300  -13.0015   20.8217 C   0  0  0  0  0  0  0  0  0  0  0  0
  -40.8964  -24.9353   26.1694 C   0  0  0  0  0  0  0  0  0  0  0  0
  -38.0912  -23.2078   20.3971 C   0  0  0  0  0  0  0  0  0  0  0  0
  -39.8099  -24.4341   25.4274 C   0  0  0  0  0  0  0  0  0  0  0  0
  -36.7454  -23.4739   20.1071 C   0  0  0  0  0  0  0  0  0  0  0  0
  -30.2462  -18.9365   23.0693 C   0  0  0  0  0  0  0  0  0  0  0  0
  -22.2142   -8.2166   21.5354 C   0  0  0  0  0  0  0  0  0  0  0  0
  -36.3133  -21.0850   19.9792 C   0  0  0  0  0  0  0  0  0  0  0  0
  -22.0500   -6.1015   22.5460 C   0  0  0  0  0  0  0  0  0  0  0  0
  -23.2264   -4.0691   24.0520 C   0  0  0  0  0  0  0  0  0  0  0  0
  -21.4822   -5.7152   23.7601 C   0  0  0  0  0  0  0  0  0  0  0  0
  -24.5378  -11.6577   20.7244 C   0  0  0  0  0  0  0  0  0  0  0  0
  -30.5799  -16.9031   21.8817 C   0  0  0  0  0  0  0  0  0  0  0  0
  -32.2621  -18.4677   21.8977 C   0  0  0  0  0  0  0  0  0  0  0  0
  -25.2393  -13.7243   20.4564 C   0  0  0  0  0  0  0  0  0  0  0  0
  -22.8618  -13.5476   21.2079 C   0  0  0  0  0  0  0  0  0  0  0  0
  -37.9609  -25.6243   22.4580 C   0  0  0  0  0  0  0  0  0  0  0  0
  -36.9730  -27.2833   19.8514 C   0  0  0  0  0  0  0  0  0  0  0  0
  -35.5285  -27.2307   16.7599 C   0  0  0  0  0  0  0  0  0  0  0  0
  -30.7183  -14.6886   20.6886 C   0  0  0  0  0  0  0  0  0  0  0  0
  -41.0619  -26.4105   26.4358 C   0  0  0  0  0  0  0  0  0  0  0  0
  -39.0658  -24.3366   20.5933 C   0  0  0  0  0  0  0  0  0  0  0  0
  -36.2177  -24.8815   20.0135 C   0  0  0  0  0  0  0  0  0  0  0  0
  -40.2438  -27.2944   25.4979 C   0  0  0  0  0  0  0  0  0  0  0  0
  -29.6010  -12.2329   18.3653 C   0  0  0  0  0  0  0  0  0  0  0  0
  -28.0306  -20.2149   23.4308 C   0  0  0  0  0  0  0  0  0  0  0  0
  -29.1257  -21.2351   23.4424 C   0  0  0  0  0  0  0  0  0  0  0  0
  -38.8163  -26.7699   25.3800 C   0  0  0  0  0  0  0  0  0  0  0  0
  -28.1506  -11.9748   18.7799 C   0  0  0  0  0  0  0  0  0  0  0  0
  -30.5015  -12.4779   19.5747 C   0  0  0  0  0  0  0  0  0  0  0  0
  -28.5860  -13.2671   20.9077 C   0  0  0  0  0  0  0  0  0  0  0  0
  -29.4059  -19.8310   23.9131 C   0  0  0  0  0  0  0  0  0  0  0  0
  -38.7952  -25.3560   24.7867 C   0  0  1  0  0  0  0  0  0  0  0  0
  -38.3943  -25.6385   21.0193 C   0  0  1  0  0  0  0  0  0  0  0  0
  -27.6282  -13.0790   19.7199 C   0  0  2  0  0  0  0  0  0  0  0  0
  -34.8204  -28.7476   14.8904 C   0  0  0  0  0  0  0  0  0  0  0  0
  -34.5458  -28.1556   21.4817 C   0  0  0  0  0  0  0  0  0  0  0  0
  -33.4425  -28.8422   19.3417 C   0  0  0  0  0  0  0  0  0  0  0  0
  -35.5539  -29.9550   20.0673 C   0  0  0  0  0  0  0  0  0  0  0  0
  -37.3602  -25.9150   14.8435 C   0  0  0  0  0  0  0  0  0  0  0  0
  -34.4204  -18.0853   20.7055 C   0  0  0  0  0  0  0  0  0  0  0  0
  -35.7206  -18.8331   20.4625 C   0  0  0  0  0  0  0  0  0  1  0  0
  -35.6362  -27.5764   19.2142 C   0  0  1  0  0  0  0  0  0  0  0  0
  -35.9349  -27.8754   15.4471 C   0  0  2  0  0  0  0  0  0  0  0  0
  -34.8038  -28.6056   20.0298 C   0  0  0  0  0  0  0  0  0  0  0  0
  -25.8071  -11.5315   20.3281 N   0  0  0  0  0  0  0  0  0  0  0  0
  -31.8231  -17.2572   21.4859 N   0  0  0  0  0  0  0  0  0  0  0  0
  -26.2064  -12.8053   20.1732 N   0  0  0  0  0  0  0  0  0  0  0  0
  -37.2084  -25.9510   20.2192 N   0  0  0  0  0  0  0  0  0  0  0  0
  -29.9461  -13.5394   20.4170 N   0  0  0  0  0  0  0  0  0  0  0  0
  -25.4720  -15.0501   20.3530 N   0  0  0  0  0  0  0  0  0  0  0  0
  -21.8305  -12.6632   21.5525 N   0  0  0  0  0  0  0  0  0  0  0  0
  -30.0736  -15.6442   21.4734 N   0  0  0  0  0  0  0  0  0  0  0  0
  -33.5298  -18.8791   21.5208 N   0  0  0  0  0  0  0  0  0  0  0  0
  -38.9905  -25.4064   23.3536 N   0  0  0  0  0  0  0  0  0  0  0  0
  -35.9190  -27.9886   17.8436 N   0  0  0  0  0  0  0  0  0  0  0  0
  -36.2631  -26.8304   14.4366 N   0  3  0  0  0  0  0  0  0  0  0  0
  -22.6444  -14.7828   21.2305 O   0  0  0  0  0  0  0  0  0  0  0  0
  -36.7802  -25.7997   22.7351 O   0  0  0  0  0  0  0  0  0  0  0  0
  -37.7815  -28.2013   20.0103 O   0  0  0  0  0  0  0  0  0  0  0  0
  -34.9216  -26.1635   16.8182 O   0  0  0  0  0  0  0  0  0  0  0  0
  -31.8568  -14.8277   20.2343 O   0  0  0  0  0  0  0  0  0  0  0  0
  -21.4668   -7.1096   21.7969 O   0  0  0  0  0  0  0  0  0  0  0  0
  -35.4456  -20.0558   19.7801 O   0  0  0  0  0  0  0  0  0  1  0  0
  -23.7905   -3.0922   24.7743 F   0  0  0  0  0  0  0  0  0  0  0  0
  -20.3710   -6.3159   24.2077 F   0  0  0  0  0  0  0  0  0  0  0  0
  1  2  1  0  0  0  0
  1  5  2  0  0  0  0
  2  6  2  0  0  0  0
  3  8  2  0  0  0  0
  3 17  1  0  0  0  0
  4  9  1  0  0  0  0
  4 17  2  0  0  0  0
  5 19  1  0  0  0  0
  6 21  1  0  0  0  0
  7 10  2  0  0  0  0
  7 20  1  0  0  0  0
  8 24  1  0  0  0  0
  9 24  2  0  0  0  0
 10 25  1  0  0  0  0
 11 12  2  0  0  0  0
 11 26  1  0  0  0  0
 12 27  1  0  0  0  0
 13 22  1  0  0  0  0
 13 25  2  0  0  0  0
 14 23  1  0  0  0  0
 14 30  2  0  0  0  0
 15 23  2  0  0  0  0
 15 31  1  0  0  0  0
 16 27  2  0  0  0  0
 16 28  1  0  0  0  0
 17 29  1  0  0  0  0
 18 29  1  0  0  0  0
 18 32  2  0  0  0  0
 18 33  1  0  0  0  0
 19 21  2  0  0  0  0
 19 38  1  0  0  0  0
 20 22  2  0  0  0  0
 20 39  1  0  0  0  0
 21 50  1  0  0  0  0
 22 40  1  0  0  0  0
 23 49  1  0  0  0  0
 24 80  1  0  0  0  0
 25 81  1  0  0  0  0
 26 28  2  0  0  0  0
 26 80  1  0  0  0  0
 27 82  1  0  0  0  0
 28 83  1  0  0  0  0
 29 63  2  0  0  0  0
 30 64  1  0  0  0  0
 30 70  1  0  0  0  0
 31 64  2  0  0  0  0
 31 71  1  0  0  0  0
 32 65  1  0  0  0  0
 32 68  1  0  0  0  0
 33 69  1  0  0  0  0
 33 75  2  0  0  0  0
 34 51  1  0  0  0  0
 34 72  1  0  0  0  0
 34 76  2  0  0  0  0
 35 60  1  0  0  0  0
 35 66  1  0  0  0  0
 35 77  2  0  0  0  0
 36 61  1  0  0  0  0
 36 73  1  0  0  0  0
 36 78  2  0  0  0  0
 37 67  1  0  0  0  0
 37 70  1  0  0  0  0
 37 79  2  0  0  0  0
 38 41  1  0  0  0  0
 39 51  1  0  0  0  0
 40 66  1  0  0  0  0
 41 45  1  0  0  0  0
 42 46  1  0  0  0  0
 42 47  1  0  0  0  0
 43 44  1  0  0  0  0
 43 49  1  0  0  0  0
 44 49  1  0  0  0  0
 45 50  1  0  0  0  0
 46 52  1  0  0  0  0
 47 67  1  0  0  0  0
 48 52  1  0  0  0  0
 48 67  1  0  0  0  0
 50 72  1  0  0  0  0
 51 66  1  0  0  0  0
 52 65  1  0  0  0  0
 53 61  1  0  0  0  0
 54 62  1  0  0  0  0
 55 62  1  0  0  0  0
 56 62  1  0  0  0  0
 57 74  1  0  0  0  0
 58 59  1  0  0  0  0
 58 71  1  0  0  0  0
 59 81  1  0  0  0  0
 60 62  1  0  0  0  0
 60 73  1  0  0  0  0
 61 74  1  0  0  0  0
 63 65  1  0  0  0  0
M  CHG  1  74   1
M  ISO  4  37 100  59 101  70 100  81 101
M  END
> <Batch ID>
0137

> <Smiles>
CNC(C)C(=O)NC(C(=O)N1Cc2cc([101O:1][101CH2:1]CNc3cc(C4CC4)cc([100NH:0][100C:0](=O)N4CCCC(n5nc(-c6ccc(Oc7ccc(F)cc7F)cc6)c(C(N)=O)c5N)C4)n3)ccc2CC1C(=O)NC1CCCc2ccccc21)C(C)(C)C

> <Shape>
0.177

> <Color>
0.198

> <Negative vol penalty>
0.000

$$$$

  -OEChem-04052321053D

 86 94  0     1  0  0  0  0  0999 V2000
  -28.4874  -24.0683   17.4286 C   0  0  0  0  0  0  0  0  0  0  0  0
  -27.3131  -24.2450   18.1533 C   0  0  0  0  0  0  0  0  0  0  0  0
  -20.6911  -22.6631   26.3810 C   0  0  0  0  0  0  0  0  0  0  0  0
  -19.6077  -22.0914   25.7140 C   0  0  0  0  0  0  0  0  0  0  0  0
  -23.6649  -14.9162   20.3919 C   0  0  0  0  0  0  0  0  0  0  0  0
  -25.5363  -15.5496   21.7825 C   0  0  0  0  0  0  0  0  0  0  0  0
  -29.6544  -24.7205   17.8245 C   0  0  0  0  0  0  0  0  0  0  0  0
  -27.3053  -25.0732   19.2751 C   0  0  0  0  0  0  0  0  0  0  0  0
  -23.2807  -28.1445   19.3947 C   0  0  0  0  0  0  0  0  0  0  0  0
  -21.4058  -23.7033   25.7870 C   0  0  0  0  0  0  0  0  0  0  0  0
  -19.2390  -22.5597   24.4529 C   0  0  0  0  0  0  0  0  0  0  0  0
  -24.3052  -13.7180   20.0759 C   0  0  0  0  0  0  0  0  0  0  0  0
  -26.1766  -14.3513   21.4665 C   0  0  0  0  0  0  0  0  0  0  0  0
  -22.0688  -27.5903   19.8045 C   0  0  0  0  0  0  0  0  0  0  0  0
  -27.9491  -13.0796   18.8836 C   0  0  0  0  0  0  0  0  0  0  0  0
  -29.3027  -13.1361   18.5515 C   0  0  0  0  0  0  0  0  0  0  0  0
  -22.3886  -28.5312   22.0026 C   0  0  0  0  0  0  0  0  0  0  0  0
  -29.8187  -11.6773   20.4070 C   0  0  0  0  0  0  0  0  0  0  0  0
  -24.2805  -15.8321   21.2452 C   0  0  0  0  0  0  0  0  0  0  0  0
  -22.7415  -17.3077   22.6458 C   0  0  0  0  0  0  0  0  0  0  0  0
  -29.6586  -25.5647   18.9461 C   0  0  0  0  0  0  0  0  0  0  0  0
  -24.0622  -28.8883   20.2905 C   0  0  0  0  0  0  0  0  0  0  0  0
  -28.4738  -25.7362   19.6872 C   0  0  0  0  0  0  0  0  0  0  0  0
  -23.6088  -29.0959   21.6010 C   0  0  0  0  0  0  0  0  0  0  0  0
  -21.0372  -24.1717   24.5259 C   0  0  0  0  0  0  0  0  0  0  0  0
  -19.9538  -23.5999   23.8588 C   0  0  0  0  0  0  0  0  0  0  0  0
  -25.5610  -13.4355   20.6132 C   0  0  0  0  0  0  0  0  0  0  0  0
  -21.6239  -27.7811   21.1094 C   0  0  0  0  0  0  0  0  0  0  0  0
  -27.5303  -12.3220   19.9774 C   0  0  0  0  0  0  0  0  0  0  0  0
  -30.2374  -12.4349   19.3132 C   0  0  0  0  0  0  0  0  0  0  0  0
  -28.4651  -11.6208   20.7391 C   0  0  0  0  0  0  0  0  0  0  0  0
  -23.6198  -17.0703   21.5716 C   0  0  0  0  0  0  0  0  0  0  0  0
  -22.3910  -18.6294   22.5170 C   0  0  0  0  0  0  0  0  0  0  0  0
  -22.2835  -16.4135   23.6687 C   0  0  0  0  0  0  0  0  0  0  0  0
  -26.9779  -28.5763   21.5173 C   0  0  0  0  0  0  0  0  0  0  0  0
  -26.3441  -31.5038   22.7624 C   0  0  0  0  0  0  0  0  0  0  0  0
  -24.0091  -33.7887   23.7494 C   0  0  0  0  0  0  0  0  0  0  0  0
  -23.7568  -23.9562   21.5652 C   0  0  0  0  0  0  0  0  0  0  0  0
  -30.9558  -26.2111   19.3633 C   0  0  0  0  0  0  0  0  0  0  0  0
  -25.3543  -29.5020   19.8253 C   0  0  0  0  0  0  0  0  0  0  0  0
  -24.4007  -29.9035   22.5956 C   0  0  0  0  0  0  0  0  0  0  0  0
  -30.7729  -27.3663   20.3442 C   0  0  0  0  0  0  0  0  0  0  0  0
  -23.1699  -21.8879   18.7272 C   0  0  0  0  0  0  0  0  0  0  0  0
  -29.8078  -26.9731   21.4581 C   0  0  0  0  0  0  0  0  0  0  0  0
  -23.1685  -20.4702   19.3018 C   0  0  0  0  0  0  0  0  0  0  0  0
  -24.1915  -22.7801   19.4288 C   0  0  0  0  0  0  0  0  0  0  0  0
  -24.0670  -21.4083   21.4724 C   0  0  0  0  0  0  0  0  0  0  0  0
  -28.4194  -26.6460   20.8953 C   0  0  1  0  0  0  0  0  0  0  0  0
  -26.3160  -29.8088   20.9692 C   0  0  1  0  0  0  0  0  0  0  0  0
  -23.0136  -20.4865   20.8345 C   0  0  2  0  0  0  0  0  0  0  0  0
  -23.7950  -36.0747   24.7620 C   0  0  0  0  0  0  0  0  0  0  0  0
  -15.9511  -26.2574   21.5707 C   0  0  0  0  0  0  0  0  0  0  0  0
  -17.5306  -28.0320   22.3644 C   0  0  0  0  0  0  0  0  0  0  0  0
  -27.0535  -30.3554   25.4988 C   0  0  0  0  0  0  0  0  0  0  0  0
  -25.9318  -32.3352   26.5431 C   0  0  0  0  0  0  0  0  0  0  0  0
  -27.9240  -32.6618   25.0778 C   0  0  0  0  0  0  0  0  0  0  0  0
  -22.5956  -34.8372   21.3700 C   0  0  0  0  0  0  0  0  0  0  0  0
  -21.8163  -25.2871   23.9099 C   0  0  0  0  0  0  0  0  0  0  0  0
  -19.5390  -24.0863   22.5015 C   0  0  0  0  0  0  0  0  0  0  0  0
  -23.3136  -24.9882   23.7783 C   0  0  0  0  0  0  0  0  0  0  0  0
  -19.7082  -26.4897   20.5456 C   0  0  0  0  0  0  0  0  0  1  0  0
  -25.7139  -32.0096   24.0376 C   0  0  1  0  0  0  0  0  0  0  0  0
  -23.8735  -35.2748   23.4710 C   0  0  2  0  0  0  0  0  0  0  0  0
  -17.2989  -26.9412   21.3142 C   0  0  0  0  0  0  0  0  0  0  0  0
  -18.4500  -25.9172   21.1974 C   0  0  2  0  0  0  0  0  0  0  0  0
  -26.6416  -31.8236   25.2714 C   0  0  0  0  0  0  0  0  0  0  0  0
  -23.8151  -18.1542   20.8159 N   0  0  0  0  0  0  0  0  0  0  0  0
  -23.0545  -19.0855   21.4161 N   0  0  0  0  0  0  0  0  0  0  0  0
  -25.6604  -30.4778   22.0947 N   0  0  0  0  0  0  0  0  0  0  0  0
  -23.9890  -22.7525   20.8793 N   0  0  0  0  0  0  0  0  0  0  0  0
  -21.5829  -19.4344   23.2391 N   0  0  0  0  0  0  0  0  0  0  0  0
  -22.7423  -15.0892   23.6530 N   0  0  0  0  0  0  0  0  0  0  0  0
  -27.7019  -27.8629   20.5811 N   0  0  0  0  0  0  0  0  0  0  0  0
  -25.3298  -33.3936   23.7820 N   0  0  0  0  0  0  0  0  0  0  0  0
  -23.5688  -23.8401   22.9371 N   0  0  0  0  0  0  0  0  0  0  0  0
  -22.6413  -35.5426   22.6766 N   0  3  0  0  0  0  0  0  0  0  0  0
  -18.8304  -25.3897   22.5424 N   0  3  0  0  0  0  0  0  0  0  0  0
  -21.4780  -16.7736   24.5603 O   0  0  0  0  0  0  0  0  0  0  0  0
  -26.8432  -28.2943   22.7022 O   0  0  0  0  0  0  0  0  0  0  0  0
  -27.4001  -32.0056   22.3693 O   0  0  0  0  0  0  0  0  0  0  0  0
  -23.0405  -33.0526   23.9244 O   0  0  0  0  0  0  0  0  0  0  0  0
  -23.7146  -25.0523   20.9964 O   0  0  0  0  0  0  0  0  0  0  0  0
  -26.1860  -12.2663   20.3053 O   0  0  0  0  0  0  0  0  0  0  0  0
  -20.4417  -27.2407   21.5121 O   0  0  0  0  0  0  0  0  0  1  0  0
  -31.5371  -12.4880   18.9933 F   0  0  0  0  0  0  0  0  0  0  0  0
  -28.0686  -10.8904   21.7903 F   0  0  0  0  0  0  0  0  0  0  0  0
  1  2  1  0  0  0  0
  1  7  2  0  0  0  0
  2  8  2  0  0  0  0
  3  4  1  0  0  0  0
  3 10  2  0  0  0  0
  4 11  2  0  0  0  0
  5 12  2  0  0  0  0
  5 19  1  0  0  0  0
  6 13  1  0  0  0  0
  6 19  2  0  0  0  0
  7 21  1  0  0  0  0
  8 23  1  0  0  0  0
  9 14  2  0  0  0  0
  9 22  1  0  0  0  0
 10 25  1  0  0  0  0
 11 26  1  0  0  0  0
 12 27  1  0  0  0  0
 13 27  2  0  0  0  0
 14 28  1  0  0  0  0
 15 16  2  0  0  0  0
 15 29  1  0  0  0  0
 16 30  1  0  0  0  0
 17 24  1  0  0  0  0
 17 28  2  0  0  0  0
 18 30  2  0  0  0  0
 18 31  1  0  0  0  0
 19 32  1  0  0  0  0
 20 32  1  0  0  0  0
 20 33  2  0  0  0  0
 20 34  1  0  0  0  0
 21 23  2  0  0  0  0
 21 39  1  0  0  0  0
 22 24  2  0  0  0  0
 22 40  1  0  0  0  0
 23 48  1  0  0  0  0
 24 41  1  0  0  0  0
 25 26  2  0  0  0  0
 25 58  1  0  0  0  0
 26 59  1  0  0  0  0
 27 83  1  0  0  0  0
 28 84  1  0  0  0  0
 29 31  2  0  0  0  0
 29 83  1  0  0  0  0
 30 85  1  0  0  0  0
 31 86  1  0  0  0  0
 32 67  2  0  0  0  0
 33 68  1  0  0  0  0
 33 71  1  0  0  0  0
 34 72  1  0  0  0  0
 34 78  2  0  0  0  0
 35 49  1  0  0  0  0
 35 73  1  0  0  0  0
 35 79  2  0  0  0  0
 36 62  1  0  0  0  0
 36 69  1  0  0  0  0
 36 80  2  0  0  0  0
 37 63  1  0  0  0  0
 37 74  1  0  0  0  0
 37 81  2  0  0  0  0
 38 70  1  0  0  0  0
 38 75  1  0  0  0  0
 38 82  2  0  0  0  0
 39 42  1  0  0  0  0
 40 49  1  0  0  0  0
 41 69  1  0  0  0  0
 42 44  1  0  0  0  0
 43 45  1  0  0  0  0
 43 46  1  0  0  0  0
 44 48  1  0  0  0  0
 45 50  1  0  0  0  0
 46 70  1  0  0  0  0
 47 50  1  0  0  0  0
 47 70  1  0  0  0  0
 48 73  1  0  0  0  0
 49 69  1  0  0  0  0
 50 68  1  0  0  0  0
 51 63  1  0  0  0  0
 52 64  1  0  0  0  0
 53 64  1  0  0  0  0
 54 66  1  0  0  0  0
 55 66  1  0  0  0  0
 56 66  1  0  0  0  0
 57 76  1  0  0  0  0
 58 60  1  0  0  0  0
 59 77  1  0  0  0  0
 60 75  1  0  0  0  0
 61 65  1  0  0  0  0
 61 84  1  0  0  0  0
 62 66  1  0  0  0  0
 62 74  1  0  0  0  0
 63 76  1  0  0  0  0
 64 65  1  0  0  0  0
 65 77  1  0  0  0  0
 67 68  1  0  0  0  0
M  CHG  2  76   1  77   1
M  ISO  4  38 100  61 101  75 100  84 101
M  END
> <Batch ID>
0137

> <Smiles>
CNC(C)C(=O)NC(C(=O)N1Cc2cc([101O:1][101CH2:1]C(NCc3ccccc3CC[100NH:0][100C:0](=O)N3CCCC(n4nc(-c5ccc(Oc6ccc(F)cc6F)cc5)c(C(N)=O)c4N)C3)C(C)C)ccc2CC1C(=O)NC1CCCc2ccccc21)C(C)(C)C

> <Shape>
0.281

> <Color>
0.074

> <Negative vol penalty>
0.000

$$$$

  -OEChem-04052321053D

 84 93  0     1  0  0  0  0  0999 V2000
  -20.8582  -27.3759   26.2691 C   0  0  0  0  0  0  0  0  0  0  0  0
  -21.8085  -26.8399   25.4059 C   0  0  0  0  0  0  0  0  0  0  0  0
  -23.7997  -10.0444   22.2274 C   0  0  0  0  0  0  0  0  0  0  0  0
  -23.1459  -10.1066   19.9024 C   0  0  0  0  0  0  0  0  0  0  0  0
  -19.7509  -28.0486   25.7541 C   0  0  0  0  0  0  0  0  0  0  0  0
  -21.6514  -26.9755   24.0270 C   0  0  0  0  0  0  0  0  0  0  0  0
  -25.9439  -28.3306   21.7067 C   0  0  0  0  0  0  0  0  0  0  0  0
  -23.1557   -8.8160   22.3757 C   0  0  0  0  0  0  0  0  0  0  0  0
  -22.5020   -8.8782   20.0506 C   0  0  0  0  0  0  0  0  0  0  0  0
  -26.8944  -27.3334   21.4931 C   0  0  0  0  0  0  0  0  0  0  0  0
  -23.7786   -5.5732   21.6482 C   0  0  0  0  0  0  0  0  0  0  0  0
  -24.4543   -4.5661   22.3371 C   0  0  0  0  0  0  0  0  0  0  0  0
  -26.1571  -27.1289   19.2054 C   0  0  0  0  0  0  0  0  0  0  0  0
  -28.0405  -19.1986   18.2502 C   0  0  0  0  0  0  0  0  0  0  0  0
  -28.9881  -21.0218   19.5001 C   0  0  0  0  0  0  0  0  0  0  0  0
  -22.6699   -4.4817   23.9638 C   0  0  0  0  0  0  0  0  0  0  0  0
  -23.7947  -10.6898   20.9908 C   0  0  0  0  0  0  0  0  0  0  0  0
  -25.7995  -12.1774   20.4660 C   0  0  0  0  0  0  0  0  0  0  0  0
  -19.5852  -28.2009   24.3684 C   0  0  0  0  0  0  0  0  0  0  0  0
  -25.0840  -28.7276   20.6726 C   0  0  0  0  0  0  0  0  0  0  0  0
  -20.5402  -27.6498   23.4929 C   0  0  0  0  0  0  0  0  0  0  0  0
  -25.1982  -28.1333   19.4077 C   0  0  0  0  0  0  0  0  0  0  0  0
  -29.1168  -19.7617   18.9267 C   0  0  0  0  0  0  0  0  0  0  0  0
  -22.5069   -8.2329   21.2873 C   0  0  0  0  0  0  0  0  0  0  0  0
  -26.9992  -26.7303   20.2432 C   0  0  0  0  0  0  0  0  0  0  0  0
  -22.5486   -6.0347   22.1170 C   0  0  0  0  0  0  0  0  0  0  0  0
  -23.8999   -4.0203   23.4949 C   0  0  0  0  0  0  0  0  0  0  0  0
  -21.9942   -5.4889   23.2748 C   0  0  0  0  0  0  0  0  0  0  0  0
  -24.4593  -11.9590   20.8372 C   0  0  0  0  0  0  0  0  0  0  0  0
  -26.8664  -19.9306   18.1759 C   0  0  0  0  0  0  0  0  0  0  0  0
  -27.7717  -21.6723   19.3696 C   0  0  0  0  0  0  0  0  0  0  0  0
  -25.9367  -13.5440   20.4632 C   0  0  0  0  0  0  0  0  0  0  0  0
  -26.8285  -11.2297   20.1518 C   0  0  0  0  0  0  0  0  0  0  0  0
  -21.9362  -28.6872   20.2328 C   0  0  0  0  0  0  0  0  0  0  0  0
  -22.6843  -30.3235   17.5337 C   0  0  0  0  0  0  0  0  0  0  0  0
  -25.0116  -31.0782   15.1545 C   0  0  0  0  0  0  0  0  0  0  0  0
  -24.0319  -18.6236   19.1536 C   0  0  0  0  0  0  0  0  0  0  0  0
  -18.3476  -28.8950   23.8573 C   0  0  0  0  0  0  0  0  0  0  0  0
  -24.0819  -29.8235   20.9116 C   0  0  0  0  0  0  0  0  0  0  0  0
  -24.3124  -28.5377   18.2587 C   0  0  0  0  0  0  0  0  0  0  0  0
  -18.4482  -29.3208   22.3948 C   0  0  0  0  0  0  0  0  0  0  0  0
  -22.8512  -17.1660   22.1798 C   0  0  0  0  0  0  0  0  0  0  0  0
  -30.3998  -17.6305   19.6238 C   0  0  0  0  0  0  0  0  0  0  0  0
  -30.9903  -18.7649   20.4014 C   0  0  0  0  0  0  0  0  0  0  0  0
  -19.0023  -28.1823   21.5442 C   0  0  0  0  0  0  0  0  0  0  0  0
  -23.2692  -15.6989   22.0667 C   0  0  0  0  0  0  0  0  0  0  0  0
  -22.4340  -17.7399   20.8275 C   0  0  0  0  0  0  0  0  0  0  0  0
  -23.8470  -16.1082   19.6382 C   0  0  0  0  0  0  0  0  0  0  0  0
  -30.4033  -19.0184   19.0368 C   0  0  0  0  0  0  0  0  0  0  0  0
  -20.4177  -27.7977   21.9918 C   0  0  1  0  0  0  0  0  0  0  0  0
  -22.9130  -29.7885   19.9318 C   0  0  1  0  0  0  0  0  0  0  0  0
  -24.3296  -15.5013   20.9668 C   0  0  2  0  0  0  0  0  0  0  0  0
  -25.3183  -32.4149   13.0529 C   0  0  0  0  0  0  0  0  0  0  0  0
  -21.0911  -28.2379   15.9776 C   0  0  0  0  0  0  0  0  0  0  0  0
  -22.2011  -29.0519   13.8863 C   0  0  0  0  0  0  0  0  0  0  0  0
  -20.7545  -30.5941   15.2098 C   0  0  0  0  0  0  0  0  0  0  0  0
  -27.1617  -32.7101   16.3682 C   0  0  0  0  0  0  0  0  0  0  0  0
  -25.6901  -19.3569   17.4589 C   0  0  0  0  0  0  0  0  0  0  0  0
  -28.7298  -23.5781   20.6642 C   0  0  0  0  0  0  0  0  0  0  0  0
  -28.2830  -24.9463   21.1514 C   0  0  0  0  0  0  0  0  0  1  0  0
  -23.0246  -29.9435   16.1129 C   0  0  1  0  0  0  0  0  0  0  0  0
  -25.4581  -32.4049   14.5672 C   0  0  2  0  0  0  0  0  0  0  0  0
  -21.7833  -29.4476   15.3186 C   0  0  0  0  0  0  0  0  0  0  0  0
  -23.7926  -13.0958   21.0546 N   0  0  0  0  0  0  0  0  0  0  0  0
  -26.7037  -21.1574   18.7201 N   0  0  0  0  0  0  0  0  0  0  0  0
  -24.7178  -14.0417   20.8193 N   0  0  0  0  0  0  0  0  0  0  0  0
  -23.3441  -29.6093   18.5439 N   0  0  0  0  0  0  0  0  0  0  0  0
  -23.4837  -17.5210   19.8295 N   0  0  0  0  0  0  0  0  0  0  0  0
  -26.9798  -14.3565   20.1908 N   0  0  0  0  0  0  0  0  0  0  0  0
  -26.5175   -9.8640   20.2035 N   0  0  0  0  0  0  0  0  0  0  0  0
  -27.6585  -22.9267   19.9459 N   0  0  0  0  0  0  0  0  0  0  0  0
  -21.3823  -28.7565   21.4969 N   0  0  0  0  0  0  0  0  0  0  0  0
  -23.6842  -31.1052   15.5265 N   0  0  0  0  0  0  0  0  0  0  0  0
  -25.0260  -18.3286   18.2286 N   0  0  0  0  0  0  0  0  0  0  0  0
  -26.8844  -32.6690   14.9093 N   0  3  0  0  0  0  0  0  0  0  0  0
  -27.9938  -11.5829   19.8505 O   0  0  0  0  0  0  0  0  0  0  0  0
  -21.7012  -27.8384   19.3808 O   0  0  0  0  0  0  0  0  0  0  0  0
  -21.8687  -31.2257   17.7397 O   0  0  0  0  0  0  0  0  0  0  0  0
  -25.7641  -30.1131   15.2681 O   0  0  0  0  0  0  0  0  0  0  0  0
  -23.6666  -19.7853   19.3631 O   0  0  0  0  0  0  0  0  0  0  0  0
  -21.8786   -7.0341   21.4314 O   0  0  0  0  0  0  0  0  0  0  0  0
  -27.9257  -25.7562   20.0322 O   0  0  0  0  0  0  0  0  0  1  0  0
  -24.5481   -3.0521   24.1556 F   0  0  0  0  0  0  0  0  0  0  0  0
  -20.8123   -5.9273   23.7294 F   0  0  0  0  0  0  0  0  0  0  0  0
  1  2  1  0  0  0  0
  1  5  2  0  0  0  0
  2  6  2  0  0  0  0
  3  8  2  0  0  0  0
  3 17  1  0  0  0  0
  4  9  1  0  0  0  0
  4 17  2  0  0  0  0
  5 19  1  0  0  0  0
  6 21  1  0  0  0  0
  7 10  2  0  0  0  0
  7 20  1  0  0  0  0
  8 24  1  0  0  0  0
  9 24  2  0  0  0  0
 10 25  1  0  0  0  0
 11 12  2  0  0  0  0
 11 26  1  0  0  0  0
 12 27  1  0  0  0  0
 13 22  1  0  0  0  0
 13 25  2  0  0  0  0
 14 23  1  0  0  0  0
 14 30  2  0  0  0  0
 15 23  2  0  0  0  0
 15 31  1  0  0  0  0
 16 27  2  0  0  0  0
 16 28  1  0  0  0  0
 17 29  1  0  0  0  0
 18 29  1  0  0  0  0
 18 32  2  0  0  0  0
 18 33  1  0  0  0  0
 19 21  2  0  0  0  0
 19 38  1  0  0  0  0
 20 22  2  0  0  0  0
 20 39  1  0  0  0  0
 21 50  1  0  0  0  0
 22 40  1  0  0  0  0
 23 49  1  0  0  0  0
 24 81  1  0  0  0  0
 25 82  1  0  0  0  0
 26 28  2  0  0  0  0
 26 81  1  0  0  0  0
 27 83  1  0  0  0  0
 28 84  1  0  0  0  0
 29 64  2  0  0  0  0
 30 58  1  0  0  0  0
 30 65  1  0  0  0  0
 31 65  2  0  0  0  0
 31 71  1  0  0  0  0
 32 66  1  0  0  0  0
 32 69  1  0  0  0  0
 33 70  1  0  0  0  0
 33 76  2  0  0  0  0
 34 51  1  0  0  0  0
 34 72  1  0  0  0  0
 34 77  2  0  0  0  0
 35 61  1  0  0  0  0
 35 67  1  0  0  0  0
 35 78  2  0  0  0  0
 36 62  1  0  0  0  0
 36 73  1  0  0  0  0
 36 79  2  0  0  0  0
 37 68  1  0  0  0  0
 37 74  1  0  0  0  0
 37 80  2  0  0  0  0
 38 41  1  0  0  0  0
 39 51  1  0  0  0  0
 40 67  1  0  0  0  0
 41 45  1  0  0  0  0
 42 46  1  0  0  0  0
 42 47  1  0  0  0  0
 43 44  1  0  0  0  0
 43 49  1  0  0  0  0
 44 49  1  0  0  0  0
 45 50  1  0  0  0  0
 46 52  1  0  0  0  0
 47 68  1  0  0  0  0
 48 52  1  0  0  0  0
 48 68  1  0  0  0  0
 50 72  1  0  0  0  0
 51 67  1  0  0  0  0
 52 66  1  0  0  0  0
 53 62  1  0  0  0  0
 54 63  1  0  0  0  0
 55 63  1  0  0  0  0
 56 63  1  0  0  0  0
 57 75  1  0  0  0  0
 58 74  1  0  0  0  0
 59 60  1  0  0  0  0
 59 71  1  0  0  0  0
 60 82  1  0  0  0  0
 61 63  1  0  0  0  0
 61 73  1  0  0  0  0
 62 75  1  0  0  0  0
 64 66  1  0  0  0  0
M  CHG  1  75   1
M  ISO  4  37 100  60 101  74 100  82 101
M  END
> <Batch ID>
0137

> <Smiles>
CNC(C)C(=O)NC(C(=O)N1Cc2cc([101O:1][101CH2:1]CNc3cc(C4CC4)cc(C[100NH:0][100C:0](=O)N4CCCC(n5nc(-c6ccc(Oc7ccc(F)cc7F)cc6)c(C(N)=O)c5N)C4)n3)ccc2CC1C(=O)NC1CCCc2ccccc21)C(C)(C)C

> <Shape>
0.244

> <Color>
0.093

> <Negative vol penalty>
0.000

$$$$

  -OEChem-04052321053D

 85 95  0     1  0  0  0  0  0999 V2000
  -18.9788  -22.3129   22.3044 C   0  0  0  0  0  0  0  0  0  0  0  0
  -18.7011  -21.0659   22.8527 C   0  0  0  0  0  0  0  0  0  0  0  0
  -23.1902   -9.8184   19.9302 C   0  0  0  0  0  0  0  0  0  0  0  0
  -23.5598  -10.0004   22.3108 C   0  0  0  0  0  0  0  0  0  0  0  0
  -20.2553  -22.5876   21.8183 C   0  0  0  0  0  0  0  0  0  0  0  0
  -19.7028  -20.0973   22.9260 C   0  0  0  0  0  0  0  0  0  0  0  0
  -24.7776  -13.8094   24.9535 C   0  0  0  0  0  0  0  0  0  0  0  0
  -22.4220   -8.6728   20.1371 C   0  0  0  0  0  0  0  0  0  0  0  0
  -22.7915   -8.8548   22.5177 C   0  0  0  0  0  0  0  0  0  0  0  0
  -26.1545  -13.6004   24.8884 C   0  0  0  0  0  0  0  0  0  0  0  0
  -21.2264   -5.7737   23.6434 C   0  0  0  0  0  0  0  0  0  0  0  0
  -21.7185   -4.8141   24.5281 C   0  0  0  0  0  0  0  0  0  0  0  0
  -26.5274  -15.8773   25.5925 C   0  0  0  0  0  0  0  0  0  0  0  0
  -31.1002  -14.7398   24.0730 C   0  0  0  0  0  0  0  0  0  0  0  0
  -23.6820   -4.5467   23.1460 C   0  0  0  0  0  0  0  0  0  0  0  0
  -23.7592  -10.4822   21.0171 C   0  0  0  0  0  0  0  0  0  0  0  0
  -24.1016  -12.9983   20.7724 C   0  0  0  0  0  0  0  0  0  0  0  0
  -21.2692  -21.6171   21.8747 C   0  0  0  0  0  0  0  0  0  0  0  0
  -24.2644  -15.0593   25.3286 C   0  0  0  0  0  0  0  0  0  0  0  0
  -21.0039  -20.3636   22.4626 C   0  0  0  0  0  0  0  0  0  0  0  0
  -25.1436  -16.0989   25.6640 C   0  0  0  0  0  0  0  0  0  0  0  0
  -32.4392  -14.3843   23.9551 C   0  0  0  0  0  0  0  0  0  0  0  0
  -33.2700  -14.4469   25.0683 C   0  0  0  0  0  0  0  0  0  0  0  0
  -22.2225   -8.1910   21.4308 C   0  0  0  0  0  0  0  0  0  0  0  0
  -27.0296  -14.6352   25.2051 C   0  0  0  0  0  0  0  0  0  0  0  0
  -21.9622   -6.1198   22.5100 C   0  0  0  0  0  0  0  0  0  0  0  0
  -22.9463   -4.2006   24.2794 C   0  0  0  0  0  0  0  0  0  0  0  0
  -23.1899   -5.5063   22.2613 C   0  0  0  0  0  0  0  0  0  0  0  0
  -24.5535  -11.6654   20.8040 C   0  0  0  0  0  0  0  0  0  0  0  0
  -30.6446  -15.1480   25.3162 C   0  0  0  0  0  0  0  0  0  0  0  0
  -32.7173  -14.8684   26.2669 C   0  0  0  0  0  0  0  0  0  0  0  0
  -25.2345  -13.7395   20.5407 C   0  0  0  0  0  0  0  0  0  0  0  0
  -22.7763  -13.5198   20.9378 C   0  0  0  0  0  0  0  0  0  0  0  0
  -22.4556  -17.2577   23.9147 C   0  0  0  0  0  0  0  0  0  0  0  0
  -22.5568  -18.6598   26.8380 C   0  0  0  0  0  0  0  0  0  0  0  0
  -25.0331  -19.2361   29.3979 C   0  0  0  0  0  0  0  0  0  0  0  0
  -30.9326  -12.6208   21.7022 C   0  0  0  0  0  0  0  0  0  0  0  0
  -22.6351  -21.9705   21.3410 C   0  0  0  0  0  0  0  0  0  0  0  0
  -22.7766  -15.2608   25.4198 C   0  0  0  0  0  0  0  0  0  0  0  0
  -24.6433  -17.4534   26.0922 C   0  0  0  0  0  0  0  0  0  0  0  0
  -23.4977  -20.7451   21.0573 C   0  0  0  0  0  0  0  0  0  0  0  0
  -29.5331  -13.4546   18.4529 C   0  0  0  0  0  0  0  0  0  0  0  0
  -35.7592  -15.0595   25.3882 C   0  0  0  0  0  0  0  0  0  0  0  0
  -35.5712  -14.7580   23.9342 C   0  0  0  0  0  0  0  0  0  0  0  0
  -23.4849  -19.8111   22.2581 C   0  0  0  0  0  0  0  0  0  0  0  0
  -28.0414  -13.2151   18.6957 C   0  0  0  0  0  0  0  0  0  0  0  0
  -33.3649  -15.0008   21.5195 C   0  0  0  0  0  0  0  0  0  0  0  0
  -30.3766  -12.4311   19.2041 C   0  0  0  0  0  0  0  0  0  0  0  0
  -32.6311  -14.1911   20.4520 C   0  0  0  0  0  0  0  0  0  0  0  0
  -28.6445  -12.1331   20.9159 C   0  0  0  0  0  0  0  0  0  0  0  0
  -34.7108  -14.0687   24.9589 C   0  0  0  0  0  0  0  0  0  0  0  0
  -32.9925  -13.9124   22.5454 C   0  0  2  0  0  0  0  0  0  0  0  0
  -22.0693  -19.2841   22.5250 C   0  0  1  0  0  0  0  0  0  0  0  0
  -22.3646  -16.7261   25.3171 C   0  0  1  0  0  0  0  0  0  0  0  0
  -27.7227  -13.1395   20.2010 C   0  0  2  0  0  0  0  0  0  0  0  0
  -24.7786  -19.5345   31.8765 C   0  0  0  0  0  0  0  0  0  0  0  0
  -22.5036  -21.6391   26.1816 C   0  0  0  0  0  0  0  0  0  0  0  0
  -23.8463  -22.0488   28.2547 C   0  0  0  0  0  0  0  0  0  0  0  0
  -21.5675  -21.0481   28.4241 C   0  0  0  0  0  0  0  0  0  0  0  0
  -26.9282  -17.0372   29.9743 C   0  0  0  0  0  0  0  0  0  0  0  0
  -29.2131  -15.5369   25.4794 C   0  0  0  0  0  0  0  0  0  1  0  0
  -23.4700  -19.6519   27.5169 C   0  0  1  0  0  0  0  0  0  0  0  0
  -25.1105  -18.5617   30.7557 C   0  0  2  0  0  0  0  0  0  0  0  0
  -22.8564  -21.0793   27.5742 C   0  0  0  0  0  0  0  0  0  0  0  0
  -25.8707  -11.5627   20.6079 N   0  0  0  0  0  0  0  0  0  0  0  0
  -31.4214  -15.2217   26.4201 N   0  0  0  0  0  0  0  0  0  0  0  0
  -26.2562  -12.8405   20.4508 N   0  0  0  0  0  0  0  0  0  0  0  0
  -23.1803  -17.6029   26.1598 N   0  0  0  0  0  0  0  0  0  0  0  0
  -30.0512  -12.4439   20.6329 N   0  0  0  0  0  0  0  0  0  0  0  0
  -32.0372  -13.4237   21.5313 N   0  0  0  0  0  0  0  0  0  0  0  0
  -33.5575  -14.9356   27.4065 N   0  0  0  0  0  0  0  0  0  0  0  0
  -25.4464  -15.0660   20.4071 N   0  0  0  0  0  0  0  0  0  0  0  0
  -21.7278  -12.6189   21.1687 N   0  0  0  0  0  0  0  0  0  0  0  0
  -22.0593  -18.5752   23.7856 N   0  0  0  0  0  0  0  0  0  0  0  0
  -23.7889  -19.0857   28.8231 N   0  0  0  0  0  0  0  0  0  0  0  0
  -26.4808  -18.0247   30.9900 N   0  3  0  0  0  0  0  0  0  0  0  0
  -22.5267  -14.7470   20.8662 O   0  0  0  0  0  0  0  0  0  0  0  0
  -22.8571  -16.5271   23.0165 O   0  0  0  0  0  0  0  0  0  0  0  0
  -21.3351  -18.8130   26.9130 O   0  0  0  0  0  0  0  0  0  0  0  0
  -25.9805  -19.8395   28.8988 O   0  0  0  0  0  0  0  0  0  0  0  0
  -30.7135  -12.0984   22.8043 O   0  0  0  0  0  0  0  0  0  0  0  0
  -21.4727   -7.0732   21.6331 O   0  0  0  0  0  0  0  0  0  0  0  0
  -28.3834  -14.4326   25.1413 O   0  0  0  0  0  0  0  0  0  1  0  0
  -23.4194   -3.2803   25.1299 F   0  0  0  0  0  0  0  0  0  0  0  0
  -23.9018   -5.8355   21.1747 F   0  0  0  0  0  0  0  0  0  0  0  0
  1  2  1  0  0  0  0
  1  5  2  0  0  0  0
  2  6  2  0  0  0  0
  3  8  2  0  0  0  0
  3 16  1  0  0  0  0
  4  9  1  0  0  0  0
  4 16  2  0  0  0  0
  5 18  1  0  0  0  0
  6 20  1  0  0  0  0
  7 10  2  0  0  0  0
  7 19  1  0  0  0  0
  8 24  1  0  0  0  0
  9 24  2  0  0  0  0
 10 25  1  0  0  0  0
 11 12  2  0  0  0  0
 11 26  1  0  0  0  0
 12 27  1  0  0  0  0
 13 21  1  0  0  0  0
 13 25  2  0  0  0  0
 14 22  2  0  0  0  0
 14 30  1  0  0  0  0
 15 27  2  0  0  0  0
 15 28  1  0  0  0  0
 16 29  1  0  0  0  0
 17 29  1  0  0  0  0
 17 32  2  0  0  0  0
 17 33  1  0  0  0  0
 18 20  2  0  0  0  0
 18 38  1  0  0  0  0
 19 21  2  0  0  0  0
 19 39  1  0  0  0  0
 20 53  1  0  0  0  0
 21 40  1  0  0  0  0
 22 23  1  0  0  0  0
 22 52  1  0  0  0  0
 23 31  2  0  0  0  0
 23 51  1  0  0  0  0
 24 82  1  0  0  0  0
 25 83  1  0  0  0  0
 26 28  2  0  0  0  0
 26 82  1  0  0  0  0
 27 84  1  0  0  0  0
 28 85  1  0  0  0  0
 29 65  2  0  0  0  0
 30 61  1  0  0  0  0
 30 66  2  0  0  0  0
 31 66  1  0  0  0  0
 31 71  1  0  0  0  0
 32 67  1  0  0  0  0
 32 72  1  0  0  0  0
 33 73  1  0  0  0  0
 33 77  2  0  0  0  0
 34 54  1  0  0  0  0
 34 74  1  0  0  0  0
 34 78  2  0  0  0  0
 35 62  1  0  0  0  0
 35 68  1  0  0  0  0
 35 79  2  0  0  0  0
 36 63  1  0  0  0  0
 36 75  1  0  0  0  0
 36 80  2  0  0  0  0
 37 69  1  0  0  0  0
 37 70  1  0  0  0  0
 37 81  2  0  0  0  0
 38 41  1  0  0  0  0
 39 54  1  0  0  0  0
 40 68  1  0  0  0  0
 41 45  1  0  0  0  0
 42 46  1  0  0  0  0
 42 48  1  0  0  0  0
 43 44  1  0  0  0  0
 43 51  1  0  0  0  0
 44 51  1  0  0  0  0
 45 53  1  0  0  0  0
 46 55  1  0  0  0  0
 47 49  1  0  0  0  0
 47 52  1  0  0  0  0
 48 69  1  0  0  0  0
 49 70  1  0  0  0  0
 50 55  1  0  0  0  0
 50 69  1  0  0  0  0
 52 70  1  0  0  0  0
 53 74  1  0  0  0  0
 54 68  1  0  0  0  0
 55 67  1  0  0  0  0
 56 63  1  0  0  0  0
 57 64  1  0  0  0  0
 58 64  1  0  0  0  0
 59 64  1  0  0  0  0
 60 76  1  0  0  0  0
 61 83  1  0  0  0  0
 62 64  1  0  0  0  0
 62 75  1  0  0  0  0
 63 76  1  0  0  0  0
 65 67  1  0  0  0  0
M  CHG  1  76   1
M  ISO  4  37 100  61 101  70 100  83 101
M  END
> <Batch ID>
0137

> <Smiles>
CNC(C)C(=O)NC(C(=O)N1Cc2cc([101O:1][101CH2:1]c3cc(C4CC[100N:0]4[100C:0](=O)N4CCCC(n5nc(-c6ccc(Oc7ccc(F)cc7F)cc6)c(C(N)=O)c5N)C4)c(C4CC4)c(N)n3)ccc2CC1C(=O)NC1CCCc2ccccc21)C(C)(C)C

> <Shape>
0.141

> <Color>
0.178

> <Negative vol penalty>
0.000

$$$$

  -OEChem-04052321053D

 83 92  0     1  0  0  0  0  0999 V2000
  -26.8661  -37.6252   19.4352 C   0  0  0  0  0  0  0  0  0  0  0  0
  -27.4286  -36.3713   19.2193 C   0  0  0  0  0  0  0  0  0  0  0  0
  -24.6968  -10.0004   22.0681 C   0  0  0  0  0  0  0  0  0  0  0  0
  -24.6837  -11.3973   24.0393 C   0  0  0  0  0  0  0  0  0  0  0  0
  -26.0564  -37.8423   20.5493 C   0  0  0  0  0  0  0  0  0  0  0  0
  -27.1827  -35.3339   20.1180 C   0  0  0  0  0  0  0  0  0  0  0  0
  -26.5972  -29.3820   18.7997 C   0  0  0  0  0  0  0  0  0  0  0  0
  -24.3699   -8.8930   22.8506 C   0  0  0  0  0  0  0  0  0  0  0  0
  -24.3568  -10.2898   24.8219 C   0  0  0  0  0  0  0  0  0  0  0  0
  -27.4884  -28.3125   18.8750 C   0  0  0  0  0  0  0  0  0  0  0  0
  -21.6041   -7.5963   24.3003 C   0  0  0  0  0  0  0  0  0  0  0  0
  -20.6064   -6.7422   23.8304 C   0  0  0  0  0  0  0  0  0  0  0  0
  -26.6009  -27.7335   21.0421 C   0  0  0  0  0  0  0  0  0  0  0  0
  -27.0172  -20.3124   20.6128 C   0  0  0  0  0  0  0  0  0  0  0  0
  -22.1836   -4.9121   23.8082 C   0  0  0  0  0  0  0  0  0  0  0  0
  -29.1584  -21.7217   19.6775 C   0  0  0  0  0  0  0  0  0  0  0  0
  -24.8537  -11.2526   22.6624 C   0  0  0  0  0  0  0  0  0  0  0  0
  -24.3007  -13.2832   21.2208 C   0  0  0  0  0  0  0  0  0  0  0  0
  -25.7925  -36.8044   21.4569 C   0  0  0  0  0  0  0  0  0  0  0  0
  -25.7071  -29.6423   19.8515 C   0  0  0  0  0  0  0  0  0  0  0  0
  -26.3697  -35.5377   21.2460 C   0  0  0  0  0  0  0  0  0  0  0  0
  -25.6976  -28.8053   20.9765 C   0  0  0  0  0  0  0  0  0  0  0  0
  -26.8744  -21.6680   20.3385 C   0  0  0  0  0  0  0  0  0  0  0  0
  -24.1999   -9.0377   24.2275 C   0  0  0  0  0  0  0  0  0  0  0  0
  -27.4923  -27.4898   19.9976 C   0  0  0  0  0  0  0  0  0  0  0  0
  -22.8915   -7.1083   24.5241 C   0  0  0  0  0  0  0  0  0  0  0  0
  -27.9605  -22.3933   19.8616 C   0  0  0  0  0  0  0  0  0  0  0  0
  -20.8962   -5.4001   23.5843 C   0  0  0  0  0  0  0  0  0  0  0  0
  -23.1813   -5.7663   24.2781 C   0  0  0  0  0  0  0  0  0  0  0  0
  -25.1919  -12.3968   21.8547 C   0  0  0  0  0  0  0  0  0  0  0  0
  -28.2573  -19.7339   20.3949 C   0  0  0  0  0  0  0  0  0  0  0  0
  -25.1128  -14.1901   20.5847 C   0  0  0  0  0  0  0  0  0  0  0  0
  -22.8670  -13.2867   21.2083 C   0  0  0  0  0  0  0  0  0  0  0  0
  -25.2449  -32.0703   21.8502 C   0  0  0  0  0  0  0  0  0  0  0  0
  -22.6760  -30.3161   22.7698 C   0  0  0  0  0  0  0  0  0  0  0  0
  -21.1888  -27.2524   22.9907 C   0  0  0  0  0  0  0  0  0  0  0  0
  -29.5381  -17.5690   20.5338 C   0  0  0  0  0  0  0  0  0  0  0  0
  -24.9495  -37.0997   22.6722 C   0  0  0  0  0  0  0  0  0  0  0  0
  -24.7337  -30.7838   19.7432 C   0  0  0  0  0  0  0  0  0  0  0  0
  -24.7481  -29.0298   22.1239 C   0  0  0  0  0  0  0  0  0  0  0  0
  -24.4341  -35.8464   23.3750 C   0  0  0  0  0  0  0  0  0  0  0  0
  -30.1093  -14.1373   19.7759 C   0  0  0  0  0  0  0  0  0  0  0  0
  -25.4831  -23.5378   21.4530 C   0  0  0  0  0  0  0  0  0  0  0  0
  -24.9093  -22.2359   21.9179 C   0  0  0  0  0  0  0  0  0  0  0  0
  -25.5580  -34.8293   23.5450 C   0  0  0  0  0  0  0  0  0  0  0  0
  -28.8076  -13.4515   20.1970 C   0  0  0  0  0  0  0  0  0  0  0  0
  -30.4813  -15.2777   20.7218 C   0  0  0  0  0  0  0  0  0  0  0  0
  -28.1223  -15.5874   21.3612 C   0  0  0  0  0  0  0  0  0  0  0  0
  -25.5545  -22.3272   20.5602 C   0  0  0  0  0  0  0  0  0  0  0  0
  -26.1062  -34.3805   22.1850 C   0  0  1  0  0  0  0  0  0  0  0  0
  -24.2236  -31.2648   21.0982 C   0  0  1  0  0  0  0  0  0  0  0  0
  -27.6724  -14.4739   20.4013 C   0  0  2  0  0  0  0  0  0  0  0  0
  -19.1057  -26.1295   23.8256 C   0  0  0  0  0  0  0  0  0  0  0  0
  -23.7071  -30.5375   25.6330 C   0  0  0  0  0  0  0  0  0  0  0  0
  -22.1742  -28.6588   26.2564 C   0  0  0  0  0  0  0  0  0  0  0  0
  -21.2318  -30.8008   25.3924 C   0  0  0  0  0  0  0  0  0  0  0  0
  -20.4681  -26.3140   20.2780 C   0  0  0  0  0  0  0  0  0  0  0  0
  -28.7496  -25.8323   18.8453 C   0  0  0  0  0  0  0  0  0  1  0  0
  -29.0452  -24.3661   19.0953 C   0  0  0  0  0  0  0  0  0  0  0  0
  -22.4287  -29.2422   23.8016 C   0  0  1  0  0  0  0  0  0  0  0  0
  -19.7892  -26.7841   22.6352 C   0  0  2  0  0  0  0  0  0  0  0  0
  -22.4048  -29.8065   25.2502 C   0  0  0  0  0  0  0  0  0  0  0  0
  -29.3354  -20.4060   19.9327 N   0  0  0  0  0  0  0  0  0  0  0  0
  -26.4721  -12.7119   21.6405 N   0  0  0  0  0  0  0  0  0  0  0  0
  -26.3912  -13.8064   20.8649 N   0  0  0  0  0  0  0  0  0  0  0  0
  -23.8199  -30.1627   21.9737 N   0  0  0  0  0  0  0  0  0  0  0  0
  -29.3597  -16.2088   20.8636 N   0  0  0  0  0  0  0  0  0  0  0  0
  -24.8509  -15.2702   19.8184 N   0  0  0  0  0  0  0  0  0  0  0  0
  -22.1903  -12.2828   21.9143 N   0  0  0  0  0  0  0  0  0  0  0  0
  -28.3931  -18.3520   20.6772 N   0  0  0  0  0  0  0  0  0  0  0  0
  -25.2117  -33.4231   21.5705 N   0  0  0  0  0  0  0  0  0  0  0  0
  -21.1979  -28.5683   23.4025 N   0  0  0  0  0  0  0  0  0  0  0  0
  -19.8410  -25.7958   21.5210 N   0  3  0  0  0  0  0  0  0  0  0  0
  -22.2058  -14.1448   20.5759 O   0  0  0  0  0  0  0  0  0  0  0  0
  -26.0058  -31.5064   22.6280 O   0  0  0  0  0  0  0  0  0  0  0  0
  -21.8796  -31.2527   22.6689 O   0  0  0  0  0  0  0  0  0  0  0  0
  -22.1748  -26.5226   22.9145 O   0  0  0  0  0  0  0  0  0  0  0  0
  -30.6192  -18.0016   20.1262 O   0  0  0  0  0  0  0  0  0  0  0  0
  -23.8807   -7.9574   24.9914 O   0  0  0  0  0  0  0  0  0  0  0  0
  -28.3616  -26.4456   20.0740 O   0  0  0  0  0  0  0  0  0  1  0  0
  -27.8676  -23.7303   19.5774 O   0  0  0  0  0  0  0  0  0  0  0  0
  -19.9376   -4.5797   23.1346 F   0  0  0  0  0  0  0  0  0  0  0  0
  -24.4160   -5.2914   24.4924 F   0  0  0  0  0  0  0  0  0  0  0  0
  1  2  1  0  0  0  0
  1  5  2  0  0  0  0
  2  6  2  0  0  0  0
  3  8  2  0  0  0  0
  3 17  1  0  0  0  0
  4  9  1  0  0  0  0
  4 17  2  0  0  0  0
  5 19  1  0  0  0  0
  6 21  1  0  0  0  0
  7 10  2  0  0  0  0
  7 20  1  0  0  0  0
  8 24  1  0  0  0  0
  9 24  2  0  0  0  0
 10 25  1  0  0  0  0
 11 12  2  0  0  0  0
 11 26  1  0  0  0  0
 12 28  1  0  0  0  0
 13 22  1  0  0  0  0
 13 25  2  0  0  0  0
 14 23  1  0  0  0  0
 14 31  2  0  0  0  0
 15 28  2  0  0  0  0
 15 29  1  0  0  0  0
 16 27  1  0  0  0  0
 16 63  2  0  0  0  0
 17 30  1  0  0  0  0
 18 30  1  0  0  0  0
 18 32  2  0  0  0  0
 18 33  1  0  0  0  0
 19 21  2  0  0  0  0
 19 38  1  0  0  0  0
 20 22  2  0  0  0  0
 20 39  1  0  0  0  0
 21 50  1  0  0  0  0
 22 40  1  0  0  0  0
 23 27  2  0  0  0  0
 23 49  1  0  0  0  0
 24 79  1  0  0  0  0
 25 80  1  0  0  0  0
 26 29  2  0  0  0  0
 26 79  1  0  0  0  0
 27 81  1  0  0  0  0
 28 82  1  0  0  0  0
 29 83  1  0  0  0  0
 30 64  2  0  0  0  0
 31 63  1  0  0  0  0
 31 70  1  0  0  0  0
 32 65  1  0  0  0  0
 32 68  1  0  0  0  0
 33 69  1  0  0  0  0
 33 74  2  0  0  0  0
 34 51  1  0  0  0  0
 34 71  1  0  0  0  0
 34 75  2  0  0  0  0
 35 60  1  0  0  0  0
 35 66  1  0  0  0  0
 35 76  2  0  0  0  0
 36 61  1  0  0  0  0
 36 72  1  0  0  0  0
 36 77  2  0  0  0  0
 37 67  1  0  0  0  0
 37 70  1  0  0  0  0
 37 78  2  0  0  0  0
 38 41  1  0  0  0  0
 39 51  1  0  0  0  0
 40 66  1  0  0  0  0
 41 45  1  0  0  0  0
 42 46  1  0  0  0  0
 42 47  1  0  0  0  0
 43 44  1  0  0  0  0
 43 49  1  0  0  0  0
 44 49  1  0  0  0  0
 45 50  1  0  0  0  0
 46 52  1  0  0  0  0
 47 67  1  0  0  0  0
 48 52  1  0  0  0  0
 48 67  1  0  0  0  0
 50 71  1  0  0  0  0
 51 66  1  0  0  0  0
 52 65  1  0  0  0  0
 53 61  1  0  0  0  0
 54 62  1  0  0  0  0
 55 62  1  0  0  0  0
 56 62  1  0  0  0  0
 57 73  1  0  0  0  0
 58 59  1  0  0  0  0
 58 80  1  0  0  0  0
 59 81  1  0  0  0  0
 60 62  1  0  0  0  0
 60 72  1  0  0  0  0
 61 73  1  0  0  0  0
 64 65  1  0  0  0  0
M  CHG  1  73   1
M  ISO  4  37 100  58 101  70 100  80 101
M  END
> <Batch ID>
0137

> <Smiles>
CNC(C)C(=O)NC(C(=O)N1Cc2cc([101O:1][101CH2:1]COc3cnc([100NH:0][100C:0](=O)N4CCCC(n5nc(-c6ccc(Oc7ccc(F)cc7F)cc6)c(C(N)=O)c5N)C4)cc3C3CC3)ccc2CC1C(=O)NC1CCCc2ccccc21)C(C)(C)C

> <Shape>
0.323

> <Color>
0.167

> <Negative vol penalty>
0.000

$$$$

  -OEChem-04052321053D

 89 99  0     1  0  0  0  0  0999 V2000
  -24.3638  -31.1016   20.0654 C   0  0  0  0  0  0  0  0  0  0  0  0
  -24.8746  -29.8265   19.8451 C   0  0  0  0  0  0  0  0  0  0  0  0
  -22.9990   -9.9581   20.0001 C   0  0  0  0  0  0  0  0  0  0  0  0
  -23.7645   -9.9805   22.2915 C   0  0  0  0  0  0  0  0  0  0  0  0
  -23.8433  -31.4365   21.3148 C   0  0  0  0  0  0  0  0  0  0  0  0
  -24.8663  -28.8858   20.8744 C   0  0  0  0  0  0  0  0  0  0  0  0
  -24.2330  -21.8383   21.9917 C   0  0  0  0  0  0  0  0  0  0  0  0
  -22.2087   -8.8421   20.2750 C   0  0  0  0  0  0  0  0  0  0  0  0
  -22.9742   -8.8645   22.5665 C   0  0  0  0  0  0  0  0  0  0  0  0
  -24.8858  -20.7865   22.6331 C   0  0  0  0  0  0  0  0  0  0  0  0
  -19.7174   -8.2135   23.1909 C   0  0  0  0  0  0  0  0  0  0  0  0
  -18.9625   -8.2289   24.3637 C   0  0  0  0  0  0  0  0  0  0  0  0
  -23.8890  -21.4522   24.7265 C   0  0  0  0  0  0  0  0  0  0  0  0
  -27.2856  -18.7900   25.7934 C   0  0  0  0  0  0  0  0  0  0  0  0
  -20.1246   -6.2572   25.1376 C   0  0  0  0  0  0  0  0  0  0  0  0
  -28.3416  -21.2885   25.4970 C   0  0  0  0  0  0  0  0  0  0  0  0
  -23.7769  -10.5273   21.0084 C   0  0  0  0  0  0  0  0  0  0  0  0
  -24.2226  -13.0332   20.8359 C   0  0  0  0  0  0  0  0  0  0  0  0
  -23.8198  -30.4964   22.3570 C   0  0  0  0  0  0  0  0  0  0  0  0
  -23.4105  -22.7130   22.7162 C   0  0  0  0  0  0  0  0  0  0  0  0
  -24.3462  -29.2088   22.1392 C   0  0  0  0  0  0  0  0  0  0  0  0
  -23.2248  -22.5128   24.0915 C   0  0  0  0  0  0  0  0  0  0  0  0
  -29.0950  -20.3320   26.1584 C   0  0  0  0  0  0  0  0  0  0  0  0
  -28.5496  -19.0614   26.3052 C   0  0  0  0  0  0  0  0  0  0  0  0
  -22.1963   -8.2953   21.5582 C   0  0  0  0  0  0  0  0  0  0  0  0
  -24.7162  -20.5951   24.0011 C   0  0  0  0  0  0  0  0  0  0  0  0
  -20.6759   -7.2199   22.9914 C   0  0  0  0  0  0  0  0  0  0  0  0
  -19.1661   -7.2507   25.3371 C   0  0  0  0  0  0  0  0  0  0  0  0
  -20.8795   -6.2418   23.9648 C   0  0  0  0  0  0  0  0  0  0  0  0
  -24.5939  -11.6798   20.7249 C   0  0  0  0  0  0  0  0  0  0  0  0
  -26.6131  -19.8154   25.1484 C   0  0  0  0  0  0  0  0  0  1  0  0
  -25.3438  -13.7292   20.4554 C   0  0  0  0  0  0  0  0  0  0  0  0
  -22.9756  -13.6096   21.2464 C   0  0  0  0  0  0  0  0  0  0  0  0
  -23.4469  -25.8305   23.3355 C   0  0  0  0  0  0  0  0  0  0  0  0
  -20.5690  -25.1987   24.6924 C   0  0  0  0  0  0  0  0  0  0  0  0
  -18.4847  -22.9128   26.1335 C   0  0  0  0  0  0  0  0  0  0  0  0
  -30.8655  -14.5240   20.6132 C   0  0  0  0  0  0  0  0  0  0  0  0
  -23.2902  -30.9194   23.7044 C   0  0  0  0  0  0  0  0  0  0  0  0
  -22.6921  -23.8267   22.0048 C   0  0  0  0  0  0  0  0  0  0  0  0
  -22.3365  -23.4116   24.9110 C   0  0  0  0  0  0  0  0  0  0  0  0
  -22.9762  -29.7475   24.6307 C   0  0  0  0  0  0  0  0  0  0  0  0
  -29.6241  -12.1403   18.2779 C   0  0  0  0  0  0  0  0  0  0  0  0
  -30.5803  -21.1081   28.1245 C   0  0  0  0  0  0  0  0  0  0  0  0
  -30.7573  -22.1100   27.0267 C   0  0  0  0  0  0  0  0  0  0  0  0
  -24.1216  -28.7401   24.6243 C   0  0  0  0  0  0  0  0  0  0  0  0
  -28.1768  -11.9153   18.7193 C   0  0  0  0  0  0  0  0  0  0  0  0
  -31.7854  -15.8857   25.5443 C   0  0  0  0  0  0  0  0  0  0  0  0
  -30.5527  -12.3475   19.4724 C   0  0  0  0  0  0  0  0  0  0  0  0
  -28.6864  -13.1849   20.8470 C   0  0  0  0  0  0  0  0  0  0  0  0
  -30.7465  -15.9298   26.6521 C   0  0  0  0  0  0  0  0  0  0  0  0
  -30.0289  -17.2332   24.7112 C   0  0  0  0  0  0  0  0  0  0  0  0
  -30.4443  -20.6752   26.6872 C   0  0  0  0  0  0  0  0  0  0  0  0
  -24.3322  -28.1531   23.2234 C   0  0  1  0  0  0  0  0  0  0  0  0
  -22.2855  -24.9655   22.9348 C   0  0  1  0  0  0  0  0  0  0  0  0
  -30.9781  -16.1287   24.2776 C   0  0  1  0  0  0  0  0  0  0  0  0
  -27.7028  -13.0267   19.6749 C   0  0  2  0  0  0  0  0  0  0  0  0
  -28.5538  -17.4116   28.2211 C   0  0  0  0  0  0  0  0  0  0  0  0
  -16.2121  -22.7016   27.1766 C   0  0  0  0  0  0  0  0  0  0  0  0
  -21.6111  -26.5381   27.2281 C   0  0  0  0  0  0  0  0  0  0  0  0
  -19.7231  -25.4747   28.4822 C   0  0  0  0  0  0  0  0  0  0  0  0
  -19.2433  -27.0983   26.6501 C   0  0  0  0  0  0  0  0  0  0  0  0
  -17.5989  -20.9663   24.0877 C   0  0  0  0  0  0  0  0  0  0  0  0
  -31.8345  -16.5161   23.0852 C   0  0  0  0  0  0  0  0  0  0  0  0
  -31.0234  -16.6949   21.8055 C   0  0  0  0  0  0  0  0  0  0  0  0
  -29.2995  -17.9769   27.0060 C   0  0  1  0  0  0  0  0  0  0  0  0
  -20.1025  -24.7924   26.0694 C   0  0  1  0  0  0  0  0  0  0  0  0
  -17.0205  -22.5925   25.8931 C   0  0  2  0  0  0  0  0  0  0  0  0
  -20.1883  -25.9599   27.0927 C   0  0  0  0  0  0  0  0  0  0  0  0
  -27.1104  -21.0621   24.9863 N   0  0  0  0  0  0  0  0  0  0  0  0
  -25.8526  -11.5232   20.3064 N   0  0  0  0  0  0  0  0  0  0  0  0
  -26.2820  -12.7871   20.1511 N   0  0  0  0  0  0  0  0  0  0  0  0
  -21.6607  -24.4901   24.1709 N   0  0  0  0  0  0  0  0  0  0  0  0
  -30.0474  -13.4159   20.3380 N   0  0  0  0  0  0  0  0  0  0  0  0
  -25.6089  -15.0490   20.3547 N   0  0  0  0  0  0  0  0  0  0  0  0
  -21.9278  -12.7502   21.6040 N   0  0  0  0  0  0  0  0  0  0  0  0
  -23.3290  -27.1493   22.9400 N   0  0  0  0  0  0  0  0  0  0  0  0
  -18.7614  -24.2433   25.9005 N   0  0  0  0  0  0  0  0  0  0  0  0
  -30.3074  -15.4939   21.4370 N   0  0  0  0  0  0  0  0  0  0  0  0
  -29.6429  -16.8248   26.1175 N   0  3  2  0  0  0  0  0  0  0  0  0
  -16.8736  -21.2080   25.3614 N   0  3  0  0  0  0  0  0  0  0  0  0
  -22.7906  -14.8498   21.2788 O   0  0  0  0  0  0  0  0  0  0  0  0
  -24.3802  -25.3383   23.9587 O   0  0  0  0  0  0  0  0  0  0  0  0
  -19.9819  -26.1064   24.0983 O   0  0  0  0  0  0  0  0  0  0  0  0
  -19.3006  -22.0679   26.4956 O   0  0  0  0  0  0  0  0  0  0  0  0
  -32.0065  -14.6430   20.1541 O   0  0  0  0  0  0  0  0  0  0  0  0
  -21.4251   -7.2064   21.8269 O   0  0  0  0  0  0  0  0  0  0  0  0
  -25.3528  -19.5696   24.6297 O   0  0  0  0  0  0  0  0  0  1  0  0
  -18.4422   -7.2665   26.4640 F   0  0  0  0  0  0  0  0  0  0  0  0
  -21.7997   -5.2854   23.7793 F   0  0  0  0  0  0  0  0  0  0  0  0
  1  2  1  0  0  0  0
  1  5  2  0  0  0  0
  2  6  2  0  0  0  0
  3  8  2  0  0  0  0
  3 17  1  0  0  0  0
  4  9  1  0  0  0  0
  4 17  2  0  0  0  0
  5 19  1  0  0  0  0
  6 21  1  0  0  0  0
  7 10  2  0  0  0  0
  7 20  1  0  0  0  0
  8 25  1  0  0  0  0
  9 25  2  0  0  0  0
 10 26  1  0  0  0  0
 11 12  2  0  0  0  0
 11 27  1  0  0  0  0
 12 28  1  0  0  0  0
 13 22  1  0  0  0  0
 13 26  2  0  0  0  0
 14 24  2  0  0  0  0
 14 31  1  0  0  0  0
 15 28  2  0  0  0  0
 15 29  1  0  0  0  0
 16 23  2  0  0  0  0
 16 69  1  0  0  0  0
 17 30  1  0  0  0  0
 18 30  1  0  0  0  0
 18 32  2  0  0  0  0
 18 33  1  0  0  0  0
 19 21  2  0  0  0  0
 19 38  1  0  0  0  0
 20 22  2  0  0  0  0
 20 39  1  0  0  0  0
 21 53  1  0  0  0  0
 22 40  1  0  0  0  0
 23 24  1  0  0  0  0
 23 52  1  0  0  0  0
 24 65  1  0  0  0  0
 25 86  1  0  0  0  0
 26 87  1  0  0  0  0
 27 29  2  0  0  0  0
 27 86  1  0  0  0  0
 28 88  1  0  0  0  0
 29 89  1  0  0  0  0
 30 70  2  0  0  0  0
 31 69  2  0  0  0  0
 31 87  1  0  0  0  0
 32 71  1  0  0  0  0
 32 74  1  0  0  0  0
 33 75  1  0  0  0  0
 33 81  2  0  0  0  0
 34 54  1  0  0  0  0
 34 76  1  0  0  0  0
 34 82  2  0  0  0  0
 35 66  1  0  0  0  0
 35 72  1  0  0  0  0
 35 83  2  0  0  0  0
 36 67  1  0  0  0  0
 36 77  1  0  0  0  0
 36 84  2  0  0  0  0
 37 73  1  0  0  0  0
 37 78  1  0  0  0  0
 37 85  2  0  0  0  0
 38 41  1  0  0  0  0
 39 54  1  0  0  0  0
 40 72  1  0  0  0  0
 41 45  1  0  0  0  0
 42 46  1  0  0  0  0
 42 48  1  0  0  0  0
 43 44  1  0  0  0  0
 43 52  1  0  0  0  0
 44 52  1  0  0  0  0
 45 53  1  0  0  0  0
 46 56  1  0  0  0  0
 47 50  1  0  0  0  0
 47 55  1  0  0  0  0
 48 73  1  0  0  0  0
 49 56  1  0  0  0  0
 49 73  1  0  0  0  0
 50 79  1  0  0  0  0
 51 55  1  0  0  0  0
 51 79  1  0  0  0  0
 53 76  1  0  0  0  0
 54 72  1  0  0  0  0
 55 63  1  0  0  0  0
 56 71  1  0  0  0  0
 57 65  1  0  0  0  0
 58 67  1  0  0  0  0
 59 68  1  0  0  0  0
 60 68  1  0  0  0  0
 61 68  1  0  0  0  0
 62 80  1  0  0  0  0
 63 64  1  0  0  0  0
 64 78  1  0  0  0  0
 65 79  1  0  0  0  0
 66 68  1  0  0  0  0
 66 77  1  0  0  0  0
 67 80  1  0  0  0  0
 70 71  1  0  0  0  0
M  CHG  2  79   1  80   1
M  ISO  4  31 101  37 100  78 100  87 101
M  END
> <Batch ID>
0137

> <Smiles>
CNC(C)C(=O)NC(C(=O)N1Cc2cc([101O:1][101c:1]3cc(C(C)N4CCC(CC[100NH:0][100C:0](=O)N5CCCC(n6nc(-c7ccc(Oc8ccc(F)cc8F)cc7)c(C(N)=O)c6N)C5)C4)c(C4CC4)cn3)ccc2CC1C(=O)NC1CCCc2ccccc21)C(C)(C)C

> <Shape>
0.205

> <Color>
0.198

> <Negative vol penalty>
0.000

$$$$

  -OEChem-04052321053D

 84 93  0     1  0  0  0  0  0999 V2000
  -26.1894  -37.8009   18.3633 C   0  0  0  0  0  0  0  0  0  0  0  0
  -26.2956  -36.5485   17.7670 C   0  0  0  0  0  0  0  0  0  0  0  0
  -23.2598  -10.3104   21.0484 C   0  0  0  0  0  0  0  0  0  0  0  0
  -24.7978   -8.7311   22.0370 C   0  0  0  0  0  0  0  0  0  0  0  0
  -26.3998  -37.9390   19.7346 C   0  0  0  0  0  0  0  0  0  0  0  0
  -26.6134  -35.4334   18.5417 C   0  0  0  0  0  0  0  0  0  0  0  0
  -25.3467  -28.3965   18.9818 C   0  0  0  0  0  0  0  0  0  0  0  0
  -27.3437  -22.3410   19.5290 C   0  0  0  0  0  0  0  0  0  0  0  0
  -28.0056  -21.1459   19.8106 C   0  0  0  0  0  0  0  0  0  0  0  0
  -22.2856   -9.3150   20.9738 C   0  0  0  0  0  0  0  0  0  0  0  0
  -23.8235   -7.7356   21.9625 C   0  0  0  0  0  0  0  0  0  0  0  0
  -26.0273  -27.1837   19.0791 C   0  0  0  0  0  0  0  0  0  0  0  0
  -21.0682   -6.8151   23.6891 C   0  0  0  0  0  0  0  0  0  0  0  0
  -20.8865   -6.0031   24.8085 C   0  0  0  0  0  0  0  0  0  0  0  0
  -26.2915  -27.5291   21.4519 C   0  0  0  0  0  0  0  0  0  0  0  0
  -29.4215  -23.5493   19.7738 C   0  0  0  0  0  0  0  0  0  0  0  0
  -21.4409   -4.0577   23.4874 C   0  0  0  0  0  0  0  0  0  0  0  0
  -24.5160  -10.0184   21.5799 C   0  0  0  0  0  0  0  0  0  0  0  0
  -25.7504  -11.9354   22.7241 C   0  0  0  0  0  0  0  0  0  0  0  0
  -26.7109  -36.8235   20.5281 C   0  0  0  0  0  0  0  0  0  0  0  0
  -25.1425  -29.1913   20.1190 C   0  0  0  0  0  0  0  0  0  0  0  0
  -26.8295  -35.5569   19.9247 C   0  0  0  0  0  0  0  0  0  0  0  0
  -25.6057  -28.7504   21.3668 C   0  0  0  0  0  0  0  0  0  0  0  0
  -28.0517  -23.5427   19.5105 C   0  0  0  0  0  0  0  0  0  0  0  0
  -30.0833  -22.3542   20.0555 C   0  0  0  0  0  0  0  0  0  0  0  0
  -29.3753  -21.1525   20.0738 C   0  0  0  0  0  0  0  0  0  0  0  0
  -22.5674   -8.0276   21.4309 C   0  0  0  0  0  0  0  0  0  0  0  0
  -26.5024  -26.7511   20.3138 C   0  0  0  0  0  0  0  0  0  0  0  0
  -21.4361   -6.2485   22.4687 C   0  0  0  0  0  0  0  0  0  0  0  0
  -21.0729   -4.6244   24.7077 C   0  0  0  0  0  0  0  0  0  0  0  0
  -21.6226   -4.8698   22.3679 C   0  0  0  0  0  0  0  0  0  0  0  0
  -25.5230  -11.0461   21.6567 C   0  0  0  0  0  0  0  0  0  0  0  0
  -26.8092  -12.7058   22.3095 C   0  0  0  0  0  0  0  0  0  0  0  0
  -25.0657  -12.0545   23.9782 C   0  0  0  0  0  0  0  0  0  0  0  0
  -26.0265  -32.1145   21.0007 C   0  0  0  0  0  0  0  0  0  0  0  0
  -24.0895  -31.5143   23.5326 C   0  0  0  0  0  0  0  0  0  0  0  0
  -22.5799  -29.2059   25.5424 C   0  0  0  0  0  0  0  0  0  0  0  0
  -29.0979  -15.7530   18.1437 C   0  0  0  0  0  0  0  0  0  0  0  0
  -26.9762  -37.0298   21.9984 C   0  0  0  0  0  0  0  0  0  0  0  0
  -24.3831  -30.4843   20.0018 C   0  0  0  0  0  0  0  0  0  0  0  0
  -25.3947  -29.5569   22.6212 C   0  0  0  0  0  0  0  0  0  0  0  0
  -26.9407  -35.7379   22.8108 C   0  0  0  0  0  0  0  0  0  0  0  0
  -29.9339  -12.1860   18.3684 C   0  0  0  0  0  0  0  0  0  0  0  0
  -27.7425  -34.6451   22.1112 C   0  0  0  0  0  0  0  0  0  0  0  0
  -28.8465  -11.6409   19.2953 C   0  0  0  0  0  0  0  0  0  0  0  0
  -30.1808  -17.6241   21.1174 C   0  0  0  0  0  0  0  0  0  0  0  0
  -29.4447  -13.3817   17.5544 C   0  0  0  0  0  0  0  0  0  0  0  0
  -29.5783  -16.3235   20.5962 C   0  0  0  0  0  0  0  0  0  0  0  0
  -27.7699  -13.9213   19.2798 C   0  0  0  0  0  0  0  0  0  0  0  0
  -29.1985  -18.0764   18.9998 C   0  0  0  0  0  0  0  0  0  0  0  0
  -27.1482  -34.3196   20.7356 C   0  0  1  0  0  0  0  0  0  0  0  0
  -24.6819  -31.4579   21.1377 C   0  0  1  0  0  0  0  0  0  0  0  0
  -28.2455  -12.7610   20.1650 C   0  0  1  0  0  0  0  0  0  0  0  0
  -29.3536  -18.6775   20.3887 C   0  0  2  0  0  0  0  0  0  0  0  0
  -31.5509  -22.3903   20.3338 C   0  0  0  0  0  0  0  0  0  0  0  0
  -21.0880  -29.0185   27.5515 C   0  0  0  0  0  0  0  0  0  0  0  0
  -26.4383  -32.2372   25.3411 C   0  0  0  0  0  0  0  0  0  0  0  0
  -25.2259  -31.1399   27.2370 C   0  0  0  0  0  0  0  0  0  0  0  0
  -24.2260  -33.1225   26.1003 C   0  0  0  0  0  0  0  0  0  0  0  0
  -20.4918  -27.7812   24.0033 C   0  0  0  0  0  0  0  0  0  0  0  0
  -27.3437  -24.8202   19.2093 C   0  0  0  0  0  0  0  0  0  1  0  0
  -24.2752  -30.8988   24.8984 C   0  0  1  0  0  0  0  0  0  0  0  0
  -21.1489  -29.0798   26.0332 C   0  0  2  0  0  0  0  0  0  0  0  0
  -25.0472  -31.8351   25.8704 C   0  0  0  0  0  0  0  0  0  0  0  0
  -26.3692  -11.2333   20.6404 N   0  0  0  0  0  0  0  0  0  0  0  0
  -27.1386  -12.2491   21.0673 N   0  0  0  0  0  0  0  0  0  0  0  0
  -24.6519  -30.8170   22.4540 N   0  0  0  0  0  0  0  0  0  0  0  0
  -28.8585  -14.4030   18.4228 N   0  0  0  0  0  0  0  0  0  0  0  0
  -29.1719  -16.6328   19.2228 N   0  0  0  0  0  0  0  0  0  0  0  0
  -27.4813  -13.7225   22.8900 N   0  0  0  0  0  0  0  0  0  0  0  0
  -24.0000  -11.1835   24.2429 N   0  0  0  0  0  0  0  0  0  0  0  0
  -30.0177  -19.9536   20.3522 N   0  0  0  0  0  0  0  0  0  0  0  0
  -25.9710  -33.4897   20.8772 N   0  0  0  0  0  0  0  0  0  0  0  0
  -22.9436  -30.5236   25.3616 N   0  0  0  0  0  0  0  0  0  0  0  0
  -20.5211  -27.8434   25.4873 N   0  3  0  0  0  0  0  0  0  0  0  0
  -25.3789  -12.9187   24.8317 O   0  0  0  0  0  0  0  0  0  0  0  0
  -27.0393  -31.4247   21.0080 O   0  0  0  0  0  0  0  0  0  0  0  0
  -23.4622  -32.5711   23.4257 O   0  0  0  0  0  0  0  0  0  0  0  0
  -23.3039  -28.2330   25.3431 O   0  0  0  0  0  0  0  0  0  0  0  0
  -29.2845  -16.1480   16.9852 O   0  0  0  0  0  0  0  0  0  0  0  0
  -21.6169   -7.0561   21.3585 O   0  0  0  0  0  0  0  0  0  0  0  0
  -27.1722  -25.5599   20.4121 O   0  0  0  0  0  0  0  0  0  1  0  0
  -20.8999   -3.8449   25.7832 F   0  0  0  0  0  0  0  0  0  0  0  0
  -21.9772   -4.3198   21.1985 F   0  0  0  0  0  0  0  0  0  0  0  0
  1  2  1  0  0  0  0
  1  5  2  0  0  0  0
  2  6  2  0  0  0  0
  3 10  2  0  0  0  0
  3 18  1  0  0  0  0
  4 11  1  0  0  0  0
  4 18  2  0  0  0  0
  5 20  1  0  0  0  0
  6 22  1  0  0  0  0
  7 12  2  0  0  0  0
  7 21  1  0  0  0  0
  8  9  2  0  0  0  0
  8 24  1  0  0  0  0
  9 26  1  0  0  0  0
 10 27  1  0  0  0  0
 11 27  2  0  0  0  0
 12 28  1  0  0  0  0
 13 14  2  0  0  0  0
 13 29  1  0  0  0  0
 14 30  1  0  0  0  0
 15 23  1  0  0  0  0
 15 28  2  0  0  0  0
 16 24  2  0  0  0  0
 16 25  1  0  0  0  0
 17 30  2  0  0  0  0
 17 31  1  0  0  0  0
 18 32  1  0  0  0  0
 19 32  1  0  0  0  0
 19 33  2  0  0  0  0
 19 34  1  0  0  0  0
 20 22  2  0  0  0  0
 20 39  1  0  0  0  0
 21 23  2  0  0  0  0
 21 40  1  0  0  0  0
 22 51  1  0  0  0  0
 23 41  1  0  0  0  0
 24 61  1  0  0  0  0
 25 26  2  0  0  0  0
 25 55  1  0  0  0  0
 26 72  1  0  0  0  0
 27 81  1  0  0  0  0
 28 82  1  0  0  0  0
 29 31  2  0  0  0  0
 29 81  1  0  0  0  0
 30 83  1  0  0  0  0
 31 84  1  0  0  0  0
 32 65  2  0  0  0  0
 33 66  1  0  0  0  0
 33 70  1  0  0  0  0
 34 71  1  0  0  0  0
 34 76  2  0  0  0  0
 35 52  1  0  0  0  0
 35 73  1  0  0  0  0
 35 77  2  0  0  0  0
 36 62  1  0  0  0  0
 36 67  1  0  0  0  0
 36 78  2  0  0  0  0
 37 63  1  0  0  0  0
 37 74  1  0  0  0  0
 37 79  2  0  0  0  0
 38 68  1  0  0  0  0
 38 69  1  0  0  0  0
 38 80  2  0  0  0  0
 39 42  1  0  0  0  0
 40 52  1  0  0  0  0
 41 67  1  0  0  0  0
 42 44  1  0  0  0  0
 43 45  1  0  0  0  0
 43 47  1  0  0  0  0
 44 51  1  0  0  0  0
 45 53  1  0  0  0  0
 46 48  1  0  0  0  0
 46 54  1  0  0  0  0
 47 68  1  0  0  0  0
 48 69  1  0  0  0  0
 49 53  1  0  0  0  0
 49 68  1  0  0  0  0
 50 54  1  0  0  0  0
 50 69  1  0  0  0  0
 51 73  1  0  0  0  0
 52 67  1  0  0  0  0
 53 66  1  0  0  0  0
 54 72  1  0  0  0  0
 56 63  1  0  0  0  0
 57 64  1  0  0  0  0
 58 64  1  0  0  0  0
 59 64  1  0  0  0  0
 60 75  1  0  0  0  0
 61 82  1  0  0  0  0
 62 64  1  0  0  0  0
 62 74  1  0  0  0  0
 63 75  1  0  0  0  0
 65 66  1  0  0  0  0
M  CHG  1  75   1
M  ISO  4  38 100  61 101  69 100  82 101
M  END
> <Batch ID>
0137

> <Smiles>
CNC(C)C(=O)NC(C(=O)N1Cc2cc([101O:1][101CH2:1]c3ccc(NC4CC[100N:0]([100C:0](=O)N5CCCC(n6nc(-c7ccc(Oc8ccc(F)cc8F)cc7)c(C(N)=O)c6N)C5)C4)c(C)c3)ccc2CC1C(=O)NC1CCCc2ccccc21)C(C)(C)C

> <Shape>
0.322

> <Color>
0.131

> <Negative vol penalty>
0.000

$$$$

  -OEChem-04052321053D

 84 92  0     1  0  0  0  0  0999 V2000
  -26.2491  -33.9126   19.3820 C   0  0  0  0  0  0  0  0  0  0  0  0
  -26.4021  -32.5298   19.3741 C   0  0  0  0  0  0  0  0  0  0  0  0
  -23.0532   -9.9006   19.9187 C   0  0  0  0  0  0  0  0  0  0  0  0
  -23.8551   -9.8338   22.1968 C   0  0  0  0  0  0  0  0  0  0  0  0
  -25.5080  -34.5250   20.3917 C   0  0  0  0  0  0  0  0  0  0  0  0
  -25.8149  -31.7588   20.3767 C   0  0  0  0  0  0  0  0  0  0  0  0
  -23.4997  -27.6398   18.5550 C   0  0  0  0  0  0  0  0  0  0  0  0
  -29.4313  -20.1165   19.4394 C   0  0  0  0  0  0  0  0  0  0  0  0
  -22.3075   -8.7442   20.1473 C   0  0  0  0  0  0  0  0  0  0  0  0
  -23.1094   -8.6774   22.4254 C   0  0  0  0  0  0  0  0  0  0  0  0
  -24.3067  -26.5579   18.2057 C   0  0  0  0  0  0  0  0  0  0  0  0
  -28.8785  -21.1409   18.6708 C   0  0  0  0  0  0  0  0  0  0  0  0
  -19.8884   -7.8782   23.0632 C   0  0  0  0  0  0  0  0  0  0  0  0
  -19.1529   -7.8065   24.2462 C   0  0  0  0  0  0  0  0  0  0  0  0
  -23.7636  -25.4853   20.2970 C   0  0  0  0  0  0  0  0  0  0  0  0
  -27.2340  -19.5564   20.2733 C   0  0  0  0  0  0  0  0  0  0  0  0
  -20.3966   -5.8412   24.9003 C   0  0  0  0  0  0  0  0  0  0  0  0
  -23.8271  -10.4454   20.9434 C   0  0  0  0  0  0  0  0  0  0  0  0
  -24.1810  -12.9713   20.8938 C   0  0  0  0  0  0  0  0  0  0  0  0
  -24.9033  -33.7603   21.4017 C   0  0  0  0  0  0  0  0  0  0  0  0
  -22.8261  -27.6575   19.7848 C   0  0  0  0  0  0  0  0  0  0  0  0
  -25.0661  -32.3617   21.4016 C   0  0  0  0  0  0  0  0  0  0  0  0
  -22.9467  -26.5674   20.6585 C   0  0  0  0  0  0  0  0  0  0  0  0
  -26.6812  -20.5808   19.5047 C   0  0  0  0  0  0  0  0  0  0  0  0
  -28.6090  -19.3242   20.2406 C   0  0  0  0  0  0  0  0  0  0  0  0
  -22.3356   -8.1326   21.4006 C   0  0  0  0  0  0  0  0  0  0  0  0
  -24.4410  -25.4817   19.0779 C   0  0  0  0  0  0  0  0  0  0  0  0
  -27.5035  -21.3731   18.7035 C   0  0  0  0  0  0  0  0  0  0  0  0
  -20.8780   -6.9314   22.7987 C   0  0  0  0  0  0  0  0  0  0  0  0
  -19.4070   -6.7880   25.1647 C   0  0  0  0  0  0  0  0  0  0  0  0
  -21.1321   -5.9129   23.7173 C   0  0  0  0  0  0  0  0  0  0  0  0
  -24.5980  -11.6396   20.7078 C   0  0  0  0  0  0  0  0  0  0  0  0
  -25.2705  -13.7259   20.5333 C   0  0  0  0  0  0  0  0  0  0  0  0
  -22.9214  -13.4806   21.3517 C   0  0  0  0  0  0  0  0  0  0  0  0
  -22.9005  -29.5243   22.3564 C   0  0  0  0  0  0  0  0  0  0  0  0
  -20.4021  -27.6775   23.2893 C   0  0  0  0  0  0  0  0  0  0  0  0
  -18.7466  -24.7035   23.0424 C   0  0  0  0  0  0  0  0  0  0  0  0
  -30.7625  -14.7106   20.6507 C   0  0  0  0  0  0  0  0  0  0  0  0
  -24.1512  -34.4713   22.4987 C   0  0  0  0  0  0  0  0  0  0  0  0
  -21.9382  -28.8199   20.1352 C   0  0  0  0  0  0  0  0  0  0  0  0
  -22.2285  -26.5285   21.9818 C   0  0  0  0  0  0  0  0  0  0  0  0
  -23.2479  -33.5496   23.3142 C   0  0  0  0  0  0  0  0  0  0  0  0
  -29.5677  -12.4057   18.2142 C   0  0  0  0  0  0  0  0  0  0  0  0
  -23.9941  -32.2768   23.7015 C   0  0  0  0  0  0  0  0  0  0  0  0
  -28.1368  -12.1063   18.6646 C   0  0  0  0  0  0  0  0  0  0  0  0
  -30.5080  -12.5852   19.4040 C   0  0  0  0  0  0  0  0  0  0  0  0
  -28.6362  -13.2834   20.8472 C   0  0  0  0  0  0  0  0  0  0  0  0
  -24.4236  -31.4891   22.4580 C   0  0  1  0  0  0  0  0  0  0  0  0
  -21.7068  -28.9639   21.6362 C   0  0  1  0  0  0  0  0  0  0  0  0
  -27.6396  -13.1498   19.6831 C   0  0  2  0  0  0  0  0  0  0  0  0
  -25.2072  -20.8148   19.5507 C   0  0  0  0  0  0  0  0  0  0  0  0
  -16.7588  -23.4737   23.9556 C   0  0  0  0  0  0  0  0  0  0  0  0
  -21.9240  -27.1463   25.8800 C   0  0  0  0  0  0  0  0  0  0  0  0
  -20.3828  -25.2204   26.3087 C   0  0  0  0  0  0  0  0  0  0  0  0
  -19.4715  -27.5385   26.1725 C   0  0  0  0  0  0  0  0  0  0  0  0
  -17.5009  -24.4935   20.3659 C   0  0  0  0  0  0  0  0  0  0  0  0
  -30.5685  -17.9972   21.0312 C   0  0  0  0  0  0  0  0  0  0  0  0
  -30.8633  -16.8221   21.9509 C   0  0  0  0  0  0  0  0  0  0  0  0
  -26.3484  -24.6927   17.8968 C   0  0  0  0  0  0  0  0  0  1  0  0
  -27.4505  -23.6981   18.2064 C   0  0  0  0  0  0  0  0  0  0  0  0
  -20.2551  -26.3887   24.0616 C   0  0  1  0  0  0  0  0  0  0  0  0
  -17.2752  -24.3826   22.8510 C   0  0  2  0  0  0  0  0  0  0  0  0
  -20.5235  -26.5748   25.5817 C   0  0  0  0  0  0  0  0  0  0  0  0
  -25.8544  -11.5501   20.2634 N   0  0  0  0  0  0  0  0  0  0  0  0
  -26.2362  -12.8350   20.1671 N   0  0  0  0  0  0  0  0  0  0  0  0
  -21.3771  -27.6916   22.2818 N   0  0  0  0  0  0  0  0  0  0  0  0
  -29.9797  -13.5890   20.3308 N   0  0  0  0  0  0  0  0  0  0  0  0
  -25.4871  -15.0578   20.4968 N   0  0  0  0  0  0  0  0  0  0  0  0
  -21.9107  -12.5668   21.6799 N   0  0  0  0  0  0  0  0  0  0  0  0
  -29.1684  -18.2887   21.0177 N   0  0  0  0  0  0  0  0  0  0  0  0
  -23.2984  -30.7675   21.9032 N   0  0  0  0  0  0  0  0  0  0  0  0
  -18.9263  -25.8744   23.7481 N   0  0  0  0  0  0  0  0  0  0  0  0
  -30.1842  -15.6164   21.5315 N   0  0  0  0  0  0  0  0  0  0  0  0
  -17.0594  -23.7018   21.5429 N   0  3  0  0  0  0  0  0  0  0  0  0
  -22.6932  -14.7101   21.4507 O   0  0  0  0  0  0  0  0  0  0  0  0
  -23.4209  -28.8773   23.2577 O   0  0  0  0  0  0  0  0  0  0  0  0
  -19.6738  -28.6342   23.5650 O   0  0  0  0  0  0  0  0  0  0  0  0
  -19.6464  -23.9852   22.6123 O   0  0  0  0  0  0  0  0  0  0  0  0
  -31.8909  -14.8939   20.1816 O   0  0  0  0  0  0  0  0  0  0  0  0
  -21.6078   -7.0044   21.6241 O   0  0  0  0  0  0  0  0  0  0  0  0
  -25.2286  -24.4247   18.7397 O   0  0  0  0  0  0  0  0  0  1  0  0
  -26.9773  -22.3830   17.9418 O   0  0  0  0  0  0  0  0  0  0  0  0
  -18.7016   -6.7202   26.3014 F   0  0  0  0  0  0  0  0  0  0  0  0
  -22.0823   -5.0011   23.4692 F   0  0  0  0  0  0  0  0  0  0  0  0
  1  2  1  0  0  0  0
  1  5  2  0  0  0  0
  2  6  2  0  0  0  0
  3  9  2  0  0  0  0
  3 18  1  0  0  0  0
  4 10  1  0  0  0  0
  4 18  2  0  0  0  0
  5 20  1  0  0  0  0
  6 22  1  0  0  0  0
  7 11  2  0  0  0  0
  7 21  1  0  0  0  0
  8 12  2  0  0  0  0
  8 25  1  0  0  0  0
  9 26  1  0  0  0  0
 10 26  2  0  0  0  0
 11 27  1  0  0  0  0
 12 28  1  0  0  0  0
 13 14  2  0  0  0  0
 13 29  1  0  0  0  0
 14 30  1  0  0  0  0
 15 23  1  0  0  0  0
 15 27  2  0  0  0  0
 16 24  1  0  0  0  0
 16 25  2  0  0  0  0
 17 30  2  0  0  0  0
 17 31  1  0  0  0  0
 18 32  1  0  0  0  0
 19 32  1  0  0  0  0
 19 33  2  0  0  0  0
 19 34  1  0  0  0  0
 20 22  2  0  0  0  0
 20 39  1  0  0  0  0
 21 23  2  0  0  0  0
 21 40  1  0  0  0  0
 22 48  1  0  0  0  0
 23 41  1  0  0  0  0
 24 28  2  0  0  0  0
 24 51  1  0  0  0  0
 25 70  1  0  0  0  0
 26 80  1  0  0  0  0
 27 81  1  0  0  0  0
 28 82  1  0  0  0  0
 29 31  2  0  0  0  0
 29 80  1  0  0  0  0
 30 83  1  0  0  0  0
 31 84  1  0  0  0  0
 32 64  2  0  0  0  0
 33 65  1  0  0  0  0
 33 68  1  0  0  0  0
 34 69  1  0  0  0  0
 34 75  2  0  0  0  0
 35 49  1  0  0  0  0
 35 71  1  0  0  0  0
 35 76  2  0  0  0  0
 36 61  1  0  0  0  0
 36 66  1  0  0  0  0
 36 77  2  0  0  0  0
 37 62  1  0  0  0  0
 37 72  1  0  0  0  0
 37 78  2  0  0  0  0
 38 67  1  0  0  0  0
 38 73  1  0  0  0  0
 38 79  2  0  0  0  0
 39 42  1  0  0  0  0
 40 49  1  0  0  0  0
 41 66  1  0  0  0  0
 42 44  1  0  0  0  0
 43 45  1  0  0  0  0
 43 46  1  0  0  0  0
 44 48  1  0  0  0  0
 45 50  1  0  0  0  0
 46 67  1  0  0  0  0
 47 50  1  0  0  0  0
 47 67  1  0  0  0  0
 48 71  1  0  0  0  0
 49 66  1  0  0  0  0
 50 65  1  0  0  0  0
 52 62  1  0  0  0  0
 53 63  1  0  0  0  0
 54 63  1  0  0  0  0
 55 63  1  0  0  0  0
 56 74  1  0  0  0  0
 57 58  1  0  0  0  0
 57 70  1  0  0  0  0
 58 73  1  0  0  0  0
 59 60  1  0  0  0  0
 59 81  1  0  0  0  0
 60 82  1  0  0  0  0
 61 63  1  0  0  0  0
 61 72  1  0  0  0  0
 62 74  1  0  0  0  0
 64 65  1  0  0  0  0
M  CHG  1  74   1
M  ISO  4  38 100  59 101  73 100  81 101
M  END
> <Batch ID>
0137

> <Smiles>
CNC(C)C(=O)NC(C(=O)N1Cc2cc([101O:1][101CH2:1]COc3ccc(NCC[100NH:0][100C:0](=O)N4CCCC(n5nc(-c6ccc(Oc7ccc(F)cc7F)cc6)c(C(N)=O)c5N)C4)cc3C)ccc2CC1C(=O)NC1CCCc2ccccc21)C(C)(C)C

> <Shape>
0.318

> <Color>
0.217

> <Negative vol penalty>
0.000

$$$$

  -OEChem-04052321053D

 86 95  0     1  0  0  0  0  0999 V2000
  -22.2075  -22.0545   29.9095 C   0  0  0  0  0  0  0  0  0  0  0  0
  -22.1872  -23.1464   29.0477 C   0  0  0  0  0  0  0  0  0  0  0  0
  -26.8299  -15.3560   21.7223 C   0  0  0  0  0  0  0  0  0  0  0  0
  -26.6694  -15.8264   19.3580 C   0  0  0  0  0  0  0  0  0  0  0  0
  -22.6386  -20.8116   29.4480 C   0  0  0  0  0  0  0  0  0  0  0  0
  -22.5991  -22.9962   27.7240 C   0  0  0  0  0  0  0  0  0  0  0  0
  -20.3350  -25.8732   22.8146 C   0  0  0  0  0  0  0  0  0  0  0  0
  -25.0222  -28.5204   19.1155 C   0  0  0  0  0  0  0  0  0  0  0  0
  -26.2061  -27.7850   19.0605 C   0  0  0  0  0  0  0  0  0  0  0  0
  -25.6626  -14.5959   21.6504 C   0  0  0  0  0  0  0  0  0  0  0  0
  -25.5021  -15.0662   19.2860 C   0  0  0  0  0  0  0  0  0  0  0  0
  -20.7675  -26.9888   22.0988 C   0  0  0  0  0  0  0  0  0  0  0  0
  -24.7663  -11.4971   20.6369 C   0  0  0  0  0  0  0  0  0  0  0  0
  -24.7570  -10.2607   21.2824 C   0  0  0  0  0  0  0  0  0  0  0  0
  -21.8678  -25.5389   20.5157 C   0  0  0  0  0  0  0  0  0  0  0  0
  -26.5798  -28.2112   21.4091 C   0  0  0  0  0  0  0  0  0  0  0  0
  -22.9144  -10.9947   22.6619 C   0  0  0  0  0  0  0  0  0  0  0  0
  -27.3333  -15.9713   20.5761 C   0  0  0  0  0  0  0  0  0  0  0  0
  -29.8601  -16.3057   20.4702 C   0  0  0  0  0  0  0  0  0  0  0  0
  -23.0469  -20.6437   28.1154 C   0  0  0  0  0  0  0  0  0  0  0  0
  -20.6755  -24.5803   22.3917 C   0  0  0  0  0  0  0  0  0  0  0  0
  -23.0374  -21.7500   27.2446 C   0  0  0  0  0  0  0  0  0  0  0  0
  -21.4363  -24.4085   21.2265 C   0  0  0  0  0  0  0  0  0  0  0  0
  -24.6171  -29.1014   20.3172 C   0  0  0  0  0  0  0  0  0  0  0  0
  -26.9849  -27.6303   20.2073 C   0  0  0  0  0  0  0  0  0  0  0  0
  -24.9987  -14.4510   20.4322 C   0  0  0  0  0  0  0  0  0  0  0  0
  -21.5364  -26.8218   20.9508 C   0  0  0  0  0  0  0  0  0  0  0  0
  -23.8497  -12.4824   21.0039 C   0  0  0  0  0  0  0  0  0  0  0  0
  -25.3959  -28.9467   21.4640 C   0  0  0  0  0  0  0  0  0  0  0  0
  -23.8311  -10.0094   22.2949 C   0  0  0  0  0  0  0  0  0  0  0  0
  -22.9237  -12.2312   22.0164 C   0  0  0  0  0  0  0  0  0  0  0  0
  -28.5388  -16.7570   20.6499 C   0  0  0  0  0  0  0  0  0  0  0  0
  -30.6326  -17.4285   20.6403 C   0  0  0  0  0  0  0  0  0  0  0  0
  -30.3457  -14.9891   20.1758 C   0  0  0  0  0  0  0  0  0  0  0  0
  -22.3372  -22.1761   23.6416 C   0  0  0  0  0  0  0  0  0  0  0  0
  -21.2791  -20.5929   21.0156 C   0  0  0  0  0  0  0  0  0  0  0  0
  -20.1197  -20.7493   17.8097 C   0  0  0  0  0  0  0  0  0  0  0  0
  -29.4658  -23.1571   19.8730 C   0  0  0  0  0  0  0  0  0  0  0  0
  -23.5496  -19.2917   27.6750 C   0  0  0  0  0  0  0  0  0  0  0  0
  -20.1787  -23.3864   23.1600 C   0  0  0  0  0  0  0  0  0  0  0  0
  -21.8117  -23.0411   20.7189 C   0  0  0  0  0  0  0  0  0  0  0  0
  -23.6148  -19.1306   26.1584 C   0  0  0  0  0  0  0  0  0  0  0  0
  -30.6750  -21.6340   22.9239 C   0  0  0  0  0  0  0  0  0  0  0  0
  -24.2681  -20.3519   25.5193 C   0  0  0  0  0  0  0  0  0  0  0  0
  -30.3854  -20.1556   22.6590 C   0  0  0  0  0  0  0  0  0  0  0  0
  -25.7702  -31.8729   22.7672 C   0  0  0  0  0  0  0  0  0  0  0  0
  -25.2838  -31.4803   24.1316 C   0  0  0  0  0  0  0  0  0  0  0  0
  -29.5700  -22.5242   22.3621 C   0  0  0  0  0  0  0  0  0  0  0  0
  -29.0075  -20.8496   20.6452 C   0  0  0  0  0  0  0  0  0  0  0  0
  -23.4531  -21.6212   25.7952 C   0  0  1  0  0  0  0  0  0  0  0  0
  -21.0171  -22.1337   22.9252 C   0  0  1  0  0  0  0  0  0  0  0  0
  -30.1004  -19.8995   21.1674 C   0  0  2  0  0  0  0  0  0  0  0  0
  -25.9080  -30.4516   23.2329 C   0  0  0  0  0  0  0  0  0  0  0  0
  -19.3762  -19.2875   15.9102 C   0  0  0  0  0  0  0  0  0  0  0  0
  -24.1881  -19.8891   20.4219 C   0  0  0  0  0  0  0  0  0  0  0  0
  -23.4936  -19.2832   18.0940 C   0  0  0  0  0  0  0  0  0  0  0  0
  -22.5647  -18.0258   20.0379 C   0  0  0  0  0  0  0  0  0  0  0  0
  -17.4089  -21.9371   17.8038 C   0  0  0  0  0  0  0  0  0  0  0  0
  -23.3327  -29.8933   20.3577 C   0  0  0  0  0  0  0  0  0  0  0  0
  -28.6560  -26.2664   18.9532 C   0  0  0  0  0  0  0  0  0  0  0  0
  -29.9608  -25.5284   19.2106 C   0  0  0  0  0  0  0  0  0  0  0  0
  -22.1876  -29.1088   20.9890 C   0  0  0  0  0  0  0  0  0  1  0  0
  -21.7901  -20.3940   19.6091 C   0  0  1  0  0  0  0  0  0  0  0  0
  -18.9377  -20.0796   17.1322 C   0  0  2  0  0  0  0  0  0  0  0  0
  -23.0038  -19.4240   19.5511 C   0  0  0  0  0  0  0  0  0  0  0  0
  -28.4721  -18.0646   20.9141 N   0  0  0  0  0  0  0  0  0  0  0  0
  -29.7611  -18.4445   20.9017 N   0  0  0  0  0  0  0  0  0  0  0  0
  -21.3074  -21.9052   21.5083 N   0  0  0  0  0  0  0  0  0  0  0  0
  -29.3618  -22.2437   20.9341 N   0  0  0  0  0  0  0  0  0  0  0  0
  -31.9656  -17.6359   20.5904 N   0  0  0  0  0  0  0  0  0  0  0  0
  -29.4157  -13.9504   20.0331 N   0  0  0  0  0  0  0  0  0  0  0  0
  -28.1824  -26.8871   20.1514 N   0  0  0  0  0  0  0  0  0  0  0  0
  -22.2948  -21.6763   24.9292 N   0  0  0  0  0  0  0  0  0  0  0  0
  -20.6438  -19.9648   18.8152 N   0  0  0  0  0  0  0  0  0  0  0  0
  -29.8080  -24.4598   20.2196 N   0  0  0  0  0  0  0  0  0  0  0  0
  -17.9427  -21.1006   16.6982 N   0  3  0  0  0  0  0  0  0  0  0  0
  -31.5692  -14.7380   20.0595 O   0  0  0  0  0  0  0  0  0  0  0  0
  -23.3216  -22.6275   23.0682 O   0  0  0  0  0  0  0  0  0  0  0  0
  -20.8633  -19.6208   21.6511 O   0  0  0  0  0  0  0  0  0  0  0  0
  -20.5386  -21.8560   17.4774 O   0  0  0  0  0  0  0  0  0  0  0  0
  -29.2740  -22.8396   18.6940 O   0  0  0  0  0  0  0  0  0  0  0  0
  -23.8597  -13.7092   20.3616 O   0  0  0  0  0  0  0  0  0  0  0  0
  -25.0146  -29.5078   22.6458 O   0  0  0  0  0  0  0  0  0  0  0  0
  -21.9604  -27.9090   20.2507 O   0  0  0  0  0  0  0  0  0  1  0  0
  -23.8213   -8.8215   22.9136 F   0  0  0  0  0  0  0  0  0  0  0  0
  -22.0399  -13.1734   22.3726 F   0  0  0  0  0  0  0  0  0  0  0  0
  1  2  1  0  0  0  0
  1  5  2  0  0  0  0
  2  6  2  0  0  0  0
  3 10  2  0  0  0  0
  3 18  1  0  0  0  0
  4 11  1  0  0  0  0
  4 18  2  0  0  0  0
  5 20  1  0  0  0  0
  6 22  1  0  0  0  0
  7 12  2  0  0  0  0
  7 21  1  0  0  0  0
  8  9  2  0  0  0  0
  8 24  1  0  0  0  0
  9 25  1  0  0  0  0
 10 26  1  0  0  0  0
 11 26  2  0  0  0  0
 12 27  1  0  0  0  0
 13 14  2  0  0  0  0
 13 28  1  0  0  0  0
 14 30  1  0  0  0  0
 15 23  1  0  0  0  0
 15 27  2  0  0  0  0
 16 25  2  0  0  0  0
 16 29  1  0  0  0  0
 17 30  2  0  0  0  0
 17 31  1  0  0  0  0
 18 32  1  0  0  0  0
 19 32  1  0  0  0  0
 19 33  2  0  0  0  0
 19 34  1  0  0  0  0
 20 22  2  0  0  0  0
 20 39  1  0  0  0  0
 21 23  2  0  0  0  0
 21 40  1  0  0  0  0
 22 50  1  0  0  0  0
 23 41  1  0  0  0  0
 24 29  2  0  0  0  0
 24 59  1  0  0  0  0
 25 72  1  0  0  0  0
 26 82  1  0  0  0  0
 27 84  1  0  0  0  0
 28 31  2  0  0  0  0
 28 82  1  0  0  0  0
 29 83  1  0  0  0  0
 30 85  1  0  0  0  0
 31 86  1  0  0  0  0
 32 66  2  0  0  0  0
 33 67  1  0  0  0  0
 33 70  1  0  0  0  0
 34 71  1  0  0  0  0
 34 77  2  0  0  0  0
 35 51  1  0  0  0  0
 35 73  1  0  0  0  0
 35 78  2  0  0  0  0
 36 63  1  0  0  0  0
 36 68  1  0  0  0  0
 36 79  2  0  0  0  0
 37 64  1  0  0  0  0
 37 74  1  0  0  0  0
 37 80  2  0  0  0  0
 38 69  1  0  0  0  0
 38 75  1  0  0  0  0
 38 81  2  0  0  0  0
 39 42  1  0  0  0  0
 40 51  1  0  0  0  0
 41 68  1  0  0  0  0
 42 44  1  0  0  0  0
 43 45  1  0  0  0  0
 43 48  1  0  0  0  0
 44 50  1  0  0  0  0
 45 52  1  0  0  0  0
 46 47  1  0  0  0  0
 46 53  1  0  0  0  0
 47 53  1  0  0  0  0
 48 69  1  0  0  0  0
 49 52  1  0  0  0  0
 49 69  1  0  0  0  0
 50 73  1  0  0  0  0
 51 68  1  0  0  0  0
 52 67  1  0  0  0  0
 53 83  1  0  0  0  0
 54 64  1  0  0  0  0
 55 65  1  0  0  0  0
 56 65  1  0  0  0  0
 57 65  1  0  0  0  0
 58 76  1  0  0  0  0
 59 62  1  0  0  0  0
 60 61  1  0  0  0  0
 60 72  1  0  0  0  0
 61 75  1  0  0  0  0
 62 84  1  0  0  0  0
 63 65  1  0  0  0  0
 63 74  1  0  0  0  0
 64 76  1  0  0  0  0
 66 67  1  0  0  0  0
M  CHG  1  76   1
M  ISO  4  38 100  62 101  75 100  84 101
M  END
> <Batch ID>
0137

> <Smiles>
CNC(C)C(=O)NC(C(=O)N1Cc2cc([101O:1][101CH2:1]Cc3ccc(NCC[100NH:0][100C:0](=O)N4CCCC(n5nc(-c6ccc(Oc7ccc(F)cc7F)cc6)c(C(N)=O)c5N)C4)cc3OC3CC3)ccc2CC1C(=O)NC1CCCc2ccccc21)C(C)(C)C

> <Shape>
0.234

> <Color>
0.055

> <Negative vol penalty>
0.000

$$$$

  -OEChem-04052321053D

 84 93  0     1  0  0  0  0  0999 V2000
  -29.5743  -33.5793   26.9785 C   0  0  0  0  0  0  0  0  0  0  0  0
  -29.1354  -32.4702   26.2625 C   0  0  0  0  0  0  0  0  0  0  0  0
  -24.4092   -9.2940   22.1202 C   0  0  0  0  0  0  0  0  0  0  0  0
  -23.2890   -9.7817   20.0359 C   0  0  0  0  0  0  0  0  0  0  0  0
  -28.6895  -34.6184   27.2636 C   0  0  0  0  0  0  0  0  0  0  0  0
  -27.8110  -32.3992   25.8320 C   0  0  0  0  0  0  0  0  0  0  0  0
  -27.4092  -30.8263   21.0352 C   0  0  0  0  0  0  0  0  0  0  0  0
  -27.4711  -24.4455   21.0387 C   0  0  0  0  0  0  0  0  0  0  0  0
  -27.4325  -23.0795   20.7592 C   0  0  0  0  0  0  0  0  0  0  0  0
  -23.3785   -8.4217   22.4700 C   0  0  0  0  0  0  0  0  0  0  0  0
  -22.2583   -8.9094   20.3857 C   0  0  0  0  0  0  0  0  0  0  0  0
  -27.5516  -29.4596   20.7992 C   0  0  0  0  0  0  0  0  0  0  0  0
  -22.4261   -5.2644   21.7237 C   0  0  0  0  0  0  0  0  0  0  0  0
  -22.7790   -4.0236   22.2542 C   0  0  0  0  0  0  0  0  0  0  0  0
  -25.1525  -29.2355   20.6846 C   0  0  0  0  0  0  0  0  0  0  0  0
  -28.1826  -24.8891   18.7729 C   0  0  0  0  0  0  0  0  0  0  0  0
  -21.5742   -4.5479   24.2817 C   0  0  0  0  0  0  0  0  0  0  0  0
  -24.3645   -9.9740   20.9031 C   0  0  0  0  0  0  0  0  0  0  0  0
  -26.6054  -10.5620   19.8354 C   0  0  0  0  0  0  0  0  0  0  0  0
  -27.3561  -34.5645   26.8280 C   0  0  0  0  0  0  0  0  0  0  0  0
  -26.1348  -31.4069   21.1086 C   0  0  0  0  0  0  0  0  0  0  0  0
  -26.9072  -33.4380   26.1126 C   0  0  0  0  0  0  0  0  0  0  0  0
  -24.9966  -30.6102   20.9191 C   0  0  0  0  0  0  0  0  0  0  0  0
  -27.8461  -25.3503   20.0456 C   0  0  0  0  0  0  0  0  0  0  0  0
  -28.1439  -23.5231   18.4933 C   0  0  0  0  0  0  0  0  0  0  0  0
  -27.7689  -22.6183   19.4865 C   0  0  0  0  0  0  0  0  0  0  0  0
  -22.3030   -8.2294   21.6028 C   0  0  0  0  0  0  0  0  0  0  0  0
  -26.4231  -28.6635   20.6268 C   0  0  0  0  0  0  0  0  0  0  0  0
  -21.6473   -6.1470   22.4722 C   0  0  0  0  0  0  0  0  0  0  0  0
  -22.3530   -3.6653   23.5332 C   0  0  0  0  0  0  0  0  0  0  0  0
  -21.2213   -5.7887   23.7511 C   0  0  0  0  0  0  0  0  0  0  0  0
  -25.4286  -10.8756   20.5415 C   0  0  0  0  0  0  0  0  0  0  0  0
  -27.2824  -11.7539   19.7496 C   0  0  0  0  0  0  0  0  0  0  0  0
  -27.0471   -9.3055   19.3045 C   0  0  0  0  0  0  0  0  0  0  0  0
  -24.4941  -32.9385   23.3593 C   0  0  0  0  0  0  0  0  0  0  0  0
  -22.3629  -33.3834   20.9546 C   0  0  0  0  0  0  0  0  0  0  0  0
  -21.1151  -32.3310   17.9576 C   0  0  0  0  0  0  0  0  0  0  0  0
  -27.5621  -17.0367   18.8232 C   0  0  0  0  0  0  0  0  0  0  0  0
  -26.4245  -35.6904   27.2009 C   0  0  0  0  0  0  0  0  0  0  0  0
  -25.9990  -32.8873   21.3373 C   0  0  0  0  0  0  0  0  0  0  0  0
  -23.6068  -31.1884   20.9685 C   0  0  0  0  0  0  0  0  0  0  0  0
  -25.1343  -35.7090   26.3852 C   0  0  0  0  0  0  0  0  0  0  0  0
  -26.4878  -16.1773   22.0553 C   0  0  0  0  0  0  0  0  0  0  0  0
  -24.5309  -34.3101   26.3088 C   0  0  0  0  0  0  0  0  0  0  0  0
  -26.2067  -14.6836   21.8948 C   0  0  0  0  0  0  0  0  0  0  0  0
  -26.0271  -16.9811   20.8383 C   0  0  0  0  0  0  0  0  0  0  0  0
  -28.9231  -20.4286   19.4511 C   0  0  0  0  0  0  0  0  0  0  0  0
  -26.4291  -20.5634   19.3620 C   0  0  0  0  0  0  0  0  0  0  0  0
  -28.8627  -19.1259   18.6580 C   0  0  0  0  0  0  0  0  0  0  0  0
  -26.4138  -19.2666   18.5605 C   0  0  0  0  0  0  0  0  0  0  0  0
  -26.2849  -14.9915   19.3916 C   0  0  0  0  0  0  0  0  0  0  0  0
  -25.4845  -33.3356   25.6070 C   0  0  1  0  0  0  0  0  0  0  0  0
  -24.6385  -33.2820   21.9037 C   0  0  1  0  0  0  0  0  0  0  0  0
  -26.7901  -14.1505   20.5742 C   0  0  2  0  0  0  0  0  0  0  0  0
  -28.5092  -23.0565   17.1217 C   0  0  0  0  0  0  0  0  0  0  0  0
  -19.3497  -32.8740   16.2588 C   0  0  0  0  0  0  0  0  0  0  0  0
  -20.2358  -32.1884   22.7869 C   0  0  0  0  0  0  0  0  0  0  0  0
  -18.7770  -31.8787   20.7758 C   0  0  0  0  0  0  0  0  0  0  0  0
  -19.4789  -34.1714   21.4642 C   0  0  0  0  0  0  0  0  0  0  0  0
  -23.1304  -32.7918   15.8397 C   0  0  0  0  0  0  0  0  0  0  0  0
  -27.8873  -26.8108   20.3449 C   0  0  0  0  0  0  0  0  0  1  0  0
  -21.1774  -32.6160   20.4212 C   0  0  1  0  0  0  0  0  0  0  0  0
  -20.7961  -33.0843   16.6789 C   0  0  2  0  0  0  0  0  0  0  0  0
  -19.9433  -32.7021   21.3629 C   0  0  0  0  0  0  0  0  0  0  0  0
  -25.3589  -12.1657   20.8802 N   0  0  0  0  0  0  0  0  0  0  0  0
  -26.5005  -12.6732   20.3850 N   0  0  0  0  0  0  0  0  0  0  0  0
  -27.7245  -21.2432   19.2238 N   0  0  0  0  0  0  0  0  0  0  0  0
  -23.5258  -32.6399   21.2010 N   0  0  0  0  0  0  0  0  0  0  0  0
  -26.5754  -16.4116   19.6002 N   0  0  0  0  0  0  0  0  0  0  0  0
  -27.5894  -18.4400   18.8416 N   0  0  0  0  0  0  0  0  0  0  0  0
  -28.4642  -12.0949   19.1934 N   0  0  0  0  0  0  0  0  0  0  0  0
  -26.2296   -8.1809   19.4816 N   0  0  0  0  0  0  0  0  0  0  0  0
  -25.4410  -33.5299   24.1736 N   0  0  0  0  0  0  0  0  0  0  0  0
  -20.9371  -33.1209   19.0737 N   0  0  0  0  0  0  0  0  0  0  0  0
  -21.6792  -32.6218   15.5711 N   0  3  0  0  0  0  0  0  0  0  0  0
  -28.1422   -9.1803   18.7057 O   0  0  0  0  0  0  0  0  0  0  0  0
  -23.5896  -32.1933   23.7174 O   0  0  0  0  0  0  0  0  0  0  0  0
  -22.2632  -34.5990   21.1389 O   0  0  0  0  0  0  0  0  0  0  0  0
  -21.4818  -31.1579   17.9658 O   0  0  0  0  0  0  0  0  0  0  0  0
  -28.3726  -16.3827   18.1552 O   0  0  0  0  0  0  0  0  0  0  0  0
  -21.2972   -7.3782   21.9437 O   0  0  0  0  0  0  0  0  0  0  0  0
  -26.5602  -27.3199   20.3954 O   0  0  0  0  0  0  0  0  0  1  0  0
  -22.6906   -2.4731   24.0420 F   0  0  0  0  0  0  0  0  0  0  0  0
  -20.4720   -6.6319   24.4745 F   0  0  0  0  0  0  0  0  0  0  0  0
  1  2  1  0  0  0  0
  1  5  2  0  0  0  0
  2  6  2  0  0  0  0
  3 10  2  0  0  0  0
  3 18  1  0  0  0  0
  4 11  1  0  0  0  0
  4 18  2  0  0  0  0
  5 20  1  0  0  0  0
  6 22  1  0  0  0  0
  7 12  2  0  0  0  0
  7 21  1  0  0  0  0
  8  9  2  0  0  0  0
  8 24  1  0  0  0  0
  9 26  1  0  0  0  0
 10 27  1  0  0  0  0
 11 27  2  0  0  0  0
 12 28  1  0  0  0  0
 13 14  2  0  0  0  0
 13 29  1  0  0  0  0
 14 30  1  0  0  0  0
 15 23  1  0  0  0  0
 15 28  2  0  0  0  0
 16 24  2  0  0  0  0
 16 25  1  0  0  0  0
 17 30  2  0  0  0  0
 17 31  1  0  0  0  0
 18 32  1  0  0  0  0
 19 32  1  0  0  0  0
 19 33  2  0  0  0  0
 19 34  1  0  0  0  0
 20 22  2  0  0  0  0
 20 39  1  0  0  0  0
 21 23  2  0  0  0  0
 21 40  1  0  0  0  0
 22 52  1  0  0  0  0
 23 41  1  0  0  0  0
 24 61  1  0  0  0  0
 25 26  2  0  0  0  0
 25 55  1  0  0  0  0
 26 67  1  0  0  0  0
 27 81  1  0  0  0  0
 28 82  1  0  0  0  0
 29 31  2  0  0  0  0
 29 81  1  0  0  0  0
 30 83  1  0  0  0  0
 31 84  1  0  0  0  0
 32 65  2  0  0  0  0
 33 66  1  0  0  0  0
 33 71  1  0  0  0  0
 34 72  1  0  0  0  0
 34 76  2  0  0  0  0
 35 53  1  0  0  0  0
 35 73  1  0  0  0  0
 35 77  2  0  0  0  0
 36 62  1  0  0  0  0
 36 68  1  0  0  0  0
 36 78  2  0  0  0  0
 37 63  1  0  0  0  0
 37 74  1  0  0  0  0
 37 79  2  0  0  0  0
 38 69  1  0  0  0  0
 38 70  1  0  0  0  0
 38 80  2  0  0  0  0
 39 42  1  0  0  0  0
 40 53  1  0  0  0  0
 41 68  1  0  0  0  0
 42 44  1  0  0  0  0
 43 45  1  0  0  0  0
 43 46  1  0  0  0  0
 44 52  1  0  0  0  0
 45 54  1  0  0  0  0
 46 69  1  0  0  0  0
 47 49  1  0  0  0  0
 47 67  1  0  0  0  0
 48 50  1  0  0  0  0
 48 67  1  0  0  0  0
 49 70  1  0  0  0  0
 50 70  1  0  0  0  0
 51 54  1  0  0  0  0
 51 69  1  0  0  0  0
 52 73  1  0  0  0  0
 53 68  1  0  0  0  0
 54 66  1  0  0  0  0
 56 63  1  0  0  0  0
 57 64  1  0  0  0  0
 58 64  1  0  0  0  0
 59 64  1  0  0  0  0
 60 75  1  0  0  0  0
 61 82  1  0  0  0  0
 62 64  1  0  0  0  0
 62 74  1  0  0  0  0
 63 75  1  0  0  0  0
 65 66  1  0  0  0  0
M  CHG  1  75   1
M  ISO  4  38 100  61 101  70 100  82 101
M  END
> <Batch ID>
0137

> <Smiles>
CNC(C)C(=O)NC(C(=O)N1Cc2cc([101O:1][101CH2:1]c3ccc(N4CC[100N:0]([100C:0](=O)N5CCCC(n6nc(-c7ccc(Oc8ccc(F)cc8F)cc7)c(C(N)=O)c6N)C5)CC4)c(C)c3)ccc2CC1C(=O)NC1CCCc2ccccc21)C(C)(C)C

> <Shape>
0.266

> <Color>
0.095

> <Negative vol penalty>
0.000

$$$$

  -OEChem-04052321053D

 84 92  0     1  0  0  0  0  0999 V2000
  -32.2177  -15.0809   19.3781 C   0  0  0  0  0  0  0  0  0  0  0  0
  -31.3105  -16.1356   19.3765 C   0  0  0  0  0  0  0  0  0  0  0  0
  -28.7502  -25.7554   19.1700 C   0  0  0  0  0  0  0  0  0  0  0  0
  -26.5836  -24.7976   19.6451 C   0  0  0  0  0  0  0  0  0  0  0  0
  -31.7578  -13.7675   19.4628 C   0  0  0  0  0  0  0  0  0  0  0  0
  -29.9426  -15.8773   19.4584 C   0  0  0  0  0  0  0  0  0  0  0  0
  -25.7169  -19.2807   22.2983 C   0  0  0  0  0  0  0  0  0  0  0  0
  -29.3108  -24.4784   19.1519 C   0  0  0  0  0  0  0  0  0  0  0  0
  -27.1443  -23.5205   19.6269 C   0  0  0  0  0  0  0  0  0  0  0  0
  -24.8092  -20.2307   21.8320 C   0  0  0  0  0  0  0  0  0  0  0  0
  -27.9373  -19.9832   19.3485 C   0  0  0  0  0  0  0  0  0  0  0  0
  -27.2532  -18.9837   18.6569 C   0  0  0  0  0  0  0  0  0  0  0  0
  -23.1004  -18.5320   21.7157 C   0  0  0  0  0  0  0  0  0  0  0  0
  -19.6379  -24.5425   21.9883 C   0  0  0  0  0  0  0  0  0  0  0  0
  -27.4444  -20.2642   16.6170 C   0  0  0  0  0  0  0  0  0  0  0  0
  -20.8672  -26.0075   23.9346 C   0  0  0  0  0  0  0  0  0  0  0  0
  -27.3865  -25.9151   19.4167 C   0  0  0  0  0  0  0  0  0  0  0  0
  -26.7880  -28.1699   18.3847 C   0  0  0  0  0  0  0  0  0  0  0  0
  -30.3842  -13.4934   19.5555 C   0  0  0  0  0  0  0  0  0  0  0  0
  -25.3254  -17.9448   22.4668 C   0  0  0  0  0  0  0  0  0  0  0  0
  -29.4639  -14.5588   19.5430 C   0  0  0  0  0  0  0  0  0  0  0  0
  -24.0043  -17.5676   22.1867 C   0  0  0  0  0  0  0  0  0  0  0  0
  -19.1986  -25.8358   22.2486 C   0  0  0  0  0  0  0  0  0  0  0  0
  -19.8196  -26.5889   23.2387 C   0  0  0  0  0  0  0  0  0  0  0  0
  -28.5079  -23.3609   19.3803 C   0  0  0  0  0  0  0  0  0  0  0  0
  -23.5015  -19.8558   21.5378 C   0  0  0  0  0  0  0  0  0  0  0  0
  -28.3749  -21.1234   18.6744 C   0  0  0  0  0  0  0  0  0  0  0  0
  -27.0068  -19.1241   17.2911 C   0  0  0  0  0  0  0  0  0  0  0  0
  -28.1285  -21.2638   17.3087 C   0  0  0  0  0  0  0  0  0  0  0  0
  -26.8069  -27.2340   19.4362 C   0  0  0  0  0  0  0  0  0  0  0  0
  -20.6937  -24.0527   22.7400 C   0  0  0  0  0  0  0  0  0  0  0  0
  -26.1256  -29.2556   18.9033 C   0  0  0  0  0  0  0  0  0  0  0  0
  -27.3214  -28.0670   17.0579 C   0  0  0  0  0  0  0  0  0  0  0  0
  -26.2190  -15.1690   21.2018 C   0  0  0  0  0  0  0  0  0  0  0  0
  -24.1851  -13.9501   23.4153 C   0  0  0  0  0  0  0  0  0  0  0  0
  -21.4796  -14.4300   25.4393 C   0  0  0  0  0  0  0  0  0  0  0  0
  -22.1137  -29.8631   23.3063 C   0  0  0  0  0  0  0  0  0  0  0  0
  -29.9322  -12.0551   19.5975 C   0  0  0  0  0  0  0  0  0  0  0  0
  -26.3092  -16.9377   22.9961 C   0  0  0  0  0  0  0  0  0  0  0  0
  -23.5285  -16.1503   22.3698 C   0  0  0  0  0  0  0  0  0  0  0  0
  -28.4871  -11.8840   20.0589 C   0  0  0  0  0  0  0  0  0  0  0  0
  -25.2691  -31.4916   23.0455 C   0  0  0  0  0  0  0  0  0  0  0  0
  -27.5762  -12.8733   19.3389 C   0  0  0  0  0  0  0  0  0  0  0  0
  -26.0193  -30.6695   21.9960 C   0  0  0  0  0  0  0  0  0  0  0  0
  -24.3914  -30.6100   23.9312 C   0  0  0  0  0  0  0  0  0  0  0  0
  -24.2030  -28.9158   22.1513 C   0  0  0  0  0  0  0  0  0  0  0  0
  -27.9737  -14.3202   19.6554 C   0  0  1  0  0  0  0  0  0  0  0  0
  -25.9422  -15.5001   22.6410 C   0  0  1  0  0  0  0  0  0  0  0  0
  -25.0584  -29.7678   21.1980 C   0  0  2  0  0  0  0  0  0  0  0  0
  -16.8013  -25.5440   21.5747 C   0  0  0  0  0  0  0  0  0  0  0  0
  -20.0295  -13.2383   27.1051 C   0  0  0  0  0  0  0  0  0  0  0  0
  -22.8028  -12.4579   21.1410 C   0  0  0  0  0  0  0  0  0  0  0  0
  -20.8566  -12.0746   22.6685 C   0  0  0  0  0  0  0  0  0  0  0  0
  -23.0925  -11.1264   23.2380 C   0  0  0  0  0  0  0  0  0  0  0  0
  -22.1905  -16.3317   27.5927 C   0  0  0  0  0  0  0  0  0  0  0  0
  -18.0631  -26.3937   21.4561 C   0  0  0  0  0  0  0  0  0  0  0  0
  -19.3896  -27.9784   23.5585 C   0  0  0  0  0  0  0  0  0  0  0  0
  -19.8994  -29.0264   22.5606 C   0  0  0  0  0  0  0  0  0  0  0  0
  -20.5270  -21.9185   21.4582 C   0  0  0  0  0  0  0  0  0  0  0  0
  -21.2391  -20.5772   21.4066 C   0  0  0  0  0  0  0  0  0  1  0  0
  -22.7129  -13.6173   23.4461 C   0  0  1  0  0  0  0  0  0  0  0  0
  -21.2527  -14.1202   26.9080 C   0  0  2  0  0  0  0  0  0  0  0  0
  -22.3754  -12.3454   22.6180 C   0  0  0  0  0  0  0  0  0  0  0  0
  -21.3219  -24.7543   23.7100 N   0  0  0  0  0  0  0  0  0  0  0  0
  -26.2046  -27.6858   20.5394 N   0  0  0  0  0  0  0  0  0  0  0  0
  -25.8010  -28.9174   20.1841 N   0  0  0  0  0  0  0  0  0  0  0  0
  -24.5295  -15.2010   22.8839 N   0  0  0  0  0  0  0  0  0  0  0  0
  -23.5026  -29.7813   23.1132 N   0  0  0  0  0  0  0  0  0  0  0  0
  -25.7951  -30.4571   18.3841 N   0  0  0  0  0  0  0  0  0  0  0  0
  -26.4993  -27.5542   16.0452 N   0  0  0  0  0  0  0  0  0  0  0  0
  -21.1203  -22.7631   22.4695 N   0  0  0  0  0  0  0  0  0  0  0  0
  -27.4975  -14.6995   20.9683 N   0  0  0  0  0  0  0  0  0  0  0  0
  -22.3439  -13.5286   24.8548 N   0  0  0  0  0  0  0  0  0  0  0  0
  -21.3432  -29.0489   22.4852 N   0  0  0  0  0  0  0  0  0  0  0  0
  -21.0527  -15.3802   27.6783 N   0  3  0  0  0  0  0  0  0  0  0  0
  -28.4978  -28.4039   16.7819 O   0  0  0  0  0  0  0  0  0  0  0  0
  -25.3374  -15.3263   20.3653 O   0  0  0  0  0  0  0  0  0  0  0  0
  -24.9990  -13.1332   23.8535 O   0  0  0  0  0  0  0  0  0  0  0  0
  -20.9408  -15.3747   24.8669 O   0  0  0  0  0  0  0  0  0  0  0  0
  -21.5982  -30.6106   24.1444 O   0  0  0  0  0  0  0  0  0  0  0  0
  -29.0546  -22.1145   19.3624 O   0  0  0  0  0  0  0  0  0  0  0  0
  -22.6137  -20.7809   21.0819 O   0  0  0  0  0  0  0  0  0  1  0  0
  -26.3512  -18.1634   16.6267 F   0  0  0  0  0  0  0  0  0  0  0  0
  -28.5475  -22.3563   16.6555 F   0  0  0  0  0  0  0  0  0  0  0  0
  1  2  1  0  0  0  0
  1  5  2  0  0  0  0
  2  6  2  0  0  0  0
  3  8  2  0  0  0  0
  3 17  1  0  0  0  0
  4  9  1  0  0  0  0
  4 17  2  0  0  0  0
  5 19  1  0  0  0  0
  6 21  1  0  0  0  0
  7 10  2  0  0  0  0
  7 20  1  0  0  0  0
  8 25  1  0  0  0  0
  9 25  2  0  0  0  0
 10 26  1  0  0  0  0
 11 12  2  0  0  0  0
 11 27  1  0  0  0  0
 12 28  1  0  0  0  0
 13 22  1  0  0  0  0
 13 26  2  0  0  0  0
 14 23  1  0  0  0  0
 14 31  2  0  0  0  0
 15 28  2  0  0  0  0
 15 29  1  0  0  0  0
 16 24  1  0  0  0  0
 16 64  2  0  0  0  0
 17 30  1  0  0  0  0
 18 30  1  0  0  0  0
 18 32  2  0  0  0  0
 18 33  1  0  0  0  0
 19 21  2  0  0  0  0
 19 38  1  0  0  0  0
 20 22  2  0  0  0  0
 20 39  1  0  0  0  0
 21 47  1  0  0  0  0
 22 40  1  0  0  0  0
 23 24  2  0  0  0  0
 23 56  1  0  0  0  0
 24 57  1  0  0  0  0
 25 81  1  0  0  0  0
 26 82  1  0  0  0  0
 27 29  2  0  0  0  0
 27 81  1  0  0  0  0
 28 83  1  0  0  0  0
 29 84  1  0  0  0  0
 30 65  2  0  0  0  0
 31 64  1  0  0  0  0
 31 71  1  0  0  0  0
 32 66  1  0  0  0  0
 32 69  1  0  0  0  0
 33 70  1  0  0  0  0
 33 76  2  0  0  0  0
 34 48  1  0  0  0  0
 34 72  1  0  0  0  0
 34 77  2  0  0  0  0
 35 61  1  0  0  0  0
 35 67  1  0  0  0  0
 35 78  2  0  0  0  0
 36 62  1  0  0  0  0
 36 73  1  0  0  0  0
 36 79  2  0  0  0  0
 37 68  1  0  0  0  0
 37 74  1  0  0  0  0
 37 80  2  0  0  0  0
 38 41  1  0  0  0  0
 39 48  1  0  0  0  0
 40 67  1  0  0  0  0
 41 43  1  0  0  0  0
 42 44  1  0  0  0  0
 42 45  1  0  0  0  0
 43 47  1  0  0  0  0
 44 49  1  0  0  0  0
 45 68  1  0  0  0  0
 46 49  1  0  0  0  0
 46 68  1  0  0  0  0
 47 72  1  0  0  0  0
 48 67  1  0  0  0  0
 49 66  1  0  0  0  0
 50 56  1  0  0  0  0
 51 62  1  0  0  0  0
 52 63  1  0  0  0  0
 53 63  1  0  0  0  0
 54 63  1  0  0  0  0
 55 75  1  0  0  0  0
 57 58  1  0  0  0  0
 58 74  1  0  0  0  0
 59 60  1  0  0  0  0
 59 71  1  0  0  0  0
 60 82  1  0  0  0  0
 61 63  1  0  0  0  0
 61 73  1  0  0  0  0
 62 75  1  0  0  0  0
 65 66  1  0  0  0  0
M  CHG  1  75   1
M  ISO  4  37 100  60 101  74 100  82 101
M  END
> <Batch ID>
0137

> <Smiles>
CCc1cc(NC[101CH2:1][101O:1]c2ccc3c(c2)CN(C(=O)C(NC(=O)C(C)NC)C(C)(C)C)C(C(=O)NC2CCCc4ccccc42)C3)ncc1CC[100NH:0][100C:0](=O)N1CCCC(n2nc(-c3ccc(Oc4ccc(F)cc4F)cc3)c(C(N)=O)c2N)C1

> <Shape>
0.215

> <Color>
0.071

> <Negative vol penalty>
0.000

$$$$

  -OEChem-04052321053D

 87 96  0     1  0  0  0  0  0999 V2000
  -19.1487  -23.9211   23.4072 C   0  0  0  0  0  0  0  0  0  0  0  0
  -20.5196  -24.0240   23.1937 C   0  0  0  0  0  0  0  0  0  0  0  0
  -26.1372  -11.6404   21.3105 C   0  0  0  0  0  0  0  0  0  0  0  0
  -25.6728  -13.7657   20.2595 C   0  0  0  0  0  0  0  0  0  0  0  0
  -18.3247  -25.0230   23.1823 C   0  0  0  0  0  0  0  0  0  0  0  0
  -21.0671  -25.2287   22.7542 C   0  0  0  0  0  0  0  0  0  0  0  0
  -25.2725  -26.4873   25.2791 C   0  0  0  0  0  0  0  0  0  0  0  0
  -29.7596  -20.1610   18.0794 C   0  0  0  0  0  0  0  0  0  0  0  0
  -24.8819  -11.6665   21.9180 C   0  0  0  0  0  0  0  0  0  0  0  0
  -24.4174  -13.7917   20.8669 C   0  0  0  0  0  0  0  0  0  0  0  0
  -26.4497  -25.8307   24.9228 C   0  0  0  0  0  0  0  0  0  0  0  0
  -29.2495  -21.3688   18.5556 C   0  0  0  0  0  0  0  0  0  0  0  0
  -21.6767  -11.0416   21.0408 C   0  0  0  0  0  0  0  0  0  0  0  0
  -20.9187   -9.8711   21.0129 C   0  0  0  0  0  0  0  0  0  0  0  0
  -27.1108  -27.7421   23.6080 C   0  0  0  0  0  0  0  0  0  0  0  0
  -30.9944  -22.5655   17.3893 C   0  0  0  0  0  0  0  0  0  0  0  0
  -20.8967   -9.8277   23.4284 C   0  0  0  0  0  0  0  0  0  0  0  0
  -26.5327  -12.6901   20.4813 C   0  0  0  0  0  0  0  0  0  0  0  0
  -28.3231  -11.6932   18.9620 C   0  0  0  0  0  0  0  0  0  0  0  0
  -18.8636  -26.2447   22.7491 C   0  0  0  0  0  0  0  0  0  0  0  0
  -25.0001  -27.7741   24.7929 C   0  0  0  0  0  0  0  0  0  0  0  0
  -20.2493  -26.3477   22.5220 C   0  0  0  0  0  0  0  0  0  0  0  0
  -25.9306  -28.4139   23.9616 C   0  0  0  0  0  0  0  0  0  0  0  0
  -30.8872  -20.1555   17.2582 C   0  0  0  0  0  0  0  0  0  0  0  0
  -31.5046  -21.3577   16.9132 C   0  0  0  0  0  0  0  0  0  0  0  0
  -24.0219  -12.7421   21.6962 C   0  0  0  0  0  0  0  0  0  0  0  0
  -27.3677  -26.4569   24.0848 C   0  0  0  0  0  0  0  0  0  0  0  0
  -29.8669  -22.5710   18.2105 C   0  0  0  0  0  0  0  0  0  0  0  0
  -22.0448  -11.6052   22.2625 C   0  0  0  0  0  0  0  0  0  0  0  0
  -20.5286   -9.2641   22.2067 C   0  0  0  0  0  0  0  0  0  0  0  0
  -21.6548  -10.9983   23.4563 C   0  0  0  0  0  0  0  0  0  0  0  0
  -27.8296  -12.6640   19.8540 C   0  0  0  0  0  0  0  0  0  0  0  0
  -29.5919  -12.1211   18.6563 C   0  0  0  0  0  0  0  0  0  0  0  0
  -27.6911  -10.5103   18.4550 C   0  0  0  0  0  0  0  0  0  0  0  0
  -22.7309  -29.0488   22.9682 C   0  0  0  0  0  0  0  0  0  0  0  0
  -24.2200  -31.8271   23.7334 C   0  0  0  0  0  0  0  0  0  0  0  0
  -27.0751  -33.4019   24.7410 C   0  0  0  0  0  0  0  0  0  0  0  0
  -32.1978  -17.5117   18.6986 C   0  0  0  0  0  0  0  0  0  0  0  0
  -17.9271  -27.3945   22.4741 C   0  0  0  0  0  0  0  0  0  0  0  0
  -23.7382  -28.4795   25.2081 C   0  0  0  0  0  0  0  0  0  0  0  0
  -25.6949  -29.8029   23.4291 C   0  0  0  0  0  0  0  0  0  0  0  0
  -18.6335  -28.7436   22.3684 C   0  0  0  0  0  0  0  0  0  0  0  0
  -33.2445  -14.6138   20.4828 C   0  0  0  0  0  0  0  0  0  0  0  0
  -19.8685  -28.6314   21.4801 C   0  0  0  0  0  0  0  0  0  0  0  0
  -32.0200  -13.6979   20.4435 C   0  0  0  0  0  0  0  0  0  0  0  0
  -30.1711  -25.1204   20.5063 C   0  0  0  0  0  0  0  0  0  0  0  0
  -27.8666  -24.1186   20.5203 C   0  0  0  0  0  0  0  0  0  0  0  0
  -32.8469  -16.0823   20.6148 C   0  0  0  0  0  0  0  0  0  0  0  0
  -29.9914  -25.4372   21.9905 C   0  0  0  0  0  0  0  0  0  0  0  0
  -27.7726  -24.4722   22.0041 C   0  0  0  0  0  0  0  0  0  0  0  0
  -30.6629  -15.6418   19.5613 C   0  0  0  0  0  0  0  0  0  0  0  0
  -20.8839  -27.6448   22.0692 C   0  0  1  0  0  0  0  0  0  0  0  0
  -23.3250  -29.5840   24.2403 C   0  0  1  0  0  0  0  0  0  0  0  0
  -31.0116  -14.1555   19.3725 C   0  0  2  0  0  0  0  0  0  0  0  0
  -29.3193  -23.9211   20.0903 C   0  0  0  0  0  0  0  0  0  0  0  0
  -32.7133  -21.3763   16.0364 C   0  0  0  0  0  0  0  0  0  0  0  0
  -30.8026  -18.4349   15.4160 C   0  0  0  0  0  0  0  0  0  0  0  0
  -27.9953  -35.6823   25.2417 C   0  0  0  0  0  0  0  0  0  0  0  0
  -24.4017  -32.4078   20.7435 C   0  0  0  0  0  0  0  0  0  0  0  0
  -26.1187  -34.1557   21.2580 C   0  0  0  0  0  0  0  0  0  0  0  0
  -23.8022  -34.3831   22.1552 C   0  0  0  0  0  0  0  0  0  0  0  0
  -27.6552  -32.6779   27.5513 C   0  0  0  0  0  0  0  0  0  0  0  0
  -31.4149  -18.8500   16.7608 C   0  0  2  0  0  0  0  0  0  0  0  0
  -25.3453  -32.6368   23.1358 C   0  0  1  0  0  0  0  0  0  0  0  0
  -27.3249  -34.4440   25.8162 C   0  0  2  0  0  0  0  0  0  0  0  0
  -24.9208  -33.3689   21.8314 C   0  0  0  0  0  0  0  0  0  0  0  0
  -28.7130  -13.6354   20.0992 N   0  0  0  0  0  0  0  0  0  0  0  0
  -29.7743  -13.2770   19.3568 N   0  0  0  0  0  0  0  0  0  0  0  0
  -24.4434  -30.4486   23.8585 N   0  0  0  0  0  0  0  0  0  0  0  0
  -31.8906  -16.4528   19.5688 N   0  0  0  0  0  0  0  0  0  0  0  0
  -28.5753  -25.6640   22.2925 N   0  0  0  0  0  0  0  0  0  1  0  0
  -30.5583  -11.6176   17.8595 N   0  0  0  0  0  0  0  0  0  0  0  0
  -26.9501  -10.6047   17.2691 N   0  0  0  0  0  0  0  0  0  0  0  0
  -21.6127  -28.2594   23.1580 N   0  0  0  0  0  0  0  0  0  0  0  0
  -25.8156  -33.5248   24.1934 N   0  0  0  0  0  0  0  0  0  0  0  0
  -31.2399  -17.7933   17.7322 N   0  0  0  0  0  0  0  0  0  0  0  0
  -28.2030  -33.8867   26.8836 N   0  3  0  0  0  0  0  0  0  0  0  0
  -27.7671   -9.4060   19.0451 O   0  0  0  0  0  0  0  0  0  0  0  0
  -23.2478  -29.3322   21.8939 O   0  0  0  0  0  0  0  0  0  0  0  0
  -23.1839  -32.3978   24.0832 O   0  0  0  0  0  0  0  0  0  0  0  0
  -27.9148  -32.5651   24.4164 O   0  0  0  0  0  0  0  0  0  0  0  0
  -33.2503  -18.1548   18.7737 O   0  0  0  0  0  0  0  0  0  0  0  0
  -22.7968  -12.7677   22.2885 O   0  0  0  0  0  0  0  0  0  0  0  0
  -29.3662  -23.7576   18.6786 O   0  0  0  0  0  0  0  0  0  0  0  0
  -28.5171  -25.8180   23.7350 O   0  0  0  0  0  0  0  0  0  1  0  0
  -19.7994   -8.1409   22.1797 F   0  0  0  0  0  0  0  0  0  0  0  0
  -22.0044  -11.5357   24.6331 F   0  0  0  0  0  0  0  0  0  0  0  0
  1  2  1  0  0  0  0
  1  5  2  0  0  0  0
  2  6  2  0  0  0  0
  3  9  2  0  0  0  0
  3 18  1  0  0  0  0
  4 10  1  0  0  0  0
  4 18  2  0  0  0  0
  5 20  1  0  0  0  0
  6 22  1  0  0  0  0
  7 11  2  0  0  0  0
  7 21  1  0  0  0  0
  8 12  2  0  0  0  0
  8 24  1  0  0  0  0
  9 26  1  0  0  0  0
 10 26  2  0  0  0  0
 11 27  1  0  0  0  0
 12 28  1  0  0  0  0
 13 14  2  0  0  0  0
 13 29  1  0  0  0  0
 14 30  1  0  0  0  0
 15 23  1  0  0  0  0
 15 27  2  0  0  0  0
 16 25  1  0  0  0  0
 16 28  2  0  0  0  0
 17 30  2  0  0  0  0
 17 31  1  0  0  0  0
 18 32  1  0  0  0  0
 19 32  1  0  0  0  0
 19 33  2  0  0  0  0
 19 34  1  0  0  0  0
 20 22  2  0  0  0  0
 20 39  1  0  0  0  0
 21 23  2  0  0  0  0
 21 40  1  0  0  0  0
 22 52  1  0  0  0  0
 23 41  1  0  0  0  0
 24 25  2  0  0  0  0
 24 63  1  0  0  0  0
 25 56  1  0  0  0  0
 26 83  1  0  0  0  0
 27 85  1  0  0  0  0
 28 84  1  0  0  0  0
 29 31  2  0  0  0  0
 29 83  1  0  0  0  0
 30 86  1  0  0  0  0
 31 87  1  0  0  0  0
 32 67  2  0  0  0  0
 33 68  1  0  0  0  0
 33 72  1  0  0  0  0
 34 73  1  0  0  0  0
 34 78  2  0  0  0  0
 35 53  1  0  0  0  0
 35 74  1  0  0  0  0
 35 79  2  0  0  0  0
 36 64  1  0  0  0  0
 36 69  1  0  0  0  0
 36 80  2  0  0  0  0
 37 65  1  0  0  0  0
 37 75  1  0  0  0  0
 37 81  2  0  0  0  0
 38 70  1  0  0  0  0
 38 76  1  0  0  0  0
 38 82  2  0  0  0  0
 39 42  1  0  0  0  0
 40 53  1  0  0  0  0
 41 69  1  0  0  0  0
 42 44  1  0  0  0  0
 43 45  1  0  0  0  0
 43 48  1  0  0  0  0
 44 52  1  0  0  0  0
 45 54  1  0  0  0  0
 46 49  1  0  0  0  0
 46 55  1  0  0  0  0
 47 50  1  0  0  0  0
 47 55  1  0  0  0  0
 48 70  1  0  0  0  0
 49 71  1  0  0  0  0
 50 71  1  0  0  0  0
 51 54  1  0  0  0  0
 51 70  1  0  0  0  0
 52 74  1  0  0  0  0
 53 69  1  0  0  0  0
 54 68  1  0  0  0  0
 55 84  1  0  0  0  0
 57 63  1  0  0  0  0
 58 65  1  0  0  0  0
 59 66  1  0  0  0  0
 60 66  1  0  0  0  0
 61 66  1  0  0  0  0
 62 77  1  0  0  0  0
 63 76  1  0  0  0  0
 64 66  1  0  0  0  0
 64 75  1  0  0  0  0
 65 77  1  0  0  0  0
 67 68  1  0  0  0  0
 71 85  1  0  0  0  0
M  CHG  1  77   1
M  ISO  4  38 100  71 101  76 100  85 101
M  END
> <Batch ID>
0137

> <Smiles>
CNC(C)C(=O)NC(C(=O)N1Cc2cc([101O:1][101N:1]3CCC(Oc4ccc(C(C)[100NH:0][100C:0](=O)N5CCCC(n6nc(-c7ccc(Oc8ccc(F)cc8F)cc7)c(C(N)=O)c6N)C5)c(C)c4)CC3)ccc2CC1C(=O)NC1CCCc2ccccc21)C(C)(C)C

> <Shape>
0.263

> <Color>
0.099

> <Negative vol penalty>
0.000

$$$$

  -OEChem-04052321053D

 87 96  0     1  0  0  0  0  0999 V2000
  -37.2626  -13.0108   23.7727 C   0  0  0  0  0  0  0  0  0  0  0  0
  -36.6807  -14.2411   23.4845 C   0  0  0  0  0  0  0  0  0  0  0  0
  -16.8113  -31.1717   17.8427 C   0  0  0  0  0  0  0  0  0  0  0  0
  -15.9822  -32.4419   19.7232 C   0  0  0  0  0  0  0  0  0  0  0  0
  -36.7998  -11.8570   23.1414 C   0  0  0  0  0  0  0  0  0  0  0  0
  -35.6361  -14.3184   22.5639 C   0  0  0  0  0  0  0  0  0  0  0  0
  -30.8406  -18.1230   22.7484 C   0  0  0  0  0  0  0  0  0  0  0  0
  -15.5179  -31.0911   17.3269 C   0  0  0  0  0  0  0  0  0  0  0  0
  -14.6887  -32.3613   19.2074 C   0  0  0  0  0  0  0  0  0  0  0  0
  -30.5780  -19.3329   22.1074 C   0  0  0  0  0  0  0  0  0  0  0  0
  -12.8684  -33.8857   16.8025 C   0  0  0  0  0  0  0  0  0  0  0  0
  -12.0999  -35.0497   16.7994 C   0  0  0  0  0  0  0  0  0  0  0  0
  -29.3461  -18.1544   20.4007 C   0  0  0  0  0  0  0  0  0  0  0  0
  -27.4644  -24.8985   19.3148 C   0  0  0  0  0  0  0  0  0  0  0  0
  -10.4540  -33.9667   18.1978 C   0  0  0  0  0  0  0  0  0  0  0  0
  -29.4502  -25.1250   18.2779 C   0  0  0  0  0  0  0  0  0  0  0  0
  -17.0434  -31.8471   19.0410 C   0  0  0  0  0  0  0  0  0  0  0  0
  -19.3355  -32.9316   19.3202 C   0  0  0  0  0  0  0  0  0  0  0  0
  -35.7426  -11.9189   22.2199 C   0  0  0  0  0  0  0  0  0  0  0  0
  -30.3664  -16.9166   22.2136 C   0  0  0  0  0  0  0  0  0  0  0  0
  -35.1596  -13.1645   21.9187 C   0  0  0  0  0  0  0  0  0  0  0  0
  -29.6018  -16.9308   21.0383 C   0  0  0  0  0  0  0  0  0  0  0  0
  -14.4566  -31.6858   18.0092 C   0  0  0  0  0  0  0  0  0  0  0  0
  -29.8331  -19.3485   20.9318 C   0  0  0  0  0  0  0  0  0  0  0  0
  -12.4298  -32.7621   17.5032 C   0  0  0  0  0  0  0  0  0  0  0  0
  -28.6067  -24.1997   18.8521 C   0  0  0  0  0  0  0  0  0  0  0  0
  -10.8927  -35.0902   17.4971 C   0  0  0  0  0  0  0  0  0  0  0  0
  -11.2226  -32.8027   18.2009 C   0  0  0  0  0  0  0  0  0  0  0  0
  -18.3793  -31.9303   19.5746 C   0  0  0  0  0  0  0  0  0  0  0  0
  -27.6446  -26.2294   19.0091 C   0  0  0  0  0  0  0  0  0  0  0  0
  -20.4311  -32.5556   20.0583 C   0  0  0  0  0  0  0  0  0  0  0  0
  -19.2418  -34.0974   18.4909 C   0  0  0  0  0  0  0  0  0  0  0  0
  -31.7263  -14.2644   21.1090 C   0  0  0  0  0  0  0  0  0  0  0  0
  -28.6578  -13.2257   20.9424 C   0  0  0  0  0  0  0  0  0  0  0  0
  -25.3441  -14.0057   20.7024 C   0  0  0  0  0  0  0  0  0  0  0  0
  -23.9717  -28.8271   21.9509 C   0  0  0  0  0  0  0  0  0  0  0  0
  -35.3081  -10.6514   21.5275 C   0  0  0  0  0  0  0  0  0  0  0  0
  -30.6356  -15.6225   22.9315 C   0  0  0  0  0  0  0  0  0  0  0  0
  -29.0526  -15.6652   20.4341 C   0  0  0  0  0  0  0  0  0  0  0  0
  -33.9477  -10.7662   20.8445 C   0  0  0  0  0  0  0  0  0  0  0  0
  -20.9535  -29.0175   23.6249 C   0  0  0  0  0  0  0  0  0  0  0  0
  -33.8629  -12.0578   20.0374 C   0  0  0  0  0  0  0  0  0  0  0  0
  -20.0827  -29.8756   22.7076 C   0  0  0  0  0  0  0  0  0  0  0  0
  -25.2515  -27.0366   19.2171 C   0  0  0  0  0  0  0  0  0  0  0  0
  -27.0741  -28.1128   20.6061 C   0  0  0  0  0  0  0  0  0  0  0  0
  -21.7922  -28.0336   22.8175 C   0  0  0  0  0  0  0  0  0  0  0  0
  -24.3465  -28.2353   19.5157 C   0  0  0  0  0  0  0  0  0  0  0  0
  -26.1391  -29.2939   20.8494 C   0  0  0  0  0  0  0  0  0  0  0  0
  -21.7982  -29.5441   20.8589 C   0  0  0  0  0  0  0  0  0  0  0  0
  -34.0079  -13.2857   20.9445 C   0  0  1  0  0  0  0  0  0  0  0  0
  -26.7414  -27.4196   19.2725 C   0  0  0  0  0  0  0  0  0  0  0  0
  -30.5398  -14.4026   22.0205 C   0  0  1  0  0  0  0  0  0  0  0  0
  -20.9318  -30.5646   21.6246 C   0  0  1  0  0  0  0  0  0  0  0  0
  -23.0761  -12.9425   20.5492 C   0  0  0  0  0  0  0  0  0  0  0  0
  -29.6100  -27.5730   16.3699 C   0  0  0  0  0  0  0  0  0  0  0  0
  -30.7369  -27.9347   18.6072 C   0  0  0  0  0  0  0  0  0  0  0  0
  -29.1831  -12.5323   18.0178 C   0  0  0  0  0  0  0  0  0  0  0  0
  -26.7066  -12.3863   17.6800 C   0  0  0  0  0  0  0  0  0  0  0  0
  -27.8408  -10.8324   19.2681 C   0  0  0  0  0  0  0  0  0  0  0  0
  -24.4504  -15.2761   23.2216 C   0  0  0  0  0  0  0  0  0  0  0  0
  -28.3598  -20.6181   19.5630 C   0  0  0  0  0  0  0  0  0  1  0  0
  -27.8730  -22.0542   19.5691 C   0  0  0  0  0  0  0  0  0  0  0  0
  -27.5706  -13.2666   19.8958 C   0  0  1  0  0  0  0  0  0  0  0  0
  -24.1350  -13.5153   21.4784 C   0  0  2  0  0  0  0  0  0  0  0  0
  -29.4311  -27.5884   17.8893 C   0  0  0  0  0  0  0  0  0  0  0  0
  -27.8371  -12.2782   18.7255 C   0  0  0  0  0  0  0  0  0  0  0  0
  -18.8280  -30.9888   20.4090 N   0  0  0  0  0  0  0  0  0  0  0  0
  -28.8550  -26.3553   18.3788 N   0  0  0  0  0  0  0  0  0  0  0  0
  -20.0783  -31.3969   20.6853 N   0  0  0  0  0  0  0  0  0  0  0  0
  -29.3481  -14.4247   21.1698 N   0  0  0  0  0  0  0  0  0  0  0  0
  -22.5807  -28.7257   21.7982 N   0  0  0  0  0  0  0  0  0  0  0  0
  -24.7381  -28.8799   20.7769 N   0  0  0  0  0  0  0  0  0  0  0  0
  -21.6522  -33.1064   20.2256 N   0  0  0  0  0  0  0  0  0  0  0  0
  -18.0439  -34.3332   17.8025 N   0  0  0  0  0  0  0  0  0  0  0  0
  -32.7711  -13.5408   21.6514 N   0  0  0  0  0  0  0  0  0  0  0  0
  -26.3155  -13.0323   20.6016 N   0  0  0  0  0  0  0  0  0  0  0  0
  -23.5264  -14.6349   22.2510 N   0  3  0  0  0  0  0  0  0  0  0  0
  -20.1978  -34.8974   18.3511 O   0  0  0  0  0  0  0  0  0  0  0  0
  -31.6955  -14.7750   19.9954 O   0  0  0  0  0  0  0  0  0  0  0  0
  -28.8813  -12.1707   21.5413 O   0  0  0  0  0  0  0  0  0  0  0  0
  -25.4177  -15.1377   20.2294 O   0  0  0  0  0  0  0  0  0  0  0  0
  -24.4985  -28.8689   23.0698 O   0  0  0  0  0  0  0  0  0  0  0  0
  -13.1943  -31.6075   17.5060 O   0  0  0  0  0  0  0  0  0  0  0  0
  -29.5741  -20.5361   20.2995 O   0  0  0  0  0  0  0  0  0  1  0  0
  -28.8588  -22.8865   18.9375 O   0  0  0  0  0  0  0  0  0  0  0  0
  -10.1555  -36.2085   17.4953 F   0  0  0  0  0  0  0  0  0  0  0  0
  -10.7966  -31.7268   18.8768 F   0  0  0  0  0  0  0  0  0  0  0  0
  1  2  1  0  0  0  0
  1  5  2  0  0  0  0
  2  6  2  0  0  0  0
  3  8  2  0  0  0  0
  3 17  1  0  0  0  0
  4  9  1  0  0  0  0
  4 17  2  0  0  0  0
  5 19  1  0  0  0  0
  6 21  1  0  0  0  0
  7 10  2  0  0  0  0
  7 20  1  0  0  0  0
  8 23  1  0  0  0  0
  9 23  2  0  0  0  0
 10 24  1  0  0  0  0
 11 12  2  0  0  0  0
 11 25  1  0  0  0  0
 12 27  1  0  0  0  0
 13 22  1  0  0  0  0
 13 24  2  0  0  0  0
 14 26  1  0  0  0  0
 14 30  2  0  0  0  0
 15 27  2  0  0  0  0
 15 28  1  0  0  0  0
 16 26  2  0  0  0  0
 16 68  1  0  0  0  0
 17 29  1  0  0  0  0
 18 29  1  0  0  0  0
 18 31  2  0  0  0  0
 18 32  1  0  0  0  0
 19 21  2  0  0  0  0
 19 37  1  0  0  0  0
 20 22  2  0  0  0  0
 20 38  1  0  0  0  0
 21 50  1  0  0  0  0
 22 39  1  0  0  0  0
 23 83  1  0  0  0  0
 24 84  1  0  0  0  0
 25 28  2  0  0  0  0
 25 83  1  0  0  0  0
 26 85  1  0  0  0  0
 27 86  1  0  0  0  0
 28 87  1  0  0  0  0
 29 67  2  0  0  0  0
 30 51  1  0  0  0  0
 30 68  1  0  0  0  0
 31 69  1  0  0  0  0
 31 73  1  0  0  0  0
 32 74  1  0  0  0  0
 32 78  2  0  0  0  0
 33 52  1  0  0  0  0
 33 75  1  0  0  0  0
 33 79  2  0  0  0  0
 34 63  1  0  0  0  0
 34 70  1  0  0  0  0
 34 80  2  0  0  0  0
 35 64  1  0  0  0  0
 35 76  1  0  0  0  0
 35 81  2  0  0  0  0
 36 71  1  0  0  0  0
 36 72  1  0  0  0  0
 36 82  2  0  0  0  0
 37 40  1  0  0  0  0
 38 52  1  0  0  0  0
 39 70  1  0  0  0  0
 40 42  1  0  0  0  0
 41 43  1  0  0  0  0
 41 46  1  0  0  0  0
 42 50  1  0  0  0  0
 43 53  1  0  0  0  0
 44 47  1  0  0  0  0
 44 51  1  0  0  0  0
 45 48  1  0  0  0  0
 45 51  1  0  0  0  0
 46 71  1  0  0  0  0
 47 72  1  0  0  0  0
 48 72  1  0  0  0  0
 49 53  1  0  0  0  0
 49 71  1  0  0  0  0
 50 75  1  0  0  0  0
 52 70  1  0  0  0  0
 53 69  1  0  0  0  0
 54 64  1  0  0  0  0
 55 65  1  0  0  0  0
 56 65  1  0  0  0  0
 57 66  1  0  0  0  0
 58 66  1  0  0  0  0
 59 66  1  0  0  0  0
 60 77  1  0  0  0  0
 61 62  1  0  0  0  0
 61 84  1  0  0  0  0
 62 85  1  0  0  0  0
 63 66  1  0  0  0  0
 63 76  1  0  0  0  0
 64 77  1  0  0  0  0
 65 68  1  0  0  0  0
 67 69  1  0  0  0  0
M  CHG  1  77   1
M  ISO  4  36 100  61 101  72 100  84 101
M  END
> <Batch ID>
0137

> <Smiles>
CNC(C)C(=O)NC(C(=O)N1Cc2cc([101O:1][101CH2:1]COc3cc(C4CC[100N:0]([100C:0](=O)N5CCCC(n6nc(-c7ccc(Oc8ccc(F)cc8F)cc7)c(C(N)=O)c6N)C5)CC4)n(C(C)C)c3)ccc2CC1C(=O)NC1CCCc2ccccc21)C(C)(C)C

> <Shape>
0.230

> <Color>
0.097

> <Negative vol penalty>
0.000

$$$$

  -OEChem-04052321053D

 86 95  0     1  0  0  0  0  0999 V2000
  -31.9012  -33.8697   19.5703 C   0  0  0  0  0  0  0  0  0  0  0  0
  -31.7411  -32.5139   19.3032 C   0  0  0  0  0  0  0  0  0  0  0  0
  -21.8500  -11.4472   23.2956 C   0  0  0  0  0  0  0  0  0  0  0  0
  -22.3016  -10.3033   21.2160 C   0  0  0  0  0  0  0  0  0  0  0  0
  -31.1887  -34.4628   20.6116 C   0  0  0  0  0  0  0  0  0  0  0  0
  -30.8689  -31.7500   20.0780 C   0  0  0  0  0  0  0  0  0  0  0  0
  -27.4145  -27.0586   18.1904 C   0  0  0  0  0  0  0  0  0  0  0  0
  -21.3171  -10.2724   23.8261 C   0  0  0  0  0  0  0  0  0  0  0  0
  -21.7687   -9.1284   21.7465 C   0  0  0  0  0  0  0  0  0  0  0  0
  -27.5889  -25.6772   18.2612 C   0  0  0  0  0  0  0  0  0  0  0  0
  -22.7635   -6.6651   23.8353 C   0  0  0  0  0  0  0  0  0  0  0  0
  -23.4713   -5.4817   23.6255 C   0  0  0  0  0  0  0  0  0  0  0  0
  -28.0445  -18.7536   18.9305 C   0  0  0  0  0  0  0  0  0  0  0  0
  -26.2521  -25.6174   20.2684 C   0  0  0  0  0  0  0  0  0  0  0  0
  -27.2278  -20.7034   17.7650 C   0  0  0  0  0  0  0  0  0  0  0  0
  -21.5680   -4.5490   22.4659 C   0  0  0  0  0  0  0  0  0  0  0  0
  -22.3422  -11.4627   21.9905 C   0  0  0  0  0  0  0  0  0  0  0  0
  -24.2325  -13.1032   21.4975 C   0  0  0  0  0  0  0  0  0  0  0  0
  -30.3001  -33.7080   21.3935 C   0  0  0  0  0  0  0  0  0  0  0  0
  -26.6654  -27.7324   19.1657 C   0  0  0  0  0  0  0  0  0  0  0  0
  -30.1448  -32.3333   21.1316 C   0  0  0  0  0  0  0  0  0  0  0  0
  -28.8543  -19.5542   19.7523 C   0  0  0  0  0  0  0  0  0  0  0  0
  -26.0676  -27.0071   20.2062 C   0  0  0  0  0  0  0  0  0  0  0  0
  -28.8069  -20.9546   19.5938 C   0  0  0  0  0  0  0  0  0  0  0  0
  -28.0067  -21.5156   18.5864 C   0  0  0  0  0  0  0  0  0  0  0  0
  -27.2419  -19.3238   17.9414 C   0  0  0  0  0  0  0  0  0  0  0  0
  -21.2765   -9.1130   23.0516 C   0  0  0  0  0  0  0  0  0  0  0  0
  -27.0101  -24.9568   19.3019 C   0  0  0  0  0  0  0  0  0  0  0  0
  -21.4579   -6.7905   23.3606 C   0  0  0  0  0  0  0  0  0  0  0  0
  -22.8736   -4.4236   22.9407 C   0  0  0  0  0  0  0  0  0  0  0  0
  -20.8602   -5.7325   22.6758 C   0  0  0  0  0  0  0  0  0  0  0  0
  -22.8923  -12.6761   21.4417 C   0  0  0  0  0  0  0  0  0  0  0  0
  -24.2372  -14.3067   20.8356 C   0  0  0  0  0  0  0  0  0  0  0  0
  -25.3714  -12.4688   22.0943 C   0  0  0  0  0  0  0  0  0  0  0  0
  -27.2930  -29.9907   21.3127 C   0  0  0  0  0  0  0  0  0  0  0  0
  -24.0903  -29.8609   21.8107 C   0  0  0  0  0  0  0  0  0  0  0  0
  -21.1978  -28.0609   21.6107 C   0  0  0  0  0  0  0  0  0  0  0  0
  -22.6854  -17.4979   16.5283 C   0  0  0  0  0  0  0  0  0  0  0  0
  -29.5874  -34.3829   22.5385 C   0  0  0  0  0  0  0  0  0  0  0  0
  -26.4643  -29.2193   19.0601 C   0  0  0  0  0  0  0  0  0  0  0  0
  -29.6420  -21.8682   20.4569 C   0  0  0  0  0  0  0  0  0  0  0  0
  -25.2371  -27.6804   21.2671 C   0  0  0  0  0  0  0  0  0  0  0  0
  -28.4012  -33.5845   23.0731 C   0  0  0  0  0  0  0  0  0  0  0  0
  -20.4082  -17.2068   19.2498 C   0  0  0  0  0  0  0  0  0  0  0  0
  -28.7861  -32.1211   23.2658 C   0  0  0  0  0  0  0  0  0  0  0  0
  -20.9585  -16.0339   20.0632 C   0  0  0  0  0  0  0  0  0  0  0  0
  -20.5913  -16.9882   17.7495 C   0  0  0  0  0  0  0  0  0  0  0  0
  -22.5226  -15.5094   18.1457 C   0  0  0  0  0  0  0  0  0  0  0  0
  -30.0321  -21.2288   21.7796 C   0  0  0  0  0  0  0  0  0  0  0  0
  -29.1895  -31.4767   21.9340 C   0  0  1  0  0  0  0  0  0  0  0  0
  -29.7066  -18.9292   20.8405 C   0  0  1  0  0  0  0  0  0  0  0  0
  -26.1105  -29.8706   20.3936 C   0  0  1  0  0  0  0  0  0  0  0  0
  -22.4113  -15.7092   19.6668 C   0  0  2  0  0  0  0  0  0  0  0  0
  -30.5608  -17.7531   20.3637 C   0  0  0  0  0  0  0  0  0  0  0  0
  -18.7468  -28.2070   22.1292 C   0  0  0  0  0  0  0  0  0  0  0  0
  -24.6941  -29.4392   24.7717 C   0  0  0  0  0  0  0  0  0  0  0  0
  -22.3345  -28.6570   25.0699 C   0  0  0  0  0  0  0  0  0  0  0  0
  -22.7867  -30.9883   24.3063 C   0  0  0  0  0  0  0  0  0  0  0  0
  -20.4568  -27.7078   18.7673 C   0  0  0  0  0  0  0  0  0  0  0  0
  -27.9619  -22.9965   18.3494 C   0  0  0  0  0  0  0  0  0  1  0  0
  -25.5984  -19.0162   16.0893 C   0  0  0  0  0  0  0  0  0  0  0  0
  -24.8554  -17.8886   15.3892 C   0  0  0  0  0  0  0  0  0  0  0  0
  -23.1803  -29.0643   22.7141 C   0  0  1  0  0  0  0  0  0  0  0  0
  -19.8231  -28.4197   21.0760 C   0  0  2  0  0  0  0  0  0  0  0  0
  -23.2661  -29.5245   24.1968 C   0  0  0  0  0  0  0  0  0  0  0  0
  -22.1029  -13.5382   20.7955 N   0  0  0  0  0  0  0  0  0  0  0  0
  -22.9496  -14.5191   20.4393 N   0  0  0  0  0  0  0  0  0  0  0  0
  -25.0749  -29.1367   21.1239 N   0  0  0  0  0  0  0  0  0  0  0  0
  -21.9909  -16.6861   17.4403 N   0  0  0  0  0  0  0  0  0  0  0  0
  -25.2171  -15.1933   20.5598 N   0  0  0  0  0  0  0  0  0  0  0  0
  -25.1900  -11.2352   22.7344 N   0  0  0  0  0  0  0  0  0  0  0  0
  -26.4435  -18.4996   17.1209 N   0  0  0  0  0  0  0  0  0  0  0  0
  -28.0152  -31.1577   21.1507 N   0  0  0  0  0  0  0  0  0  0  0  0
  -21.8446  -29.1600   22.1351 N   0  0  0  0  0  0  0  0  0  0  0  0
  -24.0094  -17.1459   16.2966 N   0  0  0  0  0  0  0  0  0  0  0  0
  -30.6586  -19.9083   21.4897 N   0  3  0  0  0  0  0  0  0  0  0  0
  -19.4929  -27.5793   19.8904 N   0  3  0  0  0  0  0  0  0  0  0  0
  -26.5129  -12.9886   22.0753 O   0  0  0  0  0  0  0  0  0  0  0  0
  -27.5317  -29.0920   22.1108 O   0  0  0  0  0  0  0  0  0  0  0  0
  -23.9288  -31.0799   21.7124 O   0  0  0  0  0  0  0  0  0  0  0  0
  -21.6509  -26.9192   21.5708 O   0  0  0  0  0  0  0  0  0  0  0  0
  -22.1656  -18.4680   15.9664 O   0  0  0  0  0  0  0  0  0  0  0  0
  -20.7568   -7.9664   23.5691 O   0  0  0  0  0  0  0  0  0  0  0  0
  -27.1794  -23.6084   19.3739 O   0  0  0  0  0  0  0  0  0  1  0  0
  -23.5539   -3.2878   22.7379 F   0  0  0  0  0  0  0  0  0  0  0  0
  -19.6066   -5.8475   22.2163 F   0  0  0  0  0  0  0  0  0  0  0  0
  1  2  1  0  0  0  0
  1  5  2  0  0  0  0
  2  6  2  0  0  0  0
  3  8  2  0  0  0  0
  3 17  1  0  0  0  0
  4  9  1  0  0  0  0
  4 17  2  0  0  0  0
  5 19  1  0  0  0  0
  6 21  1  0  0  0  0
  7 10  2  0  0  0  0
  7 20  1  0  0  0  0
  8 27  1  0  0  0  0
  9 27  2  0  0  0  0
 10 28  1  0  0  0  0
 11 12  2  0  0  0  0
 11 29  1  0  0  0  0
 12 30  1  0  0  0  0
 13 22  2  0  0  0  0
 13 26  1  0  0  0  0
 14 23  1  0  0  0  0
 14 28  2  0  0  0  0
 15 25  1  0  0  0  0
 15 26  2  0  0  0  0
 16 30  2  0  0  0  0
 16 31  1  0  0  0  0
 17 32  1  0  0  0  0
 18 32  1  0  0  0  0
 18 33  2  0  0  0  0
 18 34  1  0  0  0  0
 19 21  2  0  0  0  0
 19 39  1  0  0  0  0
 20 23  2  0  0  0  0
 20 40  1  0  0  0  0
 21 50  1  0  0  0  0
 22 24  1  0  0  0  0
 22 51  1  0  0  0  0
 23 42  1  0  0  0  0
 24 25  2  0  0  0  0
 24 41  1  0  0  0  0
 25 60  1  0  0  0  0
 26 72  1  0  0  0  0
 27 83  1  0  0  0  0
 28 84  1  0  0  0  0
 29 31  2  0  0  0  0
 29 83  1  0  0  0  0
 30 85  1  0  0  0  0
 31 86  1  0  0  0  0
 32 66  2  0  0  0  0
 33 67  1  0  0  0  0
 33 70  1  0  0  0  0
 34 71  1  0  0  0  0
 34 78  2  0  0  0  0
 35 52  1  0  0  0  0
 35 73  1  0  0  0  0
 35 79  2  0  0  0  0
 36 63  1  0  0  0  0
 36 68  1  0  0  0  0
 36 80  2  0  0  0  0
 37 64  1  0  0  0  0
 37 74  1  0  0  0  0
 37 81  2  0  0  0  0
 38 69  1  0  0  0  0
 38 75  1  0  0  0  0
 38 82  2  0  0  0  0
 39 43  1  0  0  0  0
 40 52  1  0  0  0  0
 41 49  1  0  0  0  0
 42 68  1  0  0  0  0
 43 45  1  0  0  0  0
 44 46  1  0  0  0  0
 44 47  1  0  0  0  0
 45 50  1  0  0  0  0
 46 53  1  0  0  0  0
 47 69  1  0  0  0  0
 48 53  1  0  0  0  0
 48 69  1  0  0  0  0
 49 76  1  0  0  0  0
 50 73  1  0  0  0  0
 51 54  1  0  0  0  0
 51 76  1  0  0  0  0
 52 68  1  0  0  0  0
 53 67  1  0  0  0  0
 55 64  1  0  0  0  0
 56 65  1  0  0  0  0
 57 65  1  0  0  0  0
 58 65  1  0  0  0  0
 59 77  1  0  0  0  0
 60 84  1  0  0  0  0
 61 62  1  0  0  0  0
 61 72  1  0  0  0  0
 62 75  1  0  0  0  0
 63 65  1  0  0  0  0
 63 74  1  0  0  0  0
 64 77  1  0  0  0  0
 66 67  1  0  0  0  0
M  CHG  2  76   1  77   1
M  ISO  4  38 100  60 101  75 100  84 101
M  END
> <Batch ID>
0137

> <Smiles>
CNC(C)C(=O)NC(C(=O)N1Cc2cc([101O:1][101CH2:1]c3cc(NCC[100NH:0][100C:0](=O)N4CCCC(n5nc(-c6ccc(Oc7ccc(F)cc7F)cc6)c(C(N)=O)c5N)C4)cc4c3CCNC4C)ccc2CC1C(=O)NC1CCCc2ccccc21)C(C)(C)C

> <Shape>
0.230

> <Color>
0.084

> <Negative vol penalty>
0.000

$$$$

  -OEChem-04052321052D

  0  0  0     0  0  0  0  0  0999 V2000
M  END
$$$$

  -OEChem-04052321053D

 83 92  0     1  0  0  0  0  0999 V2000
  -27.8184  -38.3413   23.4549 C   0  0  0  0  0  0  0  0  0  0  0  0
  -28.5414  -37.1849   23.7298 C   0  0  0  0  0  0  0  0  0  0  0  0
  -30.0290  -12.0907   20.0155 C   0  0  0  0  0  0  0  0  0  0  0  0
  -30.7301  -13.8407   21.5265 C   0  0  0  0  0  0  0  0  0  0  0  0
  -26.4378  -38.3613   23.6479 C   0  0  0  0  0  0  0  0  0  0  0  0
  -27.8841  -36.0481   24.1990 C   0  0  0  0  0  0  0  0  0  0  0  0
  -28.2154  -29.8200   20.5945 C   0  0  0  0  0  0  0  0  0  0  0  0
  -27.0449  -23.5494   18.8189 C   0  0  0  0  0  0  0  0  0  0  0  0
  -27.3735  -22.3542   18.1793 C   0  0  0  0  0  0  0  0  0  0  0  0
  -31.1494  -11.3381   20.3672 C   0  0  0  0  0  0  0  0  0  0  0  0
  -31.8506  -13.0880   21.8783 C   0  0  0  0  0  0  0  0  0  0  0  0
  -28.4038  -28.5394   20.0743 C   0  0  0  0  0  0  0  0  0  0  0  0
  -33.6353   -8.7996   21.1363 C   0  0  0  0  0  0  0  0  0  0  0  0
  -33.4489   -7.4421   21.3969 C   0  0  0  0  0  0  0  0  0  0  0  0
  -26.9005  -27.6313   21.7367 C   0  0  0  0  0  0  0  0  0  0  0  0
  -28.4575  -22.9406   20.6820 C   0  0  0  0  0  0  0  0  0  0  0  0
  -31.9277   -7.9954   23.1905 C   0  0  0  0  0  0  0  0  0  0  0  0
  -29.8194  -13.3421   20.5951 C   0  0  0  0  0  0  0  0  0  0  0  0
  -27.3958  -14.0979   20.8457 C   0  0  0  0  0  0  0  0  0  0  0  0
  -25.7619  -37.2212   24.1106 C   0  0  0  0  0  0  0  0  0  0  0  0
  -27.3558  -30.0135   21.6794 C   0  0  0  0  0  0  0  0  0  0  0  0
  -26.4933  -36.0533   24.3997 C   0  0  0  0  0  0  0  0  0  0  0  0
  -26.6982  -28.9135   22.2542 C   0  0  0  0  0  0  0  0  0  0  0  0
  -27.5870  -23.8426   20.0703 C   0  0  0  0  0  0  0  0  0  0  0  0
  -28.2440  -21.4522   18.7910 C   0  0  0  0  0  0  0  0  0  0  0  0
  -32.0602  -11.8367   21.2986 C   0  0  0  0  0  0  0  0  0  0  0  0
  -27.7482  -27.4477   20.6442 C   0  0  0  0  0  0  0  0  0  0  0  0
  -32.9680   -9.7550   21.9028 C   0  0  0  0  0  0  0  0  0  0  0  0
  -28.7860  -21.7453   20.0424 C   0  0  0  0  0  0  0  0  0  0  0  0
  -32.5951   -7.0399   22.4240 C   0  0  0  0  0  0  0  0  0  0  0  0
  -32.1142   -9.3529   22.9299 C   0  0  0  0  0  0  0  0  0  0  0  0
  -28.6624  -14.1203   20.2317 C   0  0  0  0  0  0  0  0  0  0  0  0
  -26.6538  -15.0097   20.1354 C   0  0  0  0  0  0  0  0  0  0  0  0
  -26.9315  -13.3223   21.9586 C   0  0  0  0  0  0  0  0  0  0  0  0
  -25.7937  -32.4395   24.0774 C   0  0  0  0  0  0  0  0  0  0  0  0
  -23.6113  -30.4313   23.2933 C   0  0  0  0  0  0  0  0  0  0  0  0
  -21.3928  -28.2760   21.8545 C   0  0  0  0  0  0  0  0  0  0  0  0
  -28.1060  -19.8094   16.8860 C   0  0  0  0  0  0  0  0  0  0  0  0
  -24.2751  -37.3055   24.3488 C   0  0  0  0  0  0  0  0  0  0  0  0
  -27.1705  -31.3664   22.3112 C   0  0  0  0  0  0  0  0  0  0  0  0
  -25.8098  -29.1644   23.4419 C   0  0  0  0  0  0  0  0  0  0  0  0
  -23.6029  -35.9424   24.4923 C   0  0  0  0  0  0  0  0  0  0  0  0
  -26.2882  -16.9566   15.7753 C   0  0  0  0  0  0  0  0  0  0  0  0
  -24.4036  -35.0489   25.4343 C   0  0  0  0  0  0  0  0  0  0  0  0
  -29.2137  -18.0367   23.1154 C   0  0  0  0  0  0  0  0  0  0  0  0
  -29.0263  -17.7759   21.6469 C   0  0  0  0  0  0  0  0  0  0  0  0
  -26.5705  -15.9053   16.8511 C   0  0  0  0  0  0  0  0  0  0  0  0
  -27.5100  -17.8324   15.5037 C   0  0  0  0  0  0  0  0  0  0  0  0
  -28.3827  -17.4093   17.7683 C   0  0  0  0  0  0  0  0  0  0  0  0
  -25.8128  -34.7923   24.8865 C   0  0  1  0  0  0  0  0  0  0  0  0
  -25.7424  -31.5963   22.8374 C   0  0  1  0  0  0  0  0  0  0  0  0
  -29.8077  -18.9767   22.1032 C   0  0  0  0  0  0  0  0  0  0  0  0
  -27.1616  -16.5450   18.1228 C   0  0  2  0  0  0  0  0  0  0  0  0
  -18.9693  -27.6262   21.8946 C   0  0  0  0  0  0  0  0  0  0  0  0
  -24.0546  -28.9546   25.9252 C   0  0  0  0  0  0  0  0  0  0  0  0
  -22.0058  -27.6034   25.4302 C   0  0  0  0  0  0  0  0  0  0  0  0
  -21.8281  -30.0747   25.7192 C   0  0  0  0  0  0  0  0  0  0  0  0
  -21.0337  -28.9932   19.0058 C   0  0  0  0  0  0  0  0  0  0  0  0
  -27.2332  -25.1284   20.7581 C   0  0  0  0  0  0  0  0  0  1  0  0
  -29.2379  -20.3682   21.9279 C   0  0  0  0  0  0  0  0  0  0  0  0
  -22.8973  -29.1454   23.6251 C   0  0  1  0  0  0  0  0  0  0  0  0
  -20.0245  -28.5019   21.2371 C   0  0  2  0  0  0  0  0  0  0  0  0
  -22.7182  -28.9452   25.1565 C   0  0  0  0  0  0  0  0  0  0  0  0
  -28.7251  -14.9782   19.2099 N   0  0  0  0  0  0  0  0  0  0  0  0
  -27.4885  -15.5033   19.1763 N   0  0  0  0  0  0  0  0  0  0  0  0
  -25.0087  -30.3788   23.2226 N   0  0  0  0  0  0  0  0  0  0  0  0
  -28.0126  -18.4079   16.7531 N   0  0  0  0  0  0  0  0  0  0  0  0
  -25.3753  -15.4293   20.2439 N   0  0  0  0  0  0  0  0  0  0  0  0
  -27.8245  -12.4334   22.5725 N   0  0  0  0  0  0  0  0  0  0  0  0
  -28.5663  -20.2412   18.1296 N   0  0  0  0  0  0  0  0  0  0  0  0
  -25.7730  -33.7996   23.8342 N   0  0  0  0  0  0  0  0  0  0  0  0
  -21.6462  -29.1680   22.8751 N   0  0  0  0  0  0  0  0  0  0  0  0
  -20.0552  -28.1876   19.7807 N   0  3  0  0  0  0  0  0  0  0  0  0
  -25.7547  -13.4028   22.3854 O   0  0  0  0  0  0  0  0  0  0  0  0
  -25.8466  -31.8972   25.1751 O   0  0  0  0  0  0  0  0  0  0  0  0
  -22.9509  -31.4572   23.1071 O   0  0  0  0  0  0  0  0  0  0  0  0
  -22.1586  -27.3939   21.4724 O   0  0  0  0  0  0  0  0  0  0  0  0
  -27.7744  -20.5714   15.9742 O   0  0  0  0  0  0  0  0  0  0  0  0
  -33.1535  -11.1024   21.6422 O   0  0  0  0  0  0  0  0  0  0  0  0
  -27.9331  -26.2009   20.1286 O   0  0  0  0  0  0  0  0  0  1  0  0
  -29.6381  -20.8772   20.6575 O   0  0  0  0  0  0  0  0  0  0  0  0
  -32.4149   -5.7362   22.6732 F   0  0  0  0  0  0  0  0  0  0  0  0
  -31.4694  -10.2662   23.6689 F   0  0  0  0  0  0  0  0  0  0  0  0
  1  2  1  0  0  0  0
  1  5  2  0  0  0  0
  2  6  2  0  0  0  0
  3 10  2  0  0  0  0
  3 18  1  0  0  0  0
  4 11  1  0  0  0  0
  4 18  2  0  0  0  0
  5 20  1  0  0  0  0
  6 22  1  0  0  0  0
  7 12  2  0  0  0  0
  7 21  1  0  0  0  0
  8  9  2  0  0  0  0
  8 24  1  0  0  0  0
  9 25  1  0  0  0  0
 10 26  1  0  0  0  0
 11 26  2  0  0  0  0
 12 27  1  0  0  0  0
 13 14  2  0  0  0  0
 13 28  1  0  0  0  0
 14 30  1  0  0  0  0
 15 23  1  0  0  0  0
 15 27  2  0  0  0  0
 16 24  2  0  0  0  0
 16 29  1  0  0  0  0
 17 30  2  0  0  0  0
 17 31  1  0  0  0  0
 18 32  1  0  0  0  0
 19 32  1  0  0  0  0
 19 33  2  0  0  0  0
 19 34  1  0  0  0  0
 20 22  2  0  0  0  0
 20 39  1  0  0  0  0
 21 23  2  0  0  0  0
 21 40  1  0  0  0  0
 22 50  1  0  0  0  0
 23 41  1  0  0  0  0
 24 59  1  0  0  0  0
 25 29  2  0  0  0  0
 25 70  1  0  0  0  0
 26 79  1  0  0  0  0
 27 80  1  0  0  0  0
 28 31  2  0  0  0  0
 28 79  1  0  0  0  0
 29 81  1  0  0  0  0
 30 82  1  0  0  0  0
 31 83  1  0  0  0  0
 32 64  2  0  0  0  0
 33 65  1  0  0  0  0
 33 68  1  0  0  0  0
 34 69  1  0  0  0  0
 34 74  2  0  0  0  0
 35 51  1  0  0  0  0
 35 71  1  0  0  0  0
 35 75  2  0  0  0  0
 36 61  1  0  0  0  0
 36 66  1  0  0  0  0
 36 76  2  0  0  0  0
 37 62  1  0  0  0  0
 37 72  1  0  0  0  0
 37 77  2  0  0  0  0
 38 67  1  0  0  0  0
 38 70  1  0  0  0  0
 38 78  2  0  0  0  0
 39 42  1  0  0  0  0
 40 51  1  0  0  0  0
 41 66  1  0  0  0  0
 42 44  1  0  0  0  0
 43 47  1  0  0  0  0
 43 48  1  0  0  0  0
 44 50  1  0  0  0  0
 45 46  1  0  0  0  0
 45 52  1  0  0  0  0
 46 52  1  0  0  0  0
 47 53  1  0  0  0  0
 48 67  1  0  0  0  0
 49 53  1  0  0  0  0
 49 67  1  0  0  0  0
 50 71  1  0  0  0  0
 51 66  1  0  0  0  0
 52 60  1  0  0  0  0
 53 65  1  0  0  0  0
 54 62  1  0  0  0  0
 55 63  1  0  0  0  0
 56 63  1  0  0  0  0
 57 63  1  0  0  0  0
 58 73  1  0  0  0  0
 59 80  1  0  0  0  0
 60 81  1  0  0  0  0
 61 63  1  0  0  0  0
 61 72  1  0  0  0  0
 62 73  1  0  0  0  0
 64 65  1  0  0  0  0
M  CHG  1  73   1
M  ISO  4  38 100  59 101  70 100  80 101
M  END
> <Batch ID>
0137

> <Smiles>
CNC(C)C(=O)NC(C(=O)N1Cc2cc([101O:1][101CH2:1]c3ccc([100NH:0][100C:0](=O)N4CCCC(n5nc(-c6ccc(Oc7ccc(F)cc7F)cc6)c(C(N)=O)c5N)C4)c(OCC4CC4)c3)ccc2CC1C(=O)NC1CCCc2ccccc21)C(C)(C)C

> <Shape>
0.257

> <Color>
0.094

> <Negative vol penalty>
0.000

$$$$

  -OEChem-04052321053D

 89 99  0     1  0  0  0  0  0999 V2000
  -31.7141  -27.5575   19.3032 C   0  0  0  0  0  0  0  0  0  0  0  0
  -30.5530  -27.6079   18.5386 C   0  0  0  0  0  0  0  0  0  0  0  0
  -25.6727  -15.3051   21.4436 C   0  0  0  0  0  0  0  0  0  0  0  0
  -25.1475  -16.2385   19.2780 C   0  0  0  0  0  0  0  0  0  0  0  0
  -31.6430  -27.2257   20.6555 C   0  0  0  0  0  0  0  0  0  0  0  0
  -29.3201  -27.3254   19.1256 C   0  0  0  0  0  0  0  0  0  0  0  0
  -27.2510  -25.2714   14.1059 C   0  0  0  0  0  0  0  0  0  0  0  0
  -25.7292  -30.6381   17.7927 C   0  0  0  0  0  0  0  0  0  0  0  0
  -28.3375  -24.5702   14.6287 C   0  0  0  0  0  0  0  0  0  0  0  0
  -24.4079  -14.7196   21.4980 C   0  0  0  0  0  0  0  0  0  0  0  0
  -23.8826  -15.6530   19.3324 C   0  0  0  0  0  0  0  0  0  0  0  0
  -25.1561  -30.4827   16.5313 C   0  0  0  0  0  0  0  0  0  0  0  0
  -21.4492  -12.6800   22.0463 C   0  0  0  0  0  0  0  0  0  0  0  0
  -21.3661  -11.3537   22.4702 C   0  0  0  0  0  0  0  0  0  0  0  0
  -23.2550  -29.3896   17.5365 C   0  0  0  0  0  0  0  0  0  0  0  0
  -27.0083  -22.5535   14.6865 C   0  0  0  0  0  0  0  0  0  0  0  0
  -22.7781  -10.6772   20.6301 C   0  0  0  0  0  0  0  0  0  0  0  0
  -26.0425  -16.0646   20.3336 C   0  0  0  0  0  0  0  0  0  0  0  0
  -28.5930  -16.0127   20.3175 C   0  0  0  0  0  0  0  0  0  0  0  0
  -30.4076  -26.9485   21.2617 C   0  0  0  0  0  0  0  0  0  0  0  0
  -25.0735  -30.1599   18.9363 C   0  0  0  0  0  0  0  0  0  0  0  0
  -29.2326  -26.9883   20.4870 C   0  0  0  0  0  0  0  0  0  0  0  0
  -26.0430  -24.6137   13.8735 C   0  0  0  0  0  0  0  0  0  0  0  0
  -23.8208  -29.5425   18.8115 C   0  0  0  0  0  0  0  0  0  0  0  0
  -28.2162  -23.2113   14.9189 C   0  0  0  0  0  0  0  0  0  0  0  0
  -25.9217  -23.2548   14.1638 C   0  0  0  0  0  0  0  0  0  0  0  0
  -23.5128  -14.8935   20.4425 C   0  0  0  0  0  0  0  0  0  0  0  0
  -23.9202  -29.8557   16.4028 C   0  0  0  0  0  0  0  0  0  0  0  0
  -22.1965  -13.0049   20.9143 C   0  0  0  0  0  0  0  0  0  0  0  0
  -22.0306  -10.3523   21.7621 C   0  0  0  0  0  0  0  0  0  0  0  0
  -22.8610  -12.0035   20.2062 C   0  0  0  0  0  0  0  0  0  0  0  0
  -27.3488  -16.6701   20.2770 C   0  0  0  0  0  0  0  0  0  0  0  0
  -29.5185  -17.0240   20.2327 C   0  0  0  0  0  0  0  0  0  0  0  0
  -28.8859  -14.6131   20.4224 C   0  0  0  0  0  0  0  0  0  0  0  0
  -25.7425  -27.9945   21.1650 C   0  0  0  0  0  0  0  0  0  0  0  0
  -23.0288  -29.1316   22.5307 C   0  0  0  0  0  0  0  0  0  0  0  0
  -20.0312  -30.7149   22.1375 C   0  0  0  0  0  0  0  0  0  0  0  0
  -29.3137  -22.5585   17.9572 C   0  0  0  0  0  0  0  0  0  0  0  0
  -30.3859  -26.5483   22.7157 C   0  0  0  0  0  0  0  0  0  0  0  0
  -25.6927  -30.3593   20.2925 C   0  0  0  0  0  0  0  0  0  0  0  0
  -23.0665  -29.0297   20.0100 C   0  0  0  0  0  0  0  0  0  0  0  0
  -28.9993  -26.6289   23.3490 C   0  0  0  0  0  0  0  0  0  0  0  0
  -30.1209  -21.6481   21.3032 C   0  0  0  0  0  0  0  0  0  0  0  0
  -27.9587  -25.9831   22.4396 C   0  0  0  0  0  0  0  0  0  0  0  0
  -21.5366  -28.7670   11.2053 C   0  0  0  0  0  0  0  0  0  0  0  0
  -20.5630  -29.2492   12.2442 C   0  0  0  0  0  0  0  0  0  0  0  0
  -29.6143  -20.2097   21.4233 C   0  0  0  0  0  0  0  0  0  0  0  0
  -25.1508  -26.0274   11.9443 C   0  0  0  0  0  0  0  0  0  0  0  0
  -29.2010  -22.4995   20.4311 C   0  0  0  0  0  0  0  0  0  0  0  0
  -28.4194  -20.5046   19.2133 C   0  0  0  0  0  0  0  0  0  0  0  0
  -24.0050  -27.0081   11.8081 C   0  0  0  0  0  0  0  0  0  0  0  0
  -24.4292  -26.5681   14.1776 C   0  0  0  0  0  0  0  0  0  0  0  0
  -24.8815  -25.3931   13.3072 C   0  0  2  0  0  0  0  0  0  0  0  0
  -27.8738  -26.7126   21.0935 C   0  0  1  0  0  0  0  0  0  0  0  0
  -25.1745  -29.3750   21.3365 C   0  0  1  0  0  0  0  0  0  0  0  0
  -22.0266  -29.1508   12.5740 C   0  0  0  0  0  0  0  0  0  0  0  0
  -29.3443  -19.5928   20.0377 C   0  0  2  0  0  0  0  0  0  0  0  0
  -24.6382  -22.5296   13.9238 C   0  0  0  0  0  0  0  0  0  0  0  0
  -18.0161  -31.4668   23.4302 C   0  0  0  0  0  0  0  0  0  0  0  0
  -22.0220  -26.2530   22.6311 C   0  0  0  0  0  0  0  0  0  0  0  0
  -19.7161  -27.1466   23.0216 C   0  0  0  0  0  0  0  0  0  0  0  0
  -21.5258  -27.6037   24.6766 C   0  0  0  0  0  0  0  0  0  0  0  0
  -20.5043  -33.5539   21.4482 C   0  0  0  0  0  0  0  0  0  0  0  0
  -29.3778  -22.4617   15.4781 C   0  0  0  0  0  0  0  0  0  0  0  0
  -22.5158  -28.5669   14.9806 C   0  0  0  0  0  0  0  0  0  1  0  0
  -21.5618  -28.7865   22.4424 C   0  0  1  0  0  0  0  0  0  0  0  0
  -19.3876  -31.8575   22.9021 C   0  0  2  0  0  0  0  0  0  0  0  0
  -22.5178  -28.0978   13.5245 C   0  0  2  0  0  0  0  0  0  0  0  0
  -21.2213  -27.4553   23.1699 C   0  0  0  0  0  0  0  0  0  0  0  0
  -27.4694  -17.9964   20.1746 N   0  0  0  0  0  0  0  0  0  0  0  0
  -28.8004  -18.1806   20.1501 N   0  0  0  0  0  0  0  0  0  0  0  0
  -23.7164  -29.2426   21.3138 N   0  0  0  0  0  0  0  0  0  0  0  0
  -28.9868  -21.8596   19.1309 N   0  0  0  0  0  0  0  0  0  0  0  0
  -30.8684  -17.0278   20.2216 N   0  0  0  0  0  0  0  0  0  0  0  0
  -29.0127  -13.8669   19.2428 N   0  0  0  0  0  0  0  0  0  0  0  0
  -27.1217  -27.9414   21.2311 N   0  0  0  0  0  0  0  0  0  0  0  0
  -20.8381  -29.9470   22.9502 N   0  0  0  0  0  0  0  0  0  0  0  0
  -29.0856  -21.8771   16.7679 N   0  0  0  0  0  0  0  0  0  0  0  0
  -23.8860  -27.5940   13.1962 N   0  3  2  0  0  0  0  0  0  0  0  0
  -19.2297  -33.0477   22.0192 N   0  3  0  0  0  0  0  0  0  0  0  0
  -29.0146  -14.0379   21.5296 O   0  0  0  0  0  0  0  0  0  0  0  0
  -24.9853  -27.0474   20.9875 O   0  0  0  0  0  0  0  0  0  0  0  0
  -23.5439  -29.3037   23.6382 O   0  0  0  0  0  0  0  0  0  0  0  0
  -19.8346  -30.5206   20.9399 O   0  0  0  0  0  0  0  0  0  0  0  0
  -29.7798  -23.7029   17.9684 O   0  0  0  0  0  0  0  0  0  0  0  0
  -22.2786  -14.3222   20.4952 O   0  0  0  0  0  0  0  0  0  0  0  0
  -23.3588  -29.7021   15.1727 O   0  0  0  0  0  0  0  0  0  1  0  0
  -21.9521   -9.0789   22.1702 F   0  0  0  0  0  0  0  0  0  0  0  0
  -23.5815  -12.3097   19.1186 F   0  0  0  0  0  0  0  0  0  0  0  0
  1  2  1  0  0  0  0
  1  5  2  0  0  0  0
  2  6  2  0  0  0  0
  3 10  2  0  0  0  0
  3 18  1  0  0  0  0
  4 11  1  0  0  0  0
  4 18  2  0  0  0  0
  5 20  1  0  0  0  0
  6 22  1  0  0  0  0
  7  9  2  0  0  0  0
  7 23  1  0  0  0  0
  8 12  2  0  0  0  0
  8 21  1  0  0  0  0
  9 25  1  0  0  0  0
 10 27  1  0  0  0  0
 11 27  2  0  0  0  0
 12 28  1  0  0  0  0
 13 14  2  0  0  0  0
 13 29  1  0  0  0  0
 14 30  1  0  0  0  0
 15 24  1  0  0  0  0
 15 28  2  0  0  0  0
 16 25  2  0  0  0  0
 16 26  1  0  0  0  0
 17 30  2  0  0  0  0
 17 31  1  0  0  0  0
 18 32  1  0  0  0  0
 19 32  1  0  0  0  0
 19 33  2  0  0  0  0
 19 34  1  0  0  0  0
 20 22  2  0  0  0  0
 20 39  1  0  0  0  0
 21 24  2  0  0  0  0
 21 40  1  0  0  0  0
 22 54  1  0  0  0  0
 23 26  2  0  0  0  0
 23 53  1  0  0  0  0
 24 41  1  0  0  0  0
 25 64  1  0  0  0  0
 26 58  1  0  0  0  0
 27 86  1  0  0  0  0
 28 87  1  0  0  0  0
 29 31  2  0  0  0  0
 29 86  1  0  0  0  0
 30 88  1  0  0  0  0
 31 89  1  0  0  0  0
 32 70  2  0  0  0  0
 33 71  1  0  0  0  0
 33 74  1  0  0  0  0
 34 75  1  0  0  0  0
 34 81  2  0  0  0  0
 35 55  1  0  0  0  0
 35 76  1  0  0  0  0
 35 82  2  0  0  0  0
 36 66  1  0  0  0  0
 36 72  1  0  0  0  0
 36 83  2  0  0  0  0
 37 67  1  0  0  0  0
 37 77  1  0  0  0  0
 37 84  2  0  0  0  0
 38 73  1  0  0  0  0
 38 78  1  0  0  0  0
 38 85  2  0  0  0  0
 39 42  1  0  0  0  0
 40 55  1  0  0  0  0
 41 72  1  0  0  0  0
 42 44  1  0  0  0  0
 43 47  1  0  0  0  0
 43 49  1  0  0  0  0
 44 54  1  0  0  0  0
 45 46  1  0  0  0  0
 45 56  1  0  0  0  0
 46 56  1  0  0  0  0
 47 57  1  0  0  0  0
 48 51  1  0  0  0  0
 48 53  1  0  0  0  0
 49 73  1  0  0  0  0
 50 57  1  0  0  0  0
 50 73  1  0  0  0  0
 51 79  1  0  0  0  0
 52 53  1  0  0  0  0
 52 79  1  0  0  0  0
 54 76  1  0  0  0  0
 55 72  1  0  0  0  0
 56 68  1  0  0  0  0
 57 71  1  0  0  0  0
 59 67  1  0  0  0  0
 60 69  1  0  0  0  0
 61 69  1  0  0  0  0
 62 69  1  0  0  0  0
 63 80  1  0  0  0  0
 64 78  1  0  0  0  0
 65 68  1  0  0  0  0
 65 87  1  0  0  0  0
 66 69  1  0  0  0  0
 66 77  1  0  0  0  0
 67 80  1  0  0  0  0
 68 79  1  0  0  0  0
 70 71  1  0  0  0  0
M  CHG  2  79   1  80   1
M  ISO  4  38 100  65 101  78 100  87 101
M  END
> <Batch ID>
0137

> <Smiles>
CNC(C)C(=O)NC(C(=O)N1Cc2cc([101O:1][101CH2:1]C(C3CC3)N3CCC(c4ccc(C[100NH:0][100C:0](=O)N5CCCC(n6nc(-c7ccc(Oc8ccc(F)cc8F)cc7)c(C(N)=O)c6N)C5)cc4C)C3)ccc2CC1C(=O)NC1CCCc2ccccc21)C(C)(C)C

> <Shape>
0.255

> <Color>
0.054

> <Negative vol penalty>
0.000

$$$$

  -OEChem-04052321053D

 82 90  0     1  0  0  0  0  0999 V2000
  -25.6611  -20.2277   28.2760 C   0  0  0  0  0  0  0  0  0  0  0  0
  -26.4635  -20.8489   27.3243 C   0  0  0  0  0  0  0  0  0  0  0  0
  -26.9628  -12.9842   21.1412 C   0  0  0  0  0  0  0  0  0  0  0  0
  -26.7161  -13.5300   18.8007 C   0  0  0  0  0  0  0  0  0  0  0  0
  -24.2770  -20.2025   28.1098 C   0  0  0  0  0  0  0  0  0  0  0  0
  -25.8823  -21.4443   26.2053 C   0  0  0  0  0  0  0  0  0  0  0  0
  -27.7893  -26.4956   23.3150 C   0  0  0  0  0  0  0  0  0  0  0  0
  -26.2387  -11.8085   20.9434 C   0  0  0  0  0  0  0  0  0  0  0  0
  -25.9921  -12.3543   18.6028 C   0  0  0  0  0  0  0  0  0  0  0  0
  -28.5525  -26.6861   22.1639 C   0  0  0  0  0  0  0  0  0  0  0  0
  -24.1462   -8.8401   21.1273 C   0  0  0  0  0  0  0  0  0  0  0  0
  -23.1581   -8.5208   22.0586 C   0  0  0  0  0  0  0  0  0  0  0  0
  -26.5305  -26.9292   20.8709 C   0  0  0  0  0  0  0  0  0  0  0  0
  -29.8428  -23.9291   18.3434 C   0  0  0  0  0  0  0  0  0  0  0  0
  -22.0086  -10.5831   21.5461 C   0  0  0  0  0  0  0  0  0  0  0  0
  -27.2014  -13.8449   20.0699 C   0  0  0  0  0  0  0  0  0  0  0  0
  -29.3423  -15.2289   20.1661 C   0  0  0  0  0  0  0  0  0  0  0  0
  -23.6778  -20.8063   26.9931 C   0  0  0  0  0  0  0  0  0  0  0  0
  -26.3886  -26.5097   23.2508 C   0  0  0  0  0  0  0  0  0  0  0  0
  -24.4890  -21.4260   26.0234 C   0  0  0  0  0  0  0  0  0  0  0  0
  -25.7519  -26.7412   22.0231 C   0  0  0  0  0  0  0  0  0  0  0  0
  -30.7596  -24.8577   17.8632 C   0  0  0  0  0  0  0  0  0  0  0  0
  -30.2605  -22.6358   18.6367 C   0  0  0  0  0  0  0  0  0  0  0  0
  -25.7534  -11.4935   19.6742 C   0  0  0  0  0  0  0  0  0  0  0  0
  -27.9231  -26.9000   20.9411 C   0  0  0  0  0  0  0  0  0  0  0  0
  -24.0656  -10.0310   20.4055 C   0  0  0  0  0  0  0  0  0  0  0  0
  -22.0893   -9.3922   22.2680 C   0  0  0  0  0  0  0  0  0  0  0  0
  -22.9968  -10.9025   20.6149 C   0  0  0  0  0  0  0  0  0  0  0  0
  -27.9488  -15.0598   20.2737 C   0  0  0  0  0  0  0  0  0  0  0  0
  -32.0719  -24.4463   17.6951 C   0  0  0  0  0  0  0  0  0  0  0  0
  -31.5951  -22.3237   18.4338 C   0  0  0  0  0  0  0  0  0  0  0  0
  -29.5503  -16.5559   20.4527 C   0  0  0  0  0  0  0  0  0  0  0  0
  -30.3578  -14.2719   19.8364 C   0  0  0  0  0  0  0  0  0  0  0  0
  -24.0937  -24.3972   23.8627 C   0  0  0  0  0  0  0  0  0  0  0  0
  -22.1483  -26.9290   23.2907 C   0  0  0  0  0  0  0  0  0  0  0  0
  -21.7058  -29.9619   21.7897 C   0  0  0  0  0  0  0  0  0  0  0  0
  -28.1982  -21.9288   19.8991 C   0  0  0  0  0  0  0  0  0  0  0  0
  -22.1811  -20.7123   26.8328 C   0  0  0  0  0  0  0  0  0  0  0  0
  -25.5799  -26.3293   24.5061 C   0  0  0  0  0  0  0  0  0  0  0  0
  -24.2511  -26.7858   21.9041 C   0  0  0  0  0  0  0  0  0  0  0  0
  -21.6155  -21.6928   25.8086 C   0  0  0  0  0  0  0  0  0  0  0  0
  -26.4109  -20.0499   22.3389 C   0  0  0  0  0  0  0  0  0  0  0  0
  -22.4494  -21.6712   24.5316 C   0  0  0  0  0  0  0  0  0  0  0  0
  -26.7663  -18.5981   22.0102 C   0  0  0  0  0  0  0  0  0  0  0  0
  -26.2677  -20.8984   21.0766 C   0  0  0  0  0  0  0  0  0  0  0  0
  -27.7690  -19.3937   19.8311 C   0  0  0  0  0  0  0  0  0  0  0  0
  -23.8940  -22.1045   24.8086 C   0  0  1  0  0  0  0  0  0  0  0  0
  -24.1565  -25.8511   24.2364 C   0  0  1  0  0  0  0  0  0  0  0  0
  -27.9875  -18.5150   21.0736 C   0  0  2  0  0  0  0  0  0  0  0  0
  -33.0996  -25.4008   17.1810 C   0  0  0  0  0  0  0  0  0  0  0  0
  -32.1045  -20.9500   18.7289 C   0  0  0  0  0  0  0  0  0  0  0  0
  -19.9966  -31.7713   21.4707 C   0  0  0  0  0  0  0  0  0  0  0  0
  -20.6882  -25.1875   21.2547 C   0  0  0  0  0  0  0  0  0  0  0  0
  -19.6589  -27.2683   20.3171 C   0  0  0  0  0  0  0  0  0  0  0  0
  -19.1961  -26.6040   22.6765 C   0  0  0  0  0  0  0  0  0  0  0  0
  -23.4184  -31.9748   23.1217 C   0  0  0  0  0  0  0  0  0  0  0  0
  -30.3134  -26.2622   17.5438 C   0  0  0  0  0  0  0  0  0  0  0  0
  -30.7223  -27.2931   18.5980 C   0  0  0  0  0  0  0  0  0  0  0  0
  -30.0848  -27.0486   19.9608 C   0  0  0  0  0  0  0  0  0  1  0  0
  -21.4777  -27.5073   22.0680 C   0  0  1  0  0  0  0  0  0  0  0  0
  -21.1594  -31.2764   22.3167 C   0  0  2  0  0  0  0  0  0  0  0  0
  -20.2835  -26.6391   21.5806 C   0  0  0  0  0  0  0  0  0  0  0  0
  -27.3164  -16.1892   20.6032 N   0  0  0  0  0  0  0  0  0  0  0  0
  -32.5149  -23.1987   17.9690 N   0  0  0  0  0  0  0  0  0  0  0  0
  -28.3169  -17.0805   20.7051 N   0  0  0  0  0  0  0  0  0  0  0  0
  -23.5042  -26.5976   23.1587 N   0  0  0  0  0  0  0  0  0  0  0  0
  -27.4635  -20.7736   20.2402 N   0  0  0  0  0  0  0  0  0  0  0  0
  -30.6661  -17.3135   20.5110 N   0  0  0  0  0  0  0  0  0  0  0  0
  -29.9704  -12.9515   19.5701 N   0  0  0  0  0  0  0  0  0  0  0  0
  -29.3336  -21.6831   19.1277 N   0  0  0  0  0  0  0  0  0  0  0  0
  -23.9732  -23.5434   24.9425 N   0  0  0  0  0  0  0  0  0  0  0  0
  -21.1186  -28.8794   22.4099 N   0  0  0  0  0  0  0  0  0  0  0  0
  -22.2235  -32.3199   22.3093 N   0  3  0  0  0  0  0  0  0  0  0  0
  -31.5744  -14.5748   19.7956 O   0  0  0  0  0  0  0  0  0  0  0  0
  -24.1488  -24.0739   22.6819 O   0  0  0  0  0  0  0  0  0  0  0  0
  -21.4949  -26.7837   24.3269 O   0  0  0  0  0  0  0  0  0  0  0  0
  -22.5648  -29.9013   20.9127 O   0  0  0  0  0  0  0  0  0  0  0  0
  -27.8613  -23.0504   20.2873 O   0  0  0  0  0  0  0  0  0  0  0  0
  -25.0470  -10.3463   19.4808 O   0  0  0  0  0  0  0  0  0  0  0  0
  -28.6656  -27.0855   19.8159 O   0  0  0  0  0  0  0  0  0  1  0  0
  -21.1396   -9.0847   23.1611 F   0  0  0  0  0  0  0  0  0  0  0  0
  -22.9133  -12.0475   19.9236 F   0  0  0  0  0  0  0  0  0  0  0  0
  1  2  1  0  0  0  0
  1  5  2  0  0  0  0
  2  6  2  0  0  0  0
  3  8  2  0  0  0  0
  3 16  1  0  0  0  0
  4  9  1  0  0  0  0
  4 16  2  0  0  0  0
  5 18  1  0  0  0  0
  6 20  1  0  0  0  0
  7 10  2  0  0  0  0
  7 19  1  0  0  0  0
  8 24  1  0  0  0  0
  9 24  2  0  0  0  0
 10 25  1  0  0  0  0
 11 12  2  0  0  0  0
 11 26  1  0  0  0  0
 12 27  1  0  0  0  0
 13 21  1  0  0  0  0
 13 25  2  0  0  0  0
 14 22  1  0  0  0  0
 14 23  2  0  0  0  0
 15 27  2  0  0  0  0
 15 28  1  0  0  0  0
 16 29  1  0  0  0  0
 17 29  1  0  0  0  0
 17 32  2  0  0  0  0
 17 33  1  0  0  0  0
 18 20  2  0  0  0  0
 18 38  1  0  0  0  0
 19 21  2  0  0  0  0
 19 39  1  0  0  0  0
 20 47  1  0  0  0  0
 21 40  1  0  0  0  0
 22 30  2  0  0  0  0
 22 57  1  0  0  0  0
 23 31  1  0  0  0  0
 23 70  1  0  0  0  0
 24 79  1  0  0  0  0
 25 80  1  0  0  0  0
 26 28  2  0  0  0  0
 26 79  1  0  0  0  0
 27 81  1  0  0  0  0
 28 82  1  0  0  0  0
 29 63  2  0  0  0  0
 30 50  1  0  0  0  0
 30 64  1  0  0  0  0
 31 51  1  0  0  0  0
 31 64  2  0  0  0  0
 32 65  1  0  0  0  0
 32 68  1  0  0  0  0
 33 69  1  0  0  0  0
 33 74  2  0  0  0  0
 34 48  1  0  0  0  0
 34 71  1  0  0  0  0
 34 75  2  0  0  0  0
 35 60  1  0  0  0  0
 35 66  1  0  0  0  0
 35 76  2  0  0  0  0
 36 61  1  0  0  0  0
 36 72  1  0  0  0  0
 36 77  2  0  0  0  0
 37 67  1  0  0  0  0
 37 70  1  0  0  0  0
 37 78  2  0  0  0  0
 38 41  1  0  0  0  0
 39 48  1  0  0  0  0
 40 66  1  0  0  0  0
 41 43  1  0  0  0  0
 42 44  1  0  0  0  0
 42 45  1  0  0  0  0
 43 47  1  0  0  0  0
 44 49  1  0  0  0  0
 45 67  1  0  0  0  0
 46 49  1  0  0  0  0
 46 67  1  0  0  0  0
 47 71  1  0  0  0  0
 48 66  1  0  0  0  0
 49 65  1  0  0  0  0
 52 61  1  0  0  0  0
 53 62  1  0  0  0  0
 54 62  1  0  0  0  0
 55 62  1  0  0  0  0
 56 73  1  0  0  0  0
 57 58  1  0  0  0  0
 58 59  1  0  0  0  0
 59 80  1  0  0  0  0
 60 62  1  0  0  0  0
 60 72  1  0  0  0  0
 61 73  1  0  0  0  0
 63 65  1  0  0  0  0
M  CHG  1  73   1
M  ISO  4  37 100  59 101  70 100  80 101
M  END
> <Batch ID>
0137

> <Smiles>
CNC(C)C(=O)NC(C(=O)N1Cc2cc([101O:1][101CH2:1]CCc3cc([100NH:0][100C:0](=O)N4CCCC(n5nc(-c6ccc(Oc7ccc(F)cc7F)cc6)c(C(N)=O)c5N)C4)c(C)nc3C)ccc2CC1C(=O)NC1CCCc2ccccc21)C(C)(C)C

> <Shape>
0.247

> <Color>
0.077

> <Negative vol penalty>
0.000

$$$$

  -OEChem-04052321053D

 89 99  0     1  0  0  0  0  0999 V2000
  -27.2512  -28.7685   18.9666 C   0  0  0  0  0  0  0  0  0  0  0  0
  -26.9626  -27.5646   19.6012 C   0  0  0  0  0  0  0  0  0  0  0  0
  -20.9948  -15.2534   26.0547 C   0  0  0  0  0  0  0  0  0  0  0  0
  -29.2920  -23.2592   19.2818 C   0  0  0  0  0  0  0  0  0  0  0  0
  -31.4367  -22.2433   19.7350 C   0  0  0  0  0  0  0  0  0  0  0  0
  -26.5118  -29.9106   19.2714 C   0  0  0  0  0  0  0  0  0  0  0  0
  -25.9350  -27.5023   20.5418 C   0  0  0  0  0  0  0  0  0  0  0  0
  -21.5611  -14.6343   24.9404 C   0  0  0  0  0  0  0  0  0  0  0  0
  -22.1662  -22.7859   21.5701 C   0  0  0  0  0  0  0  0  0  0  0  0
  -20.4879  -16.5487   25.9506 C   0  0  0  0  0  0  0  0  0  0  0  0
  -29.9314  -24.3312   18.6592 C   0  0  0  0  0  0  0  0  0  0  0  0
  -32.0761  -23.3153   19.1124 C   0  0  0  0  0  0  0  0  0  0  0  0
  -22.1716  -21.7723   22.5274 C   0  0  0  0  0  0  0  0  0  0  0  0
  -31.3733  -24.9759   15.6695 C   0  0  0  0  0  0  0  0  0  0  0  0
  -30.8584  -25.4188   14.4512 C   0  0  0  0  0  0  0  0  0  0  0  0
  -21.1139  -16.6061   23.6178 C   0  0  0  0  0  0  0  0  0  0  0  0
  -20.6435  -23.0541   23.8844 C   0  0  0  0  0  0  0  0  0  0  0  0
  -30.4681  -27.6019   15.4097 C   0  0  0  0  0  0  0  0  0  0  0  0
  -30.0447  -22.2153   19.8198 C   0  0  0  0  0  0  0  0  0  0  0  0
  -28.5400  -21.1592   21.5885 C   0  0  0  0  0  0  0  0  0  0  0  0
  -21.6207  -15.3107   23.7220 C   0  0  0  0  0  0  0  0  0  0  0  0
  -25.4683  -29.8601   20.2091 C   0  0  0  0  0  0  0  0  0  0  0  0
  -21.4067  -23.9479   21.7681 C   0  0  0  0  0  0  0  0  0  0  0  0
  -25.1819  -28.6451   20.8603 C   0  0  0  0  0  0  0  0  0  0  0  0
  -20.6282  -24.0798   22.9269 C   0  0  0  0  0  0  0  0  0  0  0  0
  -31.3234  -24.3593   18.5744 C   0  0  0  0  0  0  0  0  0  0  0  0
  -20.5475  -17.2251   24.7321 C   0  0  0  0  0  0  0  0  0  0  0  0
  -21.4125  -21.9076   23.6861 C   0  0  0  0  0  0  0  0  0  0  0  0
  -31.4355  -25.8460   16.7580 C   0  0  0  0  0  0  0  0  0  0  0  0
  -30.4059  -26.7318   14.3213 C   0  0  0  0  0  0  0  0  0  0  0  0
  -30.9829  -27.1590   16.6281 C   0  0  0  0  0  0  0  0  0  0  0  0
  -29.3848  -21.1079   20.4636 C   0  0  0  0  0  0  0  0  0  0  0  0
  -28.1744  -19.8528   21.8032 C   0  0  0  0  0  0  0  0  0  0  0  0
  -28.1230  -22.2870   22.3695 C   0  0  0  0  0  0  0  0  0  0  0  0
  -22.0743  -27.0424   22.0551 C   0  0  0  0  0  0  0  0  0  0  0  0
  -18.8445  -27.3426   22.0318 C   0  0  0  0  0  0  0  0  0  0  0  0
  -15.7975  -25.9093   22.5872 C   0  0  0  0  0  0  0  0  0  0  0  0
  -26.4530  -14.9028   19.8851 C   0  0  0  0  0  0  0  0  0  0  0  0
  -24.7279  -31.1316   20.5404 C   0  0  0  0  0  0  0  0  0  0  0  0
  -21.3906  -25.0203   20.7135 C   0  0  0  0  0  0  0  0  0  0  0  0
  -19.7797  -25.2986   23.1777 C   0  0  0  0  0  0  0  0  0  0  0  0
  -23.4100  -30.8955   21.2736 C   0  0  0  0  0  0  0  0  0  0  0  0
  -29.9502  -15.5642   19.7930 C   0  0  0  0  0  0  0  0  0  0  0  0
  -23.6017  -29.8928   22.4070 C   0  0  0  0  0  0  0  0  0  0  0  0
  -18.9206  -14.1709   22.4903 C   0  0  0  0  0  0  0  0  0  0  0  0
  -18.7298  -13.7948   21.0474 C   0  0  0  0  0  0  0  0  0  0  0  0
  -21.9558  -13.8353   20.1056 C   0  0  0  0  0  0  0  0  0  0  0  0
  -30.0445  -17.0700   20.0457 C   0  0  0  0  0  0  0  0  0  0  0  0
  -23.1962  -14.6211   19.6935 C   0  0  0  0  0  0  0  0  0  0  0  0
  -23.5016  -15.4070   22.0672 C   0  0  0  0  0  0  0  0  0  0  0  0
  -28.7268  -15.2088   18.9510 C   0  0  0  0  0  0  0  0  0  0  0  0
  -27.5398  -17.2244   19.7268 C   0  0  0  0  0  0  0  0  0  0  0  0
  -22.2394  -14.6350   22.5059 C   0  0  2  0  0  0  0  0  0  0  0  0
  -24.0586  -28.5318   21.8681 C   0  0  1  0  0  0  0  0  0  0  0  0
  -20.9834  -26.3865   21.2568 C   0  0  1  0  0  0  0  0  0  0  0  0
  -20.0648  -13.5883   21.7078 C   0  0  0  0  0  0  0  0  0  0  0  0
  -21.2458  -14.4536   21.3250 C   0  0  2  0  0  0  0  0  0  0  0  0
  -28.7270  -17.6259   20.6189 C   0  0  2  0  0  0  0  0  0  0  0  0
  -24.1746  -14.7554   20.8580 C   0  0  2  0  0  0  0  0  0  0  0  0
  -13.3406  -26.4152   22.5175 C   0  0  0  0  0  0  0  0  0  0  0  0
  -19.0972  -28.9158   24.6339 C   0  0  0  0  0  0  0  0  0  0  0  0
  -16.6451  -28.5683   25.0007 C   0  0  0  0  0  0  0  0  0  0  0  0
  -17.4379  -29.8452   23.0098 C   0  0  0  0  0  0  0  0  0  0  0  0
  -15.3079  -23.8235   20.5455 C   0  0  0  0  0  0  0  0  0  0  0  0
  -20.0990  -19.3010   25.8023 C   0  0  0  0  0  0  0  0  0  0  0  0
  -20.2307  -20.7569   25.3994 C   0  0  0  0  0  0  0  0  0  1  0  0
  -17.7629  -27.3390   23.0849 C   0  0  1  0  0  0  0  0  0  0  0  0
  -14.5338  -25.8719   21.7469 C   0  0  2  0  0  0  0  0  0  0  0  0
  -17.7532  -28.6449   23.9288 C   0  0  0  0  0  0  0  0  0  0  0  0
  -29.5466  -19.8672   19.9964 N   0  0  0  0  0  0  0  0  0  0  0  0
  -28.7984  -19.1267   20.8319 N   0  0  0  0  0  0  0  0  0  0  0  0
  -19.8022  -26.3223   22.1199 N   0  0  0  0  0  0  0  0  0  0  0  0
  -27.5107  -15.7641   19.5499 N   0  0  0  0  0  0  0  0  0  0  0  0
  -27.3833  -19.2659   22.7262 N   0  0  0  0  0  0  0  0  0  0  0  0
  -26.9542  -22.9637   21.9948 N   0  0  0  0  0  0  0  0  0  0  0  0
  -22.9392  -27.8115   21.3002 N   0  0  0  0  0  0  0  0  0  0  0  0
  -16.5117  -27.0712   22.3840 N   0  0  0  0  0  0  0  0  0  0  0  0
  -25.3401  -15.5099   20.4540 N   0  0  0  0  0  0  0  0  0  0  0  0
  -14.2284  -24.4733   21.3326 N   0  3  0  0  0  0  0  0  0  0  0  0
  -28.7765  -22.6929   23.3603 O   0  0  0  0  0  0  0  0  0  0  0  0
  -22.1266  -26.8650   23.2665 O   0  0  0  0  0  0  0  0  0  0  0  0
  -18.8358  -28.2140   21.1588 O   0  0  0  0  0  0  0  0  0  0  0  0
  -16.1171  -25.0005   23.3504 O   0  0  0  0  0  0  0  0  0  0  0  0
  -26.4993  -13.6824   19.6967 O   0  0  0  0  0  0  0  0  0  0  0  0
  -31.9476  -25.4050   17.9667 O   0  0  0  0  0  0  0  0  0  0  0  0
  -20.0491  -18.4971   24.6297 O   0  0  0  0  0  0  0  0  0  0  0  0
  -21.4165  -20.9201   24.6224 O   0  0  0  0  0  0  0  0  0  1  0  0
  -29.9129  -27.1574   13.1508 F   0  0  0  0  0  0  0  0  0  0  0  0
  -31.0411  -27.9998   17.6700 F   0  0  0  0  0  0  0  0  0  0  0  0
  1  2  1  0  0  0  0
  1  6  2  0  0  0  0
  2  7  2  0  0  0  0
  3  8  1  0  0  0  0
  3 10  2  0  0  0  0
  4 11  2  0  0  0  0
  4 19  1  0  0  0  0
  5 12  1  0  0  0  0
  5 19  2  0  0  0  0
  6 22  1  0  0  0  0
  7 24  1  0  0  0  0
  8 21  2  0  0  0  0
  9 13  2  0  0  0  0
  9 23  1  0  0  0  0
 10 27  1  0  0  0  0
 11 26  1  0  0  0  0
 12 26  2  0  0  0  0
 13 28  1  0  0  0  0
 14 15  2  0  0  0  0
 14 29  1  0  0  0  0
 15 30  1  0  0  0  0
 16 21  1  0  0  0  0
 16 27  2  0  0  0  0
 17 25  1  0  0  0  0
 17 28  2  0  0  0  0
 18 30  2  0  0  0  0
 18 31  1  0  0  0  0
 19 32  1  0  0  0  0
 20 32  1  0  0  0  0
 20 33  2  0  0  0  0
 20 34  1  0  0  0  0
 21 53  1  0  0  0  0
 22 24  2  0  0  0  0
 22 39  1  0  0  0  0
 23 25  2  0  0  0  0
 23 40  1  0  0  0  0
 24 54  1  0  0  0  0
 25 41  1  0  0  0  0
 26 85  1  0  0  0  0
 27 86  1  0  0  0  0
 28 87  1  0  0  0  0
 29 31  2  0  0  0  0
 29 85  1  0  0  0  0
 30 88  1  0  0  0  0
 31 89  1  0  0  0  0
 32 70  2  0  0  0  0
 33 71  1  0  0  0  0
 33 74  1  0  0  0  0
 34 75  1  0  0  0  0
 34 80  2  0  0  0  0
 35 55  1  0  0  0  0
 35 76  1  0  0  0  0
 35 81  2  0  0  0  0
 36 67  1  0  0  0  0
 36 72  1  0  0  0  0
 36 82  2  0  0  0  0
 37 68  1  0  0  0  0
 37 77  1  0  0  0  0
 37 83  2  0  0  0  0
 38 73  1  0  0  0  0
 38 78  1  0  0  0  0
 38 84  2  0  0  0  0
 39 42  1  0  0  0  0
 40 55  1  0  0  0  0
 41 72  1  0  0  0  0
 42 44  1  0  0  0  0
 43 48  1  0  0  0  0
 43 51  1  0  0  0  0
 44 54  1  0  0  0  0
 45 46  1  0  0  0  0
 45 56  1  0  0  0  0
 46 56  1  0  0  0  0
 47 49  1  0  0  0  0
 47 57  1  0  0  0  0
 48 58  1  0  0  0  0
 49 59  1  0  0  0  0
 50 53  1  0  0  0  0
 50 59  1  0  0  0  0
 51 73  1  0  0  0  0
 52 58  1  0  0  0  0
 52 73  1  0  0  0  0
 53 57  1  0  0  0  0
 54 76  1  0  0  0  0
 55 72  1  0  0  0  0
 56 57  1  0  0  0  0
 58 71  1  0  0  0  0
 59 78  1  0  0  0  0
 60 68  1  0  0  0  0
 61 69  1  0  0  0  0
 62 69  1  0  0  0  0
 63 69  1  0  0  0  0
 64 79  1  0  0  0  0
 65 66  1  0  0  0  0
 65 86  1  0  0  0  0
 66 87  1  0  0  0  0
 67 69  1  0  0  0  0
 67 77  1  0  0  0  0
 68 79  1  0  0  0  0
 70 71  1  0  0  0  0
M  CHG  1  79   1
M  ISO  4  38 100  66 101  78 100  87 101
M  END
> <Batch ID>
0137

> <Smiles>
CNC(C)C(=O)NC(C(=O)N1Cc2cc([101O:1][101CH2:1]COc3cccc(C4CC([100NH:0][100C:0](=O)N5CCCC(n6nc(-c7ccc(Oc8ccc(F)cc8F)cc7)c(C(N)=O)c6N)C5)CCC4C4CC4)c3)ccc2CC1C(=O)NC1CCCc2ccccc21)C(C)(C)C

> <Shape>
0.217

> <Color>
0.061

> <Negative vol penalty>
0.000

$$$$

  -OEChem-04052321053D

 82 90  0     1  0  0  0  0  0999 V2000
  -23.2946   -7.8419   21.2609 C   0  0  0  0  0  0  0  0  0  0  0  0
  -24.1135   -8.8455   20.7534 C   0  0  0  0  0  0  0  0  0  0  0  0
  -21.4891  -27.9941   19.1532 C   0  0  0  0  0  0  0  0  0  0  0  0
  -21.6894  -26.1945   20.7528 C   0  0  0  0  0  0  0  0  0  0  0  0
  -21.9908   -8.1401   21.6547 C   0  0  0  0  0  0  0  0  0  0  0  0
  -23.6287  -10.1479   20.6385 C   0  0  0  0  0  0  0  0  0  0  0  0
  -26.9446  -13.6069   22.2771 C   0  0  0  0  0  0  0  0  0  0  0  0
  -30.3415  -18.2299   19.3994 C   0  0  0  0  0  0  0  0  0  0  0  0
  -31.8128  -17.7597   21.2572 C   0  0  0  0  0  0  0  0  0  0  0  0
  -30.1907  -19.5411   19.8506 C   0  0  0  0  0  0  0  0  0  0  0  0
  -31.6620  -19.0710   21.7084 C   0  0  0  0  0  0  0  0  0  0  0  0
  -20.2527  -27.4937   18.7452 C   0  0  0  0  0  0  0  0  0  0  0  0
  -20.4529  -25.6942   20.3448 C   0  0  0  0  0  0  0  0  0  0  0  0
  -27.9991  -13.9319   21.4249 C   0  0  0  0  0  0  0  0  0  0  0  0
  -19.2282  -23.8725   17.7734 C   0  0  0  0  0  0  0  0  0  0  0  0
  -19.1243  -22.4983   17.5578 C   0  0  0  0  0  0  0  0  0  0  0  0
  -26.8231  -15.9234   20.7393 C   0  0  0  0  0  0  0  0  0  0  0  0
  -17.4123  -22.3612   19.2571 C   0  0  0  0  0  0  0  0  0  0  0  0
  -22.2075  -27.3444   20.1570 C   0  0  0  0  0  0  0  0  0  0  0  0
  -23.7282  -28.7965   21.6015 C   0  0  0  0  0  0  0  0  0  0  0  0
  -21.4929   -9.4488   21.5536 C   0  0  0  0  0  0  0  0  0  0  0  0
  -25.8148  -14.4334   22.3588 C   0  0  0  0  0  0  0  0  0  0  0  0
  -22.3166  -10.4637   21.0302 C   0  0  0  0  0  0  0  0  0  0  0  0
  -25.7568  -15.6080   21.5952 C   0  0  0  0  0  0  0  0  0  0  0  0
  -31.1525  -17.3392   20.1027 C   0  0  0  0  0  0  0  0  0  0  0  0
  -30.8510  -19.9617   21.0051 C   0  0  0  0  0  0  0  0  0  0  0  0
  -19.7346  -26.3438   19.3410 C   0  0  0  0  0  0  0  0  0  0  0  0
  -27.9372  -15.0888   20.6536 C   0  0  0  0  0  0  0  0  0  0  0  0
  -18.4242  -24.4910   18.7309 C   0  0  0  0  0  0  0  0  0  0  0  0
  -18.2163  -21.7427   18.2996 C   0  0  0  0  0  0  0  0  0  0  0  0
  -17.5163  -23.7354   19.4727 C   0  0  0  0  0  0  0  0  0  0  0  0
  -23.4851  -27.8604   20.5785 C   0  0  0  0  0  0  0  0  0  0  0  0
  -25.0928  -28.9523   21.6071 C   0  0  0  0  0  0  0  0  0  0  0  0
  -22.8033  -29.4654   22.4691 C   0  0  0  0  0  0  0  0  0  0  0  0
  -22.7183  -14.0672   21.7415 C   0  0  0  0  0  0  0  0  0  0  0  0
  -22.5100  -17.0405   23.0216 C   0  0  0  0  0  0  0  0  0  0  0  0
  -24.0532  -19.9961   23.7492 C   0  0  0  0  0  0  0  0  0  0  0  0
  -29.6067  -25.4241   19.8670 C   0  0  0  0  0  0  0  0  0  0  0  0
  -20.0614   -9.7134   21.9479 C   0  0  0  0  0  0  0  0  0  0  0  0
  -24.6976  -14.0827   23.3029 C   0  0  0  0  0  0  0  0  0  0  0  0
  -24.5751  -16.5395   21.6616 C   0  0  0  0  0  0  0  0  0  0  0  0
  -19.7473  -11.1943   22.1437 C   0  0  0  0  0  0  0  0  0  0  0  0
  -28.9001  -28.7194   18.7189 C   0  0  0  0  0  0  0  0  0  0  0  0
  -20.3083  -12.0164   20.9876 C   0  0  0  0  0  0  0  0  0  0  0  0
  -27.4541  -28.9574   19.1576 C   0  0  0  0  0  0  0  0  0  0  0  0
  -29.1283  -27.2721   18.2884 C   0  0  0  0  0  0  0  0  0  0  0  0
  -27.2780  -26.4975   19.7202 C   0  0  0  0  0  0  0  0  0  0  0  0
  -21.8350  -11.8936   20.9133 C   0  0  1  0  0  0  0  0  0  0  0  0
  -23.3691  -14.7293   22.9229 C   0  0  1  0  0  0  0  0  0  0  0  0
  -27.0129  -27.9291   20.2166 C   0  0  2  0  0  0  0  0  0  0  0  0
  -23.6154  -22.2498   24.7625 C   0  0  0  0  0  0  0  0  0  0  0  0
  -21.0471  -17.8946   20.4838 C   0  0  0  0  0  0  0  0  0  0  0  0
  -21.4807  -20.2772   21.1192 C   0  0  0  0  0  0  0  0  0  0  0  0
  -20.0946  -18.8256   22.6005 C   0  0  0  0  0  0  0  0  0  0  0  0
  -26.0597  -19.5566   25.8799 C   0  0  0  0  0  0  0  0  0  0  0  0
  -31.3159  -15.9200   19.6154 C   0  0  0  0  0  0  0  0  0  0  0  0
  -29.8867  -22.2526   20.7877 C   0  0  0  0  0  0  0  0  0  0  0  0
  -29.9349  -23.5914   21.5080 C   0  0  0  0  0  0  0  0  0  0  0  0
  -30.2703  -14.9802   20.2059 C   0  0  0  0  0  0  0  0  0  1  0  0
  -22.5912  -18.4465   22.4781 C   0  0  1  0  0  0  0  0  0  0  0  0
  -24.0895  -20.8277   25.0187 C   0  0  2  0  0  0  0  0  0  0  0  0
  -21.3249  -18.8426   21.6675 C   0  0  0  0  0  0  0  0  0  0  0  0
  -24.6054  -27.4505   19.9778 N   0  0  0  0  0  0  0  0  0  0  0  0
  -25.5657  -28.1323   20.6252 N   0  0  0  0  0  0  0  0  0  0  0  0
  -23.5053  -16.1499   22.5949 N   0  0  0  0  0  0  0  0  0  0  0  0
  -28.6907  -26.3479   19.3373 N   0  0  0  0  0  0  0  0  0  0  0  0
  -25.9224  -29.7095   22.3560 N   0  0  0  0  0  0  0  0  0  0  0  0
  -21.4363  -29.1894   22.3287 N   0  0  0  0  0  0  0  0  0  0  0  0
  -30.7003  -21.2878   21.4606 N   0  0  0  0  0  0  0  0  0  0  0  0
  -22.4585  -12.7222   21.9228 N   0  0  0  0  0  0  0  0  0  0  0  0
  -22.8635  -19.3110   23.6213 N   0  0  0  0  0  0  0  0  0  0  0  0
  -29.1120  -24.5894   20.8617 N   0  0  0  0  0  0  0  0  0  0  0  0
  -25.4766  -20.8852   25.5608 N   0  3  0  0  0  0  0  0  0  0  0  0
  -23.1764  -30.2959   23.3320 O   0  0  0  0  0  0  0  0  0  0  0  0
  -22.4688  -14.7281   20.7402 O   0  0  0  0  0  0  0  0  0  0  0  0
  -21.6013  -16.7453   23.8018 O   0  0  0  0  0  0  0  0  0  0  0  0
  -24.9854  -19.9610   22.9490 O   0  0  0  0  0  0  0  0  0  0  0  0
  -30.7799  -25.3522   19.4858 O   0  0  0  0  0  0  0  0  0  0  0  0
  -18.5280  -25.8555   18.9432 O   0  0  0  0  0  0  0  0  0  0  0  0
  -28.9647  -15.4081   19.8205 O   0  0  0  0  0  0  0  0  0  1  0  0
  -18.1156  -20.4233   18.0914 F   0  0  0  0  0  0  0  0  0  0  0  0
  -16.7404  -24.3242   20.3931 F   0  0  0  0  0  0  0  0  0  0  0  0
  1  2  1  0  0  0  0
  1  5  2  0  0  0  0
  2  6  2  0  0  0  0
  3 12  2  0  0  0  0
  3 19  1  0  0  0  0
  4 13  1  0  0  0  0
  4 19  2  0  0  0  0
  5 21  1  0  0  0  0
  6 23  1  0  0  0  0
  7 14  2  0  0  0  0
  7 22  1  0  0  0  0
  8 10  2  0  0  0  0
  8 25  1  0  0  0  0
  9 11  1  0  0  0  0
  9 25  2  0  0  0  0
 10 26  1  0  0  0  0
 11 26  2  0  0  0  0
 12 27  1  0  0  0  0
 13 27  2  0  0  0  0
 14 28  1  0  0  0  0
 15 16  2  0  0  0  0
 15 29  1  0  0  0  0
 16 30  1  0  0  0  0
 17 24  1  0  0  0  0
 17 28  2  0  0  0  0
 18 30  2  0  0  0  0
 18 31  1  0  0  0  0
 19 32  1  0  0  0  0
 20 32  1  0  0  0  0
 20 33  2  0  0  0  0
 20 34  1  0  0  0  0
 21 23  2  0  0  0  0
 21 39  1  0  0  0  0
 22 24  2  0  0  0  0
 22 40  1  0  0  0  0
 23 48  1  0  0  0  0
 24 41  1  0  0  0  0
 25 56  1  0  0  0  0
 26 69  1  0  0  0  0
 27 79  1  0  0  0  0
 28 80  1  0  0  0  0
 29 31  2  0  0  0  0
 29 79  1  0  0  0  0
 30 81  1  0  0  0  0
 31 82  1  0  0  0  0
 32 63  2  0  0  0  0
 33 64  1  0  0  0  0
 33 67  1  0  0  0  0
 34 68  1  0  0  0  0
 34 74  2  0  0  0  0
 35 49  1  0  0  0  0
 35 70  1  0  0  0  0
 35 75  2  0  0  0  0
 36 60  1  0  0  0  0
 36 65  1  0  0  0  0
 36 76  2  0  0  0  0
 37 61  1  0  0  0  0
 37 71  1  0  0  0  0
 37 77  2  0  0  0  0
 38 66  1  0  0  0  0
 38 72  1  0  0  0  0
 38 78  2  0  0  0  0
 39 42  1  0  0  0  0
 40 49  1  0  0  0  0
 41 65  1  0  0  0  0
 42 44  1  0  0  0  0
 43 45  1  0  0  0  0
 43 46  1  0  0  0  0
 44 48  1  0  0  0  0
 45 50  1  0  0  0  0
 46 66  1  0  0  0  0
 47 50  1  0  0  0  0
 47 66  1  0  0  0  0
 48 70  1  0  0  0  0
 49 65  1  0  0  0  0
 50 64  1  0  0  0  0
 51 61  1  0  0  0  0
 52 62  1  0  0  0  0
 53 62  1  0  0  0  0
 54 62  1  0  0  0  0
 55 73  1  0  0  0  0
 56 59  1  0  0  0  0
 57 58  1  0  0  0  0
 57 69  1  0  0  0  0
 58 72  1  0  0  0  0
 59 80  1  0  0  0  0
 60 62  1  0  0  0  0
 60 71  1  0  0  0  0
 61 73  1  0  0  0  0
 63 64  1  0  0  0  0
M  CHG  1  73   1
M  ISO  4  38 100  59 101  72 100  80 101
M  END
> <Batch ID>
0137

> <Smiles>
CNC(C)C(=O)NC(C(=O)N1Cc2cc([101O:1][101CH2:1]Cc3ccc(NCC[100NH:0][100C:0](=O)N4CCCC(n5nc(-c6ccc(Oc7ccc(F)cc7F)cc6)c(C(N)=O)c5N)C4)cc3)ccc2CC1C(=O)NC1CCCc2ccccc21)C(C)(C)C

> <Shape>
0.186

> <Color>
0.097

> <Negative vol penalty>
0.000

$$$$

  -OEChem-04052321053D

 88 97  0     1  0  0  0  0  0999 V2000
  -24.5407  -38.2019   18.9905 C   0  0  0  0  0  0  0  0  0  0  0  0
  -24.3834  -37.0612   18.2098 C   0  0  0  0  0  0  0  0  0  0  0  0
  -28.4382  -13.2153   21.0833 C   0  0  0  0  0  0  0  0  0  0  0  0
  -27.9660  -12.0387   19.0267 C   0  0  0  0  0  0  0  0  0  0  0  0
  -25.2716  -38.1385   20.1761 C   0  0  0  0  0  0  0  0  0  0  0  0
  -24.9579  -35.8565   18.6138 C   0  0  0  0  0  0  0  0  0  0  0  0
  -23.8364  -28.7848   18.3918 C   0  0  0  0  0  0  0  0  0  0  0  0
  -29.8026  -12.9933   20.8971 C   0  0  0  0  0  0  0  0  0  0  0  0
  -29.3304  -11.8167   18.8404 C   0  0  0  0  0  0  0  0  0  0  0  0
  -24.4791  -27.6034   18.0245 C   0  0  0  0  0  0  0  0  0  0  0  0
  -32.0103  -13.5629   17.7497 C   0  0  0  0  0  0  0  0  0  0  0  0
  -32.5337  -13.7858   16.4762 C   0  0  0  0  0  0  0  0  0  0  0  0
  -25.6536  -27.5943   20.1316 C   0  0  0  0  0  0  0  0  0  0  0  0
  -28.8975  -24.0362   18.4368 C   0  0  0  0  0  0  0  0  0  0  0  0
  -33.2380  -11.4775   16.3617 C   0  0  0  0  0  0  0  0  0  0  0  0
  -27.5198  -12.7380   20.1481 C   0  0  0  0  0  0  0  0  0  0  0  0
  -25.3198  -12.5398   21.4242 C   0  0  0  0  0  0  0  0  0  0  0  0
  -25.8472  -36.9302   20.5997 C   0  0  0  0  0  0  0  0  0  0  0  0
  -24.1061  -29.3867   19.6293 C   0  0  0  0  0  0  0  0  0  0  0  0
  -25.6984  -35.7772   19.8055 C   0  0  0  0  0  0  0  0  0  0  0  0
  -25.0111  -28.7820   20.5133 C   0  0  0  0  0  0  0  0  0  0  0  0
  -27.5775  -24.0872   18.9198 C   0  0  0  0  0  0  0  0  0  0  0  0
  -30.2487  -12.2940   19.7756 C   0  0  0  0  0  0  0  0  0  0  0  0
  -25.3900  -27.0095   18.8932 C   0  0  0  0  0  0  0  0  0  0  0  0
  -32.1008  -12.2973   18.3293 C   0  0  0  0  0  0  0  0  0  0  0  0
  -33.1475  -12.7431   15.7821 C   0  0  0  0  0  0  0  0  0  0  0  0
  -32.7147  -11.2546   17.6353 C   0  0  0  0  0  0  0  0  0  0  0  0
  -26.1102  -12.9665   20.3402 C   0  0  0  0  0  0  0  0  0  0  0  0
  -27.0116  -22.8173   18.8422 C   0  0  0  0  0  0  0  0  0  0  0  0
  -29.1249  -22.7403   18.0539 C   0  0  0  0  0  0  0  0  0  0  0  0
  -24.0605  -13.0059   21.1353 C   0  0  0  0  0  0  0  0  0  0  0  0
  -25.6468  -22.5275   19.2664 C   0  0  0  0  0  0  0  0  0  0  0  0
  -25.6908  -11.7894   22.5882 C   0  0  0  0  0  0  0  0  0  0  0  0
  -25.3164  -32.1781   20.5496 C   0  0  0  0  0  0  0  0  0  0  0  0
  -24.5094  -31.1116   23.5049 C   0  0  0  0  0  0  0  0  0  0  0  0
  -23.8615  -28.4577   25.5502 C   0  0  0  0  0  0  0  0  0  0  0  0
  -22.0635  -17.5549   17.7933 C   0  0  0  0  0  0  0  0  0  0  0  0
  -26.6685  -36.9216   21.8647 C   0  0  0  0  0  0  0  0  0  0  0  0
  -23.3845  -30.6468   20.0218 C   0  0  0  0  0  0  0  0  0  0  0  0
  -25.3204  -29.3773   21.8617 C   0  0  0  0  0  0  0  0  0  0  0  0
  -25.2188  -21.1070   19.4836 C   0  0  0  0  0  0  0  0  0  0  0  0
  -26.9292  -35.5206   22.4120 C   0  0  0  0  0  0  0  0  0  0  0  0
  -21.2340  -14.1109   17.4366 C   0  0  0  0  0  0  0  0  0  0  0  0
  -27.3750  -34.5847   21.2930 C   0  0  0  0  0  0  0  0  0  0  0  0
  -22.3183  -13.3886   18.2381 C   0  0  0  0  0  0  0  0  0  0  0  0
  -26.8555  -20.1463   16.9058 C   0  0  0  0  0  0  0  0  0  0  0  0
  -21.7872  -15.3401   16.7188 C   0  0  0  0  0  0  0  0  0  0  0  0
  -23.5848  -15.5731   18.3885 C   0  0  0  0  0  0  0  0  0  0  0  0
  -25.4515  -20.7320   16.9615 C   0  0  0  0  0  0  0  0  0  0  0  0
  -26.2856  -34.4463   20.2227 C   0  0  1  0  0  0  0  0  0  0  0  0
  -24.1201  -31.4481   21.0914 C   0  0  1  0  0  0  0  0  0  0  0  0
  -23.0629  -14.3586   19.1752 C   0  0  2  0  0  0  0  0  0  0  0  0
  -27.9323  -20.5821   17.9181 C   0  0  2  0  0  0  0  0  0  0  0  0
  -30.3891  -22.1847   17.5186 C   0  0  0  0  0  0  0  0  0  0  0  0
  -28.1286  -19.6224   19.0997 C   0  0  0  0  0  0  0  0  0  0  0  0
  -23.2679  -27.8985   27.9235 C   0  0  0  0  0  0  0  0  0  0  0  0
  -27.3900  -31.6556   24.3510 C   0  0  0  0  0  0  0  0  0  0  0  0
  -26.9933  -30.2282   26.3693 C   0  0  0  0  0  0  0  0  0  0  0  0
  -25.6652  -32.3137   26.0381 C   0  0  0  0  0  0  0  0  0  0  0  0
  -21.3132  -27.1914   24.7368 C   0  0  0  0  0  0  0  0  0  0  0  0
  -26.9412  -25.3049   19.4798 C   0  0  0  0  0  0  0  0  0  1  0  0
  -22.4549  -19.7072   18.9654 C   0  0  0  0  0  0  0  0  0  0  0  0
  -23.2294  -20.6443   18.0575 C   0  0  0  0  0  0  0  0  0  0  0  0
  -25.2018  -30.3039   24.5759 C   0  0  1  0  0  0  0  0  0  0  0  0
  -22.7331  -28.1935   26.5308 C   0  0  2  0  0  0  0  0  0  0  0  0
  -26.3084  -31.1150   25.3074 C   0  0  0  0  0  0  0  0  0  0  0  0
  -25.4116  -13.6508   19.4305 N   0  0  0  0  0  0  0  0  0  0  0  0
  -27.9784  -21.9972   18.2780 N   0  0  0  0  0  0  0  0  0  0  0  0
  -24.1689  -13.6577   19.9422 N   0  0  0  0  0  0  0  0  0  0  0  0
  -24.5941  -30.6132   22.1971 N   0  0  0  0  0  0  0  0  0  0  0  0
  -22.4797  -16.2196   17.6636 N   0  0  0  0  0  0  0  0  0  0  0  0
  -22.8821  -12.9175   21.7880 N   0  0  0  0  0  0  0  0  0  0  0  0
  -25.6124  -10.3911   22.5347 N   0  0  0  0  0  0  0  0  0  0  0  0
  -25.2420  -33.5521   20.6764 N   0  0  0  0  0  0  0  0  0  0  0  0
  -24.1497  -29.8026   25.4534 N   0  0  0  0  0  0  0  0  0  0  0  0
  -22.7693  -18.3182   18.7153 N   0  0  0  0  0  0  0  0  0  0  0  0
  -24.7144  -20.4199   18.2375 N   0  3  2  0  0  0  0  0  0  0  0  0
  -21.9200  -27.0277   26.0829 N   0  3  0  0  0  0  0  0  0  0  0  0
  -24.8231  -23.4246   19.4635 O   0  0  0  0  0  0  0  0  0  0  0  0
  -26.0646  -12.3431   23.6499 O   0  0  0  0  0  0  0  0  0  0  0  0
  -26.2393  -31.5419   20.0545 O   0  0  0  0  0  0  0  0  0  0  0  0
  -23.9093  -32.1428   23.8181 O   0  0  0  0  0  0  0  0  0  0  0  0
  -24.4329  -27.5603   24.9348 O   0  0  0  0  0  0  0  0  0  0  0  0
  -21.1285  -18.0301   17.1399 O   0  0  0  0  0  0  0  0  0  0  0  0
  -31.5800  -12.0774   19.5935 O   0  0  0  0  0  0  0  0  0  0  0  0
  -26.0227  -25.8501   18.5349 O   0  0  0  0  0  0  0  0  0  1  0  0
  -33.6487  -12.9569   14.5585 F   0  0  0  0  0  0  0  0  0  0  0  0
  -32.8036  -10.0364   18.1864 F   0  0  0  0  0  0  0  0  0  0  0  0
  1  2  1  0  0  0  0
  1  5  2  0  0  0  0
  2  6  2  0  0  0  0
  3  8  2  0  0  0  0
  3 16  1  0  0  0  0
  4  9  1  0  0  0  0
  4 16  2  0  0  0  0
  5 18  1  0  0  0  0
  6 20  1  0  0  0  0
  7 10  2  0  0  0  0
  7 19  1  0  0  0  0
  8 23  1  0  0  0  0
  9 23  2  0  0  0  0
 10 24  1  0  0  0  0
 11 12  2  0  0  0  0
 11 25  1  0  0  0  0
 12 26  1  0  0  0  0
 13 21  1  0  0  0  0
 13 24  2  0  0  0  0
 14 22  1  0  0  0  0
 14 30  2  0  0  0  0
 15 26  2  0  0  0  0
 15 27  1  0  0  0  0
 16 28  1  0  0  0  0
 17 28  1  0  0  0  0
 17 31  2  0  0  0  0
 17 33  1  0  0  0  0
 18 20  2  0  0  0  0
 18 38  1  0  0  0  0
 19 21  2  0  0  0  0
 19 39  1  0  0  0  0
 20 50  1  0  0  0  0
 21 40  1  0  0  0  0
 22 29  2  0  0  0  0
 22 61  1  0  0  0  0
 23 85  1  0  0  0  0
 24 86  1  0  0  0  0
 25 27  2  0  0  0  0
 25 85  1  0  0  0  0
 26 87  1  0  0  0  0
 27 88  1  0  0  0  0
 28 67  2  0  0  0  0
 29 32  1  0  0  0  0
 29 68  1  0  0  0  0
 30 54  1  0  0  0  0
 30 68  1  0  0  0  0
 31 69  1  0  0  0  0
 31 72  1  0  0  0  0
 32 41  1  0  0  0  0
 32 79  2  0  0  0  0
 33 73  1  0  0  0  0
 33 80  2  0  0  0  0
 34 51  1  0  0  0  0
 34 74  1  0  0  0  0
 34 81  2  0  0  0  0
 35 64  1  0  0  0  0
 35 70  1  0  0  0  0
 35 82  2  0  0  0  0
 36 65  1  0  0  0  0
 36 75  1  0  0  0  0
 36 83  2  0  0  0  0
 37 71  1  0  0  0  0
 37 76  1  0  0  0  0
 37 84  2  0  0  0  0
 38 42  1  0  0  0  0
 39 51  1  0  0  0  0
 40 70  1  0  0  0  0
 41 77  1  0  0  0  0
 42 44  1  0  0  0  0
 43 45  1  0  0  0  0
 43 47  1  0  0  0  0
 44 50  1  0  0  0  0
 45 52  1  0  0  0  0
 46 49  1  0  0  0  0
 46 53  1  0  0  0  0
 47 71  1  0  0  0  0
 48 52  1  0  0  0  0
 48 71  1  0  0  0  0
 49 77  1  0  0  0  0
 50 74  1  0  0  0  0
 51 70  1  0  0  0  0
 52 69  1  0  0  0  0
 53 55  1  0  0  0  0
 53 68  1  0  0  0  0
 56 65  1  0  0  0  0
 57 66  1  0  0  0  0
 58 66  1  0  0  0  0
 59 66  1  0  0  0  0
 60 78  1  0  0  0  0
 61 86  1  0  0  0  0
 62 63  1  0  0  0  0
 62 76  1  0  0  0  0
 63 77  1  0  0  0  0
 64 66  1  0  0  0  0
 64 75  1  0  0  0  0
 65 78  1  0  0  0  0
 67 69  1  0  0  0  0
M  CHG  2  77   1  78   1
M  ISO  4  37 100  61 101  76 100  86 101
M  END
> <Batch ID>
0137

> <Smiles>
CNC(C)C(=O)NC(C(=O)N1Cc2cc([101O:1][101CH2:1]c3cc(C)n4c3C(=O)CN(CC[100NH:0][100C:0](=O)N3CCCC(n5nc(-c6ccc(Oc7ccc(F)cc7F)cc6)c(C(N)=O)c5N)C3)CCC4C)ccc2CC1C(=O)NC1CCCc2ccccc21)C(C)(C)C

> <Shape>
0.217

> <Color>
0.093

> <Negative vol penalty>
0.000

$$$$

  -OEChem-04052321053D

 88 98  0     1  0  0  0  0  0999 V2000
  -30.6338  -32.9792   24.7647 C   0  0  0  0  0  0  0  0  0  0  0  0
  -30.0208  -31.7912   24.3797 C   0  0  0  0  0  0  0  0  0  0  0  0
  -24.8740  -14.8060   23.1160 C   0  0  0  0  0  0  0  0  0  0  0  0
  -24.0949  -15.7129   21.0166 C   0  0  0  0  0  0  0  0  0  0  0  0
  -29.8560  -34.0767   25.1314 C   0  0  0  0  0  0  0  0  0  0  0  0
  -28.6295  -31.6996   24.3623 C   0  0  0  0  0  0  0  0  0  0  0  0
  -26.8828  -29.4498   20.1751 C   0  0  0  0  0  0  0  0  0  0  0  0
  -27.8757  -23.0904   20.7738 C   0  0  0  0  0  0  0  0  0  0  0  0
  -27.7750  -21.7001   20.7261 C   0  0  0  0  0  0  0  0  0  0  0  0
  -24.4990  -15.9830   23.7636 C   0  0  0  0  0  0  0  0  0  0  0  0
  -23.7198  -16.8900   21.6642 C   0  0  0  0  0  0  0  0  0  0  0  0
  -26.9678  -28.0594   20.1167 C   0  0  0  0  0  0  0  0  0  0  0  0
  -21.6498  -17.3937   24.9148 C   0  0  0  0  0  0  0  0  0  0  0  0
  -20.9627  -17.2780   26.1231 C   0  0  0  0  0  0  0  0  0  0  0  0
  -26.1884  -23.2718   19.0542 C   0  0  0  0  0  0  0  0  0  0  0  0
  -24.6402  -27.8973   20.7291 C   0  0  0  0  0  0  0  0  0  0  0  0
  -22.7258  -18.4932   27.2420 C   0  0  0  0  0  0  0  0  0  0  0  0
  -24.6720  -14.6709   21.7424 C   0  0  0  0  0  0  0  0  0  0  0  0
  -24.2703  -12.3078   20.8696 C   0  0  0  0  0  0  0  0  0  0  0  0
  -28.4544  -34.0016   25.1093 C   0  0  0  0  0  0  0  0  0  0  0  0
  -25.6766  -30.0752   20.5223 C   0  0  0  0  0  0  0  0  0  0  0  0
  -27.8322  -32.7967   24.7304 C   0  0  0  0  0  0  0  0  0  0  0  0
  -26.0876  -21.8814   19.0064 C   0  0  0  0  0  0  0  0  0  0  0  0
  -24.5418  -29.2959   20.7888 C   0  0  0  0  0  0  0  0  0  0  0  0
  -27.0824  -23.8763   19.9379 C   0  0  0  0  0  0  0  0  0  0  0  0
  -26.8809  -21.0955   19.8424 C   0  0  0  0  0  0  0  0  0  0  0  0
  -23.9219  -17.0250   23.0378 C   0  0  0  0  0  0  0  0  0  0  0  0
  -25.8472  -27.2829   20.3965 C   0  0  0  0  0  0  0  0  0  0  0  0
  -22.8750  -18.0590   24.8701 C   0  0  0  0  0  0  0  0  0  0  0  0
  -21.5007  -17.8278   27.2867 C   0  0  0  0  0  0  0  0  0  0  0  0
  -23.4130  -18.6088   26.0337 C   0  0  0  0  0  0  0  0  0  0  0  0
  -25.0598  -13.4555   21.0727 C   0  0  0  0  0  0  0  0  0  0  0  0
  -25.0916  -11.4419   20.1898 C   0  0  0  0  0  0  0  0  0  0  0  0
  -22.9156  -12.0476   21.2605 C   0  0  0  0  0  0  0  0  0  0  0  0
  -24.7348  -31.9735   22.8915 C   0  0  0  0  0  0  0  0  0  0  0  0
  -21.9964  -32.1263   21.1595 C   0  0  0  0  0  0  0  0  0  0  0  0
  -19.9514  -30.6835   18.8394 C   0  0  0  0  0  0  0  0  0  0  0  0
  -29.4653  -14.7500   19.5669 C   0  0  0  0  0  0  0  0  0  0  0  0
  -27.6560  -35.1992   25.5596 C   0  0  0  0  0  0  0  0  0  0  0  0
  -25.5943  -31.5767   20.5549 C   0  0  0  0  0  0  0  0  0  0  0  0
  -23.2181  -29.9189   21.1466 C   0  0  0  0  0  0  0  0  0  0  0  0
  -26.1855  -35.1383   25.1545 C   0  0  0  0  0  0  0  0  0  0  0  0
  -29.2875  -11.5710   21.1885 C   0  0  0  0  0  0  0  0  0  0  0  0
  -30.0327  -16.2690   16.3234 C   0  0  0  0  0  0  0  0  0  0  0  0
  -25.6158  -20.8165   16.7005 C   0  0  0  0  0  0  0  0  0  0  0  0
  -24.7232  -22.0124   16.8156 C   0  0  0  0  0  0  0  0  0  0  0  0
  -25.6026  -33.7634   25.4655 C   0  0  0  0  0  0  0  0  0  0  0  0
  -28.3858  -10.7265   20.2951 C   0  0  0  0  0  0  0  0  0  0  0  0
  -29.2721  -17.4070   16.9894 C   0  0  0  0  0  0  0  0  0  0  0  0
  -30.1431  -12.5098   20.3521 C   0  0  0  0  0  0  0  0  0  0  0  0
  -29.4882  -15.0421   17.0384 C   0  0  0  0  0  0  0  0  0  0  0  0
  -28.3710  -12.6557   18.6129 C   0  0  0  0  0  0  0  0  0  0  0  0
  -25.1235  -21.2553   18.0537 C   0  0  0  0  0  0  0  0  0  0  0  0
  -26.3255  -32.6661   24.6750 C   0  0  1  0  0  0  0  0  0  0  0  0
  -24.4499  -32.0937   21.4211 C   0  0  1  0  0  0  0  0  0  0  0  0
  -27.5333  -11.5803   19.3427 C   0  0  2  0  0  0  0  0  0  0  0  0
  -29.1897  -16.9653   18.4532 C   0  0  1  0  0  0  0  0  0  0  0  0
  -17.7652  -31.0258   17.6559 C   0  0  0  0  0  0  0  0  0  0  0  0
  -20.5015  -31.2830   23.6823 C   0  0  0  0  0  0  0  0  0  0  0  0
  -18.5294  -30.7266   22.2437 C   0  0  0  0  0  0  0  0  0  0  0  0
  -19.3718  -33.0722   22.3492 C   0  0  0  0  0  0  0  0  0  0  0  0
  -21.2658  -30.7625   16.1889 C   0  0  0  0  0  0  0  0  0  0  0  0
  -26.7911  -19.5982   19.8112 C   0  0  0  0  0  0  0  0  0  0  0  0
  -27.1906  -25.3632   19.9891 C   0  0  0  0  0  0  0  0  0  1  0  0
  -27.9271  -17.4798   19.1325 C   0  0  0  0  0  0  0  0  0  0  0  0
  -20.7168  -31.3267   21.1098 C   0  0  1  0  0  0  0  0  0  0  0  0
  -19.2686  -31.2497   17.6074 C   0  0  2  0  0  0  0  0  0  0  0  0
  -19.8052  -31.5900   22.3414 C   0  0  0  0  0  0  0  0  0  0  0  0
  -26.2884  -13.3330   20.5632 N   0  0  0  0  0  0  0  0  0  0  0  0
  -26.2771  -12.0980   20.0334 N   0  0  0  0  0  0  0  0  0  0  0  0
  -23.1899  -31.3907   21.1714 N   0  0  0  0  0  0  0  0  0  0  0  0
  -29.3316  -13.3564   19.4773 N   0  0  0  0  0  0  0  0  0  0  0  0
  -29.2490  -15.4993   18.4082 N   0  0  0  0  0  0  0  0  0  0  0  0
  -24.9083  -10.1910   19.7166 N   0  0  0  0  0  0  0  0  0  0  0  0
  -22.2163  -13.0461   21.9522 N   0  0  0  0  0  0  0  0  0  0  0  0
  -25.8688  -32.6482   23.3018 N   0  0  0  0  0  0  0  0  0  0  0  0
  -20.0927  -31.6346   19.8276 N   0  0  0  0  0  0  0  0  0  0  0  0
  -19.8009  -30.6010   16.3759 N   0  3  0  0  0  0  0  0  0  0  0  0
  -27.9479  -18.9579   19.1232 N   0  3  0  0  0  0  0  0  0  0  0  0
  -22.3475  -10.9557   21.0184 O   0  0  0  0  0  0  0  0  0  0  0  0
  -23.9808  -31.3184   23.6014 O   0  0  0  0  0  0  0  0  0  0  0  0
  -21.9391  -33.3584   21.1797 O   0  0  0  0  0  0  0  0  0  0  0  0
  -20.3191  -29.5134   18.9186 O   0  0  0  0  0  0  0  0  0  0  0  0
  -29.7741  -15.3001   20.6323 O   0  0  0  0  0  0  0  0  0  0  0  0
  -23.5556  -18.1736   23.6695 O   0  0  0  0  0  0  0  0  0  0  0  0
  -25.9282  -25.9162   20.3404 O   0  0  0  0  0  0  0  0  0  1  0  0
  -20.8400  -17.7180   28.4467 F   0  0  0  0  0  0  0  0  0  0  0  0
  -24.5890  -19.2501   25.9967 F   0  0  0  0  0  0  0  0  0  0  0  0
  1  2  1  0  0  0  0
  1  5  2  0  0  0  0
  2  6  2  0  0  0  0
  3 10  2  0  0  0  0
  3 18  1  0  0  0  0
  4 11  1  0  0  0  0
  4 18  2  0  0  0  0
  5 20  1  0  0  0  0
  6 22  1  0  0  0  0
  7 12  2  0  0  0  0
  7 21  1  0  0  0  0
  8  9  2  0  0  0  0
  8 25  1  0  0  0  0
  9 26  1  0  0  0  0
 10 27  1  0  0  0  0
 11 27  2  0  0  0  0
 12 28  1  0  0  0  0
 13 14  2  0  0  0  0
 13 29  1  0  0  0  0
 14 30  1  0  0  0  0
 15 23  1  0  0  0  0
 15 25  2  0  0  0  0
 16 24  1  0  0  0  0
 16 28  2  0  0  0  0
 17 30  2  0  0  0  0
 17 31  1  0  0  0  0
 18 32  1  0  0  0  0
 19 32  1  0  0  0  0
 19 33  2  0  0  0  0
 19 34  1  0  0  0  0
 20 22  2  0  0  0  0
 20 39  1  0  0  0  0
 21 24  2  0  0  0  0
 21 40  1  0  0  0  0
 22 54  1  0  0  0  0
 23 26  2  0  0  0  0
 23 53  1  0  0  0  0
 24 41  1  0  0  0  0
 25 64  1  0  0  0  0
 26 63  1  0  0  0  0
 27 85  1  0  0  0  0
 28 86  1  0  0  0  0
 29 31  2  0  0  0  0
 29 85  1  0  0  0  0
 30 87  1  0  0  0  0
 31 88  1  0  0  0  0
 32 69  2  0  0  0  0
 33 70  1  0  0  0  0
 33 74  1  0  0  0  0
 34 75  1  0  0  0  0
 34 80  2  0  0  0  0
 35 55  1  0  0  0  0
 35 76  1  0  0  0  0
 35 81  2  0  0  0  0
 36 66  1  0  0  0  0
 36 71  1  0  0  0  0
 36 82  2  0  0  0  0
 37 67  1  0  0  0  0
 37 77  1  0  0  0  0
 37 83  2  0  0  0  0
 38 72  1  0  0  0  0
 38 73  1  0  0  0  0
 38 84  2  0  0  0  0
 39 42  1  0  0  0  0
 40 55  1  0  0  0  0
 41 71  1  0  0  0  0
 42 47  1  0  0  0  0
 43 48  1  0  0  0  0
 43 50  1  0  0  0  0
 44 49  1  0  0  0  0
 44 51  1  0  0  0  0
 45 46  1  0  0  0  0
 45 53  1  0  0  0  0
 46 53  1  0  0  0  0
 47 54  1  0  0  0  0
 48 56  1  0  0  0  0
 49 57  1  0  0  0  0
 50 72  1  0  0  0  0
 51 73  1  0  0  0  0
 52 56  1  0  0  0  0
 52 72  1  0  0  0  0
 54 76  1  0  0  0  0
 55 71  1  0  0  0  0
 56 70  1  0  0  0  0
 57 65  1  0  0  0  0
 57 73  1  0  0  0  0
 58 67  1  0  0  0  0
 59 68  1  0  0  0  0
 60 68  1  0  0  0  0
 61 68  1  0  0  0  0
 62 78  1  0  0  0  0
 63 79  1  0  0  0  0
 64 86  1  0  0  0  0
 65 79  1  0  0  0  0
 66 68  1  0  0  0  0
 66 77  1  0  0  0  0
 67 78  1  0  0  0  0
 69 70  1  0  0  0  0
M  CHG  2  78   1  79   1
M  ISO  4  38 100  64 101  73 100  86 101
M  END
> <Batch ID>
0137

> <Smiles>
CNC(C)C(=O)NC(C(=O)N1Cc2cc([101O:1][101CH2:1]c3ccc(CNCC4CCC[100N:0]4[100C:0](=O)N4CCCC(n5nc(-c6ccc(Oc7ccc(F)cc7F)cc6)c(C(N)=O)c5N)C4)c(C4CC4)c3)ccc2CC1C(=O)NC1CCCc2ccccc21)C(C)(C)C

> <Shape>
0.235

> <Color>
0.084

> <Negative vol penalty>
0.000

$$$$

  -OEChem-04052321053D

 88 98  0     1  0  0  0  0  0999 V2000
  -25.5942  -37.7199   22.5451 C   0  0  0  0  0  0  0  0  0  0  0  0
  -26.2454  -36.8430   21.6834 C   0  0  0  0  0  0  0  0  0  0  0  0
  -33.5101  -21.2945   20.0922 C   0  0  0  0  0  0  0  0  0  0  0  0
  -34.5267  -21.0776   19.1622 C   0  0  0  0  0  0  0  0  0  0  0  0
  -23.0325  -10.7899   21.8619 C   0  0  0  0  0  0  0  0  0  0  0  0
  -24.7264   -9.2315   21.1276 C   0  0  0  0  0  0  0  0  0  0  0  0
  -25.0310  -37.2433   23.7281 C   0  0  0  0  0  0  0  0  0  0  0  0
  -26.3347  -35.4891   22.0049 C   0  0  0  0  0  0  0  0  0  0  0  0
  -32.2605  -21.7458   19.6672 C   0  0  0  0  0  0  0  0  0  0  0  0
  -26.4822  -29.0195   18.9326 C   0  0  0  0  0  0  0  0  0  0  0  0
  -34.2938  -21.3119   17.8070 C   0  0  0  0  0  0  0  0  0  0  0  0
  -22.0680   -9.7869   21.7657 C   0  0  0  0  0  0  0  0  0  0  0  0
  -23.7618   -8.2284   21.0315 C   0  0  0  0  0  0  0  0  0  0  0  0
  -27.2436  -27.8517   18.9169 C   0  0  0  0  0  0  0  0  0  0  0  0
  -21.8093   -5.1630   20.9387 C   0  0  0  0  0  0  0  0  0  0  0  0
  -22.1247   -3.9070   21.4571 C   0  0  0  0  0  0  0  0  0  0  0  0
  -26.1644  -27.1279   20.9494 C   0  0  0  0  0  0  0  0  0  0  0  0
  -22.4335   -4.8871   23.6437 C   0  0  0  0  0  0  0  0  0  0  0  0
  -24.3617  -10.5122   21.5428 C   0  0  0  0  0  0  0  0  0  0  0  0
  -26.1420  -11.8696   22.7658 C   0  0  0  0  0  0  0  0  0  0  0  0
  -25.1051  -35.8812   24.0596 C   0  0  0  0  0  0  0  0  0  0  0  0
  -25.5624  -29.2557   19.9644 C   0  0  0  0  0  0  0  0  0  0  0  0
  -25.7731  -34.9940   23.1942 C   0  0  0  0  0  0  0  0  0  0  0  0
  -32.0276  -21.9801   18.3120 C   0  0  0  0  0  0  0  0  0  0  0  0
  -25.3907  -28.2983   20.9744 C   0  0  0  0  0  0  0  0  0  0  0  0
  -33.0442  -21.7632   17.3819 C   0  0  0  0  0  0  0  0  0  0  0  0
  -22.4326   -8.5061   21.3506 C   0  0  0  0  0  0  0  0  0  0  0  0
  -27.0869  -26.9070   19.9270 C   0  0  0  0  0  0  0  0  0  0  0  0
  -21.8060   -6.2810   21.7728 C   0  0  0  0  0  0  0  0  0  0  0  0
  -22.4368   -3.7691   22.8096 C   0  0  0  0  0  0  0  0  0  0  0  0
  -22.1180   -6.1430   23.1253 C   0  0  0  0  0  0  0  0  0  0  0  0
  -25.3584  -11.5480   21.6413 C   0  0  0  0  0  0  0  0  0  0  0  0
  -26.9265  -12.9172   22.3494 C   0  0  0  0  0  0  0  0  0  0  0  0
  -26.1592  -11.2744   24.0701 C   0  0  0  0  0  0  0  0  0  0  0  0
  -25.2472  -31.4672   22.2257 C   0  0  0  0  0  0  0  0  0  0  0  0
  -22.4483  -29.9292   22.7940 C   0  0  0  0  0  0  0  0  0  0  0  0
  -20.6215  -27.0562   22.5587 C   0  0  0  0  0  0  0  0  0  0  0  0
  -27.0835  -17.8670   19.7481 C   0  0  0  0  0  0  0  0  0  0  0  0
  -24.5224  -35.4208   25.3723 C   0  0  0  0  0  0  0  0  0  0  0  0
  -24.7295  -30.5081   19.9524 C   0  0  0  0  0  0  0  0  0  0  0  0
  -24.4021  -28.4949   22.0936 C   0  0  0  0  0  0  0  0  0  0  0  0
  -24.3344  -33.9084   25.4582 C   0  0  0  0  0  0  0  0  0  0  0  0
  -27.7147  -14.8185   17.7324 C   0  0  0  0  0  0  0  0  0  0  0  0
  -25.5849  -33.1862   24.9667 C   0  0  0  0  0  0  0  0  0  0  0  0
  -27.1775  -13.7283   18.6608 C   0  0  0  0  0  0  0  0  0  0  0  0
  -29.9013  -19.5730   18.1169 C   0  0  0  0  0  0  0  0  0  0  0  0
  -30.4875  -23.9973   17.9000 C   0  0  0  0  0  0  0  0  0  0  0  0
  -26.9493  -16.1216   17.9221 C   0  0  0  0  0  0  0  0  0  0  0  0
  -28.9942  -18.3466   18.1070 C   0  0  0  0  0  0  0  0  0  0  0  0
  -26.4070  -15.5485   20.2576 C   0  0  0  0  0  0  0  0  0  0  0  0
  -27.8701  -20.1577   19.2186 C   0  0  0  0  0  0  0  0  0  0  0  0
  -28.5556  -23.0762   18.9453 C   0  0  0  0  0  0  0  0  0  0  0  0
  -25.8692  -33.5142   23.4960 C   0  0  1  0  0  0  0  0  0  0  0  0
  -30.6658  -22.4676   17.8747 C   0  0  2  0  0  0  0  0  0  0  0  0
  -24.1921  -30.8815   21.3305 C   0  0  1  0  0  0  0  0  0  0  0  0
  -29.4802  -24.2768   19.0134 C   0  0  2  0  0  0  0  0  0  0  0  0
  -27.1493  -14.2070   20.1238 C   0  0  1  0  0  0  0  0  0  0  0  0
  -28.8913  -20.7043   18.2379 C   0  0  1  0  0  0  0  0  0  0  0  0
  -32.8186  -22.0078   15.9259 C   0  0  0  0  0  0  0  0  0  0  0  0
  -18.3794  -26.0939   23.1453 C   0  0  0  0  0  0  0  0  0  0  0  0
  -23.3172  -29.6879   25.7089 C   0  0  0  0  0  0  0  0  0  0  0  0
  -21.5506  -27.9409   26.0181 C   0  0  0  0  0  0  0  0  0  0  0  0
  -20.9058  -30.2656   25.3835 C   0  0  0  0  0  0  0  0  0  0  0  0
  -19.9722  -26.5364   19.7184 C   0  0  0  0  0  0  0  0  0  0  0  0
  -28.7493  -25.5975   18.8418 C   0  0  0  0  0  0  0  0  0  1  0  0
  -22.0203  -28.7771   23.6706 C   0  0  1  0  0  0  0  0  0  0  0  0
  -19.2037  -26.8003   22.0803 C   0  0  2  0  0  0  0  0  0  0  0  0
  -21.9686  -29.1648   25.1754 C   0  0  0  0  0  0  0  0  0  0  0  0
  -25.6211  -12.3283   20.5896 N   0  0  0  0  0  0  0  0  0  0  0  0
  -26.5785  -13.1506   21.0515 N   0  0  0  0  0  0  0  0  0  0  0  0
  -23.6157  -29.7384   22.0412 N   0  0  0  0  0  0  0  0  0  0  0  0
  -26.9532  -16.5388   19.3271 N   0  0  0  0  0  0  0  0  0  0  0  0
  -27.8667  -18.7172   18.9687 N   0  0  0  0  0  0  0  0  0  0  0  0
  -27.8732  -13.6524   22.9705 N   0  0  0  0  0  0  0  0  0  0  0  0
  -25.2884  -10.2071   24.3290 N   0  0  0  0  0  0  0  0  0  0  0  0
  -24.9860  -32.7623   22.6306 N   0  0  0  0  0  0  0  0  0  0  0  0
  -20.7500  -28.3039   23.1314 N   0  0  0  0  0  0  0  0  0  0  0  0
  -29.5216  -21.9343   18.7445 N   0  3  2  0  0  0  0  0  0  0  0  0
  -19.2156  -25.9517   20.8554 N   0  3  0  0  0  0  0  0  0  0  0  0
  -26.9124  -11.6878   24.9840 O   0  0  0  0  0  0  0  0  0  0  0  0
  -26.2252  -30.7935   22.5280 O   0  0  0  0  0  0  0  0  0  0  0  0
  -21.7678  -30.9579   22.7723 O   0  0  0  0  0  0  0  0  0  0  0  0
  -21.5239  -26.2303   22.4398 O   0  0  0  0  0  0  0  0  0  0  0  0
  -26.5636  -18.2638   20.7995 O   0  0  0  0  0  0  0  0  0  0  0  0
  -21.4918   -7.5271   21.2569 O   0  0  0  0  0  0  0  0  0  0  0  0
  -27.8355  -25.7571   19.9143 O   0  0  0  0  0  0  0  0  0  1  0  0
  -22.7383   -2.5627   23.3075 F   0  0  0  0  0  0  0  0  0  0  0  0
  -22.1153   -7.2132   23.9318 F   0  0  0  0  0  0  0  0  0  0  0  0
  1  2  1  0  0  0  0
  1  7  2  0  0  0  0
  2  8  2  0  0  0  0
  3  4  1  0  0  0  0
  3  9  2  0  0  0  0
  4 11  2  0  0  0  0
  5 12  2  0  0  0  0
  5 19  1  0  0  0  0
  6 13  1  0  0  0  0
  6 19  2  0  0  0  0
  7 21  1  0  0  0  0
  8 23  1  0  0  0  0
  9 24  1  0  0  0  0
 10 14  2  0  0  0  0
 10 22  1  0  0  0  0
 11 26  1  0  0  0  0
 12 27  1  0  0  0  0
 13 27  2  0  0  0  0
 14 28  1  0  0  0  0
 15 16  2  0  0  0  0
 15 29  1  0  0  0  0
 16 30  1  0  0  0  0
 17 25  1  0  0  0  0
 17 28  2  0  0  0  0
 18 30  2  0  0  0  0
 18 31  1  0  0  0  0
 19 32  1  0  0  0  0
 20 32  1  0  0  0  0
 20 33  2  0  0  0  0
 20 34  1  0  0  0  0
 21 23  2  0  0  0  0
 21 39  1  0  0  0  0
 22 25  2  0  0  0  0
 22 40  1  0  0  0  0
 23 53  1  0  0  0  0
 24 26  2  0  0  0  0
 24 54  1  0  0  0  0
 25 41  1  0  0  0  0
 26 59  1  0  0  0  0
 27 85  1  0  0  0  0
 28 86  1  0  0  0  0
 29 31  2  0  0  0  0
 29 85  1  0  0  0  0
 30 87  1  0  0  0  0
 31 88  1  0  0  0  0
 32 69  2  0  0  0  0
 33 70  1  0  0  0  0
 33 74  1  0  0  0  0
 34 75  1  0  0  0  0
 34 80  2  0  0  0  0
 35 55  1  0  0  0  0
 35 76  1  0  0  0  0
 35 81  2  0  0  0  0
 36 66  1  0  0  0  0
 36 71  1  0  0  0  0
 36 82  2  0  0  0  0
 37 67  1  0  0  0  0
 37 77  1  0  0  0  0
 37 83  2  0  0  0  0
 38 72  1  0  0  0  0
 38 73  1  0  0  0  0
 38 84  2  0  0  0  0
 39 42  1  0  0  0  0
 40 55  1  0  0  0  0
 41 71  1  0  0  0  0
 42 44  1  0  0  0  0
 43 45  1  0  0  0  0
 43 48  1  0  0  0  0
 44 53  1  0  0  0  0
 45 57  1  0  0  0  0
 46 49  1  0  0  0  0
 46 58  1  0  0  0  0
 47 54  1  0  0  0  0
 47 56  1  0  0  0  0
 48 72  1  0  0  0  0
 49 73  1  0  0  0  0
 50 57  1  0  0  0  0
 50 72  1  0  0  0  0
 51 58  1  0  0  0  0
 51 73  1  0  0  0  0
 52 56  1  0  0  0  0
 52 78  1  0  0  0  0
 53 76  1  0  0  0  0
 54 78  1  0  0  0  0
 55 71  1  0  0  0  0
 56 65  1  0  0  0  0
 57 70  1  0  0  0  0
 58 78  1  0  0  0  0
 60 67  1  0  0  0  0
 61 68  1  0  0  0  0
 62 68  1  0  0  0  0
 63 68  1  0  0  0  0
 64 79  1  0  0  0  0
 65 86  1  0  0  0  0
 66 68  1  0  0  0  0
 66 77  1  0  0  0  0
 67 79  1  0  0  0  0
 69 70  1  0  0  0  0
M  CHG  2  78   1  79   1
M  ISO  4  38 100  65 101  73 100  86 101
M  END
> <Batch ID>
0137

> <Smiles>
CNC(C)C(=O)NC(C(=O)N1Cc2cc([101O:1][101CH2:1]C3CC(c4ccccc4C)N(C4CC[100N:0]([100C:0](=O)N5CCCC(n6nc(-c7ccc(Oc8ccc(F)cc8F)cc7)c(C(N)=O)c6N)C5)C4)C3)ccc2CC1C(=O)NC1CCCc2ccccc21)C(C)(C)C

> <Shape>
0.346

> <Color>
0.083

> <Negative vol penalty>
0.000

$$$$

  -OEChem-04052321053D

 84 92  0     1  0  0  0  0  0999 V2000
  -22.7022   -8.4051   20.6277 C   0  0  0  0  0  0  0  0  0  0  0  0
  -21.9826   -9.5957   20.6231 C   0  0  0  0  0  0  0  0  0  0  0  0
  -26.6038  -26.9918   21.3568 C   0  0  0  0  0  0  0  0  0  0  0  0
  -27.4969  -28.5086   19.7017 C   0  0  0  0  0  0  0  0  0  0  0  0
  -24.0161   -8.3879   21.0940 C   0  0  0  0  0  0  0  0  0  0  0  0
  -22.5760  -10.7696   21.0859 C   0  0  0  0  0  0  0  0  0  0  0  0
  -21.6638  -16.4410   18.9625 C   0  0  0  0  0  0  0  0  0  0  0  0
  -27.6533  -26.1064   21.1117 C   0  0  0  0  0  0  0  0  0  0  0  0
  -28.5465  -27.6232   19.4567 C   0  0  0  0  0  0  0  0  0  0  0  0
  -20.8586  -17.4899   19.4046 C   0  0  0  0  0  0  0  0  0  0  0  0
  -31.2627  -25.6002   18.1377 C   0  0  0  0  0  0  0  0  0  0  0  0
  -31.5986  -25.3449   16.8082 C   0  0  0  0  0  0  0  0  0  0  0  0
  -22.7412  -18.4299   20.5842 C   0  0  0  0  0  0  0  0  0  0  0  0
  -29.3719  -24.4969   16.4084 C   0  0  0  0  0  0  0  0  0  0  0  0
  -26.5255  -28.1929   20.6517 C   0  0  0  0  0  0  0  0  0  0  0  0
  -25.4127  -30.1531   21.8463 C   0  0  0  0  0  0  0  0  0  0  0  0
  -24.6292   -9.5640   21.5537 C   0  0  0  0  0  0  0  0  0  0  0  0
  -23.0133  -16.3728   19.3376 C   0  0  0  0  0  0  0  0  0  0  0  0
  -23.8989  -10.7678   21.5601 C   0  0  0  0  0  0  0  0  0  0  0  0
  -23.5620  -17.3805   20.1435 C   0  0  0  0  0  0  0  0  0  0  0  0
  -28.6247  -26.4221   20.1618 C   0  0  0  0  0  0  0  0  0  0  0  0
  -21.3966  -18.4830   20.2179 C   0  0  0  0  0  0  0  0  0  0  0  0
  -29.9814  -25.3037   18.6026 C   0  0  0  0  0  0  0  0  0  0  0  0
  -30.6532  -24.7933   15.9435 C   0  0  0  0  0  0  0  0  0  0  0  0
  -29.0360  -24.7521   17.7379 C   0  0  0  0  0  0  0  0  0  0  0  0
  -25.4412  -29.1077   20.9039 C   0  0  0  0  0  0  0  0  0  0  0  0
  -24.1707  -30.7192   21.6937 C   0  0  0  0  0  0  0  0  0  0  0  0
  -26.4191  -30.5748   22.7765 C   0  0  0  0  0  0  0  0  0  0  0  0
  -24.7814  -14.3098   20.9874 C   0  0  0  0  0  0  0  0  0  0  0  0
  -27.2123  -16.2426   20.0509 C   0  0  0  0  0  0  0  0  0  0  0  0
  -28.2205  -19.3320   19.0086 C   0  0  0  0  0  0  0  0  0  0  0  0
  -18.6584  -30.1900   21.0413 C   0  0  0  0  0  0  0  0  0  0  0  0
  -26.0358   -9.4867   22.0924 C   0  0  0  0  0  0  0  0  0  0  0  0
  -23.8751  -15.2492   18.8305 C   0  0  0  0  0  0  0  0  0  0  0  0
  -25.0100  -17.3643   20.5577 C   0  0  0  0  0  0  0  0  0  0  0  0
  -26.7163  -10.8475   22.2161 C   0  0  0  0  0  0  0  0  0  0  0  0
  -20.6604  -30.0858   18.1329 C   0  0  0  0  0  0  0  0  0  0  0  0
  -25.7793  -11.8552   22.8744 C   0  0  0  0  0  0  0  0  0  0  0  0
  -22.0775  -29.8741   18.6585 C   0  0  0  0  0  0  0  0  0  0  0  0
  -17.3676  -29.7605   24.4833 C   0  0  0  0  0  0  0  0  0  0  0  0
  -19.6531  -29.3012   18.9628 C   0  0  0  0  0  0  0  0  0  0  0  0
  -17.3102  -30.4045   23.1068 C   0  0  0  0  0  0  0  0  0  0  0  0
  -19.0977  -28.8038   23.1561 C   0  0  0  0  0  0  0  0  0  0  0  0
  -21.0947  -29.4661   20.9738 C   0  0  0  0  0  0  0  0  0  0  0  0
  -24.5162  -12.0667   22.0309 C   0  0  1  0  0  0  0  0  0  0  0  0
  -25.1076  -15.0043   19.6955 C   0  0  1  0  0  0  0  0  0  0  0  0
  -18.0481  -28.4209   24.1994 C   0  0  1  0  0  0  0  0  0  0  0  0
  -22.1587  -30.2234   20.1526 C   0  0  1  0  0  0  0  0  0  0  0  0
  -30.2747  -20.6182   18.3578 C   0  0  0  0  0  0  0  0  0  0  0  0
  -17.5384  -27.1394   26.2987 C   0  0  0  0  0  0  0  0  0  0  0  0
  -28.0011  -16.4655   22.9899 C   0  0  0  0  0  0  0  0  0  0  0  0
  -29.4027  -18.4517   22.3911 C   0  0  0  0  0  0  0  0  0  0  0  0
  -29.9236  -16.2183   21.4097 C   0  0  0  0  0  0  0  0  0  0  0  0
  -27.1834  -19.8344   16.2826 C   0  0  0  0  0  0  0  0  0  0  0  0
  -19.7329  -23.5642   23.0630 C   0  0  0  0  0  0  0  0  0  0  0  0
  -20.1996  -21.5541   21.8373 C   0  0  0  0  0  0  0  0  0  0  0  0
  -20.3375  -24.6645   23.9146 C   0  0  0  0  0  0  0  0  0  0  0  0
  -19.7639  -26.7778   25.1161 C   0  0  0  0  0  0  0  0  0  0  0  0
  -21.2271  -20.4907   21.4813 C   0  0  0  0  0  0  0  0  0  1  0  0
  -27.8777  -17.4741   20.6164 C   0  0  1  0  0  0  0  0  0  0  0  0
  -29.1167  -19.7656   17.8627 C   0  0  2  0  0  0  0  0  0  0  0  0
  -18.6387  -27.7741   25.4395 C   0  0  1  0  0  0  0  0  0  0  0  0
  -28.7735  -17.1520   21.8458 C   0  0  0  0  0  0  0  0  0  0  0  0
  -24.3073  -29.0130   20.2045 N   0  0  0  0  0  0  0  0  0  0  0  0
  -23.5546  -30.0061   20.7078 N   0  0  0  0  0  0  0  0  0  0  0  0
  -25.8103  -16.2416   20.0414 N   0  0  0  0  0  0  0  0  0  0  0  0
  -19.7568  -29.6201   20.3880 N   0  0  0  0  0  0  0  0  0  0  0  0
  -18.4657  -29.8785   22.3866 N   0  0  0  0  0  0  0  0  0  0  0  0
  -23.5564  -31.7525   22.3081 N   0  0  0  0  0  0  0  0  0  0  0  0
  -27.6378  -29.8831   22.8014 N   0  0  0  0  0  0  0  0  0  0  0  0
  -24.7993  -12.9306   20.9049 N   0  0  0  0  0  0  0  0  0  0  0  0
  -28.5885  -18.1000   19.5068 N   0  0  0  0  0  0  0  0  0  0  0  0
  -20.7683  -22.5724   22.6962 N   0  0  0  0  0  0  0  0  0  0  0  0
  -28.3397  -20.5596   16.8693 N   0  3  0  0  0  0  0  0  0  0  0  0
  -19.2987  -25.6828   24.2321 N   0  3  0  0  0  0  0  0  0  0  0  0
  -26.2366  -31.5260   23.5736 O   0  0  0  0  0  0  0  0  0  0  0  0
  -24.5333  -14.9760   21.9856 O   0  0  0  0  0  0  0  0  0  0  0  0
  -27.9109  -15.3188   19.6263 O   0  0  0  0  0  0  0  0  0  0  0  0
  -27.2896  -20.0192   19.4231 O   0  0  0  0  0  0  0  0  0  0  0  0
  -17.8563  -30.9148   20.4372 O   0  0  0  0  0  0  0  0  0  0  0  0
  -29.6491  -25.5585   19.9226 O   0  0  0  0  0  0  0  0  0  0  0  0
  -20.6071  -19.5148   20.6544 O   0  0  0  0  0  0  0  0  0  1  0  0
  -30.9755  -24.5497   14.6665 F   0  0  0  0  0  0  0  0  0  0  0  0
  -27.8031  -24.4663   18.1785 F   0  0  0  0  0  0  0  0  0  0  0  0
  1  2  1  0  0  0  0
  1  5  2  0  0  0  0
  2  6  2  0  0  0  0
  3  8  2  0  0  0  0
  3 15  1  0  0  0  0
  4  9  1  0  0  0  0
  4 15  2  0  0  0  0
  5 17  1  0  0  0  0
  6 19  1  0  0  0  0
  7 10  2  0  0  0  0
  7 18  1  0  0  0  0
  8 21  1  0  0  0  0
  9 21  2  0  0  0  0
 10 22  1  0  0  0  0
 11 12  2  0  0  0  0
 11 23  1  0  0  0  0
 12 24  1  0  0  0  0
 13 20  1  0  0  0  0
 13 22  2  0  0  0  0
 14 24  2  0  0  0  0
 14 25  1  0  0  0  0
 15 26  1  0  0  0  0
 16 26  1  0  0  0  0
 16 27  2  0  0  0  0
 16 28  1  0  0  0  0
 17 19  2  0  0  0  0
 17 33  1  0  0  0  0
 18 20  2  0  0  0  0
 18 34  1  0  0  0  0
 19 45  1  0  0  0  0
 20 35  1  0  0  0  0
 21 81  1  0  0  0  0
 22 82  1  0  0  0  0
 23 25  2  0  0  0  0
 23 81  1  0  0  0  0
 24 83  1  0  0  0  0
 25 84  1  0  0  0  0
 26 64  2  0  0  0  0
 27 65  1  0  0  0  0
 27 69  1  0  0  0  0
 28 70  1  0  0  0  0
 28 76  2  0  0  0  0
 29 46  1  0  0  0  0
 29 71  1  0  0  0  0
 29 77  2  0  0  0  0
 30 60  1  0  0  0  0
 30 66  1  0  0  0  0
 30 78  2  0  0  0  0
 31 61  1  0  0  0  0
 31 72  1  0  0  0  0
 31 79  2  0  0  0  0
 32 67  1  0  0  0  0
 32 68  1  0  0  0  0
 32 80  2  0  0  0  0
 33 36  1  0  0  0  0
 34 46  1  0  0  0  0
 35 66  1  0  0  0  0
 36 38  1  0  0  0  0
 37 39  1  0  0  0  0
 37 41  1  0  0  0  0
 38 45  1  0  0  0  0
 39 48  1  0  0  0  0
 40 42  1  0  0  0  0
 40 47  1  0  0  0  0
 41 67  1  0  0  0  0
 42 68  1  0  0  0  0
 43 47  1  0  0  0  0
 43 68  1  0  0  0  0
 44 48  1  0  0  0  0
 44 67  1  0  0  0  0
 45 71  1  0  0  0  0
 46 66  1  0  0  0  0
 47 62  1  0  0  0  0
 48 65  1  0  0  0  0
 49 61  1  0  0  0  0
 50 62  1  0  0  0  0
 51 63  1  0  0  0  0
 52 63  1  0  0  0  0
 53 63  1  0  0  0  0
 54 74  1  0  0  0  0
 55 57  1  0  0  0  0
 55 73  1  0  0  0  0
 56 59  1  0  0  0  0
 56 73  1  0  0  0  0
 57 75  1  0  0  0  0
 58 62  1  0  0  0  0
 58 75  1  0  0  0  0
 59 82  1  0  0  0  0
 60 63  1  0  0  0  0
 60 72  1  0  0  0  0
 61 74  1  0  0  0  0
 64 65  1  0  0  0  0
M  CHG  2  74   1  75   1
M  ISO  4  32 100  59 101  68 100  82 101
M  END
> <Batch ID>
0137

> <Smiles>
CNC(C)C(=O)NC(C(=O)N1Cc2cc([101O:1][101CH2:1]CNCCNCC(C)C3CC[100N:0]([100C:0](=O)N4CCCC(n5nc(-c6ccc(Oc7ccc(F)cc7F)cc6)c(C(N)=O)c5N)C4)C3)ccc2CC1C(=O)NC1CCCc2ccccc21)C(C)(C)C

> <Shape>
0.256

> <Color>
0.057

> <Negative vol penalty>
0.000

$$$$
