
  -OEChem-04052321083D

 81 89  0     1  0  0  0  0  0999 V2000
  -33.4866  -29.1109   14.1098 C   0  0  0  0  0  0  0  0  0  0  0  0
  -34.1110  -28.0884   14.8169 C   0  0  0  0  0  0  0  0  0  0  0  0
  -31.7821  -15.6864   25.3133 C   0  0  0  0  0  0  0  0  0  0  0  0
  -23.7862   -9.5816   20.8198 C   0  0  0  0  0  0  0  0  0  0  0  0
  -24.3867  -10.3006   23.0468 C   0  0  0  0  0  0  0  0  0  0  0  0
  -32.2774  -29.6344   14.5654 C   0  0  0  0  0  0  0  0  0  0  0  0
  -33.5269  -27.5895   15.9807 C   0  0  0  0  0  0  0  0  0  0  0  0
  -33.6663  -21.8028   17.9810 C   0  0  0  0  0  0  0  0  0  0  0  0
  -23.2948   -8.3839   21.3390 C   0  0  0  0  0  0  0  0  0  0  0  0
  -23.8953   -9.1029   23.5660 C   0  0  0  0  0  0  0  0  0  0  0  0
  -34.4615  -21.1559   18.9260 C   0  0  0  0  0  0  0  0  0  0  0  0
  -22.2099   -4.9846   22.0400 C   0  0  0  0  0  0  0  0  0  0  0  0
  -22.5505   -3.8027   21.3822 C   0  0  0  0  0  0  0  0  0  0  0  0
  -33.0134  -16.2284   24.9622 C   0  0  0  0  0  0  0  0  0  0  0  0
  -31.0084  -15.0503   24.3488 C   0  0  0  0  0  0  0  0  0  0  0  0
  -32.7507  -21.4988   20.5917 C   0  0  0  0  0  0  0  0  0  0  0  0
  -24.8904   -4.2581   21.7756 C   0  0  0  0  0  0  0  0  0  0  0  0
  -24.3322  -10.5400   21.6737 C   0  0  0  0  0  0  0  0  0  0  0  0
  -24.1279  -12.9757   20.9433 C   0  0  0  0  0  0  0  0  0  0  0  0
  -31.6734  -29.1351   15.7300 C   0  0  0  0  0  0  0  0  0  0  0  0
  -32.4098  -22.3131   18.3377 C   0  0  0  0  0  0  0  0  0  0  0  0
  -32.3091  -28.1077   16.4530 C   0  0  0  0  0  0  0  0  0  0  0  0
  -31.9403  -22.1495   19.6488 C   0  0  0  0  0  0  0  0  0  0  0  0
  -23.3493   -8.1445   22.7120 C   0  0  0  0  0  0  0  0  0  0  0  0
  -34.0050  -21.0064   20.2322 C   0  0  0  0  0  0  0  0  0  0  0  0
  -23.2095   -5.8033   22.5656 C   0  0  0  0  0  0  0  0  0  0  0  0
  -23.8907   -3.4394   21.2500 C   0  0  0  0  0  0  0  0  0  0  0  0
  -24.5497   -5.4400   22.4334 C   0  0  0  0  0  0  0  0  0  0  0  0
  -24.8404  -11.7772   21.1379 C   0  0  0  0  0  0  0  0  0  0  0  0
  -33.4226  -16.1089   23.6439 C   0  0  0  0  0  0  0  0  0  0  0  0
  -31.5072  -14.9837   23.0578 C   0  0  0  0  0  0  0  0  0  0  0  0
  -25.0526  -13.8429   20.4148 C   0  0  0  0  0  0  0  0  0  0  0  0
  -22.7532  -13.2780   21.2159 C   0  0  0  0  0  0  0  0  0  0  0  0
  -31.0993  -25.2084   18.3981 C   0  0  0  0  0  0  0  0  0  0  0  0
  -28.4160  -23.5518   19.1580 C   0  0  0  0  0  0  0  0  0  0  0  0
  -27.0327  -20.7190   20.4654 C   0  0  0  0  0  0  0  0  0  0  0  0
  -31.0117  -14.1482   20.7334 C   0  0  0  0  0  0  0  0  0  0  0  0
  -30.3896  -29.7651   16.2093 C   0  0  0  0  0  0  0  0  0  0  0  0
  -31.5527  -22.9848   17.3000 C   0  0  0  0  0  0  0  0  0  0  0  0
  -30.5902  -22.6614   20.0774 C   0  0  0  0  0  0  0  0  0  0  0  0
  -29.6485  -28.9245   17.2460 C   0  0  0  0  0  0  0  0  0  0  0  0
  -29.0471  -13.9053   17.7739 C   0  0  0  0  0  0  0  0  0  0  0  0
  -30.6135  -28.4239   18.3160 C   0  0  0  0  0  0  0  0  0  0  0  0
  -27.6789  -13.4469   18.2837 C   0  0  0  0  0  0  0  0  0  0  0  0
  -30.1892  -13.2652   18.5612 C   0  0  0  0  0  0  0  0  0  0  0  0
  -28.7364  -12.9666   20.5282 C   0  0  0  0  0  0  0  0  0  0  0  0
  -31.6944  -27.5231   17.7062 C   0  0  1  0  0  0  0  0  0  0  0  0
  -30.5079  -23.9194   17.9018 C   0  0  1  0  0  0  0  0  0  0  0  0
  -27.5536  -13.6348   19.8083 C   0  0  2  0  0  0  0  0  0  0  0  0
  -24.8135  -19.6708   20.9883 C   0  0  0  0  0  0  0  0  0  0  0  0
  -28.1330  -25.3706   21.5915 C   0  0  0  0  0  0  0  0  0  0  0  0
  -26.5157  -23.7180   22.5516 C   0  0  0  0  0  0  0  0  0  0  0  0
  -25.9881  -24.8743   20.4051 C   0  0  0  0  0  0  0  0  0  0  0  0
  -27.5466  -18.4450   18.6423 C   0  0  0  0  0  0  0  0  0  0  0  0
  -34.7458  -16.6818   23.2293 C   0  0  0  0  0  0  0  0  0  0  0  0
  -35.9128  -18.3492   21.7814 C   0  0  0  0  0  0  0  0  0  0  0  0
  -35.6628  -19.3612   20.6808 C   0  0  0  0  0  0  0  0  0  1  0  0
  -27.7750  -23.0861   20.4431 C   0  0  1  0  0  0  0  0  0  0  0  0
  -25.9245  -19.8133   19.9596 C   0  0  2  0  0  0  0  0  0  0  0  0
  -27.1293  -24.2542   21.2405 C   0  0  0  0  0  0  0  0  0  0  0  0
  -26.1191  -11.8709   20.7634 N   0  0  0  0  0  0  0  0  0  0  0  0
  -32.6986  -15.4983   22.6792 N   0  0  0  0  0  0  0  0  0  0  0  0
  -26.2173  -13.1386   20.3281 N   0  0  0  0  0  0  0  0  0  0  0  0
  -29.7920  -23.3165   19.0280 N   0  0  0  0  0  0  0  0  0  0  0  0
  -30.0058  -13.4875   19.9971 N   0  0  0  0  0  0  0  0  0  0  0  0
  -24.9749  -15.1317   20.0205 N   0  0  0  0  0  0  0  0  0  0  0  0
  -21.9427  -12.2715   21.7586 N   0  0  0  0  0  0  0  0  0  0  0  0
  -30.7120  -14.3317   22.0829 N   0  0  0  0  0  0  0  0  0  0  0  0
  -31.1624  -26.2036   17.4414 N   0  0  0  0  0  0  0  0  0  0  0  0
  -26.8420  -22.0272   20.0735 N   0  0  0  0  0  0  0  0  0  0  0  0
  -26.4618  -18.4565   19.6572 N   0  3  0  0  0  0  0  0  0  0  0  0
  -34.6255  -17.7204   22.1707 N   0  3  0  0  0  0  0  0  0  0  0  0
  -22.2540  -14.4022   20.9698 O   0  0  0  0  0  0  0  0  0  0  0  0
  -31.4695  -25.2943   19.5631 O   0  0  0  0  0  0  0  0  0  0  0  0
  -27.7199  -24.0976   18.2983 O   0  0  0  0  0  0  0  0  0  0  0  0
  -27.9716  -20.3079   21.1436 O   0  0  0  0  0  0  0  0  0  0  0  0
  -32.0499  -14.5479   20.2000 O   0  0  0  0  0  0  0  0  0  0  0  0
  -22.8697   -6.9760   23.2190 O   0  0  0  0  0  0  0  0  0  0  0  0
  -34.7795  -20.3760   21.1567 O   0  0  0  0  0  0  0  0  0  1  0  0
  -24.2175   -2.3037   20.6196 F   0  0  0  0  0  0  0  0  0  0  0  0
  -25.5144   -6.2219   22.9372 F   0  0  0  0  0  0  0  0  0  0  0  0
  1  2  1  0  0  0  0
  1  6  2  0  0  0  0
  2  7  2  0  0  0  0
  3 14  2  0  0  0  0
  3 15  1  0  0  0  0
  4  9  2  0  0  0  0
  4 18  1  0  0  0  0
  5 10  1  0  0  0  0
  5 18  2  0  0  0  0
  6 20  1  0  0  0  0
  7 22  1  0  0  0  0
  8 11  2  0  0  0  0
  8 21  1  0  0  0  0
  9 24  1  0  0  0  0
 10 24  2  0  0  0  0
 11 25  1  0  0  0  0
 12 13  2  0  0  0  0
 12 26  1  0  0  0  0
 13 27  1  0  0  0  0
 14 30  1  0  0  0  0
 15 31  2  0  0  0  0
 16 23  1  0  0  0  0
 16 25  2  0  0  0  0
 17 27  2  0  0  0  0
 17 28  1  0  0  0  0
 18 29  1  0  0  0  0
 19 29  1  0  0  0  0
 19 32  2  0  0  0  0
 19 33  1  0  0  0  0
 20 22  2  0  0  0  0
 20 38  1  0  0  0  0
 21 23  2  0  0  0  0
 21 39  1  0  0  0  0
 22 47  1  0  0  0  0
 23 40  1  0  0  0  0
 24 78  1  0  0  0  0
 25 79  1  0  0  0  0
 26 28  2  0  0  0  0
 26 78  1  0  0  0  0
 27 80  1  0  0  0  0
 28 81  1  0  0  0  0
 29 61  2  0  0  0  0
 30 55  1  0  0  0  0
 30 62  2  0  0  0  0
 31 62  1  0  0  0  0
 31 68  1  0  0  0  0
 32 63  1  0  0  0  0
 32 66  1  0  0  0  0
 33 67  1  0  0  0  0
 33 73  2  0  0  0  0
 34 48  1  0  0  0  0
 34 69  1  0  0  0  0
 34 74  2  0  0  0  0
 35 58  1  0  0  0  0
 35 64  1  0  0  0  0
 35 75  2  0  0  0  0
 36 59  1  0  0  0  0
 36 70  1  0  0  0  0
 36 76  2  0  0  0  0
 37 65  1  0  0  0  0
 37 68  1  0  0  0  0
 37 77  2  0  0  0  0
 38 41  1  0  0  0  0
 39 48  1  0  0  0  0
 40 64  1  0  0  0  0
 41 43  1  0  0  0  0
 42 44  1  0  0  0  0
 42 45  1  0  0  0  0
 43 47  1  0  0  0  0
 44 49  1  0  0  0  0
 45 65  1  0  0  0  0
 46 49  1  0  0  0  0
 46 65  1  0  0  0  0
 47 69  1  0  0  0  0
 48 64  1  0  0  0  0
 49 63  1  0  0  0  0
 50 59  1  0  0  0  0
 51 60  1  0  0  0  0
 52 60  1  0  0  0  0
 53 60  1  0  0  0  0
 54 71  1  0  0  0  0
 55 72  1  0  0  0  0
 56 57  1  0  0  0  0
 56 72  1  0  0  0  0
 57 79  1  0  0  0  0
 58 60  1  0  0  0  0
 58 70  1  0  0  0  0
 59 71  1  0  0  0  0
 61 63  1  0  0  0  0
M  CHG  2  71   1  72   1
M  ISO  4  37 100  57 101  68 100  79 101
M  END
> <Batch ID>
0138

> <Smiles>
CNC(C)C(=O)NC(C(=O)N1Cc2cc([101O:1][101CH2:1]CNCc3cccc([100NH:0][100C:0](=O)N4CCCC(n5nc(-c6ccc(Oc7ccc(F)cc7F)cc6)c(C(N)=O)c5N)C4)n3)ccc2CC1C(=O)NC1CCCc2ccccc21)C(C)(C)C

> <Shape>
0.206

> <Color>
0.145

> <Negative vol penalty>
0.000

$$$$

  -OEChem-04052321083D

 81 89  0     1  0  0  0  0  0999 V2000
  -27.4165  -30.5637   28.4187 C   0  0  0  0  0  0  0  0  0  0  0  0
  -27.5276  -29.7394   27.3035 C   0  0  0  0  0  0  0  0  0  0  0  0
  -26.6487  -11.9981   21.6381 C   0  0  0  0  0  0  0  0  0  0  0  0
  -26.0081  -13.0008   19.5354 C   0  0  0  0  0  0  0  0  0  0  0  0
  -26.2067  -31.1982   28.6974 C   0  0  0  0  0  0  0  0  0  0  0  0
  -26.4284  -29.5482   26.4670 C   0  0  0  0  0  0  0  0  0  0  0  0
  -27.6451  -29.8524   21.5607 C   0  0  0  0  0  0  0  0  0  0  0  0
  -29.8163  -21.6160   16.5228 C   0  0  0  0  0  0  0  0  0  0  0  0
  -25.4556  -11.2759   21.6571 C   0  0  0  0  0  0  0  0  0  0  0  0
  -24.8150  -12.2785   19.5544 C   0  0  0  0  0  0  0  0  0  0  0  0
  -28.2647  -28.7424   20.9883 C   0  0  0  0  0  0  0  0  0  0  0  0
  -22.4154   -9.4395   22.4374 C   0  0  0  0  0  0  0  0  0  0  0  0
  -21.7030   -9.3926   23.6356 C   0  0  0  0  0  0  0  0  0  0  0  0
  -29.7361  -20.6104   17.4797 C   0  0  0  0  0  0  0  0  0  0  0  0
  -26.1534  -28.0594   20.0421 C   0  0  0  0  0  0  0  0  0  0  0  0
  -21.4950  -11.7995   23.6061 C   0  0  0  0  0  0  0  0  0  0  0  0
  -26.9249  -12.8607   20.5772 C   0  0  0  0  0  0  0  0  0  0  0  0
  -29.3837  -13.2088   19.9932 C   0  0  0  0  0  0  0  0  0  0  0  0
  -25.0950  -31.0224   27.8584 C   0  0  0  0  0  0  0  0  0  0  0  0
  -26.2705  -30.0688   21.3868 C   0  0  0  0  0  0  0  0  0  0  0  0
  -25.2022  -30.1799   26.7355 C   0  0  0  0  0  0  0  0  0  0  0  0
  -25.5193  -29.1743   20.6112 C   0  0  0  0  0  0  0  0  0  0  0  0
  -29.7336  -22.9479   16.9134 C   0  0  0  0  0  0  0  0  0  0  0  0
  -24.5387  -11.4160   20.6153 C   0  0  0  0  0  0  0  0  0  0  0  0
  -27.5183  -27.8441   20.2313 C   0  0  0  0  0  0  0  0  0  0  0  0
  -22.6677  -10.6664   21.8235 C   0  0  0  0  0  0  0  0  0  0  0  0
  -21.2428  -10.5726   24.2200 C   0  0  0  0  0  0  0  0  0  0  0  0
  -22.2075  -11.8464   22.4079 C   0  0  0  0  0  0  0  0  0  0  0  0
  -28.1570  -13.6075   20.5572 C   0  0  0  0  0  0  0  0  0  0  0  0
  -29.5744  -20.9862   18.8034 C   0  0  0  0  0  0  0  0  0  0  0  0
  -29.5717  -23.2191   18.2625 C   0  0  0  0  0  0  0  0  0  0  0  0
  -30.2316  -14.2617   20.2360 C   0  0  0  0  0  0  0  0  0  0  0  0
  -29.7261  -11.9953   19.3107 C   0  0  0  0  0  0  0  0  0  0  0  0
  -23.7631  -30.2405   23.3328 C   0  0  0  0  0  0  0  0  0  0  0  0
  -22.2039  -31.0813   20.6154 C   0  0  0  0  0  0  0  0  0  0  0  0
  -22.0687  -30.9908   17.2065 C   0  0  0  0  0  0  0  0  0  0  0  0
  -29.3347  -20.0985   21.1488 C   0  0  0  0  0  0  0  0  0  0  0  0
  -23.7945  -31.6916   28.2268 C   0  0  0  0  0  0  0  0  0  0  0  0
  -25.6224  -31.2854   21.9886 C   0  0  0  0  0  0  0  0  0  0  0  0
  -24.0446  -29.3723   20.3776 C   0  0  0  0  0  0  0  0  0  0  0  0
  -22.7855  -31.7337   27.0820 C   0  0  0  0  0  0  0  0  0  0  0  0
  -30.9792  -17.8279   23.3437 C   0  0  0  0  0  0  0  0  0  0  0  0
  -22.6927  -30.3715   26.4019 C   0  0  0  0  0  0  0  0  0  0  0  0
  -30.5586  -16.4516   22.8231 C   0  0  0  0  0  0  0  0  0  0  0  0
  -29.8460  -18.8465   23.2335 C   0  0  0  0  0  0  0  0  0  0  0  0
  -28.8241  -17.5881   21.3785 C   0  0  0  0  0  0  0  0  0  0  0  0
  -24.0396  -29.9672   25.7904 C   0  0  1  0  0  0  0  0  0  0  0  0
  -24.1162  -31.1298   22.1744 C   0  0  1  0  0  0  0  0  0  0  0  0
  -29.9531  -16.5449   21.4088 C   0  0  2  0  0  0  0  0  0  0  0  0
  -29.8167  -24.0337   15.8975 C   0  0  0  0  0  0  0  0  0  0  0  0
  -20.6552  -31.7339   15.2708 C   0  0  0  0  0  0  0  0  0  0  0  0
  -20.2114  -28.8502   21.2170 C   0  0  0  0  0  0  0  0  0  0  0  0
  -19.4224  -29.0105   18.8464 C   0  0  0  0  0  0  0  0  0  0  0  0
  -19.1828  -30.9680   20.3738 C   0  0  0  0  0  0  0  0  0  0  0  0
  -24.2565  -32.6443   16.0938 C   0  0  0  0  0  0  0  0  0  0  0  0
  -29.2477  -26.2165   20.3583 C   0  0  0  0  0  0  0  0  0  1  0  0
  -29.3237  -24.7269   20.0847 C   0  0  0  0  0  0  0  0  0  0  0  0
  -21.4776  -30.3325   19.5242 C   0  0  1  0  0  0  0  0  0  0  0  0
  -21.8246  -32.0811   16.1789 C   0  0  2  0  0  0  0  0  0  0  0  0
  -20.1010  -29.7852   19.9962 C   0  0  0  0  0  0  0  0  0  0  0  0
  -28.2161  -14.8190   21.1163 N   0  0  0  0  0  0  0  0  0  0  0  0
  -29.4898  -22.2692   19.2210 N   0  0  0  0  0  0  0  0  0  0  0  0
  -29.4902  -15.1907   20.9049 N   0  0  0  0  0  0  0  0  0  0  0  0
  -23.4554  -30.5735   20.9920 N   0  0  0  0  0  0  0  0  0  0  0  0
  -29.3248  -18.8831   21.8654 N   0  0  0  0  0  0  0  0  0  0  0  0
  -31.5315  -14.4742   19.9405 N   0  0  0  0  0  0  0  0  0  0  0  0
  -28.7348  -11.0180   19.1475 N   0  0  0  0  0  0  0  0  0  0  0  0
  -29.4956  -19.9542   19.7712 N   0  0  0  0  0  0  0  0  0  0  0  0
  -24.2622  -30.6729   24.5466 N   0  0  0  0  0  0  0  0  0  0  0  0
  -21.4007  -31.2422   18.3863 N   0  0  0  0  0  0  0  0  0  0  0  0
  -23.0355  -32.2754   15.3322 N   0  3  0  0  0  0  0  0  0  0  0  0
  -30.8813  -11.7770   18.8734 O   0  0  0  0  0  0  0  0  0  0  0  0
  -23.0866  -29.2370   23.1399 O   0  0  0  0  0  0  0  0  0  0  0  0
  -21.6834  -32.0842   21.1103 O   0  0  0  0  0  0  0  0  0  0  0  0
  -22.7778  -30.0120   16.9836 O   0  0  0  0  0  0  0  0  0  0  0  0
  -29.2371  -21.1885   21.7184 O   0  0  0  0  0  0  0  0  0  0  0  0
  -23.3745  -10.7112   20.6335 O   0  0  0  0  0  0  0  0  0  0  0  0
  -28.1205  -26.7594   19.6720 O   0  0  0  0  0  0  0  0  0  1  0  0
  -29.4895  -24.5190   18.6874 O   0  0  0  0  0  0  0  0  0  0  0  0
  -20.5573  -10.5273   25.3699 F   0  0  0  0  0  0  0  0  0  0  0  0
  -22.4458  -13.0279   21.8222 F   0  0  0  0  0  0  0  0  0  0  0  0
  1  2  1  0  0  0  0
  1  5  2  0  0  0  0
  2  6  2  0  0  0  0
  3  9  2  0  0  0  0
  3 17  1  0  0  0  0
  4 10  1  0  0  0  0
  4 17  2  0  0  0  0
  5 19  1  0  0  0  0
  6 21  1  0  0  0  0
  7 11  2  0  0  0  0
  7 20  1  0  0  0  0
  8 14  2  0  0  0  0
  8 23  1  0  0  0  0
  9 24  1  0  0  0  0
 10 24  2  0  0  0  0
 11 25  1  0  0  0  0
 12 13  2  0  0  0  0
 12 26  1  0  0  0  0
 13 27  1  0  0  0  0
 14 30  1  0  0  0  0
 15 22  1  0  0  0  0
 15 25  2  0  0  0  0
 16 27  2  0  0  0  0
 16 28  1  0  0  0  0
 17 29  1  0  0  0  0
 18 29  1  0  0  0  0
 18 32  2  0  0  0  0
 18 33  1  0  0  0  0
 19 21  2  0  0  0  0
 19 38  1  0  0  0  0
 20 22  2  0  0  0  0
 20 39  1  0  0  0  0
 21 47  1  0  0  0  0
 22 40  1  0  0  0  0
 23 31  2  0  0  0  0
 23 50  1  0  0  0  0
 24 77  1  0  0  0  0
 25 78  1  0  0  0  0
 26 28  2  0  0  0  0
 26 77  1  0  0  0  0
 27 80  1  0  0  0  0
 28 81  1  0  0  0  0
 29 61  2  0  0  0  0
 30 62  2  0  0  0  0
 30 68  1  0  0  0  0
 31 62  1  0  0  0  0
 31 79  1  0  0  0  0
 32 63  1  0  0  0  0
 32 66  1  0  0  0  0
 33 67  1  0  0  0  0
 33 72  2  0  0  0  0
 34 48  1  0  0  0  0
 34 69  1  0  0  0  0
 34 73  2  0  0  0  0
 35 58  1  0  0  0  0
 35 64  1  0  0  0  0
 35 74  2  0  0  0  0
 36 59  1  0  0  0  0
 36 70  1  0  0  0  0
 36 75  2  0  0  0  0
 37 65  1  0  0  0  0
 37 68  1  0  0  0  0
 37 76  2  0  0  0  0
 38 41  1  0  0  0  0
 39 48  1  0  0  0  0
 40 64  1  0  0  0  0
 41 43  1  0  0  0  0
 42 44  1  0  0  0  0
 42 45  1  0  0  0  0
 43 47  1  0  0  0  0
 44 49  1  0  0  0  0
 45 65  1  0  0  0  0
 46 49  1  0  0  0  0
 46 65  1  0  0  0  0
 47 69  1  0  0  0  0
 48 64  1  0  0  0  0
 49 63  1  0  0  0  0
 51 59  1  0  0  0  0
 52 60  1  0  0  0  0
 53 60  1  0  0  0  0
 54 60  1  0  0  0  0
 55 71  1  0  0  0  0
 56 57  1  0  0  0  0
 56 78  1  0  0  0  0
 57 79  1  0  0  0  0
 58 60  1  0  0  0  0
 58 70  1  0  0  0  0
 59 71  1  0  0  0  0
 61 63  1  0  0  0  0
M  CHG  1  71   1
M  ISO  4  37 100  56 101  68 100  78 101
M  END
> <Batch ID>
0138

> <Smiles>
CNC(C)C(=O)NC(C(=O)N1Cc2cc([101O:1][101CH2:1]COc3nc([100NH:0][100C:0](=O)N4CCCC(n5nc(-c6ccc(Oc7ccc(F)cc7F)cc6)c(C(N)=O)c5N)C4)ccc3C)ccc2CC1C(=O)NC1CCCc2ccccc21)C(C)(C)C

> <Shape>
0.296

> <Color>
0.093

> <Negative vol penalty>
0.000

$$$$

  -OEChem-04052321083D

 87 96  0     1  0  0  0  0  0999 V2000
  -25.0500   -8.9754   23.6062 C   0  0  0  0  0  0  0  0  0  0  0  0
  -25.9610   -9.9919   23.8747 C   0  0  0  0  0  0  0  0  0  0  0  0
  -19.5583  -28.4337   23.8313 C   0  0  0  0  0  0  0  0  0  0  0  0
  -20.7701  -27.0851   22.2346 C   0  0  0  0  0  0  0  0  0  0  0  0
  -24.3489   -8.9697   22.4011 C   0  0  0  0  0  0  0  0  0  0  0  0
  -26.1722  -11.0028   22.9377 C   0  0  0  0  0  0  0  0  0  0  0  0
  -27.7563  -17.9759   22.5094 C   0  0  0  0  0  0  0  0  0  0  0  0
  -32.0891  -20.9497   18.8933 C   0  0  0  0  0  0  0  0  0  0  0  0
  -32.8604  -21.8195   18.1225 C   0  0  0  0  0  0  0  0  0  0  0  0
  -18.3518  -27.9613   23.3147 C   0  0  0  0  0  0  0  0  0  0  0  0
  -19.5637  -26.6126   21.7179 C   0  0  0  0  0  0  0  0  0  0  0  0
  -28.6586  -18.8393   21.8896 C   0  0  0  0  0  0  0  0  0  0  0  0
  -16.8092  -24.7754   20.2161 C   0  0  0  0  0  0  0  0  0  0  0  0
  -16.7008  -23.4072   19.9673 C   0  0  0  0  0  0  0  0  0  0  0  0
  -27.3324  -18.7701   19.8758 C   0  0  0  0  0  0  0  0  0  0  0  0
  -31.2301  -22.8255   20.1505 C   0  0  0  0  0  0  0  0  0  0  0  0
  -17.1156  -22.9496   22.3031 C   0  0  0  0  0  0  0  0  0  0  0  0
  -20.7675  -27.9956   23.2912 C   0  0  0  0  0  0  0  0  0  0  0  0
  -22.4852  -28.3491   25.1438 C   0  0  0  0  0  0  0  0  0  0  0  0
  -24.5444   -9.9862   21.4529 C   0  0  0  0  0  0  0  0  0  0  0  0
  -26.6392  -17.4936   21.8122 C   0  0  0  0  0  0  0  0  0  0  0  0
  -25.4740  -11.0099   21.7182 C   0  0  0  0  0  0  0  0  0  0  0  0
  -26.4161  -17.9026   20.4897 C   0  0  0  0  0  0  0  0  0  0  0  0
  -31.2739  -21.4527   19.9073 C   0  0  0  0  0  0  0  0  0  0  0  0
  -32.8166  -23.1923   18.3657 C   0  0  0  0  0  0  0  0  0  0  0  0
  -32.0015  -23.6953   19.3797 C   0  0  0  0  0  0  0  0  0  0  0  0
  -18.3545  -27.0508   22.2581 C   0  0  0  0  0  0  0  0  0  0  0  0
  -28.4483  -19.2342   20.5717 C   0  0  0  0  0  0  0  0  0  0  0  0
  -17.0709  -25.2307   21.5083 C   0  0  0  0  0  0  0  0  0  0  0  0
  -16.8540  -22.4943   21.0108 C   0  0  0  0  0  0  0  0  0  0  0  0
  -17.2241  -24.3179   22.5518 C   0  0  0  0  0  0  0  0  0  0  0  0
  -22.0140  -28.4837   23.8241 C   0  0  0  0  0  0  0  0  0  0  0  0
  -23.7064  -28.9776   25.1382 C   0  0  0  0  0  0  0  0  0  0  0  0
  -21.8736  -27.7128   26.2738 C   0  0  0  0  0  0  0  0  0  0  0  0
  -25.6174  -14.6165   20.9278 C   0  0  0  0  0  0  0  0  0  0  0  0
  -22.9962  -16.2706   19.9710 C   0  0  0  0  0  0  0  0  0  0  0  0
  -21.6498  -19.2462   18.9812 C   0  0  0  0  0  0  0  0  0  0  0  0
  -27.6882  -30.1123   20.8128 C   0  0  0  0  0  0  0  0  0  0  0  0
  -23.7983   -9.9118   20.1444 C   0  0  0  0  0  0  0  0  0  0  0  0
  -25.6609  -16.5840   22.5036 C   0  0  0  0  0  0  0  0  0  0  0  0
  -25.2213  -17.4294   19.7042 C   0  0  0  0  0  0  0  0  0  0  0  0
  -23.8042  -11.2240   19.3643 C   0  0  0  0  0  0  0  0  0  0  0  0
  -26.1014  -32.4871   22.9386 C   0  0  0  0  0  0  0  0  0  0  0  0
  -25.2098  -11.8153   19.3250 C   0  0  0  0  0  0  0  0  0  0  0  0
  -24.9165  -31.7182   23.5257 C   0  0  0  0  0  0  0  0  0  0  0  0
  -31.1576  -27.0605   20.8148 C   0  0  0  0  0  0  0  0  0  0  0  0
  -29.9254  -27.8088   21.3178 C   0  0  0  0  0  0  0  0  0  0  0  0
  -29.7597  -25.9504   19.0342 C   0  0  0  0  0  0  0  0  0  0  0  0
  -26.3648  -32.0951   21.4864 C   0  0  0  0  0  0  0  0  0  0  0  0
  -25.3472  -29.8791   21.8432 C   0  0  0  0  0  0  0  0  0  0  0  0
  -25.7124  -12.1375   20.7375 C   0  0  1  0  0  0  0  0  0  0  0  0
  -24.8340  -15.7472   21.5324 C   0  0  1  0  0  0  0  0  0  0  0  0
  -28.5051  -26.7011   19.5208 C   0  0  1  0  0  0  0  0  0  0  0  0
  -25.0778  -30.1996   23.3234 C   0  0  2  0  0  0  0  0  0  0  0  0
  -30.7658  -25.7351   20.1651 C   0  0  1  0  0  0  0  0  0  0  0  0
  -28.8962  -28.0323   20.2019 C   0  0  1  0  0  0  0  0  0  0  0  0
  -33.6546  -24.1006   17.5259 C   0  0  0  0  0  0  0  0  0  0  0  0
  -27.5510  -26.9061   18.3395 C   0  0  0  0  0  0  0  0  0  0  0  0
  -19.4894  -20.2778   18.2291 C   0  0  0  0  0  0  0  0  0  0  0  0
  -23.3392  -14.9821   17.2265 C   0  0  0  0  0  0  0  0  0  0  0  0
  -21.7989  -16.7219   16.2944 C   0  0  0  0  0  0  0  0  0  0  0  0
  -20.9730  -15.1249   18.0235 C   0  0  0  0  0  0  0  0  0  0  0  0
  -21.6099  -21.1161   21.2749 C   0  0  0  0  0  0  0  0  0  0  0  0
  -30.4444  -20.5167   20.7362 C   0  0  0  0  0  0  0  0  0  1  0  0
  -22.5744  -16.9618   18.6969 C   0  0  1  0  0  0  0  0  0  0  0  0
  -20.3920  -19.9768   19.4155 C   0  0  2  0  0  0  0  0  0  0  0  0
  -22.1950  -15.9552   17.5742 C   0  0  0  0  0  0  0  0  0  0  0  0
  -22.8664  -29.1458   23.0373 N   0  0  0  0  0  0  0  0  0  0  0  0
  -23.8854  -29.4329   23.8651 N   0  0  0  0  0  0  0  0  0  0  0  0
  -24.2969  -16.5363   20.4220 N   0  0  0  0  0  0  0  0  0  0  0  0
  -26.5098  -30.6426   21.3634 N   0  0  0  0  0  0  0  0  0  0  0  0
  -24.6339  -29.1797   26.0981 N   0  0  0  0  0  0  0  0  0  0  0  0
  -22.1340  -26.3540   26.4974 N   0  0  0  0  0  0  0  0  0  0  0  0
  -31.9460  -25.0819   19.6410 N   0  0  0  0  0  0  0  0  0  0  0  0
  -25.1133  -13.3635   21.2197 N   0  0  0  0  0  0  0  0  0  0  0  0
  -21.5007  -17.8781   19.0657 N   0  0  0  0  0  0  0  0  0  0  0  0
  -27.7466  -28.7260   20.7384 N   0  0  0  0  0  0  0  0  0  0  0  0
  -20.7435  -21.2650   20.0773 N   0  3  0  0  0  0  0  0  0  0  0  0
  -21.1055  -28.3270   27.0525 O   0  0  0  0  0  0  0  0  0  0  0  0
  -26.6052  -14.8628   20.2457 O   0  0  0  0  0  0  0  0  0  0  0  0
  -22.1984  -15.5281   20.5488 O   0  0  0  0  0  0  0  0  0  0  0  0
  -22.6620  -19.8307   18.6013 O   0  0  0  0  0  0  0  0  0  0  0  0
  -28.6214  -30.8216   20.4216 O   0  0  0  0  0  0  0  0  0  0  0  0
  -17.1774  -26.5894   21.7538 O   0  0  0  0  0  0  0  0  0  0  0  0
  -29.3279  -20.0764   19.9642 O   0  0  0  0  0  0  0  0  0  1  0  0
  -16.7484  -21.1805   20.7721 F   0  0  0  0  0  0  0  0  0  0  0  0
  -17.4744  -24.7494   23.7956 F   0  0  0  0  0  0  0  0  0  0  0  0
  1  2  1  0  0  0  0
  1  5  2  0  0  0  0
  2  6  2  0  0  0  0
  3 10  2  0  0  0  0
  3 18  1  0  0  0  0
  4 11  1  0  0  0  0
  4 18  2  0  0  0  0
  5 20  1  0  0  0  0
  6 22  1  0  0  0  0
  7 12  2  0  0  0  0
  7 21  1  0  0  0  0
  8  9  2  0  0  0  0
  8 24  1  0  0  0  0
  9 25  1  0  0  0  0
 10 27  1  0  0  0  0
 11 27  2  0  0  0  0
 12 28  1  0  0  0  0
 13 14  2  0  0  0  0
 13 29  1  0  0  0  0
 14 30  1  0  0  0  0
 15 23  1  0  0  0  0
 15 28  2  0  0  0  0
 16 24  2  0  0  0  0
 16 26  1  0  0  0  0
 17 30  2  0  0  0  0
 17 31  1  0  0  0  0
 18 32  1  0  0  0  0
 19 32  1  0  0  0  0
 19 33  2  0  0  0  0
 19 34  1  0  0  0  0
 20 22  2  0  0  0  0
 20 39  1  0  0  0  0
 21 23  2  0  0  0  0
 21 40  1  0  0  0  0
 22 51  1  0  0  0  0
 23 41  1  0  0  0  0
 24 64  1  0  0  0  0
 25 26  2  0  0  0  0
 25 57  1  0  0  0  0
 26 74  1  0  0  0  0
 27 84  1  0  0  0  0
 28 85  1  0  0  0  0
 29 31  2  0  0  0  0
 29 84  1  0  0  0  0
 30 86  1  0  0  0  0
 31 87  1  0  0  0  0
 32 68  2  0  0  0  0
 33 69  1  0  0  0  0
 33 72  1  0  0  0  0
 34 73  1  0  0  0  0
 34 79  2  0  0  0  0
 35 52  1  0  0  0  0
 35 75  1  0  0  0  0
 35 80  2  0  0  0  0
 36 65  1  0  0  0  0
 36 70  1  0  0  0  0
 36 81  2  0  0  0  0
 37 66  1  0  0  0  0
 37 76  1  0  0  0  0
 37 82  2  0  0  0  0
 38 71  1  0  0  0  0
 38 77  1  0  0  0  0
 38 83  2  0  0  0  0
 39 42  1  0  0  0  0
 40 52  1  0  0  0  0
 41 70  1  0  0  0  0
 42 44  1  0  0  0  0
 43 45  1  0  0  0  0
 43 49  1  0  0  0  0
 44 51  1  0  0  0  0
 45 54  1  0  0  0  0
 46 47  1  0  0  0  0
 46 55  1  0  0  0  0
 47 56  1  0  0  0  0
 48 53  1  0  0  0  0
 48 55  1  0  0  0  0
 49 71  1  0  0  0  0
 50 54  1  0  0  0  0
 50 71  1  0  0  0  0
 51 75  1  0  0  0  0
 52 70  1  0  0  0  0
 53 56  1  0  0  0  0
 53 58  1  0  0  0  0
 54 69  1  0  0  0  0
 55 74  1  0  0  0  0
 56 77  1  0  0  0  0
 59 66  1  0  0  0  0
 60 67  1  0  0  0  0
 61 67  1  0  0  0  0
 62 67  1  0  0  0  0
 63 78  1  0  0  0  0
 64 85  1  0  0  0  0
 65 67  1  0  0  0  0
 65 76  1  0  0  0  0
 66 78  1  0  0  0  0
 68 69  1  0  0  0  0
M  CHG  1  78   1
M  ISO  4  38 100  64 101  77 100  85 101
M  END
> <Batch ID>
0138

> <Smiles>
CNC(C)C(=O)NC(C(=O)N1Cc2cc([101O:1][101CH2:1]c3ccc(C)c(NC4CCC([100NH:0][100C:0](=O)N5CCCC(n6nc(-c7ccc(Oc8ccc(F)cc8F)cc7)c(C(N)=O)c6N)C5)C(C)C4)c3)ccc2CC1C(=O)NC1CCCc2ccccc21)C(C)(C)C

> <Shape>
0.230

> <Color>
0.058

> <Negative vol penalty>
0.000

$$$$

  -OEChem-04052321083D

 82 90  0     1  0  0  0  0  0999 V2000
  -22.2865  -11.0611   19.7906 C   0  0  0  0  0  0  0  0  0  0  0  0
  -21.8299  -12.3360   20.1096 C   0  0  0  0  0  0  0  0  0  0  0  0
  -29.7405  -27.1942   18.9785 C   0  0  0  0  0  0  0  0  0  0  0  0
  -29.0889  -25.8725   20.8931 C   0  0  0  0  0  0  0  0  0  0  0  0
  -23.6390  -10.7517   19.9280 C   0  0  0  0  0  0  0  0  0  0  0  0
  -22.7255  -13.3019   20.5672 C   0  0  0  0  0  0  0  0  0  0  0  0
  -22.5239  -19.3235   19.4696 C   0  0  0  0  0  0  0  0  0  0  0  0
  -21.6202  -28.0417   23.4327 C   0  0  0  0  0  0  0  0  0  0  0  0
  -21.6094  -27.0356   25.6292 C   0  0  0  0  0  0  0  0  0  0  0  0
  -31.0452  -26.7139   19.0910 C   0  0  0  0  0  0  0  0  0  0  0  0
  -30.3936  -25.3922   21.0056 C   0  0  0  0  0  0  0  0  0  0  0  0
  -22.0504  -20.3985   20.2206 C   0  0  0  0  0  0  0  0  0  0  0  0
  -21.5535  -26.7751   22.8522 C   0  0  0  0  0  0  0  0  0  0  0  0
  -21.5426  -25.7690   25.0487 C   0  0  0  0  0  0  0  0  0  0  0  0
  -33.6344  -24.0950   22.0177 C   0  0  0  0  0  0  0  0  0  0  0  0
  -34.2044  -24.0585   23.2902 C   0  0  0  0  0  0  0  0  0  0  0  0
  -24.2843  -20.8059   21.0347 C   0  0  0  0  0  0  0  0  0  0  0  0
  -33.9278  -26.4509   23.4827 C   0  0  0  0  0  0  0  0  0  0  0  0
  -28.7623  -26.7735   19.8796 C   0  0  0  0  0  0  0  0  0  0  0  0
  -26.3623  -26.7066   19.0177 C   0  0  0  0  0  0  0  0  0  0  0  0
  -24.5532  -11.7172   20.3783 C   0  0  0  0  0  0  0  0  0  0  0  0
  -23.8816  -18.9743   19.5041 C   0  0  0  0  0  0  0  0  0  0  0  0
  -24.0913  -13.0047   20.7120 C   0  0  0  0  0  0  0  0  0  0  0  0
  -24.7730  -19.7277   20.2813 C   0  0  0  0  0  0  0  0  0  0  0  0
  -21.6482  -28.1719   24.8212 C   0  0  0  0  0  0  0  0  0  0  0  0
  -31.3717  -25.8129   20.1045 C   0  0  0  0  0  0  0  0  0  0  0  0
  -21.5147  -25.6388   23.6602 C   0  0  0  0  0  0  0  0  0  0  0  0
  -22.9301  -21.1381   21.0056 C   0  0  0  0  0  0  0  0  0  0  0  0
  -33.2111  -25.3094   21.4776 C   0  0  0  0  0  0  0  0  0  0  0  0
  -34.3511  -25.2364   24.0227 C   0  0  0  0  0  0  0  0  0  0  0  0
  -33.3578  -26.4874   22.2101 C   0  0  0  0  0  0  0  0  0  0  0  0
  -27.4145  -27.2697   19.7643 C   0  0  0  0  0  0  0  0  0  0  0  0
  -25.2980  -27.5467   19.2365 C   0  0  0  0  0  0  0  0  0  0  0  0
  -26.3481  -25.5292   18.1996 C   0  0  0  0  0  0  0  0  0  0  0  0
  -25.5136  -16.4015   20.4101 C   0  0  0  0  0  0  0  0  0  0  0  0
  -28.0279  -18.0447   19.1850 C   0  0  0  0  0  0  0  0  0  0  0  0
  -29.3840  -21.0610   18.3428 C   0  0  0  0  0  0  0  0  0  0  0  0
  -23.9152  -31.3004   23.6917 C   0  0  0  0  0  0  0  0  0  0  0  0
  -25.9979  -11.3220   20.5558 C   0  0  0  0  0  0  0  0  0  0  0  0
  -24.3811  -17.8286   18.6674 C   0  0  0  0  0  0  0  0  0  0  0  0
  -26.2434  -19.4063   20.3370 C   0  0  0  0  0  0  0  0  0  0  0  0
  -26.9430  -12.5131   20.6904 C   0  0  0  0  0  0  0  0  0  0  0  0
  -24.2758  -32.1109   20.2436 C   0  0  0  0  0  0  0  0  0  0  0  0
  -26.3801  -13.5327   21.6754 C   0  0  0  0  0  0  0  0  0  0  0  0
  -25.0262  -30.9113   19.6624 C   0  0  0  0  0  0  0  0  0  0  0  0
  -24.7491  -32.4416   21.6573 C   0  0  0  0  0  0  0  0  0  0  0  0
  -25.4624  -30.1110   22.0220 C   0  0  0  0  0  0  0  0  0  0  0  0
  -25.0359  -14.0869   21.1880 C   0  0  1  0  0  0  0  0  0  0  0  0
  -25.6939  -17.2433   19.1786 C   0  0  1  0  0  0  0  0  0  0  0  0
  -24.9807  -29.7045   20.6188 C   0  0  2  0  0  0  0  0  0  0  0  0
  -31.0397  -22.6821   17.3792 C   0  0  0  0  0  0  0  0  0  0  0  0
  -29.4388  -17.6334   21.8590 C   0  0  0  0  0  0  0  0  0  0  0  0
  -31.0475  -19.4382   21.2086 C   0  0  0  0  0  0  0  0  0  0  0  0
  -30.9037  -17.3498   19.8519 C   0  0  0  0  0  0  0  0  0  0  0  0
  -28.1115  -20.9528   15.6729 C   0  0  0  0  0  0  0  0  0  0  0  0
  -21.7190  -29.5260   25.4420 C   0  0  0  0  0  0  0  0  0  0  0  0
  -23.1515  -30.0204   25.6761 C   0  0  0  0  0  0  0  0  0  0  0  0
  -21.4216  -24.3425   21.6685 C   0  0  0  0  0  0  0  0  0  0  0  0
  -21.3413  -22.8938   21.2278 C   0  0  0  0  0  0  0  0  0  1  0  0
  -29.0250  -19.0374   19.7321 C   0  0  1  0  0  0  0  0  0  0  0  0
  -30.0896  -21.5320   17.0838 C   0  0  2  0  0  0  0  0  0  0  0  0
  -30.0758  -18.3698   20.6636 C   0  0  0  0  0  0  0  0  0  0  0  0
  -27.0517  -28.3818   20.4091 N   0  0  0  0  0  0  0  0  0  0  0  0
  -25.7595  -28.5242   20.0682 N   0  0  0  0  0  0  0  0  0  0  0  0
  -26.6823  -18.2729   19.5061 N   0  0  0  0  0  0  0  0  0  0  0  0
  -24.6796  -31.2555   22.5141 N   0  0  0  0  0  0  0  0  0  0  0  0
  -24.0217  -27.5374   18.7966 N   0  0  0  0  0  0  0  0  0  0  0  0
  -27.5280  -24.7816   18.0841 N   0  0  0  0  0  0  0  0  0  0  0  0
  -25.2426  -15.0721   20.1482 N   0  0  0  0  0  0  0  0  0  0  0  0
  -29.5982  -19.7192   18.5767 N   0  0  0  0  0  0  0  0  0  0  0  0
  -23.8979  -30.1314   24.4426 N   0  0  0  0  0  0  0  0  0  0  0  0
  -29.0949  -21.9917   16.0738 N   0  3  0  0  0  0  0  0  0  0  0  0
  -25.3241  -25.1604   17.5759 O   0  0  0  0  0  0  0  0  0  0  0  0
  -25.6144  -16.9196   21.5161 O   0  0  0  0  0  0  0  0  0  0  0  0
  -28.4274  -17.1056   18.4921 O   0  0  0  0  0  0  0  0  0  0  0  0
  -28.7133  -21.8096   19.0501 O   0  0  0  0  0  0  0  0  0  0  0  0
  -23.2899  -32.3060   24.0448 O   0  0  0  0  0  0  0  0  0  0  0  0
  -32.6447  -25.3439   20.2144 O   0  0  0  0  0  0  0  0  0  0  0  0
  -21.4478  -24.3949   23.0898 O   0  0  0  0  0  0  0  0  0  0  0  0
  -22.4705  -22.1875   21.7401 O   0  0  0  0  0  0  0  0  0  1  0  0
  -34.8970  -25.2010   25.2454 F   0  0  0  0  0  0  0  0  0  0  0  0
  -32.9520  -27.6569   21.6970 F   0  0  0  0  0  0  0  0  0  0  0  0
  1  2  1  0  0  0  0
  1  5  2  0  0  0  0
  2  6  2  0  0  0  0
  3 10  2  0  0  0  0
  3 19  1  0  0  0  0
  4 11  1  0  0  0  0
  4 19  2  0  0  0  0
  5 21  1  0  0  0  0
  6 23  1  0  0  0  0
  7 12  2  0  0  0  0
  7 22  1  0  0  0  0
  8 13  2  0  0  0  0
  8 25  1  0  0  0  0
  9 14  1  0  0  0  0
  9 25  2  0  0  0  0
 10 26  1  0  0  0  0
 11 26  2  0  0  0  0
 12 28  1  0  0  0  0
 13 27  1  0  0  0  0
 14 27  2  0  0  0  0
 15 16  2  0  0  0  0
 15 29  1  0  0  0  0
 16 30  1  0  0  0  0
 17 24  1  0  0  0  0
 17 28  2  0  0  0  0
 18 30  2  0  0  0  0
 18 31  1  0  0  0  0
 19 32  1  0  0  0  0
 20 32  1  0  0  0  0
 20 33  2  0  0  0  0
 20 34  1  0  0  0  0
 21 23  2  0  0  0  0
 21 39  1  0  0  0  0
 22 24  2  0  0  0  0
 22 40  1  0  0  0  0
 23 48  1  0  0  0  0
 24 41  1  0  0  0  0
 25 56  1  0  0  0  0
 26 78  1  0  0  0  0
 27 79  1  0  0  0  0
 28 80  1  0  0  0  0
 29 31  2  0  0  0  0
 29 78  1  0  0  0  0
 30 81  1  0  0  0  0
 31 82  1  0  0  0  0
 32 63  2  0  0  0  0
 33 64  1  0  0  0  0
 33 67  1  0  0  0  0
 34 68  1  0  0  0  0
 34 73  2  0  0  0  0
 35 49  1  0  0  0  0
 35 69  1  0  0  0  0
 35 74  2  0  0  0  0
 36 60  1  0  0  0  0
 36 65  1  0  0  0  0
 36 75  2  0  0  0  0
 37 61  1  0  0  0  0
 37 70  1  0  0  0  0
 37 76  2  0  0  0  0
 38 66  1  0  0  0  0
 38 71  1  0  0  0  0
 38 77  2  0  0  0  0
 39 42  1  0  0  0  0
 40 49  1  0  0  0  0
 41 65  1  0  0  0  0
 42 44  1  0  0  0  0
 43 45  1  0  0  0  0
 43 46  1  0  0  0  0
 44 48  1  0  0  0  0
 45 50  1  0  0  0  0
 46 66  1  0  0  0  0
 47 50  1  0  0  0  0
 47 66  1  0  0  0  0
 48 69  1  0  0  0  0
 49 65  1  0  0  0  0
 50 64  1  0  0  0  0
 51 61  1  0  0  0  0
 52 62  1  0  0  0  0
 53 62  1  0  0  0  0
 54 62  1  0  0  0  0
 55 72  1  0  0  0  0
 56 57  1  0  0  0  0
 57 71  1  0  0  0  0
 58 59  1  0  0  0  0
 58 79  1  0  0  0  0
 59 80  1  0  0  0  0
 60 62  1  0  0  0  0
 60 70  1  0  0  0  0
 61 72  1  0  0  0  0
 63 64  1  0  0  0  0
M  CHG  1  72   1
M  ISO  4  38 100  59 101  71 100  80 101
M  END
> <Batch ID>
0138

> <Smiles>
CNC(C)C(=O)NC(C(=O)N1Cc2cc([101O:1][101CH2:1]COc3ccc(CC[100NH:0][100C:0](=O)N4CCCC(n5nc(-c6ccc(Oc7ccc(F)cc7F)cc6)c(C(N)=O)c5N)C4)cc3)ccc2CC1C(=O)NC1CCCc2ccccc21)C(C)(C)C

> <Shape>
0.232

> <Color>
0.076

> <Negative vol penalty>
0.000

$$$$

  -OEChem-04052321083D

 87 97  0     1  0  0  0  0  0999 V2000
  -21.7969  -12.2372   19.4859 C   0  0  0  0  0  0  0  0  0  0  0  0
  -21.6568  -13.5019   20.0481 C   0  0  0  0  0  0  0  0  0  0  0  0
  -24.4975  -26.5402   15.3957 C   0  0  0  0  0  0  0  0  0  0  0  0
  -26.8665  -26.2653   15.7823 C   0  0  0  0  0  0  0  0  0  0  0  0
  -23.0368  -11.5999   19.5065 C   0  0  0  0  0  0  0  0  0  0  0  0
  -22.7564  -14.1297   20.6323 C   0  0  0  0  0  0  0  0  0  0  0  0
  -23.1474  -18.9997   19.2999 C   0  0  0  0  0  0  0  0  0  0  0  0
  -24.7040  -26.3917   14.0243 C   0  0  0  0  0  0  0  0  0  0  0  0
  -27.0730  -26.1168   14.4108 C   0  0  0  0  0  0  0  0  0  0  0  0
  -22.3006  -19.9046   19.9386 C   0  0  0  0  0  0  0  0  0  0  0  0
  -25.2231  -23.8607   11.8431 C   0  0  0  0  0  0  0  0  0  0  0  0
  -24.3515  -23.0267   11.1429 C   0  0  0  0  0  0  0  0  0  0  0  0
  -21.6290  -24.5801   23.2900 C   0  0  0  0  0  0  0  0  0  0  0  0
  -24.1032  -20.5450   21.4081 C   0  0  0  0  0  0  0  0  0  0  0  0
  -20.3023  -22.6345   23.8297 C   0  0  0  0  0  0  0  0  0  0  0  0
  -23.6881  -24.8877    9.7523 C   0  0  0  0  0  0  0  0  0  0  0  0
  -25.5787  -26.4771   16.2747 C   0  0  0  0  0  0  0  0  0  0  0  0
  -25.0958  -25.6135   18.6260 C   0  0  0  0  0  0  0  0  0  0  0  0
  -24.1544  -12.2242   20.0826 C   0  0  0  0  0  0  0  0  0  0  0  0
  -24.4777  -18.8526   19.7183 C   0  0  0  0  0  0  0  0  0  0  0  0
  -24.0121  -13.4996   20.6618 C   0  0  0  0  0  0  0  0  0  0  0  0
  -20.6466  -25.4029   23.8411 C   0  0  0  0  0  0  0  0  0  0  0  0
  -24.9656  -19.6395   20.7714 C   0  0  0  0  0  0  0  0  0  0  0  0
  -19.4921  -24.8414   24.3865 C   0  0  0  0  0  0  0  0  0  0  0  0
  -21.4568  -23.1959   23.2842 C   0  0  0  0  0  0  0  0  0  0  0  0
  -19.3199  -23.4572   24.3808 C   0  0  0  0  0  0  0  0  0  0  0  0
  -25.9917  -26.1800   13.5318 C   0  0  0  0  0  0  0  0  0  0  0  0
  -22.7776  -20.6753   20.9947 C   0  0  0  0  0  0  0  0  0  0  0  0
  -25.3272  -25.2082   11.4980 C   0  0  0  0  0  0  0  0  0  0  0  0
  -23.5840  -23.5402   10.0975 C   0  0  0  0  0  0  0  0  0  0  0  0
  -24.5597  -25.7217   10.4526 C   0  0  0  0  0  0  0  0  0  0  0  0
  -25.3661  -26.6310   17.6915 C   0  0  0  0  0  0  0  0  0  0  0  0
  -24.9773  -26.2717   19.8257 C   0  0  0  0  0  0  0  0  0  0  0  0
  -24.9636  -24.1997   18.4275 C   0  0  0  0  0  0  0  0  0  0  0  0
  -26.2024  -16.4648   20.9131 C   0  0  0  0  0  0  0  0  0  0  0  0
  -28.6379  -18.5844   20.6006 C   0  0  0  0  0  0  0  0  0  0  0  0
  -29.6350  -21.8415   20.3894 C   0  0  0  0  0  0  0  0  0  0  0  0
  -23.2097  -30.4012   22.9462 C   0  0  0  0  0  0  0  0  0  0  0  0
  -25.4633  -11.4761   20.1232 C   0  0  0  0  0  0  0  0  0  0  0  0
  -25.3859  -17.8914   19.0015 C   0  0  0  0  0  0  0  0  0  0  0  0
  -26.3912  -19.5340   21.2456 C   0  0  0  0  0  0  0  0  0  0  0  0
  -26.6648  -12.3669   20.4282 C   0  0  0  0  0  0  0  0  0  0  0  0
  -26.0674  -31.0349   21.1067 C   0  0  0  0  0  0  0  0  0  0  0  0
  -18.8254  -26.6907   26.0627 C   0  0  0  0  0  0  0  0  0  0  0  0
  -18.0022  -25.4862   26.3972 C   0  0  0  0  0  0  0  0  0  0  0  0
  -26.3603  -13.2899   21.6038 C   0  0  0  0  0  0  0  0  0  0  0  0
  -26.1310  -29.8662   20.1232 C   0  0  0  0  0  0  0  0  0  0  0  0
  -22.0922  -27.3164   24.6581 C   0  0  0  0  0  0  0  0  0  0  0  0
  -20.9540  -27.4660   22.4036 C   0  0  0  0  0  0  0  0  0  0  0  0
  -24.6365  -31.5354   21.2689 C   0  0  0  0  0  0  0  0  0  0  0  0
  -22.3117  -28.8269   24.6217 C   0  0  0  0  0  0  0  0  0  0  0  0
  -21.1972  -28.9723   22.4188 C   0  0  0  0  0  0  0  0  0  0  0  0
  -23.7248  -29.3032   20.7210 C   0  0  0  0  0  0  0  0  0  0  0  0
  -20.8603  -26.9050   23.8335 C   0  0  0  0  0  0  0  0  0  0  0  0
  -18.4388  -25.7237   24.9776 C   0  0  0  0  0  0  0  0  0  0  0  0
  -25.1870  -14.2236   21.2827 C   0  0  1  0  0  0  0  0  0  0  0  0
  -26.5785  -17.4535   19.8460 C   0  0  1  0  0  0  0  0  0  0  0  0
  -25.1511  -28.7506   20.5275 C   0  0  1  0  0  0  0  0  0  0  0  0
  -18.0934  -22.8289   24.9578 C   0  0  0  0  0  0  0  0  0  0  0  0
  -31.6929  -23.2619   20.1778 C   0  0  0  0  0  0  0  0  0  0  0  0
  -29.2752  -18.0953   23.5442 C   0  0  0  0  0  0  0  0  0  0  0  0
  -30.6650  -20.1776   23.5174 C   0  0  0  0  0  0  0  0  0  0  0  0
  -31.2784  -18.2519   22.0552 C   0  0  0  0  0  0  0  0  0  0  0  0
  -28.7247  -22.9809   17.8141 C   0  0  0  0  0  0  0  0  0  0  0  0
  -22.5070  -22.3163   22.6947 C   0  0  0  0  0  0  0  0  0  1  0  0
  -29.2498  -19.6473   21.4810 C   0  0  1  0  0  0  0  0  0  0  0  0
  -30.5781  -22.5460   19.4310 C   0  0  2  0  0  0  0  0  0  0  0  0
  -30.0896  -19.0439   22.6420 C   0  0  0  0  0  0  0  0  0  0  0  0
  -25.4163  -27.8435   18.2495 N   0  0  0  0  0  0  0  0  0  0  0  0
  -25.1758  -27.5921   19.5476 N   0  0  0  0  0  0  0  0  0  0  0  0
  -27.2384  -18.5754   20.5169 N   0  0  0  0  0  0  0  0  0  0  0  0
  -23.7366  -30.4457   21.6465 N   0  0  0  0  0  0  0  0  0  0  0  0
  -22.3573  -29.3264   23.2481 N   0  0  0  0  0  0  0  0  0  0  0  0
  -24.7236  -25.8441   21.0808 N   0  0  0  0  0  0  0  0  0  0  0  0
  -25.1153  -23.6901   17.1307 N   0  0  0  0  0  0  0  0  0  0  0  0
  -25.6228  -15.3076   20.4288 N   0  0  0  0  0  0  0  0  0  0  0  0
  -30.0022  -20.5283   20.5944 N   0  0  0  0  0  0  0  0  0  0  0  0
  -29.8357  -23.5511   18.6188 N   0  3  0  0  0  0  0  0  0  0  0  0
  -24.7021  -23.4136   19.3694 O   0  0  0  0  0  0  0  0  0  0  0  0
  -26.4231  -16.7313   22.0886 O   0  0  0  0  0  0  0  0  0  0  0  0
  -29.3749  -17.7959   20.0034 O   0  0  0  0  0  0  0  0  0  0  0  0
  -28.6711  -22.4011   20.9074 O   0  0  0  0  0  0  0  0  0  0  0  0
  -23.4866  -31.2640   23.7887 O   0  0  0  0  0  0  0  0  0  0  0  0
  -26.1936  -26.0347   12.1936 O   0  0  0  0  0  0  0  0  0  0  0  0
  -21.9473  -21.5648   21.6246 O   0  0  0  0  0  0  0  0  0  1  0  0
  -22.7481  -22.7389    9.4241 F   0  0  0  0  0  0  0  0  0  0  0  0
  -24.6562  -27.0151   10.1156 F   0  0  0  0  0  0  0  0  0  0  0  0
  1  2  1  0  0  0  0
  1  5  2  0  0  0  0
  2  6  2  0  0  0  0
  3  8  2  0  0  0  0
  3 17  1  0  0  0  0
  4  9  1  0  0  0  0
  4 17  2  0  0  0  0
  5 19  1  0  0  0  0
  6 21  1  0  0  0  0
  7 10  2  0  0  0  0
  7 20  1  0  0  0  0
  8 27  1  0  0  0  0
  9 27  2  0  0  0  0
 10 28  1  0  0  0  0
 11 12  2  0  0  0  0
 11 29  1  0  0  0  0
 12 30  1  0  0  0  0
 13 22  1  0  0  0  0
 13 25  2  0  0  0  0
 14 23  1  0  0  0  0
 14 28  2  0  0  0  0
 15 25  1  0  0  0  0
 15 26  2  0  0  0  0
 16 30  2  0  0  0  0
 16 31  1  0  0  0  0
 17 32  1  0  0  0  0
 18 32  1  0  0  0  0
 18 33  2  0  0  0  0
 18 34  1  0  0  0  0
 19 21  2  0  0  0  0
 19 39  1  0  0  0  0
 20 23  2  0  0  0  0
 20 40  1  0  0  0  0
 21 56  1  0  0  0  0
 22 24  2  0  0  0  0
 22 54  1  0  0  0  0
 23 41  1  0  0  0  0
 24 26  1  0  0  0  0
 24 55  1  0  0  0  0
 25 65  1  0  0  0  0
 26 59  1  0  0  0  0
 27 84  1  0  0  0  0
 28 85  1  0  0  0  0
 29 31  2  0  0  0  0
 29 84  1  0  0  0  0
 30 86  1  0  0  0  0
 31 87  1  0  0  0  0
 32 69  2  0  0  0  0
 33 70  1  0  0  0  0
 33 74  1  0  0  0  0
 34 75  1  0  0  0  0
 34 79  2  0  0  0  0
 35 57  1  0  0  0  0
 35 76  1  0  0  0  0
 35 80  2  0  0  0  0
 36 66  1  0  0  0  0
 36 71  1  0  0  0  0
 36 81  2  0  0  0  0
 37 67  1  0  0  0  0
 37 77  1  0  0  0  0
 37 82  2  0  0  0  0
 38 72  1  0  0  0  0
 38 73  1  0  0  0  0
 38 83  2  0  0  0  0
 39 42  1  0  0  0  0
 40 57  1  0  0  0  0
 41 71  1  0  0  0  0
 42 46  1  0  0  0  0
 43 47  1  0  0  0  0
 43 50  1  0  0  0  0
 44 45  1  0  0  0  0
 44 55  1  0  0  0  0
 45 55  1  0  0  0  0
 46 56  1  0  0  0  0
 47 58  1  0  0  0  0
 48 51  1  0  0  0  0
 48 54  1  0  0  0  0
 49 52  1  0  0  0  0
 49 54  1  0  0  0  0
 50 72  1  0  0  0  0
 51 73  1  0  0  0  0
 52 73  1  0  0  0  0
 53 58  1  0  0  0  0
 53 72  1  0  0  0  0
 56 76  1  0  0  0  0
 57 71  1  0  0  0  0
 58 70  1  0  0  0  0
 60 67  1  0  0  0  0
 61 68  1  0  0  0  0
 62 68  1  0  0  0  0
 63 68  1  0  0  0  0
 64 78  1  0  0  0  0
 65 85  1  0  0  0  0
 66 68  1  0  0  0  0
 66 77  1  0  0  0  0
 67 78  1  0  0  0  0
 69 70  1  0  0  0  0
M  CHG  1  78   1
M  ISO  4  38 100  65 101  73 100  85 101
M  END
> <Batch ID>
0138

> <Smiles>
CNC(C)C(=O)NC(C(=O)N1Cc2cc([101O:1][101CH2:1]c3cc(C)c(C4CC4)c(C4CC[100N:0]([100C:0](=O)N5CCCC(n6nc(-c7ccc(Oc8ccc(F)cc8F)cc7)c(C(N)=O)c6N)C5)CC4)c3)ccc2CC1C(=O)NC1CCCc2ccccc21)C(C)(C)C

> <Shape>
0.194

> <Color>
0.074

> <Negative vol penalty>
0.000

$$$$

  -OEChem-04052321083D

 87 96  0     1  0  0  0  0  0999 V2000
  -28.1853  -32.2873   26.6376 C   0  0  0  0  0  0  0  0  0  0  0  0
  -27.6362  -31.0434   26.9317 C   0  0  0  0  0  0  0  0  0  0  0  0
  -29.4695  -20.7541   20.8290 C   0  0  0  0  0  0  0  0  0  0  0  0
  -30.3325  -19.8282   18.7711 C   0  0  0  0  0  0  0  0  0  0  0  0
  -27.6865  -33.0337   25.5709 C   0  0  0  0  0  0  0  0  0  0  0  0
  -26.5871  -30.5456   26.1597 C   0  0  0  0  0  0  0  0  0  0  0  0
  -21.9044  -15.8467   23.6327 C   0  0  0  0  0  0  0  0  0  0  0  0
  -25.5534  -24.6908   24.6902 C   0  0  0  0  0  0  0  0  0  0  0  0
  -22.4779  -14.8502   22.8430 C   0  0  0  0  0  0  0  0  0  0  0  0
  -29.3077  -21.9909   20.2048 C   0  0  0  0  0  0  0  0  0  0  0  0
  -30.1707  -21.0651   18.1468 C   0  0  0  0  0  0  0  0  0  0  0  0
  -24.7034  -23.7250   25.2272 C   0  0  0  0  0  0  0  0  0  0  0  0
  -31.2554  -24.6077   19.3201 C   0  0  0  0  0  0  0  0  0  0  0  0
  -31.6789  -25.7424   20.0120 C   0  0  0  0  0  0  0  0  0  0  0  0
  -23.0555  -24.2486   23.5452 C   0  0  0  0  0  0  0  0  0  0  0  0
  -24.5150  -15.0000   24.1333 C   0  0  0  0  0  0  0  0  0  0  0  0
  -29.4300  -26.6227   19.9447 C   0  0  0  0  0  0  0  0  0  0  0  0
  -29.9819  -19.6727   20.1122 C   0  0  0  0  0  0  0  0  0  0  0  0
  -30.9493  -18.1076   21.8792 C   0  0  0  0  0  0  0  0  0  0  0  0
  -26.6372  -32.5405   24.7794 C   0  0  0  0  0  0  0  0  0  0  0  0
  -25.1557  -25.4517   23.5814 C   0  0  0  0  0  0  0  0  0  0  0  0
  -26.0729  -31.2866   25.0821 C   0  0  0  0  0  0  0  0  0  0  0  0
  -22.6362  -16.4200   24.6727 C   0  0  0  0  0  0  0  0  0  0  0  0
  -23.9032  -25.2218   22.9944 C   0  0  0  0  0  0  0  0  0  0  0  0
  -23.7832  -14.4268   23.0933 C   0  0  0  0  0  0  0  0  0  0  0  0
  -29.6582  -22.1464   18.8637 C   0  0  0  0  0  0  0  0  0  0  0  0
  -23.4531  -23.5057   24.6565 C   0  0  0  0  0  0  0  0  0  0  0  0
  -29.9192  -24.4805   18.9404 C   0  0  0  0  0  0  0  0  0  0  0  0
  -30.7662  -26.7499   20.3244 C   0  0  0  0  0  0  0  0  0  0  0  0
  -23.9415  -15.9966   24.9230 C   0  0  0  0  0  0  0  0  0  0  0  0
  -29.0065  -25.4880   19.2527 C   0  0  0  0  0  0  0  0  0  0  0  0
  -30.1498  -18.3950   20.7566 C   0  0  0  0  0  0  0  0  0  0  0  0
  -30.7664  -16.7637   22.0959 C   0  0  0  0  0  0  0  0  0  0  0  0
  -31.7826  -18.9777   22.6566 C   0  0  0  0  0  0  0  0  0  0  0  0
  -24.6630  -28.5457   23.0444 C   0  0  0  0  0  0  0  0  0  0  0  0
  -24.2630  -27.5517   19.9826 C   0  0  0  0  0  0  0  0  0  0  0  0
  -23.4763  -25.0149   17.8395 C   0  0  0  0  0  0  0  0  0  0  0  0
  -26.3275  -12.9815   20.7386 C   0  0  0  0  0  0  0  0  0  0  0  0
  -26.0999  -33.4044   23.6660 C   0  0  0  0  0  0  0  0  0  0  0  0
  -26.0950  -26.4712   22.9976 C   0  0  0  0  0  0  0  0  0  0  0  0
  -23.4371  -25.9978   21.7907 C   0  0  0  0  0  0  0  0  0  0  0  0
  -25.2365  -32.6407   22.6651 C   0  0  0  0  0  0  0  0  0  0  0  0
  -29.7456  -12.7025   19.7817 C   0  0  0  0  0  0  0  0  0  0  0  0
  -24.2343  -31.7513   23.3941 C   0  0  0  0  0  0  0  0  0  0  0  0
  -30.3089  -14.1039   20.0243 C   0  0  0  0  0  0  0  0  0  0  0  0
  -20.5714  -17.8950   25.1678 C   0  0  0  0  0  0  0  0  0  0  0  0
  -28.3082  -12.7532   19.2685 C   0  0  0  0  0  0  0  0  0  0  0  0
  -27.9431  -14.9392   20.3462 C   0  0  0  0  0  0  0  0  0  0  0  0
  -20.3663  -19.2241   25.8665 C   0  0  0  0  0  0  0  0  0  0  0  0
  -22.7555  -18.8479   25.4697 C   0  0  0  0  0  0  0  0  0  0  0  0
  -24.9505  -30.7017   24.2526 C   0  0  1  0  0  0  0  0  0  0  0  0
  -25.3801  -27.5449   22.1830 C   0  0  1  0  0  0  0  0  0  0  0  0
  -29.3713  -14.9382   20.9176 C   0  0  2  0  0  0  0  0  0  0  0  0
  -22.0093  -17.5042   25.5286 C   0  0  2  0  0  0  0  0  0  0  0  0
  -23.1972  -24.5156   15.3961 C   0  0  0  0  0  0  0  0  0  0  0  0
  -21.5751  -28.9956   19.9972 C   0  0  0  0  0  0  0  0  0  0  0  0
  -20.9455  -27.6974   17.9510 C   0  0  0  0  0  0  0  0  0  0  0  0
  -22.8895  -29.2592   17.8860 C   0  0  0  0  0  0  0  0  0  0  0  0
  -25.6297  -22.9853   17.8895 C   0  0  0  0  0  0  0  0  0  0  0  0
  -24.3956  -13.3603   22.2496 C   0  0  0  0  0  0  0  0  0  0  0  0
  -22.0159  -20.8835   26.7891 C   0  0  0  0  0  0  0  0  0  0  0  0
  -23.0936  -21.8372   26.3126 C   0  0  0  0  0  0  0  0  0  1  0  0
  -23.0906  -27.0822   19.1556 C   0  0  1  0  0  0  0  0  0  0  0  0
  -24.1555  -24.5159   16.5769 C   0  0  2  0  0  0  0  0  0  0  0  0
  -22.1329  -28.2452   18.7713 C   0  0  0  0  0  0  0  0  0  0  0  0
  -29.5071  -17.3201   20.2925 N   0  0  0  0  0  0  0  0  0  0  0  0
  -29.9025  -16.3441   21.1275 N   0  0  0  0  0  0  0  0  0  0  0  0
  -24.3889  -26.9879   21.2602 N   0  0  0  0  0  0  0  0  0  0  0  0
  -27.4709  -13.5581   20.1612 N   0  0  0  0  0  0  0  0  0  0  0  0
  -31.2621  -15.9118   23.0184 N   0  0  0  0  0  0  0  0  0  0  0  0
  -33.1227  -19.1341   22.2772 N   0  0  0  0  0  0  0  0  0  0  0  0
  -25.4424  -29.6216   23.4244 N   0  0  0  0  0  0  0  0  0  0  0  0
  -23.6552  -26.3710   18.0138 N   0  0  0  0  0  0  0  0  0  0  0  0
  -25.5935  -13.8115   21.5771 N   0  0  0  0  0  0  0  0  0  0  0  0
  -21.6940  -19.9162   25.6950 N   0  3  2  0  0  0  0  0  0  0  0  0
  -24.6590  -23.1271   16.7739 N   0  3  0  0  0  0  0  0  0  0  0  0
  -31.3558  -19.5852   23.6676 O   0  0  0  0  0  0  0  0  0  0  0  0
  -23.4892  -28.3565   23.3409 O   0  0  0  0  0  0  0  0  0  0  0  0
  -25.0425  -28.3825   19.5097 O   0  0  0  0  0  0  0  0  0  0  0  0
  -22.8467  -24.2764   18.5936 O   0  0  0  0  0  0  0  0  0  0  0  0
  -25.9891  -11.8121   20.5270 O   0  0  0  0  0  0  0  0  0  0  0  0
  -22.0343  -17.0028   26.8703 O   0  0  0  0  0  0  0  0  0  0  0  0
  -29.5002  -23.3531   18.2542 O   0  0  0  0  0  0  0  0  0  0  0  0
  -22.6212  -22.5640   25.1791 O   0  0  0  0  0  0  0  0  0  1  0  0
  -31.1726  -27.8387   20.9902 F   0  0  0  0  0  0  0  0  0  0  0  0
  -24.6531  -16.5426   25.9191 F   0  0  0  0  0  0  0  0  0  0  0  0
  -27.7213  -25.3709   18.8916 F   0  0  0  0  0  0  0  0  0  0  0  0
  1  2  1  0  0  0  0
  1  5  2  0  0  0  0
  2  6  2  0  0  0  0
  3 10  2  0  0  0  0
  3 18  1  0  0  0  0
  4 11  1  0  0  0  0
  4 18  2  0  0  0  0
  5 20  1  0  0  0  0
  6 22  1  0  0  0  0
  7  9  2  0  0  0  0
  7 23  1  0  0  0  0
  8 12  2  0  0  0  0
  8 21  1  0  0  0  0
  9 25  1  0  0  0  0
 10 26  1  0  0  0  0
 11 26  2  0  0  0  0
 12 27  1  0  0  0  0
 13 14  2  0  0  0  0
 13 28  1  0  0  0  0
 14 29  1  0  0  0  0
 15 24  1  0  0  0  0
 15 27  2  0  0  0  0
 16 25  2  0  0  0  0
 16 30  1  0  0  0  0
 17 29  2  0  0  0  0
 17 31  1  0  0  0  0
 18 32  1  0  0  0  0
 19 32  1  0  0  0  0
 19 33  2  0  0  0  0
 19 34  1  0  0  0  0
 20 22  2  0  0  0  0
 20 39  1  0  0  0  0
 21 24  2  0  0  0  0
 21 40  1  0  0  0  0
 22 51  1  0  0  0  0
 23 30  2  0  0  0  0
 23 54  1  0  0  0  0
 24 41  1  0  0  0  0
 25 60  1  0  0  0  0
 26 83  1  0  0  0  0
 27 84  1  0  0  0  0
 28 31  2  0  0  0  0
 28 83  1  0  0  0  0
 29 85  1  0  0  0  0
 30 86  1  0  0  0  0
 31 87  1  0  0  0  0
 32 66  2  0  0  0  0
 33 67  1  0  0  0  0
 33 70  1  0  0  0  0
 34 71  1  0  0  0  0
 34 77  2  0  0  0  0
 35 52  1  0  0  0  0
 35 72  1  0  0  0  0
 35 78  2  0  0  0  0
 36 63  1  0  0  0  0
 36 68  1  0  0  0  0
 36 79  2  0  0  0  0
 37 64  1  0  0  0  0
 37 73  1  0  0  0  0
 37 80  2  0  0  0  0
 38 69  1  0  0  0  0
 38 74  1  0  0  0  0
 38 81  2  0  0  0  0
 39 42  1  0  0  0  0
 40 52  1  0  0  0  0
 41 68  1  0  0  0  0
 42 44  1  0  0  0  0
 43 45  1  0  0  0  0
 43 47  1  0  0  0  0
 44 51  1  0  0  0  0
 45 53  1  0  0  0  0
 46 49  1  0  0  0  0
 46 54  1  0  0  0  0
 47 69  1  0  0  0  0
 48 53  1  0  0  0  0
 48 69  1  0  0  0  0
 49 75  1  0  0  0  0
 50 54  1  0  0  0  0
 50 75  1  0  0  0  0
 51 72  1  0  0  0  0
 52 68  1  0  0  0  0
 53 67  1  0  0  0  0
 54 82  1  0  0  0  0
 55 64  1  0  0  0  0
 56 65  1  0  0  0  0
 57 65  1  0  0  0  0
 58 65  1  0  0  0  0
 59 76  1  0  0  0  0
 60 74  1  0  0  0  0
 61 62  1  0  0  0  0
 61 75  1  0  0  0  0
 62 84  1  0  0  0  0
 63 65  1  0  0  0  0
 63 73  1  0  0  0  0
 64 76  1  0  0  0  0
 66 67  1  0  0  0  0
M  CHG  2  75   1  76   1
M  ISO  4  38 100  62 101  74 100  84 101
M  END
> <Batch ID>
0138

> <Smiles>
CNC(C)C(=O)NC(C(=O)N1Cc2cc([101O:1][101CH2:1]CN3CCC(O)(c4ccc(C[100NH:0][100C:0](=O)N5CCCC(n6nc(-c7ccc(Oc8ccc(F)cc8F)cc7)c(C(N)=O)c6N)C5)cc4F)C3)ccc2CC1C(=O)NC1CCCc2ccccc21)C(C)(C)C

> <Shape>
0.240

> <Color>
0.052

> <Negative vol penalty>
0.000

$$$$

  -OEChem-04052321083D

 86 94  0     1  0  0  0  0  0999 V2000
  -32.2375  -14.4235   20.1348 C   0  0  0  0  0  0  0  0  0  0  0  0
  -31.3909  -15.4612   20.5113 C   0  0  0  0  0  0  0  0  0  0  0  0
  -28.4644  -26.3294   18.4325 C   0  0  0  0  0  0  0  0  0  0  0  0
  -26.5335  -24.8986   18.6806 C   0  0  0  0  0  0  0  0  0  0  0  0
  -31.7040  -13.2386   19.6294 C   0  0  0  0  0  0  0  0  0  0  0  0
  -30.0102  -15.3152   20.3815 C   0  0  0  0  0  0  0  0  0  0  0  0
  -25.7018  -17.6066   24.0819 C   0  0  0  0  0  0  0  0  0  0  0  0
  -29.3026  -25.2257   18.5901 C   0  0  0  0  0  0  0  0  0  0  0  0
  -27.3717  -23.7949   18.8381 C   0  0  0  0  0  0  0  0  0  0  0  0
  -24.8962  -18.7411   23.9938 C   0  0  0  0  0  0  0  0  0  0  0  0
  -29.2582  -22.4290   21.2890 C   0  0  0  0  0  0  0  0  0  0  0  0
  -28.9631  -21.5326   22.3161 C   0  0  0  0  0  0  0  0  0  0  0  0
  -23.1221  -17.4012   23.0576 C   0  0  0  0  0  0  0  0  0  0  0  0
  -20.8660  -24.5883   23.7190 C   0  0  0  0  0  0  0  0  0  0  0  0
  -28.7117  -19.7584   20.6955 C   0  0  0  0  0  0  0  0  0  0  0  0
  -22.1638  -26.8228   24.6697 C   0  0  0  0  0  0  0  0  0  0  0  0
  -27.0799  -26.1659   18.4778 C   0  0  0  0  0  0  0  0  0  0  0  0
  -25.6862  -27.8081   17.1109 C   0  0  0  0  0  0  0  0  0  0  0  0
  -30.3156  -13.0743   19.5024 C   0  0  0  0  0  0  0  0  0  0  0  0
  -25.2266  -16.3607   23.6476 C   0  0  0  0  0  0  0  0  0  0  0  0
  -29.4577  -14.1275   19.8727 C   0  0  0  0  0  0  0  0  0  0  0  0
  -23.9227  -16.2520   23.1436 C   0  0  0  0  0  0  0  0  0  0  0  0
  -20.8573  -26.9449   24.2185 C   0  0  0  0  0  0  0  0  0  0  0  0
  -20.2054  -25.8129   23.7389 C   0  0  0  0  0  0  0  0  0  0  0  0
  -28.7563  -23.9584   18.7929 C   0  0  0  0  0  0  0  0  0  0  0  0
  -23.6072  -18.6390   23.4789 C   0  0  0  0  0  0  0  0  0  0  0  0
  -29.2800  -21.9902   19.9651 C   0  0  0  0  0  0  0  0  0  0  0  0
  -28.6899  -20.1973   22.0194 C   0  0  0  0  0  0  0  0  0  0  0  0
  -29.0067  -20.6549   19.6683 C   0  0  0  0  0  0  0  0  0  0  0  0
  -26.2135  -27.3057   18.3156 C   0  0  0  0  0  0  0  0  0  0  0  0
  -24.9317  -28.8909   17.4914 C   0  0  0  0  0  0  0  0  0  0  0  0
  -22.1723  -24.5258   24.1827 C   0  0  0  0  0  0  0  0  0  0  0  0
  -25.8626  -27.3381   15.7679 C   0  0  0  0  0  0  0  0  0  0  0  0
  -26.0981  -14.2860   21.4027 C   0  0  0  0  0  0  0  0  0  0  0  0
  -23.7910  -12.4494   22.7542 C   0  0  0  0  0  0  0  0  0  0  0  0
  -20.9237  -12.2911   24.5982 C   0  0  0  0  0  0  0  0  0  0  0  0
  -22.1901  -30.3538   22.6095 C   0  0  0  0  0  0  0  0  0  0  0  0
  -29.7878  -11.7933   18.9066 C   0  0  0  0  0  0  0  0  0  0  0  0
  -26.0986  -15.1417   23.7742 C   0  0  0  0  0  0  0  0  0  0  0  0
  -23.3581  -14.9339   22.6828 C   0  0  0  0  0  0  0  0  0  0  0  0
  -28.2966  -11.5767   19.1514 C   0  0  0  0  0  0  0  0  0  0  0  0
  -24.6541  -32.2559   20.8812 C   0  0  0  0  0  0  0  0  0  0  0  0
  -27.5154  -12.8518   18.8500 C   0  0  0  0  0  0  0  0  0  0  0  0
  -25.2856  -31.2483   19.9190 C   0  0  0  0  0  0  0  0  0  0  0  0
  -24.2888  -31.6095   22.2156 C   0  0  0  0  0  0  0  0  0  0  0  0
  -24.0735  -29.3989   21.1475 C   0  0  0  0  0  0  0  0  0  0  0  0
  -27.9535  -13.9977   19.7701 C   0  0  1  0  0  0  0  0  0  0  0  0
  -25.6952  -14.0174   22.8251 C   0  0  1  0  0  0  0  0  0  0  0  0
  -24.4079  -29.9913   19.7678 C   0  0  2  0  0  0  0  0  0  0  0  0
  -19.2533  -10.6531   25.5060 C   0  0  0  0  0  0  0  0  0  0  0  0
  -18.6099  -24.4804   21.3388 C   0  0  0  0  0  0  0  0  0  0  0  0
  -16.6711  -25.0363   22.8481 C   0  0  0  0  0  0  0  0  0  0  0  0
  -22.5696  -12.1576   19.9734 C   0  0  0  0  0  0  0  0  0  0  0  0
  -20.4620  -11.3536   21.0596 C   0  0  0  0  0  0  0  0  0  0  0  0
  -22.5770  -10.0598   21.3350 C   0  0  0  0  0  0  0  0  0  0  0  0
  -21.5115  -13.0640   27.3939 C   0  0  0  0  0  0  0  0  0  0  0  0
  -20.1895  -28.2777   24.2597 C   0  0  0  0  0  0  0  0  0  0  0  0
  -20.1416  -28.9830   22.8989 C   0  0  0  0  0  0  0  0  0  0  0  0
  -22.3377  -22.0794   23.7207 C   0  0  0  0  0  0  0  0  0  0  0  0
  -23.3767  -20.9776   23.8450 C   0  0  0  0  0  0  0  0  0  1  0  0
  -22.3080  -12.2663   22.5397 C   0  0  1  0  0  0  0  0  0  0  0  0
  -20.5342  -11.4249   25.7824 C   0  0  2  0  0  0  0  0  0  0  0  0
  -18.1645  -24.7558   22.7677 C   0  0  0  0  0  0  0  0  0  0  0  0
  -21.9902  -11.4846   21.2337 C   0  0  0  0  0  0  0  0  0  0  0  0
  -25.8269  -28.0115   19.3816 N   0  0  0  0  0  0  0  0  0  0  0  0
  -25.0487  -28.9684   18.8481 N   0  0  0  0  0  0  0  0  0  0  0  0
  -22.7764  -25.6314   24.6393 N   0  3  0  0  0  0  0  0  0  0  0  0
  -24.2516  -13.7720   22.8208 N   0  0  0  0  0  0  0  0  0  0  0  0
  -23.4547  -30.4243   22.0022 N   0  0  0  0  0  0  0  0  0  0  0  0
  -24.1863  -29.7748   16.7946 N   0  0  0  0  0  0  0  0  0  0  0  0
  -26.6701  -26.2126   15.5546 N   0  0  0  0  0  0  0  0  0  0  0  0
  -18.8759  -25.8895   23.2695 N   0  0  0  0  0  0  0  0  0  0  0  0
  -22.8799  -23.3351   24.1868 N   0  0  0  0  0  0  0  0  0  0  0  0
  -27.3676  -13.8427   21.0843 N   0  0  0  0  0  0  0  0  0  0  0  0
  -21.7947  -11.6378   23.7521 N   0  0  0  0  0  0  0  0  0  0  0  0
  -21.4619  -29.1991   22.3505 N   0  0  0  0  0  0  0  0  0  0  0  0
  -20.3232  -12.2675   26.9934 N   0  3  0  0  0  0  0  0  0  0  0  0
  -25.3334  -27.9093   14.7844 O   0  0  0  0  0  0  0  0  0  0  0  0
  -25.3147  -14.8521   20.6494 O   0  0  0  0  0  0  0  0  0  0  0  0
  -24.5132  -11.4556   22.8659 O   0  0  0  0  0  0  0  0  0  0  0  0
  -20.4951  -13.4318   24.4377 O   0  0  0  0  0  0  0  0  0  0  0  0
  -21.7409  -31.2556   23.3250 O   0  0  0  0  0  0  0  0  0  0  0  0
  -29.5738  -22.8812   18.9465 O   0  0  0  0  0  0  0  0  0  0  0  0
  -22.8190  -19.7449   23.3912 O   0  0  0  0  0  0  0  0  0  1  0  0
  -28.4081  -19.3363   23.0059 F   0  0  0  0  0  0  0  0  0  0  0  0
  -29.0273  -20.2272   18.3985 F   0  0  0  0  0  0  0  0  0  0  0  0
  1  2  1  0  0  0  0
  1  5  2  0  0  0  0
  2  6  2  0  0  0  0
  3  8  2  0  0  0  0
  3 17  1  0  0  0  0
  4  9  1  0  0  0  0
  4 17  2  0  0  0  0
  5 19  1  0  0  0  0
  6 21  1  0  0  0  0
  7 10  2  0  0  0  0
  7 20  1  0  0  0  0
  8 25  1  0  0  0  0
  9 25  2  0  0  0  0
 10 26  1  0  0  0  0
 11 12  2  0  0  0  0
 11 27  1  0  0  0  0
 12 28  1  0  0  0  0
 13 22  1  0  0  0  0
 13 26  2  0  0  0  0
 14 24  2  0  0  0  0
 14 32  1  0  0  0  0
 15 28  2  0  0  0  0
 15 29  1  0  0  0  0
 16 23  2  0  0  0  0
 16 67  1  0  0  0  0
 17 30  1  0  0  0  0
 18 30  1  0  0  0  0
 18 31  2  0  0  0  0
 18 33  1  0  0  0  0
 19 21  2  0  0  0  0
 19 38  1  0  0  0  0
 20 22  2  0  0  0  0
 20 39  1  0  0  0  0
 21 47  1  0  0  0  0
 22 40  1  0  0  0  0
 23 24  1  0  0  0  0
 23 57  1  0  0  0  0
 24 72  1  0  0  0  0
 25 83  1  0  0  0  0
 26 84  1  0  0  0  0
 27 29  2  0  0  0  0
 27 83  1  0  0  0  0
 28 85  1  0  0  0  0
 29 86  1  0  0  0  0
 30 65  2  0  0  0  0
 31 66  1  0  0  0  0
 31 70  1  0  0  0  0
 32 67  2  0  0  0  0
 32 73  1  0  0  0  0
 33 71  1  0  0  0  0
 33 78  2  0  0  0  0
 34 48  1  0  0  0  0
 34 74  1  0  0  0  0
 34 79  2  0  0  0  0
 35 61  1  0  0  0  0
 35 68  1  0  0  0  0
 35 80  2  0  0  0  0
 36 62  1  0  0  0  0
 36 75  1  0  0  0  0
 36 81  2  0  0  0  0
 37 69  1  0  0  0  0
 37 76  1  0  0  0  0
 37 82  2  0  0  0  0
 38 41  1  0  0  0  0
 39 48  1  0  0  0  0
 40 68  1  0  0  0  0
 41 43  1  0  0  0  0
 42 44  1  0  0  0  0
 42 45  1  0  0  0  0
 43 47  1  0  0  0  0
 44 49  1  0  0  0  0
 45 69  1  0  0  0  0
 46 49  1  0  0  0  0
 46 69  1  0  0  0  0
 47 74  1  0  0  0  0
 48 68  1  0  0  0  0
 49 66  1  0  0  0  0
 50 62  1  0  0  0  0
 51 63  1  0  0  0  0
 52 63  1  0  0  0  0
 53 64  1  0  0  0  0
 54 64  1  0  0  0  0
 55 64  1  0  0  0  0
 56 77  1  0  0  0  0
 57 58  1  0  0  0  0
 58 76  1  0  0  0  0
 59 60  1  0  0  0  0
 59 73  1  0  0  0  0
 60 84  1  0  0  0  0
 61 64  1  0  0  0  0
 61 75  1  0  0  0  0
 62 77  1  0  0  0  0
 63 72  1  0  0  0  0
 65 66  1  0  0  0  0
M  CHG  2  67   1  77   1
M  ISO  4  37 100  60 101  76 100  84 101
M  END
> <Batch ID>
0138

> <Smiles>
CNC(C)C(=O)NC(C(=O)N1Cc2cc([101O:1][101CH2:1]CNc3cc(NC(C)C)c(CC[100NH:0][100C:0](=O)N4CCCC(n5nc(-c6ccc(Oc7ccc(F)cc7F)cc6)c(C(N)=O)c5N)C4)cn3)ccc2CC1C(=O)NC1CCCc2ccccc21)C(C)(C)C

> <Shape>
0.236

> <Color>
0.074

> <Negative vol penalty>
0.000

$$$$

  -OEChem-04052321083D

 88 98  0     1  0  0  0  0  0999 V2000
  -28.4147  -21.4646   27.6832 C   0  0  0  0  0  0  0  0  0  0  0  0
  -28.5319  -22.0190   26.4127 C   0  0  0  0  0  0  0  0  0  0  0  0
  -24.4210   -9.6790   21.7420 C   0  0  0  0  0  0  0  0  0  0  0  0
  -24.5782  -10.8435   23.8530 C   0  0  0  0  0  0  0  0  0  0  0  0
  -27.1569  -21.3248   28.2683 C   0  0  0  0  0  0  0  0  0  0  0  0
  -27.3911  -22.4329   25.7259 C   0  0  0  0  0  0  0  0  0  0  0  0
  -27.9755  -26.9643   23.5419 C   0  0  0  0  0  0  0  0  0  0  0  0
  -23.9952   -8.5296   22.4077 C   0  0  0  0  0  0  0  0  0  0  0  0
  -24.1523   -9.6942   24.5187 C   0  0  0  0  0  0  0  0  0  0  0  0
  -28.6996  -27.0086   22.3513 C   0  0  0  0  0  0  0  0  0  0  0  0
  -22.5207   -5.3975   23.5172 C   0  0  0  0  0  0  0  0  0  0  0  0
  -21.4373   -4.7014   22.9812 C   0  0  0  0  0  0  0  0  0  0  0  0
  -26.6351  -27.0864   21.1058 C   0  0  0  0  0  0  0  0  0  0  0  0
  -27.3944  -20.9973   20.2913 C   0  0  0  0  0  0  0  0  0  0  0  0
  -20.0494   -6.6620   23.2402 C   0  0  0  0  0  0  0  0  0  0  0  0
  -29.5528  -19.4742   19.6078 C   0  0  0  0  0  0  0  0  0  0  0  0
  -24.7126  -10.8359   22.4646 C   0  0  0  0  0  0  0  0  0  0  0  0
  -24.3469  -13.0584   21.2668 C   0  0  0  0  0  0  0  0  0  0  0  0
  -26.0010  -21.7461   27.5923 C   0  0  0  0  0  0  0  0  0  0  0  0
  -26.5734  -26.9697   23.5229 C   0  0  0  0  0  0  0  0  0  0  0  0
  -26.1165  -22.2974   26.3019 C   0  0  0  0  0  0  0  0  0  0  0  0
  -25.8957  -27.0446   22.2977 C   0  0  0  0  0  0  0  0  0  0  0  0
  -27.5857  -19.7679   20.9120 C   0  0  0  0  0  0  0  0  0  0  0  0
  -28.6830  -18.9857   20.5694 C   0  0  0  0  0  0  0  0  0  0  0  0
  -23.8609   -8.5372   23.7961 C   0  0  0  0  0  0  0  0  0  0  0  0
  -28.0294  -27.0667   21.1328 C   0  0  0  0  0  0  0  0  0  0  0  0
  -22.3684   -6.7259   23.9148 C   0  0  0  0  0  0  0  0  0  0  0  0
  -20.2017   -5.3336   22.8427 C   0  0  0  0  0  0  0  0  0  0  0  0
  -21.1328   -7.3581   23.7763 C   0  0  0  0  0  0  0  0  0  0  0  0
  -25.1530  -12.0234   21.7775 C   0  0  0  0  0  0  0  0  0  0  0  0
  -28.3219  -21.3958   19.3423 C   0  0  0  0  0  0  0  0  0  0  0  0
  -25.2372  -13.9451   20.7123 C   0  0  0  0  0  0  0  0  0  0  0  0
  -22.9209  -13.2051   21.2915 C   0  0  0  0  0  0  0  0  0  0  0  0
  -24.3095  -24.9501   24.4714 C   0  0  0  0  0  0  0  0  0  0  0  0
  -22.3348  -27.3892   23.6504 C   0  0  0  0  0  0  0  0  0  0  0  0
  -21.8295  -30.2088   21.7954 C   0  0  0  0  0  0  0  0  0  0  0  0
  -29.9805  -16.8542   20.9152 C   0  0  0  0  0  0  0  0  0  0  0  0
  -24.6589  -21.5312   28.2459 C   0  0  0  0  0  0  0  0  0  0  0  0
  -25.8073  -26.9484   24.8171 C   0  0  0  0  0  0  0  0  0  0  0  0
  -24.3916  -27.0733   22.2238 C   0  0  0  0  0  0  0  0  0  0  0  0
  -23.5331  -22.3391   27.6054 C   0  0  0  0  0  0  0  0  0  0  0  0
  -30.1904  -13.4879   19.7747 C   0  0  0  0  0  0  0  0  0  0  0  0
  -27.9008  -23.8324   16.4048 C   0  0  0  0  0  0  0  0  0  0  0  0
  -26.3148  -20.2012   23.1190 C   0  0  0  0  0  0  0  0  0  0  0  0
  -27.0982  -18.9403   23.3111 C   0  0  0  0  0  0  0  0  0  0  0  0
  -23.5881  -22.2196   26.0857 C   0  0  0  0  0  0  0  0  0  0  0  0
  -27.9831  -22.4983   17.1415 C   0  0  0  0  0  0  0  0  0  0  0  0
  -28.8322  -12.8919   20.1521 C   0  0  0  0  0  0  0  0  0  0  0  0
  -30.6896  -14.4742   20.8291 C   0  0  0  0  0  0  0  0  0  0  0  0
  -28.3838  -14.9432   21.5585 C   0  0  0  0  0  0  0  0  0  0  0  0
  -29.0922  -24.7247   16.7199 C   0  0  0  0  0  0  0  0  0  0  0  0
  -29.3492  -23.6165   18.9566 C   0  0  0  0  0  0  0  0  0  0  0  0
  -26.6025  -19.3118   21.9391 C   0  0  0  0  0  0  0  0  0  0  0  0
  -24.9046  -22.7811   25.5354 C   0  0  1  0  0  0  0  0  0  0  0  0
  -28.1480  -22.7121   18.6546 C   0  0  2  0  0  0  0  0  0  0  0  0
  -24.3780  -26.4396   24.6571 C   0  0  1  0  0  0  0  0  0  0  0  0
  -27.8095  -13.9928   20.4952 C   0  0  2  0  0  0  0  0  0  0  0  0
  -20.1025  -31.9631   21.3082 C   0  0  0  0  0  0  0  0  0  0  0  0
  -20.8165  -25.4048   21.8992 C   0  0  0  0  0  0  0  0  0  0  0  0
  -19.7475  -27.3506   20.7420 C   0  0  0  0  0  0  0  0  0  0  0  0
  -19.3655  -26.9884   23.1803 C   0  0  0  0  0  0  0  0  0  0  0  0
  -23.5758  -32.3740   22.8061 C   0  0  0  0  0  0  0  0  0  0  0  0
  -30.2745  -25.9018   18.5728 C   0  0  0  0  0  0  0  0  0  0  0  0
  -30.0052  -26.4620   19.9555 C   0  0  0  0  0  0  0  0  0  1  0  0
  -21.6218  -27.8087   22.3877 C   0  0  1  0  0  0  0  0  0  0  0  0
  -21.2948  -31.5791   22.1707 C   0  0  2  0  0  0  0  0  0  0  0  0
  -20.4162  -26.8856   22.0533 C   0  0  0  0  0  0  0  0  0  0  0  0
  -29.4000  -20.6633   18.9831 N   0  0  0  0  0  0  0  0  0  0  0  0
  -26.4552  -12.2319   21.5661 N   0  0  0  0  0  0  0  0  0  0  0  0
  -26.4742  -13.4081   20.9163 N   0  0  0  0  0  0  0  0  0  0  0  0
  -23.6872  -27.0443   23.5163 N   0  0  0  0  0  0  0  0  0  0  0  0
  -29.6703  -15.4903   21.0998 N   0  0  0  0  0  0  0  0  0  0  0  0
  -25.0748  -15.1240   20.0748 N   0  0  0  0  0  0  0  0  0  0  0  0
  -22.1564  -12.2012   21.9014 N   0  0  0  0  0  0  0  0  0  0  0  0
  -28.9229  -17.7260   21.1722 N   0  0  0  0  0  0  0  0  0  0  0  0
  -24.8656  -24.2276   25.5097 N   0  0  0  0  0  0  0  0  0  0  0  0
  -21.2679  -29.2128   22.5660 N   0  0  0  0  0  0  0  0  0  0  0  0
  -29.2036  -24.9367   18.2180 N   0  3  1  0  0  0  0  0  0  0  0  0
  -22.3533  -32.6136   21.9968 N   0  3  0  0  0  0  0  0  0  0  0  0
  -22.3407  -14.1891   20.7731 O   0  0  0  0  0  0  0  0  0  0  0  0
  -23.7891  -24.4904   23.4617 O   0  0  0  0  0  0  0  0  0  0  0  0
  -21.7166  -27.3751   24.7178 O   0  0  0  0  0  0  0  0  0  0  0  0
  -22.6595  -30.0386   20.9050 O   0  0  0  0  0  0  0  0  0  0  0  0
  -31.0938  -17.2201   20.5295 O   0  0  0  0  0  0  0  0  0  0  0  0
  -23.4452   -7.4159   24.4460 O   0  0  0  0  0  0  0  0  0  0  0  0
  -28.7336  -27.1094   19.9692 O   0  0  0  0  0  0  0  0  0  1  0  0
  -19.1618   -4.6655   22.3265 F   0  0  0  0  0  0  0  0  0  0  0  0
  -20.9807   -8.6344   24.1553 F   0  0  0  0  0  0  0  0  0  0  0  0
  1  2  1  0  0  0  0
  1  5  2  0  0  0  0
  2  6  2  0  0  0  0
  3  8  2  0  0  0  0
  3 17  1  0  0  0  0
  4  9  1  0  0  0  0
  4 17  2  0  0  0  0
  5 19  1  0  0  0  0
  6 21  1  0  0  0  0
  7 10  2  0  0  0  0
  7 20  1  0  0  0  0
  8 25  1  0  0  0  0
  9 25  2  0  0  0  0
 10 26  1  0  0  0  0
 11 12  2  0  0  0  0
 11 27  1  0  0  0  0
 12 28  1  0  0  0  0
 13 22  1  0  0  0  0
 13 26  2  0  0  0  0
 14 23  2  0  0  0  0
 14 31  1  0  0  0  0
 15 28  2  0  0  0  0
 15 29  1  0  0  0  0
 16 24  2  0  0  0  0
 16 68  1  0  0  0  0
 17 30  1  0  0  0  0
 18 30  1  0  0  0  0
 18 32  2  0  0  0  0
 18 33  1  0  0  0  0
 19 21  2  0  0  0  0
 19 38  1  0  0  0  0
 20 22  2  0  0  0  0
 20 39  1  0  0  0  0
 21 54  1  0  0  0  0
 22 40  1  0  0  0  0
 23 24  1  0  0  0  0
 23 53  1  0  0  0  0
 24 75  1  0  0  0  0
 25 85  1  0  0  0  0
 26 86  1  0  0  0  0
 27 29  2  0  0  0  0
 27 85  1  0  0  0  0
 28 87  1  0  0  0  0
 29 88  1  0  0  0  0
 30 69  2  0  0  0  0
 31 55  1  0  0  0  0
 31 68  2  0  0  0  0
 32 70  1  0  0  0  0
 32 73  1  0  0  0  0
 33 74  1  0  0  0  0
 33 80  2  0  0  0  0
 34 56  1  0  0  0  0
 34 76  1  0  0  0  0
 34 81  2  0  0  0  0
 35 65  1  0  0  0  0
 35 71  1  0  0  0  0
 35 82  2  0  0  0  0
 36 66  1  0  0  0  0
 36 77  1  0  0  0  0
 36 83  2  0  0  0  0
 37 72  1  0  0  0  0
 37 75  1  0  0  0  0
 37 84  2  0  0  0  0
 38 41  1  0  0  0  0
 39 56  1  0  0  0  0
 40 71  1  0  0  0  0
 41 46  1  0  0  0  0
 42 48  1  0  0  0  0
 42 49  1  0  0  0  0
 43 47  1  0  0  0  0
 43 51  1  0  0  0  0
 44 45  1  0  0  0  0
 44 53  1  0  0  0  0
 45 53  1  0  0  0  0
 46 54  1  0  0  0  0
 47 55  1  0  0  0  0
 48 57  1  0  0  0  0
 49 72  1  0  0  0  0
 50 57  1  0  0  0  0
 50 72  1  0  0  0  0
 51 78  1  0  0  0  0
 52 55  1  0  0  0  0
 52 78  1  0  0  0  0
 54 76  1  0  0  0  0
 56 71  1  0  0  0  0
 57 70  1  0  0  0  0
 58 66  1  0  0  0  0
 59 67  1  0  0  0  0
 60 67  1  0  0  0  0
 61 67  1  0  0  0  0
 62 79  1  0  0  0  0
 63 64  1  0  0  0  0
 63 78  1  0  0  0  0
 64 86  1  0  0  0  0
 65 67  1  0  0  0  0
 65 77  1  0  0  0  0
 66 79  1  0  0  0  0
 69 70  1  0  0  0  0
M  CHG  2  78   1  79   1
M  ISO  4  37 100  64 101  75 100  86 101
M  END
> <Batch ID>
0138

> <Smiles>
CNC(C)C(=O)NC(C(=O)N1Cc2cc([101O:1][101CH2:1]CN3CCCC(c4cc(C5CC5)c([100NH:0][100C:0](=O)N5CCCC(n6nc(-c7ccc(Oc8ccc(F)cc8F)cc7)c(C(N)=O)c6N)C5)cn4)C3)ccc2CC1C(=O)NC1CCCc2ccccc21)C(C)(C)C

> <Shape>
0.279

> <Color>
0.133

> <Negative vol penalty>
0.000

$$$$

  -OEChem-04052321083D

 86 95  0     1  0  0  0  0  0999 V2000
  -18.6542  -21.3612   32.5824 C   0  0  0  0  0  0  0  0  0  0  0  0
  -18.6547  -21.5314   31.2017 C   0  0  0  0  0  0  0  0  0  0  0  0
  -23.1335   -9.8833   19.9975 C   0  0  0  0  0  0  0  0  0  0  0  0
  -23.8345  -10.0016   22.3065 C   0  0  0  0  0  0  0  0  0  0  0  0
  -19.6275  -20.5661   33.1860 C   0  0  0  0  0  0  0  0  0  0  0  0
  -19.6292  -20.9072   30.4238 C   0  0  0  0  0  0  0  0  0  0  0  0
  -20.5715  -17.9558   23.9649 C   0  0  0  0  0  0  0  0  0  0  0  0
  -22.4043   -8.7278   20.2780 C   0  0  0  0  0  0  0  0  0  0  0  0
  -23.1052   -8.8461   22.5871 C   0  0  0  0  0  0  0  0  0  0  0  0
  -21.4231  -18.0245   22.8631 C   0  0  0  0  0  0  0  0  0  0  0  0
  -23.4695   -5.5096   22.1796 C   0  0  0  0  0  0  0  0  0  0  0  0
  -24.0847   -4.5274   22.9557 C   0  0  0  0  0  0  0  0  0  0  0  0
  -23.0074  -16.6101   24.0071 C   0  0  0  0  0  0  0  0  0  0  0  0
  -27.5148  -18.6738   19.8525 C   0  0  0  0  0  0  0  0  0  0  0  0
  -27.8545  -18.0641   22.1541 C   0  0  0  0  0  0  0  0  0  0  0  0
  -22.3375   -4.7408   24.6107 C   0  0  0  0  0  0  0  0  0  0  0  0
  -23.8487  -10.5201   21.0117 C   0  0  0  0  0  0  0  0  0  0  0  0
  -24.1483  -13.0440   20.7924 C   0  0  0  0  0  0  0  0  0  0  0  0
  -20.6087  -19.9241   32.4141 C   0  0  0  0  0  0  0  0  0  0  0  0
  -20.9369  -17.2213   25.1022 C   0  0  0  0  0  0  0  0  0  0  0  0
  -20.6174  -20.1038   31.0177 C   0  0  0  0  0  0  0  0  0  0  0  0
  -22.1575  -16.5315   25.1209 C   0  0  0  0  0  0  0  0  0  0  0  0
  -22.3900   -8.2093   21.5728 C   0  0  0  0  0  0  0  0  0  0  0  0
  -22.6425  -17.3540   22.8852 C   0  0  0  0  0  0  0  0  0  0  0  0
  -22.2883   -6.1075   22.6190 C   0  0  0  0  0  0  0  0  0  0  0  0
  -27.0339  -18.5722   21.1532 C   0  0  0  0  0  0  0  0  0  0  0  0
  -23.5187   -4.1430   24.1712 C   0  0  0  0  0  0  0  0  0  0  0  0
  -21.7223   -5.7231   23.8345 C   0  0  0  0  0  0  0  0  0  0  0  0
  -24.6027  -11.7134   20.7224 C   0  0  0  0  0  0  0  0  0  0  0  0
  -28.8131  -18.2571   19.6066 C   0  0  0  0  0  0  0  0  0  0  0  0
  -29.1376  -17.6745   21.8052 C   0  0  0  0  0  0  0  0  0  0  0  0
  -25.2358  -13.7979   20.4245 C   0  0  0  0  0  0  0  0  0  0  0  0
  -22.8586  -13.5529   21.1574 C   0  0  0  0  0  0  0  0  0  0  0  0
  -21.4720  -17.9307   28.1541 C   0  0  0  0  0  0  0  0  0  0  0  0
  -21.7175  -14.7103   28.4553 C   0  0  0  0  0  0  0  0  0  0  0  0
  -22.3560  -11.7023   26.9749 C   0  0  0  0  0  0  0  0  0  0  0  0
  -31.0015  -13.8747   20.9394 C   0  0  0  0  0  0  0  0  0  0  0  0
  -21.6686  -19.1127   33.1162 C   0  0  0  0  0  0  0  0  0  0  0  0
  -19.9953  -17.1352   26.2719 C   0  0  0  0  0  0  0  0  0  0  0  0
  -22.5875  -15.7127   26.3096 C   0  0  0  0  0  0  0  0  0  0  0  0
  -22.4416  -18.1835   32.1837 C   0  0  0  0  0  0  0  0  0  0  0  0
  -29.3989  -12.9131   17.9090 C   0  0  0  0  0  0  0  0  0  0  0  0
  -22.8645  -18.9263   30.9203 C   0  0  0  0  0  0  0  0  0  0  0  0
  -28.6001  -17.6914   17.0949 C   0  0  0  0  0  0  0  0  0  0  0  0
  -29.9052  -17.1229   17.5574 C   0  0  0  0  0  0  0  0  0  0  0  0
  -27.9565  -12.6294   18.3320 C   0  0  0  0  0  0  0  0  0  0  0  0
  -30.3968  -12.4825   18.9817 C   0  0  0  0  0  0  0  0  0  0  0  0
  -28.6986  -12.7539   20.7471 C   0  0  0  0  0  0  0  0  0  0  0  0
  -21.6432  -19.4233   30.1375 C   0  0  1  0  0  0  0  0  0  0  0  0
  -29.3502  -18.3570   18.2183 C   0  0  0  0  0  0  0  0  0  0  0  0
  -20.6970  -16.7791   27.5789 C   0  0  1  0  0  0  0  0  0  0  0  0
  -27.6526  -13.2223   19.7210 C   0  0  2  0  0  0  0  0  0  0  0  0
  -22.5181   -9.2506   27.4852 C   0  0  0  0  0  0  0  0  0  0  0  0
  -24.4338  -15.1657   29.7683 C   0  0  0  0  0  0  0  0  0  0  0  0
  -24.9461  -12.7449   29.3869 C   0  0  0  0  0  0  0  0  0  0  0  0
  -23.0350  -13.3979   30.8511 C   0  0  0  0  0  0  0  0  0  0  0  0
  -20.1639  -11.0482   25.0972 C   0  0  0  0  0  0  0  0  0  0  0  0
  -31.3009  -16.7237   22.6061 C   0  0  0  0  0  0  0  0  0  0  0  0
  -31.4542  -15.2510   22.9544 C   0  0  0  0  0  0  0  0  0  0  0  0
  -23.4281  -18.6093   21.0243 C   0  0  0  0  0  0  0  0  0  1  0  0
  -24.7926  -18.8506   20.4083 C   0  0  0  0  0  0  0  0  0  0  0  0
  -22.8426  -13.7093   28.3495 C   0  0  1  0  0  0  0  0  0  0  0  0
  -21.6121  -10.3797   27.0193 C   0  0  2  0  0  0  0  0  0  0  0  0
  -23.8074  -13.7714   29.5672 C   0  0  0  0  0  0  0  0  0  0  0  0
  -25.8793  -11.6239   20.3400 N   0  0  0  0  0  0  0  0  0  0  0  0
  -29.6399  -17.7583   20.5528 N   0  0  0  0  0  0  0  0  0  0  0  0
  -26.2364  -12.9078   20.1663 N   0  0  0  0  0  0  0  0  0  0  0  0
  -21.6351  -15.6645   27.4313 N   0  0  0  0  0  0  0  0  0  0  0  0
  -30.0531  -13.0803   20.2742 N   0  0  0  0  0  0  0  0  0  0  0  0
  -25.4242  -15.1289   20.2999 N   0  0  0  0  0  0  0  0  0  0  0  0
  -21.8548  -12.6398   21.5081 N   0  0  0  0  0  0  0  0  0  0  0  0
  -29.9619  -17.1587   22.8359 N   0  0  0  0  0  0  0  0  0  0  0  0
  -21.0369  -18.3343   29.4020 N   0  0  0  0  0  0  0  0  0  0  0  0
  -22.2139  -12.4079   28.1510 N   0  0  0  0  0  0  0  0  0  0  0  0
  -30.5926  -14.4082   22.1555 N   0  0  0  0  0  0  0  0  0  0  0  0
  -21.0881  -10.0345   25.6676 N   0  3  0  0  0  0  0  0  0  0  0  0
  -22.5990  -14.7801   21.1562 O   0  0  0  0  0  0  0  0  0  0  0  0
  -22.3972  -18.4163   27.5138 O   0  0  0  0  0  0  0  0  0  0  0  0
  -20.9361  -14.6434   29.4074 O   0  0  0  0  0  0  0  0  0  0  0  0
  -23.0017  -12.0708   25.9963 O   0  0  0  0  0  0  0  0  0  0  0  0
  -32.1273  -14.0967   20.4808 O   0  0  0  0  0  0  0  0  0  0  0  0
  -21.6783   -7.0820   21.8470 O   0  0  0  0  0  0  0  0  0  0  0  0
  -23.4759  -17.4200   21.8114 O   0  0  0  0  0  0  0  0  0  1  0  0
  -25.7566  -18.9711   21.4473 O   0  0  0  0  0  0  0  0  0  0  0  0
  -24.1088   -3.1986   24.9156 F   0  0  0  0  0  0  0  0  0  0  0  0
  -20.5871   -6.2930   24.2614 F   0  0  0  0  0  0  0  0  0  0  0  0
  1  2  1  0  0  0  0
  1  5  2  0  0  0  0
  2  6  2  0  0  0  0
  3  8  2  0  0  0  0
  3 17  1  0  0  0  0
  4  9  1  0  0  0  0
  4 17  2  0  0  0  0
  5 19  1  0  0  0  0
  6 21  1  0  0  0  0
  7 10  2  0  0  0  0
  7 20  1  0  0  0  0
  8 23  1  0  0  0  0
  9 23  2  0  0  0  0
 10 24  1  0  0  0  0
 11 12  2  0  0  0  0
 11 25  1  0  0  0  0
 12 27  1  0  0  0  0
 13 22  1  0  0  0  0
 13 24  2  0  0  0  0
 14 26  2  0  0  0  0
 14 30  1  0  0  0  0
 15 26  1  0  0  0  0
 15 31  2  0  0  0  0
 16 27  2  0  0  0  0
 16 28  1  0  0  0  0
 17 29  1  0  0  0  0
 18 29  1  0  0  0  0
 18 32  2  0  0  0  0
 18 33  1  0  0  0  0
 19 21  2  0  0  0  0
 19 38  1  0  0  0  0
 20 22  2  0  0  0  0
 20 39  1  0  0  0  0
 21 49  1  0  0  0  0
 22 40  1  0  0  0  0
 23 82  1  0  0  0  0
 24 83  1  0  0  0  0
 25 28  2  0  0  0  0
 25 82  1  0  0  0  0
 26 84  1  0  0  0  0
 27 85  1  0  0  0  0
 28 86  1  0  0  0  0
 29 65  2  0  0  0  0
 30 50  1  0  0  0  0
 30 66  2  0  0  0  0
 31 66  1  0  0  0  0
 31 72  1  0  0  0  0
 32 67  1  0  0  0  0
 32 70  1  0  0  0  0
 33 71  1  0  0  0  0
 33 77  2  0  0  0  0
 34 51  1  0  0  0  0
 34 73  1  0  0  0  0
 34 78  2  0  0  0  0
 35 62  1  0  0  0  0
 35 68  1  0  0  0  0
 35 79  2  0  0  0  0
 36 63  1  0  0  0  0
 36 74  1  0  0  0  0
 36 80  2  0  0  0  0
 37 69  1  0  0  0  0
 37 75  1  0  0  0  0
 37 81  2  0  0  0  0
 38 41  1  0  0  0  0
 39 51  1  0  0  0  0
 40 68  1  0  0  0  0
 41 43  1  0  0  0  0
 42 46  1  0  0  0  0
 42 47  1  0  0  0  0
 43 49  1  0  0  0  0
 44 45  1  0  0  0  0
 44 50  1  0  0  0  0
 45 50  1  0  0  0  0
 46 52  1  0  0  0  0
 47 69  1  0  0  0  0
 48 52  1  0  0  0  0
 48 69  1  0  0  0  0
 49 73  1  0  0  0  0
 51 68  1  0  0  0  0
 52 67  1  0  0  0  0
 53 63  1  0  0  0  0
 54 64  1  0  0  0  0
 55 64  1  0  0  0  0
 56 64  1  0  0  0  0
 57 76  1  0  0  0  0
 58 59  1  0  0  0  0
 58 72  1  0  0  0  0
 59 75  1  0  0  0  0
 60 61  1  0  0  0  0
 60 83  1  0  0  0  0
 61 84  1  0  0  0  0
 62 64  1  0  0  0  0
 62 74  1  0  0  0  0
 63 76  1  0  0  0  0
 65 67  1  0  0  0  0
M  CHG  1  76   1
M  ISO  4  37 100  60 101  75 100  83 101
M  END
> <Batch ID>
0138

> <Smiles>
CNC(C)C(=O)NC(C(=O)N1Cc2cc([101O:1][101CH2:1]COc3cc(NCC[100NH:0][100C:0](=O)N4CCCC(n5nc(-c6ccc(Oc7ccc(F)cc7F)cc6)c(C(N)=O)c5N)C4)nc(C4CC4)c3)ccc2CC1C(=O)NC1CCCc2ccccc21)C(C)(C)C

> <Shape>
0.201

> <Color>
0.192

> <Negative vol penalty>
0.000

$$$$

  -OEChem-04052321083D

 82 91  0     1  0  0  0  0  0999 V2000
  -18.4823  -29.0097   29.9856 C   0  0  0  0  0  0  0  0  0  0  0  0
  -18.9891  -27.9077   29.3045 C   0  0  0  0  0  0  0  0  0  0  0  0
  -23.1864   -9.8208   21.5102 C   0  0  0  0  0  0  0  0  0  0  0  0
  -23.7389  -10.8456   23.6272 C   0  0  0  0  0  0  0  0  0  0  0  0
  -18.3840  -30.2418   29.3404 C   0  0  0  0  0  0  0  0  0  0  0  0
  -19.3970  -28.0368   27.9773 C   0  0  0  0  0  0  0  0  0  0  0  0
  -24.0474  -25.1264   25.2553 C   0  0  0  0  0  0  0  0  0  0  0  0
  -22.4654   -8.8307   22.1777 C   0  0  0  0  0  0  0  0  0  0  0  0
  -23.0178   -9.8556   24.2947 C   0  0  0  0  0  0  0  0  0  0  0  0
  -24.0983  -23.9971   24.4393 C   0  0  0  0  0  0  0  0  0  0  0  0
  -23.1290   -5.9921   23.8883 C   0  0  0  0  0  0  0  0  0  0  0  0
  -23.3160   -4.6707   23.4830 C   0  0  0  0  0  0  0  0  0  0  0  0
  -24.0812  -25.4144   22.4873 C   0  0  0  0  0  0  0  0  0  0  0  0
  -20.9677   -4.5049   22.9397 C   0  0  0  0  0  0  0  0  0  0  0  0
  -23.8232  -10.8282   22.2350 C   0  0  0  0  0  0  0  0  0  0  0  0
  -24.0830  -13.0856   21.0754 C   0  0  0  0  0  0  0  0  0  0  0  0
  -18.7999  -30.3884   28.0077 C   0  0  0  0  0  0  0  0  0  0  0  0
  -24.0020  -26.4099   24.6924 C   0  0  0  0  0  0  0  0  0  0  0  0
  -19.3030  -29.2717   27.3133 C   0  0  0  0  0  0  0  0  0  0  0  0
  -24.0324  -26.5584   23.2984 C   0  0  0  0  0  0  0  0  0  0  0  0
  -22.3810   -8.8481   23.5699 C   0  0  0  0  0  0  0  0  0  0  0  0
  -24.1123  -24.1409   23.0550 C   0  0  0  0  0  0  0  0  0  0  0  0
  -21.8613   -6.5700   23.8194 C   0  0  0  0  0  0  0  0  0  0  0  0
  -22.2354   -3.9271   23.0087 C   0  0  0  0  0  0  0  0  0  0  0  0
  -20.7807   -5.8264   23.3451 C   0  0  0  0  0  0  0  0  0  0  0  0
  -24.5686  -11.8509   21.5461 C   0  0  0  0  0  0  0  0  0  0  0  0
  -25.1753  -13.6873   20.4999 C   0  0  0  0  0  0  0  0  0  0  0  0
  -22.7625  -13.6390   21.1516 C   0  0  0  0  0  0  0  0  0  0  0  0
  -21.9181  -28.8096   24.7441 C   0  0  0  0  0  0  0  0  0  0  0  0
  -24.2708  -30.3728   23.1492 C   0  0  0  0  0  0  0  0  0  0  0  0
  -27.0396  -30.1906   21.1625 C   0  0  0  0  0  0  0  0  0  0  0  0
  -30.4718  -15.0688   20.4037 C   0  0  0  0  0  0  0  0  0  0  0  0
  -18.6304  -31.7289   27.3376 C   0  0  0  0  0  0  0  0  0  0  0  0
  -23.9744  -27.6189   25.5868 C   0  0  0  0  0  0  0  0  0  0  0  0
  -24.0058  -27.9150   22.6447 C   0  0  0  0  0  0  0  0  0  0  0  0
  -19.4333  -31.8706   26.0471 C   0  0  0  0  0  0  0  0  0  0  0  0
  -29.7429  -11.8532   19.3634 C   0  0  0  0  0  0  0  0  0  0  0  0
  -19.2589  -30.6339   25.1713 C   0  0  0  0  0  0  0  0  0  0  0  0
  -28.2897  -11.6535   19.7932 C   0  0  0  0  0  0  0  0  0  0  0  0
  -29.2825  -18.5637   20.0908 C   0  0  0  0  0  0  0  0  0  0  0  0
  -27.7234  -17.3031   21.6169 C   0  0  0  0  0  0  0  0  0  0  0  0
  -26.1738  -19.8486   22.0470 C   0  0  0  0  0  0  0  0  0  0  0  0
  -30.5329  -12.5933   20.4368 C   0  0  0  0  0  0  0  0  0  0  0  0
  -30.3707  -17.5342   20.3826 C   0  0  0  0  0  0  0  0  0  0  0  0
  -28.8418  -16.3012   21.8841 C   0  0  0  0  0  0  0  0  0  0  0  0
  -28.4919  -13.7299   21.2479 C   0  0  0  0  0  0  0  0  0  0  0  0
  -27.6649  -21.0654   20.6539 C   0  0  0  0  0  0  0  0  0  0  0  0
  -19.7789  -29.3778   25.8807 C   0  0  1  0  0  0  0  0  0  0  0  0
  -23.4119  -28.8587   24.8984 C   0  0  1  0  0  0  0  0  0  0  0  0
  -28.2878  -18.6830   21.2527 C   0  0  0  0  0  0  0  0  0  0  0  0
  -27.1630  -19.6563   20.9082 C   0  0  1  0  0  0  0  0  0  0  0  0
  -27.6430  -12.9915   20.1935 C   0  0  2  0  0  0  0  0  0  0  0  0
  -25.4184  -21.1003   21.6194 C   0  0  1  0  0  0  0  0  0  0  0  0
  -28.7224  -31.6376   19.9913 C   0  0  0  0  0  0  0  0  0  0  0  0
  -22.2046  -31.0350   21.0039 C   0  0  0  0  0  0  0  0  0  0  0  0
  -24.0915  -31.6203   19.4660 C   0  0  0  0  0  0  0  0  0  0  0  0
  -23.7557  -32.9123   21.5733 C   0  0  0  0  0  0  0  0  0  0  0  0
  -29.2825  -29.0348   22.7094 C   0  0  0  0  0  0  0  0  0  0  0  0
  -24.8272  -21.8908   22.7691 C   0  0  0  0  0  0  0  0  0  1  0  0
  -24.6436  -30.5483   21.6970 C   0  0  1  0  0  0  0  0  0  0  0  0
  -28.3957  -30.8658   21.2603 C   0  0  2  0  0  0  0  0  0  0  0  0
  -23.6724  -31.5032   20.9470 C   0  0  0  0  0  0  0  0  0  0  0  0
  -25.8683  -11.6772   21.2916 N   0  0  0  0  0  0  0  0  0  0  0  0
  -26.2085  -12.8106   20.6546 N   0  0  0  0  0  0  0  0  0  0  0  0
  -23.9726  -29.0663   23.5617 N   0  0  0  0  0  0  0  0  0  0  0  0
  -29.8844  -13.8554   20.7922 N   0  0  0  0  0  0  0  0  0  0  0  0
  -29.7983  -16.2458   20.7706 N   0  0  0  0  0  0  0  0  0  0  0  0
  -25.3432  -14.8756   19.8817 N   0  0  0  0  0  0  0  0  0  0  0  0
  -21.7581  -12.8875   21.7767 N   0  0  0  0  0  0  0  0  0  0  0  0
  -21.2240  -29.3257   25.8217 N   0  0  0  0  0  0  0  0  0  0  0  0
  -26.0368  -30.9812   21.6827 N   0  0  0  0  0  0  0  0  0  0  0  0
  -26.4569  -21.9251   20.9017 N   0  3  0  0  0  0  0  0  0  0  0  0
  -29.4647  -29.8513   21.4817 N   0  3  0  0  0  0  0  0  0  0  0  0
  -22.4779  -14.7595   20.6648 O   0  0  0  0  0  0  0  0  0  0  0  0
  -21.4313  -28.3396   23.7224 O   0  0  0  0  0  0  0  0  0  0  0  0
  -24.2520  -31.3574   23.8921 O   0  0  0  0  0  0  0  0  0  0  0  0
  -26.8849  -29.0751   20.6704 O   0  0  0  0  0  0  0  0  0  0  0  0
  -31.5307  -15.1018   19.7643 O   0  0  0  0  0  0  0  0  0  0  0  0
  -21.6774   -7.8823   24.2215 O   0  0  0  0  0  0  0  0  0  0  0  0
  -24.1616  -23.0316   22.2498 O   0  0  0  0  0  0  0  0  0  1  0  0
  -22.4155   -2.6586   22.6180 F   0  0  0  0  0  0  0  0  0  0  0  0
  -19.5607   -6.3765   23.2755 F   0  0  0  0  0  0  0  0  0  0  0  0
  1  2  1  0  0  0  0
  1  5  2  0  0  0  0
  2  6  2  0  0  0  0
  3  8  2  0  0  0  0
  3 15  1  0  0  0  0
  4  9  1  0  0  0  0
  4 15  2  0  0  0  0
  5 17  1  0  0  0  0
  6 19  1  0  0  0  0
  7 10  2  0  0  0  0
  7 18  1  0  0  0  0
  8 21  1  0  0  0  0
  9 21  2  0  0  0  0
 10 22  1  0  0  0  0
 11 12  2  0  0  0  0
 11 23  1  0  0  0  0
 12 24  1  0  0  0  0
 13 20  1  0  0  0  0
 13 22  2  0  0  0  0
 14 24  2  0  0  0  0
 14 25  1  0  0  0  0
 15 26  1  0  0  0  0
 16 26  1  0  0  0  0
 16 27  2  0  0  0  0
 16 28  1  0  0  0  0
 17 19  2  0  0  0  0
 17 33  1  0  0  0  0
 18 20  2  0  0  0  0
 18 34  1  0  0  0  0
 19 48  1  0  0  0  0
 20 35  1  0  0  0  0
 21 79  1  0  0  0  0
 22 80  1  0  0  0  0
 23 25  2  0  0  0  0
 23 79  1  0  0  0  0
 24 81  1  0  0  0  0
 25 82  1  0  0  0  0
 26 63  2  0  0  0  0
 27 64  1  0  0  0  0
 27 68  1  0  0  0  0
 28 69  1  0  0  0  0
 28 74  2  0  0  0  0
 29 49  1  0  0  0  0
 29 70  1  0  0  0  0
 29 75  2  0  0  0  0
 30 60  1  0  0  0  0
 30 65  1  0  0  0  0
 30 76  2  0  0  0  0
 31 61  1  0  0  0  0
 31 71  1  0  0  0  0
 31 77  2  0  0  0  0
 32 66  1  0  0  0  0
 32 67  1  0  0  0  0
 32 78  2  0  0  0  0
 33 36  1  0  0  0  0
 34 49  1  0  0  0  0
 35 65  1  0  0  0  0
 36 38  1  0  0  0  0
 37 39  1  0  0  0  0
 37 43  1  0  0  0  0
 38 48  1  0  0  0  0
 39 52  1  0  0  0  0
 40 44  1  0  0  0  0
 40 50  1  0  0  0  0
 41 45  1  0  0  0  0
 41 50  1  0  0  0  0
 42 51  1  0  0  0  0
 42 53  1  0  0  0  0
 43 66  1  0  0  0  0
 44 67  1  0  0  0  0
 45 67  1  0  0  0  0
 46 52  1  0  0  0  0
 46 66  1  0  0  0  0
 47 51  1  0  0  0  0
 47 72  1  0  0  0  0
 48 70  1  0  0  0  0
 49 65  1  0  0  0  0
 50 51  1  0  0  0  0
 52 64  1  0  0  0  0
 53 59  1  0  0  0  0
 53 72  1  0  0  0  0
 54 61  1  0  0  0  0
 55 62  1  0  0  0  0
 56 62  1  0  0  0  0
 57 62  1  0  0  0  0
 58 73  1  0  0  0  0
 59 80  1  0  0  0  0
 60 62  1  0  0  0  0
 60 71  1  0  0  0  0
 61 73  1  0  0  0  0
 63 64  1  0  0  0  0
M  CHG  2  72   1  73   1
M  ISO  4  32 100  59 101  67 100  80 101
M  END
> <Batch ID>
0138

> <Smiles>
CNC(C)C(=O)NC(C(=O)N1Cc2cc([101O:1][101CH2:1]C3CC(C4CC[100N:0]([100C:0](=O)N5CCCC(n6nc(-c7ccc(Oc8ccc(F)cc8F)cc7)c(C(N)=O)c6N)C5)CC4)CN3)ccc2CC1C(=O)NC1CCCc2ccccc21)C(C)(C)C

> <Shape>
0.251

> <Color>
0.147

> <Negative vol penalty>
0.000

$$$$

  -OEChem-04052321083D

 88 97  0     1  0  0  0  0  0999 V2000
  -20.0923   -6.2252   21.1707 C   0  0  0  0  0  0  0  0  0  0  0  0
  -19.5375   -7.4405   20.7825 C   0  0  0  0  0  0  0  0  0  0  0  0
  -22.9866  -30.9920   21.1501 C   0  0  0  0  0  0  0  0  0  0  0  0
  -22.7911  -28.9748   22.4653 C   0  0  0  0  0  0  0  0  0  0  0  0
  -21.1747   -6.2033   22.0493 C   0  0  0  0  0  0  0  0  0  0  0  0
  -20.0642   -8.6346   21.2735 C   0  0  0  0  0  0  0  0  0  0  0  0
  -21.1613  -15.4528   19.3695 C   0  0  0  0  0  0  0  0  0  0  0  0
  -25.4346  -23.0756   19.6257 C   0  0  0  0  0  0  0  0  0  0  0  0
  -26.8258  -23.1493   19.5578 C   0  0  0  0  0  0  0  0  0  0  0  0
  -21.6096  -30.9810   20.9284 C   0  0  0  0  0  0  0  0  0  0  0  0
  -21.4140  -28.9638   22.2436 C   0  0  0  0  0  0  0  0  0  0  0  0
  -20.9212  -16.7494   19.8220 C   0  0  0  0  0  0  0  0  0  0  0  0
  -18.6856  -30.5500   23.4520 C   0  0  0  0  0  0  0  0  0  0  0  0
  -17.8568  -30.2970   24.5450 C   0  0  0  0  0  0  0  0  0  0  0  0
  -22.8426  -16.5928   21.2721 C   0  0  0  0  0  0  0  0  0  0  0  0
  -25.5982  -21.9489   21.7567 C   0  0  0  0  0  0  0  0  0  0  0  0
  -16.9678  -28.3520   23.4208 C   0  0  0  0  0  0  0  0  0  0  0  0
  -23.5774  -29.9888   21.9185 C   0  0  0  0  0  0  0  0  0  0  0  0
  -25.6860  -30.6232   23.2066 C   0  0  0  0  0  0  0  0  0  0  0  0
  -21.7211   -7.3982   22.5437 C   0  0  0  0  0  0  0  0  0  0  0  0
  -22.2394  -14.7112   19.8738 C   0  0  0  0  0  0  0  0  0  0  0  0
  -21.1541   -8.6286   22.1606 C   0  0  0  0  0  0  0  0  0  0  0  0
  -23.0958  -15.2879   20.8225 C   0  0  0  0  0  0  0  0  0  0  0  0
  -24.8208  -22.4755   20.7252 C   0  0  0  0  0  0  0  0  0  0  0  0
  -27.6033  -22.6227   20.5893 C   0  0  0  0  0  0  0  0  0  0  0  0
  -26.9895  -22.0225   21.6888 C   0  0  0  0  0  0  0  0  0  0  0  0
  -20.8232  -29.9669   21.4752 C   0  0  0  0  0  0  0  0  0  0  0  0
  -21.7601  -17.3186   20.7756 C   0  0  0  0  0  0  0  0  0  0  0  0
  -18.6554  -29.7040   22.3433 C   0  0  0  0  0  0  0  0  0  0  0  0
  -16.9979  -29.1981   24.5295 C   0  0  0  0  0  0  0  0  0  0  0  0
  -17.7965  -28.6050   22.3278 C   0  0  0  0  0  0  0  0  0  0  0  0
  -25.0000  -29.9993   22.1473 C   0  0  0  0  0  0  0  0  0  0  0  0
  -27.0095  -30.3409   22.9719 C   0  0  0  0  0  0  0  0  0  0  0  0
  -25.1728  -31.3892   24.3044 C   0  0  0  0  0  0  0  0  0  0  0  0
  -22.5283  -11.9938   21.4974 C   0  0  0  0  0  0  0  0  0  0  0  0
  -25.6956  -12.4883   21.0012 C   0  0  0  0  0  0  0  0  0  0  0  0
  -28.2179  -14.6965   20.3615 C   0  0  0  0  0  0  0  0  0  0  0  0
  -29.7759  -25.9295   20.0159 C   0  0  0  0  0  0  0  0  0  0  0  0
  -22.8611   -7.3223   23.5282 C   0  0  0  0  0  0  0  0  0  0  0  0
  -22.5006  -13.3235   19.3556 C   0  0  0  0  0  0  0  0  0  0  0  0
  -24.2788  -14.5411   21.3806 C   0  0  0  0  0  0  0  0  0  0  0  0
  -23.5987   -8.6465   23.7091 C   0  0  0  0  0  0  0  0  0  0  0  0
  -30.0684  -29.4255   19.4087 C   0  0  0  0  0  0  0  0  0  0  0  0
  -22.6058   -9.7904   23.8893 C   0  0  0  0  0  0  0  0  0  0  0  0
  -27.9076  -19.3357   25.8609 C   0  0  0  0  0  0  0  0  0  0  0  0
  -28.8051  -19.0047   24.7013 C   0  0  0  0  0  0  0  0  0  0  0  0
  -28.8645  -30.0253   20.1373 C   0  0  0  0  0  0  0  0  0  0  0  0
  -29.7320  -28.0755   18.7793 C   0  0  0  0  0  0  0  0  0  0  0  0
  -27.9499  -27.6859   20.4364 C   0  0  0  0  0  0  0  0  0  0  0  0
  -21.7132   -9.9461   22.6521 C   0  0  1  0  0  0  0  0  0  0  0  0
  -23.3249  -12.4722   20.3166 C   0  0  1  0  0  0  0  0  0  0  0  0
  -28.2287  -20.3869   24.8349 C   0  0  0  0  0  0  0  0  0  0  0  0
  -28.2560  -29.0217   21.1352 C   0  0  2  0  0  0  0  0  0  0  0  0
  -30.7052  -14.8092   20.0490 C   0  0  0  0  0  0  0  0  0  0  0  0
  -26.0847  -12.2014   24.0139 C   0  0  0  0  0  0  0  0  0  0  0  0
  -28.3456  -13.2442   23.7509 C   0  0  0  0  0  0  0  0  0  0  0  0
  -27.8345  -11.0780   22.6244 C   0  0  0  0  0  0  0  0  0  0  0  0
  -27.9409  -15.7294   17.6019 C   0  0  0  0  0  0  0  0  0  0  0  0
  -29.0913  -22.7137   20.4896 C   0  0  0  0  0  0  0  0  0  0  0  0
  -23.3243  -22.3966   20.7977 C   0  0  0  0  0  0  0  0  0  0  0  0
  -27.1786  -20.8568   23.8867 C   0  0  0  0  0  0  0  0  0  0  0  0
  -29.6940  -23.8342   21.3435 C   0  0  0  0  0  0  0  0  0  0  0  0
  -21.3238  -20.9092   20.6419 C   0  0  0  0  0  0  0  0  0  0  0  0
  -20.9111  -19.4898   20.3054 C   0  0  0  0  0  0  0  0  0  1  0  0
  -26.7947  -13.2081   21.7449 C   0  0  1  0  0  0  0  0  0  0  0  0
  -29.3578  -14.6609   19.3596 C   0  0  2  0  0  0  0  0  0  0  0  0
  -27.2415  -12.4466   23.0246 C   0  0  0  0  0  0  0  0  0  0  0  0
  -25.8199  -29.3684   21.3025 N   0  0  0  0  0  0  0  0  0  0  0  0
  -27.0348  -29.5945   21.8307 N   0  0  0  0  0  0  0  0  0  0  0  0
  -24.4887  -13.1851   20.8471 N   0  0  0  0  0  0  0  0  0  0  0  0
  -29.1605  -27.1696   19.7787 N   0  0  0  0  0  0  0  0  0  0  0  0
  -28.1425  -30.6608   23.6325 N   0  0  0  0  0  0  0  0  0  0  0  0
  -23.7876  -31.5830   24.3943 N   0  0  0  0  0  0  0  0  0  0  0  0
  -27.7608  -21.4827   22.7412 N   0  0  0  0  0  0  0  0  0  0  0  0
  -22.4324  -10.6185   21.5914 N   0  0  0  0  0  0  0  0  0  0  0  0
  -27.8641  -13.4304   20.7778 N   0  0  0  0  0  0  0  0  0  0  0  0
  -29.1739  -25.1345   20.9835 N   0  0  0  0  0  0  0  0  0  0  0  0
  -29.2121  -15.7654   18.3698 N   0  3  0  0  0  0  0  0  0  0  0  0
  -22.7982  -21.0330   20.5189 N   0  3  0  0  0  0  0  0  0  0  0  0
  -25.9217  -31.9011   25.1709 O   0  0  0  0  0  0  0  0  0  0  0  0
  -22.0384  -12.8119   22.2671 O   0  0  0  0  0  0  0  0  0  0  0  0
  -25.9028  -11.3526   20.5667 O   0  0  0  0  0  0  0  0  0  0  0  0
  -27.6961  -15.7429   20.7400 O   0  0  0  0  0  0  0  0  0  0  0  0
  -30.7901  -25.5605   19.4140 O   0  0  0  0  0  0  0  0  0  0  0  0
  -19.4794  -29.9560   21.2593 O   0  0  0  0  0  0  0  0  0  0  0  0
  -21.5276  -18.5838   21.2195 O   0  0  0  0  0  0  0  0  0  1  0  0
  -16.2032  -28.9544   25.5798 F   0  0  0  0  0  0  0  0  0  0  0  0
  -17.7640  -27.7881   21.2660 F   0  0  0  0  0  0  0  0  0  0  0  0
  1  2  1  0  0  0  0
  1  5  2  0  0  0  0
  2  6  2  0  0  0  0
  3 10  2  0  0  0  0
  3 18  1  0  0  0  0
  4 11  1  0  0  0  0
  4 18  2  0  0  0  0
  5 20  1  0  0  0  0
  6 22  1  0  0  0  0
  7 12  2  0  0  0  0
  7 21  1  0  0  0  0
  8  9  2  0  0  0  0
  8 24  1  0  0  0  0
  9 25  1  0  0  0  0
 10 27  1  0  0  0  0
 11 27  2  0  0  0  0
 12 28  1  0  0  0  0
 13 14  2  0  0  0  0
 13 29  1  0  0  0  0
 14 30  1  0  0  0  0
 15 23  1  0  0  0  0
 15 28  2  0  0  0  0
 16 24  2  0  0  0  0
 16 26  1  0  0  0  0
 17 30  2  0  0  0  0
 17 31  1  0  0  0  0
 18 32  1  0  0  0  0
 19 32  1  0  0  0  0
 19 33  2  0  0  0  0
 19 34  1  0  0  0  0
 20 22  2  0  0  0  0
 20 39  1  0  0  0  0
 21 23  2  0  0  0  0
 21 40  1  0  0  0  0
 22 50  1  0  0  0  0
 23 41  1  0  0  0  0
 24 60  1  0  0  0  0
 25 26  2  0  0  0  0
 25 59  1  0  0  0  0
 26 74  1  0  0  0  0
 27 85  1  0  0  0  0
 28 86  1  0  0  0  0
 29 31  2  0  0  0  0
 29 85  1  0  0  0  0
 30 87  1  0  0  0  0
 31 88  1  0  0  0  0
 32 68  2  0  0  0  0
 33 69  1  0  0  0  0
 33 72  1  0  0  0  0
 34 73  1  0  0  0  0
 34 80  2  0  0  0  0
 35 51  1  0  0  0  0
 35 75  1  0  0  0  0
 35 81  2  0  0  0  0
 36 65  1  0  0  0  0
 36 70  1  0  0  0  0
 36 82  2  0  0  0  0
 37 66  1  0  0  0  0
 37 76  1  0  0  0  0
 37 83  2  0  0  0  0
 38 71  1  0  0  0  0
 38 77  1  0  0  0  0
 38 84  2  0  0  0  0
 39 42  1  0  0  0  0
 40 51  1  0  0  0  0
 41 70  1  0  0  0  0
 42 44  1  0  0  0  0
 43 47  1  0  0  0  0
 43 48  1  0  0  0  0
 44 50  1  0  0  0  0
 45 46  1  0  0  0  0
 45 52  1  0  0  0  0
 46 52  1  0  0  0  0
 47 53  1  0  0  0  0
 48 71  1  0  0  0  0
 49 53  1  0  0  0  0
 49 71  1  0  0  0  0
 50 75  1  0  0  0  0
 51 70  1  0  0  0  0
 52 61  1  0  0  0  0
 53 69  1  0  0  0  0
 54 66  1  0  0  0  0
 55 67  1  0  0  0  0
 56 67  1  0  0  0  0
 57 67  1  0  0  0  0
 58 78  1  0  0  0  0
 59 62  1  0  0  0  0
 60 79  1  0  0  0  0
 61 74  1  0  0  0  0
 62 77  1  0  0  0  0
 63 64  1  0  0  0  0
 63 79  1  0  0  0  0
 64 86  1  0  0  0  0
 65 67  1  0  0  0  0
 65 76  1  0  0  0  0
 66 78  1  0  0  0  0
 68 69  1  0  0  0  0
M  CHG  2  78   1  79   1
M  ISO  4  38 100  64 101  77 100  86 101
M  END
> <Batch ID>
0138

> <Smiles>
CNC(C)C(=O)NC(C(=O)N1Cc2cc([101O:1][101CH2:1]CNCc3ccc(CC[100NH:0][100C:0](=O)N4CCCC(n5nc(-c6ccc(Oc7ccc(F)cc7F)cc6)c(C(N)=O)c5N)C4)c(NCC4CC4)c3)ccc2CC1C(=O)NC1CCCc2ccccc21)C(C)(C)C

> <Shape>
0.267

> <Color>
0.054

> <Negative vol penalty>
0.000

$$$$

  -OEChem-04052321083D

 79 87  0     1  0  0  0  0  0999 V2000
  -25.5740  -23.7638   20.6696 C   0  0  0  0  0  0  0  0  0  0  0  0
  -25.3934  -24.6584   21.7196 C   0  0  0  0  0  0  0  0  0  0  0  0
  -27.0739  -14.3051   21.9459 C   0  0  0  0  0  0  0  0  0  0  0  0
  -26.0720  -14.6582   19.7760 C   0  0  0  0  0  0  0  0  0  0  0  0
  -26.6861  -23.8831   19.8372 C   0  0  0  0  0  0  0  0  0  0  0  0
  -26.3255  -25.6721   21.9386 C   0  0  0  0  0  0  0  0  0  0  0  0
  -23.6753  -28.8090   19.1742 C   0  0  0  0  0  0  0  0  0  0  0  0
  -26.8664  -12.9317   21.8183 C   0  0  0  0  0  0  0  0  0  0  0  0
  -25.8645  -13.2847   19.6483 C   0  0  0  0  0  0  0  0  0  0  0  0
  -22.3815  -28.3390   19.3956 C   0  0  0  0  0  0  0  0  0  0  0  0
  -24.7442   -9.9077   18.9062 C   0  0  0  0  0  0  0  0  0  0  0  0
  -23.5023   -9.4806   18.4362 C   0  0  0  0  0  0  0  0  0  0  0  0
  -22.4463  -29.2336   21.6350 C   0  0  0  0  0  0  0  0  0  0  0  0
  -22.4233  -10.5528   20.3132 C   0  0  0  0  0  0  0  0  0  0  0  0
  -26.6766  -15.1684   20.9248 C   0  0  0  0  0  0  0  0  0  0  0  0
  -28.0237  -17.3174   20.6515 C   0  0  0  0  0  0  0  0  0  0  0  0
  -27.6273  -24.9047   20.0401 C   0  0  0  0  0  0  0  0  0  0  0  0
  -24.3696  -29.4864   20.1868 C   0  0  0  0  0  0  0  0  0  0  0  0
  -27.4520  -25.8043   21.1089 C   0  0  0  0  0  0  0  0  0  0  0  0
  -23.7478  -29.7134   21.4230 C   0  0  0  0  0  0  0  0  0  0  0  0
  -26.2617  -12.4215   20.6695 C   0  0  0  0  0  0  0  0  0  0  0  0
  -21.7679  -28.5488   20.6271 C   0  0  0  0  0  0  0  0  0  0  0  0
  -24.8257  -10.6574   20.0797 C   0  0  0  0  0  0  0  0  0  0  0  0
  -22.3419   -9.8031   19.1397 C   0  0  0  0  0  0  0  0  0  0  0  0
  -23.6652  -10.9799   20.7832 C   0  0  0  0  0  0  0  0  0  0  0  0
  -26.8902  -16.5872   21.0563 C   0  0  0  0  0  0  0  0  0  0  0  0
  -27.7362  -18.6159   20.9946 C   0  0  0  0  0  0  0  0  0  0  0  0
  -29.2287  -16.8626   20.0216 C   0  0  0  0  0  0  0  0  0  0  0  0
  -27.0497  -28.9549   21.8111 C   0  0  0  0  0  0  0  0  0  0  0  0
  -26.4481  -31.9082   23.0103 C   0  0  0  0  0  0  0  0  0  0  0  0
  -24.1599  -34.3448   23.6986 C   0  0  0  0  0  0  0  0  0  0  0  0
  -22.6083  -21.4636   21.6658 C   0  0  0  0  0  0  0  0  0  0  0  0
  -28.8383  -24.9648   19.1431 C   0  0  0  0  0  0  0  0  0  0  0  0
  -25.7546  -30.0105   19.9231 C   0  0  0  0  0  0  0  0  0  0  0  0
  -24.4426  -30.4528   22.5362 C   0  0  0  0  0  0  0  0  0  0  0  0
  -29.5831  -26.2954   19.2136 C   0  0  0  0  0  0  0  0  0  0  0  0
  -25.2215  -21.1854   24.1540 C   0  0  0  0  0  0  0  0  0  0  0  0
  -29.7771  -26.7224   20.6651 C   0  0  0  0  0  0  0  0  0  0  0  0
  -18.7373  -24.1617   21.4557 C   0  0  0  0  0  0  0  0  0  0  0  0
  -26.0558  -20.0332   23.5913 C   0  0  0  0  0  0  0  0  0  0  0  0
  -19.5953  -22.9030   21.6210 C   0  0  0  0  0  0  0  0  0  0  0  0
  -20.9751  -24.7973   22.1204 C   0  0  0  0  0  0  0  0  0  0  0  0
  -23.7316  -20.9557   23.9181 C   0  0  0  0  0  0  0  0  0  0  0  0
  -24.1939  -19.5770   21.9284 C   0  0  0  0  0  0  0  0  0  0  0  0
  -28.4281  -26.9324   21.3634 C   0  0  1  0  0  0  0  0  0  0  0  0
  -26.5607  -30.2368   21.1984 C   0  0  1  0  0  0  0  0  0  0  0  0
  -19.7102  -25.3479   21.4633 C   0  0  2  0  0  0  0  0  0  0  0  0
  -25.7110  -19.7605   22.1152 C   0  0  2  0  0  0  0  0  0  0  0  0
  -21.0420  -23.3850   21.5560 C   0  0  1  0  0  0  0  0  0  0  0  0
  -23.9616  -36.6306   24.7151 C   0  0  0  0  0  0  0  0  0  0  0  0
  -17.8505  -27.0323   21.5149 C   0  0  0  0  0  0  0  0  0  0  0  0
  -26.6751  -30.6860   25.7968 C   0  0  0  0  0  0  0  0  0  0  0  0
  -25.5550  -32.7310   26.7090 C   0  0  0  0  0  0  0  0  0  0  0  0
  -27.7551  -32.9281   25.5500 C   0  0  0  0  0  0  0  0  0  0  0  0
  -23.1796  -35.5144   21.1628 C   0  0  0  0  0  0  0  0  0  0  0  0
  -20.1693  -27.7273   22.1846 C   0  0  0  0  0  0  0  0  0  1  0  0
  -25.6778  -32.4457   24.1921 C   0  0  1  0  0  0  0  0  0  0  0  0
  -24.1692  -35.8394   23.4330 C   0  0  2  0  0  0  0  0  0  0  0  0
  -19.1525  -26.5827   22.1744 C   0  0  2  0  0  0  0  0  0  0  0  0
  -26.4031  -32.1820   25.5419 C   0  0  0  0  0  0  0  0  0  0  0  0
  -25.9526  -17.3578   21.6140 N   0  0  0  0  0  0  0  0  0  0  0  0
  -26.4964  -18.5857   21.5622 N   0  0  0  0  0  0  0  0  0  0  0  0
  -25.7981  -30.9402   22.2318 N   0  0  0  0  0  0  0  0  0  0  0  0
  -23.4686  -20.7208   22.4913 N   0  0  0  0  0  0  0  0  0  0  0  0
  -28.4255  -19.7692   20.8632 N   0  0  0  0  0  0  0  0  0  0  0  0
  -29.3603  -15.4961   19.7393 N   0  0  0  0  0  0  0  0  0  0  0  0
  -27.8495  -28.2005   20.9740 N   0  0  0  0  0  0  0  0  0  0  0  0
  -25.4314  -33.8560   23.9117 N   0  0  0  0  0  0  0  0  0  0  0  0
  -21.9542  -22.5259   22.2777 N   0  0  0  0  0  0  0  0  0  0  0  0
  -23.0858  -36.2023   22.4762 N   0  3  0  0  0  0  0  0  0  0  0  0
  -30.1679  -17.6424   19.7330 O   0  0  0  0  0  0  0  0  0  0  0  0
  -26.7266  -28.6720   22.9588 O   0  0  0  0  0  0  0  0  0  0  0  0
  -27.5820  -32.3369   22.7821 O   0  0  0  0  0  0  0  0  0  0  0  0
  -23.1274  -33.6783   23.7189 O   0  0  0  0  0  0  0  0  0  0  0  0
  -22.4394  -21.2028   20.4698 O   0  0  0  0  0  0  0  0  0  0  0  0
  -26.0593  -11.0814   20.5445 O   0  0  0  0  0  0  0  0  0  0  0  0
  -20.5054  -28.0905   20.8461 O   0  0  0  0  0  0  0  0  0  1  0  0
  -21.1492   -9.3942   18.6875 F   0  0  0  0  0  0  0  0  0  0  0  0
  -23.7370  -11.7008   21.9105 F   0  0  0  0  0  0  0  0  0  0  0  0
  1  2  1  0  0  0  0
  1  5  2  0  0  0  0
  2  6  2  0  0  0  0
  3  8  2  0  0  0  0
  3 15  1  0  0  0  0
  4  9  1  0  0  0  0
  4 15  2  0  0  0  0
  5 17  1  0  0  0  0
  6 19  1  0  0  0  0
  7 10  2  0  0  0  0
  7 18  1  0  0  0  0
  8 21  1  0  0  0  0
  9 21  2  0  0  0  0
 10 22  1  0  0  0  0
 11 12  2  0  0  0  0
 11 23  1  0  0  0  0
 12 24  1  0  0  0  0
 13 20  1  0  0  0  0
 13 22  2  0  0  0  0
 14 24  2  0  0  0  0
 14 25  1  0  0  0  0
 15 26  1  0  0  0  0
 16 26  1  0  0  0  0
 16 27  2  0  0  0  0
 16 28  1  0  0  0  0
 17 19  2  0  0  0  0
 17 33  1  0  0  0  0
 18 20  2  0  0  0  0
 18 34  1  0  0  0  0
 19 45  1  0  0  0  0
 20 35  1  0  0  0  0
 21 76  1  0  0  0  0
 22 77  1  0  0  0  0
 23 25  2  0  0  0  0
 23 76  1  0  0  0  0
 24 78  1  0  0  0  0
 25 79  1  0  0  0  0
 26 61  2  0  0  0  0
 27 62  1  0  0  0  0
 27 65  1  0  0  0  0
 28 66  1  0  0  0  0
 28 71  2  0  0  0  0
 29 46  1  0  0  0  0
 29 67  1  0  0  0  0
 29 72  2  0  0  0  0
 30 57  1  0  0  0  0
 30 63  1  0  0  0  0
 30 73  2  0  0  0  0
 31 58  1  0  0  0  0
 31 68  1  0  0  0  0
 31 74  2  0  0  0  0
 32 64  1  0  0  0  0
 32 69  1  0  0  0  0
 32 75  2  0  0  0  0
 33 36  1  0  0  0  0
 34 46  1  0  0  0  0
 35 63  1  0  0  0  0
 36 38  1  0  0  0  0
 37 40  1  0  0  0  0
 37 43  1  0  0  0  0
 38 45  1  0  0  0  0
 39 41  1  0  0  0  0
 39 47  1  0  0  0  0
 40 48  1  0  0  0  0
 41 49  1  0  0  0  0
 42 47  1  0  0  0  0
 42 49  1  0  0  0  0
 43 64  1  0  0  0  0
 44 48  1  0  0  0  0
 44 64  1  0  0  0  0
 45 67  1  0  0  0  0
 46 63  1  0  0  0  0
 47 59  1  0  0  0  0
 48 62  1  0  0  0  0
 49 69  1  0  0  0  0
 50 58  1  0  0  0  0
 51 59  1  0  0  0  0
 52 60  1  0  0  0  0
 53 60  1  0  0  0  0
 54 60  1  0  0  0  0
 55 70  1  0  0  0  0
 56 59  1  0  0  0  0
 56 77  1  0  0  0  0
 57 60  1  0  0  0  0
 57 68  1  0  0  0  0
 58 70  1  0  0  0  0
 61 62  1  0  0  0  0
M  CHG  1  70   1
M  ISO  4  32 100  56 101  69 100  77 101
M  END
> <Batch ID>
0138

> <Smiles>
CNC(C)C(=O)NC(C(=O)N1Cc2cc([101O:1][101CH2:1]C(C)C3CCC([100NH:0][100C:0](=O)N4CCCC(n5nc(-c6ccc(Oc7ccc(F)cc7F)cc6)c(C(N)=O)c5N)C4)C3)ccc2CC1C(=O)NC1CCCc2ccccc21)C(C)(C)C

> <Shape>
0.282

> <Color>
0.080

> <Negative vol penalty>
0.000

$$$$

  -OEChem-04052321083D

 88 97  0     1  0  0  0  0  0999 V2000
  -17.4560  -17.3451   31.1479 C   0  0  0  0  0  0  0  0  0  0  0  0
  -18.7510  -17.4582   30.6524 C   0  0  0  0  0  0  0  0  0  0  0  0
  -23.2883   -9.7999   19.9128 C   0  0  0  0  0  0  0  0  0  0  0  0
  -23.7397   -9.9398   22.2821 C   0  0  0  0  0  0  0  0  0  0  0  0
  -16.3954  -17.1055   30.2751 C   0  0  0  0  0  0  0  0  0  0  0  0
  -18.9864  -17.3306   29.2839 C   0  0  0  0  0  0  0  0  0  0  0  0
  -23.1892  -20.3153   25.9773 C   0  0  0  0  0  0  0  0  0  0  0  0
  -22.5620   -8.6274   20.1204 C   0  0  0  0  0  0  0  0  0  0  0  0
  -23.0134   -8.7672   22.4897 C   0  0  0  0  0  0  0  0  0  0  0  0
  -24.4594  -19.9550   25.5293 C   0  0  0  0  0  0  0  0  0  0  0  0
  -20.9745   -6.0067   23.6902 C   0  0  0  0  0  0  0  0  0  0  0  0
  -20.0732   -5.9811   24.7544 C   0  0  0  0  0  0  0  0  0  0  0  0
  -23.5184  -19.3002   23.4068 C   0  0  0  0  0  0  0  0  0  0  0  0
  -18.8635   -7.8285   23.7742 C   0  0  0  0  0  0  0  0  0  0  0  0
  -29.5064  -15.8238   23.8579 C   0  0  0  0  0  0  0  0  0  0  0  0
  -23.8773  -10.4562   20.9937 C   0  0  0  0  0  0  0  0  0  0  0  0
  -24.1366  -12.9862   20.7958 C   0  0  0  0  0  0  0  0  0  0  0  0
  -16.6166  -16.9846   28.8942 C   0  0  0  0  0  0  0  0  0  0  0  0
  -22.0707  -20.1602   25.1459 C   0  0  0  0  0  0  0  0  0  0  0  0
  -17.9280  -17.0879   28.3920 C   0  0  0  0  0  0  0  0  0  0  0  0
  -22.2355  -19.6616   23.8457 C   0  0  0  0  0  0  0  0  0  0  0  0
  -22.4245   -8.1110   21.4088 C   0  0  0  0  0  0  0  0  0  0  0  0
  -24.6238  -19.4447   24.2449 C   0  0  0  0  0  0  0  0  0  0  0  0
  -20.8204   -6.9433   22.6680 C   0  0  0  0  0  0  0  0  0  0  0  0
  -28.4212  -16.0376   24.6723 C   0  0  0  0  0  0  0  0  0  0  0  0
  -19.0177   -6.8920   24.7964 C   0  0  0  0  0  0  0  0  0  0  0  0
  -19.7648   -7.8542   22.7100 C   0  0  0  0  0  0  0  0  0  0  0  0
  -24.6282  -11.6671   20.7798 C   0  0  0  0  0  0  0  0  0  0  0  0
  -28.7496  -15.3839   25.8750 C   0  0  0  0  0  0  0  0  0  0  0  0
  -25.2380  -13.7662   20.5408 C   0  0  0  0  0  0  0  0  0  0  0  0
  -22.8036  -13.4638   21.0211 C   0  0  0  0  0  0  0  0  0  0  0  0
  -19.3886  -18.4604   25.2879 C   0  0  0  0  0  0  0  0  0  0  0  0
  -18.6471  -20.1325   22.6090 C   0  0  0  0  0  0  0  0  0  0  0  0
  -19.7397  -21.8940   19.8979 C   0  0  0  0  0  0  0  0  0  0  0  0
  -31.1092  -12.9228   21.3587 C   0  0  0  0  0  0  0  0  0  0  0  0
  -15.4448  -16.6787   27.9953 C   0  0  0  0  0  0  0  0  0  0  0  0
  -20.7111  -20.5785   25.6346 C   0  0  0  0  0  0  0  0  0  0  0  0
  -21.0698  -19.4946   22.9067 C   0  0  0  0  0  0  0  0  0  0  0  0
  -15.7296  -16.9293   26.5167 C   0  0  0  0  0  0  0  0  0  0  0  0
  -29.4596  -13.6632   18.2916 C   0  0  0  0  0  0  0  0  0  0  0  0
  -17.0763  -16.3303   26.1235 C   0  0  0  0  0  0  0  0  0  0  0  0
  -27.6118  -16.6799   27.7083 C   0  0  0  0  0  0  0  0  0  0  0  0
  -27.9899  -13.3546   18.5829 C   0  0  0  0  0  0  0  0  0  0  0  0
  -26.0907  -16.8092   27.6642 C   0  0  0  0  0  0  0  0  0  0  0  0
  -26.5708  -14.6208   26.8512 C   0  0  0  0  0  0  0  0  0  0  0  0
  -30.3930  -12.6836   18.9994 C   0  0  0  0  0  0  0  0  0  0  0  0
  -28.7068  -12.2537   20.7446 C   0  0  0  0  0  0  0  0  0  0  0  0
  -18.2203  -16.9802   26.9111 C   0  0  1  0  0  0  0  0  0  0  0  0
  -27.9382  -15.2931   27.1012 C   0  0  1  0  0  0  0  0  0  0  0  0
  -19.5708  -19.8964   24.8851 C   0  0  1  0  0  0  0  0  0  0  0  0
  -27.7287  -13.2491   20.0975 C   0  0  2  0  0  0  0  0  0  0  0  0
  -25.6273  -15.3691   27.7779 C   0  0  2  0  0  0  0  0  0  0  0  0
  -18.9002  -23.1050   17.8667 C   0  0  0  0  0  0  0  0  0  0  0  0
  -18.1125  -17.4590   21.2391 C   0  0  0  0  0  0  0  0  0  0  0  0
  -18.2158  -18.6459   19.0371 C   0  0  0  0  0  0  0  0  0  0  0  0
  -16.4593  -19.2565   20.6999 C   0  0  0  0  0  0  0  0  0  0  0  0
  -23.2371  -15.9776   28.1721 C   0  0  0  0  0  0  0  0  0  0  0  0
  -20.9091  -24.4585   20.8007 C   0  0  0  0  0  0  0  0  0  0  0  0
  -31.6777  -14.6102   24.1616 C   0  0  0  0  0  0  0  0  0  0  0  0
  -31.6717  -13.1358   23.7665 C   0  0  0  0  0  0  0  0  0  0  0  0
  -25.9355  -18.0338   22.8505 C   0  0  0  0  0  0  0  0  0  1  0  0
  -27.2475  -17.2948   23.0298 C   0  0  0  0  0  0  0  0  0  0  0  0
  -18.8588  -19.9282   21.1283 C   0  0  1  0  0  0  0  0  0  0  0  0
  -19.3088  -23.2325   19.3259 C   0  0  2  0  0  0  0  0  0  0  0  0
  -17.9335  -18.8236   20.5442 C   0  0  0  0  0  0  0  0  0  0  0  0
  -25.9397  -11.6086   20.5340 N   0  0  0  0  0  0  0  0  0  0  0  0
  -29.9495  -14.7986   25.8328 N   0  0  0  0  0  0  0  0  0  0  0  0
  -30.3845  -15.0836   24.5936 N   0  0  0  0  0  0  0  0  0  0  0  0
  -26.2816  -12.9006   20.3930 N   0  0  0  0  0  0  0  0  0  0  0  0
  -19.7597  -19.9119   23.4331 N   0  0  0  0  0  0  0  0  0  0  0  0
  -30.0941  -12.6317   20.4325 N   0  0  0  0  0  0  0  0  0  0  0  0
  -25.4060  -15.1011   20.4307 N   0  0  0  0  0  0  0  0  0  0  0  0
  -21.7911  -12.5268   21.2686 N   0  0  0  0  0  0  0  0  0  0  0  0
  -18.5373  -18.2809   26.3615 N   0  0  0  0  0  0  0  0  0  0  0  0
  -18.6914  -21.2378   20.5075 N   0  0  0  0  0  0  0  0  0  0  0  0
  -30.7399  -12.8569   22.6966 N   0  0  0  0  0  0  0  0  0  0  0  0
  -24.2261  -15.2228   27.3473 N   0  3  0  0  0  0  0  0  0  0  0  0
  -20.4231  -24.2179   19.4176 N   0  3  0  0  0  0  0  0  0  0  0  0
  -22.5158  -14.6842   20.9873 O   0  0  0  0  0  0  0  0  0  0  0  0
  -19.9756  -17.5802   24.6695 O   0  0  0  0  0  0  0  0  0  0  0  0
  -17.5373  -20.4822   23.0186 O   0  0  0  0  0  0  0  0  0  0  0  0
  -20.8903  -21.4711   19.8093 O   0  0  0  0  0  0  0  0  0  0  0  0
  -32.2581  -13.2247   21.0183 O   0  0  0  0  0  0  0  0  0  0  0  0
  -21.7156   -6.9670   21.6118 O   0  0  0  0  0  0  0  0  0  0  0  0
  -25.8623  -19.0917   23.8054 O   0  0  0  0  0  0  0  0  0  1  0  0
  -27.2930  -16.7397   24.3387 O   0  0  0  0  0  0  0  0  0  0  0  0
  -18.1513   -6.8663   25.8176 F   0  0  0  0  0  0  0  0  0  0  0  0
  -19.6109   -8.7555   21.7304 F   0  0  0  0  0  0  0  0  0  0  0  0
  1  2  1  0  0  0  0
  1  5  2  0  0  0  0
  2  6  2  0  0  0  0
  3  8  2  0  0  0  0
  3 16  1  0  0  0  0
  4  9  1  0  0  0  0
  4 16  2  0  0  0  0
  5 18  1  0  0  0  0
  6 20  1  0  0  0  0
  7 10  2  0  0  0  0
  7 19  1  0  0  0  0
  8 22  1  0  0  0  0
  9 22  2  0  0  0  0
 10 23  1  0  0  0  0
 11 12  2  0  0  0  0
 11 24  1  0  0  0  0
 12 26  1  0  0  0  0
 13 21  1  0  0  0  0
 13 23  2  0  0  0  0
 14 26  2  0  0  0  0
 14 27  1  0  0  0  0
 15 25  2  0  0  0  0
 15 68  1  0  0  0  0
 16 28  1  0  0  0  0
 17 28  1  0  0  0  0
 17 30  2  0  0  0  0
 17 31  1  0  0  0  0
 18 20  2  0  0  0  0
 18 36  1  0  0  0  0
 19 21  2  0  0  0  0
 19 37  1  0  0  0  0
 20 48  1  0  0  0  0
 21 38  1  0  0  0  0
 22 84  1  0  0  0  0
 23 85  1  0  0  0  0
 24 27  2  0  0  0  0
 24 84  1  0  0  0  0
 25 29  1  0  0  0  0
 25 86  1  0  0  0  0
 26 87  1  0  0  0  0
 27 88  1  0  0  0  0
 28 66  2  0  0  0  0
 29 49  1  0  0  0  0
 29 67  2  0  0  0  0
 30 69  1  0  0  0  0
 30 72  1  0  0  0  0
 31 73  1  0  0  0  0
 31 79  2  0  0  0  0
 32 50  1  0  0  0  0
 32 74  1  0  0  0  0
 32 80  2  0  0  0  0
 33 63  1  0  0  0  0
 33 70  1  0  0  0  0
 33 81  2  0  0  0  0
 34 64  1  0  0  0  0
 34 75  1  0  0  0  0
 34 82  2  0  0  0  0
 35 71  1  0  0  0  0
 35 76  1  0  0  0  0
 35 83  2  0  0  0  0
 36 39  1  0  0  0  0
 37 50  1  0  0  0  0
 38 70  1  0  0  0  0
 39 41  1  0  0  0  0
 40 43  1  0  0  0  0
 40 46  1  0  0  0  0
 41 48  1  0  0  0  0
 42 44  1  0  0  0  0
 42 49  1  0  0  0  0
 43 51  1  0  0  0  0
 44 52  1  0  0  0  0
 45 49  1  0  0  0  0
 45 52  1  0  0  0  0
 46 71  1  0  0  0  0
 47 51  1  0  0  0  0
 47 71  1  0  0  0  0
 48 74  1  0  0  0  0
 50 70  1  0  0  0  0
 51 69  1  0  0  0  0
 52 77  1  0  0  0  0
 53 64  1  0  0  0  0
 54 65  1  0  0  0  0
 55 65  1  0  0  0  0
 56 65  1  0  0  0  0
 57 77  1  0  0  0  0
 58 78  1  0  0  0  0
 59 60  1  0  0  0  0
 59 68  1  0  0  0  0
 60 76  1  0  0  0  0
 61 62  1  0  0  0  0
 61 85  1  0  0  0  0
 62 86  1  0  0  0  0
 63 65  1  0  0  0  0
 63 75  1  0  0  0  0
 64 78  1  0  0  0  0
 66 69  1  0  0  0  0
 67 68  1  0  0  0  0
M  CHG  2  77   1  78   1
M  ISO  4  35 100  61 101  76 100  85 101
M  END
> <Batch ID>
0138

> <Smiles>
CNC1CCC(c2nn(CC[100NH:0][100C:0](=O)N3CCCC(n4nc(-c5ccc(Oc6ccc(F)cc6F)cc5)c(C(N)=O)c4N)C3)cc2OC[101CH2:1][101O:1]c2ccc3c(c2)CN(C(=O)C(NC(=O)C(C)NC)C(C)(C)C)C(C(=O)NC2CCCc4ccccc42)C3)C1

> <Shape>
0.130

> <Color>
0.164

> <Negative vol penalty>
0.000

$$$$

  -OEChem-04052321083D

 86 95  0     1  0  0  0  0  0999 V2000
  -21.4127  -31.2386   14.6572 C   0  0  0  0  0  0  0  0  0  0  0  0
  -22.5493  -30.5940   15.1348 C   0  0  0  0  0  0  0  0  0  0  0  0
  -23.5460   -9.8125   20.9277 C   0  0  0  0  0  0  0  0  0  0  0  0
  -22.7331  -12.0715   20.6570 C   0  0  0  0  0  0  0  0  0  0  0  0
  -20.9806  -32.4217   15.2551 C   0  0  0  0  0  0  0  0  0  0  0  0
  -23.2551  -31.1328   16.2100 C   0  0  0  0  0  0  0  0  0  0  0  0
  -24.5427  -27.6343   19.6375 C   0  0  0  0  0  0  0  0  0  0  0  0
  -26.8781  -22.9714   20.7316 C   0  0  0  0  0  0  0  0  0  0  0  0
  -28.0761  -22.7542   18.6449 C   0  0  0  0  0  0  0  0  0  0  0  0
  -22.4571   -9.5189   21.7484 C   0  0  0  0  0  0  0  0  0  0  0  0
  -21.6441  -11.7779   21.4777 C   0  0  0  0  0  0  0  0  0  0  0  0
  -25.6346  -26.8209   19.3378 C   0  0  0  0  0  0  0  0  0  0  0  0
  -27.0671  -24.3529   20.6962 C   0  0  0  0  0  0  0  0  0  0  0  0
  -28.2651  -24.1357   18.6096 C   0  0  0  0  0  0  0  0  0  0  0  0
  -21.5426  -10.0521   24.9584 C   0  0  0  0  0  0  0  0  0  0  0  0
  -21.7914   -9.3493   26.1372 C   0  0  0  0  0  0  0  0  0  0  0  0
  -27.0327  -28.1870   20.7513 C   0  0  0  0  0  0  0  0  0  0  0  0
  -20.3321   -7.5757   25.3877 C   0  0  0  0  0  0  0  0  0  0  0  0
  -23.6841  -11.0888   20.3820 C   0  0  0  0  0  0  0  0  0  0  0  0
  -24.8824  -11.2518   18.1359 C   0  0  0  0  0  0  0  0  0  0  0  0
  -21.6759  -32.9701   16.3443 C   0  0  0  0  0  0  0  0  0  0  0  0
  -24.6903  -28.7385   20.4892 C   0  0  0  0  0  0  0  0  0  0  0  0
  -22.8326  -32.3251   16.8222 C   0  0  0  0  0  0  0  0  0  0  0  0
  -25.9406  -29.0114   21.0623 C   0  0  0  0  0  0  0  0  0  0  0  0
  -27.3826  -22.1720   19.7059 C   0  0  0  0  0  0  0  0  0  0  0  0
  -21.5061  -10.5016   22.0234 C   0  0  0  0  0  0  0  0  0  0  0  0
  -27.7606  -24.9351   19.6352 C   0  0  0  0  0  0  0  0  0  1  0  0
  -26.8804  -27.0988   19.8924 C   0  0  0  0  0  0  0  0  0  0  0  0
  -20.6885   -9.5168   23.9942 C   0  0  0  0  0  0  0  0  0  0  0  0
  -21.1862   -8.1111   26.3519 C   0  0  0  0  0  0  0  0  0  0  0  0
  -20.0833   -8.2785   24.2088 C   0  0  0  0  0  0  0  0  0  0  0  0
  -24.8091  -11.3928   19.5346 C   0  0  0  0  0  0  0  0  0  0  0  0
  -26.1504  -11.6705   17.8145 C   0  0  0  0  0  0  0  0  0  0  0  0
  -23.8927  -10.7842   17.2098 C   0  0  0  0  0  0  0  0  0  0  0  0
  -24.3264  -31.8803   20.1724 C   0  0  0  0  0  0  0  0  0  0  0  0
  -24.8841  -31.8744   23.3679 C   0  0  0  0  0  0  0  0  0  0  0  0
  -26.2520  -30.2966   26.0672 C   0  0  0  0  0  0  0  0  0  0  0  0
  -30.0260  -15.3651   20.4942 C   0  0  0  0  0  0  0  0  0  0  0  0
  -21.1976  -34.2761   16.9276 C   0  0  0  0  0  0  0  0  0  0  0  0
  -23.4967  -29.5905   20.8238 C   0  0  0  0  0  0  0  0  0  0  0  0
  -26.1472  -30.1728   21.9987 C   0  0  0  0  0  0  0  0  0  0  0  0
  -21.7872  -34.5815   18.3021 C   0  0  0  0  0  0  0  0  0  0  0  0
  -30.5704  -11.9560   19.6236 C   0  0  0  0  0  0  0  0  0  0  0  0
  -23.2925  -34.3345   18.3042 C   0  0  0  0  0  0  0  0  0  0  0  0
  -29.1622  -11.4123   19.3758 C   0  0  0  0  0  0  0  0  0  0  0  0
  -30.5915  -12.9687   20.7663 C   0  0  0  0  0  0  0  0  0  0  0  0
  -28.2252  -13.5375   20.3779 C   0  0  0  0  0  0  0  0  0  0  0  0
  -29.1394  -19.9000   21.1271 C   0  0  0  0  0  0  0  0  0  0  0  0
  -23.6108  -32.8651   18.0024 C   0  0  1  0  0  0  0  0  0  0  0  0
  -23.8757  -30.9907   21.2962 C   0  0  1  0  0  0  0  0  0  0  0  0
  -29.1569  -18.4300   21.5307 C   0  0  1  0  0  0  0  0  0  0  0  0
  -28.1436  -12.5543   19.1977 C   0  0  2  0  0  0  0  0  0  0  0  0
  -29.3061  -17.7204   20.1883 C   0  0  2  0  0  0  0  0  0  0  0  0
  -28.3092  -18.4703   19.3072 C   0  0  2  0  0  0  0  0  0  0  0  0
  -30.2645  -18.1133   22.5233 C   0  0  0  0  0  0  0  0  0  0  0  0
  -28.4149  -16.9648   17.3145 C   0  0  0  0  0  0  0  0  0  0  0  0
  -26.5802  -30.5539   28.5418 C   0  0  0  0  0  0  0  0  0  0  0  0
  -27.0907  -33.9196   22.8600 C   0  0  0  0  0  0  0  0  0  0  0  0
  -27.9809  -33.4235   25.1469 C   0  0  0  0  0  0  0  0  0  0  0  0
  -25.6906  -34.3758   24.8814 C   0  0  0  0  0  0  0  0  0  0  0  0
  -24.7181  -27.8322   26.6442 C   0  0  0  0  0  0  0  0  0  0  0  0
  -27.1805  -20.6951   19.7432 C   0  0  0  0  0  0  0  0  0  0  0  0
  -28.5965  -18.3618   17.8195 C   0  0  0  0  0  0  0  0  0  0  0  0
  -26.1137  -31.9675   24.2387 C   0  0  1  0  0  0  0  0  0  0  0  0
  -25.6922  -29.9885   27.4442 C   0  0  2  0  0  0  0  0  0  0  0  0
  -26.7158  -33.4008   24.2626 C   0  0  0  0  0  0  0  0  0  0  0  0
  -25.9405  -11.8641   20.0653 N   0  0  0  0  0  0  0  0  0  0  0  0
  -26.7368  -12.0228   18.9944 N   0  0  0  0  0  0  0  0  0  0  0  0
  -24.9510  -30.9802   22.2900 N   0  0  0  0  0  0  0  0  0  0  0  0
  -29.6041  -14.0260   20.5355 N   0  0  0  0  0  0  0  0  0  0  0  0
  -26.8098  -11.7679   16.6406 N   0  0  0  0  0  0  0  0  0  0  0  0
  -22.6426  -10.3933   17.7087 N   0  0  0  0  0  0  0  0  0  0  0  0
  -23.3847  -32.0478   19.1751 N   0  0  0  0  0  0  0  0  0  0  0  0
  -25.7244  -31.4610   25.5503 N   0  0  0  0  0  0  0  0  0  0  0  0
  -29.0274  -16.3036   20.2644 N   0  0  0  0  0  0  0  0  0  0  0  0
  -28.4627  -19.9195   19.7640 N   0  3  1  0  0  0  0  0  0  0  0  0
  -25.5822  -28.5154   27.6410 N   0  3  0  0  0  0  0  0  0  0  0  0
  -24.1160  -10.6995   15.9783 O   0  0  0  0  0  0  0  0  0  0  0  0
  -25.4452  -32.3791   20.2081 O   0  0  0  0  0  0  0  0  0  0  0  0
  -23.8979  -32.5642   23.6383 O   0  0  0  0  0  0  0  0  0  0  0  0
  -27.0776  -29.5784   25.5078 O   0  0  0  0  0  0  0  0  0  0  0  0
  -31.2060  -15.6992   20.6453 O   0  0  0  0  0  0  0  0  0  0  0  0
  -27.9480  -26.3068   19.6009 O   0  0  0  0  0  0  0  0  0  1  0  0
  -20.4432  -10.2154   22.8240 O   0  0  0  0  0  0  0  0  0  0  0  0
  -21.4264   -7.4355   27.4833 F   0  0  0  0  0  0  0  0  0  0  0  0
  -19.2628   -7.7586   23.2857 F   0  0  0  0  0  0  0  0  0  0  0  0
  1  2  1  0  0  0  0
  1  5  2  0  0  0  0
  2  6  2  0  0  0  0
  3 10  2  0  0  0  0
  3 19  1  0  0  0  0
  4 11  1  0  0  0  0
  4 19  2  0  0  0  0
  5 21  1  0  0  0  0
  6 23  1  0  0  0  0
  7 12  2  0  0  0  0
  7 22  1  0  0  0  0
  8 13  2  0  0  0  0
  8 25  1  0  0  0  0
  9 14  1  0  0  0  0
  9 25  2  0  0  0  0
 10 26  1  0  0  0  0
 11 26  2  0  0  0  0
 12 28  1  0  0  0  0
 13 27  1  0  0  0  0
 14 27  2  0  0  0  0
 15 16  2  0  0  0  0
 15 29  1  0  0  0  0
 16 30  1  0  0  0  0
 17 24  1  0  0  0  0
 17 28  2  0  0  0  0
 18 30  2  0  0  0  0
 18 31  1  0  0  0  0
 19 32  1  0  0  0  0
 20 32  1  0  0  0  0
 20 33  2  0  0  0  0
 20 34  1  0  0  0  0
 21 23  2  0  0  0  0
 21 39  1  0  0  0  0
 22 24  2  0  0  0  0
 22 40  1  0  0  0  0
 23 49  1  0  0  0  0
 24 41  1  0  0  0  0
 25 62  1  0  0  0  0
 26 84  1  0  0  0  0
 27 83  1  0  0  0  0
 28 83  1  0  0  0  0
 29 31  2  0  0  0  0
 29 84  1  0  0  0  0
 30 85  1  0  0  0  0
 31 86  1  0  0  0  0
 32 67  2  0  0  0  0
 33 68  1  0  0  0  0
 33 71  1  0  0  0  0
 34 72  1  0  0  0  0
 34 78  2  0  0  0  0
 35 50  1  0  0  0  0
 35 73  1  0  0  0  0
 35 79  2  0  0  0  0
 36 64  1  0  0  0  0
 36 69  1  0  0  0  0
 36 80  2  0  0  0  0
 37 65  1  0  0  0  0
 37 74  1  0  0  0  0
 37 81  2  0  0  0  0
 38 70  1  0  0  0  0
 38 75  1  0  0  0  0
 38 82  2  0  0  0  0
 39 42  1  0  0  0  0
 40 50  1  0  0  0  0
 41 69  1  0  0  0  0
 42 44  1  0  0  0  0
 43 45  1  0  0  0  0
 43 46  1  0  0  0  0
 44 49  1  0  0  0  0
 45 52  1  0  0  0  0
 46 70  1  0  0  0  0
 47 52  1  0  0  0  0
 47 70  1  0  0  0  0
 48 51  1  0  0  0  0
 48 76  1  0  0  0  0
 49 73  1  0  0  0  0
 50 69  1  0  0  0  0
 51 53  1  0  0  0  0
 51 55  1  0  0  0  0
 52 68  1  0  0  0  0
 53 54  1  0  0  0  0
 53 75  1  0  0  0  0
 54 63  1  0  0  0  0
 54 76  1  0  0  0  0
 56 63  1  0  0  0  0
 57 65  1  0  0  0  0
 58 66  1  0  0  0  0
 59 66  1  0  0  0  0
 60 66  1  0  0  0  0
 61 77  1  0  0  0  0
 62 76  1  0  0  0  0
 64 66  1  0  0  0  0
 64 74  1  0  0  0  0
 65 77  1  0  0  0  0
 67 68  1  0  0  0  0
M  CHG  2  76   1  77   1
M  ISO  4  27 101  38 100  75 100  83 101
M  END
> <Batch ID>
0138

> <Smiles>
CCC1C([100NH:0][100C:0](=O)N2CCCC(n3nc(-c4ccc(Oc5ccc(F)cc5F)cc4)c(C(N)=O)c3N)C2)C(C)CN1Cc1cc[101c:1]([101O:1]c2ccc3c(c2)CN(C(=O)C(NC(=O)C(C)NC)C(C)(C)C)C(C(=O)NC2CCCc4ccccc42)C3)cc1

> <Shape>
0.286

> <Color>
0.089

> <Negative vol penalty>
0.000

$$$$

  -OEChem-04052321083D

 84 92  0     1  0  0  0  0  0999 V2000
  -28.9626  -11.7512   20.4773 C   0  0  0  0  0  0  0  0  0  0  0  0
  -29.1285  -13.0555   20.0226 C   0  0  0  0  0  0  0  0  0  0  0  0
  -16.6984  -27.0997   19.9029 C   0  0  0  0  0  0  0  0  0  0  0  0
  -18.1559  -25.1733   19.8636 C   0  0  0  0  0  0  0  0  0  0  0  0
  -27.6821  -11.2569   20.7216 C   0  0  0  0  0  0  0  0  0  0  0  0
  -28.0137  -13.8659   19.8110 C   0  0  0  0  0  0  0  0  0  0  0  0
  -28.6296  -18.5390   21.6623 C   0  0  0  0  0  0  0  0  0  0  0  0
  -15.6149  -26.2867   19.5702 C   0  0  0  0  0  0  0  0  0  0  0  0
  -17.0724  -24.3603   19.5309 C   0  0  0  0  0  0  0  0  0  0  0  0
  -29.4055  -19.4232   20.9140 C   0  0  0  0  0  0  0  0  0  0  0  0
  -15.2725  -23.6157   16.7674 C   0  0  0  0  0  0  0  0  0  0  0  0
  -15.4532  -22.6795   15.7494 C   0  0  0  0  0  0  0  0  0  0  0  0
  -27.3980  -20.4341   20.0381 C   0  0  0  0  0  0  0  0  0  0  0  0
  -30.0531  -27.6315   19.2274 C   0  0  0  0  0  0  0  0  0  0  0  0
  -14.9383  -20.8971   17.2971 C   0  0  0  0  0  0  0  0  0  0  0  0
  -27.7584  -27.1072   20.6076 C   0  0  0  0  0  0  0  0  0  0  0  0
  -17.9689  -26.5430   20.0496 C   0  0  0  0  0  0  0  0  0  0  0  0
  -19.5468  -27.7024   21.6848 C   0  0  0  0  0  0  0  0  0  0  0  0
  -26.5516  -12.0648   20.5220 C   0  0  0  0  0  0  0  0  0  0  0  0
  -27.2298  -18.5887   21.5956 C   0  0  0  0  0  0  0  0  0  0  0  0
  -26.7167  -13.3815   20.0515 C   0  0  0  0  0  0  0  0  0  0  0  0
  -26.6066  -19.5511   20.7885 C   0  0  0  0  0  0  0  0  0  0  0  0
  -28.0057  -28.4136   20.2178 C   0  0  0  0  0  0  0  0  0  0  0  0
  -15.8019  -24.9170   19.3842 C   0  0  0  0  0  0  0  0  0  0  0  0
  -28.7897  -20.3690   20.0995 C   0  0  0  0  0  0  0  0  0  0  0  0
  -14.9247  -23.1926   18.0503 C   0  0  0  0  0  0  0  0  0  0  0  0
  -29.1772  -28.6724   19.5149 C   0  0  0  0  0  0  0  0  0  0  0  0
  -15.2862  -21.3202   16.0142 C   0  0  0  0  0  0  0  0  0  0  0  0
  -14.7576  -21.8334   18.3151 C   0  0  0  0  0  0  0  0  0  0  0  0
  -19.0887  -27.3824   20.3927 C   0  0  0  0  0  0  0  0  0  0  0  0
  -29.7142  -26.3602   19.6617 C   0  0  0  0  0  0  0  0  0  0  0  0
  -20.6273  -28.5232   21.4725 C   0  0  0  0  0  0  0  0  0  0  0  0
  -19.0408  -27.2940   22.9627 C   0  0  0  0  0  0  0  0  0  0  0  0
  -24.9552  -16.5699   20.6712 C   0  0  0  0  0  0  0  0  0  0  0  0
  -22.9841  -18.8784   21.8149 C   0  0  0  0  0  0  0  0  0  0  0  0
  -22.5215  -22.1688   22.5934 C   0  0  0  0  0  0  0  0  0  0  0  0
  -25.3431  -29.7559   18.7545 C   0  0  0  0  0  0  0  0  0  0  0  0
  -25.1848  -11.4711   20.7546 C   0  0  0  0  0  0  0  0  0  0  0  0
  -26.4068  -17.6454   22.4296 C   0  0  0  0  0  0  0  0  0  0  0  0
  -25.1071  -19.6590   20.6973 C   0  0  0  0  0  0  0  0  0  0  0  0
  -24.0772  -12.5160   20.8631 C   0  0  0  0  0  0  0  0  0  0  0  0
  -22.2784  -30.7666   17.2502 C   0  0  0  0  0  0  0  0  0  0  0  0
  -24.2019  -13.5444   19.7434 C   0  0  0  0  0  0  0  0  0  0  0  0
  -21.2144  -29.9981   18.0359 C   0  0  0  0  0  0  0  0  0  0  0  0
  -23.5467  -29.9379   17.0585 C   0  0  0  0  0  0  0  0  0  0  0  0
  -23.0609  -28.6256   19.0872 C   0  0  0  0  0  0  0  0  0  0  0  0
  -25.5335  -14.2995   19.8336 C   0  0  1  0  0  0  0  0  0  0  0  0
  -24.9937  -17.4482   21.8897 C   0  0  1  0  0  0  0  0  0  0  0  0
  -21.7841  -29.4410   19.3543 C   0  0  2  0  0  0  0  0  0  0  0  0
  -20.7928  -23.7606   23.4738 C   0  0  0  0  0  0  0  0  0  0  0  0
  -21.5747  -18.8405   19.1089 C   0  0  0  0  0  0  0  0  0  0  0  0
  -20.5305  -21.0378   19.7003 C   0  0  0  0  0  0  0  0  0  0  0  0
  -20.0450  -19.0167   21.0795 C   0  0  0  0  0  0  0  0  0  0  0  0
  -24.1892  -22.8662   24.9368 C   0  0  0  0  0  0  0  0  0  0  0  0
  -30.7019  -30.1080   18.3881 C   0  0  0  0  0  0  0  0  0  0  0  0
  -27.0367  -29.4944   20.5495 C   0  0  0  0  0  0  0  0  0  0  0  0
  -31.1928  -22.9940   19.4312 C   0  0  0  0  0  0  0  0  0  0  0  0
  -30.8162  -21.5982   19.9027 C   0  0  0  0  0  0  0  0  0  1  0  0
  -30.1686  -24.0340   19.8574 C   0  0  0  0  0  0  0  0  0  0  0  0
  -22.3223  -20.1040   21.2328 C   0  0  1  0  0  0  0  0  0  0  0  0
  -21.9507  -22.8409   23.8291 C   0  0  2  0  0  0  0  0  0  0  0  0
  -21.1464  -19.7467   20.2804 C   0  0  0  0  0  0  0  0  0  0  0  0
  -28.5854  -26.0701   20.3467 N   0  0  0  0  0  0  0  0  0  0  0  0
  -19.8184  -27.9536   19.4307 N   0  0  0  0  0  0  0  0  0  0  0  0
  -20.7459  -28.6408   20.1189 N   0  0  0  0  0  0  0  0  0  0  0  0
  -24.3459  -18.7104   21.5269 N   0  0  0  0  0  0  0  0  0  0  0  0
  -24.0364  -29.4408   18.3465 N   0  0  0  0  0  0  0  0  0  0  0  0
  -21.4780  -29.1488   22.3135 N   0  0  0  0  0  0  0  0  0  0  0  0
  -17.9235  -26.4487   22.9998 N   0  0  0  0  0  0  0  0  0  0  0  0
  -25.4747  -15.3054   20.8724 N   0  0  0  0  0  0  0  0  0  0  0  0
  -21.9405  -20.9391   22.3664 N   0  0  0  0  0  0  0  0  0  0  0  0
  -25.7255  -29.2505   19.9910 N   0  0  0  0  0  0  0  0  0  0  0  0
  -23.0007  -23.6492   24.5109 N   0  3  0  0  0  0  0  0  0  0  0  0
  -19.5541  -27.6808   24.0399 O   0  0  0  0  0  0  0  0  0  0  0  0
  -24.4873  -17.0067   19.6262 O   0  0  0  0  0  0  0  0  0  0  0  0
  -22.3189  -18.1026   22.5058 O   0  0  0  0  0  0  0  0  0  0  0  0
  -23.3929  -22.6848   21.8970 O   0  0  0  0  0  0  0  0  0  0  0  0
  -26.1101  -30.4415   18.0700 O   0  0  0  0  0  0  0  0  0  0  0  0
  -14.7448  -24.1234   19.0598 O   0  0  0  0  0  0  0  0  0  0  0  0
  -29.4797  -29.9346   19.1028 O   0  0  0  0  0  0  0  0  0  0  0  0
  -29.5447  -21.2328   19.3676 O   0  0  0  0  0  0  0  0  0  1  0  0
  -30.5616  -25.3176   19.3906 O   0  0  0  0  0  0  0  0  0  0  0  0
  -15.4583  -20.4214   15.0361 F   0  0  0  0  0  0  0  0  0  0  0  0
  -14.4224  -21.4210   19.5453 F   0  0  0  0  0  0  0  0  0  0  0  0
  1  2  1  0  0  0  0
  1  5  2  0  0  0  0
  2  6  2  0  0  0  0
  3  8  2  0  0  0  0
  3 17  1  0  0  0  0
  4  9  1  0  0  0  0
  4 17  2  0  0  0  0
  5 19  1  0  0  0  0
  6 21  1  0  0  0  0
  7 10  2  0  0  0  0
  7 20  1  0  0  0  0
  8 24  1  0  0  0  0
  9 24  2  0  0  0  0
 10 25  1  0  0  0  0
 11 12  2  0  0  0  0
 11 26  1  0  0  0  0
 12 28  1  0  0  0  0
 13 22  1  0  0  0  0
 13 25  2  0  0  0  0
 14 27  2  0  0  0  0
 14 31  1  0  0  0  0
 15 28  2  0  0  0  0
 15 29  1  0  0  0  0
 16 23  2  0  0  0  0
 16 63  1  0  0  0  0
 17 30  1  0  0  0  0
 18 30  1  0  0  0  0
 18 32  2  0  0  0  0
 18 33  1  0  0  0  0
 19 21  2  0  0  0  0
 19 38  1  0  0  0  0
 20 22  2  0  0  0  0
 20 39  1  0  0  0  0
 21 47  1  0  0  0  0
 22 40  1  0  0  0  0
 23 27  1  0  0  0  0
 23 56  1  0  0  0  0
 24 79  1  0  0  0  0
 25 81  1  0  0  0  0
 26 29  2  0  0  0  0
 26 79  1  0  0  0  0
 27 80  1  0  0  0  0
 28 83  1  0  0  0  0
 29 84  1  0  0  0  0
 30 64  2  0  0  0  0
 31 63  2  0  0  0  0
 31 82  1  0  0  0  0
 32 65  1  0  0  0  0
 32 68  1  0  0  0  0
 33 69  1  0  0  0  0
 33 74  2  0  0  0  0
 34 48  1  0  0  0  0
 34 70  1  0  0  0  0
 34 75  2  0  0  0  0
 35 60  1  0  0  0  0
 35 66  1  0  0  0  0
 35 76  2  0  0  0  0
 36 61  1  0  0  0  0
 36 71  1  0  0  0  0
 36 77  2  0  0  0  0
 37 67  1  0  0  0  0
 37 72  1  0  0  0  0
 37 78  2  0  0  0  0
 38 41  1  0  0  0  0
 39 48  1  0  0  0  0
 40 66  1  0  0  0  0
 41 43  1  0  0  0  0
 42 44  1  0  0  0  0
 42 45  1  0  0  0  0
 43 47  1  0  0  0  0
 44 49  1  0  0  0  0
 45 67  1  0  0  0  0
 46 49  1  0  0  0  0
 46 67  1  0  0  0  0
 47 70  1  0  0  0  0
 48 66  1  0  0  0  0
 49 65  1  0  0  0  0
 50 61  1  0  0  0  0
 51 62  1  0  0  0  0
 52 62  1  0  0  0  0
 53 62  1  0  0  0  0
 54 73  1  0  0  0  0
 55 80  1  0  0  0  0
 56 72  1  0  0  0  0
 57 58  1  0  0  0  0
 57 59  1  0  0  0  0
 58 81  1  0  0  0  0
 59 82  1  0  0  0  0
 60 62  1  0  0  0  0
 60 71  1  0  0  0  0
 61 73  1  0  0  0  0
 64 65  1  0  0  0  0
M  CHG  1  73   1
M  ISO  4  37 100  58 101  72 100  81 101
M  END
> <Batch ID>
0138

> <Smiles>
CNC(C)C(=O)NC(C(=O)N1Cc2cc([101O:1][101CH2:1]CCOc3cc(OC)c(C[100NH:0][100C:0](=O)N4CCCC(n5nc(-c6ccc(Oc7ccc(F)cc7F)cc6)c(C(N)=O)c5N)C4)cn3)ccc2CC1C(=O)NC1CCCc2ccccc21)C(C)(C)C

> <Shape>
0.195

> <Color>
0.088

> <Negative vol penalty>
0.000

$$$$

  -OEChem-04052321083D

 82 90  0     1  0  0  0  0  0999 V2000
  -40.7742  -30.7040   18.9589 C   0  0  0  0  0  0  0  0  0  0  0  0
  -40.6934  -29.4003   19.4377 C   0  0  0  0  0  0  0  0  0  0  0  0
  -23.0791   -9.8613   19.9530 C   0  0  0  0  0  0  0  0  0  0  0  0
  -23.8315   -9.8894   22.2487 C   0  0  0  0  0  0  0  0  0  0  0  0
  -39.7439  -31.6064   19.2196 C   0  0  0  0  0  0  0  0  0  0  0  0
  -39.5825  -28.9985   20.1785 C   0  0  0  0  0  0  0  0  0  0  0  0
  -36.9544  -23.4669   20.1670 C   0  0  0  0  0  0  0  0  0  0  0  0
  -31.8715  -18.3844   24.1553 C   0  0  0  0  0  0  0  0  0  0  0  0
  -30.4847  -18.3788   24.0067 C   0  0  0  0  0  0  0  0  0  0  0  0
  -22.3353   -8.7099   20.2108 C   0  0  0  0  0  0  0  0  0  0  0  0
  -23.0876   -8.7379   22.5066 C   0  0  0  0  0  0  0  0  0  0  0  0
  -37.0612  -22.3759   21.0285 C   0  0  0  0  0  0  0  0  0  0  0  0
  -19.3829   -7.9240   21.6595 C   0  0  0  0  0  0  0  0  0  0  0  0
  -18.0776   -7.8724   21.1704 C   0  0  0  0  0  0  0  0  0  0  0  0
  -35.0834  -23.1126   22.1968 C   0  0  0  0  0  0  0  0  0  0  0  0
  -32.0543  -16.6181   22.5170 C   0  0  0  0  0  0  0  0  0  0  0  0
  -18.6431   -5.9180   19.8674 C   0  0  0  0  0  0  0  0  0  0  0  0
  -23.8272  -10.4511   20.9720 C   0  0  0  0  0  0  0  0  0  0  0  0
  -24.1676  -12.9753   20.8305 C   0  0  0  0  0  0  0  0  0  0  0  0
  -38.6153  -31.2127   19.9558 C   0  0  0  0  0  0  0  0  0  0  0  0
  -35.9158  -24.3965   20.3211 C   0  0  0  0  0  0  0  0  0  0  0  0
  -38.5367  -29.8969   20.4506 C   0  0  0  0  0  0  0  0  0  0  0  0
  -34.9642  -24.2131   21.3344 C   0  0  0  0  0  0  0  0  0  0  0  0
  -32.6564  -17.5041   23.4104 C   0  0  0  0  0  0  0  0  0  0  0  0
  -29.8825  -17.4928   23.1133 C   0  0  0  0  0  0  0  0  0  0  0  0
  -30.6673  -16.6124   22.3685 C   0  0  0  0  0  0  0  0  0  0  0  0
  -22.3395   -8.1482   21.4876 C   0  0  0  0  0  0  0  0  0  0  0  0
  -36.1273  -22.2002   22.0454 C   0  0  0  0  0  0  0  0  0  0  0  0
  -20.3183   -6.9726   21.2525 C   0  0  0  0  0  0  0  0  0  0  0  0
  -17.7077   -6.8694   20.2744 C   0  0  0  0  0  0  0  0  0  0  0  0
  -19.9484   -5.9697   20.3565 C   0  0  0  0  0  0  0  0  0  0  0  0
  -24.5963  -11.6402   20.7061 C   0  0  0  0  0  0  0  0  0  0  0  0
  -25.2603  -13.7224   20.4641 C   0  0  0  0  0  0  0  0  0  0  0  0
  -22.8953  -13.4938   21.2407 C   0  0  0  0  0  0  0  0  0  0  0  0
  -35.7656  -27.5065   20.9606 C   0  0  0  0  0  0  0  0  0  0  0  0
  -32.5999  -27.0715   20.4027 C   0  0  0  0  0  0  0  0  0  0  0  0
  -29.9415  -24.9334   20.3087 C   0  0  0  0  0  0  0  0  0  0  0  0
  -30.7252  -14.7737   20.6474 C   0  0  0  0  0  0  0  0  0  0  0  0
  -37.5487  -32.2369   20.2527 C   0  0  0  0  0  0  0  0  0  0  0  0
  -35.7992  -25.5533   19.3669 C   0  0  0  0  0  0  0  0  0  0  0  0
  -33.8187  -25.1714   21.5294 C   0  0  0  0  0  0  0  0  0  0  0  0
  -36.2324  -31.6258   20.7261 C   0  0  0  0  0  0  0  0  0  0  0  0
  -29.6203  -12.3380   18.2971 C   0  0  0  0  0  0  0  0  0  0  0  0
  -36.4889  -30.5667   21.7935 C   0  0  0  0  0  0  0  0  0  0  0  0
  -28.1795  -12.0491   18.7246 C   0  0  0  0  0  0  0  0  0  0  0  0
  -30.5313  -12.5782   19.4997 C   0  0  0  0  0  0  0  0  0  0  0  0
  -28.6193  -13.3135   20.8682 C   0  0  0  0  0  0  0  0  0  0  0  0
  -37.3363  -29.4163   21.2369 C   0  0  1  0  0  0  0  0  0  0  0  0
  -34.9975  -26.7194   19.9368 C   0  0  1  0  0  0  0  0  0  0  0  0
  -27.6505  -13.1290   19.6887 C   0  0  2  0  0  0  0  0  0  0  0  0
  -28.3947  -17.5083   22.9753 C   0  0  0  0  0  0  0  0  0  0  0  0
  -27.4741  -24.8769   19.8550 C   0  0  0  0  0  0  0  0  0  0  0  0
  -32.0727  -28.3460   23.1243 C   0  0  0  0  0  0  0  0  0  0  0  0
  -29.7507  -27.4142   23.0332 C   0  0  0  0  0  0  0  0  0  0  0  0
  -30.5004  -29.0607   21.3156 C   0  0  0  0  0  0  0  0  0  0  0  0
  -30.2814  -23.0441   18.0561 C   0  0  0  0  0  0  0  0  0  0  0  0
  -34.1481  -17.5109   23.5708 C   0  0  0  0  0  0  0  0  0  0  0  0
  -36.2707  -18.7419   23.1037 C   0  0  0  0  0  0  0  0  0  0  0  0
  -36.8174  -19.9467   22.3636 C   0  0  0  0  0  0  0  0  0  1  0  0
  -31.4061  -26.7011   21.2492 C   0  0  1  0  0  0  0  0  0  0  0  0
  -28.8647  -24.7105   19.2622 C   0  0  2  0  0  0  0  0  0  0  0  0
  -30.9551  -27.8633   22.1784 C   0  0  0  0  0  0  0  0  0  0  0  0
  -25.8626  -11.5416   20.2928 N   0  0  0  0  0  0  0  0  0  0  0  0
  -26.2389  -12.8243   20.1543 N   0  0  0  0  0  0  0  0  0  0  0  0
  -33.7514  -26.2903   20.5749 N   0  0  0  0  0  0  0  0  0  0  0  0
  -29.9687  -13.6164   20.3660 N   0  0  0  0  0  0  0  0  0  0  0  0
  -25.4700  -15.0533   20.3799 N   0  0  0  0  0  0  0  0  0  0  0  0
  -21.8830  -12.5869   21.5827 N   0  0  0  0  0  0  0  0  0  0  0  0
  -30.0744  -15.7055   21.4554 N   0  0  0  0  0  0  0  0  0  0  0  0
  -36.5220  -28.5336   20.4293 N   0  0  0  0  0  0  0  0  0  0  0  0
  -30.3760  -26.2419   20.3238 N   0  0  0  0  0  0  0  0  0  0  0  0
  -28.9717  -23.3373   18.6931 N   0  3  0  0  0  0  0  0  0  0  0  0
  -34.7999  -18.6749   22.9119 N   0  3  0  0  0  0  0  0  0  0  0  0
  -22.6580  -14.7247   21.2862 O   0  0  0  0  0  0  0  0  0  0  0  0
  -35.6773  -27.2052   22.1452 O   0  0  0  0  0  0  0  0  0  0  0  0
  -32.5116  -28.0144   19.6123 O   0  0  0  0  0  0  0  0  0  0  0  0
  -30.3533  -24.0372   21.0421 O   0  0  0  0  0  0  0  0  0  0  0  0
  -31.8556  -14.9391   20.1820 O   0  0  0  0  0  0  0  0  0  0  0  0
  -21.6136   -7.0247   21.7396 O   0  0  0  0  0  0  0  0  0  0  0  0
  -36.2295  -21.1365   22.8880 O   0  0  0  0  0  0  0  0  0  1  0  0
  -16.4538   -6.8191   19.8060 F   0  0  0  0  0  0  0  0  0  0  0  0
  -20.8423   -5.0522   19.9628 F   0  0  0  0  0  0  0  0  0  0  0  0
  1  2  1  0  0  0  0
  1  5  2  0  0  0  0
  2  6  2  0  0  0  0
  3 10  2  0  0  0  0
  3 18  1  0  0  0  0
  4 11  1  0  0  0  0
  4 18  2  0  0  0  0
  5 20  1  0  0  0  0
  6 22  1  0  0  0  0
  7 12  2  0  0  0  0
  7 21  1  0  0  0  0
  8  9  2  0  0  0  0
  8 24  1  0  0  0  0
  9 25  1  0  0  0  0
 10 27  1  0  0  0  0
 11 27  2  0  0  0  0
 12 28  1  0  0  0  0
 13 14  2  0  0  0  0
 13 29  1  0  0  0  0
 14 30  1  0  0  0  0
 15 23  1  0  0  0  0
 15 28  2  0  0  0  0
 16 24  2  0  0  0  0
 16 26  1  0  0  0  0
 17 30  2  0  0  0  0
 17 31  1  0  0  0  0
 18 32  1  0  0  0  0
 19 32  1  0  0  0  0
 19 33  2  0  0  0  0
 19 34  1  0  0  0  0
 20 22  2  0  0  0  0
 20 39  1  0  0  0  0
 21 23  2  0  0  0  0
 21 40  1  0  0  0  0
 22 48  1  0  0  0  0
 23 41  1  0  0  0  0
 24 57  1  0  0  0  0
 25 26  2  0  0  0  0
 25 51  1  0  0  0  0
 26 69  1  0  0  0  0
 27 79  1  0  0  0  0
 28 80  1  0  0  0  0
 29 31  2  0  0  0  0
 29 79  1  0  0  0  0
 30 81  1  0  0  0  0
 31 82  1  0  0  0  0
 32 63  2  0  0  0  0
 33 64  1  0  0  0  0
 33 67  1  0  0  0  0
 34 68  1  0  0  0  0
 34 74  2  0  0  0  0
 35 49  1  0  0  0  0
 35 70  1  0  0  0  0
 35 75  2  0  0  0  0
 36 60  1  0  0  0  0
 36 65  1  0  0  0  0
 36 76  2  0  0  0  0
 37 61  1  0  0  0  0
 37 71  1  0  0  0  0
 37 77  2  0  0  0  0
 38 66  1  0  0  0  0
 38 69  1  0  0  0  0
 38 78  2  0  0  0  0
 39 42  1  0  0  0  0
 40 49  1  0  0  0  0
 41 65  1  0  0  0  0
 42 44  1  0  0  0  0
 43 45  1  0  0  0  0
 43 46  1  0  0  0  0
 44 48  1  0  0  0  0
 45 50  1  0  0  0  0
 46 66  1  0  0  0  0
 47 50  1  0  0  0  0
 47 66  1  0  0  0  0
 48 70  1  0  0  0  0
 49 65  1  0  0  0  0
 50 64  1  0  0  0  0
 52 61  1  0  0  0  0
 53 62  1  0  0  0  0
 54 62  1  0  0  0  0
 55 62  1  0  0  0  0
 56 72  1  0  0  0  0
 57 73  1  0  0  0  0
 58 59  1  0  0  0  0
 58 73  1  0  0  0  0
 59 80  1  0  0  0  0
 60 62  1  0  0  0  0
 60 71  1  0  0  0  0
 61 72  1  0  0  0  0
 63 64  1  0  0  0  0
M  CHG  2  72   1  73   1
M  ISO  4  38 100  59 101  69 100  80 101
M  END
> <Batch ID>
0138

> <Smiles>
CNC(C)C(=O)NC(C(=O)N1Cc2cc([101O:1][101CH2:1]CNCc3ccc(C)c([100NH:0][100C:0](=O)N4CCCC(n5nc(-c6ccc(Oc7ccc(F)cc7F)cc6)c(C(N)=O)c5N)C4)c3)ccc2CC1C(=O)NC1CCCc2ccccc21)C(C)(C)C

> <Shape>
0.197

> <Color>
0.192

> <Negative vol penalty>
0.000

$$$$

  -OEChem-04052321083D

 82 90  0     1  0  0  0  0  0999 V2000
  -16.6484  -29.8831   23.4265 C   0  0  0  0  0  0  0  0  0  0  0  0
  -17.6348  -30.2183   22.5046 C   0  0  0  0  0  0  0  0  0  0  0  0
  -26.4171  -12.9665   21.4931 C   0  0  0  0  0  0  0  0  0  0  0  0
  -26.2319  -13.6329   19.1782 C   0  0  0  0  0  0  0  0  0  0  0  0
  -16.9775  -29.1376   24.5578 C   0  0  0  0  0  0  0  0  0  0  0  0
  -18.9513  -29.8091   22.7140 C   0  0  0  0  0  0  0  0  0  0  0  0
  -24.8090  -27.7902   19.1185 C   0  0  0  0  0  0  0  0  0  0  0  0
  -25.1542  -12.3783   21.4249 C   0  0  0  0  0  0  0  0  0  0  0  0
  -24.9689  -13.0447   19.1100 C   0  0  0  0  0  0  0  0  0  0  0  0
  -26.1670  -28.0892   19.0170 C   0  0  0  0  0  0  0  0  0  0  0  0
  -23.8006   -9.5148   20.2412 C   0  0  0  0  0  0  0  0  0  0  0  0
  -23.6458   -8.2454   20.7980 C   0  0  0  0  0  0  0  0  0  0  0  0
  -26.6041  -26.7378   20.9668 C   0  0  0  0  0  0  0  0  0  0  0  0
  -28.7777  -25.8520   18.3786 C   0  0  0  0  0  0  0  0  0  0  0  0
  -21.9768   -9.1137   22.3138 C   0  0  0  0  0  0  0  0  0  0  0  0
  -26.9560  -13.5939   20.3698 C   0  0  0  0  0  0  0  0  0  0  0  0
  -29.4987  -13.5919   20.1648 C   0  0  0  0  0  0  0  0  0  0  0  0
  -18.2969  -28.7108   24.7763 C   0  0  0  0  0  0  0  0  0  0  0  0
  -24.3362  -26.9701   20.1531 C   0  0  0  0  0  0  0  0  0  0  0  0
  -19.2987  -29.0583   23.8500 C   0  0  0  0  0  0  0  0  0  0  0  0
  -25.2401  -26.4277   21.0777 C   0  0  0  0  0  0  0  0  0  0  0  0
  -24.4301  -12.4174   20.2334 C   0  0  0  0  0  0  0  0  0  0  0  0
  -27.0644  -27.5654   19.9429 C   0  0  0  0  0  0  0  0  0  0  0  0
  -23.0436  -10.5838   20.7207 C   0  0  0  0  0  0  0  0  0  0  0  0
  -29.1813  -27.0111   19.0863 C   0  0  0  0  0  0  0  0  0  1  0  0
  -22.7339   -8.0448   21.8343 C   0  0  0  0  0  0  0  0  0  0  0  0
  -22.1316  -10.3832   21.7569 C   0  0  0  0  0  0  0  0  0  0  0  0
  -28.2603  -14.2021   20.4398 C   0  0  0  0  0  0  0  0  0  0  0  0
  -30.5359  -27.1633   18.8878 C   0  0  0  0  0  0  0  0  0  0  0  0
  -29.8978  -25.3313   17.7690 C   0  0  0  0  0  0  0  0  0  0  0  0
  -30.4247  -14.5841   20.3754 C   0  0  0  0  0  0  0  0  0  0  0  0
  -29.7863  -12.2482   19.7554 C   0  0  0  0  0  0  0  0  0  0  0  0
  -22.3272  -27.3609   22.5851 C   0  0  0  0  0  0  0  0  0  0  0  0
  -22.8047  -24.1773   22.9838 C   0  0  0  0  0  0  0  0  0  0  0  0
  -24.8141  -21.4643   22.4851 C   0  0  0  0  0  0  0  0  0  0  0  0
  -30.1106  -20.5606   20.1902 C   0  0  0  0  0  0  0  0  0  0  0  0
  -18.6134  -27.9473   26.0379 C   0  0  0  0  0  0  0  0  0  0  0  0
  -22.8720  -26.6353   20.2330 C   0  0  0  0  0  0  0  0  0  0  0  0
  -24.7860  -25.5256   22.1950 C   0  0  0  0  0  0  0  0  0  0  0  0
  -19.9618  -27.2330   25.9954 C   0  0  0  0  0  0  0  0  0  0  0  0
  -31.1384  -18.5552   22.9468 C   0  0  0  0  0  0  0  0  0  0  0  0
  -21.0442  -28.1670   25.4637 C   0  0  0  0  0  0  0  0  0  0  0  0
  -30.6291  -17.1571   22.5921 C   0  0  0  0  0  0  0  0  0  0  0  0
  -30.1678  -19.6422   22.4901 C   0  0  0  0  0  0  0  0  0  0  0  0
  -29.2875  -18.1837   20.7092 C   0  0  0  0  0  0  0  0  0  0  0  0
  -20.7334  -28.6117   24.0295 C   0  0  1  0  0  0  0  0  0  0  0  0
  -22.4324  -26.2063   21.6294 C   0  0  1  0  0  0  0  0  0  0  0  0
  -30.2592  -17.0570   21.0999 C   0  0  2  0  0  0  0  0  0  0  0  0
  -31.4616  -28.1992   19.3940 C   0  0  0  0  0  0  0  0  0  0  0  0
  -24.9549  -19.0038   22.9577 C   0  0  0  0  0  0  0  0  0  0  0  0
  -23.5499  -24.7789   25.8808 C   0  0  0  0  0  0  0  0  0  0  0  0
  -24.5710  -22.4971   26.0189 C   0  0  0  0  0  0  0  0  0  0  0  0
  -22.1296  -22.7441   25.5700 C   0  0  0  0  0  0  0  0  0  0  0  0
  -32.3266  -25.9402   17.6433 C   0  0  0  0  0  0  0  0  0  0  0  0
  -24.8616  -20.7954   19.6025 C   0  0  0  0  0  0  0  0  0  0  0  0
  -28.7845  -22.2347   17.6453 C   0  0  0  0  0  0  0  0  0  0  0  0
  -28.9767  -23.3302   16.5973 C   0  0  0  0  0  0  0  0  0  0  0  0
  -30.0032  -21.3340   17.8345 C   0  0  0  0  0  0  0  0  0  0  0  0
  -23.7892  -23.3324   23.7557 C   0  0  1  0  0  0  0  0  0  0  0  0
  -24.5131  -20.0696   21.9669 C   0  0  2  0  0  0  0  0  0  0  0  0
  -23.5185  -23.3567   25.2866 C   0  0  0  0  0  0  0  0  0  0  0  0
  -28.3848  -15.4828   20.7980 N   0  0  0  0  0  0  0  0  0  0  0  0
  -30.9608  -26.1365   18.0855 N   0  0  0  0  0  0  0  0  0  0  0  0
  -29.7124  -15.6854   20.7496 N   0  0  0  0  0  0  0  0  0  0  0  0
  -23.3437  -25.2328   22.2346 N   0  0  0  0  0  0  0  0  0  0  0  0
  -29.8593  -19.4916   21.0661 N   0  0  0  0  0  0  0  0  0  0  0  0
  -31.7707  -14.6133   20.2754 N   0  0  0  0  0  0  0  0  0  0  0  0
  -28.7171  -11.3582   19.5855 N   0  0  0  0  0  0  0  0  0  0  0  0
  -30.0533  -24.2425   16.9843 N   0  0  0  0  0  0  0  0  0  0  0  0
  -21.0568  -27.5576   23.0921 N   0  0  0  0  0  0  0  0  0  0  0  0
  -23.7388  -22.0011   23.1610 N   0  0  0  0  0  0  0  0  0  0  0  0
  -29.7954  -20.3322   18.8563 N   0  0  0  0  0  0  0  0  0  0  0  0
  -25.2194  -19.8329   20.6761 N   0  3  0  0  0  0  0  0  0  0  0  0
  -30.9581  -11.8442   19.5623 O   0  0  0  0  0  0  0  0  0  0  0  0
  -23.3249  -28.0234   22.8445 O   0  0  0  0  0  0  0  0  0  0  0  0
  -21.6025  -23.9063   23.0377 O   0  0  0  0  0  0  0  0  0  0  0  0
  -25.8963  -22.0204   22.3111 O   0  0  0  0  0  0  0  0  0  0  0  0
  -30.5860  -21.6368   20.5681 O   0  0  0  0  0  0  0  0  0  0  0  0
  -23.1978  -11.8434   20.1664 O   0  0  0  0  0  0  0  0  0  0  0  0
  -28.3903  -27.8562   19.8466 O   0  0  0  0  0  0  0  0  0  1  0  0
  -22.5842   -6.8253   22.3678 F   0  0  0  0  0  0  0  0  0  0  0  0
  -21.4006  -11.4060   22.2210 F   0  0  0  0  0  0  0  0  0  0  0  0
  1  2  1  0  0  0  0
  1  5  2  0  0  0  0
  2  6  2  0  0  0  0
  3  8  2  0  0  0  0
  3 16  1  0  0  0  0
  4  9  1  0  0  0  0
  4 16  2  0  0  0  0
  5 18  1  0  0  0  0
  6 20  1  0  0  0  0
  7 10  2  0  0  0  0
  7 19  1  0  0  0  0
  8 22  1  0  0  0  0
  9 22  2  0  0  0  0
 10 23  1  0  0  0  0
 11 12  2  0  0  0  0
 11 24  1  0  0  0  0
 12 26  1  0  0  0  0
 13 21  1  0  0  0  0
 13 23  2  0  0  0  0
 14 25  1  0  0  0  0
 14 30  2  0  0  0  0
 15 26  2  0  0  0  0
 15 27  1  0  0  0  0
 16 28  1  0  0  0  0
 17 28  1  0  0  0  0
 17 31  2  0  0  0  0
 17 32  1  0  0  0  0
 18 20  2  0  0  0  0
 18 37  1  0  0  0  0
 19 21  2  0  0  0  0
 19 38  1  0  0  0  0
 20 46  1  0  0  0  0
 21 39  1  0  0  0  0
 22 79  1  0  0  0  0
 23 80  1  0  0  0  0
 24 27  2  0  0  0  0
 24 79  1  0  0  0  0
 25 29  2  0  0  0  0
 25 80  1  0  0  0  0
 26 81  1  0  0  0  0
 27 82  1  0  0  0  0
 28 62  2  0  0  0  0
 29 49  1  0  0  0  0
 29 63  1  0  0  0  0
 30 63  1  0  0  0  0
 30 69  1  0  0  0  0
 31 64  1  0  0  0  0
 31 67  1  0  0  0  0
 32 68  1  0  0  0  0
 32 74  2  0  0  0  0
 33 47  1  0  0  0  0
 33 70  1  0  0  0  0
 33 75  2  0  0  0  0
 34 59  1  0  0  0  0
 34 65  1  0  0  0  0
 34 76  2  0  0  0  0
 35 60  1  0  0  0  0
 35 71  1  0  0  0  0
 35 77  2  0  0  0  0
 36 66  1  0  0  0  0
 36 72  1  0  0  0  0
 36 78  2  0  0  0  0
 37 40  1  0  0  0  0
 38 47  1  0  0  0  0
 39 65  1  0  0  0  0
 40 42  1  0  0  0  0
 41 43  1  0  0  0  0
 41 44  1  0  0  0  0
 42 46  1  0  0  0  0
 43 48  1  0  0  0  0
 44 66  1  0  0  0  0
 45 48  1  0  0  0  0
 45 66  1  0  0  0  0
 46 70  1  0  0  0  0
 47 65  1  0  0  0  0
 48 64  1  0  0  0  0
 50 60  1  0  0  0  0
 51 61  1  0  0  0  0
 52 61  1  0  0  0  0
 53 61  1  0  0  0  0
 54 63  1  0  0  0  0
 55 73  1  0  0  0  0
 56 57  1  0  0  0  0
 56 58  1  0  0  0  0
 57 69  1  0  0  0  0
 58 72  1  0  0  0  0
 59 61  1  0  0  0  0
 59 71  1  0  0  0  0
 60 73  1  0  0  0  0
 62 64  1  0  0  0  0
M  CHG  1  73   1
M  ISO  4  25 101  36 100  72 100  80 101
M  END
> <Batch ID>
0138

> <Smiles>
CNC(C)C(=O)NC(C(=O)N1Cc2cc([101O:1][101c:1]3cc(NCCC[100NH:0][100C:0](=O)N4CCCC(n5nc(-c6ccc(Oc7ccc(F)cc7F)cc6)c(C(N)=O)c5N)C4)n(C)c3C)ccc2CC1C(=O)NC1CCCc2ccccc21)C(C)(C)C

> <Shape>
0.273

> <Color>
0.090

> <Negative vol penalty>
0.000

$$$$

  -OEChem-04052321083D

 87 96  0     1  0  0  0  0  0999 V2000
  -23.8584  -36.1293   22.8822 C   0  0  0  0  0  0  0  0  0  0  0  0
  -24.7633  -35.1298   22.5396 C   0  0  0  0  0  0  0  0  0  0  0  0
  -29.4447  -22.7432   15.3530 C   0  0  0  0  0  0  0  0  0  0  0  0
  -23.5713  -11.3889   22.9664 C   0  0  0  0  0  0  0  0  0  0  0  0
  -23.9414  -13.6261   23.8000 C   0  0  0  0  0  0  0  0  0  0  0  0
  -22.6727  -35.7999   23.5375 C   0  0  0  0  0  0  0  0  0  0  0  0
  -24.4836  -33.8002   22.8532 C   0  0  0  0  0  0  0  0  0  0  0  0
  -29.7425  -22.3211   16.6487 C   0  0  0  0  0  0  0  0  0  0  0  0
  -25.9707  -28.8511   19.5668 C   0  0  0  0  0  0  0  0  0  0  0  0
  -28.1392  -22.6479   14.8712 C   0  0  0  0  0  0  0  0  0  0  0  0
  -22.9875  -11.0325   24.1820 C   0  0  0  0  0  0  0  0  0  0  0  0
  -23.3575  -13.2697   25.0156 C   0  0  0  0  0  0  0  0  0  0  0  0
  -27.0166  -27.9352   19.6714 C   0  0  0  0  0  0  0  0  0  0  0  0
  -20.0064  -11.4340   25.7261 C   0  0  0  0  0  0  0  0  0  0  0  0
  -18.8184  -10.7042   25.6854 C   0  0  0  0  0  0  0  0  0  0  0  0
  -27.4292  -21.7083   16.9807 C   0  0  0  0  0  0  0  0  0  0  0  0
  -25.5835  -26.4506   20.9210 C   0  0  0  0  0  0  0  0  0  0  0  0
  -19.8820   -8.9052   26.8976 C   0  0  0  0  0  0  0  0  0  0  0  0
  -24.0484  -12.6857   22.7754 C   0  0  0  0  0  0  0  0  0  0  0  0
  -24.0528  -13.0223   20.2467 C   0  0  0  0  0  0  0  0  0  0  0  0
  -28.7348  -21.8037   17.4625 C   0  0  0  0  0  0  0  0  0  0  0  0
  -22.3738  -34.4645   23.8507 C   0  0  0  0  0  0  0  0  0  0  0  0
  -24.7245  -28.5779   20.1488 C   0  0  0  0  0  0  0  0  0  0  0  0
  -23.2934  -33.4527   23.5146 C   0  0  0  0  0  0  0  0  0  0  0  0
  -24.5226  -27.3636   20.8202 C   0  0  0  0  0  0  0  0  0  0  0  0
  -27.1314  -22.1304   15.6850 C   0  0  0  0  0  0  0  0  0  0  0  0
  -22.8806  -11.9729   25.2066 C   0  0  0  0  0  0  0  0  0  0  0  0
  -26.8240  -26.7360   20.3511 C   0  0  0  0  0  0  0  0  0  0  0  0
  -21.1322  -10.8994   26.3526 C   0  0  0  0  0  0  0  0  0  0  0  0
  -18.7561   -9.4399   26.2712 C   0  0  0  0  0  0  0  0  0  0  0  0
  -21.0700   -9.6350   26.9383 C   0  0  0  0  0  0  0  0  0  0  0  0
  -24.6521  -13.0543   21.5201 C   0  0  0  0  0  0  0  0  0  0  0  0
  -25.0345  -13.4643   19.3940 C   0  0  0  0  0  0  0  0  0  0  0  0
  -22.7271  -12.6282   19.8685 C   0  0  0  0  0  0  0  0  0  0  0  0
  -22.9593  -29.9414   22.4135 C   0  0  0  0  0  0  0  0  0  0  0  0
  -20.7766  -27.7207   21.5044 C   0  0  0  0  0  0  0  0  0  0  0  0
  -20.1535  -24.6949   20.0542 C   0  0  0  0  0  0  0  0  0  0  0  0
  -29.8488  -16.9388   20.1704 C   0  0  0  0  0  0  0  0  0  0  0  0
  -21.1013  -34.1624   24.6019 C   0  0  0  0  0  0  0  0  0  0  0  0
  -23.5984  -29.5646   20.0041 C   0  0  0  0  0  0  0  0  0  0  0  0
  -23.1978  -27.0137   21.4453 C   0  0  0  0  0  0  0  0  0  0  0  0
  -20.7071  -32.6882   24.5641 C   0  0  0  0  0  0  0  0  0  0  0  0
  -29.7928  -13.6074   18.9153 C   0  0  0  0  0  0  0  0  0  0  0  0
  -21.9136  -31.8050   24.8662 C   0  0  0  0  0  0  0  0  0  0  0  0
  -28.6318  -21.5768   21.3709 C   0  0  0  0  0  0  0  0  0  0  0  0
  -28.4149  -13.0850   19.3257 C   0  0  0  0  0  0  0  0  0  0  0  0
  -28.3806  -20.0750   21.4730 C   0  0  0  0  0  0  0  0  0  0  0  0
  -28.8151  -19.8244   19.0023 C   0  0  0  0  0  0  0  0  0  0  0  0
  -30.3869  -14.5283   19.9787 C   0  0  0  0  0  0  0  0  0  0  0  0
  -28.1393  -15.1262   20.7940 C   0  0  0  0  0  0  0  0  0  0  0  0
  -29.0601  -21.3428   18.8754 C   0  0  2  0  0  0  0  0  0  0  0  0
  -23.0141  -31.9962   23.8157 C   0  0  1  0  0  0  0  0  0  0  0  0
  -22.5255  -29.4085   21.0774 C   0  0  1  0  0  0  0  0  0  0  0  0
  -28.2957  -22.1291   19.9744 C   0  0  2  0  0  0  0  0  0  0  0  0
  -27.4754  -14.2375   19.7283 C   0  0  2  0  0  0  0  0  0  0  0  0
  -29.1571  -19.3109   20.4026 C   0  0  2  0  0  0  0  0  0  0  0  0
  -18.2740  -23.1312   19.4888 C   0  0  0  0  0  0  0  0  0  0  0  0
  -20.6024  -26.8759   24.4311 C   0  0  0  0  0  0  0  0  0  0  0  0
  -19.4870  -24.7631   23.6825 C   0  0  0  0  0  0  0  0  0  0  0  0
  -18.4058  -26.9670   23.2391 C   0  0  0  0  0  0  0  0  0  0  0  0
  -24.6623  -22.1269   16.0445 C   0  0  0  0  0  0  0  0  0  0  0  0
  -20.7356  -24.8573   17.1570 C   0  0  0  0  0  0  0  0  0  0  0  0
  -28.6131  -23.6289   19.9363 C   0  0  0  0  0  0  0  0  0  0  0  0
  -27.4898  -24.4604   20.5365 C   0  0  0  0  0  0  0  0  0  1  0  0
  -20.4567  -26.3044   21.9175 C   0  0  1  0  0  0  0  0  0  0  0  0
  -19.1501  -24.2725   18.9963 C   0  0  2  0  0  0  0  0  0  0  0  0
  -19.7636  -26.2347   23.3076 C   0  0  0  0  0  0  0  0  0  0  0  0
  -25.9167  -13.4827   21.4842 N   0  0  0  0  0  0  0  0  0  0  0  0
  -26.1200  -13.7239   20.1779 N   0  0  0  0  0  0  0  0  0  0  0  0
  -22.1296  -28.0136   21.2821 N   0  0  0  0  0  0  0  0  0  0  0  0
  -29.4469  -15.6006   20.3145 N   0  0  0  0  0  0  0  0  0  0  0  0
  -25.0666  -13.6524   18.0576 N   0  0  0  0  0  0  0  0  0  0  0  0
  -21.7210  -13.6037   19.8459 N   0  0  0  0  0  0  0  0  0  0  0  0
  -25.8113  -22.0344   15.1979 N   0  0  0  0  0  0  0  0  0  0  0  0
  -22.6830  -31.2823   22.6011 N   0  0  0  0  0  0  0  0  0  0  0  0
  -19.6732  -25.7290   20.8297 N   0  0  0  0  0  0  0  0  0  0  0  0
  -28.8950  -17.8925   20.5043 N   0  0  0  0  0  0  0  0  0  0  0  0
  -19.8558  -23.8246   17.7625 N   0  3  0  0  0  0  0  0  0  0  0  0
  -22.4396  -11.4429   19.5756 O   0  0  0  0  0  0  0  0  0  0  0  0
  -23.5031  -29.1913   23.2156 O   0  0  0  0  0  0  0  0  0  0  0  0
  -19.8591  -28.5352   21.3765 O   0  0  0  0  0  0  0  0  0  0  0  0
  -21.2519  -24.1586   20.1824 O   0  0  0  0  0  0  0  0  0  0  0  0
  -30.9723  -17.2598   19.7686 O   0  0  0  0  0  0  0  0  0  0  0  0
  -22.3107  -11.6255   26.3928 O   0  0  0  0  0  0  0  0  0  0  0  0
  -27.8434  -25.8405   20.4553 O   0  0  0  0  0  0  0  0  0  1  0  0
  -17.6148   -8.7398   26.2333 F   0  0  0  0  0  0  0  0  0  0  0  0
  -22.1479   -9.1167   27.5426 F   0  0  0  0  0  0  0  0  0  0  0  0
  1  2  1  0  0  0  0
  1  6  2  0  0  0  0
  2  7  2  0  0  0  0
  3  8  1  0  0  0  0
  3 10  2  0  0  0  0
  4 11  2  0  0  0  0
  4 19  1  0  0  0  0
  5 12  1  0  0  0  0
  5 19  2  0  0  0  0
  6 22  1  0  0  0  0
  7 24  1  0  0  0  0
  8 21  2  0  0  0  0
  9 13  2  0  0  0  0
  9 23  1  0  0  0  0
 10 26  1  0  0  0  0
 11 27  1  0  0  0  0
 12 27  2  0  0  0  0
 13 28  1  0  0  0  0
 14 15  2  0  0  0  0
 14 29  1  0  0  0  0
 15 30  1  0  0  0  0
 16 21  1  0  0  0  0
 16 26  2  0  0  0  0
 17 25  1  0  0  0  0
 17 28  2  0  0  0  0
 18 30  2  0  0  0  0
 18 31  1  0  0  0  0
 19 32  1  0  0  0  0
 20 32  1  0  0  0  0
 20 33  2  0  0  0  0
 20 34  1  0  0  0  0
 21 51  1  0  0  0  0
 22 24  2  0  0  0  0
 22 39  1  0  0  0  0
 23 25  2  0  0  0  0
 23 40  1  0  0  0  0
 24 52  1  0  0  0  0
 25 41  1  0  0  0  0
 26 74  1  0  0  0  0
 27 84  1  0  0  0  0
 28 85  1  0  0  0  0
 29 31  2  0  0  0  0
 29 84  1  0  0  0  0
 30 86  1  0  0  0  0
 31 87  1  0  0  0  0
 32 68  2  0  0  0  0
 33 69  1  0  0  0  0
 33 72  1  0  0  0  0
 34 73  1  0  0  0  0
 34 79  2  0  0  0  0
 35 53  1  0  0  0  0
 35 75  1  0  0  0  0
 35 80  2  0  0  0  0
 36 65  1  0  0  0  0
 36 70  1  0  0  0  0
 36 81  2  0  0  0  0
 37 66  1  0  0  0  0
 37 76  1  0  0  0  0
 37 82  2  0  0  0  0
 38 71  1  0  0  0  0
 38 77  1  0  0  0  0
 38 83  2  0  0  0  0
 39 42  1  0  0  0  0
 40 53  1  0  0  0  0
 41 70  1  0  0  0  0
 42 44  1  0  0  0  0
 43 46  1  0  0  0  0
 43 49  1  0  0  0  0
 44 52  1  0  0  0  0
 45 47  1  0  0  0  0
 45 54  1  0  0  0  0
 46 55  1  0  0  0  0
 47 56  1  0  0  0  0
 48 51  1  0  0  0  0
 48 56  1  0  0  0  0
 49 71  1  0  0  0  0
 50 55  1  0  0  0  0
 50 71  1  0  0  0  0
 51 54  1  0  0  0  0
 52 75  1  0  0  0  0
 53 70  1  0  0  0  0
 54 63  1  0  0  0  0
 55 69  1  0  0  0  0
 56 77  1  0  0  0  0
 57 66  1  0  0  0  0
 58 67  1  0  0  0  0
 59 67  1  0  0  0  0
 60 67  1  0  0  0  0
 61 74  1  0  0  0  0
 62 78  1  0  0  0  0
 63 64  1  0  0  0  0
 64 85  1  0  0  0  0
 65 67  1  0  0  0  0
 65 76  1  0  0  0  0
 66 78  1  0  0  0  0
 68 69  1  0  0  0  0
M  CHG  1  78   1
M  ISO  4  38 100  64 101  77 100  85 101
M  END
> <Batch ID>
0138

> <Smiles>
CNc1cccc(C2CC([100NH:0][100C:0](=O)N3CCCC(n4nc(-c5ccc(Oc6ccc(F)cc6F)cc5)c(C(N)=O)c4N)C3)CCC2C[101CH2:1][101O:1]c2ccc3c(c2)CN(C(=O)C(NC(=O)C(C)NC)C(C)(C)C)C(C(=O)NC2CCCc4ccccc42)C3)c1

> <Shape>
0.237

> <Color>
0.057

> <Negative vol penalty>
0.000

$$$$

  -OEChem-04052321083D

 89 98  0     1  0  0  0  0  0999 V2000
  -17.6650  -26.9290   23.0431 C   0  0  0  0  0  0  0  0  0  0  0  0
  -18.9130  -26.4294   22.6852 C   0  0  0  0  0  0  0  0  0  0  0  0
  -22.9425  -10.0349   19.9250 C   0  0  0  0  0  0  0  0  0  0  0  0
  -24.1708   -9.5834   21.9559 C   0  0  0  0  0  0  0  0  0  0  0  0
  -17.3705  -28.2766   22.8401 C   0  0  0  0  0  0  0  0  0  0  0  0
  -19.8670  -27.2769   22.1231 C   0  0  0  0  0  0  0  0  0  0  0  0
  -24.4707  -26.6213   24.1284 C   0  0  0  0  0  0  0  0  0  0  0  0
  -22.2366   -8.8429   20.0869 C   0  0  0  0  0  0  0  0  0  0  0  0
  -23.4648   -8.3913   22.1179 C   0  0  0  0  0  0  0  0  0  0  0  0
  -25.2040  -25.5186   23.6924 C   0  0  0  0  0  0  0  0  0  0  0  0
  -20.4165   -7.4334   23.2182 C   0  0  0  0  0  0  0  0  0  0  0  0
  -19.9238   -7.1414   24.4900 C   0  0  0  0  0  0  0  0  0  0  0  0
  -26.4591  -26.9475   22.2085 C   0  0  0  0  0  0  0  0  0  0  0  0
  -27.8126  -19.4136   20.1663 C   0  0  0  0  0  0  0  0  0  0  0  0
  -26.0875  -20.3113   18.7328 C   0  0  0  0  0  0  0  0  0  0  0  0
  -21.2385   -5.1148   24.5339 C   0  0  0  0  0  0  0  0  0  0  0  0
  -23.9097  -10.4052   20.8595 C   0  0  0  0  0  0  0  0  0  0  0  0
  -24.2887  -12.9064   21.1875 C   0  0  0  0  0  0  0  0  0  0  0  0
  -18.3247  -29.1431   22.2841 C   0  0  0  0  0  0  0  0  0  0  0  0
  -24.7192  -27.8958   23.5989 C   0  0  0  0  0  0  0  0  0  0  0  0
  -19.5846  -28.6371   21.9112 C   0  0  0  0  0  0  0  0  0  0  0  0
  -25.7294  -28.0652   22.6413 C   0  0  0  0  0  0  0  0  0  0  0  0
  -26.7115  -20.2491   19.9787 C   0  0  0  0  0  0  0  0  0  0  0  0
  -28.2896  -18.6403   19.1079 C   0  0  0  0  0  0  0  0  0  0  0  0
  -27.6656  -18.7025   17.8620 C   0  0  0  0  0  0  0  0  0  0  0  0
  -22.4977   -8.0211   21.1833 C   0  0  0  0  0  0  0  0  0  0  0  0
  -26.1964  -25.6811   22.7303 C   0  0  0  0  0  0  0  0  0  0  0  0
  -21.3200   -6.5662   22.6041 C   0  0  0  0  0  0  0  0  0  0  0  0
  -26.5645  -19.5380   17.6744 C   0  0  0  0  0  0  0  0  0  0  0  0
  -20.3348   -5.9821   25.1479 C   0  0  0  0  0  0  0  0  0  0  0  0
  -21.7311   -5.4069   23.2620 C   0  0  0  0  0  0  0  0  0  0  0  0
  -24.6397  -11.6361   20.6926 C   0  0  0  0  0  0  0  0  0  0  0  0
  -25.2997  -13.7325   20.7608 C   0  0  0  0  0  0  0  0  0  0  0  0
  -23.1507  -13.3041   21.9636 C   0  0  0  0  0  0  0  0  0  0  0  0
  -23.0154  -30.0087   21.9446 C   0  0  0  0  0  0  0  0  0  0  0  0
  -25.6267  -31.8804   22.3918 C   0  0  0  0  0  0  0  0  0  0  0  0
  -28.9771  -32.0794   23.0098 C   0  0  0  0  0  0  0  0  0  0  0  0
  -28.8141  -15.4965   16.8686 C   0  0  0  0  0  0  0  0  0  0  0  0
  -17.9439  -30.5819   22.0401 C   0  0  0  0  0  0  0  0  0  0  0  0
  -23.9376  -29.0795   24.0992 C   0  0  0  0  0  0  0  0  0  0  0  0
  -26.0489  -29.4157   22.0562 C   0  0  0  0  0  0  0  0  0  0  0  0
  -19.1411  -31.4940   21.7850 C   0  0  0  0  0  0  0  0  0  0  0  0
  -29.7809  -12.6768   18.6956 C   0  0  0  0  0  0  0  0  0  0  0  0
  -20.0965  -30.8532   20.7832 C   0  0  0  0  0  0  0  0  0  0  0  0
  -28.5043  -12.2406   19.4118 C   0  0  0  0  0  0  0  0  0  0  0  0
  -25.7771  -16.3020   15.2711 C   0  0  0  0  0  0  0  0  0  0  0  0
  -25.9600  -14.9487   15.8907 C   0  0  0  0  0  0  0  0  0  0  0  0
  -29.4748  -13.1479   17.2795 C   0  0  0  0  0  0  0  0  0  0  0  0
  -27.1952  -13.8549   17.9402 C   0  0  0  0  0  0  0  0  0  0  0  0
  -20.6545  -29.5302   21.3216 C   0  0  1  0  0  0  0  0  0  0  0  0
  -23.9255  -30.2462   23.1163 C   0  0  1  0  0  0  0  0  0  0  0  0
  -27.4488  -13.3585   19.3786 C   0  0  1  0  0  0  0  0  0  0  0  0
  -26.3954  -16.1800   16.6369 C   0  0  0  0  0  0  0  0  0  0  0  0
  -29.4710  -17.7546   19.3342 C   0  0  0  0  0  0  0  0  0  0  0  0
  -25.8470  -22.0094   13.5778 C   0  0  0  0  0  0  0  0  0  0  0  0
  -30.8347  -33.7448   23.2811 C   0  0  0  0  0  0  0  0  0  0  0  0
  -25.6876  -32.3012   19.3703 C   0  0  0  0  0  0  0  0  0  0  0  0
  -28.0338  -33.1429   19.6049 C   0  0  0  0  0  0  0  0  0  0  0  0
  -26.1590  -34.3537   20.7192 C   0  0  0  0  0  0  0  0  0  0  0  0
  -29.5170  -31.1995   25.7834 C   0  0  0  0  0  0  0  0  0  0  0  0
  -26.1969  -21.0859   21.1226 C   0  0  0  0  0  0  0  0  0  0  0  0
  -28.1723  -17.8749   16.7242 C   0  0  0  0  0  0  0  0  0  0  0  0
  -25.8712  -20.6871   14.3232 C   0  0  0  0  0  0  0  0  0  0  0  0
  -26.8433  -22.4699   21.2128 C   0  0  0  0  0  0  0  0  0  0  0  0
  -25.9058  -20.8877   15.8305 C   0  0  0  0  0  0  0  0  0  0  0  0
  -26.2564  -23.3395   22.3186 C   0  0  0  0  0  0  0  0  0  1  0  0
  -26.9115  -32.1212   21.6365 C   0  0  1  0  0  0  0  0  0  0  0  0
  -29.7720  -32.9210   23.9918 C   0  0  2  0  0  0  0  0  0  0  0  0
  -26.6909  -32.9538   20.3421 C   0  0  0  0  0  0  0  0  0  0  0  0
  -25.7841  -11.6492   20.0039 N   0  0  0  0  0  0  0  0  0  0  0  0
  -26.1610  -12.9378   20.0631 N   0  0  0  0  0  0  0  0  0  0  0  0
  -25.2529  -30.5412   22.5730 N   0  0  0  0  0  0  0  0  0  0  0  0
  -28.4593  -14.2017   17.2741 N   0  0  0  0  0  0  0  0  0  0  0  0
  -25.5269  -15.0539   20.9180 N   0  0  0  0  0  0  0  0  0  0  0  0
  -22.2082  -12.3285   22.3158 N   0  0  0  0  0  0  0  0  0  0  0  0
  -21.6979  -29.7798   22.2929 N   0  0  0  0  0  0  0  0  0  0  0  0
  -27.8363  -32.7285   22.5874 N   0  0  0  0  0  0  0  0  0  0  0  0
  -27.8008  -16.4705   16.8559 N   0  0  0  0  0  0  0  0  0  0  0  0
  -30.4462  -32.0486   24.9944 N   0  3  0  0  0  0  0  0  0  0  0  0
  -22.9664  -14.4927   22.3199 O   0  0  0  0  0  0  0  0  0  0  0  0
  -23.4742  -30.0328   20.8086 O   0  0  0  0  0  0  0  0  0  0  0  0
  -24.9824  -32.8447   22.8119 O   0  0  0  0  0  0  0  0  0  0  0  0
  -29.3346  -30.9598   22.6502 O   0  0  0  0  0  0  0  0  0  0  0  0
  -29.9689  -15.7678   16.5146 O   0  0  0  0  0  0  0  0  0  0  0  0
  -21.8088   -6.8579   21.3417 O   0  0  0  0  0  0  0  0  0  0  0  0
  -26.9132  -24.6063   22.3025 O   0  0  0  0  0  0  0  0  0  1  0  0
  -25.9416  -19.6110   16.4649 O   0  0  0  0  0  0  0  0  0  0  0  0
  -19.8629   -5.7026   26.3699 F   0  0  0  0  0  0  0  0  0  0  0  0
  -22.5998   -4.5705   22.6776 F   0  0  0  0  0  0  0  0  0  0  0  0
  1  2  1  0  0  0  0
  1  5  2  0  0  0  0
  2  6  2  0  0  0  0
  3  8  2  0  0  0  0
  3 17  1  0  0  0  0
  4  9  1  0  0  0  0
  4 17  2  0  0  0  0
  5 19  1  0  0  0  0
  6 21  1  0  0  0  0
  7 10  2  0  0  0  0
  7 20  1  0  0  0  0
  8 26  1  0  0  0  0
  9 26  2  0  0  0  0
 10 27  1  0  0  0  0
 11 12  2  0  0  0  0
 11 28  1  0  0  0  0
 12 30  1  0  0  0  0
 13 22  1  0  0  0  0
 13 27  2  0  0  0  0
 14 23  1  0  0  0  0
 14 24  2  0  0  0  0
 15 23  2  0  0  0  0
 15 29  1  0  0  0  0
 16 30  2  0  0  0  0
 16 31  1  0  0  0  0
 17 32  1  0  0  0  0
 18 32  1  0  0  0  0
 18 33  2  0  0  0  0
 18 34  1  0  0  0  0
 19 21  2  0  0  0  0
 19 39  1  0  0  0  0
 20 22  2  0  0  0  0
 20 40  1  0  0  0  0
 21 50  1  0  0  0  0
 22 41  1  0  0  0  0
 23 61  1  0  0  0  0
 24 25  1  0  0  0  0
 24 54  1  0  0  0  0
 25 29  2  0  0  0  0
 25 62  1  0  0  0  0
 26 85  1  0  0  0  0
 27 86  1  0  0  0  0
 28 31  2  0  0  0  0
 28 85  1  0  0  0  0
 29 87  1  0  0  0  0
 30 88  1  0  0  0  0
 31 89  1  0  0  0  0
 32 70  2  0  0  0  0
 33 71  1  0  0  0  0
 33 74  1  0  0  0  0
 34 75  1  0  0  0  0
 34 80  2  0  0  0  0
 35 51  1  0  0  0  0
 35 76  1  0  0  0  0
 35 81  2  0  0  0  0
 36 67  1  0  0  0  0
 36 72  1  0  0  0  0
 36 82  2  0  0  0  0
 37 68  1  0  0  0  0
 37 77  1  0  0  0  0
 37 83  2  0  0  0  0
 38 73  1  0  0  0  0
 38 78  1  0  0  0  0
 38 84  2  0  0  0  0
 39 42  1  0  0  0  0
 40 51  1  0  0  0  0
 41 72  1  0  0  0  0
 42 44  1  0  0  0  0
 43 45  1  0  0  0  0
 43 48  1  0  0  0  0
 44 50  1  0  0  0  0
 45 52  1  0  0  0  0
 46 47  1  0  0  0  0
 46 53  1  0  0  0  0
 47 53  1  0  0  0  0
 48 73  1  0  0  0  0
 49 52  1  0  0  0  0
 49 73  1  0  0  0  0
 50 76  1  0  0  0  0
 51 72  1  0  0  0  0
 52 71  1  0  0  0  0
 53 78  1  0  0  0  0
 55 63  1  0  0  0  0
 56 68  1  0  0  0  0
 57 69  1  0  0  0  0
 58 69  1  0  0  0  0
 59 69  1  0  0  0  0
 60 79  1  0  0  0  0
 61 64  1  0  0  0  0
 62 78  1  0  0  0  0
 63 65  1  0  0  0  0
 64 66  1  0  0  0  0
 65 87  1  0  0  0  0
 66 86  1  0  0  0  0
 67 69  1  0  0  0  0
 67 77  1  0  0  0  0
 68 79  1  0  0  0  0
 70 71  1  0  0  0  0
M  CHG  1  79   1
M  ISO  4  38 100  66 101  78 100  86 101
M  END
> <Batch ID>
0138

> <Smiles>
CCCOc1cc(CC[101CH2:1][101O:1]c2ccc3c(c2)CN(C(=O)C(NC(=O)C(C)NC)C(C)(C)C)C(C(=O)NC2CCCc4ccccc42)C3)cc(C)c1C[100N:0](C1CC1)[100C:0](=O)N1CCCC(n2nc(-c3ccc(Oc4ccc(F)cc4F)cc3)c(C(N)=O)c2N)C1

> <Shape>
0.283

> <Color>
0.158

> <Negative vol penalty>
0.000

$$$$

  -OEChem-04052321083D

 86 94  0     1  0  0  0  0  0999 V2000
  -33.9200  -30.8615   30.9281 C   0  0  0  0  0  0  0  0  0  0  0  0
  -34.0938  -29.6199   30.3251 C   0  0  0  0  0  0  0  0  0  0  0  0
  -23.4517   -9.6583   20.1387 C   0  0  0  0  0  0  0  0  0  0  0  0
  -23.9273  -10.0420   22.4761 C   0  0  0  0  0  0  0  0  0  0  0  0
  -32.7241  -31.5573   30.7565 C   0  0  0  0  0  0  0  0  0  0  0  0
  -33.0711  -29.0728   29.5510 C   0  0  0  0  0  0  0  0  0  0  0  0
  -33.6978  -25.6248   24.5287 C   0  0  0  0  0  0  0  0  0  0  0  0
  -28.0913  -18.7943   24.8472 C   0  0  0  0  0  0  0  0  0  0  0  0
  -22.8233   -8.4563   20.4638 C   0  0  0  0  0  0  0  0  0  0  0  0
  -23.2989   -8.8399   22.8013 C   0  0  0  0  0  0  0  0  0  0  0  0
  -33.6523  -24.2462   24.3257 C   0  0  0  0  0  0  0  0  0  0  0  0
  -29.0757  -19.7432   25.1231 C   0  0  0  0  0  0  0  0  0  0  0  0
  -20.1376   -7.7040   23.1704 C   0  0  0  0  0  0  0  0  0  0  0  0
  -19.2567   -7.7068   24.2518 C   0  0  0  0  0  0  0  0  0  0  0  0
  -31.3307  -24.4219   23.6944 C   0  0  0  0  0  0  0  0  0  0  0  0
  -30.7842  -18.0677   24.7897 C   0  0  0  0  0  0  0  0  0  0  0  0
  -20.6196   -6.0524   25.3664 C   0  0  0  0  0  0  0  0  0  0  0  0
  -24.0038  -10.4512   21.1449 C   0  0  0  0  0  0  0  0  0  0  0  0
  -24.0599  -12.9662   20.7215 C   0  0  0  0  0  0  0  0  0  0  0  0
  -31.6899  -31.0228   29.9720 C   0  0  0  0  0  0  0  0  0  0  0  0
  -32.5553  -26.4122   24.3262 C   0  0  0  0  0  0  0  0  0  0  0  0
  -31.8597  -29.7615   29.3698 C   0  0  0  0  0  0  0  0  0  0  0  0
  -31.3650  -25.8106   23.8931 C   0  0  0  0  0  0  0  0  0  0  0  0
  -28.4533  -17.4820   24.5426 C   0  0  0  0  0  0  0  0  0  0  0  0
  -29.7997  -17.1188   24.5139 C   0  0  0  0  0  0  0  0  0  0  0  0
  -22.7469   -8.0470   21.7951 C   0  0  0  0  0  0  0  0  0  0  0  0
  -32.4678  -23.6442   23.9113 C   0  0  0  0  0  0  0  0  0  0  0  0
  -30.4221  -19.3799   25.0943 C   0  0  0  0  0  0  0  0  0  0  0  0
  -21.2595   -6.8753   23.1869 C   0  0  0  0  0  0  0  0  0  0  0  0
  -19.4976   -6.8811   25.3498 C   0  0  0  0  0  0  0  0  0  0  0  0
  -21.5005   -6.0495   24.2849 C   0  0  0  0  0  0  0  0  0  0  0  0
  -24.6535  -11.6928   20.8095 C   0  0  0  0  0  0  0  0  0  0  0  0
  -25.0923  -13.8031   20.3749 C   0  0  0  0  0  0  0  0  0  0  0  0
  -22.6971  -13.3576   20.9341 C   0  0  0  0  0  0  0  0  0  0  0  0
  -30.7574  -28.2729   26.1726 C   0  0  0  0  0  0  0  0  0  0  0  0
  -29.2966  -28.9842   23.3651 C   0  0  0  0  0  0  0  0  0  0  0  0
  -28.5569  -28.0522   20.1665 C   0  0  0  0  0  0  0  0  0  0  0  0
  -31.0237  -13.4909   21.1316 C   0  0  0  0  0  0  0  0  0  0  0  0
  -30.3971  -31.7906   29.8542 C   0  0  0  0  0  0  0  0  0  0  0  0
  -32.6281  -27.9015   24.5238 C   0  0  0  0  0  0  0  0  0  0  0  0
  -30.1161  -26.6141   23.6421 C   0  0  0  0  0  0  0  0  0  0  0  0
  -29.5057  -31.3108   28.7116 C   0  0  0  0  0  0  0  0  0  0  0  0
  -29.2734  -13.8272   18.0493 C   0  0  0  0  0  0  0  0  0  0  0  0
  -29.4070  -29.7886   28.7145 C   0  0  0  0  0  0  0  0  0  0  0  0
  -27.8374  -13.4332   18.3993 C   0  0  0  0  0  0  0  0  0  0  0  0
  -30.2920  -12.9890   18.8187 C   0  0  0  0  0  0  0  0  0  0  0  0
  -28.6722  -12.5867   20.6320 C   0  0  0  0  0  0  0  0  0  0  0  0
  -30.7831  -29.1461   28.5024 C   0  0  1  0  0  0  0  0  0  0  0  0
  -31.2657  -28.5371   24.7836 C   0  0  1  0  0  0  0  0  0  0  0  0
  -27.6088  -13.4425   19.9227 C   0  0  2  0  0  0  0  0  0  0  0  0
  -26.5524  -16.8624   23.0076 C   0  0  0  0  0  0  0  0  0  0  0  0
  -26.4433  -16.2641   25.4541 C   0  0  0  0  0  0  0  0  0  0  0  0
  -27.3139  -28.8234   18.1275 C   0  0  0  0  0  0  0  0  0  0  0  0
  -26.6555  -28.2250   24.6909 C   0  0  0  0  0  0  0  0  0  0  0  0
  -25.6289  -28.0940   22.4112 C   0  0  0  0  0  0  0  0  0  0  0  0
  -26.5478  -30.2597   23.2408 C   0  0  0  0  0  0  0  0  0  0  0  0
  -31.0262  -28.0968   18.5358 C   0  0  0  0  0  0  0  0  0  0  0  0
  -31.4981  -15.4539   23.7595 C   0  0  0  0  0  0  0  0  0  0  0  0
  -31.6049  -13.9592   23.4984 C   0  0  0  0  0  0  0  0  0  0  0  0
  -33.2876  -21.4937   24.5107 C   0  0  0  0  0  0  0  0  0  1  0  0
  -32.6462  -20.1363   24.7241 C   0  0  0  0  0  0  0  0  0  0  0  0
  -27.3780  -16.4864   24.2513 C   0  0  0  0  0  0  0  0  0  0  0  0
  -28.1393  -28.4075   22.5859 C   0  0  1  0  0  0  0  0  0  0  0  0
  -28.6514  -28.8037   18.8509 C   0  0  2  0  0  0  0  0  0  0  0  0
  -26.7657  -28.7309   23.2387 C   0  0  0  0  0  0  0  0  0  0  0  0
  -25.9616  -11.7140   20.5404 N   0  0  0  0  0  0  0  0  0  0  0  0
  -26.1984  -13.0109   20.2798 N   0  0  0  0  0  0  0  0  0  0  0  0
  -30.2360  -28.0659   23.8553 N   0  0  0  0  0  0  0  0  0  0  0  0
  -30.0204  -13.0415   20.2572 N   0  0  0  0  0  0  0  0  0  0  0  0
  -25.1528  -15.1320   20.1452 N   0  0  0  0  0  0  0  0  0  0  0  0
  -21.7655  -12.3710   21.2849 N   0  0  0  0  0  0  0  0  0  0  0  0
  -30.1845  -15.7950   24.2075 N   0  0  0  0  0  0  0  0  0  0  0  0
  -31.1602  -29.2083   27.1065 N   0  0  0  0  0  0  0  0  0  0  0  0
  -28.2819  -28.8987   21.2196 N   0  0  0  0  0  0  0  0  0  0  0  0
  -30.6815  -13.5155   22.4780 N   0  0  0  0  0  0  0  0  0  0  0  0
  -29.6586  -28.1624   17.9592 N   0  3  0  0  0  0  0  0  0  0  0  0
  -22.3134  -14.5444   20.8005 O   0  0  0  0  0  0  0  0  0  0  0  0
  -30.0508  -27.2937   26.3814 O   0  0  0  0  0  0  0  0  0  0  0  0
  -29.3685  -30.2050   23.5265 O   0  0  0  0  0  0  0  0  0  0  0  0
  -28.7078  -26.8354   20.2509 O   0  0  0  0  0  0  0  0  0  0  0  0
  -32.1398  -13.8492   20.7406 O   0  0  0  0  0  0  0  0  0  0  0  0
  -22.1336   -6.8742   22.1128 O   0  0  0  0  0  0  0  0  0  0  0  0
  -32.4204  -22.2987   23.7130 O   0  0  0  0  0  0  0  0  0  1  0  0
  -31.3888  -20.3122   25.3653 O   0  0  0  0  0  0  0  0  0  0  0  0
  -18.6524   -6.8850   26.3889 F   0  0  0  0  0  0  0  0  0  0  0  0
  -22.5773   -5.2521   24.3070 F   0  0  0  0  0  0  0  0  0  0  0  0
  1  2  1  0  0  0  0
  1  5  2  0  0  0  0
  2  6  2  0  0  0  0
  3  9  2  0  0  0  0
  3 18  1  0  0  0  0
  4 10  1  0  0  0  0
  4 18  2  0  0  0  0
  5 20  1  0  0  0  0
  6 22  1  0  0  0  0
  7 11  2  0  0  0  0
  7 21  1  0  0  0  0
  8 12  2  0  0  0  0
  8 24  1  0  0  0  0
  9 26  1  0  0  0  0
 10 26  2  0  0  0  0
 11 27  1  0  0  0  0
 12 28  1  0  0  0  0
 13 14  2  0  0  0  0
 13 29  1  0  0  0  0
 14 30  1  0  0  0  0
 15 23  1  0  0  0  0
 15 27  2  0  0  0  0
 16 25  1  0  0  0  0
 16 28  2  0  0  0  0
 17 30  2  0  0  0  0
 17 31  1  0  0  0  0
 18 32  1  0  0  0  0
 19 32  1  0  0  0  0
 19 33  2  0  0  0  0
 19 34  1  0  0  0  0
 20 22  2  0  0  0  0
 20 39  1  0  0  0  0
 21 23  2  0  0  0  0
 21 40  1  0  0  0  0
 22 48  1  0  0  0  0
 23 41  1  0  0  0  0
 24 25  2  0  0  0  0
 24 62  1  0  0  0  0
 25 72  1  0  0  0  0
 26 82  1  0  0  0  0
 27 83  1  0  0  0  0
 28 84  1  0  0  0  0
 29 31  2  0  0  0  0
 29 82  1  0  0  0  0
 30 85  1  0  0  0  0
 31 86  1  0  0  0  0
 32 66  2  0  0  0  0
 33 67  1  0  0  0  0
 33 70  1  0  0  0  0
 34 71  1  0  0  0  0
 34 77  2  0  0  0  0
 35 49  1  0  0  0  0
 35 73  1  0  0  0  0
 35 78  2  0  0  0  0
 36 63  1  0  0  0  0
 36 68  1  0  0  0  0
 36 79  2  0  0  0  0
 37 64  1  0  0  0  0
 37 74  1  0  0  0  0
 37 80  2  0  0  0  0
 38 69  1  0  0  0  0
 38 75  1  0  0  0  0
 38 81  2  0  0  0  0
 39 42  1  0  0  0  0
 40 49  1  0  0  0  0
 41 68  1  0  0  0  0
 42 44  1  0  0  0  0
 43 45  1  0  0  0  0
 43 46  1  0  0  0  0
 44 48  1  0  0  0  0
 45 50  1  0  0  0  0
 46 69  1  0  0  0  0
 47 50  1  0  0  0  0
 47 69  1  0  0  0  0
 48 73  1  0  0  0  0
 49 68  1  0  0  0  0
 50 67  1  0  0  0  0
 51 62  1  0  0  0  0
 52 62  1  0  0  0  0
 53 64  1  0  0  0  0
 54 65  1  0  0  0  0
 55 65  1  0  0  0  0
 56 65  1  0  0  0  0
 57 76  1  0  0  0  0
 58 59  1  0  0  0  0
 58 72  1  0  0  0  0
 59 75  1  0  0  0  0
 60 61  1  0  0  0  0
 60 83  1  0  0  0  0
 61 84  1  0  0  0  0
 63 65  1  0  0  0  0
 63 74  1  0  0  0  0
 64 76  1  0  0  0  0
 66 67  1  0  0  0  0
M  CHG  1  76   1
M  ISO  4  38 100  60 101  75 100  83 101
M  END
> <Batch ID>
0138

> <Smiles>
CNC(C)C(=O)NC(C(=O)N1Cc2cc([101O:1][101CH2:1]COc3ccc(C(C)C)c(NCC[100NH:0][100C:0](=O)N4CCCC(n5nc(-c6ccc(Oc7ccc(F)cc7F)cc6)c(C(N)=O)c5N)C4)c3)ccc2CC1C(=O)NC1CCCc2ccccc21)C(C)(C)C

> <Shape>
0.181

> <Color>
0.174

> <Negative vol penalty>
0.000

$$$$

  -OEChem-04052321083D

 85 94  0     1  0  0  0  0  0999 V2000
  -31.3885  -34.4634   21.7517 C   0  0  0  0  0  0  0  0  0  0  0  0
  -31.0825  -33.1182   21.5724 C   0  0  0  0  0  0  0  0  0  0  0  0
  -25.3855  -13.3020   21.8904 C   0  0  0  0  0  0  0  0  0  0  0  0
  -25.7248  -12.8121   19.5491 C   0  0  0  0  0  0  0  0  0  0  0  0
  -30.6065  -35.2483   22.5980 C   0  0  0  0  0  0  0  0  0  0  0  0
  -29.9947  -32.5568   22.2403 C   0  0  0  0  0  0  0  0  0  0  0  0
  -27.1735  -29.6185   19.2316 C   0  0  0  0  0  0  0  0  0  0  0  0
  -25.0133  -11.9765   22.1139 C   0  0  0  0  0  0  0  0  0  0  0  0
  -25.3526  -11.4865   19.7725 C   0  0  0  0  0  0  0  0  0  0  0  0
  -27.6557  -28.3395   18.9569 C   0  0  0  0  0  0  0  0  0  0  0  0
  -26.5492   -8.9889   22.4993 C   0  0  0  0  0  0  0  0  0  0  0  0
  -27.0878   -8.3431   23.6121 C   0  0  0  0  0  0  0  0  0  0  0  0
  -29.6661  -21.7428   17.9087 C   0  0  0  0  0  0  0  0  0  0  0  0
  -28.5378  -23.7225   17.1058 C   0  0  0  0  0  0  0  0  0  0  0  0
  -26.1681  -27.4274   20.6225 C   0  0  0  0  0  0  0  0  0  0  0  0
  -29.7840  -23.7975   19.1742 C   0  0  0  0  0  0  0  0  0  0  0  0
  -24.8625   -7.9880   24.4831 C   0  0  0  0  0  0  0  0  0  0  0  0
  -25.7413  -13.7198   20.6080 C   0  0  0  0  0  0  0  0  0  0  0  0
  -27.4219  -15.6325   20.4505 C   0  0  0  0  0  0  0  0  0  0  0  0
  -29.5028  -34.6986   23.2691 C   0  0  0  0  0  0  0  0  0  0  0  0
  -26.1911  -29.8131   20.2132 C   0  0  0  0  0  0  0  0  0  0  0  0
  -29.1980  -33.3348   23.0974 C   0  0  0  0  0  0  0  0  0  0  0  0
  -28.8746  -22.3777   16.9516 C   0  0  0  0  0  0  0  0  0  0  0  0
  -25.6733  -28.7095   20.9060 C   0  0  0  0  0  0  0  0  0  0  0  0
  -30.1208  -22.4527   19.0200 C   0  0  0  0  0  0  0  0  0  0  0  0
  -28.9925  -24.4324   18.2171 C   0  0  0  0  0  0  0  0  0  0  0  0
  -24.9968  -11.0687   21.0549 C   0  0  0  0  0  0  0  0  0  0  0  0
  -27.1551  -27.2440   19.6543 C   0  0  0  0  0  0  0  0  0  0  0  0
  -25.1672   -9.1343   22.3784 C   0  0  0  0  0  0  0  0  0  0  0  0
  -26.2445   -7.8426   24.6040 C   0  0  0  0  0  0  0  0  0  0  0  0
  -24.3238   -8.6338   23.3703 C   0  0  0  0  0  0  0  0  0  0  0  0
  -26.1253  -15.0891   20.3765 C   0  0  0  0  0  0  0  0  0  0  0  0
  -27.2550  -16.9617   20.1473 C   0  0  0  0  0  0  0  0  0  0  0  0
  -28.6660  -14.9929   20.7651 C   0  0  0  0  0  0  0  0  0  0  0  0
  -26.0503  -31.4043   22.9613 C   0  0  0  0  0  0  0  0  0  0  0  0
  -22.9314  -30.5181   22.8655 C   0  0  0  0  0  0  0  0  0  0  0  0
  -20.5730  -28.3385   21.7105 C   0  0  0  0  0  0  0  0  0  0  0  0
  -24.9757  -20.8821   16.8737 C   0  0  0  0  0  0  0  0  0  0  0  0
  -28.7152  -35.5751   24.2104 C   0  0  0  0  0  0  0  0  0  0  0  0
  -25.6623  -31.1959   20.4789 C   0  0  0  0  0  0  0  0  0  0  0  0
  -24.6034  -28.8626   21.9550 C   0  0  0  0  0  0  0  0  0  0  0  0
  -27.3555  -34.9940   24.5898 C   0  0  0  0  0  0  0  0  0  0  0  0
  -23.0682  -19.7524   19.7171 C   0  0  0  0  0  0  0  0  0  0  0  0
  -27.4905  -33.5222   24.9669 C   0  0  0  0  0  0  0  0  0  0  0  0
  -23.7787  -18.4610   20.1210 C   0  0  0  0  0  0  0  0  0  0  0  0
  -23.0975  -19.9574   18.2059 C   0  0  0  0  0  0  0  0  0  0  0  0
  -25.1918  -18.6390   18.0244 C   0  0  0  0  0  0  0  0  0  0  0  0
  -28.8355  -22.2762   14.4649 C   0  0  0  0  0  0  0  0  0  0  0  0
  -26.6212  -21.2916   14.1770 C   0  0  0  0  0  0  0  0  0  0  0  0
  -28.3891  -21.6183   15.7633 C   0  0  2  0  0  0  0  0  0  0  0  0
  -28.0112  -32.6953   23.7851 C   0  0  1  0  0  0  0  0  0  0  0  0
  -25.0302  -31.3387   21.8600 C   0  0  1  0  0  0  0  0  0  0  0  0
  -25.2055  -18.4127   19.5460 C   0  0  2  0  0  0  0  0  0  0  0  0
  -26.8641  -21.6349   15.6385 C   0  0  2  0  0  0  0  0  0  0  0  0
  -30.1369  -21.1381   21.1550 C   0  0  0  0  0  0  0  0  0  0  0  0
  -18.1148  -27.8487   21.8335 C   0  0  0  0  0  0  0  0  0  0  0  0
  -23.3053  -29.3563   25.6620 C   0  0  0  0  0  0  0  0  0  0  0  0
  -21.1741  -28.0821   25.3418 C   0  0  0  0  0  0  0  0  0  0  0  0
  -21.1493  -30.5764   25.3188 C   0  0  0  0  0  0  0  0  0  0  0  0
  -20.2341  -28.7144   18.7945 C   0  0  0  0  0  0  0  0  0  0  0  0
  -30.9675  -21.7744   20.0436 C   0  0  0  0  0  0  0  0  0  0  0  0
  -28.6299  -25.8789   18.3827 C   0  0  0  0  0  0  0  0  0  1  0  0
  -22.1424  -29.3286   23.3570 C   0  0  1  0  0  0  0  0  0  0  0  0
  -19.2158  -28.5689   21.0706 C   0  0  2  0  0  0  0  0  0  0  0  0
  -21.9643  -29.3328   24.9016 C   0  0  0  0  0  0  0  0  0  0  0  0
  -25.2028  -15.9988   20.0519 N   0  0  0  0  0  0  0  0  0  0  0  0
  -25.9205  -17.1273   19.9193 N   0  0  0  0  0  0  0  0  0  0  0  0
  -24.1232  -30.2355   22.1833 N   0  0  0  0  0  0  0  0  0  0  0  0
  -24.4615  -19.8670   17.6864 N   0  0  0  0  0  0  0  0  0  0  0  0
  -28.1210  -17.9933   20.0562 N   0  0  0  0  0  0  0  0  0  0  0  0
  -28.6582  -13.6210   21.0518 N   0  0  0  0  0  0  0  0  0  0  0  0
  -26.9484  -32.4468   22.8348 N   0  0  0  0  0  0  0  0  0  0  0  0
  -20.8887  -29.3338   22.6109 N   0  0  0  0  0  0  0  0  0  0  0  0
  -27.8481  -21.7679   13.4563 N   0  3  0  0  0  0  0  0  0  0  0  0
  -19.2150  -28.0736   19.6650 N   0  3  0  0  0  0  0  0  0  0  0  0
  -29.7499  -15.6228   20.8072 O   0  0  0  0  0  0  0  0  0  0  0  0
  -26.0236  -30.5717   23.8600 O   0  0  0  0  0  0  0  0  0  0  0  0
  -22.5023  -31.6559   23.0727 O   0  0  0  0  0  0  0  0  0  0  0  0
  -21.2805  -27.3702   21.4414 O   0  0  0  0  0  0  0  0  0  0  0  0
  -24.3511  -21.8889   16.5441 O   0  0  0  0  0  0  0  0  0  0  0  0
  -24.6339   -9.7751   21.2726 O   0  0  0  0  0  0  0  0  0  0  0  0
  -27.6244  -25.9947   19.3886 O   0  0  0  0  0  0  0  0  0  1  0  0
  -26.2636  -20.6397   16.4756 O   0  0  0  0  0  0  0  0  0  0  0  0
  -26.7619   -7.2211   25.6718 F   0  0  0  0  0  0  0  0  0  0  0  0
  -22.9953   -8.7695   23.2592 F   0  0  0  0  0  0  0  0  0  0  0  0
  1  2  1  0  0  0  0
  1  5  2  0  0  0  0
  2  6  2  0  0  0  0
  3  8  2  0  0  0  0
  3 18  1  0  0  0  0
  4  9  1  0  0  0  0
  4 18  2  0  0  0  0
  5 20  1  0  0  0  0
  6 22  1  0  0  0  0
  7 10  2  0  0  0  0
  7 21  1  0  0  0  0
  8 27  1  0  0  0  0
  9 27  2  0  0  0  0
 10 28  1  0  0  0  0
 11 12  2  0  0  0  0
 11 29  1  0  0  0  0
 12 30  1  0  0  0  0
 13 23  2  0  0  0  0
 13 25  1  0  0  0  0
 14 23  1  0  0  0  0
 14 26  2  0  0  0  0
 15 24  1  0  0  0  0
 15 28  2  0  0  0  0
 16 25  2  0  0  0  0
 16 26  1  0  0  0  0
 17 30  2  0  0  0  0
 17 31  1  0  0  0  0
 18 32  1  0  0  0  0
 19 32  1  0  0  0  0
 19 33  2  0  0  0  0
 19 34  1  0  0  0  0
 20 22  2  0  0  0  0
 20 39  1  0  0  0  0
 21 24  2  0  0  0  0
 21 40  1  0  0  0  0
 22 51  1  0  0  0  0
 23 50  1  0  0  0  0
 24 41  1  0  0  0  0
 25 61  1  0  0  0  0
 26 62  1  0  0  0  0
 27 81  1  0  0  0  0
 28 82  1  0  0  0  0
 29 31  2  0  0  0  0
 29 81  1  0  0  0  0
 30 84  1  0  0  0  0
 31 85  1  0  0  0  0
 32 66  2  0  0  0  0
 33 67  1  0  0  0  0
 33 70  1  0  0  0  0
 34 71  1  0  0  0  0
 34 76  2  0  0  0  0
 35 52  1  0  0  0  0
 35 72  1  0  0  0  0
 35 77  2  0  0  0  0
 36 63  1  0  0  0  0
 36 68  1  0  0  0  0
 36 78  2  0  0  0  0
 37 64  1  0  0  0  0
 37 73  1  0  0  0  0
 37 79  2  0  0  0  0
 38 69  1  0  0  0  0
 38 80  2  0  0  0  0
 38 83  1  0  0  0  0
 39 42  1  0  0  0  0
 40 52  1  0  0  0  0
 41 68  1  0  0  0  0
 42 44  1  0  0  0  0
 43 45  1  0  0  0  0
 43 46  1  0  0  0  0
 44 51  1  0  0  0  0
 45 53  1  0  0  0  0
 46 69  1  0  0  0  0
 47 53  1  0  0  0  0
 47 69  1  0  0  0  0
 48 50  1  0  0  0  0
 48 74  1  0  0  0  0
 49 54  1  0  0  0  0
 49 74  1  0  0  0  0
 50 54  1  0  0  0  0
 51 72  1  0  0  0  0
 52 68  1  0  0  0  0
 53 67  1  0  0  0  0
 54 83  1  0  0  0  0
 55 61  1  0  0  0  0
 56 64  1  0  0  0  0
 57 65  1  0  0  0  0
 58 65  1  0  0  0  0
 59 65  1  0  0  0  0
 60 75  1  0  0  0  0
 62 82  1  0  0  0  0
 63 65  1  0  0  0  0
 63 73  1  0  0  0  0
 64 75  1  0  0  0  0
 66 67  1  0  0  0  0
M  CHG  2  74   1  75   1
M  ISO  4  38 100  62 101  82 101  83 100
M  END
> <Batch ID>
0138

> <Smiles>
CCc1cc(C2CNCC2[100O:0][100C:0](=O)N2CCCC(n3nc(-c4ccc(Oc5ccc(F)cc5F)cc4)c(C(N)=O)c3N)C2)cc([101CH2:1][101O:1]c2ccc3c(c2)CN(C(=O)C(NC(=O)C(C)NC)C(C)(C)C)C(C(=O)NC2CCCc4ccccc42)C3)c1

> <Shape>
0.233

> <Color>
0.071

> <Negative vol penalty>
0.000

$$$$

  -OEChem-04052321083D

 89 98  0     1  0  0  0  0  0999 V2000
  -22.7918   -7.9850   20.7125 C   0  0  0  0  0  0  0  0  0  0  0  0
  -22.1204   -9.1864   20.5095 C   0  0  0  0  0  0  0  0  0  0  0  0
  -28.0960  -26.7106   18.6923 C   0  0  0  0  0  0  0  0  0  0  0  0
  -29.2914  -27.0276   20.7678 C   0  0  0  0  0  0  0  0  0  0  0  0
  -23.9962   -7.9709   21.4149 C   0  0  0  0  0  0  0  0  0  0  0  0
  -22.6524  -10.3744   21.0097 C   0  0  0  0  0  0  0  0  0  0  0  0
  -23.0811  -17.3664   19.5116 C   0  0  0  0  0  0  0  0  0  0  0  0
  -28.7563  -25.4976   18.4973 C   0  0  0  0  0  0  0  0  0  0  0  0
  -29.9516  -25.8145   20.5728 C   0  0  0  0  0  0  0  0  0  0  0  0
  -22.8451  -18.6097   20.0967 C   0  0  0  0  0  0  0  0  0  0  0  0
  -28.5230  -22.3231   19.6380 C   0  0  0  0  0  0  0  0  0  0  0  0
  -27.7609  -21.2287   19.2292 C   0  0  0  0  0  0  0  0  0  0  0  0
  -24.9724  -18.4751   21.2263 C   0  0  0  0  0  0  0  0  0  0  0  0
  -29.0972  -21.0469   17.2246 C   0  0  0  0  0  0  0  0  0  0  0  0
  -28.3636  -27.4757   19.8276 C   0  0  0  0  0  0  0  0  0  0  0  0
  -27.7112  -29.8575   19.1879 C   0  0  0  0  0  0  0  0  0  0  0  0
  -24.5481   -9.1606   21.9156 C   0  0  0  0  0  0  0  0  0  0  0  0
  -24.2616  -16.6620   19.7885 C   0  0  0  0  0  0  0  0  0  0  0  0
  -23.8645  -10.3760   21.7206 C   0  0  0  0  0  0  0  0  0  0  0  0
  -25.2221  -17.2242   20.6415 C   0  0  0  0  0  0  0  0  0  0  0  0
  -29.6840  -25.0494   19.4375 C   0  0  0  0  0  0  0  0  0  0  0  0
  -23.7895  -19.1629   20.9564 C   0  0  0  0  0  0  0  0  0  0  0  0
  -29.5722  -22.7795   18.8401 C   0  0  0  0  0  0  0  0  0  0  0  0
  -28.0480  -20.5906   18.0225 C   0  0  0  0  0  0  0  0  0  0  0  0
  -29.8593  -22.1413   17.6334 C   0  0  0  0  0  0  0  0  0  0  0  0
  -27.6823  -28.7292   20.0293 C   0  0  0  0  0  0  0  0  0  0  0  0
  -26.9086  -30.7766   19.8184 C   0  0  0  0  0  0  0  0  0  0  0  0
  -28.4018  -30.0569   17.9473 C   0  0  0  0  0  0  0  0  0  0  0  0
  -24.9404  -13.8611   21.1294 C   0  0  0  0  0  0  0  0  0  0  0  0
  -27.9629  -14.5923   20.2065 C   0  0  0  0  0  0  0  0  0  0  0  0
  -21.6852  -26.5805   23.4044 C   0  0  0  0  0  0  0  0  0  0  0  0
  -30.2363  -16.9979   19.3748 C   0  0  0  0  0  0  0  0  0  0  0  0
  -22.3764  -30.2521   23.6959 C   0  0  0  0  0  0  0  0  0  0  0  0
  -25.8284   -9.0891   22.7095 C   0  0  0  0  0  0  0  0  0  0  0  0
  -24.5131  -15.3340   19.1285 C   0  0  0  0  0  0  0  0  0  0  0  0
  -26.5147  -16.5177   20.9554 C   0  0  0  0  0  0  0  0  0  0  0  0
  -26.5139  -10.4419   22.8830 C   0  0  0  0  0  0  0  0  0  0  0  0
  -25.4008  -32.0698   24.1710 C   0  0  0  0  0  0  0  0  0  0  0  0
  -25.5014  -11.5039   23.2999 C   0  0  0  0  0  0  0  0  0  0  0  0
  -26.3311  -31.5216   23.0875 C   0  0  0  0  0  0  0  0  0  0  0  0
  -21.5316  -22.9605   21.0112 C   0  0  0  0  0  0  0  0  0  0  0  0
  -21.6661  -21.5004   20.5651 C   0  0  0  0  0  0  0  0  0  0  0  0
  -22.1309  -21.7059   22.9508 C   0  0  0  0  0  0  0  0  0  0  0  0
  -24.4992  -30.9793   24.7454 C   0  0  0  0  0  0  0  0  0  0  0  0
  -24.6546  -29.6764   22.6592 C   0  0  0  0  0  0  0  0  0  0  0  0
  -20.0938  -26.4681   21.4324 C   0  0  0  0  0  0  0  0  0  0  0  0
  -18.3110  -28.0500   23.1132 C   0  0  0  0  0  0  0  0  0  0  0  0
  -24.4221  -11.6888   22.2264 C   0  0  1  0  0  0  0  0  0  0  0  0
  -25.5193  -14.4719   19.8847 C   0  0  1  0  0  0  0  0  0  0  0  0
  -25.5444  -30.7505   22.0105 C   0  0  2  0  0  0  0  0  0  0  0  0
  -22.3721  -23.0449   22.2731 C   0  0  2  0  0  0  0  0  0  0  0  0
  -22.2042  -20.7308   21.7778 C   0  0  2  0  0  0  0  0  0  1  0  0
  -19.8270  -28.2045   23.2248 C   0  0  2  0  0  0  0  0  0  0  0  0
  -18.5765  -26.3160   21.3476 C   0  0  2  0  0  0  0  0  0  0  0  0
  -18.1164  -25.9594   19.9413 C   0  0  0  0  0  0  0  0  0  0  0  0
  -23.9517  -25.5623   23.1688 C   0  0  0  0  0  0  0  0  0  0  0  0
  -32.4041  -17.9755   18.5734 C   0  0  0  0  0  0  0  0  0  0  0  0
  -28.8256  -14.1191   23.0947 C   0  0  0  0  0  0  0  0  0  0  0  0
  -30.9607  -15.3213   22.5807 C   0  0  0  0  0  0  0  0  0  0  0  0
  -30.3977  -13.2116   21.3744 C   0  0  0  0  0  0  0  0  0  0  0  0
  -29.3533  -16.9376   16.5507 C   0  0  0  0  0  0  0  0  0  0  0  0
  -20.3376  -29.4653   22.5197 C   0  0  0  0  0  0  0  0  0  0  0  0
  -29.1236  -15.3271   20.8325 C   0  0  1  0  0  0  0  0  0  0  0  0
  -22.4971  -25.4947   22.7437 C   0  0  1  0  0  0  0  0  0  0  0  0
  -31.2088  -17.1067   18.2142 C   0  0  2  0  0  0  0  0  0  0  0  0
  -29.8018  -14.5075   21.9664 C   0  0  0  0  0  0  0  0  0  0  0  0
  -26.9217  -28.9126   21.1118 N   0  0  0  0  0  0  0  0  0  0  0  0
  -26.4653  -30.1669   20.9550 N   0  0  0  0  0  0  0  0  0  0  0  0
  -26.7115  -15.2190   20.2904 N   0  0  0  0  0  0  0  0  0  0  0  0
  -20.5368  -27.0089   22.7282 N   0  0  0  0  0  0  0  0  0  0  0  0
  -23.7804  -30.2876   23.6726 N   0  0  0  0  0  0  0  0  0  0  0  0
  -26.5459  -32.0389   19.5059 N   0  0  0  0  0  0  0  0  0  0  0  0
  -29.7007  -30.5822   17.9826 N   0  0  0  0  0  0  0  0  0  0  0  0
  -24.9330  -12.4793   21.1270 N   0  0  0  0  0  0  0  0  0  0  0  0
  -30.0183  -15.6855   19.7372 N   0  0  0  0  0  0  0  0  0  0  0  0
  -21.7740  -29.5817   22.6384 N   0  0  0  0  0  0  0  0  0  0  0  0
  -17.9373  -27.6111   21.7392 N   0  3  0  0  0  0  0  0  0  0  0  0
  -21.9420  -24.1638   23.1295 N   0  3  0  0  0  0  0  0  0  0  0  0
  -30.5338  -17.7034   17.0271 N   0  3  0  0  0  0  0  0  0  0  0  0
  -27.8762  -29.7929   16.8394 O   0  0  0  0  0  0  0  0  0  0  0  0
  -24.5321  -14.5895   22.0263 O   0  0  0  0  0  0  0  0  0  0  0  0
  -28.1606  -13.5058   19.6569 O   0  0  0  0  0  0  0  0  0  0  0  0
  -22.0575  -27.0329   24.4904 O   0  0  0  0  0  0  0  0  0  0  0  0
  -29.7243  -17.9793   19.9090 O   0  0  0  0  0  0  0  0  0  0  0  0
  -21.7090  -30.7835   24.5899 O   0  0  0  0  0  0  0  0  0  0  0  0
  -30.3283  -23.8656   19.2477 O   0  0  0  0  0  0  0  0  0  0  0  0
  -23.5614  -20.3760   21.5293 O   0  0  0  0  0  0  0  0  0  1  0  0
  -27.3171  -19.5387   17.6309 F   0  0  0  0  0  0  0  0  0  0  0  0
  -30.8668  -22.5745   16.8632 F   0  0  0  0  0  0  0  0  0  0  0  0
  1  2  1  0  0  0  0
  1  5  2  0  0  0  0
  2  6  2  0  0  0  0
  3  8  2  0  0  0  0
  3 15  1  0  0  0  0
  4  9  1  0  0  0  0
  4 15  2  0  0  0  0
  5 17  1  0  0  0  0
  6 19  1  0  0  0  0
  7 10  2  0  0  0  0
  7 18  1  0  0  0  0
  8 21  1  0  0  0  0
  9 21  2  0  0  0  0
 10 22  1  0  0  0  0
 11 12  2  0  0  0  0
 11 23  1  0  0  0  0
 12 24  1  0  0  0  0
 13 20  1  0  0  0  0
 13 22  2  0  0  0  0
 14 24  2  0  0  0  0
 14 25  1  0  0  0  0
 15 26  1  0  0  0  0
 16 26  1  0  0  0  0
 16 27  2  0  0  0  0
 16 28  1  0  0  0  0
 17 19  2  0  0  0  0
 17 34  1  0  0  0  0
 18 20  2  0  0  0  0
 18 35  1  0  0  0  0
 19 48  1  0  0  0  0
 20 36  1  0  0  0  0
 21 86  1  0  0  0  0
 22 87  1  0  0  0  0
 23 25  2  0  0  0  0
 23 86  1  0  0  0  0
 24 88  1  0  0  0  0
 25 89  1  0  0  0  0
 26 67  2  0  0  0  0
 27 68  1  0  0  0  0
 27 72  1  0  0  0  0
 28 73  1  0  0  0  0
 28 80  2  0  0  0  0
 29 49  1  0  0  0  0
 29 74  1  0  0  0  0
 29 81  2  0  0  0  0
 30 63  1  0  0  0  0
 30 69  1  0  0  0  0
 30 82  2  0  0  0  0
 31 64  1  0  0  0  0
 31 70  1  0  0  0  0
 31 83  2  0  0  0  0
 32 65  1  0  0  0  0
 32 75  1  0  0  0  0
 32 84  2  0  0  0  0
 33 71  1  0  0  0  0
 33 76  1  0  0  0  0
 33 85  2  0  0  0  0
 34 37  1  0  0  0  0
 35 49  1  0  0  0  0
 36 69  1  0  0  0  0
 37 39  1  0  0  0  0
 38 40  1  0  0  0  0
 38 44  1  0  0  0  0
 39 48  1  0  0  0  0
 40 50  1  0  0  0  0
 41 42  1  0  0  0  0
 41 51  1  0  0  0  0
 42 52  1  0  0  0  0
 43 51  1  0  0  0  0
 43 52  1  0  0  0  0
 44 71  1  0  0  0  0
 45 50  1  0  0  0  0
 45 71  1  0  0  0  0
 46 54  1  0  0  0  0
 46 70  1  0  0  0  0
 47 53  1  0  0  0  0
 47 77  1  0  0  0  0
 48 74  1  0  0  0  0
 49 69  1  0  0  0  0
 50 68  1  0  0  0  0
 51 78  1  0  0  0  0
 52 87  1  0  0  0  0
 53 62  1  0  0  0  0
 53 70  1  0  0  0  0
 54 55  1  0  0  0  0
 54 77  1  0  0  0  0
 56 64  1  0  0  0  0
 57 65  1  0  0  0  0
 58 66  1  0  0  0  0
 59 66  1  0  0  0  0
 60 66  1  0  0  0  0
 61 79  1  0  0  0  0
 62 76  1  0  0  0  0
 63 66  1  0  0  0  0
 63 75  1  0  0  0  0
 64 78  1  0  0  0  0
 65 79  1  0  0  0  0
 67 68  1  0  0  0  0
M  CHG  3  77   1  78   1  79   1
M  ISO  4  33 100  52 101  76 100  87 101
M  END
> <Batch ID>
0138

> <Smiles>
CNC(C)C(=O)NC(C(=O)N1Cc2cc([101O:1][101CH:1]3CCC(NC(C)C(=O)N4CC(C)NCC4C[100NH:0][100C:0](=O)N4CCCC(n5nc(-c6ccc(Oc7ccc(F)cc7F)cc6)c(C(N)=O)c5N)C4)C3)ccc2CC1C(=O)NC1CCCc2ccccc21)C(C)(C)C

> <Shape>
0.300

> <Color>
0.060

> <Negative vol penalty>
0.000

$$$$

  -OEChem-04052321083D

 85 94  0     1  0  0  0  0  0999 V2000
  -29.7853  -12.6712   19.6129 C   0  0  0  0  0  0  0  0  0  0  0  0
  -29.6638  -14.0564   19.5726 C   0  0  0  0  0  0  0  0  0  0  0  0
  -29.5985  -23.3357   19.3290 C   0  0  0  0  0  0  0  0  0  0  0  0
  -30.8370  -24.7499   20.8467 C   0  0  0  0  0  0  0  0  0  0  0  0
  -28.6446  -11.8708   19.5657 C   0  0  0  0  0  0  0  0  0  0  0  0
  -28.4015  -14.6422   19.4840 C   0  0  0  0  0  0  0  0  0  0  0  0
  -26.5709  -19.9510   22.1035 C   0  0  0  0  0  0  0  0  0  0  0  0
  -30.1842  -22.2072   19.9025 C   0  0  0  0  0  0  0  0  0  0  0  0
  -31.4227  -23.6213   21.4202 C   0  0  0  0  0  0  0  0  0  0  0  0
  -26.4355  -21.2552   21.6296 C   0  0  0  0  0  0  0  0  0  0  0  0
  -32.9716  -21.0936   23.5249 C   0  0  0  0  0  0  0  0  0  0  0  0
  -33.0391  -21.0335   24.9168 C   0  0  0  0  0  0  0  0  0  0  0  0
  -21.4982  -28.4636   21.9088 C   0  0  0  0  0  0  0  0  0  0  0  0
  -24.1079  -20.8350   21.1563 C   0  0  0  0  0  0  0  0  0  0  0  0
  -20.5272  -26.1089   20.6807 C   0  0  0  0  0  0  0  0  0  0  0  0
  -30.6298  -21.1665   25.0393 C   0  0  0  0  0  0  0  0  0  0  0  0
  -29.9249  -24.6071   19.8011 C   0  0  0  0  0  0  0  0  0  0  0  0
  -29.4044  -26.1844   17.8649 C   0  0  0  0  0  0  0  0  0  0  0  0
  -27.3671  -12.4473   19.4862 C   0  0  0  0  0  0  0  0  0  0  0  0
  -25.4767  -19.0738   22.0979 C   0  0  0  0  0  0  0  0  0  0  0  0
  -27.2427  -13.8488   19.4344 C   0  0  0  0  0  0  0  0  0  0  0  0
  -20.2648  -27.9359   22.2524 C   0  0  0  0  0  0  0  0  0  0  0  0
  -24.2310  -19.5218   21.6351 C   0  0  0  0  0  0  0  0  0  0  0  0
  -19.7802  -26.7731   21.6405 C   0  0  0  0  0  0  0  0  0  0  0  0
  -22.2590  -27.7968   20.9463 C   0  0  0  0  0  0  0  0  0  0  0  0
  -31.0963  -22.3500   20.9481 C   0  0  0  0  0  0  0  0  0  0  0  0
  -25.2044  -21.6966   21.1538 C   0  0  0  0  0  0  0  0  0  0  0  0
  -31.7333  -21.1902   22.8902 C   0  0  0  0  0  0  0  0  0  0  0  0
  -21.7774  -26.6273   20.3373 C   0  0  0  0  0  0  0  0  0  0  0  0
  -31.8682  -21.0699   25.6740 C   0  0  0  0  0  0  0  0  0  0  0  0
  -30.5624  -21.2266   23.6474 C   0  0  0  0  0  0  0  0  0  0  0  0
  -29.3206  -25.7733   19.2087 C   0  0  0  0  0  0  0  0  0  0  0  0
  -28.6650  -27.3407   17.8128 C   0  0  0  0  0  0  0  0  0  0  0  0
  -30.0894  -25.5755   16.7623 C   0  0  0  0  0  0  0  0  0  0  0  0
  -24.7694  -16.2578   20.7505 C   0  0  0  0  0  0  0  0  0  0  0  0
  -22.0675  -16.6144   22.6548 C   0  0  0  0  0  0  0  0  0  0  0  0
  -21.2929  -13.3418   22.0809 C   0  0  0  0  0  0  0  0  0  0  0  0
  -24.1513  -29.4517   21.1106 C   0  0  0  0  0  0  0  0  0  0  0  0
  -26.1661  -11.5402   19.3900 C   0  0  0  0  0  0  0  0  0  0  0  0
  -25.6366  -17.6799   22.6418 C   0  0  0  0  0  0  0  0  0  0  0  0
  -19.2673  -28.4880   23.2205 C   0  0  0  0  0  0  0  0  0  0  0  0
  -23.0259  -18.6208   21.6118 C   0  0  0  0  0  0  0  0  0  0  0  0
  -24.8438  -12.2481   19.6743 C   0  0  0  0  0  0  0  0  0  0  0  0
  -18.3622  -27.2665   23.4455 C   0  0  0  0  0  0  0  0  0  0  0  0
  -27.2898  -31.0320   20.5364 C   0  0  0  0  0  0  0  0  0  0  0  0
  -24.7727  -13.5705   18.9174 C   0  0  0  0  0  0  0  0  0  0  0  0
  -28.1726  -29.9015   20.0027 C   0  0  0  0  0  0  0  0  0  0  0  0
  -26.3279  -30.5389   21.6159 C   0  0  0  0  0  0  0  0  0  0  0  0
  -26.3895  -28.2524   20.7010 C   0  0  0  0  0  0  0  0  0  0  0  0
  -18.4126  -26.4219   22.1541 C   0  0  1  0  0  0  0  0  0  0  0  0
  -25.8893  -14.5222   19.3634 C   0  0  1  0  0  0  0  0  0  0  0  0
  -24.5551  -16.7118   22.1667 C   0  0  1  0  0  0  0  0  0  0  0  0
  -27.3302  -28.6872   19.5654 C   0  0  2  0  0  0  0  0  0  0  0  0
  -17.3162  -26.8019   21.1661 C   0  0  0  0  0  0  0  0  0  0  0  0
  -19.7210  -11.5307   22.8203 C   0  0  0  0  0  0  0  0  0  0  0  0
  -23.6801  -16.2671   25.2209 C   0  0  0  0  0  0  0  0  0  0  0  0
  -22.7283  -13.9603   25.4232 C   0  0  0  0  0  0  0  0  0  0  0  0
  -21.2146  -15.9421   25.4858 C   0  0  0  0  0  0  0  0  0  0  0  0
  -20.1494  -13.0653   19.3652 C   0  0  0  0  0  0  0  0  0  0  0  0
  -24.2135  -24.3149   19.0110 C   0  0  0  0  0  0  0  0  0  0  0  0
  -22.8916  -24.6273   19.6955 C   0  0  0  0  0  0  0  0  0  0  0  0
  -22.2813  -15.2658   23.2956 C   0  0  1  0  0  0  0  0  0  0  0  0
  -19.9662  -12.6510   21.8216 C   0  0  2  0  0  0  0  0  0  0  0  0
  -22.4903  -15.3666   24.8330 C   0  0  0  0  0  0  0  0  0  0  0  0
  -28.5860  -26.6012   19.9563 N   0  0  0  0  0  0  0  0  0  0  0  0
  -28.2016  -27.5441   19.0793 N   0  0  0  0  0  0  0  0  0  0  0  0
  -23.2118  -17.3015   22.2298 N   0  0  0  0  0  0  0  0  0  0  0  0
  -25.5608  -29.3903   21.1291 N   0  0  0  0  0  0  0  0  0  0  0  0
  -28.3726  -28.1932   16.8078 N   0  0  0  0  0  0  0  0  0  0  0  0
  -31.4171  -25.9484   16.5123 N   0  0  0  0  0  0  0  0  0  0  0  0
  -23.5313  -28.3133   20.5965 N   0  0  0  0  0  0  0  0  0  0  0  0
  -25.5582  -15.1292   20.6348 N   0  0  0  0  0  0  0  0  0  0  0  0
  -21.1447  -14.4412   22.8998 N   0  0  0  0  0  0  0  0  0  0  0  0
  -24.6483  -22.9538   19.2906 N   0  0  0  0  0  0  0  0  0  1  0  0
  -19.9441  -12.0704   20.4492 N   0  3  0  0  0  0  0  0  0  0  0  0
  -29.5350  -24.7380   16.0107 O   0  0  0  0  0  0  0  0  0  0  0  0
  -24.2557  -16.8842   19.8310 O   0  0  0  0  0  0  0  0  0  0  0  0
  -20.9193  -17.0522   22.5401 O   0  0  0  0  0  0  0  0  0  0  0  0
  -22.3549  -12.9435   21.6077 O   0  0  0  0  0  0  0  0  0  0  0  0
  -23.5402  -30.4519   21.4953 O   0  0  0  0  0  0  0  0  0  0  0  0
  -31.6679  -21.2490   21.5082 O   0  0  0  0  0  0  0  0  0  0  0  0
  -22.5299  -25.9698   19.3998 O   0  0  0  0  0  0  0  0  0  0  0  0
  -25.0693  -22.9693   20.6912 O   0  0  0  0  0  0  0  0  0  1  0  0
  -31.9331  -21.0107   27.0106 F   0  0  0  0  0  0  0  0  0  0  0  0
  -29.3697  -21.3182   23.0432 F   0  0  0  0  0  0  0  0  0  0  0  0
  1  2  1  0  0  0  0
  1  5  2  0  0  0  0
  2  6  2  0  0  0  0
  3  8  2  0  0  0  0
  3 17  1  0  0  0  0
  4  9  1  0  0  0  0
  4 17  2  0  0  0  0
  5 19  1  0  0  0  0
  6 21  1  0  0  0  0
  7 10  2  0  0  0  0
  7 20  1  0  0  0  0
  8 26  1  0  0  0  0
  9 26  2  0  0  0  0
 10 27  1  0  0  0  0
 11 12  2  0  0  0  0
 11 28  1  0  0  0  0
 12 30  1  0  0  0  0
 13 22  2  0  0  0  0
 13 25  1  0  0  0  0
 14 23  1  0  0  0  0
 14 27  2  0  0  0  0
 15 24  2  0  0  0  0
 15 29  1  0  0  0  0
 16 30  2  0  0  0  0
 16 31  1  0  0  0  0
 17 32  1  0  0  0  0
 18 32  1  0  0  0  0
 18 33  2  0  0  0  0
 18 34  1  0  0  0  0
 19 21  2  0  0  0  0
 19 39  1  0  0  0  0
 20 23  2  0  0  0  0
 20 40  1  0  0  0  0
 21 51  1  0  0  0  0
 22 24  1  0  0  0  0
 22 41  1  0  0  0  0
 23 42  1  0  0  0  0
 24 50  1  0  0  0  0
 25 29  2  0  0  0  0
 25 71  1  0  0  0  0
 26 81  1  0  0  0  0
 27 83  1  0  0  0  0
 28 31  2  0  0  0  0
 28 81  1  0  0  0  0
 29 82  1  0  0  0  0
 30 84  1  0  0  0  0
 31 85  1  0  0  0  0
 32 65  2  0  0  0  0
 33 66  1  0  0  0  0
 33 69  1  0  0  0  0
 34 70  1  0  0  0  0
 34 76  2  0  0  0  0
 35 52  1  0  0  0  0
 35 72  1  0  0  0  0
 35 77  2  0  0  0  0
 36 62  1  0  0  0  0
 36 67  1  0  0  0  0
 36 78  2  0  0  0  0
 37 63  1  0  0  0  0
 37 73  1  0  0  0  0
 37 79  2  0  0  0  0
 38 68  1  0  0  0  0
 38 71  1  0  0  0  0
 38 80  2  0  0  0  0
 39 43  1  0  0  0  0
 40 52  1  0  0  0  0
 41 44  1  0  0  0  0
 42 67  1  0  0  0  0
 43 46  1  0  0  0  0
 44 50  1  0  0  0  0
 45 47  1  0  0  0  0
 45 48  1  0  0  0  0
 46 51  1  0  0  0  0
 47 53  1  0  0  0  0
 48 68  1  0  0  0  0
 49 53  1  0  0  0  0
 49 68  1  0  0  0  0
 50 54  1  0  0  0  0
 51 72  1  0  0  0  0
 52 67  1  0  0  0  0
 53 66  1  0  0  0  0
 55 63  1  0  0  0  0
 56 64  1  0  0  0  0
 57 64  1  0  0  0  0
 58 64  1  0  0  0  0
 59 75  1  0  0  0  0
 60 61  1  0  0  0  0
 60 74  1  0  0  0  0
 61 82  1  0  0  0  0
 62 64  1  0  0  0  0
 62 73  1  0  0  0  0
 63 75  1  0  0  0  0
 65 66  1  0  0  0  0
 74 83  1  0  0  0  0
M  CHG  1  75   1
M  ISO  4  38 100  71 100  74 101  83 101
M  END
> <Batch ID>
0138

> <Smiles>
CNC(C)C(=O)NC(C(=O)N1Cc2cc([101O:1][101NH:1]CCOc3cc4c(cc3[100NH:0][100C:0](=O)N3CCCC(n5nc(-c6ccc(Oc7ccc(F)cc7F)cc6)c(C(N)=O)c5N)C3)CCC4C)ccc2CC1C(=O)NC1CCCc2ccccc21)C(C)(C)C

> <Shape>
0.213

> <Color>
0.070

> <Negative vol penalty>
0.000

$$$$

  -OEChem-04052321083D

 86 94  0     1  0  0  0  0  0999 V2000
  -22.5343   -8.0812   20.6309 C   0  0  0  0  0  0  0  0  0  0  0  0
  -21.7182   -9.1866   20.8489 C   0  0  0  0  0  0  0  0  0  0  0  0
  -29.1583  -26.6107   20.5161 C   0  0  0  0  0  0  0  0  0  0  0  0
  -27.2709  -25.2661   19.8329 C   0  0  0  0  0  0  0  0  0  0  0  0
  -23.8725   -8.1165   21.0207 C   0  0  0  0  0  0  0  0  0  0  0  0
  -22.2396  -10.3275   21.4579 C   0  0  0  0  0  0  0  0  0  0  0  0
  -21.5833  -17.4609   21.4386 C   0  0  0  0  0  0  0  0  0  0  0  0
  -29.9122  -25.4535   20.7113 C   0  0  0  0  0  0  0  0  0  0  0  0
  -28.0248  -24.1088   20.0280 C   0  0  0  0  0  0  0  0  0  0  0  0
  -21.3816  -18.5264   22.3149 C   0  0  0  0  0  0  0  0  0  0  0  0
  -32.4473  -22.8693   21.0434 C   0  0  0  0  0  0  0  0  0  0  0  0
  -33.7533  -22.8559   20.5539 C   0  0  0  0  0  0  0  0  0  0  0  0
  -23.7280  -18.5025   22.8745 C   0  0  0  0  0  0  0  0  0  0  0  0
  -20.2740  -24.2951   22.6052 C   0  0  0  0  0  0  0  0  0  0  0  0
  -32.9184  -23.2223   18.3165 C   0  0  0  0  0  0  0  0  0  0  0  0
  -21.1530  -26.2122   24.3365 C   0  0  0  0  0  0  0  0  0  0  0  0
  -27.8377  -26.5170   20.0770 C   0  0  0  0  0  0  0  0  0  0  0  0
  -26.9490  -28.4665   18.6923 C   0  0  0  0  0  0  0  0  0  0  0  0
  -24.4130   -9.2619   21.6260 C   0  0  0  0  0  0  0  0  0  0  0  0
  -22.8590  -16.9002   21.2815 C   0  0  0  0  0  0  0  0  0  0  0  0
  -23.5859  -10.3776   21.8574 C   0  0  0  0  0  0  0  0  0  0  0  0
  -23.9437  -17.4317   21.9936 C   0  0  0  0  0  0  0  0  0  0  0  0
  -19.6242  -25.5235   22.6498 C   0  0  0  0  0  0  0  0  0  0  0  0
  -20.0658  -26.5058   23.5292 C   0  0  0  0  0  0  0  0  0  0  0  0
  -29.3454  -24.2025   20.4672 C   0  0  0  0  0  0  0  0  0  0  0  0
  -22.4535  -19.0454   23.0352 C   0  0  0  0  0  0  0  0  0  0  0  0
  -31.3768  -23.0592   20.1696 C   0  0  0  0  0  0  0  0  0  0  0  0
  -33.9889  -23.0324   19.1904 C   0  0  0  0  0  0  0  0  0  0  0  0
  -31.6123  -23.2357   18.8061 C   0  0  0  0  0  0  0  0  0  0  0  0
  -27.0583  -27.7121   19.8758 C   0  0  0  0  0  0  0  0  0  0  0  0
  -21.3519  -24.1006   23.4537 C   0  0  0  0  0  0  0  0  0  0  0  0
  -26.0979  -29.4943   19.0176 C   0  0  0  0  0  0  0  0  0  0  0  0
  -27.5619  -28.2569   17.4132 C   0  0  0  0  0  0  0  0  0  0  0  0
  -24.1279  -14.0322   21.7991 C   0  0  0  0  0  0  0  0  0  0  0  0
  -26.7311  -15.3601   20.3912 C   0  0  0  0  0  0  0  0  0  0  0  0
  -28.4712  -18.1873   19.6001 C   0  0  0  0  0  0  0  0  0  0  0  0
  -21.8115  -30.0837   23.1564 C   0  0  0  0  0  0  0  0  0  0  0  0
  -25.8532   -9.2358   22.0731 C   0  0  0  0  0  0  0  0  0  0  0  0
  -23.0650  -15.7687   20.3122 C   0  0  0  0  0  0  0  0  0  0  0  0
  -25.3369  -16.8787   21.8457 C   0  0  0  0  0  0  0  0  0  0  0  0
  -26.4234  -10.6198   22.3722 C   0  0  0  0  0  0  0  0  0  0  0  0
  -24.6821  -32.1481   22.7383 C   0  0  0  0  0  0  0  0  0  0  0  0
  -25.4496  -11.4251   23.2267 C   0  0  0  0  0  0  0  0  0  0  0  0
  -25.6067  -31.3133   21.8504 C   0  0  0  0  0  0  0  0  0  0  0  0
  -23.9074  -31.2759   23.7238 C   0  0  0  0  0  0  0  0  0  0  0  0
  -24.0819  -29.3295   22.2223 C   0  0  0  0  0  0  0  0  0  0  0  0
  -24.1210  -11.6427   22.4926 C   0  0  1  0  0  0  0  0  0  0  0  0
  -24.3098  -14.9407   20.6162 C   0  0  1  0  0  0  0  0  0  0  0  0
  -24.8428  -30.1592   21.1739 C   0  0  2  0  0  0  0  0  0  0  0  0
  -30.5824  -18.9523   18.4797 C   0  0  0  0  0  0  0  0  0  0  0  0
  -16.7184  -24.8675   23.3801 C   0  0  0  0  0  0  0  0  0  0  0  0
  -16.1605  -25.0836   20.9499 C   0  0  0  0  0  0  0  0  0  0  0  0
  -28.3389  -14.4961   22.8363 C   0  0  0  0  0  0  0  0  0  0  0  0
  -30.1451  -16.0750   22.1200 C   0  0  0  0  0  0  0  0  0  0  0  0
  -29.5061  -14.1639   20.6496 C   0  0  0  0  0  0  0  0  0  0  0  0
  -26.9711  -19.7250   17.5644 C   0  0  0  0  0  0  0  0  0  0  0  0
  -18.4592  -25.7656   21.7482 C   0  0  0  0  0  0  0  0  0  0  0  0
  -19.4069  -27.8384   23.6180 C   0  0  0  0  0  0  0  0  0  0  0  0
  -19.7986  -28.7963   22.4854 C   0  0  0  0  0  0  0  0  0  0  0  0
  -22.8250  -22.3544   24.4570 C   0  0  0  0  0  0  0  0  0  0  0  0
  -23.3542  -20.9789   24.0869 C   0  0  0  0  0  0  0  0  0  1  0  0
  -27.9341  -16.1306   20.8792 C   0  0  1  0  0  0  0  0  0  0  0  0
  -29.1027  -18.6507   18.2997 C   0  0  2  0  0  0  0  0  0  0  0  0
  -17.2757  -24.7897   21.9565 C   0  0  0  0  0  0  0  0  0  0  0  0
  -28.9546  -15.2258   21.6257 C   0  0  0  0  0  0  0  0  0  0  0  0
  -21.8098  -25.0307   24.3214 N   0  0  0  0  0  0  0  0  0  0  0  0
  -26.3346  -28.2176   20.8782 N   0  0  0  0  0  0  0  0  0  0  0  0
  -25.7625  -29.3007   20.3253 N   0  0  0  0  0  0  0  0  0  0  0  0
  -25.4862  -15.7684   20.8904 N   0  0  0  0  0  0  0  0  0  0  0  0
  -23.2043  -30.2018   23.0183 N   0  0  0  0  0  0  0  0  0  0  0  0
  -25.6113  -30.5357   18.3097 N   0  0  0  0  0  0  0  0  0  0  0  0
  -28.4087  -27.1519   17.2511 N   0  0  0  0  0  0  0  0  0  0  0  0
  -21.9891  -22.8720   23.3981 N   0  0  0  0  0  0  0  0  0  0  0  0
  -24.2565  -12.6889   21.5019 N   0  0  0  0  0  0  0  0  0  0  0  0
  -28.4826  -16.8131   19.7122 N   0  0  0  0  0  0  0  0  0  0  0  0
  -21.2230  -29.0425   22.4491 N   0  0  0  0  0  0  0  0  0  0  0  0
  -28.4280  -19.8848   17.8071 N   0  3  0  0  0  0  0  0  0  0  0  0
  -27.3774  -29.0359   16.4474 O   0  0  0  0  0  0  0  0  0  0  0  0
  -23.8901  -14.5144   22.9003 O   0  0  0  0  0  0  0  0  0  0  0  0
  -26.8895  -14.4348   19.5910 O   0  0  0  0  0  0  0  0  0  0  0  0
  -28.0169  -18.9667   20.4348 O   0  0  0  0  0  0  0  0  0  0  0  0
  -21.1412  -30.8527   23.8538 O   0  0  0  0  0  0  0  0  0  0  0  0
  -30.0808  -23.0731   20.6573 O   0  0  0  0  0  0  0  0  0  0  0  0
  -22.2592  -20.0849   23.8917 O   0  0  0  0  0  0  0  0  0  1  0  0
  -35.2432  -23.0210   18.7206 F   0  0  0  0  0  0  0  0  0  0  0  0
  -30.5880  -23.4197   17.9619 F   0  0  0  0  0  0  0  0  0  0  0  0
  1  2  1  0  0  0  0
  1  5  2  0  0  0  0
  2  6  2  0  0  0  0
  3  8  2  0  0  0  0
  3 17  1  0  0  0  0
  4  9  1  0  0  0  0
  4 17  2  0  0  0  0
  5 19  1  0  0  0  0
  6 21  1  0  0  0  0
  7 10  2  0  0  0  0
  7 20  1  0  0  0  0
  8 25  1  0  0  0  0
  9 25  2  0  0  0  0
 10 26  1  0  0  0  0
 11 12  2  0  0  0  0
 11 27  1  0  0  0  0
 12 28  1  0  0  0  0
 13 22  1  0  0  0  0
 13 26  2  0  0  0  0
 14 23  2  0  0  0  0
 14 31  1  0  0  0  0
 15 28  2  0  0  0  0
 15 29  1  0  0  0  0
 16 24  2  0  0  0  0
 16 66  1  0  0  0  0
 17 30  1  0  0  0  0
 18 30  1  0  0  0  0
 18 32  2  0  0  0  0
 18 33  1  0  0  0  0
 19 21  2  0  0  0  0
 19 38  1  0  0  0  0
 20 22  2  0  0  0  0
 20 39  1  0  0  0  0
 21 47  1  0  0  0  0
 22 40  1  0  0  0  0
 23 24  1  0  0  0  0
 23 57  1  0  0  0  0
 24 58  1  0  0  0  0
 25 83  1  0  0  0  0
 26 84  1  0  0  0  0
 27 29  2  0  0  0  0
 27 83  1  0  0  0  0
 28 85  1  0  0  0  0
 29 86  1  0  0  0  0
 30 67  2  0  0  0  0
 31 66  2  0  0  0  0
 31 73  1  0  0  0  0
 32 68  1  0  0  0  0
 32 71  1  0  0  0  0
 33 72  1  0  0  0  0
 33 78  2  0  0  0  0
 34 48  1  0  0  0  0
 34 74  1  0  0  0  0
 34 79  2  0  0  0  0
 35 62  1  0  0  0  0
 35 69  1  0  0  0  0
 35 80  2  0  0  0  0
 36 63  1  0  0  0  0
 36 75  1  0  0  0  0
 36 81  2  0  0  0  0
 37 70  1  0  0  0  0
 37 76  1  0  0  0  0
 37 82  2  0  0  0  0
 38 41  1  0  0  0  0
 39 48  1  0  0  0  0
 40 69  1  0  0  0  0
 41 43  1  0  0  0  0
 42 44  1  0  0  0  0
 42 45  1  0  0  0  0
 43 47  1  0  0  0  0
 44 49  1  0  0  0  0
 45 70  1  0  0  0  0
 46 49  1  0  0  0  0
 46 70  1  0  0  0  0
 47 74  1  0  0  0  0
 48 69  1  0  0  0  0
 49 68  1  0  0  0  0
 50 63  1  0  0  0  0
 51 64  1  0  0  0  0
 52 64  1  0  0  0  0
 53 65  1  0  0  0  0
 54 65  1  0  0  0  0
 55 65  1  0  0  0  0
 56 77  1  0  0  0  0
 57 64  1  0  0  0  0
 58 59  1  0  0  0  0
 59 76  1  0  0  0  0
 60 61  1  0  0  0  0
 60 73  1  0  0  0  0
 61 84  1  0  0  0  0
 62 65  1  0  0  0  0
 62 75  1  0  0  0  0
 63 77  1  0  0  0  0
 67 68  1  0  0  0  0
M  CHG  1  77   1
M  ISO  4  37 100  61 101  76 100  84 101
M  END
> <Batch ID>
0138

> <Smiles>
CNC(C)C(=O)NC(C(=O)N1Cc2cc([101O:1][101CH2:1]CNc3cc(CC(C)C)c(CC[100NH:0][100C:0](=O)N4CCCC(n5nc(-c6ccc(Oc7ccc(F)cc7F)cc6)c(C(N)=O)c5N)C4)cn3)ccc2CC1C(=O)NC1CCCc2ccccc21)C(C)(C)C

> <Shape>
0.258

> <Color>
0.049

> <Negative vol penalty>
0.000

$$$$

  -OEChem-04052321083D

 83 92  0     1  0  0  0  0  0999 V2000
  -28.5757  -31.3849   27.0864 C   0  0  0  0  0  0  0  0  0  0  0  0
  -28.5620  -30.3823   26.1221 C   0  0  0  0  0  0  0  0  0  0  0  0
  -24.4928   -9.8853   21.6420 C   0  0  0  0  0  0  0  0  0  0  0  0
  -24.7446  -11.0618   23.7372 C   0  0  0  0  0  0  0  0  0  0  0  0
  -27.3745  -31.9002   27.5717 C   0  0  0  0  0  0  0  0  0  0  0  0
  -27.3469  -29.8936   25.6432 C   0  0  0  0  0  0  0  0  0  0  0  0
  -27.3020  -29.4002   20.6034 C   0  0  0  0  0  0  0  0  0  0  0  0
  -24.1547   -8.7231   22.3352 C   0  0  0  0  0  0  0  0  0  0  0  0
  -24.4065   -9.8995   24.4304 C   0  0  0  0  0  0  0  0  0  0  0  0
  -27.9519  -28.2897   20.0666 C   0  0  0  0  0  0  0  0  0  0  0  0
  -22.8738   -5.5421   23.5416 C   0  0  0  0  0  0  0  0  0  0  0  0
  -21.7843   -4.8045   23.0785 C   0  0  0  0  0  0  0  0  0  0  0  0
  -27.4527  -20.2094   21.0342 C   0  0  0  0  0  0  0  0  0  0  0  0
  -25.8283  -27.1713   19.8248 C   0  0  0  0  0  0  0  0  0  0  0  0
  -20.3443   -6.7131   23.4265 C   0  0  0  0  0  0  0  0  0  0  0  0
  -29.6836  -20.2269   20.2099 C   0  0  0  0  0  0  0  0  0  0  0  0
  -24.7878  -11.0547   22.3430 C   0  0  0  0  0  0  0  0  0  0  0  0
  -24.2619  -13.2581   21.1700 C   0  0  0  0  0  0  0  0  0  0  0  0
  -26.1442  -31.4244   27.0916 C   0  0  0  0  0  0  0  0  0  0  0  0
  -25.9091  -29.4003   20.7654 C   0  0  0  0  0  0  0  0  0  0  0  0
  -26.1281  -30.4022   26.1235 C   0  0  0  0  0  0  0  0  0  0  0  0
  -27.4339  -21.5955   20.9253 C   0  0  0  0  0  0  0  0  0  0  0  0
  -25.1629  -28.2840   20.3616 C   0  0  0  0  0  0  0  0  0  0  0  0
  -28.5951  -19.5046   20.6717 C   0  0  0  0  0  0  0  0  0  0  0  0
  -24.1115   -8.7302   23.7294 C   0  0  0  0  0  0  0  0  0  0  0  0
  -27.2154  -27.1739   19.6799 C   0  0  0  0  0  0  0  0  0  0  0  0
  -22.6986   -6.8652   23.9473 C   0  0  0  0  0  0  0  0  0  0  0  0
  -20.5195   -5.3900   23.0209 C   0  0  0  0  0  0  0  0  0  0  0  0
  -21.4338   -7.4506   23.8897 C   0  0  0  0  0  0  0  0  0  0  0  0
  -25.1377  -12.2554   21.6275 C   0  0  0  0  0  0  0  0  0  0  0  0
  -28.5745  -22.2242   20.4523 C   0  0  0  0  0  0  0  0  0  0  0  0
  -25.0802  -14.1755   20.5575 C   0  0  0  0  0  0  0  0  0  0  0  0
  -22.8361  -13.3519   21.2882 C   0  0  0  0  0  0  0  0  0  0  0  0
  -23.9399  -29.6199   23.2508 C   0  0  0  0  0  0  0  0  0  0  0  0
  -21.6631  -29.7134   20.9421 C   0  0  0  0  0  0  0  0  0  0  0  0
  -20.7465  -28.9508   17.7445 C   0  0  0  0  0  0  0  0  0  0  0  0
  -29.7150  -17.2593   20.4462 C   0  0  0  0  0  0  0  0  0  0  0  0
  -24.8715  -31.9791   27.6807 C   0  0  0  0  0  0  0  0  0  0  0  0
  -25.2204  -30.6165   21.3213 C   0  0  0  0  0  0  0  0  0  0  0  0
  -23.6633  -28.2419   20.4957 C   0  0  0  0  0  0  0  0  0  0  0  0
  -23.6296  -31.6696   26.8486 C   0  0  0  0  0  0  0  0  0  0  0  0
  -29.9748  -13.8994   19.2970 C   0  0  0  0  0  0  0  0  0  0  0  0
  -24.8940  -21.9926   20.6708 C   0  0  0  0  0  0  0  0  0  0  0  0
  -25.5710  -23.2790   20.3142 C   0  0  0  0  0  0  0  0  0  0  0  0
  -23.6165  -30.2014   26.4351 C   0  0  0  0  0  0  0  0  0  0  0  0
  -28.6674  -13.2547   19.7632 C   0  0  0  0  0  0  0  0  0  0  0  0
  -30.5050  -14.9069   20.3155 C   0  0  0  0  0  0  0  0  0  0  0  0
  -28.2361  -15.2924   21.1945 C   0  0  0  0  0  0  0  0  0  0  0  0
  -26.2079  -22.3503   21.3144 C   0  0  0  0  0  0  0  0  0  0  0  0
  -24.8305  -29.8635   25.5613 C   0  0  1  0  0  0  0  0  0  0  0  0
  -23.8507  -30.3072   21.9176 C   0  0  1  0  0  0  0  0  0  0  0  0
  -27.6291  -14.3179   20.1720 C   0  0  2  0  0  0  0  0  0  0  0  0
  -18.8101  -29.1185   16.1571 C   0  0  0  0  0  0  0  0  0  0  0  0
  -20.2857  -27.4027   22.3820 C   0  0  0  0  0  0  0  0  0  0  0  0
  -18.9450  -27.0001   20.3063 C   0  0  0  0  0  0  0  0  0  0  0  0
  -18.7367  -29.1680   21.5226 C   0  0  0  0  0  0  0  0  0  0  0  0
  -22.2904  -30.6261   15.8554 C   0  0  0  0  0  0  0  0  0  0  0  0
  -29.4739  -24.3495   19.5037 C   0  0  0  0  0  0  0  0  0  0  0  0
  -29.1810  -25.8376   19.5976 C   0  0  0  0  0  0  0  0  0  1  0  0
  -20.8412  -28.6811   20.2088 C   0  0  1  0  0  0  0  0  0  0  0  0
  -20.0822  -29.7818   16.6616 C   0  0  2  0  0  0  0  0  0  0  0  0
  -19.7306  -28.0627   21.1041 C   0  0  0  0  0  0  0  0  0  0  0  0
  -29.7028  -21.5734   20.0904 N   0  0  0  0  0  0  0  0  0  0  0  0
  -26.4146  -12.5115   21.3309 N   0  0  0  0  0  0  0  0  0  0  0  0
  -26.3471  -13.6855   20.6803 N   0  0  0  0  0  0  0  0  0  0  0  0
  -23.0365  -29.4530   21.0506 N   0  0  0  0  0  0  0  0  0  0  0  0
  -29.4685  -15.8853   20.6518 N   0  0  0  0  0  0  0  0  0  0  0  0
  -24.8325  -15.3454   19.9312 N   0  0  0  0  0  0  0  0  0  0  0  0
  -22.1511  -12.3223   21.9478 N   0  0  0  0  0  0  0  0  0  0  0  0
  -28.6447  -18.0920   20.7713 N   0  0  0  0  0  0  0  0  0  0  0  0
  -28.5622  -23.6048   20.3417 N   0  0  0  0  0  0  0  0  0  0  0  0
  -24.6282  -30.3388   24.2094 N   0  0  0  0  0  0  0  0  0  0  0  0
  -20.3421  -29.3369   19.0049 N   0  0  0  0  0  0  0  0  0  0  0  0
  -21.0072  -29.9633   15.5073 N   0  3  0  0  0  0  0  0  0  0  0  0
  -22.1869  -14.3120   20.8083 O   0  0  0  0  0  0  0  0  0  0  0  0
  -23.4212  -28.5196   23.3993 O   0  0  0  0  0  0  0  0  0  0  0  0
  -21.1082  -30.7174   21.3956 O   0  0  0  0  0  0  0  0  0  0  0  0
  -21.5416  -28.0469   17.4968 O   0  0  0  0  0  0  0  0  0  0  0  0
  -30.7861  -17.6650   19.9878 O   0  0  0  0  0  0  0  0  0  0  0  0
  -23.7814   -7.5964   24.4061 O   0  0  0  0  0  0  0  0  0  0  0  0
  -27.8473  -26.0884   19.1562 O   0  0  0  0  0  0  0  0  0  1  0  0
  -19.4736   -4.6821   22.5747 F   0  0  0  0  0  0  0  0  0  0  0  0
  -21.2596   -8.7216   24.2769 F   0  0  0  0  0  0  0  0  0  0  0  0
  1  2  1  0  0  0  0
  1  5  2  0  0  0  0
  2  6  2  0  0  0  0
  3  8  2  0  0  0  0
  3 17  1  0  0  0  0
  4  9  1  0  0  0  0
  4 17  2  0  0  0  0
  5 19  1  0  0  0  0
  6 21  1  0  0  0  0
  7 10  2  0  0  0  0
  7 20  1  0  0  0  0
  8 25  1  0  0  0  0
  9 25  2  0  0  0  0
 10 26  1  0  0  0  0
 11 12  2  0  0  0  0
 11 27  1  0  0  0  0
 12 28  1  0  0  0  0
 13 22  1  0  0  0  0
 13 24  2  0  0  0  0
 14 23  1  0  0  0  0
 14 26  2  0  0  0  0
 15 28  2  0  0  0  0
 15 29  1  0  0  0  0
 16 24  1  0  0  0  0
 16 63  2  0  0  0  0
 17 30  1  0  0  0  0
 18 30  1  0  0  0  0
 18 32  2  0  0  0  0
 18 33  1  0  0  0  0
 19 21  2  0  0  0  0
 19 38  1  0  0  0  0
 20 23  2  0  0  0  0
 20 39  1  0  0  0  0
 21 50  1  0  0  0  0
 22 31  2  0  0  0  0
 22 49  1  0  0  0  0
 23 40  1  0  0  0  0
 24 70  1  0  0  0  0
 25 80  1  0  0  0  0
 26 81  1  0  0  0  0
 27 29  2  0  0  0  0
 27 80  1  0  0  0  0
 28 82  1  0  0  0  0
 29 83  1  0  0  0  0
 30 64  2  0  0  0  0
 31 63  1  0  0  0  0
 31 71  1  0  0  0  0
 32 65  1  0  0  0  0
 32 68  1  0  0  0  0
 33 69  1  0  0  0  0
 33 75  2  0  0  0  0
 34 51  1  0  0  0  0
 34 72  1  0  0  0  0
 34 76  2  0  0  0  0
 35 60  1  0  0  0  0
 35 66  1  0  0  0  0
 35 77  2  0  0  0  0
 36 61  1  0  0  0  0
 36 73  1  0  0  0  0
 36 78  2  0  0  0  0
 37 67  1  0  0  0  0
 37 70  1  0  0  0  0
 37 79  2  0  0  0  0
 38 41  1  0  0  0  0
 39 51  1  0  0  0  0
 40 66  1  0  0  0  0
 41 45  1  0  0  0  0
 42 46  1  0  0  0  0
 42 47  1  0  0  0  0
 43 44  1  0  0  0  0
 43 49  1  0  0  0  0
 44 49  1  0  0  0  0
 45 50  1  0  0  0  0
 46 52  1  0  0  0  0
 47 67  1  0  0  0  0
 48 52  1  0  0  0  0
 48 67  1  0  0  0  0
 50 72  1  0  0  0  0
 51 66  1  0  0  0  0
 52 65  1  0  0  0  0
 53 61  1  0  0  0  0
 54 62  1  0  0  0  0
 55 62  1  0  0  0  0
 56 62  1  0  0  0  0
 57 74  1  0  0  0  0
 58 59  1  0  0  0  0
 58 71  1  0  0  0  0
 59 81  1  0  0  0  0
 60 62  1  0  0  0  0
 60 73  1  0  0  0  0
 61 74  1  0  0  0  0
 64 65  1  0  0  0  0
M  CHG  1  74   1
M  ISO  4  37 100  59 101  70 100  81 101
M  END
> <Batch ID>
0138

> <Smiles>
CNC(C)C(=O)NC(C(=O)N1Cc2cc([101O:1][101CH2:1]CNc3ncc([100NH:0][100C:0](=O)N4CCCC(n5nc(-c6ccc(Oc7ccc(F)cc7F)cc6)c(C(N)=O)c5N)C4)cc3C3CC3)ccc2CC1C(=O)NC1CCCc2ccccc21)C(C)(C)C

> <Shape>
0.336

> <Color>
0.156

> <Negative vol penalty>
0.000

$$$$

  -OEChem-04052321083D

 85 94  0     1  0  0  0  0  0999 V2000
  -20.8933   -9.1272   24.3420 C   0  0  0  0  0  0  0  0  0  0  0  0
  -21.8703  -10.0696   24.6464 C   0  0  0  0  0  0  0  0  0  0  0  0
  -22.2612  -26.7775   20.6753 C   0  0  0  0  0  0  0  0  0  0  0  0
  -22.6103  -28.8530   21.8616 C   0  0  0  0  0  0  0  0  0  0  0  0
  -20.9274   -8.4596   23.1185 C   0  0  0  0  0  0  0  0  0  0  0  0
  -22.8828  -10.3442   23.7277 C   0  0  0  0  0  0  0  0  0  0  0  0
  -23.7389  -15.3080   23.2058 C   0  0  0  0  0  0  0  0  0  0  0  0
  -26.8589  -20.7500   24.8243 C   0  0  0  0  0  0  0  0  0  0  0  0
  -21.1219  -26.5312   21.4413 C   0  0  0  0  0  0  0  0  0  0  0  0
  -21.4709  -28.6068   22.6276 C   0  0  0  0  0  0  0  0  0  0  0  0
  -24.4846  -15.9339   24.2038 C   0  0  0  0  0  0  0  0  0  0  0  0
  -27.4400  -21.5047   23.8053 C   0  0  0  0  0  0  0  0  0  0  0  0
  -18.4507  -28.6999   24.6495 C   0  0  0  0  0  0  0  0  0  0  0  0
  -17.5595  -29.7549   24.8454 C   0  0  0  0  0  0  0  0  0  0  0  0
  -26.4436  -15.8244   22.8003 C   0  0  0  0  0  0  0  0  0  0  0  0
  -28.6709  -19.1586   24.6793 C   0  0  0  0  0  0  0  0  0  0  0  0
  -17.2277  -29.9179   22.4578 C   0  0  0  0  0  0  0  0  0  0  0  0
  -23.0055  -27.9384   20.8854 C   0  0  0  0  0  0  0  0  0  0  0  0
  -24.2511  -28.8823   18.8692 C   0  0  0  0  0  0  0  0  0  0  0  0
  -21.9353   -8.7331   22.1804 C   0  0  0  0  0  0  0  0  0  0  0  0
  -24.3435  -14.9251   21.9998 C   0  0  0  0  0  0  0  0  0  0  0  0
  -22.9313   -9.6786   22.4910 C   0  0  0  0  0  0  0  0  0  0  0  0
  -25.7028  -15.1961   21.7876 C   0  0  0  0  0  0  0  0  0  0  0  0
  -27.4743  -19.5770   25.2613 C   0  0  0  0  0  0  0  0  0  0  0  0
  -29.2521  -19.9133   23.6602 C   0  0  0  0  0  0  0  0  0  0  0  0
  -20.7267  -27.4458   22.4175 C   0  0  0  0  0  0  0  0  0  0  0  0
  -25.8378  -16.1896   24.0023 C   0  0  0  0  0  0  0  0  0  0  0  0
  -28.6366  -21.0863   23.2232 C   0  0  0  0  0  0  0  0  0  0  0  0
  -18.7304  -28.2539   23.3578 C   0  0  0  0  0  0  0  0  0  0  0  0
  -16.9480  -30.3639   23.7496 C   0  0  0  0  0  0  0  0  0  0  0  0
  -18.1189  -28.8629   22.2619 C   0  0  0  0  0  0  0  0  0  0  0  0
  -24.1828  -28.1931   20.0948 C   0  0  0  0  0  0  0  0  0  0  0  0
  -25.5822  -28.8522   18.5320 C   0  0  0  0  0  0  0  0  0  0  0  0
  -23.2048  -29.4951   18.1040 C   0  0  0  0  0  0  0  0  0  0  0  0
  -24.8251  -12.1580   20.5115 C   0  0  0  0  0  0  0  0  0  0  0  0
  -25.9320  -14.0730   18.1387 C   0  0  0  0  0  0  0  0  0  0  0  0
  -27.2703  -17.0769   17.2266 C   0  0  0  0  0  0  0  0  0  0  0  0
  -30.0476  -25.1472   19.9939 C   0  0  0  0  0  0  0  0  0  0  0  0
  -21.9579   -7.9518   20.8905 C   0  0  0  0  0  0  0  0  0  0  0  0
  -23.5192  -14.2749   20.9227 C   0  0  0  0  0  0  0  0  0  0  0  0
  -26.3945  -14.8233   20.5027 C   0  0  0  0  0  0  0  0  0  0  0  0
  -22.8500   -8.5720   19.8183 C   0  0  0  0  0  0  0  0  0  0  0  0
  -29.9411  -28.6466   20.4537 C   0  0  0  0  0  0  0  0  0  0  0  0
  -24.1993   -8.9674   20.4097 C   0  0  0  0  0  0  0  0  0  0  0  0
  -28.4608  -28.9981   20.3335 C   0  0  0  0  0  0  0  0  0  0  0  0
  -29.1677  -21.5551   19.8169 C   0  0  0  0  0  0  0  0  0  0  0  0
  -30.1239  -27.3164   21.1719 C   0  0  0  0  0  0  0  0  0  0  0  0
  -30.1017  -22.7195   19.5204 C   0  0  0  0  0  0  0  0  0  0  0  0
  -27.9287  -26.5055   20.3516 C   0  0  0  0  0  0  0  0  0  0  0  0
  -28.2317  -23.5207   20.7999 C   0  0  0  0  0  0  0  0  0  0  0  0
  -24.0315  -10.0218   21.5104 C   0  0  1  0  0  0  0  0  0  0  0  0
  -24.3556  -13.4647   19.9372 C   0  0  1  0  0  0  0  0  0  0  0  0
  -27.6868  -27.8590   19.6519 C   0  0  1  0  0  0  0  0  0  0  0  0
  -28.4080  -22.0281   21.0515 C   0  0  2  0  0  0  0  0  0  0  0  0
  -30.5338  -19.4514   23.0492 C   0  0  0  0  0  0  0  0  0  0  0  0
  -28.1033  -18.3349   15.2213 C   0  0  0  0  0  0  0  0  0  0  0  0
  -28.4929  -12.4143   18.1651 C   0  0  0  0  0  0  0  0  0  0  0  0
  -29.6096  -14.2456   16.8737 C   0  0  0  0  0  0  0  0  0  0  0  0
  -27.6705  -13.0274   15.8843 C   0  0  0  0  0  0  0  0  0  0  0  0
  -25.2382  -19.2010   17.5701 C   0  0  0  0  0  0  0  0  0  0  0  0
  -26.8533  -18.7714   26.3518 C   0  0  0  0  0  0  0  0  0  0  0  0
  -25.8798  -17.7097   25.8308 C   0  0  0  0  0  0  0  0  0  1  0  0
  -27.2757  -14.6577   17.7759 C   0  0  1  0  0  0  0  0  0  0  0  0
  -26.9076  -18.0454   16.1153 C   0  0  2  0  0  0  0  0  0  0  0  0
  -28.2499  -13.5917   17.1998 C   0  0  0  0  0  0  0  0  0  0  0  0
  -25.3757  -27.7568   20.5082 N   0  0  0  0  0  0  0  0  0  0  0  0
  -26.2060  -28.1729   19.5368 N   0  0  0  0  0  0  0  0  0  0  0  0
  -25.5473  -14.1840   19.4824 N   0  0  0  0  0  0  0  0  0  0  0  0
  -29.3626  -26.2432   20.5300 N   0  0  0  0  0  0  0  0  0  0  0  0
  -29.4143  -23.9049   20.0209 N   0  0  0  0  0  0  0  0  0  0  0  0
  -26.2682  -29.3407   17.4770 N   0  0  0  0  0  0  0  0  0  0  0  0
  -21.8937  -29.4337   18.5956 N   0  0  0  0  0  0  0  0  0  0  0  0
  -23.8029  -11.3273   20.9290 N   0  0  0  0  0  0  0  0  0  0  0  0
  -27.0058  -15.7709   16.8723 N   0  0  0  0  0  0  0  0  0  0  0  0
  -26.4261  -19.3343   16.6881 N   0  3  0  0  0  0  0  0  0  0  0  0
  -23.4236  -30.0655   17.0084 O   0  0  0  0  0  0  0  0  0  0  0  0
  -26.0259  -11.9205   20.5701 O   0  0  0  0  0  0  0  0  0  0  0  0
  -25.2458  -13.5438   17.2608 O   0  0  0  0  0  0  0  0  0  0  0  0
  -27.7445  -17.4421   18.3000 O   0  0  0  0  0  0  0  0  0  0  0  0
  -31.1969  -25.2637   19.5473 O   0  0  0  0  0  0  0  0  0  0  0  0
  -19.6148  -27.2059   23.1650 O   0  0  0  0  0  0  0  0  0  0  0  0
  -29.1926  -21.8390   22.2223 O   0  0  0  0  0  0  0  0  0  0  0  0
  -26.5732  -16.8041   24.9818 O   0  0  0  0  0  0  0  0  0  1  0  0
  -16.0910  -31.3759   23.9379 F   0  0  0  0  0  0  0  0  0  0  0  0
  -18.3828  -28.4380   21.0187 F   0  0  0  0  0  0  0  0  0  0  0  0
  1  2  1  0  0  0  0
  1  5  2  0  0  0  0
  2  6  2  0  0  0  0
  3  9  2  0  0  0  0
  3 18  1  0  0  0  0
  4 10  1  0  0  0  0
  4 18  2  0  0  0  0
  5 20  1  0  0  0  0
  6 22  1  0  0  0  0
  7 11  2  0  0  0  0
  7 21  1  0  0  0  0
  8 12  2  0  0  0  0
  8 24  1  0  0  0  0
  9 26  1  0  0  0  0
 10 26  2  0  0  0  0
 11 27  1  0  0  0  0
 12 28  1  0  0  0  0
 13 14  2  0  0  0  0
 13 29  1  0  0  0  0
 14 30  1  0  0  0  0
 15 23  1  0  0  0  0
 15 27  2  0  0  0  0
 16 24  2  0  0  0  0
 16 25  1  0  0  0  0
 17 30  2  0  0  0  0
 17 31  1  0  0  0  0
 18 32  1  0  0  0  0
 19 32  1  0  0  0  0
 19 33  2  0  0  0  0
 19 34  1  0  0  0  0
 20 22  2  0  0  0  0
 20 39  1  0  0  0  0
 21 23  2  0  0  0  0
 21 40  1  0  0  0  0
 22 51  1  0  0  0  0
 23 41  1  0  0  0  0
 24 61  1  0  0  0  0
 25 28  2  0  0  0  0
 25 55  1  0  0  0  0
 26 81  1  0  0  0  0
 27 83  1  0  0  0  0
 28 82  1  0  0  0  0
 29 31  2  0  0  0  0
 29 81  1  0  0  0  0
 30 84  1  0  0  0  0
 31 85  1  0  0  0  0
 32 66  2  0  0  0  0
 33 67  1  0  0  0  0
 33 71  1  0  0  0  0
 34 72  1  0  0  0  0
 34 76  2  0  0  0  0
 35 52  1  0  0  0  0
 35 73  1  0  0  0  0
 35 77  2  0  0  0  0
 36 63  1  0  0  0  0
 36 68  1  0  0  0  0
 36 78  2  0  0  0  0
 37 64  1  0  0  0  0
 37 74  1  0  0  0  0
 37 79  2  0  0  0  0
 38 69  1  0  0  0  0
 38 70  1  0  0  0  0
 38 80  2  0  0  0  0
 39 42  1  0  0  0  0
 40 52  1  0  0  0  0
 41 68  1  0  0  0  0
 42 44  1  0  0  0  0
 43 45  1  0  0  0  0
 43 47  1  0  0  0  0
 44 51  1  0  0  0  0
 45 53  1  0  0  0  0
 46 48  1  0  0  0  0
 46 54  1  0  0  0  0
 47 69  1  0  0  0  0
 48 70  1  0  0  0  0
 49 53  1  0  0  0  0
 49 69  1  0  0  0  0
 50 54  1  0  0  0  0
 50 70  1  0  0  0  0
 51 73  1  0  0  0  0
 52 68  1  0  0  0  0
 53 67  1  0  0  0  0
 54 82  1  0  0  0  0
 56 64  1  0  0  0  0
 57 65  1  0  0  0  0
 58 65  1  0  0  0  0
 59 65  1  0  0  0  0
 60 75  1  0  0  0  0
 61 62  1  0  0  0  0
 62 83  1  0  0  0  0
 63 65  1  0  0  0  0
 63 74  1  0  0  0  0
 64 75  1  0  0  0  0
 66 67  1  0  0  0  0
M  CHG  1  75   1
M  ISO  4  38 100  62 101  70 100  83 101
M  END
> <Batch ID>
0138

> <Smiles>
CNC(C)C(=O)NC(C(=O)N1Cc2cc([101O:1][101CH2:1]Cc3ccc(OC4CC[100N:0]([100C:0](=O)N5CCCC(n6nc(-c7ccc(Oc8ccc(F)cc8F)cc7)c(C(N)=O)c6N)C5)C4)c(C)c3)ccc2CC1C(=O)NC1CCCc2ccccc21)C(C)(C)C

> <Shape>
0.250

> <Color>
0.078

> <Negative vol penalty>
0.000

$$$$

  -OEChem-04052321083D

 84 93  0     1  0  0  0  0  0999 V2000
  -16.7750  -29.2526   24.4156 C   0  0  0  0  0  0  0  0  0  0  0  0
  -17.1075  -28.4483   23.3303 C   0  0  0  0  0  0  0  0  0  0  0  0
  -22.7723  -13.6267   19.3879 C   0  0  0  0  0  0  0  0  0  0  0  0
  -23.3578  -13.2325   21.6985 C   0  0  0  0  0  0  0  0  0  0  0  0
  -17.5513  -30.3709   24.7168 C   0  0  0  0  0  0  0  0  0  0  0  0
  -18.2160  -28.7626   22.5447 C   0  0  0  0  0  0  0  0  0  0  0  0
  -23.6301  -24.0814   21.7289 C   0  0  0  0  0  0  0  0  0  0  0  0
  -30.4630  -18.4661   21.5931 C   0  0  0  0  0  0  0  0  0  0  0  0
  -21.9749  -12.4823   19.3947 C   0  0  0  0  0  0  0  0  0  0  0  0
  -22.5603  -12.0881   21.7054 C   0  0  0  0  0  0  0  0  0  0  0  0
  -24.6070  -23.1591   21.3535 C   0  0  0  0  0  0  0  0  0  0  0  0
  -30.1196  -19.7711   21.2402 C   0  0  0  0  0  0  0  0  0  0  0  0
  -20.9647   -8.8644   22.2265 C   0  0  0  0  0  0  0  0  0  0  0  0
  -21.4894   -7.7120   22.8115 C   0  0  0  0  0  0  0  0  0  0  0  0
  -25.7267  -24.8598   20.0490 C   0  0  0  0  0  0  0  0  0  0  0  0
  -28.4902  -19.8246   23.0232 C   0  0  0  0  0  0  0  0  0  0  0  0
  -23.3098   -7.7346   21.2231 C   0  0  0  0  0  0  0  0  0  0  0  0
  -23.4638  -14.0018   20.5398 C   0  0  0  0  0  0  0  0  0  0  0  0
  -23.8951  -16.4960   20.8570 C   0  0  0  0  0  0  0  0  0  0  0  0
  -18.6754  -30.6936   23.9403 C   0  0  0  0  0  0  0  0  0  0  0  0
  -23.7063  -25.4020   21.2776 C   0  0  0  0  0  0  0  0  0  0  0  0
  -19.0072  -29.8870   22.8350 C   0  0  0  0  0  0  0  0  0  0  0  0
  -29.8200  -17.8402   22.6611 C   0  0  0  0  0  0  0  0  0  0  0  0
  -24.7579  -25.7913   20.4317 C   0  0  0  0  0  0  0  0  0  0  0  0
  -28.8336  -18.5195   23.3762 C   0  0  0  0  0  0  0  0  0  0  0  0
  -21.8689  -11.7130   20.5534 C   0  0  0  0  0  0  0  0  0  0  0  0
  -25.6526  -23.5472   20.5154 C   0  0  0  0  0  0  0  0  0  0  0  0
  -29.1332  -20.4503   21.9552 C   0  0  0  0  0  0  0  0  0  0  0  0
  -21.6124   -9.4519   21.1397 C   0  0  0  0  0  0  0  0  0  0  0  0
  -22.6620   -7.1471   22.3098 C   0  0  0  0  0  0  0  0  0  0  0  0
  -22.7850   -8.8870   20.6380 C   0  0  0  0  0  0  0  0  0  0  0  0
  -24.2881  -15.1835   20.5332 C   0  0  0  0  0  0  0  0  0  0  0  0
  -25.0351  -17.2452   20.6968 C   0  0  0  0  0  0  0  0  0  0  0  0
  -22.6141  -16.9934   21.2660 C   0  0  0  0  0  0  0  0  0  0  0  0
  -22.1935  -28.8353   21.2878 C   0  0  0  0  0  0  0  0  0  0  0  0
  -25.2344  -29.2009   21.4610 C   0  0  0  0  0  0  0  0  0  0  0  0
  -28.5915  -29.1599   22.0656 C   0  0  0  0  0  0  0  0  0  0  0  0
  -30.8920  -15.3217   20.7071 C   0  0  0  0  0  0  0  0  0  0  0  0
  -19.4565  -31.9392   24.2763 C   0  0  0  0  0  0  0  0  0  0  0  0
  -22.6425  -26.4138   21.6067 C   0  0  0  0  0  0  0  0  0  0  0  0
  -24.7804  -27.2137   19.9427 C   0  0  0  0  0  0  0  0  0  0  0  0
  -20.8333  -31.9907   23.6190 C   0  0  0  0  0  0  0  0  0  0  0  0
  -29.0993  -17.4128   18.2285 C   0  0  0  0  0  0  0  0  0  0  0  0
  -20.7351  -31.6141   22.1441 C   0  0  0  0  0  0  0  0  0  0  0  0
  -27.6342  -17.1051   18.5219 C   0  0  0  0  0  0  0  0  0  0  0  0
  -31.4755  -16.2002   23.9408 C   0  0  0  0  0  0  0  0  0  0  0  0
  -30.0059  -16.2489   18.6126 C   0  0  0  0  0  0  0  0  0  0  0  0
  -31.9898  -15.1241   22.9917 C   0  0  0  0  0  0  0  0  0  0  0  0
  -28.3944  -15.5213   20.3407 C   0  0  0  0  0  0  0  0  0  0  0  0
  -30.2260  -16.3558   23.0449 C   0  0  2  0  0  0  0  0  0  0  0  0
  -20.2165  -30.1811   21.9740 C   0  0  1  0  0  0  0  0  0  0  0  0
  -23.1986  -27.8380   21.7845 C   0  0  1  0  0  0  0  0  0  0  0  0
  -27.4549  -16.6865   19.9889 C   0  0  2  0  0  0  0  0  0  0  0  0
  -28.1338  -17.8681   24.5230 C   0  0  0  0  0  0  0  0  0  0  0  0
  -30.5441  -30.6907   22.4412 C   0  0  0  0  0  0  0  0  0  0  0  0
  -25.3065  -29.8347   18.4782 C   0  0  0  0  0  0  0  0  0  0  0  0
  -27.6988  -30.5197   18.7539 C   0  0  0  0  0  0  0  0  0  0  0  0
  -25.9023  -31.7534   19.9675 C   0  0  0  0  0  0  0  0  0  0  0  0
  -29.0896  -28.0518   24.7643 C   0  0  0  0  0  0  0  0  0  0  0  0
  -27.9144  -23.1479   19.8970 C   0  0  0  0  0  0  0  0  0  1  0  0
  -28.9400  -22.0842   20.2379 C   0  0  0  0  0  0  0  0  0  0  0  0
  -26.5265  -29.4205   20.7156 C   0  0  1  0  0  0  0  0  0  0  0  0
  -29.4379  -29.8807   23.0993 C   0  0  2  0  0  0  0  0  0  0  0  0
  -26.3500  -30.3560   19.4864 C   0  0  0  0  0  0  0  0  0  0  0  0
  -25.5771  -15.1004   20.1930 N   0  0  0  0  0  0  0  0  0  0  0  0
  -26.0038  -16.3700   20.3019 N   0  0  0  0  0  0  0  0  0  0  0  0
  -24.4372  -28.1286   21.0426 N   0  0  0  0  0  0  0  0  0  0  0  0
  -29.7917  -15.8165   19.9962 N   0  0  0  0  0  0  0  0  0  0  0  0
  -30.9359  -15.5236   22.0674 N   0  0  0  0  0  0  0  0  0  0  0  0
  -25.2933  -18.5605   20.8565 N   0  0  0  0  0  0  0  0  0  0  0  0
  -21.5509  -16.0874   21.3800 N   0  0  0  0  0  0  0  0  0  0  0  0
  -21.2716  -29.2268   22.2397 N   0  0  0  0  0  0  0  0  0  0  0  0
  -27.4889  -29.9029   21.7003 N   0  0  0  0  0  0  0  0  0  0  0  0
  -30.0638  -28.9005   24.0311 N   0  3  0  0  0  0  0  0  0  0  0  0
  -22.4142  -18.2081   21.5068 O   0  0  0  0  0  0  0  0  0  0  0  0
  -22.2502  -29.2231   20.1267 O   0  0  0  0  0  0  0  0  0  0  0  0
  -24.9348  -29.9615   22.3857 O   0  0  0  0  0  0  0  0  0  0  0  0
  -28.8815  -28.0504   21.6236 O   0  0  0  0  0  0  0  0  0  0  0  0
  -31.8248  -14.7388   20.1379 O   0  0  0  0  0  0  0  0  0  0  0  0
  -21.0906  -10.5964   20.5605 O   0  0  0  0  0  0  0  0  0  0  0  0
  -26.6120  -22.6367   20.1541 O   0  0  0  0  0  0  0  0  0  1  0  0
  -28.7991  -21.7241   21.6114 O   0  0  0  0  0  0  0  0  0  0  0  0
  -23.1666   -6.0413   22.8727 F   0  0  0  0  0  0  0  0  0  0  0  0
  -23.4124   -9.4475   19.5950 F   0  0  0  0  0  0  0  0  0  0  0  0
  1  2  1  0  0  0  0
  1  5  2  0  0  0  0
  2  6  2  0  0  0  0
  3  9  2  0  0  0  0
  3 18  1  0  0  0  0
  4 10  1  0  0  0  0
  4 18  2  0  0  0  0
  5 20  1  0  0  0  0
  6 22  1  0  0  0  0
  7 11  2  0  0  0  0
  7 21  1  0  0  0  0
  8 12  2  0  0  0  0
  8 23  1  0  0  0  0
  9 26  1  0  0  0  0
 10 26  2  0  0  0  0
 11 27  1  0  0  0  0
 12 28  1  0  0  0  0
 13 14  2  0  0  0  0
 13 29  1  0  0  0  0
 14 30  1  0  0  0  0
 15 24  1  0  0  0  0
 15 27  2  0  0  0  0
 16 25  1  0  0  0  0
 16 28  2  0  0  0  0
 17 30  2  0  0  0  0
 17 31  1  0  0  0  0
 18 32  1  0  0  0  0
 19 32  1  0  0  0  0
 19 33  2  0  0  0  0
 19 34  1  0  0  0  0
 20 22  2  0  0  0  0
 20 39  1  0  0  0  0
 21 24  2  0  0  0  0
 21 40  1  0  0  0  0
 22 51  1  0  0  0  0
 23 25  2  0  0  0  0
 23 50  1  0  0  0  0
 24 41  1  0  0  0  0
 25 54  1  0  0  0  0
 26 80  1  0  0  0  0
 27 81  1  0  0  0  0
 28 82  1  0  0  0  0
 29 31  2  0  0  0  0
 29 80  1  0  0  0  0
 30 83  1  0  0  0  0
 31 84  1  0  0  0  0
 32 65  2  0  0  0  0
 33 66  1  0  0  0  0
 33 70  1  0  0  0  0
 34 71  1  0  0  0  0
 34 75  2  0  0  0  0
 35 52  1  0  0  0  0
 35 72  1  0  0  0  0
 35 76  2  0  0  0  0
 36 62  1  0  0  0  0
 36 67  1  0  0  0  0
 36 77  2  0  0  0  0
 37 63  1  0  0  0  0
 37 73  1  0  0  0  0
 37 78  2  0  0  0  0
 38 68  1  0  0  0  0
 38 69  1  0  0  0  0
 38 79  2  0  0  0  0
 39 42  1  0  0  0  0
 40 52  1  0  0  0  0
 41 67  1  0  0  0  0
 42 44  1  0  0  0  0
 43 45  1  0  0  0  0
 43 47  1  0  0  0  0
 44 51  1  0  0  0  0
 45 53  1  0  0  0  0
 46 48  1  0  0  0  0
 46 50  1  0  0  0  0
 47 68  1  0  0  0  0
 48 69  1  0  0  0  0
 49 53  1  0  0  0  0
 49 68  1  0  0  0  0
 50 69  1  0  0  0  0
 51 72  1  0  0  0  0
 52 67  1  0  0  0  0
 53 66  1  0  0  0  0
 55 63  1  0  0  0  0
 56 64  1  0  0  0  0
 57 64  1  0  0  0  0
 58 64  1  0  0  0  0
 59 74  1  0  0  0  0
 60 61  1  0  0  0  0
 60 81  1  0  0  0  0
 61 82  1  0  0  0  0
 62 64  1  0  0  0  0
 62 73  1  0  0  0  0
 63 74  1  0  0  0  0
 65 66  1  0  0  0  0
M  CHG  1  74   1
M  ISO  4  38 100  60 101  69 100  81 101
M  END
> <Batch ID>
0138

> <Smiles>
CNC(C)C(=O)NC(C(=O)N1Cc2cc([101O:1][101CH2:1]COc3ccc(C4CC[100N:0]4[100C:0](=O)N4CCCC(n5nc(-c6ccc(Oc7ccc(F)cc7F)cc6)c(C(N)=O)c5N)C4)c(C)c3)ccc2CC1C(=O)NC1CCCc2ccccc21)C(C)(C)C

> <Shape>
0.252

> <Color>
0.077

> <Negative vol penalty>
0.000

$$$$

  -OEChem-04052321083D

 81 89  0     1  0  0  0  0  0999 V2000
  -17.8540  -29.6878   23.1857 C   0  0  0  0  0  0  0  0  0  0  0  0
  -19.1649  -29.7684   22.7269 C   0  0  0  0  0  0  0  0  0  0  0  0
  -31.7303  -21.4327   15.9982 C   0  0  0  0  0  0  0  0  0  0  0  0
  -26.5309  -12.8368   21.6530 C   0  0  0  0  0  0  0  0  0  0  0  0
  -26.1580  -13.8986   19.5151 C   0  0  0  0  0  0  0  0  0  0  0  0
  -17.4210  -28.5458   23.8584 C   0  0  0  0  0  0  0  0  0  0  0  0
  -20.0440  -28.7074   22.9415 C   0  0  0  0  0  0  0  0  0  0  0  0
  -24.5117  -26.8148   19.2048 C   0  0  0  0  0  0  0  0  0  0  0  0
  -31.6956  -22.8046   16.2476 C   0  0  0  0  0  0  0  0  0  0  0  0
  -31.6002  -20.5287   17.0525 C   0  0  0  0  0  0  0  0  0  0  0  0
  -25.2611  -12.2631   21.5896 C   0  0  0  0  0  0  0  0  0  0  0  0
  -24.8881  -13.3249   19.4516 C   0  0  0  0  0  0  0  0  0  0  0  0
  -25.8862  -27.0482   19.1927 C   0  0  0  0  0  0  0  0  0  0  0  0
  -23.7851   -9.6450   20.0403 C   0  0  0  0  0  0  0  0  0  0  0  0
  -23.6654   -8.2966   20.3767 C   0  0  0  0  0  0  0  0  0  0  0  0
  -26.2427  -24.9745   20.3724 C   0  0  0  0  0  0  0  0  0  0  0  0
  -31.4006  -22.3685   18.6056 C   0  0  0  0  0  0  0  0  0  0  0  0
  -22.1382   -8.8763   22.1569 C   0  0  0  0  0  0  0  0  0  0  0  0
  -26.9793  -13.6546   20.6158 C   0  0  0  0  0  0  0  0  0  0  0  0
  -29.4957  -13.7021   20.1994 C   0  0  0  0  0  0  0  0  0  0  0  0
  -18.2925  -27.4664   24.0728 C   0  0  0  0  0  0  0  0  0  0  0  0
  -23.9907  -25.6628   19.8115 C   0  0  0  0  0  0  0  0  0  0  0  0
  -19.6226  -27.5505   23.6189 C   0  0  0  0  0  0  0  0  0  0  0  0
  -24.8615  -24.7275   20.3887 C   0  0  0  0  0  0  0  0  0  0  0  0
  -31.5307  -23.2726   17.5512 C   0  0  0  0  0  0  0  0  0  0  0  0
  -31.4353  -20.9966   18.3561 C   0  0  0  0  0  0  0  0  0  0  0  0
  -24.4397  -12.5071   20.4889 C   0  0  0  0  0  0  0  0  0  0  0  0
  -26.7517  -26.1294   19.7791 C   0  0  0  0  0  0  0  0  0  0  0  0
  -23.0814  -10.6091   20.7623 C   0  0  0  0  0  0  0  0  0  0  0  0
  -22.8420   -7.9123   21.4350 C   0  0  0  0  0  0  0  0  0  0  0  0
  -22.2580  -10.2247   21.8205 C   0  0  0  0  0  0  0  0  0  0  0  0
  -28.2907  -14.2480   20.6810 C   0  0  0  0  0  0  0  0  0  0  0  0
  -30.4457  -14.6468   20.5020 C   0  0  0  0  0  0  0  0  0  0  0  0
  -29.7348  -12.4528   19.5377 C   0  0  0  0  0  0  0  0  0  0  0  0
  -22.0279  -25.1033   22.2483 C   0  0  0  0  0  0  0  0  0  0  0  0
  -22.2909  -22.0289   21.2477 C   0  0  0  0  0  0  0  0  0  0  0  0
  -24.1085  -19.6701   19.5806 C   0  0  0  0  0  0  0  0  0  0  0  0
  -31.1319  -20.3750   20.7785 C   0  0  0  0  0  0  0  0  0  0  0  0
  -17.7924  -26.2723   24.8466 C   0  0  0  0  0  0  0  0  0  0  0  0
  -22.5077  -25.4125   19.7927 C   0  0  0  0  0  0  0  0  0  0  0  0
  -24.3542  -23.4652   21.0350 C   0  0  0  0  0  0  0  0  0  0  0  0
  -18.6801  -25.0387   24.7039 C   0  0  0  0  0  0  0  0  0  0  0  0
  -30.7288  -18.4002   23.7136 C   0  0  0  0  0  0  0  0  0  0  0  0
  -20.1477  -25.4133   24.8847 C   0  0  0  0  0  0  0  0  0  0  0  0
  -30.1768  -17.0742   23.1854 C   0  0  0  0  0  0  0  0  0  0  0  0
  -30.1776  -19.5940   22.9359 C   0  0  0  0  0  0  0  0  0  0  0  0
  -29.7887  -18.1883   20.9505 C   0  0  0  0  0  0  0  0  0  0  0  0
  -20.5990  -26.4103   23.8106 C   0  0  1  0  0  0  0  0  0  0  0  0
  -22.0487  -24.4586   20.8912 C   0  0  1  0  0  0  0  0  0  0  0  0
  -30.3655  -16.9527   21.6605 C   0  0  2  0  0  0  0  0  0  0  0  0
  -24.0850  -17.2376   18.9640 C   0  0  0  0  0  0  0  0  0  0  0  0
  -23.0930  -21.3006   24.1001 C   0  0  0  0  0  0  0  0  0  0  0  0
  -23.9578  -19.1198   23.2259 C   0  0  0  0  0  0  0  0  0  0  0  0
  -21.5361  -19.6769   23.0074 C   0  0  0  0  0  0  0  0  0  0  0  0
  -24.0927  -20.2848   16.6856 C   0  0  0  0  0  0  0  0  0  0  0  0
  -31.4934  -24.7483   17.8189 C   0  0  0  0  0  0  0  0  0  0  0  0
  -30.0622  -26.7014   18.4321 C   0  0  0  0  0  0  0  0  0  0  0  0
  -28.6190  -27.0994   18.6708 C   0  0  0  0  0  0  0  0  0  1  0  0
  -23.2206  -20.8801   21.5559 C   0  0  1  0  0  0  0  0  0  0  0  0
  -23.7104  -18.6469   18.5322 C   0  0  2  0  0  0  0  0  0  0  0  0
  -22.9616  -20.2690   22.9619 C   0  0  0  0  0  0  0  0  0  0  0  0
  -28.4573  -15.4464   21.2466 N   0  0  0  0  0  0  0  0  0  0  0  0
  -29.7781  -15.6614   21.1225 N   0  0  0  0  0  0  0  0  0  0  0  0
  -22.8956  -23.2687   20.9967 N   0  0  0  0  0  0  0  0  0  0  0  0
  -30.3957  -19.4110   21.4993 N   0  0  0  0  0  0  0  0  0  0  0  0
  -31.7787  -14.7002   20.2952 N   0  0  0  0  0  0  0  0  0  0  0  0
  -28.6466  -11.6008   19.3052 N   0  0  0  0  0  0  0  0  0  0  0  0
  -31.3025  -20.0780   19.4268 N   0  0  0  0  0  0  0  0  0  0  0  0
  -20.8349  -25.7290   22.5557 N   0  0  0  0  0  0  0  0  0  0  0  0
  -23.0763  -19.9320   20.4565 N   0  0  0  0  0  0  0  0  0  0  0  0
  -24.3909  -18.9387   17.2389 N   0  3  0  0  0  0  0  0  0  0  0  0
  -30.1237  -25.2546   18.1043 N   0  3  0  0  0  0  0  0  0  0  0  0
  -30.8822  -12.0952   19.1784 O   0  0  0  0  0  0  0  0  0  0  0  0
  -23.0203  -25.0366   22.9641 O   0  0  0  0  0  0  0  0  0  0  0  0
  -21.0734  -21.8318   21.2233 O   0  0  0  0  0  0  0  0  0  0  0  0
  -25.2248  -20.1827   19.6208 O   0  0  0  0  0  0  0  0  0  0  0  0
  -31.6015  -21.3758   21.3262 O   0  0  0  0  0  0  0  0  0  0  0  0
  -23.2007  -11.9472   20.4266 O   0  0  0  0  0  0  0  0  0  0  0  0
  -28.0936  -26.3552   19.7692 O   0  0  0  0  0  0  0  0  0  1  0  0
  -22.7259   -6.6173   21.7569 F   0  0  0  0  0  0  0  0  0  0  0  0
  -21.5785  -11.1462   22.5169 F   0  0  0  0  0  0  0  0  0  0  0  0
  1  2  1  0  0  0  0
  1  6  2  0  0  0  0
  2  7  2  0  0  0  0
  3  9  2  0  0  0  0
  3 10  1  0  0  0  0
  4 11  2  0  0  0  0
  4 19  1  0  0  0  0
  5 12  1  0  0  0  0
  5 19  2  0  0  0  0
  6 21  1  0  0  0  0
  7 23  1  0  0  0  0
  8 13  2  0  0  0  0
  8 22  1  0  0  0  0
  9 25  1  0  0  0  0
 10 26  2  0  0  0  0
 11 27  1  0  0  0  0
 12 27  2  0  0  0  0
 13 28  1  0  0  0  0
 14 15  2  0  0  0  0
 14 29  1  0  0  0  0
 15 30  1  0  0  0  0
 16 24  1  0  0  0  0
 16 28  2  0  0  0  0
 17 25  2  0  0  0  0
 17 26  1  0  0  0  0
 18 30  2  0  0  0  0
 18 31  1  0  0  0  0
 19 32  1  0  0  0  0
 20 32  1  0  0  0  0
 20 33  2  0  0  0  0
 20 34  1  0  0  0  0
 21 23  2  0  0  0  0
 21 39  1  0  0  0  0
 22 24  2  0  0  0  0
 22 40  1  0  0  0  0
 23 48  1  0  0  0  0
 24 41  1  0  0  0  0
 25 56  1  0  0  0  0
 26 68  1  0  0  0  0
 27 78  1  0  0  0  0
 28 79  1  0  0  0  0
 29 31  2  0  0  0  0
 29 78  1  0  0  0  0
 30 80  1  0  0  0  0
 31 81  1  0  0  0  0
 32 62  2  0  0  0  0
 33 63  1  0  0  0  0
 33 66  1  0  0  0  0
 34 67  1  0  0  0  0
 34 73  2  0  0  0  0
 35 49  1  0  0  0  0
 35 69  1  0  0  0  0
 35 74  2  0  0  0  0
 36 59  1  0  0  0  0
 36 64  1  0  0  0  0
 36 75  2  0  0  0  0
 37 60  1  0  0  0  0
 37 70  1  0  0  0  0
 37 76  2  0  0  0  0
 38 65  1  0  0  0  0
 38 68  1  0  0  0  0
 38 77  2  0  0  0  0
 39 42  1  0  0  0  0
 40 49  1  0  0  0  0
 41 64  1  0  0  0  0
 42 44  1  0  0  0  0
 43 45  1  0  0  0  0
 43 46  1  0  0  0  0
 44 48  1  0  0  0  0
 45 50  1  0  0  0  0
 46 65  1  0  0  0  0
 47 50  1  0  0  0  0
 47 65  1  0  0  0  0
 48 69  1  0  0  0  0
 49 64  1  0  0  0  0
 50 63  1  0  0  0  0
 51 60  1  0  0  0  0
 52 61  1  0  0  0  0
 53 61  1  0  0  0  0
 54 61  1  0  0  0  0
 55 71  1  0  0  0  0
 56 72  1  0  0  0  0
 57 58  1  0  0  0  0
 57 72  1  0  0  0  0
 58 79  1  0  0  0  0
 59 61  1  0  0  0  0
 59 70  1  0  0  0  0
 60 71  1  0  0  0  0
 62 63  1  0  0  0  0
M  CHG  2  71   1  72   1
M  ISO  4  38 100  58 101  68 100  79 101
M  END
> <Batch ID>
0138

> <Smiles>
CNC(C)C(=O)NC(C(=O)N1Cc2cc([101O:1][101CH2:1]CNCc3cccc([100NH:0][100C:0](=O)N4CCCC(n5nc(-c6ccc(Oc7ccc(F)cc7F)cc6)c(C(N)=O)c5N)C4)c3)ccc2CC1C(=O)NC1CCCc2ccccc21)C(C)(C)C

> <Shape>
0.226

> <Color>
0.070

> <Negative vol penalty>
0.000

$$$$

  -OEChem-04052321083D

 89 98  0     1  0  0  0  0  0999 V2000
  -27.8837  -34.0350   26.0055 C   0  0  0  0  0  0  0  0  0  0  0  0
  -28.0791  -32.8140   25.3678 C   0  0  0  0  0  0  0  0  0  0  0  0
  -23.2143  -10.3258   21.8135 C   0  0  0  0  0  0  0  0  0  0  0  0
  -24.2768   -8.4407   20.7389 C   0  0  0  0  0  0  0  0  0  0  0  0
  -26.5963  -34.4382   26.3573 C   0  0  0  0  0  0  0  0  0  0  0  0
  -26.9871  -31.9951   25.0827 C   0  0  0  0  0  0  0  0  0  0  0  0
  -27.1632  -30.0843   20.3962 C   0  0  0  0  0  0  0  0  0  0  0  0
  -29.5741  -21.6986   17.0747 C   0  0  0  0  0  0  0  0  0  0  0  0
  -21.9619   -9.7780   21.5361 C   0  0  0  0  0  0  0  0  0  0  0  0
  -23.0243   -7.8929   20.4615 C   0  0  0  0  0  0  0  0  0  0  0  0
  -28.0195  -29.0054   20.1803 C   0  0  0  0  0  0  0  0  0  0  0  0
  -29.7412  -23.0613   17.3209 C   0  0  0  0  0  0  0  0  0  0  0  0
  -19.9660   -7.3587   22.7994 C   0  0  0  0  0  0  0  0  0  0  0  0
  -19.0176   -7.3585   23.8223 C   0  0  0  0  0  0  0  0  0  0  0  0
  -26.1441  -27.4952   20.3274 C   0  0  0  0  0  0  0  0  0  0  0  0
  -27.3633  -23.4000   17.0606 C   0  0  0  0  0  0  0  0  0  0  0  0
  -17.5425   -8.6968   22.4548 C   0  0  0  0  0  0  0  0  0  0  0  0
  -24.3718   -9.6571   21.4149 C   0  0  0  0  0  0  0  0  0  0  0  0
  -26.4515  -10.0104   22.8493 C   0  0  0  0  0  0  0  0  0  0  0  0
  -25.4869  -33.6282   26.0676 C   0  0  0  0  0  0  0  0  0  0  0  0
  -25.7902  -29.8754   20.5906 C   0  0  0  0  0  0  0  0  0  0  0  0
  -25.6837  -32.3873   25.4321 C   0  0  0  0  0  0  0  0  0  0  0  0
  -25.2722  -28.5733   20.5431 C   0  0  0  0  0  0  0  0  0  0  0  0
  -27.1961  -22.0372   16.8145 C   0  0  0  0  0  0  0  0  0  0  0  0
  -28.3015  -21.1865   16.8215 C   0  0  0  0  0  0  0  0  0  0  0  0
  -21.8668   -8.5616   20.8602 C   0  0  0  0  0  0  0  0  0  0  0  0
  -27.5105  -27.7104   20.1487 C   0  0  0  0  0  0  0  0  0  0  0  0
  -28.6359  -23.9120   17.3138 C   0  0  0  0  0  0  0  0  0  0  0  0
  -19.7026   -8.0281   21.6043 C   0  0  0  0  0  0  0  0  0  0  0  0
  -17.8058   -8.0275   23.6499 C   0  0  0  0  0  0  0  0  0  0  0  0
  -18.4909   -8.6971   21.4320 C   0  0  0  0  0  0  0  0  0  0  0  0
  -25.6658  -10.2227   21.7007 C   0  0  0  0  0  0  0  0  0  0  0  0
  -27.5793  -10.7654   22.6383 C   0  0  0  0  0  0  0  0  0  0  0  0
  -26.1856   -9.2030   24.0039 C   0  0  0  0  0  0  0  0  0  0  0  0
  -23.7508  -30.4307   22.9646 C   0  0  0  0  0  0  0  0  0  0  0  0
  -21.5558  -29.4427   20.7902 C   0  0  0  0  0  0  0  0  0  0  0  0
  -20.8773  -27.6447   17.9700 C   0  0  0  0  0  0  0  0  0  0  0  0
  -28.6827  -15.5701   19.6237 C   0  0  0  0  0  0  0  0  0  0  0  0
  -24.1193  -34.0850   26.5097 C   0  0  0  0  0  0  0  0  0  0  0  0
  -24.8759  -31.0520   20.7957 C   0  0  0  0  0  0  0  0  0  0  0  0
  -23.8029  -28.2973   20.7258 C   0  0  0  0  0  0  0  0  0  0  0  0
  -22.9772  -33.3289   25.8358 C   0  0  0  0  0  0  0  0  0  0  0  0
  -30.3286  -12.5068   19.1376 C   0  0  0  0  0  0  0  0  0  0  0  0
  -23.2444  -31.8273   25.8586 C   0  0  0  0  0  0  0  0  0  0  0  0
  -29.3892  -11.5400   19.8579 C   0  0  0  0  0  0  0  0  0  0  0  0
  -28.5896  -17.4394   16.6430 C   0  0  0  0  0  0  0  0  0  0  0  0
  -28.9722  -18.8892   18.6726 C   0  0  0  0  0  0  0  0  0  0  0  0
  -29.5621  -13.5667   18.3444 C   0  0  0  0  0  0  0  0  0  0  0  0
  -29.3966  -16.3219   17.3104 C   0  0  0  0  0  0  0  0  0  0  0  0
  -29.7925  -17.7576   19.2856 C   0  0  0  0  0  0  0  0  0  0  0  0
  -27.6246  -13.3436   19.8660 C   0  0  0  0  0  0  0  0  0  0  0  0
  -24.5219  -31.4824   25.0837 C   0  0  1  0  0  0  0  0  0  0  0  0
  -23.5714  -30.6803   21.4939 C   0  0  1  0  0  0  0  0  0  0  0  0
  -28.3659  -12.3022   20.7186 C   0  0  1  0  0  0  0  0  0  0  0  0
  -29.0198  -18.8201   17.1440 C   0  0  0  0  0  0  0  0  0  0  0  0
  -25.2007  -22.1246   15.2769 C   0  0  0  0  0  0  0  0  0  0  0  0
  -24.8746  -21.7187   17.7435 C   0  0  0  0  0  0  0  0  0  0  0  0
  -18.9846  -26.9947   16.4560 C   0  0  0  0  0  0  0  0  0  0  0  0
  -20.5893  -27.4275   22.8675 C   0  0  0  0  0  0  0  0  0  0  0  0
  -19.3991  -26.2108   21.0315 C   0  0  0  0  0  0  0  0  0  0  0  0
  -18.7652  -28.5592   21.5843 C   0  0  0  0  0  0  0  0  0  0  0  0
  -22.1356  -28.9644   15.6389 C   0  0  0  0  0  0  0  0  0  0  0  0
  -29.5043  -26.8927   19.1429 C   0  0  0  0  0  0  0  0  0  1  0  0
  -29.8777  -25.6202   18.4074 C   0  0  0  0  0  0  0  0  0  0  0  0
  -25.8217  -21.5157   16.5470 C   0  0  0  0  0  0  0  0  0  0  0  0
  -20.9564  -28.1117   20.4052 C   0  0  1  0  0  0  0  0  0  0  0  0
  -20.0999  -27.9957   16.7143 C   0  0  2  0  0  0  0  0  0  0  0  0
  -19.9555  -27.5820   21.4706 C   0  0  0  0  0  0  0  0  0  0  0  0
  -26.2454  -11.0480   20.8249 N   0  0  0  0  0  0  0  0  0  0  0  0
  -27.4072  -11.3610   21.4235 N   0  0  0  0  0  0  0  0  0  0  0  0
  -22.9504  -29.4802   20.9297 N   0  0  0  0  0  0  0  0  0  0  0  0
  -28.5709  -14.2385   19.1965 N   0  0  0  0  0  0  0  0  0  0  0  0
  -29.3607  -16.4565   18.7737 N   0  0  0  0  0  0  0  0  0  0  0  0
  -28.6915  -10.9712   23.3752 N   0  0  0  0  0  0  0  0  0  0  0  0
  -24.9788   -8.4924   24.0588 N   0  0  0  0  0  0  0  0  0  0  0  0
  -28.1544  -19.8322   16.5796 N   0  0  0  0  0  0  0  0  0  0  0  0
  -24.2706  -31.5066   23.6586 N   0  0  0  0  0  0  0  0  0  0  0  0
  -20.3766  -28.2935   19.0789 N   0  0  0  0  0  0  0  0  0  0  0  0
  -21.0053  -28.0065   15.5306 N   0  3  0  0  0  0  0  0  0  0  0  0
  -26.9870   -9.1271   24.9660 O   0  0  0  0  0  0  0  0  0  0  0  0
  -23.4393  -29.3429   23.4353 O   0  0  0  0  0  0  0  0  0  0  0  0
  -20.8146  -30.4150   20.9541 O   0  0  0  0  0  0  0  0  0  0  0  0
  -21.8309  -26.8693   17.9681 O   0  0  0  0  0  0  0  0  0  0  0  0
  -28.2046  -15.9453   20.7016 O   0  0  0  0  0  0  0  0  0  0  0  0
  -20.6449   -8.0267   20.5895 O   0  0  0  0  0  0  0  0  0  0  0  0
  -28.3498  -26.6484   19.9373 O   0  0  0  0  0  0  0  0  0  1  0  0
  -28.7992  -25.2421   17.5534 O   0  0  0  0  0  0  0  0  0  0  0  0
  -16.8946   -8.0258   24.6317 F   0  0  0  0  0  0  0  0  0  0  0  0
  -18.2317   -9.3409   20.2856 F   0  0  0  0  0  0  0  0  0  0  0  0
  1  2  1  0  0  0  0
  1  5  2  0  0  0  0
  2  6  2  0  0  0  0
  3  9  2  0  0  0  0
  3 18  1  0  0  0  0
  4 10  1  0  0  0  0
  4 18  2  0  0  0  0
  5 20  1  0  0  0  0
  6 22  1  0  0  0  0
  7 11  2  0  0  0  0
  7 21  1  0  0  0  0
  8 12  2  0  0  0  0
  8 25  1  0  0  0  0
  9 26  1  0  0  0  0
 10 26  2  0  0  0  0
 11 27  1  0  0  0  0
 12 28  1  0  0  0  0
 13 14  2  0  0  0  0
 13 29  1  0  0  0  0
 14 30  1  0  0  0  0
 15 23  1  0  0  0  0
 15 27  2  0  0  0  0
 16 24  1  0  0  0  0
 16 28  2  0  0  0  0
 17 30  2  0  0  0  0
 17 31  1  0  0  0  0
 18 32  1  0  0  0  0
 19 32  1  0  0  0  0
 19 33  2  0  0  0  0
 19 34  1  0  0  0  0
 20 22  2  0  0  0  0
 20 39  1  0  0  0  0
 21 23  2  0  0  0  0
 21 40  1  0  0  0  0
 22 52  1  0  0  0  0
 23 41  1  0  0  0  0
 24 25  2  0  0  0  0
 24 65  1  0  0  0  0
 25 76  1  0  0  0  0
 26 85  1  0  0  0  0
 27 86  1  0  0  0  0
 28 87  1  0  0  0  0
 29 31  2  0  0  0  0
 29 85  1  0  0  0  0
 30 88  1  0  0  0  0
 31 89  1  0  0  0  0
 32 69  2  0  0  0  0
 33 70  1  0  0  0  0
 33 74  1  0  0  0  0
 34 75  1  0  0  0  0
 34 80  2  0  0  0  0
 35 53  1  0  0  0  0
 35 77  1  0  0  0  0
 35 81  2  0  0  0  0
 36 66  1  0  0  0  0
 36 71  1  0  0  0  0
 36 82  2  0  0  0  0
 37 67  1  0  0  0  0
 37 78  1  0  0  0  0
 37 83  2  0  0  0  0
 38 72  1  0  0  0  0
 38 73  1  0  0  0  0
 38 84  2  0  0  0  0
 39 42  1  0  0  0  0
 40 53  1  0  0  0  0
 41 71  1  0  0  0  0
 42 44  1  0  0  0  0
 43 45  1  0  0  0  0
 43 48  1  0  0  0  0
 44 52  1  0  0  0  0
 45 54  1  0  0  0  0
 46 49  1  0  0  0  0
 46 55  1  0  0  0  0
 47 50  1  0  0  0  0
 47 55  1  0  0  0  0
 48 72  1  0  0  0  0
 49 73  1  0  0  0  0
 50 73  1  0  0  0  0
 51 54  1  0  0  0  0
 51 72  1  0  0  0  0
 52 77  1  0  0  0  0
 53 71  1  0  0  0  0
 54 70  1  0  0  0  0
 55 76  1  0  0  0  0
 56 65  1  0  0  0  0
 57 65  1  0  0  0  0
 58 67  1  0  0  0  0
 59 68  1  0  0  0  0
 60 68  1  0  0  0  0
 61 68  1  0  0  0  0
 62 79  1  0  0  0  0
 63 64  1  0  0  0  0
 63 86  1  0  0  0  0
 64 87  1  0  0  0  0
 66 68  1  0  0  0  0
 66 78  1  0  0  0  0
 67 79  1  0  0  0  0
 69 70  1  0  0  0  0
M  CHG  1  79   1
M  ISO  4  38 100  63 101  73 100  86 101
M  END
> <Batch ID>
0138

> <Smiles>
CNC(C)C(=O)NC(C(=O)N1Cc2cc([101O:1][101CH2:1]COc3ccc(NC4CC[100N:0]([100C:0](=O)N5CCCC(n6nc(-c7ccc(Oc8ccc(F)cc8F)cc7)c(C(N)=O)c6N)C5)CC4)c(C(C)C)c3)ccc2CC1C(=O)NC1CCCc2ccccc21)C(C)(C)C

> <Shape>
0.277

> <Color>
0.107

> <Negative vol penalty>
0.000

$$$$

  -OEChem-04052321083D

 92102  0     1  0  0  0  0  0999 V2000
  -17.0270  -27.6465   19.7156 C   0  0  0  0  0  0  0  0  0  0  0  0
  -17.7565  -28.7256   19.2269 C   0  0  0  0  0  0  0  0  0  0  0  0
  -22.9986   -9.8586   21.5959 C   0  0  0  0  0  0  0  0  0  0  0  0
  -24.4049  -10.6254   23.4046 C   0  0  0  0  0  0  0  0  0  0  0  0
  -17.1532  -27.2690   21.0518 C   0  0  0  0  0  0  0  0  0  0  0  0
  -18.6119  -29.4286   20.0746 C   0  0  0  0  0  0  0  0  0  0  0  0
  -26.2493  -30.9104   19.3664 C   0  0  0  0  0  0  0  0  0  0  0  0
  -22.4078   -8.9274   22.4499 C   0  0  0  0  0  0  0  0  0  0  0  0
  -23.8141   -9.6942   24.2587 C   0  0  0  0  0  0  0  0  0  0  0  0
  -27.6297  -31.1012   19.4307 C   0  0  0  0  0  0  0  0  0  0  0  0
  -23.1687   -5.8971   23.7394 C   0  0  0  0  0  0  0  0  0  0  0  0
  -22.9933   -4.5991   23.2600 C   0  0  0  0  0  0  0  0  0  0  0  0
  -27.5136  -31.2056   21.8439 C   0  0  0  0  0  0  0  0  0  0  0  0
  -31.3641  -27.7851   22.1098 C   0  0  0  0  0  0  0  0  0  0  0  0
  -31.6132  -27.2686   19.7628 C   0  0  0  0  0  0  0  0  0  0  0  0
  -20.6075   -4.8026   23.5817 C   0  0  0  0  0  0  0  0  0  0  0  0
  -23.9972  -10.7076   22.0732 C   0  0  0  0  0  0  0  0  0  0  0  0
  -25.3168  -11.4041   20.0041 C   0  0  0  0  0  0  0  0  0  0  0  0
  -18.0179  -27.9617   21.9139 C   0  0  0  0  0  0  0  0  0  0  0  0
  -25.4970  -30.8509   20.5428 C   0  0  0  0  0  0  0  0  0  0  0  0
  -18.7488  -29.0608   21.4239 C   0  0  0  0  0  0  0  0  0  0  0  0
  -26.1323  -31.0021   21.7863 C   0  0  0  0  0  0  0  0  0  0  0  0
  -31.2312  -25.4934   21.3565 C   0  0  0  0  0  0  0  0  0  0  0  0
  -31.1924  -26.4295   22.3899 C   0  0  0  0  0  0  0  0  0  0  0  0
  -31.5745  -28.2046   20.7962 C   0  0  0  0  0  0  0  0  0  0  0  0
  -22.8156   -8.8452   23.7813 C   0  0  0  0  0  0  0  0  0  0  0  0
  -28.2602  -31.2487   20.6664 C   0  0  0  0  0  0  0  0  0  0  0  0
  -22.0635   -6.6479   24.1401 C   0  0  0  0  0  0  0  0  0  0  0  0
  -31.4416  -25.9129   20.0429 C   0  0  0  0  0  0  0  0  0  0  0  0
  -21.7127   -4.0518   23.1811 C   0  0  0  0  0  0  0  0  0  0  0  0
  -20.7829   -6.1007   24.0612 C   0  0  0  0  0  0  0  0  0  0  0  0
  -24.6082  -11.6694   21.1913 C   0  0  0  0  0  0  0  0  0  0  0  0
  -25.6899  -12.6429   19.5429 C   0  0  0  0  0  0  0  0  0  0  0  0
  -25.6113  -10.1502   19.3744 C   0  0  0  0  0  0  0  0  0  0  0  0
  -22.1164  -30.4173   22.1111 C   0  0  0  0  0  0  0  0  0  0  0  0
  -24.1108  -28.8643   23.8491 C   0  0  0  0  0  0  0  0  0  0  0  0
  -26.5509  -26.9366   25.2517 C   0  0  0  0  0  0  0  0  0  0  0  0
  -27.9673  -17.5910   20.8165 C   0  0  0  0  0  0  0  0  0  0  0  0
  -18.0854  -27.5462   23.3621 C   0  0  0  0  0  0  0  0  0  0  0  0
  -23.9993  -30.7085   20.5185 C   0  0  0  0  0  0  0  0  0  0  0  0
  -25.2781  -30.9660   23.0240 C   0  0  0  0  0  0  0  0  0  0  0  0
  -19.2962  -28.1095   24.1016 C   0  0  0  0  0  0  0  0  0  0  0  0
  -24.2771  -17.2714   21.0038 C   0  0  0  0  0  0  0  0  0  0  0  0
  -19.4611  -29.5959   23.8013 C   0  0  0  0  0  0  0  0  0  0  0  0
  -24.1076  -15.7515   21.0126 C   0  0  0  0  0  0  0  0  0  0  0  0
  -27.7572  -21.2608   20.8224 C   0  0  0  0  0  0  0  0  0  0  0  0
  -32.1723  -23.0761   21.2346 C   0  0  0  0  0  0  0  0  0  0  0  0
  -25.5866  -17.6775   21.6672 C   0  0  0  0  0  0  0  0  0  0  0  0
  -27.0444  -19.9572   21.1682 C   0  0  0  0  0  0  0  0  0  0  0  0
  -26.6378  -15.5275   21.0759 C   0  0  0  0  0  0  0  0  0  0  0  0
  -29.4179  -19.5778   21.1242 C   0  0  0  0  0  0  0  0  0  0  0  0
  -31.5344  -21.7100   21.3724 C   0  0  0  0  0  0  0  0  0  0  0  0
  -29.8234  -23.4042   20.9632 C   0  0  0  0  0  0  0  0  0  0  0  0
  -31.0456  -24.0212   21.6546 C   0  0  2  0  0  0  0  0  0  0  0  0
  -19.7058  -29.8329   22.3062 C   0  0  1  0  0  0  0  0  0  0  0  0
  -23.4530  -29.8781   21.6937 C   0  0  1  0  0  0  0  0  0  0  0  0
  -25.3369  -15.0507   20.4060 C   0  0  1  0  0  0  0  0  0  0  0  0
  -29.1307  -21.0350   21.4365 C   0  0  1  0  0  0  0  0  0  0  0  0
  -30.9687  -26.0057   23.8046 C   0  0  0  0  0  0  0  0  0  0  0  0
  -27.5800  -25.2212   26.7668 C   0  0  0  0  0  0  0  0  0  0  0  0
  -24.1375  -31.1723   25.8432 C   0  0  0  0  0  0  0  0  0  0  0  0
  -25.4272  -29.7084   27.4122 C   0  0  0  0  0  0  0  0  0  0  0  0
  -23.1242  -29.0564   26.7095 C   0  0  0  0  0  0  0  0  0  0  0  0
  -26.0048  -24.7478   23.3360 C   0  0  0  0  0  0  0  0  0  0  0  0
  -31.7023  -25.5310   17.7102 C   0  0  0  0  0  0  0  0  0  0  0  0
  -31.7198  -30.5870   21.5233 C   0  0  0  0  0  0  0  0  0  0  0  0
  -30.2847  -30.9387   21.8780 C   0  0  0  0  0  0  0  0  0  1  0  0
  -25.0231  -28.8806   25.0495 C   0  0  1  0  0  0  0  0  0  0  0  0
  -26.5705  -25.4740   25.6579 C   0  0  2  0  0  0  0  0  0  0  0  0
  -24.4378  -29.7097   26.2274 C   0  0  0  0  0  0  0  0  0  0  0  0
  -24.5344  -12.9741   21.4672 N   0  0  0  0  0  0  0  0  0  0  0  0
  -25.2015  -13.5399   20.4469 N   0  0  0  0  0  0  0  0  0  0  0  0
  -24.2784  -29.8922   22.9133 N   0  0  0  0  0  0  0  0  0  0  0  0
  -26.7266  -16.9892   21.0550 N   0  0  0  0  0  0  0  0  0  0  0  0
  -28.1018  -18.9412   21.1366 N   0  0  0  0  0  0  0  0  0  0  0  0
  -26.3849  -13.0416   18.4565 N   0  0  0  0  0  0  0  0  0  0  0  0
  -25.1527   -8.9734   19.9821 N   0  0  0  0  0  0  0  0  0  0  0  0
  -31.7480  -29.5753   20.5128 N   0  0  0  0  0  0  0  0  0  0  0  0
  -21.0763  -29.5198   21.9625 N   0  0  0  0  0  0  0  0  0  0  0  0
  -25.2918  -27.4846   25.3770 N   0  0  0  0  0  0  0  0  0  0  0  0
  -30.1391  -21.9243   20.8370 N   0  3  2  0  0  0  0  0  0  0  0  0
  -26.9286  -24.6174   24.4921 N   0  3  0  0  0  0  0  0  0  0  0  0
  -26.2759  -10.0743   18.3133 O   0  0  0  0  0  0  0  0  0  0  0  0
  -22.0337  -31.5629   22.5383 O   0  0  0  0  0  0  0  0  0  0  0  0
  -23.2678  -27.9689   23.7444 O   0  0  0  0  0  0  0  0  0  0  0  0
  -27.5531  -27.5342   24.8657 O   0  0  0  0  0  0  0  0  0  0  0  0
  -28.8987  -16.9632   20.2956 O   0  0  0  0  0  0  0  0  0  0  0  0
  -22.2392   -7.9368   24.6151 O   0  0  0  0  0  0  0  0  0  0  0  0
  -31.4825  -25.0130   19.0205 O   0  0  0  0  0  0  0  0  0  0  0  0
  -29.6183  -31.4315   20.7226 O   0  0  0  0  0  0  0  0  0  1  0  0
  -21.5443   -2.8058   22.7193 F   0  0  0  0  0  0  0  0  0  0  0  0
  -19.7172   -6.8175   24.4435 F   0  0  0  0  0  0  0  0  0  0  0  0
  1  2  1  0  0  0  0
  1  5  2  0  0  0  0
  2  6  2  0  0  0  0
  3  8  2  0  0  0  0
  3 17  1  0  0  0  0
  4  9  1  0  0  0  0
  4 17  2  0  0  0  0
  5 19  1  0  0  0  0
  6 21  1  0  0  0  0
  7 10  2  0  0  0  0
  7 20  1  0  0  0  0
  8 26  1  0  0  0  0
  9 26  2  0  0  0  0
 10 27  1  0  0  0  0
 11 12  2  0  0  0  0
 11 28  1  0  0  0  0
 12 30  1  0  0  0  0
 13 22  1  0  0  0  0
 13 27  2  0  0  0  0
 14 24  2  0  0  0  0
 14 25  1  0  0  0  0
 15 25  2  0  0  0  0
 15 29  1  0  0  0  0
 16 30  2  0  0  0  0
 16 31  1  0  0  0  0
 17 32  1  0  0  0  0
 18 32  1  0  0  0  0
 18 33  2  0  0  0  0
 18 34  1  0  0  0  0
 19 21  2  0  0  0  0
 19 39  1  0  0  0  0
 20 22  2  0  0  0  0
 20 40  1  0  0  0  0
 21 55  1  0  0  0  0
 22 41  1  0  0  0  0
 23 24  1  0  0  0  0
 23 29  2  0  0  0  0
 23 54  1  0  0  0  0
 24 59  1  0  0  0  0
 25 78  1  0  0  0  0
 26 88  1  0  0  0  0
 27 90  1  0  0  0  0
 28 31  2  0  0  0  0
 28 88  1  0  0  0  0
 29 89  1  0  0  0  0
 30 91  1  0  0  0  0
 31 92  1  0  0  0  0
 32 71  2  0  0  0  0
 33 72  1  0  0  0  0
 33 76  1  0  0  0  0
 34 77  1  0  0  0  0
 34 83  2  0  0  0  0
 35 56  1  0  0  0  0
 35 79  1  0  0  0  0
 35 84  2  0  0  0  0
 36 68  1  0  0  0  0
 36 73  1  0  0  0  0
 36 85  2  0  0  0  0
 37 69  1  0  0  0  0
 37 80  1  0  0  0  0
 37 86  2  0  0  0  0
 38 74  1  0  0  0  0
 38 75  1  0  0  0  0
 38 87  2  0  0  0  0
 39 42  1  0  0  0  0
 40 56  1  0  0  0  0
 41 73  1  0  0  0  0
 42 44  1  0  0  0  0
 43 45  1  0  0  0  0
 43 48  1  0  0  0  0
 44 55  1  0  0  0  0
 45 57  1  0  0  0  0
 46 49  1  0  0  0  0
 46 58  1  0  0  0  0
 47 52  1  0  0  0  0
 47 54  1  0  0  0  0
 48 74  1  0  0  0  0
 49 75  1  0  0  0  0
 50 57  1  0  0  0  0
 50 74  1  0  0  0  0
 51 58  1  0  0  0  0
 51 75  1  0  0  0  0
 52 81  1  0  0  0  0
 53 54  1  0  0  0  0
 53 81  1  0  0  0  0
 55 79  1  0  0  0  0
 56 73  1  0  0  0  0
 57 72  1  0  0  0  0
 58 81  1  0  0  0  0
 60 69  1  0  0  0  0
 61 70  1  0  0  0  0
 62 70  1  0  0  0  0
 63 70  1  0  0  0  0
 64 82  1  0  0  0  0
 65 89  1  0  0  0  0
 66 67  1  0  0  0  0
 66 78  1  0  0  0  0
 67 90  1  0  0  0  0
 68 70  1  0  0  0  0
 68 80  1  0  0  0  0
 69 82  1  0  0  0  0
 71 72  1  0  0  0  0
M  CHG  2  81   1  82   1
M  ISO  4  38 100  67 101  75 100  90 101
M  END
> <Batch ID>
0138

> <Smiles>
CNC(C)C(=O)NC(C(=O)N1Cc2cc([101O:1][101CH2:1]CNc3cc(C)c(C4CCN(C5CC[100N:0]([100C:0](=O)N6CCCC(n7nc(-c8ccc(Oc9ccc(F)cc9F)cc8)c(C(N)=O)c7N)C6)C5)C4)c(OC)c3)ccc2CC1C(=O)NC1CCCc2ccccc21)C(C)(C)C

> <Shape>
0.262

> <Color>
0.081

> <Negative vol penalty>
0.000

$$$$

  -OEChem-04052321083D

 82 90  0     1  0  0  0  0  0999 V2000
  -28.8410  -12.8644   18.5152 C   0  0  0  0  0  0  0  0  0  0  0  0
  -28.3974  -14.1435   18.1950 C   0  0  0  0  0  0  0  0  0  0  0  0
  -29.4321  -24.8240   18.8459 C   0  0  0  0  0  0  0  0  0  0  0  0
  -28.0602  -23.6493   20.4507 C   0  0  0  0  0  0  0  0  0  0  0  0
  -28.0518  -12.0323   19.3082 C   0  0  0  0  0  0  0  0  0  0  0  0
  -27.1638  -14.5909   18.6667 C   0  0  0  0  0  0  0  0  0  0  0  0
  -25.7100  -20.3029   20.3297 C   0  0  0  0  0  0  0  0  0  0  0  0
  -30.3659  -23.7886   18.8862 C   0  0  0  0  0  0  0  0  0  0  0  0
  -28.9940  -22.6139   20.4910 C   0  0  0  0  0  0  0  0  0  0  0  0
  -25.0528  -21.3356   19.6624 C   0  0  0  0  0  0  0  0  0  0  0  0
  -30.8420  -19.4932   20.7448 C   0  0  0  0  0  0  0  0  0  0  0  0
  -30.3628  -18.1843   20.6925 C   0  0  0  0  0  0  0  0  0  0  0  0
  -22.9824  -20.6945   20.7215 C   0  0  0  0  0  0  0  0  0  0  0  0
  -29.3609  -18.6370   18.5411 C   0  0  0  0  0  0  0  0  0  0  0  0
  -28.2792  -24.7544   19.6282 C   0  0  0  0  0  0  0  0  0  0  0  0
  -26.2077  -25.9378   18.7249 C   0  0  0  0  0  0  0  0  0  0  0  0
  -26.8122  -12.4733   19.7978 C   0  0  0  0  0  0  0  0  0  0  0  0
  -25.0049  -19.4500   21.1911 C   0  0  0  0  0  0  0  0  0  0  0  0
  -26.3567  -13.7635   19.4658 C   0  0  0  0  0  0  0  0  0  0  0  0
  -23.6335  -19.6533   21.4006 C   0  0  0  0  0  0  0  0  0  0  0  0
  -30.1469  -22.6836   19.7088 C   0  0  0  0  0  0  0  0  0  0  0  0
  -23.6883  -21.5297   19.8560 C   0  0  0  0  0  0  0  0  0  0  0  0
  -30.5806  -20.3741   19.6952 C   0  0  0  0  0  0  0  0  0  0  0  0
  -29.6223  -17.7562   19.5907 C   0  0  0  0  0  0  0  0  0  0  0  0
  -29.8401  -19.9459   18.5934 C   0  0  0  0  0  0  0  0  0  0  0  0
  -27.3145  -25.8238   19.5874 C   0  0  0  0  0  0  0  0  0  0  0  0
  -25.6127  -27.1223   19.0846 C   0  0  0  0  0  0  0  0  0  0  0  0
  -25.7576  -25.0521   17.6912 C   0  0  0  0  0  0  0  0  0  0  0  0
  -24.3911  -16.3318   21.2528 C   0  0  0  0  0  0  0  0  0  0  0  0
  -23.0948  -17.0399   24.1408 C   0  0  0  0  0  0  0  0  0  0  0  0
  -21.6941  -19.3799   26.1925 C   0  0  0  0  0  0  0  0  0  0  0  0
  -23.7957  -30.6654   22.9950 C   0  0  0  0  0  0  0  0  0  0  0  0
  -25.9730  -11.5208   20.6122 C   0  0  0  0  0  0  0  0  0  0  0  0
  -25.7338  -18.3573   21.9241 C   0  0  0  0  0  0  0  0  0  0  0  0
  -22.8350  -18.7779   22.3305 C   0  0  0  0  0  0  0  0  0  0  0  0
  -24.8474  -12.2066   21.3823 C   0  0  0  0  0  0  0  0  0  0  0  0
  -27.2389  -30.8393   22.1057 C   0  0  0  0  0  0  0  0  0  0  0  0
  -24.1022  -13.1851   20.4800 C   0  0  0  0  0  0  0  0  0  0  0  0
  -20.9568  -25.6450   21.5445 C   0  0  0  0  0  0  0  0  0  0  0  0
  -20.1652  -26.4888   19.2933 C   0  0  0  0  0  0  0  0  0  0  0  0
  -27.4753  -29.5569   21.3059 C   0  0  0  0  0  0  0  0  0  0  0  0
  -19.8067  -26.3846   22.2293 C   0  0  0  0  0  0  0  0  0  0  0  0
  -19.0137  -27.2310   19.9732 C   0  0  0  0  0  0  0  0  0  0  0  0
  -26.2587  -30.6150   23.2550 C   0  0  0  0  0  0  0  0  0  0  0  0
  -25.2065  -28.7326   22.0620 C   0  0  0  0  0  0  0  0  0  0  0  0
  -25.0356  -14.2939   19.9790 C   0  0  1  0  0  0  0  0  0  0  0  0
  -24.8148  -17.2287   22.3814 C   0  0  1  0  0  0  0  0  0  0  0  0
  -20.6057  -25.2608   20.1010 C   0  0  0  0  0  0  0  0  0  0  0  0
  -26.1450  -28.9221   20.8580 C   0  0  2  0  0  0  0  0  0  0  0  0
  -19.3051  -27.5871   21.4306 C   0  0  0  0  0  0  0  0  0  0  0  0
  -20.6994  -19.6515   28.4803 C   0  0  0  0  0  0  0  0  0  0  0  0
  -20.5400  -15.6692   23.1901 C   0  0  0  0  0  0  0  0  0  0  0  0
  -19.3245  -16.7819   25.0750 C   0  0  0  0  0  0  0  0  0  0  0  0
  -21.1696  -15.1746   25.5594 C   0  0  0  0  0  0  0  0  0  0  0  0
  -23.7546  -21.3527   26.9809 C   0  0  0  0  0  0  0  0  0  0  0  0
  -21.7880  -24.5680   19.4256 C   0  0  0  0  0  0  0  0  0  0  0  0
  -21.3405  -30.5812   22.6428 C   0  0  0  0  0  0  0  0  0  0  0  0
  -20.2742  -29.5036   22.7054 C   0  0  0  0  0  0  0  0  0  0  0  0
  -21.9162  -23.1159   19.8598 C   0  0  0  0  0  0  0  0  0  1  0  0
  -21.7273  -17.4569   24.6255 C   0  0  1  0  0  0  0  0  0  0  0  0
  -21.9652  -19.7403   27.6420 C   0  0  2  0  0  0  0  0  0  0  0  0
  -20.7047  -16.2861   24.5934 C   0  0  0  0  0  0  0  0  0  0  0  0
  -27.4189  -26.8539   20.4313 N   0  0  0  0  0  0  0  0  0  0  0  0
  -26.3701  -27.6264   20.1008 N   0  0  0  0  0  0  0  0  0  0  0  0
  -23.5914  -17.7192   23.0193 N   0  0  0  0  0  0  0  0  0  0  0  0
  -25.0175  -30.0124   22.7628 N   0  0  0  0  0  0  0  0  0  0  0  0
  -24.5209  -27.7716   18.6276 N   0  0  0  0  0  0  0  0  0  0  0  0
  -26.4856  -23.8783   17.4532 N   0  0  0  0  0  0  0  0  0  0  0  0
  -25.2538  -15.2783   21.0171 N   0  0  0  0  0  0  0  0  0  0  0  0
  -21.9237  -18.0426   25.9472 N   0  0  0  0  0  0  0  0  0  0  0  0
  -22.6683  -30.0296   22.4896 N   0  0  0  0  0  0  0  0  0  0  0  0
  -20.3288  -28.6707   21.4772 N   0  3  0  0  0  0  0  0  0  0  0  0
  -22.4971  -21.1290   27.7397 N   0  3  0  0  0  0  0  0  0  0  0  0
  -24.7494  -25.3025   16.9881 O   0  0  0  0  0  0  0  0  0  0  0  0
  -23.3573  -16.5765   20.6421 O   0  0  0  0  0  0  0  0  0  0  0  0
  -23.7031  -16.1494   24.7396 O   0  0  0  0  0  0  0  0  0  0  0  0
  -21.3130  -20.2017   25.3618 O   0  0  0  0  0  0  0  0  0  0  0  0
  -23.7161  -31.7383   23.6027 O   0  0  0  0  0  0  0  0  0  0  0  0
  -31.0577  -21.6730   19.7482 O   0  0  0  0  0  0  0  0  0  0  0  0
  -23.0442  -22.5366   19.2053 O   0  0  0  0  0  0  0  0  0  1  0  0
  -29.1635  -16.4988   19.5400 F   0  0  0  0  0  0  0  0  0  0  0  0
  -29.5868  -20.7872   17.5815 F   0  0  0  0  0  0  0  0  0  0  0  0
  1  2  1  0  0  0  0
  1  5  2  0  0  0  0
  2  6  2  0  0  0  0
  3  8  2  0  0  0  0
  3 15  1  0  0  0  0
  4  9  1  0  0  0  0
  4 15  2  0  0  0  0
  5 17  1  0  0  0  0
  6 19  1  0  0  0  0
  7 10  2  0  0  0  0
  7 18  1  0  0  0  0
  8 21  1  0  0  0  0
  9 21  2  0  0  0  0
 10 22  1  0  0  0  0
 11 12  2  0  0  0  0
 11 23  1  0  0  0  0
 12 24  1  0  0  0  0
 13 20  1  0  0  0  0
 13 22  2  0  0  0  0
 14 24  2  0  0  0  0
 14 25  1  0  0  0  0
 15 26  1  0  0  0  0
 16 26  1  0  0  0  0
 16 27  2  0  0  0  0
 16 28  1  0  0  0  0
 17 19  2  0  0  0  0
 17 33  1  0  0  0  0
 18 20  2  0  0  0  0
 18 34  1  0  0  0  0
 19 46  1  0  0  0  0
 20 35  1  0  0  0  0
 21 79  1  0  0  0  0
 22 80  1  0  0  0  0
 23 25  2  0  0  0  0
 23 79  1  0  0  0  0
 24 81  1  0  0  0  0
 25 82  1  0  0  0  0
 26 63  2  0  0  0  0
 27 64  1  0  0  0  0
 27 67  1  0  0  0  0
 28 68  1  0  0  0  0
 28 74  2  0  0  0  0
 29 47  1  0  0  0  0
 29 69  1  0  0  0  0
 29 75  2  0  0  0  0
 30 60  1  0  0  0  0
 30 65  1  0  0  0  0
 30 76  2  0  0  0  0
 31 61  1  0  0  0  0
 31 70  1  0  0  0  0
 31 77  2  0  0  0  0
 32 66  1  0  0  0  0
 32 71  1  0  0  0  0
 32 78  2  0  0  0  0
 33 36  1  0  0  0  0
 34 47  1  0  0  0  0
 35 65  1  0  0  0  0
 36 38  1  0  0  0  0
 37 41  1  0  0  0  0
 37 44  1  0  0  0  0
 38 46  1  0  0  0  0
 39 42  1  0  0  0  0
 39 48  1  0  0  0  0
 40 43  1  0  0  0  0
 40 48  1  0  0  0  0
 41 49  1  0  0  0  0
 42 50  1  0  0  0  0
 43 50  1  0  0  0  0
 44 66  1  0  0  0  0
 45 49  1  0  0  0  0
 45 66  1  0  0  0  0
 46 69  1  0  0  0  0
 47 65  1  0  0  0  0
 48 56  1  0  0  0  0
 49 64  1  0  0  0  0
 50 72  1  0  0  0  0
 51 61  1  0  0  0  0
 52 62  1  0  0  0  0
 53 62  1  0  0  0  0
 54 62  1  0  0  0  0
 55 73  1  0  0  0  0
 56 59  1  0  0  0  0
 57 58  1  0  0  0  0
 57 71  1  0  0  0  0
 58 72  1  0  0  0  0
 59 80  1  0  0  0  0
 60 62  1  0  0  0  0
 60 70  1  0  0  0  0
 61 73  1  0  0  0  0
 63 64  1  0  0  0  0
M  CHG  2  72   1  73   1
M  ISO  4  32 100  59 101  71 100  80 101
M  END
> <Batch ID>
0138

> <Smiles>
CNC(C)C(=O)NC(C(=O)N1Cc2cc([101O:1][101CH2:1]CC3CCC(NCC[100NH:0][100C:0](=O)N4CCCC(n5nc(-c6ccc(Oc7ccc(F)cc7F)cc6)c(C(N)=O)c5N)C4)CC3)ccc2CC1C(=O)NC1CCCc2ccccc21)C(C)(C)C

> <Shape>
0.231

> <Color>
0.055

> <Negative vol penalty>
0.000

$$$$

  -OEChem-04052321083D

 87 96  0     1  0  0  0  0  0999 V2000
  -26.7870  -32.3051   14.2625 C   0  0  0  0  0  0  0  0  0  0  0  0
  -25.8058  -31.5686   14.9184 C   0  0  0  0  0  0  0  0  0  0  0  0
  -23.0891   -9.8493   19.9501 C   0  0  0  0  0  0  0  0  0  0  0  0
  -23.8397   -9.8839   22.2463 C   0  0  0  0  0  0  0  0  0  0  0  0
  -28.0805  -31.7970   14.1508 C   0  0  0  0  0  0  0  0  0  0  0  0
  -26.1173  -30.3229   15.4620 C   0  0  0  0  0  0  0  0  0  0  0  0
  -25.3065  -27.7156   22.7813 C   0  0  0  0  0  0  0  0  0  0  0  0
  -22.3523   -8.6935   20.2083 C   0  0  0  0  0  0  0  0  0  0  0  0
  -23.1028   -8.7280   22.5045 C   0  0  0  0  0  0  0  0  0  0  0  0
  -25.3584  -27.1933   24.0738 C   0  0  0  0  0  0  0  0  0  0  0  0
  -19.8779   -7.9135   23.1020 C   0  0  0  0  0  0  0  0  0  0  0  0
  -19.1166   -7.8797   24.2702 C   0  0  0  0  0  0  0  0  0  0  0  0
  -27.1855  -25.7469   23.4274 C   0  0  0  0  0  0  0  0  0  0  0  0
  -20.3685   -5.9582   25.0305 C   0  0  0  0  0  0  0  0  0  0  0  0
  -23.8329  -10.4445   20.9690 C   0  0  0  0  0  0  0  0  0  0  0  0
  -24.1576  -12.9707   20.8258 C   0  0  0  0  0  0  0  0  0  0  0  0
  -28.4105  -30.5487   14.7017 C   0  0  0  0  0  0  0  0  0  0  0  0
  -26.2052  -27.2661   21.8098 C   0  0  0  0  0  0  0  0  0  0  0  0
  -27.4162  -29.7970   15.3564 C   0  0  0  0  0  0  0  0  0  0  0  0
  -27.1465  -26.2754   22.1344 C   0  0  0  0  0  0  0  0  0  0  0  0
  -22.3591   -8.1328   21.4855 C   0  0  0  0  0  0  0  0  0  0  0  0
  -26.2954  -26.2112   24.3960 C   0  0  0  0  0  0  0  0  0  0  0  0
  -20.8845   -6.9697   22.8979 C   0  0  0  0  0  0  0  0  0  0  0  0
  -19.3618   -6.9021   25.2345 C   0  0  0  0  0  0  0  0  0  0  0  0
  -21.1298   -5.9921   23.8622 C   0  0  0  0  0  0  0  0  0  0  0  0
  -24.5947  -11.6382   20.7028 C   0  0  0  0  0  0  0  0  0  0  0  0
  -25.2460  -13.7242   20.4595 C   0  0  0  0  0  0  0  0  0  0  0  0
  -22.8819  -13.4817   21.2346 C   0  0  0  0  0  0  0  0  0  0  0  0
  -27.4167  -27.5224   18.2683 C   0  0  0  0  0  0  0  0  0  0  0  0
  -30.1394  -20.9901   22.8940 C   0  0  0  0  0  0  0  0  0  0  0  0
  -29.9034  -27.2429   20.0427 C   0  0  0  0  0  0  0  0  0  0  0  0
  -32.3926  -27.3405   22.3734 C   0  0  0  0  0  0  0  0  0  0  0  0
  -30.7217  -14.7834   20.6597 C   0  0  0  0  0  0  0  0  0  0  0  0
  -29.8105  -30.0199   14.5146 C   0  0  0  0  0  0  0  0  0  0  0  0
  -26.1453  -27.7561   20.3885 C   0  0  0  0  0  0  0  0  0  0  0  0
  -28.0705  -25.7971   21.0480 C   0  0  0  0  0  0  0  0  0  0  0  0
  -30.1524  -28.8588   15.4448 C   0  0  0  0  0  0  0  0  0  0  0  0
  -27.1080  -23.9901   28.2001 C   0  0  0  0  0  0  0  0  0  0  0  0
  -29.6103  -12.3679   18.2918 C   0  0  0  0  0  0  0  0  0  0  0  0
  -29.0228  -27.8337   15.4566 C   0  0  0  0  0  0  0  0  0  0  0  0
  -28.1732  -12.0684   18.7218 C   0  0  0  0  0  0  0  0  0  0  0  0
  -28.3406  -24.6551   27.5911 C   0  0  0  0  0  0  0  0  0  0  0  0
  -26.1214  -23.7627   27.0489 C   0  0  0  0  0  0  0  0  0  0  0  0
  -30.3315  -17.3731   23.2798 C   0  0  0  0  0  0  0  0  0  0  0  0
  -30.4923  -18.0539   20.8553 C   0  0  0  0  0  0  0  0  0  0  0  0
  -30.5211  -12.6068   19.4940 C   0  0  0  0  0  0  0  0  0  0  0  0
  -30.9548  -18.7118   23.6728 C   0  0  0  0  0  0  0  0  0  0  0  0
  -31.1160  -19.3764   21.2955 C   0  0  0  0  0  0  0  0  0  0  0  0
  -28.6087  -13.3380   20.8659 C   0  0  0  0  0  0  0  0  0  0  0  0
  -27.7215  -28.4527   15.9809 C   0  0  1  0  0  0  0  0  0  0  0  0
  -27.5310  -27.8578   19.7263 C   0  0  1  0  0  0  0  0  0  0  0  0
  -27.6405  -13.1452   19.6862 C   0  0  2  0  0  0  0  0  0  0  0  0
  -30.7676  -16.9463   21.8758 C   0  0  0  0  0  0  0  0  0  0  0  0
  -28.2732  -24.3375   26.1029 C   0  0  2  0  0  0  0  0  0  0  0  0
  -26.7796  -24.3590   25.8059 C   0  0  2  0  0  0  0  0  0  1  0  0
  -34.8916  -27.4304   22.5838 C   0  0  0  0  0  0  0  0  0  0  0  0
  -30.0677  -24.2866   19.3100 C   0  0  0  0  0  0  0  0  0  0  0  0
  -32.3068  -24.2070   20.4273 C   0  0  0  0  0  0  0  0  0  0  0  0
  -31.9549  -25.6822   18.4467 C   0  0  0  0  0  0  0  0  0  0  0  0
  -32.2949  -29.9281   23.8065 C   0  0  0  0  0  0  0  0  0  0  0  0
  -29.7795  -21.3060   24.3239 C   0  0  0  0  0  0  0  0  0  0  0  0
  -29.1875  -22.6988   24.4419 C   0  0  0  0  0  0  0  0  0  0  0  0
  -30.9167  -26.3148   20.6634 C   0  0  1  0  0  0  0  0  0  0  0  0
  -33.6067  -28.2409   22.5137 C   0  0  2  0  0  0  0  0  0  0  0  0
  -31.2885  -25.1313   19.7262 C   0  0  0  0  0  0  0  0  0  0  0  0
  -25.8619  -11.5471   20.2904 N   0  0  0  0  0  0  0  0  0  0  0  0
  -26.2303  -12.8320   20.1511 N   0  0  0  0  0  0  0  0  0  0  0  0
  -28.5534  -26.9414   20.2593 N   0  0  0  0  0  0  0  0  0  0  0  0
  -30.6953  -19.7338   22.6515 N   0  0  0  0  0  0  0  0  0  0  0  0
  -29.9598  -13.6400   20.3678 N   0  0  0  0  0  0  0  0  0  0  0  0
  -25.4474  -15.0564   20.3744 N   0  0  0  0  0  0  0  0  0  0  0  0
  -21.8750  -12.5687   21.5767 N   0  0  0  0  0  0  0  0  0  0  0  0
  -27.7587  -28.5611   17.4235 N   0  0  0  0  0  0  0  0  0  0  0  0
  -32.0495  -27.1481   21.0518 N   0  0  0  0  0  0  0  0  0  0  0  0
  -30.1127  -15.7162   21.4902 N   0  0  0  0  0  0  0  0  0  0  0  0
  -28.8151  -22.9751   25.8593 N   0  3  0  0  0  0  0  0  0  0  0  0
  -33.5015  -29.0631   23.7522 N   0  3  0  0  0  0  0  0  0  0  0  0
  -22.6369  -14.7111   21.2790 O   0  0  0  0  0  0  0  0  0  0  0  0
  -27.0471  -26.4032   17.9330 O   0  0  0  0  0  0  0  0  0  0  0  0
  -29.9297  -21.8350   22.0196 O   0  0  0  0  0  0  0  0  0  0  0  0
  -30.2954  -28.2066   19.3787 O   0  0  0  0  0  0  0  0  0  0  0  0
  -31.8093  -26.8534   23.3393 O   0  0  0  0  0  0  0  0  0  0  0  0
  -31.8582  -14.9624   20.2088 O   0  0  0  0  0  0  0  0  0  0  0  0
  -21.6401   -7.0051   21.7379 O   0  0  0  0  0  0  0  0  0  0  0  0
  -26.3435  -25.7088   25.6609 O   0  0  0  0  0  0  0  0  0  1  0  0
  -18.6317   -6.8706   26.3570 F   0  0  0  0  0  0  0  0  0  0  0  0
  -22.0963   -5.0834   23.6723 F   0  0  0  0  0  0  0  0  0  0  0  0
  1  2  1  0  0  0  0
  1  5  2  0  0  0  0
  2  6  2  0  0  0  0
  3  8  2  0  0  0  0
  3 15  1  0  0  0  0
  4  9  1  0  0  0  0
  4 15  2  0  0  0  0
  5 17  1  0  0  0  0
  6 19  1  0  0  0  0
  7 10  2  0  0  0  0
  7 18  1  0  0  0  0
  8 21  1  0  0  0  0
  9 21  2  0  0  0  0
 10 22  1  0  0  0  0
 11 12  2  0  0  0  0
 11 23  1  0  0  0  0
 12 24  1  0  0  0  0
 13 20  1  0  0  0  0
 13 22  2  0  0  0  0
 14 24  2  0  0  0  0
 14 25  1  0  0  0  0
 15 26  1  0  0  0  0
 16 26  1  0  0  0  0
 16 27  2  0  0  0  0
 16 28  1  0  0  0  0
 17 19  2  0  0  0  0
 17 34  1  0  0  0  0
 18 20  2  0  0  0  0
 18 35  1  0  0  0  0
 19 50  1  0  0  0  0
 20 36  1  0  0  0  0
 21 84  1  0  0  0  0
 22 85  1  0  0  0  0
 23 25  2  0  0  0  0
 23 84  1  0  0  0  0
 24 86  1  0  0  0  0
 25 87  1  0  0  0  0
 26 66  2  0  0  0  0
 27 67  1  0  0  0  0
 27 71  1  0  0  0  0
 28 72  1  0  0  0  0
 28 78  2  0  0  0  0
 29 51  1  0  0  0  0
 29 73  1  0  0  0  0
 29 79  2  0  0  0  0
 30 61  1  0  0  0  0
 30 69  1  0  0  0  0
 30 80  2  0  0  0  0
 31 63  1  0  0  0  0
 31 68  1  0  0  0  0
 31 81  2  0  0  0  0
 32 64  1  0  0  0  0
 32 74  1  0  0  0  0
 32 82  2  0  0  0  0
 33 70  1  0  0  0  0
 33 75  1  0  0  0  0
 33 83  2  0  0  0  0
 34 37  1  0  0  0  0
 35 51  1  0  0  0  0
 36 68  1  0  0  0  0
 37 40  1  0  0  0  0
 38 42  1  0  0  0  0
 38 43  1  0  0  0  0
 39 41  1  0  0  0  0
 39 46  1  0  0  0  0
 40 50  1  0  0  0  0
 41 52  1  0  0  0  0
 42 54  1  0  0  0  0
 43 55  1  0  0  0  0
 44 47  1  0  0  0  0
 44 53  1  0  0  0  0
 45 48  1  0  0  0  0
 45 53  1  0  0  0  0
 46 70  1  0  0  0  0
 47 69  1  0  0  0  0
 48 69  1  0  0  0  0
 49 52  1  0  0  0  0
 49 70  1  0  0  0  0
 50 73  1  0  0  0  0
 51 68  1  0  0  0  0
 52 67  1  0  0  0  0
 53 75  1  0  0  0  0
 54 55  1  0  0  0  0
 54 76  1  0  0  0  0
 55 85  1  0  0  0  0
 56 64  1  0  0  0  0
 57 65  1  0  0  0  0
 58 65  1  0  0  0  0
 59 65  1  0  0  0  0
 60 77  1  0  0  0  0
 61 62  1  0  0  0  0
 62 76  1  0  0  0  0
 63 65  1  0  0  0  0
 63 74  1  0  0  0  0
 64 77  1  0  0  0  0
 66 67  1  0  0  0  0
M  CHG  2  76   1  77   1
M  ISO  4  33 100  55 101  75 100  85 101
M  END
> <Batch ID>
0138

> <Smiles>
CNC(C)C(=O)NC(C(=O)N1Cc2cc([101O:1][101CH:1]3CCCC3NCCC(=O)N3CCC([100NH:0][100C:0](=O)N4CCCC(n5nc(-c6ccc(Oc7ccc(F)cc7F)cc6)c(C(N)=O)c5N)C4)CC3)ccc2CC1C(=O)NC1CCCc2ccccc21)C(C)(C)C

> <Shape>
0.241

> <Color>
0.184

> <Negative vol penalty>
0.000

$$$$

  -OEChem-04052321083D

 87 96  0     1  0  0  0  0  0999 V2000
  -15.7184  -27.6327   20.3506 C   0  0  0  0  0  0  0  0  0  0  0  0
  -16.7295  -26.6771   20.3464 C   0  0  0  0  0  0  0  0  0  0  0  0
  -22.8604  -10.0471   20.0701 C   0  0  0  0  0  0  0  0  0  0  0  0
  -23.5900  -10.1272   22.3719 C   0  0  0  0  0  0  0  0  0  0  0  0
  -15.6247  -28.5421   21.4032 C   0  0  0  0  0  0  0  0  0  0  0  0
  -17.6481  -26.6312   21.3945 C   0  0  0  0  0  0  0  0  0  0  0  0
  -20.2735  -21.6353   23.7724 C   0  0  0  0  0  0  0  0  0  0  0  0
  -22.0409   -8.9583   20.3677 C   0  0  0  0  0  0  0  0  0  0  0  0
  -22.7704   -9.0384   22.6696 C   0  0  0  0  0  0  0  0  0  0  0  0
  -21.5191  -21.0431   23.5687 C   0  0  0  0  0  0  0  0  0  0  0  0
  -22.8543   -5.6798   22.2905 C   0  0  0  0  0  0  0  0  0  0  0  0
  -23.3935   -4.6569   23.0706 C   0  0  0  0  0  0  0  0  0  0  0  0
  -22.3769  -22.1945   25.5071 C   0  0  0  0  0  0  0  0  0  0  0  0
  -25.5056  -17.9950   23.5056 C   0  0  0  0  0  0  0  0  0  0  0  0
  -21.6852   -5.0283   24.7382 C   0  0  0  0  0  0  0  0  0  0  0  0
  -23.6350  -10.6315   21.0722 C   0  0  0  0  0  0  0  0  0  0  0  0
  -24.1399  -13.1199   20.8265 C   0  0  0  0  0  0  0  0  0  0  0  0
  -16.5368  -28.5011   22.4695 C   0  0  0  0  0  0  0  0  0  0  0  0
  -20.0729  -22.5215   24.8405 C   0  0  0  0  0  0  0  0  0  0  0  0
  -17.5673  -27.5418   22.4617 C   0  0  0  0  0  0  0  0  0  0  0  0
  -21.1271  -22.7947   25.7238 C   0  0  0  0  0  0  0  0  0  0  0  0
  -26.3963  -20.0907   22.6647 C   0  0  0  0  0  0  0  0  0  0  0  0
  -25.3119  -19.3141   23.0942 C   0  0  0  0  0  0  0  0  0  0  0  0
  -26.7833  -17.4398   23.4881 C   0  0  0  0  0  0  0  0  0  0  0  0
  -27.8674  -18.1999   23.0517 C   0  0  0  0  0  0  0  0  0  0  0  0
  -27.6737  -19.5170   22.6274 C   0  0  0  0  0  0  0  0  0  0  0  0
  -21.9958   -8.4540   21.6674 C   0  0  0  0  0  0  0  0  0  0  0  0
  -22.5719  -21.3249   24.4344 C   0  0  0  0  0  0  0  0  0  0  0  0
  -21.7306   -6.3770   22.7343 C   0  0  0  0  0  0  0  0  0  0  0  0
  -22.8089   -4.3312   24.2945 C   0  0  0  0  0  0  0  0  0  0  0  0
  -21.1461   -6.0512   23.9581 C   0  0  0  0  0  0  0  0  0  0  0  0
  -24.4822  -11.7558   20.7653 C   0  0  0  0  0  0  0  0  0  0  0  0
  -25.2825  -13.7783   20.4424 C   0  0  0  0  0  0  0  0  0  0  0  0
  -22.8999  -13.7368   21.1976 C   0  0  0  0  0  0  0  0  0  0  0  0
  -19.2778  -25.5889   25.0910 C   0  0  0  0  0  0  0  0  0  0  0  0
  -19.1955  -24.9063   28.2611 C   0  0  0  0  0  0  0  0  0  0  0  0
  -20.2464  -22.9122   30.8236 C   0  0  0  0  0  0  0  0  0  0  0  0
  -30.8175  -14.4556   20.6657 C   0  0  0  0  0  0  0  0  0  0  0  0
  -16.4239  -29.5352   23.5615 C   0  0  0  0  0  0  0  0  0  0  0  0
  -18.7160  -23.1314   25.0622 C   0  0  0  0  0  0  0  0  0  0  0  0
  -26.1723  -21.5103   22.2257 C   0  0  0  0  0  0  0  0  0  0  0  0
  -20.9580  -23.7233   26.8974 C   0  0  0  0  0  0  0  0  0  0  0  0
  -17.2107  -29.1800   24.8205 C   0  0  0  0  0  0  0  0  0  0  0  0
  -29.5595  -12.0252   18.3881 C   0  0  0  0  0  0  0  0  0  0  0  0
  -18.6157  -28.7101   24.4571 C   0  0  0  0  0  0  0  0  0  0  0  0
  -28.1008  -11.8466   18.8126 C   0  0  0  0  0  0  0  0  0  0  0  0
  -30.4736  -12.2506   19.5905 C   0  0  0  0  0  0  0  0  0  0  0  0
  -28.6053  -13.1733   20.9065 C   0  0  0  0  0  0  0  0  0  0  0  0
  -28.5418  -21.3997   21.4935 C   0  0  0  0  0  0  0  0  0  0  0  0
  -18.5678  -27.4443   23.5929 C   0  0  1  0  0  0  0  0  0  0  0  0
  -18.7655  -24.4178   25.8808 C   0  0  1  0  0  0  0  0  0  0  0  0
  -27.4968  -22.2758   22.1829 C   0  0  1  0  0  0  0  0  0  0  0  0
  -27.6369  -12.9988   19.7240 C   0  0  2  0  0  0  0  0  0  0  0  0
  -26.9599  -16.0265   23.9405 C   0  0  0  0  0  0  0  0  0  0  0  0
  -27.3346  -23.6156   21.4739 C   0  0  0  0  0  0  0  0  0  0  0  0
  -20.0404  -22.6248   33.3080 C   0  0  0  0  0  0  0  0  0  0  0  0
  -21.1009  -27.2509   28.6879 C   0  0  0  0  0  0  0  0  0  0  0  0
  -21.5962  -26.3431   30.9680 C   0  0  0  0  0  0  0  0  0  0  0  0
  -19.2789  -27.0640   30.3908 C   0  0  0  0  0  0  0  0  0  0  0  0
  -19.0459  -20.2231   30.5298 C   0  0  0  0  0  0  0  0  0  0  0  0
  -23.9167  -19.8653   23.1240 C   0  0  0  0  0  0  0  0  0  1  0  0
  -30.0938  -17.8632   21.9768 C   0  0  0  0  0  0  0  0  0  0  0  0
  -31.0056  -16.6601   21.7899 C   0  0  0  0  0  0  0  0  0  0  0  0
  -20.2006  -24.9344   29.3872 C   0  0  1  0  0  0  0  0  0  0  0  0
  -19.4859  -22.2318   31.9475 C   0  0  2  0  0  0  0  0  0  0  0  0
  -20.5482  -26.3821   29.8353 C   0  0  0  0  0  0  0  0  0  0  0  0
  -25.7436  -11.5578   20.3730 N   0  0  0  0  0  0  0  0  0  0  0  0
  -26.2037  -12.8063   20.1841 N   0  0  0  0  0  0  0  0  0  0  0  0
  -19.6141  -24.2997   27.0684 N   0  0  0  0  0  0  0  0  0  0  0  0
  -29.9790  -13.3574   20.4128 N   0  0  0  0  0  0  0  0  0  0  0  0
  -25.5789  -15.0879   20.3036 N   0  0  0  0  0  0  0  0  0  0  0  0
  -21.8275  -12.9128   21.5654 N   0  0  0  0  0  0  0  0  0  0  0  0
  -29.1629  -17.6303   23.0337 N   0  0  0  0  0  0  0  0  0  0  0  0
  -18.2945  -26.2830   24.4122 N   0  0  0  0  0  0  0  0  0  0  0  0
  -19.6496  -24.0968   30.4471 N   0  0  0  0  0  0  0  0  0  0  0  0
  -30.2686  -15.4639   21.4485 N   0  0  0  0  0  0  0  0  0  0  0  0
  -19.5779  -20.7505   31.8126 N   0  3  0  0  0  0  0  0  0  0  0  0
  -22.7425  -14.9812   21.1870 O   0  0  0  0  0  0  0  0  0  0  0  0
  -20.4762  -25.8448   25.0983 O   0  0  0  0  0  0  0  0  0  0  0  0
  -18.0777  -25.3979   28.4358 O   0  0  0  0  0  0  0  0  0  0  0  0
  -21.2697  -22.4418   30.3316 O   0  0  0  0  0  0  0  0  0  0  0  0
  -31.9681  -14.5344   20.2218 O   0  0  0  0  0  0  0  0  0  0  0  0
  -28.7954  -20.1926   22.2211 O   0  0  0  0  0  0  0  0  0  0  0  0
  -21.1961   -7.3918   21.9582 O   0  0  0  0  0  0  0  0  0  0  0  0
  -23.7889  -20.7487   24.2374 O   0  0  0  0  0  0  0  0  0  1  0  0
  -23.3259   -3.3478   25.0428 F   0  0  0  0  0  0  0  0  0  0  0  0
  -20.0657   -6.7167   24.3891 F   0  0  0  0  0  0  0  0  0  0  0  0
  1  2  1  0  0  0  0
  1  5  2  0  0  0  0
  2  6  2  0  0  0  0
  3  8  2  0  0  0  0
  3 16  1  0  0  0  0
  4  9  1  0  0  0  0
  4 16  2  0  0  0  0
  5 18  1  0  0  0  0
  6 20  1  0  0  0  0
  7 10  2  0  0  0  0
  7 19  1  0  0  0  0
  8 27  1  0  0  0  0
  9 27  2  0  0  0  0
 10 28  1  0  0  0  0
 11 12  2  0  0  0  0
 11 29  1  0  0  0  0
 12 30  1  0  0  0  0
 13 21  1  0  0  0  0
 13 28  2  0  0  0  0
 14 23  1  0  0  0  0
 14 24  2  0  0  0  0
 15 30  2  0  0  0  0
 15 31  1  0  0  0  0
 16 32  1  0  0  0  0
 17 32  1  0  0  0  0
 17 33  2  0  0  0  0
 17 34  1  0  0  0  0
 18 20  2  0  0  0  0
 18 39  1  0  0  0  0
 19 21  2  0  0  0  0
 19 40  1  0  0  0  0
 20 50  1  0  0  0  0
 21 42  1  0  0  0  0
 22 23  2  0  0  0  0
 22 26  1  0  0  0  0
 22 41  1  0  0  0  0
 23 61  1  0  0  0  0
 24 25  1  0  0  0  0
 24 54  1  0  0  0  0
 25 26  2  0  0  0  0
 25 73  1  0  0  0  0
 26 83  1  0  0  0  0
 27 84  1  0  0  0  0
 28 85  1  0  0  0  0
 29 31  2  0  0  0  0
 29 84  1  0  0  0  0
 30 86  1  0  0  0  0
 31 87  1  0  0  0  0
 32 67  2  0  0  0  0
 33 68  1  0  0  0  0
 33 71  1  0  0  0  0
 34 72  1  0  0  0  0
 34 78  2  0  0  0  0
 35 51  1  0  0  0  0
 35 74  1  0  0  0  0
 35 79  2  0  0  0  0
 36 64  1  0  0  0  0
 36 69  1  0  0  0  0
 36 80  2  0  0  0  0
 37 65  1  0  0  0  0
 37 75  1  0  0  0  0
 37 81  2  0  0  0  0
 38 70  1  0  0  0  0
 38 76  1  0  0  0  0
 38 82  2  0  0  0  0
 39 43  1  0  0  0  0
 40 51  1  0  0  0  0
 41 52  1  0  0  0  0
 42 69  1  0  0  0  0
 43 45  1  0  0  0  0
 44 46  1  0  0  0  0
 44 47  1  0  0  0  0
 45 50  1  0  0  0  0
 46 53  1  0  0  0  0
 47 70  1  0  0  0  0
 48 53  1  0  0  0  0
 48 70  1  0  0  0  0
 49 52  1  0  0  0  0
 49 83  1  0  0  0  0
 50 74  1  0  0  0  0
 51 69  1  0  0  0  0
 52 55  1  0  0  0  0
 53 68  1  0  0  0  0
 56 65  1  0  0  0  0
 57 66  1  0  0  0  0
 58 66  1  0  0  0  0
 59 66  1  0  0  0  0
 60 77  1  0  0  0  0
 61 85  1  0  0  0  0
 62 63  1  0  0  0  0
 62 73  1  0  0  0  0
 63 76  1  0  0  0  0
 64 66  1  0  0  0  0
 64 75  1  0  0  0  0
 65 77  1  0  0  0  0
 67 68  1  0  0  0  0
M  CHG  1  77   1
M  ISO  4  38 100  61 101  76 100  85 101
M  END
> <Batch ID>
0138

> <Smiles>
CNC(C)C(=O)NC(C(=O)N1Cc2cc([101O:1][101CH2:1]c3cc(C)c(NCC[100NH:0][100C:0](=O)N4CCCC(n5nc(-c6ccc(Oc7ccc(F)cc7F)cc6)c(C(N)=O)c5N)C4)c4c3CC(C)CO4)ccc2CC1C(=O)NC1CCCc2ccccc21)C(C)(C)C

> <Shape>
0.228

> <Color>
0.195

> <Negative vol penalty>
0.000

$$$$

  -OEChem-04052321083D

 86 96  0     1  0  0  0  0  0999 V2000
  -25.3206  -34.2594   26.3441 C   0  0  0  0  0  0  0  0  0  0  0  0
  -25.7881  -32.9517   26.4257 C   0  0  0  0  0  0  0  0  0  0  0  0
  -23.0657  -10.4176   20.2705 C   0  0  0  0  0  0  0  0  0  0  0  0
  -24.6008   -8.9721   21.4499 C   0  0  0  0  0  0  0  0  0  0  0  0
  -24.2131  -34.5543   25.5501 C   0  0  0  0  0  0  0  0  0  0  0  0
  -25.1476  -31.9378   25.7142 C   0  0  0  0  0  0  0  0  0  0  0  0
  -28.7201  -27.9800   20.8702 C   0  0  0  0  0  0  0  0  0  0  0  0
  -22.0524  -10.0706   21.1640 C   0  0  0  0  0  0  0  0  0  0  0  0
  -23.5875   -8.6252   22.3435 C   0  0  0  0  0  0  0  0  0  0  0  0
  -29.3846  -27.0410   20.0809 C   0  0  0  0  0  0  0  0  0  0  0  0
  -20.9067   -6.5656   22.3927 C   0  0  0  0  0  0  0  0  0  0  0  0
  -20.7611   -5.2164   22.7152 C   0  0  0  0  0  0  0  0  0  0  0  0
  -30.3487  -17.6073   19.5836 C   0  0  0  0  0  0  0  0  0  0  0  0
  -27.2851  -25.9394   19.6049 C   0  0  0  0  0  0  0  0  0  0  0  0
  -21.1645   -5.7290   25.0415 C   0  0  0  0  0  0  0  0  0  0  0  0
  -27.9879  -17.5479   19.3020 C   0  0  0  0  0  0  0  0  0  0  0  0
  -24.3399   -9.8684   20.4134 C   0  0  0  0  0  0  0  0  0  0  0  0
  -25.3936  -10.0323   18.0959 C   0  0  0  0  0  0  0  0  0  0  0  0
  -23.5646  -33.5452   24.8209 C   0  0  0  0  0  0  0  0  0  0  0  0
  -27.3320  -27.9112   21.0175 C   0  0  0  0  0  0  0  0  0  0  0  0
  -24.0295  -32.2193   24.9108 C   0  0  0  0  0  0  0  0  0  0  0  0
  -30.3054  -18.9849   19.4005 C   0  0  0  0  0  0  0  0  0  0  0  0
  -26.6125  -26.8845   20.3842 C   0  0  0  0  0  0  0  0  0  0  0  0
  -29.1723  -16.8678   19.5349 C   0  0  0  0  0  0  0  0  0  0  0  0
  -22.3133   -9.1744   22.2005 C   0  0  0  0  0  0  0  0  0  0  0  0
  -28.6689  -26.0232   19.4500 C   0  0  0  0  0  0  0  0  0  0  0  0
  -21.1813   -7.4965   23.3945 C   0  0  0  0  0  0  0  0  0  0  0  0
  -20.8900   -4.7981   24.0396 C   0  0  0  0  0  0  0  0  0  0  0  0
  -21.3102   -7.0782   24.7189 C   0  0  0  0  0  0  0  0  0  0  0  0
  -25.3869  -10.2260   19.4903 C   0  0  0  0  0  0  0  0  0  0  0  0
  -29.0703  -19.5703   19.1734 C   0  0  0  0  0  0  0  0  0  0  0  0
  -26.6027  -10.5379   17.6849 C   0  0  0  0  0  0  0  0  0  0  0  0
  -24.3961   -9.4476   17.2481 C   0  0  0  0  0  0  0  0  0  0  0  0
  -24.2384  -29.4041   22.5266 C   0  0  0  0  0  0  0  0  0  0  0  0
  -23.5178  -28.5635   19.6658 C   0  0  0  0  0  0  0  0  0  0  0  0
  -23.2491  -27.8825   16.3339 C   0  0  0  0  0  0  0  0  0  0  0  0
  -30.2926  -14.6515   19.9583 C   0  0  0  0  0  0  0  0  0  0  0  0
  -22.3424  -33.9043   24.0135 C   0  0  0  0  0  0  0  0  0  0  0  0
  -26.5821  -28.8646   21.9078 C   0  0  0  0  0  0  0  0  0  0  0  0
  -25.1247  -26.8293   20.5991 C   0  0  0  0  0  0  0  0  0  0  0  0
  -21.9490  -32.8363   22.9962 C   0  0  0  0  0  0  0  0  0  0  0  0
  -31.0797  -11.2572   19.2256 C   0  0  0  0  0  0  0  0  0  0  0  0
  -32.4445  -19.6757   20.6738 C   0  0  0  0  0  0  0  0  0  0  0  0
  -31.6699  -20.9303   20.4165 C   0  0  0  0  0  0  0  0  0  0  0  0
  -21.9700  -31.4531   23.6391 C   0  0  0  0  0  0  0  0  0  0  0  0
  -29.7097  -10.5912   19.0774 C   0  0  0  0  0  0  0  0  0  0  0  0
  -29.6256  -22.9552   17.6794 C   0  0  0  0  0  0  0  0  0  0  0  0
  -28.7114  -23.1868   19.9940 C   0  0  0  0  0  0  0  0  0  0  0  0
  -31.0772  -12.3217   20.3213 C   0  0  0  0  0  0  0  0  0  0  0  0
  -29.1485  -21.5062   17.6332 C   0  0  0  0  0  0  0  0  0  0  0  0
  -28.2291  -21.7402   19.9486 C   0  0  0  0  0  0  0  0  0  0  0  0
  -28.6537  -12.6712   20.0498 C   0  0  0  0  0  0  0  0  0  0  0  0
  -31.5681  -19.7769   19.4531 C   0  0  0  0  0  0  0  0  0  0  0  0
  -23.3767  -31.0962   24.1344 C   0  0  1  0  0  0  0  0  0  0  0  0
  -25.1807  -29.2125   21.3747 C   0  0  1  0  0  0  0  0  0  0  0  0
  -28.5894  -11.6371   18.9140 C   0  0  2  0  0  0  0  0  0  0  0  0
  -28.7636  -23.8069   18.6025 C   0  0  0  0  0  0  0  0  0  1  0  0
  -21.6040  -27.9329   14.4396 C   0  0  0  0  0  0  0  0  0  0  0  0
  -22.1823  -26.0505   20.7635 C   0  0  0  0  0  0  0  0  0  0  0  0
  -21.2669  -25.6221   18.4729 C   0  0  0  0  0  0  0  0  0  0  0  0
  -20.6152  -27.6890   19.7082 C   0  0  0  0  0  0  0  0  0  0  0  0
  -24.8953  -29.8070   14.8025 C   0  0  0  0  0  0  0  0  0  0  0  0
  -22.9532  -27.4934   18.7661 C   0  0  1  0  0  0  0  0  0  0  0  0
  -22.6901  -28.6967   15.1810 C   0  0  2  0  0  0  0  0  0  0  0  0
  -21.7824  -26.7165   19.4318 C   0  0  0  0  0  0  0  0  0  0  0  0
  -27.9062  -18.8849   19.1193 N   0  0  0  0  0  0  0  0  0  0  0  0
  -26.5031  -10.8090   19.9353 N   0  0  0  0  0  0  0  0  0  0  0  0
  -27.2227  -10.9859   18.8141 N   0  0  0  0  0  0  0  0  0  0  0  0
  -29.0199  -20.9578   18.9880 N   0  0  0  0  0  0  0  0  0  0  0  0
  -24.5558  -28.1841   20.5255 N   0  0  0  0  0  0  0  0  0  0  0  0
  -29.9923  -13.2800   20.0986 N   0  0  0  0  0  0  0  0  0  0  0  0
  -27.1854  -10.6384   16.4713 N   0  0  0  0  0  0  0  0  0  0  0  0
  -23.2125   -8.9787   17.8341 N   0  0  0  0  0  0  0  0  0  0  0  0
  -29.1842  -15.4627   19.7177 N   0  0  0  0  0  0  0  0  0  0  0  0
  -24.2153  -30.6922   23.0262 N   0  0  0  0  0  0  0  0  0  0  0  0
  -22.5960  -28.1570   17.5169 N   0  0  0  0  0  0  0  0  0  0  0  0
  -23.7718  -29.0343   14.2130 N   0  3  0  0  0  0  0  0  0  0  0  0
  -24.5568   -9.3292   16.0096 O   0  0  0  0  0  0  0  0  0  0  0  0
  -23.5791  -28.4542   22.9324 O   0  0  0  0  0  0  0  0  0  0  0  0
  -23.0494  -29.7042   19.6139 O   0  0  0  0  0  0  0  0  0  0  0  0
  -24.1702  -27.0803   16.1979 O   0  0  0  0  0  0  0  0  0  0  0  0
  -31.4510  -15.0716   20.0181 O   0  0  0  0  0  0  0  0  0  0  0  0
  -21.3249   -8.8358   23.0728 O   0  0  0  0  0  0  0  0  0  0  0  0
  -29.3234  -25.1125   18.6773 O   0  0  0  0  0  0  0  0  0  1  0  0
  -20.7486   -3.5027   24.3494 F   0  0  0  0  0  0  0  0  0  0  0  0
  -21.5728   -7.9681   25.6859 F   0  0  0  0  0  0  0  0  0  0  0  0
  1  2  1  0  0  0  0
  1  5  2  0  0  0  0
  2  6  2  0  0  0  0
  3  8  2  0  0  0  0
  3 17  1  0  0  0  0
  4  9  1  0  0  0  0
  4 17  2  0  0  0  0
  5 19  1  0  0  0  0
  6 21  1  0  0  0  0
  7 10  2  0  0  0  0
  7 20  1  0  0  0  0
  8 25  1  0  0  0  0
  9 25  2  0  0  0  0
 10 26  1  0  0  0  0
 11 12  2  0  0  0  0
 11 27  1  0  0  0  0
 12 28  1  0  0  0  0
 13 22  1  0  0  0  0
 13 24  2  0  0  0  0
 14 23  1  0  0  0  0
 14 26  2  0  0  0  0
 15 28  2  0  0  0  0
 15 29  1  0  0  0  0
 16 24  1  0  0  0  0
 16 66  2  0  0  0  0
 17 30  1  0  0  0  0
 18 30  1  0  0  0  0
 18 32  2  0  0  0  0
 18 33  1  0  0  0  0
 19 21  2  0  0  0  0
 19 38  1  0  0  0  0
 20 23  2  0  0  0  0
 20 39  1  0  0  0  0
 21 54  1  0  0  0  0
 22 31  2  0  0  0  0
 22 53  1  0  0  0  0
 23 40  1  0  0  0  0
 24 74  1  0  0  0  0
 25 83  1  0  0  0  0
 26 84  1  0  0  0  0
 27 29  2  0  0  0  0
 27 83  1  0  0  0  0
 28 85  1  0  0  0  0
 29 86  1  0  0  0  0
 30 67  2  0  0  0  0
 31 66  1  0  0  0  0
 31 69  1  0  0  0  0
 32 68  1  0  0  0  0
 32 72  1  0  0  0  0
 33 73  1  0  0  0  0
 33 78  2  0  0  0  0
 34 55  1  0  0  0  0
 34 75  1  0  0  0  0
 34 79  2  0  0  0  0
 35 63  1  0  0  0  0
 35 70  1  0  0  0  0
 35 80  2  0  0  0  0
 36 64  1  0  0  0  0
 36 76  1  0  0  0  0
 36 81  2  0  0  0  0
 37 71  1  0  0  0  0
 37 74  1  0  0  0  0
 37 82  2  0  0  0  0
 38 41  1  0  0  0  0
 39 55  1  0  0  0  0
 40 70  1  0  0  0  0
 41 45  1  0  0  0  0
 42 46  1  0  0  0  0
 42 49  1  0  0  0  0
 43 44  1  0  0  0  0
 43 53  1  0  0  0  0
 44 53  1  0  0  0  0
 45 54  1  0  0  0  0
 46 56  1  0  0  0  0
 47 50  1  0  0  0  0
 47 57  1  0  0  0  0
 48 51  1  0  0  0  0
 48 57  1  0  0  0  0
 49 71  1  0  0  0  0
 50 69  1  0  0  0  0
 51 69  1  0  0  0  0
 52 56  1  0  0  0  0
 52 71  1  0  0  0  0
 54 75  1  0  0  0  0
 55 70  1  0  0  0  0
 56 68  1  0  0  0  0
 57 84  1  0  0  0  0
 58 64  1  0  0  0  0
 59 65  1  0  0  0  0
 60 65  1  0  0  0  0
 61 65  1  0  0  0  0
 62 77  1  0  0  0  0
 63 65  1  0  0  0  0
 63 76  1  0  0  0  0
 64 77  1  0  0  0  0
 67 68  1  0  0  0  0
M  CHG  1  77   1
M  ISO  4  37 100  57 101  74 100  84 101
M  END
> <Batch ID>
0138

> <Smiles>
CNC(C)C(=O)NC(C(=O)N1Cc2cc([101O:1][101CH:1]3CCN(c4ncc([100NH:0][100C:0](=O)N5CCCC(n6nc(-c7ccc(Oc8ccc(F)cc8F)cc7)c(C(N)=O)c6N)C5)cc4C4CC4)CC3)ccc2CC1C(=O)NC1CCCc2ccccc21)C(C)(C)C

> <Shape>
0.288

> <Color>
0.071

> <Negative vol penalty>
0.000

$$$$

  -OEChem-04052321083D

 88 97  0     1  0  0  0  0  0999 V2000
  -39.7276  -34.2399   26.0637 C   0  0  0  0  0  0  0  0  0  0  0  0
  -39.1999  -32.9981   25.7250 C   0  0  0  0  0  0  0  0  0  0  0  0
  -23.0814   -9.8924   19.9725 C   0  0  0  0  0  0  0  0  0  0  0  0
  -23.9715   -9.8886   22.2186 C   0  0  0  0  0  0  0  0  0  0  0  0
  -38.9335  -35.3822   25.9713 C   0  0  0  0  0  0  0  0  0  0  0  0
  -37.8774  -32.8977   25.2947 C   0  0  0  0  0  0  0  0  0  0  0  0
  -35.6491  -29.0093   21.1208 C   0  0  0  0  0  0  0  0  0  0  0  0
  -32.1242  -23.9268   22.6903 C   0  0  0  0  0  0  0  0  0  0  0  0
  -31.3027  -22.8012   22.7518 C   0  0  0  0  0  0  0  0  0  0  0  0
  -22.3772   -8.7206   20.2496 C   0  0  0  0  0  0  0  0  0  0  0  0
  -23.2673   -8.7169   22.4957 C   0  0  0  0  0  0  0  0  0  0  0  0
  -34.9797  -27.7918   21.2362 C   0  0  0  0  0  0  0  0  0  0  0  0
  -20.0964   -7.8428   23.2715 C   0  0  0  0  0  0  0  0  0  0  0  0
  -19.4090   -7.7728   24.4831 C   0  0  0  0  0  0  0  0  0  0  0  0
  -32.8683  -28.9398   21.0281 C   0  0  0  0  0  0  0  0  0  0  0  0
  -32.7603  -23.3394   20.4348 C   0  0  0  0  0  0  0  0  0  0  0  0
  -20.7307   -5.8539   25.1221 C   0  0  0  0  0  0  0  0  0  0  0  0
  -23.8786  -10.4764   20.9570 C   0  0  0  0  0  0  0  0  0  0  0  0
  -24.1603  -13.0095   20.8505 C   0  0  0  0  0  0  0  0  0  0  0  0
  -37.6035  -35.2970   25.5305 C   0  0  0  0  0  0  0  0  0  0  0  0
  -34.9315  -30.2045   20.9689 C   0  0  0  0  0  0  0  0  0  0  0  0
  -37.0643  -34.0397   25.1976 C   0  0  0  0  0  0  0  0  0  0  0  0
  -33.5310  -30.1709   20.9084 C   0  0  0  0  0  0  0  0  0  0  0  0
  -32.8530  -24.1959   21.5318 C   0  0  0  0  0  0  0  0  0  0  0  0
  -31.2100  -21.9447   21.6548 C   0  0  0  0  0  0  0  0  0  0  0  0
  -31.9388  -22.2137   20.4963 C   0  0  0  0  0  0  0  0  0  0  0  0
  -22.4702   -8.1329   21.5112 C   0  0  0  0  0  0  0  0  0  0  0  0
  -33.5890  -27.7572   21.1927 C   0  0  0  0  0  0  0  0  0  0  0  0
  -21.1009   -6.9183   22.9851 C   0  0  0  0  0  0  0  0  0  0  0  0
  -19.7261   -6.7784   25.4085 C   0  0  0  0  0  0  0  0  0  0  0  0
  -21.4181   -5.9239   23.9104 C   0  0  0  0  0  0  0  0  0  0  0  0
  -24.6066  -11.6865   20.6712 C   0  0  0  0  0  0  0  0  0  0  0  0
  -25.2140  -13.7866   20.4351 C   0  0  0  0  0  0  0  0  0  0  0  0
  -22.9056  -13.4929   21.3481 C   0  0  0  0  0  0  0  0  0  0  0  0
  -34.6365  -32.8750   22.6674 C   0  0  0  0  0  0  0  0  0  0  0  0
  -32.9196  -33.8581   20.0968 C   0  0  0  0  0  0  0  0  0  0  0  0
  -31.0389  -33.0181   17.3757 C   0  0  0  0  0  0  0  0  0  0  0  0
  -30.7801  -14.7138   20.6543 C   0  0  0  0  0  0  0  0  0  0  0  0
  -36.7696  -36.5532   25.4920 C   0  0  0  0  0  0  0  0  0  0  0  0
  -35.6694  -31.5066   20.8190 C   0  0  0  0  0  0  0  0  0  0  0  0
  -32.7149  -31.4236   20.7265 C   0  0  0  0  0  0  0  0  0  0  0  0
  -35.4915  -36.4109   24.6695 C   0  0  0  0  0  0  0  0  0  0  0  0
  -29.4626  -12.5647   17.9823 C   0  0  0  0  0  0  0  0  0  0  0  0
  -34.7706  -35.1140   25.0234 C   0  0  0  0  0  0  0  0  0  0  0  0
  -28.0627  -12.2146   18.4885 C   0  0  0  0  0  0  0  0  0  0  0  0
  -29.4820  -18.0810   20.2464 C   0  0  0  0  0  0  0  0  0  0  0  0
  -30.4424  -12.7992   19.1297 C   0  0  0  0  0  0  0  0  0  0  0  0
  -29.1155  -16.6023   20.2867 C   0  0  0  0  0  0  0  0  0  0  0  0
  -28.5914  -13.4393   20.6296 C   0  0  0  0  0  0  0  0  0  0  0  0
  -35.6416  -33.8934   24.7029 C   0  0  1  0  0  0  0  0  0  0  0  0
  -34.8201  -32.7201   21.1841 C   0  0  1  0  0  0  0  0  0  0  0  0
  -27.5634  -13.2591   19.5039 C   0  0  2  0  0  0  0  0  0  0  0  0
  -30.2060  -18.2508   21.5724 C   0  0  1  0  0  0  0  0  0  0  0  0
  -31.0396  -16.9736   21.6942 C   0  0  1  0  0  0  0  0  0  0  0  0
  -31.8556  -21.3107   19.3095 C   0  0  0  0  0  0  0  0  0  0  0  0
  -29.7401  -34.0400   15.4872 C   0  0  0  0  0  0  0  0  0  0  0  0
  -32.0826  -17.6891   23.8630 C   0  0  0  0  0  0  0  0  0  0  0  0
  -29.9797  -16.3175   23.8734 C   0  0  0  0  0  0  0  0  0  0  0  0
  -30.6590  -34.5464   22.0271 C   0  0  0  0  0  0  0  0  0  0  0  0
  -29.1075  -34.6468   20.0647 C   0  0  0  0  0  0  0  0  0  0  0  0
  -31.0309  -36.2282   20.2139 C   0  0  0  0  0  0  0  0  0  0  0  0
  -32.7707  -31.7442   15.3417 C   0  0  0  0  0  0  0  0  0  0  0  0
  -30.3207  -20.7397   21.7449 C   0  0  0  0  0  0  0  0  0  0  0  0
  -33.7317  -25.3991   21.4665 C   0  0  0  0  0  0  0  0  0  1  0  0
  -31.4663  -33.7928   19.6934 C   0  0  1  0  0  0  0  0  0  0  0  0
  -31.0860  -33.4907   15.9339 C   0  0  2  0  0  0  0  0  0  0  0  0
  -31.2959  -16.5918   23.1474 C   0  0  0  0  0  0  0  0  0  0  0  0
  -30.5810  -34.7800   20.5051 C   0  0  0  0  0  0  0  0  0  0  0  0
  -25.8471  -11.6228   20.1800 N   0  0  0  0  0  0  0  0  0  0  0  0
  -26.1892  -12.9156   20.0471 N   0  0  0  0  0  0  0  0  0  0  0  0
  -33.4822  -32.6727   20.5909 N   0  0  0  0  0  0  0  0  0  0  0  0
  -29.9121  -13.7735   20.0836 N   0  0  0  0  0  0  0  0  0  0  0  0
  -30.2462  -15.9661   20.9725 N   0  0  0  0  0  0  0  0  0  0  0  0
  -25.3921  -15.1230   20.3675 N   0  0  0  0  0  0  0  0  0  0  0  0
  -21.9338  -12.5583   21.7308 N   0  0  0  0  0  0  0  0  0  0  0  0
  -35.6250  -33.6197   23.2819 N   0  0  0  0  0  0  0  0  0  0  0  0
  -31.4330  -34.0081   18.2508 N   0  0  0  0  0  0  0  0  0  0  0  0
  -31.0569  -19.4548   21.5623 N   0  3  0  0  0  0  0  0  0  0  0  0
  -31.4568  -32.3642   15.0314 N   0  3  0  0  0  0  0  0  0  0  0  0
  -22.6475  -14.7174   21.4348 O   0  0  0  0  0  0  0  0  0  0  0  0
  -33.6687  -32.3585   23.2136 O   0  0  0  0  0  0  0  0  0  0  0  0
  -33.5349  -34.9198   19.9711 O   0  0  0  0  0  0  0  0  0  0  0  0
  -30.6841  -31.8853   17.6941 O   0  0  0  0  0  0  0  0  0  0  0  0
  -31.9770  -14.4590   20.8391 O   0  0  0  0  0  0  0  0  0  0  0  0
  -21.7830   -6.9896   21.7820 O   0  0  0  0  0  0  0  0  0  0  0  0
  -32.9285  -26.5621   21.3065 O   0  0  0  0  0  0  0  0  0  1  0  0
  -19.0670   -6.7122   26.5726 F   0  0  0  0  0  0  0  0  0  0  0  0
  -22.3830   -5.0337   23.6414 F   0  0  0  0  0  0  0  0  0  0  0  0
  1  2  1  0  0  0  0
  1  5  2  0  0  0  0
  2  6  2  0  0  0  0
  3 10  2  0  0  0  0
  3 18  1  0  0  0  0
  4 11  1  0  0  0  0
  4 18  2  0  0  0  0
  5 20  1  0  0  0  0
  6 22  1  0  0  0  0
  7 12  2  0  0  0  0
  7 21  1  0  0  0  0
  8  9  2  0  0  0  0
  8 24  1  0  0  0  0
  9 25  1  0  0  0  0
 10 27  1  0  0  0  0
 11 27  2  0  0  0  0
 12 28  1  0  0  0  0
 13 14  2  0  0  0  0
 13 29  1  0  0  0  0
 14 30  1  0  0  0  0
 15 23  1  0  0  0  0
 15 28  2  0  0  0  0
 16 24  2  0  0  0  0
 16 26  1  0  0  0  0
 17 30  2  0  0  0  0
 17 31  1  0  0  0  0
 18 32  1  0  0  0  0
 19 32  1  0  0  0  0
 19 33  2  0  0  0  0
 19 34  1  0  0  0  0
 20 22  2  0  0  0  0
 20 39  1  0  0  0  0
 21 23  2  0  0  0  0
 21 40  1  0  0  0  0
 22 50  1  0  0  0  0
 23 41  1  0  0  0  0
 24 64  1  0  0  0  0
 25 26  2  0  0  0  0
 25 63  1  0  0  0  0
 26 55  1  0  0  0  0
 27 85  1  0  0  0  0
 28 86  1  0  0  0  0
 29 31  2  0  0  0  0
 29 85  1  0  0  0  0
 30 87  1  0  0  0  0
 31 88  1  0  0  0  0
 32 69  2  0  0  0  0
 33 70  1  0  0  0  0
 33 74  1  0  0  0  0
 34 75  1  0  0  0  0
 34 80  2  0  0  0  0
 35 51  1  0  0  0  0
 35 76  1  0  0  0  0
 35 81  2  0  0  0  0
 36 65  1  0  0  0  0
 36 71  1  0  0  0  0
 36 82  2  0  0  0  0
 37 66  1  0  0  0  0
 37 77  1  0  0  0  0
 37 83  2  0  0  0  0
 38 72  1  0  0  0  0
 38 73  1  0  0  0  0
 38 84  2  0  0  0  0
 39 42  1  0  0  0  0
 40 51  1  0  0  0  0
 41 71  1  0  0  0  0
 42 44  1  0  0  0  0
 43 45  1  0  0  0  0
 43 47  1  0  0  0  0
 44 50  1  0  0  0  0
 45 52  1  0  0  0  0
 46 48  1  0  0  0  0
 46 53  1  0  0  0  0
 47 72  1  0  0  0  0
 48 73  1  0  0  0  0
 49 52  1  0  0  0  0
 49 72  1  0  0  0  0
 50 76  1  0  0  0  0
 51 71  1  0  0  0  0
 52 70  1  0  0  0  0
 53 54  1  0  0  0  0
 53 78  1  0  0  0  0
 54 67  1  0  0  0  0
 54 73  1  0  0  0  0
 56 66  1  0  0  0  0
 57 67  1  0  0  0  0
 58 67  1  0  0  0  0
 59 68  1  0  0  0  0
 60 68  1  0  0  0  0
 61 68  1  0  0  0  0
 62 79  1  0  0  0  0
 63 78  1  0  0  0  0
 64 86  1  0  0  0  0
 65 68  1  0  0  0  0
 65 77  1  0  0  0  0
 66 79  1  0  0  0  0
 69 70  1  0  0  0  0
M  CHG  2  78   1  79   1
M  ISO  4  38 100  64 101  73 100  86 101
M  END
> <Batch ID>
0138

> <Smiles>
CNC(C)C(=O)NC(C(=O)N1Cc2cc([101O:1][101CH2:1]c3ccc(CNC4CC[100N:0]([100C:0](=O)N5CCCC(n6nc(-c7ccc(Oc8ccc(F)cc8F)cc7)c(C(N)=O)c6N)C5)C4C(C)C)c(C)c3)ccc2CC1C(=O)NC1CCCc2ccccc21)C(C)(C)C

> <Shape>
0.191

> <Color>
0.172

> <Negative vol penalty>
0.000

$$$$

  -OEChem-04052321083D

 83 91  0     1  0  0  0  0  0999 V2000
  -27.8452  -34.5985   23.2834 C   0  0  0  0  0  0  0  0  0  0  0  0
  -28.0239  -33.2305   23.1041 C   0  0  0  0  0  0  0  0  0  0  0  0
  -25.6054  -15.1284   21.8159 C   0  0  0  0  0  0  0  0  0  0  0  0
  -26.4574  -15.2610   19.5590 C   0  0  0  0  0  0  0  0  0  0  0  0
  -26.6003  -35.0929   23.6705 C   0  0  0  0  0  0  0  0  0  0  0  0
  -26.9581  -32.3560   23.3129 C   0  0  0  0  0  0  0  0  0  0  0  0
  -26.5635  -28.8678   19.6631 C   0  0  0  0  0  0  0  0  0  0  0  0
  -25.5686  -13.7373   21.7203 C   0  0  0  0  0  0  0  0  0  0  0  0
  -26.4207  -13.8698   19.4635 C   0  0  0  0  0  0  0  0  0  0  0  0
  -27.4475  -27.7908   19.7133 C   0  0  0  0  0  0  0  0  0  0  0  0
  -23.5641  -11.3875   20.3475 C   0  0  0  0  0  0  0  0  0  0  0  0
  -22.4213  -10.7367   20.8123 C   0  0  0  0  0  0  0  0  0  0  0  0
  -25.7182  -26.4249   20.6946 C   0  0  0  0  0  0  0  0  0  0  0  0
  -23.7647   -9.5172   22.4076 C   0  0  0  0  0  0  0  0  0  0  0  0
  -26.0497  -15.8903   20.7352 C   0  0  0  0  0  0  0  0  0  0  0  0
  -26.8206  -18.0976   21.7555 C   0  0  0  0  0  0  0  0  0  0  0  0
  -25.5161  -34.2249   23.8747 C   0  0  0  0  0  0  0  0  0  0  0  0
  -25.2512  -28.7342   20.1391 C   0  0  0  0  0  0  0  0  0  0  0  0
  -25.6979  -32.8391   23.7044 C   0  0  0  0  0  0  0  0  0  0  0  0
  -24.8188  -27.5008   20.6469 C   0  0  0  0  0  0  0  0  0  0  0  0
  -25.9763  -13.1080   20.5442 C   0  0  0  0  0  0  0  0  0  0  0  0
  -27.0258  -26.5700   20.2318 C   0  0  0  0  0  0  0  0  0  0  0  0
  -24.8072  -11.1031   20.9127 C   0  0  0  0  0  0  0  0  0  0  0  0
  -22.5216   -9.8016   21.8424 C   0  0  0  0  0  0  0  0  0  0  0  0
  -24.9075  -10.1680   21.9427 C   0  0  0  0  0  0  0  0  0  0  0  0
  -26.0874  -17.3273   20.8331 C   0  0  0  0  0  0  0  0  0  0  0  0
  -26.5184  -19.3982   21.4336 C   0  0  0  0  0  0  0  0  0  0  0  0
  -27.6965  -17.6752   22.8091 C   0  0  0  0  0  0  0  0  0  0  0  0
  -23.5539  -30.1027   22.4521 C   0  0  0  0  0  0  0  0  0  0  0  0
  -21.1309  -28.3731   21.1638 C   0  0  0  0  0  0  0  0  0  0  0  0
  -20.1620  -25.6648   19.3271 C   0  0  0  0  0  0  0  0  0  0  0  0
  -24.6853  -22.0263   16.3756 C   0  0  0  0  0  0  0  0  0  0  0  0
  -24.2020  -34.8015   24.3385 C   0  0  0  0  0  0  0  0  0  0  0  0
  -24.3019  -29.8977   20.0532 C   0  0  0  0  0  0  0  0  0  0  0  0
  -23.4141  -27.2998   21.1519 C   0  0  0  0  0  0  0  0  0  0  0  0
  -23.0250  -33.8432   24.1756 C   0  0  0  0  0  0  0  0  0  0  0  0
  -23.0373  -22.0729   19.5313 C   0  0  0  0  0  0  0  0  0  0  0  0
  -23.3909  -32.4555   24.6926 C   0  0  0  0  0  0  0  0  0  0  0  0
  -23.6983  -20.9314   20.3060 C   0  0  0  0  0  0  0  0  0  0  0  0
  -29.4859  -21.7502   15.4945 C   0  0  0  0  0  0  0  0  0  0  0  0
  -22.8833  -21.7347   18.0501 C   0  0  0  0  0  0  0  0  0  0  0  0
  -30.4103  -22.2483   14.3818 C   0  0  0  0  0  0  0  0  0  0  0  0
  -24.7885  -20.1747   18.1525 C   0  0  0  0  0  0  0  0  0  0  0  0
  -30.4562  -24.4304   15.3761 C   0  0  0  0  0  0  0  0  0  0  0  0
  -24.5594  -31.8610   23.8972 C   0  0  1  0  0  0  0  0  0  0  0  0
  -23.1425  -29.7970   21.0396 C   0  0  1  0  0  0  0  0  0  0  0  0
  -25.0162  -20.4914   19.6405 C   0  0  2  0  0  0  0  0  0  0  0  0
  -28.6253  -22.8560   16.1189 C   0  0  2  0  0  0  0  0  0  0  0  0
  -18.1128  -24.4932   18.4754 C   0  0  0  0  0  0  0  0  0  0  0  0
  -29.8214  -23.3198   20.2643 C   0  0  0  0  0  0  0  0  0  0  0  0
  -20.6176  -27.2482   23.9533 C   0  0  0  0  0  0  0  0  0  0  0  0
  -19.2514  -25.4365   22.8953 C   0  0  0  0  0  0  0  0  0  0  0  0
  -18.5531  -27.8200   22.6629 C   0  0  0  0  0  0  0  0  0  0  0  0
  -20.9714  -26.0518   16.5068 C   0  0  0  0  0  0  0  0  0  0  0  0
  -27.5011  -23.3316   15.1996 C   0  0  0  0  0  0  0  0  0  0  0  0
  -26.5740  -22.2009   14.7751 C   0  0  0  0  0  0  0  0  0  0  0  0
  -30.2160  -23.8482   17.8077 C   0  0  0  0  0  0  0  0  0  0  0  0
  -28.8983  -25.4566   19.2777 C   0  0  0  0  0  0  0  0  0  1  0  0
  -20.5701  -26.9890   21.3849 C   0  0  1  0  0  0  0  0  0  0  0  0
  -19.1858  -25.5276   18.1728 C   0  0  2  0  0  0  0  0  0  0  0  0
  -29.2679  -23.9934   19.0036 C   0  0  2  0  0  0  0  0  0  0  0  0
  -19.7752  -26.8775   22.7164 C   0  0  0  0  0  0  0  0  0  0  0  0
  -25.3731  -18.0761   19.9886 N   0  0  0  0  0  0  0  0  0  0  0  0
  -25.6559  -19.3305   20.3792 N   0  0  0  0  0  0  0  0  0  0  0  0
  -31.2656  -23.3360   14.8514 N   0  0  0  0  0  0  0  0  0  0  0  0
  -22.5253  -28.4692   21.0526 N   0  0  0  0  0  0  0  0  0  0  0  0
  -24.1690  -21.3268   17.4788 N   0  0  0  0  0  0  0  0  0  0  0  0
  -26.9089  -20.5817   21.9525 N   0  0  0  0  0  0  0  0  0  0  0  0
  -27.8954  -16.3014   23.0022 N   0  0  0  0  0  0  0  0  0  0  0  0
  -24.0988  -31.3615   22.6194 N   0  0  0  0  0  0  0  0  0  0  0  0
  -19.7895  -26.6699   20.1944 N   0  0  0  0  0  0  0  0  0  0  0  0
  -25.9118  -21.5789   15.9000 N   0  0  0  0  0  0  0  0  0  0  0  0
  -29.5042  -24.0425   16.4920 N   0  3  1  0  0  0  0  0  0  0  0  0
  -19.9031  -25.1122   16.9343 N   0  3  0  0  0  0  0  0  0  0  0  0
  -28.2726  -18.4916   23.5676 O   0  0  0  0  0  0  0  0  0  0  0  0
  -23.3879  -29.2596   23.3257 O   0  0  0  0  0  0  0  0  0  0  0  0
  -20.3597  -29.3326   21.0852 O   0  0  0  0  0  0  0  0  0  0  0  0
  -21.1538  -24.9493   19.4494 O   0  0  0  0  0  0  0  0  0  0  0  0
  -24.0994  -22.9824   15.8565 O   0  0  0  0  0  0  0  0  0  0  0  0
  -25.9407  -11.7506   20.4506 O   0  0  0  0  0  0  0  0  0  0  0  0
  -27.8869  -25.5174   20.2826 O   0  0  0  0  0  0  0  0  0  1  0  0
  -21.4238   -9.1778   22.2897 F   0  0  0  0  0  0  0  0  0  0  0  0
  -26.0989   -9.8914   22.4905 F   0  0  0  0  0  0  0  0  0  0  0  0
  1  2  1  0  0  0  0
  1  5  2  0  0  0  0
  2  6  2  0  0  0  0
  3  8  2  0  0  0  0
  3 15  1  0  0  0  0
  4  9  1  0  0  0  0
  4 15  2  0  0  0  0
  5 17  1  0  0  0  0
  6 19  1  0  0  0  0
  7 10  2  0  0  0  0
  7 18  1  0  0  0  0
  8 21  1  0  0  0  0
  9 21  2  0  0  0  0
 10 22  1  0  0  0  0
 11 12  2  0  0  0  0
 11 23  1  0  0  0  0
 12 24  1  0  0  0  0
 13 20  1  0  0  0  0
 13 22  2  0  0  0  0
 14 24  2  0  0  0  0
 14 25  1  0  0  0  0
 15 26  1  0  0  0  0
 16 26  1  0  0  0  0
 16 27  2  0  0  0  0
 16 28  1  0  0  0  0
 17 19  2  0  0  0  0
 17 33  1  0  0  0  0
 18 20  2  0  0  0  0
 18 34  1  0  0  0  0
 19 45  1  0  0  0  0
 20 35  1  0  0  0  0
 21 80  1  0  0  0  0
 22 81  1  0  0  0  0
 23 25  2  0  0  0  0
 23 80  1  0  0  0  0
 24 82  1  0  0  0  0
 25 83  1  0  0  0  0
 26 63  2  0  0  0  0
 27 64  1  0  0  0  0
 27 68  1  0  0  0  0
 28 69  1  0  0  0  0
 28 75  2  0  0  0  0
 29 46  1  0  0  0  0
 29 70  1  0  0  0  0
 29 76  2  0  0  0  0
 30 59  1  0  0  0  0
 30 66  1  0  0  0  0
 30 77  2  0  0  0  0
 31 60  1  0  0  0  0
 31 71  1  0  0  0  0
 31 78  2  0  0  0  0
 32 67  1  0  0  0  0
 32 72  1  0  0  0  0
 32 79  2  0  0  0  0
 33 36  1  0  0  0  0
 34 46  1  0  0  0  0
 35 66  1  0  0  0  0
 36 38  1  0  0  0  0
 37 39  1  0  0  0  0
 37 41  1  0  0  0  0
 38 45  1  0  0  0  0
 39 47  1  0  0  0  0
 40 42  1  0  0  0  0
 40 48  1  0  0  0  0
 41 67  1  0  0  0  0
 42 65  1  0  0  0  0
 43 47  1  0  0  0  0
 43 67  1  0  0  0  0
 44 65  1  0  0  0  0
 44 73  1  0  0  0  0
 45 70  1  0  0  0  0
 46 66  1  0  0  0  0
 47 64  1  0  0  0  0
 48 55  1  0  0  0  0
 48 73  1  0  0  0  0
 49 60  1  0  0  0  0
 50 61  1  0  0  0  0
 51 62  1  0  0  0  0
 52 62  1  0  0  0  0
 53 62  1  0  0  0  0
 54 74  1  0  0  0  0
 55 56  1  0  0  0  0
 56 72  1  0  0  0  0
 57 61  1  0  0  0  0
 57 73  1  0  0  0  0
 58 61  1  0  0  0  0
 58 81  1  0  0  0  0
 59 62  1  0  0  0  0
 59 71  1  0  0  0  0
 60 74  1  0  0  0  0
 63 64  1  0  0  0  0
M  CHG  2  73   1  74   1
M  ISO  4  32 100  58 101  72 100  81 101
M  END
> <Batch ID>
0138

> <Smiles>
CNC(C)C(=O)NC(C(=O)N1Cc2cc([101O:1][101CH2:1]C(C)CN3CNCCC3CC[100NH:0][100C:0](=O)N3CCCC(n4nc(-c5ccc(Oc6ccc(F)cc6F)cc5)c(C(N)=O)c4N)C3)ccc2CC1C(=O)NC1CCCc2ccccc21)C(C)(C)C

> <Shape>
0.245

> <Color>
0.052

> <Negative vol penalty>
0.000

$$$$

  -OEChem-04052321083D

 86 95  0     1  0  0  0  0  0999 V2000
  -29.7674  -34.3658   19.4383 C   0  0  0  0  0  0  0  0  0  0  0  0
  -30.7251  -33.6279   20.1266 C   0  0  0  0  0  0  0  0  0  0  0  0
  -29.8940  -19.2589   24.7543 C   0  0  0  0  0  0  0  0  0  0  0  0
  -22.9963   -9.9530   19.9801 C   0  0  0  0  0  0  0  0  0  0  0  0
  -23.7268   -9.9927   22.2827 C   0  0  0  0  0  0  0  0  0  0  0  0
  -28.4693  -33.8734   19.3099 C   0  0  0  0  0  0  0  0  0  0  0  0
  -30.3849  -32.3976   20.6879 C   0  0  0  0  0  0  0  0  0  0  0  0
  -33.1729  -25.9594   22.1347 C   0  0  0  0  0  0  0  0  0  0  0  0
  -28.5067  -19.3180   24.6188 C   0  0  0  0  0  0  0  0  0  0  0  0
  -32.7776  -17.3361   23.3924 C   0  0  0  0  0  0  0  0  0  0  0  0
  -32.1257  -16.4737   22.5160 C   0  0  0  0  0  0  0  0  0  0  0  0
  -22.2195   -8.8254   20.2460 C   0  0  0  0  0  0  0  0  0  0  0  0
  -22.9500   -8.8651   22.5486 C   0  0  0  0  0  0  0  0  0  0  0  0
  -33.3238  -25.0641   23.1927 C   0  0  0  0  0  0  0  0  0  0  0  0
  -23.1613   -5.5249   22.0699 C   0  0  0  0  0  0  0  0  0  0  0  0
  -23.7407   -4.5007   22.8189 C   0  0  0  0  0  0  0  0  0  0  0  0
  -28.5877  -17.5308   22.9980 C   0  0  0  0  0  0  0  0  0  0  0  0
  -31.0711  -24.2766   22.8396 C   0  0  0  0  0  0  0  0  0  0  0  0
  -22.0227   -4.7569   24.4982 C   0  0  0  0  0  0  0  0  0  0  0  0
  -30.6477  -18.3343   24.0130 C   0  0  0  0  0  0  0  0  0  0  0  0
  -29.9847  -17.4573   23.1217 C   0  0  0  0  0  0  0  0  0  0  0  0
  -23.7500  -10.5367   20.9985 C   0  0  0  0  0  0  0  0  0  0  0  0
  -24.1590  -13.0488   20.8263 C   0  0  0  0  0  0  0  0  0  0  0  0
  -28.1156  -32.6320   19.8617 C   0  0  0  0  0  0  0  0  0  0  0  0
  -31.9642  -26.0278   21.4270 C   0  0  0  0  0  0  0  0  0  0  0  0
  -29.0806  -31.8888   20.5680 C   0  0  0  0  0  0  0  0  0  0  0  0
  -30.9083  -25.1718   21.7714 C   0  0  0  0  0  0  0  0  0  0  0  0
  -27.8548  -18.4556   23.7423 C   0  0  0  0  0  0  0  0  0  0  0  0
  -32.0447  -18.2609   24.1367 C   0  0  0  0  0  0  0  0  0  0  0  0
  -30.7384  -16.5327   22.3804 C   0  0  0  0  0  0  0  0  0  0  0  0
  -22.1963   -8.2815   21.5302 C   0  0  0  0  0  0  0  0  0  0  0  0
  -32.2718  -24.2245   23.5472 C   0  0  0  0  0  0  0  0  0  0  0  0
  -22.0127   -6.1652   22.5351 C   0  0  0  0  0  0  0  0  0  0  0  0
  -23.1714   -4.1167   24.0330 C   0  0  0  0  0  0  0  0  0  0  0  0
  -21.4434   -5.7812   23.7492 C   0  0  0  0  0  0  0  0  0  0  0  0
  -24.5531  -11.7011   20.7243 C   0  0  0  0  0  0  0  0  0  0  0  0
  -25.2749  -13.7614   20.4609 C   0  0  0  0  0  0  0  0  0  0  0  0
  -22.8972  -13.6066   21.2166 C   0  0  0  0  0  0  0  0  0  0  0  0
  -29.7726  -28.2786   20.9428 C   0  0  0  0  0  0  0  0  0  0  0  0
  -28.5126  -26.0701   18.9285 C   0  0  0  0  0  0  0  0  0  0  0  0
  -28.2123  -22.7856   18.0518 C   0  0  0  0  0  0  0  0  0  0  0  0
  -30.7638  -14.6696   20.6851 C   0  0  0  0  0  0  0  0  0  0  0  0
  -26.6876  -32.1629   19.7377 C   0  0  0  0  0  0  0  0  0  0  0  0
  -31.8266  -26.9803   20.2710 C   0  0  0  0  0  0  0  0  0  0  0  0
  -29.5973  -25.1918   21.0302 C   0  0  0  0  0  0  0  0  0  0  0  0
  -26.5060  -30.6775   20.0395 C   0  0  0  0  0  0  0  0  0  0  0  0
  -29.6172  -12.2319   18.3570 C   0  0  0  0  0  0  0  0  0  0  0  0
  -27.2493  -30.2974   21.3161 C   0  0  0  0  0  0  0  0  0  0  0  0
  -28.1651  -11.9873   18.7737 C   0  0  0  0  0  0  0  0  0  0  0  0
  -30.5225  -12.4644   19.5653 C   0  0  0  0  0  0  0  0  0  0  0  0
  -28.6176  -13.2690   20.9043 C   0  0  0  0  0  0  0  0  0  0  0  0
  -28.7566  -30.5385   21.1695 C   0  0  1  0  0  0  0  0  0  0  0  0
  -30.3755  -27.3251   19.9504 C   0  0  1  0  0  0  0  0  0  0  0  0
  -27.6557  -13.0941   19.7178 C   0  0  2  0  0  0  0  0  0  0  0  0
  -26.3716  -18.5198   23.5993 C   0  0  0  0  0  0  0  0  0  0  0  0
  -27.0850  -21.2870   16.3843 C   0  0  0  0  0  0  0  0  0  0  0  0
  -25.8739  -26.3926   20.4262 C   0  0  0  0  0  0  0  0  0  0  0  0
  -25.0988  -24.2543   19.3795 C   0  0  0  0  0  0  0  0  0  0  0  0
  -25.6486  -26.2172   17.9416 C   0  0  0  0  0  0  0  0  0  0  0  0
  -30.8024  -21.8091   17.0045 C   0  0  0  0  0  0  0  0  0  0  0  0
  -32.8094  -19.1602   25.0627 C   0  0  0  0  0  0  0  0  0  0  0  0
  -33.6371  -21.4808   25.4730 C   0  0  0  0  0  0  0  0  0  0  0  0
  -33.7293  -22.8499   24.8287 C   0  0  0  0  0  0  0  0  0  1  0  0
  -27.5197  -24.9413   19.0655 C   0  0  1  0  0  0  0  0  0  0  0  0
  -28.3374  -22.0855   16.7107 C   0  0  2  0  0  0  0  0  0  0  0  0
  -26.0592  -25.4521   19.2186 C   0  0  0  0  0  0  0  0  0  0  0  0
  -25.8203  -11.5632   20.3252 N   0  0  0  0  0  0  0  0  0  0  0  0
  -26.2321  -12.8334   20.1732 N   0  0  0  0  0  0  0  0  0  0  0  0
  -29.5095  -26.1449   19.9116 N   0  0  0  0  0  0  0  0  0  0  0  0
  -29.9794  -13.5290   20.4117 N   0  0  0  0  0  0  0  0  0  0  0  0
  -25.5208  -15.0850   20.3608 N   0  0  0  0  0  0  0  0  0  0  0  0
  -21.8577  -12.7317   21.5606 N   0  0  0  0  0  0  0  0  0  0  0  0
  -30.1303  -15.6294   21.4738 N   0  0  0  0  0  0  0  0  0  0  0  0
  -29.3647  -29.4791   20.3934 N   0  0  0  0  0  0  0  0  0  0  0  0
  -27.7305  -24.0702   17.9144 N   0  0  0  0  0  0  0  0  0  0  0  0
  -29.5001  -21.1534   16.7194 N   0  3  0  0  0  0  0  0  0  0  0  0
  -32.9366  -20.5515   24.5510 N   0  3  0  0  0  0  0  0  0  0  0  0
  -22.6923  -14.8438   21.2431 O   0  0  0  0  0  0  0  0  0  0  0  0
  -29.6827  -27.9489   22.1197 O   0  0  0  0  0  0  0  0  0  0  0  0
  -28.4119  -26.8523   17.9800 O   0  0  0  0  0  0  0  0  0  0  0  0
  -28.5085  -22.2455   19.1153 O   0  0  0  0  0  0  0  0  0  0  0  0
  -31.9028  -14.7984   20.2289 O   0  0  0  0  0  0  0  0  0  0  0  0
  -21.4382   -7.1813   21.7900 O   0  0  0  0  0  0  0  0  0  0  0  0
  -32.4162  -23.3502   24.5799 O   0  0  0  0  0  0  0  0  0  1  0  0
  -23.7269   -3.1321   24.7514 F   0  0  0  0  0  0  0  0  0  0  0  0
  -20.3392   -6.3918   24.2007 F   0  0  0  0  0  0  0  0  0  0  0  0
  1  2  1  0  0  0  0
  1  6  2  0  0  0  0
  2  7  2  0  0  0  0
  3  9  2  0  0  0  0
  3 20  1  0  0  0  0
  4 12  2  0  0  0  0
  4 22  1  0  0  0  0
  5 13  1  0  0  0  0
  5 22  2  0  0  0  0
  6 24  1  0  0  0  0
  7 26  1  0  0  0  0
  8 14  2  0  0  0  0
  8 25  1  0  0  0  0
  9 28  1  0  0  0  0
 10 11  2  0  0  0  0
 10 29  1  0  0  0  0
 11 30  1  0  0  0  0
 12 31  1  0  0  0  0
 13 31  2  0  0  0  0
 14 32  1  0  0  0  0
 15 16  2  0  0  0  0
 15 33  1  0  0  0  0
 16 34  1  0  0  0  0
 17 21  1  0  0  0  0
 17 28  2  0  0  0  0
 18 27  1  0  0  0  0
 18 32  2  0  0  0  0
 19 34  2  0  0  0  0
 19 35  1  0  0  0  0
 20 21  1  0  0  0  0
 20 29  2  0  0  0  0
 21 30  2  0  0  0  0
 22 36  1  0  0  0  0
 23 36  1  0  0  0  0
 23 37  2  0  0  0  0
 23 38  1  0  0  0  0
 24 26  2  0  0  0  0
 24 43  1  0  0  0  0
 25 27  2  0  0  0  0
 25 44  1  0  0  0  0
 26 52  1  0  0  0  0
 27 45  1  0  0  0  0
 28 55  1  0  0  0  0
 29 61  1  0  0  0  0
 30 73  1  0  0  0  0
 31 83  1  0  0  0  0
 32 84  1  0  0  0  0
 33 35  2  0  0  0  0
 33 83  1  0  0  0  0
 34 85  1  0  0  0  0
 35 86  1  0  0  0  0
 36 67  2  0  0  0  0
 37 68  1  0  0  0  0
 37 71  1  0  0  0  0
 38 72  1  0  0  0  0
 38 78  2  0  0  0  0
 39 53  1  0  0  0  0
 39 74  1  0  0  0  0
 39 79  2  0  0  0  0
 40 64  1  0  0  0  0
 40 69  1  0  0  0  0
 40 80  2  0  0  0  0
 41 65  1  0  0  0  0
 41 75  1  0  0  0  0
 41 81  2  0  0  0  0
 42 70  1  0  0  0  0
 42 73  1  0  0  0  0
 42 82  2  0  0  0  0
 43 46  1  0  0  0  0
 44 53  1  0  0  0  0
 45 69  1  0  0  0  0
 46 48  1  0  0  0  0
 47 49  1  0  0  0  0
 47 50  1  0  0  0  0
 48 52  1  0  0  0  0
 49 54  1  0  0  0  0
 50 70  1  0  0  0  0
 51 54  1  0  0  0  0
 51 70  1  0  0  0  0
 52 74  1  0  0  0  0
 53 69  1  0  0  0  0
 54 68  1  0  0  0  0
 56 65  1  0  0  0  0
 57 66  1  0  0  0  0
 58 66  1  0  0  0  0
 59 66  1  0  0  0  0
 60 76  1  0  0  0  0
 61 77  1  0  0  0  0
 62 63  1  0  0  0  0
 62 77  1  0  0  0  0
 63 84  1  0  0  0  0
 64 66  1  0  0  0  0
 64 75  1  0  0  0  0
 65 76  1  0  0  0  0
 67 68  1  0  0  0  0
M  CHG  2  76   1  77   1
M  ISO  4  42 100  63 101  73 100  84 101
M  END
> <Batch ID>
0138

> <Smiles>
CNC(C)C(=O)NC(C(=O)N1Cc2cc([101O:1][101CH2:1]CNCc3ccc([100NH:0][100C:0](=O)N4CCCC(n5nc(-c6ccc(Oc7ccc(F)cc7F)cc6)c(C(N)=O)c5N)C4)c4cc(C)ccc34)ccc2CC1C(=O)NC1CCCc2ccccc21)C(C)(C)C

> <Shape>
0.258

> <Color>
0.204

> <Negative vol penalty>
0.000

$$$$

  -OEChem-04052321083D

 88 96  0     1  0  0  0  0  0999 V2000
  -30.8213  -26.4697   16.8002 C   0  0  0  0  0  0  0  0  0  0  0  0
  -29.4508  -26.2874   16.9548 C   0  0  0  0  0  0  0  0  0  0  0  0
  -25.5431  -24.3091   20.7091 C   0  0  0  0  0  0  0  0  0  0  0  0
  -25.5793  -12.8351   22.4469 C   0  0  0  0  0  0  0  0  0  0  0  0
  -24.2806  -14.4549   23.6824 C   0  0  0  0  0  0  0  0  0  0  0  0
  -31.5775  -26.9872   17.8511 C   0  0  0  0  0  0  0  0  0  0  0  0
  -28.8358  -26.6216   18.1609 C   0  0  0  0  0  0  0  0  0  0  0  0
  -23.2037  -28.9066   18.9122 C   0  0  0  0  0  0  0  0  0  0  0  0
  -24.5586  -24.4903   21.6804 C   0  0  0  0  0  0  0  0  0  0  0  0
  -25.6446  -23.0905   20.0378 C   0  0  0  0  0  0  0  0  0  0  0  0
  -25.9664  -12.2324   23.6437 C   0  0  0  0  0  0  0  0  0  0  0  0
  -24.6676  -13.8522   24.8793 C   0  0  0  0  0  0  0  0  0  0  0  0
  -21.9884  -28.3135   19.2511 C   0  0  0  0  0  0  0  0  0  0  0  0
  -27.0061  -10.0476   26.3568 C   0  0  0  0  0  0  0  0  0  0  0  0
  -26.9616   -8.6552   26.4259 C   0  0  0  0  0  0  0  0  0  0  0  0
  -22.3443  -28.9172   21.5594 C   0  0  0  0  0  0  0  0  0  0  0  0
  -24.5885   -8.7087   25.9753 C   0  0  0  0  0  0  0  0  0  0  0  0
  -24.7365  -13.9464   22.4662 C   0  0  0  0  0  0  0  0  0  0  0  0
  -23.2074  -14.2607   20.4485 C   0  0  0  0  0  0  0  0  0  0  0  0
  -30.9699  -27.3370   19.0673 C   0  0  0  0  0  0  0  0  0  0  0  0
  -24.0050  -29.5009   19.8977 C   0  0  0  0  0  0  0  0  0  0  0  0
  -29.5848  -27.1431   19.2294 C   0  0  0  0  0  0  0  0  0  0  0  0
  -23.5682  -29.5195   21.2300 C   0  0  0  0  0  0  0  0  0  0  0  0
  -23.6757  -23.4530   21.9806 C   0  0  0  0  0  0  0  0  0  0  0  0
  -24.7617  -22.0532   20.3379 C   0  0  0  0  0  0  0  0  0  0  0  0
  -25.5105  -12.7409   24.8600 C   0  0  0  0  0  0  0  0  0  0  0  0
  -21.5598  -28.3162   20.5753 C   0  0  0  0  0  0  0  0  0  0  0  0
  -25.8418  -10.7706   26.0971 C   0  0  0  0  0  0  0  0  0  0  0  0
  -23.7772  -22.2344   21.3093 C   0  0  0  0  0  0  0  0  0  0  0  0
  -25.7528   -7.9857   26.2351 C   0  0  0  0  0  0  0  0  0  0  0  0
  -24.6331  -10.1012   25.9063 C   0  0  0  0  0  0  0  0  0  0  0  0
  -24.3368  -14.5697   21.2301 C   0  0  0  0  0  0  0  0  0  0  0  0
  -23.2773  -15.1284   19.3861 C   0  0  0  0  0  0  0  0  0  0  0  0
  -22.1864  -13.2773   20.6637 C   0  0  0  0  0  0  0  0  0  0  0  0
  -26.9286  -28.9756   21.0293 C   0  0  0  0  0  0  0  0  0  0  0  0
  -26.3493  -31.6962   22.6982 C   0  0  0  0  0  0  0  0  0  0  0  0
  -24.0575  -33.8404   24.0385 C   0  0  0  0  0  0  0  0  0  0  0  0
  -25.8045  -20.4936   18.6567 C   0  0  0  0  0  0  0  0  0  0  0  0
  -31.8362  -27.8486   20.1908 C   0  0  0  0  0  0  0  0  0  0  0  0
  -25.3008  -30.1600   19.5116 C   0  0  0  0  0  0  0  0  0  0  0  0
  -24.3818  -30.1623   22.3224 C   0  0  0  0  0  0  0  0  0  0  0  0
  -31.0474  -28.5282   21.3072 C   0  0  0  0  0  0  0  0  0  0  0  0
  -26.4417  -17.5614   16.7401 C   0  0  0  0  0  0  0  0  0  0  0  0
  -29.8384  -27.6837   21.6970 C   0  0  0  0  0  0  0  0  0  0  0  0
  -25.8660  -16.4340   17.6001 C   0  0  0  0  0  0  0  0  0  0  0  0
  -27.0887  -18.6513   17.5929 C   0  0  0  0  0  0  0  0  0  0  0  0
  -25.6576  -18.0727   19.5128 C   0  0  0  0  0  0  0  0  0  0  0  0
  -28.8773  -27.5169   20.5139 C   0  0  1  0  0  0  0  0  0  0  0  0
  -26.2785  -30.2834   20.6762 C   0  0  1  0  0  0  0  0  0  0  0  0
  -24.9379  -16.9830   18.7014 C   0  0  2  0  0  0  0  0  0  0  0  0
  -23.8865  -35.9555   25.3782 C   0  0  0  0  0  0  0  0  0  0  0  0
  -18.6266  -26.9837   19.4294 C   0  0  0  0  0  0  0  0  0  0  0  0
  -27.0707  -30.1496   25.2275 C   0  0  0  0  0  0  0  0  0  0  0  0
  -25.9882  -31.9684   26.5647 C   0  0  0  0  0  0  0  0  0  0  0  0
  -27.9695  -32.4816   25.1387 C   0  0  0  0  0  0  0  0  0  0  0  0
  -21.0350  -17.4193   21.6553 C   0  0  0  0  0  0  0  0  0  0  0  0
  -22.6345  -35.2447   21.8563 C   0  0  0  0  0  0  0  0  0  0  0  0
  -22.6234  -23.6678   23.0297 C   0  0  0  0  0  0  0  0  0  0  0  0
  -21.2241  -23.8874   22.4636 C   0  0  0  0  0  0  0  0  0  0  0  0
  -22.2225  -19.2741   22.8335 C   0  0  0  0  0  0  0  0  0  0  0  0
  -19.8792  -25.3874   20.9872 C   0  0  0  0  0  0  0  0  0  0  0  0
  -23.3032  -20.3189   22.6367 C   0  0  0  0  0  0  0  0  0  0  0  0
  -25.7397  -32.0171   24.0414 C   0  0  1  0  0  0  0  0  0  0  0  0
  -23.9402  -35.3529   23.9829 C   0  0  2  0  0  0  0  0  0  0  0  0
  -19.9427  -26.6350   20.1121 C   0  0  2  0  0  0  0  0  0  1  0  0
  -26.6774  -31.6403   25.2231 C   0  0  0  0  0  0  0  0  0  0  0  0
  -25.0705  -15.5565   20.7086 N   0  0  0  0  0  0  0  0  0  0  0  0
  -24.4007  -15.8750   19.5879 N   0  0  0  0  0  0  0  0  0  0  0  0
  -25.6443  -30.7880   21.8957 N   0  0  0  0  0  0  0  0  0  0  0  0
  -26.1497  -19.1263   18.6114 N   0  0  0  0  0  0  0  0  0  0  0  0
  -22.4869  -15.3178   18.3083 N   0  0  0  0  0  0  0  0  0  0  0  0
  -22.2670  -12.4694   21.8061 N   0  0  0  0  0  0  0  0  0  0  0  0
  -24.8785  -20.8221   19.6463 N   0  0  0  0  0  0  0  0  0  0  0  0
  -28.0911  -28.7177   20.3282 N   0  0  0  0  0  0  0  0  0  0  0  0
  -25.3727  -33.4283   23.9965 N   0  0  0  0  0  0  0  0  0  0  0  0
  -22.0539  -18.5007   21.5774 N   0  3  0  0  0  0  0  0  0  0  0  0
  -22.7038  -35.7500   23.2516 N   0  3  0  0  0  0  0  0  0  0  0  0
  -21.1888  -25.1214   21.6327 N   0  3  0  0  0  0  0  0  0  0  0  0
  -21.2399  -13.1086   19.8580 O   0  0  0  0  0  0  0  0  0  0  0  0
  -26.4143  -28.2545   21.8763 O   0  0  0  0  0  0  0  0  0  0  0  0
  -27.4083  -32.2370   22.3700 O   0  0  0  0  0  0  0  0  0  0  0  0
  -23.0804  -33.0989   24.1156 O   0  0  0  0  0  0  0  0  0  0  0  0
  -26.2736  -21.3082   17.8577 O   0  0  0  0  0  0  0  0  0  0  0  0
  -25.8878  -12.1529   26.0281 O   0  0  0  0  0  0  0  0  0  0  0  0
  -22.9118  -21.2218   21.6058 O   0  0  0  0  0  0  0  0  0  0  0  0
  -20.3743  -27.7374   20.9089 O   0  0  0  0  0  0  0  0  0  1  0  0
  -25.7105   -6.6485   26.2998 F   0  0  0  0  0  0  0  0  0  0  0  0
  -23.5115  -10.7903   25.6553 F   0  0  0  0  0  0  0  0  0  0  0  0
  1  2  1  0  0  0  0
  1  6  2  0  0  0  0
  2  7  2  0  0  0  0
  3  9  1  0  0  0  0
  3 10  2  0  0  0  0
  4 11  2  0  0  0  0
  4 18  1  0  0  0  0
  5 12  1  0  0  0  0
  5 18  2  0  0  0  0
  6 20  1  0  0  0  0
  7 22  1  0  0  0  0
  8 13  2  0  0  0  0
  8 21  1  0  0  0  0
  9 24  2  0  0  0  0
 10 25  1  0  0  0  0
 11 26  1  0  0  0  0
 12 26  2  0  0  0  0
 13 27  1  0  0  0  0
 14 15  2  0  0  0  0
 14 28  1  0  0  0  0
 15 30  1  0  0  0  0
 16 23  1  0  0  0  0
 16 27  2  0  0  0  0
 17 30  2  0  0  0  0
 17 31  1  0  0  0  0
 18 32  1  0  0  0  0
 19 32  1  0  0  0  0
 19 33  2  0  0  0  0
 19 34  1  0  0  0  0
 20 22  2  0  0  0  0
 20 39  1  0  0  0  0
 21 23  2  0  0  0  0
 21 40  1  0  0  0  0
 22 48  1  0  0  0  0
 23 41  1  0  0  0  0
 24 29  1  0  0  0  0
 24 58  1  0  0  0  0
 25 29  2  0  0  0  0
 25 73  1  0  0  0  0
 26 84  1  0  0  0  0
 27 86  1  0  0  0  0
 28 31  2  0  0  0  0
 28 84  1  0  0  0  0
 29 85  1  0  0  0  0
 30 87  1  0  0  0  0
 31 88  1  0  0  0  0
 32 67  2  0  0  0  0
 33 68  1  0  0  0  0
 33 71  1  0  0  0  0
 34 72  1  0  0  0  0
 34 79  2  0  0  0  0
 35 49  1  0  0  0  0
 35 74  1  0  0  0  0
 35 80  2  0  0  0  0
 36 63  1  0  0  0  0
 36 69  1  0  0  0  0
 36 81  2  0  0  0  0
 37 64  1  0  0  0  0
 37 75  1  0  0  0  0
 37 82  2  0  0  0  0
 38 70  1  0  0  0  0
 38 73  1  0  0  0  0
 38 83  2  0  0  0  0
 39 42  1  0  0  0  0
 40 49  1  0  0  0  0
 41 69  1  0  0  0  0
 42 44  1  0  0  0  0
 43 45  1  0  0  0  0
 43 46  1  0  0  0  0
 44 48  1  0  0  0  0
 45 50  1  0  0  0  0
 46 70  1  0  0  0  0
 47 50  1  0  0  0  0
 47 70  1  0  0  0  0
 48 74  1  0  0  0  0
 49 69  1  0  0  0  0
 50 68  1  0  0  0  0
 51 64  1  0  0  0  0
 52 65  1  0  0  0  0
 53 66  1  0  0  0  0
 54 66  1  0  0  0  0
 55 66  1  0  0  0  0
 56 76  1  0  0  0  0
 57 77  1  0  0  0  0
 58 59  1  0  0  0  0
 59 78  1  0  0  0  0
 60 62  1  0  0  0  0
 60 76  1  0  0  0  0
 61 65  1  0  0  0  0
 61 78  1  0  0  0  0
 62 85  1  0  0  0  0
 63 66  1  0  0  0  0
 63 75  1  0  0  0  0
 64 77  1  0  0  0  0
 65 86  1  0  0  0  0
 67 68  1  0  0  0  0
M  CHG  3  76   1  77   1  78   1
M  ISO  4  38 100  65 101  73 100  86 101
M  END
> <Batch ID>
0138

> <Smiles>
CNCCOc1c(CCNC[101CH:1](C)[101O:1]c2ccc3c(c2)CN(C(=O)C(NC(=O)C(C)NC)C(C)(C)C)C(C(=O)NC2CCCc4ccccc42)C3)cccc1[100NH:0][100C:0](=O)N1CCCC(n2nc(-c3ccc(Oc4ccc(F)cc4F)cc3)c(C(N)=O)c2N)C1

> <Shape>
0.206

> <Color>
0.082

> <Negative vol penalty>
0.000

$$$$

  -OEChem-04052321083D

 86 94  0     1  0  0  0  0  0999 V2000
  -32.8035  -15.5879   15.4576 C   0  0  0  0  0  0  0  0  0  0  0  0
  -32.5023  -16.3266   16.5974 C   0  0  0  0  0  0  0  0  0  0  0  0
  -23.0018   -9.8933   19.9813 C   0  0  0  0  0  0  0  0  0  0  0  0
  -23.7315   -9.9433   22.2839 C   0  0  0  0  0  0  0  0  0  0  0  0
  -33.9929  -15.8239   14.7695 C   0  0  0  0  0  0  0  0  0  0  0  0
  -33.3911  -17.3009   17.0504 C   0  0  0  0  0  0  0  0  0  0  0  0
  -31.9692  -22.6168   19.7385 C   0  0  0  0  0  0  0  0  0  0  0  0
  -31.7508  -18.7070   24.6343 C   0  0  0  0  0  0  0  0  0  0  0  0
  -22.2374   -8.7575   20.2481 C   0  0  0  0  0  0  0  0  0  0  0  0
  -22.9671   -8.8074   22.5508 C   0  0  0  0  0  0  0  0  0  0  0  0
  -31.9327  -23.0118   21.0750 C   0  0  0  0  0  0  0  0  0  0  0  0
  -32.3823  -19.8787   25.0511 C   0  0  0  0  0  0  0  0  0  0  0  0
  -23.2152   -5.4693   22.0754 C   0  0  0  0  0  0  0  0  0  0  0  0
  -23.8056   -4.4522   22.8254 C   0  0  0  0  0  0  0  0  0  0  0  0
  -34.1556  -23.9239   20.8598 C   0  0  0  0  0  0  0  0  0  0  0  0
  -34.1297  -19.5163   23.4225 C   0  0  0  0  0  0  0  0  0  0  0  0
  -22.0848   -4.6912   24.5043 C   0  0  0  0  0  0  0  0  0  0  0  0
  -23.7489  -10.4862   20.9991 C   0  0  0  0  0  0  0  0  0  0  0  0
  -24.1304  -13.0025   20.8246 C   0  0  0  0  0  0  0  0  0  0  0  0
  -34.8921  -16.8083   15.2088 C   0  0  0  0  0  0  0  0  0  0  0  0
  -33.1053  -22.8631   18.9542 C   0  0  0  0  0  0  0  0  0  0  0  0
  -34.5943  -17.5494   16.3683 C   0  0  0  0  0  0  0  0  0  0  0  0
  -34.2029  -23.5333   19.5128 C   0  0  0  0  0  0  0  0  0  0  0  0
  -32.3088  -17.9398   23.6116 C   0  0  0  0  0  0  0  0  0  0  0  0
  -33.4982  -18.3445   23.0057 C   0  0  0  0  0  0  0  0  0  0  0  0
  -22.2200   -8.2146   21.5328 C   0  0  0  0  0  0  0  0  0  0  0  0
  -33.0272  -23.6629   21.6367 C   0  0  0  0  0  0  0  0  0  0  0  0
  -33.5717  -20.2835   24.4452 C   0  0  0  0  0  0  0  0  0  0  0  0
  -22.0595   -6.0974   22.5398 C   0  0  0  0  0  0  0  0  0  0  0  0
  -23.2404   -4.0632   24.0398 C   0  0  0  0  0  0  0  0  0  0  0  0
  -21.4943   -5.7083   23.7542 C   0  0  0  0  0  0  0  0  0  0  0  0
  -24.5392  -11.6592   20.7240 C   0  0  0  0  0  0  0  0  0  0  0  0
  -25.2384  -13.7269   20.4587 C   0  0  0  0  0  0  0  0  0  0  0  0
  -22.8624  -13.5467   21.2142 C   0  0  0  0  0  0  0  0  0  0  0  0
  -35.2040  -21.0412   17.4115 C   0  0  0  0  0  0  0  0  0  0  0  0
  -36.3076  -23.8972   16.3401 C   0  0  0  0  0  0  0  0  0  0  0  0
  -36.5802  -27.2643   16.8247 C   0  0  0  0  0  0  0  0  0  0  0  0
  -30.7339  -14.6690   20.6970 C   0  0  0  0  0  0  0  0  0  0  0  0
  -36.1875  -16.9948   14.4591 C   0  0  0  0  0  0  0  0  0  0  0  0
  -33.1184  -22.4545   17.5067 C   0  0  0  0  0  0  0  0  0  0  0  0
  -35.4386  -23.8395   18.7080 C   0  0  0  0  0  0  0  0  0  0  0  0
  -36.9001  -18.3034   14.7905 C   0  0  0  0  0  0  0  0  0  0  0  0
  -29.5919  -12.2459   18.3516 C   0  0  0  0  0  0  0  0  0  0  0  0
  -36.9378  -18.5234   16.2995 C   0  0  0  0  0  0  0  0  0  0  0  0
  -28.1446  -11.9837   18.7719 C   0  0  0  0  0  0  0  0  0  0  0  0
  -30.4964  -12.4814   19.5593 C   0  0  0  0  0  0  0  0  0  0  0  0
  -28.5879  -13.2731   20.9026 C   0  0  0  0  0  0  0  0  0  0  0  0
  -35.5213  -18.6320   16.8768 C   0  0  1  0  0  0  0  0  0  0  0  0
  -34.5272  -22.2982   16.9427 C   0  0  1  0  0  0  0  0  0  0  0  0
  -27.6267  -13.0851   19.7163 C   0  0  2  0  0  0  0  0  0  0  0  0
  -35.5077  -17.0028   22.2878 C   0  0  0  0  0  0  0  0  0  0  0  0
  -34.1946  -18.3162   20.5833 C   0  0  0  0  0  0  0  0  0  0  0  0
  -37.5721  -29.3283   15.7983 C   0  0  0  0  0  0  0  0  0  0  0  0
  -39.0687  -23.0615   17.3341 C   0  0  0  0  0  0  0  0  0  0  0  0
  -39.7787  -25.4562   17.1620 C   0  0  0  0  0  0  0  0  0  0  0  0
  -39.0642  -24.2189   15.1171 C   0  0  0  0  0  0  0  0  0  0  0  0
  -33.9205  -28.5208   16.4983 C   0  0  0  0  0  0  0  0  0  0  0  0
  -31.6144  -16.6892   23.1826 C   0  0  0  0  0  0  0  0  0  0  0  0
  -34.0096  -23.8213   25.1183 C   0  0  0  0  0  0  0  0  0  0  0  0
  -30.8159  -16.8470   21.8840 C   0  0  0  0  0  0  0  0  0  0  0  0
  -34.2388  -24.0870   23.6387 C   0  0  0  0  0  0  0  0  0  1  0  0
  -33.3580  -22.4686   25.3591 C   0  0  0  0  0  0  0  0  0  0  0  0
  -34.1147  -17.5388   21.9098 C   0  0  0  0  0  0  0  0  0  0  0  0
  -37.3279  -24.8989   16.8244 C   0  0  1  0  0  0  0  0  0  0  0  0
  -36.3423  -28.4386   15.8926 C   0  0  2  0  0  0  0  0  0  0  0  0
  -38.7875  -24.4015   16.6254 C   0  0  0  0  0  0  0  0  0  0  0  0
  -25.8079  -11.5348   20.3251 N   0  0  0  0  0  0  0  0  0  0  0  0
  -26.2057  -12.8093   20.1719 N   0  0  0  0  0  0  0  0  0  0  0  0
  -35.4057  -23.4143   17.2988 N   0  0  0  0  0  0  0  0  0  0  0  0
  -29.9498  -13.5386   20.4134 N   0  0  0  0  0  0  0  0  0  0  0  0
  -25.4698  -15.0531   20.3573 N   0  0  0  0  0  0  0  0  0  0  0  0
  -21.8325  -12.6608   21.5590 N   0  0  0  0  0  0  0  0  0  0  0  0
  -34.9657  -19.9414   16.6096 N   0  0  0  0  0  0  0  0  0  0  0  0
  -37.0254  -26.1522   16.1418 N   0  0  0  0  0  0  0  0  0  0  0  0
  -30.1378  -15.6262   21.5089 N   0  0  0  0  0  0  0  0  0  0  0  0
  -35.2014  -29.2641   16.3801 N   0  3  0  0  0  0  0  0  0  0  0  0
  -22.6440  -14.7817   21.2395 O   0  0  0  0  0  0  0  0  0  0  0  0
  -35.8925  -21.0676   18.4248 O   0  0  0  0  0  0  0  0  0  0  0  0
  -36.3062  -23.5610   15.1532 O   0  0  0  0  0  0  0  0  0  0  0  0
  -36.3935  -27.3283   18.0378 O   0  0  0  0  0  0  0  0  0  0  0  0
  -31.8782  -14.8169   20.2548 O   0  0  0  0  0  0  0  0  0  0  0  0
  -21.4740   -7.1064   21.7937 O   0  0  0  0  0  0  0  0  0  0  0  0
  -32.9945  -24.0490   22.9412 O   0  0  0  0  0  0  0  0  0  1  0  0
  -34.1926  -21.4346   24.8550 O   0  0  0  0  0  0  0  0  0  0  0  0
  -23.8067   -3.0854   24.7592 F   0  0  0  0  0  0  0  0  0  0  0  0
  -20.3835   -6.3072   24.2050 F   0  0  0  0  0  0  0  0  0  0  0  0
  1  2  1  0  0  0  0
  1  5  2  0  0  0  0
  2  6  2  0  0  0  0
  3  9  2  0  0  0  0
  3 18  1  0  0  0  0
  4 10  1  0  0  0  0
  4 18  2  0  0  0  0
  5 20  1  0  0  0  0
  6 22  1  0  0  0  0
  7 11  2  0  0  0  0
  7 21  1  0  0  0  0
  8 12  2  0  0  0  0
  8 24  1  0  0  0  0
  9 26  1  0  0  0  0
 10 26  2  0  0  0  0
 11 27  1  0  0  0  0
 12 28  1  0  0  0  0
 13 14  2  0  0  0  0
 13 29  1  0  0  0  0
 14 30  1  0  0  0  0
 15 23  1  0  0  0  0
 15 27  2  0  0  0  0
 16 25  1  0  0  0  0
 16 28  2  0  0  0  0
 17 30  2  0  0  0  0
 17 31  1  0  0  0  0
 18 32  1  0  0  0  0
 19 32  1  0  0  0  0
 19 33  2  0  0  0  0
 19 34  1  0  0  0  0
 20 22  2  0  0  0  0
 20 39  1  0  0  0  0
 21 23  2  0  0  0  0
 21 40  1  0  0  0  0
 22 48  1  0  0  0  0
 23 41  1  0  0  0  0
 24 25  2  0  0  0  0
 24 58  1  0  0  0  0
 25 63  1  0  0  0  0
 26 82  1  0  0  0  0
 27 83  1  0  0  0  0
 28 84  1  0  0  0  0
 29 31  2  0  0  0  0
 29 82  1  0  0  0  0
 30 85  1  0  0  0  0
 31 86  1  0  0  0  0
 32 67  2  0  0  0  0
 33 68  1  0  0  0  0
 33 71  1  0  0  0  0
 34 72  1  0  0  0  0
 34 77  2  0  0  0  0
 35 49  1  0  0  0  0
 35 73  1  0  0  0  0
 35 78  2  0  0  0  0
 36 64  1  0  0  0  0
 36 69  1  0  0  0  0
 36 79  2  0  0  0  0
 37 65  1  0  0  0  0
 37 74  1  0  0  0  0
 37 80  2  0  0  0  0
 38 70  1  0  0  0  0
 38 75  1  0  0  0  0
 38 81  2  0  0  0  0
 39 42  1  0  0  0  0
 40 49  1  0  0  0  0
 41 69  1  0  0  0  0
 42 44  1  0  0  0  0
 43 45  1  0  0  0  0
 43 46  1  0  0  0  0
 44 48  1  0  0  0  0
 45 50  1  0  0  0  0
 46 70  1  0  0  0  0
 47 50  1  0  0  0  0
 47 70  1  0  0  0  0
 48 73  1  0  0  0  0
 49 69  1  0  0  0  0
 50 68  1  0  0  0  0
 51 63  1  0  0  0  0
 52 63  1  0  0  0  0
 53 65  1  0  0  0  0
 54 66  1  0  0  0  0
 55 66  1  0  0  0  0
 56 66  1  0  0  0  0
 57 76  1  0  0  0  0
 58 60  1  0  0  0  0
 59 61  1  0  0  0  0
 59 62  1  0  0  0  0
 60 75  1  0  0  0  0
 61 83  1  0  0  0  0
 62 84  1  0  0  0  0
 64 66  1  0  0  0  0
 64 74  1  0  0  0  0
 65 76  1  0  0  0  0
 67 68  1  0  0  0  0
M  CHG  1  76   1
M  ISO  4  38 100  61 101  75 100  83 101
M  END
> <Batch ID>
0138

> <Smiles>
CNC(C)C(=O)NC(C(=O)N1Cc2cc([101O:1][101CH2:1]CCOc3ccc(CC[100NH:0][100C:0](=O)N4CCCC(n5nc(-c6ccc(Oc7ccc(F)cc7F)cc6)c(C(N)=O)c5N)C4)c(C(C)C)c3)ccc2CC1C(=O)NC1CCCc2ccccc21)C(C)(C)C

> <Shape>
0.169

> <Color>
0.197

> <Negative vol penalty>
0.000

$$$$

  -OEChem-04052321083D

 86 95  0     1  0  0  0  0  0999 V2000
  -28.7832  -31.9394   26.3603 C   0  0  0  0  0  0  0  0  0  0  0  0
  -28.2796  -30.6428   26.3857 C   0  0  0  0  0  0  0  0  0  0  0  0
  -23.8889  -10.9940   23.6008 C   0  0  0  0  0  0  0  0  0  0  0  0
  -24.3877   -9.4909   21.7762 C   0  0  0  0  0  0  0  0  0  0  0  0
  -28.0482  -32.9598   25.7582 C   0  0  0  0  0  0  0  0  0  0  0  0
  -27.0402  -30.3661   25.8097 C   0  0  0  0  0  0  0  0  0  0  0  0
  -27.1022  -26.1566   22.9953 C   0  0  0  0  0  0  0  0  0  0  0  0
  -28.1957  -20.9563   22.6009 C   0  0  0  0  0  0  0  0  0  0  0  0
  -23.3559   -9.9314   24.3305 C   0  0  0  0  0  0  0  0  0  0  0  0
  -23.8547   -8.4283   22.5059 C   0  0  0  0  0  0  0  0  0  0  0  0
  -27.0522  -24.9381   23.6709 C   0  0  0  0  0  0  0  0  0  0  0  0
  -27.1890  -21.8860   22.8611 C   0  0  0  0  0  0  0  0  0  0  0  0
  -20.7914   -7.2134   23.2614 C   0  0  0  0  0  0  0  0  0  0  0  0
  -19.9360   -6.3351   22.5963 C   0  0  0  0  0  0  0  0  0  0  0  0
  -24.6927  -24.7781   23.1953 C   0  0  0  0  0  0  0  0  0  0  0  0
  -27.4066  -21.4591   25.2290 C   0  0  0  0  0  0  0  0  0  0  0  0
  -21.4400   -4.5064   23.0768 C   0  0  0  0  0  0  0  0  0  0  0  0
  -24.4048  -10.7738   22.3237 C   0  0  0  0  0  0  0  0  0  0  0  0
  -24.2884  -13.0429   21.1638 C   0  0  0  0  0  0  0  0  0  0  0  0
  -26.8036  -32.6936   25.1661 C   0  0  0  0  0  0  0  0  0  0  0  0
  -25.9437  -26.7012   22.4230 C   0  0  0  0  0  0  0  0  0  0  0  0
  -26.2873  -31.3841   25.2003 C   0  0  0  0  0  0  0  0  0  0  0  0
  -28.8080  -20.2780   23.6548 C   0  0  0  0  0  0  0  0  0  0  0  0
  -24.7312  -26.0024   22.5107 C   0  0  0  0  0  0  0  0  0  0  0  0
  -28.4134  -20.5293   24.9689 C   0  0  0  0  0  0  0  0  0  0  0  0
  -23.3388   -8.6486   23.7830 C   0  0  0  0  0  0  0  0  0  0  0  0
  -25.8468  -24.2501   23.7736 C   0  0  0  0  0  0  0  0  0  0  0  0
  -26.7944  -22.1374   24.1752 C   0  0  0  0  0  0  0  0  0  1  0  0
  -21.9712   -6.7383   23.8342 C   0  0  0  0  0  0  0  0  0  0  0  0
  -20.2603   -4.9816   22.5040 C   0  0  0  0  0  0  0  0  0  0  0  0
  -22.2955   -5.3848   23.7419 C   0  0  0  0  0  0  0  0  0  0  0  0
  -24.9550  -11.8711   21.5692 C   0  0  0  0  0  0  0  0  0  0  0  0
  -25.2401  -13.7608   20.4816 C   0  0  0  0  0  0  0  0  0  0  0  0
  -22.9304  -13.4464   21.3843 C   0  0  0  0  0  0  0  0  0  0  0  0
  -24.2605  -29.3611   22.8652 C   0  0  0  0  0  0  0  0  0  0  0  0
  -22.6117  -28.2822   20.2885 C   0  0  0  0  0  0  0  0  0  0  0  0
  -21.6669  -25.6337   18.3547 C   0  0  0  0  0  0  0  0  0  0  0  0
  -31.2231  -13.8396   20.7018 C   0  0  0  0  0  0  0  0  0  0  0  0
  -26.0242  -33.8383   24.5687 C   0  0  0  0  0  0  0  0  0  0  0  0
  -26.0197  -28.0036   21.6744 C   0  0  0  0  0  0  0  0  0  0  0  0
  -23.4631  -26.5342   21.8962 C   0  0  0  0  0  0  0  0  0  0  0  0
  -24.8899  -33.3895   23.6509 C   0  0  0  0  0  0  0  0  0  0  0  0
  -29.1942  -13.1827   17.8507 C   0  0  0  0  0  0  0  0  0  0  0  0
  -24.0836  -32.2724   24.3057 C   0  0  0  0  0  0  0  0  0  0  0  0
  -27.8175  -12.8778   18.4438 C   0  0  0  0  0  0  0  0  0  0  0  0
  -30.2273  -19.0291   21.8744 C   0  0  0  0  0  0  0  0  0  0  0  0
  -30.3198  -12.6426   18.7301 C   0  0  0  0  0  0  0  0  0  0  0  0
  -28.8889  -12.7686   20.7327 C   0  0  0  0  0  0  0  0  0  0  0  0
  -31.0824  -17.7808   21.9236 C   0  0  0  0  0  0  0  0  0  0  0  0
  -29.5901  -17.8594   23.8555 C   0  0  0  0  0  0  0  0  0  0  0  0
  -29.8978  -19.2736   23.3478 C   0  0  2  0  0  0  0  0  0  0  0  0
  -24.9580  -31.0396   24.5644 C   0  0  1  0  0  0  0  0  0  0  0  0
  -24.6736  -28.7143   21.5735 C   0  0  1  0  0  0  0  0  0  0  0  0
  -27.7230  -13.3426   19.9095 C   0  0  2  0  0  0  0  0  0  0  0  0
  -29.0538  -19.8151   26.1134 C   0  0  0  0  0  0  0  0  0  0  0  0
  -20.2861  -25.0592   16.3396 C   0  0  0  0  0  0  0  0  0  0  0  0
  -32.9640  -14.0794   23.4472 C   0  0  0  0  0  0  0  0  0  0  0  0
  -20.0695  -28.5716   21.9509 C   0  0  0  0  0  0  0  0  0  0  0  0
  -18.8945  -27.1259   20.2783 C   0  0  0  0  0  0  0  0  0  0  0  0
  -19.8524  -29.3189   19.5742 C   0  0  0  0  0  0  0  0  0  0  0  0
  -24.0220  -24.5973   16.8924 C   0  0  0  0  0  0  0  0  0  0  0  0
  -31.3151  -16.0117   23.6986 C   0  0  0  0  0  0  0  0  0  0  0  0
  -21.4089  -27.3930   20.0846 C   0  0  1  0  0  0  0  0  0  0  0  0
  -21.6689  -25.4337   16.8499 C   0  0  2  0  0  0  0  0  0  0  0  0
  -31.9833  -15.0172   22.7498 C   0  0  2  0  0  0  0  0  0  0  0  0
  -20.0796  -28.0930   20.4854 C   0  0  0  0  0  0  0  0  0  0  0  0
  -26.2315  -11.8422   21.1771 N   0  0  0  0  0  0  0  0  0  0  0  0
  -26.3746  -13.0046   20.5181 N   0  0  0  0  0  0  0  0  0  0  0  0
  -23.5875  -27.8145   21.1800 N   0  0  0  0  0  0  0  0  0  0  0  0
  -30.1727  -13.1217   20.1066 N   0  0  0  0  0  0  0  0  0  0  0  0
  -25.2087  -14.9587   19.8600 N   0  0  0  0  0  0  0  0  0  0  0  0
  -22.0875  -12.5896   22.1052 N   0  0  0  0  0  0  0  0  0  0  0  0
  -25.1601  -30.2971   23.3387 N   0  0  0  0  0  0  0  0  0  0  0  0
  -21.4571  -26.9535   18.6943 N   0  0  0  0  0  0  0  0  0  0  0  0
  -30.9992  -14.2625   22.0063 N   0  0  0  0  0  0  0  0  0  0  0  0
  -30.3926  -16.9298   22.9625 N   0  3  2  0  0  0  0  0  0  0  0  0
  -22.6188  -24.3491   16.4727 N   0  3  0  0  0  0  0  0  0  0  0  0
  -22.4733  -14.5270   20.9407 O   0  0  0  0  0  0  0  0  0  0  0  0
  -23.2031  -29.0361   23.3926 O   0  0  0  0  0  0  0  0  0  0  0  0
  -22.6862  -29.3491   19.6737 O   0  0  0  0  0  0  0  0  0  0  0  0
  -21.8311  -24.7107   19.1495 O   0  0  0  0  0  0  0  0  0  0  0  0
  -32.2798  -14.0902   20.1123 O   0  0  0  0  0  0  0  0  0  0  0  0
  -22.8190   -7.6114   24.4948 O   0  0  0  0  0  0  0  0  0  0  0  0
  -25.7951  -23.0608   24.4331 O   0  0  0  0  0  0  0  0  0  1  0  0
  -19.4380   -4.1380   21.8666 F   0  0  0  0  0  0  0  0  0  0  0  0
  -23.4269   -4.9223   24.2912 F   0  0  0  0  0  0  0  0  0  0  0  0
  1  2  1  0  0  0  0
  1  5  2  0  0  0  0
  2  6  2  0  0  0  0
  3  9  2  0  0  0  0
  3 18  1  0  0  0  0
  4 10  1  0  0  0  0
  4 18  2  0  0  0  0
  5 20  1  0  0  0  0
  6 22  1  0  0  0  0
  7 11  2  0  0  0  0
  7 21  1  0  0  0  0
  8 12  2  0  0  0  0
  8 23  1  0  0  0  0
  9 26  1  0  0  0  0
 10 26  2  0  0  0  0
 11 27  1  0  0  0  0
 12 28  1  0  0  0  0
 13 14  2  0  0  0  0
 13 29  1  0  0  0  0
 14 30  1  0  0  0  0
 15 24  1  0  0  0  0
 15 27  2  0  0  0  0
 16 25  1  0  0  0  0
 16 28  2  0  0  0  0
 17 30  2  0  0  0  0
 17 31  1  0  0  0  0
 18 32  1  0  0  0  0
 19 32  1  0  0  0  0
 19 33  2  0  0  0  0
 19 34  1  0  0  0  0
 20 22  2  0  0  0  0
 20 39  1  0  0  0  0
 21 24  2  0  0  0  0
 21 40  1  0  0  0  0
 22 52  1  0  0  0  0
 23 25  2  0  0  0  0
 23 51  1  0  0  0  0
 24 41  1  0  0  0  0
 25 55  1  0  0  0  0
 26 83  1  0  0  0  0
 27 84  1  0  0  0  0
 28 84  1  0  0  0  0
 29 31  2  0  0  0  0
 29 83  1  0  0  0  0
 30 85  1  0  0  0  0
 31 86  1  0  0  0  0
 32 67  2  0  0  0  0
 33 68  1  0  0  0  0
 33 71  1  0  0  0  0
 34 72  1  0  0  0  0
 34 78  2  0  0  0  0
 35 53  1  0  0  0  0
 35 73  1  0  0  0  0
 35 79  2  0  0  0  0
 36 63  1  0  0  0  0
 36 69  1  0  0  0  0
 36 80  2  0  0  0  0
 37 64  1  0  0  0  0
 37 74  1  0  0  0  0
 37 81  2  0  0  0  0
 38 70  1  0  0  0  0
 38 75  1  0  0  0  0
 38 82  2  0  0  0  0
 39 42  1  0  0  0  0
 40 53  1  0  0  0  0
 41 69  1  0  0  0  0
 42 44  1  0  0  0  0
 43 45  1  0  0  0  0
 43 47  1  0  0  0  0
 44 52  1  0  0  0  0
 45 54  1  0  0  0  0
 46 49  1  0  0  0  0
 46 51  1  0  0  0  0
 47 70  1  0  0  0  0
 48 54  1  0  0  0  0
 48 70  1  0  0  0  0
 49 76  1  0  0  0  0
 50 51  1  0  0  0  0
 50 76  1  0  0  0  0
 52 73  1  0  0  0  0
 53 69  1  0  0  0  0
 54 68  1  0  0  0  0
 56 64  1  0  0  0  0
 57 65  1  0  0  0  0
 58 66  1  0  0  0  0
 59 66  1  0  0  0  0
 60 66  1  0  0  0  0
 61 77  1  0  0  0  0
 62 65  1  0  0  0  0
 62 76  1  0  0  0  0
 63 66  1  0  0  0  0
 63 74  1  0  0  0  0
 64 77  1  0  0  0  0
 65 75  1  0  0  0  0
 67 68  1  0  0  0  0
M  CHG  2  76   1  77   1
M  ISO  4  28 101  38 100  75 100  84 101
M  END
> <Batch ID>
0138

> <Smiles>
CNC(C)C(=O)NC(C(=O)N1Cc2cc([101O:1][101c:1]3ccc(C4CCN(CC(C)[100NH:0][100C:0](=O)N5CCCC(n6nc(-c7ccc(Oc8ccc(F)cc8F)cc7)c(C(N)=O)c6N)C5)C4)c(C)c3)ccc2CC1C(=O)NC1CCCc2ccccc21)C(C)(C)C

> <Shape>
0.267

> <Color>
0.150

> <Negative vol penalty>
0.000

$$$$

  -OEChem-04052321083D

 84 93  0     1  0  0  0  0  0999 V2000
  -30.1856  -22.0001   15.0839 C   0  0  0  0  0  0  0  0  0  0  0  0
  -29.7058  -21.8301   16.3786 C   0  0  0  0  0  0  0  0  0  0  0  0
  -28.0952  -16.9913   18.9479 C   0  0  0  0  0  0  0  0  0  0  0  0
  -27.7853  -17.6740   21.2447 C   0  0  0  0  0  0  0  0  0  0  0  0
  -30.5507  -23.2698   14.6381 C   0  0  0  0  0  0  0  0  0  0  0  0
  -29.5918  -22.9296   17.2287 C   0  0  0  0  0  0  0  0  0  0  0  0
  -25.1975  -22.9923   19.7448 C   0  0  0  0  0  0  0  0  0  0  0  0
  -28.9247  -18.0919   18.7327 C   0  0  0  0  0  0  0  0  0  0  0  0
  -28.6148  -18.7746   21.0295 C   0  0  0  0  0  0  0  0  0  0  0  0
  -25.0800  -22.1406   20.8424 C   0  0  0  0  0  0  0  0  0  0  0  0
  -31.9315  -19.3896   20.8254 C   0  0  0  0  0  0  0  0  0  0  0  0
  -32.8981  -19.6694   21.7913 C   0  0  0  0  0  0  0  0  0  0  0  0
  -25.5283  -23.9935   22.3206 C   0  0  0  0  0  0  0  0  0  0  0  0
  -21.4897  -19.8748   24.7118 C   0  0  0  0  0  0  0  0  0  0  0  0
  -31.9086  -21.8438   22.1516 C   0  0  0  0  0  0  0  0  0  0  0  0
  -22.4707  -17.8484   24.7478 C   0  0  0  0  0  0  0  0  0  0  0  0
  -27.5255  -16.7824   20.2039 C   0  0  0  0  0  0  0  0  0  0  0  0
  -27.0526  -14.3630   20.8601 C   0  0  0  0  0  0  0  0  0  0  0  0
  -30.4320  -24.3868   15.4800 C   0  0  0  0  0  0  0  0  0  0  0  0
  -25.4925  -24.3511   19.9267 C   0  0  0  0  0  0  0  0  0  0  0  0
  -29.9569  -24.2151   16.7942 C   0  0  0  0  0  0  0  0  0  0  0  0
  -25.6464  -24.8609   21.2238 C   0  0  0  0  0  0  0  0  0  0  0  0
  -22.7241  -19.1920   24.5809 C   0  0  0  0  0  0  0  0  0  0  0  0
  -29.1845  -18.9835   19.7735 C   0  0  0  0  0  0  0  0  0  0  0  0
  -25.2482  -22.6406   22.1303 C   0  0  0  0  0  0  0  0  0  0  0  0
  -30.9535  -20.3370   20.5225 C   0  0  0  0  0  0  0  0  0  0  0  0
  -32.8867  -20.8965   22.4544 C   0  0  0  0  0  0  0  0  0  0  0  0
  -30.9420  -21.5640   21.1857 C   0  0  0  0  0  0  0  0  0  0  0  0
  -26.6681  -15.6460   20.4267 C   0  0  0  0  0  0  0  0  0  0  0  0
  -20.5195  -18.9277   24.9549 C   0  0  0  0  0  0  0  0  0  0  0  0
  -25.8784  -13.6525   20.9138 C   0  0  0  0  0  0  0  0  0  0  0  0
  -28.3547  -13.8586   21.1853 C   0  0  0  0  0  0  0  0  0  0  0  0
  -27.8799  -26.2634   19.0621 C   0  0  0  0  0  0  0  0  0  0  0  0
  -25.9789  -28.5651   20.3313 C   0  0  0  0  0  0  0  0  0  0  0  0
  -23.4632  -29.3811   22.4882 C   0  0  0  0  0  0  0  0  0  0  0  0
  -20.1571  -15.2776   21.6049 C   0  0  0  0  0  0  0  0  0  0  0  0
  -30.8837  -25.7321   14.9692 C   0  0  0  0  0  0  0  0  0  0  0  0
  -25.5896  -25.2621   18.7338 C   0  0  0  0  0  0  0  0  0  0  0  0
  -25.9442  -26.3160   21.4739 C   0  0  0  0  0  0  0  0  0  0  0  0
  -30.3794  -26.9030   15.8087 C   0  0  0  0  0  0  0  0  0  0  0  0
  -21.5445  -13.4244   18.8998 C   0  0  0  0  0  0  0  0  0  0  0  0
  -30.5865  -26.6233   17.2939 C   0  0  0  0  0  0  0  0  0  0  0  0
  -23.0496  -13.6679   19.0235 C   0  0  0  0  0  0  0  0  0  0  0  0
  -24.8919  -19.3437   23.1153 C   0  0  0  0  0  0  0  0  0  0  0  0
  -20.7391  -14.6662   19.2760 C   0  0  0  0  0  0  0  0  0  0  0  0
  -22.5616  -15.4758   20.7241 C   0  0  0  0  0  0  0  0  0  0  0  0
  -24.0957  -19.8310   24.3033 C   0  0  1  0  0  0  0  0  0  0  0  0
  -29.7954  -25.3870   17.7380 C   0  0  1  0  0  0  0  0  0  0  0  0
  -26.4010  -26.5241   19.0101 C   0  0  1  0  0  0  0  0  0  0  0  0
  -23.4139  -14.2347   20.4088 C   0  0  2  0  0  0  0  0  0  0  0  0
  -24.2521  -20.6977   23.0730 C   0  0  1  0  0  0  0  0  0  1  0  0
  -18.7132  -19.9956   26.3654 C   0  0  0  0  0  0  0  0  0  0  0  0
  -22.1544  -31.3480   23.3344 C   0  0  0  0  0  0  0  0  0  0  0  0
  -28.3547  -29.4021   22.0532 C   0  0  0  0  0  0  0  0  0  0  0  0
  -26.7639  -30.6804   23.5036 C   0  0  0  0  0  0  0  0  0  0  0  0
  -27.0344  -31.3017   21.1029 C   0  0  0  0  0  0  0  0  0  0  0  0
  -20.9125  -28.2611   21.4891 C   0  0  0  0  0  0  0  0  0  0  0  0
  -20.4689  -16.4315   25.1994 C   0  0  0  0  0  0  0  0  0  0  0  0
  -19.7333  -15.9147   23.9657 C   0  0  0  0  0  0  0  0  0  0  0  0
  -19.0671  -19.0926   25.1691 C   0  0  1  0  0  0  0  0  0  0  0  0
  -25.8070  -29.1741   21.7019 C   0  0  1  0  0  0  0  0  0  0  0  0
  -22.2165  -30.2281   22.3074 C   0  0  2  0  0  0  0  0  0  0  0  0
  -26.9863  -30.1117   22.0859 C   0  0  0  0  0  0  0  0  0  0  0  0
  -25.3525  -15.7475   20.2195 N   0  0  0  0  0  0  0  0  0  0  0  0
  -21.1273  -17.6996   24.9749 N   0  0  0  0  0  0  0  0  0  0  0  0
  -24.9001  -14.5192   20.5240 N   0  0  0  0  0  0  0  0  0  0  0  0
  -26.0357  -27.1653   20.2749 N   0  0  0  0  0  0  0  0  0  0  0  0
  -21.1315  -15.1523   20.6009 N   0  0  0  0  0  0  0  0  0  0  0  0
  -25.5976  -12.3771   21.2557 N   0  0  0  0  0  0  0  0  0  0  0  0
  -29.4525  -14.7230   21.0758 N   0  0  0  0  0  0  0  0  0  0  0  0
  -28.3956  -25.7152   17.9033 N   0  0  0  0  0  0  0  0  0  0  0  0
  -24.5020  -29.8262   21.6981 N   0  0  0  0  0  0  0  0  0  0  0  0
  -20.6147  -15.7393   22.8330 N   0  0  0  0  0  0  0  0  0  0  0  0
  -18.3323  -19.6476   23.9739 N   0  3  0  0  0  0  0  0  0  0  0  0
  -20.9941  -29.3882   22.4535 N   0  3  0  0  0  0  0  0  0  0  0  0
  -28.5413  -12.6718   21.5461 O   0  0  0  0  0  0  0  0  0  0  0  0
  -28.5069  -26.5405   20.0779 O   0  0  0  0  0  0  0  0  0  0  0  0
  -26.0526  -29.3039   19.3462 O   0  0  0  0  0  0  0  0  0  0  0  0
  -23.5121  -28.4231   23.2565 O   0  0  0  0  0  0  0  0  0  0  0  0
  -18.9685  -14.9936   21.4220 O   0  0  0  0  0  0  0  0  0  0  0  0
  -29.9941  -20.0574   19.5639 O   0  0  0  0  0  0  0  0  0  0  0  0
  -25.1347  -21.8113   23.2033 O   0  0  0  0  0  0  0  0  0  1  0  0
  -33.8140  -21.1644   23.3831 F   0  0  0  0  0  0  0  0  0  0  0  0
  -30.0043  -22.4777   20.8999 F   0  0  0  0  0  0  0  0  0  0  0  0
  1  2  1  0  0  0  0
  1  5  2  0  0  0  0
  2  6  2  0  0  0  0
  3  8  2  0  0  0  0
  3 17  1  0  0  0  0
  4  9  1  0  0  0  0
  4 17  2  0  0  0  0
  5 19  1  0  0  0  0
  6 21  1  0  0  0  0
  7 10  2  0  0  0  0
  7 20  1  0  0  0  0
  8 24  1  0  0  0  0
  9 24  2  0  0  0  0
 10 25  1  0  0  0  0
 11 12  2  0  0  0  0
 11 26  1  0  0  0  0
 12 27  1  0  0  0  0
 13 22  1  0  0  0  0
 13 25  2  0  0  0  0
 14 23  1  0  0  0  0
 14 30  2  0  0  0  0
 15 27  2  0  0  0  0
 15 28  1  0  0  0  0
 16 23  2  0  0  0  0
 16 65  1  0  0  0  0
 17 29  1  0  0  0  0
 18 29  1  0  0  0  0
 18 31  2  0  0  0  0
 18 32  1  0  0  0  0
 19 21  2  0  0  0  0
 19 37  1  0  0  0  0
 20 22  2  0  0  0  0
 20 38  1  0  0  0  0
 21 48  1  0  0  0  0
 22 39  1  0  0  0  0
 23 47  1  0  0  0  0
 24 81  1  0  0  0  0
 25 82  1  0  0  0  0
 26 28  2  0  0  0  0
 26 81  1  0  0  0  0
 27 83  1  0  0  0  0
 28 84  1  0  0  0  0
 29 64  2  0  0  0  0
 30 60  1  0  0  0  0
 30 65  1  0  0  0  0
 31 66  1  0  0  0  0
 31 69  1  0  0  0  0
 32 70  1  0  0  0  0
 32 76  2  0  0  0  0
 33 49  1  0  0  0  0
 33 71  1  0  0  0  0
 33 77  2  0  0  0  0
 34 61  1  0  0  0  0
 34 67  1  0  0  0  0
 34 78  2  0  0  0  0
 35 62  1  0  0  0  0
 35 72  1  0  0  0  0
 35 79  2  0  0  0  0
 36 68  1  0  0  0  0
 36 73  1  0  0  0  0
 36 80  2  0  0  0  0
 37 40  1  0  0  0  0
 38 49  1  0  0  0  0
 39 67  1  0  0  0  0
 40 42  1  0  0  0  0
 41 43  1  0  0  0  0
 41 45  1  0  0  0  0
 42 48  1  0  0  0  0
 43 50  1  0  0  0  0
 44 47  1  0  0  0  0
 44 51  1  0  0  0  0
 45 68  1  0  0  0  0
 46 50  1  0  0  0  0
 46 68  1  0  0  0  0
 47 51  1  0  0  0  0
 48 71  1  0  0  0  0
 49 67  1  0  0  0  0
 50 66  1  0  0  0  0
 51 82  1  0  0  0  0
 52 60  1  0  0  0  0
 53 62  1  0  0  0  0
 54 63  1  0  0  0  0
 55 63  1  0  0  0  0
 56 63  1  0  0  0  0
 57 75  1  0  0  0  0
 58 59  1  0  0  0  0
 58 65  1  0  0  0  0
 59 73  1  0  0  0  0
 60 74  1  0  0  0  0
 61 63  1  0  0  0  0
 61 72  1  0  0  0  0
 62 75  1  0  0  0  0
 64 66  1  0  0  0  0
M  CHG  2  74   1  75   1
M  ISO  4  36 100  51 101  73 100  82 101
M  END
> <Batch ID>
0138

> <Smiles>
CNC(C)C(=O)NC(C(=O)N1Cc2cc([101O:1][101CH:1]3CC3c3cc(C(C)N)n(CC[100NH:0][100C:0](=O)N4CCCC(n5nc(-c6ccc(Oc7ccc(F)cc7F)cc6)c(C(N)=O)c5N)C4)c3)ccc2CC1C(=O)NC1CCCc2ccccc21)C(C)(C)C

> <Shape>
0.199

> <Color>
0.081

> <Negative vol penalty>
0.000

$$$$

  -OEChem-04052321083D

 93103  0     1  0  0  0  0  0999 V2000
  -15.9945  -25.8352   24.7562 C   0  0  0  0  0  0  0  0  0  0  0  0
  -17.2724  -25.2896   24.8252 C   0  0  0  0  0  0  0  0  0  0  0  0
  -22.9492  -10.0214   19.9406 C   0  0  0  0  0  0  0  0  0  0  0  0
  -23.9420   -9.7398   22.1251 C   0  0  0  0  0  0  0  0  0  0  0  0
  -15.5804  -26.4935   23.5990 C   0  0  0  0  0  0  0  0  0  0  0  0
  -18.1365  -25.4010   23.7365 C   0  0  0  0  0  0  0  0  0  0  0  0
  -24.2206  -26.0767   23.9196 C   0  0  0  0  0  0  0  0  0  0  0  0
  -22.1902   -8.8677   20.1368 C   0  0  0  0  0  0  0  0  0  0  0  0
  -23.1829   -8.5861   22.3214 C   0  0  0  0  0  0  0  0  0  0  0  0
  -25.2697  -25.1692   23.7796 C   0  0  0  0  0  0  0  0  0  0  0  0
  -21.7736   -5.3678   23.2522 C   0  0  0  0  0  0  0  0  0  0  0  0
  -22.4179   -4.2502   23.7827 C   0  0  0  0  0  0  0  0  0  0  0  0
  -25.4572  -25.7551   21.4470 C   0  0  0  0  0  0  0  0  0  0  0  0
  -26.6895  -20.2269   19.2952 C   0  0  0  0  0  0  0  0  0  0  0  0
  -28.5258  -19.7455   20.7895 C   0  0  0  0  0  0  0  0  0  0  0  0
  -23.9281   -4.2259   21.8970 C   0  0  0  0  0  0  0  0  0  0  0  0
  -23.8252  -10.4574   20.9347 C   0  0  0  0  0  0  0  0  0  0  0  0
  -24.2524  -12.9690   21.0653 C   0  0  0  0  0  0  0  0  0  0  0  0
  -16.4433  -26.6215   22.4992 C   0  0  0  0  0  0  0  0  0  0  0  0
  -23.7739  -26.8234   22.8199 C   0  0  0  0  0  0  0  0  0  0  0  0
  -17.7331  -26.0604   22.5630 C   0  0  0  0  0  0  0  0  0  0  0  0
  -24.4039  -26.6732   21.5763 C   0  0  0  0  0  0  0  0  0  0  0  0
  -27.1266  -19.2207   18.4337 C   0  0  0  0  0  0  0  0  0  0  0  0
  -28.2633  -18.4768   18.7502 C   0  0  0  0  0  0  0  0  0  0  0  0
  -27.3891  -20.4894   20.4730 C   0  0  0  0  0  0  0  0  0  0  0  0
  -22.3070   -8.1501   21.3272 C   0  0  0  0  0  0  0  0  0  0  0  0
  -25.8863  -25.0062   22.5425 C   0  0  0  0  0  0  0  0  0  0  0  0
  -22.2065   -5.9144   22.0441 C   0  0  0  0  0  0  0  0  0  0  0  0
  -28.9630  -18.7392   19.9281 C   0  0  0  0  0  0  0  0  0  0  0  0
  -23.4952   -3.6793   23.1051 C   0  0  0  0  0  0  0  0  0  0  0  0
  -23.2838   -5.3435   21.3665 C   0  0  0  0  0  0  0  0  0  0  0  0
  -24.6100  -11.6487   20.7324 C   0  0  0  0  0  0  0  0  0  0  0  0
  -25.3299  -13.7256   20.6741 C   0  0  0  0  0  0  0  0  0  0  0  0
  -23.0535  -13.4669   21.6738 C   0  0  0  0  0  0  0  0  0  0  0  0
  -21.0328  -27.0496   21.2265 C   0  0  0  0  0  0  0  0  0  0  0  0
  -22.5765  -29.4512   19.6864 C   0  0  0  0  0  0  0  0  0  0  0  0
  -25.5412  -30.8555   18.7457 C   0  0  0  0  0  0  0  0  0  0  0  0
  -30.8397  -14.5652   20.3869 C   0  0  0  0  0  0  0  0  0  0  0  0
  -15.9344  -27.3005   21.2523 C   0  0  0  0  0  0  0  0  0  0  0  0
  -22.6586  -27.8176   22.9937 C   0  0  0  0  0  0  0  0  0  0  0  0
  -23.9754  -27.4657   20.3693 C   0  0  0  0  0  0  0  0  0  0  0  0
  -17.0423  -27.7019   20.2819 C   0  0  0  0  0  0  0  0  0  0  0  0
  -29.3679  -12.5076   17.8815 C   0  0  0  0  0  0  0  0  0  0  0  0
  -18.0259  -26.5520   20.0894 C   0  0  0  0  0  0  0  0  0  0  0  0
  -23.9138  -18.3364   17.9056 C   0  0  0  0  0  0  0  0  0  0  0  0
  -24.0599  -17.9068   16.4725 C   0  0  0  0  0  0  0  0  0  0  0  0
  -33.0287  -17.2214   16.2114 C   0  0  0  0  0  0  0  0  0  0  0  0
  -32.8097  -16.2185   15.1132 C   0  0  0  0  0  0  0  0  0  0  0  0
  -27.9724  -12.2048   18.4302 C   0  0  0  0  0  0  0  0  0  0  0  0
  -30.4123  -12.5616   18.9943 C   0  0  0  0  0  0  0  0  0  0  0  0
  -28.6947  -13.1776   20.6508 C   0  0  0  0  0  0  0  0  0  0  0  0
  -18.7081  -26.1823   21.4121 C   0  0  1  0  0  0  0  0  0  0  0  0
  -21.9460  -28.1506   21.6865 C   0  0  1  0  0  0  0  0  0  0  0  0
  -25.2596  -17.9216   17.3786 C   0  0  0  0  0  0  0  0  0  0  0  0
  -31.7188  -17.1883   15.4740 C   0  0  0  0  0  0  0  0  0  0  0  0
  -27.5977  -13.1684   19.5724 C   0  0  2  0  0  0  0  0  0  0  0  0
  -26.4826  -32.7951   17.4615 C   0  0  0  0  0  0  0  0  0  0  0  0
  -21.8742  -28.0540   17.0664 C   0  0  0  0  0  0  0  0  0  0  0  0
  -23.6019  -29.4662   15.9310 C   0  0  0  0  0  0  0  0  0  0  0  0
  -21.6321  -30.5427   17.0190 C   0  0  0  0  0  0  0  0  0  0  0  0
  -26.9268  -31.9157   21.1364 C   0  0  0  0  0  0  0  0  0  0  0  0
  -26.3601  -18.9592   17.1787 C   0  0  0  0  0  0  0  0  0  0  0  0
  -28.7364  -17.3969   17.8304 C   0  0  0  0  0  0  0  0  0  0  0  0
  -30.4655  -16.7009   16.1676 C   0  0  0  0  0  0  0  0  0  0  0  0
  -27.6183  -21.8268   22.5669 C   0  0  0  0  0  0  0  0  0  0  0  0
  -31.1182  -16.5540   21.8450 C   0  0  0  0  0  0  0  0  0  0  0  0
  -26.8989  -22.9753   23.2541 C   0  0  0  0  0  0  0  0  0  1  0  0
  -30.3492  -17.8473   21.6423 C   0  0  0  0  0  0  0  0  0  0  0  0
  -23.4536  -29.5458   18.4614 C   0  0  1  0  0  0  0  0  0  0  0  0
  -26.0500  -32.2835   18.8267 C   0  0  2  0  0  0  0  0  0  0  0  0
  -22.6475  -29.3857   17.1415 C   0  0  0  0  0  0  0  0  0  0  0  0
  -25.8200  -11.5678   20.1726 N   0  0  0  0  0  0  0  0  0  0  0  0
  -26.2321  -12.8468   20.1507 N   0  0  0  0  0  0  0  0  0  0  0  0
  -22.8763  -28.4205   20.5884 N   0  0  0  0  0  0  0  0  0  0  0  0
  -29.9975  -13.4943   20.0449 N   0  0  0  0  0  0  0  0  0  0  0  0
  -25.5842  -15.0502   20.7301 N   0  0  0  0  0  0  0  0  0  0  0  0
  -22.0467  -12.5526   22.0127 N   0  0  0  0  0  0  0  0  0  0  0  0
  -26.9552  -21.4886   21.3284 N   0  0  0  0  0  0  0  0  0  0  0  0
  -19.7484  -27.1374   21.7285 N   0  0  0  0  0  0  0  0  0  0  0  0
  -24.1742  -30.8096   18.5719 N   0  0  0  0  0  0  0  0  0  0  0  0
  -30.3681  -15.4054   21.3881 N   0  0  0  0  0  0  0  0  0  0  0  0
  -27.2164  -32.3662   19.7507 N   0  3  0  0  0  0  0  0  0  0  0  0
  -29.9423  -17.7789   17.0478 N   0  3  0  0  0  0  0  0  0  0  0  0
  -22.8733  -14.6884   21.8951 O   0  0  0  0  0  0  0  0  0  0  0  0
  -21.4614  -26.1853   20.4709 O   0  0  0  0  0  0  0  0  0  0  0  0
  -21.6636  -30.2663   19.8410 O   0  0  0  0  0  0  0  0  0  0  0  0
  -26.2829  -29.8787   18.8248 O   0  0  0  0  0  0  0  0  0  0  0  0
  -31.9287  -14.7612   19.8368 O   0  0  0  0  0  0  0  0  0  0  0  0
  -21.5663   -7.0245   21.5191 O   0  0  0  0  0  0  0  0  0  0  0  0
  -26.9102  -24.1207   22.4030 O   0  0  0  0  0  0  0  0  0  1  0  0
  -30.0755  -18.0229   20.2538 O   0  0  0  0  0  0  0  0  0  0  0  0
  -24.1148   -2.6070   23.6154 F   0  0  0  0  0  0  0  0  0  0  0  0
  -23.7049   -5.8648   20.2060 F   0  0  0  0  0  0  0  0  0  0  0  0
  1  2  1  0  0  0  0
  1  5  2  0  0  0  0
  2  6  2  0  0  0  0
  3  8  2  0  0  0  0
  3 17  1  0  0  0  0
  4  9  1  0  0  0  0
  4 17  2  0  0  0  0
  5 19  1  0  0  0  0
  6 21  1  0  0  0  0
  7 10  2  0  0  0  0
  7 20  1  0  0  0  0
  8 26  1  0  0  0  0
  9 26  2  0  0  0  0
 10 27  1  0  0  0  0
 11 12  2  0  0  0  0
 11 28  1  0  0  0  0
 12 30  1  0  0  0  0
 13 22  1  0  0  0  0
 13 27  2  0  0  0  0
 14 23  2  0  0  0  0
 14 25  1  0  0  0  0
 15 25  2  0  0  0  0
 15 29  1  0  0  0  0
 16 30  2  0  0  0  0
 16 31  1  0  0  0  0
 17 32  1  0  0  0  0
 18 32  1  0  0  0  0
 18 33  2  0  0  0  0
 18 34  1  0  0  0  0
 19 21  2  0  0  0  0
 19 39  1  0  0  0  0
 20 22  2  0  0  0  0
 20 40  1  0  0  0  0
 21 52  1  0  0  0  0
 22 41  1  0  0  0  0
 23 24  1  0  0  0  0
 23 62  1  0  0  0  0
 24 29  2  0  0  0  0
 24 63  1  0  0  0  0
 25 78  1  0  0  0  0
 26 89  1  0  0  0  0
 27 90  1  0  0  0  0
 28 31  2  0  0  0  0
 28 89  1  0  0  0  0
 29 91  1  0  0  0  0
 30 92  1  0  0  0  0
 31 93  1  0  0  0  0
 32 72  2  0  0  0  0
 33 73  1  0  0  0  0
 33 76  1  0  0  0  0
 34 77  1  0  0  0  0
 34 84  2  0  0  0  0
 35 53  1  0  0  0  0
 35 79  1  0  0  0  0
 35 85  2  0  0  0  0
 36 69  1  0  0  0  0
 36 74  1  0  0  0  0
 36 86  2  0  0  0  0
 37 70  1  0  0  0  0
 37 80  1  0  0  0  0
 37 87  2  0  0  0  0
 38 75  1  0  0  0  0
 38 81  1  0  0  0  0
 38 88  2  0  0  0  0
 39 42  1  0  0  0  0
 40 53  1  0  0  0  0
 41 74  1  0  0  0  0
 42 44  1  0  0  0  0
 43 49  1  0  0  0  0
 43 50  1  0  0  0  0
 44 52  1  0  0  0  0
 45 46  1  0  0  0  0
 45 54  1  0  0  0  0
 46 54  1  0  0  0  0
 47 48  1  0  0  0  0
 47 55  1  0  0  0  0
 48 55  1  0  0  0  0
 49 56  1  0  0  0  0
 50 75  1  0  0  0  0
 51 56  1  0  0  0  0
 51 75  1  0  0  0  0
 52 79  1  0  0  0  0
 53 74  1  0  0  0  0
 54 62  1  0  0  0  0
 55 64  1  0  0  0  0
 56 73  1  0  0  0  0
 57 70  1  0  0  0  0
 58 71  1  0  0  0  0
 59 71  1  0  0  0  0
 60 71  1  0  0  0  0
 61 82  1  0  0  0  0
 63 83  1  0  0  0  0
 64 83  1  0  0  0  0
 65 67  1  0  0  0  0
 65 78  1  0  0  0  0
 66 68  1  0  0  0  0
 66 81  1  0  0  0  0
 67 90  1  0  0  0  0
 68 91  1  0  0  0  0
 69 71  1  0  0  0  0
 69 80  1  0  0  0  0
 70 82  1  0  0  0  0
 72 73  1  0  0  0  0
M  CHG  2  82   1  83   1
M  ISO  4  38 100  67 101  81 100  90 101
M  END
> <Batch ID>
0138

> <Smiles>
CNC(C)C(=O)NC(C(=O)N1Cc2cc([101O:1][101CH2:1]CNc3cc(CC4CC4)c(CNCC4CC4)c(OCC[100NH:0][100C:0](=O)N4CCCC(n5nc(-c6ccc(Oc7ccc(F)cc7F)cc6)c(C(N)=O)c5N)C4)c3)ccc2CC1C(=O)NC1CCCc2ccccc21)C(C)(C)C

> <Shape>
0.293

> <Color>
0.189

> <Negative vol penalty>
0.000

$$$$

  -OEChem-04052321083D

 86 95  0     1  0  0  0  0  0999 V2000
  -32.2219  -24.4335   18.3615 C   0  0  0  0  0  0  0  0  0  0  0  0
  -30.9676  -24.2051   18.9181 C   0  0  0  0  0  0  0  0  0  0  0  0
  -19.4018  -21.9571   20.5651 C   0  0  0  0  0  0  0  0  0  0  0  0
  -22.8142   -9.9518   20.0340 C   0  0  0  0  0  0  0  0  0  0  0  0
  -24.6186   -8.9634   21.3007 C   0  0  0  0  0  0  0  0  0  0  0  0
  -32.9917  -25.5107   18.7988 C   0  0  0  0  0  0  0  0  0  0  0  0
  -30.4827  -25.0531   19.9132 C   0  0  0  0  0  0  0  0  0  0  0  0
  -25.6458  -26.3552   19.1692 C   0  0  0  0  0  0  0  0  0  0  0  0
  -19.6483  -21.0512   21.5967 C   0  0  0  0  0  0  0  0  0  0  0  0
  -20.4314  -22.7686   20.0886 C   0  0  0  0  0  0  0  0  0  0  0  0
  -21.9117   -9.0742   20.6348 C   0  0  0  0  0  0  0  0  0  0  0  0
  -23.7160   -8.0858   21.9015 C   0  0  0  0  0  0  0  0  0  0  0  0
  -24.6739  -25.4145   19.5074 C   0  0  0  0  0  0  0  0  0  0  0  0
  -22.1145   -5.2199   21.0935 C   0  0  0  0  0  0  0  0  0  0  0  0
  -22.4809   -3.8773   21.1874 C   0  0  0  0  0  0  0  0  0  0  0  0
  -24.2813  -26.5759   21.5849 C   0  0  0  0  0  0  0  0  0  0  0  0
  -22.3112   -3.9994   23.5944 C   0  0  0  0  0  0  0  0  0  0  0  0
  -24.1677   -9.8963   20.3670 C   0  0  0  0  0  0  0  0  0  0  0  0
  -25.3813  -10.9238   18.3722 C   0  0  0  0  0  0  0  0  0  0  0  0
  -32.5120  -26.3779   19.7929 C   0  0  0  0  0  0  0  0  0  0  0  0
  -25.9509  -27.4089   20.0427 C   0  0  0  0  0  0  0  0  0  0  0  0
  -31.2474  -26.1420   20.3652 C   0  0  0  0  0  0  0  0  0  0  0  0
  -25.2556  -27.5301   21.2543 C   0  0  0  0  0  0  0  0  0  0  0  0
  -20.9245  -20.9568   22.1517 C   0  0  0  0  0  0  0  0  0  0  0  0
  -21.7076  -22.6742   20.6437 C   0  0  0  0  0  0  0  0  0  0  0  0
  -21.9542  -21.7683   21.6753 C   0  0  0  0  0  0  0  0  0  0  0  0
  -22.3626   -8.1412   21.5685 C   0  0  0  0  0  0  0  0  0  0  0  0
  -23.9935  -25.5231   20.7166 C   0  0  0  0  0  0  0  0  0  0  0  0
  -21.8466   -5.9523   22.2500 C   0  0  0  0  0  0  0  0  0  0  0  0
  -22.5793   -3.2670   22.4378 C   0  0  0  0  0  0  0  0  0  0  0  0
  -21.9449   -5.3420   23.5005 C   0  0  0  0  0  0  0  0  0  0  0  0
  -25.1006  -10.8022   19.7463 C   0  0  0  0  0  0  0  0  0  0  0  0
  -26.3290  -11.9155   18.3018 C   0  0  0  0  0  0  0  0  0  0  0  0
  -24.8344  -10.2046   17.2589 C   0  0  0  0  0  0  0  0  0  0  0  0
  -28.5496  -28.3307   21.6240 C   0  0  0  0  0  0  0  0  0  0  0  0
  -26.7011  -30.8829   22.3935 C   0  0  0  0  0  0  0  0  0  0  0  0
  -23.5681  -32.1737   22.7994 C   0  0  0  0  0  0  0  0  0  0  0  0
  -27.6951  -16.5118   21.8877 C   0  0  0  0  0  0  0  0  0  0  0  0
  -33.4001  -27.5011   20.2667 C   0  0  0  0  0  0  0  0  0  0  0  0
  -26.9830  -28.4306   19.6512 C   0  0  0  0  0  0  0  0  0  0  0  0
  -25.5315  -28.6543   22.2179 C   0  0  0  0  0  0  0  0  0  0  0  0
  -32.6564  -28.5724   21.0601 C   0  0  0  0  0  0  0  0  0  0  0  0
  -29.8706  -13.8970   20.8358 C   0  0  0  0  0  0  0  0  0  0  0  0
  -31.7427  -27.9296   22.0987 C   0  0  0  0  0  0  0  0  0  0  0  0
  -28.9202  -12.8183   20.3133 C   0  0  0  0  0  0  0  0  0  0  0  0
  -24.9257  -18.6145   20.6143 C   0  0  0  0  0  0  0  0  0  0  0  0
  -25.4854  -18.6157   23.0733 C   0  0  0  0  0  0  0  0  0  0  0  0
  -29.2894  -14.6226   22.0473 C   0  0  0  0  0  0  0  0  0  0  0  0
  -26.9913  -14.1075   21.3214 C   0  0  0  0  0  0  0  0  0  0  0  0
  -24.4349  -20.0516   20.7319 C   0  0  0  0  0  0  0  0  0  0  0  0
  -24.9906  -20.0523   23.1786 C   0  0  0  0  0  0  0  0  0  0  0  0
  -30.6764  -27.0542   21.4292 C   0  0  1  0  0  0  0  0  0  0  0  0
  -27.5752  -29.1701   20.8470 C   0  0  1  0  0  0  0  0  0  0  0  0
  -27.5096  -13.3860   20.0655 C   0  0  2  0  0  0  0  0  0  0  0  0
  -25.9894  -18.2965   21.6657 C   0  0  0  0  0  0  0  0  0  0  0  0
  -21.1622  -19.9783   23.2552 C   0  0  0  0  0  0  0  0  0  0  0  0
  -22.3761  -34.2770   23.4721 C   0  0  0  0  0  0  0  0  0  0  0  0
  -27.3489  -30.3112   25.3199 C   0  0  0  0  0  0  0  0  0  0  0  0
  -25.4318  -31.7886   25.9605 C   0  0  0  0  0  0  0  0  0  0  0  0
  -27.3665  -32.7344   24.7016 C   0  0  0  0  0  0  0  0  0  0  0  0
  -22.2559  -32.4128   20.1575 C   0  0  0  0  0  0  0  0  0  0  0  0
  -23.3225  -21.6671   22.2705 C   0  0  0  0  0  0  0  0  0  0  0  0
  -22.7975  -23.5583   20.1127 C   0  0  0  0  0  0  0  0  0  1  0  0
  -25.7398  -31.2085   23.5111 C   0  0  1  0  0  0  0  0  0  0  0  0
  -22.9417  -33.4687   22.3147 C   0  0  2  0  0  0  0  0  0  0  0  0
  -26.4677  -31.4883   24.8562 C   0  0  0  0  0  0  0  0  0  0  0  0
  -25.8124  -11.6489   20.4949 N   0  0  0  0  0  0  0  0  0  0  0  0
  -26.5499  -12.3120   19.5879 N   0  0  0  0  0  0  0  0  0  0  0  0
  -26.5540  -29.6245   21.7929 N   0  0  0  0  0  0  0  0  0  0  0  0
  -27.9518  -15.1381   21.7457 N   0  0  0  0  0  0  0  0  0  0  0  0
  -26.9866  -12.4783   17.2658 N   0  0  0  0  0  0  0  0  0  0  0  0
  -25.4706   -9.0255   16.8476 N   0  0  0  0  0  0  0  0  0  0  0  0
  -29.6205  -27.8764   20.8783 N   0  0  0  0  0  0  0  0  0  0  0  0
  -24.9194  -32.3164   23.0339 N   0  0  0  0  0  0  0  0  0  0  0  0
  -26.4034  -16.9177   21.5753 N   0  0  0  0  0  0  0  0  0  0  0  0
  -23.9295  -20.2978   22.1331 N   0  3  0  0  0  0  0  0  0  0  0  0
  -21.8364  -33.1827   21.3568 N   0  3  0  0  0  0  0  0  0  0  0  0
  -23.8213  -10.6048   16.6368 O   0  0  0  0  0  0  0  0  0  0  0  0
  -28.3457  -28.1128   22.8125 O   0  0  0  0  0  0  0  0  0  0  0  0
  -27.5467  -31.7171   22.0609 O   0  0  0  0  0  0  0  0  0  0  0  0
  -22.9226  -31.1400   22.9580 O   0  0  0  0  0  0  0  0  0  0  0  0
  -28.5548  -17.3176   22.2598 O   0  0  0  0  0  0  0  0  0  0  0  0
  -21.4822   -7.2849   22.1551 O   0  0  0  0  0  0  0  0  0  0  0  0
  -23.0449  -24.6059   21.0495 O   0  0  0  0  0  0  0  0  0  1  0  0
  -22.9296   -1.9773   22.5278 F   0  0  0  0  0  0  0  0  0  0  0  0
  -21.6875   -6.0401   24.6150 F   0  0  0  0  0  0  0  0  0  0  0  0
  1  2  1  0  0  0  0
  1  6  2  0  0  0  0
  2  7  2  0  0  0  0
  3  9  1  0  0  0  0
  3 10  2  0  0  0  0
  4 11  2  0  0  0  0
  4 18  1  0  0  0  0
  5 12  1  0  0  0  0
  5 18  2  0  0  0  0
  6 20  1  0  0  0  0
  7 22  1  0  0  0  0
  8 13  2  0  0  0  0
  8 21  1  0  0  0  0
  9 24  2  0  0  0  0
 10 25  1  0  0  0  0
 11 27  1  0  0  0  0
 12 27  2  0  0  0  0
 13 28  1  0  0  0  0
 14 15  2  0  0  0  0
 14 29  1  0  0  0  0
 15 30  1  0  0  0  0
 16 23  1  0  0  0  0
 16 28  2  0  0  0  0
 17 30  2  0  0  0  0
 17 31  1  0  0  0  0
 18 32  1  0  0  0  0
 19 32  1  0  0  0  0
 19 33  2  0  0  0  0
 19 34  1  0  0  0  0
 20 22  2  0  0  0  0
 20 39  1  0  0  0  0
 21 23  2  0  0  0  0
 21 40  1  0  0  0  0
 22 52  1  0  0  0  0
 23 41  1  0  0  0  0
 24 26  1  0  0  0  0
 24 56  1  0  0  0  0
 25 26  2  0  0  0  0
 25 63  1  0  0  0  0
 26 62  1  0  0  0  0
 27 83  1  0  0  0  0
 28 84  1  0  0  0  0
 29 31  2  0  0  0  0
 29 83  1  0  0  0  0
 30 85  1  0  0  0  0
 31 86  1  0  0  0  0
 32 67  2  0  0  0  0
 33 68  1  0  0  0  0
 33 71  1  0  0  0  0
 34 72  1  0  0  0  0
 34 78  2  0  0  0  0
 35 53  1  0  0  0  0
 35 73  1  0  0  0  0
 35 79  2  0  0  0  0
 36 64  1  0  0  0  0
 36 69  1  0  0  0  0
 36 80  2  0  0  0  0
 37 65  1  0  0  0  0
 37 74  1  0  0  0  0
 37 81  2  0  0  0  0
 38 70  1  0  0  0  0
 38 75  1  0  0  0  0
 38 82  2  0  0  0  0
 39 42  1  0  0  0  0
 40 53  1  0  0  0  0
 41 69  1  0  0  0  0
 42 44  1  0  0  0  0
 43 45  1  0  0  0  0
 43 48  1  0  0  0  0
 44 52  1  0  0  0  0
 45 54  1  0  0  0  0
 46 50  1  0  0  0  0
 46 55  1  0  0  0  0
 47 51  1  0  0  0  0
 47 55  1  0  0  0  0
 48 70  1  0  0  0  0
 49 54  1  0  0  0  0
 49 70  1  0  0  0  0
 50 76  1  0  0  0  0
 51 76  1  0  0  0  0
 52 73  1  0  0  0  0
 53 69  1  0  0  0  0
 54 68  1  0  0  0  0
 55 75  1  0  0  0  0
 57 65  1  0  0  0  0
 58 66  1  0  0  0  0
 59 66  1  0  0  0  0
 60 66  1  0  0  0  0
 61 77  1  0  0  0  0
 62 76  1  0  0  0  0
 63 84  1  0  0  0  0
 64 66  1  0  0  0  0
 64 74  1  0  0  0  0
 65 77  1  0  0  0  0
 67 68  1  0  0  0  0
M  CHG  2  76   1  77   1
M  ISO  4  38 100  63 101  75 100  84 101
M  END
> <Batch ID>
0138

> <Smiles>
CNC(C)C(=O)NC(C(=O)N1Cc2cc([101O:1][101CH2:1]c3cccc(C)c3CN3CCC([100NH:0][100C:0](=O)N4CCCC(n5nc(-c6ccc(Oc7ccc(F)cc7F)cc6)c(C(N)=O)c5N)C4)CC3)ccc2CC1C(=O)NC1CCCc2ccccc21)C(C)(C)C

> <Shape>
0.255

> <Color>
0.077

> <Negative vol penalty>
0.000

$$$$

  -OEChem-04052321083D

 86 94  0     1  0  0  0  0  0999 V2000
  -20.1011  -26.0951   20.3165 C   0  0  0  0  0  0  0  0  0  0  0  0
  -20.8204  -24.9044   20.3330 C   0  0  0  0  0  0  0  0  0  0  0  0
  -23.6473  -15.3998   22.5734 C   0  0  0  0  0  0  0  0  0  0  0  0
  -22.7721  -15.3461   20.3221 C   0  0  0  0  0  0  0  0  0  0  0  0
  -20.6171  -27.2109   19.6587 C   0  0  0  0  0  0  0  0  0  0  0  0
  -22.0557  -24.8285   19.6905 C   0  0  0  0  0  0  0  0  0  0  0  0
  -26.9288  -21.5661   21.4557 C   0  0  0  0  0  0  0  0  0  0  0  0
  -30.4105  -18.0055   16.5063 C   0  0  0  0  0  0  0  0  0  0  0  0
  -22.7987  -16.4641   22.8779 C   0  0  0  0  0  0  0  0  0  0  0  0
  -21.9235  -16.4104   20.6266 C   0  0  0  0  0  0  0  0  0  0  0  0
  -27.4205  -20.3240   21.0569 C   0  0  0  0  0  0  0  0  0  0  0  0
  -30.2403  -18.2242   17.8733 C   0  0  0  0  0  0  0  0  0  0  0  0
  -22.1526  -19.7693   20.9373 C   0  0  0  0  0  0  0  0  0  0  0  0
  -22.0600  -20.8094   20.0126 C   0  0  0  0  0  0  0  0  0  0  0  0
  -28.9342  -21.4198   19.5314 C   0  0  0  0  0  0  0  0  0  0  0  0
  -28.0716  -19.1998   17.4471 C   0  0  0  0  0  0  0  0  0  0  0  0
  -19.6922  -20.3904   19.7784 C   0  0  0  0  0  0  0  0  0  0  0  0
  -23.6340  -14.8408   21.2954 C   0  0  0  0  0  0  0  0  0  0  0  0
  -24.2360  -12.3681   21.1194 C   0  0  0  0  0  0  0  0  0  0  0  0
  -21.8638  -27.1514   19.0161 C   0  0  0  0  0  0  0  0  0  0  0  0
  -27.4293  -22.7459   20.8865 C   0  0  0  0  0  0  0  0  0  0  0  0
  -22.5882  -25.9441   19.0223 C   0  0  0  0  0  0  0  0  0  0  0  0
  -28.4490  -22.6757   19.9266 C   0  0  0  0  0  0  0  0  0  0  0  0
  -29.4113  -18.3839   15.6096 C   0  0  0  0  0  0  0  0  0  0  0  0
  -28.2419  -18.9811   16.0800 C   0  0  0  0  0  0  0  0  0  0  0  0
  -21.9368  -16.9694   21.9046 C   0  0  0  0  0  0  0  0  0  0  0  0
  -28.4213  -20.2505   20.0925 C   0  0  0  0  0  0  0  0  0  0  0  0
  -29.0708  -18.8214   18.3437 C   0  0  0  0  0  0  0  0  0  1  0  0
  -21.0150  -19.0396   21.2826 C   0  0  0  0  0  0  0  0  0  0  0  0
  -20.8298  -21.1199   19.4331 C   0  0  0  0  0  0  0  0  0  0  0  0
  -19.7848  -19.3502   20.7031 C   0  0  0  0  0  0  0  0  0  0  0  0
  -24.5108  -13.7417   20.9801 C   0  0  0  0  0  0  0  0  0  0  0  0
  -25.3808  -11.7435   20.6884 C   0  0  0  0  0  0  0  0  0  0  0  0
  -23.0518  -11.7151   21.5959 C   0  0  0  0  0  0  0  0  0  0  0  0
  -26.1847  -25.1080   19.1616 C   0  0  0  0  0  0  0  0  0  0  0  0
  -29.1241  -26.4221   19.5555 C   0  0  0  0  0  0  0  0  0  0  0  0
  -32.4474  -25.9543   20.1753 C   0  0  0  0  0  0  0  0  0  0  0  0
  -29.7663  -13.3891   16.9588 C   0  0  0  0  0  0  0  0  0  0  0  0
  -22.3588  -28.3698   18.2778 C   0  0  0  0  0  0  0  0  0  0  0  0
  -26.9071  -24.0792   21.3470 C   0  0  0  0  0  0  0  0  0  0  0  0
  -29.0344  -23.9137   19.2996 C   0  0  0  0  0  0  0  0  0  0  0  0
  -23.8467  -28.3150   17.9408 C   0  0  0  0  0  0  0  0  0  0  0  0
  -30.1087  -12.4002   20.3619 C   0  0  0  0  0  0  0  0  0  0  0  0
  -24.2111  -26.9557   17.3524 C   0  0  0  0  0  0  0  0  0  0  0  0
  -28.6880  -12.5080   20.9188 C   0  0  0  0  0  0  0  0  0  0  0  0
  -30.4034  -13.5051   19.3498 C   0  0  0  0  0  0  0  0  0  0  0  0
  -28.0096  -13.7177   18.8034 C   0  0  0  0  0  0  0  0  0  0  0  0
  -23.9431  -25.8295   18.3580 C   0  0  1  0  0  0  0  0  0  0  0  0
  -27.1288  -25.1922   20.3274 C   0  0  1  0  0  0  0  0  0  0  0  0
  -27.6467  -12.5916   19.7866 C   0  0  2  0  0  0  0  0  0  0  0  0
  -34.6061  -27.2144   20.3982 C   0  0  0  0  0  0  0  0  0  0  0  0
  -25.0686  -18.9142   16.1595 C   0  0  0  0  0  0  0  0  0  0  0  0
  -25.3872  -20.7363   14.4494 C   0  0  0  0  0  0  0  0  0  0  0  0
  -29.2572  -26.7258   16.5224 C   0  0  0  0  0  0  0  0  0  0  0  0
  -31.7266  -27.0792   16.7359 C   0  0  0  0  0  0  0  0  0  0  0  0
  -30.1420  -28.6810   17.8064 C   0  0  0  0  0  0  0  0  0  0  0  0
  -32.8079  -25.0712   22.9768 C   0  0  0  0  0  0  0  0  0  0  0  0
  -29.6204  -18.1377   14.1508 C   0  0  0  0  0  0  0  0  0  0  0  0
  -28.9716  -13.2785   14.6103 C   0  0  0  0  0  0  0  0  0  0  0  0
  -28.8277  -16.9538   13.5980 C   0  0  0  0  0  0  0  0  0  0  0  0
  -28.4976  -14.4886   13.8272 C   0  0  0  0  0  0  0  0  0  0  0  0
  -30.4279  -26.3722   18.7962 C   0  0  1  0  0  0  0  0  0  0  0  0
  -33.4008  -26.6471   21.1320 C   0  0  2  0  0  0  0  0  0  0  0  0
  -26.0048  -19.9860   15.6204 C   0  0  0  0  0  0  0  0  0  0  0  0
  -30.3763  -27.1910   17.4755 C   0  0  0  0  0  0  0  0  0  0  0  0
  -25.7342  -13.9766   20.4983 N   0  0  0  0  0  0  0  0  0  0  0  0
  -26.2384  -12.7421   20.3313 N   0  0  0  0  0  0  0  0  0  0  0  0
  -28.4863  -25.1935   19.7783 N   0  0  0  0  0  0  0  0  0  0  0  0
  -29.3800  -13.5297   18.3019 N   0  0  0  0  0  0  0  0  0  0  0  0
  -25.7274  -10.4430   20.5839 N   0  0  0  0  0  0  0  0  0  0  0  0
  -21.9682  -12.5074   21.9990 N   0  0  0  0  0  0  0  0  0  0  0  0
  -27.2199  -19.3710   15.1868 N   0  0  0  0  0  0  0  0  0  0  0  0
  -24.9927  -25.7802   19.3533 N   0  0  0  0  0  0  0  0  0  0  0  0
  -31.4608  -26.8084   19.7296 N   0  0  0  0  0  0  0  0  0  0  0  0
  -28.7334  -13.4170   16.0297 N   0  0  0  0  0  0  0  0  0  0  0  0
  -33.8874  -25.6879   22.1636 N   0  3  0  0  0  0  0  0  0  0  0  0
  -29.2541  -15.6955   14.2587 N   0  3  0  0  0  0  0  0  0  0  0  0
  -22.9633  -10.4665   21.6775 O   0  0  0  0  0  0  0  0  0  0  0  0
  -26.5139  -24.4808   18.1616 O   0  0  0  0  0  0  0  0  0  0  0  0
  -28.6912  -27.5102   19.9431 O   0  0  0  0  0  0  0  0  0  0  0  0
  -32.5680  -24.7746   19.8524 O   0  0  0  0  0  0  0  0  0  0  0  0
  -30.9439  -13.2437   16.6135 O   0  0  0  0  0  0  0  0  0  0  0  0
  -21.1084  -18.0078   22.2014 O   0  0  0  0  0  0  0  0  0  0  0  0
  -28.9026  -19.0393   19.7010 O   0  0  0  0  0  0  0  0  0  1  0  0
  -20.7408  -22.1198   18.5462 F   0  0  0  0  0  0  0  0  0  0  0  0
  -18.6882  -18.6536   21.0317 F   0  0  0  0  0  0  0  0  0  0  0  0
  1  2  1  0  0  0  0
  1  5  2  0  0  0  0
  2  6  2  0  0  0  0
  3  9  2  0  0  0  0
  3 18  1  0  0  0  0
  4 10  1  0  0  0  0
  4 18  2  0  0  0  0
  5 20  1  0  0  0  0
  6 22  1  0  0  0  0
  7 11  2  0  0  0  0
  7 21  1  0  0  0  0
  8 12  2  0  0  0  0
  8 24  1  0  0  0  0
  9 26  1  0  0  0  0
 10 26  2  0  0  0  0
 11 27  1  0  0  0  0
 12 28  1  0  0  0  0
 13 14  2  0  0  0  0
 13 29  1  0  0  0  0
 14 30  1  0  0  0  0
 15 23  1  0  0  0  0
 15 27  2  0  0  0  0
 16 25  1  0  0  0  0
 16 28  2  0  0  0  0
 17 30  2  0  0  0  0
 17 31  1  0  0  0  0
 18 32  1  0  0  0  0
 19 32  1  0  0  0  0
 19 33  2  0  0  0  0
 19 34  1  0  0  0  0
 20 22  2  0  0  0  0
 20 39  1  0  0  0  0
 21 23  2  0  0  0  0
 21 40  1  0  0  0  0
 22 48  1  0  0  0  0
 23 41  1  0  0  0  0
 24 25  2  0  0  0  0
 24 58  1  0  0  0  0
 25 72  1  0  0  0  0
 26 83  1  0  0  0  0
 27 84  1  0  0  0  0
 28 84  1  0  0  0  0
 29 31  2  0  0  0  0
 29 83  1  0  0  0  0
 30 85  1  0  0  0  0
 31 86  1  0  0  0  0
 32 66  2  0  0  0  0
 33 67  1  0  0  0  0
 33 70  1  0  0  0  0
 34 71  1  0  0  0  0
 34 78  2  0  0  0  0
 35 49  1  0  0  0  0
 35 73  1  0  0  0  0
 35 79  2  0  0  0  0
 36 62  1  0  0  0  0
 36 68  1  0  0  0  0
 36 80  2  0  0  0  0
 37 63  1  0  0  0  0
 37 74  1  0  0  0  0
 37 81  2  0  0  0  0
 38 69  1  0  0  0  0
 38 75  1  0  0  0  0
 38 82  2  0  0  0  0
 39 42  1  0  0  0  0
 40 49  1  0  0  0  0
 41 68  1  0  0  0  0
 42 44  1  0  0  0  0
 43 45  1  0  0  0  0
 43 46  1  0  0  0  0
 44 48  1  0  0  0  0
 45 50  1  0  0  0  0
 46 69  1  0  0  0  0
 47 50  1  0  0  0  0
 47 69  1  0  0  0  0
 48 73  1  0  0  0  0
 49 68  1  0  0  0  0
 50 67  1  0  0  0  0
 51 63  1  0  0  0  0
 52 64  1  0  0  0  0
 53 64  1  0  0  0  0
 54 65  1  0  0  0  0
 55 65  1  0  0  0  0
 56 65  1  0  0  0  0
 57 76  1  0  0  0  0
 58 60  1  0  0  0  0
 59 61  1  0  0  0  0
 59 75  1  0  0  0  0
 60 77  1  0  0  0  0
 61 77  1  0  0  0  0
 62 65  1  0  0  0  0
 62 74  1  0  0  0  0
 63 76  1  0  0  0  0
 64 72  1  0  0  0  0
 66 67  1  0  0  0  0
M  CHG  2  76   1  77   1
M  ISO  4  28 101  38 100  75 100  84 101
M  END
> <Batch ID>
0138

> <Smiles>
CNC(C)C(=O)NC(C(=O)N1Cc2cc([101O:1][101c:1]3ccc(CCNCC[100NH:0][100C:0](=O)N4CCCC(n5nc(-c6ccc(Oc7ccc(F)cc7F)cc6)c(C(N)=O)c5N)C4)c(NC(C)C)c3)ccc2CC1C(=O)NC1CCCc2ccccc21)C(C)(C)C

> <Shape>
0.191

> <Color>
0.071

> <Negative vol penalty>
0.000

$$$$

  -OEChem-04052321083D

 88 98  0     1  0  0  0  0  0999 V2000
  -34.6842  -29.7581   18.3981 C   0  0  0  0  0  0  0  0  0  0  0  0
  -33.4931  -29.0721   18.6131 C   0  0  0  0  0  0  0  0  0  0  0  0
  -25.3041  -19.6311   19.8239 C   0  0  0  0  0  0  0  0  0  0  0  0
  -24.7086   -8.7461   21.4262 C   0  0  0  0  0  0  0  0  0  0  0  0
  -23.1499  -10.5921   21.4213 C   0  0  0  0  0  0  0  0  0  0  0  0
  -35.1178  -30.7067   19.3233 C   0  0  0  0  0  0  0  0  0  0  0  0
  -32.7354  -29.3337   19.7541 C   0  0  0  0  0  0  0  0  0  0  0  0
  -27.7943  -29.7890   18.7426 C   0  0  0  0  0  0  0  0  0  0  0  0
  -23.9563   -8.1135   22.4158 C   0  0  0  0  0  0  0  0  0  0  0  0
  -22.3975   -9.9594   22.4109 C   0  0  0  0  0  0  0  0  0  0  0  0
  -27.0741  -28.6120   18.5430 C   0  0  0  0  0  0  0  0  0  0  0  0
  -21.1103   -6.2972   22.6020 C   0  0  0  0  0  0  0  0  0  0  0  0
  -20.8497   -4.9357   22.4471 C   0  0  0  0  0  0  0  0  0  0  0  0
  -25.6882  -18.3016   19.9225 C   0  0  0  0  0  0  0  0  0  0  0  0
  -25.9164  -21.9961   19.6410 C   0  0  0  0  0  0  0  0  0  0  0  0
  -26.2456  -28.7425   20.8048 C   0  0  0  0  0  0  0  0  0  0  0  0
  -28.5930  -21.2637   19.6804 C   0  0  0  0  0  0  0  0  0  0  0  0
  -21.9862   -4.4812   24.5301 C   0  0  0  0  0  0  0  0  0  0  0  0
  -26.2727  -20.6405   19.7416 C   0  0  0  0  0  0  0  0  0  0  0  0
  -24.3054   -9.9855   20.9290 C   0  0  0  0  0  0  0  0  0  0  0  0
  -24.9341  -10.5111   18.5132 C   0  0  0  0  0  0  0  0  0  0  0  0
  -34.3601  -30.9869   20.4714 C   0  0  0  0  0  0  0  0  0  0  0  0
  -27.7541  -30.4468   19.9804 C   0  0  0  0  0  0  0  0  0  0  0  0
  -33.1599  -30.2860   20.6962 C   0  0  0  0  0  0  0  0  0  0  0  0
  -26.9641  -29.9291   21.0168 C   0  0  0  0  0  0  0  0  0  0  0  0
  -28.2390  -22.6115   19.5804 C   0  0  0  0  0  0  0  0  0  0  0  0
  -27.6311  -20.2606   19.7624 C   0  0  0  0  0  0  0  0  0  0  0  0
  -22.8007   -8.7200   22.9081 C   0  0  0  0  0  0  0  0  0  0  0  0
  -26.3019  -28.0870   19.5751 C   0  0  0  0  0  0  0  0  0  0  0  0
  -21.8089   -6.7508   23.7209 C   0  0  0  0  0  0  0  0  0  0  0  0
  -26.8991  -22.9785   19.5606 C   0  0  0  0  0  0  0  0  0  0  0  0
  -21.2876   -4.0277   23.4111 C   0  0  0  0  0  0  0  0  0  0  0  0
  -22.2469   -5.8428   24.6849 C   0  0  0  0  0  0  0  0  0  0  0  0
  -25.0825  -10.6398   19.9072 C   0  0  0  0  0  0  0  0  0  0  0  0
  -27.0408  -18.0275   19.9353 C   0  0  0  0  0  0  0  0  0  0  0  0
  -25.9038  -11.3296   17.9876 C   0  0  0  0  0  0  0  0  0  0  0  0
  -24.0029   -9.7222   17.7607 C   0  0  0  0  0  0  0  0  0  0  0  0
  -29.9063  -31.1815   22.2012 C   0  0  0  0  0  0  0  0  0  0  0  0
  -27.4138  -32.7728   23.5346 C   0  0  0  0  0  0  0  0  0  0  0  0
  -24.0335  -33.1146   23.8562 C   0  0  0  0  0  0  0  0  0  0  0  0
  -28.7318  -16.1649   20.0678 C   0  0  0  0  0  0  0  0  0  0  0  0
  -34.8933  -31.9868   21.4668 C   0  0  0  0  0  0  0  0  0  0  0  0
  -28.5154  -31.7299   20.1712 C   0  0  0  0  0  0  0  0  0  0  0  0
  -26.8710  -30.6079   22.3580 C   0  0  0  0  0  0  0  0  0  0  0  0
  -33.8436  -32.4744   22.4621 C   0  0  0  0  0  0  0  0  0  0  0  0
  -30.2314  -13.1241   18.9805 C   0  0  0  0  0  0  0  0  0  0  0  0
  -33.0518  -31.2972   23.0225 C   0  0  0  0  0  0  0  0  0  0  0  0
  -30.7376  -25.2664   20.9957 C   0  0  0  0  0  0  0  0  0  0  0  0
  -29.2967  -25.5031   21.3527 C   0  0  0  0  0  0  0  0  0  0  0  0
  -29.0665  -12.1317   18.9621 C   0  0  0  0  0  0  0  0  0  0  0  0
  -30.1213  -14.1062   20.1455 C   0  0  0  0  0  0  0  0  0  0  0  0
  -27.6750  -13.8249   20.2206 C   0  0  0  0  0  0  0  0  0  0  0  0
  -32.2977  -30.5596   21.9094 C   0  0  1  0  0  0  0  0  0  0  0  0
  -28.8089  -32.0384   21.6362 C   0  0  1  0  0  0  0  0  0  0  0  0
  -29.7395  -24.1485   20.8736 C   0  0  0  0  0  0  0  0  0  0  0  0
  -27.7077  -12.8564   19.0271 C   0  0  2  0  0  0  0  0  0  0  0  0
  -22.2959  -34.4795   25.0457 C   0  0  0  0  0  0  0  0  0  0  0  0
  -27.9703  -31.2328   26.1092 C   0  0  0  0  0  0  0  0  0  0  0  0
  -25.6968  -31.9004   26.9177 C   0  0  0  0  0  0  0  0  0  0  0  0
  -27.4111  -33.6480   26.4384 C   0  0  0  0  0  0  0  0  0  0  0  0
  -22.9011  -34.1063   21.3080 C   0  0  0  0  0  0  0  0  0  0  0  0
  -29.3147  -23.6439   19.4978 C   0  0  0  0  0  0  0  0  0  0  0  0
  -25.3851  -26.1087   20.5246 C   0  0  0  0  0  0  0  0  0  1  0  0
  -25.3010  -24.6623   20.0772 C   0  0  0  0  0  0  0  0  0  0  0  0
  -26.3220  -32.4199   24.5155 C   0  0  1  0  0  0  0  0  0  0  0  0
  -23.1331  -34.3347   23.7845 C   0  0  2  0  0  0  0  0  0  0  0  0
  -26.8531  -32.2862   25.9707 C   0  0  0  0  0  0  0  0  0  0  0  0
  -28.0069  -18.9712   19.8579 N   0  0  0  0  0  0  0  0  0  0  0  0
  -26.0689  -11.4743   20.2458 N   0  0  0  0  0  0  0  0  0  0  0  0
  -26.5491  -11.8772   19.0571 N   0  0  0  0  0  0  0  0  0  0  0  0
  -27.6388  -31.8564   22.4975 N   0  0  0  0  0  0  0  0  0  0  0  0
  -28.8099  -14.7580   20.1405 N   0  0  0  0  0  0  0  0  0  0  0  0
  -26.2589  -11.6270   16.7196 N   0  0  0  0  0  0  0  0  0  0  0  0
  -23.0739   -8.9386   18.4587 N   0  0  0  0  0  0  0  0  0  0  0  0
  -27.4322  -16.6695   20.0370 N   0  0  0  0  0  0  0  0  0  0  0  0
  -31.1096  -31.2943   21.5312 N   0  0  0  0  0  0  0  0  0  0  0  0
  -25.2820  -33.4295   24.3494 N   0  0  0  0  0  0  0  0  0  0  0  0
  -22.2115  -34.2304   22.6180 N   0  3  0  0  0  0  0  0  0  0  0  0
  -24.0056   -9.6998   16.5065 O   0  0  0  0  0  0  0  0  0  0  0  0
  -29.6786  -30.4718   23.1739 O   0  0  0  0  0  0  0  0  0  0  0  0
  -28.0392  -33.8262   23.6790 O   0  0  0  0  0  0  0  0  0  0  0  0
  -23.6649  -31.9936   23.5127 O   0  0  0  0  0  0  0  0  0  0  0  0
  -29.7433  -16.8687   20.0077 O   0  0  0  0  0  0  0  0  0  0  0  0
  -22.0662   -8.1028   23.8736 O   0  0  0  0  0  0  0  0  0  0  0  0
  -25.5985  -26.9380   19.3831 O   0  0  0  0  0  0  0  0  0  1  0  0
  -26.5295  -24.2941   19.4619 O   0  0  0  0  0  0  0  0  0  0  0  0
  -21.0359   -2.7205   23.2630 F   0  0  0  0  0  0  0  0  0  0  0  0
  -22.9175   -6.2726   25.7626 F   0  0  0  0  0  0  0  0  0  0  0  0
  1  2  1  0  0  0  0
  1  6  2  0  0  0  0
  2  7  2  0  0  0  0
  3 14  2  0  0  0  0
  3 19  1  0  0  0  0
  4  9  2  0  0  0  0
  4 20  1  0  0  0  0
  5 10  1  0  0  0  0
  5 20  2  0  0  0  0
  6 22  1  0  0  0  0
  7 24  1  0  0  0  0
  8 11  2  0  0  0  0
  8 23  1  0  0  0  0
  9 28  1  0  0  0  0
 10 28  2  0  0  0  0
 11 29  1  0  0  0  0
 12 13  2  0  0  0  0
 12 30  1  0  0  0  0
 13 32  1  0  0  0  0
 14 35  1  0  0  0  0
 15 19  2  0  0  0  0
 15 31  1  0  0  0  0
 16 25  1  0  0  0  0
 16 29  2  0  0  0  0
 17 26  1  0  0  0  0
 17 27  2  0  0  0  0
 18 32  2  0  0  0  0
 18 33  1  0  0  0  0
 19 27  1  0  0  0  0
 20 34  1  0  0  0  0
 21 34  1  0  0  0  0
 21 36  2  0  0  0  0
 21 37  1  0  0  0  0
 22 24  2  0  0  0  0
 22 42  1  0  0  0  0
 23 25  2  0  0  0  0
 23 43  1  0  0  0  0
 24 53  1  0  0  0  0
 25 44  1  0  0  0  0
 26 31  2  0  0  0  0
 26 62  1  0  0  0  0
 27 68  1  0  0  0  0
 28 84  1  0  0  0  0
 29 85  1  0  0  0  0
 30 33  2  0  0  0  0
 30 84  1  0  0  0  0
 31 86  1  0  0  0  0
 32 87  1  0  0  0  0
 33 88  1  0  0  0  0
 34 69  2  0  0  0  0
 35 68  2  0  0  0  0
 35 75  1  0  0  0  0
 36 70  1  0  0  0  0
 36 73  1  0  0  0  0
 37 74  1  0  0  0  0
 37 79  2  0  0  0  0
 38 54  1  0  0  0  0
 38 76  1  0  0  0  0
 38 80  2  0  0  0  0
 39 65  1  0  0  0  0
 39 71  1  0  0  0  0
 39 81  2  0  0  0  0
 40 66  1  0  0  0  0
 40 77  1  0  0  0  0
 40 82  2  0  0  0  0
 41 72  1  0  0  0  0
 41 75  1  0  0  0  0
 41 83  2  0  0  0  0
 42 45  1  0  0  0  0
 43 54  1  0  0  0  0
 44 71  1  0  0  0  0
 45 47  1  0  0  0  0
 46 50  1  0  0  0  0
 46 51  1  0  0  0  0
 47 53  1  0  0  0  0
 48 49  1  0  0  0  0
 48 55  1  0  0  0  0
 49 55  1  0  0  0  0
 50 56  1  0  0  0  0
 51 72  1  0  0  0  0
 52 56  1  0  0  0  0
 52 72  1  0  0  0  0
 53 76  1  0  0  0  0
 54 71  1  0  0  0  0
 55 62  1  0  0  0  0
 56 70  1  0  0  0  0
 57 66  1  0  0  0  0
 58 67  1  0  0  0  0
 59 67  1  0  0  0  0
 60 67  1  0  0  0  0
 61 78  1  0  0  0  0
 63 64  1  0  0  0  0
 63 85  1  0  0  0  0
 64 86  1  0  0  0  0
 65 67  1  0  0  0  0
 65 77  1  0  0  0  0
 66 78  1  0  0  0  0
 69 70  1  0  0  0  0
M  CHG  1  78   1
M  ISO  4  41 100  63 101  75 100  85 101
M  END
> <Batch ID>
0138

> <Smiles>
CNC(C)C(=O)NC(C(=O)N1Cc2cc([101O:1][101CH2:1]COc3cc4ccc([100NH:0][100C:0](=O)N5CCCC(n6nc(-c7ccc(Oc8ccc(F)cc8F)cc7)c(C(N)=O)c6N)C5)nc4cc3CC3CC3)ccc2CC1C(=O)NC1CCCc2ccccc21)C(C)(C)C

> <Shape>
0.258

> <Color>
0.101

> <Negative vol penalty>
0.000

$$$$

  -OEChem-04052321083D

 80 88  0     1  0  0  0  0  0999 V2000
  -21.9495  -27.0374   12.3636 C   0  0  0  0  0  0  0  0  0  0  0  0
  -22.6778  -26.4084   13.3683 C   0  0  0  0  0  0  0  0  0  0  0  0
  -23.0715   -9.8724   19.9433 C   0  0  0  0  0  0  0  0  0  0  0  0
  -23.8340   -9.8795   22.2358 C   0  0  0  0  0  0  0  0  0  0  0  0
  -21.0408  -28.0437   12.6886 C   0  0  0  0  0  0  0  0  0  0  0  0
  -22.4986  -26.7862   14.6986 C   0  0  0  0  0  0  0  0  0  0  0  0
  -22.1224  -22.8112   17.8134 C   0  0  0  0  0  0  0  0  0  0  0  0
  -22.3274   -8.7197   20.1943 C   0  0  0  0  0  0  0  0  0  0  0  0
  -23.0899   -8.7267   22.4868 C   0  0  0  0  0  0  0  0  0  0  0  0
  -23.3058  -22.1630   18.1644 C   0  0  0  0  0  0  0  0  0  0  0  0
  -19.3804   -7.9247   21.6491 C   0  0  0  0  0  0  0  0  0  0  0  0
  -18.0730   -7.8790   21.1654 C   0  0  0  0  0  0  0  0  0  0  0  0
  -23.3200  -23.3416   20.2691 C   0  0  0  0  0  0  0  0  0  0  0  0
  -18.6302   -5.9355   19.8428 C   0  0  0  0  0  0  0  0  0  0  0  0
  -23.8249  -10.4523   20.9640 C   0  0  0  0  0  0  0  0  0  0  0  0
  -24.1678  -12.9773   20.8432 C   0  0  0  0  0  0  0  0  0  0  0  0
  -20.8434  -28.4274   14.0244 C   0  0  0  0  0  0  0  0  0  0  0  0
  -21.5337  -23.7391   18.6845 C   0  0  0  0  0  0  0  0  0  0  0  0
  -21.5875  -27.7996   15.0416 C   0  0  0  0  0  0  0  0  0  0  0  0
  -22.1277  -23.9982   19.9279 C   0  0  0  0  0  0  0  0  0  0  0  0
  -22.3365   -8.1468   21.4661 C   0  0  0  0  0  0  0  0  0  0  0  0
  -23.9063  -22.4303   19.3911 C   0  0  0  0  0  0  0  0  0  0  0  0
  -20.3129   -6.9759   21.2297 C   0  0  0  0  0  0  0  0  0  0  0  0
  -17.6978   -6.8844   20.2623 C   0  0  0  0  0  0  0  0  0  0  0  0
  -19.9378   -5.9812   20.3266 C   0  0  0  0  0  0  0  0  0  0  0  0
  -24.5942  -11.6428   20.7052 C   0  0  0  0  0  0  0  0  0  0  0  0
  -25.2598  -13.7262   20.4785 C   0  0  0  0  0  0  0  0  0  0  0  0
  -22.8980  -13.4938   21.2635 C   0  0  0  0  0  0  0  0  0  0  0  0
  -20.8623  -26.8424   18.5360 C   0  0  0  0  0  0  0  0  0  0  0  0
  -19.4130  -26.2673   21.3805 C   0  0  0  0  0  0  0  0  0  0  0  0
  -19.1800  -24.3171   24.1714 C   0  0  0  0  0  0  0  0  0  0  0  0
  -30.7443  -14.7427   20.6604 C   0  0  0  0  0  0  0  0  0  0  0  0
  -19.8848  -29.5530   14.3223 C   0  0  0  0  0  0  0  0  0  0  0  0
  -20.2428  -24.4098   18.3024 C   0  0  0  0  0  0  0  0  0  0  0  0
  -21.5249  -24.9706   20.9075 C   0  0  0  0  0  0  0  0  0  0  0  0
  -19.4800  -29.6355   15.7919 C   0  0  0  0  0  0  0  0  0  0  0  0
  -29.6028  -12.3583   18.2753 C   0  0  0  0  0  0  0  0  0  0  0  0
  -20.7066  -29.5170   16.6909 C   0  0  0  0  0  0  0  0  0  0  0  0
  -28.1657  -12.0653   18.7100 C   0  0  0  0  0  0  0  0  0  0  0  0
  -26.7545  -19.1173   18.7317 C   0  0  0  0  0  0  0  0  0  0  0  0
  -25.6031  -19.9990   18.2356 C   0  0  0  0  0  0  0  0  0  0  0  0
  -27.3765  -21.3753   19.1901 C   0  0  0  0  0  0  0  0  0  0  0  0
  -30.5214  -12.5789   19.4751 C   0  0  0  0  0  0  0  0  0  0  0  0
  -28.6216  -13.3111   20.8638 C   0  0  0  0  0  0  0  0  0  0  0  0
  -21.4030  -28.1644   16.4987 C   0  0  1  0  0  0  0  0  0  0  0  0
  -20.0060  -25.7192   19.0487 C   0  0  1  0  0  0  0  0  0  0  0  0
  -27.6460  -13.1368   19.6873 C   0  0  2  0  0  0  0  0  0  0  0  0
  -27.4600  -19.9726   19.7695 C   0  0  2  0  0  0  0  0  0  0  0  0
  -25.9393  -21.4291   18.6766 C   0  0  2  0  0  0  0  0  0  1  0  0
  -17.9285  -24.1194   26.3375 C   0  0  0  0  0  0  0  0  0  0  0  0
  -21.0742  -28.5461   22.5455 C   0  0  0  0  0  0  0  0  0  0  0  0
  -20.5125  -27.6939   24.8316 C   0  0  0  0  0  0  0  0  0  0  0  0
  -18.6961  -28.4882   23.3175 C   0  0  0  0  0  0  0  0  0  0  0  0
  -18.0830  -21.6703   23.4299 C   0  0  0  0  0  0  0  0  0  0  0  0
  -30.5304  -18.0442   20.9370 C   0  0  0  0  0  0  0  0  0  0  0  0
  -30.8126  -16.8934   21.8968 C   0  0  0  0  0  0  0  0  0  0  0  0
  -29.0480  -18.3883   20.8682 C   0  0  0  0  0  0  0  0  0  0  0  0
  -19.8475  -26.2916   22.8260 C   0  0  1  0  0  0  0  0  0  0  0  0
  -17.9825  -23.7049   24.8753 C   0  0  2  0  0  0  0  0  0  0  0  0
  -20.0452  -27.7380   23.3611 C   0  0  0  0  0  0  0  0  0  0  0  0
  -25.8586  -11.5463   20.2855 N   0  0  0  0  0  0  0  0  0  0  0  0
  -26.2359  -12.8297   20.1565 N   0  0  0  0  0  0  0  0  0  0  0  0
  -20.2656  -25.6058   20.4853 N   0  0  0  0  0  0  0  0  0  0  0  0
  -29.9724  -13.6078   20.3616 N   0  0  0  0  0  0  0  0  0  0  0  0
  -25.4708  -15.0575   20.4050 N   0  0  0  0  0  0  0  0  0  0  0  0
  -21.8860  -12.5851   21.6021 N   0  0  0  0  0  0  0  0  0  0  0  0
  -20.6812  -27.1209   17.1947 N   0  0  0  0  0  0  0  0  0  0  0  0
  -18.8587  -25.5119   23.5627 N   0  0  0  0  0  0  0  0  0  0  0  0
  -30.1465  -15.6719   21.5029 N   0  0  0  0  0  0  0  0  0  0  0  0
  -28.8597  -19.5500   19.9500 N   0  3  0  0  0  0  0  0  0  0  0  0
  -18.0483  -22.2174   24.8106 N   0  3  0  0  0  0  0  0  0  0  0  0
  -22.6624  -14.7245   21.3209 O   0  0  0  0  0  0  0  0  0  0  0  0
  -21.6294  -27.4151   19.3011 O   0  0  0  0  0  0  0  0  0  0  0  0
  -18.3524  -26.8088   21.0586 O   0  0  0  0  0  0  0  0  0  0  0  0
  -20.2904  -23.7902   24.1656 O   0  0  0  0  0  0  0  0  0  0  0  0
  -31.8798  -14.9176   20.2054 O   0  0  0  0  0  0  0  0  0  0  0  0
  -21.6103   -7.0221   21.7114 O   0  0  0  0  0  0  0  0  0  0  0  0
  -25.0618  -21.7996   19.7359 O   0  0  0  0  0  0  0  0  0  1  0  0
  -16.4418   -6.8397   19.7990 F   0  0  0  0  0  0  0  0  0  0  0  0
  -20.8288   -5.0662   19.9209 F   0  0  0  0  0  0  0  0  0  0  0  0
  1  2  1  0  0  0  0
  1  5  2  0  0  0  0
  2  6  2  0  0  0  0
  3  8  2  0  0  0  0
  3 15  1  0  0  0  0
  4  9  1  0  0  0  0
  4 15  2  0  0  0  0
  5 17  1  0  0  0  0
  6 19  1  0  0  0  0
  7 10  2  0  0  0  0
  7 18  1  0  0  0  0
  8 21  1  0  0  0  0
  9 21  2  0  0  0  0
 10 22  1  0  0  0  0
 11 12  2  0  0  0  0
 11 23  1  0  0  0  0
 12 24  1  0  0  0  0
 13 20  1  0  0  0  0
 13 22  2  0  0  0  0
 14 24  2  0  0  0  0
 14 25  1  0  0  0  0
 15 26  1  0  0  0  0
 16 26  1  0  0  0  0
 16 27  2  0  0  0  0
 16 28  1  0  0  0  0
 17 19  2  0  0  0  0
 17 33  1  0  0  0  0
 18 20  2  0  0  0  0
 18 34  1  0  0  0  0
 19 45  1  0  0  0  0
 20 35  1  0  0  0  0
 21 77  1  0  0  0  0
 22 78  1  0  0  0  0
 23 25  2  0  0  0  0
 23 77  1  0  0  0  0
 24 79  1  0  0  0  0
 25 80  1  0  0  0  0
 26 61  2  0  0  0  0
 27 62  1  0  0  0  0
 27 65  1  0  0  0  0
 28 66  1  0  0  0  0
 28 72  2  0  0  0  0
 29 46  1  0  0  0  0
 29 67  1  0  0  0  0
 29 73  2  0  0  0  0
 30 58  1  0  0  0  0
 30 63  1  0  0  0  0
 30 74  2  0  0  0  0
 31 59  1  0  0  0  0
 31 68  1  0  0  0  0
 31 75  2  0  0  0  0
 32 64  1  0  0  0  0
 32 69  1  0  0  0  0
 32 76  2  0  0  0  0
 33 36  1  0  0  0  0
 34 46  1  0  0  0  0
 35 63  1  0  0  0  0
 36 38  1  0  0  0  0
 37 39  1  0  0  0  0
 37 43  1  0  0  0  0
 38 45  1  0  0  0  0
 39 47  1  0  0  0  0
 40 41  1  0  0  0  0
 40 48  1  0  0  0  0
 41 49  1  0  0  0  0
 42 48  1  0  0  0  0
 42 49  1  0  0  0  0
 43 64  1  0  0  0  0
 44 47  1  0  0  0  0
 44 64  1  0  0  0  0
 45 67  1  0  0  0  0
 46 63  1  0  0  0  0
 47 62  1  0  0  0  0
 48 70  1  0  0  0  0
 49 78  1  0  0  0  0
 50 59  1  0  0  0  0
 51 60  1  0  0  0  0
 52 60  1  0  0  0  0
 53 60  1  0  0  0  0
 54 71  1  0  0  0  0
 55 56  1  0  0  0  0
 55 57  1  0  0  0  0
 56 69  1  0  0  0  0
 57 70  1  0  0  0  0
 58 60  1  0  0  0  0
 58 68  1  0  0  0  0
 59 71  1  0  0  0  0
 61 62  1  0  0  0  0
M  CHG  2  70   1  71   1
M  ISO  4  32 100  49 101  69 100  78 101
M  END
> <Batch ID>
0138

> <Smiles>
CNC(C)C(=O)NC(C(=O)N1Cc2cc([101O:1][101CH:1]3CCC(NCCC[100NH:0][100C:0](=O)N4CCCC(n5nc(-c6ccc(Oc7ccc(F)cc7F)cc6)c(C(N)=O)c5N)C4)C3)ccc2CC1C(=O)NC1CCCc2ccccc21)C(C)(C)C

> <Shape>
0.228

> <Color>
0.191

> <Negative vol penalty>
0.000

$$$$

  -OEChem-04052321083D

 89 98  0     1  0  0  0  0  0999 V2000
  -27.2660  -17.8737   14.3644 C   0  0  0  0  0  0  0  0  0  0  0  0
  -27.4055  -16.5810   14.8567 C   0  0  0  0  0  0  0  0  0  0  0  0
  -27.7597  -26.1158   19.7738 C   0  0  0  0  0  0  0  0  0  0  0  0
  -25.9404  -24.7298   18.9954 C   0  0  0  0  0  0  0  0  0  0  0  0
  -26.7578  -18.8774   15.1864 C   0  0  0  0  0  0  0  0  0  0  0  0
  -27.0259  -16.2888   16.1671 C   0  0  0  0  0  0  0  0  0  0  0  0
  -27.5150  -11.1327   19.3769 C   0  0  0  0  0  0  0  0  0  0  0  0
  -26.9691  -27.2516   19.5994 C   0  0  0  0  0  0  0  0  0  0  0  0
  -25.1497  -25.8656   18.8209 C   0  0  0  0  0  0  0  0  0  0  0  0
  -28.4334  -10.5443   20.2452 C   0  0  0  0  0  0  0  0  0  0  0  0
  -25.3082  -30.4837   19.7010 C   0  0  0  0  0  0  0  0  0  0  0  0
  -25.3076  -31.4362   20.7199 C   0  0  0  0  0  0  0  0  0  0  0  0
  -27.1825  -11.3854   22.1286 C   0  0  0  0  0  0  0  0  0  0  0  0
  -32.2831  -15.3566   19.6797 C   0  0  0  0  0  0  0  0  0  0  0  0
  -30.0495  -15.7402   20.5167 C   0  0  0  0  0  0  0  0  0  0  0  0
  -24.4715  -29.7801   22.2676 C   0  0  0  0  0  0  0  0  0  0  0  0
  -27.2454  -24.8549   19.4718 C   0  0  0  0  0  0  0  0  0  0  0  0
  -28.1690  -22.8894   20.8102 C   0  0  0  0  0  0  0  0  0  0  0  0
  -26.3836  -18.5992   16.5114 C   0  0  0  0  0  0  0  0  0  0  0  0
  -26.4276  -11.8623   19.8786 C   0  0  0  0  0  0  0  0  0  0  0  0
  -26.4885  -17.2829   17.0049 C   0  0  0  0  0  0  0  0  0  0  0  0
  -26.2503  -11.9799   21.2645 C   0  0  0  0  0  0  0  0  0  0  0  0
  -30.9473  -15.6863   19.4505 C   0  0  0  0  0  0  0  0  0  0  0  0
  -32.7211  -15.0807   20.9750 C   0  0  0  0  0  0  0  0  0  0  0  0
  -30.4875  -15.4643   21.8120 C   0  0  0  0  0  0  0  0  0  0  0  0
  -31.8233  -15.1346   22.0411 C   0  0  0  0  0  0  0  0  0  0  0  0
  -25.6641  -27.1265   19.1229 C   0  0  0  0  0  0  0  0  0  0  0  0
  -28.2688  -10.6730   21.6212 C   0  0  0  0  0  0  0  0  0  0  0  0
  -24.8904  -29.1793   19.9653 C   0  0  0  0  0  0  0  0  0  0  0  0
  -24.8893  -31.0844   22.0033 C   0  0  0  0  0  0  0  0  0  0  0  0
  -24.4720  -28.8275   21.2486 C   0  0  0  0  0  0  0  0  0  0  0  0
  -28.0618  -23.6813   19.6513 C   0  0  0  0  0  0  0  0  0  0  0  0
  -29.0637  -21.9039   20.4712 C   0  0  0  0  0  0  0  0  0  0  0  0
  -27.5179  -23.0318   22.0797 C   0  0  0  0  0  0  0  0  0  0  0  0
  -25.4590  -14.8817   19.6577 C   0  0  0  0  0  0  0  0  0  0  0  0
  -22.8631  -13.7563   21.2443 C   0  0  0  0  0  0  0  0  0  0  0  0
  -21.5333  -11.3913   23.3143 C   0  0  0  0  0  0  0  0  0  0  0  0
  -30.9751  -18.0961   16.8667 C   0  0  0  0  0  0  0  0  0  0  0  0
  -25.8321  -19.7216   17.3549 C   0  0  0  0  0  0  0  0  0  0  0  0
  -25.4309  -12.4684   18.9289 C   0  0  0  0  0  0  0  0  0  0  0  0
  -25.0885  -12.7357   21.8540 C   0  0  0  0  0  0  0  0  0  0  0  0
  -25.8754  -19.4189   18.8491 C   0  0  0  0  0  0  0  0  0  0  0  0
  -32.0929  -21.4503   16.4458 C   0  0  0  0  0  0  0  0  0  0  0  0
  -25.2818  -18.0442   19.1184 C   0  0  0  0  0  0  0  0  0  0  0  0
  -31.1490  -22.2644   17.3325 C   0  0  0  0  0  0  0  0  0  0  0  0
  -32.4550  -11.6051   24.9213 C   0  0  0  0  0  0  0  0  0  0  0  0
  -31.3709  -20.2840   15.7745 C   0  0  0  0  0  0  0  0  0  0  0  0
  -29.6993  -20.2067   17.5837 C   0  0  0  0  0  0  0  0  0  0  0  0
  -32.3020  -13.0794   25.2554 C   0  0  0  0  0  0  0  0  0  0  0  0
  -31.2929  -12.5513   23.0910 C   0  0  0  0  0  0  0  0  0  0  0  0
  -26.1108  -16.9483   18.4366 C   0  0  1  0  0  0  0  0  0  0  0  0
  -24.6460  -13.6233   19.5434 C   0  0  1  0  0  0  0  0  0  0  0  0
  -31.2911  -11.3212   23.9832 C   0  0  1  0  0  0  0  0  0  0  0  0
  -30.3944  -21.3608   18.3262 C   0  0  2  0  0  0  0  0  0  0  0  0
  -34.1570  -14.7313   21.1936 C   0  0  0  0  0  0  0  0  0  0  0  0
  -29.5061  -15.5289   22.9365 C   0  0  0  0  0  0  0  0  0  0  0  0
  -19.3948  -10.7578   24.4645 C   0  0  0  0  0  0  0  0  0  0  0  0
  -23.3156  -15.9672   23.2979 C   0  0  0  0  0  0  0  0  0  0  0  0
  -21.7985  -14.7312   24.8596 C   0  0  0  0  0  0  0  0  0  0  0  0
  -20.9208  -15.5855   22.6865 C   0  0  0  0  0  0  0  0  0  0  0  0
  -21.3962   -8.8028   21.8861 C   0  0  0  0  0  0  0  0  0  0  0  0
  -30.4789  -15.9806   18.0656 C   0  0  0  0  0  0  0  0  0  0  0  0
  -32.2948  -14.8382   23.4343 C   0  0  0  0  0  0  0  0  0  0  0  0
  -30.5083   -9.9729   22.0091 C   0  0  0  0  0  0  0  0  0  1  0  0
  -22.4836  -13.5981   22.6969 C   0  0  1  0  0  0  0  0  0  0  0  0
  -20.2553  -10.5770   23.2237 C   0  0  2  0  0  0  0  0  0  0  0  0
  -31.4477  -10.0253   23.2077 C   0  0  2  0  0  0  0  0  0  0  0  0
  -22.1527  -14.9578   23.3744 C   0  0  0  0  0  0  0  0  0  0  0  0
  -28.8274  -23.2374   18.6509 N   0  0  0  0  0  0  0  0  0  0  0  0
  -29.4242  -22.1559   19.1802 N   0  0  0  0  0  0  0  0  0  0  0  0
  -24.1446  -13.3156   20.8843 N   0  0  0  0  0  0  0  0  0  0  0  0
  -30.6770  -19.4655   16.7717 N   0  0  0  0  0  0  0  0  0  0  0  0
  -29.5693  -20.8552   21.1545 N   0  0  0  0  0  0  0  0  0  0  0  0
  -26.6285  -24.1001   22.2584 N   0  0  0  0  0  0  0  0  0  0  0  0
  -25.4047  -15.6902   18.5384 N   0  0  0  0  0  0  0  0  0  0  0  0
  -21.3908  -12.6322   22.7304 N   0  0  0  0  0  0  0  0  0  0  0  0
  -30.2772  -17.3949   17.8423 N   0  0  0  0  0  0  0  0  0  0  0  0
  -31.5863  -13.6792   24.0583 N   0  3  2  0  0  0  0  0  0  0  0  0
  -20.5734   -9.1282   23.0794 N   0  3  0  0  0  0  0  0  0  0  0  0
  -27.7314  -22.2447   23.0329 O   0  0  0  0  0  0  0  0  0  0  0  0
  -26.0877  -15.1036   20.6859 O   0  0  0  0  0  0  0  0  0  0  0  0
  -22.0499  -14.2460   20.4567 O   0  0  0  0  0  0  0  0  0  0  0  0
  -22.5547  -10.9701   23.8529 O   0  0  0  0  0  0  0  0  0  0  0  0
  -31.8059  -17.5408   16.1398 O   0  0  0  0  0  0  0  0  0  0  0  0
  -31.1435   -8.9464   24.0905 O   0  0  0  0  0  0  0  0  0  0  0  0
  -24.8922  -28.2346   18.9528 O   0  0  0  0  0  0  0  0  0  0  0  0
  -29.1642  -10.1002   22.4710 O   0  0  0  0  0  0  0  0  0  1  0  0
  -24.8903  -31.9988   22.9820 F   0  0  0  0  0  0  0  0  0  0  0  0
  -24.0707  -27.5758   21.5089 F   0  0  0  0  0  0  0  0  0  0  0  0
  1  2  1  0  0  0  0
  1  5  2  0  0  0  0
  2  6  2  0  0  0  0
  3  8  2  0  0  0  0
  3 17  1  0  0  0  0
  4  9  1  0  0  0  0
  4 17  2  0  0  0  0
  5 19  1  0  0  0  0
  6 21  1  0  0  0  0
  7 10  2  0  0  0  0
  7 20  1  0  0  0  0
  8 27  1  0  0  0  0
  9 27  2  0  0  0  0
 10 28  1  0  0  0  0
 11 12  2  0  0  0  0
 11 29  1  0  0  0  0
 12 30  1  0  0  0  0
 13 22  1  0  0  0  0
 13 28  2  0  0  0  0
 14 23  1  0  0  0  0
 14 24  2  0  0  0  0
 15 23  2  0  0  0  0
 15 25  1  0  0  0  0
 16 30  2  0  0  0  0
 16 31  1  0  0  0  0
 17 32  1  0  0  0  0
 18 32  1  0  0  0  0
 18 33  2  0  0  0  0
 18 34  1  0  0  0  0
 19 21  2  0  0  0  0
 19 39  1  0  0  0  0
 20 22  2  0  0  0  0
 20 40  1  0  0  0  0
 21 51  1  0  0  0  0
 22 41  1  0  0  0  0
 23 62  1  0  0  0  0
 24 26  1  0  0  0  0
 24 55  1  0  0  0  0
 25 26  2  0  0  0  0
 25 56  1  0  0  0  0
 26 63  1  0  0  0  0
 27 86  1  0  0  0  0
 28 87  1  0  0  0  0
 29 31  2  0  0  0  0
 29 86  1  0  0  0  0
 30 88  1  0  0  0  0
 31 89  1  0  0  0  0
 32 69  2  0  0  0  0
 33 70  1  0  0  0  0
 33 73  1  0  0  0  0
 34 74  1  0  0  0  0
 34 80  2  0  0  0  0
 35 52  1  0  0  0  0
 35 75  1  0  0  0  0
 35 81  2  0  0  0  0
 36 65  1  0  0  0  0
 36 71  1  0  0  0  0
 36 82  2  0  0  0  0
 37 66  1  0  0  0  0
 37 76  1  0  0  0  0
 37 83  2  0  0  0  0
 38 72  1  0  0  0  0
 38 77  1  0  0  0  0
 38 84  2  0  0  0  0
 39 42  1  0  0  0  0
 40 52  1  0  0  0  0
 41 71  1  0  0  0  0
 42 44  1  0  0  0  0
 43 45  1  0  0  0  0
 43 47  1  0  0  0  0
 44 51  1  0  0  0  0
 45 54  1  0  0  0  0
 46 49  1  0  0  0  0
 46 53  1  0  0  0  0
 47 72  1  0  0  0  0
 48 54  1  0  0  0  0
 48 72  1  0  0  0  0
 49 78  1  0  0  0  0
 50 53  1  0  0  0  0
 50 78  1  0  0  0  0
 51 75  1  0  0  0  0
 52 71  1  0  0  0  0
 53 67  1  0  0  0  0
 54 70  1  0  0  0  0
 57 66  1  0  0  0  0
 58 68  1  0  0  0  0
 59 68  1  0  0  0  0
 60 68  1  0  0  0  0
 61 79  1  0  0  0  0
 62 77  1  0  0  0  0
 63 78  1  0  0  0  0
 64 67  1  0  0  0  0
 64 87  1  0  0  0  0
 65 68  1  0  0  0  0
 65 76  1  0  0  0  0
 66 79  1  0  0  0  0
 67 85  1  0  0  0  0
 69 70  1  0  0  0  0
M  CHG  2  78   1  79   1
M  ISO  4  38 100  64 101  77 100  87 101
M  END
> <Batch ID>
0138

> <Smiles>
CNC(C)C(=O)NC(C(=O)N1Cc2cc([101O:1][101CH2:1]C(O)C3CCN(Cc4c(C)cc(C[100NH:0][100C:0](=O)N5CCCC(n6nc(-c7ccc(Oc8ccc(F)cc8F)cc7)c(C(N)=O)c6N)C5)cc4C)C3)ccc2CC1C(=O)NC1CCCc2ccccc21)C(C)(C)C

> <Shape>
0.189

> <Color>
0.087

> <Negative vol penalty>
0.000

$$$$

  -OEChem-04052321083D

 84 93  0     1  0  0  0  0  0999 V2000
  -27.1425  -32.0163   27.8819 C   0  0  0  0  0  0  0  0  0  0  0  0
  -27.3811  -30.9864   26.9776 C   0  0  0  0  0  0  0  0  0  0  0  0
  -27.4281  -10.5128   18.6970 C   0  0  0  0  0  0  0  0  0  0  0  0
  -27.5898  -12.7746   19.5307 C   0  0  0  0  0  0  0  0  0  0  0  0
  -25.8565  -32.5368   28.0204 C   0  0  0  0  0  0  0  0  0  0  0  0
  -26.3336  -30.4756   26.2120 C   0  0  0  0  0  0  0  0  0  0  0  0
  -27.6097  -29.8377   21.3530 C   0  0  0  0  0  0  0  0  0  0  0  0
  -26.0849  -10.4710   19.0709 C   0  0  0  0  0  0  0  0  0  0  0  0
  -26.2467  -12.7329   19.9045 C   0  0  0  0  0  0  0  0  0  0  0  0
  -28.3768  -28.7169   21.0380 C   0  0  0  0  0  0  0  0  0  0  0  0
  -24.3022  -10.0297   21.9084 C   0  0  0  0  0  0  0  0  0  0  0  0
  -23.8489   -8.8869   22.5672 C   0  0  0  0  0  0  0  0  0  0  0  0
  -26.3898  -27.5770   20.2819 C   0  0  0  0  0  0  0  0  0  0  0  0
  -22.2547   -8.4972   20.7941 C   0  0  0  0  0  0  0  0  0  0  0  0
  -28.1806  -11.6645   18.9270 C   0  0  0  0  0  0  0  0  0  0  0  0
  -30.6032  -10.8683   18.9949 C   0  0  0  0  0  0  0  0  0  0  0  0
  -24.7946  -32.0387   27.2492 C   0  0  0  0  0  0  0  0  0  0  0  0
  -26.2230  -29.8326   21.1446 C   0  0  0  0  0  0  0  0  0  0  0  0
  -25.0319  -30.9891   26.3413 C   0  0  0  0  0  0  0  0  0  0  0  0
  -25.6078  -28.6999   20.5927 C   0  0  0  0  0  0  0  0  0  0  0  0
  -25.4942  -11.5811   19.6746 C   0  0  0  0  0  0  0  0  0  0  0  0
  -27.7665  -27.5853   20.5051 C   0  0  0  0  0  0  0  0  0  0  0  0
  -23.7318  -10.4063   20.6925 C   0  0  0  0  0  0  0  0  0  0  0  0
  -22.8251   -8.1206   22.0100 C   0  0  0  0  0  0  0  0  0  0  0  0
  -22.7080   -9.6401   20.1353 C   0  0  0  0  0  0  0  0  0  0  0  0
  -29.5683  -11.7081   18.5416 C   0  0  0  0  0  0  0  0  0  0  0  0
  -31.7217  -11.3148   18.3346 C   0  0  0  0  0  0  0  0  0  0  0  0
  -30.5575   -9.7817   19.9292 C   0  0  0  0  0  0  0  0  0  0  0  0
  -23.6717  -30.1094   23.0203 C   0  0  0  0  0  0  0  0  0  0  0  0
  -22.0791  -30.1205   20.1944 C   0  0  0  0  0  0  0  0  0  0  0  0
  -22.0313  -29.2601   16.8922 C   0  0  0  0  0  0  0  0  0  0  0  0
  -31.5383  -15.7587   18.9136 C   0  0  0  0  0  0  0  0  0  0  0  0
  -23.4123  -32.6011   27.4679 C   0  0  0  0  0  0  0  0  0  0  0  0
  -25.4135  -31.0592   21.4647 C   0  0  0  0  0  0  0  0  0  0  0  0
  -24.1254  -28.6510   20.3307 C   0  0  0  0  0  0  0  0  0  0  0  0
  -22.4315  -32.2590   26.3493 C   0  0  0  0  0  0  0  0  0  0  0  0
  -30.6298  -15.0162   15.5958 C   0  0  0  0  0  0  0  0  0  0  0  0
  -22.5262  -30.7795   25.9902 C   0  0  0  0  0  0  0  0  0  0  0  0
  -31.4724  -13.7606   15.3504 C   0  0  0  0  0  0  0  0  0  0  0  0
  -28.9447  -18.2473   19.8356 C   0  0  0  0  0  0  0  0  0  0  0  0
  -30.6919  -19.3752   18.4129 C   0  0  0  0  0  0  0  0  0  0  0  0
  -28.2050  -22.9935   18.7923 C   0  0  0  0  0  0  0  0  0  0  0  0
  -31.3759  -16.0764   16.4016 C   0  0  0  0  0  0  0  0  0  0  0  0
  -29.9578  -17.1602   20.1862 C   0  0  0  0  0  0  0  0  0  0  0  0
  -31.6748  -18.2725   18.7949 C   0  0  0  0  0  0  0  0  0  0  0  0
  -32.8668  -14.3605   17.3568 C   0  0  0  0  0  0  0  0  0  0  0  0
  -29.4863  -22.2933   20.6654 C   0  0  0  0  0  0  0  0  0  0  0  0
  -23.9264  -30.4253   25.4751 C   0  0  1  0  0  0  0  0  0  0  0  0
  -23.9352  -30.7575   21.6905 C   0  0  1  0  0  0  0  0  0  0  0  0
  -32.1569  -13.2055   16.6199 C   0  0  1  0  0  0  0  0  0  0  0  0
  -29.6386  -19.5734   19.5083 C   0  0  0  0  0  0  0  0  0  0  0  0
  -29.1931  -21.9163   19.2229 C   0  0  1  0  0  0  0  0  0  0  0  0
  -28.8252  -24.2606   19.3689 C   0  0  1  0  0  0  0  0  0  0  0  0
  -20.5783  -29.3686   14.8491 C   0  0  0  0  0  0  0  0  0  0  0  0
  -20.3711  -27.8423   21.2910 C   0  0  0  0  0  0  0  0  0  0  0  0
  -19.6205  -27.3709   18.9496 C   0  0  0  0  0  0  0  0  0  0  0  0
  -19.1024  -29.5713   20.0044 C   0  0  0  0  0  0  0  0  0  0  0  0
  -28.2440  -20.3184   17.7002 C   0  0  0  0  0  0  0  0  0  0  0  0
  -24.0171  -30.8915   15.4246 C   0  0  0  0  0  0  0  0  0  0  0  0
  -27.8279  -25.3649   19.6554 C   0  0  0  0  0  0  0  0  0  1  0  0
  -21.4772  -29.0619   19.3022 C   0  0  1  0  0  0  0  0  0  0  0  0
  -21.6743  -30.0550   15.6492 C   0  0  2  0  0  0  0  0  0  0  0  0
  -20.1705  -28.4615   19.8934 C   0  0  0  0  0  0  0  0  0  0  0  0
  -29.9917  -12.6192   17.6615 N   0  0  0  0  0  0  0  0  0  0  0  0
  -31.3051  -12.3546   17.5565 N   0  0  0  0  0  0  0  0  0  0  0  0
  -23.3760  -29.8730   20.6662 N   0  0  0  0  0  0  0  0  0  0  0  0
  -31.9693  -15.4884   17.6064 N   0  0  0  0  0  0  0  0  0  0  0  0
  -30.9817  -17.0264   19.1500 N   0  0  0  0  0  0  0  0  0  0  0  0
  -33.0112  -10.9156   18.3495 N   0  0  0  0  0  0  0  0  0  0  0  0
  -30.7679  -10.0587   21.2869 N   0  0  0  0  0  0  0  0  0  0  0  0
  -24.0855  -30.8603   24.1040 N   0  0  0  0  0  0  0  0  0  0  0  0
  -21.3112  -29.6792   17.9909 N   0  0  0  0  0  0  0  0  0  0  0  0
  -28.6529  -20.5643   19.0829 N   0  0  1  0  0  0  0  0  0  0  0  0
  -29.4710  -23.7979   20.6523 N   0  3  0  0  0  0  0  0  0  0  0  0
  -22.8694  -30.2099   14.7725 N   0  3  0  0  0  0  0  0  0  0  0  0
  -30.3530   -8.5978   19.5686 O   0  0  0  0  0  0  0  0  0  0  0  0
  -23.1316  -29.0101   23.0602 O   0  0  0  0  0  0  0  0  0  0  0  0
  -21.4255  -31.1332   20.4570 O   0  0  0  0  0  0  0  0  0  0  0  0
  -22.8629  -28.3551   16.8881 O   0  0  0  0  0  0  0  0  0  0  0  0
  -31.6374  -14.9200   19.8179 O   0  0  0  0  0  0  0  0  0  0  0  0
  -24.1835  -11.5408   20.0393 O   0  0  0  0  0  0  0  0  0  0  0  0
  -28.5187  -26.4810   20.1949 O   0  0  0  0  0  0  0  0  0  1  0  0
  -22.3909   -7.0223   22.6420 F   0  0  0  0  0  0  0  0  0  0  0  0
  -22.1569   -9.9962   18.9669 F   0  0  0  0  0  0  0  0  0  0  0  0
  1  2  1  0  0  0  0
  1  5  2  0  0  0  0
  2  6  2  0  0  0  0
  3  8  2  0  0  0  0
  3 15  1  0  0  0  0
  4  9  1  0  0  0  0
  4 15  2  0  0  0  0
  5 17  1  0  0  0  0
  6 19  1  0  0  0  0
  7 10  2  0  0  0  0
  7 18  1  0  0  0  0
  8 21  1  0  0  0  0
  9 21  2  0  0  0  0
 10 22  1  0  0  0  0
 11 12  2  0  0  0  0
 11 23  1  0  0  0  0
 12 24  1  0  0  0  0
 13 20  1  0  0  0  0
 13 22  2  0  0  0  0
 14 24  2  0  0  0  0
 14 25  1  0  0  0  0
 15 26  1  0  0  0  0
 16 26  1  0  0  0  0
 16 27  2  0  0  0  0
 16 28  1  0  0  0  0
 17 19  2  0  0  0  0
 17 33  1  0  0  0  0
 18 20  2  0  0  0  0
 18 34  1  0  0  0  0
 19 48  1  0  0  0  0
 20 35  1  0  0  0  0
 21 81  1  0  0  0  0
 22 82  1  0  0  0  0
 23 25  2  0  0  0  0
 23 81  1  0  0  0  0
 24 83  1  0  0  0  0
 25 84  1  0  0  0  0
 26 64  2  0  0  0  0
 27 65  1  0  0  0  0
 27 69  1  0  0  0  0
 28 70  1  0  0  0  0
 28 76  2  0  0  0  0
 29 49  1  0  0  0  0
 29 71  1  0  0  0  0
 29 77  2  0  0  0  0
 30 61  1  0  0  0  0
 30 66  1  0  0  0  0
 30 78  2  0  0  0  0
 31 62  1  0  0  0  0
 31 72  1  0  0  0  0
 31 79  2  0  0  0  0
 32 67  1  0  0  0  0
 32 68  1  0  0  0  0
 32 80  2  0  0  0  0
 33 36  1  0  0  0  0
 34 49  1  0  0  0  0
 35 66  1  0  0  0  0
 36 38  1  0  0  0  0
 37 39  1  0  0  0  0
 37 43  1  0  0  0  0
 38 48  1  0  0  0  0
 39 50  1  0  0  0  0
 40 44  1  0  0  0  0
 40 51  1  0  0  0  0
 41 45  1  0  0  0  0
 41 51  1  0  0  0  0
 42 52  1  0  0  0  0
 42 53  1  0  0  0  0
 43 67  1  0  0  0  0
 44 68  1  0  0  0  0
 45 68  1  0  0  0  0
 46 50  1  0  0  0  0
 46 67  1  0  0  0  0
 47 52  1  0  0  0  0
 47 74  1  0  0  0  0
 48 71  1  0  0  0  0
 49 66  1  0  0  0  0
 50 65  1  0  0  0  0
 51 73  1  0  0  0  0
 52 73  1  0  0  0  0
 53 60  1  0  0  0  0
 53 74  1  0  0  0  0
 54 62  1  0  0  0  0
 55 63  1  0  0  0  0
 56 63  1  0  0  0  0
 57 63  1  0  0  0  0
 58 73  1  0  0  0  0
 59 75  1  0  0  0  0
 60 82  1  0  0  0  0
 61 63  1  0  0  0  0
 61 72  1  0  0  0  0
 62 75  1  0  0  0  0
 64 65  1  0  0  0  0
M  CHG  2  74   1  75   1
M  ISO  4  32 100  60 101  68 100  82 101
M  END
> <Batch ID>
0138

> <Smiles>
CNC(C)C(=O)NC(C(=O)N1Cc2cc([101O:1][101CH2:1]C3CC(N(C)C4CC[100N:0]([100C:0](=O)N5CCCC(n6nc(-c7ccc(Oc8ccc(F)cc8F)cc7)c(C(N)=O)c6N)C5)CC4)CN3)ccc2CC1C(=O)NC1CCCc2ccccc21)C(C)(C)C

> <Shape>
0.285

> <Color>
0.090

> <Negative vol penalty>
0.000

$$$$

  -OEChem-04052321083D

 84 92  0     1  0  0  0  0  0999 V2000
  -28.6214  -31.5194   26.9555 C   0  0  0  0  0  0  0  0  0  0  0  0
  -28.5614  -30.4552   26.0614 C   0  0  0  0  0  0  0  0  0  0  0  0
  -23.4356  -14.1453   22.0158 C   0  0  0  0  0  0  0  0  0  0  0  0
  -25.4418  -14.5355   23.3041 C   0  0  0  0  0  0  0  0  0  0  0  0
  -27.4477  -32.1492   27.3674 C   0  0  0  0  0  0  0  0  0  0  0  0
  -27.3275  -30.0196   25.5795 C   0  0  0  0  0  0  0  0  0  0  0  0
  -27.3787  -29.1797   20.5858 C   0  0  0  0  0  0  0  0  0  0  0  0
  -24.1506  -13.3129   21.1545 C   0  0  0  0  0  0  0  0  0  0  0  0
  -26.1568  -13.7031   22.4429 C   0  0  0  0  0  0  0  0  0  0  0  0
  -27.9617  -27.9922   20.1458 C   0  0  0  0  0  0  0  0  0  0  0  0
  -27.5522  -13.9062   19.3701 C   0  0  0  0  0  0  0  0  0  0  0  0
  -28.7997  -14.3478   18.9293 C   0  0  0  0  0  0  0  0  0  0  0  0
  -25.7708  -27.0093   19.9150 C   0  0  0  0  0  0  0  0  0  0  0  0
  -27.8694  -24.8821   21.7412 C   0  0  0  0  0  0  0  0  0  0  0  0
  -29.8395  -12.4111   19.9318 C   0  0  0  0  0  0  0  0  0  0  0  0
  -24.0813  -14.7566   23.0905 C   0  0  0  0  0  0  0  0  0  0  0  0
  -22.6625  -15.2427   25.1542 C   0  0  0  0  0  0  0  0  0  0  0  0
  -26.1995  -31.7273   26.8829 C   0  0  0  0  0  0  0  0  0  0  0  0
  -25.9856  -29.2876   20.7043 C   0  0  0  0  0  0  0  0  0  0  0  0
  -26.1359  -30.6435   25.9864 C   0  0  0  0  0  0  0  0  0  0  0  0
  -25.1725  -28.2001   20.3543 C   0  0  0  0  0  0  0  0  0  0  0  0
  -25.5111  -13.0919   21.3681 C   0  0  0  0  0  0  0  0  0  0  0  0
  -27.1579  -26.9058   19.8131 C   0  0  0  0  0  0  0  0  0  0  0  0
  -27.4484  -12.7170   20.0918 C   0  0  0  0  0  0  0  0  0  0  0  0
  -28.0523  -24.7971   20.3388 C   0  0  0  0  0  0  0  0  0  1  0  0
  -29.9433  -13.6003   19.2101 C   0  0  0  0  0  0  0  0  0  0  0  0
  -28.5920  -11.9695   20.3726 C   0  0  0  0  0  0  0  0  0  0  0  0
  -23.3434  -15.6169   23.9802 C   0  0  0  0  0  0  0  0  0  0  0  0
  -28.3403  -23.7092   22.2891 C   0  0  0  0  0  0  0  0  0  0  0  0
  -28.6296  -23.5751   20.0725 C   0  0  0  0  0  0  0  0  0  0  0  0
  -22.1295  -16.4155   25.6305 C   0  0  0  0  0  0  0  0  0  0  0  0
  -22.5243  -13.9506   25.7599 C   0  0  0  0  0  0  0  0  0  0  0  0
  -23.9730  -29.8160   23.1072 C   0  0  0  0  0  0  0  0  0  0  0  0
  -21.7695  -29.9054   20.7284 C   0  0  0  0  0  0  0  0  0  0  0  0
  -20.8844  -28.9866   17.5630 C   0  0  0  0  0  0  0  0  0  0  0  0
  -23.6696  -22.1628   24.9610 C   0  0  0  0  0  0  0  0  0  0  0  0
  -24.9546  -32.4086   27.3935 C   0  0  0  0  0  0  0  0  0  0  0  0
  -25.3709  -30.5843   21.1549 C   0  0  0  0  0  0  0  0  0  0  0  0
  -23.6708  -28.2714   20.4446 C   0  0  0  0  0  0  0  0  0  0  0  0
  -23.7160  -32.1284   26.5465 C   0  0  0  0  0  0  0  0  0  0  0  0
  -20.5366  -20.6776   24.1514 C   0  0  0  0  0  0  0  0  0  0  0  0
  -23.6091  -30.6394   26.2332 C   0  0  0  0  0  0  0  0  0  0  0  0
  -20.8393  -19.1785   24.1216 C   0  0  0  0  0  0  0  0  0  0  0  0
  -21.7032  -21.4998   23.6081 C   0  0  0  0  0  0  0  0  0  0  0  0
  -23.3059  -19.7305   24.2204 C   0  0  0  0  0  0  0  0  0  0  0  0
  -24.8183  -30.1581   25.4222 C   0  0  1  0  0  0  0  0  0  0  0  0
  -23.9676  -30.4130   21.7283 C   0  0  1  0  0  0  0  0  0  0  0  0
  -22.1806  -18.8635   24.8106 C   0  0  2  0  0  0  0  0  0  0  0  0
  -29.0337  -22.9732   18.7840 C   0  0  0  0  0  0  0  0  0  0  0  0
  -19.0068  -29.1768   15.9090 C   0  0  0  0  0  0  0  0  0  0  0  0
  -28.3729  -20.6040   21.9985 C   0  0  0  0  0  0  0  0  0  0  0  0
  -30.6711  -21.6375   22.2361 C   0  0  0  0  0  0  0  0  0  0  0  0
  -20.1941  -27.8018   22.2785 C   0  0  0  0  0  0  0  0  0  0  0  0
  -18.8826  -27.3490   20.1945 C   0  0  0  0  0  0  0  0  0  0  0  0
  -18.7976  -29.6058   21.2539 C   0  0  0  0  0  0  0  0  0  0  0  0
  -22.5922  -30.4152   15.6132 C   0  0  0  0  0  0  0  0  0  0  0  0
  -28.3883  -23.2769   23.7012 C   0  0  0  0  0  0  0  0  0  0  0  0
  -25.6802  -22.6689   26.3250 C   0  0  0  0  0  0  0  0  0  0  0  0
  -27.0871  -22.7189   25.7590 C   0  0  0  0  0  0  0  0  0  0  0  0
  -20.8955  -28.8838   20.0417 C   0  0  1  0  0  0  0  0  0  0  0  0
  -20.3093  -29.7841   16.4064 C   0  0  2  0  0  0  0  0  0  0  0  0
  -29.3769  -21.6035   21.4209 C   0  0  0  0  0  0  0  0  0  0  0  0
  -19.7208  -28.4078   20.9422 C   0  0  0  0  0  0  0  0  0  0  0  0
  -23.2527  -16.9251   23.7262 N   0  0  0  0  0  0  0  0  0  0  0  0
  -28.7999  -22.9223   21.2654 N   0  0  0  0  0  0  0  0  0  0  0  0
  -22.5084  -17.3831   24.7472 N   0  0  0  0  0  0  0  0  0  0  0  0
  -23.1176  -29.5588   20.8965 N   0  0  0  0  0  0  0  0  0  0  0  0
  -22.9448  -21.1544   24.3046 N   0  0  0  0  0  0  0  0  0  0  0  0
  -21.3782  -16.7031   26.7146 N   0  0  0  0  0  0  0  0  0  0  0  0
  -23.1357  -12.8528   25.1391 N   0  0  0  0  0  0  0  0  0  0  0  0
  -24.6856  -30.5507   24.0356 N   0  0  0  0  0  0  0  0  0  0  0  0
  -20.4758  -29.4869   18.7813 N   0  0  0  0  0  0  0  0  0  0  0  0
  -24.8312  -21.7488   25.6015 N   0  0  0  0  0  0  0  0  0  0  0  0
  -21.2746  -29.8201   15.2715 N   0  3  0  0  0  0  0  0  0  0  0  0
  -27.0477  -23.2071   24.3583 N   0  3  0  0  0  0  0  0  0  0  0  0
  -21.8641  -13.7720   26.8114 O   0  0  0  0  0  0  0  0  0  0  0  0
  -23.3737  -28.7673   23.3139 O   0  0  0  0  0  0  0  0  0  0  0  0
  -21.2759  -30.9746   21.0954 O   0  0  0  0  0  0  0  0  0  0  0  0
  -21.6193  -28.0148   17.4019 O   0  0  0  0  0  0  0  0  0  0  0  0
  -23.3055  -23.3435   24.9797 O   0  0  0  0  0  0  0  0  0  0  0  0
  -26.2090  -12.2795   20.5281 O   0  0  0  0  0  0  0  0  0  0  0  0
  -27.7243  -25.7452   19.3840 O   0  0  0  0  0  0  0  0  0  1  0  0
  -31.1411  -14.0237   18.7854 F   0  0  0  0  0  0  0  0  0  0  0  0
  -28.4984  -10.8257   21.0646 F   0  0  0  0  0  0  0  0  0  0  0  0
  1  2  1  0  0  0  0
  1  5  2  0  0  0  0
  2  6  2  0  0  0  0
  3  8  2  0  0  0  0
  3 16  1  0  0  0  0
  4  9  1  0  0  0  0
  4 16  2  0  0  0  0
  5 18  1  0  0  0  0
  6 20  1  0  0  0  0
  7 10  2  0  0  0  0
  7 19  1  0  0  0  0
  8 22  1  0  0  0  0
  9 22  2  0  0  0  0
 10 23  1  0  0  0  0
 11 12  2  0  0  0  0
 11 24  1  0  0  0  0
 12 26  1  0  0  0  0
 13 21  1  0  0  0  0
 13 23  2  0  0  0  0
 14 25  1  0  0  0  0
 14 29  2  0  0  0  0
 15 26  2  0  0  0  0
 15 27  1  0  0  0  0
 16 28  1  0  0  0  0
 17 28  1  0  0  0  0
 17 31  2  0  0  0  0
 17 32  1  0  0  0  0
 18 20  2  0  0  0  0
 18 37  1  0  0  0  0
 19 21  2  0  0  0  0
 19 38  1  0  0  0  0
 20 46  1  0  0  0  0
 21 39  1  0  0  0  0
 22 81  1  0  0  0  0
 23 82  1  0  0  0  0
 24 27  2  0  0  0  0
 24 81  1  0  0  0  0
 25 30  2  0  0  0  0
 25 82  1  0  0  0  0
 26 83  1  0  0  0  0
 27 84  1  0  0  0  0
 28 64  2  0  0  0  0
 29 57  1  0  0  0  0
 29 65  1  0  0  0  0
 30 49  1  0  0  0  0
 30 65  1  0  0  0  0
 31 66  1  0  0  0  0
 31 69  1  0  0  0  0
 32 70  1  0  0  0  0
 32 76  2  0  0  0  0
 33 47  1  0  0  0  0
 33 71  1  0  0  0  0
 33 77  2  0  0  0  0
 34 60  1  0  0  0  0
 34 67  1  0  0  0  0
 34 78  2  0  0  0  0
 35 61  1  0  0  0  0
 35 72  1  0  0  0  0
 35 79  2  0  0  0  0
 36 68  1  0  0  0  0
 36 73  1  0  0  0  0
 36 80  2  0  0  0  0
 37 40  1  0  0  0  0
 38 47  1  0  0  0  0
 39 67  1  0  0  0  0
 40 42  1  0  0  0  0
 41 43  1  0  0  0  0
 41 44  1  0  0  0  0
 42 46  1  0  0  0  0
 43 48  1  0  0  0  0
 44 68  1  0  0  0  0
 45 48  1  0  0  0  0
 45 68  1  0  0  0  0
 46 71  1  0  0  0  0
 47 67  1  0  0  0  0
 48 66  1  0  0  0  0
 50 61  1  0  0  0  0
 51 62  1  0  0  0  0
 52 62  1  0  0  0  0
 53 63  1  0  0  0  0
 54 63  1  0  0  0  0
 55 63  1  0  0  0  0
 56 74  1  0  0  0  0
 57 75  1  0  0  0  0
 58 59  1  0  0  0  0
 58 73  1  0  0  0  0
 59 75  1  0  0  0  0
 60 63  1  0  0  0  0
 60 72  1  0  0  0  0
 61 74  1  0  0  0  0
 62 65  1  0  0  0  0
 64 66  1  0  0  0  0
M  CHG  2  74   1  75   1
M  ISO  4  25 101  36 100  73 100  82 101
M  END
> <Batch ID>
0138

> <Smiles>
CNC(C)C(=O)NC(C(=O)N1Cc2cc([101O:1][101c:1]3cc(CNCC[100NH:0][100C:0](=O)N4CCCC(n5nc(-c6ccc(Oc7ccc(F)cc7F)cc6)c(C(N)=O)c5N)C4)n(C(C)C)c3C)ccc2CC1C(=O)NC1CCCc2ccccc21)C(C)(C)C

> <Shape>
0.220

> <Color>
0.073

> <Negative vol penalty>
0.000

$$$$

  -OEChem-04052321083D

 83 92  0     1  0  0  0  0  0999 V2000
  -19.2250  -29.5119   22.6530 C   0  0  0  0  0  0  0  0  0  0  0  0
  -20.5711  -29.1644   22.6000 C   0  0  0  0  0  0  0  0  0  0  0  0
  -26.7811  -12.0294   20.4098 C   0  0  0  0  0  0  0  0  0  0  0  0
  -25.3700  -13.9811   20.2183 C   0  0  0  0  0  0  0  0  0  0  0  0
  -18.2468  -28.5225   22.5630 C   0  0  0  0  0  0  0  0  0  0  0  0
  -20.9397  -27.8271   22.4581 C   0  0  0  0  0  0  0  0  0  0  0  0
  -24.6162  -27.1779   19.0365 C   0  0  0  0  0  0  0  0  0  0  0  0
  -25.6700  -11.2075   20.2213 C   0  0  0  0  0  0  0  0  0  0  0  0
  -24.2589  -13.1592   20.0297 C   0  0  0  0  0  0  0  0  0  0  0  0
  -25.9166  -27.4869   19.4329 C   0  0  0  0  0  0  0  0  0  0  0  0
  -23.0761  -10.0656   22.0629 C   0  0  0  0  0  0  0  0  0  0  0  0
  -22.9340   -8.9652   22.9082 C   0  0  0  0  0  0  0  0  0  0  0  0
  -26.3542  -25.1435   19.8024 C   0  0  0  0  0  0  0  0  0  0  0  0
  -23.0053   -7.4882   20.9976 C   0  0  0  0  0  0  0  0  0  0  0  0
  -26.6311  -13.4162   20.4083 C   0  0  0  0  0  0  0  0  0  0  0  0
  -28.6314  -14.2984   21.7230 C   0  0  0  0  0  0  0  0  0  0  0  0
  -18.6035  -27.1734   22.4102 C   0  0  0  0  0  0  0  0  0  0  0  0
  -24.1708  -25.8483   19.0305 C   0  0  0  0  0  0  0  0  0  0  0  0
  -19.9654  -26.8186   22.3673 C   0  0  0  0  0  0  0  0  0  0  0  0
  -25.0484  -24.8201   19.4031 C   0  0  0  0  0  0  0  0  0  0  0  0
  -24.4089  -11.7724   20.0313 C   0  0  0  0  0  0  0  0  0  0  0  0
  -26.7850  -26.4699   19.8187 C   0  0  0  0  0  0  0  0  0  0  0  0
  -23.1827   -9.8773   20.6849 C   0  0  0  0  0  0  0  0  0  0  0  0
  -22.8986   -7.6765   22.3756 C   0  0  0  0  0  0  0  0  0  0  0  0
  -23.1474   -8.5887   20.1522 C   0  0  0  0  0  0  0  0  0  0  0  0
  -27.7785  -14.2657   20.6035 C   0  0  0  0  0  0  0  0  0  0  0  0
  -29.5576  -15.2666   21.4209 C   0  0  0  0  0  0  0  0  0  0  0  0
  -28.5901  -13.5230   22.9283 C   0  0  0  0  0  0  0  0  0  0  0  0
  -21.8912  -24.2393   20.5532 C   0  0  0  0  0  0  0  0  0  0  0  0
  -30.6215  -26.5337   18.7503 C   0  0  0  0  0  0  0  0  0  0  0  0
  -22.8013  -21.8396   18.5694 C   0  0  0  0  0  0  0  0  0  0  0  0
  -25.2371  -20.4618   16.6161 C   0  0  0  0  0  0  0  0  0  0  0  0
  -30.9874  -20.1073   19.5947 C   0  0  0  0  0  0  0  0  0  0  0  0
  -17.5112  -26.1344   22.3648 C   0  0  0  0  0  0  0  0  0  0  0  0
  -22.7734  -25.5291   18.5747 C   0  0  0  0  0  0  0  0  0  0  0  0
  -24.6256  -23.3746   19.3947 C   0  0  0  0  0  0  0  0  0  0  0  0
  -17.9803  -24.7801   21.8392 C   0  0  0  0  0  0  0  0  0  0  0  0
  -30.5150  -17.6889   17.0921 C   0  0  0  0  0  0  0  0  0  0  0  0
  -19.2918  -24.3746   22.5043 C   0  0  0  0  0  0  0  0  0  0  0  0
  -29.8229  -16.5732   17.8747 C   0  0  0  0  0  0  0  0  0  0  0  0
  -31.0311  -28.9313   19.5337 C   0  0  0  0  0  0  0  0  0  0  0  0
  -30.9743  -28.0718   20.7597 C   0  0  0  0  0  0  0  0  0  0  0  0
  -30.0911  -23.3074   18.4411 C   0  0  0  0  0  0  0  0  0  0  0  0
  -32.1302  -23.3594   19.9282 C   0  0  0  0  0  0  0  0  0  0  0  0
  -30.0075  -19.0736   17.4984 C   0  0  0  0  0  0  0  0  0  0  0  0
  -30.5382  -21.9440   17.9063 C   0  0  0  0  0  0  0  0  0  0  0  0
  -32.5484  -22.0130   19.3446 C   0  0  0  0  0  0  0  0  0  0  0  0
  -29.3891  -18.2204   19.7365 C   0  0  0  0  0  0  0  0  0  0  0  0
  -20.4046  -25.3815   22.1891 C   0  0  1  0  0  0  0  0  0  0  0  0
  -22.2653  -24.1894   19.0988 C   0  0  1  0  0  0  0  0  0  0  0  0
  -29.9194  -16.8203   19.3908 C   0  0  1  0  0  0  0  0  0  0  0  0
  -31.2792  -24.1432   18.9247 C   0  0  0  0  0  0  0  0  0  0  0  0
  -30.1506  -27.7042   19.5482 C   0  0  0  0  0  0  0  0  0  0  0  0
  -26.2924  -18.8758   14.9826 C   0  0  0  0  0  0  0  0  0  0  0  0
  -23.1515  -20.0930   21.0467 C   0  0  0  0  0  0  0  0  0  0  0  0
  -24.4862  -18.5006   19.6498 C   0  0  0  0  0  0  0  0  0  0  0  0
  -22.0933  -18.9381   19.0971 C   0  0  0  0  0  0  0  0  0  0  0  0
  -24.3863  -22.0973   14.3009 C   0  0  0  0  0  0  0  0  0  0  0  0
  -28.6641  -27.9149   19.6269 C   0  0  0  0  0  0  0  0  0  1  0  0
  -23.8193  -20.7267   18.6345 C   0  0  1  0  0  0  0  0  0  0  0  0
  -25.2038  -19.9152   15.2003 C   0  0  2  0  0  0  0  0  0  0  0  0
  -23.3952  -19.5919   19.6092 C   0  0  0  0  0  0  0  0  0  0  0  0
  -28.1314  -15.1435   19.6606 N   0  0  0  0  0  0  0  0  0  0  0  0
  -29.2162  -15.7369   20.1870 N   0  0  0  0  0  0  0  0  0  0  0  0
  -23.2474  -23.1140   18.9471 N   0  0  0  0  0  0  0  0  0  0  0  0
  -30.0812  -19.2479   18.9557 N   0  0  0  0  0  0  0  0  0  0  0  0
  -31.3851  -21.2522   18.8881 N   0  0  0  0  0  0  0  0  0  0  0  0
  -30.6225  -15.7531   22.0930 N   0  0  0  0  0  0  0  0  0  0  0  0
  -27.8511  -14.0135   24.0134 N   0  0  0  0  0  0  0  0  0  0  0  0
  -20.9138  -25.1696   20.8511 N   0  0  0  0  0  0  0  0  0  0  0  0
  -30.8269  -25.3875   19.4964 N   0  0  0  0  0  0  0  0  0  0  0  0
  -24.0306  -20.2858   17.2600 N   0  0  0  0  0  0  0  0  0  0  0  0
  -25.4014  -21.0161   14.2153 N   0  3  0  0  0  0  0  0  0  0  0  0
  -29.2043  -12.4355   23.0452 O   0  0  0  0  0  0  0  0  0  0  0  0
  -22.4470  -23.4883   21.3461 O   0  0  0  0  0  0  0  0  0  0  0  0
  -30.7876  -26.6537   17.5421 O   0  0  0  0  0  0  0  0  0  0  0  0
  -21.6546  -21.5888   18.1903 O   0  0  0  0  0  0  0  0  0  0  0  0
  -26.2349  -20.9885   17.1035 O   0  0  0  0  0  0  0  0  0  0  0  0
  -31.4160  -19.8662   20.7302 O   0  0  0  0  0  0  0  0  0  0  0  0
  -23.3245  -10.9708   19.8471 O   0  0  0  0  0  0  0  0  0  0  0  0
  -28.0660  -26.7714   20.2101 O   0  0  0  0  0  0  0  0  0  1  0  0
  -22.7637   -6.6198   23.1876 F   0  0  0  0  0  0  0  0  0  0  0  0
  -23.2506   -8.4014   18.8293 F   0  0  0  0  0  0  0  0  0  0  0  0
  1  2  1  0  0  0  0
  1  5  2  0  0  0  0
  2  6  2  0  0  0  0
  3  8  2  0  0  0  0
  3 15  1  0  0  0  0
  4  9  1  0  0  0  0
  4 15  2  0  0  0  0
  5 17  1  0  0  0  0
  6 19  1  0  0  0  0
  7 10  2  0  0  0  0
  7 18  1  0  0  0  0
  8 21  1  0  0  0  0
  9 21  2  0  0  0  0
 10 22  1  0  0  0  0
 11 12  2  0  0  0  0
 11 23  1  0  0  0  0
 12 24  1  0  0  0  0
 13 20  1  0  0  0  0
 13 22  2  0  0  0  0
 14 24  2  0  0  0  0
 14 25  1  0  0  0  0
 15 26  1  0  0  0  0
 16 26  1  0  0  0  0
 16 27  2  0  0  0  0
 16 28  1  0  0  0  0
 17 19  2  0  0  0  0
 17 34  1  0  0  0  0
 18 20  2  0  0  0  0
 18 35  1  0  0  0  0
 19 49  1  0  0  0  0
 20 36  1  0  0  0  0
 21 80  1  0  0  0  0
 22 81  1  0  0  0  0
 23 25  2  0  0  0  0
 23 80  1  0  0  0  0
 24 82  1  0  0  0  0
 25 83  1  0  0  0  0
 26 63  2  0  0  0  0
 27 64  1  0  0  0  0
 27 68  1  0  0  0  0
 28 69  1  0  0  0  0
 28 74  2  0  0  0  0
 29 50  1  0  0  0  0
 29 70  1  0  0  0  0
 29 75  2  0  0  0  0
 30 53  1  0  0  0  0
 30 71  1  0  0  0  0
 30 76  2  0  0  0  0
 31 60  1  0  0  0  0
 31 65  1  0  0  0  0
 31 77  2  0  0  0  0
 32 61  1  0  0  0  0
 32 72  1  0  0  0  0
 32 78  2  0  0  0  0
 33 66  1  0  0  0  0
 33 67  1  0  0  0  0
 33 79  2  0  0  0  0
 34 37  1  0  0  0  0
 35 50  1  0  0  0  0
 36 65  1  0  0  0  0
 37 39  1  0  0  0  0
 38 40  1  0  0  0  0
 38 45  1  0  0  0  0
 39 49  1  0  0  0  0
 40 51  1  0  0  0  0
 41 42  1  0  0  0  0
 41 53  1  0  0  0  0
 42 53  1  0  0  0  0
 43 46  1  0  0  0  0
 43 52  1  0  0  0  0
 44 47  1  0  0  0  0
 44 52  1  0  0  0  0
 45 66  1  0  0  0  0
 46 67  1  0  0  0  0
 47 67  1  0  0  0  0
 48 51  1  0  0  0  0
 48 66  1  0  0  0  0
 49 70  1  0  0  0  0
 50 65  1  0  0  0  0
 51 64  1  0  0  0  0
 52 71  1  0  0  0  0
 53 59  1  0  0  0  0
 54 61  1  0  0  0  0
 55 62  1  0  0  0  0
 56 62  1  0  0  0  0
 57 62  1  0  0  0  0
 58 73  1  0  0  0  0
 59 81  1  0  0  0  0
 60 62  1  0  0  0  0
 60 72  1  0  0  0  0
 61 73  1  0  0  0  0
 63 64  1  0  0  0  0
M  CHG  1  73   1
M  ISO  4  33 100  59 101  67 100  81 101
M  END
> <Batch ID>
0138

> <Smiles>
CNC(C)C(=O)NC(C(=O)N1Cc2cc([101O:1][101CH2:1]C3(C(=O)NC4CC[100N:0]([100C:0](=O)N5CCCC(n6nc(-c7ccc(Oc8ccc(F)cc8F)cc7)c(C(N)=O)c6N)C5)CC4)CC3)ccc2CC1C(=O)NC1CCCc2ccccc21)C(C)(C)C

> <Shape>
0.242

> <Color>
0.060

> <Negative vol penalty>
0.000

$$$$

  -OEChem-04052321083D

 90 98  0     1  0  0  0  0  0999 V2000
  -28.8237  -29.8343   27.5138 C   0  0  0  0  0  0  0  0  0  0  0  0
  -28.6534  -29.0009   26.4130 C   0  0  0  0  0  0  0  0  0  0  0  0
  -24.0968   -9.9507   22.4752 C   0  0  0  0  0  0  0  0  0  0  0  0
  -24.4620  -11.6285   24.1748 C   0  0  0  0  0  0  0  0  0  0  0  0
  -27.7391  -30.5498   28.0195 C   0  0  0  0  0  0  0  0  0  0  0  0
  -27.3981  -28.8816   25.8178 C   0  0  0  0  0  0  0  0  0  0  0  0
  -27.6172  -29.0881   20.7627 C   0  0  0  0  0  0  0  0  0  0  0  0
  -29.1208  -20.7668   22.2550 C   0  0  0  0  0  0  0  0  0  0  0  0
  -23.6751   -9.0509   23.4541 C   0  0  0  0  0  0  0  0  0  0  0  0
  -24.0403  -10.7288   25.1537 C   0  0  0  0  0  0  0  0  0  0  0  0
  -28.0347  -27.9370   20.0959 C   0  0  0  0  0  0  0  0  0  0  0  0
  -28.8077  -22.0421   21.7846 C   0  0  0  0  0  0  0  0  0  0  0  0
  -20.8796   -8.4699   25.2653 C   0  0  0  0  0  0  0  0  0  0  0  0
  -19.7285   -7.7251   25.0085 C   0  0  0  0  0  0  0  0  0  0  0  0
  -25.7359  -27.3948   19.6050 C   0  0  0  0  0  0  0  0  0  0  0  0
  -28.6304  -21.1699   19.5384 C   0  0  0  0  0  0  0  0  0  0  0  0
  -21.0050   -5.6835   25.2078 C   0  0  0  0  0  0  0  0  0  0  0  0
  -24.4903  -11.2395   22.8356 C   0  0  0  0  0  0  0  0  0  0  0  0
  -24.1279  -13.0756   21.1021 C   0  0  0  0  0  0  0  0  0  0  0  0
  -26.4719  -30.4466   27.4243 C   0  0  0  0  0  0  0  0  0  0  0  0
  -26.2530  -29.3960   20.8652 C   0  0  0  0  0  0  0  0  0  0  0  0
  -26.2952  -29.5953   26.3168 C   0  0  0  0  0  0  0  0  0  0  0  0
  -25.3039  -28.5517   20.2714 C   0  0  0  0  0  0  0  0  0  0  0  0
  -29.1888  -19.6931   21.3672 C   0  0  0  0  0  0  0  0  0  0  0  0
  -28.9436  -19.8947   20.0089 C   0  0  0  0  0  0  0  0  0  0  0  0
  -23.6468   -9.4399   24.7933 C   0  0  0  0  0  0  0  0  0  0  0  0
  -27.0939  -27.0887   19.5195 C   0  0  0  0  0  0  0  0  0  0  0  0
  -28.5624  -22.2436   20.4263 C   0  0  0  0  0  0  0  0  0  0  0  0
  -22.0934   -7.8215   25.4932 C   0  0  0  0  0  0  0  0  0  0  0  0
  -19.7912   -6.3320   24.9798 C   0  0  0  0  0  0  0  0  0  0  0  0
  -22.1561   -6.4283   25.4645 C   0  0  0  0  0  0  0  0  0  0  0  0
  -24.9265  -12.1692   21.8249 C   0  0  0  0  0  0  0  0  0  0  0  0
  -25.0098  -13.7247   20.2730 C   0  0  0  0  0  0  0  0  0  0  0  0
  -22.7152  -13.3099   21.1737 C   0  0  0  0  0  0  0  0  0  0  0  0
  -24.2063  -29.7421   23.2725 C   0  0  0  0  0  0  0  0  0  0  0  0
  -22.1894  -30.6777   20.9105 C   0  0  0  0  0  0  0  0  0  0  0  0
  -28.7944  -18.8605   17.7173 C   0  0  0  0  0  0  0  0  0  0  0  0
  -21.3636  -30.5859   17.6004 C   0  0  0  0  0  0  0  0  0  0  0  0
  -30.8953  -14.7753   20.6012 C   0  0  0  0  0  0  0  0  0  0  0  0
  -25.3191  -31.2030   28.0354 C   0  0  0  0  0  0  0  0  0  0  0  0
  -25.8204  -30.6553   21.5647 C   0  0  0  0  0  0  0  0  0  0  0  0
  -23.8285  -28.8479   20.3358 C   0  0  0  0  0  0  0  0  0  0  0  0
  -24.1049  -31.3094   27.1163 C   0  0  0  0  0  0  0  0  0  0  0  0
  -29.1648  -13.0850   17.9888 C   0  0  0  0  0  0  0  0  0  0  0  0
  -23.7879  -29.9545   26.4915 C   0  0  0  0  0  0  0  0  0  0  0  0
  -27.8103  -12.7404   18.6105 C   0  0  0  0  0  0  0  0  0  0  0  0
  -30.2974  -12.9758   19.0072 C   0  0  0  0  0  0  0  0  0  0  0  0
  -28.7390  -13.4058   20.8674 C   0  0  0  0  0  0  0  0  0  0  0  0
  -24.9544  -29.4585   25.6285 C   0  0  1  0  0  0  0  0  0  0  0  0
  -24.3758  -30.6021   22.0521 C   0  0  1  0  0  0  0  0  0  0  0  0
  -27.5582  -13.5559   19.8929 C   0  0  2  0  0  0  0  0  0  0  0  0
  -19.6403  -31.4165   15.9763 C   0  0  0  0  0  0  0  0  0  0  0  0
  -26.6612  -17.4460   16.0469 C   0  0  0  0  0  0  0  0  0  0  0  0
  -28.4292  -15.8644   15.2506 C   0  0  0  0  0  0  0  0  0  0  0  0
  -20.2178  -28.5877   21.9374 C   0  0  0  0  0  0  0  0  0  0  0  0
  -18.9789  -28.7934   19.7715 C   0  0  0  0  0  0  0  0  0  0  0  0
  -19.1808  -30.7674   21.2832 C   0  0  0  0  0  0  0  0  0  0  0  0
  -23.3853  -32.0849   16.0432 C   0  0  0  0  0  0  0  0  0  0  0  0
  -29.5265  -18.3383   21.8993 C   0  0  0  0  0  0  0  0  0  0  0  0
  -28.9620  -17.4733   17.1059 C   0  0  0  0  0  0  0  0  0  0  0  0
  -30.9918  -17.9169   21.6805 C   0  0  0  0  0  0  0  0  0  0  0  0
  -31.3498  -16.5546   22.2706 C   0  0  0  0  0  0  0  0  0  0  0  0
  -26.6060  -24.8509   18.8790 C   0  0  0  0  0  0  0  0  0  1  0  0
  -27.4131  -23.5684   18.8202 C   0  0  0  0  0  0  0  0  0  0  0  0
  -21.2105  -29.9761   20.0002 C   0  0  1  0  0  0  0  0  0  0  0  0
  -20.9890  -31.6870   16.6248 C   0  0  2  0  0  0  0  0  0  0  0  0
  -28.1626  -17.2630   15.8108 C   0  0  0  0  0  0  0  0  0  0  0  0
  -19.9246  -29.5243   20.7484 C   0  0  0  0  0  0  0  0  0  0  0  0
  -26.2165  -12.2337   21.4848 N   0  0  0  0  0  0  0  0  0  0  0  0
  -26.2352  -13.1883   20.5390 N   0  0  0  0  0  0  0  0  0  0  0  0
  -23.4551  -30.0879   21.0361 N   0  0  0  0  0  0  0  0  0  0  0  0
  -29.9970  -13.7733   20.1987 N   0  0  0  0  0  0  0  0  0  0  0  0
  -24.8488  -14.6961   19.3495 N   0  0  0  0  0  0  0  0  0  0  0  0
  -21.9579  -12.5554   22.0801 N   0  0  0  0  0  0  0  0  0  0  0  0
  -29.0068  -18.8319   19.1042 N   0  0  0  0  0  0  0  0  0  0  0  0
  -24.9671  -30.1437   24.3538 N   0  0  0  0  0  0  0  0  0  0  0  0
  -20.9653  -30.8854   18.8860 N   0  0  0  0  0  0  0  0  0  0  0  0
  -30.5316  -15.4885   21.7369 N   0  0  0  0  0  0  0  0  0  0  0  0
  -22.0143  -31.7966   15.5488 N   0  3  0  0  0  0  0  0  0  0  0  0
  -22.1390  -14.1514   20.4435 O   0  0  0  0  0  0  0  0  0  0  0  0
  -23.4407  -28.7860   23.2362 O   0  0  0  0  0  0  0  0  0  0  0  0
  -21.8460  -31.7149   21.4832 O   0  0  0  0  0  0  0  0  0  0  0  0
  -28.5340  -19.8466   17.0360 O   0  0  0  0  0  0  0  0  0  0  0  0
  -21.9477  -29.5609   17.2558 O   0  0  0  0  0  0  0  0  0  0  0  0
  -31.9413  -15.0200   19.9904 O   0  0  0  0  0  0  0  0  0  0  0  0
  -23.2352   -8.5623   25.7487 O   0  0  0  0  0  0  0  0  0  0  0  0
  -27.4987  -25.9642   18.8687 O   0  0  0  0  0  0  0  0  0  1  0  0
  -28.2548  -23.4963   19.9646 O   0  0  0  0  0  0  0  0  0  0  0  0
  -18.6854   -5.6169   24.7348 F   0  0  0  0  0  0  0  0  0  0  0  0
  -23.3191   -5.7998   25.6839 F   0  0  0  0  0  0  0  0  0  0  0  0
  1  2  1  0  0  0  0
  1  5  2  0  0  0  0
  2  6  2  0  0  0  0
  3  9  2  0  0  0  0
  3 18  1  0  0  0  0
  4 10  1  0  0  0  0
  4 18  2  0  0  0  0
  5 20  1  0  0  0  0
  6 22  1  0  0  0  0
  7 11  2  0  0  0  0
  7 21  1  0  0  0  0
  8 12  2  0  0  0  0
  8 24  1  0  0  0  0
  9 26  1  0  0  0  0
 10 26  2  0  0  0  0
 11 27  1  0  0  0  0
 12 28  1  0  0  0  0
 13 14  2  0  0  0  0
 13 29  1  0  0  0  0
 14 30  1  0  0  0  0
 15 23  1  0  0  0  0
 15 27  2  0  0  0  0
 16 25  1  0  0  0  0
 16 28  2  0  0  0  0
 17 30  2  0  0  0  0
 17 31  1  0  0  0  0
 18 32  1  0  0  0  0
 19 32  1  0  0  0  0
 19 33  2  0  0  0  0
 19 34  1  0  0  0  0
 20 22  2  0  0  0  0
 20 40  1  0  0  0  0
 21 23  2  0  0  0  0
 21 41  1  0  0  0  0
 22 49  1  0  0  0  0
 23 42  1  0  0  0  0
 24 25  2  0  0  0  0
 24 59  1  0  0  0  0
 25 75  1  0  0  0  0
 26 86  1  0  0  0  0
 27 87  1  0  0  0  0
 28 88  1  0  0  0  0
 29 31  2  0  0  0  0
 29 86  1  0  0  0  0
 30 89  1  0  0  0  0
 31 90  1  0  0  0  0
 32 69  2  0  0  0  0
 33 70  1  0  0  0  0
 33 73  1  0  0  0  0
 34 74  1  0  0  0  0
 34 80  2  0  0  0  0
 35 50  1  0  0  0  0
 35 76  1  0  0  0  0
 35 81  2  0  0  0  0
 36 65  1  0  0  0  0
 36 71  1  0  0  0  0
 36 82  2  0  0  0  0
 37 60  1  0  0  0  0
 37 75  1  0  0  0  0
 37 83  2  0  0  0  0
 38 66  1  0  0  0  0
 38 77  1  0  0  0  0
 38 84  2  0  0  0  0
 39 72  1  0  0  0  0
 39 78  1  0  0  0  0
 39 85  2  0  0  0  0
 40 43  1  0  0  0  0
 41 50  1  0  0  0  0
 42 71  1  0  0  0  0
 43 45  1  0  0  0  0
 44 46  1  0  0  0  0
 44 47  1  0  0  0  0
 45 49  1  0  0  0  0
 46 51  1  0  0  0  0
 47 72  1  0  0  0  0
 48 51  1  0  0  0  0
 48 72  1  0  0  0  0
 49 76  1  0  0  0  0
 50 71  1  0  0  0  0
 51 70  1  0  0  0  0
 52 66  1  0  0  0  0
 53 67  1  0  0  0  0
 54 67  1  0  0  0  0
 55 68  1  0  0  0  0
 56 68  1  0  0  0  0
 57 68  1  0  0  0  0
 58 79  1  0  0  0  0
 59 61  1  0  0  0  0
 60 67  1  0  0  0  0
 61 62  1  0  0  0  0
 62 78  1  0  0  0  0
 63 64  1  0  0  0  0
 63 87  1  0  0  0  0
 64 88  1  0  0  0  0
 65 68  1  0  0  0  0
 65 77  1  0  0  0  0
 66 79  1  0  0  0  0
 69 70  1  0  0  0  0
M  CHG  1  79   1
M  ISO  4  39 100  63 101  78 100  87 101
M  END
> <Batch ID>
0138

> <Smiles>
CNC(C)C(=O)NC(C(=O)N1Cc2cc([101O:1][101CH2:1]COc3ccc(CCC[100NH:0][100C:0](=O)N4CCCC(n5nc(-c6ccc(Oc7ccc(F)cc7F)cc6)c(C(N)=O)c5N)C4)c(NC(=O)CC(C)C)c3)ccc2CC1C(=O)NC1CCCc2ccccc21)C(C)(C)C

> <Shape>
0.309

> <Color>
0.148

> <Negative vol penalty>
0.000

$$$$

  -OEChem-04052321083D

 84 92  0     1  0  0  0  0  0999 V2000
  -24.7777  -23.1961   16.5768 C   0  0  0  0  0  0  0  0  0  0  0  0
  -25.5206  -22.5698   17.5724 C   0  0  0  0  0  0  0  0  0  0  0  0
  -23.3101   -9.7577   19.9898 C   0  0  0  0  0  0  0  0  0  0  0  0
  -23.7013  -10.0079   22.3607 C   0  0  0  0  0  0  0  0  0  0  0  0
  -24.1505  -24.4135   16.8382 C   0  0  0  0  0  0  0  0  0  0  0  0
  -25.6376  -23.1612   18.8297 C   0  0  0  0  0  0  0  0  0  0  0  0
  -24.9944  -19.8460   22.6034 C   0  0  0  0  0  0  0  0  0  0  0  0
  -22.5808   -8.5938   20.2329 C   0  0  0  0  0  0  0  0  0  0  0  0
  -22.9720   -8.8440   22.6039 C   0  0  0  0  0  0  0  0  0  0  0  0
  -26.0676  -19.0088   22.9053 C   0  0  0  0  0  0  0  0  0  0  0  0
  -19.7221   -7.9344   22.7820 C   0  0  0  0  0  0  0  0  0  0  0  0
  -18.7935   -7.9588   23.8225 C   0  0  0  0  0  0  0  0  0  0  0  0
  -26.6551  -20.4394   24.7566 C   0  0  0  0  0  0  0  0  0  0  0  0
  -19.9776   -6.1621   24.9213 C   0  0  0  0  0  0  0  0  0  0  0  0
  -23.8703  -10.4647   21.0537 C   0  0  0  0  0  0  0  0  0  0  0  0
  -24.1301  -12.9837   20.7458 C   0  0  0  0  0  0  0  0  0  0  0  0
  -24.2519  -25.0154   18.1023 C   0  0  0  0  0  0  0  0  0  0  0  0
  -24.7496  -20.9940   23.3706 C   0  0  0  0  0  0  0  0  0  0  0  0
  -25.0123  -24.3885   19.1079 C   0  0  0  0  0  0  0  0  0  0  0  0
  -25.5767  -21.2881   24.4640 C   0  0  0  0  0  0  0  0  0  0  0  0
  -22.4117   -8.1369   21.5400 C   0  0  0  0  0  0  0  0  0  0  0  0
  -26.8999  -19.3069   23.9802 C   0  0  0  0  0  0  0  0  0  0  0  0
  -20.7785   -7.0238   22.8111 C   0  0  0  0  0  0  0  0  0  0  0  0
  -18.9213   -7.0727   24.8922 C   0  0  0  0  0  0  0  0  0  0  0  0
  -20.9062   -6.1377   23.8807 C   0  0  0  0  0  0  0  0  0  0  0  0
  -24.6242  -11.6668   20.8031 C   0  0  0  0  0  0  0  0  0  0  0  0
  -25.2362  -13.7543   20.4829 C   0  0  0  0  0  0  0  0  0  0  0  0
  -30.3027  -17.2448   26.0017 C   0  0  0  0  0  0  0  0  0  0  0  0
  -22.7910  -13.4672   20.9153 C   0  0  0  0  0  0  0  0  0  0  0  0
  -24.6889  -24.1165   22.7786 C   0  0  0  0  0  0  0  0  0  0  0  0
  -23.6353  -24.2815   25.8421 C   0  0  0  0  0  0  0  0  0  0  0  0
  -23.4777  -22.8435   28.9331 C   0  0  0  0  0  0  0  0  0  0  0  0
  -31.0864  -12.9669   21.4860 C   0  0  0  0  0  0  0  0  0  0  0  0
  -23.5955  -26.3552   18.3232 C   0  0  0  0  0  0  0  0  0  0  0  0
  -23.5719  -21.8725   23.0483 C   0  0  0  0  0  0  0  0  0  0  0  0
  -25.3446  -22.4975   25.3312 C   0  0  0  0  0  0  0  0  0  0  0  0
  -30.4484  -16.0723   26.9420 C   0  0  0  0  0  0  0  0  0  0  0  0
  -23.4587  -26.7309   19.7965 C   0  0  0  0  0  0  0  0  0  0  0  0
  -29.5133  -13.5603   18.3475 C   0  0  0  0  0  0  0  0  0  0  0  0
  -24.7671  -26.4726   20.5370 C   0  0  0  0  0  0  0  0  0  0  0  0
  -28.0374  -13.2611   18.6158 C   0  0  0  0  0  0  0  0  0  0  0  0
  -30.4304  -12.6170   19.1230 C   0  0  0  0  0  0  0  0  0  0  0  0
  -28.7014  -12.2631   20.8433 C   0  0  0  0  0  0  0  0  0  0  0  0
  -25.1422  -24.9864   20.4920 C   0  0  1  0  0  0  0  0  0  0  0  0
  -23.7225  -23.2935   23.5826 C   0  0  1  0  0  0  0  0  0  0  0  0
  -29.9183  -14.8814   26.1320 C   0  0  2  0  0  0  0  0  0  0  0  0
  -27.7382  -13.2247   20.1266 C   0  0  2  0  0  0  0  0  0  0  0  0
  -30.2112  -15.2741   24.6769 C   0  0  2  0  0  0  0  0  0  0  0  0
  -26.4985  -13.0705   26.2126 C   0  0  0  0  0  0  0  0  0  0  0  0
  -22.5799  -23.2336   31.2438 C   0  0  0  0  0  0  0  0  0  0  0  0
  -25.8800  -26.2784   26.3746 C   0  0  0  0  0  0  0  0  0  0  0  0
  -25.5395  -25.9015   28.8261 C   0  0  0  0  0  0  0  0  0  0  0  0
  -23.6946  -26.8558   27.4446 C   0  0  0  0  0  0  0  0  0  0  0  0
  -21.7745  -20.4266   28.8049 C   0  0  0  0  0  0  0  0  0  0  0  0
  -28.4196  -14.6794   26.3683 C   0  0  0  0  0  0  0  0  0  0  0  0
  -31.5824  -14.7788   24.2220 C   0  0  0  0  0  0  0  0  0  0  0  0
  -27.9821  -13.2799   25.9545 C   0  0  0  0  0  0  0  0  0  0  0  0
  -30.0116  -17.5207   23.5145 C   0  0  0  0  0  0  0  0  0  0  0  0
  -31.5876  -13.2922   23.8948 C   0  0  0  0  0  0  0  0  0  0  0  0
  -28.5530  -17.7903   23.1909 C   0  0  0  0  0  0  0  0  0  1  0  0
  -24.2946  -24.4126   27.1938 C   0  0  1  0  0  0  0  0  0  0  0  0
  -22.3132  -22.6158   29.8800 C   0  0  2  0  0  0  0  0  0  0  0  0
  -24.8580  -25.8403   27.4425 C   0  0  0  0  0  0  0  0  0  0  0  0
  -25.9417  -11.6008   20.5932 N   0  0  0  0  0  0  0  0  0  0  0  0
  -26.2847  -12.8859   20.4014 N   0  0  0  0  0  0  0  0  0  0  0  0
  -30.1585  -16.7264   24.7173 N   0  0  0  0  0  0  0  0  0  0  0  0
  -24.1840  -23.3290   24.9718 N   0  0  0  0  0  0  0  0  0  0  0  0
  -30.0955  -12.6304   20.5491 N   0  0  0  0  0  0  0  0  0  0  0  0
  -25.4045  -15.0833   20.3156 N   0  0  0  0  0  0  0  0  0  0  0  0
  -21.7743  -12.5397   21.1802 N   0  0  0  0  0  0  0  0  0  0  0  0
  -24.3513  -24.2364   21.4440 N   0  0  0  0  0  0  0  0  0  0  0  0
  -23.3042  -23.9819   28.1746 N   0  0  0  0  0  0  0  0  0  0  0  0
  -30.6835  -12.9616   22.8158 N   0  0  0  0  0  0  0  0  0  0  0  0
  -22.0729  -21.1566   30.0639 N   0  3  0  0  0  0  0  0  0  0  0  0
  -30.3442  -18.4173   26.3438 O   0  0  0  0  0  0  0  0  0  0  0  0
  -22.5019  -14.6840   20.8179 O   0  0  0  0  0  0  0  0  0  0  0  0
  -25.6676  -24.6077   23.3287 O   0  0  0  0  0  0  0  0  0  0  0  0
  -22.6646  -24.9929   25.5712 O   0  0  0  0  0  0  0  0  0  0  0  0
  -24.4463  -22.0892   28.8750 O   0  0  0  0  0  0  0  0  0  0  0  0
  -32.2430  -13.2561   21.1611 O   0  0  0  0  0  0  0  0  0  0  0  0
  -21.7000   -7.0014   21.7777 O   0  0  0  0  0  0  0  0  0  0  0  0
  -27.9484  -18.4918   24.2767 O   0  0  0  0  0  0  0  0  0  1  0  0
  -18.0303   -7.0973   25.8921 F   0  0  0  0  0  0  0  0  0  0  0  0
  -21.9195   -5.2615   23.9148 F   0  0  0  0  0  0  0  0  0  0  0  0
  1  2  1  0  0  0  0
  1  5  2  0  0  0  0
  2  6  2  0  0  0  0
  3  8  2  0  0  0  0
  3 15  1  0  0  0  0
  4  9  1  0  0  0  0
  4 15  2  0  0  0  0
  5 17  1  0  0  0  0
  6 19  1  0  0  0  0
  7 10  2  0  0  0  0
  7 18  1  0  0  0  0
  8 21  1  0  0  0  0
  9 21  2  0  0  0  0
 10 22  1  0  0  0  0
 11 12  2  0  0  0  0
 11 23  1  0  0  0  0
 12 24  1  0  0  0  0
 13 20  1  0  0  0  0
 13 22  2  0  0  0  0
 14 24  2  0  0  0  0
 14 25  1  0  0  0  0
 15 26  1  0  0  0  0
 16 26  1  0  0  0  0
 16 27  2  0  0  0  0
 16 29  1  0  0  0  0
 17 19  2  0  0  0  0
 17 34  1  0  0  0  0
 18 20  2  0  0  0  0
 18 35  1  0  0  0  0
 19 44  1  0  0  0  0
 20 36  1  0  0  0  0
 21 81  1  0  0  0  0
 22 82  1  0  0  0  0
 23 25  2  0  0  0  0
 23 81  1  0  0  0  0
 24 83  1  0  0  0  0
 25 84  1  0  0  0  0
 26 64  2  0  0  0  0
 27 65  1  0  0  0  0
 27 69  1  0  0  0  0
 28 37  1  0  0  0  0
 28 66  1  0  0  0  0
 28 75  2  0  0  0  0
 29 70  1  0  0  0  0
 29 76  2  0  0  0  0
 30 45  1  0  0  0  0
 30 71  1  0  0  0  0
 30 77  2  0  0  0  0
 31 61  1  0  0  0  0
 31 67  1  0  0  0  0
 31 78  2  0  0  0  0
 32 62  1  0  0  0  0
 32 72  1  0  0  0  0
 32 79  2  0  0  0  0
 33 68  1  0  0  0  0
 33 73  1  0  0  0  0
 33 80  2  0  0  0  0
 34 38  1  0  0  0  0
 35 45  1  0  0  0  0
 36 67  1  0  0  0  0
 37 46  1  0  0  0  0
 38 40  1  0  0  0  0
 39 41  1  0  0  0  0
 39 42  1  0  0  0  0
 40 44  1  0  0  0  0
 41 47  1  0  0  0  0
 42 68  1  0  0  0  0
 43 47  1  0  0  0  0
 43 68  1  0  0  0  0
 44 71  1  0  0  0  0
 45 67  1  0  0  0  0
 46 48  1  0  0  0  0
 46 55  1  0  0  0  0
 47 65  1  0  0  0  0
 48 56  1  0  0  0  0
 48 66  1  0  0  0  0
 49 57  1  0  0  0  0
 50 62  1  0  0  0  0
 51 63  1  0  0  0  0
 52 63  1  0  0  0  0
 53 63  1  0  0  0  0
 54 74  1  0  0  0  0
 55 57  1  0  0  0  0
 56 59  1  0  0  0  0
 58 60  1  0  0  0  0
 58 66  1  0  0  0  0
 59 73  1  0  0  0  0
 60 82  1  0  0  0  0
 61 63  1  0  0  0  0
 61 72  1  0  0  0  0
 62 74  1  0  0  0  0
 64 65  1  0  0  0  0
M  CHG  1  74   1
M  ISO  4  33 100  60 101  73 100  82 101
M  END
> <Batch ID>
0138

> <Smiles>
CCCC1CC(=O)N(C[101CH2:1][101O:1]c2ccc3c(c2)CN(C(=O)C(NC(=O)C(C)NC)C(C)(C)C)C(C(=O)NC2CCCc4ccccc42)C3)C1CC[100NH:0][100C:0](=O)N1CCCC(n2nc(-c3ccc(Oc4ccc(F)cc4F)cc3)c(C(N)=O)c2N)C1

> <Shape>
0.145

> <Color>
0.172

> <Negative vol penalty>
0.000

$$$$

  -OEChem-04052321083D

 90 99  0     1  0  0  0  0  0999 V2000
  -34.6500  -23.7637   20.9455 C   0  0  0  0  0  0  0  0  0  0  0  0
  -33.6369  -23.3768   20.0740 C   0  0  0  0  0  0  0  0  0  0  0  0
  -23.2826   -9.8710   19.8904 C   0  0  0  0  0  0  0  0  0  0  0  0
  -23.7258   -9.9733   22.2632 C   0  0  0  0  0  0  0  0  0  0  0  0
  -34.3900  -24.7046   21.9410 C   0  0  0  0  0  0  0  0  0  0  0  0
  -32.3629  -23.9299   20.1982 C   0  0  0  0  0  0  0  0  0  0  0  0
  -30.3937  -25.2939   15.7365 C   0  0  0  0  0  0  0  0  0  0  0  0
  -23.1354  -19.6916   17.1249 C   0  0  0  0  0  0  0  0  0  0  0  0
  -23.9004  -19.9460   15.9866 C   0  0  0  0  0  0  0  0  0  0  0  0
  -22.5401   -8.7054   20.0793 C   0  0  0  0  0  0  0  0  0  0  0  0
  -22.9833   -8.8077   22.4521 C   0  0  0  0  0  0  0  0  0  0  0  0
  -29.8678  -24.2806   14.9362 C   0  0  0  0  0  0  0  0  0  0  0  0
  -19.7238   -7.9364   22.6447 C   0  0  0  0  0  0  0  0  0  0  0  0
  -18.8170   -7.9120   23.7043 C   0  0  0  0  0  0  0  0  0  0  0  0
  -24.8054  -18.1260   17.8975 C   0  0  0  0  0  0  0  0  0  0  0  0
  -27.6454  -24.8582   15.6755 C   0  0  0  0  0  0  0  0  0  0  0  0
  -19.9946   -6.0359   24.6688 C   0  0  0  0  0  0  0  0  0  0  0  0
  -23.8754  -10.5050   20.9824 C   0  0  0  0  0  0  0  0  0  0  0  0
  -24.1687  -13.0338   20.8195 C   0  0  0  0  0  0  0  0  0  0  0  0
  -33.1147  -25.2767   22.0713 C   0  0  0  0  0  0  0  0  0  0  0  0
  -29.5488  -26.0912   16.5221 C   0  0  0  0  0  0  0  0  0  0  0  0
  -32.0853  -24.8784   21.1972 C   0  0  0  0  0  0  0  0  0  0  0  0
  -25.5704  -18.3803   16.7592 C   0  0  0  0  0  0  0  0  0  0  0  0
  -28.1628  -25.8826   16.4830 C   0  0  0  0  0  0  0  0  0  0  0  0
  -23.5879  -18.7816   18.0803 C   0  0  0  0  0  0  0  0  0  0  0  0
  -25.1179  -19.2903   15.8038 C   0  0  0  0  0  0  0  0  0  0  0  0
  -22.3904   -8.1737   21.3601 C   0  0  0  0  0  0  0  0  0  0  0  0
  -28.4938  -24.0607   14.9078 C   0  0  0  0  0  0  0  0  0  0  0  0
  -20.7659   -7.0105   22.5971 C   0  0  0  0  0  0  0  0  0  0  0  0
  -18.9524   -6.9618   24.7164 C   0  0  0  0  0  0  0  0  0  0  0  0
  -20.9014   -6.0602   23.6092 C   0  0  0  0  0  0  0  0  0  0  0  0
  -24.6430  -11.7088   20.7878 C   0  0  0  0  0  0  0  0  0  0  0  0
  -25.2812  -13.8026   20.5794 C   0  0  0  0  0  0  0  0  0  0  0  0
  -22.8411  -13.5258   21.0458 C   0  0  0  0  0  0  0  0  0  0  0  0
  -29.2222  -26.6188   19.6395 C   0  0  0  0  0  0  0  0  0  0  0  0
  -27.0912  -28.8519   18.6424 C   0  0  0  0  0  0  0  0  0  0  0  0
  -24.9570  -29.9380   16.2108 C   0  0  0  0  0  0  0  0  0  0  0  0
  -29.9321  -14.9214   17.9276 C   0  0  0  0  0  0  0  0  0  0  0  0
  -32.8690  -26.2548   23.1928 C   0  0  0  0  0  0  0  0  0  0  0  0
  -30.1293  -27.1975   17.3596 C   0  0  0  0  0  0  0  0  0  0  0  0
  -27.2111  -26.7241   17.2920 C   0  0  0  0  0  0  0  0  0  0  0  0
  -31.5907  -27.0711   23.0200 C   0  0  0  0  0  0  0  0  0  0  0  0
  -30.1818  -12.5831   20.4618 C   0  0  0  0  0  0  0  0  0  0  0  0
  -30.4281  -26.1654   22.6266 C   0  0  0  0  0  0  0  0  0  0  0  0
  -28.7267  -12.2453   20.7868 C   0  0  0  0  0  0  0  0  0  0  0  0
  -27.8936  -18.0014   17.6963 C   0  0  0  0  0  0  0  0  0  0  0  0
  -26.7019  -16.1312   16.4784 C   0  0  0  0  0  0  0  0  0  0  0  0
  -30.3892  -12.7153   18.9571 C   0  0  0  0  0  0  0  0  0  0  0  0
  -29.2090  -17.2461   17.5213 C   0  0  0  0  0  0  0  0  0  0  0  0
  -28.0434  -15.4194   16.3294 C   0  0  0  0  0  0  0  0  0  0  0  0
  -28.0345  -13.3941   18.6269 C   0  0  0  0  0  0  0  0  0  0  0  0
  -26.8912  -17.6549   16.5819 C   0  0  0  0  0  0  0  0  0  0  0  0
  -30.6969  -25.4741   21.2844 C   0  0  1  0  0  0  0  0  0  0  0  0
  -29.2214  -27.6131   18.5130 C   0  0  1  0  0  0  0  0  0  0  0  0
  -27.7668  -13.2589   20.1392 C   0  0  1  0  0  0  0  0  0  0  0  0
  -21.3965  -17.8984   18.9586 C   0  0  0  0  0  0  0  0  0  0  0  0
  -22.5818  -19.7625   20.1731 C   0  0  0  0  0  0  0  0  0  0  0  0
  -23.3252  -31.7744   15.6985 C   0  0  0  0  0  0  0  0  0  0  0  0
  -28.7934  -19.4550   13.3847 C   0  0  0  0  0  0  0  0  0  0  0  0
  -25.0507  -27.5547   20.5035 C   0  0  0  0  0  0  0  0  0  0  0  0
  -23.2499  -28.7818   19.2707 C   0  0  0  0  0  0  0  0  0  0  0  0
  -25.0121  -30.0552   20.4938 C   0  0  0  0  0  0  0  0  0  0  0  0
  -26.5195  -30.8287   13.8605 C   0  0  0  0  0  0  0  0  0  0  0  0
  -25.9191  -19.5781   14.5766 C   0  0  0  0  0  0  0  0  0  0  0  0
  -28.8008  -21.9289   13.8993 C   0  0  0  0  0  0  0  0  0  1  0  0
  -22.7695  -18.5094   19.2970 C   0  0  0  0  0  0  0  0  0  0  0  0
  -25.6106  -28.8604   18.3476 C   0  0  1  0  0  0  0  0  0  0  0  0
  -24.7657  -31.3030   15.5746 C   0  0  2  0  0  0  0  0  0  0  0  0
  -27.9479  -20.6926   13.6383 C   0  0  2  0  0  0  0  0  0  0  0  0
  -24.7487  -28.7957   19.6400 C   0  0  0  0  0  0  0  0  0  0  0  0
  -25.9547  -11.6363   20.5464 N   0  0  0  0  0  0  0  0  0  0  0  0
  -26.3140  -12.9255   20.4242 N   0  0  0  0  0  0  0  0  0  0  0  0
  -27.8277  -27.7893   18.1000 N   0  0  0  0  0  0  0  0  0  0  0  0
  -29.4552  -13.6815   18.3794 N   0  0  0  0  0  0  0  0  0  0  0  0
  -28.9842  -15.8071   17.3892 N   0  0  0  0  0  0  0  0  0  0  0  0
  -25.4670  -15.1366   20.4879 N   0  0  0  0  0  0  0  0  0  0  0  0
  -21.8154  -12.5989   21.2766 N   0  0  0  0  0  0  0  0  0  0  0  0
  -30.4697  -26.3919   20.1887 N   0  0  0  0  0  0  0  0  0  0  0  0
  -25.3651  -30.0393   17.5240 N   0  0  0  0  0  0  0  0  0  0  0  0
  -25.1217  -31.2548   14.1283 N   0  3  0  0  0  0  0  0  0  0  0  0
  -27.1042  -20.4401   14.8358 N   0  3  0  0  0  0  0  0  0  0  0  0
  -22.5693  -14.7502   21.0272 O   0  0  0  0  0  0  0  0  0  0  0  0
  -28.1687  -26.0974   19.9859 O   0  0  0  0  0  0  0  0  0  0  0  0
  -27.5775  -29.7587   19.3227 O   0  0  0  0  0  0  0  0  0  0  0  0
  -24.7601  -28.8871   15.6047 O   0  0  0  0  0  0  0  0  0  0  0  0
  -31.1295  -15.2234   18.0046 O   0  0  0  0  0  0  0  0  0  0  0  0
  -21.6658   -7.0365   21.5448 O   0  0  0  0  0  0  0  0  0  0  0  0
  -27.9745  -23.0653   14.1226 O   0  0  0  0  0  0  0  0  0  1  0  0
  -18.0825   -6.9395   25.7346 F   0  0  0  0  0  0  0  0  0  0  0  0
  -21.9012   -5.1689   23.5695 F   0  0  0  0  0  0  0  0  0  0  0  0
  1  2  1  0  0  0  0
  1  5  2  0  0  0  0
  2  6  2  0  0  0  0
  3 10  2  0  0  0  0
  3 18  1  0  0  0  0
  4 11  1  0  0  0  0
  4 18  2  0  0  0  0
  5 20  1  0  0  0  0
  6 22  1  0  0  0  0
  7 12  2  0  0  0  0
  7 21  1  0  0  0  0
  8  9  2  0  0  0  0
  8 25  1  0  0  0  0
  9 26  1  0  0  0  0
 10 27  1  0  0  0  0
 11 27  2  0  0  0  0
 12 28  1  0  0  0  0
 13 14  2  0  0  0  0
 13 29  1  0  0  0  0
 14 30  1  0  0  0  0
 15 23  1  0  0  0  0
 15 25  2  0  0  0  0
 16 24  1  0  0  0  0
 16 28  2  0  0  0  0
 17 30  2  0  0  0  0
 17 31  1  0  0  0  0
 18 32  1  0  0  0  0
 19 32  1  0  0  0  0
 19 33  2  0  0  0  0
 19 34  1  0  0  0  0
 20 22  2  0  0  0  0
 20 39  1  0  0  0  0
 21 24  2  0  0  0  0
 21 40  1  0  0  0  0
 22 53  1  0  0  0  0
 23 26  2  0  0  0  0
 23 52  1  0  0  0  0
 24 41  1  0  0  0  0
 25 66  1  0  0  0  0
 26 64  1  0  0  0  0
 27 87  1  0  0  0  0
 28 88  1  0  0  0  0
 29 31  2  0  0  0  0
 29 87  1  0  0  0  0
 30 89  1  0  0  0  0
 31 90  1  0  0  0  0
 32 71  2  0  0  0  0
 33 72  1  0  0  0  0
 33 76  1  0  0  0  0
 34 77  1  0  0  0  0
 34 82  2  0  0  0  0
 35 54  1  0  0  0  0
 35 78  1  0  0  0  0
 35 83  2  0  0  0  0
 36 67  1  0  0  0  0
 36 73  1  0  0  0  0
 36 84  2  0  0  0  0
 37 68  1  0  0  0  0
 37 79  1  0  0  0  0
 37 85  2  0  0  0  0
 38 74  1  0  0  0  0
 38 75  1  0  0  0  0
 38 86  2  0  0  0  0
 39 42  1  0  0  0  0
 40 54  1  0  0  0  0
 41 73  1  0  0  0  0
 42 44  1  0  0  0  0
 43 45  1  0  0  0  0
 43 48  1  0  0  0  0
 44 53  1  0  0  0  0
 45 55  1  0  0  0  0
 46 49  1  0  0  0  0
 46 52  1  0  0  0  0
 47 50  1  0  0  0  0
 47 52  1  0  0  0  0
 48 74  1  0  0  0  0
 49 75  1  0  0  0  0
 50 75  1  0  0  0  0
 51 55  1  0  0  0  0
 51 74  1  0  0  0  0
 53 78  1  0  0  0  0
 54 73  1  0  0  0  0
 55 72  1  0  0  0  0
 56 66  1  0  0  0  0
 57 66  1  0  0  0  0
 58 68  1  0  0  0  0
 59 69  1  0  0  0  0
 60 70  1  0  0  0  0
 61 70  1  0  0  0  0
 62 70  1  0  0  0  0
 63 80  1  0  0  0  0
 64 81  1  0  0  0  0
 65 69  1  0  0  0  0
 65 88  1  0  0  0  0
 67 70  1  0  0  0  0
 67 79  1  0  0  0  0
 68 80  1  0  0  0  0
 69 81  1  0  0  0  0
 71 72  1  0  0  0  0
M  CHG  2  80   1  81   1
M  ISO  4  38 100  65 101  75 100  88 101
M  END
> <Batch ID>
0138

> <Smiles>
CNC(C)C(=O)NC(C(=O)N1Cc2cc([101O:1][101CH2:1]C(C)NCc3ccc(C(C)C)cc3C3CC[100N:0]([100C:0](=O)N4CCCC(n5nc(-c6ccc(Oc7ccc(F)cc7F)cc6)c(C(N)=O)c5N)C4)CC3)ccc2CC1C(=O)NC1CCCc2ccccc21)C(C)(C)C

> <Shape>
0.195

> <Color>
0.184

> <Negative vol penalty>
0.000

$$$$

  -OEChem-04052321083D

 87 96  0     1  0  0  0  0  0999 V2000
  -32.0877  -14.5474   20.9722 C   0  0  0  0  0  0  0  0  0  0  0  0
  -31.2728  -15.6655   21.1176 C   0  0  0  0  0  0  0  0  0  0  0  0
  -30.0777  -23.9662   19.3229 C   0  0  0  0  0  0  0  0  0  0  0  0
  -27.7191  -23.4431   19.3510 C   0  0  0  0  0  0  0  0  0  0  0  0
  -31.5531  -13.3552   20.4854 C   0  0  0  0  0  0  0  0  0  0  0  0
  -29.9230  -15.5924   20.7753 C   0  0  0  0  0  0  0  0  0  0  0  0
  -26.9208  -17.7434   24.2400 C   0  0  0  0  0  0  0  0  0  0  0  0
  -23.9398  -27.1246   24.9026 C   0  0  0  0  0  0  0  0  0  0  0  0
  -30.3784  -22.6226   19.5461 C   0  0  0  0  0  0  0  0  0  0  0  0
  -28.0198  -22.0994   19.5742 C   0  0  0  0  0  0  0  0  0  0  0  0
  -26.8390  -19.1352   24.2358 C   0  0  0  0  0  0  0  0  0  0  0  0
  -24.0296  -25.7328   24.9170 C   0  0  0  0  0  0  0  0  0  0  0  0
  -30.5305  -19.7702   17.7367 C   0  0  0  0  0  0  0  0  0  0  0  0
  -31.5418  -19.1957   16.9668 C   0  0  0  0  0  0  0  0  0  0  0  0
  -24.7463  -19.0027   23.0432 C   0  0  0  0  0  0  0  0  0  0  0  0
  -21.9121  -25.5843   23.7631 C   0  0  0  0  0  0  0  0  0  0  0  0
  -32.7876  -18.6964   18.9757 C   0  0  0  0  0  0  0  0  0  0  0  0
  -28.7480  -24.3765   19.2254 C   0  0  0  0  0  0  0  0  0  0  0  0
  -28.2795  -26.4056   17.7521 C   0  0  0  0  0  0  0  0  0  0  0  0
  -30.1940  -13.2647   20.1460 C   0  0  0  0  0  0  0  0  0  0  0  0
  -25.9196  -16.9698   23.6353 C   0  0  0  0  0  0  0  0  0  0  0  0
  -29.3701  -14.3983   20.2822 C   0  0  0  0  0  0  0  0  0  0  0  0
  -24.8164  -17.6012   23.0434 C   0  0  0  0  0  0  0  0  0  0  0  0
  -21.8223  -26.9762   23.7488 C   0  0  0  0  0  0  0  0  0  0  0  0
  -22.8362  -27.7464   24.3186 C   0  0  0  0  0  0  0  0  0  0  0  0
  -29.3495  -21.6892   19.6717 C   0  0  0  0  0  0  0  0  0  0  0  0
  -25.7532  -19.7651   23.6348 C   0  0  0  0  0  0  0  0  0  0  0  0
  -23.0158  -24.9626   24.3472 C   0  0  0  0  0  0  0  0  0  0  0  0
  -30.6478  -19.8079   19.1262 C   0  0  0  0  0  0  0  0  0  0  0  0
  -32.6703  -18.6588   17.5862 C   0  0  0  0  0  0  0  0  0  0  0  0
  -31.7763  -19.2710   19.7456 C   0  0  0  0  0  0  0  0  0  0  0  0
  -28.4367  -25.7644   18.9954 C   0  0  0  0  0  0  0  0  0  0  0  0
  -27.9931  -27.7102   18.0724 C   0  0  0  0  0  0  0  0  0  0  0  0
  -28.3829  -25.8699   16.4262 C   0  0  0  0  0  0  0  0  0  0  0  0
  -25.8324  -14.9038   21.2212 C   0  0  0  0  0  0  0  0  0  0  0  0
  -22.7708  -14.4798   22.2060 C   0  0  0  0  0  0  0  0  0  0  0  0
  -20.0525  -15.7391   23.8404 C   0  0  0  0  0  0  0  0  0  0  0  0
  -25.5842  -30.2863   22.9110 C   0  0  0  0  0  0  0  0  0  0  0  0
  -29.6721  -11.9682   19.5792 C   0  0  0  0  0  0  0  0  0  0  0  0
  -26.0091  -15.4688   23.6719 C   0  0  0  0  0  0  0  0  0  0  0  0
  -23.7050  -16.8156   22.3984 C   0  0  0  0  0  0  0  0  0  0  0  0
  -28.1490  -11.8668   19.5928 C   0  0  0  0  0  0  0  0  0  0  0  0
  -18.2860  -27.1766   22.6389 C   0  0  0  0  0  0  0  0  0  0  0  0
  -19.1006  -26.6000   21.4948 C   0  0  0  0  0  0  0  0  0  0  0  0
  -28.7646  -30.9872   21.4719 C   0  0  0  0  0  0  0  0  0  0  0  0
  -19.2895  -27.2336   23.7807 C   0  0  0  0  0  0  0  0  0  0  0  0
  -20.4456  -27.3076   21.6142 C   0  0  0  0  0  0  0  0  0  0  0  0
  -27.5236  -13.1533   19.0631 C   0  0  0  0  0  0  0  0  0  0  0  0
  -29.0270  -29.7860   20.5619 C   0  0  0  0  0  0  0  0  0  0  0  0
  -28.0391  -30.5778   22.7518 C   0  0  0  0  0  0  0  0  0  0  0  0
  -27.0559  -28.6153   21.6310 C   0  0  0  0  0  0  0  0  0  0  0  0
  -20.6200  -27.6256   23.1132 C   0  0  0  0  0  0  0  0  0  0  0  0
  -27.8956  -14.3514   19.9450 C   0  0  1  0  0  0  0  0  0  0  0  0
  -25.1904  -14.7945   22.5753 C   0  0  1  0  0  0  0  0  0  0  0  0
  -27.7359  -28.9867   20.3021 C   0  0  2  0  0  0  0  0  0  0  0  0
  -17.6835  -15.1760   24.4473 C   0  0  0  0  0  0  0  0  0  0  0  0
  -21.9003  -15.0651   19.3408 C   0  0  0  0  0  0  0  0  0  0  0  0
  -19.5749  -15.4270   20.1951 C   0  0  0  0  0  0  0  0  0  0  0  0
  -20.6609  -13.1953   20.4464 C   0  0  0  0  0  0  0  0  0  0  0  0
  -20.6352  -15.8950   26.7378 C   0  0  0  0  0  0  0  0  0  0  0  0
  -22.7623  -29.2380   24.3154 C   0  0  0  0  0  0  0  0  0  0  0  0
  -23.1389  -29.8667   22.9694 C   0  0  0  0  0  0  0  0  0  0  0  0
  -24.3639  -21.6954   23.6313 C   0  0  0  0  0  0  0  0  0  1  0  0
  -24.4117  -23.0372   24.3360 C   0  0  0  0  0  0  0  0  0  0  0  0
  -21.4445  -15.1237   21.8814 C   0  0  1  0  0  0  0  0  0  0  0  0
  -19.1379  -15.1330   24.8896 C   0  0  2  0  0  0  0  0  0  0  0  0
  -20.9169  -14.7179   20.4763 C   0  0  0  0  0  0  0  0  0  0  0  0
  -28.2647  -26.5933   20.0285 N   0  0  0  0  0  0  0  0  0  0  0  0
  -27.9964  -27.7688   19.4350 N   0  0  0  0  0  0  0  0  0  0  0  0
  -23.8412  -15.3507   22.4544 N   0  0  0  0  0  0  0  0  0  0  0  0
  -26.8228  -29.8248   22.4357 N   0  0  0  0  0  0  0  0  0  0  0  0
  -27.7413  -28.8014   17.3186 N   0  0  0  0  0  0  0  0  0  0  0  0
  -28.6837  -24.5092   16.2770 N   0  0  0  0  0  0  0  0  0  0  0  0
  -27.0992  -14.3561   21.1534 N   0  0  0  0  0  0  0  0  0  0  0  0
  -20.5457  -14.7824   22.9787 N   0  0  0  0  0  0  0  0  0  0  0  0
  -24.4812  -29.5174   22.5607 N   0  0  0  0  0  0  0  0  0  0  0  0
  -19.2604  -15.8764   26.1753 N   0  3  0  0  0  0  0  0  0  0  0  0
  -28.2298  -26.5806   15.4039 O   0  0  0  0  0  0  0  0  0  0  0  0
  -25.2229  -15.4437   20.3054 O   0  0  0  0  0  0  0  0  0  0  0  0
  -22.8524  -13.2496   22.2450 O   0  0  0  0  0  0  0  0  0  0  0  0
  -20.3012  -16.9416   23.7881 O   0  0  0  0  0  0  0  0  0  0  0  0
  -25.4692  -31.3108   23.5922 O   0  0  0  0  0  0  0  0  0  0  0  0
  -29.6425  -20.3779   19.8892 O   0  0  0  0  0  0  0  0  0  0  0  0
  -25.6713  -21.1235   23.6287 O   0  0  0  0  0  0  0  0  0  1  0  0
  -23.1036  -23.5954   24.3616 O   0  0  0  0  0  0  0  0  0  0  0  0
  -33.6407  -18.1057   16.8468 F   0  0  0  0  0  0  0  0  0  0  0  0
  -31.8941  -19.3032   21.0801 F   0  0  0  0  0  0  0  0  0  0  0  0
  1  2  1  0  0  0  0
  1  5  2  0  0  0  0
  2  6  2  0  0  0  0
  3  9  2  0  0  0  0
  3 18  1  0  0  0  0
  4 10  1  0  0  0  0
  4 18  2  0  0  0  0
  5 20  1  0  0  0  0
  6 22  1  0  0  0  0
  7 11  2  0  0  0  0
  7 21  1  0  0  0  0
  8 12  2  0  0  0  0
  8 25  1  0  0  0  0
  9 26  1  0  0  0  0
 10 26  2  0  0  0  0
 11 27  1  0  0  0  0
 12 28  1  0  0  0  0
 13 14  2  0  0  0  0
 13 29  1  0  0  0  0
 14 30  1  0  0  0  0
 15 23  1  0  0  0  0
 15 27  2  0  0  0  0
 16 24  1  0  0  0  0
 16 28  2  0  0  0  0
 17 30  2  0  0  0  0
 17 31  1  0  0  0  0
 18 32  1  0  0  0  0
 19 32  1  0  0  0  0
 19 33  2  0  0  0  0
 19 34  1  0  0  0  0
 20 22  2  0  0  0  0
 20 39  1  0  0  0  0
 21 23  2  0  0  0  0
 21 40  1  0  0  0  0
 22 53  1  0  0  0  0
 23 41  1  0  0  0  0
 24 25  2  0  0  0  0
 24 52  1  0  0  0  0
 25 61  1  0  0  0  0
 26 83  1  0  0  0  0
 27 84  1  0  0  0  0
 28 85  1  0  0  0  0
 29 31  2  0  0  0  0
 29 83  1  0  0  0  0
 30 86  1  0  0  0  0
 31 87  1  0  0  0  0
 32 68  2  0  0  0  0
 33 69  1  0  0  0  0
 33 72  1  0  0  0  0
 34 73  1  0  0  0  0
 34 78  2  0  0  0  0
 35 54  1  0  0  0  0
 35 74  1  0  0  0  0
 35 79  2  0  0  0  0
 36 65  1  0  0  0  0
 36 70  1  0  0  0  0
 36 80  2  0  0  0  0
 37 66  1  0  0  0  0
 37 75  1  0  0  0  0
 37 81  2  0  0  0  0
 38 71  1  0  0  0  0
 38 76  1  0  0  0  0
 38 82  2  0  0  0  0
 39 42  1  0  0  0  0
 40 54  1  0  0  0  0
 41 70  1  0  0  0  0
 42 48  1  0  0  0  0
 43 44  1  0  0  0  0
 43 46  1  0  0  0  0
 44 47  1  0  0  0  0
 45 49  1  0  0  0  0
 45 50  1  0  0  0  0
 46 52  1  0  0  0  0
 47 52  1  0  0  0  0
 48 53  1  0  0  0  0
 49 55  1  0  0  0  0
 50 71  1  0  0  0  0
 51 55  1  0  0  0  0
 51 71  1  0  0  0  0
 53 74  1  0  0  0  0
 54 70  1  0  0  0  0
 55 69  1  0  0  0  0
 56 66  1  0  0  0  0
 57 67  1  0  0  0  0
 58 67  1  0  0  0  0
 59 67  1  0  0  0  0
 60 77  1  0  0  0  0
 61 62  1  0  0  0  0
 62 76  1  0  0  0  0
 63 64  1  0  0  0  0
 63 84  1  0  0  0  0
 64 85  1  0  0  0  0
 65 67  1  0  0  0  0
 65 75  1  0  0  0  0
 66 77  1  0  0  0  0
 68 69  1  0  0  0  0
M  CHG  1  77   1
M  ISO  4  38 100  63 101  76 100  84 101
M  END
> <Batch ID>
0138

> <Smiles>
CNC(C)C(=O)NC(C(=O)N1Cc2cc([101O:1][101CH2:1]COc3ccc(CC[100NH:0][100C:0](=O)N4CCCC(n5nc(-c6ccc(Oc7ccc(F)cc7F)cc6)c(C(N)=O)c5N)C4)c(C4CCCC4)c3)ccc2CC1C(=O)NC1CCCc2ccccc21)C(C)(C)C

> <Shape>
0.212

> <Color>
0.085

> <Negative vol penalty>
0.000

$$$$

  -OEChem-04052321083D

 88 97  0     1  0  0  0  0  0999 V2000
  -29.2100  -32.4519   23.1882 C   0  0  0  0  0  0  0  0  0  0  0  0
  -28.8442  -31.2770   22.5391 C   0  0  0  0  0  0  0  0  0  0  0  0
  -23.0340   -9.9430   19.9472 C   0  0  0  0  0  0  0  0  0  0  0  0
  -23.8276   -9.9004   22.2288 C   0  0  0  0  0  0  0  0  0  0  0  0
  -28.3745  -32.9984   24.1614 C   0  0  0  0  0  0  0  0  0  0  0  0
  -27.6431  -30.6474   22.8637 C   0  0  0  0  0  0  0  0  0  0  0  0
  -25.0641  -29.1540   18.7694 C   0  0  0  0  0  0  0  0  0  0  0  0
  -22.2737   -8.7991   20.1903 C   0  0  0  0  0  0  0  0  0  0  0  0
  -23.0672   -8.7565   22.4719 C   0  0  0  0  0  0  0  0  0  0  0  0
  -25.4948  -27.9894   18.1353 C   0  0  0  0  0  0  0  0  0  0  0  0
  -19.8347   -8.0056   23.1102 C   0  0  0  0  0  0  0  0  0  0  0  0
  -19.0944   -7.9603   24.2915 C   0  0  0  0  0  0  0  0  0  0  0  0
  -23.7425  -26.7493   19.2358 C   0  0  0  0  0  0  0  0  0  0  0  0
  -25.9577  -24.5550   19.7798 C   0  0  0  0  0  0  0  0  0  0  0  0
  -24.8644  -23.2892   18.0364 C   0  0  0  0  0  0  0  0  0  0  0  0
  -20.3122   -5.9901   24.9790 C   0  0  0  0  0  0  0  0  0  0  0  0
  -23.8111  -10.4936   20.9665 C   0  0  0  0  0  0  0  0  0  0  0  0
  -24.1956  -13.0140   20.8807 C   0  0  0  0  0  0  0  0  0  0  0  0
  -27.1580  -32.3804   24.4913 C   0  0  0  0  0  0  0  0  0  0  0  0
  -23.9743  -29.1228   19.6513 C   0  0  0  0  0  0  0  0  0  0  0  0
  -26.7912  -31.1855   23.8432 C   0  0  0  0  0  0  0  0  0  0  0  0
  -23.2983  -27.9153   19.8778 C   0  0  0  0  0  0  0  0  0  0  0  0
  -26.0628  -23.3990   20.5532 C   0  0  0  0  0  0  0  0  0  0  0  0
  -24.9694  -22.1332   18.8099 C   0  0  0  0  0  0  0  0  0  0  0  0
  -25.5686  -22.1881   20.0683 C   0  0  0  0  0  0  0  0  0  0  0  0
  -22.2902   -8.2059   21.4526 C   0  0  0  0  0  0  0  0  0  0  0  0
  -24.8358  -26.7863   18.3707 C   0  0  0  0  0  0  0  0  0  0  0  0
  -20.8136   -7.0431   22.8632 C   0  0  0  0  0  0  0  0  0  0  0  0
  -25.3585  -24.5001   18.5214 C   0  0  0  0  0  0  0  0  0  1  0  0
  -19.3332   -6.9525   25.2259 C   0  0  0  0  0  0  0  0  0  0  0  0
  -21.0524   -6.0354   23.7976 C   0  0  0  0  0  0  0  0  0  0  0  0
  -24.5971  -11.6748   20.7158 C   0  0  0  0  0  0  0  0  0  0  0  0
  -25.2953  -13.7500   20.5128 C   0  0  0  0  0  0  0  0  0  0  0  0
  -22.9407  -13.5451   21.3266 C   0  0  0  0  0  0  0  0  0  0  0  0
  -23.5716  -29.7451   22.7423 C   0  0  0  0  0  0  0  0  0  0  0  0
  -20.4425  -29.2705   22.0309 C   0  0  0  0  0  0  0  0  0  0  0  0
  -18.1231  -27.8423   19.9748 C   0  0  0  0  0  0  0  0  0  0  0  0
  -30.7984  -14.6703   20.6349 C   0  0  0  0  0  0  0  0  0  0  0  0
  -26.3103  -32.9830   25.5835 C   0  0  0  0  0  0  0  0  0  0  0  0
  -23.5053  -30.3928   20.3068 C   0  0  0  0  0  0  0  0  0  0  0  0
  -22.1104  -27.8324   20.7999 C   0  0  0  0  0  0  0  0  0  0  0  0
  -24.8775  -32.4568   25.6029 C   0  0  0  0  0  0  0  0  0  0  0  0
  -29.5839  -12.3441   18.2285 C   0  0  0  0  0  0  0  0  0  0  0  0
  -24.8654  -30.9365   25.4788 C   0  0  0  0  0  0  0  0  0  0  0  0
  -28.1480  -12.0686   18.6783 C   0  0  0  0  0  0  0  0  0  0  0  0
  -28.8650  -19.2076   19.6895 C   0  0  0  0  0  0  0  0  0  0  0  0
  -28.7547  -19.0839   22.2030 C   0  0  0  0  0  0  0  0  0  0  0  0
  -30.5223  -12.5298   19.4188 C   0  0  0  0  0  0  0  0  0  0  0  0
  -28.6544  -13.2718   20.8450 C   0  0  0  0  0  0  0  0  0  0  0  0
  -27.4086  -19.6502   19.6538 C   0  0  0  0  0  0  0  0  0  0  0  0
  -27.2988  -19.5269   22.1544 C   0  0  0  0  0  0  0  0  0  0  0  0
  -25.4845  -30.4865   24.1500 C   0  0  1  0  0  0  0  0  0  0  0  0
  -22.7053  -30.1468   21.5822 C   0  0  1  0  0  0  0  0  0  0  0  0
  -29.1678  -18.3485   20.9227 C   0  0  0  0  0  0  0  0  0  0  0  0
  -27.6601  -13.1329   19.6795 C   0  0  2  0  0  0  0  0  0  0  0  0
  -26.7085  -23.4845   21.8975 C   0  0  0  0  0  0  0  0  0  0  0  0
  -24.4325  -20.8493   18.2672 C   0  0  0  0  0  0  0  0  0  0  0  0
  -15.6440  -27.6004   19.6698 C   0  0  0  0  0  0  0  0  0  0  0  0
  -20.3642  -27.2341   24.3018 C   0  0  0  0  0  0  0  0  0  0  0  0
  -18.2168  -26.3634   23.3538 C   0  0  0  0  0  0  0  0  0  0  0  0
  -18.3568  -28.7191   24.1626 C   0  0  0  0  0  0  0  0  0  0  0  0
  -18.2011  -29.1746   17.3333 C   0  0  0  0  0  0  0  0  0  0  0  0
  -25.6817  -20.9484   20.8976 C   0  0  0  0  0  0  0  0  0  0  0  0
  -30.6463  -17.9688   20.9688 C   0  0  0  0  0  0  0  0  0  0  0  0
  -30.9204  -16.7995   21.9040 C   0  0  0  0  0  0  0  0  0  0  0  0
  -19.5197  -28.0759   22.0118 C   0  0  1  0  0  0  0  0  0  0  0  0
  -16.8811  -28.4087   19.3106 C   0  0  2  0  0  0  0  0  0  0  0  0
  -19.1379  -27.5990   23.4416 C   0  0  0  0  0  0  0  0  0  0  0  0
  -25.8538  -11.5636   20.2772 N   0  0  0  0  0  0  0  0  0  0  0  0
  -26.2514  -12.8423   20.1633 N   0  0  0  0  0  0  0  0  0  0  0  0
  -21.6939  -29.1001   21.4220 N   0  0  0  0  0  0  0  0  0  0  0  0
  -30.0031  -13.5536   20.3289 N   0  0  0  0  0  0  0  0  0  0  0  0
  -25.5281  -15.0786   20.4575 N   0  0  0  0  0  0  0  0  0  0  0  0
  -21.9180  -12.6485   21.6648 N   0  0  0  0  0  0  0  0  0  0  0  0
  -24.5441  -30.6719   23.0658 N   0  0  0  0  0  0  0  0  0  0  0  0
  -18.3797  -28.4539   21.1837 N   0  0  0  0  0  0  0  0  0  0  0  0
  -30.2282  -15.5959   21.5002 N   0  0  0  0  0  0  0  0  0  0  0  0
  -27.0746  -20.3821   20.9310 N   0  3  0  0  0  0  0  0  0  0  0  0
  -17.0357  -28.3976   17.8284 N   0  3  0  0  0  0  0  0  0  0  0  0
  -22.7271  -14.7786   21.4067 O   0  0  0  0  0  0  0  0  0  0  0  0
  -23.3714  -28.6742   23.3035 O   0  0  0  0  0  0  0  0  0  0  0  0
  -20.0641  -30.3185   22.5602 O   0  0  0  0  0  0  0  0  0  0  0  0
  -18.7961  -26.9445   19.4734 O   0  0  0  0  0  0  0  0  0  0  0  0
  -31.9305  -14.8331   20.1671 O   0  0  0  0  0  0  0  0  0  0  0  0
  -21.5482   -7.0899   21.6902 O   0  0  0  0  0  0  0  0  0  0  0  0
  -25.2546  -25.6480   17.7536 O   0  0  0  0  0  0  0  0  0  1  0  0
  -18.6233   -6.9100   26.3610 F   0  0  0  0  0  0  0  0  0  0  0  0
  -21.9924   -5.1086   23.5664 F   0  0  0  0  0  0  0  0  0  0  0  0
  1  2  1  0  0  0  0
  1  5  2  0  0  0  0
  2  6  2  0  0  0  0
  3  8  2  0  0  0  0
  3 17  1  0  0  0  0
  4  9  1  0  0  0  0
  4 17  2  0  0  0  0
  5 19  1  0  0  0  0
  6 21  1  0  0  0  0
  7 10  2  0  0  0  0
  7 20  1  0  0  0  0
  8 26  1  0  0  0  0
  9 26  2  0  0  0  0
 10 27  1  0  0  0  0
 11 12  2  0  0  0  0
 11 28  1  0  0  0  0
 12 30  1  0  0  0  0
 13 22  1  0  0  0  0
 13 27  2  0  0  0  0
 14 23  2  0  0  0  0
 14 29  1  0  0  0  0
 15 24  1  0  0  0  0
 15 29  2  0  0  0  0
 16 30  2  0  0  0  0
 16 31  1  0  0  0  0
 17 32  1  0  0  0  0
 18 32  1  0  0  0  0
 18 33  2  0  0  0  0
 18 34  1  0  0  0  0
 19 21  2  0  0  0  0
 19 39  1  0  0  0  0
 20 22  2  0  0  0  0
 20 40  1  0  0  0  0
 21 52  1  0  0  0  0
 22 41  1  0  0  0  0
 23 25  1  0  0  0  0
 23 56  1  0  0  0  0
 24 25  2  0  0  0  0
 24 57  1  0  0  0  0
 25 63  1  0  0  0  0
 26 85  1  0  0  0  0
 27 86  1  0  0  0  0
 28 31  2  0  0  0  0
 28 85  1  0  0  0  0
 29 86  1  0  0  0  0
 30 87  1  0  0  0  0
 31 88  1  0  0  0  0
 32 69  2  0  0  0  0
 33 70  1  0  0  0  0
 33 73  1  0  0  0  0
 34 74  1  0  0  0  0
 34 80  2  0  0  0  0
 35 53  1  0  0  0  0
 35 75  1  0  0  0  0
 35 81  2  0  0  0  0
 36 66  1  0  0  0  0
 36 71  1  0  0  0  0
 36 82  2  0  0  0  0
 37 67  1  0  0  0  0
 37 76  1  0  0  0  0
 37 83  2  0  0  0  0
 38 72  1  0  0  0  0
 38 77  1  0  0  0  0
 38 84  2  0  0  0  0
 39 42  1  0  0  0  0
 40 53  1  0  0  0  0
 41 71  1  0  0  0  0
 42 44  1  0  0  0  0
 43 45  1  0  0  0  0
 43 48  1  0  0  0  0
 44 52  1  0  0  0  0
 45 55  1  0  0  0  0
 46 50  1  0  0  0  0
 46 54  1  0  0  0  0
 47 51  1  0  0  0  0
 47 54  1  0  0  0  0
 48 72  1  0  0  0  0
 49 55  1  0  0  0  0
 49 72  1  0  0  0  0
 50 78  1  0  0  0  0
 51 78  1  0  0  0  0
 52 75  1  0  0  0  0
 53 71  1  0  0  0  0
 54 64  1  0  0  0  0
 55 70  1  0  0  0  0
 58 67  1  0  0  0  0
 59 68  1  0  0  0  0
 60 68  1  0  0  0  0
 61 68  1  0  0  0  0
 62 79  1  0  0  0  0
 63 78  1  0  0  0  0
 64 65  1  0  0  0  0
 65 77  1  0  0  0  0
 66 68  1  0  0  0  0
 66 76  1  0  0  0  0
 67 79  1  0  0  0  0
 69 70  1  0  0  0  0
M  CHG  2  78   1  79   1
M  ISO  4  29 101  38 100  77 100  86 101
M  END
> <Batch ID>
0138

> <Smiles>
CNC(C)C(=O)NC(C(=O)N1Cc2cc([101O:1][101c:1]3cc(C)c(CN4CCC(CC[100NH:0][100C:0](=O)N5CCCC(n6nc(-c7ccc(Oc8ccc(F)cc8F)cc7)c(C(N)=O)c6N)C5)CC4)c(C)c3)ccc2CC1C(=O)NC1CCCc2ccccc21)C(C)(C)C

> <Shape>
0.370

> <Color>
0.212

> <Negative vol penalty>
0.000

$$$$

  -OEChem-04052321083D

 84 93  0     1  0  0  0  0  0999 V2000
  -23.2536  -34.0084   24.2182 C   0  0  0  0  0  0  0  0  0  0  0  0
  -24.1277  -32.9679   23.9205 C   0  0  0  0  0  0  0  0  0  0  0  0
  -25.0269  -13.3191   21.8580 C   0  0  0  0  0  0  0  0  0  0  0  0
  -26.1268  -13.4499   19.7109 C   0  0  0  0  0  0  0  0  0  0  0  0
  -21.8910  -33.7522   24.3651 C   0  0  0  0  0  0  0  0  0  0  0  0
  -23.6398  -31.6702   23.7706 C   0  0  0  0  0  0  0  0  0  0  0  0
  -25.5892  -29.3160   19.7330 C   0  0  0  0  0  0  0  0  0  0  0  0
  -30.3295  -21.1074   16.2610 C   0  0  0  0  0  0  0  0  0  0  0  0
  -29.2676  -20.5945   17.0049 C   0  0  0  0  0  0  0  0  0  0  0  0
  -24.2210  -12.2849   21.3822 C   0  0  0  0  0  0  0  0  0  0  0  0
  -25.3209  -12.4157   19.2350 C   0  0  0  0  0  0  0  0  0  0  0  0
  -26.8819  -28.8082   19.8547 C   0  0  0  0  0  0  0  0  0  0  0  0
  -24.5046   -8.9626   20.8209 C   0  0  0  0  0  0  0  0  0  0  0  0
  -24.3258   -7.8497   21.6424 C   0  0  0  0  0  0  0  0  0  0  0  0
  -29.2824  -22.5759   18.3788 C   0  0  0  0  0  0  0  0  0  0  0  0
  -25.9743  -26.6063   20.2382 C   0  0  0  0  0  0  0  0  0  0  0  0
  -21.9434   -8.2506   21.6669 C   0  0  0  0  0  0  0  0  0  0  0  0
  -25.9798  -13.9017   21.0224 C   0  0  0  0  0  0  0  0  0  0  0  0
  -28.0637  -14.8508   22.1468 C   0  0  0  0  0  0  0  0  0  0  0  0
  -21.3848  -32.4524   24.2074 C   0  0  0  0  0  0  0  0  0  0  0  0
  -24.4772  -28.4734   19.8741 C   0  0  0  0  0  0  0  0  0  0  0  0
  -22.2693  -31.3962   23.9169 C   0  0  0  0  0  0  0  0  0  0  0  0
  -30.3351  -23.1163   17.6219 C   0  0  0  0  0  0  0  0  0  0  0  0
  -24.6686  -27.1054   20.1154 C   0  0  0  0  0  0  0  0  0  0  0  0
  -30.8901  -22.3575   16.5681 C   0  0  0  0  0  0  0  0  0  0  0  0
  -28.7495  -21.3253   18.0679 C   0  0  0  0  0  0  0  0  0  0  0  0
  -24.3680  -11.8331   20.0707 C   0  0  0  0  0  0  0  0  0  0  0  0
  -27.0745  -27.4537   20.1102 C   0  0  0  0  0  0  0  0  0  0  0  0
  -23.4028   -9.7196   20.4224 C   0  0  0  0  0  0  0  0  0  0  0  0
  -23.0452   -7.4936   22.0654 C   0  0  0  0  0  0  0  0  0  0  0  0
  -22.1222   -9.3635   20.8454 C   0  0  0  0  0  0  0  0  0  0  0  0
  -26.8123  -14.9704   21.5132 C   0  0  0  0  0  0  0  0  0  0  0  0
  -28.4373  -16.1448   22.4161 C   0  0  0  0  0  0  0  0  0  0  0  0
  -28.8208  -13.6752   22.4635 C   0  0  0  0  0  0  0  0  0  0  0  0
  -22.0179  -28.3221   21.8823 C   0  0  0  0  0  0  0  0  0  0  0  0
  -21.0212  -25.9807   19.8707 C   0  0  0  0  0  0  0  0  0  0  0  0
  -21.8341  -23.6181   17.5460 C   0  0  0  0  0  0  0  0  0  0  0  0
  -27.0499  -21.3965   19.9261 C   0  0  0  0  0  0  0  0  0  0  0  0
  -19.9108  -32.2164   24.4224 C   0  0  0  0  0  0  0  0  0  0  0  0
  -23.0898  -29.0318   19.7136 C   0  0  0  0  0  0  0  0  0  0  0  0
  -23.5086  -26.1549   20.2551 C   0  0  0  0  0  0  0  0  0  0  0  0
  -19.4227  -30.8764   23.8778 C   0  0  0  0  0  0  0  0  0  0  0  0
  -26.5832  -20.4646   23.3306 C   0  0  0  0  0  0  0  0  0  0  0  0
  -20.3694  -29.7547   24.2931 C   0  0  0  0  0  0  0  0  0  0  0  0
  -26.7089  -18.9395   23.3095 C   0  0  0  0  0  0  0  0  0  0  0  0
  -31.7131  -25.0561   16.7837 C   0  0  0  0  0  0  0  0  0  0  0  0
  -25.8806  -20.9931   22.0813 C   0  0  0  0  0  0  0  0  0  0  0  0
  -32.6762  -24.0181   16.2226 C   0  0  0  0  0  0  0  0  0  0  0  0
  -26.5826  -19.0181   20.7866 C   0  0  0  0  0  0  0  0  0  0  0  0
  -21.7748  -29.9793   23.7223 C   0  0  1  0  0  0  0  0  0  0  0  0
  -30.9238  -24.4713   17.9621 C   0  0  1  0  0  0  0  0  0  0  0  0
  -22.0202  -28.1773   20.3867 C   0  0  1  0  0  0  0  0  0  0  0  0
  -27.3417  -18.4443   21.9942 C   0  0  2  0  0  0  0  0  0  0  0  0
  -20.8097  -21.8334   16.1096 C   0  0  0  0  0  0  0  0  0  0  0  0
  -20.7725  -24.1640   22.3095 C   0  0  0  0  0  0  0  0  0  0  0  0
  -20.6829  -22.2044   20.7538 C   0  0  0  0  0  0  0  0  0  0  0  0
  -18.9069  -23.9535   20.6573 C   0  0  0  0  0  0  0  0  0  0  0  0
  -22.7146  -24.9539   15.0562 C   0  0  0  0  0  0  0  0  0  0  0  0
  -30.4692  -26.6157   19.1749 C   0  0  0  0  0  0  0  0  0  0  0  0
  -29.3642  -27.6060   19.4854 C   0  0  0  0  0  0  0  0  0  1  0  0
  -21.2201  -24.4865   19.7872 C   0  0  1  0  0  0  0  0  0  0  0  0
  -21.2351  -23.2913   16.1899 C   0  0  2  0  0  0  0  0  0  0  0  0
  -20.4176  -23.7201   20.8763 C   0  0  0  0  0  0  0  0  0  0  0  0
  -26.4171  -16.2401   21.3876 N   0  0  0  0  0  0  0  0  0  0  0  0
  -27.4261  -16.9302   21.9460 N   0  0  0  0  0  0  0  0  0  0  0  0
  -31.9531  -22.8334   15.8093 N   0  0  0  0  0  0  0  0  0  0  0  0
  -22.1714  -26.7501   20.0962 N   0  0  0  0  0  0  0  0  0  0  0  0
  -26.5372  -20.4861   20.8743 N   0  0  0  0  0  0  0  0  0  0  0  0
  -29.5287  -16.6760   23.0068 N   0  0  0  0  0  0  0  0  0  0  0  0
  -28.2903  -12.4252   22.1164 N   0  0  0  0  0  0  0  0  0  0  0  0
  -27.6813  -20.7988   18.8358 N   0  0  0  0  0  0  0  0  0  0  0  0
  -21.8154  -29.6164   22.3219 N   0  0  0  0  0  0  0  0  0  0  0  0
  -20.8851  -24.1059   18.4193 N   0  0  0  0  0  0  0  0  0  0  0  0
  -29.9167  -25.5046   18.3597 N   0  3  0  0  0  0  0  0  0  0  0  0
  -22.2275  -23.5515   15.1090 N   0  3  0  0  0  0  0  0  0  0  0  0
  -29.9272  -13.7305   23.0520 O   0  0  0  0  0  0  0  0  0  0  0  0
  -22.1858  -27.3326   22.5854 O   0  0  0  0  0  0  0  0  0  0  0  0
  -19.8880  -26.4484   19.7334 O   0  0  0  0  0  0  0  0  0  0  0  0
  -23.0240  -23.4533   17.8058 O   0  0  0  0  0  0  0  0  0  0  0  0
  -26.9612  -22.6168   20.0840 O   0  0  0  0  0  0  0  0  0  0  0  0
  -23.5819  -10.8238   19.6061 O   0  0  0  0  0  0  0  0  0  0  0  0
  -28.3352  -26.9555   20.2300 O   0  0  0  0  0  0  0  0  0  1  0  0
  -22.8734   -6.4239   22.8531 F   0  0  0  0  0  0  0  0  0  0  0  0
  -21.0598  -10.0862   20.4649 F   0  0  0  0  0  0  0  0  0  0  0  0
  1  2  1  0  0  0  0
  1  5  2  0  0  0  0
  2  6  2  0  0  0  0
  3 10  2  0  0  0  0
  3 18  1  0  0  0  0
  4 11  1  0  0  0  0
  4 18  2  0  0  0  0
  5 20  1  0  0  0  0
  6 22  1  0  0  0  0
  7 12  2  0  0  0  0
  7 21  1  0  0  0  0
  8  9  2  0  0  0  0
  8 25  1  0  0  0  0
  9 26  1  0  0  0  0
 10 27  1  0  0  0  0
 11 27  2  0  0  0  0
 12 28  1  0  0  0  0
 13 14  2  0  0  0  0
 13 29  1  0  0  0  0
 14 30  1  0  0  0  0
 15 23  1  0  0  0  0
 15 26  2  0  0  0  0
 16 24  1  0  0  0  0
 16 28  2  0  0  0  0
 17 30  2  0  0  0  0
 17 31  1  0  0  0  0
 18 32  1  0  0  0  0
 19 32  1  0  0  0  0
 19 33  2  0  0  0  0
 19 34  1  0  0  0  0
 20 22  2  0  0  0  0
 20 39  1  0  0  0  0
 21 24  2  0  0  0  0
 21 40  1  0  0  0  0
 22 50  1  0  0  0  0
 23 25  2  0  0  0  0
 23 51  1  0  0  0  0
 24 41  1  0  0  0  0
 25 66  1  0  0  0  0
 26 71  1  0  0  0  0
 27 81  1  0  0  0  0
 28 82  1  0  0  0  0
 29 31  2  0  0  0  0
 29 81  1  0  0  0  0
 30 83  1  0  0  0  0
 31 84  1  0  0  0  0
 32 64  2  0  0  0  0
 33 65  1  0  0  0  0
 33 69  1  0  0  0  0
 34 70  1  0  0  0  0
 34 76  2  0  0  0  0
 35 52  1  0  0  0  0
 35 72  1  0  0  0  0
 35 77  2  0  0  0  0
 36 61  1  0  0  0  0
 36 67  1  0  0  0  0
 36 78  2  0  0  0  0
 37 62  1  0  0  0  0
 37 73  1  0  0  0  0
 37 79  2  0  0  0  0
 38 68  1  0  0  0  0
 38 71  1  0  0  0  0
 38 80  2  0  0  0  0
 39 42  1  0  0  0  0
 40 52  1  0  0  0  0
 41 67  1  0  0  0  0
 42 44  1  0  0  0  0
 43 45  1  0  0  0  0
 43 47  1  0  0  0  0
 44 50  1  0  0  0  0
 45 53  1  0  0  0  0
 46 48  1  0  0  0  0
 46 51  1  0  0  0  0
 47 68  1  0  0  0  0
 48 66  1  0  0  0  0
 49 53  1  0  0  0  0
 49 68  1  0  0  0  0
 50 72  1  0  0  0  0
 51 74  1  0  0  0  0
 52 67  1  0  0  0  0
 53 65  1  0  0  0  0
 54 62  1  0  0  0  0
 55 63  1  0  0  0  0
 56 63  1  0  0  0  0
 57 63  1  0  0  0  0
 58 75  1  0  0  0  0
 59 60  1  0  0  0  0
 59 74  1  0  0  0  0
 60 82  1  0  0  0  0
 61 63  1  0  0  0  0
 61 73  1  0  0  0  0
 62 75  1  0  0  0  0
 64 65  1  0  0  0  0
M  CHG  2  74   1  75   1
M  ISO  4  38 100  60 101  71 100  82 101
M  END
> <Batch ID>
0138

> <Smiles>
CNC(C)C(=O)NC(C(=O)N1Cc2cc([101O:1][101CH2:1]CNC3CCNc4ccc([100NH:0][100C:0](=O)N5CCCC(n6nc(-c7ccc(Oc8ccc(F)cc8F)cc7)c(C(N)=O)c6N)C5)cc43)ccc2CC1C(=O)NC1CCCc2ccccc21)C(C)(C)C

> <Shape>
0.235

> <Color>
0.078

> <Negative vol penalty>
0.000

$$$$

  -OEChem-04052321083D

 81 89  0     1  0  0  0  0  0999 V2000
  -28.5814  -33.2108   23.1140 C   0  0  0  0  0  0  0  0  0  0  0  0
  -28.5571  -31.9190   22.5982 C   0  0  0  0  0  0  0  0  0  0  0  0
  -24.4648  -10.0001   21.9503 C   0  0  0  0  0  0  0  0  0  0  0  0
  -24.6543  -11.3349   23.9552 C   0  0  0  0  0  0  0  0  0  0  0  0
  -27.5550  -33.6450   23.9519 C   0  0  0  0  0  0  0  0  0  0  0  0
  -27.5070  -31.0602   22.9210 C   0  0  0  0  0  0  0  0  0  0  0  0
  -25.7362  -28.5566   18.8910 C   0  0  0  0  0  0  0  0  0  0  0  0
  -29.5331  -20.0194   19.3879 C   0  0  0  0  0  0  0  0  0  0  0  0
  -24.0850   -8.8997   22.7188 C   0  0  0  0  0  0  0  0  0  0  0  0
  -24.2746  -10.2345   24.7237 C   0  0  0  0  0  0  0  0  0  0  0  0
  -26.4799  -27.4665   18.4413 C   0  0  0  0  0  0  0  0  0  0  0  0
  -29.5195  -21.3959   19.1629 C   0  0  0  0  0  0  0  0  0  0  0  0
  -21.2918   -7.7856   24.2646 C   0  0  0  0  0  0  0  0  0  0  0  0
  -20.2079   -7.0281   23.8209 C   0  0  0  0  0  0  0  0  0  0  0  0
  -24.9625  -25.9717   19.5737 C   0  0  0  0  0  0  0  0  0  0  0  0
  -27.9048  -21.6703   20.9391 C   0  0  0  0  0  0  0  0  0  0  0  0
  -21.6289   -5.0795   23.6768 C   0  0  0  0  0  0  0  0  0  0  0  0
  -24.7495  -11.2177   22.5685 C   0  0  0  0  0  0  0  0  0  0  0  0
  -24.2981  -13.3275   21.2075 C   0  0  0  0  0  0  0  0  0  0  0  0
  -26.4868  -32.7943   24.2773 C   0  0  0  0  0  0  0  0  0  0  0  0
  -24.6043  -28.3627   19.6958 C   0  0  0  0  0  0  0  0  0  0  0  0
  -26.4661  -31.4830   23.7651 C   0  0  0  0  0  0  0  0  0  0  0  0
  -24.2046  -27.0609   20.0301 C   0  0  0  0  0  0  0  0  0  0  0  0
  -27.9184  -20.2938   21.1640 C   0  0  0  0  0  0  0  0  0  0  0  0
  -28.7325  -19.4683   20.3885 C   0  0  0  0  0  0  0  0  0  0  0  0
  -23.9899   -9.0169   24.1055 C   0  0  0  0  0  0  0  0  0  0  0  0
  -26.0948  -26.1739   18.7850 C   0  0  0  0  0  0  0  0  0  0  0  0
  -28.7054  -22.2214   19.9385 C   0  0  0  0  0  0  0  0  0  0  0  0
  -22.5443   -7.1902   24.4143 C   0  0  0  0  0  0  0  0  0  0  0  0
  -20.3765   -5.6750   23.5270 C   0  0  0  0  0  0  0  0  0  0  0  0
  -22.7128   -5.8371   24.1204 C   0  0  0  0  0  0  0  0  0  0  0  0
  -25.1423  -12.3546   21.7752 C   0  0  0  0  0  0  0  0  0  0  0  0
  -25.1513  -14.1850   20.5569 C   0  0  0  0  0  0  0  0  0  0  0  0
  -22.8703  -13.4457   21.2633 C   0  0  0  0  0  0  0  0  0  0  0  0
  -23.7803  -29.2044   22.6481 C   0  0  0  0  0  0  0  0  0  0  0  0
  -20.9245  -27.9219   21.7987 C   0  0  0  0  0  0  0  0  0  0  0  0
  -19.1981  -25.7658   19.7942 C   0  0  0  0  0  0  0  0  0  0  0  0
  -29.8290  -17.2003   20.3823 C   0  0  0  0  0  0  0  0  0  0  0  0
  -25.4246  -33.2927   25.2249 C   0  0  0  0  0  0  0  0  0  0  0  0
  -23.7974  -29.5478   20.1506 C   0  0  0  0  0  0  0  0  0  0  0  0
  -22.9857  -26.7980   20.8749 C   0  0  0  0  0  0  0  0  0  0  0  0
  -24.1551  -32.4450   25.2171 C   0  0  0  0  0  0  0  0  0  0  0  0
  -30.0852  -13.7577   19.5102 C   0  0  0  0  0  0  0  0  0  0  0  0
  -24.5032  -30.9616   25.2885 C   0  0  0  0  0  0  0  0  0  0  0  0
  -28.7526  -13.1658   19.9751 C   0  0  0  0  0  0  0  0  0  0  0  0
  -30.5909  -14.8365   20.4664 C   0  0  0  0  0  0  0  0  0  0  0  0
  -28.2963  -15.3144   21.2250 C   0  0  0  0  0  0  0  0  0  0  0  0
  -25.3313  -30.5301   24.0722 C   0  0  1  0  0  0  0  0  0  0  0  0
  -22.9584  -29.2587   21.3915 C   0  0  1  0  0  0  0  0  0  0  0  0
  -27.7145  -14.2691   20.2593 C   0  0  2  0  0  0  0  0  0  0  0  0
  -27.0503  -19.7314   22.2425 C   0  0  0  0  0  0  0  0  0  0  0  0
  -16.8804  -24.9073   19.3599 C   0  0  0  0  0  0  0  0  0  0  0  0
  -21.1009  -26.1862   24.3018 C   0  0  0  0  0  0  0  0  0  0  0  0
  -19.3091  -24.7300   23.3338 C   0  0  0  0  0  0  0  0  0  0  0  0
  -18.8291  -27.1247   23.8412 C   0  0  0  0  0  0  0  0  0  0  0  0
  -19.2176  -26.7817   17.0146 C   0  0  0  0  0  0  0  0  0  0  0  0
  -28.2167  -25.3129   18.1430 C   0  0  0  0  0  0  0  0  0  1  0  0
  -28.9495  -24.0081   18.3880 C   0  0  0  0  0  0  0  0  0  0  0  0
  -20.3058  -26.5469   21.8721 C   0  0  1  0  0  0  0  0  0  0  0  0
  -17.9278  -25.9433   18.9824 C   0  0  2  0  0  0  0  0  0  0  0  0
  -19.9104  -26.1516   23.3229 C   0  0  0  0  0  0  0  0  0  0  0  0
  -26.4328  -12.5727   21.5086 N   0  0  0  0  0  0  0  0  0  0  0  0
  -26.4058  -13.6925   20.7661 N   0  0  0  0  0  0  0  0  0  0  0  0
  -22.2333  -27.9897   21.3004 N   0  0  0  0  0  0  0  0  0  0  0  0
  -29.5561  -15.8495   20.6852 N   0  0  0  0  0  0  0  0  0  0  0  0
  -24.9433  -15.3046   19.8320 N   0  0  0  0  0  0  0  0  0  0  0  0
  -22.1471  -12.4786   21.9746 N   0  0  0  0  0  0  0  0  0  0  0  0
  -28.7589  -18.0675   20.6001 N   0  0  0  0  0  0  0  0  0  0  0  0
  -24.4798  -30.3662   22.9135 N   0  0  0  0  0  0  0  0  0  0  0  0
  -19.1927  -26.5492   20.9290 N   0  0  0  0  0  0  0  0  0  0  0  0
  -18.2198  -25.8078   17.5273 N   0  3  0  0  0  0  0  0  0  0  0  0
  -22.2527  -14.3720   20.6852 O   0  0  0  0  0  0  0  0  0  0  0  0
  -23.7788  -28.1845   23.3275 O   0  0  0  0  0  0  0  0  0  0  0  0
  -20.2680  -28.9007   22.1630 O   0  0  0  0  0  0  0  0  0  0  0  0
  -20.1030  -25.0053   19.4576 O   0  0  0  0  0  0  0  0  0  0  0  0
  -30.9219  -17.5570   19.9351 O   0  0  0  0  0  0  0  0  0  0  0  0
  -23.6192   -7.9435   24.8557 O   0  0  0  0  0  0  0  0  0  0  0  0
  -26.8194  -25.1082   18.3480 O   0  0  0  0  0  0  0  0  0  1  0  0
  -28.6925  -23.5735   19.7179 O   0  0  0  0  0  0  0  0  0  0  0  0
  -19.3352   -4.9472   23.1024 F   0  0  0  0  0  0  0  0  0  0  0  0
  -23.9134   -5.2592   24.2635 F   0  0  0  0  0  0  0  0  0  0  0  0
  1  2  1  0  0  0  0
  1  5  2  0  0  0  0
  2  6  2  0  0  0  0
  3  9  2  0  0  0  0
  3 18  1  0  0  0  0
  4 10  1  0  0  0  0
  4 18  2  0  0  0  0
  5 20  1  0  0  0  0
  6 22  1  0  0  0  0
  7 11  2  0  0  0  0
  7 21  1  0  0  0  0
  8 12  2  0  0  0  0
  8 25  1  0  0  0  0
  9 26  1  0  0  0  0
 10 26  2  0  0  0  0
 11 27  1  0  0  0  0
 12 28  1  0  0  0  0
 13 14  2  0  0  0  0
 13 29  1  0  0  0  0
 14 30  1  0  0  0  0
 15 23  1  0  0  0  0
 15 27  2  0  0  0  0
 16 24  1  0  0  0  0
 16 28  2  0  0  0  0
 17 30  2  0  0  0  0
 17 31  1  0  0  0  0
 18 32  1  0  0  0  0
 19 32  1  0  0  0  0
 19 33  2  0  0  0  0
 19 34  1  0  0  0  0
 20 22  2  0  0  0  0
 20 39  1  0  0  0  0
 21 23  2  0  0  0  0
 21 40  1  0  0  0  0
 22 48  1  0  0  0  0
 23 41  1  0  0  0  0
 24 25  2  0  0  0  0
 24 51  1  0  0  0  0
 25 68  1  0  0  0  0
 26 77  1  0  0  0  0
 27 78  1  0  0  0  0
 28 79  1  0  0  0  0
 29 31  2  0  0  0  0
 29 77  1  0  0  0  0
 30 80  1  0  0  0  0
 31 81  1  0  0  0  0
 32 62  2  0  0  0  0
 33 63  1  0  0  0  0
 33 66  1  0  0  0  0
 34 67  1  0  0  0  0
 34 72  2  0  0  0  0
 35 49  1  0  0  0  0
 35 69  1  0  0  0  0
 35 73  2  0  0  0  0
 36 59  1  0  0  0  0
 36 64  1  0  0  0  0
 36 74  2  0  0  0  0
 37 60  1  0  0  0  0
 37 70  1  0  0  0  0
 37 75  2  0  0  0  0
 38 65  1  0  0  0  0
 38 68  1  0  0  0  0
 38 76  2  0  0  0  0
 39 42  1  0  0  0  0
 40 49  1  0  0  0  0
 41 64  1  0  0  0  0
 42 44  1  0  0  0  0
 43 45  1  0  0  0  0
 43 46  1  0  0  0  0
 44 48  1  0  0  0  0
 45 50  1  0  0  0  0
 46 65  1  0  0  0  0
 47 50  1  0  0  0  0
 47 65  1  0  0  0  0
 48 69  1  0  0  0  0
 49 64  1  0  0  0  0
 50 63  1  0  0  0  0
 52 60  1  0  0  0  0
 53 61  1  0  0  0  0
 54 61  1  0  0  0  0
 55 61  1  0  0  0  0
 56 71  1  0  0  0  0
 57 58  1  0  0  0  0
 57 78  1  0  0  0  0
 58 79  1  0  0  0  0
 59 61  1  0  0  0  0
 59 70  1  0  0  0  0
 60 71  1  0  0  0  0
 62 63  1  0  0  0  0
M  CHG  1  71   1
M  ISO  4  38 100  57 101  68 100  78 101
M  END
> <Batch ID>
0138

> <Smiles>
CNC(C)C(=O)NC(C(=O)N1Cc2cc([101O:1][101CH2:1]COc3ccc([100NH:0][100C:0](=O)N4CCCC(n5nc(-c6ccc(Oc7ccc(F)cc7F)cc6)c(C(N)=O)c5N)C4)c(C)c3)ccc2CC1C(=O)NC1CCCc2ccccc21)C(C)(C)C

> <Shape>
0.335

> <Color>
0.113

> <Negative vol penalty>
0.000

$$$$

  -OEChem-04052321083D

 84 92  0     1  0  0  0  0  0999 V2000
  -17.6306  -27.2358   23.4189 C   0  0  0  0  0  0  0  0  0  0  0  0
  -18.6037  -26.5441   22.7047 C   0  0  0  0  0  0  0  0  0  0  0  0
  -24.1964  -14.1189   23.8785 C   0  0  0  0  0  0  0  0  0  0  0  0
  -23.3568  -15.4924   22.0768 C   0  0  0  0  0  0  0  0  0  0  0  0
  -17.6803  -28.6270   23.4949 C   0  0  0  0  0  0  0  0  0  0  0  0
  -19.6266  -27.2435   22.0652 C   0  0  0  0  0  0  0  0  0  0  0  0
  -24.1735  -25.1387   22.8003 C   0  0  0  0  0  0  0  0  0  0  0  0
  -23.5680  -14.9506   24.8053 C   0  0  0  0  0  0  0  0  0  0  0  0
  -22.7284  -16.3241   23.0037 C   0  0  0  0  0  0  0  0  0  0  0  0
  -24.4822  -24.0094   22.0433 C   0  0  0  0  0  0  0  0  0  0  0  0
  -21.2020  -19.0150   24.9113 C   0  0  0  0  0  0  0  0  0  0  0  0
  -21.3229  -20.3930   24.7325 C   0  0  0  0  0  0  0  0  0  0  0  0
  -25.7713  -25.3806   20.5343 C   0  0  0  0  0  0  0  0  0  0  0  0
  -23.7243  -20.2068   24.9220 C   0  0  0  0  0  0  0  0  0  0  0  0
  -28.9353  -18.6038   17.8558 C   0  0  0  0  0  0  0  0  0  0  0  0
  -24.0908  -14.3899   22.5142 C   0  0  0  0  0  0  0  0  0  0  0  0
  -24.2008  -12.3886   20.9361 C   0  0  0  0  0  0  0  0  0  0  0  0
  -18.7098  -29.3432   22.8641 C   0  0  0  0  0  0  0  0  0  0  0  0
  -24.6532  -26.4013   22.4231 C   0  0  0  0  0  0  0  0  0  0  0  0
  -19.6894  -28.6458   22.1318 C   0  0  0  0  0  0  0  0  0  0  0  0
  -25.4693  -26.5240   21.2896 C   0  0  0  0  0  0  0  0  0  0  0  0
  -28.6799  -18.3130   16.5253 C   0  0  0  0  0  0  0  0  0  0  0  0
  -27.5414  -18.8620   15.9460 C   0  0  0  0  0  0  0  0  0  0  0  0
  -26.7047  -19.6736   16.7042 C   0  0  0  0  0  0  0  0  0  0  0  0
  -22.8340  -16.0531   24.3680 C   0  0  0  0  0  0  0  0  0  0  0  0
  -25.2788  -24.1306   20.9085 C   0  0  0  0  0  0  0  0  0  0  0  0
  -22.3422  -18.2328   25.0955 C   0  0  0  0  0  0  0  0  0  0  0  0
  -22.5840  -20.9889   24.7378 C   0  0  0  0  0  0  0  0  0  0  0  0
  -23.6033  -18.8287   25.1008 C   0  0  0  0  0  0  0  0  0  0  0  0
  -24.7402  -13.5315   21.5563 C   0  0  0  0  0  0  0  0  0  0  0  0
  -27.0484  -19.9033   18.0266 C   0  0  0  0  0  0  0  0  0  0  0  0
  -25.2071  -11.9339   20.1194 C   0  0  0  0  0  0  0  0  0  0  0  0
  -22.9058  -11.7914   21.0849 C   0  0  0  0  0  0  0  0  0  0  0  0
  -23.3046  -29.1455   21.5546 C   0  0  0  0  0  0  0  0  0  0  0  0
  -26.3618  -30.2263   21.6436 C   0  0  0  0  0  0  0  0  0  0  0  0
  -29.6941  -29.5100   21.4717 C   0  0  0  0  0  0  0  0  0  0  0  0
  -29.8775  -14.6291   17.5165 C   0  0  0  0  0  0  0  0  0  0  0  0
  -18.6951  -30.8497   22.9349 C   0  0  0  0  0  0  0  0  0  0  0  0
  -24.3332  -27.6057   23.2654 C   0  0  0  0  0  0  0  0  0  0  0  0
  -26.0261  -27.8538   20.8536 C   0  0  0  0  0  0  0  0  0  0  0  0
  -20.0235  -31.4909   22.5421 C   0  0  0  0  0  0  0  0  0  0  0  0
  -29.9761  -11.8529   19.7436 C   0  0  0  0  0  0  0  0  0  0  0  0
  -20.5593  -30.8652   21.2582 C   0  0  0  0  0  0  0  0  0  0  0  0
  -28.5967  -11.8652   20.4047 C   0  0  0  0  0  0  0  0  0  0  0  0
  -30.4939  -13.2673   19.4919 C   0  0  0  0  0  0  0  0  0  0  0  0
  -28.1950  -14.1503   19.3971 C   0  0  0  0  0  0  0  0  0  0  0  0
  -20.8288  -29.3672   21.4453 C   0  0  1  0  0  0  0  0  0  0  0  0
  -24.4513  -28.9194   22.4989 C   0  0  1  0  0  0  0  0  0  0  0  0
  -27.6066  -12.7466   19.6199 C   0  0  2  0  0  0  0  0  0  0  0  0
  -27.2193  -18.5809   14.5132 C   0  0  0  0  0  0  0  0  0  0  0  0
  -25.4740  -20.2780   16.1170 C   0  0  0  0  0  0  0  0  0  0  0  0
  -31.9506  -30.6058   21.5400 C   0  0  0  0  0  0  0  0  0  0  0  0
  -25.9570  -31.2323   18.7916 C   0  0  0  0  0  0  0  0  0  0  0  0
  -28.4435  -31.4390   18.5857 C   0  0  0  0  0  0  0  0  0  0  0  0
  -27.2169  -32.7972   20.2808 C   0  0  0  0  0  0  0  0  0  0  0  0
  -30.4935  -27.9787   23.8748 C   0  0  0  0  0  0  0  0  0  0  0  0
  -29.6115  -17.4371   15.7614 C   0  0  0  0  0  0  0  0  0  0  0  0
  -29.1070  -15.9978   15.5951 C   0  0  0  0  0  0  0  0  0  0  0  0
  -25.6581  -21.7834   20.8576 C   0  0  0  0  0  0  0  0  0  1  0  0
  -26.6624  -20.8899   20.1558 C   0  0  0  0  0  0  0  0  0  0  0  0
  -27.4950  -30.3116   20.6497 C   0  0  1  0  0  0  0  0  0  0  0  0
  -30.8601  -29.9238   22.3513 C   0  0  2  0  0  0  0  0  0  0  0  0
  -27.2662  -31.4201   19.5838 C   0  0  0  0  0  0  0  0  0  0  0  0
  -28.1460  -19.3876   18.6241 N   0  0  0  0  0  0  0  0  0  0  0  0
  -25.9921  -13.7870   21.1670 N   0  0  0  0  0  0  0  0  0  0  0  0
  -26.2477  -12.7982   20.2935 N   0  0  0  0  0  0  0  0  0  0  0  0
  -25.6799  -29.0028   21.7064 N   0  0  0  0  0  0  0  0  0  0  0  0
  -29.5087  -14.0504   18.7422 N   0  0  0  0  0  0  0  0  0  0  0  0
  -25.2946  -10.8830   19.2765 N   0  0  0  0  0  0  0  0  0  0  0  0
  -21.9926  -12.3870   21.9655 N   0  0  0  0  0  0  0  0  0  0  0  0
  -22.0662  -29.1627   22.1674 N   0  0  0  0  0  0  0  0  0  0  0  0
  -28.7138  -30.4789   21.4338 N   0  0  0  0  0  0  0  0  0  0  0  0
  -28.8821  -15.3495   16.8678 N   0  0  0  0  0  0  0  0  0  0  0  0
  -31.4502  -28.7319   23.0237 N   0  3  0  0  0  0  0  0  0  0  0  0
  -22.5743  -10.7507   20.4679 O   0  0  0  0  0  0  0  0  0  0  0  0
  -23.5271  -29.2949   20.3588 O   0  0  0  0  0  0  0  0  0  0  0  0
  -26.0963  -31.2067   22.3436 O   0  0  0  0  0  0  0  0  0  0  0  0
  -29.6584  -28.4363   20.8747 O   0  0  0  0  0  0  0  0  0  0  0  0
  -31.0084  -14.5079   17.0335 O   0  0  0  0  0  0  0  0  0  0  0  0
  -22.2205  -16.8647   25.2721 O   0  0  0  0  0  0  0  0  0  0  0  0
  -25.5812  -23.0300   20.1674 O   0  0  0  0  0  0  0  0  0  1  0  0
  -26.2502  -20.6965   18.8082 O   0  0  0  0  0  0  0  0  0  0  0  0
  -22.7002  -22.3120   24.5646 F   0  0  0  0  0  0  0  0  0  0  0  0
  -24.7024  -18.0824   25.2761 F   0  0  0  0  0  0  0  0  0  0  0  0
  1  2  1  0  0  0  0
  1  5  2  0  0  0  0
  2  6  2  0  0  0  0
  3  8  2  0  0  0  0
  3 16  1  0  0  0  0
  4  9  1  0  0  0  0
  4 16  2  0  0  0  0
  5 18  1  0  0  0  0
  6 20  1  0  0  0  0
  7 10  2  0  0  0  0
  7 19  1  0  0  0  0
  8 25  1  0  0  0  0
  9 25  2  0  0  0  0
 10 26  1  0  0  0  0
 11 12  2  0  0  0  0
 11 27  1  0  0  0  0
 12 28  1  0  0  0  0
 13 21  1  0  0  0  0
 13 26  2  0  0  0  0
 14 28  2  0  0  0  0
 14 29  1  0  0  0  0
 15 22  1  0  0  0  0
 15 64  2  0  0  0  0
 16 30  1  0  0  0  0
 17 30  1  0  0  0  0
 17 32  2  0  0  0  0
 17 33  1  0  0  0  0
 18 20  2  0  0  0  0
 18 38  1  0  0  0  0
 19 21  2  0  0  0  0
 19 39  1  0  0  0  0
 20 47  1  0  0  0  0
 21 40  1  0  0  0  0
 22 23  2  0  0  0  0
 22 57  1  0  0  0  0
 23 24  1  0  0  0  0
 23 50  1  0  0  0  0
 24 31  2  0  0  0  0
 24 51  1  0  0  0  0
 25 80  1  0  0  0  0
 26 81  1  0  0  0  0
 27 29  2  0  0  0  0
 27 80  1  0  0  0  0
 28 83  1  0  0  0  0
 29 84  1  0  0  0  0
 30 65  2  0  0  0  0
 31 64  1  0  0  0  0
 31 82  1  0  0  0  0
 32 66  1  0  0  0  0
 32 69  1  0  0  0  0
 33 70  1  0  0  0  0
 33 75  2  0  0  0  0
 34 48  1  0  0  0  0
 34 71  1  0  0  0  0
 34 76  2  0  0  0  0
 35 61  1  0  0  0  0
 35 67  1  0  0  0  0
 35 77  2  0  0  0  0
 36 62  1  0  0  0  0
 36 72  1  0  0  0  0
 36 78  2  0  0  0  0
 37 68  1  0  0  0  0
 37 73  1  0  0  0  0
 37 79  2  0  0  0  0
 38 41  1  0  0  0  0
 39 48  1  0  0  0  0
 40 67  1  0  0  0  0
 41 43  1  0  0  0  0
 42 44  1  0  0  0  0
 42 45  1  0  0  0  0
 43 47  1  0  0  0  0
 44 49  1  0  0  0  0
 45 68  1  0  0  0  0
 46 49  1  0  0  0  0
 46 68  1  0  0  0  0
 47 71  1  0  0  0  0
 48 67  1  0  0  0  0
 49 66  1  0  0  0  0
 52 62  1  0  0  0  0
 53 63  1  0  0  0  0
 54 63  1  0  0  0  0
 55 63  1  0  0  0  0
 56 74  1  0  0  0  0
 57 58  1  0  0  0  0
 58 73  1  0  0  0  0
 59 60  1  0  0  0  0
 59 81  1  0  0  0  0
 60 82  1  0  0  0  0
 61 63  1  0  0  0  0
 61 72  1  0  0  0  0
 62 74  1  0  0  0  0
 65 66  1  0  0  0  0
M  CHG  1  74   1
M  ISO  4  37 100  59 101  73 100  81 101
M  END
> <Batch ID>
0138

> <Smiles>
CNC(C)C(=O)NC(C(=O)N1Cc2cc([101O:1][101CH2:1]COc3ncc(CC[100NH:0][100C:0](=O)N4CCCC(n5nc(-c6ccc(Oc7ccc(F)cc7F)cc6)c(C(N)=O)c5N)C4)c(C)c3C)ccc2CC1C(=O)NC1CCCc2ccccc21)C(C)(C)C

> <Shape>
0.201

> <Color>
0.078

> <Negative vol penalty>
0.000

$$$$

  -OEChem-04052321083D

 81 90  0     1  0  0  0  0  0999 V2000
  -16.4119  -29.0709   23.1046 C   0  0  0  0  0  0  0  0  0  0  0  0
  -17.0738  -29.7398   22.0799 C   0  0  0  0  0  0  0  0  0  0  0  0
  -23.8563  -14.1044   20.3543 C   0  0  0  0  0  0  0  0  0  0  0  0
  -26.2405  -14.1498   20.7421 C   0  0  0  0  0  0  0  0  0  0  0  0
  -17.0636  -28.8306   24.3135 C   0  0  0  0  0  0  0  0  0  0  0  0
  -18.3875  -30.1697   22.2640 C   0  0  0  0  0  0  0  0  0  0  0  0
  -24.7891  -28.6311   18.0593 C   0  0  0  0  0  0  0  0  0  0  0  0
  -23.9122  -12.7227   20.1718 C   0  0  0  0  0  0  0  0  0  0  0  0
  -26.2965  -12.7680   20.5597 C   0  0  0  0  0  0  0  0  0  0  0  0
  -26.0187  -28.3043   17.4871 C   0  0  0  0  0  0  0  0  0  0  0  0
  -23.3702   -9.1343   19.9606 C   0  0  0  0  0  0  0  0  0  0  0  0
  -22.3968   -8.3573   20.5886 C   0  0  0  0  0  0  0  0  0  0  0  0
  -27.1237  -28.7222   19.5971 C   0  0  0  0  0  0  0  0  0  0  0  0
  -23.1268   -9.1813   22.7393 C   0  0  0  0  0  0  0  0  0  0  0  0
  -25.0205  -14.8180   20.6393 C   0  0  0  0  0  0  0  0  0  0  0  0
  -24.2237  -16.9460   21.7989 C   0  0  0  0  0  0  0  0  0  0  0  0
  -18.3892  -29.2492   24.5090 C   0  0  0  0  0  0  0  0  0  0  0  0
  -24.7199  -28.9903   19.4082 C   0  0  0  0  0  0  0  0  0  0  0  0
  -19.0570  -29.9359   23.4771 C   0  0  0  0  0  0  0  0  0  0  0  0
  -25.8932  -29.0385   20.1790 C   0  0  0  0  0  0  0  0  0  0  0  0
  -25.1323  -12.0545   20.2745 C   0  0  0  0  0  0  0  0  0  0  0  0
  -27.1831  -28.3500   18.2541 C   0  0  0  0  0  0  0  0  0  0  0  0
  -24.2219   -9.9348   20.7219 C   0  0  0  0  0  0  0  0  0  0  0  0
  -22.2751   -8.3808   21.9780 C   0  0  0  0  0  0  0  0  0  0  0  0
  -24.1002   -9.9583   22.1112 C   0  0  0  0  0  0  0  0  0  0  0  0
  -24.9634  -16.2454   20.8273 C   0  0  0  0  0  0  0  0  0  0  0  0
  -24.5068  -18.2683   21.5583 C   0  0  0  0  0  0  0  0  0  0  0  0
  -23.3583  -16.4462   22.8269 C   0  0  0  0  0  0  0  0  0  0  0  0
  -22.5568  -30.0212   22.2951 C   0  0  0  0  0  0  0  0  0  0  0  0
  -24.6355  -28.0529   23.3975 C   0  0  0  0  0  0  0  0  0  0  0  0
  -26.8194  -25.5358   24.1269 C   0  0  0  0  0  0  0  0  0  0  0  0
  -29.1768  -20.9054   19.0901 C   0  0  0  0  0  0  0  0  0  0  0  0
  -19.0362  -29.0085   25.8500 C   0  0  0  0  0  0  0  0  0  0  0  0
  -23.4256  -29.4097   20.0505 C   0  0  0  0  0  0  0  0  0  0  0  0
  -25.7756  -29.4639   21.6171 C   0  0  0  0  0  0  0  0  0  0  0  0
  -20.5545  -29.1657   25.8307 C   0  0  0  0  0  0  0  0  0  0  0  0
  -25.7359  -21.2519   18.0234 C   0  0  0  0  0  0  0  0  0  0  0  0
  -20.9498  -30.4405   25.0922 C   0  0  0  0  0  0  0  0  0  0  0  0
  -31.7042  -26.4999   18.5562 C   0  0  0  0  0  0  0  0  0  0  0  0
  -29.8897  -25.4512   19.9925 C   0  0  0  0  0  0  0  0  0  0  0  0
  -25.0790  -20.0611   18.7238 C   0  0  0  0  0  0  0  0  0  0  0  0
  -30.6307  -27.2064   17.7320 C   0  0  0  0  0  0  0  0  0  0  0  0
  -28.8290  -26.1656   19.1586 C   0  0  0  0  0  0  0  0  0  0  0  0
  -27.1366  -20.8998   17.5312 C   0  0  0  0  0  0  0  0  0  0  0  0
  -27.3955  -19.1939   19.2908 C   0  0  0  0  0  0  0  0  0  0  0  0
  -32.0631  -22.3521   17.8574 C   0  0  0  0  0  0  0  0  0  0  0  0
  -20.4907  -30.3959   23.6298 C   0  0  1  0  0  0  0  0  0  0  0  0
  -23.3172  -28.9818   21.5251 C   0  0  1  0  0  0  0  0  0  0  0  0
  -31.2010  -25.2172   19.2310 C   0  0  0  0  0  0  0  0  0  0  0  0
  -25.9855  -19.4928   19.8317 C   0  0  2  0  0  0  0  0  0  0  0  0
  -30.8797  -22.6813   18.7684 C   0  0  1  0  0  0  0  0  0  0  0  0
  -31.0364  -24.0937   18.2028 C   0  0  2  0  0  0  0  0  0  0  0  0
  -29.3651  -27.4571   18.5462 C   0  0  0  0  0  0  0  0  0  1  0  0
  -27.6144  -24.1078   26.0311 C   0  0  0  0  0  0  0  0  0  0  0  0
  -26.2548  -30.4014   24.4776 C   0  0  0  0  0  0  0  0  0  0  0  0
  -27.6904  -28.7563   25.7027 C   0  0  0  0  0  0  0  0  0  0  0  0
  -25.2589  -28.9251   26.2335 C   0  0  0  0  0  0  0  0  0  0  0  0
  -25.9370  -23.0504   22.7839 C   0  0  0  0  0  0  0  0  0  0  0  0
  -25.9811  -27.8695   24.0527 C   0  0  1  0  0  0  0  0  0  0  0  0
  -26.6353  -24.2270   24.8736 C   0  0  2  0  0  0  0  0  0  0  0  0
  -26.2931  -28.9863   25.0884 C   0  0  0  0  0  0  0  0  0  0  0  0
  -25.6636  -17.0556   20.0290 N   0  0  0  0  0  0  0  0  0  0  0  0
  -25.3650  -18.2790   20.4984 N   0  0  0  0  0  0  0  0  0  0  0  0
  -24.5994  -28.8306   22.2337 N   0  0  0  0  0  0  0  0  0  0  0  0
  -27.9540  -20.3825   18.6377 N   0  0  0  0  0  0  0  0  0  0  0  0
  -24.1026  -19.4114   22.1521 N   0  0  0  0  0  0  0  0  0  0  0  0
  -23.9114  -16.1495   24.0801 N   0  0  0  0  0  0  0  0  0  0  0  0
  -21.3766  -29.5610   22.8471 N   0  0  0  0  0  0  0  0  0  0  0  0
  -25.9837  -26.5209   24.6091 N   0  0  0  0  0  0  0  0  0  0  0  0
  -29.6396  -22.0274   18.4137 N   0  0  0  0  0  0  0  0  0  0  0  0
  -26.8496  -23.0725   23.9560 N   0  3  0  0  0  0  0  0  0  0  0  0
  -22.1339  -16.2524   22.6348 O   0  0  0  0  0  0  0  0  0  0  0  0
  -23.0075  -31.1573   22.3839 O   0  0  0  0  0  0  0  0  0  0  0  0
  -23.6409  -27.5269   23.9048 O   0  0  0  0  0  0  0  0  0  0  0  0
  -27.6266  -25.6718   23.2101 O   0  0  0  0  0  0  0  0  0  0  0  0
  -29.8074  -20.4119   20.0313 O   0  0  0  0  0  0  0  0  0  0  0  0
  -32.3156  -23.7582   17.6147 O   0  0  0  0  0  0  0  0  0  0  0  0
  -25.1872  -10.7062   20.0968 O   0  0  0  0  0  0  0  0  0  0  0  0
  -28.3796  -28.0253   17.6904 O   0  0  0  0  0  0  0  0  0  1  0  0
  -21.3393   -7.6358   22.5808 F   0  0  0  0  0  0  0  0  0  0  0  0
  -24.9148  -10.7262   22.8478 F   0  0  0  0  0  0  0  0  0  0  0  0
  1  2  1  0  0  0  0
  1  5  2  0  0  0  0
  2  6  2  0  0  0  0
  3  8  2  0  0  0  0
  3 15  1  0  0  0  0
  4  9  1  0  0  0  0
  4 15  2  0  0  0  0
  5 17  1  0  0  0  0
  6 19  1  0  0  0  0
  7 10  2  0  0  0  0
  7 18  1  0  0  0  0
  8 21  1  0  0  0  0
  9 21  2  0  0  0  0
 10 22  1  0  0  0  0
 11 12  2  0  0  0  0
 11 23  1  0  0  0  0
 12 24  1  0  0  0  0
 13 20  1  0  0  0  0
 13 22  2  0  0  0  0
 14 24  2  0  0  0  0
 14 25  1  0  0  0  0
 15 26  1  0  0  0  0
 16 26  1  0  0  0  0
 16 27  2  0  0  0  0
 16 28  1  0  0  0  0
 17 19  2  0  0  0  0
 17 33  1  0  0  0  0
 18 20  2  0  0  0  0
 18 34  1  0  0  0  0
 19 47  1  0  0  0  0
 20 35  1  0  0  0  0
 21 78  1  0  0  0  0
 22 79  1  0  0  0  0
 23 25  2  0  0  0  0
 23 78  1  0  0  0  0
 24 80  1  0  0  0  0
 25 81  1  0  0  0  0
 26 62  2  0  0  0  0
 27 63  1  0  0  0  0
 27 66  1  0  0  0  0
 28 67  1  0  0  0  0
 28 72  2  0  0  0  0
 29 48  1  0  0  0  0
 29 68  1  0  0  0  0
 29 73  2  0  0  0  0
 30 59  1  0  0  0  0
 30 64  1  0  0  0  0
 30 74  2  0  0  0  0
 31 60  1  0  0  0  0
 31 69  1  0  0  0  0
 31 75  2  0  0  0  0
 32 65  1  0  0  0  0
 32 70  1  0  0  0  0
 32 76  2  0  0  0  0
 33 36  1  0  0  0  0
 34 48  1  0  0  0  0
 35 64  1  0  0  0  0
 36 38  1  0  0  0  0
 37 41  1  0  0  0  0
 37 44  1  0  0  0  0
 38 47  1  0  0  0  0
 39 42  1  0  0  0  0
 39 49  1  0  0  0  0
 40 43  1  0  0  0  0
 40 49  1  0  0  0  0
 41 50  1  0  0  0  0
 42 53  1  0  0  0  0
 43 53  1  0  0  0  0
 44 65  1  0  0  0  0
 45 50  1  0  0  0  0
 45 65  1  0  0  0  0
 46 51  1  0  0  0  0
 46 77  1  0  0  0  0
 47 68  1  0  0  0  0
 48 64  1  0  0  0  0
 49 52  1  0  0  0  0
 50 63  1  0  0  0  0
 51 52  1  0  0  0  0
 51 70  1  0  0  0  0
 52 77  1  0  0  0  0
 53 79  1  0  0  0  0
 54 60  1  0  0  0  0
 55 61  1  0  0  0  0
 56 61  1  0  0  0  0
 57 61  1  0  0  0  0
 58 71  1  0  0  0  0
 59 61  1  0  0  0  0
 59 69  1  0  0  0  0
 60 71  1  0  0  0  0
 62 63  1  0  0  0  0
M  CHG  1  71   1
M  ISO  4  32 100  53 101  70 100  79 101
M  END
> <Batch ID>
0138

> <Smiles>
CNC(C)C(=O)NC(C(=O)N1Cc2cc([101O:1][101CH:1]3CCC(C4OCC4[100NH:0][100C:0](=O)N4CCCC(n5nc(-c6ccc(Oc7ccc(F)cc7F)cc6)c(C(N)=O)c5N)C4)CC3)ccc2CC1C(=O)NC1CCCc2ccccc21)C(C)(C)C

> <Shape>
0.242

> <Color>
0.096

> <Negative vol penalty>
0.000

$$$$

  -OEChem-04052321083D

 81 89  0     1  0  0  0  0  0999 V2000
  -25.2200  -17.7713   22.8602 C   0  0  0  0  0  0  0  0  0  0  0  0
  -25.5093  -19.0814   23.2247 C   0  0  0  0  0  0  0  0  0  0  0  0
  -26.4905  -12.6247   21.6305 C   0  0  0  0  0  0  0  0  0  0  0  0
  -26.0294  -13.6428   19.4885 C   0  0  0  0  0  0  0  0  0  0  0  0
  -25.2027  -17.4143   21.5136 C   0  0  0  0  0  0  0  0  0  0  0  0
  -25.7697  -20.0375   22.2424 C   0  0  0  0  0  0  0  0  0  0  0  0
  -27.4444  -25.8748   22.7412 C   0  0  0  0  0  0  0  0  0  0  0  0
  -25.2335  -12.0204   21.6138 C   0  0  0  0  0  0  0  0  0  0  0  0
  -24.7724  -13.0385   19.4719 C   0  0  0  0  0  0  0  0  0  0  0  0
  -28.6315  -26.6045   22.7876 C   0  0  0  0  0  0  0  0  0  0  0  0
  -23.7756   -9.3437   20.1500 C   0  0  0  0  0  0  0  0  0  0  0  0
  -23.6982   -7.9985   20.5105 C   0  0  0  0  0  0  0  0  0  0  0  0
  -28.4441  -27.0480   20.4238 C   0  0  0  0  0  0  0  0  0  0  0  0
  -22.2107   -8.5708   22.3263 C   0  0  0  0  0  0  0  0  0  0  0  0
  -26.8885  -13.4359   20.5678 C   0  0  0  0  0  0  0  0  0  0  0  0
  -29.3896  -13.5358   20.0759 C   0  0  0  0  0  0  0  0  0  0  0  0
  -25.4754  -18.3642   20.5155 C   0  0  0  0  0  0  0  0  0  0  0  0
  -26.7528  -25.7168   21.5316 C   0  0  0  0  0  0  0  0  0  0  0  0
  -25.7335  -19.7022   20.8768 C   0  0  0  0  0  0  0  0  0  0  0  0
  -27.2471  -26.3180   20.3653 C   0  0  0  0  0  0  0  0  0  0  0  0
  -24.3744  -12.2272   20.5345 C   0  0  0  0  0  0  0  0  0  0  0  0
  -29.1330  -27.1888   21.6282 C   0  0  0  0  0  0  0  0  0  0  0  0
  -23.0706  -10.3025   20.8776 C   0  0  0  0  0  0  0  0  0  0  0  0
  -22.9157   -7.6121   21.5987 C   0  0  0  0  0  0  0  0  0  0  0  0
  -22.2881   -9.9161   21.9657 C   0  0  0  0  0  0  0  0  0  0  0  0
  -28.1867  -14.0609   20.5847 C   0  0  0  0  0  0  0  0  0  0  0  0
  -30.3252  -14.5072   20.3353 C   0  0  0  0  0  0  0  0  0  0  0  0
  -29.6390  -12.2819   19.4267 C   0  0  0  0  0  0  0  0  0  0  0  0
  -25.9416  -23.2348   19.7191 C   0  0  0  0  0  0  0  0  0  0  0  0
  -24.3315  -25.4898   18.0325 C   0  0  0  0  0  0  0  0  0  0  0  0
  -24.0046  -28.7738   17.1632 C   0  0  0  0  0  0  0  0  0  0  0  0
  -29.8403  -20.3501   21.0290 C   0  0  0  0  0  0  0  0  0  0  0  0
  -25.4356  -17.9251   19.0730 C   0  0  0  0  0  0  0  0  0  0  0  0
  -25.4596  -24.9492   21.5036 C   0  0  0  0  0  0  0  0  0  0  0  0
  -26.5319  -26.1952   19.0455 C   0  0  0  0  0  0  0  0  0  0  0  0
  -26.1548  -18.8913   18.1373 C   0  0  0  0  0  0  0  0  0  0  0  0
  -31.2968  -18.0452   23.4088 C   0  0  0  0  0  0  0  0  0  0  0  0
  -35.2328  -26.3703   20.6888 C   0  0  0  0  0  0  0  0  0  0  0  0
  -25.6885  -20.3151   18.4020 C   0  0  0  0  0  0  0  0  0  0  0  0
  -30.7700  -16.7041   22.8949 C   0  0  0  0  0  0  0  0  0  0  0  0
  -34.3173  -27.4914   20.2344 C   0  0  0  0  0  0  0  0  0  0  0  0
  -30.2494  -19.1446   23.2588 C   0  0  0  0  0  0  0  0  0  0  0  0
  -29.2037  -17.9774   21.3568 C   0  0  0  0  0  0  0  0  0  0  0  0
  -34.3515  -25.1481   20.5584 C   0  0  0  0  0  0  0  0  0  0  0  0
  -26.0500  -20.7522   19.8272 C   0  0  1  0  0  0  0  0  0  0  0  0
  -25.1085  -24.4205   20.1163 C   0  0  1  0  0  0  0  0  0  0  0  0
  -30.2241  -16.8292   21.4601 C   0  0  2  0  0  0  0  0  0  0  0  0
  -32.9472  -27.1376   20.8123 C   0  0  2  0  0  0  0  0  0  0  0  0
  -22.6195  -30.3057   15.7377 C   0  0  0  0  0  0  0  0  0  0  0  0
  -25.7955  -24.4965   15.5466 C   0  0  0  0  0  0  0  0  0  0  0  0
  -25.1216  -26.6120   14.3896 C   0  0  0  0  0  0  0  0  0  0  0  0
  -23.3760  -25.0212   15.1925 C   0  0  0  0  0  0  0  0  0  0  0  0
  -23.0920  -30.3244   19.5130 C   0  0  0  0  0  0  0  0  0  0  0  0
  -32.6467  -27.8491   22.1238 C   0  0  0  0  0  0  0  0  0  0  0  0
  -31.7294  -23.5516   21.3032 C   0  0  0  0  0  0  0  0  0  0  0  0
  -30.5295  -22.7271   20.8499 C   0  0  0  0  0  0  0  0  0  0  0  0
  -31.8496  -24.8641   20.5392 C   0  0  0  0  0  0  0  0  0  0  0  0
  -31.2584  -27.5114   22.6455 C   0  0  0  0  0  0  0  0  0  1  0  0
  -24.6647  -26.3998   16.8750 C   0  0  1  0  0  0  0  0  0  0  0  0
  -22.7934  -29.6876   17.1163 C   0  0  2  0  0  0  0  0  0  0  0  0
  -24.7542  -25.6332   15.5252 C   0  0  0  0  0  0  0  0  0  0  0  0
  -28.3411  -15.2719   21.1265 N   0  0  0  0  0  0  0  0  0  0  0  0
  -29.6521  -15.5158   20.9597 N   0  0  0  0  0  0  0  0  0  0  0  0
  -25.2747  -25.4294   19.0682 N   0  0  0  0  0  0  0  0  0  0  0  0
  -29.7849  -19.2238   21.8667 N   0  0  0  0  0  0  0  0  0  0  0  0
  -31.6499  -14.5886   20.0880 N   0  0  0  0  0  0  0  0  0  0  0  0
  -28.5650  -11.4010   19.2400 N   0  0  0  0  0  0  0  0  0  0  0  0
  -25.4120  -22.0193   20.1085 N   0  0  0  0  0  0  0  0  0  0  0  0
  -23.6674  -27.4645   16.8925 N   0  0  0  0  0  0  0  0  0  0  0  0
  -30.3987  -21.4919   21.5904 N   0  0  0  0  0  0  0  0  0  0  0  0
  -33.0159  -25.6342   21.0724 N   0  3  1  0  0  0  0  0  0  0  0  0
  -22.9364  -30.7887   18.1104 N   0  3  0  0  0  0  0  0  0  0  0  0
  -30.7835  -11.9456   19.0388 O   0  0  0  0  0  0  0  0  0  0  0  0
  -26.9867  -23.4096   19.1037 O   0  0  0  0  0  0  0  0  0  0  0  0
  -23.2701  -24.8614   18.0217 O   0  0  0  0  0  0  0  0  0  0  0  0
  -25.1373  -29.1813   17.4111 O   0  0  0  0  0  0  0  0  0  0  0  0
  -29.4273  -20.3378   19.8644 O   0  0  0  0  0  0  0  0  0  0  0  0
  -23.1478  -11.6375   20.5179 O   0  0  0  0  0  0  0  0  0  0  0  0
  -30.2919  -27.9010   21.6705 O   0  0  0  0  0  0  0  0  0  1  0  0
  -22.8403   -6.3200   21.9439 F   0  0  0  0  0  0  0  0  0  0  0  0
  -21.6076  -10.8325   22.6678 F   0  0  0  0  0  0  0  0  0  0  0  0
  1  2  1  0  0  0  0
  1  5  2  0  0  0  0
  2  6  2  0  0  0  0
  3  8  2  0  0  0  0
  3 15  1  0  0  0  0
  4  9  1  0  0  0  0
  4 15  2  0  0  0  0
  5 17  1  0  0  0  0
  6 19  1  0  0  0  0
  7 10  2  0  0  0  0
  7 18  1  0  0  0  0
  8 21  1  0  0  0  0
  9 21  2  0  0  0  0
 10 22  1  0  0  0  0
 11 12  2  0  0  0  0
 11 23  1  0  0  0  0
 12 24  1  0  0  0  0
 13 20  1  0  0  0  0
 13 22  2  0  0  0  0
 14 24  2  0  0  0  0
 14 25  1  0  0  0  0
 15 26  1  0  0  0  0
 16 26  1  0  0  0  0
 16 27  2  0  0  0  0
 16 28  1  0  0  0  0
 17 19  2  0  0  0  0
 17 33  1  0  0  0  0
 18 20  2  0  0  0  0
 18 34  1  0  0  0  0
 19 45  1  0  0  0  0
 20 35  1  0  0  0  0
 21 78  1  0  0  0  0
 22 79  1  0  0  0  0
 23 25  2  0  0  0  0
 23 78  1  0  0  0  0
 24 80  1  0  0  0  0
 25 81  1  0  0  0  0
 26 62  2  0  0  0  0
 27 63  1  0  0  0  0
 27 66  1  0  0  0  0
 28 67  1  0  0  0  0
 28 73  2  0  0  0  0
 29 46  1  0  0  0  0
 29 68  1  0  0  0  0
 29 74  2  0  0  0  0
 30 59  1  0  0  0  0
 30 64  1  0  0  0  0
 30 75  2  0  0  0  0
 31 60  1  0  0  0  0
 31 69  1  0  0  0  0
 31 76  2  0  0  0  0
 32 65  1  0  0  0  0
 32 70  1  0  0  0  0
 32 77  2  0  0  0  0
 33 36  1  0  0  0  0
 34 46  1  0  0  0  0
 35 64  1  0  0  0  0
 36 39  1  0  0  0  0
 37 40  1  0  0  0  0
 37 42  1  0  0  0  0
 38 41  1  0  0  0  0
 38 44  1  0  0  0  0
 39 45  1  0  0  0  0
 40 47  1  0  0  0  0
 41 48  1  0  0  0  0
 42 65  1  0  0  0  0
 43 47  1  0  0  0  0
 43 65  1  0  0  0  0
 44 71  1  0  0  0  0
 45 68  1  0  0  0  0
 46 64  1  0  0  0  0
 47 63  1  0  0  0  0
 48 54  1  0  0  0  0
 48 71  1  0  0  0  0
 49 60  1  0  0  0  0
 50 61  1  0  0  0  0
 51 61  1  0  0  0  0
 52 61  1  0  0  0  0
 53 72  1  0  0  0  0
 54 58  1  0  0  0  0
 55 56  1  0  0  0  0
 55 57  1  0  0  0  0
 56 70  1  0  0  0  0
 57 71  1  0  0  0  0
 58 79  1  0  0  0  0
 59 61  1  0  0  0  0
 59 69  1  0  0  0  0
 60 72  1  0  0  0  0
 62 63  1  0  0  0  0
M  CHG  2  71   1  72   1
M  ISO  4  32 100  58 101  70 100  79 101
M  END
> <Batch ID>
0138

> <Smiles>
CNC(C)C(=O)NC(C(=O)N1Cc2cc([101O:1][101CH2:1]CC3CCCN3CCC[100NH:0][100C:0](=O)N3CCCC(n4nc(-c5ccc(Oc6ccc(F)cc6F)cc5)c(C(N)=O)c4N)C3)ccc2CC1C(=O)NC1CCCc2ccccc21)C(C)(C)C

> <Shape>
0.192

> <Color>
0.071

> <Negative vol penalty>
0.000

$$$$

  -OEChem-04052321083D

 80 89  0     1  0  0  0  0  0999 V2000
  -32.6041  -28.6372   28.2084 C   0  0  0  0  0  0  0  0  0  0  0  0
  -32.5363  -27.4358   27.5101 C   0  0  0  0  0  0  0  0  0  0  0  0
  -22.9662   -9.8694   20.0399 C   0  0  0  0  0  0  0  0  0  0  0  0
  -23.7511   -9.9752   22.3224 C   0  0  0  0  0  0  0  0  0  0  0  0
  -33.7252  -29.4557   28.0780 C   0  0  0  0  0  0  0  0  0  0  0  0
  -33.5893  -27.0529   26.6800 C   0  0  0  0  0  0  0  0  0  0  0  0
  -31.9994  -16.0394   23.2124 C   0  0  0  0  0  0  0  0  0  0  0  0
  -34.8521  -22.1838   27.2646 C   0  0  0  0  0  0  0  0  0  0  0  0
  -32.9394  -16.9630   23.6771 C   0  0  0  0  0  0  0  0  0  0  0  0
  -22.2068   -8.7421   20.3533 C   0  0  0  0  0  0  0  0  0  0  0  0
  -22.9917   -8.8479   22.6358 C   0  0  0  0  0  0  0  0  0  0  0  0
  -34.0338  -21.2358   26.6518 C   0  0  0  0  0  0  0  0  0  0  0  0
  -23.2235   -5.4985   22.2381 C   0  0  0  0  0  0  0  0  0  0  0  0
  -23.8304   -4.4993   22.9989 C   0  0  0  0  0  0  0  0  0  0  0  0
  -35.6182  -21.0463   24.8427 C   0  0  0  0  0  0  0  0  0  0  0  0
  -32.2181  -18.5951   22.0238 C   0  0  0  0  0  0  0  0  0  0  0  0
  -22.1507   -4.7835   24.7121 C   0  0  0  0  0  0  0  0  0  0  0  0
  -23.7384  -10.4859   21.0245 C   0  0  0  0  0  0  0  0  0  0  0  0
  -24.1191  -12.9963   20.7781 C   0  0  0  0  0  0  0  0  0  0  0  0
  -34.7966  -29.0780   27.2534 C   0  0  0  0  0  0  0  0  0  0  0  0
  -36.0564  -22.5788   26.6646 C   0  0  0  0  0  0  0  0  0  0  0  0
  -34.7252  -27.8678   26.5373 C   0  0  0  0  0  0  0  0  0  0  0  0
  -31.1783  -16.4126   22.1628 C   0  0  0  0  0  0  0  0  0  0  0  0
  -36.4512  -21.9976   25.4511 C   0  0  0  0  0  0  0  0  0  0  0  0
  -33.0491  -18.2321   23.0851 C   0  0  0  0  0  0  0  0  0  0  0  0
  -31.2886  -17.6704   21.5885 C   0  0  0  0  0  0  0  0  0  0  0  0
  -22.2195   -8.2314   21.6512 C   0  0  0  0  0  0  0  0  0  0  0  0
  -34.4154  -20.6690   25.4393 C   0  0  0  0  0  0  0  0  0  0  0  0
  -22.0802   -6.1403   22.7143 C   0  0  0  0  0  0  0  0  0  0  0  0
  -23.2940   -4.1417   24.2359 C   0  0  0  0  0  0  0  0  0  0  0  0
  -21.5438   -5.7828   23.9513 C   0  0  0  0  0  0  0  0  0  0  0  0
  -24.5235  -11.6500   20.7012 C   0  0  0  0  0  0  0  0  0  0  0  0
  -25.2190  -13.7092   20.3677 C   0  0  0  0  0  0  0  0  0  0  0  0
  -22.8617  -13.5527   21.1842 C   0  0  0  0  0  0  0  0  0  0  0  0
  -30.7409  -14.5838   20.5505 C   0  0  0  0  0  0  0  0  0  0  0  0
  -37.2111  -25.3206   25.5450 C   0  0  0  0  0  0  0  0  0  0  0  0
  -39.9231  -23.5789   25.1793 C   0  0  0  0  0  0  0  0  0  0  0  0
  -41.3653  -20.5106   24.7889 C   0  0  0  0  0  0  0  0  0  0  0  0
  -35.9668  -30.0183   27.1074 C   0  0  0  0  0  0  0  0  0  0  0  0
  -36.9408  -23.5830   27.3516 C   0  0  0  0  0  0  0  0  0  0  0  0
  -37.7442  -22.3726   24.7759 C   0  0  0  0  0  0  0  0  0  0  0  0
  -37.2033  -29.3619   26.4988 C   0  0  0  0  0  0  0  0  0  0  0  0
  -29.5125  -12.1884   18.1855 C   0  0  0  0  0  0  0  0  0  0  0  0
  -36.8218  -28.5387   25.2725 C   0  0  0  0  0  0  0  0  0  0  0  0
  -28.0822  -11.9229   18.6535 C   0  0  0  0  0  0  0  0  0  0  0  0
  -30.4491  -12.4339   19.3643 C   0  0  0  0  0  0  0  0  0  0  0  0
  -28.5732  -13.2669   20.7457 C   0  0  0  0  0  0  0  0  0  0  0  0
  -29.4912  -16.7622   20.6416 C   0  0  0  0  0  0  0  0  0  0  0  0
  -30.1392  -15.6327   21.4514 C   0  0  2  0  0  0  0  0  0  0  0  0
  -35.8579  -27.4061   25.6464 C   0  0  1  0  0  0  0  0  0  0  0  0
  -37.8972  -24.2896   26.3959 C   0  0  1  0  0  0  0  0  0  0  0  0
  -27.5881  -13.0442   19.5845 C   0  0  2  0  0  0  0  0  0  0  0  0
  -43.5984  -19.4087   24.4786 C   0  0  0  0  0  0  0  0  0  0  0  0
  -39.9613  -24.4824   22.2652 C   0  0  0  0  0  0  0  0  0  0  0  0
  -41.5981  -22.6483   21.7906 C   0  0  0  0  0  0  0  0  0  0  0  0
  -42.1982  -24.4719   23.3835 C   0  0  0  0  0  0  0  0  0  0  0  0
  -41.0824  -18.9673   27.2983 C   0  0  0  0  0  0  0  0  0  0  0  0
  -34.0707  -19.2043   23.5977 C   0  0  0  0  0  0  0  0  0  1  0  0
  -40.5060  -22.7266   24.0780 C   0  0  1  0  0  0  0  0  0  0  0  0
  -42.5476  -19.8578   25.4820 C   0  0  2  0  0  0  0  0  0  0  0  0
  -41.0405  -23.5765   22.8908 C   0  0  0  0  0  0  0  0  0  0  0  0
  -25.7820  -11.5132   20.2753 N   0  0  0  0  0  0  0  0  0  0  0  0
  -26.1779  -12.7827   20.0808 N   0  0  0  0  0  0  0  0  0  0  0  0
  -29.9335  -13.4903   20.2368 N   0  0  0  0  0  0  0  0  0  0  0  0
  -38.5716  -23.3635   25.4839 N   0  0  0  0  0  0  0  0  0  0  0  0
  -25.4498  -15.0319   20.2277 N   0  0  0  0  0  0  0  0  0  0  0  0
  -21.8391  -12.6777   21.5756 N   0  0  0  0  0  0  0  0  0  0  0  0
  -36.5774  -26.3142   26.2665 N   0  0  0  0  0  0  0  0  0  0  0  0
  -41.5130  -21.8791   24.7073 N   0  0  0  0  0  0  0  0  0  0  0  0
  -42.1000  -18.6671   26.2584 N   0  3  0  0  0  0  0  0  0  0  0  0
  -22.6457  -14.7883   21.1839 O   0  0  0  0  0  0  0  0  0  0  0  0
  -31.8933  -14.7350   20.1365 O   0  0  0  0  0  0  0  0  0  0  0  0
  -37.2547  -25.2227   24.3243 O   0  0  0  0  0  0  0  0  0  0  0  0
  -40.6424  -24.4004   25.7532 O   0  0  0  0  0  0  0  0  0  0  0  0
  -40.4083  -19.8702   24.3592 O   0  0  0  0  0  0  0  0  0  0  0  0
  -30.4126  -17.8788   20.5546 O   0  0  0  0  0  0  0  0  0  0  0  0
  -21.4784   -7.1316   21.9574 O   0  0  0  0  0  0  0  0  0  0  0  0
  -33.6182  -19.7439   24.8388 O   0  0  0  0  0  0  0  0  0  1  0  0
  -23.8759   -3.1811   24.9656 F   0  0  0  0  0  0  0  0  0  0  0  0
  -20.4450   -6.3950   24.4135 F   0  0  0  0  0  0  0  0  0  0  0  0
  1  2  1  0  0  0  0
  1  5  2  0  0  0  0
  2  6  2  0  0  0  0
  3 10  2  0  0  0  0
  3 18  1  0  0  0  0
  4 11  1  0  0  0  0
  4 18  2  0  0  0  0
  5 20  1  0  0  0  0
  6 22  1  0  0  0  0
  7  9  2  0  0  0  0
  7 23  1  0  0  0  0
  8 12  2  0  0  0  0
  8 21  1  0  0  0  0
  9 25  1  0  0  0  0
 10 27  1  0  0  0  0
 11 27  2  0  0  0  0
 12 28  1  0  0  0  0
 13 14  2  0  0  0  0
 13 29  1  0  0  0  0
 14 30  1  0  0  0  0
 15 24  1  0  0  0  0
 15 28  2  0  0  0  0
 16 25  2  0  0  0  0
 16 26  1  0  0  0  0
 17 30  2  0  0  0  0
 17 31  1  0  0  0  0
 18 32  1  0  0  0  0
 19 32  1  0  0  0  0
 19 33  2  0  0  0  0
 19 34  1  0  0  0  0
 20 22  2  0  0  0  0
 20 39  1  0  0  0  0
 21 24  2  0  0  0  0
 21 40  1  0  0  0  0
 22 50  1  0  0  0  0
 23 26  2  0  0  0  0
 23 49  1  0  0  0  0
 24 41  1  0  0  0  0
 25 58  1  0  0  0  0
 26 76  1  0  0  0  0
 27 77  1  0  0  0  0
 28 78  1  0  0  0  0
 29 31  2  0  0  0  0
 29 77  1  0  0  0  0
 30 79  1  0  0  0  0
 31 80  1  0  0  0  0
 32 62  2  0  0  0  0
 33 63  1  0  0  0  0
 33 66  1  0  0  0  0
 34 67  1  0  0  0  0
 34 71  2  0  0  0  0
 35 49  1  0  0  0  0
 35 64  1  0  0  0  0
 35 72  2  0  0  0  0
 36 51  1  0  0  0  0
 36 68  1  0  0  0  0
 36 73  2  0  0  0  0
 37 59  1  0  0  0  0
 37 65  1  0  0  0  0
 37 74  2  0  0  0  0
 38 60  1  0  0  0  0
 38 69  1  0  0  0  0
 38 75  2  0  0  0  0
 39 42  1  0  0  0  0
 40 51  1  0  0  0  0
 41 65  1  0  0  0  0
 42 44  1  0  0  0  0
 43 45  1  0  0  0  0
 43 46  1  0  0  0  0
 44 50  1  0  0  0  0
 45 52  1  0  0  0  0
 46 64  1  0  0  0  0
 47 52  1  0  0  0  0
 47 64  1  0  0  0  0
 48 49  1  0  0  0  0
 48 76  1  0  0  0  0
 50 68  1  0  0  0  0
 51 65  1  0  0  0  0
 52 63  1  0  0  0  0
 53 60  1  0  0  0  0
 54 61  1  0  0  0  0
 55 61  1  0  0  0  0
 56 61  1  0  0  0  0
 57 70  1  0  0  0  0
 58 78  1  0  0  0  0
 59 61  1  0  0  0  0
 59 69  1  0  0  0  0
 60 70  1  0  0  0  0
 62 63  1  0  0  0  0
M  CHG  1  70   1
M  ISO  4  35 100  49 100  58 101  78 101
M  END
> <Batch ID>
0138

> <Smiles>
CNC(C)C(=O)NC(C(=O)N1Cc2cc([101O:1][101CH2:1]c3ccc4c(c3)OC[100CH:0]4[100C:0](=O)N3CCCC(n4nc(-c5ccc(Oc6ccc(F)cc6F)cc5)c(C(N)=O)c4N)C3)ccc2CC1C(=O)NC1CCCc2ccccc21)C(C)(C)C

> <Shape>
0.185

> <Color>
0.215

> <Negative vol penalty>
0.000

$$$$

  -OEChem-04052321083D

 81 89  0     1  0  0  0  0  0999 V2000
  -28.0299  -23.7781   17.3580 C   0  0  0  0  0  0  0  0  0  0  0  0
  -26.8331  -24.0802   17.9996 C   0  0  0  0  0  0  0  0  0  0  0  0
  -26.8652  -17.3202   21.7716 C   0  0  0  0  0  0  0  0  0  0  0  0
  -25.2795  -17.7643   20.0038 C   0  0  0  0  0  0  0  0  0  0  0  0
  -29.2328  -24.2738   17.8592 C   0  0  0  0  0  0  0  0  0  0  0  0
  -26.8386  -24.8774   19.1436 C   0  0  0  0  0  0  0  0  0  0  0  0
  -23.2142  -28.4134   19.0648 C   0  0  0  0  0  0  0  0  0  0  0  0
  -27.6411  -16.5707   20.8874 C   0  0  0  0  0  0  0  0  0  0  0  0
  -26.0555  -17.0149   19.1195 C   0  0  0  0  0  0  0  0  0  0  0  0
  -21.9167  -28.0020   19.3665 C   0  0  0  0  0  0  0  0  0  0  0  0
  -27.5911  -13.4700   19.5431 C   0  0  0  0  0  0  0  0  0  0  0  0
  -28.0785  -12.2420   19.9904 C   0  0  0  0  0  0  0  0  0  0  0  0
  -22.1772  -28.8467   21.6110 C   0  0  0  0  0  0  0  0  0  0  0  0
  -30.3412  -13.0104   19.6344 C   0  0  0  0  0  0  0  0  0  0  0  0
  -25.6843  -17.9169   21.3298 C   0  0  0  0  0  0  0  0  0  0  0  0
  -24.9806  -20.0711   22.5011 C   0  0  0  0  0  0  0  0  0  0  0  0
  -29.2520  -25.0854   19.0044 C   0  0  0  0  0  0  0  0  0  0  0  0
  -24.0081  -29.0357   20.0389 C   0  0  0  0  0  0  0  0  0  0  0  0
  -28.0429  -25.3834   19.6615 C   0  0  0  0  0  0  0  0  0  0  0  0
  -23.4835  -29.2673   21.3184 C   0  0  0  0  0  0  0  0  0  0  0  0
  -27.2363  -16.4181   19.5614 C   0  0  0  0  0  0  0  0  0  0  0  0
  -21.3990  -28.2161   20.6405 C   0  0  0  0  0  0  0  0  0  0  0  0
  -28.4788  -14.4682   19.1413 C   0  0  0  0  0  0  0  0  0  0  0  0
  -29.4535  -12.0122   20.0361 C   0  0  0  0  0  0  0  0  0  0  0  0
  -29.8538  -14.2384   19.1870 C   0  0  0  0  0  0  0  0  0  0  0  0
  -24.8821  -18.6907   22.2429 C   0  0  0  0  0  0  0  0  0  0  0  0
  -24.0050  -20.3159   23.4364 C   0  0  0  0  0  0  0  0  0  0  0  0
  -25.8739  -21.0450   21.9451 C   0  0  0  0  0  0  0  0  0  0  0  0
  -26.7624  -28.3425   21.4662 C   0  0  0  0  0  0  0  0  0  0  0  0
  -26.3905  -31.2964   22.7540 C   0  0  0  0  0  0  0  0  0  0  0  0
  -24.2776  -33.8261   23.6389 C   0  0  0  0  0  0  0  0  0  0  0  0
  -18.7992  -19.6395   25.3305 C   0  0  0  0  0  0  0  0  0  0  0  0
  -30.5815  -25.5591   19.5362 C   0  0  0  0  0  0  0  0  0  0  0  0
  -25.3964  -29.4976   19.6898 C   0  0  0  0  0  0  0  0  0  0  0  0
  -24.2878  -29.9494   22.3938 C   0  0  0  0  0  0  0  0  0  0  0  0
  -30.4636  -26.7054   20.5373 C   0  0  0  0  0  0  0  0  0  0  0  0
  -21.1789  -17.1240   26.1587 C   0  0  0  0  0  0  0  0  0  0  0  0
  -29.3757  -26.4077   21.5642 C   0  0  0  0  0  0  0  0  0  0  0  0
  -22.3593  -17.4174   25.2311 C   0  0  0  0  0  0  0  0  0  0  0  0
  -16.3370  -22.8333   20.5566 C   0  0  0  0  0  0  0  0  0  0  0  0
  -15.8679  -22.0049   21.7387 C   0  0  0  0  0  0  0  0  0  0  0  0
  -19.8415  -17.3968   25.4739 C   0  0  0  0  0  0  0  0  0  0  0  0
  -20.8885  -19.0384   23.9630 C   0  0  0  0  0  0  0  0  0  0  0  0
  -28.0054  -26.2653   20.8907 C   0  0  1  0  0  0  0  0  0  0  0  0
  -26.2972  -29.6587   20.9104 C   0  0  1  0  0  0  0  0  0  0  0  0
  -22.2602  -18.8314   24.6277 C   0  0  2  0  0  0  0  0  0  0  0  0
  -16.9713  -24.0450   21.2246 C   0  0  2  0  0  0  0  0  0  0  0  0
  -17.0439  -22.0942   22.7008 C   0  0  2  0  0  0  0  0  0  0  0  0
  -24.2622  -36.0976   24.7054 C   0  0  0  0  0  0  0  0  0  0  0  0
  -26.7446  -30.0082   25.4971 C   0  0  0  0  0  0  0  0  0  0  0  0
  -25.7916  -32.0858   26.5186 C   0  0  0  0  0  0  0  0  0  0  0  0
  -27.9153  -32.2001   25.2150 C   0  0  0  0  0  0  0  0  0  0  0  0
  -23.1872  -35.0931   21.1966 C   0  0  0  0  0  0  0  0  0  0  0  0
  -18.0312  -24.7317   20.3875 C   0  0  0  0  0  0  0  0  0  0  0  0
  -16.6713  -21.9008   24.1568 C   0  0  0  0  0  0  0  0  0  0  0  0
  -18.5980  -25.9577   21.0978 C   0  0  0  0  0  0  0  0  0  0  0  0
  -17.8789  -21.9318   25.0904 C   0  0  0  0  0  0  0  0  0  0  0  0
  -19.6323  -26.6751   20.2405 C   0  0  0  0  0  0  0  0  0  1  0  0
  -25.7294  -31.8462   23.9948 C   0  0  1  0  0  0  0  0  0  0  0  0
  -24.3430  -35.3236   23.3988 C   0  0  2  0  0  0  0  0  0  0  0  0
  -26.5305  -31.5204   25.2869 C   0  0  0  0  0  0  0  0  0  0  0  0
  -23.9200  -18.1000   22.9567 N   0  0  0  0  0  0  0  0  0  0  0  0
  -23.4051  -19.1140   23.6727 N   0  0  0  0  0  0  0  0  0  0  0  0
  -25.6421  -30.3769   22.0055 N   0  0  0  0  0  0  0  0  0  0  0  0
  -19.8119  -18.7546   24.9248 N   0  0  0  0  0  0  0  0  0  0  0  0
  -23.6105  -21.4398   24.0717 N   0  0  0  0  0  0  0  0  0  0  0  0
  -26.8151  -20.6234   20.9960 N   0  0  0  0  0  0  0  0  0  0  0  0
  -27.4653  -27.5675   20.5635 N   0  0  0  0  0  0  0  0  0  0  0  0
  -25.5349  -33.2722   23.7559 N   0  0  0  0  0  0  0  0  0  0  0  0
  -18.8481  -20.9087   24.7670 N   0  0  0  0  0  0  0  0  0  0  0  0
  -17.5856  -23.4852   22.4835 N   0  3  0  0  0  0  0  0  0  0  0  0
  -23.2167  -35.7578   22.5249 N   0  3  0  0  0  0  0  0  0  0  0  0
  -25.8495  -22.2502   22.2920 O   0  0  0  0  0  0  0  0  0  0  0  0
  -26.5041  -28.0522   22.6284 O   0  0  0  0  0  0  0  0  0  0  0  0
  -27.5262  -31.6744   22.4558 O   0  0  0  0  0  0  0  0  0  0  0  0
  -23.2172  -33.2100   23.7187 O   0  0  0  0  0  0  0  0  0  0  0  0
  -17.9200  -19.3237   26.1393 O   0  0  0  0  0  0  0  0  0  0  0  0
  -27.9933  -15.6871   18.6982 O   0  0  0  0  0  0  0  0  0  0  0  0
  -20.1330  -27.8150   20.9378 O   0  0  0  0  0  0  0  0  0  1  0  0
  -29.9215  -10.8335   20.4671 F   0  0  0  0  0  0  0  0  0  0  0  0
  -30.7115  -15.1939   18.8035 F   0  0  0  0  0  0  0  0  0  0  0  0
  1  2  1  0  0  0  0
  1  5  2  0  0  0  0
  2  6  2  0  0  0  0
  3  8  2  0  0  0  0
  3 15  1  0  0  0  0
  4  9  1  0  0  0  0
  4 15  2  0  0  0  0
  5 17  1  0  0  0  0
  6 19  1  0  0  0  0
  7 10  2  0  0  0  0
  7 18  1  0  0  0  0
  8 21  1  0  0  0  0
  9 21  2  0  0  0  0
 10 22  1  0  0  0  0
 11 12  2  0  0  0  0
 11 23  1  0  0  0  0
 12 24  1  0  0  0  0
 13 20  1  0  0  0  0
 13 22  2  0  0  0  0
 14 24  2  0  0  0  0
 14 25  1  0  0  0  0
 15 26  1  0  0  0  0
 16 26  1  0  0  0  0
 16 27  2  0  0  0  0
 16 28  1  0  0  0  0
 17 19  2  0  0  0  0
 17 33  1  0  0  0  0
 18 20  2  0  0  0  0
 18 34  1  0  0  0  0
 19 44  1  0  0  0  0
 20 35  1  0  0  0  0
 21 78  1  0  0  0  0
 22 79  1  0  0  0  0
 23 25  2  0  0  0  0
 23 78  1  0  0  0  0
 24 80  1  0  0  0  0
 25 81  1  0  0  0  0
 26 62  2  0  0  0  0
 27 63  1  0  0  0  0
 27 66  1  0  0  0  0
 28 67  1  0  0  0  0
 28 73  2  0  0  0  0
 29 45  1  0  0  0  0
 29 68  1  0  0  0  0
 29 74  2  0  0  0  0
 30 59  1  0  0  0  0
 30 64  1  0  0  0  0
 30 75  2  0  0  0  0
 31 60  1  0  0  0  0
 31 69  1  0  0  0  0
 31 76  2  0  0  0  0
 32 65  1  0  0  0  0
 32 70  1  0  0  0  0
 32 77  2  0  0  0  0
 33 36  1  0  0  0  0
 34 45  1  0  0  0  0
 35 64  1  0  0  0  0
 36 38  1  0  0  0  0
 37 39  1  0  0  0  0
 37 42  1  0  0  0  0
 38 44  1  0  0  0  0
 39 46  1  0  0  0  0
 40 41  1  0  0  0  0
 40 47  1  0  0  0  0
 41 48  1  0  0  0  0
 42 65  1  0  0  0  0
 43 46  1  0  0  0  0
 43 65  1  0  0  0  0
 44 68  1  0  0  0  0
 45 64  1  0  0  0  0
 46 63  1  0  0  0  0
 47 54  1  0  0  0  0
 47 71  1  0  0  0  0
 48 55  1  0  0  0  0
 48 71  1  0  0  0  0
 49 60  1  0  0  0  0
 50 61  1  0  0  0  0
 51 61  1  0  0  0  0
 52 61  1  0  0  0  0
 53 72  1  0  0  0  0
 54 56  1  0  0  0  0
 55 57  1  0  0  0  0
 56 58  1  0  0  0  0
 57 70  1  0  0  0  0
 58 79  1  0  0  0  0
 59 61  1  0  0  0  0
 59 69  1  0  0  0  0
 60 72  1  0  0  0  0
 62 63  1  0  0  0  0
M  CHG  2  71   1  72   1
M  ISO  4  32 100  58 101  70 100  79 101
M  END
> <Batch ID>
0138

> <Smiles>
CNC(C)C(=O)NC(C(=O)N1Cc2cc([101O:1][101CH2:1]CCC3CCC(CC[100NH:0][100C:0](=O)N4CCCC(n5nc(-c6ccc(Oc7ccc(F)cc7F)cc6)c(C(N)=O)c5N)C4)N3)ccc2CC1C(=O)NC1CCCc2ccccc21)C(C)(C)C

> <Shape>
0.228

> <Color>
0.063

> <Negative vol penalty>
0.000

$$$$

  -OEChem-04052321083D

 84 92  0     1  0  0  0  0  0999 V2000
  -17.6690  -26.0140   22.7709 C   0  0  0  0  0  0  0  0  0  0  0  0
  -18.9327  -25.7017   22.2800 C   0  0  0  0  0  0  0  0  0  0  0  0
  -28.4978  -12.2200   20.8235 C   0  0  0  0  0  0  0  0  0  0  0  0
  -29.7863  -13.4844   19.2179 C   0  0  0  0  0  0  0  0  0  0  0  0
  -17.2504  -27.3431   22.8201 C   0  0  0  0  0  0  0  0  0  0  0  0
  -19.7782  -26.7183   21.8371 C   0  0  0  0  0  0  0  0  0  0  0  0
  -25.8808  -26.9019   22.3179 C   0  0  0  0  0  0  0  0  0  0  0  0
  -26.7177  -23.2825   17.8020 C   0  0  0  0  0  0  0  0  0  0  0  0
  -26.6342  -22.4142   18.8904 C   0  0  0  0  0  0  0  0  0  0  0  0
  -28.4310  -11.1520   19.9289 C   0  0  0  0  0  0  0  0  0  0  0  0
  -29.7196  -12.4164   18.3232 C   0  0  0  0  0  0  0  0  0  0  0  0
  -26.9021  -26.6025   21.4173 C   0  0  0  0  0  0  0  0  0  0  0  0
  -27.4687  -11.1129   16.1632 C   0  0  0  0  0  0  0  0  0  0  0  0
  -27.1642  -11.4001   14.8327 C   0  0  0  0  0  0  0  0  0  0  0  0
  -27.0599  -28.9367   20.8295 C   0  0  0  0  0  0  0  0  0  0  0  0
  -28.8052  -21.5105   18.3360 C   0  0  0  0  0  0  0  0  0  0  0  0
  -29.2752  -10.4480   14.1440 C   0  0  0  0  0  0  0  0  0  0  0  0
  -29.1754  -13.3863   20.4680 C   0  0  0  0  0  0  0  0  0  0  0  0
  -30.2325  -14.7220   22.3670 C   0  0  0  0  0  0  0  0  0  0  0  0
  -18.0949  -28.3772   22.3866 C   0  0  0  0  0  0  0  0  0  0  0  0
  -25.4332  -28.2218   22.4734 C   0  0  0  0  0  0  0  0  0  0  0  0
  -19.3701  -28.0623   21.8794 C   0  0  0  0  0  0  0  0  0  0  0  0
  -26.0346  -29.2507   21.7346 C   0  0  0  0  0  0  0  0  0  0  0  0
  -27.8449  -23.2648   16.9805 C   0  0  0  0  0  0  0  0  0  0  0  0
  -27.6779  -21.5282   19.1575 C   0  0  0  0  0  0  0  0  0  0  0  0
  -29.0419  -11.2501   18.6787 C   0  0  0  0  0  0  0  0  0  0  0  0
  -27.4898  -27.6195   20.6708 C   0  0  0  0  0  0  0  0  0  0  0  0
  -28.6765  -10.4933   16.4842 C   0  0  0  0  0  0  0  0  0  0  0  0
  -28.8886  -22.3788   17.2476 C   0  0  0  0  0  0  0  0  0  0  0  0
  -28.0674  -11.0677   13.8231 C   0  0  0  0  0  0  0  0  0  0  0  0
  -29.5797  -10.1608   15.4746 C   0  0  0  0  0  0  0  0  0  0  0  0
  -29.2443  -14.4901   21.3916 C   0  0  0  0  0  0  0  0  0  0  0  0
  -29.8461  -15.8909   22.9761 C   0  0  0  0  0  0  0  0  0  0  0  0
  -31.3958  -13.9500   22.6932 C   0  0  0  0  0  0  0  0  0  0  0  0
  -22.6687  -29.7217   22.0132 C   0  0  0  0  0  0  0  0  0  0  0  0
  -24.2466  -32.2185   23.3544 C   0  0  0  0  0  0  0  0  0  0  0  0
  -27.2295  -33.7229   24.0517 C   0  0  0  0  0  0  0  0  0  0  0  0
  -26.5445  -20.5345   21.1759 C   0  0  0  0  0  0  0  0  0  0  0  0
  -17.5804  -29.7947   22.4151 C   0  0  0  0  0  0  0  0  0  0  0  0
  -24.3488  -28.5320   23.4685 C   0  0  0  0  0  0  0  0  0  0  0  0
  -25.6042  -30.6868   21.8792 C   0  0  0  0  0  0  0  0  0  0  0  0
  -18.6798  -30.8446   22.2755 C   0  0  0  0  0  0  0  0  0  0  0  0
  -25.9402  -18.4625   24.0077 C   0  0  0  0  0  0  0  0  0  0  0  0
  -19.6279  -30.4769   21.1386 C   0  0  0  0  0  0  0  0  0  0  0  0
  -26.8135  -17.2325   23.7499 C   0  0  0  0  0  0  0  0  0  0  0  0
  -25.3323  -19.0072   22.7163 C   0  0  0  0  0  0  0  0  0  0  0  0
  -27.1697  -18.0483   21.3846 C   0  0  0  0  0  0  0  0  0  0  0  0
  -20.3255  -29.1391   21.4128 C   0  0  1  0  0  0  0  0  0  0  0  0
  -23.6202  -29.8387   23.1703 C   0  0  1  0  0  0  0  0  0  0  0  0
  -27.8562  -17.5027   22.6474 C   0  0  2  0  0  0  0  0  0  0  0  0
  -28.1978  -35.7737   25.1259 C   0  0  0  0  0  0  0  0  0  0  0  0
  -23.4560  -33.8680   20.9124 C   0  0  0  0  0  0  0  0  0  0  0  0
  -25.1988  -35.5424   21.5658 C   0  0  0  0  0  0  0  0  0  0  0  0
  -23.2805  -35.0813   23.0922 C   0  0  0  0  0  0  0  0  0  0  0  0
  -28.6895  -32.1198   26.0660 C   0  0  0  0  0  0  0  0  0  0  0  0
  -31.0150  -21.4121   16.8004 C   0  0  0  0  0  0  0  0  0  0  0  0
  -27.9173  -24.2064   15.8134 C   0  0  0  0  0  0  0  0  0  0  0  0
  -28.8438  -25.3971   16.0382 C   0  0  0  0  0  0  0  0  0  0  0  0
  -29.2237  -27.3847   17.5023 C   0  0  0  0  0  0  0  0  0  0  0  0
  -28.6021  -28.1682   18.6416 C   0  0  0  0  0  0  0  0  0  1  0  0
  -25.1020  -33.3474   22.8322 C   0  0  1  0  0  0  0  0  0  0  0  0
  -27.7782  -34.3265   25.3319 C   0  0  2  0  0  0  0  0  0  0  0  0
  -24.2663  -34.4326   22.0963 C   0  0  0  0  0  0  0  0  0  0  0  0
  -28.3010  -15.4356   21.3783 N   0  0  0  0  0  0  0  0  0  0  0  0
  -28.6946  -16.2729   22.3530 N   0  0  0  0  0  0  0  0  0  0  0  0
  -24.5360  -30.9386   22.8605 N   0  0  0  0  0  0  0  0  0  0  0  0
  -26.3794  -19.2432   21.7200 N   0  0  0  0  0  0  0  0  0  0  0  0
  -30.3824  -16.6187   23.9786 N   0  0  0  0  0  0  0  0  0  0  0  0
  -31.6434  -12.7761   21.9686 N   0  0  0  0  0  0  0  0  0  0  0  0
  -27.5925  -20.6457   20.2628 N   0  0  0  0  0  0  0  0  0  0  0  0
  -21.3972  -29.3147   22.3694 N   0  0  0  0  0  0  0  0  0  0  0  0
  -25.8585  -33.8485   23.9745 N   0  0  0  0  0  0  0  0  0  0  0  0
  -28.9641  -33.5556   25.8013 N   0  3  0  0  0  0  0  0  0  0  0  0
  -28.3515  -26.2307   17.1680 N   0  3  0  0  0  0  0  0  0  0  0  0
  -32.1832  -14.2823   23.6114 O   0  0  0  0  0  0  0  0  0  0  0  0
  -23.0590  -29.9829   20.8813 O   0  0  0  0  0  0  0  0  0  0  0  0
  -23.3593  -32.4621   24.1760 O   0  0  0  0  0  0  0  0  0  0  0  0
  -27.9458  -33.1962   23.2031 O   0  0  0  0  0  0  0  0  0  0  0  0
  -25.8276  -21.4788   21.5168 O   0  0  0  0  0  0  0  0  0  0  0  0
  -28.9771  -10.2081   17.8056 O   0  0  0  0  0  0  0  0  0  0  0  0
  -29.9964  -22.3486   16.4548 O   0  0  0  0  0  0  0  0  0  0  0  0
  -28.4864  -27.3299   19.7906 O   0  0  0  0  0  0  0  0  0  1  0  0
  -27.7742  -11.3422   12.5453 F   0  0  0  0  0  0  0  0  0  0  0  0
  -30.7411   -9.5644   15.7767 F   0  0  0  0  0  0  0  0  0  0  0  0
  1  2  1  0  0  0  0
  1  5  2  0  0  0  0
  2  6  2  0  0  0  0
  3 10  2  0  0  0  0
  3 18  1  0  0  0  0
  4 11  1  0  0  0  0
  4 18  2  0  0  0  0
  5 20  1  0  0  0  0
  6 22  1  0  0  0  0
  7 12  2  0  0  0  0
  7 21  1  0  0  0  0
  8  9  2  0  0  0  0
  8 24  1  0  0  0  0
  9 25  1  0  0  0  0
 10 26  1  0  0  0  0
 11 26  2  0  0  0  0
 12 27  1  0  0  0  0
 13 14  2  0  0  0  0
 13 28  1  0  0  0  0
 14 30  1  0  0  0  0
 15 23  1  0  0  0  0
 15 27  2  0  0  0  0
 16 25  2  0  0  0  0
 16 29  1  0  0  0  0
 17 30  2  0  0  0  0
 17 31  1  0  0  0  0
 18 32  1  0  0  0  0
 19 32  1  0  0  0  0
 19 33  2  0  0  0  0
 19 34  1  0  0  0  0
 20 22  2  0  0  0  0
 20 39  1  0  0  0  0
 21 23  2  0  0  0  0
 21 40  1  0  0  0  0
 22 48  1  0  0  0  0
 23 41  1  0  0  0  0
 24 29  2  0  0  0  0
 24 57  1  0  0  0  0
 25 70  1  0  0  0  0
 26 80  1  0  0  0  0
 27 82  1  0  0  0  0
 28 31  2  0  0  0  0
 28 80  1  0  0  0  0
 29 81  1  0  0  0  0
 30 83  1  0  0  0  0
 31 84  1  0  0  0  0
 32 64  2  0  0  0  0
 33 65  1  0  0  0  0
 33 68  1  0  0  0  0
 34 69  1  0  0  0  0
 34 75  2  0  0  0  0
 35 49  1  0  0  0  0
 35 71  1  0  0  0  0
 35 76  2  0  0  0  0
 36 61  1  0  0  0  0
 36 66  1  0  0  0  0
 36 77  2  0  0  0  0
 37 62  1  0  0  0  0
 37 72  1  0  0  0  0
 37 78  2  0  0  0  0
 38 67  1  0  0  0  0
 38 70  1  0  0  0  0
 38 79  2  0  0  0  0
 39 42  1  0  0  0  0
 40 49  1  0  0  0  0
 41 66  1  0  0  0  0
 42 44  1  0  0  0  0
 43 45  1  0  0  0  0
 43 46  1  0  0  0  0
 44 48  1  0  0  0  0
 45 50  1  0  0  0  0
 46 67  1  0  0  0  0
 47 50  1  0  0  0  0
 47 67  1  0  0  0  0
 48 71  1  0  0  0  0
 49 66  1  0  0  0  0
 50 65  1  0  0  0  0
 51 62  1  0  0  0  0
 52 63  1  0  0  0  0
 53 63  1  0  0  0  0
 54 63  1  0  0  0  0
 55 73  1  0  0  0  0
 56 81  1  0  0  0  0
 57 58  1  0  0  0  0
 58 74  1  0  0  0  0
 59 60  1  0  0  0  0
 59 74  1  0  0  0  0
 60 82  1  0  0  0  0
 61 63  1  0  0  0  0
 61 72  1  0  0  0  0
 62 73  1  0  0  0  0
 64 65  1  0  0  0  0
M  CHG  2  73   1  74   1
M  ISO  4  38 100  60 101  70 100  82 101
M  END
> <Batch ID>
0138

> <Smiles>
CNC(C)C(=O)NC(C(=O)N1Cc2cc([101O:1][101CH2:1]CNCCc3ccc([100NH:0][100C:0](=O)N4CCCC(n5nc(-c6ccc(Oc7ccc(F)cc7F)cc6)c(C(N)=O)c5N)C4)cc3OC)ccc2CC1C(=O)NC1CCCc2ccccc21)C(C)(C)C

> <Shape>
0.239

> <Color>
0.088

> <Negative vol penalty>
0.000

$$$$

  -OEChem-04052321083D

 88 97  0     1  0  0  0  0  0999 V2000
  -20.3505  -29.5497   16.7393 C   0  0  0  0  0  0  0  0  0  0  0  0
  -21.3379  -28.5789   16.8735 C   0  0  0  0  0  0  0  0  0  0  0  0
  -23.7693  -11.9959   24.0669 C   0  0  0  0  0  0  0  0  0  0  0  0
  -24.5539  -10.0298   22.9024 C   0  0  0  0  0  0  0  0  0  0  0  0
  -20.4324  -30.7318   17.4741 C   0  0  0  0  0  0  0  0  0  0  0  0
  -22.4083  -28.7901   17.7418 C   0  0  0  0  0  0  0  0  0  0  0  0
  -25.3172  -24.5704   21.0942 C   0  0  0  0  0  0  0  0  0  0  0  0
  -23.2921  -11.1922   25.1022 C   0  0  0  0  0  0  0  0  0  0  0  0
  -24.0767   -9.2261   23.9378 C   0  0  0  0  0  0  0  0  0  0  0  0
  -26.5090  -23.8743   20.8975 C   0  0  0  0  0  0  0  0  0  0  0  0
  -21.1026   -7.9839   24.9590 C   0  0  0  0  0  0  0  0  0  0  0  0
  -20.3929   -6.8342   24.6124 C   0  0  0  0  0  0  0  0  0  0  0  0
  -32.7035  -20.7254   20.2900 C   0  0  0  0  0  0  0  0  0  0  0  0
  -30.4462  -20.7191   21.1511 C   0  0  0  0  0  0  0  0  0  0  0  0
  -27.6717  -25.4929   22.2567 C   0  0  0  0  0  0  0  0  0  0  0  0
  -31.1481  -22.4463   19.6144 C   0  0  0  0  0  0  0  0  0  0  0  0
  -22.0325   -5.4774   25.7562 C   0  0  0  0  0  0  0  0  0  0  0  0
  -24.4002  -11.4147   22.9670 C   0  0  0  0  0  0  0  0  0  0  0  0
  -24.1446  -13.1161   21.0835 C   0  0  0  0  0  0  0  0  0  0  0  0
  -21.4994  -30.9535   18.3590 C   0  0  0  0  0  0  0  0  0  0  0  0
  -25.2957  -25.7410   21.8661 C   0  0  0  0  0  0  0  0  0  0  0  0
  -22.5053  -29.9768   18.4881 C   0  0  0  0  0  0  0  0  0  0  0  0
  -31.7171  -20.1476   21.0893 C   0  0  0  0  0  0  0  0  0  0  0  0
  -26.4778  -26.2005   22.4639 C   0  0  0  0  0  0  0  0  0  0  0  0
  -32.4190  -21.8748   19.5526 C   0  0  0  0  0  0  0  0  0  0  0  0
  -30.1617  -21.8685   20.4136 C   0  0  0  0  0  0  0  0  0  0  0  0
  -23.4457   -9.8073   25.0377 C   0  0  0  0  0  0  0  0  0  0  0  0
  -27.6871  -24.3371   21.4763 C   0  0  0  0  0  0  0  0  0  0  0  0
  -22.2773   -7.8804   25.7040 C   0  0  0  0  0  0  0  0  0  0  0  0
  -20.8578   -5.5810   25.0110 C   0  0  0  0  0  0  0  0  0  0  0  0
  -22.7422   -6.6272   26.1026 C   0  0  0  0  0  0  0  0  0  0  0  0
  -24.8930  -12.2443   21.8969 C   0  0  0  0  0  0  0  0  0  0  0  0
  -25.0682  -13.6655   20.2283 C   0  0  0  0  0  0  0  0  0  0  0  0
  -22.7400  -13.4037   21.0997 C   0  0  0  0  0  0  0  0  0  0  0  0
  -24.5835  -28.7870   21.3020 C   0  0  0  0  0  0  0  0  0  0  0  0
  -24.9898  -29.0705   24.5078 C   0  0  0  0  0  0  0  0  0  0  0  0
  -26.4057  -27.8595   27.3670 C   0  0  0  0  0  0  0  0  0  0  0  0
  -30.9788  -14.5370   20.6234 C   0  0  0  0  0  0  0  0  0  0  0  0
  -21.5699  -32.2671   19.0965 C   0  0  0  0  0  0  0  0  0  0  0  0
  -23.9968  -26.4655   22.0909 C   0  0  0  0  0  0  0  0  0  0  0  0
  -26.5044  -27.4408   23.3181 C   0  0  0  0  0  0  0  0  0  0  0  0
  -22.5396  -32.2526   20.2754 C   0  0  0  0  0  0  0  0  0  0  0  0
  -29.2487  -12.7015   18.1105 C   0  0  0  0  0  0  0  0  0  0  0  0
  -23.8653  -31.6173   19.8682 C   0  0  0  0  0  0  0  0  0  0  0  0
  -32.1577  -17.7711   24.1708 C   0  0  0  0  0  0  0  0  0  0  0  0
  -27.8687  -12.4549   18.7226 C   0  0  0  0  0  0  0  0  0  0  0  0
  -31.2866  -16.6265   23.6610 C   0  0  0  0  0  0  0  0  0  0  0  0
  -31.1588  -17.7205   21.3933 C   0  0  0  0  0  0  0  0  0  0  0  0
  -30.3529  -12.6362   19.1634 C   0  0  0  0  0  0  0  0  0  0  0  0
  -28.7687  -13.2681   20.9423 C   0  0  0  0  0  0  0  0  0  0  0  0
  -32.0279  -18.8938   21.8930 C   0  0  2  0  0  0  0  0  0  0  0  0
  -23.6690  -30.1585   19.4383 C   0  0  1  0  0  0  0  0  0  0  0  0
  -24.1879  -27.9304   22.4714 C   0  0  1  0  0  0  0  0  0  0  0  0
  -31.8806  -19.0891   23.4262 C   0  0  2  0  0  0  0  0  0  0  0  0
  -27.6169  -13.3795   19.9288 C   0  0  2  0  0  0  0  0  0  0  0  0
  -31.4590  -16.4286   22.1565 C   0  0  2  0  0  0  0  0  0  0  0  0
  -33.4733  -22.4928   18.6975 C   0  0  0  0  0  0  0  0  0  0  0  0
  -26.5870  -28.3260   29.8261 C   0  0  0  0  0  0  0  0  0  0  0  0
  -26.9643  -31.3243   23.9321 C   0  0  0  0  0  0  0  0  0  0  0  0
  -27.7995  -31.0987   26.2815 C   0  0  0  0  0  0  0  0  0  0  0  0
  -25.4287  -31.7497   25.8596 C   0  0  0  0  0  0  0  0  0  0  0  0
  -25.1442  -25.2757   28.0682 C   0  0  0  0  0  0  0  0  0  0  0  0
  -33.3995  -21.3418   25.9184 C   0  0  0  0  0  0  0  0  0  0  0  0
  -28.7945  -22.4829   20.4804 C   0  0  0  0  0  0  0  0  0  1  0  0
  -32.8196  -20.1769   23.9614 C   0  0  0  0  0  0  0  0  0  0  0  0
  -26.1586  -29.3703   25.4149 C   0  0  1  0  0  0  0  0  0  0  0  0
  -25.8225  -27.5835   28.7412 C   0  0  2  0  0  0  0  0  0  0  0  0
  -26.5880  -30.8634   25.3544 C   0  0  0  0  0  0  0  0  0  0  0  0
  -26.1920  -12.2369   21.5861 N   0  0  0  0  0  0  0  0  0  0  0  0
  -26.2670  -13.1107   20.5679 N   0  0  0  0  0  0  0  0  0  0  0  0
  -25.2101  -28.1177   23.5030 N   0  0  0  0  0  0  0  0  0  0  0  0
  -30.0543  -13.5371   20.2792 N   0  0  0  0  0  0  0  0  0  0  0  0
  -24.9638  -14.5642   19.2263 N   0  0  0  0  0  0  0  0  0  0  0  0
  -21.9353  -12.7513   22.0437 N   0  0  0  0  0  0  0  0  0  0  0  0
  -23.5141  -29.3064   20.5977 N   0  0  0  0  0  0  0  0  0  0  0  0
  -25.7706  -28.9136   26.7450 N   0  0  0  0  0  0  0  0  0  0  0  0
  -30.6152  -15.3516   21.6887 N   0  0  0  0  0  0  0  0  0  0  0  0
  -25.8758  -26.1250   29.0430 N   0  3  0  0  0  0  0  0  0  0  0  0
  -22.2115  -14.2028   20.2899 O   0  0  0  0  0  0  0  0  0  0  0  0
  -25.7711  -28.9648   21.0577 O   0  0  0  0  0  0  0  0  0  0  0  0
  -23.9185  -29.6547   24.6886 O   0  0  0  0  0  0  0  0  0  0  0  0
  -27.3343  -27.2078   26.8943 O   0  0  0  0  0  0  0  0  0  0  0  0
  -32.0467  -14.6956   20.0222 O   0  0  0  0  0  0  0  0  0  0  0  0
  -22.9804   -9.0228   26.0479 O   0  0  0  0  0  0  0  0  0  0  0  0
  -28.8519  -23.6599   21.2853 O   0  0  0  0  0  0  0  0  0  1  0  0
  -32.5639  -20.3432   25.3417 O   0  0  0  0  0  0  0  0  0  0  0  0
  -20.1754   -4.4771   24.6795 F   0  0  0  0  0  0  0  0  0  0  0  0
  -23.8695   -6.5215   26.8196 F   0  0  0  0  0  0  0  0  0  0  0  0
  1  2  1  0  0  0  0
  1  5  2  0  0  0  0
  2  6  2  0  0  0  0
  3  8  2  0  0  0  0
  3 18  1  0  0  0  0
  4  9  1  0  0  0  0
  4 18  2  0  0  0  0
  5 20  1  0  0  0  0
  6 22  1  0  0  0  0
  7 10  2  0  0  0  0
  7 21  1  0  0  0  0
  8 27  1  0  0  0  0
  9 27  2  0  0  0  0
 10 28  1  0  0  0  0
 11 12  2  0  0  0  0
 11 29  1  0  0  0  0
 12 30  1  0  0  0  0
 13 23  2  0  0  0  0
 13 25  1  0  0  0  0
 14 23  1  0  0  0  0
 14 26  2  0  0  0  0
 15 24  1  0  0  0  0
 15 28  2  0  0  0  0
 16 25  2  0  0  0  0
 16 26  1  0  0  0  0
 17 30  2  0  0  0  0
 17 31  1  0  0  0  0
 18 32  1  0  0  0  0
 19 32  1  0  0  0  0
 19 33  2  0  0  0  0
 19 34  1  0  0  0  0
 20 22  2  0  0  0  0
 20 39  1  0  0  0  0
 21 24  2  0  0  0  0
 21 40  1  0  0  0  0
 22 52  1  0  0  0  0
 23 51  1  0  0  0  0
 24 41  1  0  0  0  0
 25 57  1  0  0  0  0
 26 64  1  0  0  0  0
 27 84  1  0  0  0  0
 28 85  1  0  0  0  0
 29 31  2  0  0  0  0
 29 84  1  0  0  0  0
 30 87  1  0  0  0  0
 31 88  1  0  0  0  0
 32 69  2  0  0  0  0
 33 70  1  0  0  0  0
 33 73  1  0  0  0  0
 34 74  1  0  0  0  0
 34 79  2  0  0  0  0
 35 53  1  0  0  0  0
 35 75  1  0  0  0  0
 35 80  2  0  0  0  0
 36 66  1  0  0  0  0
 36 71  1  0  0  0  0
 36 81  2  0  0  0  0
 37 67  1  0  0  0  0
 37 76  1  0  0  0  0
 37 82  2  0  0  0  0
 38 72  1  0  0  0  0
 38 77  1  0  0  0  0
 38 83  2  0  0  0  0
 39 42  1  0  0  0  0
 40 53  1  0  0  0  0
 41 71  1  0  0  0  0
 42 44  1  0  0  0  0
 43 46  1  0  0  0  0
 43 49  1  0  0  0  0
 44 52  1  0  0  0  0
 45 47  1  0  0  0  0
 45 54  1  0  0  0  0
 46 55  1  0  0  0  0
 47 56  1  0  0  0  0
 48 51  1  0  0  0  0
 48 56  1  0  0  0  0
 49 72  1  0  0  0  0
 50 55  1  0  0  0  0
 50 72  1  0  0  0  0
 51 54  1  0  0  0  0
 52 75  1  0  0  0  0
 53 71  1  0  0  0  0
 54 65  1  0  0  0  0
 55 70  1  0  0  0  0
 56 77  1  0  0  0  0
 58 67  1  0  0  0  0
 59 68  1  0  0  0  0
 60 68  1  0  0  0  0
 61 68  1  0  0  0  0
 62 78  1  0  0  0  0
 63 86  1  0  0  0  0
 64 85  1  0  0  0  0
 65 86  1  0  0  0  0
 66 68  1  0  0  0  0
 66 76  1  0  0  0  0
 67 78  1  0  0  0  0
 69 70  1  0  0  0  0
M  CHG  1  78   1
M  ISO  4  38 100  64 101  77 100  85 101
M  END
> <Batch ID>
0138

> <Smiles>
CNC(C)C(=O)NC(C(=O)N1Cc2cc([101O:1][101CH2:1]c3cc(C)cc(C4CC([100NH:0][100C:0](=O)N5CCCC(n6nc(-c7ccc(Oc8ccc(F)cc8F)cc7)c(C(N)=O)c6N)C5)CCC4COC)c3)ccc2CC1C(=O)NC1CCCc2ccccc21)C(C)(C)C

> <Shape>
0.226

> <Color>
0.119

> <Negative vol penalty>
0.000

$$$$

  -OEChem-04052321083D

 83 92  0     1  0  0  0  0  0999 V2000
  -16.8795  -29.5909   24.1763 C   0  0  0  0  0  0  0  0  0  0  0  0
  -17.5157  -28.4206   24.5775 C   0  0  0  0  0  0  0  0  0  0  0  0
  -23.1944   -9.7503   20.5537 C   0  0  0  0  0  0  0  0  0  0  0  0
  -23.7809  -10.3373   22.8227 C   0  0  0  0  0  0  0  0  0  0  0  0
  -17.3773  -30.3185   23.0961 C   0  0  0  0  0  0  0  0  0  0  0  0
  -18.6496  -27.9766   23.8981 C   0  0  0  0  0  0  0  0  0  0  0  0
  -24.8272  -24.5232   25.0066 C   0  0  0  0  0  0  0  0  0  0  0  0
  -22.4765   -8.6506   21.0236 C   0  0  0  0  0  0  0  0  0  0  0  0
  -23.0629   -9.2376   23.2927 C   0  0  0  0  0  0  0  0  0  0  0  0
  -25.5606  -23.4437   24.5163 C   0  0  0  0  0  0  0  0  0  0  0  0
  -19.8301   -8.4339   23.8616 C   0  0  0  0  0  0  0  0  0  0  0  0
  -18.9902   -8.6307   24.9577 C   0  0  0  0  0  0  0  0  0  0  0  0
  -26.3771  -24.8244   22.7146 C   0  0  0  0  0  0  0  0  0  0  0  0
  -27.4771  -19.6722   21.7557 C   0  0  0  0  0  0  0  0  0  0  0  0
  -20.2432   -6.9897   26.2124 C   0  0  0  0  0  0  0  0  0  0  0  0
  -29.8531  -19.0873   23.0182 C   0  0  0  0  0  0  0  0  0  0  0  0
  -23.8466  -10.5936   21.4532 C   0  0  0  0  0  0  0  0  0  0  0  0
  -24.1042  -13.0341   20.7563 C   0  0  0  0  0  0  0  0  0  0  0  0
  -18.5235  -29.8883   22.4092 C   0  0  0  0  0  0  0  0  0  0  0  0
  -24.8546  -25.7606   24.3472 C   0  0  0  0  0  0  0  0  0  0  0  0
  -19.1624  -28.6984   22.8069 C   0  0  0  0  0  0  0  0  0  0  0  0
  -25.6452  -25.9188   23.2000 C   0  0  0  0  0  0  0  0  0  0  0  0
  -29.5435  -18.4362   21.8326 C   0  0  0  0  0  0  0  0  0  0  0  0
  -28.3416  -18.7349   21.1980 C   0  0  0  0  0  0  0  0  0  0  0  0
  -22.4107   -8.3943   22.3932 C   0  0  0  0  0  0  0  0  0  0  0  0
  -26.3335  -23.5933   23.3686 C   0  0  0  0  0  0  0  0  0  0  0  0
  -20.8766   -7.5150   23.9409 C   0  0  0  0  0  0  0  0  0  0  0  0
  -19.1967   -7.9086   26.1331 C   0  0  0  0  0  0  0  0  0  0  0  0
  -21.0831   -6.7929   25.1163 C   0  0  0  0  0  0  0  0  0  0  0  0
  -24.5888  -11.7295   20.9683 C   0  0  0  0  0  0  0  0  0  0  0  0
  -27.8390  -20.2919   22.9433 C   0  0  0  0  0  0  0  0  0  0  0  0
  -25.1923  -13.7338   20.2949 C   0  0  0  0  0  0  0  0  0  0  0  0
  -22.7881  -13.5658   20.9584 C   0  0  0  0  0  0  0  0  0  0  0  0
  -22.6844  -27.5857   22.9111 C   0  0  0  0  0  0  0  0  0  0  0  0
  -25.1537  -29.6785   22.6986 C   0  0  0  0  0  0  0  0  0  0  0  0
  -28.5286  -30.1800   22.6295 C   0  0  0  0  0  0  0  0  0  0  0  0
  -30.6061  -15.0580   20.5831 C   0  0  0  0  0  0  0  0  0  0  0  0
  -18.9969  -30.6829   21.2179 C   0  0  0  0  0  0  0  0  0  0  0  0
  -24.0789  -26.9227   24.9040 C   0  0  0  0  0  0  0  0  0  0  0  0
  -25.7247  -27.2320   22.4667 C   0  0  0  0  0  0  0  0  0  0  0  0
  -20.4216  -30.3443   20.7870 C   0  0  0  0  0  0  0  0  0  0  0  0
  -29.7368  -12.1217   18.7666 C   0  0  0  0  0  0  0  0  0  0  0  0
  -20.6173  -28.8326   20.7306 C   0  0  0  0  0  0  0  0  0  0  0  0
  -28.2828  -11.8624   19.1648 C   0  0  0  0  0  0  0  0  0  0  0  0
  -26.6322  -19.5292   18.3519 C   0  0  0  0  0  0  0  0  0  0  0  0
  -26.6229  -18.1246   17.8251 C   0  0  0  0  0  0  0  0  0  0  0  0
  -30.5534  -12.6674   19.9360 C   0  0  0  0  0  0  0  0  0  0  0  0
  -28.5284  -13.6024   20.9843 C   0  0  0  0  0  0  0  0  0  0  0  0
  -20.4093  -28.1975   22.1108 C   0  0  1  0  0  0  0  0  0  0  0  0
  -23.7753  -27.9933   23.8605 C   0  0  1  0  0  0  0  0  0  0  0  0
  -27.6515  -13.1040   19.8229 C   0  0  2  0  0  0  0  0  0  0  0  0
  -26.7618  -18.3710   19.3013 C   0  0  0  0  0  0  0  0  0  0  0  0
  -30.2462  -31.9962   22.4084 C   0  0  0  0  0  0  0  0  0  0  0  0
  -24.6014  -29.8326   19.7017 C   0  0  0  0  0  0  0  0  0  0  0  0
  -26.8639  -30.8637   19.4084 C   0  0  0  0  0  0  0  0  0  0  0  0
  -25.1335  -32.0261   20.7785 C   0  0  0  0  0  0  0  0  0  0  0  0
  -29.6625  -29.5925   25.2993 C   0  0  0  0  0  0  0  0  0  0  0  0
  -30.5014  -17.4396   21.2729 C   0  0  0  0  0  0  0  0  0  0  0  0
  -26.9635  -21.3127   23.6087 C   0  0  0  0  0  0  0  0  0  1  0  0
  -26.2446  -29.9460   21.6899 C   0  0  1  0  0  0  0  0  0  0  0  0
  -29.4164  -31.1622   23.3721 C   0  0  2  0  0  0  0  0  0  0  0  0
  -25.7080  -30.6417   20.4071 C   0  0  0  0  0  0  0  0  0  0  0  0
  -25.8839  -11.6051   20.6662 N   0  0  0  0  0  0  0  0  0  0  0  0
  -26.2223  -12.8405   20.2596 N   0  0  0  0  0  0  0  0  0  0  0  0
  -29.0025  -19.9855   23.5333 N   0  3  0  0  0  0  0  0  0  0  0  0
  -24.9433  -28.3367   23.0467 N   0  0  0  0  0  0  0  0  0  0  0  0
  -29.9014  -13.8449   20.5142 N   0  0  0  0  0  0  0  0  0  0  0  0
  -25.3589  -15.0199   19.9199 N   0  0  0  0  0  0  0  0  0  0  0  0
  -21.7877  -12.7093   21.4378 N   0  0  0  0  0  0  0  0  0  0  0  0
  -27.9843  -18.0979   19.9899 N   0  0  0  0  0  0  0  0  0  0  0  0
  -21.5737  -28.4071   22.9443 N   0  0  0  0  0  0  0  0  0  0  0  0
  -27.2746  -30.7025   22.3936 N   0  0  0  0  0  0  0  0  0  0  0  0
  -29.9125  -16.1258   21.1394 N   0  0  0  0  0  0  0  0  0  0  0  0
  -30.3446  -30.4348   24.2833 N   0  3  0  0  0  0  0  0  0  0  0  0
  -22.5036  -14.7611   20.7054 O   0  0  0  0  0  0  0  0  0  0  0  0
  -22.8395  -26.5998   22.2000 O   0  0  0  0  0  0  0  0  0  0  0  0
  -24.5166  -30.6258   23.1659 O   0  0  0  0  0  0  0  0  0  0  0  0
  -28.9107  -29.0625   22.2891 O   0  0  0  0  0  0  0  0  0  0  0  0
  -31.7655  -15.1817   20.1739 O   0  0  0  0  0  0  0  0  0  0  0  0
  -21.7101   -7.3214   22.8522 O   0  0  0  0  0  0  0  0  0  0  0  0
  -27.0498  -22.5410   22.8876 O   0  0  0  0  0  0  0  0  0  1  0  0
  -18.3909   -8.0987   27.1861 F   0  0  0  0  0  0  0  0  0  0  0  0
  -22.0875   -5.9096   25.1989 F   0  0  0  0  0  0  0  0  0  0  0  0
  1  2  1  0  0  0  0
  1  5  2  0  0  0  0
  2  6  2  0  0  0  0
  3  8  2  0  0  0  0
  3 17  1  0  0  0  0
  4  9  1  0  0  0  0
  4 17  2  0  0  0  0
  5 19  1  0  0  0  0
  6 21  1  0  0  0  0
  7 10  2  0  0  0  0
  7 20  1  0  0  0  0
  8 25  1  0  0  0  0
  9 25  2  0  0  0  0
 10 26  1  0  0  0  0
 11 12  2  0  0  0  0
 11 27  1  0  0  0  0
 12 28  1  0  0  0  0
 13 22  1  0  0  0  0
 13 26  2  0  0  0  0
 14 24  2  0  0  0  0
 14 31  1  0  0  0  0
 15 28  2  0  0  0  0
 15 29  1  0  0  0  0
 16 23  2  0  0  0  0
 16 65  1  0  0  0  0
 17 30  1  0  0  0  0
 18 30  1  0  0  0  0
 18 32  2  0  0  0  0
 18 33  1  0  0  0  0
 19 21  2  0  0  0  0
 19 38  1  0  0  0  0
 20 22  2  0  0  0  0
 20 39  1  0  0  0  0
 21 49  1  0  0  0  0
 22 40  1  0  0  0  0
 23 24  1  0  0  0  0
 23 58  1  0  0  0  0
 24 70  1  0  0  0  0
 25 80  1  0  0  0  0
 26 81  1  0  0  0  0
 27 29  2  0  0  0  0
 27 80  1  0  0  0  0
 28 82  1  0  0  0  0
 29 83  1  0  0  0  0
 30 63  2  0  0  0  0
 31 59  1  0  0  0  0
 31 65  2  0  0  0  0
 32 64  1  0  0  0  0
 32 68  1  0  0  0  0
 33 69  1  0  0  0  0
 33 75  2  0  0  0  0
 34 50  1  0  0  0  0
 34 71  1  0  0  0  0
 34 76  2  0  0  0  0
 35 60  1  0  0  0  0
 35 66  1  0  0  0  0
 35 77  2  0  0  0  0
 36 61  1  0  0  0  0
 36 72  1  0  0  0  0
 36 78  2  0  0  0  0
 37 67  1  0  0  0  0
 37 73  1  0  0  0  0
 37 79  2  0  0  0  0
 38 41  1  0  0  0  0
 39 50  1  0  0  0  0
 40 66  1  0  0  0  0
 41 43  1  0  0  0  0
 42 44  1  0  0  0  0
 42 47  1  0  0  0  0
 43 49  1  0  0  0  0
 44 51  1  0  0  0  0
 45 46  1  0  0  0  0
 45 52  1  0  0  0  0
 46 52  1  0  0  0  0
 47 67  1  0  0  0  0
 48 51  1  0  0  0  0
 48 67  1  0  0  0  0
 49 71  1  0  0  0  0
 50 66  1  0  0  0  0
 51 64  1  0  0  0  0
 52 70  1  0  0  0  0
 53 61  1  0  0  0  0
 54 62  1  0  0  0  0
 55 62  1  0  0  0  0
 56 62  1  0  0  0  0
 57 74  1  0  0  0  0
 58 73  1  0  0  0  0
 59 81  1  0  0  0  0
 60 62  1  0  0  0  0
 60 72  1  0  0  0  0
 61 74  1  0  0  0  0
 63 64  1  0  0  0  0
M  CHG  2  65   1  74   1
M  ISO  4  37 100  59 101  73 100  81 101
M  END
> <Batch ID>
0138

> <Smiles>
CNC(C)C(=O)NC(C(=O)N1Cc2cc([101O:1][101CH2:1]c3cc(NC4CC4)c(C[100NH:0][100C:0](=O)N4CCCC(n5nc(-c6ccc(Oc7ccc(F)cc7F)cc6)c(C(N)=O)c5N)C4)cn3)ccc2CC1C(=O)NC1CCCc2ccccc21)C(C)(C)C

> <Shape>
0.282

> <Color>
0.184

> <Negative vol penalty>
0.000

$$$$

  -OEChem-04052321083D

 82 90  0     1  0  0  0  0  0999 V2000
  -28.5139  -31.6333   27.0037 C   0  0  0  0  0  0  0  0  0  0  0  0
  -28.1894  -30.4030   26.4412 C   0  0  0  0  0  0  0  0  0  0  0  0
  -24.5458   -8.5534   21.3352 C   0  0  0  0  0  0  0  0  0  0  0  0
  -23.2898  -10.6019   21.5858 C   0  0  0  0  0  0  0  0  0  0  0  0
  -27.5767  -32.6656   27.0075 C   0  0  0  0  0  0  0  0  0  0  0  0
  -26.9272  -30.2039   25.8831 C   0  0  0  0  0  0  0  0  0  0  0  0
  -27.1321  -27.8432   21.4076 C   0  0  0  0  0  0  0  0  0  0  0  0
  -26.6155  -19.3237   20.2735 C   0  0  0  0  0  0  0  0  0  0  0  0
  -23.7992   -7.9703   22.3590 C   0  0  0  0  0  0  0  0  0  0  0  0
  -22.5430  -10.0188   22.6096 C   0  0  0  0  0  0  0  0  0  0  0  0
  -27.3345  -26.4638   21.4240 C   0  0  0  0  0  0  0  0  0  0  0  0
  -20.7402   -6.5778   22.7288 C   0  0  0  0  0  0  0  0  0  0  0  0
  -20.2641   -5.2824   22.5270 C   0  0  0  0  0  0  0  0  0  0  0  0
  -26.8118  -17.9472   20.2629 C   0  0  0  0  0  0  0  0  0  0  0  0
  -24.9717  -26.1192   21.0807 C   0  0  0  0  0  0  0  0  0  0  0  0
  -21.5026   -4.5263   24.4587 C   0  0  0  0  0  0  0  0  0  0  0  0
  -24.2912   -9.8692   20.9487 C   0  0  0  0  0  0  0  0  0  0  0  0
  -24.7710  -10.4622   18.5143 C   0  0  0  0  0  0  0  0  0  0  0  0
  -26.3057  -32.4822   26.4406 C   0  0  0  0  0  0  0  0  0  0  0  0
  -25.8443  -28.3717   21.2383 C   0  0  0  0  0  0  0  0  0  0  0  0
  -25.9717  -31.2343   25.8805 C   0  0  0  0  0  0  0  0  0  0  0  0
  -24.7561  -27.5057   21.0600 C   0  0  0  0  0  0  0  0  0  0  0  0
  -27.7062  -20.1769   20.1482 C   0  0  0  0  0  0  0  0  0  0  0  0
  -22.7978   -8.7030   22.9962 C   0  0  0  0  0  0  0  0  0  0  0  0
  -26.2538  -25.6016   21.2635 C   0  0  0  0  0  0  0  0  0  0  0  0
  -21.5976   -6.8475   23.7955 C   0  0  0  0  0  0  0  0  0  0  0  0
  -20.6453   -4.2566   23.3919 C   0  0  0  0  0  0  0  0  0  0  0  0
  -21.9788   -5.8217   24.6605 C   0  0  0  0  0  0  0  0  0  0  0  0
  -25.0625  -10.4723   19.8916 C   0  0  0  0  0  0  0  0  0  0  0  0
  -28.1083  -17.4781   20.1255 C   0  0  0  0  0  0  0  0  0  0  0  0
  -28.9626  -19.6080   20.0162 C   0  0  0  0  0  0  0  0  0  0  0  0
  -25.8016  -11.1653   17.9400 C   0  0  0  0  0  0  0  0  0  0  0  0
  -23.6672   -9.8702   17.8166 C   0  0  0  0  0  0  0  0  0  0  0  0
  -23.9130  -30.1813   22.9986 C   0  0  0  0  0  0  0  0  0  0  0  0
  -22.0701  -30.1287   20.3296 C   0  0  0  0  0  0  0  0  0  0  0  0
  -21.2104  -28.5415   17.4333 C   0  0  0  0  0  0  0  0  0  0  0  0
  -29.5037  -15.3852   19.9876 C   0  0  0  0  0  0  0  0  0  0  0  0
  -25.3096  -33.6125   26.5105 C   0  0  0  0  0  0  0  0  0  0  0  0
  -25.6466  -29.8622   21.1962 C   0  0  0  0  0  0  0  0  0  0  0  0
  -23.3565  -28.0228   20.8544 C   0  0  0  0  0  0  0  0  0  0  0  0
  -24.1246  -33.4395   25.5640 C   0  0  0  0  0  0  0  0  0  0  0  0
  -30.4224  -12.2406   18.5931 C   0  0  0  0  0  0  0  0  0  0  0  0
  -23.5684  -32.0222   25.6583 C   0  0  0  0  0  0  0  0  0  0  0  0
  -29.1242  -11.4314   18.6369 C   0  0  0  0  0  0  0  0  0  0  0  0
  -30.5677  -13.1462   19.8148 C   0  0  0  0  0  0  0  0  0  0  0  0
  -28.1239  -13.2184   20.1178 C   0  0  0  0  0  0  0  0  0  0  0  0
  -24.6214  -30.9876   25.2433 C   0  0  1  0  0  0  0  0  0  0  0  0
  -24.2197  -30.2853   21.5313 C   0  0  1  0  0  0  0  0  0  0  0  0
  -27.9019  -12.3394   18.8761 C   0  0  2  0  0  0  0  0  0  0  0  0
  -19.6450  -28.7183   15.4799 C   0  0  0  0  0  0  0  0  0  0  0  0
  -19.7713  -29.1615   22.0874 C   0  0  0  0  0  0  0  0  0  0  0  0
  -18.5679  -28.4600   20.0070 C   0  0  0  0  0  0  0  0  0  0  0  0
  -19.1279  -30.8633   20.3715 C   0  0  0  0  0  0  0  0  0  0  0  0
  -23.4496  -28.7333   15.5077 C   0  0  0  0  0  0  0  0  0  0  0  0
  -31.3212  -19.7661   19.7553 C   0  0  0  0  0  0  0  0  0  0  0  0
  -27.5072  -21.6639   20.1599 C   0  0  0  0  0  0  0  0  0  0  0  0
  -27.7882  -23.7900   21.4659 C   0  0  0  0  0  0  0  0  0  1  0  0
  -20.9747  -29.2326   19.8042 C   0  0  1  0  0  0  0  0  0  0  0  0
  -21.0262  -29.0583   16.0179 C   0  0  2  0  0  0  0  0  0  0  0  0
  -19.6364  -29.4193   20.5733 C   0  0  0  0  0  0  0  0  0  0  0  0
  -26.1901  -11.1296   20.1751 N   0  0  0  0  0  0  0  0  0  0  0  0
  -29.1926  -18.2758   20.0014 N   0  0  0  0  0  0  0  0  0  0  0  0
  -26.6163  -11.5390   18.9681 N   0  0  0  0  0  0  0  0  0  0  0  0
  -23.2135  -29.4878   20.8272 N   0  0  0  0  0  0  0  0  0  0  0  0
  -29.3746  -13.9802   19.9758 N   0  0  0  0  0  0  0  0  0  0  0  0
  -26.0815  -11.4942   16.6610 N   0  0  0  0  0  0  0  0  0  0  0  0
  -22.6974   -9.1838   18.5601 N   0  0  0  0  0  0  0  0  0  0  0  0
  -28.2977  -16.0739   20.1138 N   0  0  0  0  0  0  0  0  0  0  0  0
  -24.7426  -30.9401   23.8019 N   0  0  0  0  0  0  0  0  0  0  0  0
  -20.8829  -29.4966   18.3724 N   0  0  0  0  0  0  0  0  0  0  0  0
  -22.0447  -28.4580   15.1106 N   0  3  0  0  0  0  0  0  0  0  0  0
  -27.9228  -22.2973   21.4392 N   0  3  0  0  0  0  0  0  0  0  0  0
  -23.5531   -9.9335   16.5690 O   0  0  0  0  0  0  0  0  0  0  0  0
  -22.9908  -29.4668   23.3739 O   0  0  0  0  0  0  0  0  0  0  0  0
  -21.9199  -31.3526   20.2930 O   0  0  0  0  0  0  0  0  0  0  0  0
  -21.6018  -27.4032   17.6811 O   0  0  0  0  0  0  0  0  0  0  0  0
  -30.6002  -15.9372   19.8654 O   0  0  0  0  0  0  0  0  0  0  0  0
  -22.0688   -8.1343   23.9950 O   0  0  0  0  0  0  0  0  0  0  0  0
  -26.4484  -24.2548   21.2797 O   0  0  0  0  0  0  0  0  0  1  0  0
  -30.0625  -20.4156   19.8867 O   0  0  0  0  0  0  0  0  0  0  0  0
  -20.1867   -3.0130   23.1989 F   0  0  0  0  0  0  0  0  0  0  0  0
  -22.8012   -6.0749   25.6877 F   0  0  0  0  0  0  0  0  0  0  0  0
  1  2  1  0  0  0  0
  1  5  2  0  0  0  0
  2  6  2  0  0  0  0
  3  9  2  0  0  0  0
  3 17  1  0  0  0  0
  4 10  1  0  0  0  0
  4 17  2  0  0  0  0
  5 19  1  0  0  0  0
  6 21  1  0  0  0  0
  7 11  2  0  0  0  0
  7 20  1  0  0  0  0
  8 14  2  0  0  0  0
  8 23  1  0  0  0  0
  9 24  1  0  0  0  0
 10 24  2  0  0  0  0
 11 25  1  0  0  0  0
 12 13  2  0  0  0  0
 12 26  1  0  0  0  0
 13 27  1  0  0  0  0
 14 30  1  0  0  0  0
 15 22  1  0  0  0  0
 15 25  2  0  0  0  0
 16 27  2  0  0  0  0
 16 28  1  0  0  0  0
 17 29  1  0  0  0  0
 18 29  1  0  0  0  0
 18 32  2  0  0  0  0
 18 33  1  0  0  0  0
 19 21  2  0  0  0  0
 19 38  1  0  0  0  0
 20 22  2  0  0  0  0
 20 39  1  0  0  0  0
 21 47  1  0  0  0  0
 22 40  1  0  0  0  0
 23 31  2  0  0  0  0
 23 56  1  0  0  0  0
 24 78  1  0  0  0  0
 25 79  1  0  0  0  0
 26 28  2  0  0  0  0
 26 78  1  0  0  0  0
 27 81  1  0  0  0  0
 28 82  1  0  0  0  0
 29 61  2  0  0  0  0
 30 62  2  0  0  0  0
 30 68  1  0  0  0  0
 31 62  1  0  0  0  0
 31 80  1  0  0  0  0
 32 63  1  0  0  0  0
 32 66  1  0  0  0  0
 33 67  1  0  0  0  0
 33 73  2  0  0  0  0
 34 48  1  0  0  0  0
 34 69  1  0  0  0  0
 34 74  2  0  0  0  0
 35 58  1  0  0  0  0
 35 64  1  0  0  0  0
 35 75  2  0  0  0  0
 36 59  1  0  0  0  0
 36 70  1  0  0  0  0
 36 76  2  0  0  0  0
 37 65  1  0  0  0  0
 37 68  1  0  0  0  0
 37 77  2  0  0  0  0
 38 41  1  0  0  0  0
 39 48  1  0  0  0  0
 40 64  1  0  0  0  0
 41 43  1  0  0  0  0
 42 44  1  0  0  0  0
 42 45  1  0  0  0  0
 43 47  1  0  0  0  0
 44 49  1  0  0  0  0
 45 65  1  0  0  0  0
 46 49  1  0  0  0  0
 46 65  1  0  0  0  0
 47 69  1  0  0  0  0
 48 64  1  0  0  0  0
 49 63  1  0  0  0  0
 50 59  1  0  0  0  0
 51 60  1  0  0  0  0
 52 60  1  0  0  0  0
 53 60  1  0  0  0  0
 54 71  1  0  0  0  0
 55 80  1  0  0  0  0
 56 72  1  0  0  0  0
 57 72  1  0  0  0  0
 57 79  1  0  0  0  0
 58 60  1  0  0  0  0
 58 70  1  0  0  0  0
 59 71  1  0  0  0  0
 61 63  1  0  0  0  0
M  CHG  2  71   1  72   1
M  ISO  4  37 100  57 101  68 100  79 101
M  END
> <Batch ID>
0138

> <Smiles>
CNC(C)C(=O)NC(C(=O)N1Cc2cc([101O:1][101CH2:1]NCc3ccc([100NH:0][100C:0](=O)N4CCCC(n5nc(-c6ccc(Oc7ccc(F)cc7F)cc6)c(C(N)=O)c5N)C4)nc3OC)ccc2CC1C(=O)NC1CCCc2ccccc21)C(C)(C)C

> <Shape>
0.275

> <Color>
0.082

> <Negative vol penalty>
0.000

$$$$

  -OEChem-04052321083D

 89 98  0     1  0  0  0  0  0999 V2000
  -23.8541  -22.7968   18.5690 C   0  0  0  0  0  0  0  0  0  0  0  0
  -24.9125  -21.9386   18.2886 C   0  0  0  0  0  0  0  0  0  0  0  0
  -26.2973  -30.9689   22.4500 C   0  0  0  0  0  0  0  0  0  0  0  0
  -26.4724  -31.8185   20.1951 C   0  0  0  0  0  0  0  0  0  0  0  0
  -22.9980  -22.5209   19.6343 C   0  0  0  0  0  0  0  0  0  0  0  0
  -25.1161  -20.8045   19.0740 C   0  0  0  0  0  0  0  0  0  0  0  0
  -27.2194  -15.3636   17.2090 C   0  0  0  0  0  0  0  0  0  0  0  0
  -30.8134  -18.8683   19.6684 C   0  0  0  0  0  0  0  0  0  0  0  0
  -26.4193  -32.2660   22.9482 C   0  0  0  0  0  0  0  0  0  0  0  0
  -26.5944  -33.1156   20.6933 C   0  0  0  0  0  0  0  0  0  0  0  0
  -28.4846  -14.7801   17.2582 C   0  0  0  0  0  0  0  0  0  0  0  0
  -30.9868  -17.5773   20.1674 C   0  0  0  0  0  0  0  0  0  0  0  0
  -24.4419  -34.9810   23.3375 C   0  0  0  0  0  0  0  0  0  0  0  0
  -23.5662  -35.3713   24.3506 C   0  0  0  0  0  0  0  0  0  0  0  0
  -27.8738  -13.6417   19.2954 C   0  0  0  0  0  0  0  0  0  0  0  0
  -32.7618  -17.1993   18.5726 C   0  0  0  0  0  0  0  0  0  0  0  0
  -25.4436  -35.7843   25.8142 C   0  0  0  0  0  0  0  0  0  0  0  0
  -26.3240  -30.7451   21.0734 C   0  0  0  0  0  0  0  0  0  0  0  0
  -25.1185  -28.5214   20.7422 C   0  0  0  0  0  0  0  0  0  0  0  0
  -23.1854  -21.3778   20.4272 C   0  0  0  0  0  0  0  0  0  0  0  0
  -26.2740  -15.0987   18.2102 C   0  0  0  0  0  0  0  0  0  0  0  0
  -24.2625  -20.5138   20.1517 C   0  0  0  0  0  0  0  0  0  0  0  0
  -31.6142  -19.3247   18.6215 C   0  0  0  0  0  0  0  0  0  0  0  0
  -26.5964  -14.2212   19.2552 C   0  0  0  0  0  0  0  0  0  0  0  0
  -32.5884  -18.4903   18.0736 C   0  0  0  0  0  0  0  0  0  0  0  0
  -26.5678  -33.3394   22.0699 C   0  0  0  0  0  0  0  0  0  0  0  0
  -28.8130  -13.9213   18.3030 C   0  0  0  0  0  0  0  0  0  0  0  0
  -31.9610  -16.7429   19.6195 C   0  0  0  0  0  0  0  0  0  0  0  0
  -25.8185  -34.9923   23.5627 C   0  0  0  0  0  0  0  0  0  0  0  0
  -24.0671  -35.7730   25.5890 C   0  0  0  0  0  0  0  0  0  0  0  0
  -26.3193  -35.3939   24.8011 C   0  0  0  0  0  0  0  0  0  0  0  0
  -26.1986  -29.4053   20.5582 C   0  0  0  0  0  0  0  0  0  0  0  0
  -25.4828  -27.3871   20.0587 C   0  0  0  0  0  0  0  0  0  0  0  0
  -23.8952  -28.7089   21.4661 C   0  0  0  0  0  0  0  0  0  0  0  0
  -24.7418  -16.8566   20.3703 C   0  0  0  0  0  0  0  0  0  0  0  0
  -23.1666  -14.0791   20.9420 C   0  0  0  0  0  0  0  0  0  0  0  0
  -23.1556  -10.6699   20.7874 C   0  0  0  0  0  0  0  0  0  0  0  0
  -29.0909  -23.5529   18.7885 C   0  0  0  0  0  0  0  0  0  0  0  0
  -22.2622  -21.1465   21.5972 C   0  0  0  0  0  0  0  0  0  0  0  0
  -24.9044  -15.7151   18.1283 C   0  0  0  0  0  0  0  0  0  0  0  0
  -25.6102  -13.8882   20.3438 C   0  0  0  0  0  0  0  0  0  0  0  0
  -22.3231  -19.7247   22.1495 C   0  0  0  0  0  0  0  0  0  0  0  0
  -29.2575  -26.5457   16.8216 C   0  0  0  0  0  0  0  0  0  0  0  0
  -23.7722  -19.2777   22.3145 C   0  0  0  0  0  0  0  0  0  0  0  0
  -28.4077  -27.5003   17.6565 C   0  0  0  0  0  0  0  0  0  0  0  0
  -32.2607  -21.7893   18.8014 C   0  0  0  0  0  0  0  0  0  0  0  0
  -30.1006  -25.6090   17.6892 C   0  0  0  0  0  0  0  0  0  0  0  0
  -31.5627  -23.0826   18.4058 C   0  0  0  0  0  0  0  0  0  0  0  0
  -28.4644  -25.8261   19.5378 C   0  0  0  0  0  0  0  0  0  0  0  0
  -31.4076  -20.7263   18.0983 C   0  0  2  0  0  0  0  0  0  0  0  0
  -24.5012  -19.2605   20.9655 C   0  0  1  0  0  0  0  0  0  0  0  0
  -24.1958  -15.7781   19.4778 C   0  0  1  0  0  0  0  0  0  0  0  0
  -27.5621  -26.7239   18.6791 C   0  0  1  0  0  0  0  0  0  0  0  0
  -29.9727  -21.2743   18.2620 C   0  0  2  0  0  0  0  0  0  0  0  0
  -33.4566  -18.9568   16.9515 C   0  0  0  0  0  0  0  0  0  0  0  0
  -27.6906  -19.0562   16.0582 C   0  0  0  0  0  0  0  0  0  0  0  0
  -22.2569   -8.3338   20.9673 C   0  0  0  0  0  0  0  0  0  0  0  0
  -23.9130  -14.4067   23.8823 C   0  0  0  0  0  0  0  0  0  0  0  0
  -23.3330  -11.9956   24.2261 C   0  0  0  0  0  0  0  0  0  0  0  0
  -21.5783  -13.6048   23.4817 C   0  0  0  0  0  0  0  0  0  0  0  0
  -22.0953  -10.7410   18.0252 C   0  0  0  0  0  0  0  0  0  0  0  0
  -29.0778  -20.8826   17.0889 C   0  0  0  0  0  0  0  0  0  0  0  0
  -28.6032  -19.4383   17.2125 C   0  0  0  0  0  0  0  0  0  0  0  0
  -32.0935  -13.1204   19.6184 C   0  0  0  0  0  0  0  0  0  0  0  0
  -30.5746  -13.0538   19.6447 C   0  0  0  0  0  0  0  0  0  1  0  0
  -32.5955  -14.4911   19.1921 C   0  0  0  0  0  0  0  0  0  0  0  0
  -23.3809  -12.8972   21.8564 C   0  0  1  0  0  0  0  0  0  0  0  0
  -22.1107   -9.6875   20.2899 C   0  0  2  0  0  0  0  0  0  0  0  0
  -23.0708  -13.2337   23.3423 C   0  0  0  0  0  0  0  0  0  0  0  0
  -27.1759  -28.8779   19.8161 N   0  0  0  0  0  0  0  0  0  0  0  0
  -26.7113  -27.6503   19.5278 N   0  0  0  0  0  0  0  0  0  0  0  0
  -24.2863  -14.5208   20.2230 N   0  0  0  0  0  0  0  0  0  0  0  0
  -29.2804  -24.9383   18.7049 N   0  0  0  0  0  0  0  0  0  0  0  0
  -30.1415  -22.7319   18.3690 N   0  0  0  0  0  0  0  0  0  0  0  0
  -24.8690  -26.2003   19.8660 N   0  0  0  0  0  0  0  0  0  0  0  0
  -22.7903  -29.2379   20.7853 N   0  0  0  0  0  0  0  0  0  0  0  0
  -24.1313  -18.0853   20.2061 N   0  0  0  0  0  0  0  0  0  0  0  0
  -22.5787  -11.8079   21.3103 N   0  0  0  0  0  0  0  0  0  0  0  0
  -22.2416   -9.4932   18.8181 N   0  3  0  0  0  0  0  0  0  0  0  0
  -23.7900  -28.4313   22.6849 O   0  0  0  0  0  0  0  0  0  0  0  0
  -25.6488  -16.5931   21.1511 O   0  0  0  0  0  0  0  0  0  0  0  0
  -22.0453  -14.5871   20.8630 O   0  0  0  0  0  0  0  0  0  0  0  0
  -24.3627  -10.4482   20.7223 O   0  0  0  0  0  0  0  0  0  0  0  0
  -28.0450  -23.0721   19.2440 O   0  0  0  0  0  0  0  0  0  0  0  0
  -26.6866  -34.6052   22.5556 O   0  0  0  0  0  0  0  0  0  0  0  0
  -30.0564  -13.3467   18.3542 O   0  0  0  0  0  0  0  0  0  1  0  0
  -32.1300  -15.4830   20.1060 O   0  0  0  0  0  0  0  0  0  0  0  0
  -23.2261  -36.1492   26.5613 F   0  0  0  0  0  0  0  0  0  0  0  0
  -27.6408  -35.4079   25.0230 F   0  0  0  0  0  0  0  0  0  0  0  0
  1  2  1  0  0  0  0
  1  5  2  0  0  0  0
  2  6  2  0  0  0  0
  3  9  2  0  0  0  0
  3 18  1  0  0  0  0
  4 10  1  0  0  0  0
  4 18  2  0  0  0  0
  5 20  1  0  0  0  0
  6 22  1  0  0  0  0
  7 11  2  0  0  0  0
  7 21  1  0  0  0  0
  8 12  2  0  0  0  0
  8 23  1  0  0  0  0
  9 26  1  0  0  0  0
 10 26  2  0  0  0  0
 11 27  1  0  0  0  0
 12 28  1  0  0  0  0
 13 14  2  0  0  0  0
 13 29  1  0  0  0  0
 14 30  1  0  0  0  0
 15 24  1  0  0  0  0
 15 27  2  0  0  0  0
 16 25  1  0  0  0  0
 16 28  2  0  0  0  0
 17 30  2  0  0  0  0
 17 31  1  0  0  0  0
 18 32  1  0  0  0  0
 19 32  1  0  0  0  0
 19 33  2  0  0  0  0
 19 34  1  0  0  0  0
 20 22  2  0  0  0  0
 20 39  1  0  0  0  0
 21 24  2  0  0  0  0
 21 40  1  0  0  0  0
 22 51  1  0  0  0  0
 23 25  2  0  0  0  0
 23 50  1  0  0  0  0
 24 41  1  0  0  0  0
 25 55  1  0  0  0  0
 26 85  1  0  0  0  0
 27 86  1  0  0  0  0
 28 87  1  0  0  0  0
 29 31  2  0  0  0  0
 29 85  1  0  0  0  0
 30 88  1  0  0  0  0
 31 89  1  0  0  0  0
 32 70  2  0  0  0  0
 33 71  1  0  0  0  0
 33 75  1  0  0  0  0
 34 76  1  0  0  0  0
 34 80  2  0  0  0  0
 35 52  1  0  0  0  0
 35 77  1  0  0  0  0
 35 81  2  0  0  0  0
 36 67  1  0  0  0  0
 36 72  1  0  0  0  0
 36 82  2  0  0  0  0
 37 68  1  0  0  0  0
 37 78  1  0  0  0  0
 37 83  2  0  0  0  0
 38 73  1  0  0  0  0
 38 74  1  0  0  0  0
 38 84  2  0  0  0  0
 39 42  1  0  0  0  0
 40 52  1  0  0  0  0
 41 72  1  0  0  0  0
 42 44  1  0  0  0  0
 43 45  1  0  0  0  0
 43 47  1  0  0  0  0
 44 51  1  0  0  0  0
 45 53  1  0  0  0  0
 46 48  1  0  0  0  0
 46 50  1  0  0  0  0
 47 73  1  0  0  0  0
 48 74  1  0  0  0  0
 49 53  1  0  0  0  0
 49 73  1  0  0  0  0
 50 54  1  0  0  0  0
 51 77  1  0  0  0  0
 52 72  1  0  0  0  0
 53 71  1  0  0  0  0
 54 62  1  0  0  0  0
 54 74  1  0  0  0  0
 56 63  1  0  0  0  0
 57 68  1  0  0  0  0
 58 69  1  0  0  0  0
 59 69  1  0  0  0  0
 60 69  1  0  0  0  0
 61 79  1  0  0  0  0
 62 63  1  0  0  0  0
 64 65  1  0  0  0  0
 64 66  1  0  0  0  0
 65 86  1  0  0  0  0
 66 87  1  0  0  0  0
 67 69  1  0  0  0  0
 67 78  1  0  0  0  0
 68 79  1  0  0  0  0
 70 71  1  0  0  0  0
M  CHG  1  79   1
M  ISO  4  38 100  65 101  74 100  86 101
M  END
> <Batch ID>
0138

> <Smiles>
CCCC1C(c2ccc(OCC[101CH2:1][101O:1]c3ccc4c(c3)CN(C(=O)C(NC(=O)C(C)NC)C(C)(C)C)C(C(=O)NC3CCCc5ccccc53)C4)cc2C)CC[100N:0]1[100C:0](=O)N1CCCC(n2nc(-c3ccc(Oc4ccc(F)cc4F)cc3)c(C(N)=O)c2N)C1

> <Shape>
0.255

> <Color>
0.084

> <Negative vol penalty>
0.000

$$$$

  -OEChem-04052321083D

 81 89  0     1  0  0  0  0  0999 V2000
  -29.8413  -36.0682   17.7584 C   0  0  0  0  0  0  0  0  0  0  0  0
  -29.7985  -34.6780   17.7884 C   0  0  0  0  0  0  0  0  0  0  0  0
  -24.5098   -9.1285   21.5382 C   0  0  0  0  0  0  0  0  0  0  0  0
  -24.3512  -10.5429   23.4905 C   0  0  0  0  0  0  0  0  0  0  0  0
  -29.3707  -36.8026   18.8461 C   0  0  0  0  0  0  0  0  0  0  0  0
  -29.2861  -34.0213   18.9067 C   0  0  0  0  0  0  0  0  0  0  0  0
  -26.1125  -28.7839   18.9675 C   0  0  0  0  0  0  0  0  0  0  0  0
  -28.8674  -19.7768   20.7644 C   0  0  0  0  0  0  0  0  0  0  0  0
  -24.2010   -8.0152   22.3197 C   0  0  0  0  0  0  0  0  0  0  0  0
  -24.0423   -9.4295   24.2720 C   0  0  0  0  0  0  0  0  0  0  0  0
  -26.4850  -27.4643   19.2199 C   0  0  0  0  0  0  0  0  0  0  0  0
  -23.0997   -4.8526   23.7340 C   0  0  0  0  0  0  0  0  0  0  0  0
  -22.1650   -3.9471   23.2321 C   0  0  0  0  0  0  0  0  0  0  0  0
  -28.7225  -21.1263   21.0660 C   0  0  0  0  0  0  0  0  0  0  0  0
  -25.7756  -27.7090   21.5125 C   0  0  0  0  0  0  0  0  0  0  0  0
  -20.5032   -5.6996   23.1653 C   0  0  0  0  0  0  0  0  0  0  0  0
  -24.5850  -10.3924   22.1237 C   0  0  0  0  0  0  0  0  0  0  0  0
  -24.0015  -12.3812   20.6365 C   0  0  0  0  0  0  0  0  0  0  0  0
  -28.8433  -36.1548   19.9743 C   0  0  0  0  0  0  0  0  0  0  0  0
  -25.5780  -29.5806   19.9902 C   0  0  0  0  0  0  0  0  0  0  0  0
  -28.8092  -34.7477   20.0111 C   0  0  0  0  0  0  0  0  0  0  0  0
  -25.3947  -29.0376   21.2699 C   0  0  0  0  0  0  0  0  0  0  0  0
  -27.7412  -19.0024   20.5091 C   0  0  0  0  0  0  0  0  0  0  0  0
  -23.9672   -8.1657   23.6865 C   0  0  0  0  0  0  0  0  0  0  0  0
  -26.3192  -26.9275   20.4933 C   0  0  0  0  0  0  0  0  0  0  0  0
  -22.7362   -6.1816   23.9517 C   0  0  0  0  0  0  0  0  0  0  0  0
  -20.8667   -4.3706   22.9477 C   0  0  0  0  0  0  0  0  0  0  0  0
  -21.4379   -6.6051   23.6673 C   0  0  0  0  0  0  0  0  0  0  0  0
  -24.9046  -11.5428   21.3171 C   0  0  0  0  0  0  0  0  0  0  0  0
  -26.5024  -19.6202   20.5675 C   0  0  0  0  0  0  0  0  0  0  0  0
  -27.4398  -21.6492   21.0993 C   0  0  0  0  0  0  0  0  0  0  0  0
  -24.7976  -13.3178   20.0237 C   0  0  0  0  0  0  0  0  0  0  0  0
  -22.5709  -12.3191   20.5647 C   0  0  0  0  0  0  0  0  0  0  0  0
  -26.4627  -32.2720   21.4316 C   0  0  0  0  0  0  0  0  0  0  0  0
  -23.5704  -31.9921   22.8733 C   0  0  0  0  0  0  0  0  0  0  0  0
  -21.0064  -29.9648   23.8546 C   0  0  0  0  0  0  0  0  0  0  0  0
  -29.0638  -16.8947   20.1155 C   0  0  0  0  0  0  0  0  0  0  0  0
  -28.3901  -36.9901   21.1454 C   0  0  0  0  0  0  0  0  0  0  0  0
  -25.1563  -30.9940   19.6949 C   0  0  0  0  0  0  0  0  0  0  0  0
  -24.8065  -29.8448   22.3971 C   0  0  0  0  0  0  0  0  0  0  0  0
  -27.5172  -36.2257   22.1373 C   0  0  0  0  0  0  0  0  0  0  0  0
  -29.8208  -13.4853   19.4226 C   0  0  0  0  0  0  0  0  0  0  0  0
  -28.1346  -34.8677   22.4558 C   0  0  0  0  0  0  0  0  0  0  0  0
  -28.5350  -12.7450   19.7977 C   0  0  0  0  0  0  0  0  0  0  0  0
  -30.1009  -14.6509   20.3695 C   0  0  0  0  0  0  0  0  0  0  0  0
  -27.7058  -14.8589   20.9072 C   0  0  0  0  0  0  0  0  0  0  0  0
  -28.2378  -33.9995   21.1960 C   0  0  1  0  0  0  0  0  0  0  0  0
  -25.0999  -31.8732   20.9404 C   0  0  1  0  0  0  0  0  0  0  0  0
  -27.3472  -13.7165   19.9428 C   0  0  2  0  0  0  0  0  0  0  0  0
  -25.2552  -18.8406   20.3033 C   0  0  0  0  0  0  0  0  0  0  0  0
  -18.7978  -30.0181   25.0447 C   0  0  0  0  0  0  0  0  0  0  0  0
  -25.0199  -32.2324   25.5475 C   0  0  0  0  0  0  0  0  0  0  0  0
  -22.9630  -31.3423   26.6632 C   0  0  0  0  0  0  0  0  0  0  0  0
  -22.8669  -33.4973   25.4105 C   0  0  0  0  0  0  0  0  0  0  0  0
  -19.5637  -28.9815   21.4650 C   0  0  0  0  0  0  0  0  0  0  0  0
  -25.9512  -24.9421   21.7497 C   0  0  0  0  0  0  0  0  0  1  0  0
  -25.9346  -23.4633   21.4146 C   0  0  0  0  0  0  0  0  0  0  0  0
  -23.0618  -31.3265   24.1292 C   0  0  1  0  0  0  0  0  0  0  0  0
  -19.5021  -30.0965   23.6992 C   0  0  2  0  0  0  0  0  0  0  0  0
  -23.4908  -32.0848   25.4171 C   0  0  0  0  0  0  0  0  0  0  0  0
  -26.1771  -11.9138   21.1522 N   0  0  0  0  0  0  0  0  0  0  0  0
  -26.3220  -20.9284   20.8570 N   0  0  0  0  0  0  0  0  0  0  0  0
  -26.0792  -12.9957   20.3610 N   0  0  0  0  0  0  0  0  0  0  0  0
  -24.4156  -31.2237   22.0602 N   0  0  0  0  0  0  0  0  0  0  0  0
  -28.9335  -15.5311   20.4538 N   0  0  0  0  0  0  0  0  0  0  0  0
  -24.5193  -14.3771   19.2345 N   0  0  0  0  0  0  0  0  0  0  0  0
  -21.9113  -11.2924   21.2540 N   0  0  0  0  0  0  0  0  0  0  0  0
  -27.8796  -17.6260   20.2023 N   0  0  0  0  0  0  0  0  0  0  0  0
  -26.9472  -33.4350   20.8641 N   0  0  0  0  0  0  0  0  0  0  0  0
  -21.6180  -31.1956   23.9659 N   0  0  0  0  0  0  0  0  0  0  0  0
  -18.9742  -29.0084   22.8283 N   0  3  0  0  0  0  0  0  0  0  0  0
  -21.8985  -13.1397   19.8954 O   0  0  0  0  0  0  0  0  0  0  0  0
  -27.0319  -31.5768   22.2649 O   0  0  0  0  0  0  0  0  0  0  0  0
  -23.2246  -33.1486   22.6192 O   0  0  0  0  0  0  0  0  0  0  0  0
  -21.5810  -28.8786   23.8789 O   0  0  0  0  0  0  0  0  0  0  0  0
  -30.1403  -17.3721   19.7479 O   0  0  0  0  0  0  0  0  0  0  0  0
  -23.6655   -7.0795   24.4493 O   0  0  0  0  0  0  0  0  0  0  0  0
  -26.6826  -25.6400   20.7425 O   0  0  0  0  0  0  0  0  0  1  0  0
  -27.2710  -22.9767   21.3933 O   0  0  0  0  0  0  0  0  0  0  0  0
  -19.9696   -3.5013   22.4642 F   0  0  0  0  0  0  0  0  0  0  0  0
  -21.0832   -7.8808   23.8732 F   0  0  0  0  0  0  0  0  0  0  0  0
  1  2  1  0  0  0  0
  1  5  2  0  0  0  0
  2  6  2  0  0  0  0
  3  9  2  0  0  0  0
  3 17  1  0  0  0  0
  4 10  1  0  0  0  0
  4 17  2  0  0  0  0
  5 19  1  0  0  0  0
  6 21  1  0  0  0  0
  7 11  2  0  0  0  0
  7 20  1  0  0  0  0
  8 14  2  0  0  0  0
  8 23  1  0  0  0  0
  9 24  1  0  0  0  0
 10 24  2  0  0  0  0
 11 25  1  0  0  0  0
 12 13  2  0  0  0  0
 12 26  1  0  0  0  0
 13 27  1  0  0  0  0
 14 31  1  0  0  0  0
 15 22  1  0  0  0  0
 15 25  2  0  0  0  0
 16 27  2  0  0  0  0
 16 28  1  0  0  0  0
 17 29  1  0  0  0  0
 18 29  1  0  0  0  0
 18 32  2  0  0  0  0
 18 33  1  0  0  0  0
 19 21  2  0  0  0  0
 19 38  1  0  0  0  0
 20 22  2  0  0  0  0
 20 39  1  0  0  0  0
 21 47  1  0  0  0  0
 22 40  1  0  0  0  0
 23 30  2  0  0  0  0
 23 68  1  0  0  0  0
 24 77  1  0  0  0  0
 25 78  1  0  0  0  0
 26 28  2  0  0  0  0
 26 77  1  0  0  0  0
 27 80  1  0  0  0  0
 28 81  1  0  0  0  0
 29 61  2  0  0  0  0
 30 50  1  0  0  0  0
 30 62  1  0  0  0  0
 31 62  2  0  0  0  0
 31 79  1  0  0  0  0
 32 63  1  0  0  0  0
 32 66  1  0  0  0  0
 33 67  1  0  0  0  0
 33 72  2  0  0  0  0
 34 48  1  0  0  0  0
 34 69  1  0  0  0  0
 34 73  2  0  0  0  0
 35 58  1  0  0  0  0
 35 64  1  0  0  0  0
 35 74  2  0  0  0  0
 36 59  1  0  0  0  0
 36 70  1  0  0  0  0
 36 75  2  0  0  0  0
 37 65  1  0  0  0  0
 37 68  1  0  0  0  0
 37 76  2  0  0  0  0
 38 41  1  0  0  0  0
 39 48  1  0  0  0  0
 40 64  1  0  0  0  0
 41 43  1  0  0  0  0
 42 44  1  0  0  0  0
 42 45  1  0  0  0  0
 43 47  1  0  0  0  0
 44 49  1  0  0  0  0
 45 65  1  0  0  0  0
 46 49  1  0  0  0  0
 46 65  1  0  0  0  0
 47 69  1  0  0  0  0
 48 64  1  0  0  0  0
 49 63  1  0  0  0  0
 51 59  1  0  0  0  0
 52 60  1  0  0  0  0
 53 60  1  0  0  0  0
 54 60  1  0  0  0  0
 55 71  1  0  0  0  0
 56 57  1  0  0  0  0
 56 78  1  0  0  0  0
 57 79  1  0  0  0  0
 58 60  1  0  0  0  0
 58 70  1  0  0  0  0
 59 71  1  0  0  0  0
 61 63  1  0  0  0  0
M  CHG  1  71   1
M  ISO  4  37 100  56 101  68 100  78 101
M  END
> <Batch ID>
0138

> <Smiles>
CNC(C)C(=O)NC(C(=O)N1Cc2cc([101O:1][101CH2:1]COc3ccc([100NH:0][100C:0](=O)N4CCCC(n5nc(-c6ccc(Oc7ccc(F)cc7F)cc6)c(C(N)=O)c5N)C4)c(C)n3)ccc2CC1C(=O)NC1CCCc2ccccc21)C(C)(C)C

> <Shape>
0.274

> <Color>
0.111

> <Negative vol penalty>
0.000

$$$$

  -OEChem-04052321083D

 90 99  0     1  0  0  0  0  0999 V2000
  -19.3532  -28.0546   26.5727 C   0  0  0  0  0  0  0  0  0  0  0  0
  -20.5591  -27.5298   26.1193 C   0  0  0  0  0  0  0  0  0  0  0  0
  -22.8850  -10.3576   19.9106 C   0  0  0  0  0  0  0  0  0  0  0  0
  -23.8869   -9.8753   22.0555 C   0  0  0  0  0  0  0  0  0  0  0  0
  -18.4021  -28.5044   25.6578 C   0  0  0  0  0  0  0  0  0  0  0  0
  -20.8143  -27.4535   24.7505 C   0  0  0  0  0  0  0  0  0  0  0  0
  -26.2254  -28.1551   21.9695 C   0  0  0  0  0  0  0  0  0  0  0  0
  -29.7694  -19.9764   19.7794 C   0  0  0  0  0  0  0  0  0  0  0  0
  -22.0684   -9.2341   20.0394 C   0  0  0  0  0  0  0  0  0  0  0  0
  -23.0703   -8.7518   22.1844 C   0  0  0  0  0  0  0  0  0  0  0  0
  -27.1622  -27.2379   21.4954 C   0  0  0  0  0  0  0  0  0  0  0  0
  -19.8665   -8.0870   23.0294 C   0  0  0  0  0  0  0  0  0  0  0  0
  -19.2408   -7.8800   24.2587 C   0  0  0  0  0  0  0  0  0  0  0  0
  -29.2934  -21.2408   19.4391 C   0  0  0  0  0  0  0  0  0  0  0  0
  -26.2090  -27.4153   19.2865 C   0  0  0  0  0  0  0  0  0  0  0  0
  -20.3688   -5.7544   24.4749 C   0  0  0  0  0  0  0  0  0  0  0  0
  -23.7943  -10.6782   20.9187 C   0  0  0  0  0  0  0  0  0  0  0  0
  -24.3550  -13.1493   21.2133 C   0  0  0  0  0  0  0  0  0  0  0  0
  -18.6496  -28.4425   24.2774 C   0  0  0  0  0  0  0  0  0  0  0  0
  -25.2648  -28.7020   21.1066 C   0  0  0  0  0  0  0  0  0  0  0  0
  -19.8650  -27.9017   23.8162 C   0  0  0  0  0  0  0  0  0  0  0  0
  -29.3815  -19.4390   20.9915 C   0  0  0  0  0  0  0  0  0  0  0  0
  -25.2627  -28.3412   19.7516 C   0  0  0  0  0  0  0  0  0  0  0  0
  -22.1610   -8.4312   21.1763 C   0  0  0  0  0  0  0  0  0  0  0  0
  -27.1523  -26.8657   20.1543 C   0  0  0  0  0  0  0  0  0  0  0  0
  -20.7432   -7.1277   22.5227 C   0  0  0  0  0  0  0  0  0  0  0  0
  -19.4920   -6.7137   24.9815 C   0  0  0  0  0  0  0  0  0  0  0  0
  -20.9944   -5.9614   23.2454 C   0  0  0  0  0  0  0  0  0  0  0  0
  -24.6385  -11.8383   20.7859 C   0  0  0  0  0  0  0  0  0  0  0  0
  -28.5263  -20.1761   21.8088 C   0  0  0  0  0  0  0  0  0  0  0  0
  -28.4416  -21.8967   20.3271 C   0  0  0  0  0  0  0  0  0  0  0  0
  -25.4663  -13.8741   20.8581 C   0  0  0  0  0  0  0  0  0  0  0  0
  -23.1912  -13.6658   21.8726 C   0  0  0  0  0  0  0  0  0  0  0  0
  -22.0898  -28.6496   20.9625 C   0  0  0  0  0  0  0  0  0  0  0  0
  -22.5539  -30.7526   18.5368 C   0  0  0  0  0  0  0  0  0  0  0  0
  -24.6308  -31.9771   16.1214 C   0  0  0  0  0  0  0  0  0  0  0  0
  -31.0090  -14.4445   20.5448 C   0  0  0  0  0  0  0  0  0  0  0  0
  -17.5718  -28.8973   23.3255 C   0  0  0  0  0  0  0  0  0  0  0  0
  -24.2780  -29.7104   21.6278 C   0  0  0  0  0  0  0  0  0  0  0  0
  -24.2651  -28.9147   18.7798 C   0  0  0  0  0  0  0  0  0  0  0  0
  -18.0736  -29.1272   21.9022 C   0  0  0  0  0  0  0  0  0  0  0  0
  -29.4015  -12.6432   17.9279 C   0  0  0  0  0  0  0  0  0  0  0  0
  -18.9478  -27.9621   21.4496 C   0  0  0  0  0  0  0  0  0  0  0  0
  -27.9985  -12.3762   18.4759 C   0  0  0  0  0  0  0  0  0  0  0  0
  -29.3362  -18.3802   23.0825 C   0  0  0  0  0  0  0  0  0  0  0  0
  -30.4602  -12.5662   19.0257 C   0  0  0  0  0  0  0  0  0  0  0  0
  -28.7969  -13.1551   20.7463 C   0  0  0  0  0  0  0  0  0  0  0  0
  -29.6949  -18.1049   21.6036 C   0  0  2  0  0  0  0  0  0  0  0  0
  -20.1888  -27.8252   22.3400 C   0  0  1  0  0  0  0  0  0  0  0  0
  -28.1810  -19.3947   23.0447 C   0  0  1  0  0  0  0  0  0  0  0  0
  -23.0201  -29.8138   20.7708 C   0  0  1  0  0  0  0  0  0  0  0  0
  -27.6885  -13.2770   19.6866 C   0  0  2  0  0  0  0  0  0  0  0  0
  -24.7169  -33.6684   14.2695 C   0  0  0  0  0  0  0  0  0  0  0  0
  -29.0313  -20.9046   27.0986 C   0  0  0  0  0  0  0  0  0  0  0  0
  -26.5877  -21.3188   26.6917 C   0  0  0  0  0  0  0  0  0  0  0  0
  -20.8415  -28.9264   16.7925 C   0  0  0  0  0  0  0  0  0  0  0  0
  -21.7341  -30.1243   14.7834 C   0  0  0  0  0  0  0  0  0  0  0  0
  -20.4049  -31.3699   16.4876 C   0  0  0  0  0  0  0  0  0  0  0  0
  -26.8693  -33.4325   17.3980 C   0  0  0  0  0  0  0  0  0  0  0  0
  -31.1328  -17.6396   21.4351 C   0  0  0  0  0  0  0  0  0  0  0  0
  -31.4092  -16.3112   22.1304 C   0  0  0  0  0  0  0  0  0  0  0  0
  -28.3480  -23.7917   18.7067 C   0  0  0  0  0  0  0  0  0  0  0  0
  -27.7487  -19.3884   25.5050 C   0  0  0  0  0  0  0  0  0  0  0  0
  -27.6666  -25.1453   18.5949 C   0  0  0  0  0  0  0  0  0  1  0  0
  -22.7592  -30.6365   17.0457 C   0  0  1  0  0  0  0  0  0  0  0  0
  -25.0029  -33.3982   15.7385 C   0  0  2  0  0  0  0  0  0  0  0  0
  -27.6861  -20.2569   26.7666 C   0  0  0  0  0  0  0  0  0  0  0  0
  -21.4526  -30.2518   16.2958 C   0  0  0  0  0  0  0  0  0  0  0  0
  -25.8359  -11.7334   20.2036 N   0  0  0  0  0  0  0  0  0  0  0  0
  -28.0330  -21.3911   21.5149 N   0  0  0  0  0  0  0  0  0  0  0  0
  -26.3147  -12.9877   20.2624 N   0  0  0  0  0  0  0  0  0  0  0  0
  -23.3167  -29.8921   19.3389 N   0  0  0  0  0  0  0  0  0  0  0  0
  -30.1075  -13.4448   20.1436 N   0  0  0  0  0  0  0  0  0  0  0  0
  -25.7908  -15.1767   21.0003 N   0  0  0  0  0  0  0  0  0  0  0  0
  -22.1416  -12.7838   22.1637 N   0  0  0  0  0  0  0  0  0  0  0  0
  -27.9872  -23.1496   19.9499 N   0  0  0  0  0  0  0  0  0  0  0  0
  -21.1773  -28.8212   21.9858 N   0  0  0  0  0  0  0  0  0  0  0  0
  -23.3454  -31.9010   16.6146 N   0  0  0  0  0  0  0  0  0  0  0  0
  -30.5942  -15.2372   21.6079 N   0  0  0  0  0  0  0  0  0  0  0  0
  -28.1487  -20.1720   24.3016 N   0  3  0  0  0  0  0  0  0  0  0  0
  -26.4524  -33.6389   15.9871 N   0  3  0  0  0  0  0  0  0  0  0  0
  -23.0784  -14.8769   22.1792 O   0  0  0  0  0  0  0  0  0  0  0  0
  -22.1914  -27.6688   20.2348 O   0  0  0  0  0  0  0  0  0  0  0  0
  -21.7517  -31.5815   18.9740 O   0  0  0  0  0  0  0  0  0  0  0  0
  -25.4018  -31.0288   15.9921 O   0  0  0  0  0  0  0  0  0  0  0  0
  -32.1004  -14.6211   19.9927 O   0  0  0  0  0  0  0  0  0  0  0  0
  -21.3642   -7.3350   21.3024 O   0  0  0  0  0  0  0  0  0  0  0  0
  -28.0652  -25.9701   19.6891 O   0  0  0  0  0  0  0  0  0  1  0  0
  -18.8923   -6.5157   26.1627 F   0  0  0  0  0  0  0  0  0  0  0  0
  -21.8367   -5.0367   22.7644 F   0  0  0  0  0  0  0  0  0  0  0  0
  1  2  1  0  0  0  0
  1  5  2  0  0  0  0
  2  6  2  0  0  0  0
  3  9  2  0  0  0  0
  3 17  1  0  0  0  0
  4 10  1  0  0  0  0
  4 17  2  0  0  0  0
  5 19  1  0  0  0  0
  6 21  1  0  0  0  0
  7 11  2  0  0  0  0
  7 20  1  0  0  0  0
  8 14  2  0  0  0  0
  8 22  1  0  0  0  0
  9 24  1  0  0  0  0
 10 24  2  0  0  0  0
 11 25  1  0  0  0  0
 12 13  2  0  0  0  0
 12 26  1  0  0  0  0
 13 27  1  0  0  0  0
 14 31  1  0  0  0  0
 15 23  1  0  0  0  0
 15 25  2  0  0  0  0
 16 27  2  0  0  0  0
 16 28  1  0  0  0  0
 17 29  1  0  0  0  0
 18 29  1  0  0  0  0
 18 32  2  0  0  0  0
 18 33  1  0  0  0  0
 19 21  2  0  0  0  0
 19 38  1  0  0  0  0
 20 23  2  0  0  0  0
 20 39  1  0  0  0  0
 21 49  1  0  0  0  0
 22 30  2  0  0  0  0
 22 48  1  0  0  0  0
 23 40  1  0  0  0  0
 24 87  1  0  0  0  0
 25 88  1  0  0  0  0
 26 28  2  0  0  0  0
 26 87  1  0  0  0  0
 27 89  1  0  0  0  0
 28 90  1  0  0  0  0
 29 69  2  0  0  0  0
 30 50  1  0  0  0  0
 30 70  1  0  0  0  0
 31 70  2  0  0  0  0
 31 76  1  0  0  0  0
 32 71  1  0  0  0  0
 32 74  1  0  0  0  0
 33 75  1  0  0  0  0
 33 82  2  0  0  0  0
 34 51  1  0  0  0  0
 34 77  1  0  0  0  0
 34 83  2  0  0  0  0
 35 65  1  0  0  0  0
 35 72  1  0  0  0  0
 35 84  2  0  0  0  0
 36 66  1  0  0  0  0
 36 78  1  0  0  0  0
 36 85  2  0  0  0  0
 37 73  1  0  0  0  0
 37 79  1  0  0  0  0
 37 86  2  0  0  0  0
 38 41  1  0  0  0  0
 39 51  1  0  0  0  0
 40 72  1  0  0  0  0
 41 43  1  0  0  0  0
 42 44  1  0  0  0  0
 42 46  1  0  0  0  0
 43 49  1  0  0  0  0
 44 52  1  0  0  0  0
 45 48  1  0  0  0  0
 45 50  1  0  0  0  0
 46 73  1  0  0  0  0
 47 52  1  0  0  0  0
 47 73  1  0  0  0  0
 48 60  1  0  0  0  0
 49 77  1  0  0  0  0
 50 80  1  0  0  0  0
 51 72  1  0  0  0  0
 52 71  1  0  0  0  0
 53 66  1  0  0  0  0
 54 67  1  0  0  0  0
 55 67  1  0  0  0  0
 56 68  1  0  0  0  0
 57 68  1  0  0  0  0
 58 68  1  0  0  0  0
 59 81  1  0  0  0  0
 60 61  1  0  0  0  0
 61 79  1  0  0  0  0
 62 64  1  0  0  0  0
 62 76  1  0  0  0  0
 63 67  1  0  0  0  0
 63 80  1  0  0  0  0
 64 88  1  0  0  0  0
 65 68  1  0  0  0  0
 65 78  1  0  0  0  0
 66 81  1  0  0  0  0
 69 71  1  0  0  0  0
M  CHG  2  80   1  81   1
M  ISO  4  37 100  64 101  79 100  88 101
M  END
> <Batch ID>
0138

> <Smiles>
CNC(C)C(=O)NC(C(=O)N1Cc2cc([101O:1][101CH2:1]CNc3ccc4c(n3)C(NCC(C)C)CC4CC[100NH:0][100C:0](=O)N3CCCC(n4nc(-c5ccc(Oc6ccc(F)cc6F)cc5)c(C(N)=O)c4N)C3)ccc2CC1C(=O)NC1CCCc2ccccc21)C(C)(C)C

> <Shape>
0.329

> <Color>
0.198

> <Negative vol penalty>
0.000

$$$$

  -OEChem-04052321083D

 80 89  0     1  0  0  0  0  0999 V2000
  -29.0496  -10.3420   30.0728 C   0  0  0  0  0  0  0  0  0  0  0  0
  -28.9235  -11.4317   29.2172 C   0  0  0  0  0  0  0  0  0  0  0  0
  -32.4093  -17.9003   23.4450 C   0  0  0  0  0  0  0  0  0  0  0  0
  -23.2018   -9.7693   19.9551 C   0  0  0  0  0  0  0  0  0  0  0  0
  -24.0036   -9.7909   22.2341 C   0  0  0  0  0  0  0  0  0  0  0  0
  -27.9760   -9.4709   30.2533 C   0  0  0  0  0  0  0  0  0  0  0  0
  -27.7240  -11.6503   28.5405 C   0  0  0  0  0  0  0  0  0  0  0  0
  -31.5730  -18.7147   24.2202 C   0  0  0  0  0  0  0  0  0  0  0  0
  -26.2753  -16.5009   28.6722 C   0  0  0  0  0  0  0  0  0  0  0  0
  -31.8739  -16.9762   22.5154 C   0  0  0  0  0  0  0  0  0  0  0  0
  -22.5228   -8.5768   20.2053 C   0  0  0  0  0  0  0  0  0  0  0  0
  -23.3246   -8.5985   22.4843 C   0  0  0  0  0  0  0  0  0  0  0  0
  -26.9179  -17.3812   27.8027 C   0  0  0  0  0  0  0  0  0  0  0  0
  -20.1535   -7.6295   23.1368 C   0  0  0  0  0  0  0  0  0  0  0  0
  -19.4219   -7.5383   24.3208 C   0  0  0  0  0  0  0  0  0  0  0  0
  -25.0429  -17.2469   26.2908 C   0  0  0  0  0  0  0  0  0  0  0  0
  -20.7746   -5.6595   25.0119 C   0  0  0  0  0  0  0  0  0  0  0  0
  -23.9423  -10.3763   20.9695 C   0  0  0  0  0  0  0  0  0  0  0  0
  -24.1521  -12.9168   20.8724 C   0  0  0  0  0  0  0  0  0  0  0  0
  -26.7595   -9.6844   29.5859 C   0  0  0  0  0  0  0  0  0  0  0  0
  -25.0144  -15.9777   28.3519 C   0  0  0  0  0  0  0  0  0  0  0  0
  -26.6336  -10.7805   28.7112 C   0  0  0  0  0  0  0  0  0  0  0  0
  -30.2269  -18.5667   24.0304 C   0  0  0  0  0  0  0  0  0  0  0  0
  -24.3853  -16.3622   27.1592 C   0  0  0  0  0  0  0  0  0  0  0  0
  -30.4941  -16.8482   22.3434 C   0  0  0  0  0  0  0  0  0  0  0  0
  -29.7366  -17.6667   23.1237 C   0  0  0  0  0  0  0  0  0  0  0  0
  -22.5841   -7.9914   21.4699 C   0  0  0  0  0  0  0  0  0  0  0  0
  -26.3029  -17.7520   26.6104 C   0  0  0  0  0  0  0  0  0  0  0  0
  -21.1956   -6.7356   22.8902 C   0  0  0  0  0  0  0  0  0  0  0  0
  -19.7324   -6.5533   25.2584 C   0  0  0  0  0  0  0  0  0  0  0  0
  -21.5061   -5.7507   23.8278 C   0  0  0  0  0  0  0  0  0  0  0  0
  -24.6444  -11.6078   20.7114 C   0  0  0  0  0  0  0  0  0  0  0  0
  -25.1973  -13.7252   20.4978 C   0  0  0  0  0  0  0  0  0  0  0  0
  -22.8650  -13.3622   21.3205 C   0  0  0  0  0  0  0  0  0  0  0  0
  -23.8616  -13.0610   27.8344 C   0  0  0  0  0  0  0  0  0  0  0  0
  -21.0231  -14.6267   27.7175 C   0  0  0  0  0  0  0  0  0  0  0  0
  -19.3466  -17.5491   27.1740 C   0  0  0  0  0  0  0  0  0  0  0  0
  -30.6052  -15.0485   20.5841 C   0  0  0  0  0  0  0  0  0  0  0  0
  -25.6427   -8.6889   29.7763 C   0  0  0  0  0  0  0  0  0  0  0  0
  -24.3228  -15.0501   29.3131 C   0  0  0  0  0  0  0  0  0  0  0  0
  -23.0232  -15.8445   26.7784 C   0  0  0  0  0  0  0  0  0  0  0  0
  -24.2827   -9.2029   29.3108 C   0  0  0  0  0  0  0  0  0  0  0  0
  -29.5711  -12.6058   18.2090 C   0  0  0  0  0  0  0  0  0  0  0  0
  -24.4001   -9.8545   27.9366 C   0  0  0  0  0  0  0  0  0  0  0  0
  -28.1567  -12.2361   18.6615 C   0  0  0  0  0  0  0  0  0  0  0  0
  -30.4959  -12.8686   19.3962 C   0  0  0  0  0  0  0  0  0  0  0  0
  -28.5809  -13.4794   20.8205 C   0  0  0  0  0  0  0  0  0  0  0  0
  -25.3404  -11.0651   27.9786 C   0  0  1  0  0  0  0  0  0  0  0  0
  -28.8354  -18.9583   24.3594 C   0  0  2  0  0  0  0  0  0  0  0  0
  -23.2653  -14.1770   28.6447 C   0  0  1  0  0  0  0  0  0  0  0  0
  -27.5961  -13.2689   19.6589 C   0  0  2  0  0  0  0  0  0  0  0  0
  -17.0286  -18.5085   27.1138 C   0  0  0  0  0  0  0  0  0  0  0  0
  -20.5517  -13.3113   25.0051 C   0  0  0  0  0  0  0  0  0  0  0  0
  -18.7468  -14.9937   24.5809 C   0  0  0  0  0  0  0  0  0  0  0  0
  -18.5387  -13.3975   26.4866 C   0  0  0  0  0  0  0  0  0  0  0  0
  -19.9506  -19.4481   29.3621 C   0  0  0  0  0  0  0  0  0  0  0  0
  -28.3550  -18.5915   25.7501 C   0  0  0  0  0  0  0  0  0  1  0  0
  -20.2110  -15.2882   26.6304 C   0  0  1  0  0  0  0  0  0  0  0  0
  -18.2593  -18.2495   27.9688 C   0  0  2  0  0  0  0  0  0  0  0  0
  -19.5386  -14.2561   25.6817 C   0  0  0  0  0  0  0  0  0  0  0  0
  -25.9043  -11.5815   20.2689 N   0  0  0  0  0  0  0  0  0  0  0  0
  -26.2125  -12.8841   20.1485 N   0  0  0  0  0  0  0  0  0  0  0  0
  -22.3904  -14.9353   27.7482 N   0  0  0  0  0  0  0  0  0  0  0  0
  -29.9016  -13.8600   20.2955 N   0  0  0  0  0  0  0  0  0  0  0  0
  -25.3379  -15.0665   20.4364 N   0  0  0  0  0  0  0  0  0  0  0  0
  -21.9075  -12.3987   21.6658 N   0  0  0  0  0  0  0  0  0  0  0  0
  -29.9269  -15.9303   21.4250 N   0  0  0  0  0  0  0  0  0  0  0  0
  -24.6686  -12.2068   28.5615 N   0  0  0  0  0  0  0  0  0  0  0  0
  -19.2732  -16.1785   27.3058 N   0  0  0  0  0  0  0  0  0  0  0  0
  -18.7557  -19.5560   28.4860 N   0  3  0  0  0  0  0  0  0  0  0  0
  -22.5672  -14.5784   21.3964 O   0  0  0  0  0  0  0  0  0  0  0  0
  -23.6072  -12.9799   26.6384 O   0  0  0  0  0  0  0  0  0  0  0  0
  -20.4635  -13.8697   28.5147 O   0  0  0  0  0  0  0  0  0  0  0  0
  -20.1756  -18.1569   26.5003 O   0  0  0  0  0  0  0  0  0  0  0  0
  -31.7151  -15.2799   20.0978 O   0  0  0  0  0  0  0  0  0  0  0  0
  -28.4519  -17.9429   23.3696 O   0  0  0  0  0  0  0  0  0  0  0  0
  -21.9215   -6.8280   21.7145 O   0  0  0  0  0  0  0  0  0  0  0  0
  -26.9282  -18.6105   25.7596 O   0  0  0  0  0  0  0  0  0  1  0  0
  -19.0308   -6.4668   26.3961 F   0  0  0  0  0  0  0  0  0  0  0  0
  -22.5070   -4.8899   23.5970 F   0  0  0  0  0  0  0  0  0  0  0  0
  1  2  1  0  0  0  0
  1  6  2  0  0  0  0
  2  7  2  0  0  0  0
  3  8  2  0  0  0  0
  3 10  1  0  0  0  0
  4 11  2  0  0  0  0
  4 18  1  0  0  0  0
  5 12  1  0  0  0  0
  5 18  2  0  0  0  0
  6 20  1  0  0  0  0
  7 22  1  0  0  0  0
  8 23  1  0  0  0  0
  9 13  2  0  0  0  0
  9 21  1  0  0  0  0
 10 25  2  0  0  0  0
 11 27  1  0  0  0  0
 12 27  2  0  0  0  0
 13 28  1  0  0  0  0
 14 15  2  0  0  0  0
 14 29  1  0  0  0  0
 15 30  1  0  0  0  0
 16 24  1  0  0  0  0
 16 28  2  0  0  0  0
 17 30  2  0  0  0  0
 17 31  1  0  0  0  0
 18 32  1  0  0  0  0
 19 32  1  0  0  0  0
 19 33  2  0  0  0  0
 19 34  1  0  0  0  0
 20 22  2  0  0  0  0
 20 39  1  0  0  0  0
 21 24  2  0  0  0  0
 21 40  1  0  0  0  0
 22 48  1  0  0  0  0
 23 26  2  0  0  0  0
 23 49  1  0  0  0  0
 24 41  1  0  0  0  0
 25 26  1  0  0  0  0
 25 67  1  0  0  0  0
 26 76  1  0  0  0  0
 27 77  1  0  0  0  0
 28 78  1  0  0  0  0
 29 31  2  0  0  0  0
 29 77  1  0  0  0  0
 30 79  1  0  0  0  0
 31 80  1  0  0  0  0
 32 61  2  0  0  0  0
 33 62  1  0  0  0  0
 33 65  1  0  0  0  0
 34 66  1  0  0  0  0
 34 71  2  0  0  0  0
 35 50  1  0  0  0  0
 35 68  1  0  0  0  0
 35 72  2  0  0  0  0
 36 58  1  0  0  0  0
 36 63  1  0  0  0  0
 36 73  2  0  0  0  0
 37 59  1  0  0  0  0
 37 69  1  0  0  0  0
 37 74  2  0  0  0  0
 38 64  1  0  0  0  0
 38 67  1  0  0  0  0
 38 75  2  0  0  0  0
 39 42  1  0  0  0  0
 40 50  1  0  0  0  0
 41 63  1  0  0  0  0
 42 44  1  0  0  0  0
 43 45  1  0  0  0  0
 43 46  1  0  0  0  0
 44 48  1  0  0  0  0
 45 51  1  0  0  0  0
 46 64  1  0  0  0  0
 47 51  1  0  0  0  0
 47 64  1  0  0  0  0
 48 68  1  0  0  0  0
 49 57  1  0  0  0  0
 49 76  1  0  0  0  0
 50 63  1  0  0  0  0
 51 62  1  0  0  0  0
 52 59  1  0  0  0  0
 53 60  1  0  0  0  0
 54 60  1  0  0  0  0
 55 60  1  0  0  0  0
 56 70  1  0  0  0  0
 57 78  1  0  0  0  0
 58 60  1  0  0  0  0
 58 69  1  0  0  0  0
 59 70  1  0  0  0  0
 61 62  1  0  0  0  0
M  CHG  1  70   1
M  ISO  4  38 100  57 101  67 100  78 101
M  END
> <Batch ID>
0138

> <Smiles>
CNC(C)C(=O)NC(C(=O)N1Cc2cc([101O:1][101CH2:1]C3Oc4c([100NH:0][100C:0](=O)N5CCCC(n6nc(-c7ccc(Oc8ccc(F)cc8F)cc7)c(C(N)=O)c6N)C5)cccc43)ccc2CC1C(=O)NC1CCCc2ccccc21)C(C)(C)C

> <Shape>
0.172

> <Color>
0.181

> <Negative vol penalty>
0.000

$$$$

  -OEChem-04052321083D

 81 89  0     1  0  0  0  0  0999 V2000
  -19.0023  -23.8337   23.3307 C   0  0  0  0  0  0  0  0  0  0  0  0
  -20.2175  -23.9176   22.6586 C   0  0  0  0  0  0  0  0  0  0  0  0
  -23.5365  -14.3191   24.7714 C   0  0  0  0  0  0  0  0  0  0  0  0
  -23.3161  -15.9897   23.0401 C   0  0  0  0  0  0  0  0  0  0  0  0
  -18.2521  -24.9866   23.5588 C   0  0  0  0  0  0  0  0  0  0  0  0
  -20.6826  -25.1544   22.2131 C   0  0  0  0  0  0  0  0  0  0  0  0
  -25.5962  -25.8581   23.2162 C   0  0  0  0  0  0  0  0  0  0  0  0
  -22.7054  -15.0704   25.6023 C   0  0  0  0  0  0  0  0  0  0  0  0
  -22.4850  -16.7411   23.8709 C   0  0  0  0  0  0  0  0  0  0  0  0
  -26.5140  -25.2207   22.3823 C   0  0  0  0  0  0  0  0  0  0  0  0
  -22.8298  -18.8528   26.4887 C   0  0  0  0  0  0  0  0  0  0  0  0
  -23.0620  -20.2259   26.5671 C   0  0  0  0  0  0  0  0  0  0  0  0
  -26.8440  -27.2847   21.1780 C   0  0  0  0  0  0  0  0  0  0  0  0
  -20.8297  -20.6502   25.7462 C   0  0  0  0  0  0  0  0  0  0  0  0
  -23.8419  -14.7787   23.4903 C   0  0  0  0  0  0  0  0  0  0  0  0
  -24.3125  -13.0054   21.7179 C   0  0  0  0  0  0  0  0  0  0  0  0
  -18.7129  -26.2394   23.1245 C   0  0  0  0  0  0  0  0  0  0  0  0
  -25.2868  -27.2131   23.0300 C   0  0  0  0  0  0  0  0  0  0  0  0
  -19.9372  -26.3249   22.4345 C   0  0  0  0  0  0  0  0  0  0  0  0
  -25.9239  -27.9375   22.0125 C   0  0  0  0  0  0  0  0  0  0  0  0
  -22.1796  -16.2814   25.1520 C   0  0  0  0  0  0  0  0  0  0  0  0
  -27.1358  -25.9333   21.3612 C   0  0  0  0  0  0  0  0  0  0  0  0
  -21.5976  -18.3783   26.0390 C   0  0  0  0  0  0  0  0  0  0  0  0
  -22.0619  -21.1246   26.1959 C   0  0  0  0  0  0  0  0  0  0  0  0
  -20.5975  -19.2770   25.6678 C   0  0  0  0  0  0  0  0  0  0  0  0
  -24.7008  -14.0033   22.6318 C   0  0  0  0  0  0  0  0  0  0  0  0
  -25.4902  -12.5784   21.1548 C   0  0  0  0  0  0  0  0  0  0  0  0
  -23.0042  -12.5088   21.4059 C   0  0  0  0  0  0  0  0  0  0  0  0
  -22.6475  -28.8335   22.3143 C   0  0  0  0  0  0  0  0  0  0  0  0
  -29.2950  -23.4703   19.7743 C   0  0  0  0  0  0  0  0  0  0  0  0
  -24.5486  -31.4061   22.8528 C   0  0  0  0  0  0  0  0  0  0  0  0
  -27.7030  -32.7030   22.9732 C   0  0  0  0  0  0  0  0  0  0  0  0
  -30.8302  -15.1810   20.4046 C   0  0  0  0  0  0  0  0  0  0  0  0
  -17.8445  -27.4513   23.3525 C   0  0  0  0  0  0  0  0  0  0  0  0
  -24.3147  -27.8927   23.9549 C   0  0  0  0  0  0  0  0  0  0  0  0
  -25.6417  -29.3992   21.7837 C   0  0  0  0  0  0  0  0  0  0  0  0
  -18.5865  -28.7739   23.1782 C   0  0  0  0  0  0  0  0  0  0  0  0
  -30.1557  -12.1332   22.1171 C   0  0  0  0  0  0  0  0  0  0  0  0
  -19.4218  -28.7532   21.9019 C   0  0  0  0  0  0  0  0  0  0  0  0
  -28.6462  -12.1768   22.3607 C   0  0  0  0  0  0  0  0  0  0  0  0
  -30.7875  -13.5180   22.2401 C   0  0  0  0  0  0  0  0  0  0  0  0
  -28.6563  -14.6028   21.6441 C   0  0  0  0  0  0  0  0  0  0  0  0
  -30.5729  -21.3487   19.1118 C   0  0  0  0  0  0  0  0  0  0  0  0
  -29.2169  -21.0713   20.7489 C   0  0  0  0  0  0  0  0  0  0  0  0
  -20.4872  -27.6517   21.9577 C   0  0  1  0  0  0  0  0  0  0  0  0
  -23.6906  -29.1463   23.3496 C   0  0  1  0  0  0  0  0  0  0  0  0
  -27.9658  -13.2385   21.4757 C   0  0  2  0  0  0  0  0  0  0  0  0
  -30.4231  -20.2869   20.2110 C   0  0  0  0  0  0  0  0  0  0  0  0
  -28.9371  -34.8450   23.4048 C   0  0  0  0  0  0  0  0  0  0  0  0
  -23.7326  -32.4288   20.0963 C   0  0  0  0  0  0  0  0  0  0  0  0
  -25.6686  -34.0137   20.1881 C   0  0  0  0  0  0  0  0  0  0  0  0
  -23.8367  -34.1864   21.8724 C   0  0  0  0  0  0  0  0  0  0  0  0
  -29.1554  -31.5381   25.2737 C   0  0  0  0  0  0  0  0  0  0  0  0
  -28.2868  -23.9313   20.7925 C   0  0  0  0  0  0  0  0  0  1  0  0
  -30.7103  -16.8570   18.5782 C   0  0  0  0  0  0  0  0  0  0  0  0
  -31.2054  -18.1975   19.0882 C   0  0  0  0  0  0  0  0  0  0  0  0
  -25.4635  -32.2556   22.0041 C   0  0  1  0  0  0  0  0  0  0  0  0
  -28.4011  -33.5590   24.0145 C   0  0  2  0  0  0  0  0  0  0  0  0
  -24.6794  -33.1931   21.0430 C   0  0  0  0  0  0  0  0  0  0  0  0
  -26.0220  -14.1987   22.6514 N   0  0  0  0  0  0  0  0  0  0  0  0
  -26.4741  -13.3175   21.7429 N   0  0  0  0  0  0  0  0  0  0  0  0
  -24.6789  -30.0174   22.7102 N   0  0  0  0  0  0  0  0  0  0  0  0
  -29.6472  -22.1541   19.8855 N   0  0  0  0  0  0  0  0  0  0  0  0
  -30.0973  -14.4774   21.3746 N   0  0  0  0  0  0  0  0  0  0  0  0
  -25.7699  -11.6465   20.2190 N   0  0  0  0  0  0  0  0  0  0  0  0
  -21.9034  -13.0582   22.0773 N   0  0  0  0  0  0  0  0  0  0  0  0
  -21.5996  -28.0659   22.7856 N   0  0  0  0  0  0  0  0  0  0  0  0
  -26.3479  -32.9541   22.9307 N   0  0  0  0  0  0  0  0  0  0  0  0
  -30.0982  -16.0659   19.6224 N   0  0  0  0  0  0  0  0  0  0  0  0
  -30.0706  -18.9587   19.6939 N   0  3  0  0  0  0  0  0  0  0  0  0
  -29.5420  -32.8136   24.6175 N   0  3  0  0  0  0  0  0  0  0  0  0
  -22.8184  -11.5932   20.5689 O   0  0  0  0  0  0  0  0  0  0  0  0
  -22.7827  -29.2583   21.1728 O   0  0  0  0  0  0  0  0  0  0  0  0
  -29.7492  -24.2383   18.9276 O   0  0  0  0  0  0  0  0  0  0  0  0
  -23.7527  -31.9544   23.6193 O   0  0  0  0  0  0  0  0  0  0  0  0
  -28.3007  -31.8953   22.2655 O   0  0  0  0  0  0  0  0  0  0  0  0
  -32.0457  -15.0276   20.2437 O   0  0  0  0  0  0  0  0  0  0  0  0
  -21.3684  -17.0147   25.9624 O   0  0  0  0  0  0  0  0  0  0  0  0
  -28.0315  -25.3134   20.5455 O   0  0  0  0  0  0  0  0  0  1  0  0
  -22.2844  -22.4432   26.2728 F   0  0  0  0  0  0  0  0  0  0  0  0
  -19.4113  -18.8271   25.2361 F   0  0  0  0  0  0  0  0  0  0  0  0
  1  2  1  0  0  0  0
  1  5  2  0  0  0  0
  2  6  2  0  0  0  0
  3  8  2  0  0  0  0
  3 15  1  0  0  0  0
  4  9  1  0  0  0  0
  4 15  2  0  0  0  0
  5 17  1  0  0  0  0
  6 19  1  0  0  0  0
  7 10  2  0  0  0  0
  7 18  1  0  0  0  0
  8 21  1  0  0  0  0
  9 21  2  0  0  0  0
 10 22  1  0  0  0  0
 11 12  2  0  0  0  0
 11 23  1  0  0  0  0
 12 24  1  0  0  0  0
 13 20  1  0  0  0  0
 13 22  2  0  0  0  0
 14 24  2  0  0  0  0
 14 25  1  0  0  0  0
 15 26  1  0  0  0  0
 16 26  1  0  0  0  0
 16 27  2  0  0  0  0
 16 28  1  0  0  0  0
 17 19  2  0  0  0  0
 17 34  1  0  0  0  0
 18 20  2  0  0  0  0
 18 35  1  0  0  0  0
 19 45  1  0  0  0  0
 20 36  1  0  0  0  0
 21 78  1  0  0  0  0
 22 79  1  0  0  0  0
 23 25  2  0  0  0  0
 23 78  1  0  0  0  0
 24 80  1  0  0  0  0
 25 81  1  0  0  0  0
 26 60  2  0  0  0  0
 27 61  1  0  0  0  0
 27 65  1  0  0  0  0
 28 66  1  0  0  0  0
 28 72  2  0  0  0  0
 29 46  1  0  0  0  0
 29 67  1  0  0  0  0
 29 73  2  0  0  0  0
 30 54  1  0  0  0  0
 30 63  1  0  0  0  0
 30 74  2  0  0  0  0
 31 57  1  0  0  0  0
 31 62  1  0  0  0  0
 31 75  2  0  0  0  0
 32 58  1  0  0  0  0
 32 68  1  0  0  0  0
 32 76  2  0  0  0  0
 33 64  1  0  0  0  0
 33 69  1  0  0  0  0
 33 77  2  0  0  0  0
 34 37  1  0  0  0  0
 35 46  1  0  0  0  0
 36 62  1  0  0  0  0
 37 39  1  0  0  0  0
 38 40  1  0  0  0  0
 38 41  1  0  0  0  0
 39 45  1  0  0  0  0
 40 47  1  0  0  0  0
 41 64  1  0  0  0  0
 42 47  1  0  0  0  0
 42 64  1  0  0  0  0
 43 48  1  0  0  0  0
 43 63  1  0  0  0  0
 44 48  1  0  0  0  0
 44 63  1  0  0  0  0
 45 67  1  0  0  0  0
 46 62  1  0  0  0  0
 47 61  1  0  0  0  0
 48 70  1  0  0  0  0
 49 58  1  0  0  0  0
 50 59  1  0  0  0  0
 51 59  1  0  0  0  0
 52 59  1  0  0  0  0
 53 71  1  0  0  0  0
 54 79  1  0  0  0  0
 55 56  1  0  0  0  0
 55 69  1  0  0  0  0
 56 70  1  0  0  0  0
 57 59  1  0  0  0  0
 57 68  1  0  0  0  0
 58 71  1  0  0  0  0
 60 61  1  0  0  0  0
M  CHG  2  70   1  71   1
M  ISO  4  33 100  54 101  69 100  79 101
M  END
> <Batch ID>
0138

> <Smiles>
CNC(C)C(=O)NC(C(=O)N1Cc2cc([101O:1][101CH2:1]C(=O)N3CC(NCC[100NH:0][100C:0](=O)N4CCCC(n5nc(-c6ccc(Oc7ccc(F)cc7F)cc6)c(C(N)=O)c5N)C4)C3)ccc2CC1C(=O)NC1CCCc2ccccc21)C(C)(C)C

> <Shape>
0.227

> <Color>
0.096

> <Negative vol penalty>
0.000

$$$$

  -OEChem-04052321083D

 85 93  0     1  0  0  0  0  0999 V2000
  -28.8811  -30.4032   27.3522 C   0  0  0  0  0  0  0  0  0  0  0  0
  -28.6824  -29.5274   26.2897 C   0  0  0  0  0  0  0  0  0  0  0  0
  -27.4701  -11.0250   20.6875 C   0  0  0  0  0  0  0  0  0  0  0  0
  -27.0891  -11.8688   18.4559 C   0  0  0  0  0  0  0  0  0  0  0  0
  -27.8057  -31.1226   27.8716 C   0  0  0  0  0  0  0  0  0  0  0  0
  -27.4078  -29.3698   25.7466 C   0  0  0  0  0  0  0  0  0  0  0  0
  -27.4373  -29.3916   20.6826 C   0  0  0  0  0  0  0  0  0  0  0  0
  -26.4744  -10.0672   20.4953 C   0  0  0  0  0  0  0  0  0  0  0  0
  -26.0934  -10.9110   18.2637 C   0  0  0  0  0  0  0  0  0  0  0  0
  -27.8465  -28.2222   20.0433 C   0  0  0  0  0  0  0  0  0  0  0  0
  -23.0971   -9.9422   20.5412 C   0  0  0  0  0  0  0  0  0  0  0  0
  -22.1760   -9.7503   21.5710 C   0  0  0  0  0  0  0  0  0  0  0  0
  -25.5392  -27.6323   19.6588 C   0  0  0  0  0  0  0  0  0  0  0  0
  -28.0197  -19.8823   16.7153 C   0  0  0  0  0  0  0  0  0  0  0  0
  -28.0113  -22.1969   16.0616 C   0  0  0  0  0  0  0  0  0  0  0  0
  -22.8613   -7.4407   21.7535 C   0  0  0  0  0  0  0  0  0  0  0  0
  -27.7774  -11.9258   19.6678 C   0  0  0  0  0  0  0  0  0  0  0  0
  -30.1780  -12.7847   19.5818 C   0  0  0  0  0  0  0  0  0  0  0  0
  -26.5191  -30.9810   27.3283 C   0  0  0  0  0  0  0  0  0  0  0  0
  -26.0735  -29.6853   20.8248 C   0  0  0  0  0  0  0  0  0  0  0  0
  -26.3139  -30.0870   26.2601 C   0  0  0  0  0  0  0  0  0  0  0  0
  -25.1154  -28.8073   20.2981 C   0  0  0  0  0  0  0  0  0  0  0  0
  -25.7861  -10.0102   19.2835 C   0  0  0  0  0  0  0  0  0  0  0  0
  -26.8973  -27.3409   19.5338 C   0  0  0  0  0  0  0  0  0  0  0  0
  -23.9002   -8.8833   20.1175 C   0  0  0  0  0  0  0  0  0  0  0  0
  -27.9262  -20.8511   15.7224 C   0  0  0  0  0  0  0  0  0  0  0  0
  -22.0581   -8.4996   22.1772 C   0  0  0  0  0  0  0  0  0  0  0  0
  -23.7823   -7.6326   20.7237 C   0  0  0  0  0  0  0  0  0  0  0  0
  -28.8054  -12.9158   19.8659 C   0  0  0  0  0  0  0  0  0  0  0  0
  -28.1968  -20.3079   18.0220 C   0  0  0  0  0  0  0  0  0  0  0  0
  -28.1886  -22.5188   17.3975 C   0  0  0  0  0  0  0  0  0  0  0  0
  -30.7208  -13.9929   19.9451 C   0  0  0  0  0  0  0  0  0  0  0  0
  -30.8979  -11.6703   19.0380 C   0  0  0  0  0  0  0  0  0  0  0  0
  -24.1123  -30.0938   23.2926 C   0  0  0  0  0  0  0  0  0  0  0  0
  -21.9963  -30.9148   20.9751 C   0  0  0  0  0  0  0  0  0  0  0  0
  -21.0505  -30.6897   17.7038 C   0  0  0  0  0  0  0  0  0  0  0  0
  -28.4693  -19.5095   20.3957 C   0  0  0  0  0  0  0  0  0  0  0  0
  -25.3788  -31.7445   27.9540 C   0  0  0  0  0  0  0  0  0  0  0  0
  -25.6490  -30.9640   21.4935 C   0  0  0  0  0  0  0  0  0  0  0  0
  -23.6393  -29.0865   20.4068 C   0  0  0  0  0  0  0  0  0  0  0  0
  -24.1301  -31.8009   27.0777 C   0  0  0  0  0  0  0  0  0  0  0  0
  -30.0523  -17.6381   22.9782 C   0  0  0  0  0  0  0  0  0  0  0  0
  -23.8099  -30.4197   26.5151 C   0  0  0  0  0  0  0  0  0  0  0  0
  -30.0426  -16.2038   22.4446 C   0  0  0  0  0  0  0  0  0  0  0  0
  -28.7818  -18.3946   22.5944 C   0  0  0  0  0  0  0  0  0  0  0  0
  -28.4510  -16.9480   20.6280 C   0  0  0  0  0  0  0  0  0  0  0  0
  -24.9508  -29.9074   25.6278 C   0  0  1  0  0  0  0  0  0  0  0  0
  -24.2242  -30.9101   22.0361 C   0  0  1  0  0  0  0  0  0  0  0  0
  -29.7392  -16.1665   20.9339 C   0  0  2  0  0  0  0  0  0  0  0  0
  -19.2567  -31.4370   16.1160 C   0  0  0  0  0  0  0  0  0  0  0  0
  -20.0942  -28.8388   22.1507 C   0  0  0  0  0  0  0  0  0  0  0  0
  -18.7735  -28.9480   20.0265 C   0  0  0  0  0  0  0  0  0  0  0  0
  -19.0026  -30.9791   21.4565 C   0  0  0  0  0  0  0  0  0  0  0  0
  -22.9916  -32.1562   16.0183 C   0  0  0  0  0  0  0  0  0  0  0  0
  -26.3280  -20.5926   12.4955 C   0  0  0  0  0  0  0  0  0  0  0  0
  -25.5321  -21.5013   11.5743 C   0  0  0  0  0  0  0  0  0  0  0  0
  -27.0348  -21.3876   13.5838 C   0  0  0  0  0  0  0  0  0  0  0  0
  -28.5232  -25.6160   19.3412 C   0  0  0  0  0  0  0  0  0  1  0  0
  -28.4570  -24.1143   19.1405 C   0  0  0  0  0  0  0  0  0  0  0  0
  -20.9948  -30.1673   20.1283 C   0  0  1  0  0  0  0  0  0  0  0  0
  -20.6243  -31.7489   16.7033 C   0  0  2  0  0  0  0  0  0  0  0  0
  -19.7440  -29.7268   20.9400 C   0  0  0  0  0  0  0  0  0  0  0  0
  -28.4955  -14.1128   20.3710 N   0  0  0  0  0  0  0  0  0  0  0  0
  -28.2840  -21.6058   18.3900 N   0  0  0  0  0  0  0  0  0  0  0  0
  -29.6810  -14.7449   20.4071 N   0  0  0  0  0  0  0  0  0  0  0  0
  -23.2742  -30.3466   21.0748 N   0  0  0  0  0  0  0  0  0  0  0  0
  -28.5611  -18.3197   21.1486 N   0  0  0  0  0  0  0  0  0  0  0  0
  -31.9814  -14.4748   19.9113 N   0  0  0  0  0  0  0  0  0  0  0  0
  -30.1858  -10.5058   18.7200 N   0  0  0  0  0  0  0  0  0  0  0  0
  -28.2915  -19.3131   19.0266 N   0  0  0  0  0  0  0  0  0  0  0  0
  -24.9066  -30.5450   24.3294 N   0  0  0  0  0  0  0  0  0  0  0  0
  -20.6955  -31.0314   18.9916 N   0  0  0  0  0  0  0  0  0  0  0  0
  -24.9029  -20.6833   10.5098 N   0  3  0  0  0  0  0  0  0  0  0  0
  -21.6076  -31.8320   15.5865 N   0  3  0  0  0  0  0  0  0  0  0  0
  -32.1385  -11.7005   18.8552 O   0  0  0  0  0  0  0  0  0  0  0  0
  -23.3597  -29.1270   23.3200 O   0  0  0  0  0  0  0  0  0  0  0  0
  -21.6594  -31.9679   21.5219 O   0  0  0  0  0  0  0  0  0  0  0  0
  -21.6361  -29.6604   17.3752 O   0  0  0  0  0  0  0  0  0  0  0  0
  -28.5702  -20.6203   20.9227 O   0  0  0  0  0  0  0  0  0  0  0  0
  -24.8146   -9.0756   19.0955 O   0  0  0  0  0  0  0  0  0  0  0  0
  -27.2940  -26.1984   18.9098 O   0  0  0  0  0  0  0  0  0  1  0  0
  -27.7518  -20.4840   14.4240 O   0  0  0  0  0  0  0  0  0  0  0  0
  -28.2752  -23.8380   17.7571 O   0  0  0  0  0  0  0  0  0  0  0  0
  -21.1747   -8.3159   23.1671 F   0  0  0  0  0  0  0  0  0  0  0  0
  -24.5519   -6.6119   20.3217 F   0  0  0  0  0  0  0  0  0  0  0  0
  1  2  1  0  0  0  0
  1  5  2  0  0  0  0
  2  6  2  0  0  0  0
  3  8  2  0  0  0  0
  3 17  1  0  0  0  0
  4  9  1  0  0  0  0
  4 17  2  0  0  0  0
  5 19  1  0  0  0  0
  6 21  1  0  0  0  0
  7 10  2  0  0  0  0
  7 20  1  0  0  0  0
  8 23  1  0  0  0  0
  9 23  2  0  0  0  0
 10 24  1  0  0  0  0
 11 12  2  0  0  0  0
 11 25  1  0  0  0  0
 12 27  1  0  0  0  0
 13 22  1  0  0  0  0
 13 24  2  0  0  0  0
 14 26  1  0  0  0  0
 14 30  2  0  0  0  0
 15 26  2  0  0  0  0
 15 31  1  0  0  0  0
 16 27  2  0  0  0  0
 16 28  1  0  0  0  0
 17 29  1  0  0  0  0
 18 29  1  0  0  0  0
 18 32  2  0  0  0  0
 18 33  1  0  0  0  0
 19 21  2  0  0  0  0
 19 38  1  0  0  0  0
 20 22  2  0  0  0  0
 20 39  1  0  0  0  0
 21 47  1  0  0  0  0
 22 40  1  0  0  0  0
 23 80  1  0  0  0  0
 24 81  1  0  0  0  0
 25 28  2  0  0  0  0
 25 80  1  0  0  0  0
 26 82  1  0  0  0  0
 27 84  1  0  0  0  0
 28 85  1  0  0  0  0
 29 63  2  0  0  0  0
 30 64  1  0  0  0  0
 30 70  1  0  0  0  0
 31 64  2  0  0  0  0
 31 83  1  0  0  0  0
 32 65  1  0  0  0  0
 32 68  1  0  0  0  0
 33 69  1  0  0  0  0
 33 75  2  0  0  0  0
 34 48  1  0  0  0  0
 34 71  1  0  0  0  0
 34 76  2  0  0  0  0
 35 60  1  0  0  0  0
 35 66  1  0  0  0  0
 35 77  2  0  0  0  0
 36 61  1  0  0  0  0
 36 72  1  0  0  0  0
 36 78  2  0  0  0  0
 37 67  1  0  0  0  0
 37 70  1  0  0  0  0
 37 79  2  0  0  0  0
 38 41  1  0  0  0  0
 39 48  1  0  0  0  0
 40 66  1  0  0  0  0
 41 43  1  0  0  0  0
 42 44  1  0  0  0  0
 42 45  1  0  0  0  0
 43 47  1  0  0  0  0
 44 49  1  0  0  0  0
 45 67  1  0  0  0  0
 46 49  1  0  0  0  0
 46 67  1  0  0  0  0
 47 71  1  0  0  0  0
 48 66  1  0  0  0  0
 49 65  1  0  0  0  0
 50 61  1  0  0  0  0
 51 62  1  0  0  0  0
 52 62  1  0  0  0  0
 53 62  1  0  0  0  0
 54 74  1  0  0  0  0
 55 56  1  0  0  0  0
 55 57  1  0  0  0  0
 56 73  1  0  0  0  0
 57 82  1  0  0  0  0
 58 59  1  0  0  0  0
 58 81  1  0  0  0  0
 59 83  1  0  0  0  0
 60 62  1  0  0  0  0
 60 72  1  0  0  0  0
 61 74  1  0  0  0  0
 63 65  1  0  0  0  0
M  CHG  2  73   1  74   1
M  ISO  4  37 100  58 101  70 100  81 101
M  END
> <Batch ID>
0138

> <Smiles>
CNC(C)C(=O)NC(C(=O)N1Cc2cc([101O:1][101CH2:1]COc3cc(OCCCN)cc([100NH:0][100C:0](=O)N4CCCC(n5nc(-c6ccc(Oc7ccc(F)cc7F)cc6)c(C(N)=O)c5N)C4)n3)ccc2CC1C(=O)NC1CCCc2ccccc21)C(C)(C)C

> <Shape>
0.274

> <Color>
0.092

> <Negative vol penalty>
0.000

$$$$

  -OEChem-04052321083D

 87 96  0     1  0  0  0  0  0999 V2000
  -27.9184  -32.9982   26.6469 C   0  0  0  0  0  0  0  0  0  0  0  0
  -28.0911  -31.8757   25.8434 C   0  0  0  0  0  0  0  0  0  0  0  0
  -23.3670  -14.3907   21.5718 C   0  0  0  0  0  0  0  0  0  0  0  0
  -25.5663  -15.3907   21.5974 C   0  0  0  0  0  0  0  0  0  0  0  0
  -26.6374  -33.3793   27.0442 C   0  0  0  0  0  0  0  0  0  0  0  0
  -26.9829  -31.1330   25.4376 C   0  0  0  0  0  0  0  0  0  0  0  0
  -26.2227  -24.7605   17.2203 C   0  0  0  0  0  0  0  0  0  0  0  0
  -27.1604  -29.9033   20.5283 C   0  0  0  0  0  0  0  0  0  0  0  0
  -25.1810  -24.0855   17.8561 C   0  0  0  0  0  0  0  0  0  0  0  0
  -23.9192  -13.1874   21.1329 C   0  0  0  0  0  0  0  0  0  0  0  0
  -26.1185  -14.1873   21.1585 C   0  0  0  0  0  0  0  0  0  0  0  0
  -27.9930  -28.8451   20.1666 C   0  0  0  0  0  0  0  0  0  0  0  0
  -24.7938   -9.7465   20.3516 C   0  0  0  0  0  0  0  0  0  0  0  0
  -24.3603   -8.5718   20.9660 C   0  0  0  0  0  0  0  0  0  0  0  0
  -26.7521  -23.1354   19.4259 C   0  0  0  0  0  0  0  0  0  0  0  0
  -26.0811  -27.3765   20.0853 C   0  0  0  0  0  0  0  0  0  0  0  0
  -25.1489   -9.3948   23.0962 C   0  0  0  0  0  0  0  0  0  0  0  0
  -24.1906  -15.4924   21.8041 C   0  0  0  0  0  0  0  0  0  0  0  0
  -27.7995  -23.8155   18.7923 C   0  0  0  0  0  0  0  0  0  0  0  0
  -23.4200  -17.1437   23.5893 C   0  0  0  0  0  0  0  0  0  0  0  0
  -27.5386  -24.6367   17.6866 C   0  0  0  0  0  0  0  0  0  0  0  0
  -25.5122  -32.6464   26.6351 C   0  0  0  0  0  0  0  0  0  0  0  0
  -25.7810  -29.7032   20.6821 C   0  0  0  0  0  0  0  0  0  0  0  0
  -25.6858  -31.5038   25.8309 C   0  0  0  0  0  0  0  0  0  0  0  0
  -25.2328  -28.4343   20.4465 C   0  0  0  0  0  0  0  0  0  0  0  0
  -25.4455  -23.2755   18.9579 C   0  0  0  0  0  0  0  0  0  0  0  0
  -25.2949  -13.0857   20.9262 C   0  0  0  0  0  0  0  0  0  0  0  0
  -27.4538  -27.5808   19.9479 C   0  0  0  0  0  0  0  0  0  0  0  0
  -25.4050  -10.7455   21.1095 C   0  0  0  0  0  0  0  0  0  0  0  0
  -24.5378   -8.3959   22.3383 C   0  0  0  0  0  0  0  0  0  0  0  0
  -25.5825  -10.5696   22.4818 C   0  0  0  0  0  0  0  0  0  0  0  0
  -23.6207  -16.7359   22.2570 C   0  0  0  0  0  0  0  0  0  0  0  0
  -22.8549  -18.3912   23.4852 C   0  0  0  0  0  0  0  0  0  0  0  0
  -29.1912  -23.6357   19.2819 C   0  0  0  0  0  0  0  0  0  0  0  0
  -23.7178  -16.4563   24.8118 C   0  0  0  0  0  0  0  0  0  0  0  0
  -23.7318  -29.9661   23.0977 C   0  0  0  0  0  0  0  0  0  0  0  0
  -21.5357  -29.3518   20.7907 C   0  0  0  0  0  0  0  0  0  0  0  0
  -20.8430  -27.9900   17.7391 C   0  0  0  0  0  0  0  0  0  0  0  0
  -23.0337  -22.6139   19.2612 C   0  0  0  0  0  0  0  0  0  0  0  0
  -24.1514  -33.0697   27.1288 C   0  0  0  0  0  0  0  0  0  0  0  0
  -24.8928  -30.8610   21.0465 C   0  0  0  0  0  0  0  0  0  0  0  0
  -23.7556  -28.1717   20.5786 C   0  0  0  0  0  0  0  0  0  0  0  0
  -22.9985  -32.4455   26.3468 C   0  0  0  0  0  0  0  0  0  0  0  0
  -20.1242  -21.0338   20.5708 C   0  0  0  0  0  0  0  0  0  0  0  0
  -23.2298  -30.9497   26.1575 C   0  0  0  0  0  0  0  0  0  0  0  0
  -20.6729  -19.7927   21.2783 C   0  0  0  0  0  0  0  0  0  0  0  0
  -20.8972  -21.3452   19.2905 C   0  0  0  0  0  0  0  0  0  0  0  0
  -22.9017  -20.2081   20.1614 C   0  0  0  0  0  0  0  0  0  0  0  0
  -24.5064  -30.6868   25.3497 C   0  0  1  0  0  0  0  0  0  0  0  0
  -28.6600  -25.3505   16.9879 C   0  0  1  0  0  0  0  0  0  0  0  0
  -23.5729  -30.4265   21.6762 C   0  0  1  0  0  0  0  0  0  0  0  0
  -22.1963  -19.8924   21.4905 C   0  0  2  0  0  0  0  0  0  0  0  0
  -29.7939  -25.6902   17.9637 C   0  0  1  0  0  0  0  0  0  0  0  0
  -18.9505  -27.6089   16.1358 C   0  0  0  0  0  0  0  0  0  0  0  0
  -31.9547  -22.9180   18.4935 C   0  0  0  0  0  0  0  0  0  0  0  0
  -31.7631  -24.3186   20.5785 C   0  0  0  0  0  0  0  0  0  0  0  0
  -20.5012  -27.0867   22.5540 C   0  0  0  0  0  0  0  0  0  0  0  0
  -19.3008  -26.1730   20.5558 C   0  0  0  0  0  0  0  0  0  0  0  0
  -18.7173  -28.4341   21.4330 C   0  0  0  0  0  0  0  0  0  0  0  0
  -22.1552  -29.5957   15.6276 C   0  0  0  0  0  0  0  0  0  0  0  0
  -29.4378  -26.8654   18.8489 C   0  0  0  0  0  0  0  0  0  1  0  0
  -20.9089  -28.1043   20.2164 C   0  0  1  0  0  0  0  0  0  0  0  0
  -20.0866  -28.5350   16.5411 C   0  0  2  0  0  0  0  0  0  0  0  0
  -31.5574  -24.2684   19.0717 C   0  0  0  0  0  0  0  0  0  0  0  0
  -19.8852  -27.4537   21.1891 C   0  0  0  0  0  0  0  0  0  0  0  0
  -23.2158  -17.6501   21.3714 N   0  0  0  0  0  0  0  0  0  0  0  0
  -22.7551  -18.6448   22.1488 N   0  0  0  0  0  0  0  0  0  0  0  0
  -30.1522  -24.5180   18.7788 N   0  0  0  0  0  0  0  0  0  0  0  0
  -22.9294  -29.3345   20.9431 N   0  0  0  0  0  0  0  0  0  0  0  0
  -22.3325  -21.4289   19.5693 N   0  0  0  0  0  0  0  0  0  0  0  0
  -22.4386  -19.2850   24.4073 N   0  0  0  0  0  0  0  0  0  0  0  0
  -24.2971  -15.1822   24.7379 N   0  0  0  0  0  0  0  0  0  0  0  0
  -24.3860  -22.5885   19.6008 N   0  0  0  0  0  0  0  0  0  0  0  0
  -24.2700  -30.9194   23.9410 N   0  0  0  0  0  0  0  0  0  0  0  0
  -20.3468  -28.4870   18.9257 N   0  0  0  0  0  0  0  0  0  0  0  0
  -21.0037  -28.6913   15.3768 N   0  3  0  0  0  0  0  0  0  0  0  0
  -29.4267  -22.7265   20.0747 O   0  0  0  0  0  0  0  0  0  0  0  0
  -23.4623  -16.9502   25.9362 O   0  0  0  0  0  0  0  0  0  0  0  0
  -23.3900  -28.8307   23.4068 O   0  0  0  0  0  0  0  0  0  0  0  0
  -20.8161  -30.3091   21.0863 O   0  0  0  0  0  0  0  0  0  0  0  0
  -21.7779  -27.1993   17.6331 O   0  0  0  0  0  0  0  0  0  0  0  0
  -22.4698  -23.5898   18.7597 O   0  0  0  0  0  0  0  0  0  0  0  0
  -29.1475  -24.4930   15.9576 O   0  0  0  0  0  0  0  0  0  0  0  0
  -25.8341  -11.9116   20.4981 O   0  0  0  0  0  0  0  0  0  0  0  0
  -28.2643  -26.5461   19.5955 O   0  0  0  0  0  0  0  0  0  1  0  0
  -24.1201   -7.2683   22.9285 F   0  0  0  0  0  0  0  0  0  0  0  0
  -26.1679  -11.5262   23.2152 F   0  0  0  0  0  0  0  0  0  0  0  0
  1  2  1  0  0  0  0
  1  5  2  0  0  0  0
  2  6  2  0  0  0  0
  3 10  2  0  0  0  0
  3 18  1  0  0  0  0
  4 11  1  0  0  0  0
  4 18  2  0  0  0  0
  5 22  1  0  0  0  0
  6 24  1  0  0  0  0
  7  9  2  0  0  0  0
  7 21  1  0  0  0  0
  8 12  2  0  0  0  0
  8 23  1  0  0  0  0
  9 26  1  0  0  0  0
 10 27  1  0  0  0  0
 11 27  2  0  0  0  0
 12 28  1  0  0  0  0
 13 14  2  0  0  0  0
 13 29  1  0  0  0  0
 14 30  1  0  0  0  0
 15 19  1  0  0  0  0
 15 26  2  0  0  0  0
 16 25  1  0  0  0  0
 16 28  2  0  0  0  0
 17 30  2  0  0  0  0
 17 31  1  0  0  0  0
 18 32  1  0  0  0  0
 19 21  2  0  0  0  0
 19 34  1  0  0  0  0
 20 32  1  0  0  0  0
 20 33  2  0  0  0  0
 20 35  1  0  0  0  0
 21 50  1  0  0  0  0
 22 24  2  0  0  0  0
 22 40  1  0  0  0  0
 23 25  2  0  0  0  0
 23 41  1  0  0  0  0
 24 49  1  0  0  0  0
 25 42  1  0  0  0  0
 26 73  1  0  0  0  0
 27 84  1  0  0  0  0
 28 85  1  0  0  0  0
 29 31  2  0  0  0  0
 29 84  1  0  0  0  0
 30 86  1  0  0  0  0
 31 87  1  0  0  0  0
 32 66  2  0  0  0  0
 33 67  1  0  0  0  0
 33 71  1  0  0  0  0
 34 68  1  0  0  0  0
 34 77  2  0  0  0  0
 35 72  1  0  0  0  0
 35 78  2  0  0  0  0
 36 51  1  0  0  0  0
 36 74  1  0  0  0  0
 36 79  2  0  0  0  0
 37 62  1  0  0  0  0
 37 69  1  0  0  0  0
 37 80  2  0  0  0  0
 38 63  1  0  0  0  0
 38 75  1  0  0  0  0
 38 81  2  0  0  0  0
 39 70  1  0  0  0  0
 39 73  1  0  0  0  0
 39 82  2  0  0  0  0
 40 43  1  0  0  0  0
 41 51  1  0  0  0  0
 42 69  1  0  0  0  0
 43 45  1  0  0  0  0
 44 46  1  0  0  0  0
 44 47  1  0  0  0  0
 45 49  1  0  0  0  0
 46 52  1  0  0  0  0
 47 70  1  0  0  0  0
 48 52  1  0  0  0  0
 48 70  1  0  0  0  0
 49 74  1  0  0  0  0
 50 53  1  0  0  0  0
 50 83  1  0  0  0  0
 51 69  1  0  0  0  0
 52 67  1  0  0  0  0
 53 61  1  0  0  0  0
 53 68  1  0  0  0  0
 54 63  1  0  0  0  0
 55 64  1  0  0  0  0
 56 64  1  0  0  0  0
 57 65  1  0  0  0  0
 58 65  1  0  0  0  0
 59 65  1  0  0  0  0
 60 76  1  0  0  0  0
 61 85  1  0  0  0  0
 62 65  1  0  0  0  0
 62 75  1  0  0  0  0
 63 76  1  0  0  0  0
 64 68  1  0  0  0  0
 66 67  1  0  0  0  0
M  CHG  1  76   1
M  ISO  4  39 100  61 101  73 100  85 101
M  END
> <Batch ID>
0138

> <Smiles>
CNC(C)C(=O)NC(C(=O)N1Cc2cc([101O:1][101CH2:1]C3C(O)c4ccc([100NH:0][100C:0](=O)N5CCCC(n6nc(-c7ccc(Oc8ccc(F)cc8F)cc7)c(C(N)=O)c6N)C5)cc4C(=O)N3C(C)C)ccc2CC1C(=O)NC1CCCc2ccccc21)C(C)(C)C

> <Shape>
0.242

> <Color>
0.075

> <Negative vol penalty>
0.000

$$$$

  -OEChem-04052321083D

 92102  0     1  0  0  0  0  0999 V2000
  -17.1437  -30.0983   24.3299 C   0  0  0  0  0  0  0  0  0  0  0  0
  -17.5352  -28.7950   24.6191 C   0  0  0  0  0  0  0  0  0  0  0  0
  -28.5790  -20.1176   20.8196 C   0  0  0  0  0  0  0  0  0  0  0  0
  -30.0974  -19.4005   19.0825 C   0  0  0  0  0  0  0  0  0  0  0  0
  -17.6152  -30.7273   23.1785 C   0  0  0  0  0  0  0  0  0  0  0  0
  -18.3976  -28.1196   23.7563 C   0  0  0  0  0  0  0  0  0  0  0  0
  -23.6500  -23.2486   23.7970 C   0  0  0  0  0  0  0  0  0  0  0  0
  -28.4464  -21.3563   20.1924 C   0  0  0  0  0  0  0  0  0  0  0  0
  -29.9647  -20.6393   18.4552 C   0  0  0  0  0  0  0  0  0  0  0  0
  -24.0075  -22.0449   23.1909 C   0  0  0  0  0  0  0  0  0  0  0  0
  -31.1772  -23.7713   18.8441 C   0  0  0  0  0  0  0  0  0  0  0  0
  -32.3388  -24.3950   18.3891 C   0  0  0  0  0  0  0  0  0  0  0  0
  -24.8212  -23.2596   21.2722 C   0  0  0  0  0  0  0  0  0  0  0  0
  -23.9481  -10.9810   20.4888 C   0  0  0  0  0  0  0  0  0  0  0  0
  -21.7756  -11.3393   21.4832 C   0  0  0  0  0  0  0  0  0  0  0  0
  -31.4718  -24.3648   16.1342 C   0  0  0  0  0  0  0  0  0  0  0  0
  -29.4046  -19.1397   20.2647 C   0  0  0  0  0  0  0  0  0  0  0  0
  -30.0217  -17.6128   22.2130 C   0  0  0  0  0  0  0  0  0  0  0  0
  -18.4915  -30.0627   22.3061 C   0  0  0  0  0  0  0  0  0  0  0  0
  -23.8659  -24.4682   23.1394 C   0  0  0  0  0  0  0  0  0  0  0  0
  -18.8802  -28.7399   22.5914 C   0  0  0  0  0  0  0  0  0  0  0  0
  -24.4679  -24.4775   21.8731 C   0  0  0  0  0  0  0  0  0  0  0  0
  -24.2954  -12.3019   20.7715 C   0  0  0  0  0  0  0  0  0  0  0  0
  -23.3829  -13.1416   21.4102 C   0  0  0  0  0  0  0  0  0  0  0  0
  -29.1392  -21.6172   19.0102 C   0  0  0  0  0  0  0  0  0  0  0  0
  -24.5905  -22.0501   21.9271 C   0  0  0  0  0  0  0  0  0  0  0  0
  -30.1628  -23.4443   17.9442 C   0  0  0  0  0  0  0  0  0  0  0  0
  -22.6881  -10.4997   20.8446 C   0  0  0  0  0  0  0  0  0  0  0  0
  -22.1230  -12.6603   21.7661 C   0  0  0  0  0  0  0  0  0  0  0  0
  -32.4862  -24.6918   17.0341 C   0  0  0  0  0  0  0  0  0  0  0  0
  -30.3101  -23.7410   16.5893 C   0  0  0  0  0  0  0  0  0  0  0  0
  -29.5425  -17.8600   20.9125 C   0  0  0  0  0  0  0  0  0  0  0  0
  -29.9552  -16.2477   22.3496 C   0  0  0  0  0  0  0  0  0  0  0  0
  -30.4853  -18.5346   23.2084 C   0  0  0  0  0  0  0  0  0  0  0  0
  -21.9939  -26.8141   22.0923 C   0  0  0  0  0  0  0  0  0  0  0  0
  -24.8254  -28.2623   21.4536 C   0  0  0  0  0  0  0  0  0  0  0  0
  -28.1608  -27.9445   20.8049 C   0  0  0  0  0  0  0  0  0  0  0  0
  -26.5882  -12.0451   19.7599 C   0  0  0  0  0  0  0  0  0  0  0  0
  -18.9372  -30.7670   21.0491 C   0  0  0  0  0  0  0  0  0  0  0  0
  -23.4992  -25.7595   23.8180 C   0  0  0  0  0  0  0  0  0  0  0  0
  -24.7396  -25.7612   21.1336 C   0  0  0  0  0  0  0  0  0  0  0  0
  -20.1448  -30.1146   20.3810 C   0  0  0  0  0  0  0  0  0  0  0  0
  -30.1447  -12.2130   19.7768 C   0  0  0  0  0  0  0  0  0  0  0  0
  -19.9561  -28.6034   20.2958 C   0  0  0  0  0  0  0  0  0  0  0  0
  -19.0382  -15.4666   21.1257 C   0  0  0  0  0  0  0  0  0  0  0  0
  -17.7992  -14.6833   21.4593 C   0  0  0  0  0  0  0  0  0  0  0  0
  -22.7393  -17.9120   20.6349 C   0  0  0  0  0  0  0  0  0  0  0  0
  -24.2982  -17.3694   22.5509 C   0  0  0  0  0  0  0  0  0  0  0  0
  -30.4376  -13.6560   20.1942 C   0  0  0  0  0  0  0  0  0  0  0  0
  -23.5037  -19.2086   20.3851 C   0  0  0  0  0  0  0  0  0  0  0  0
  -25.0579  -18.6678   22.2962 C   0  0  0  0  0  0  0  0  0  0  0  0
  -28.9111  -12.1212   18.8804 C   0  0  0  0  0  0  0  0  0  0  0  0
  -27.9946  -14.1972   19.8393 C   0  0  0  0  0  0  0  0  0  0  0  0
  -19.8341  -27.9830   21.6928 C   0  0  1  0  0  0  0  0  0  0  0  0
  -23.2940  -26.9116   22.8393 C   0  0  1  0  0  0  0  0  0  0  0  0
  -23.6363  -16.8409   21.2708 C   0  0  0  0  0  0  0  0  0  0  0  0
  -19.0538  -14.4840   22.2638 C   0  0  0  0  0  0  0  0  0  0  0  0
  -29.1904  -14.3327   20.7960 C   0  0  2  0  0  0  0  0  0  0  0  0
  -24.1633  -19.7292   21.6593 C   0  0  0  0  0  0  0  0  0  1  0  0
  -30.2053  -29.3044   20.2874 C   0  0  0  0  0  0  0  0  0  0  0  0
  -23.8339  -28.6610   18.5956 C   0  0  0  0  0  0  0  0  0  0  0  0
  -26.1970  -29.1317   17.9156 C   0  0  0  0  0  0  0  0  0  0  0  0
  -25.0540  -30.6198   19.5594 C   0  0  0  0  0  0  0  0  0  0  0  0
  -29.5484  -26.9989   23.2420 C   0  0  0  0  0  0  0  0  0  0  0  0
  -21.0452   -8.7840   20.9597 C   0  0  0  0  0  0  0  0  0  0  0  0
  -22.8374  -15.5717   21.5613 C   0  0  0  0  0  0  0  0  0  0  0  0
  -19.8368  -13.1937   22.1469 C   0  0  0  0  0  0  0  0  0  0  0  0
  -25.7641  -28.3003   20.2720 C   0  0  1  0  0  0  0  0  0  0  0  0
  -29.3714  -28.6561   21.3815 C   0  0  2  0  0  0  0  0  0  0  0  0
  -25.2055  -29.1537   19.0985 C   0  0  0  0  0  0  0  0  0  0  0  0
  -29.1973  -16.7417   20.2689 N   0  0  0  0  0  0  0  0  0  0  0  0
  -29.4599  -15.7786   21.1686 N   0  0  0  0  0  0  0  0  0  0  0  0
  -24.3574  -26.9972   21.8362 N   0  0  0  0  0  0  0  0  0  0  0  0
  -27.7683  -12.7795   19.5171 N   0  0  0  0  0  0  0  0  0  0  0  0
  -30.2727  -15.4150   23.3636 N   0  0  0  0  0  0  0  0  0  0  0  0
  -31.8473  -18.8643   23.2311 N   0  0  0  0  0  0  0  0  0  0  0  0
  -25.5811  -12.7670   20.3996 N   0  0  0  0  0  0  0  0  0  0  0  0
  -23.7235  -14.4654   21.6978 N   0  0  0  0  0  0  0  0  0  0  0  0
  -21.1370  -27.8753   22.3135 N   0  0  0  0  0  0  0  0  0  0  0  0
  -27.0494  -28.7605   20.7864 N   0  0  0  0  0  0  0  0  0  0  0  0
  -30.2345  -27.6928   22.1218 N   0  3  0  0  0  0  0  0  0  0  0  0
  -29.7175  -19.0381   24.0631 O   0  0  0  0  0  0  0  0  0  0  0  0
  -21.7844  -25.8483   21.3678 O   0  0  0  0  0  0  0  0  0  0  0  0
  -24.5242  -29.3155   22.0208 O   0  0  0  0  0  0  0  0  0  0  0  0
  -28.1982  -26.7822   20.4069 O   0  0  0  0  0  0  0  0  0  0  0  0
  -26.4890  -10.8552   19.4496 O   0  0  0  0  0  0  0  0  0  0  0  0
  -29.0098  -22.8258   18.3977 O   0  0  0  0  0  0  0  0  0  0  0  0
  -24.9397  -20.8767   21.3331 O   0  0  0  0  0  0  0  0  0  1  0  0
  -22.3493   -9.2106   20.5686 O   0  0  0  0  0  0  0  0  0  0  0  0
  -21.2156  -13.4634   22.3905 O   0  0  0  0  0  0  0  0  0  0  0  0
  -33.6011  -25.2922   16.5975 F   0  0  0  0  0  0  0  0  0  0  0  0
  -29.3386  -23.4303   15.7201 F   0  0  0  0  0  0  0  0  0  0  0  0
  1  2  1  0  0  0  0
  1  5  2  0  0  0  0
  2  6  2  0  0  0  0
  3  8  2  0  0  0  0
  3 17  1  0  0  0  0
  4  9  1  0  0  0  0
  4 17  2  0  0  0  0
  5 19  1  0  0  0  0
  6 21  1  0  0  0  0
  7 10  2  0  0  0  0
  7 20  1  0  0  0  0
  8 25  1  0  0  0  0
  9 25  2  0  0  0  0
 10 26  1  0  0  0  0
 11 12  2  0  0  0  0
 11 27  1  0  0  0  0
 12 30  1  0  0  0  0
 13 22  1  0  0  0  0
 13 26  2  0  0  0  0
 14 23  2  0  0  0  0
 14 28  1  0  0  0  0
 15 28  2  0  0  0  0
 15 29  1  0  0  0  0
 16 30  2  0  0  0  0
 16 31  1  0  0  0  0
 17 32  1  0  0  0  0
 18 32  1  0  0  0  0
 18 33  2  0  0  0  0
 18 34  1  0  0  0  0
 19 21  2  0  0  0  0
 19 39  1  0  0  0  0
 20 22  2  0  0  0  0
 20 40  1  0  0  0  0
 21 54  1  0  0  0  0
 22 41  1  0  0  0  0
 23 24  1  0  0  0  0
 23 77  1  0  0  0  0
 24 29  2  0  0  0  0
 24 78  1  0  0  0  0
 25 87  1  0  0  0  0
 26 88  1  0  0  0  0
 27 31  2  0  0  0  0
 27 87  1  0  0  0  0
 28 89  1  0  0  0  0
 29 90  1  0  0  0  0
 30 91  1  0  0  0  0
 31 92  1  0  0  0  0
 32 71  2  0  0  0  0
 33 72  1  0  0  0  0
 33 75  1  0  0  0  0
 34 76  1  0  0  0  0
 34 82  2  0  0  0  0
 35 55  1  0  0  0  0
 35 79  1  0  0  0  0
 35 83  2  0  0  0  0
 36 68  1  0  0  0  0
 36 73  1  0  0  0  0
 36 84  2  0  0  0  0
 37 69  1  0  0  0  0
 37 80  1  0  0  0  0
 37 85  2  0  0  0  0
 38 74  1  0  0  0  0
 38 77  1  0  0  0  0
 38 86  2  0  0  0  0
 39 42  1  0  0  0  0
 40 55  1  0  0  0  0
 41 73  1  0  0  0  0
 42 44  1  0  0  0  0
 43 49  1  0  0  0  0
 43 52  1  0  0  0  0
 44 54  1  0  0  0  0
 45 46  1  0  0  0  0
 45 57  1  0  0  0  0
 46 57  1  0  0  0  0
 47 50  1  0  0  0  0
 47 56  1  0  0  0  0
 48 51  1  0  0  0  0
 48 56  1  0  0  0  0
 49 58  1  0  0  0  0
 50 59  1  0  0  0  0
 51 59  1  0  0  0  0
 52 74  1  0  0  0  0
 53 58  1  0  0  0  0
 53 74  1  0  0  0  0
 54 79  1  0  0  0  0
 55 73  1  0  0  0  0
 56 66  1  0  0  0  0
 57 67  1  0  0  0  0
 58 72  1  0  0  0  0
 59 88  1  0  0  0  0
 60 69  1  0  0  0  0
 61 70  1  0  0  0  0
 62 70  1  0  0  0  0
 63 70  1  0  0  0  0
 64 81  1  0  0  0  0
 65 89  1  0  0  0  0
 66 78  1  0  0  0  0
 67 90  1  0  0  0  0
 68 70  1  0  0  0  0
 68 80  1  0  0  0  0
 69 81  1  0  0  0  0
 71 72  1  0  0  0  0
M  CHG  1  81   1
M  ISO  4  38 100  59 101  77 100  88 101
M  END
> <Batch ID>
0138

> <Smiles>
CNC(C)C(=O)NC(C(=O)N1Cc2cc([101O:1][101CH:1]3CCC(CNc4c([100NH:0][100C:0](=O)N5CCCC(n6nc(-c7ccc(Oc8ccc(F)cc8F)cc7)c(C(N)=O)c6N)C5)cc(OC)cc4OCC4CC4)CC3)ccc2CC1C(=O)NC1CCCc2ccccc21)C(C)(C)C

> <Shape>
0.293

> <Color>
0.069

> <Negative vol penalty>
0.000

$$$$

  -OEChem-04052321083D

 89 99  0     1  0  0  0  0  0999 V2000
  -31.0621  -21.8424   16.1606 C   0  0  0  0  0  0  0  0  0  0  0  0
  -30.2159  -21.7756   17.2628 C   0  0  0  0  0  0  0  0  0  0  0  0
  -28.5870  -23.1975   26.5505 C   0  0  0  0  0  0  0  0  0  0  0  0
  -26.4236  -13.0240   20.0677 C   0  0  0  0  0  0  0  0  0  0  0  0
  -25.0931  -14.5998   21.3260 C   0  0  0  0  0  0  0  0  0  0  0  0
  -27.2469  -23.5764   26.4923 C   0  0  0  0  0  0  0  0  0  0  0  0
  -31.6639  -23.0523   15.8176 C   0  0  0  0  0  0  0  0  0  0  0  0
  -29.9719  -22.9186   18.0234 C   0  0  0  0  0  0  0  0  0  0  0  0
  -25.0686  -23.4905   19.1526 C   0  0  0  0  0  0  0  0  0  0  0  0
  -28.9728  -21.9268   26.1285 C   0  0  0  0  0  0  0  0  0  0  0  0
  -25.3298  -12.1619   19.9906 C   0  0  0  0  0  0  0  0  0  0  0  0
  -23.9992  -13.7377   21.2489 C   0  0  0  0  0  0  0  0  0  0  0  0
  -24.5567  -22.7040   20.1837 C   0  0  0  0  0  0  0  0  0  0  0  0
  -22.9900   -9.3867   19.7725 C   0  0  0  0  0  0  0  0  0  0  0  0
  -23.2105   -8.0327   20.0244 C   0  0  0  0  0  0  0  0  0  0  0  0
  -24.7425  -24.5750   21.6950 C   0  0  0  0  0  0  0  0  0  0  0  0
  -23.9911   -8.5731   22.2460 C   0  0  0  0  0  0  0  0  0  0  0  0
  -26.3053  -14.2429   20.7355 C   0  0  0  0  0  0  0  0  0  0  0  0
  -26.2901  -22.6809   26.0002 C   0  0  0  0  0  0  0  0  0  0  0  0
  -28.1334  -15.7199   19.7434 C   0  0  0  0  0  0  0  0  0  0  0  0
  -31.4195  -24.2129   16.5686 C   0  0  0  0  0  0  0  0  0  0  0  0
  -25.4321  -24.8243   19.3881 C   0  0  0  0  0  0  0  0  0  0  0  0
  -30.5721  -24.1449   17.6908 C   0  0  0  0  0  0  0  0  0  0  0  0
  -25.2563  -25.3771   20.6646 C   0  0  0  0  0  0  0  0  0  0  0  0
  -26.6663  -21.3882   25.5862 C   0  0  0  0  0  0  0  0  0  0  0  0
  -28.0189  -21.0265   25.6510 C   0  0  0  0  0  0  0  0  0  0  0  0
  -24.1176  -12.5188   20.5812 C   0  0  0  0  0  0  0  0  0  0  0  0
  -24.3962  -23.2453   21.4558 C   0  0  0  0  0  0  0  0  0  0  0  0
  -23.2701  -10.3340   20.7573 C   0  0  0  0  0  0  0  0  0  0  0  0
  -23.7110   -7.6258   21.2611 C   0  0  0  0  0  0  0  0  0  0  0  0
  -23.7706   -9.9272   21.9941 C   0  0  0  0  0  0  0  0  0  0  0  0
  -27.4350  -15.1336   20.8159 C   0  0  0  0  0  0  0  0  0  0  0  0
  -29.1120  -16.4748   20.3425 C   0  0  0  0  0  0  0  0  0  0  0  0
  -24.8721  -23.1225   25.9754 C   0  0  0  0  0  0  0  0  0  0  0  0
  -27.9168  -15.5935   18.3317 C   0  0  0  0  0  0  0  0  0  0  0  0
  -28.1445  -26.4730   19.2205 C   0  0  0  0  0  0  0  0  0  0  0  0
  -26.1969  -28.9917   19.8412 C   0  0  0  0  0  0  0  0  0  0  0  0
  -23.3924  -29.6816   22.0037 C   0  0  0  0  0  0  0  0  0  0  0  0
  -29.5693  -19.0421   25.7189 C   0  0  0  0  0  0  0  0  0  0  0  0
  -32.1301  -25.4874   16.1871 C   0  0  0  0  0  0  0  0  0  0  0  0
  -25.9578  -25.6673   18.2587 C   0  0  0  0  0  0  0  0  0  0  0  0
  -25.6455  -20.3979   25.0882 C   0  0  0  0  0  0  0  0  0  0  0  0
  -25.6123  -26.8095   20.9644 C   0  0  0  0  0  0  0  0  0  0  0  0
  -31.5244  -26.7361   16.8228 C   0  0  0  0  0  0  0  0  0  0  0  0
  -25.0432  -20.7971   23.7403 C   0  0  0  0  0  0  0  0  0  0  0  0
  -31.8024  -16.6594   24.3000 C   0  0  0  0  0  0  0  0  0  0  0  0
  -31.2670  -26.5073   18.3088 C   0  0  0  0  0  0  0  0  0  0  0  0
  -20.0614  -20.8113   24.8253 C   0  0  0  0  0  0  0  0  0  0  0  0
  -19.7741  -20.8606   26.3000 C   0  0  0  0  0  0  0  0  0  0  0  0
  -31.0016  -16.0554   23.1441 C   0  0  0  0  0  0  0  0  0  0  0  0
  -30.9156  -16.9643   25.5060 C   0  0  0  0  0  0  0  0  0  0  0  0
  -28.9332  -17.1824   24.0598 C   0  0  0  0  0  0  0  0  0  0  0  0
  -30.2631  -25.3686   18.5259 C   0  0  1  0  0  0  0  0  0  0  0  0
  -26.7765  -26.8627   18.7363 C   0  0  1  0  0  0  0  0  0  0  0  0
  -20.5093  -21.9936   25.6392 C   0  0  0  0  0  0  0  0  0  0  0  0
  -29.7722  -16.9184   22.7988 C   0  0  2  0  0  0  0  0  0  0  0  0
  -24.7282  -22.2894   23.6057 C   0  0  2  0  0  0  0  0  0  1  0  0
  -21.5037  -31.3151   21.7551 C   0  0  0  0  0  0  0  0  0  0  0  0
  -22.3942  -24.5480   25.0638 C   0  0  0  0  0  0  0  0  0  0  0  0
  -27.9651  -30.8450   21.4991 C   0  0  0  0  0  0  0  0  0  0  0  0
  -25.9036  -31.6507   22.6694 C   0  0  0  0  0  0  0  0  0  0  0  0
  -26.1588  -32.0015   20.2129 C   0  0  0  0  0  0  0  0  0  0  0  0
  -21.3583  -27.5540   22.3109 C   0  0  0  0  0  0  0  0  0  0  0  0
  -21.9898  -22.2148   25.9213 C   0  0  0  0  0  0  0  0  0  0  0  0
  -25.6995  -29.6758   21.0916 C   0  0  1  0  0  0  0  0  0  0  0  0
  -21.9458  -29.8702   21.5837 C   0  0  2  0  0  0  0  0  0  0  0  0
  -22.6769  -23.0653   24.8452 C   0  0  2  0  0  0  0  0  0  0  0  0
  -26.4384  -31.0156   21.3681 C   0  0  0  0  0  0  0  0  0  0  0  0
  -27.9282  -15.4857   22.0062 N   0  0  0  0  0  0  0  0  0  0  0  0
  -28.9469  -16.3012   21.6852 N   0  0  0  0  0  0  0  0  0  0  0  0
  -24.1173  -22.8369   24.8266 N   0  0  0  0  0  0  0  0  0  0  0  0
  -26.1285  -27.5914   19.8287 N   0  0  0  0  0  0  0  0  0  0  0  0
  -29.7741  -17.7889   25.1037 N   0  0  0  0  0  0  0  0  0  0  0  0
  -30.0890  -17.2633   19.8466 N   0  0  0  0  0  0  0  0  0  0  0  0
  -27.0520  -16.5007   17.7045 N   0  0  0  0  0  0  0  0  0  0  0  0
  -28.4713  -19.7507   25.2321 N   0  0  0  0  0  0  0  0  0  0  0  0
  -28.9146  -25.8282   18.2715 N   0  0  0  0  0  0  0  0  0  0  0  0
  -24.2552  -29.8111   20.9359 N   0  0  0  0  0  0  0  0  0  0  0  0
  -21.0515  -29.0046   22.4034 N   0  3  0  0  0  0  0  0  0  0  0  0
  -24.4435  -23.6983   26.9746 O   0  0  0  0  0  0  0  0  0  0  0  0
  -28.4610  -14.6923   17.6496 O   0  0  0  0  0  0  0  0  0  0  0  0
  -28.4772  -26.7391   20.3695 O   0  0  0  0  0  0  0  0  0  0  0  0
  -26.6235  -29.6750   18.9070 O   0  0  0  0  0  0  0  0  0  0  0  0
  -23.7241  -29.4470   23.1636 O   0  0  0  0  0  0  0  0  0  0  0  0
  -30.3289  -19.4680   26.5927 O   0  0  0  0  0  0  0  0  0  0  0  0
  -23.0499  -11.6779   20.5060 O   0  0  0  0  0  0  0  0  0  0  0  0
  -23.8974  -22.4796   22.4641 O   0  0  0  0  0  0  0  0  0  1  0  0
  -23.9212   -6.3253   21.5034 F   0  0  0  0  0  0  0  0  0  0  0  0
  -24.0405  -10.8325   22.9446 F   0  0  0  0  0  0  0  0  0  0  0  0
  1  2  1  0  0  0  0
  1  7  2  0  0  0  0
  2  8  2  0  0  0  0
  3  6  2  0  0  0  0
  3 10  1  0  0  0  0
  4 11  2  0  0  0  0
  4 18  1  0  0  0  0
  5 12  1  0  0  0  0
  5 18  2  0  0  0  0
  6 19  1  0  0  0  0
  7 21  1  0  0  0  0
  8 23  1  0  0  0  0
  9 13  2  0  0  0  0
  9 22  1  0  0  0  0
 10 26  2  0  0  0  0
 11 27  1  0  0  0  0
 12 27  2  0  0  0  0
 13 28  1  0  0  0  0
 14 15  2  0  0  0  0
 14 29  1  0  0  0  0
 15 30  1  0  0  0  0
 16 24  1  0  0  0  0
 16 28  2  0  0  0  0
 17 30  2  0  0  0  0
 17 31  1  0  0  0  0
 18 32  1  0  0  0  0
 19 25  2  0  0  0  0
 19 34  1  0  0  0  0
 20 32  1  0  0  0  0
 20 33  2  0  0  0  0
 20 35  1  0  0  0  0
 21 23  2  0  0  0  0
 21 40  1  0  0  0  0
 22 24  2  0  0  0  0
 22 41  1  0  0  0  0
 23 53  1  0  0  0  0
 24 43  1  0  0  0  0
 25 26  1  0  0  0  0
 25 42  1  0  0  0  0
 26 76  1  0  0  0  0
 27 86  1  0  0  0  0
 28 87  1  0  0  0  0
 29 31  2  0  0  0  0
 29 86  1  0  0  0  0
 30 88  1  0  0  0  0
 31 89  1  0  0  0  0
 32 69  2  0  0  0  0
 33 70  1  0  0  0  0
 33 74  1  0  0  0  0
 34 71  1  0  0  0  0
 34 80  2  0  0  0  0
 35 75  1  0  0  0  0
 35 81  2  0  0  0  0
 36 54  1  0  0  0  0
 36 77  1  0  0  0  0
 36 82  2  0  0  0  0
 37 65  1  0  0  0  0
 37 72  1  0  0  0  0
 37 83  2  0  0  0  0
 38 66  1  0  0  0  0
 38 78  1  0  0  0  0
 38 84  2  0  0  0  0
 39 73  1  0  0  0  0
 39 76  1  0  0  0  0
 39 85  2  0  0  0  0
 40 44  1  0  0  0  0
 41 54  1  0  0  0  0
 42 45  1  0  0  0  0
 43 72  1  0  0  0  0
 44 47  1  0  0  0  0
 45 57  1  0  0  0  0
 46 50  1  0  0  0  0
 46 51  1  0  0  0  0
 47 53  1  0  0  0  0
 48 49  1  0  0  0  0
 48 55  1  0  0  0  0
 49 55  1  0  0  0  0
 50 56  1  0  0  0  0
 51 73  1  0  0  0  0
 52 56  1  0  0  0  0
 52 73  1  0  0  0  0
 53 77  1  0  0  0  0
 54 72  1  0  0  0  0
 55 64  1  0  0  0  0
 56 70  1  0  0  0  0
 57 71  1  0  0  0  0
 57 87  1  0  0  0  0
 58 66  1  0  0  0  0
 59 67  1  0  0  0  0
 60 68  1  0  0  0  0
 61 68  1  0  0  0  0
 62 68  1  0  0  0  0
 63 79  1  0  0  0  0
 64 67  1  0  0  0  0
 65 68  1  0  0  0  0
 65 78  1  0  0  0  0
 66 79  1  0  0  0  0
 67 71  1  0  0  0  0
 69 70  1  0  0  0  0
M  CHG  1  79   1
M  ISO  4  39 100  57 101  76 100  87 101
M  END
> <Batch ID>
0138

> <Smiles>
CNC(C)C(=O)NC(C(=O)N1Cc2cc([101O:1][101CH:1]3CCc4c([100NH:0][100C:0](=O)N5CCCC(n6nc(-c7ccc(Oc8ccc(F)cc8F)cc7)c(C(N)=O)c6N)C5)cccc4C(=O)N3C(C)CC3CC3)ccc2CC1C(=O)NC1CCCc2ccccc21)C(C)(C)C

> <Shape>
0.224

> <Color>
0.086

> <Negative vol penalty>
0.000

$$$$

  -OEChem-04052321083D

 85 93  0     1  0  0  0  0  0999 V2000
  -16.5022  -29.4697   24.1916 C   0  0  0  0  0  0  0  0  0  0  0  0
  -17.4057  -28.4122   24.2216 C   0  0  0  0  0  0  0  0  0  0  0  0
  -23.4221   -9.6466   19.8911 C   0  0  0  0  0  0  0  0  0  0  0  0
  -23.3846   -9.9880   22.2826 C   0  0  0  0  0  0  0  0  0  0  0  0
  -16.9061  -30.7170   23.7173 C   0  0  0  0  0  0  0  0  0  0  0  0
  -18.7135  -28.6013   23.7762 C   0  0  0  0  0  0  0  0  0  0  0  0
  -23.7775  -25.9758   26.0053 C   0  0  0  0  0  0  0  0  0  0  0  0
  -22.6664   -8.4844   20.0452 C   0  0  0  0  0  0  0  0  0  0  0  0
  -22.6288   -8.8258   22.4366 C   0  0  0  0  0  0  0  0  0  0  0  0
  -24.5263  -24.8767   25.5868 C   0  0  0  0  0  0  0  0  0  0  0  0
  -23.1697   -5.4885   22.4698 C   0  0  0  0  0  0  0  0  0  0  0  0
  -23.5401   -4.6042   23.4829 C   0  0  0  0  0  0  0  0  0  0  0  0
  -26.0284  -26.3549   24.4129 C   0  0  0  0  0  0  0  0  0  0  0  0
  -21.3681   -4.8685   24.5075 C   0  0  0  0  0  0  0  0  0  0  0  0
  -23.7812  -10.3984   21.0098 C   0  0  0  0  0  0  0  0  0  0  0  0
  -24.0804  -12.9072   20.6573 C   0  0  0  0  0  0  0  0  0  0  0  0
  -18.2222  -30.9239   23.2749 C   0  0  0  0  0  0  0  0  0  0  0  0
  -24.1429  -27.2740   25.6211 C   0  0  0  0  0  0  0  0  0  0  0  0
  -19.1351  -29.8522   23.2943 C   0  0  0  0  0  0  0  0  0  0  0  0
  -25.2841  -27.4689   24.8300 C   0  0  0  0  0  0  0  0  0  0  0  0
  -22.2698   -8.0739   21.3179 C   0  0  0  0  0  0  0  0  0  0  0  0
  -25.6503  -25.0660   24.7881 C   0  0  0  0  0  0  0  0  0  0  0  0
  -21.8986   -6.0629   22.4755 C   0  0  0  0  0  0  0  0  0  0  0  0
  -22.6393   -4.2942   24.5018 C   0  0  0  0  0  0  0  0  0  0  0  0
  -20.9978   -5.7529   23.4944 C   0  0  0  0  0  0  0  0  0  0  0  0
  -24.5623  -11.5988   20.8514 C   0  0  0  0  0  0  0  0  0  0  0  0
  -25.2122  -13.6799   20.5656 C   0  0  0  0  0  0  0  0  0  0  0  0
  -22.7304  -13.3816   20.5679 C   0  0  0  0  0  0  0  0  0  0  0  0
  -22.7659  -29.5824   23.9245 C   0  0  0  0  0  0  0  0  0  0  0  0
  -25.3511  -31.2927   24.8808 C   0  0  0  0  0  0  0  0  0  0  0  0
  -28.5847  -31.2899   25.9718 C   0  0  0  0  0  0  0  0  0  0  0  0
  -30.3013  -15.0905   22.3701 C   0  0  0  0  0  0  0  0  0  0  0  0
  -18.5994  -32.2774   22.7266 C   0  0  0  0  0  0  0  0  0  0  0  0
  -23.3400  -28.4510   26.1031 C   0  0  0  0  0  0  0  0  0  0  0  0
  -25.7304  -28.8438   24.4070 C   0  0  0  0  0  0  0  0  0  0  0  0
  -20.1069  -32.4941   22.6231 C   0  0  0  0  0  0  0  0  0  0  0  0
  -30.0724  -12.3577   20.0993 C   0  0  0  0  0  0  0  0  0  0  0  0
  -20.7784  -31.2804   21.9883 C   0  0  0  0  0  0  0  0  0  0  0  0
  -28.5803  -12.0210   20.0816 C   0  0  0  0  0  0  0  0  0  0  0  0
  -30.5374  -12.7873   21.4890 C   0  0  0  0  0  0  0  0  0  0  0  0
  -28.2677  -13.5503   22.0721 C   0  0  0  0  0  0  0  0  0  0  0  0
  -28.6602  -19.2633   20.1314 C   0  0  0  0  0  0  0  0  0  0  0  0
  -20.5692  -30.0244   22.8429 C   0  0  1  0  0  0  0  0  0  0  0  0
  -23.5083  -29.6883   25.2266 C   0  0  1  0  0  0  0  0  0  0  0  0
  -27.7400  -13.1654   20.6793 C   0  0  2  0  0  0  0  0  0  0  0  0
  -28.5390  -18.6149   21.5076 C   0  0  1  0  0  0  0  0  0  0  0  0
  -26.4102  -19.7279   21.9028 C   0  0  2  0  0  0  0  0  0  0  0  0
  -26.4718  -20.4087   20.5219 C   0  0  2  0  0  0  0  0  0  0  0  0
  -30.4419  -32.8426   26.6332 C   0  0  0  0  0  0  0  0  0  0  0  0
  -25.2470  -21.3098   18.5241 C   0  0  0  0  0  0  0  0  0  0  0  0
  -24.4008  -19.2560   19.6943 C   0  0  0  0  0  0  0  0  0  0  0  0
  -25.8548  -31.9384   21.9415 C   0  0  0  0  0  0  0  0  0  0  0  0
  -28.1719  -32.6509   22.5672 C   0  0  0  0  0  0  0  0  0  0  0  0
  -26.2013  -33.8587   23.5057 C   0  0  0  0  0  0  0  0  0  0  0  0
  -28.6944  -30.1781   28.7123 C   0  0  0  0  0  0  0  0  0  0  0  0
  -29.9246  -18.3771   22.1045 C   0  0  0  0  0  0  0  0  0  0  0  0
  -25.6807  -20.5859   22.9240 C   0  0  0  0  0  0  0  0  0  0  0  0
  -26.3906  -21.9186   23.1445 C   0  0  0  0  0  0  0  0  0  0  0  0
  -29.9028  -17.3762   23.2509 C   0  0  0  0  0  0  0  0  0  0  0  0
  -25.6864  -22.7621   24.1990 C   0  0  0  0  0  0  0  0  0  1  0  0
  -26.7376  -31.5307   24.3333 C   0  0  1  0  0  0  0  0  0  0  0  0
  -29.2611  -32.0170   27.1199 C   0  0  2  0  0  0  0  0  0  0  0  0
  -25.1067  -20.5994   19.8694 C   0  0  0  0  0  0  0  0  0  0  0  0
  -26.7322  -32.4685   23.0931 C   0  0  0  0  0  0  0  0  0  0  0  0
  -25.8964  -11.5398   20.8813 N   0  0  0  0  0  0  0  0  0  0  0  0
  -26.2624  -12.8208   20.7046 N   0  0  0  0  0  0  0  0  0  0  0  0
  -27.7661  -19.4713   22.4147 N   0  0  0  0  0  0  0  0  0  0  0  0
  -24.9088  -29.9623   24.8985 N   0  0  0  0  0  0  0  0  0  0  0  0
  -29.7005  -13.8765   21.9981 N   0  0  0  0  0  0  0  0  0  0  0  0
  -25.4016  -15.0036   20.3803 N   0  0  0  0  0  0  0  0  0  0  0  0
  -21.6869  -12.4532   20.6833 N   0  0  0  0  0  0  0  0  0  0  0  0
  -21.4613  -30.0341   23.9824 N   0  0  0  0  0  0  0  0  0  0  0  0
  -27.5387  -32.0210   25.4496 N   0  0  0  0  0  0  0  0  0  0  0  0
  -29.4355  -16.0722   22.8362 N   0  0  0  0  0  0  0  0  0  0  0  0
  -27.2902  -19.5383   19.6065 N   0  3  0  0  0  0  0  0  0  0  0  0
  -29.7553  -31.0410   28.1318 N   0  3  0  0  0  0  0  0  0  0  0  0
  -22.4578  -14.5907   20.3746 O   0  0  0  0  0  0  0  0  0  0  0  0
  -23.3351  -29.1263   22.9398 O   0  0  0  0  0  0  0  0  0  0  0  0
  -24.6876  -32.2510   25.2847 O   0  0  0  0  0  0  0  0  0  0  0  0
  -28.9503  -30.1856   25.5751 O   0  0  0  0  0  0  0  0  0  0  0  0
  -31.5186  -15.2868   22.2876 O   0  0  0  0  0  0  0  0  0  0  0  0
  -21.5322   -6.9400   21.4685 O   0  0  0  0  0  0  0  0  0  0  0  0
  -26.3826  -23.9949   24.3776 O   0  0  0  0  0  0  0  0  0  1  0  0
  -22.9945   -3.4438   25.4738 F   0  0  0  0  0  0  0  0  0  0  0  0
  -19.7748   -6.3006   23.5046 F   0  0  0  0  0  0  0  0  0  0  0  0
  1  2  1  0  0  0  0
  1  5  2  0  0  0  0
  2  6  2  0  0  0  0
  3  8  2  0  0  0  0
  3 15  1  0  0  0  0
  4  9  1  0  0  0  0
  4 15  2  0  0  0  0
  5 17  1  0  0  0  0
  6 19  1  0  0  0  0
  7 10  2  0  0  0  0
  7 18  1  0  0  0  0
  8 21  1  0  0  0  0
  9 21  2  0  0  0  0
 10 22  1  0  0  0  0
 11 12  2  0  0  0  0
 11 23  1  0  0  0  0
 12 24  1  0  0  0  0
 13 20  1  0  0  0  0
 13 22  2  0  0  0  0
 14 24  2  0  0  0  0
 14 25  1  0  0  0  0
 15 26  1  0  0  0  0
 16 26  1  0  0  0  0
 16 27  2  0  0  0  0
 16 28  1  0  0  0  0
 17 19  2  0  0  0  0
 17 33  1  0  0  0  0
 18 20  2  0  0  0  0
 18 34  1  0  0  0  0
 19 43  1  0  0  0  0
 20 35  1  0  0  0  0
 21 82  1  0  0  0  0
 22 83  1  0  0  0  0
 23 25  2  0  0  0  0
 23 82  1  0  0  0  0
 24 84  1  0  0  0  0
 25 85  1  0  0  0  0
 26 65  2  0  0  0  0
 27 66  1  0  0  0  0
 27 70  1  0  0  0  0
 28 71  1  0  0  0  0
 28 77  2  0  0  0  0
 29 44  1  0  0  0  0
 29 72  1  0  0  0  0
 29 78  2  0  0  0  0
 30 61  1  0  0  0  0
 30 68  1  0  0  0  0
 30 79  2  0  0  0  0
 31 62  1  0  0  0  0
 31 73  1  0  0  0  0
 31 80  2  0  0  0  0
 32 69  1  0  0  0  0
 32 74  1  0  0  0  0
 32 81  2  0  0  0  0
 33 36  1  0  0  0  0
 34 44  1  0  0  0  0
 35 68  1  0  0  0  0
 36 38  1  0  0  0  0
 37 39  1  0  0  0  0
 37 40  1  0  0  0  0
 38 43  1  0  0  0  0
 39 45  1  0  0  0  0
 40 69  1  0  0  0  0
 41 45  1  0  0  0  0
 41 69  1  0  0  0  0
 42 46  1  0  0  0  0
 42 75  1  0  0  0  0
 43 72  1  0  0  0  0
 44 68  1  0  0  0  0
 45 66  1  0  0  0  0
 46 56  1  0  0  0  0
 46 67  1  0  0  0  0
 47 48  1  0  0  0  0
 47 57  1  0  0  0  0
 47 67  1  0  0  0  0
 48 63  1  0  0  0  0
 48 75  1  0  0  0  0
 49 62  1  0  0  0  0
 50 63  1  0  0  0  0
 51 63  1  0  0  0  0
 52 64  1  0  0  0  0
 53 64  1  0  0  0  0
 54 64  1  0  0  0  0
 55 76  1  0  0  0  0
 56 59  1  0  0  0  0
 57 58  1  0  0  0  0
 58 60  1  0  0  0  0
 59 74  1  0  0  0  0
 60 83  1  0  0  0  0
 61 64  1  0  0  0  0
 61 73  1  0  0  0  0
 62 76  1  0  0  0  0
 65 66  1  0  0  0  0
M  CHG  2  75   1  76   1
M  ISO  4  32 100  60 101  74 100  83 101
M  END
> <Batch ID>
0138

> <Smiles>
CNC(C)C(=O)NC(C(=O)N1Cc2cc([101O:1][101CH2:1]CCC3NC(CC[100NH:0][100C:0](=O)N4CCCC(n5nc(-c6ccc(Oc7ccc(F)cc7F)cc6)c(C(N)=O)c5N)C4)CNC3C(C)C)ccc2CC1C(=O)NC1CCCc2ccccc21)C(C)(C)C

> <Shape>
0.295

> <Color>
0.188

> <Negative vol penalty>
0.000

$$$$

  -OEChem-04052321083D

 90100  0     1  0  0  0  0  0999 V2000
  -25.9162  -35.2417   17.0051 C   0  0  0  0  0  0  0  0  0  0  0  0
  -25.7874  -33.8747   16.7811 C   0  0  0  0  0  0  0  0  0  0  0  0
  -24.7171   -9.2095   22.0136 C   0  0  0  0  0  0  0  0  0  0  0  0
  -23.5043   -9.7270   19.9893 C   0  0  0  0  0  0  0  0  0  0  0  0
  -26.3772  -35.7047   18.2367 C   0  0  0  0  0  0  0  0  0  0  0  0
  -26.1207  -32.9699   17.7883 C   0  0  0  0  0  0  0  0  0  0  0  0
  -24.2387  -26.5646   20.3857 C   0  0  0  0  0  0  0  0  0  0  0  0
  -23.5739   -8.6139   22.5464 C   0  0  0  0  0  0  0  0  0  0  0  0
  -22.3610   -9.1314   20.5220 C   0  0  0  0  0  0  0  0  0  0  0  0
  -24.7982  -25.3342   20.7274 C   0  0  0  0  0  0  0  0  0  0  0  0
  -21.9260   -5.6765   22.2480 C   0  0  0  0  0  0  0  0  0  0  0  0
  -22.0738   -4.4444   22.8849 C   0  0  0  0  0  0  0  0  0  0  0  0
  -25.5090  -26.2516   22.8422 C   0  0  0  0  0  0  0  0  0  0  0  0
  -29.9335  -21.1280   22.8112 C   0  0  0  0  0  0  0  0  0  0  0  0
  -21.2233   -5.4015   24.9337 C   0  0  0  0  0  0  0  0  0  0  0  0
  -31.9281  -22.7541   23.7186 C   0  0  0  0  0  0  0  0  0  0  0  0
  -24.6823   -9.7661   20.7351 C   0  0  0  0  0  0  0  0  0  0  0  0
  -26.8695   -9.7597   19.4220 C   0  0  0  0  0  0  0  0  0  0  0  0
  -26.7072  -34.8054   19.2629 C   0  0  0  0  0  0  0  0  0  0  0  0
  -24.3197  -27.6526   21.2666 C   0  0  0  0  0  0  0  0  0  0  0  0
  -26.5879  -33.4212   19.0344 C   0  0  0  0  0  0  0  0  0  0  0  0
  -24.9474  -27.4940   22.5104 C   0  0  0  0  0  0  0  0  0  0  0  0
  -32.1071  -21.3831   23.8087 C   0  0  0  0  0  0  0  0  0  0  0  0
  -31.0861  -20.5615   23.3441 C   0  0  0  0  0  0  0  0  0  0  0  0
  -22.3958   -8.5748   21.8005 C   0  0  0  0  0  0  0  0  0  0  0  0
  -25.4360  -25.1783   21.9546 C   0  0  0  0  0  0  0  0  0  0  0  0
  -21.4269   -6.7711   22.9539 C   0  0  0  0  0  0  0  0  0  0  0  0
  -21.7224   -4.3069   24.2277 C   0  0  0  0  0  0  0  0  0  0  0  0
  -21.0755   -6.6336   24.2968 C   0  0  0  0  0  0  0  0  0  0  0  0
  -25.8628  -10.3820   20.1845 C   0  0  0  0  0  0  0  0  0  0  0  0
  -29.8517  -22.5104   22.7660 C   0  0  0  0  0  0  0  0  0  0  0  0
  -27.7614  -10.7665   19.1440 C   0  0  0  0  0  0  0  0  0  0  0  0
  -26.9876   -8.3938   19.0026 C   0  0  0  0  0  0  0  0  0  0  0  0
  -25.6388  -30.5421   21.1469 C   0  0  0  0  0  0  0  0  0  0  0  0
  -24.1258  -30.9235   23.9908 C   0  0  0  0  0  0  0  0  0  0  0  0
  -22.7649  -29.4759   26.7655 C   0  0  0  0  0  0  0  0  0  0  0  0
  -30.7499  -15.0154   20.5041 C   0  0  0  0  0  0  0  0  0  0  0  0
  -27.2463  -35.3516   20.5612 C   0  0  0  0  0  0  0  0  0  0  0  0
  -23.6877  -28.9657   20.8943 C   0  0  0  0  0  0  0  0  0  0  0  0
  -25.0436  -28.6252   23.5001 C   0  0  0  0  0  0  0  0  0  0  0  0
  -27.2223  -34.3400   21.7042 C   0  0  0  0  0  0  0  0  0  0  0  0
  -32.3360  -18.2848   19.7826 C   0  0  0  0  0  0  0  0  0  0  0  0
  -27.3994  -15.7659   19.7675 C   0  0  0  0  0  0  0  0  0  0  0  0
  -33.3940  -20.4625   25.8508 C   0  0  0  0  0  0  0  0  0  0  0  0
  -34.1495  -21.6609   25.3675 C   0  0  0  0  0  0  0  0  0  0  0  0
  -27.7728  -32.9957   21.2391 C   0  0  0  0  0  0  0  0  0  0  0  0
  -32.3087  -18.9696   21.1468 C   0  0  0  0  0  0  0  0  0  0  0  0
  -26.7729  -14.3720   19.7485 C   0  0  0  0  0  0  0  0  0  0  0  0
  -32.3848  -16.7664   19.9134 C   0  0  0  0  0  0  0  0  0  0  0  0
  -28.4168  -15.9214   20.8989 C   0  0  0  0  0  0  0  0  0  0  0  0
  -31.2614  -16.8925   22.1138 C   0  0  0  0  0  0  0  0  0  0  0  0
  -28.8408  -13.4847   20.8908 C   0  0  0  0  0  0  0  0  0  0  0  0
  -33.3616  -20.8281   24.3891 C   0  0  0  0  0  0  0  0  0  0  0  0
  -26.9159  -32.4092   20.1107 C   0  0  1  0  0  0  0  0  0  0  0  0
  -24.2793  -30.1500   21.6525 C   0  0  1  0  0  0  0  0  0  0  0  0
  -31.1721  -18.4195   22.0185 C   0  0  1  0  0  0  0  0  0  0  0  0
  -27.8569  -13.2794   19.7285 C   0  0  1  0  0  0  0  0  0  0  0  0
  -30.1282  -18.4406   24.3129 C   0  0  0  0  0  0  0  0  0  0  0  0
  -21.6379  -30.0472   28.9337 C   0  0  0  0  0  0  0  0  0  0  0  0
  -26.8171  -31.7454   25.1703 C   0  0  0  0  0  0  0  0  0  0  0  0
  -25.8510  -31.3785   27.4507 C   0  0  0  0  0  0  0  0  0  0  0  0
  -24.8748  -33.1149   25.9491 C   0  0  0  0  0  0  0  0  0  0  0  0
  -20.3043  -28.0180   26.0046 C   0  0  0  0  0  0  0  0  0  0  0  0
  -27.5948  -22.2766   21.7280 C   0  0  0  0  0  0  0  0  0  0  0  0
  -26.4688  -23.1643   21.2247 C   0  0  0  0  0  0  0  0  0  1  0  0
  -31.2055  -19.0490   23.4095 C   0  0  2  0  0  0  0  0  0  0  0  0
  -24.4846  -30.6704   25.4351 C   0  0  1  0  0  0  0  0  0  0  0  0
  -21.4371  -29.6956   27.4678 C   0  0  2  0  0  0  0  0  0  0  0  0
  -25.5069  -31.7063   25.9821 C   0  0  0  0  0  0  0  0  0  0  0  0
  -30.8227  -23.3410   23.2074 N   0  0  0  0  0  0  0  0  0  0  0  0
  -26.0932  -11.6833   20.3786 N   0  0  0  0  0  0  0  0  0  0  0  0
  -27.2548  -11.8869   19.7341 N   0  0  0  0  0  0  0  0  0  0  0  0
  -24.4157  -29.8913   23.0873 N   0  0  0  0  0  0  0  0  0  0  0  0
  -31.3198  -16.2688   20.7836 N   0  0  0  0  0  0  0  0  0  0  0  0
  -29.4056  -14.8356   20.8630 N   0  0  0  0  0  0  0  0  0  0  0  0
  -28.9219  -10.7938   18.4549 N   0  0  0  0  0  0  0  0  0  0  0  0
  -25.9822   -7.4911   19.3750 N   0  0  0  0  0  0  0  0  0  0  0  0
  -28.6715  -23.0731   22.2194 N   0  0  0  0  0  0  0  0  0  0  0  0
  -25.7034  -31.8285   20.6464 N   0  0  0  0  0  0  0  0  0  0  0  0
  -23.2239  -30.6308   26.1681 N   0  0  0  0  0  0  0  0  0  0  0  0
  -20.6001  -28.4650   27.3901 N   0  3  0  0  0  0  0  0  0  0  0  0
  -27.9644   -7.9823   18.3316 O   0  0  0  0  0  0  0  0  0  0  0  0
  -26.5613  -29.7378   21.2079 O   0  0  0  0  0  0  0  0  0  0  0  0
  -23.6008  -31.9948   23.6769 O   0  0  0  0  0  0  0  0  0  0  0  0
  -23.3393  -28.3895   26.7517 O   0  0  0  0  0  0  0  0  0  0  0  0
  -31.4028  -14.1137   19.9638 O   0  0  0  0  0  0  0  0  0  0  0  0
  -21.2801   -7.9935   22.3200 O   0  0  0  0  0  0  0  0  0  0  0  0
  -25.9874  -23.9702   22.2927 O   0  0  0  0  0  0  0  0  0  1  0  0
  -21.8629   -3.1232   24.8388 F   0  0  0  0  0  0  0  0  0  0  0  0
  -20.5944   -7.6813   24.9799 F   0  0  0  0  0  0  0  0  0  0  0  0
  1  2  1  0  0  0  0
  1  5  2  0  0  0  0
  2  6  2  0  0  0  0
  3  8  2  0  0  0  0
  3 17  1  0  0  0  0
  4  9  1  0  0  0  0
  4 17  2  0  0  0  0
  5 19  1  0  0  0  0
  6 21  1  0  0  0  0
  7 10  2  0  0  0  0
  7 20  1  0  0  0  0
  8 25  1  0  0  0  0
  9 25  2  0  0  0  0
 10 26  1  0  0  0  0
 11 12  2  0  0  0  0
 11 27  1  0  0  0  0
 12 28  1  0  0  0  0
 13 22  1  0  0  0  0
 13 26  2  0  0  0  0
 14 24  2  0  0  0  0
 14 31  1  0  0  0  0
 15 28  2  0  0  0  0
 15 29  1  0  0  0  0
 16 23  2  0  0  0  0
 16 70  1  0  0  0  0
 17 30  1  0  0  0  0
 18 30  1  0  0  0  0
 18 32  2  0  0  0  0
 18 33  1  0  0  0  0
 19 21  2  0  0  0  0
 19 38  1  0  0  0  0
 20 22  2  0  0  0  0
 20 39  1  0  0  0  0
 21 54  1  0  0  0  0
 22 40  1  0  0  0  0
 23 24  1  0  0  0  0
 23 53  1  0  0  0  0
 24 66  1  0  0  0  0
 25 87  1  0  0  0  0
 26 88  1  0  0  0  0
 27 29  2  0  0  0  0
 27 87  1  0  0  0  0
 28 89  1  0  0  0  0
 29 90  1  0  0  0  0
 30 71  2  0  0  0  0
 31 70  2  0  0  0  0
 31 78  1  0  0  0  0
 32 72  1  0  0  0  0
 32 76  1  0  0  0  0
 33 77  1  0  0  0  0
 33 82  2  0  0  0  0
 34 55  1  0  0  0  0
 34 79  1  0  0  0  0
 34 83  2  0  0  0  0
 35 67  1  0  0  0  0
 35 73  1  0  0  0  0
 35 84  2  0  0  0  0
 36 68  1  0  0  0  0
 36 80  1  0  0  0  0
 36 85  2  0  0  0  0
 37 74  1  0  0  0  0
 37 75  1  0  0  0  0
 37 86  2  0  0  0  0
 38 41  1  0  0  0  0
 39 55  1  0  0  0  0
 40 73  1  0  0  0  0
 41 46  1  0  0  0  0
 42 47  1  0  0  0  0
 42 49  1  0  0  0  0
 43 48  1  0  0  0  0
 43 50  1  0  0  0  0
 44 45  1  0  0  0  0
 44 53  1  0  0  0  0
 45 53  1  0  0  0  0
 46 54  1  0  0  0  0
 47 56  1  0  0  0  0
 48 57  1  0  0  0  0
 49 74  1  0  0  0  0
 50 75  1  0  0  0  0
 51 56  1  0  0  0  0
 51 74  1  0  0  0  0
 52 57  1  0  0  0  0
 52 75  1  0  0  0  0
 54 79  1  0  0  0  0
 55 73  1  0  0  0  0
 56 66  1  0  0  0  0
 57 72  1  0  0  0  0
 58 66  1  0  0  0  0
 59 68  1  0  0  0  0
 60 69  1  0  0  0  0
 61 69  1  0  0  0  0
 62 69  1  0  0  0  0
 63 81  1  0  0  0  0
 64 65  1  0  0  0  0
 64 78  1  0  0  0  0
 65 88  1  0  0  0  0
 67 69  1  0  0  0  0
 67 80  1  0  0  0  0
 68 81  1  0  0  0  0
 71 72  1  0  0  0  0
M  CHG  1  81   1
M  ISO  4  37 100  65 101  74 100  88 101
M  END
> <Batch ID>
0138

> <Smiles>
CNC(C)C(=O)NC(C(=O)N1Cc2cc([101O:1][101CH2:1]CNc3cc(C(C)C4CCC[100N:0]([100C:0](=O)N5CCCC(n6nc(-c7ccc(Oc8ccc(F)cc8F)cc7)c(C(N)=O)c6N)C5)C4)c(C4CC4)cn3)ccc2CC1C(=O)NC1CCCc2ccccc21)C(C)(C)C

> <Shape>
0.231

> <Color>
0.089

> <Negative vol penalty>
0.000

$$$$

  -OEChem-04052321083D

 85 94  0     1  0  0  0  0  0999 V2000
  -30.0737  -35.9949   20.5705 C   0  0  0  0  0  0  0  0  0  0  0  0
  -30.1886  -34.6392   20.2801 C   0  0  0  0  0  0  0  0  0  0  0  0
  -24.3134   -9.4758   21.3066 C   0  0  0  0  0  0  0  0  0  0  0  0
  -23.0081  -11.4738   20.9309 C   0  0  0  0  0  0  0  0  0  0  0  0
  -29.2235  -36.4184   21.5911 C   0  0  0  0  0  0  0  0  0  0  0  0
  -29.4540  -33.7061   21.0109 C   0  0  0  0  0  0  0  0  0  0  0  0
  -27.0421  -28.4750   18.9316 C   0  0  0  0  0  0  0  0  0  0  0  0
  -23.3365   -9.0023   22.1825 C   0  0  0  0  0  0  0  0  0  0  0  0
  -22.0312  -11.0003   21.8067 C   0  0  0  0  0  0  0  0  0  0  0  0
  -27.4781  -27.1521   18.9914 C   0  0  0  0  0  0  0  0  0  0  0  0
  -20.3040   -7.5223   21.9671 C   0  0  0  0  0  0  0  0  0  0  0  0
  -19.9129   -6.1892   21.8426 C   0  0  0  0  0  0  0  0  0  0  0  0
  -26.1081  -26.7953   20.9446 C   0  0  0  0  0  0  0  0  0  0  0  0
  -26.5229  -20.2019   19.3006 C   0  0  0  0  0  0  0  0  0  0  0  0
  -20.6234   -5.7687   24.1132 C   0  0  0  0  0  0  0  0  0  0  0  0
  -29.0057  -19.2083   19.8430 C   0  0  0  0  0  0  0  0  0  0  0  0
  -24.1492  -10.7116   20.6808 C   0  0  0  0  0  0  0  0  0  0  0  0
  -25.2304  -10.9876   18.3868 C   0  0  0  0  0  0  0  0  0  0  0  0
  -28.4708  -35.4908   22.3284 C   0  0  0  0  0  0  0  0  0  0  0  0
  -26.1427  -28.9719   19.8858 C   0  0  0  0  0  0  0  0  0  0  0  0
  -28.5939  -34.1175   22.0432 C   0  0  0  0  0  0  0  0  0  0  0  0
  -25.6603  -28.1242   20.8932 C   0  0  0  0  0  0  0  0  0  0  0  0
  -27.9436  -18.3209   19.7778 C   0  0  0  0  0  0  0  0  0  0  0  0
  -22.1954   -9.7645   22.4325 C   0  0  0  0  0  0  0  0  0  0  0  0
  -27.0133  -26.3128   19.9998 C   0  0  0  0  0  0  0  0  0  0  0  0
  -20.8549   -7.9786   23.1646 C   0  0  0  0  0  0  0  0  0  0  0  0
  -26.6818  -18.8352   19.5009 C   0  0  0  0  0  0  0  0  0  0  0  0
  -20.0726   -5.3124   22.9156 C   0  0  0  0  0  0  0  0  0  0  0  0
  -21.0146   -7.1019   24.2377 C   0  0  0  0  0  0  0  0  0  0  0  0
  -25.1582  -11.2015   19.7764 C   0  0  0  0  0  0  0  0  0  0  0  0
  -27.6485  -21.0052   19.3874 C   0  0  0  0  0  0  0  0  0  0  0  0
  -26.3646  -11.6560   17.9951 C   0  0  0  0  0  0  0  0  0  0  0  0
  -24.3509  -10.2508   17.5271 C   0  0  0  0  0  0  0  0  0  0  0  0
  -26.2450  -31.2655   22.0842 C   0  0  0  0  0  0  0  0  0  0  0  0
  -23.1124  -30.5101   22.4566 C   0  0  0  0  0  0  0  0  0  0  0  0
  -20.6320  -28.1901   22.1222 C   0  0  0  0  0  0  0  0  0  0  0  0
  -29.3600  -16.2973   20.2733 C   0  0  0  0  0  0  0  0  0  0  0  0
  -27.6008  -35.9924   23.4536 C   0  0  0  0  0  0  0  0  0  0  0  0
  -25.6615  -30.3938   19.7916 C   0  0  0  0  0  0  0  0  0  0  0  0
  -24.6782  -28.6032   21.9298 C   0  0  0  0  0  0  0  0  0  0  0  0
  -26.5735  -34.9695   23.9318 C   0  0  0  0  0  0  0  0  0  0  0  0
  -30.6478  -13.0410   19.6292 C   0  0  0  0  0  0  0  0  0  0  0  0
  -27.2274  -33.6044   24.1205 C   0  0  0  0  0  0  0  0  0  0  0  0
  -23.8576  -16.1704   16.6195 C   0  0  0  0  0  0  0  0  0  0  0  0
  -25.0477  -15.5439   17.2910 C   0  0  0  0  0  0  0  0  0  0  0  0
  -29.3927  -12.1815   19.4614 C   0  0  0  0  0  0  0  0  0  0  0  0
  -30.4623  -14.1120   20.7026 C   0  0  0  0  0  0  0  0  0  0  0  0
  -28.0219  -14.1026   20.3652 C   0  0  0  0  0  0  0  0  0  0  0  0
  -27.7947  -33.0768   22.7971 C   0  0  1  0  0  0  0  0  0  0  0  0
  -25.1414  -30.9377   21.1187 C   0  0  1  0  0  0  0  0  0  0  0  0
  -24.2741  -16.6273   17.9901 C   0  0  0  0  0  0  0  0  0  0  0  0
  -28.1381  -13.0513   19.2495 C   0  0  2  0  0  0  0  0  0  0  0  0
  -18.1824  -27.8500   22.5476 C   0  0  0  0  0  0  0  0  0  0  0  0
  -23.6813  -30.1536   25.4330 C   0  0  0  0  0  0  0  0  0  0  0  0
  -21.5088  -28.9249   25.6300 C   0  0  0  0  0  0  0  0  0  0  0  0
  -21.5278  -31.3145   24.9143 C   0  0  0  0  0  0  0  0  0  0  0  0
  -20.0744  -27.7575   19.2480 C   0  0  0  0  0  0  0  0  0  0  0  0
  -24.8875  -17.9976   18.1838 C   0  0  0  0  0  0  0  0  0  0  0  0
  -28.3597  -24.5925   19.0597 C   0  0  0  0  0  0  0  0  0  1  0  0
  -28.7037  -23.1345   19.2950 C   0  0  0  0  0  0  0  0  0  0  0  0
  -22.3425  -29.5348   23.3139 C   0  0  1  0  0  0  0  0  0  0  0  0
  -19.2337  -28.2874   21.5395 C   0  0  2  0  0  0  0  0  0  0  0  0
  -22.2851  -29.9732   24.8046 C   0  0  0  0  0  0  0  0  0  0  0  0
  -28.8903  -20.5420   19.6543 N   0  0  0  0  0  0  0  0  0  0  0  0
  -26.1663  -11.9472   20.2364 N   0  0  0  0  0  0  0  0  0  0  0  0
  -26.8827  -12.2077   19.1297 N   0  0  0  0  0  0  0  0  0  0  0  0
  -24.2423  -30.0034   21.7990 N   0  0  0  0  0  0  0  0  0  0  0  0
  -29.2570  -14.8994   20.4341 N   0  0  0  0  0  0  0  0  0  0  0  0
  -26.9593  -11.8195   16.7943 N   0  0  0  0  0  0  0  0  0  0  0  0
  -23.2319   -9.6254   18.0936 N   0  0  0  0  0  0  0  0  0  0  0  0
  -28.1531  -16.9356   19.9894 N   0  0  0  0  0  0  0  0  0  0  0  0
  -26.7328  -32.5528   21.9651 N   0  0  0  0  0  0  0  0  0  0  0  0
  -21.0349  -29.3825   22.6852 N   0  0  0  0  0  0  0  0  0  0  0  0
  -19.1146  -27.4230   20.3314 N   0  3  0  0  0  0  0  0  0  0  0  0
  -24.5604  -10.1363   16.2956 O   0  0  0  0  0  0  0  0  0  0  0  0
  -26.6248  -30.4139   22.8793 O   0  0  0  0  0  0  0  0  0  0  0  0
  -22.7215  -31.6767   22.3678 O   0  0  0  0  0  0  0  0  0  0  0  0
  -21.2988  -27.1582   22.0852 O   0  0  0  0  0  0  0  0  0  0  0  0
  -30.4437  -16.8816   20.3527 O   0  0  0  0  0  0  0  0  0  0  0  0
  -21.2419   -9.3026   23.2869 O   0  0  0  0  0  0  0  0  0  0  0  0
  -25.5933  -18.0198   19.4230 O   0  0  0  0  0  0  0  0  0  0  0  0
  -27.4377  -25.0213   20.0609 O   0  0  0  0  0  0  0  0  0  1  0  0
  -27.5178  -22.3554   19.1950 O   0  0  0  0  0  0  0  0  0  0  0  0
  -19.6956   -4.0327   22.7964 F   0  0  0  0  0  0  0  0  0  0  0  0
  -21.5420   -7.5347   25.3910 F   0  0  0  0  0  0  0  0  0  0  0  0
  1  2  1  0  0  0  0
  1  5  2  0  0  0  0
  2  6  2  0  0  0  0
  3  8  2  0  0  0  0
  3 17  1  0  0  0  0
  4  9  1  0  0  0  0
  4 17  2  0  0  0  0
  5 19  1  0  0  0  0
  6 21  1  0  0  0  0
  7 10  2  0  0  0  0
  7 20  1  0  0  0  0
  8 24  1  0  0  0  0
  9 24  2  0  0  0  0
 10 25  1  0  0  0  0
 11 12  2  0  0  0  0
 11 26  1  0  0  0  0
 12 28  1  0  0  0  0
 13 22  1  0  0  0  0
 13 25  2  0  0  0  0
 14 27  2  0  0  0  0
 14 31  1  0  0  0  0
 15 28  2  0  0  0  0
 15 29  1  0  0  0  0
 16 23  2  0  0  0  0
 16 64  1  0  0  0  0
 17 30  1  0  0  0  0
 18 30  1  0  0  0  0
 18 32  2  0  0  0  0
 18 33  1  0  0  0  0
 19 21  2  0  0  0  0
 19 38  1  0  0  0  0
 20 22  2  0  0  0  0
 20 39  1  0  0  0  0
 21 49  1  0  0  0  0
 22 40  1  0  0  0  0
 23 27  1  0  0  0  0
 23 71  1  0  0  0  0
 24 80  1  0  0  0  0
 25 82  1  0  0  0  0
 26 29  2  0  0  0  0
 26 80  1  0  0  0  0
 27 81  1  0  0  0  0
 28 84  1  0  0  0  0
 29 85  1  0  0  0  0
 30 65  2  0  0  0  0
 31 64  2  0  0  0  0
 31 83  1  0  0  0  0
 32 66  1  0  0  0  0
 32 69  1  0  0  0  0
 33 70  1  0  0  0  0
 33 75  2  0  0  0  0
 34 50  1  0  0  0  0
 34 72  1  0  0  0  0
 34 76  2  0  0  0  0
 35 61  1  0  0  0  0
 35 67  1  0  0  0  0
 35 77  2  0  0  0  0
 36 62  1  0  0  0  0
 36 73  1  0  0  0  0
 36 78  2  0  0  0  0
 37 68  1  0  0  0  0
 37 71  1  0  0  0  0
 37 79  2  0  0  0  0
 38 41  1  0  0  0  0
 39 50  1  0  0  0  0
 40 67  1  0  0  0  0
 41 43  1  0  0  0  0
 42 46  1  0  0  0  0
 42 47  1  0  0  0  0
 43 49  1  0  0  0  0
 44 45  1  0  0  0  0
 44 51  1  0  0  0  0
 45 51  1  0  0  0  0
 46 52  1  0  0  0  0
 47 68  1  0  0  0  0
 48 52  1  0  0  0  0
 48 68  1  0  0  0  0
 49 72  1  0  0  0  0
 50 67  1  0  0  0  0
 51 58  1  0  0  0  0
 52 66  1  0  0  0  0
 53 62  1  0  0  0  0
 54 63  1  0  0  0  0
 55 63  1  0  0  0  0
 56 63  1  0  0  0  0
 57 74  1  0  0  0  0
 58 81  1  0  0  0  0
 59 60  1  0  0  0  0
 59 82  1  0  0  0  0
 60 83  1  0  0  0  0
 61 63  1  0  0  0  0
 61 73  1  0  0  0  0
 62 74  1  0  0  0  0
 65 66  1  0  0  0  0
M  CHG  1  74   1
M  ISO  4  37 100  59 101  71 100  82 101
M  END
> <Batch ID>
0138

> <Smiles>
CNC(C)C(=O)NC(C(=O)N1Cc2cc([101O:1][101CH2:1]COc3cc(OCC4CC4)c([100NH:0][100C:0](=O)N4CCCC(n5nc(-c6ccc(Oc7ccc(F)cc7F)cc6)c(C(N)=O)c5N)C4)cn3)ccc2CC1C(=O)NC1CCCc2ccccc21)C(C)(C)C

> <Shape>
0.293

> <Color>
0.091

> <Negative vol penalty>
0.000

$$$$

  -OEChem-04052321083D

 81 90  0     1  0  0  0  0  0999 V2000
  -16.4303  -28.8807   23.5155 C   0  0  0  0  0  0  0  0  0  0  0  0
  -17.3321  -28.1464   22.7520 C   0  0  0  0  0  0  0  0  0  0  0  0
  -26.7253  -13.0083   19.9931 C   0  0  0  0  0  0  0  0  0  0  0  0
  -24.3584  -13.4842   20.0846 C   0  0  0  0  0  0  0  0  0  0  0  0
  -16.8635  -30.0099   24.2092 C   0  0  0  0  0  0  0  0  0  0  0  0
  -18.6675  -28.5416   22.6808 C   0  0  0  0  0  0  0  0  0  0  0  0
  -23.5690  -24.8939   22.2619 C   0  0  0  0  0  0  0  0  0  0  0  0
  -26.4479  -11.6436   19.9148 C   0  0  0  0  0  0  0  0  0  0  0  0
  -24.0810  -12.1195   20.0062 C   0  0  0  0  0  0  0  0  0  0  0  0
  -24.3480  -24.4904   21.1784 C   0  0  0  0  0  0  0  0  0  0  0  0
  -22.7577   -8.7395   20.1929 C   0  0  0  0  0  0  0  0  0  0  0  0
  -21.7946   -8.2229   21.0595 C   0  0  0  0  0  0  0  0  0  0  0  0
  -25.9252  -26.2496   21.6650 C   0  0  0  0  0  0  0  0  0  0  0  0
  -30.5785  -24.0555   20.5749 C   0  0  0  0  0  0  0  0  0  0  0  0
  -23.1152   -8.9362   22.9527 C   0  0  0  0  0  0  0  0  0  0  0  0
  -25.6805  -13.9287   20.0781 C   0  0  0  0  0  0  0  0  0  0  0  0
  -26.1063  -16.2409   19.0883 C   0  0  0  0  0  0  0  0  0  0  0  0
  -18.2069  -30.4136   24.1543 C   0  0  0  0  0  0  0  0  0  0  0  0
  -23.9572  -25.9870   23.0498 C   0  0  0  0  0  0  0  0  0  0  0  0
  -19.1188  -29.6780   23.3734 C   0  0  0  0  0  0  0  0  0  0  0  0
  -25.1506  -26.6634   22.7595 C   0  0  0  0  0  0  0  0  0  0  0  0
  -30.2127  -22.8950   21.2663 C   0  0  0  0  0  0  0  0  0  0  0  0
  -25.1258  -11.1992   19.9213 C   0  0  0  0  0  0  0  0  0  0  0  0
  -25.5249  -25.1700   20.8780 C   0  0  0  0  0  0  0  0  0  0  0  0
  -23.8997   -9.3545   20.7062 C   0  0  0  0  0  0  0  0  0  0  0  0
  -21.9733   -8.3213   22.4394 C   0  0  0  0  0  0  0  0  0  0  0  0
  -24.0784   -9.4528   22.0861 C   0  0  0  0  0  0  0  0  0  0  0  0
  -25.9665  -15.3385   20.1597 C   0  0  0  0  0  0  0  0  0  0  0  0
  -29.0817  -22.4031   20.6862 C   0  0  0  0  0  0  0  0  0  0  0  0
  -29.6290  -24.2235   19.5757 C   0  0  0  0  0  0  0  0  0  0  0  0
  -26.3713  -17.4478   19.6882 C   0  0  0  0  0  0  0  0  0  0  0  0
  -26.0056  -16.0091   17.6770 C   0  0  0  0  0  0  0  0  0  0  0  0
  -22.6970  -28.8261   23.7242 C   0  0  0  0  0  0  0  0  0  0  0  0
  -25.2044  -29.0177   25.7732 C   0  0  0  0  0  0  0  0  0  0  0  0
  -28.3535  -27.9962   26.6017 C   0  0  0  0  0  0  0  0  0  0  0  0
  -29.3740  -20.2333   23.5574 C   0  0  0  0  0  0  0  0  0  0  0  0
  -18.6182  -31.6682   24.8832 C   0  0  0  0  0  0  0  0  0  0  0  0
  -23.1196  -26.3930   24.2313 C   0  0  0  0  0  0  0  0  0  0  0  0
  -25.6221  -27.8305   23.5866 C   0  0  0  0  0  0  0  0  0  0  0  0
  -30.6367  -22.0593   22.3952 C   0  0  0  0  0  0  0  0  0  0  0  0
  -28.5670  -21.1710   21.2871 C   0  0  0  0  0  0  0  0  0  0  0  0
  -20.1287  -31.8044   25.0566 C   0  0  0  0  0  0  0  0  0  0  0  0
  -26.1126  -18.8572   24.5402 C   0  0  0  0  0  0  0  0  0  0  0  0
  -20.8461  -31.5012   23.7450 C   0  0  0  0  0  0  0  0  0  0  0  0
  -25.8228  -17.8588   23.4175 C   0  0  0  0  0  0  0  0  0  0  0  0
  -27.6105  -19.0208   24.7887 C   0  0  0  0  0  0  0  0  0  0  0  0
  -28.1100  -18.3399   22.4743 C   0  0  0  0  0  0  0  0  0  0  0  0
  -20.5806  -30.0607   23.2912 C   0  0  1  0  0  0  0  0  0  0  0  0
  -23.3459  -27.8410   24.6548 C   0  0  1  0  0  0  0  0  0  0  0  0
  -26.6177  -18.2048   22.1437 C   0  0  1  0  0  0  0  0  0  0  0  0
  -29.5238  -25.2835   18.5504 C   0  0  0  0  0  0  0  0  0  0  0  0
  -30.1558  -28.3568   28.3103 C   0  0  0  0  0  0  0  0  0  0  0  0
  -25.9116  -31.6803   24.4616 C   0  0  0  0  0  0  0  0  0  0  0  0
  -28.1773  -31.5176   25.5143 C   0  0  0  0  0  0  0  0  0  0  0  0
  -26.1428  -31.6501   26.9516 C   0  0  0  0  0  0  0  0  0  0  0  0
  -28.2733  -25.1632   27.4542 C   0  0  0  0  0  0  0  0  0  0  0  0
  -27.5641  -22.9975   18.7976 C   0  0  0  0  0  0  0  0  0  0  0  0
  -26.2568  -23.3954   19.4741 C   0  0  0  0  0  0  0  0  0  1  0  0
  -26.6254  -29.5188   25.6800 C   0  0  1  0  0  0  0  0  0  0  0  0
  -28.9458  -27.5237   27.9172 C   0  0  2  0  0  0  0  0  0  0  0  0
  -26.7047  -31.0709   25.6349 C   0  0  0  0  0  0  0  0  0  0  0  0
  -26.1293  -15.9222   21.3500 N   0  0  0  0  0  0  0  0  0  0  0  0
  -28.7085  -23.1944   19.6557 N   0  0  0  0  0  0  0  0  0  0  0  0
  -26.3743  -17.2043   21.0301 N   0  0  0  0  0  0  0  0  0  0  0  0
  -24.7653  -28.1934   24.7275 N   0  0  0  0  0  0  0  0  0  0  0  0
  -29.5549  -21.0172   22.4126 N   0  0  0  0  0  0  0  0  0  0  0  0
  -28.3137  -19.3218   23.5431 N   0  0  0  0  0  0  0  0  0  0  0  0
  -26.5997  -18.6828   19.1934 N   0  0  0  0  0  0  0  0  0  0  0  0
  -25.7278  -14.7095   17.2315 N   0  0  0  0  0  0  0  0  0  0  0  0
  -21.3904  -29.1336   24.0523 N   0  0  0  0  0  0  0  0  0  0  0  0
  -27.3449  -28.9159   26.7968 N   0  0  0  0  0  0  0  0  0  0  0  0
  -29.3701  -26.0990   27.8122 N   0  3  0  0  0  0  0  0  0  0  0  0
  -26.1736  -16.9238   16.8352 O   0  0  0  0  0  0  0  0  0  0  0  0
  -23.3351  -29.2752   22.7792 O   0  0  0  0  0  0  0  0  0  0  0  0
  -24.5119  -29.3398   26.7419 O   0  0  0  0  0  0  0  0  0  0  0  0
  -28.7488  -27.5927   25.5102 O   0  0  0  0  0  0  0  0  0  0  0  0
  -30.0864  -20.3788   24.5585 O   0  0  0  0  0  0  0  0  0  0  0  0
  -24.8547   -9.8676   19.8446 O   0  0  0  0  0  0  0  0  0  0  0  0
  -26.2921  -24.7759   19.8132 O   0  0  0  0  0  0  0  0  0  1  0  0
  -21.0475   -7.8265   23.2714 F   0  0  0  0  0  0  0  0  0  0  0  0
  -25.1729  -10.0436   22.5851 F   0  0  0  0  0  0  0  0  0  0  0  0
  1  2  1  0  0  0  0
  1  5  2  0  0  0  0
  2  6  2  0  0  0  0
  3  8  2  0  0  0  0
  3 16  1  0  0  0  0
  4  9  1  0  0  0  0
  4 16  2  0  0  0  0
  5 18  1  0  0  0  0
  6 20  1  0  0  0  0
  7 10  2  0  0  0  0
  7 19  1  0  0  0  0
  8 23  1  0  0  0  0
  9 23  2  0  0  0  0
 10 24  1  0  0  0  0
 11 12  2  0  0  0  0
 11 25  1  0  0  0  0
 12 26  1  0  0  0  0
 13 21  1  0  0  0  0
 13 24  2  0  0  0  0
 14 22  1  0  0  0  0
 14 30  2  0  0  0  0
 15 26  2  0  0  0  0
 15 27  1  0  0  0  0
 16 28  1  0  0  0  0
 17 28  1  0  0  0  0
 17 31  2  0  0  0  0
 17 32  1  0  0  0  0
 18 20  2  0  0  0  0
 18 37  1  0  0  0  0
 19 21  2  0  0  0  0
 19 38  1  0  0  0  0
 20 48  1  0  0  0  0
 21 39  1  0  0  0  0
 22 29  2  0  0  0  0
 22 40  1  0  0  0  0
 23 78  1  0  0  0  0
 24 79  1  0  0  0  0
 25 27  2  0  0  0  0
 25 78  1  0  0  0  0
 26 80  1  0  0  0  0
 27 81  1  0  0  0  0
 28 62  2  0  0  0  0
 29 41  1  0  0  0  0
 29 63  1  0  0  0  0
 30 51  1  0  0  0  0
 30 63  1  0  0  0  0
 31 64  1  0  0  0  0
 31 68  1  0  0  0  0
 32 69  1  0  0  0  0
 32 73  2  0  0  0  0
 33 49  1  0  0  0  0
 33 70  1  0  0  0  0
 33 74  2  0  0  0  0
 34 59  1  0  0  0  0
 34 65  1  0  0  0  0
 34 75  2  0  0  0  0
 35 60  1  0  0  0  0
 35 71  1  0  0  0  0
 35 76  2  0  0  0  0
 36 66  1  0  0  0  0
 36 67  1  0  0  0  0
 36 77  2  0  0  0  0
 37 42  1  0  0  0  0
 38 49  1  0  0  0  0
 39 65  1  0  0  0  0
 40 66  1  0  0  0  0
 41 66  1  0  0  0  0
 42 44  1  0  0  0  0
 43 45  1  0  0  0  0
 43 46  1  0  0  0  0
 44 48  1  0  0  0  0
 45 50  1  0  0  0  0
 46 67  1  0  0  0  0
 47 50  1  0  0  0  0
 47 67  1  0  0  0  0
 48 70  1  0  0  0  0
 49 65  1  0  0  0  0
 50 64  1  0  0  0  0
 52 60  1  0  0  0  0
 53 61  1  0  0  0  0
 54 61  1  0  0  0  0
 55 61  1  0  0  0  0
 56 72  1  0  0  0  0
 57 58  1  0  0  0  0
 57 63  1  0  0  0  0
 58 79  1  0  0  0  0
 59 61  1  0  0  0  0
 59 71  1  0  0  0  0
 60 72  1  0  0  0  0
 62 64  1  0  0  0  0
M  CHG  1  72   1
M  ISO  4  36 100  58 101  66 100  79 101
M  END
> <Batch ID>
0138

> <Smiles>
CNC(C)C(=O)NC(C(=O)N1Cc2cc([101O:1][101CH2:1]Cn3c(C)cc4c3C[100N:0]([100C:0](=O)N3CCCC(n5nc(-c6ccc(Oc7ccc(F)cc7F)cc6)c(C(N)=O)c5N)C3)C4)ccc2CC1C(=O)NC1CCCc2ccccc21)C(C)(C)C

> <Shape>
0.221

> <Color>
0.081

> <Negative vol penalty>
0.000

$$$$

  -OEChem-04052321083D

 82 90  0     1  0  0  0  0  0999 V2000
  -18.7213  -24.3133   23.4784 C   0  0  0  0  0  0  0  0  0  0  0  0
  -20.1037  -24.3370   23.3244 C   0  0  0  0  0  0  0  0  0  0  0  0
  -22.7117  -10.2266   20.6120 C   0  0  0  0  0  0  0  0  0  0  0  0
  -24.5373   -8.8907   21.4604 C   0  0  0  0  0  0  0  0  0  0  0  0
  -17.9685  -25.4489   23.1828 C   0  0  0  0  0  0  0  0  0  0  0  0
  -20.7341  -25.4962   22.8735 C   0  0  0  0  0  0  0  0  0  0  0  0
  -24.8869  -26.6149   25.5470 C   0  0  0  0  0  0  0  0  0  0  0  0
  -21.8515   -9.6409   21.5406 C   0  0  0  0  0  0  0  0  0  0  0  0
  -23.6770   -8.3050   22.3891 C   0  0  0  0  0  0  0  0  0  0  0  0
  -26.0413  -25.8860   25.2648 C   0  0  0  0  0  0  0  0  0  0  0  0
  -21.3080   -5.8929   22.4151 C   0  0  0  0  0  0  0  0  0  0  0  0
  -21.3743   -4.5091   22.5771 C   0  0  0  0  0  0  0  0  0  0  0  0
  -26.8613  -27.7157   23.9234 C   0  0  0  0  0  0  0  0  0  0  0  0
  -21.9483   -4.8090   24.9047 C   0  0  0  0  0  0  0  0  0  0  0  0
  -24.0546   -9.8515   20.5718 C   0  0  0  0  0  0  0  0  0  0  0  0
  -24.8299  -10.4231   18.2096 C   0  0  0  0  0  0  0  0  0  0  0  0
  -18.5909  -26.6257   22.7372 C   0  0  0  0  0  0  0  0  0  0  0  0
  -24.7057  -27.8975   25.0097 C   0  0  0  0  0  0  0  0  0  0  0  0
  -19.9887  -26.6483   22.5703 C   0  0  0  0  0  0  0  0  0  0  0  0
  -25.7048  -28.4598   24.2024 C   0  0  0  0  0  0  0  0  0  0  0  0
  -22.3341   -8.6801   22.4292 C   0  0  0  0  0  0  0  0  0  0  0  0
  -27.0275  -26.4352   24.4505 C   0  0  0  0  0  0  0  0  0  0  0  0
  -21.5619   -6.7348   23.4979 C   0  0  0  0  0  0  0  0  0  0  0  0
  -21.6944   -3.9672   23.8218 C   0  0  0  0  0  0  0  0  0  0  0  0
  -21.8821   -6.1929   24.7427 C   0  0  0  0  0  0  0  0  0  0  0  0
  -24.9437  -10.4558   19.6124 C   0  0  0  0  0  0  0  0  0  0  0  0
  -25.9129  -11.1384   17.7604 C   0  0  0  0  0  0  0  0  0  0  0  0
  -23.8341   -9.8016   17.3862 C   0  0  0  0  0  0  0  0  0  0  0  0
  -29.1003  -15.4213   20.3629 C   0  0  0  0  0  0  0  0  0  0  0  0
  -22.5904  -29.2286   23.0457 C   0  0  0  0  0  0  0  0  0  0  0  0
  -24.1923  -31.9487   23.7924 C   0  0  0  0  0  0  0  0  0  0  0  0
  -27.0813  -33.4039   24.8798 C   0  0  0  0  0  0  0  0  0  0  0  0
  -17.7306  -27.8133   22.3850 C   0  0  0  0  0  0  0  0  0  0  0  0
  -23.4667  -28.6815   25.3454 C   0  0  0  0  0  0  0  0  0  0  0  0
  -25.5678  -29.8409   23.6174 C   0  0  0  0  0  0  0  0  0  0  0  0
  -18.5126  -29.1193   22.2702 C   0  0  0  0  0  0  0  0  0  0  0  0
  -30.3842  -12.3235   18.9550 C   0  0  0  0  0  0  0  0  0  0  0  0
  -19.7774  -28.9132   21.4428 C   0  0  0  0  0  0  0  0  0  0  0  0
  -30.8987  -16.5477   19.0591 C   0  0  0  0  0  0  0  0  0  0  0  0
  -29.1137  -11.4792   18.8646 C   0  0  0  0  0  0  0  0  0  0  0  0
  -31.1114  -18.0594   19.1241 C   0  0  0  0  0  0  0  0  0  0  0  0
  -30.2795  -17.4241   21.2661 C   0  0  0  0  0  0  0  0  0  0  0  0
  -30.3713  -13.2271   20.1852 C   0  0  0  0  0  0  0  0  0  0  0  0
  -27.8969  -13.2671   20.1820 C   0  0  0  0  0  0  0  0  0  0  0  0
  -20.7115  -27.8946   22.1072 C   0  0  1  0  0  0  0  0  0  0  0  0
  -30.4168  -16.1306   20.4568 C   0  0  1  0  0  0  0  0  0  0  0  0
  -23.1563  -29.7736   24.3265 C   0  0  1  0  0  0  0  0  0  0  0  0
  -27.8569  -12.3638   18.9381 C   0  0  2  0  0  0  0  0  0  0  0  0
  -30.1361  -18.4982   20.1995 C   0  0  1  0  0  0  0  0  0  0  0  0
  -28.1003  -35.6481   25.3518 C   0  0  0  0  0  0  0  0  0  0  0  0
  -31.3543  -21.6619   22.9688 C   0  0  0  0  0  0  0  0  0  0  0  0
  -24.5354  -32.4201   20.7974 C   0  0  0  0  0  0  0  0  0  0  0  0
  -26.3200  -34.0915   21.3357 C   0  0  0  0  0  0  0  0  0  0  0  0
  -23.9822  -34.4697   22.1194 C   0  0  0  0  0  0  0  0  0  0  0  0
  -27.4982  -32.7435   27.7345 C   0  0  0  0  0  0  0  0  0  0  0  0
  -29.0839  -23.7283   23.2044 C   0  0  0  0  0  0  0  0  0  0  0  0
  -29.5384  -20.3510   21.7438 C   0  0  0  0  0  0  0  0  0  0  0  0
  -28.0369  -24.3039   24.1432 C   0  0  0  0  0  0  0  0  0  1  0  0
  -25.3846  -32.6781   23.2219 C   0  0  1  0  0  0  0  0  0  0  0  0
  -27.3397  -34.4663   25.9329 C   0  0  2  0  0  0  0  0  0  0  0  0
  -29.9931  -21.7075   22.2813 C   0  0  1  0  0  0  0  0  0  0  0  0
  -25.0576  -33.3880   21.8779 C   0  0  0  0  0  0  0  0  0  0  0  0
  -26.0146  -11.1379   20.0270 N   0  0  0  0  0  0  0  0  0  0  0  0
  -26.5837  -11.5402   18.8779 N   0  0  0  0  0  0  0  0  0  0  0  0
  -29.1455  -14.0330   20.2329 N   0  0  0  0  0  0  0  0  0  0  0  0
  -24.3354  -30.5653   23.9696 N   0  0  0  0  0  0  0  0  0  0  0  0
  -26.3475  -11.4565   16.5225 N   0  0  0  0  0  0  0  0  0  0  0  0
  -24.0401   -8.4785   16.9723 N   0  0  0  0  0  0  0  0  0  0  0  0
  -21.4241  -28.5057   23.2086 N   0  0  0  0  0  0  0  0  0  0  0  0
  -25.8554  -33.5746   24.2722 N   0  0  0  0  0  0  0  0  0  0  0  0
  -28.9883  -22.2869   23.1693 N   0  0  0  0  0  0  0  0  0  0  0  0
  -30.4853  -19.8279   20.7286 N   0  3  0  0  0  0  0  0  0  0  0  0
  -28.1390  -33.8992   27.0556 N   0  3  0  0  0  0  0  0  0  0  0  0
  -22.8004  -10.4073   17.0146 O   0  0  0  0  0  0  0  0  0  0  0  0
  -28.0576  -16.0798   20.4009 O   0  0  0  0  0  0  0  0  0  0  0  0
  -23.1683  -29.4490   21.9878 O   0  0  0  0  0  0  0  0  0  0  0  0
  -23.1741  -32.5842   24.0771 O   0  0  0  0  0  0  0  0  0  0  0  0
  -27.8880  -32.5139   24.6195 O   0  0  0  0  0  0  0  0  0  0  0  0
  -21.4949   -8.1085   23.3357 O   0  0  0  0  0  0  0  0  0  0  0  0
  -28.1550  -25.7257   24.1729 O   0  0  0  0  0  0  0  0  0  1  0  0
  -21.7565   -2.6382   23.9776 F   0  0  0  0  0  0  0  0  0  0  0  0
  -22.1259   -6.9966   25.7869 F   0  0  0  0  0  0  0  0  0  0  0  0
  1  2  1  0  0  0  0
  1  5  2  0  0  0  0
  2  6  2  0  0  0  0
  3  8  2  0  0  0  0
  3 15  1  0  0  0  0
  4  9  1  0  0  0  0
  4 15  2  0  0  0  0
  5 17  1  0  0  0  0
  6 19  1  0  0  0  0
  7 10  2  0  0  0  0
  7 18  1  0  0  0  0
  8 21  1  0  0  0  0
  9 21  2  0  0  0  0
 10 22  1  0  0  0  0
 11 12  2  0  0  0  0
 11 23  1  0  0  0  0
 12 24  1  0  0  0  0
 13 20  1  0  0  0  0
 13 22  2  0  0  0  0
 14 24  2  0  0  0  0
 14 25  1  0  0  0  0
 15 26  1  0  0  0  0
 16 26  1  0  0  0  0
 16 27  2  0  0  0  0
 16 28  1  0  0  0  0
 17 19  2  0  0  0  0
 17 33  1  0  0  0  0
 18 20  2  0  0  0  0
 18 34  1  0  0  0  0
 19 45  1  0  0  0  0
 20 35  1  0  0  0  0
 21 79  1  0  0  0  0
 22 80  1  0  0  0  0
 23 25  2  0  0  0  0
 23 79  1  0  0  0  0
 24 81  1  0  0  0  0
 25 82  1  0  0  0  0
 26 63  2  0  0  0  0
 27 64  1  0  0  0  0
 27 67  1  0  0  0  0
 28 68  1  0  0  0  0
 28 74  2  0  0  0  0
 29 46  1  0  0  0  0
 29 65  1  0  0  0  0
 29 75  2  0  0  0  0
 30 47  1  0  0  0  0
 30 69  1  0  0  0  0
 30 76  2  0  0  0  0
 31 59  1  0  0  0  0
 31 66  1  0  0  0  0
 31 77  2  0  0  0  0
 32 60  1  0  0  0  0
 32 70  1  0  0  0  0
 32 78  2  0  0  0  0
 33 36  1  0  0  0  0
 34 47  1  0  0  0  0
 35 66  1  0  0  0  0
 36 38  1  0  0  0  0
 37 40  1  0  0  0  0
 37 43  1  0  0  0  0
 38 45  1  0  0  0  0
 39 41  1  0  0  0  0
 39 46  1  0  0  0  0
 40 48  1  0  0  0  0
 41 49  1  0  0  0  0
 42 46  1  0  0  0  0
 42 49  1  0  0  0  0
 43 65  1  0  0  0  0
 44 48  1  0  0  0  0
 44 65  1  0  0  0  0
 45 69  1  0  0  0  0
 47 66  1  0  0  0  0
 48 64  1  0  0  0  0
 49 72  1  0  0  0  0
 50 60  1  0  0  0  0
 51 61  1  0  0  0  0
 52 62  1  0  0  0  0
 53 62  1  0  0  0  0
 54 62  1  0  0  0  0
 55 73  1  0  0  0  0
 56 58  1  0  0  0  0
 56 71  1  0  0  0  0
 57 61  1  0  0  0  0
 57 72  1  0  0  0  0
 58 80  1  0  0  0  0
 59 62  1  0  0  0  0
 59 70  1  0  0  0  0
 60 73  1  0  0  0  0
 61 71  1  0  0  0  0
 63 64  1  0  0  0  0
M  CHG  2  72   1  73   1
M  ISO  4  29 100  46 100  58 101  80 101
M  END
> <Batch ID>
0138

> <Smiles>
CNC(C)C(=O)NC(C(=O)N1Cc2cc([101O:1][101CH2:1]CNC(C)CNC3CC[100CH:0]([100C:0](=O)N4CCCC(n5nc(-c6ccc(Oc7ccc(F)cc7F)cc6)c(C(N)=O)c5N)C4)C3)ccc2CC1C(=O)NC1CCCc2ccccc21)C(C)(C)C

> <Shape>
0.288

> <Color>
0.121

> <Negative vol penalty>
0.000

$$$$

  -OEChem-04052321083D

 88 97  0     1  0  0  0  0  0999 V2000
  -16.6473  -30.5284   23.7529 C   0  0  0  0  0  0  0  0  0  0  0  0
  -17.8287  -31.2459   23.9027 C   0  0  0  0  0  0  0  0  0  0  0  0
  -25.3632  -23.9022   16.3314 C   0  0  0  0  0  0  0  0  0  0  0  0
  -22.9595  -12.0302   22.5519 C   0  0  0  0  0  0  0  0  0  0  0  0
  -24.8652  -10.6483   23.0960 C   0  0  0  0  0  0  0  0  0  0  0  0
  -16.6931  -29.1904   23.3671 C   0  0  0  0  0  0  0  0  0  0  0  0
  -19.0556  -30.6290   23.6553 C   0  0  0  0  0  0  0  0  0  0  0  0
  -26.8870  -28.6787   21.5897 C   0  0  0  0  0  0  0  0  0  0  0  0
  -22.3032  -11.5754   23.6955 C   0  0  0  0  0  0  0  0  0  0  0  0
  -24.2088  -10.1935   24.2396 C   0  0  0  0  0  0  0  0  0  0  0  0
  -27.4982  -27.5780   20.9907 C   0  0  0  0  0  0  0  0  0  0  0  0
  -23.5727  -11.3242   27.3601 C   0  0  0  0  0  0  0  0  0  0  0  0
  -24.3032  -11.2722   28.5472 C   0  0  0  0  0  0  0  0  0  0  0  0
  -26.5186  -23.6613   17.1151 C   0  0  0  0  0  0  0  0  0  0  0  0
  -25.6431  -27.3883   19.4604 C   0  0  0  0  0  0  0  0  0  0  0  0
  -23.9124   -8.8919   28.6834 C   0  0  0  0  0  0  0  0  0  0  0  0
  -24.2678  -23.7161   17.1455 C   0  0  0  0  0  0  0  0  0  0  0  0
  -24.2405  -11.5666   22.2520 C   0  0  0  0  0  0  0  0  0  0  0  0
  -24.4922  -11.9016   19.7357 C   0  0  0  0  0  0  0  0  0  0  0  0
  -17.9221  -28.5542   23.1271 C   0  0  0  0  0  0  0  0  0  0  0  0
  -25.6421  -29.1365   21.1348 C   0  0  0  0  0  0  0  0  0  0  0  0
  -19.1215  -29.2862   23.2418 C   0  0  0  0  0  0  0  0  0  0  0  0
  -25.0194  -28.4966   20.0536 C   0  0  0  0  0  0  0  0  0  0  0  0
  -22.9278  -10.6571   24.5394 C   0  0  0  0  0  0  0  0  0  0  0  0
  -26.8748  -26.9308   19.9278 C   0  0  0  0  0  0  0  0  0  0  0  0
  -23.0120  -10.1601   26.8346 C   0  0  0  0  0  0  0  0  0  0  0  0
  -24.4731  -10.0560   29.2088 C   0  0  0  0  0  0  0  0  0  0  0  0
  -23.1819   -8.9439   27.4963 C   0  0  0  0  0  0  0  0  0  0  0  0
  -24.9189  -12.0356   21.0705 C   0  0  0  0  0  0  0  0  0  0  0  0
  -26.0940  -23.3351   18.3842 C   0  0  0  0  0  0  0  0  0  0  0  0
  -25.4789  -12.5080   18.9973 C   0  0  0  0  0  0  0  0  0  0  0  0
  -23.3097  -11.2842   19.2102 C   0  0  0  0  0  0  0  0  0  0  0  0
  -22.7511  -29.4265   22.4239 C   0  0  0  0  0  0  0  0  0  0  0  0
  -22.0707  -30.8919   19.6110 C   0  0  0  0  0  0  0  0  0  0  0  0
  -22.8258  -30.3731   16.1213 C   0  0  0  0  0  0  0  0  0  0  0  0
  -29.4936  -16.7633   20.2724 C   0  0  0  0  0  0  0  0  0  0  0  0
  -17.9132  -27.1063   22.7042 C   0  0  0  0  0  0  0  0  0  0  0  0
  -25.0086  -30.3416   21.7742 C   0  0  0  0  0  0  0  0  0  0  0  0
  -23.6921  -28.9613   19.5145 C   0  0  0  0  0  0  0  0  0  0  0  0
  -19.2630  -26.4226   22.8963 C   0  0  0  0  0  0  0  0  0  0  0  0
  -30.1640  -13.4740   19.0860 C   0  0  0  0  0  0  0  0  0  0  0  0
  -20.3683  -27.2751   22.2912 C   0  0  0  0  0  0  0  0  0  0  0  0
  -28.8572  -12.7202   19.3396 C   0  0  0  0  0  0  0  0  0  0  0  0
  -28.1285  -19.4271   18.9346 C   0  0  0  0  0  0  0  0  0  0  0  0
  -27.3650  -19.5973   21.3321 C   0  0  0  0  0  0  0  0  0  0  0  0
  -30.4578  -14.4828   20.1941 C   0  0  0  0  0  0  0  0  0  0  0  0
  -28.0591  -14.6813   20.7239 C   0  0  0  0  0  0  0  0  0  0  0  0
  -28.0939  -20.9457   18.8225 C   0  0  0  0  0  0  0  0  0  0  0  0
  -27.3329  -21.1150   21.2074 C   0  0  0  0  0  0  0  0  0  0  0  0
  -20.4690  -28.6276   23.0077 C   0  0  1  0  0  0  0  0  0  0  0  0
  -23.4990  -30.4055   21.5637 C   0  0  1  0  0  0  0  0  0  0  0  0
  -27.6917  -13.6921   19.6045 C   0  0  2  0  0  0  0  0  0  0  0  0
  -28.3810  -18.9759   20.3736 C   0  0  0  0  0  0  0  0  0  0  0  0
  -22.9692  -32.0076   14.2226 C   0  0  0  0  0  0  0  0  0  0  0  0
  -22.9849  -21.8701   19.2910 C   0  0  0  0  0  0  0  0  0  0  0  0
  -23.0537  -24.3149   19.9426 C   0  0  0  0  0  0  0  0  0  0  0  0
  -19.1561  -30.1343   19.1203 C   0  0  0  0  0  0  0  0  0  0  0  0
  -19.6135  -30.2470   16.6613 C   0  0  0  0  0  0  0  0  0  0  0  0
  -19.8646  -32.2905   18.0699 C   0  0  0  0  0  0  0  0  0  0  0  0
  -25.5754  -29.5169   15.4391 C   0  0  0  0  0  0  0  0  0  0  0  0
  -28.3026  -23.6089   19.6485 C   0  0  0  0  0  0  0  0  0  0  0  0
  -28.3037  -25.0448   20.1675 C   0  0  0  0  0  0  0  0  0  1  0  0
  -26.8989  -22.9845   19.6164 C   0  0  2  0  0  0  0  0  0  0  0  0
  -21.5721  -30.4358   18.2611 C   0  0  1  0  0  0  0  0  0  0  0  0
  -23.7498  -31.2119   15.2570 C   0  0  2  0  0  0  0  0  0  0  0  0
  -23.8743  -23.0923   19.5276 C   0  0  0  0  0  0  0  0  0  0  0  0
  -20.0668  -30.7597   18.0449 C   0  0  0  0  0  0  0  0  0  0  0  0
  -26.0858  -12.6767   21.1770 N   0  0  0  0  0  0  0  0  0  0  0  0
  -24.7241  -23.3713   18.3910 N   0  0  0  0  0  0  0  0  0  0  0  0
  -26.4008  -12.9509   19.8996 N   0  0  0  0  0  0  0  0  0  0  0  0
  -23.1099  -30.1400   20.1773 N   0  0  0  0  0  0  0  0  0  0  0  0
  -29.3137  -15.3755   20.3941 N   0  0  0  0  0  0  0  0  0  0  0  0
  -25.6392  -12.7003   17.6708 N   0  0  0  0  0  0  0  0  0  0  0  0
  -22.4008  -10.7088   20.1086 N   0  0  0  0  0  0  0  0  0  0  0  0
  -21.3782  -29.4826   22.2768 N   0  0  0  0  0  0  0  0  0  0  0  0
  -22.4607  -31.0377   17.2730 N   0  0  0  0  0  0  0  0  0  0  0  0
  -28.3567  -17.5370   20.4713 N   0  0  0  0  0  0  0  0  0  0  0  0
  -27.0583  -21.4971   19.7729 N   0  3  0  0  0  0  0  0  0  0  0  0
  -24.7237  -30.3395   14.5419 N   0  3  0  0  0  0  0  0  0  0  0  0
  -23.0743  -11.2296   17.9793 O   0  0  0  0  0  0  0  0  0  0  0  0
  -23.3735  -28.6748   23.1649 O   0  0  0  0  0  0  0  0  0  0  0  0
  -21.5620  -31.8832   20.1403 O   0  0  0  0  0  0  0  0  0  0  0  0
  -22.4611  -29.2430   15.8046 O   0  0  0  0  0  0  0  0  0  0  0  0
  -30.5853  -17.2746   20.0009 O   0  0  0  0  0  0  0  0  0  0  0  0
  -22.2877  -10.2132   25.6556 O   0  0  0  0  0  0  0  0  0  0  0  0
  -27.4689  -25.8558   19.3418 O   0  0  0  0  0  0  0  0  0  1  0  0
  -25.1759  -10.0060   30.3480 F   0  0  0  0  0  0  0  0  0  0  0  0
  -22.6466   -7.8220   26.9957 F   0  0  0  0  0  0  0  0  0  0  0  0
  1  2  1  0  0  0  0
  1  6  2  0  0  0  0
  2  7  2  0  0  0  0
  3 14  1  0  0  0  0
  3 17  2  0  0  0  0
  4  9  2  0  0  0  0
  4 18  1  0  0  0  0
  5 10  1  0  0  0  0
  5 18  2  0  0  0  0
  6 20  1  0  0  0  0
  7 22  1  0  0  0  0
  8 11  2  0  0  0  0
  8 21  1  0  0  0  0
  9 24  1  0  0  0  0
 10 24  2  0  0  0  0
 11 25  1  0  0  0  0
 12 13  2  0  0  0  0
 12 26  1  0  0  0  0
 13 27  1  0  0  0  0
 14 30  2  0  0  0  0
 15 23  1  0  0  0  0
 15 25  2  0  0  0  0
 16 27  2  0  0  0  0
 16 28  1  0  0  0  0
 17 69  1  0  0  0  0
 18 29  1  0  0  0  0
 19 29  1  0  0  0  0
 19 31  2  0  0  0  0
 19 32  1  0  0  0  0
 20 22  2  0  0  0  0
 20 37  1  0  0  0  0
 21 23  2  0  0  0  0
 21 38  1  0  0  0  0
 22 50  1  0  0  0  0
 23 39  1  0  0  0  0
 24 85  1  0  0  0  0
 25 86  1  0  0  0  0
 26 28  2  0  0  0  0
 26 85  1  0  0  0  0
 27 87  1  0  0  0  0
 28 88  1  0  0  0  0
 29 68  2  0  0  0  0
 30 63  1  0  0  0  0
 30 69  1  0  0  0  0
 31 70  1  0  0  0  0
 31 73  1  0  0  0  0
 32 74  1  0  0  0  0
 32 80  2  0  0  0  0
 33 51  1  0  0  0  0
 33 75  1  0  0  0  0
 33 81  2  0  0  0  0
 34 64  1  0  0  0  0
 34 71  1  0  0  0  0
 34 82  2  0  0  0  0
 35 65  1  0  0  0  0
 35 76  1  0  0  0  0
 35 83  2  0  0  0  0
 36 72  1  0  0  0  0
 36 77  1  0  0  0  0
 36 84  2  0  0  0  0
 37 40  1  0  0  0  0
 38 51  1  0  0  0  0
 39 71  1  0  0  0  0
 40 42  1  0  0  0  0
 41 43  1  0  0  0  0
 41 46  1  0  0  0  0
 42 50  1  0  0  0  0
 43 52  1  0  0  0  0
 44 48  1  0  0  0  0
 44 53  1  0  0  0  0
 45 49  1  0  0  0  0
 45 53  1  0  0  0  0
 46 72  1  0  0  0  0
 47 52  1  0  0  0  0
 47 72  1  0  0  0  0
 48 78  1  0  0  0  0
 49 78  1  0  0  0  0
 50 75  1  0  0  0  0
 51 71  1  0  0  0  0
 52 70  1  0  0  0  0
 53 77  1  0  0  0  0
 54 65  1  0  0  0  0
 55 66  1  0  0  0  0
 56 66  1  0  0  0  0
 57 67  1  0  0  0  0
 58 67  1  0  0  0  0
 59 67  1  0  0  0  0
 60 79  1  0  0  0  0
 61 62  1  0  0  0  0
 61 63  1  0  0  0  0
 62 86  1  0  0  0  0
 63 78  1  0  0  0  0
 64 67  1  0  0  0  0
 64 76  1  0  0  0  0
 65 79  1  0  0  0  0
 66 69  1  0  0  0  0
 68 70  1  0  0  0  0
M  CHG  2  78   1  79   1
M  ISO  4  36 100  62 101  77 100  86 101
M  END
> <Batch ID>
0138

> <Smiles>
CNC(C)C(=O)NC(C(=O)N1Cc2cc([101O:1][101CH2:1]CC(c3cccn3C(C)C)N3CCC([100NH:0][100C:0](=O)N4CCCC(n5nc(-c6ccc(Oc7ccc(F)cc7F)cc6)c(C(N)=O)c5N)C4)CC3)ccc2CC1C(=O)NC1CCCc2ccccc21)C(C)(C)C

> <Shape>
0.262

> <Color>
0.136

> <Negative vol penalty>
0.000

$$$$

  -OEChem-04052321083D

 86 95  0     1  0  0  0  0  0999 V2000
  -20.8500  -32.9508   14.0603 C   0  0  0  0  0  0  0  0  0  0  0  0
  -21.7093  -31.9126   14.4053 C   0  0  0  0  0  0  0  0  0  0  0  0
  -24.6402   -8.4805   21.2124 C   0  0  0  0  0  0  0  0  0  0  0  0
  -22.9771  -10.0307   20.3952 C   0  0  0  0  0  0  0  0  0  0  0  0
  -21.0111  -34.2090   14.6391 C   0  0  0  0  0  0  0  0  0  0  0  0
  -22.7311  -32.1323   15.3285 C   0  0  0  0  0  0  0  0  0  0  0  0
  -30.7157  -21.6541   20.9484 C   0  0  0  0  0  0  0  0  0  0  0  0
  -28.3641  -21.2523   20.5664 C   0  0  0  0  0  0  0  0  0  0  0  0
  -24.8954  -28.1452   19.4425 C   0  0  0  0  0  0  0  0  0  0  0  0
  -23.6375   -7.7254   21.8206 C   0  0  0  0  0  0  0  0  0  0  0  0
  -21.9744   -9.2756   21.0034 C   0  0  0  0  0  0  0  0  0  0  0  0
  -30.4313  -22.9692   21.3160 C   0  0  0  0  0  0  0  0  0  0  0  0
  -28.0797  -22.5674   20.9341 C   0  0  0  0  0  0  0  0  0  0  0  0
  -26.0124  -27.3109   19.4425 C   0  0  0  0  0  0  0  0  0  0  0  0
  -21.3217   -5.4461   20.8855 C   0  0  0  0  0  0  0  0  0  0  0  0
  -21.3712   -4.0605   20.7335 C   0  0  0  0  0  0  0  0  0  0  0  0
  -27.2485  -28.9757   20.6753 C   0  0  0  0  0  0  0  0  0  0  0  0
  -21.5293   -3.8032   23.1306 C   0  0  0  0  0  0  0  0  0  0  0  0
  -24.3100   -9.6332   20.4997 C   0  0  0  0  0  0  0  0  0  0  0  0
  -25.8483  -10.2651   18.5652 C   0  0  0  0  0  0  0  0  0  0  0  0
  -29.6821  -20.7956   20.5735 C   0  0  0  0  0  0  0  0  0  0  0  0
  -22.0293  -34.4416   15.5771 C   0  0  0  0  0  0  0  0  0  0  0  0
  -24.9501  -29.4077   20.0504 C   0  0  0  0  0  0  0  0  0  0  0  0
  -22.9068  -33.3951   15.9193 C   0  0  0  0  0  0  0  0  0  0  0  0
  -26.1301  -29.8231   20.6838 C   0  0  0  0  0  0  0  0  0  0  0  0
  -22.3046   -8.1229   21.7161 C   0  0  0  0  0  0  0  0  0  0  0  0
  -29.1133  -23.4259   21.3089 C   0  0  0  0  0  0  0  0  0  0  0  0
  -27.1900  -27.7272   20.0565 C   0  0  0  0  0  0  0  0  0  0  0  0
  -21.3760   -6.0104   22.1600 C   0  0  0  0  0  0  0  0  0  0  0  0
  -21.4750   -3.2390   21.8560 C   0  0  0  0  0  0  0  0  0  0  0  0
  -21.4797   -5.1889   23.2825 C   0  0  0  0  0  0  0  0  0  0  0  0
  -25.3454  -10.4140   19.8716 C   0  0  0  0  0  0  0  0  0  0  0  0
  -26.8099  -11.2395   18.4543 C   0  0  0  0  0  0  0  0  0  0  0  0
  -25.4791   -9.3296   17.5433 C   0  0  0  0  0  0  0  0  0  0  0  0
  -24.6284  -32.4024   19.0344 C   0  0  0  0  0  0  0  0  0  0  0  0
  -24.8306  -33.0856   22.1990 C   0  0  0  0  0  0  0  0  0  0  0  0
  -25.8902  -32.1458   25.3039 C   0  0  0  0  0  0  0  0  0  0  0  0
  -28.3224  -16.4723   19.1272 C   0  0  0  0  0  0  0  0  0  0  0  0
  -22.1937  -35.8310   16.1405 C   0  0  0  0  0  0  0  0  0  0  0  0
  -23.7283  -30.2849   20.0649 C   0  0  0  0  0  0  0  0  0  0  0  0
  -26.2342  -31.1608   21.3681 C   0  0  0  0  0  0  0  0  0  0  0  0
  -23.0677  -35.8817   17.3910 C   0  0  0  0  0  0  0  0  0  0  0  0
  -28.9428  -14.1968   21.9275 C   0  0  0  0  0  0  0  0  0  0  0  0
  -24.3394  -35.0643   17.1871 C   0  0  0  0  0  0  0  0  0  0  0  0
  -28.0438  -13.0217   21.5575 C   0  0  0  0  0  0  0  0  0  0  0  0
  -28.3556  -15.5395   21.4912 C   0  0  0  0  0  0  0  0  0  0  0  0
  -29.2492  -18.1500   20.8612 C   0  0  0  0  0  0  0  0  0  0  0  0
  -27.0869  -14.4029   19.6816 C   0  0  0  0  0  0  0  0  0  0  0  0
  -30.0057  -19.2979   20.1547 C   0  0  1  0  0  0  0  0  0  0  0  0
  -24.0116  -33.5876   16.9354 C   0  0  1  0  0  0  0  0  0  0  0  0
  -24.0551  -31.7614   20.2665 C   0  0  1  0  0  0  0  0  0  0  0  0
  -27.7097  -13.0517   20.0586 C   0  0  2  0  0  0  0  0  0  0  0  0
  -29.4337  -18.7477   18.8219 C   0  0  1  0  0  0  0  0  0  0  0  0
  -25.9442  -32.9285   27.6876 C   0  0  0  0  0  0  0  0  0  0  0  0
  -31.1132  -19.8312   17.3023 C   0  0  0  0  0  0  0  0  0  0  0  0
  -31.4837  -17.4839   18.1124 C   0  0  0  0  0  0  0  0  0  0  0  0
  -27.0830  -35.0247   21.5086 C   0  0  0  0  0  0  0  0  0  0  0  0
  -27.7150  -35.0439   23.9311 C   0  0  0  0  0  0  0  0  0  0  0  0
  -25.4694  -35.8679   23.2232 C   0  0  0  0  0  0  0  0  0  0  0  0
  -24.2981  -29.8265   26.2233 C   0  0  0  0  0  0  0  0  0  0  0  0
  -29.8405  -25.6878   21.4115 C   0  0  0  0  0  0  0  0  0  0  0  0
  -29.1747  -27.0277   21.1644 C   0  0  0  0  0  0  0  0  0  1  0  0
  -25.9569  -33.3880   23.1576 C   0  0  1  0  0  0  0  0  0  0  0  0
  -25.1816  -32.1242   26.6463 C   0  0  2  0  0  0  0  0  0  0  0  0
  -30.4326  -18.5201   17.7053 C   0  0  0  0  0  0  0  0  0  0  0  0
  -26.5550  -34.8067   22.9406 C   0  0  0  0  0  0  0  0  0  0  0  0
  -25.9387  -11.4049   20.5426 N   0  0  0  0  0  0  0  0  0  0  0  0
  -26.8242  -11.8874   19.6543 N   0  0  0  0  0  0  0  0  0  0  0  0
  -25.0144  -31.9851   21.3499 N   0  0  0  0  0  0  0  0  0  0  0  0
  -27.9389  -15.5261   20.0848 N   0  0  0  0  0  0  0  0  0  0  0  0
  -29.1308  -17.5119   19.5524 N   0  0  0  0  0  0  0  0  0  0  0  0
  -27.6362  -11.5967   17.4482 N   0  0  0  0  0  0  0  0  0  0  0  0
  -24.4721   -8.3961   17.8242 N   0  0  0  0  0  0  0  0  0  0  0  0
  -23.6781  -32.9250   18.1781 N   0  0  0  0  0  0  0  0  0  0  0  0
  -25.4246  -33.1624   24.4970 N   0  0  0  0  0  0  0  0  0  0  0  0
  -25.0483  -30.7240   27.1391 N   0  3  0  0  0  0  0  0  0  0  0  0
  -26.0375   -9.3111   16.4202 O   0  0  0  0  0  0  0  0  0  0  0  0
  -25.8430  -32.4227   18.8733 O   0  0  0  0  0  0  0  0  0  0  0  0
  -23.8217  -33.7953   22.2082 O   0  0  0  0  0  0  0  0  0  0  0  0
  -26.7713  -31.3436   25.0028 O   0  0  0  0  0  0  0  0  0  0  0  0
  -27.9399  -16.4120   17.9523 O   0  0  0  0  0  0  0  0  0  0  0  0
  -21.3259   -7.3862   22.3093 O   0  0  0  0  0  0  0  0  0  0  0  0
  -28.8353  -24.7085   21.6691 O   0  0  0  0  0  0  0  0  0  0  0  0
  -28.2894  -26.9094   20.0574 O   0  0  0  0  0  0  0  0  0  1  0  0
  -21.5210   -1.9083   21.7100 F   0  0  0  0  0  0  0  0  0  0  0  0
  -21.5311   -5.7251   24.5096 F   0  0  0  0  0  0  0  0  0  0  0  0
  1  2  1  0  0  0  0
  1  5  2  0  0  0  0
  2  6  2  0  0  0  0
  3 10  2  0  0  0  0
  3 19  1  0  0  0  0
  4 11  1  0  0  0  0
  4 19  2  0  0  0  0
  5 22  1  0  0  0  0
  6 24  1  0  0  0  0
  7 12  2  0  0  0  0
  7 21  1  0  0  0  0
  8 13  1  0  0  0  0
  8 21  2  0  0  0  0
  9 14  2  0  0  0  0
  9 23  1  0  0  0  0
 10 26  1  0  0  0  0
 11 26  2  0  0  0  0
 12 27  1  0  0  0  0
 13 27  2  0  0  0  0
 14 28  1  0  0  0  0
 15 16  2  0  0  0  0
 15 29  1  0  0  0  0
 16 30  1  0  0  0  0
 17 25  1  0  0  0  0
 17 28  2  0  0  0  0
 18 30  2  0  0  0  0
 18 31  1  0  0  0  0
 19 32  1  0  0  0  0
 20 32  1  0  0  0  0
 20 33  2  0  0  0  0
 20 34  1  0  0  0  0
 21 49  1  0  0  0  0
 22 24  2  0  0  0  0
 22 39  1  0  0  0  0
 23 25  2  0  0  0  0
 23 40  1  0  0  0  0
 24 50  1  0  0  0  0
 25 41  1  0  0  0  0
 26 82  1  0  0  0  0
 27 83  1  0  0  0  0
 28 84  1  0  0  0  0
 29 31  2  0  0  0  0
 29 82  1  0  0  0  0
 30 85  1  0  0  0  0
 31 86  1  0  0  0  0
 32 67  2  0  0  0  0
 33 68  1  0  0  0  0
 33 72  1  0  0  0  0
 34 73  1  0  0  0  0
 34 77  2  0  0  0  0
 35 51  1  0  0  0  0
 35 74  1  0  0  0  0
 35 78  2  0  0  0  0
 36 63  1  0  0  0  0
 36 69  1  0  0  0  0
 36 79  2  0  0  0  0
 37 64  1  0  0  0  0
 37 75  1  0  0  0  0
 37 80  2  0  0  0  0
 38 70  1  0  0  0  0
 38 71  1  0  0  0  0
 38 81  2  0  0  0  0
 39 42  1  0  0  0  0
 40 51  1  0  0  0  0
 41 69  1  0  0  0  0
 42 44  1  0  0  0  0
 43 45  1  0  0  0  0
 43 46  1  0  0  0  0
 44 50  1  0  0  0  0
 45 52  1  0  0  0  0
 46 70  1  0  0  0  0
 47 49  1  0  0  0  0
 47 71  1  0  0  0  0
 48 52  1  0  0  0  0
 48 70  1  0  0  0  0
 49 53  1  0  0  0  0
 50 74  1  0  0  0  0
 51 69  1  0  0  0  0
 52 68  1  0  0  0  0
 53 65  1  0  0  0  0
 53 71  1  0  0  0  0
 54 64  1  0  0  0  0
 55 65  1  0  0  0  0
 56 65  1  0  0  0  0
 57 66  1  0  0  0  0
 58 66  1  0  0  0  0
 59 66  1  0  0  0  0
 60 76  1  0  0  0  0
 61 62  1  0  0  0  0
 61 83  1  0  0  0  0
 62 84  1  0  0  0  0
 63 66  1  0  0  0  0
 63 75  1  0  0  0  0
 64 76  1  0  0  0  0
 67 68  1  0  0  0  0
M  CHG  1  76   1
M  ISO  4  38 100  62 101  71 100  84 101
M  END
> <Batch ID>
0138

> <Smiles>
CNC(C)C(=O)NC(C(=O)N1Cc2cc([101O:1][101CH2:1]COc3ccc(C4C[100N:0]([100C:0](=O)N5CCCC(n6nc(-c7ccc(Oc8ccc(F)cc8F)cc7)c(C(N)=O)c6N)C5)C4C(C)C)cc3)ccc2CC1C(=O)NC1CCCc2ccccc21)C(C)(C)C

> <Shape>
0.315

> <Color>
0.101

> <Negative vol penalty>
0.000

$$$$

  -OEChem-04052321083D

 81 90  0     1  0  0  0  0  0999 V2000
  -27.6087   -9.8387   22.0544 C   0  0  0  0  0  0  0  0  0  0  0  0
  -28.3417  -11.0211   22.0671 C   0  0  0  0  0  0  0  0  0  0  0  0
  -20.1230  -28.7074   23.2666 C   0  0  0  0  0  0  0  0  0  0  0  0
  -20.0527  -26.5705   22.1415 C   0  0  0  0  0  0  0  0  0  0  0  0
  -26.3203   -9.8242   21.5219 C   0  0  0  0  0  0  0  0  0  0  0  0
  -27.7870  -12.1895   21.5462 C   0  0  0  0  0  0  0  0  0  0  0  0
  -28.6588  -17.9015   23.5756 C   0  0  0  0  0  0  0  0  0  0  0  0
  -18.7323  -28.7898   23.1970 C   0  0  0  0  0  0  0  0  0  0  0  0
  -18.6620  -26.6529   22.0720 C   0  0  0  0  0  0  0  0  0  0  0  0
  -29.4982  -18.9302   23.1502 C   0  0  0  0  0  0  0  0  0  0  0  0
  -16.0327  -26.1565   24.1362 C   0  0  0  0  0  0  0  0  0  0  0  0
  -15.3000  -25.0175   24.4700 C   0  0  0  0  0  0  0  0  0  0  0  0
  -27.6898  -19.8613   21.8532 C   0  0  0  0  0  0  0  0  0  0  0  0
  -29.1523  -23.3511   20.0972 C   0  0  0  0  0  0  0  0  0  0  0  0
  -14.3343  -24.9897   22.2556 C   0  0  0  0  0  0  0  0  0  0  0  0
  -31.6406  -24.3682   19.6325 C   0  0  0  0  0  0  0  0  0  0  0  0
  -20.7832  -27.5978   22.7388 C   0  0  0  0  0  0  0  0  0  0  0  0
  -22.9874  -26.9427   23.8433 C   0  0  0  0  0  0  0  0  0  0  0  0
  -25.7458  -10.9953   21.0030 C   0  0  0  0  0  0  0  0  0  0  0  0
  -27.3295  -17.8388   23.1336 C   0  0  0  0  0  0  0  0  0  0  0  0
  -26.4901  -12.1904   21.0050 C   0  0  0  0  0  0  0  0  0  0  0  0
  -26.8349  -18.8322   22.2765 C   0  0  0  0  0  0  0  0  0  0  0  0
  -30.2516  -22.4891   20.1403 C   0  0  0  0  0  0  0  0  0  0  0  0
  -31.5335  -23.0105   19.9154 C   0  0  0  0  0  0  0  0  0  0  0  0
  -18.0018  -27.7626   22.5997 C   0  0  0  0  0  0  0  0  0  0  0  0
  -29.0146  -19.9087   22.2866 C   0  0  0  0  0  0  0  0  0  0  0  0
  -15.9161  -26.7122   22.8621 C   0  0  0  0  0  0  0  0  0  0  0  0
  -14.4508  -24.4341   23.5298 C   0  0  0  0  0  0  0  0  0  0  0  0
  -15.0669  -26.1287   21.9218 C   0  0  0  0  0  0  0  0  0  0  0  0
  -22.2198  -27.5123   22.8098 C   0  0  0  0  0  0  0  0  0  0  0  0
  -29.3750  -24.6896   19.8152 C   0  0  0  0  0  0  0  0  0  0  0  0
  -24.2887  -27.1124   23.4379 C   0  0  0  0  0  0  0  0  0  0  0  0
  -22.5622  -26.3162   25.0608 C   0  0  0  0  0  0  0  0  0  0  0  0
  -25.6228  -15.7550   21.4457 C   0  0  0  0  0  0  0  0  0  0  0  0
  -23.1710  -17.7369   22.2093 C   0  0  0  0  0  0  0  0  0  0  0  0
  -22.1487  -20.8620   23.1233 C   0  0  0  0  0  0  0  0  0  0  0  0
  -28.2328  -26.9145   19.5127 C   0  0  0  0  0  0  0  0  0  0  0  0
  -24.3677  -10.9200   20.3949 C   0  0  0  0  0  0  0  0  0  0  0  0
  -26.4292  -16.7376   23.6229 C   0  0  0  0  0  0  0  0  0  0  0  0
  -25.4099  -18.8215   21.7891 C   0  0  0  0  0  0  0  0  0  0  0  0
  -32.7453  -22.1306   19.9239 C   0  0  0  0  0  0  0  0  0  0  0  0
  -23.7110  -12.2847   20.2036 C   0  0  0  0  0  0  0  0  0  0  0  0
  -26.2282  -29.8538   19.6504 C   0  0  0  0  0  0  0  0  0  0  0  0
  -24.6926  -13.2654   19.5700 C   0  0  0  0  0  0  0  0  0  0  0  0
  -25.0698  -29.4598   20.5697 C   0  0  0  0  0  0  0  0  0  0  0  0
  -26.6670  -28.6917   18.7612 C   0  0  0  0  0  0  0  0  0  0  0  0
  -25.8206  -27.0530   20.3945 C   0  0  0  0  0  0  0  0  0  0  0  0
  -31.2377  -20.1489   20.0624 C   0  0  0  0  0  0  0  0  0  0  0  0
  -25.9135  -13.4840   20.4717 C   0  0  1  0  0  0  0  0  0  0  0  0
  -30.0546  -21.0285   20.4651 C   0  0  1  0  0  0  0  0  0  1  0  0
  -25.2395  -16.4848   22.7020 C   0  0  1  0  0  0  0  0  0  0  0  0
  -25.3865  -28.1721   21.3552 C   0  0  2  0  0  0  0  0  0  0  0  0
  -20.0798  -22.1863   23.6366 C   0  0  0  0  0  0  0  0  0  0  0  0
  -22.5360  -17.8955   19.2291 C   0  0  0  0  0  0  0  0  0  0  0  0
  -21.1300  -19.9112   19.7069 C   0  0  0  0  0  0  0  0  0  0  0  0
  -20.5324  -17.7086   20.7141 C   0  0  0  0  0  0  0  0  0  0  0  0
  -23.0514  -21.4205   25.8859 C   0  0  0  0  0  0  0  0  0  0  0  0
  -22.5504  -18.9612   21.5807 C   0  0  1  0  0  0  0  0  0  0  0  0
  -21.2006  -21.3338   24.2110 C   0  0  2  0  0  0  0  0  0  0  0  0
  -21.7146  -18.6185   20.3152 C   0  0  0  0  0  0  0  0  0  0  0  0
  -30.5934  -25.2211   19.5792 N   0  0  0  0  0  0  0  0  0  0  0  0
  -22.9708  -28.0070   21.8222 N   0  0  0  0  0  0  0  0  0  0  0  0
  -24.2239  -27.7488   22.2334 N   0  0  0  0  0  0  0  0  0  0  0  0
  -24.5706  -17.7208   22.2906 N   0  0  0  0  0  0  0  0  0  0  0  0
  -26.9543  -27.5080   19.5743 N   0  0  0  0  0  0  0  0  0  0  0  0
  -25.4706  -26.7778   23.9979 N   0  0  0  0  0  0  0  0  0  0  0  0
  -21.1880  -26.2253   25.3209 N   0  0  0  0  0  0  0  0  0  0  0  0
  -28.2460  -25.5449   19.7747 N   0  0  0  0  0  0  0  0  0  0  0  0
  -25.5839  -14.3785   21.5606 N   0  0  0  0  0  0  0  0  0  0  0  0
  -21.7916  -19.6222   22.6369 N   0  0  0  0  0  0  0  0  0  0  0  0
  -32.5013  -20.7889   20.5439 N   0  3  0  0  0  0  0  0  0  0  0  0
  -21.9355  -22.1436   25.2234 N   0  3  0  0  0  0  0  0  0  0  0  0
  -23.3772  -25.8654   25.9011 O   0  0  0  0  0  0  0  0  0  0  0  0
  -25.9296  -16.3935   20.4458 O   0  0  0  0  0  0  0  0  0  0  0  0
  -22.4405  -16.8316   22.6197 O   0  0  0  0  0  0  0  0  0  0  0  0
  -23.1078  -21.5285   22.7407 O   0  0  0  0  0  0  0  0  0  0  0  0
  -29.2453  -27.5777   19.2738 O   0  0  0  0  0  0  0  0  0  0  0  0
  -16.6448  -27.8425   22.5319 O   0  0  0  0  0  0  0  0  0  0  0  0
  -29.8320  -20.9135   21.8693 O   0  0  0  0  0  0  0  0  0  1  0  0
  -13.7485  -23.3394   23.8500 F   0  0  0  0  0  0  0  0  0  0  0  0
  -14.9517  -26.6573   20.6958 F   0  0  0  0  0  0  0  0  0  0  0  0
  1  2  1  0  0  0  0
  1  5  2  0  0  0  0
  2  6  2  0  0  0  0
  3  8  2  0  0  0  0
  3 17  1  0  0  0  0
  4  9  1  0  0  0  0
  4 17  2  0  0  0  0
  5 19  1  0  0  0  0
  6 21  1  0  0  0  0
  7 10  2  0  0  0  0
  7 20  1  0  0  0  0
  8 25  1  0  0  0  0
  9 25  2  0  0  0  0
 10 26  1  0  0  0  0
 11 12  2  0  0  0  0
 11 27  1  0  0  0  0
 12 28  1  0  0  0  0
 13 22  1  0  0  0  0
 13 26  2  0  0  0  0
 14 23  1  0  0  0  0
 14 31  2  0  0  0  0
 15 28  2  0  0  0  0
 15 29  1  0  0  0  0
 16 24  1  0  0  0  0
 16 61  2  0  0  0  0
 17 30  1  0  0  0  0
 18 30  1  0  0  0  0
 18 32  2  0  0  0  0
 18 33  1  0  0  0  0
 19 21  2  0  0  0  0
 19 38  1  0  0  0  0
 20 22  2  0  0  0  0
 20 39  1  0  0  0  0
 21 49  1  0  0  0  0
 22 40  1  0  0  0  0
 23 24  2  0  0  0  0
 23 50  1  0  0  0  0
 24 41  1  0  0  0  0
 25 78  1  0  0  0  0
 26 79  1  0  0  0  0
 27 29  2  0  0  0  0
 27 78  1  0  0  0  0
 28 80  1  0  0  0  0
 29 81  1  0  0  0  0
 30 62  2  0  0  0  0
 31 61  1  0  0  0  0
 31 68  1  0  0  0  0
 32 63  1  0  0  0  0
 32 66  1  0  0  0  0
 33 67  1  0  0  0  0
 33 73  2  0  0  0  0
 34 51  1  0  0  0  0
 34 69  1  0  0  0  0
 34 74  2  0  0  0  0
 35 58  1  0  0  0  0
 35 64  1  0  0  0  0
 35 75  2  0  0  0  0
 36 59  1  0  0  0  0
 36 70  1  0  0  0  0
 36 76  2  0  0  0  0
 37 65  1  0  0  0  0
 37 68  1  0  0  0  0
 37 77  2  0  0  0  0
 38 42  1  0  0  0  0
 39 51  1  0  0  0  0
 40 64  1  0  0  0  0
 41 71  1  0  0  0  0
 42 44  1  0  0  0  0
 43 45  1  0  0  0  0
 43 46  1  0  0  0  0
 44 49  1  0  0  0  0
 45 52  1  0  0  0  0
 46 65  1  0  0  0  0
 47 52  1  0  0  0  0
 47 65  1  0  0  0  0
 48 50  1  0  0  0  0
 48 71  1  0  0  0  0
 49 69  1  0  0  0  0
 50 79  1  0  0  0  0
 51 64  1  0  0  0  0
 52 63  1  0  0  0  0
 53 59  1  0  0  0  0
 54 60  1  0  0  0  0
 55 60  1  0  0  0  0
 56 60  1  0  0  0  0
 57 72  1  0  0  0  0
 58 60  1  0  0  0  0
 58 70  1  0  0  0  0
 59 72  1  0  0  0  0
 62 63  1  0  0  0  0
M  CHG  2  71   1  72   1
M  ISO  4  37 100  50 101  68 100  79 101
M  END
> <Batch ID>
0138

> <Smiles>
CNC(C)C(=O)NC(C(=O)N1Cc2cc([101O:1][101CH:1]3CNCc4cnc([100NH:0][100C:0](=O)N5CCCC(n6nc(-c7ccc(Oc8ccc(F)cc8F)cc7)c(C(N)=O)c6N)C5)cc43)ccc2CC1C(=O)NC1CCCc2ccccc21)C(C)(C)C

> <Shape>
0.180

> <Color>
0.077

> <Negative vol penalty>
0.000

$$$$

  -OEChem-04052321083D

 89 97  0     1  0  0  0  0  0999 V2000
  -22.0190  -32.5720   24.1632 C   0  0  0  0  0  0  0  0  0  0  0  0
  -23.1801  -31.8814   23.8309 C   0  0  0  0  0  0  0  0  0  0  0  0
  -22.9951   -9.8987   19.9847 C   0  0  0  0  0  0  0  0  0  0  0  0
  -23.7196   -9.9498   22.2890 C   0  0  0  0  0  0  0  0  0  0  0  0
  -21.1506  -32.0523   25.1223 C   0  0  0  0  0  0  0  0  0  0  0  0
  -23.4740  -30.6713   24.4583 C   0  0  0  0  0  0  0  0  0  0  0  0
  -26.2672  -25.8200   21.9746 C   0  0  0  0  0  0  0  0  0  0  0  0
  -32.0676  -16.5225   22.5525 C   0  0  0  0  0  0  0  0  0  0  0  0
  -22.2260   -8.7661   20.2516 C   0  0  0  0  0  0  0  0  0  0  0  0
  -22.9504   -8.8172   22.5560 C   0  0  0  0  0  0  0  0  0  0  0  0
  -27.5868  -25.3724   22.0201 C   0  0  0  0  0  0  0  0  0  0  0  0
  -32.6762  -17.4120   23.4379 C   0  0  0  0  0  0  0  0  0  0  0  0
  -21.4615   -5.7284   23.7611 C   0  0  0  0  0  0  0  0  0  0  0  0
  -22.0450   -4.7119   24.5173 C   0  0  0  0  0  0  0  0  0  0  0  0
  -27.0141  -23.8864   23.8319 C   0  0  0  0  0  0  0  0  0  0  0  0
  -30.5150  -18.3391   23.9921 C   0  0  0  0  0  0  0  0  0  0  0  0
  -23.7714   -4.4596   22.8461 C   0  0  0  0  0  0  0  0  0  0  0  0
  -23.7420  -10.4905   21.0034 C   0  0  0  0  0  0  0  0  0  0  0  0
  -24.1330  -13.0051   20.8256 C   0  0  0  0  0  0  0  0  0  0  0  0
  -21.4291  -30.8304   25.7547 C   0  0  0  0  0  0  0  0  0  0  0  0
  -25.3119  -25.3112   22.8663 C   0  0  0  0  0  0  0  0  0  0  0  0
  -22.6092  -30.1355   25.4276 C   0  0  0  0  0  0  0  0  0  0  0  0
  -25.6824  -24.3273   23.7941 C   0  0  0  0  0  0  0  0  0  0  0  0
  -29.9064  -17.4496   23.1066 C   0  0  0  0  0  0  0  0  0  0  0  0
  -30.6827  -16.5414   22.3867 C   0  0  0  0  0  0  0  0  0  0  0  0
  -22.2036   -8.2254   21.5372 C   0  0  0  0  0  0  0  0  0  0  0  0
  -27.9611  -24.4076   22.9507 C   0  0  0  0  0  0  0  0  0  0  0  0
  -31.8999  -18.3202   24.1577 C   0  0  0  0  0  0  0  0  0  0  0  0
  -22.0330   -6.1105   22.5473 C   0  0  0  0  0  0  0  0  0  0  0  0
  -23.2000   -4.0775   24.0599 C   0  0  0  0  0  0  0  0  0  0  0  0
  -23.1879   -5.4761   22.0899 C   0  0  0  0  0  0  0  0  0  0  0  0
  -24.5372  -11.6601   20.7282 C   0  0  0  0  0  0  0  0  0  0  0  0
  -25.2445  -13.7249   20.4611 C   0  0  0  0  0  0  0  0  0  0  0  0
  -22.8661  -13.5546   21.2112 C   0  0  0  0  0  0  0  0  0  0  0  0
  -23.4901  -26.5575   25.1534 C   0  0  0  0  0  0  0  0  0  0  0  0
  -22.2155  -23.5754   25.2236 C   0  0  0  0  0  0  0  0  0  0  0  0
  -22.5991  -20.2450   24.5852 C   0  0  0  0  0  0  0  0  0  0  0  0
  -30.7260  -14.6740   20.6964 C   0  0  0  0  0  0  0  0  0  0  0  0
  -20.4842  -30.3320   26.8193 C   0  0  0  0  0  0  0  0  0  0  0  0
  -23.8866  -25.7849   22.7866 C   0  0  0  0  0  0  0  0  0  0  0  0
  -24.6904  -23.7343   24.7598 C   0  0  0  0  0  0  0  0  0  0  0  0
  -20.6802  -28.8585   27.1664 C   0  0  0  0  0  0  0  0  0  0  0  0
  -29.6031  -12.2218   18.3719 C   0  0  0  0  0  0  0  0  0  0  0  0
  -22.1613  -28.5474   27.3572 C   0  0  0  0  0  0  0  0  0  0  0  0
  -28.1518  -11.9677   18.7857 C   0  0  0  0  0  0  0  0  0  0  0  0
  -30.5037  -12.4641   19.5818 C   0  0  0  0  0  0  0  0  0  0  0  0
  -28.5896  -13.2583   20.9140 C   0  0  0  0  0  0  0  0  0  0  0  0
  -22.9502  -28.8075   26.0682 C   0  0  1  0  0  0  0  0  0  0  0  0
  -23.1127  -25.5718   24.0840 C   0  0  1  0  0  0  0  0  0  0  0  0
  -27.6320  -13.0732   19.7256 C   0  0  2  0  0  0  0  0  0  0  0  0
  -21.3988  -18.0501   24.7835 C   0  0  0  0  0  0  0  0  0  0  0  0
  -31.2082  -25.0318   22.0797 C   0  0  0  0  0  0  0  0  0  0  0  0
  -22.7806  -23.5401   28.2219 C   0  0  0  0  0  0  0  0  0  0  0  0
  -22.4628  -21.0570   28.1818 C   0  0  0  0  0  0  0  0  0  0  0  0
  -20.5736  -22.5646   27.5647 C   0  0  0  0  0  0  0  0  0  0  0  0
  -27.9702  -20.3141   20.3957 C   0  0  0  0  0  0  0  0  0  0  0  0
  -22.6710  -19.8090   21.6588 C   0  0  0  0  0  0  0  0  0  0  0  0
  -28.4211  -17.4927   22.9493 C   0  0  0  0  0  0  0  0  0  0  0  0
  -32.9102  -21.4907   25.5665 C   0  0  0  0  0  0  0  0  0  0  0  0
  -27.9497  -18.1582   21.6569 C   0  0  0  0  0  0  0  0  0  0  0  0
  -32.2863  -22.8610   25.7689 C   0  0  0  0  0  0  0  0  0  0  0  0
  -30.9376  -24.5992   24.5864 C   0  0  0  0  0  0  0  0  0  0  0  0
  -31.8576  -20.4477   25.2197 C   0  0  0  0  0  0  0  0  0  0  0  0
  -22.5195  -22.3002   25.9723 C   0  0  1  0  0  0  0  0  0  0  0  0
  -21.6971  -19.2425   23.8880 C   0  0  2  0  0  0  0  0  0  0  0  0
  -30.2567  -24.9432   23.2657 C   0  0  2  0  0  0  0  0  0  1  0  0
  -22.1035  -22.3778   27.4684 C   0  0  0  0  0  0  0  0  0  0  0  0
  -25.8063  -11.5305   20.3326 N   0  0  0  0  0  0  0  0  0  0  0  0
  -26.2092  -12.8033   20.1781 N   0  0  0  0  0  0  0  0  0  0  0  0
  -23.3104  -24.2346   24.6469 N   0  0  0  0  0  0  0  0  0  0  0  0
  -29.9507  -13.5270   20.4241 N   0  0  0  0  0  0  0  0  0  0  0  0
  -25.4809  -15.0500   20.3581 N   0  0  0  0  0  0  0  0  0  0  0  0
  -21.8322  -12.6731   21.5550 N   0  0  0  0  0  0  0  0  0  0  0  0
  -30.0835  -15.6312   21.4810 N   0  0  0  0  0  0  0  0  0  0  0  0
  -22.7523  -27.7256   25.1276 N   0  0  0  0  0  0  0  0  0  0  0  0
  -21.8727  -21.2255   25.2272 N   0  0  0  0  0  0  0  0  0  0  0  0
  -28.3747  -19.5795   21.6252 N   0  3  0  0  0  0  0  0  0  0  0  0
  -22.3433  -18.7438   22.6412 N   0  3  0  0  0  0  0  0  0  0  0  0
  -31.6393  -23.2943   24.5007 N   0  3  0  0  0  0  0  0  0  0  0  0
  -22.6521  -14.7904   21.2340 O   0  0  0  0  0  0  0  0  0  0  0  0
  -24.3834  -26.2783   25.9445 O   0  0  0  0  0  0  0  0  0  0  0  0
  -21.0487  -23.9683   25.1471 O   0  0  0  0  0  0  0  0  0  0  0  0
  -23.8253  -20.1640   24.5656 O   0  0  0  0  0  0  0  0  0  0  0  0
  -31.8651  -14.8100   20.2427 O   0  0  0  0  0  0  0  0  0  0  0  0
  -21.4529   -7.1204   21.7981 O   0  0  0  0  0  0  0  0  0  0  0  0
  -32.4981  -19.1939   25.0284 O   0  0  0  0  0  0  0  0  0  0  0  0
  -29.2486  -23.9694   22.9977 O   0  0  0  0  0  0  0  0  0  1  0  0
  -23.7610   -3.1024   24.7869 F   0  0  0  0  0  0  0  0  0  0  0  0
  -23.7421   -5.8396   20.9252 F   0  0  0  0  0  0  0  0  0  0  0  0
  1  2  1  0  0  0  0
  1  5  2  0  0  0  0
  2  6  2  0  0  0  0
  3  9  2  0  0  0  0
  3 18  1  0  0  0  0
  4 10  1  0  0  0  0
  4 18  2  0  0  0  0
  5 20  1  0  0  0  0
  6 22  1  0  0  0  0
  7 11  2  0  0  0  0
  7 21  1  0  0  0  0
  8 12  2  0  0  0  0
  8 25  1  0  0  0  0
  9 26  1  0  0  0  0
 10 26  2  0  0  0  0
 11 27  1  0  0  0  0
 12 28  1  0  0  0  0
 13 14  2  0  0  0  0
 13 29  1  0  0  0  0
 14 30  1  0  0  0  0
 15 23  1  0  0  0  0
 15 27  2  0  0  0  0
 16 24  1  0  0  0  0
 16 28  2  0  0  0  0
 17 30  2  0  0  0  0
 17 31  1  0  0  0  0
 18 32  1  0  0  0  0
 19 32  1  0  0  0  0
 19 33  2  0  0  0  0
 19 34  1  0  0  0  0
 20 22  2  0  0  0  0
 20 39  1  0  0  0  0
 21 23  2  0  0  0  0
 21 40  1  0  0  0  0
 22 48  1  0  0  0  0
 23 41  1  0  0  0  0
 24 25  2  0  0  0  0
 24 58  1  0  0  0  0
 25 74  1  0  0  0  0
 26 85  1  0  0  0  0
 27 87  1  0  0  0  0
 28 86  1  0  0  0  0
 29 31  2  0  0  0  0
 29 85  1  0  0  0  0
 30 88  1  0  0  0  0
 31 89  1  0  0  0  0
 32 68  2  0  0  0  0
 33 69  1  0  0  0  0
 33 72  1  0  0  0  0
 34 73  1  0  0  0  0
 34 80  2  0  0  0  0
 35 49  1  0  0  0  0
 35 75  1  0  0  0  0
 35 81  2  0  0  0  0
 36 64  1  0  0  0  0
 36 70  1  0  0  0  0
 36 82  2  0  0  0  0
 37 65  1  0  0  0  0
 37 76  1  0  0  0  0
 37 83  2  0  0  0  0
 38 71  1  0  0  0  0
 38 74  1  0  0  0  0
 38 84  2  0  0  0  0
 39 42  1  0  0  0  0
 40 49  1  0  0  0  0
 41 70  1  0  0  0  0
 42 44  1  0  0  0  0
 43 45  1  0  0  0  0
 43 46  1  0  0  0  0
 44 48  1  0  0  0  0
 45 50  1  0  0  0  0
 46 71  1  0  0  0  0
 47 50  1  0  0  0  0
 47 71  1  0  0  0  0
 48 75  1  0  0  0  0
 49 70  1  0  0  0  0
 50 69  1  0  0  0  0
 51 65  1  0  0  0  0
 52 66  1  0  0  0  0
 53 67  1  0  0  0  0
 54 67  1  0  0  0  0
 55 67  1  0  0  0  0
 56 77  1  0  0  0  0
 57 78  1  0  0  0  0
 58 60  1  0  0  0  0
 59 61  1  0  0  0  0
 59 63  1  0  0  0  0
 60 77  1  0  0  0  0
 61 79  1  0  0  0  0
 62 66  1  0  0  0  0
 62 79  1  0  0  0  0
 63 86  1  0  0  0  0
 64 67  1  0  0  0  0
 64 76  1  0  0  0  0
 65 78  1  0  0  0  0
 66 87  1  0  0  0  0
 68 69  1  0  0  0  0
M  CHG  3  77   1  78   1  79   1
M  ISO  4  38 100  66 101  74 100  87 101
M  END
> <Batch ID>
0138

> <Smiles>
CNCCc1cc(OCCCNC[101CH:1](C)[101O:1]c2ccc3c(c2)CN(C(=O)C(NC(=O)C(C)NC)C(C)(C)C)C(C(=O)NC2CCCc4ccccc42)C3)ccc1[100NH:0][100C:0](=O)N1CCCC(n2nc(-c3ccc(Oc4ccc(F)cc4F)cc3)c(C(N)=O)c2N)C1

> <Shape>
0.195

> <Color>
0.186

> <Negative vol penalty>
0.000

$$$$

  -OEChem-04052321083D

 86 94  0     1  0  0  0  0  0999 V2000
  -17.2625  -30.1746   24.2113 C   0  0  0  0  0  0  0  0  0  0  0  0
  -18.0602  -29.4689   25.1064 C   0  0  0  0  0  0  0  0  0  0  0  0
  -32.4960  -19.1984   24.8948 C   0  0  0  0  0  0  0  0  0  0  0  0
  -24.9147  -13.7292   21.7679 C   0  0  0  0  0  0  0  0  0  0  0  0
  -26.5731  -13.5591   20.0193 C   0  0  0  0  0  0  0  0  0  0  0  0
  -17.3617  -29.9235   22.8434 C   0  0  0  0  0  0  0  0  0  0  0  0
  -18.9567  -28.5110   24.6342 C   0  0  0  0  0  0  0  0  0  0  0  0
  -25.3737  -25.6757   26.0836 C   0  0  0  0  0  0  0  0  0  0  0  0
  -24.2179  -12.6566   21.2115 C   0  0  0  0  0  0  0  0  0  0  0  0
  -25.8763  -12.4865   19.4628 C   0  0  0  0  0  0  0  0  0  0  0  0
  -25.9858  -24.4378   26.2753 C   0  0  0  0  0  0  0  0  0  0  0  0
  -24.4662   -9.2849   21.1558 C   0  0  0  0  0  0  0  0  0  0  0  0
  -24.0063   -8.2920   22.0207 C   0  0  0  0  0  0  0  0  0  0  0  0
  -31.3076  -19.6751   25.5010 C   0  0  0  0  0  0  0  0  0  0  0  0
  -26.1280  -24.1447   23.8851 C   0  0  0  0  0  0  0  0  0  0  0  0
  -21.7361   -8.7358   21.3232 C   0  0  0  0  0  0  0  0  0  0  0  0
  -32.8516  -20.1032   23.9190 C   0  0  0  0  0  0  0  0  0  0  0  0
  -26.0923  -14.1805   21.1718 C   0  0  0  0  0  0  0  0  0  0  0  0
  -27.8300  -15.2301   22.7165 C   0  0  0  0  0  0  0  0  0  0  0  0
  -18.2669  -28.9689   22.3535 C   0  0  0  0  0  0  0  0  0  0  0  0
  -25.1238  -26.1533   24.7891 C   0  0  0  0  0  0  0  0  0  0  0  0
  -19.0672  -28.2460   23.2586 C   0  0  0  0  0  0  0  0  0  0  0  0
  -25.5149  -25.3901   23.6797 C   0  0  0  0  0  0  0  0  0  0  0  0
  -24.6987  -12.0352   20.0589 C   0  0  0  0  0  0  0  0  0  0  0  0
  -26.3604  -23.6708   25.1760 C   0  0  0  0  0  0  0  0  0  0  0  0
  -23.5610  -10.0034   20.3746 C   0  0  0  0  0  0  0  0  0  0  0  0
  -22.6413   -8.0174   22.1044 C   0  0  0  0  0  0  0  0  0  0  0  0
  -22.1960   -9.7288   20.4583 C   0  0  0  0  0  0  0  0  0  0  0  0
  -26.8122  -15.2888   21.7458 C   0  0  0  0  0  0  0  0  0  0  0  0
  -30.9730  -20.8567   24.8771 C   0  0  0  0  0  0  0  0  0  0  0  0
  -28.1835  -16.5411   22.9231 C   0  0  0  0  0  0  0  0  0  0  0  0
  -28.4046  -14.0922   23.3728 C   0  0  0  0  0  0  0  0  0  0  0  0
  -22.5127  -26.9163   23.1448 C   0  0  0  0  0  0  0  0  0  0  0  0
  -24.6682  -27.9183   20.9375 C   0  0  0  0  0  0  0  0  0  0  0  0
  -27.8240  -27.6911   19.6583 C   0  0  0  0  0  0  0  0  0  0  0  0
  -29.4099  -21.6186   20.9583 C   0  0  0  0  0  0  0  0  0  0  0  0
  -18.3047  -28.6987   20.8702 C   0  0  0  0  0  0  0  0  0  0  0  0
  -24.4868  -27.5026   24.5991 C   0  0  0  0  0  0  0  0  0  0  0  0
  -25.2873  -25.8669   22.2692 C   0  0  0  0  0  0  0  0  0  0  0  0
  -19.5474  -27.9336   20.4220 C   0  0  0  0  0  0  0  0  0  0  0  0
  -25.9674  -20.8270   21.4046 C   0  0  0  0  0  0  0  0  0  0  0  0
  -19.8070  -26.7485   21.3466 C   0  0  0  0  0  0  0  0  0  0  0  0
  -25.9639  -19.3108   21.6068 C   0  0  0  0  0  0  0  0  0  0  0  0
  -27.0254  -21.2589   20.3916 C   0  0  0  0  0  0  0  0  0  0  0  0
  -28.3869  -19.2640   20.8819 C   0  0  0  0  0  0  0  0  0  0  0  0
  -20.0694  -27.2167   22.7831 C   0  0  1  0  0  0  0  0  0  0  0  0
  -23.8150  -27.6599   23.2385 C   0  0  1  0  0  0  0  0  0  0  0  0
  -27.3743  -18.7858   21.9365 C   0  0  2  0  0  0  0  0  0  0  0  0
  -31.0476  -26.8508   25.5480 C   0  0  0  0  0  0  0  0  0  0  0  0
  -29.2792  -28.6063   17.8301 C   0  0  0  0  0  0  0  0  0  0  0  0
  -23.2183  -26.1616   18.9073 C   0  0  0  0  0  0  0  0  0  0  0  0
  -25.2166  -26.3607   17.4121 C   0  0  0  0  0  0  0  0  0  0  0  0
  -23.9210  -28.3986   18.0376 C   0  0  0  0  0  0  0  0  0  0  0  0
  -29.7527  -28.8186   21.5993 C   0  0  0  0  0  0  0  0  0  0  0  0
  -29.8092  -21.7837   25.1218 C   0  0  0  0  0  0  0  0  0  0  0  0
  -28.8736  -21.3161   26.2388 C   0  0  0  0  0  0  0  0  0  0  0  0
  -33.2179  -23.1092   23.2089 C   0  0  0  0  0  0  0  0  0  0  0  0
  -31.8103  -21.8187   21.5560 C   0  0  0  0  0  0  0  0  0  0  0  0
  -32.1749  -25.8504   25.6814 C   0  0  0  0  0  0  0  0  0  0  0  0
  -33.2696  -23.9532   24.4811 C   0  0  0  0  0  0  0  0  0  0  0  0
  -27.7493  -22.3012   26.5366 C   0  0  0  0  0  0  0  0  0  1  0  0
  -25.3805  -27.2773   19.7710 C   0  0  1  0  0  0  0  0  0  0  0  0
  -28.8354  -28.7569   19.2769 C   0  0  2  0  0  0  0  0  0  0  0  0
  -31.9441  -22.2490   23.0299 C   0  0  1  0  0  0  0  0  0  0  0  0
  -24.4368  -27.0395   18.5584 C   0  0  0  0  0  0  0  0  0  0  0  0
  -26.5368  -16.5383   21.3624 N   0  0  0  0  0  0  0  0  0  0  0  0
  -31.9184  -21.1070   23.9170 N   0  0  0  0  0  0  0  0  0  0  0  0
  -27.3867  -17.2768   22.0961 N   0  0  0  0  0  0  0  0  0  0  0  0
  -24.6554  -27.1899   22.1354 N   0  0  0  0  0  0  0  0  0  0  0  0
  -28.3399  -20.7298   20.7629 N   0  0  0  0  0  0  0  0  0  0  0  0
  -29.0950  -17.1249   23.7298 N   0  0  0  0  0  0  0  0  0  0  0  0
  -27.9246  -12.8175   23.0425 N   0  0  0  0  0  0  0  0  0  0  0  0
  -21.4180  -27.7262   22.9103 N   0  0  0  0  0  0  0  0  0  0  0  0
  -26.5288  -28.1278   19.4766 N   0  0  0  0  0  0  0  0  0  0  0  0
  -30.6195  -21.0349   21.3145 N   0  0  0  0  0  0  0  0  0  0  0  0
  -30.0397  -28.6642   20.1499 N   0  3  0  0  0  0  0  0  0  0  0  0
  -32.1681  -24.9435   24.5002 N   0  3  0  0  0  0  0  0  0  0  0  0
  -29.3054  -14.2036   24.2387 O   0  0  0  0  0  0  0  0  0  0  0  0
  -22.5021  -25.6978   23.2740 O   0  0  0  0  0  0  0  0  0  0  0  0
  -24.1486  -29.0278   20.7932 O   0  0  0  0  0  0  0  0  0  0  0  0
  -28.1503  -26.5808   20.0723 O   0  0  0  0  0  0  0  0  0  0  0  0
  -29.2943  -22.8422   20.8303 O   0  0  0  0  0  0  0  0  0  0  0  0
  -24.0192  -10.9884   19.5158 O   0  0  0  0  0  0  0  0  0  0  0  0
  -26.9575  -22.4619   25.3603 O   0  0  0  0  0  0  0  0  0  1  0  0
  -22.2000   -7.0627   22.9339 F   0  0  0  0  0  0  0  0  0  0  0  0
  -21.3218  -10.4149   19.7095 F   0  0  0  0  0  0  0  0  0  0  0  0
  1  2  1  0  0  0  0
  1  6  2  0  0  0  0
  2  7  2  0  0  0  0
  3 14  1  0  0  0  0
  3 17  2  0  0  0  0
  4  9  2  0  0  0  0
  4 18  1  0  0  0  0
  5 10  1  0  0  0  0
  5 18  2  0  0  0  0
  6 20  1  0  0  0  0
  7 22  1  0  0  0  0
  8 11  2  0  0  0  0
  8 21  1  0  0  0  0
  9 24  1  0  0  0  0
 10 24  2  0  0  0  0
 11 25  1  0  0  0  0
 12 13  2  0  0  0  0
 12 26  1  0  0  0  0
 13 27  1  0  0  0  0
 14 30  2  0  0  0  0
 15 23  1  0  0  0  0
 15 25  2  0  0  0  0
 16 27  2  0  0  0  0
 16 28  1  0  0  0  0
 17 67  1  0  0  0  0
 18 29  1  0  0  0  0
 19 29  1  0  0  0  0
 19 31  2  0  0  0  0
 19 32  1  0  0  0  0
 20 22  2  0  0  0  0
 20 37  1  0  0  0  0
 21 23  2  0  0  0  0
 21 38  1  0  0  0  0
 22 46  1  0  0  0  0
 23 39  1  0  0  0  0
 24 83  1  0  0  0  0
 25 84  1  0  0  0  0
 26 28  2  0  0  0  0
 26 83  1  0  0  0  0
 27 85  1  0  0  0  0
 28 86  1  0  0  0  0
 29 66  2  0  0  0  0
 30 55  1  0  0  0  0
 30 67  1  0  0  0  0
 31 68  1  0  0  0  0
 31 71  1  0  0  0  0
 32 72  1  0  0  0  0
 32 78  2  0  0  0  0
 33 47  1  0  0  0  0
 33 73  1  0  0  0  0
 33 79  2  0  0  0  0
 34 62  1  0  0  0  0
 34 69  1  0  0  0  0
 34 80  2  0  0  0  0
 35 63  1  0  0  0  0
 35 74  1  0  0  0  0
 35 81  2  0  0  0  0
 36 70  1  0  0  0  0
 36 75  1  0  0  0  0
 36 82  2  0  0  0  0
 37 40  1  0  0  0  0
 38 47  1  0  0  0  0
 39 69  1  0  0  0  0
 40 42  1  0  0  0  0
 41 43  1  0  0  0  0
 41 44  1  0  0  0  0
 42 46  1  0  0  0  0
 43 48  1  0  0  0  0
 44 70  1  0  0  0  0
 45 48  1  0  0  0  0
 45 70  1  0  0  0  0
 46 73  1  0  0  0  0
 47 69  1  0  0  0  0
 48 68  1  0  0  0  0
 49 59  1  0  0  0  0
 50 63  1  0  0  0  0
 51 65  1  0  0  0  0
 52 65  1  0  0  0  0
 53 65  1  0  0  0  0
 54 76  1  0  0  0  0
 55 56  1  0  0  0  0
 56 61  1  0  0  0  0
 57 60  1  0  0  0  0
 57 64  1  0  0  0  0
 58 64  1  0  0  0  0
 58 75  1  0  0  0  0
 59 77  1  0  0  0  0
 60 77  1  0  0  0  0
 61 84  1  0  0  0  0
 62 65  1  0  0  0  0
 62 74  1  0  0  0  0
 63 76  1  0  0  0  0
 64 67  1  0  0  0  0
 66 68  1  0  0  0  0
M  CHG  2  76   1  77   1
M  ISO  4  36 100  61 101  75 100  84 101
M  END
> <Batch ID>
0138

> <Smiles>
CCNCCC(C[100NH:0][100C:0](=O)N1CCCC(n2nc(-c3ccc(Oc4ccc(F)cc4F)cc3)c(C(N)=O)c2N)C1)n1cccc1CC[101CH2:1][101O:1]c1ccc2c(c1)CN(C(=O)C(NC(=O)C(C)NC)C(C)(C)C)C(C(=O)NC1CCCc3ccccc31)C2

> <Shape>
0.212

> <Color>
0.078

> <Negative vol penalty>
0.000

$$$$

  -OEChem-04052321083D

 79 87  0     1  0  0  0  0  0999 V2000
  -14.7966  -27.7488   22.0626 C   0  0  0  0  0  0  0  0  0  0  0  0
  -15.5522  -27.7831   20.8950 C   0  0  0  0  0  0  0  0  0  0  0  0
  -26.4764  -13.4297   19.2418 C   0  0  0  0  0  0  0  0  0  0  0  0
  -26.6142  -12.8873   21.5921 C   0  0  0  0  0  0  0  0  0  0  0  0
  -15.3039  -28.3045   23.2364 C   0  0  0  0  0  0  0  0  0  0  0  0
  -16.8151  -28.3741   20.9002 C   0  0  0  0  0  0  0  0  0  0  0  0
  -22.6768  -24.6138   19.0585 C   0  0  0  0  0  0  0  0  0  0  0  0
  -25.1583  -12.9742   19.2139 C   0  0  0  0  0  0  0  0  0  0  0  0
  -25.2961  -12.4318   21.5643 C   0  0  0  0  0  0  0  0  0  0  0  0
  -23.8178  -24.0212   18.5169 C   0  0  0  0  0  0  0  0  0  0  0  0
  -23.6385   -9.6607   20.5624 C   0  0  0  0  0  0  0  0  0  0  0  0
  -23.3576   -8.4503   21.1960 C   0  0  0  0  0  0  0  0  0  0  0  0
  -25.1092  -25.9949   19.0505 C   0  0  0  0  0  0  0  0  0  0  0  0
  -21.8047   -9.5787   22.6631 C   0  0  0  0  0  0  0  0  0  0  0  0
  -27.2044  -13.3862   20.4309 C   0  0  0  0  0  0  0  0  0  0  0  0
  -29.6506  -13.3668   19.7075 C   0  0  0  0  0  0  0  0  0  0  0  0
  -16.5777  -28.8941   23.2583 C   0  0  0  0  0  0  0  0  0  0  0  0
  -22.7513  -25.8947   19.6127 C   0  0  0  0  0  0  0  0  0  0  0  0
  -17.3394  -28.9394   22.0751 C   0  0  0  0  0  0  0  0  0  0  0  0
  -23.9725  -26.5886   19.6057 C   0  0  0  0  0  0  0  0  0  0  0  0
  -24.5681  -12.4753   20.3752 C   0  0  0  0  0  0  0  0  0  0  0  0
  -25.0308  -24.7102   18.5127 C   0  0  0  0  0  0  0  0  0  0  0  0
  -23.0025  -10.8302   20.9791 C   0  0  0  0  0  0  0  0  0  0  0  0
  -22.4407   -8.4093   22.2464 C   0  0  0  0  0  0  0  0  0  0  0  0
  -22.0856  -10.7892   22.0294 C   0  0  0  0  0  0  0  0  0  0  0  0
  -28.5662  -13.8560   20.4601 C   0  0  0  0  0  0  0  0  0  0  0  0
  -30.7158  -14.1418   20.0964 C   0  0  0  0  0  0  0  0  0  0  0  0
  -29.6914  -12.3067   18.7431 C   0  0  0  0  0  0  0  0  0  0  0  0
  -20.9517  -28.6998   21.3356 C   0  0  0  0  0  0  0  0  0  0  0  0
  -23.7087  -28.4635   22.6597 C   0  0  0  0  0  0  0  0  0  0  0  0
  -26.3601  -28.4902   24.8060 C   0  0  0  0  0  0  0  0  0  0  0  0
  -31.1229  -19.6562   22.3933 C   0  0  0  0  0  0  0  0  0  0  0  0
  -17.0641  -29.5238   24.5395 C   0  0  0  0  0  0  0  0  0  0  0  0
  -21.5342  -26.5962   20.1515 C   0  0  0  0  0  0  0  0  0  0  0  0
  -23.9977  -27.9781   20.1816 C   0  0  0  0  0  0  0  0  0  0  0  0
  -18.5658  -29.7978   24.5518 C   0  0  0  0  0  0  0  0  0  0  0  0
  -32.3622  -16.6426   23.8281 C   0  0  0  0  0  0  0  0  0  0  0  0
  -18.9978  -30.4622   23.2484 C   0  0  0  0  0  0  0  0  0  0  0  0
  -30.8213  -22.6970   18.4929 C   0  0  0  0  0  0  0  0  0  0  0  0
  -29.7030  -23.6686   20.5407 C   0  0  0  0  0  0  0  0  0  0  0  0
  -31.6277  -15.5425   23.0597 C   0  0  0  0  0  0  0  0  0  0  0  0
  -30.7162  -21.2964   19.0973 C   0  0  0  0  0  0  0  0  0  0  0  0
  -29.5966  -22.2698   21.1490 C   0  0  0  0  0  0  0  0  0  0  0  0
  -31.4698  -17.8593   24.0628 C   0  0  0  0  0  0  0  0  0  0  0  0
  -30.1140  -17.3155   22.0780 C   0  0  0  0  0  0  0  0  0  0  0  0
  -18.7239  -29.5496   22.0468 C   0  0  1  0  0  0  0  0  0  0  0  0
  -21.8417  -27.4921   21.3647 C   0  0  1  0  0  0  0  0  0  0  0  0
  -29.7387  -23.6575   19.0057 C   0  0  0  0  0  0  0  0  0  0  0  0
  -30.9909  -16.0901   21.7683 C   0  0  2  0  0  0  0  0  0  0  0  0
  -30.6990  -21.3468   20.6266 C   0  0  0  0  0  0  0  0  0  0  0  0
  -27.6299  -30.0079   26.3493 C   0  0  0  0  0  0  0  0  0  0  0  0
  -25.0424  -29.7857   20.2562 C   0  0  0  0  0  0  0  0  0  0  0  0
  -26.8834  -30.5340   21.7790 C   0  0  0  0  0  0  0  0  0  0  0  0
  -24.5509  -31.3326   22.1587 C   0  0  0  0  0  0  0  0  0  0  0  0
  -25.7341  -26.8105   27.1610 C   0  0  0  0  0  0  0  0  0  0  0  0
  -28.3660  -23.3325   18.4103 C   0  0  0  0  0  0  0  0  0  0  0  0
  -27.3998  -24.4994   18.5459 C   0  0  0  0  0  0  0  0  0  1  0  0
  -25.1413  -28.9326   22.6910 C   0  0  1  0  0  0  0  0  0  0  0  0
  -26.4988  -28.9984   26.2298 C   0  0  2  0  0  0  0  0  0  0  0  0
  -25.3979  -30.1186   21.7190 C   0  0  0  0  0  0  0  0  0  0  0  0
  -28.9109  -14.8637   21.2663 N   0  0  0  0  0  0  0  0  0  0  0  0
  -30.2239  -15.0139   21.0224 N   0  0  0  0  0  0  0  0  0  0  0  0
  -23.2151  -28.0201   21.4268 N   0  0  0  0  0  0  0  0  0  0  0  0
  -30.8985  -18.3302   22.7988 N   0  0  0  0  0  0  0  0  0  0  0  0
  -32.0159  -14.1554   19.7331 N   0  0  0  0  0  0  0  0  0  0  0  0
  -29.9689  -11.0075   19.1896 N   0  0  0  0  0  0  0  0  0  0  0  0
  -19.7318  -28.5149   21.9579 N   0  0  0  0  0  0  0  0  0  0  0  0
  -25.4436  -29.2283   24.0873 N   0  0  0  0  0  0  0  0  0  0  0  0
  -30.5514  -20.0191   21.1799 N   0  0  0  0  0  0  0  0  0  0  0  0
  -26.7784  -27.8671   27.1586 N   0  3  0  0  0  0  0  0  0  0  0  0
  -29.5039  -12.5083   17.5192 O   0  0  0  0  0  0  0  0  0  0  0  0
  -21.3424  -29.7253   20.7903 O   0  0  0  0  0  0  0  0  0  0  0  0
  -23.0414  -28.4937   23.6975 O   0  0  0  0  0  0  0  0  0  0  0  0
  -27.0034  -27.5365   24.3736 O   0  0  0  0  0  0  0  0  0  0  0  0
  -31.7881  -20.4558   23.0605 O   0  0  0  0  0  0  0  0  0  0  0  0
  -23.2819  -12.0310   20.3484 O   0  0  0  0  0  0  0  0  0  0  0  0
  -26.1418  -24.1241   17.9865 O   0  0  0  0  0  0  0  0  0  1  0  0
  -22.1698   -7.2466   22.8538 F   0  0  0  0  0  0  0  0  0  0  0  0
  -21.4706  -11.9092   22.4334 F   0  0  0  0  0  0  0  0  0  0  0  0
  1  2  1  0  0  0  0
  1  5  2  0  0  0  0
  2  6  2  0  0  0  0
  3  8  2  0  0  0  0
  3 15  1  0  0  0  0
  4  9  1  0  0  0  0
  4 15  2  0  0  0  0
  5 17  1  0  0  0  0
  6 19  1  0  0  0  0
  7 10  2  0  0  0  0
  7 18  1  0  0  0  0
  8 21  1  0  0  0  0
  9 21  2  0  0  0  0
 10 22  1  0  0  0  0
 11 12  2  0  0  0  0
 11 23  1  0  0  0  0
 12 24  1  0  0  0  0
 13 20  1  0  0  0  0
 13 22  2  0  0  0  0
 14 24  2  0  0  0  0
 14 25  1  0  0  0  0
 15 26  1  0  0  0  0
 16 26  1  0  0  0  0
 16 27  2  0  0  0  0
 16 28  1  0  0  0  0
 17 19  2  0  0  0  0
 17 33  1  0  0  0  0
 18 20  2  0  0  0  0
 18 34  1  0  0  0  0
 19 46  1  0  0  0  0
 20 35  1  0  0  0  0
 21 76  1  0  0  0  0
 22 77  1  0  0  0  0
 23 25  2  0  0  0  0
 23 76  1  0  0  0  0
 24 78  1  0  0  0  0
 25 79  1  0  0  0  0
 26 61  2  0  0  0  0
 27 62  1  0  0  0  0
 27 65  1  0  0  0  0
 28 66  1  0  0  0  0
 28 71  2  0  0  0  0
 29 47  1  0  0  0  0
 29 67  1  0  0  0  0
 29 72  2  0  0  0  0
 30 58  1  0  0  0  0
 30 63  1  0  0  0  0
 30 73  2  0  0  0  0
 31 59  1  0  0  0  0
 31 68  1  0  0  0  0
 31 74  2  0  0  0  0
 32 64  1  0  0  0  0
 32 69  1  0  0  0  0
 32 75  2  0  0  0  0
 33 36  1  0  0  0  0
 34 47  1  0  0  0  0
 35 63  1  0  0  0  0
 36 38  1  0  0  0  0
 37 41  1  0  0  0  0
 37 44  1  0  0  0  0
 38 46  1  0  0  0  0
 39 42  1  0  0  0  0
 39 48  1  0  0  0  0
 40 43  1  0  0  0  0
 40 48  1  0  0  0  0
 41 49  1  0  0  0  0
 42 50  1  0  0  0  0
 43 50  1  0  0  0  0
 44 64  1  0  0  0  0
 45 49  1  0  0  0  0
 45 64  1  0  0  0  0
 46 67  1  0  0  0  0
 47 63  1  0  0  0  0
 48 56  1  0  0  0  0
 49 62  1  0  0  0  0
 50 69  1  0  0  0  0
 51 59  1  0  0  0  0
 52 60  1  0  0  0  0
 53 60  1  0  0  0  0
 54 60  1  0  0  0  0
 55 70  1  0  0  0  0
 56 57  1  0  0  0  0
 57 77  1  0  0  0  0
 58 60  1  0  0  0  0
 58 68  1  0  0  0  0
 59 70  1  0  0  0  0
 61 62  1  0  0  0  0
M  CHG  1  70   1
M  ISO  4  32 100  57 101  69 100  77 101
M  END
> <Batch ID>
0138

> <Smiles>
CNC(C)C(=O)NC(C(=O)N1Cc2cc([101O:1][101CH2:1]CC3CCC([100NH:0][100C:0](=O)N4CCCC(n5nc(-c6ccc(Oc7ccc(F)cc7F)cc6)c(C(N)=O)c5N)C4)CC3)ccc2CC1C(=O)NC1CCCc2ccccc21)C(C)(C)C

> <Shape>
0.296

> <Color>
0.069

> <Negative vol penalty>
0.000

$$$$

  -OEChem-04052321083D

 81 89  0     1  0  0  0  0  0999 V2000
  -24.6184  -19.6919   24.7218 C   0  0  0  0  0  0  0  0  0  0  0  0
  -25.1488  -20.5516   23.7652 C   0  0  0  0  0  0  0  0  0  0  0  0
  -25.5507  -13.8950   20.8095 C   0  0  0  0  0  0  0  0  0  0  0  0
  -25.7040  -13.8286   18.3993 C   0  0  0  0  0  0  0  0  0  0  0  0
  -23.3601  -19.9469   25.2655 C   0  0  0  0  0  0  0  0  0  0  0  0
  -24.4206  -21.6663   23.3509 C   0  0  0  0  0  0  0  0  0  0  0  0
  -27.2583  -25.8523   23.0875 C   0  0  0  0  0  0  0  0  0  0  0  0
  -24.5421  -12.9322   20.7719 C   0  0  0  0  0  0  0  0  0  0  0  0
  -24.6954  -12.8658   18.3616 C   0  0  0  0  0  0  0  0  0  0  0  0
  -28.0881  -25.9901   21.9757 C   0  0  0  0  0  0  0  0  0  0  0  0
  -24.3115   -9.5794   20.4004 C   0  0  0  0  0  0  0  0  0  0  0  0
  -24.3892   -8.5233   21.3083 C   0  0  0  0  0  0  0  0  0  0  0  0
  -26.4729  -27.4669   20.9609 C   0  0  0  0  0  0  0  0  0  0  0  0
  -22.2566   -9.1694   22.2422 C   0  0  0  0  0  0  0  0  0  0  0  0
  -26.1316  -14.3432   19.6232 C   0  0  0  0  0  0  0  0  0  0  0  0
  -28.5598  -15.1140   19.7556 C   0  0  0  0  0  0  0  0  0  0  0  0
  -22.6203  -21.0706   24.8647 C   0  0  0  0  0  0  0  0  0  0  0  0
  -26.0226  -26.5132   23.1398 C   0  0  0  0  0  0  0  0  0  0  0  0
  -23.1506  -21.9358   23.8888 C   0  0  0  0  0  0  0  0  0  0  0  0
  -25.6305  -27.3378   22.0756 C   0  0  0  0  0  0  0  0  0  0  0  0
  -24.1144  -12.4176   19.5480 C   0  0  0  0  0  0  0  0  0  0  0  0
  -27.6942  -26.7952   20.9109 C   0  0  0  0  0  0  0  0  0  0  0  0
  -23.2064  -10.4305   20.4134 C   0  0  0  0  0  0  0  0  0  0  0  0
  -23.3617   -8.3183   22.2292 C   0  0  0  0  0  0  0  0  0  0  0  0
  -22.1790  -10.2255   21.3343 C   0  0  0  0  0  0  0  0  0  0  0  0
  -27.1732  -15.3381   19.6614 C   0  0  0  0  0  0  0  0  0  0  0  0
  -29.1117  -16.3718   19.7552 C   0  0  0  0  0  0  0  0  0  0  0  0
  -29.2842  -13.8793   19.8361 C   0  0  0  0  0  0  0  0  0  0  0  0
  -22.9886  -25.5849   23.3309 C   0  0  0  0  0  0  0  0  0  0  0  0
  -29.6521  -26.0179   17.3096 C   0  0  0  0  0  0  0  0  0  0  0  0
  -22.4398  -28.7683   23.6254 C   0  0  0  0  0  0  0  0  0  0  0  0
  -23.5072  -31.9579   23.0475 C   0  0  0  0  0  0  0  0  0  0  0  0
  -27.2029  -21.5040   17.5479 C   0  0  0  0  0  0  0  0  0  0  0  0
  -21.2443  -21.2789   25.4461 C   0  0  0  0  0  0  0  0  0  0  0  0
  -25.1511  -26.3754   24.3579 C   0  0  0  0  0  0  0  0  0  0  0  0
  -24.3228  -28.0849   22.0915 C   0  0  0  0  0  0  0  0  0  0  0  0
  -20.6976  -22.6873   25.2277 C   0  0  0  0  0  0  0  0  0  0  0  0
  -32.3638  -27.4380   19.0220 C   0  0  0  0  0  0  0  0  0  0  0  0
  -28.1332  -20.8909   20.9912 C   0  0  0  0  0  0  0  0  0  0  0  0
  -20.9095  -23.1239   23.7815 C   0  0  0  0  0  0  0  0  0  0  0  0
  -28.1222  -19.3620   21.0416 C   0  0  0  0  0  0  0  0  0  0  0  0
  -31.9628  -26.0241   18.5675 C   0  0  0  0  0  0  0  0  0  0  0  0
  -31.0319  -27.9483   18.4459 C   0  0  0  0  0  0  0  0  0  0  0  0
  -27.0092  -21.4229   20.1069 C   0  0  0  0  0  0  0  0  0  0  0  0
  -26.9990  -19.3552   18.7660 C   0  0  0  0  0  0  0  0  0  0  0  0
  -22.4019  -23.1690   23.4319 C   0  0  1  0  0  0  0  0  0  0  0  0
  -23.6834  -26.6861   24.0807 C   0  0  1  0  0  0  0  0  0  0  0  0
  -28.1256  -18.7546   19.6262 C   0  0  2  0  0  0  0  0  0  0  0  0
  -30.4734  -26.4932   18.5433 C   0  0  0  0  0  0  0  0  0  0  0  0
  -22.8264  -34.3517   23.3691 C   0  0  0  0  0  0  0  0  0  0  0  0
  -20.4654  -28.5149   21.3130 C   0  0  0  0  0  0  0  0  0  0  0  0
  -20.5471  -31.0046   21.0619 C   0  0  0  0  0  0  0  0  0  0  0  0
  -19.7014  -29.9934   23.1797 C   0  0  0  0  0  0  0  0  0  0  0  0
  -25.8690  -32.5236   24.7390 C   0  0  0  0  0  0  0  0  0  0  0  0
  -29.7390  -26.2199   19.8415 C   0  0  0  0  0  0  0  0  0  1  0  0
  -28.8538  -23.9902   16.1122 C   0  0  0  0  0  0  0  0  0  0  0  0
  -27.3993  -23.7292   16.4677 C   0  0  0  0  0  0  0  0  0  0  0  0
  -22.1746  -29.9010   22.6633 C   0  0  1  0  0  0  0  0  0  0  0  0
  -23.5884  -33.1728   23.9541 C   0  0  2  0  0  0  0  0  0  0  0  0
  -20.7460  -29.8380   22.0530 C   0  0  0  0  0  0  0  0  0  0  0  0
  -26.8632  -16.6361   19.6054 N   0  0  0  0  0  0  0  0  0  0  0  0
  -28.0629  -17.2390   19.6647 N   0  0  0  0  0  0  0  0  0  0  0  0
  -23.5026  -27.9129   23.3020 N   0  0  0  0  0  0  0  0  0  0  0  0
  -27.0805  -20.8197   18.7686 N   0  0  0  0  0  0  0  0  0  0  0  0
  -30.3869  -16.8094   19.8236 N   0  0  0  0  0  0  0  0  0  0  0  0
  -28.5614  -12.6786   19.8239 N   0  0  0  0  0  0  0  0  0  0  0  0
  -23.0125  -24.3630   23.9758 N   0  0  0  0  0  0  0  0  0  0  0  0
  -29.5695  -24.6442   17.1841 N   0  0  0  0  0  0  0  0  0  0  0  0
  -22.4589  -31.1317   23.3933 N   0  0  0  0  0  0  0  0  0  0  0  0
  -27.2667  -22.8891   17.6372 N   0  0  0  0  0  0  0  0  0  0  0  0
  -25.0086  -33.5806   24.1478 N   0  3  0  0  0  0  0  0  0  0  0  0
  -30.5343  -13.8424   19.9330 O   0  0  0  0  0  0  0  0  0  0  0  0
  -22.4679  -25.8262   22.2482 O   0  0  0  0  0  0  0  0  0  0  0  0
  -29.1511  -26.8485   16.5609 O   0  0  0  0  0  0  0  0  0  0  0  0
  -21.7346  -28.6512   24.6307 O   0  0  0  0  0  0  0  0  0  0  0  0
  -24.2928  -31.7633   22.1226 O   0  0  0  0  0  0  0  0  0  0  0  0
  -27.2567  -20.9231   16.4585 O   0  0  0  0  0  0  0  0  0  0  0  0
  -23.1304  -11.4780   19.5109 O   0  0  0  0  0  0  0  0  0  0  0  0
  -28.5019  -26.9309   19.8241 O   0  0  0  0  0  0  0  0  0  1  0  0
  -23.4357   -7.3032   23.1000 F   0  0  0  0  0  0  0  0  0  0  0  0
  -21.1143  -11.0391   21.3508 F   0  0  0  0  0  0  0  0  0  0  0  0
  1  2  1  0  0  0  0
  1  5  2  0  0  0  0
  2  6  2  0  0  0  0
  3  8  2  0  0  0  0
  3 15  1  0  0  0  0
  4  9  1  0  0  0  0
  4 15  2  0  0  0  0
  5 17  1  0  0  0  0
  6 19  1  0  0  0  0
  7 10  2  0  0  0  0
  7 18  1  0  0  0  0
  8 21  1  0  0  0  0
  9 21  2  0  0  0  0
 10 22  1  0  0  0  0
 11 12  2  0  0  0  0
 11 23  1  0  0  0  0
 12 24  1  0  0  0  0
 13 20  1  0  0  0  0
 13 22  2  0  0  0  0
 14 24  2  0  0  0  0
 14 25  1  0  0  0  0
 15 26  1  0  0  0  0
 16 26  1  0  0  0  0
 16 27  2  0  0  0  0
 16 28  1  0  0  0  0
 17 19  2  0  0  0  0
 17 34  1  0  0  0  0
 18 20  2  0  0  0  0
 18 35  1  0  0  0  0
 19 46  1  0  0  0  0
 20 36  1  0  0  0  0
 21 78  1  0  0  0  0
 22 79  1  0  0  0  0
 23 25  2  0  0  0  0
 23 78  1  0  0  0  0
 24 80  1  0  0  0  0
 25 81  1  0  0  0  0
 26 61  2  0  0  0  0
 27 62  1  0  0  0  0
 27 65  1  0  0  0  0
 28 66  1  0  0  0  0
 28 72  2  0  0  0  0
 29 47  1  0  0  0  0
 29 67  1  0  0  0  0
 29 73  2  0  0  0  0
 30 49  1  0  0  0  0
 30 68  1  0  0  0  0
 30 74  2  0  0  0  0
 31 58  1  0  0  0  0
 31 63  1  0  0  0  0
 31 75  2  0  0  0  0
 32 59  1  0  0  0  0
 32 69  1  0  0  0  0
 32 76  2  0  0  0  0
 33 64  1  0  0  0  0
 33 70  1  0  0  0  0
 33 77  2  0  0  0  0
 34 37  1  0  0  0  0
 35 47  1  0  0  0  0
 36 63  1  0  0  0  0
 37 40  1  0  0  0  0
 38 42  1  0  0  0  0
 38 43  1  0  0  0  0
 39 41  1  0  0  0  0
 39 44  1  0  0  0  0
 40 46  1  0  0  0  0
 41 48  1  0  0  0  0
 42 49  1  0  0  0  0
 43 49  1  0  0  0  0
 44 64  1  0  0  0  0
 45 48  1  0  0  0  0
 45 64  1  0  0  0  0
 46 67  1  0  0  0  0
 47 63  1  0  0  0  0
 48 62  1  0  0  0  0
 49 55  1  0  0  0  0
 50 59  1  0  0  0  0
 51 60  1  0  0  0  0
 52 60  1  0  0  0  0
 53 60  1  0  0  0  0
 54 71  1  0  0  0  0
 55 79  1  0  0  0  0
 56 57  1  0  0  0  0
 56 68  1  0  0  0  0
 57 70  1  0  0  0  0
 58 60  1  0  0  0  0
 58 69  1  0  0  0  0
 59 71  1  0  0  0  0
 61 62  1  0  0  0  0
M  CHG  1  71   1
M  ISO  4  33 100  55 101  70 100  79 101
M  END
> <Batch ID>
0138

> <Smiles>
CNC(C)C(=O)NC(C(=O)N1Cc2cc([101O:1][101CH2:1]C3(C(=O)NCC[100NH:0][100C:0](=O)N4CCCC(n5nc(-c6ccc(Oc7ccc(F)cc7F)cc6)c(C(N)=O)c5N)C4)CCC3)ccc2CC1C(=O)NC1CCCc2ccccc21)C(C)(C)C

> <Shape>
0.233

> <Color>
0.063

> <Negative vol penalty>
0.000

$$$$

  -OEChem-04052321083D

 82 90  0     1  0  0  0  0  0999 V2000
  -36.1439  -26.0359   21.8140 C   0  0  0  0  0  0  0  0  0  0  0  0
  -35.0840  -25.1397   21.7192 C   0  0  0  0  0  0  0  0  0  0  0  0
  -25.0068  -19.0097   19.2540 C   0  0  0  0  0  0  0  0  0  0  0  0
  -24.4540  -20.1187   19.8942 C   0  0  0  0  0  0  0  0  0  0  0  0
  -23.0726   -9.8702   19.9440 C   0  0  0  0  0  0  0  0  0  0  0  0
  -23.8348   -9.8793   22.2366 C   0  0  0  0  0  0  0  0  0  0  0  0
  -36.9308  -26.0639   22.9645 C   0  0  0  0  0  0  0  0  0  0  0  0
  -34.8111  -24.2702   22.7746 C   0  0  0  0  0  0  0  0  0  0  0  0
  -29.8709  -24.0220   23.8596 C   0  0  0  0  0  0  0  0  0  0  0  0
  -26.3846  -18.7957   19.2949 C   0  0  0  0  0  0  0  0  0  0  0  0
  -25.2789  -21.0140   20.5752 C   0  0  0  0  0  0  0  0  0  0  0  0
  -22.3288   -8.7174   20.1958 C   0  0  0  0  0  0  0  0  0  0  0  0
  -23.0910   -8.7264   22.4884 C   0  0  0  0  0  0  0  0  0  0  0  0
  -29.0733  -23.2438   23.0217 C   0  0  0  0  0  0  0  0  0  0  0  0
  -19.3820   -7.9224   21.6507 C   0  0  0  0  0  0  0  0  0  0  0  0
  -18.0746   -7.8759   21.1668 C   0  0  0  0  0  0  0  0  0  0  0  0
  -29.1398  -21.4506   24.6340 C   0  0  0  0  0  0  0  0  0  0  0  0
  -18.6328   -5.9315   19.8459 C   0  0  0  0  0  0  0  0  0  0  0  0
  -23.8256  -10.4511   20.9644 C   0  0  0  0  0  0  0  0  0  0  0  0
  -24.1676  -12.9761   20.8416 C   0  0  0  0  0  0  0  0  0  0  0  0
  -36.6615  -25.2009   24.0385 C   0  0  0  0  0  0  0  0  0  0  0  0
  -30.3187  -23.5155   25.0881 C   0  0  0  0  0  0  0  0  0  0  0  0
  -35.5961  -24.2857   23.9401 C   0  0  0  0  0  0  0  0  0  0  0  0
  -29.9408  -22.2254   25.4867 C   0  0  0  0  0  0  0  0  0  0  0  0
  -27.2095  -19.6909   19.9758 C   0  0  0  0  0  0  0  0  0  0  0  0
  -26.6567  -20.8000   20.6160 C   0  0  0  0  0  0  0  0  0  0  0  0
  -22.3380   -8.1455   21.4680 C   0  0  0  0  0  0  0  0  0  0  0  0
  -28.7100  -21.9569   23.4076 C   0  0  0  0  0  0  0  0  0  0  0  0
  -20.3148   -6.9736   21.2322 C   0  0  0  0  0  0  0  0  0  0  0  0
  -17.7000   -6.8804   20.2644 C   0  0  0  0  0  0  0  0  0  0  0  0
  -19.9402   -5.9781   20.3298 C   0  0  0  0  0  0  0  0  0  0  0  0
  -24.5945  -11.6417   20.7047 C   0  0  0  0  0  0  0  0  0  0  0  0
  -25.2594  -13.7252   20.4766 C   0  0  0  0  0  0  0  0  0  0  0  0
  -22.8976  -13.4925   21.2613 C   0  0  0  0  0  0  0  0  0  0  0  0
  -33.1678  -22.9019   26.3570 C   0  0  0  0  0  0  0  0  0  0  0  0
  -31.4164  -22.2774   29.0150 C   0  0  0  0  0  0  0  0  0  0  0  0
  -28.4100  -21.3824   30.3595 C   0  0  0  0  0  0  0  0  0  0  0  0
  -30.7435  -14.7438   20.6585 C   0  0  0  0  0  0  0  0  0  0  0  0
  -37.5691  -25.2352   25.2426 C   0  0  0  0  0  0  0  0  0  0  0  0
  -31.1564  -24.3775   25.9925 C   0  0  0  0  0  0  0  0  0  0  0  0
  -30.3786  -21.6425   26.8047 C   0  0  0  0  0  0  0  0  0  0  0  0
  -36.9821  -24.5391   26.4678 C   0  0  0  0  0  0  0  0  0  0  0  0
  -29.6032  -12.3572   18.2751 C   0  0  0  0  0  0  0  0  0  0  0  0
  -36.3969  -23.1841   26.0827 C   0  0  0  0  0  0  0  0  0  0  0  0
  -28.1662  -12.0640   18.7097 C   0  0  0  0  0  0  0  0  0  0  0  0
  -30.5216  -12.5790   19.4749 C   0  0  0  0  0  0  0  0  0  0  0  0
  -28.6213  -13.3116   20.8627 C   0  0  0  0  0  0  0  0  0  0  0  0
  -35.2532  -23.3438   25.0738 C   0  0  1  0  0  0  0  0  0  0  0  0
  -31.9812  -23.5711   26.9909 C   0  0  1  0  0  0  0  0  0  0  0  0
  -27.6459  -13.1360   19.6862 C   0  0  2  0  0  0  0  0  0  0  0  0
  -27.2965  -20.9166   32.5596 C   0  0  0  0  0  0  0  0  0  0  0  0
  -32.8059  -19.5639   29.1410 C   0  0  0  0  0  0  0  0  0  0  0  0
  -31.0219  -18.8018   30.7235 C   0  0  0  0  0  0  0  0  0  0  0  0
  -32.5207  -20.6936   31.3538 C   0  0  0  0  0  0  0  0  0  0  0  0
  -26.4693  -23.5835   29.9752 C   0  0  0  0  0  0  0  0  0  0  0  0
  -28.6817  -19.4410   20.0072 C   0  0  0  0  0  0  0  0  0  0  0  0
  -27.5239  -21.7770   21.3541 C   0  0  0  0  0  0  0  0  0  1  0  0
  -30.8108  -16.8955   21.8933 C   0  0  0  0  0  0  0  0  0  0  0  0
  -30.5278  -18.0377   20.9354 C   0  0  0  0  0  0  0  0  0  0  0  0
  -30.7454  -21.0534   29.5900 C   0  0  1  0  0  0  0  0  0  0  0  0
  -27.6046  -21.9682   31.5052 C   0  0  2  0  0  0  0  0  0  0  0  0
  -31.7667  -20.0382   30.1763 C   0  0  0  0  0  0  0  0  0  0  0  0
  -25.8590  -11.5453   20.2853 N   0  0  0  0  0  0  0  0  0  0  0  0
  -26.2359  -12.8287   20.1554 N   0  0  0  0  0  0  0  0  0  0  0  0
  -31.2016  -22.5220   27.6512 N   0  0  0  0  0  0  0  0  0  0  0  0
  -29.9720  -13.6084   20.3604 N   0  0  0  0  0  0  0  0  0  0  0  0
  -25.4699  -15.0565   20.4021 N   0  0  0  0  0  0  0  0  0  0  0  0
  -21.8859  -12.5837   21.6005 N   0  0  0  0  0  0  0  0  0  0  0  0
  -34.0451  -23.7756   25.7434 N   0  0  0  0  0  0  0  0  0  0  0  0
  -29.7658  -21.5404   30.5552 N   0  0  0  0  0  0  0  0  0  0  0  0
  -30.1452  -15.6735   21.5002 N   0  0  0  0  0  0  0  0  0  0  0  0
  -26.3153  -22.5213   31.0023 N   0  3  0  0  0  0  0  0  0  0  0  0
  -29.0728  -18.3416   20.9309 N   0  3  0  0  0  0  0  0  0  0  0  0
  -22.6615  -14.7232   21.3177 O   0  0  0  0  0  0  0  0  0  0  0  0
  -33.2799  -21.6833   26.4212 O   0  0  0  0  0  0  0  0  0  0  0  0
  -32.0998  -22.9942   29.7504 O   0  0  0  0  0  0  0  0  0  0  0  0
  -27.8888  -20.8358   29.3899 O   0  0  0  0  0  0  0  0  0  0  0  0
  -31.8790  -14.9187   20.2036 O   0  0  0  0  0  0  0  0  0  0  0  0
  -21.6122   -7.0207   21.7141 O   0  0  0  0  0  0  0  0  0  0  0  0
  -27.9321  -21.1949   22.5914 O   0  0  0  0  0  0  0  0  0  1  0  0
  -16.4440   -6.8349   19.8010 F   0  0  0  0  0  0  0  0  0  0  0  0
  -20.8316   -5.0631   19.9249 F   0  0  0  0  0  0  0  0  0  0  0  0
  1  2  1  0  0  0  0
  1  7  2  0  0  0  0
  2  8  2  0  0  0  0
  3  4  1  0  0  0  0
  3 10  2  0  0  0  0
  4 11  2  0  0  0  0
  5 12  2  0  0  0  0
  5 19  1  0  0  0  0
  6 13  1  0  0  0  0
  6 19  2  0  0  0  0
  7 21  1  0  0  0  0
  8 23  1  0  0  0  0
  9 14  2  0  0  0  0
  9 22  1  0  0  0  0
 10 25  1  0  0  0  0
 11 26  1  0  0  0  0
 12 27  1  0  0  0  0
 13 27  2  0  0  0  0
 14 28  1  0  0  0  0
 15 16  2  0  0  0  0
 15 29  1  0  0  0  0
 16 30  1  0  0  0  0
 17 24  1  0  0  0  0
 17 28  2  0  0  0  0
 18 30  2  0  0  0  0
 18 31  1  0  0  0  0
 19 32  1  0  0  0  0
 20 32  1  0  0  0  0
 20 33  2  0  0  0  0
 20 34  1  0  0  0  0
 21 23  2  0  0  0  0
 21 39  1  0  0  0  0
 22 24  2  0  0  0  0
 22 40  1  0  0  0  0
 23 48  1  0  0  0  0
 24 41  1  0  0  0  0
 25 26  2  0  0  0  0
 25 56  1  0  0  0  0
 26 57  1  0  0  0  0
 27 79  1  0  0  0  0
 28 80  1  0  0  0  0
 29 31  2  0  0  0  0
 29 79  1  0  0  0  0
 30 81  1  0  0  0  0
 31 82  1  0  0  0  0
 32 63  2  0  0  0  0
 33 64  1  0  0  0  0
 33 67  1  0  0  0  0
 34 68  1  0  0  0  0
 34 74  2  0  0  0  0
 35 49  1  0  0  0  0
 35 69  1  0  0  0  0
 35 75  2  0  0  0  0
 36 60  1  0  0  0  0
 36 65  1  0  0  0  0
 36 76  2  0  0  0  0
 37 61  1  0  0  0  0
 37 70  1  0  0  0  0
 37 77  2  0  0  0  0
 38 66  1  0  0  0  0
 38 71  1  0  0  0  0
 38 78  2  0  0  0  0
 39 42  1  0  0  0  0
 40 49  1  0  0  0  0
 41 65  1  0  0  0  0
 42 44  1  0  0  0  0
 43 45  1  0  0  0  0
 43 46  1  0  0  0  0
 44 48  1  0  0  0  0
 45 50  1  0  0  0  0
 46 66  1  0  0  0  0
 47 50  1  0  0  0  0
 47 66  1  0  0  0  0
 48 69  1  0  0  0  0
 49 65  1  0  0  0  0
 50 64  1  0  0  0  0
 51 61  1  0  0  0  0
 52 62  1  0  0  0  0
 53 62  1  0  0  0  0
 54 62  1  0  0  0  0
 55 72  1  0  0  0  0
 56 73  1  0  0  0  0
 57 80  1  0  0  0  0
 58 59  1  0  0  0  0
 58 71  1  0  0  0  0
 59 73  1  0  0  0  0
 60 62  1  0  0  0  0
 60 70  1  0  0  0  0
 61 72  1  0  0  0  0
 63 64  1  0  0  0  0
M  CHG  2  72   1  73   1
M  ISO  4  38 100  57 101  71 100  80 101
M  END
> <Batch ID>
0138

> <Smiles>
CNC(C)C(=O)NC(C(=O)N1Cc2cc([101O:1][101CH2:1]c3ccccc3CNCC[100NH:0][100C:0](=O)N3CCCC(n4nc(-c5ccc(Oc6ccc(F)cc6F)cc5)c(C(N)=O)c4N)C3)ccc2CC1C(=O)NC1CCCc2ccccc21)C(C)(C)C

> <Shape>
0.175

> <Color>
0.191

> <Negative vol penalty>
0.000

$$$$

  -OEChem-04052321083D

 83 92  0     1  0  0  0  0  0999 V2000
  -29.7173  -12.2381   19.9763 C   0  0  0  0  0  0  0  0  0  0  0  0
  -29.5335  -13.4431   19.3059 C   0  0  0  0  0  0  0  0  0  0  0  0
  -21.4416  -26.7803   21.5415 C   0  0  0  0  0  0  0  0  0  0  0  0
  -21.9881  -28.3052   19.7490 C   0  0  0  0  0  0  0  0  0  0  0  0
  -28.6202  -11.5663   20.5138 C   0  0  0  0  0  0  0  0  0  0  0  0
  -28.2522  -13.9766   19.1717 C   0  0  0  0  0  0  0  0  0  0  0  0
  -28.1032  -18.9429   20.1509 C   0  0  0  0  0  0  0  0  0  0  0  0
  -20.1882  -27.3789   21.6687 C   0  0  0  0  0  0  0  0  0  0  0  0
  -20.7346  -28.9038   19.8761 C   0  0  0  0  0  0  0  0  0  0  0  0
  -28.5580  -19.8027   19.1521 C   0  0  0  0  0  0  0  0  0  0  0  0
  -18.8939  -30.1776   23.0531 C   0  0  0  0  0  0  0  0  0  0  0  0
  -18.4435  -30.4694   24.3406 C   0  0  0  0  0  0  0  0  0  0  0  0
  -26.2775  -20.2390   18.4977 C   0  0  0  0  0  0  0  0  0  0  0  0
  -30.1501  -22.3626   16.8136 C   0  0  0  0  0  0  0  0  0  0  0  0
  -16.5307  -29.0342   23.9966 C   0  0  0  0  0  0  0  0  0  0  0  0
  -29.9128  -23.7456   19.1537 C   0  0  0  0  0  0  0  0  0  0  0  0
  -22.3416  -27.2435   20.5817 C   0  0  0  0  0  0  0  0  0  0  0  0
  -23.9793  -25.5362   19.6274 C   0  0  0  0  0  0  0  0  0  0  0  0
  -27.3259  -12.0967   20.3946 C   0  0  0  0  0  0  0  0  0  0  0  0
  -26.7303  -18.7158   20.3239 C   0  0  0  0  0  0  0  0  0  0  0  0
  -27.1365  -13.3107   19.7070 C   0  0  0  0  0  0  0  0  0  0  0  0
  -25.8078  -19.3778   19.5011 C   0  0  0  0  0  0  0  0  0  0  0  0
  -31.1348  -23.2783   17.1675 C   0  0  0  0  0  0  0  0  0  0  0  0
  -31.0210  -23.9876   18.3581 C   0  0  0  0  0  0  0  0  0  0  0  0
  -19.8347  -28.4407   20.8360 C   0  0  0  0  0  0  0  0  0  0  0  0
  -27.6452  -20.4487   18.3234 C   0  0  0  0  0  0  0  0  0  0  0  0
  -18.1627  -29.3142   22.2373 C   0  0  0  0  0  0  0  0  0  0  0  0
  -17.2619  -29.8976   24.8123 C   0  0  0  0  0  0  0  0  0  0  0  0
  -16.9811  -28.7424   22.7091 C   0  0  0  0  0  0  0  0  0  0  0  0
  -23.6367  -26.6259   20.4502 C   0  0  0  0  0  0  0  0  0  0  0  0
  -29.0803  -22.1940   17.6778 C   0  0  0  0  0  0  0  0  0  1  0  0
  -25.3174  -25.3352   19.8633 C   0  0  0  0  0  0  0  0  0  0  0  0
  -23.1612  -24.7739   18.7301 C   0  0  0  0  0  0  0  0  0  0  0  0
  -24.8359  -16.1706   20.1317 C   0  0  0  0  0  0  0  0  0  0  0  0
  -22.5954  -18.2396   21.2372 C   0  0  0  0  0  0  0  0  0  0  0  0
  -21.5506  -21.4711   21.5732 C   0  0  0  0  0  0  0  0  0  0  0  0
  -30.4885  -27.3167   20.5558 C   0  0  0  0  0  0  0  0  0  0  0  0
  -26.1652  -11.3107   20.9510 C   0  0  0  0  0  0  0  0  0  0  0  0
  -26.2548  -17.8061   21.4232 C   0  0  0  0  0  0  0  0  0  0  0  0
  -24.3225  -19.1838   19.6589 C   0  0  0  0  0  0  0  0  0  0  0  0
  -24.8855  -12.1310   21.0912 C   0  0  0  0  0  0  0  0  0  0  0  0
  -33.1449  -24.0664   14.2882 C   0  0  0  0  0  0  0  0  0  0  0  0
  -28.3617  -27.2675   23.4108 C   0  0  0  0  0  0  0  0  0  0  0  0
  -32.3543  -22.8431   14.7899 C   0  0  0  0  0  0  0  0  0  0  0  0
  -32.5103  -24.8549   15.4500 C   0  0  0  0  0  0  0  0  0  0  0  0
  -24.6277  -12.9390   19.8233 C   0  0  0  0  0  0  0  0  0  0  0  0
  -26.9711  -27.0127   22.8267 C   0  0  0  0  0  0  0  0  0  0  0  0
  -29.2025  -28.1581   22.4987 C   0  0  0  0  0  0  0  0  0  0  0  0
  -27.9230  -27.4330   20.5211 C   0  0  0  0  0  0  0  0  0  0  0  0
  -32.3728  -23.4979   16.2043 C   0  0  0  0  0  0  0  0  0  0  0  0
  -25.7651  -13.9339   19.5623 C   0  0  1  0  0  0  0  0  0  0  0  0
  -24.8555  -17.2508   21.1760 C   0  0  1  0  0  0  0  0  0  0  0  0
  -27.0576  -26.4940   21.3787 C   0  0  2  0  0  0  0  0  0  0  0  0
  -19.6614  -22.8454   22.4894 C   0  0  0  0  0  0  0  0  0  0  0  0
  -20.8613  -17.4375   18.8582 C   0  0  0  0  0  0  0  0  0  0  0  0
  -19.4630  -19.4707   19.2810 C   0  0  0  0  0  0  0  0  0  0  0  0
  -19.6218  -17.6856   21.0161 C   0  0  0  0  0  0  0  0  0  0  0  0
  -23.3417  -22.8907   23.4535 C   0  0  0  0  0  0  0  0  0  0  0  0
  -32.0471  -24.9794   18.7826 C   0  0  0  0  0  0  0  0  0  0  0  0
  -31.6345  -26.4369   18.5380 C   0  0  0  0  0  0  0  0  0  0  0  0
  -21.6107  -19.1899   20.5999 C   0  0  1  0  0  0  0  0  0  0  0  0
  -21.0281  -22.2412   22.7724 C   0  0  2  0  0  0  0  0  0  0  0  0
  -20.4172  -18.4483   19.9343 C   0  0  0  0  0  0  0  0  0  0  0  0
  -28.9359  -22.8641   18.8431 N   0  0  0  0  0  0  0  0  0  0  0  0
  -24.6735  -27.0849   21.1562 N   0  0  0  0  0  0  0  0  0  0  0  0
  -25.6807  -26.2797   20.7777 N   0  0  0  0  0  0  0  0  0  0  0  0
  -23.9073  -18.2796   20.7440 N   0  0  0  0  0  0  0  0  0  0  0  0
  -29.2456  -27.6096   21.1410 N   0  0  0  0  0  0  0  0  0  0  0  0
  -26.2069  -24.4445   19.3757 N   0  0  0  0  0  0  0  0  0  0  0  0
  -21.8072  -25.1143   18.6079 N   0  0  0  0  0  0  0  0  0  0  0  0
  -25.6380  -15.0856   20.4294 N   0  0  0  0  0  0  0  0  0  0  0  0
  -21.2215  -20.1339   21.6420 N   0  0  0  0  0  0  0  0  0  0  0  0
  -30.4394  -26.7941   19.2693 N   0  0  0  0  0  0  0  0  0  0  0  0
  -21.9650  -23.3442   23.1281 N   0  3  0  0  0  0  0  0  0  0  0  0
  -23.6137  -23.8087   18.0689 O   0  0  0  0  0  0  0  0  0  0  0  0
  -24.1430  -16.3106   19.1307 O   0  0  0  0  0  0  0  0  0  0  0  0
  -22.2164  -17.4944   22.1442 O   0  0  0  0  0  0  0  0  0  0  0  0
  -22.1841  -22.0032   20.6643 O   0  0  0  0  0  0  0  0  0  0  0  0
  -31.5621  -27.5019   21.1388 O   0  0  0  0  0  0  0  0  0  0  0  0
  -18.6116  -29.0249   20.9596 O   0  0  0  0  0  0  0  0  0  0  0  0
  -28.0864  -21.2880   17.3473 O   0  0  0  0  0  0  0  0  0  1  0  0
  -16.8303  -30.1767   26.0493 F   0  0  0  0  0  0  0  0  0  0  0  0
  -16.2749  -27.9113   21.9304 F   0  0  0  0  0  0  0  0  0  0  0  0
  1  2  1  0  0  0  0
  1  5  2  0  0  0  0
  2  6  2  0  0  0  0
  3  8  2  0  0  0  0
  3 17  1  0  0  0  0
  4  9  1  0  0  0  0
  4 17  2  0  0  0  0
  5 19  1  0  0  0  0
  6 21  1  0  0  0  0
  7 10  2  0  0  0  0
  7 20  1  0  0  0  0
  8 25  1  0  0  0  0
  9 25  2  0  0  0  0
 10 26  1  0  0  0  0
 11 12  2  0  0  0  0
 11 27  1  0  0  0  0
 12 28  1  0  0  0  0
 13 22  1  0  0  0  0
 13 26  2  0  0  0  0
 14 23  2  0  0  0  0
 14 31  1  0  0  0  0
 15 28  2  0  0  0  0
 15 29  1  0  0  0  0
 16 24  2  0  0  0  0
 16 64  1  0  0  0  0
 17 30  1  0  0  0  0
 18 30  1  0  0  0  0
 18 32  2  0  0  0  0
 18 33  1  0  0  0  0
 19 21  2  0  0  0  0
 19 38  1  0  0  0  0
 20 22  2  0  0  0  0
 20 39  1  0  0  0  0
 21 51  1  0  0  0  0
 22 40  1  0  0  0  0
 23 24  1  0  0  0  0
 23 50  1  0  0  0  0
 24 59  1  0  0  0  0
 25 80  1  0  0  0  0
 26 81  1  0  0  0  0
 27 29  2  0  0  0  0
 27 80  1  0  0  0  0
 28 82  1  0  0  0  0
 29 83  1  0  0  0  0
 30 65  2  0  0  0  0
 31 64  2  0  0  0  0
 31 81  1  0  0  0  0
 32 66  1  0  0  0  0
 32 69  1  0  0  0  0
 33 70  1  0  0  0  0
 33 75  2  0  0  0  0
 34 52  1  0  0  0  0
 34 71  1  0  0  0  0
 34 76  2  0  0  0  0
 35 61  1  0  0  0  0
 35 67  1  0  0  0  0
 35 77  2  0  0  0  0
 36 62  1  0  0  0  0
 36 72  1  0  0  0  0
 36 78  2  0  0  0  0
 37 68  1  0  0  0  0
 37 73  1  0  0  0  0
 37 79  2  0  0  0  0
 38 41  1  0  0  0  0
 39 52  1  0  0  0  0
 40 67  1  0  0  0  0
 41 46  1  0  0  0  0
 42 44  1  0  0  0  0
 42 45  1  0  0  0  0
 43 47  1  0  0  0  0
 43 48  1  0  0  0  0
 44 50  1  0  0  0  0
 45 50  1  0  0  0  0
 46 51  1  0  0  0  0
 47 53  1  0  0  0  0
 48 68  1  0  0  0  0
 49 53  1  0  0  0  0
 49 68  1  0  0  0  0
 51 71  1  0  0  0  0
 52 67  1  0  0  0  0
 53 66  1  0  0  0  0
 54 62  1  0  0  0  0
 55 63  1  0  0  0  0
 56 63  1  0  0  0  0
 57 63  1  0  0  0  0
 58 74  1  0  0  0  0
 59 60  1  0  0  0  0
 60 73  1  0  0  0  0
 61 63  1  0  0  0  0
 61 72  1  0  0  0  0
 62 74  1  0  0  0  0
 65 66  1  0  0  0  0
M  CHG  1  74   1
M  ISO  4  31 101  37 100  73 100  81 101
M  END
> <Batch ID>
0138

> <Smiles>
CNC(C)C(=O)NC(C(=O)N1Cc2cc([101O:1][101c:1]3cc(C4CCC4)c(CC[100NH:0][100C:0](=O)N4CCCC(n5nc(-c6ccc(Oc7ccc(F)cc7F)cc6)c(C(N)=O)c5N)C4)cn3)ccc2CC1C(=O)NC1CCCc2ccccc21)C(C)(C)C

> <Shape>
0.209

> <Color>
0.077

> <Negative vol penalty>
0.000

$$$$

  -OEChem-04052321083D

 86 94  0     1  0  0  0  0  0999 V2000
  -21.6084  -12.4756   21.2055 C   0  0  0  0  0  0  0  0  0  0  0  0
  -21.7685  -13.7538   21.7308 C   0  0  0  0  0  0  0  0  0  0  0  0
  -29.9090  -26.0268   22.5473 C   0  0  0  0  0  0  0  0  0  0  0  0
  -29.9516  -25.9535   20.1328 C   0  0  0  0  0  0  0  0  0  0  0  0
  -22.7094  -11.7910   20.6926 C   0  0  0  0  0  0  0  0  0  0  0  0
  -23.0300  -14.3478   21.7445 C   0  0  0  0  0  0  0  0  0  0  0  0
  -22.9202  -19.1767   20.2230 C   0  0  0  0  0  0  0  0  0  0  0  0
  -21.4736  -22.7884   25.2783 C   0  0  0  0  0  0  0  0  0  0  0  0
  -21.2167  -23.7932   26.2110 C   0  0  0  0  0  0  0  0  0  0  0  0
  -31.3028  -25.9812   22.5733 C   0  0  0  0  0  0  0  0  0  0  0  0
  -31.3455  -25.9080   20.1588 C   0  0  0  0  0  0  0  0  0  0  0  0
  -22.4721  -20.1240   21.1426 C   0  0  0  0  0  0  0  0  0  0  0  0
  -34.8391  -25.5213   23.2851 C   0  0  0  0  0  0  0  0  0  0  0  0
  -35.4444  -24.6556   24.1960 C   0  0  0  0  0  0  0  0  0  0  0  0
  -24.7576  -20.7176   21.6356 C   0  0  0  0  0  0  0  0  0  0  0  0
  -20.8064  -24.2742   23.4939 C   0  0  0  0  0  0  0  0  0  0  0  0
  -34.3329  -22.7811   23.1529 C   0  0  0  0  0  0  0  0  0  0  0  0
  -29.2333  -26.0129   21.3271 C   0  0  0  0  0  0  0  0  0  0  0  0
  -26.9020  -25.1328   21.8728 C   0  0  0  0  0  0  0  0  0  0  0  0
  -23.9833  -12.3808   20.6912 C   0  0  0  0  0  0  0  0  0  0  0  0
  -24.2929  -18.9848   20.0104 C   0  0  0  0  0  0  0  0  0  0  0  0
  -24.1493  -13.6700   21.2323 C   0  0  0  0  0  0  0  0  0  0  0  0
  -25.2205  -19.7691   20.7109 C   0  0  0  0  0  0  0  0  0  0  0  0
  -21.2685  -23.0289   23.9197 C   0  0  0  0  0  0  0  0  0  0  0  0
  -20.7547  -25.0385   25.7852 C   0  0  0  0  0  0  0  0  0  0  0  0
  -20.5495  -25.2790   24.4266 C   0  0  0  0  0  0  0  0  0  0  0  0
  -32.0211  -25.9219   21.3791 C   0  0  0  0  0  0  0  0  0  0  0  0
  -23.3909  -20.8926   21.8512 C   0  0  0  0  0  0  0  0  0  0  0  0
  -33.9807  -25.0169   22.3081 C   0  0  0  0  0  0  0  0  0  0  0  0
  -35.1913  -23.2854   24.1299 C   0  0  0  0  0  0  0  0  0  0  0  0
  -33.7277  -23.6468   22.2420 C   0  0  0  0  0  0  0  0  0  0  0  0
  -27.7935  -26.0593   21.2996 C   0  0  0  0  0  0  0  0  0  0  0  0
  -25.6553  -25.6238   21.5707 C   0  0  0  0  0  0  0  0  0  0  0  0
  -27.1762  -23.9355   22.6123 C   0  0  0  0  0  0  0  0  0  0  0  0
  -26.3028  -16.5515   20.3884 C   0  0  0  0  0  0  0  0  0  0  0  0
  -28.4011  -18.5696   18.9578 C   0  0  0  0  0  0  0  0  0  0  0  0
  -29.2888  -21.7816   18.2216 C   0  0  0  0  0  0  0  0  0  0  0  0
  -22.0617  -29.8761   21.1846 C   0  0  0  0  0  0  0  0  0  0  0  0
  -25.1520  -11.5831   20.1690 C   0  0  0  0  0  0  0  0  0  0  0  0
  -24.7595  -17.9776   18.9954 C   0  0  0  0  0  0  0  0  0  0  0  0
  -26.7045  -19.6161   20.5044 C   0  0  0  0  0  0  0  0  0  0  0  0
  -26.3875  -12.4314   19.8791 C   0  0  0  0  0  0  0  0  0  0  0  0
  -24.2492  -29.3304   18.4290 C   0  0  0  0  0  0  0  0  0  0  0  0
  -26.6645  -13.3845   21.0374 C   0  0  0  0  0  0  0  0  0  0  0  0
  -25.2956  -28.3598   18.9793 C   0  0  0  0  0  0  0  0  0  0  0  0
  -23.8041  -30.3390   19.4857 C   0  0  0  0  0  0  0  0  0  0  0  0
  -24.3783  -28.7731   21.3001 C   0  0  0  0  0  0  0  0  0  0  0  0
  -25.4973  -14.3577   21.2423 C   0  0  1  0  0  0  0  0  0  0  0  0
  -26.1910  -17.5075   19.2346 C   0  0  1  0  0  0  0  0  0  0  0  0
  -24.8169  -27.7016   20.2873 C   0  0  2  0  0  0  0  0  0  0  0  0
  -22.3427  -29.2940   27.7092 C   0  0  0  0  0  0  0  0  0  0  0  0
  -31.0749  -23.1174   17.0715 C   0  0  0  0  0  0  0  0  0  0  0  0
  -30.2699  -18.1039   21.3244 C   0  0  0  0  0  0  0  0  0  0  0  0
  -31.5588  -20.1300   20.6159 C   0  0  0  0  0  0  0  0  0  0  0  0
  -31.4028  -18.1584   19.0956 C   0  0  0  0  0  0  0  0  0  0  0  0
  -27.3579  -22.9136   16.2853 C   0  0  0  0  0  0  0  0  0  0  0  0
  -20.4859  -26.0958   26.8062 C   0  0  0  0  0  0  0  0  0  0  0  0
  -21.5450  -21.9477   22.9168 C   0  0  0  0  0  0  0  0  0  1  0  0
  -19.4188  -28.2801   22.4116 C   0  0  0  0  0  0  0  0  0  0  0  0
  -19.8533  -26.8267   22.5975 C   0  0  0  0  0  0  0  0  0  0  0  0
  -20.4170  -29.3017   22.9521 C   0  0  0  0  0  0  0  0  0  0  0  0
  -21.2506  -28.2516   27.8094 C   0  0  0  0  0  0  0  0  0  0  0  0
  -29.3702  -19.6220   19.4398 C   0  0  1  0  0  0  0  0  0  0  0  0
  -29.7249  -22.4334   16.9218 C   0  0  2  0  0  0  0  0  0  0  0  0
  -30.6226  -19.0053   20.1244 C   0  0  0  0  0  0  0  0  0  0  0  0
  -27.1665  -27.0628   20.6801 N   0  0  0  0  0  0  0  0  0  0  0  0
  -25.8676  -26.7697   20.8622 N   0  0  0  0  0  0  0  0  0  0  0  0
  -27.1113  -18.6136   19.5058 N   0  0  0  0  0  0  0  0  0  0  0  0
  -23.3607  -29.6503   20.7002 N   0  0  0  0  0  0  0  0  0  0  0  0
  -24.4092  -25.1827   21.8446 N   0  0  0  0  0  0  0  0  0  0  0  0
  -27.3031  -22.7300   21.9088 N   0  0  0  0  0  0  0  0  0  0  0  0
  -20.0804  -26.5330   23.9777 N   0  0  0  0  0  0  0  0  0  0  0  0
  -25.5365  -15.4100   20.2496 N   0  0  0  0  0  0  0  0  0  0  0  0
  -29.6725  -20.4587   18.2835 N   0  0  0  0  0  0  0  0  0  0  0  0
  -21.7197  -29.1790   22.3369 N   0  0  0  0  0  0  0  0  0  0  0  0
  -28.7263  -23.4532   16.4931 N   0  3  0  0  0  0  0  0  0  0  0  0
  -21.5265  -27.1588   26.8401 N   0  3  0  0  0  0  0  0  0  0  0  0
  -27.2886  -23.9320   23.8617 O   0  0  0  0  0  0  0  0  0  0  0  0
  -27.0316  -16.8283   21.3339 O   0  0  0  0  0  0  0  0  0  0  0  0
  -28.7726  -17.7435   18.1205 O   0  0  0  0  0  0  0  0  0  0  0  0
  -28.6727  -22.3866   19.0962 O   0  0  0  0  0  0  0  0  0  0  0  0
  -21.2638  -30.6382   20.6282 O   0  0  0  0  0  0  0  0  0  0  0  0
  -33.3812  -25.8777   21.4040 O   0  0  0  0  0  0  0  0  0  0  0  0
  -22.9562  -21.8175   22.7499 O   0  0  0  0  0  0  0  0  0  1  0  0
  -35.7738  -22.4540   25.0038 F   0  0  0  0  0  0  0  0  0  0  0  0
  -32.9049  -23.1563   21.3049 F   0  0  0  0  0  0  0  0  0  0  0  0
  1  2  1  0  0  0  0
  1  5  2  0  0  0  0
  2  6  2  0  0  0  0
  3 10  2  0  0  0  0
  3 18  1  0  0  0  0
  4 11  1  0  0  0  0
  4 18  2  0  0  0  0
  5 20  1  0  0  0  0
  6 22  1  0  0  0  0
  7 12  2  0  0  0  0
  7 21  1  0  0  0  0
  8  9  2  0  0  0  0
  8 24  1  0  0  0  0
  9 25  1  0  0  0  0
 10 27  1  0  0  0  0
 11 27  2  0  0  0  0
 12 28  1  0  0  0  0
 13 14  2  0  0  0  0
 13 29  1  0  0  0  0
 14 30  1  0  0  0  0
 15 23  1  0  0  0  0
 15 28  2  0  0  0  0
 16 24  2  0  0  0  0
 16 26  1  0  0  0  0
 17 30  2  0  0  0  0
 17 31  1  0  0  0  0
 18 32  1  0  0  0  0
 19 32  1  0  0  0  0
 19 33  2  0  0  0  0
 19 34  1  0  0  0  0
 20 22  2  0  0  0  0
 20 39  1  0  0  0  0
 21 23  2  0  0  0  0
 21 40  1  0  0  0  0
 22 48  1  0  0  0  0
 23 41  1  0  0  0  0
 24 58  1  0  0  0  0
 25 26  2  0  0  0  0
 25 57  1  0  0  0  0
 26 72  1  0  0  0  0
 27 83  1  0  0  0  0
 28 84  1  0  0  0  0
 29 31  2  0  0  0  0
 29 83  1  0  0  0  0
 30 85  1  0  0  0  0
 31 86  1  0  0  0  0
 32 66  2  0  0  0  0
 33 67  1  0  0  0  0
 33 70  1  0  0  0  0
 34 71  1  0  0  0  0
 34 78  2  0  0  0  0
 35 49  1  0  0  0  0
 35 73  1  0  0  0  0
 35 79  2  0  0  0  0
 36 63  1  0  0  0  0
 36 68  1  0  0  0  0
 36 80  2  0  0  0  0
 37 64  1  0  0  0  0
 37 74  1  0  0  0  0
 37 81  2  0  0  0  0
 38 69  1  0  0  0  0
 38 75  1  0  0  0  0
 38 82  2  0  0  0  0
 39 42  1  0  0  0  0
 40 49  1  0  0  0  0
 41 68  1  0  0  0  0
 42 44  1  0  0  0  0
 43 45  1  0  0  0  0
 43 46  1  0  0  0  0
 44 48  1  0  0  0  0
 45 50  1  0  0  0  0
 46 69  1  0  0  0  0
 47 50  1  0  0  0  0
 47 69  1  0  0  0  0
 48 73  1  0  0  0  0
 49 68  1  0  0  0  0
 50 67  1  0  0  0  0
 51 62  1  0  0  0  0
 52 64  1  0  0  0  0
 53 65  1  0  0  0  0
 54 65  1  0  0  0  0
 55 65  1  0  0  0  0
 56 76  1  0  0  0  0
 57 77  1  0  0  0  0
 58 84  1  0  0  0  0
 59 60  1  0  0  0  0
 59 61  1  0  0  0  0
 60 72  1  0  0  0  0
 61 75  1  0  0  0  0
 62 77  1  0  0  0  0
 63 65  1  0  0  0  0
 63 74  1  0  0  0  0
 64 76  1  0  0  0  0
 66 67  1  0  0  0  0
M  CHG  2  76   1  77   1
M  ISO  4  38 100  58 101  75 100  84 101
M  END
> <Batch ID>
0138

> <Smiles>
CCNCc1ccc([101CH2:1][101O:1]c2ccc3c(c2)CN(C(=O)C(NC(=O)C(C)NC)C(C)(C)C)C(C(=O)NC2CCCc4ccccc42)C3)cc1NCCC[100NH:0][100C:0](=O)N1CCCC(n2nc(-c3ccc(Oc4ccc(F)cc4F)cc3)c(C(N)=O)c2N)C1

> <Shape>
0.203

> <Color>
0.066

> <Negative vol penalty>
0.000

$$$$

  -OEChem-04052321083D

 86 95  0     1  0  0  0  0  0999 V2000
  -16.2530  -29.9069   24.0900 C   0  0  0  0  0  0  0  0  0  0  0  0
  -17.0238  -28.7518   24.0056 C   0  0  0  0  0  0  0  0  0  0  0  0
  -25.7265  -12.6601   19.6037 C   0  0  0  0  0  0  0  0  0  0  0  0
  -26.6414  -11.3384   21.4074 C   0  0  0  0  0  0  0  0  0  0  0  0
  -16.6503  -31.0597   23.4139 C   0  0  0  0  0  0  0  0  0  0  0  0
  -18.1920  -28.7486   23.2442 C   0  0  0  0  0  0  0  0  0  0  0  0
  -24.7373  -25.8424   23.0742 C   0  0  0  0  0  0  0  0  0  0  0  0
  -28.2957  -24.6919   17.3021 C   0  0  0  0  0  0  0  0  0  0  0  0
  -29.0617  -23.8298   16.5176 C   0  0  0  0  0  0  0  0  0  0  0  0
  -24.4368  -12.3982   20.0660 C   0  0  0  0  0  0  0  0  0  0  0  0
  -25.3517  -11.0766   21.8697 C   0  0  0  0  0  0  0  0  0  0  0  0
  -25.5827  -25.1418   22.2150 C   0  0  0  0  0  0  0  0  0  0  0  0
  -22.3955  -13.5145   22.5196 C   0  0  0  0  0  0  0  0  0  0  0  0
  -21.5020  -14.5833   22.5883 C   0  0  0  0  0  0  0  0  0  0  0  0
  -26.2127  -27.2148   21.1543 C   0  0  0  0  0  0  0  0  0  0  0  0
  -29.8549  -24.4166   19.1270 C   0  0  0  0  0  0  0  0  0  0  0  0
  -20.0240  -13.4465   21.0520 C   0  0  0  0  0  0  0  0  0  0  0  0
  -26.8288  -12.1302   20.2744 C   0  0  0  0  0  0  0  0  0  0  0  0
  -28.6949  -12.0730   18.5360 C   0  0  0  0  0  0  0  0  0  0  0  0
  -17.8291  -31.0734   22.6516 C   0  0  0  0  0  0  0  0  0  0  0  0
  -24.6148  -27.2356   22.9726 C   0  0  0  0  0  0  0  0  0  0  0  0
  -18.6048  -29.9023   22.5561 C   0  0  0  0  0  0  0  0  0  0  0  0
  -25.3670  -27.9310   22.0151 C   0  0  0  0  0  0  0  0  0  0  0  0
  -28.6923  -24.9853   18.6069 C   0  0  0  0  0  0  0  0  0  0  0  0
  -30.2243  -23.2610   17.0377 C   0  0  0  0  0  0  0  0  0  0  0  0
  -30.6209  -23.5544   18.3424 C   0  0  0  0  0  0  0  0  0  0  0  0
  -24.2494  -11.6065   21.1989 C   0  0  0  0  0  0  0  0  0  0  0  0
  -26.3184  -25.8277   21.2530 C   0  0  0  0  0  0  0  0  0  0  0  0
  -22.1033  -12.4116   21.7170 C   0  0  0  0  0  0  0  0  0  0  0  0
  -20.3162  -14.5494   21.8545 C   0  0  0  0  0  0  0  0  0  0  0  0
  -20.9175  -12.3777   20.9833 C   0  0  0  0  0  0  0  0  0  0  0  0
  -28.1613  -12.3999   19.7970 C   0  0  0  0  0  0  0  0  0  0  0  0
  -29.9860  -12.5397   18.5781 C   0  0  0  0  0  0  0  0  0  0  0  0
  -28.0787  -11.4072   17.4258 C   0  0  0  0  0  0  0  0  0  0  0  0
  -22.2318  -29.2363   22.3228 C   0  0  0  0  0  0  0  0  0  0  0  0
  -24.4430  -31.4925   23.0594 C   0  0  0  0  0  0  0  0  0  0  0  0
  -27.7375  -32.3456   23.3151 C   0  0  0  0  0  0  0  0  0  0  0  0
  -32.6599  -16.8563   21.7511 C   0  0  0  0  0  0  0  0  0  0  0  0
  -18.1930  -32.3294   21.9001 C   0  0  0  0  0  0  0  0  0  0  0  0
  -23.7188  -27.9796   23.9245 C   0  0  0  0  0  0  0  0  0  0  0  0
  -25.2866  -29.4288   21.8784 C   0  0  0  0  0  0  0  0  0  0  0  0
  -19.6413  -32.3530   21.4185 C   0  0  0  0  0  0  0  0  0  0  0  0
  -33.5542  -13.4117   21.6438 C   0  0  0  0  0  0  0  0  0  0  0  0
  -20.0075  -31.0254   20.7627 C   0  0  0  0  0  0  0  0  0  0  0  0
  -32.3217  -12.7323   21.0445 C   0  0  0  0  0  0  0  0  0  0  0  0
  -32.8157  -19.3129   19.5854 C   0  0  0  0  0  0  0  0  0  0  0  0
  -30.7017  -19.8616   20.8460 C   0  0  0  0  0  0  0  0  0  0  0  0
  -33.1699  -14.5713   22.5602 C   0  0  0  0  0  0  0  0  0  0  0  0
  -31.0488  -14.8971   21.3484 C   0  0  0  0  0  0  0  0  0  0  0  0
  -33.0387  -20.7971   19.3260 C   0  0  0  0  0  0  0  0  0  0  0  0
  -30.9346  -21.3429   20.5790 C   0  0  0  0  0  0  0  0  0  0  0  0
  -19.8914  -29.8667   21.7603 C   0  0  1  0  0  0  0  0  0  0  0  0
  -23.2813  -29.3410   23.3929 C   0  0  1  0  0  0  0  0  0  0  0  0
  -31.3875  -13.7568   20.3730 C   0  0  2  0  0  0  0  0  0  0  0  0
  -32.0158  -19.0809   20.8677 C   0  0  0  0  0  0  0  0  0  0  0  0
  -31.0275  -22.3400   16.1792 C   0  0  0  0  0  0  0  0  0  0  0  0
  -29.2334  -34.2718   23.9062 C   0  0  0  0  0  0  0  0  0  0  0  0
  -23.8376  -32.7868   20.3635 C   0  0  0  0  0  0  0  0  0  0  0  0
  -25.9636  -34.0895   20.5900 C   0  0  0  0  0  0  0  0  0  0  0  0
  -24.1299  -34.3993   22.2526 C   0  0  0  0  0  0  0  0  0  0  0  0
  -28.9658  -30.8543   25.5570 C   0  0  0  0  0  0  0  0  0  0  0  0
  -31.8616  -22.9570   18.9207 C   0  0  0  0  0  0  0  0  0  0  0  0
  -27.8679  -25.9124   19.4508 C   0  0  0  0  0  0  0  0  0  1  0  0
  -25.4830  -32.2637   22.2832 C   0  0  1  0  0  0  0  0  0  0  0  0
  -28.5170  -33.0332   24.4215 C   0  0  2  0  0  0  0  0  0  0  0  0
  -24.8538  -33.3564   21.3734 C   0  0  0  0  0  0  0  0  0  0  0  0
  -29.0415  -13.0257   20.5829 N   0  0  0  0  0  0  0  0  0  0  0  0
  -30.1413  -13.0957   19.8138 N   0  0  0  0  0  0  0  0  0  0  0  0
  -24.3917  -30.1106   22.8281 N   0  0  0  0  0  0  0  0  0  0  0  0
  -32.2850  -15.5073   21.8626 N   0  0  0  0  0  0  0  0  0  0  0  0
  -30.9923  -12.5244   17.6784 N   0  0  0  0  0  0  0  0  0  0  0  0
  -28.1696  -10.0106   17.3501 N   0  0  0  0  0  0  0  0  0  0  0  0
  -21.0351  -29.8466   22.6469 N   0  0  0  0  0  0  0  0  0  0  0  0
  -26.4290  -32.7779   23.2676 N   0  0  0  0  0  0  0  0  0  0  0  0
  -31.7673  -17.6744   21.0693 N   0  0  0  0  0  0  0  0  0  0  0  0
  -31.7070  -21.5078   19.2924 N   0  3  0  0  0  0  0  0  0  0  0  0
  -29.5340  -32.1054   24.9923 N   0  3  0  0  0  0  0  0  0  0  0  0
  -27.4796  -12.0335   16.5190 O   0  0  0  0  0  0  0  0  0  0  0  0
  -22.4891  -28.6469   21.2797 O   0  0  0  0  0  0  0  0  0  0  0  0
  -23.7081  -32.0929   23.8475 O   0  0  0  0  0  0  0  0  0  0  0  0
  -28.2401  -31.5114   22.5655 O   0  0  0  0  0  0  0  0  0  0  0  0
  -33.7148  -17.2979   22.2194 O   0  0  0  0  0  0  0  0  0  0  0  0
  -22.9911  -11.3509   21.6505 O   0  0  0  0  0  0  0  0  0  0  0  0
  -27.1438  -25.1462   20.4127 O   0  0  0  0  0  0  0  0  0  1  0  0
  -19.4575  -15.5752   21.9218 F   0  0  0  0  0  0  0  0  0  0  0  0
  -20.6308  -11.3204   20.2114 F   0  0  0  0  0  0  0  0  0  0  0  0
  1  2  1  0  0  0  0
  1  5  2  0  0  0  0
  2  6  2  0  0  0  0
  3 10  2  0  0  0  0
  3 18  1  0  0  0  0
  4 11  1  0  0  0  0
  4 18  2  0  0  0  0
  5 20  1  0  0  0  0
  6 22  1  0  0  0  0
  7 12  2  0  0  0  0
  7 21  1  0  0  0  0
  8  9  2  0  0  0  0
  8 24  1  0  0  0  0
  9 25  1  0  0  0  0
 10 27  1  0  0  0  0
 11 27  2  0  0  0  0
 12 28  1  0  0  0  0
 13 14  2  0  0  0  0
 13 29  1  0  0  0  0
 14 30  1  0  0  0  0
 15 23  1  0  0  0  0
 15 28  2  0  0  0  0
 16 24  2  0  0  0  0
 16 26  1  0  0  0  0
 17 30  2  0  0  0  0
 17 31  1  0  0  0  0
 18 32  1  0  0  0  0
 19 32  1  0  0  0  0
 19 33  2  0  0  0  0
 19 34  1  0  0  0  0
 20 22  2  0  0  0  0
 20 39  1  0  0  0  0
 21 23  2  0  0  0  0
 21 40  1  0  0  0  0
 22 52  1  0  0  0  0
 23 41  1  0  0  0  0
 24 63  1  0  0  0  0
 25 26  2  0  0  0  0
 25 56  1  0  0  0  0
 26 62  1  0  0  0  0
 27 83  1  0  0  0  0
 28 84  1  0  0  0  0
 29 31  2  0  0  0  0
 29 83  1  0  0  0  0
 30 85  1  0  0  0  0
 31 86  1  0  0  0  0
 32 67  2  0  0  0  0
 33 68  1  0  0  0  0
 33 71  1  0  0  0  0
 34 72  1  0  0  0  0
 34 78  2  0  0  0  0
 35 53  1  0  0  0  0
 35 73  1  0  0  0  0
 35 79  2  0  0  0  0
 36 64  1  0  0  0  0
 36 69  1  0  0  0  0
 36 80  2  0  0  0  0
 37 65  1  0  0  0  0
 37 74  1  0  0  0  0
 37 81  2  0  0  0  0
 38 70  1  0  0  0  0
 38 75  1  0  0  0  0
 38 82  2  0  0  0  0
 39 42  1  0  0  0  0
 40 53  1  0  0  0  0
 41 69  1  0  0  0  0
 42 44  1  0  0  0  0
 43 45  1  0  0  0  0
 43 48  1  0  0  0  0
 44 52  1  0  0  0  0
 45 54  1  0  0  0  0
 46 50  1  0  0  0  0
 46 55  1  0  0  0  0
 47 51  1  0  0  0  0
 47 55  1  0  0  0  0
 48 70  1  0  0  0  0
 49 54  1  0  0  0  0
 49 70  1  0  0  0  0
 50 76  1  0  0  0  0
 51 76  1  0  0  0  0
 52 73  1  0  0  0  0
 53 69  1  0  0  0  0
 54 68  1  0  0  0  0
 55 75  1  0  0  0  0
 57 65  1  0  0  0  0
 58 66  1  0  0  0  0
 59 66  1  0  0  0  0
 60 66  1  0  0  0  0
 61 77  1  0  0  0  0
 62 76  1  0  0  0  0
 63 84  1  0  0  0  0
 64 66  1  0  0  0  0
 64 74  1  0  0  0  0
 65 77  1  0  0  0  0
 67 68  1  0  0  0  0
M  CHG  2  76   1  77   1
M  ISO  4  38 100  63 101  75 100  84 101
M  END
> <Batch ID>
0138

> <Smiles>
CNC(C)C(=O)NC(C(=O)N1Cc2cc([101O:1][101CH2:1]c3ccc(C)c(CN4CCC([100NH:0][100C:0](=O)N5CCCC(n6nc(-c7ccc(Oc8ccc(F)cc8F)cc7)c(C(N)=O)c6N)C5)CC4)c3)ccc2CC1C(=O)NC1CCCc2ccccc21)C(C)(C)C

> <Shape>
0.263

> <Color>
0.071

> <Negative vol penalty>
0.000

$$$$

  -OEChem-04052321083D

 86 95  0     1  0  0  0  0  0999 V2000
  -30.3859  -25.7451   18.2298 C   0  0  0  0  0  0  0  0  0  0  0  0
  -29.1246  -26.0816   18.7106 C   0  0  0  0  0  0  0  0  0  0  0  0
  -29.7528  -20.7662   21.6490 C   0  0  0  0  0  0  0  0  0  0  0  0
  -27.8868  -19.7003   22.7531 C   0  0  0  0  0  0  0  0  0  0  0  0
  -31.5203  -26.0427   18.9837 C   0  0  0  0  0  0  0  0  0  0  0  0
  -28.9969  -26.7150   19.9463 C   0  0  0  0  0  0  0  0  0  0  0  0
  -25.7346  -30.5861   19.8174 C   0  0  0  0  0  0  0  0  0  0  0  0
  -20.3636  -26.8560   20.7134 C   0  0  0  0  0  0  0  0  0  0  0  0
  -20.2355  -25.8157   21.6476 C   0  0  0  0  0  0  0  0  0  0  0  0
  -30.4934  -19.5899   21.7650 C   0  0  0  0  0  0  0  0  0  0  0  0
  -28.6273  -18.5240   22.8690 C   0  0  0  0  0  0  0  0  0  0  0  0
  -24.3758  -30.2749   19.8446 C   0  0  0  0  0  0  0  0  0  0  0  0
  -30.6879  -16.6035   20.1912 C   0  0  0  0  0  0  0  0  0  0  0  0
  -31.4003  -16.1731   19.0719 C   0  0  0  0  0  0  0  0  0  0  0  0
  -24.3130  -30.7825   22.2021 C   0  0  0  0  0  0  0  0  0  0  0  0
  -33.4603  -16.3235   20.3253 C   0  0  0  0  0  0  0  0  0  0  0  0
  -28.4496  -20.8215   22.1432 C   0  0  0  0  0  0  0  0  0  0  0  0
  -27.3271  -22.7034   20.8370 C   0  0  0  0  0  0  0  0  0  0  0  0
  -31.4071  -26.6887   20.2249 C   0  0  0  0  0  0  0  0  0  0  0  0
  -26.3963  -30.9881   20.9865 C   0  0  0  0  0  0  0  0  0  0  0  0
  -30.1308  -27.0203   20.7182 C   0  0  0  0  0  0  0  0  0  0  0  0
  -25.6796  -31.1007   22.1865 C   0  0  0  0  0  0  0  0  0  0  0  0
  -19.7376  -28.4358   22.3902 C   0  0  0  0  0  0  0  0  0  0  0  0
  -19.6103  -27.3987   23.3218 C   0  0  0  0  0  0  0  0  0  0  0  0
  -20.1199  -28.1801   21.0841 C   0  0  0  0  0  0  0  0  0  0  0  0
  -19.8620  -26.0845   22.9662 C   0  0  0  0  0  0  0  0  0  0  0  0
  -29.9306  -18.4687   22.3749 C   0  0  0  0  0  0  0  0  0  0  0  0
  -23.6655  -30.3703   21.0377 C   0  0  0  0  0  0  0  0  0  0  0  0
  -31.3616  -16.8941   21.3775 C   0  0  0  0  0  0  0  0  0  0  0  0
  -32.7865  -16.0330   19.1389 C   0  0  0  0  0  0  0  0  0  0  0  0
  -32.7478  -16.7541   21.4445 C   0  0  0  0  0  0  0  0  0  0  0  0
  -27.6843  -22.0365   22.0242 C   0  0  0  0  0  0  0  0  0  0  0  0
  -26.6094  -23.7956   21.2593 C   0  0  0  0  0  0  0  0  0  0  0  0
  -27.6180  -22.3657   19.4743 C   0  0  0  0  0  0  0  0  0  0  0  0
  -28.7996  -29.8301   22.7147 C   0  0  0  0  0  0  0  0  0  0  0  0
  -28.4491  -32.6093   24.3504 C   0  0  0  0  0  0  0  0  0  0  0  0
  -26.4246  -35.2041   25.2532 C   0  0  0  0  0  0  0  0  0  0  0  0
  -23.4266  -24.9192   26.2049 C   0  0  0  0  0  0  0  0  0  0  0  0
  -32.6589  -26.9473   21.0255 C   0  0  0  0  0  0  0  0  0  0  0  0
  -27.8563  -31.3460   20.9348 C   0  0  0  0  0  0  0  0  0  0  0  0
  -19.4612  -29.7610   23.0271 C   0  0  0  0  0  0  0  0  0  0  0  0
  -19.2383  -27.9344   24.6682 C   0  0  0  0  0  0  0  0  0  0  0  0
  -26.3388  -31.5470   23.4650 C   0  0  0  0  0  0  0  0  0  0  0  0
  -32.4626  -27.9566   22.1538 C   0  0  0  0  0  0  0  0  0  0  0  0
  -18.7137  -29.3298   24.2981 C   0  0  0  0  0  0  0  0  0  0  0  0
  -26.1869  -26.7943   24.9634 C   0  0  0  0  0  0  0  0  0  0  0  0
  -31.1939  -27.6394   22.9391 C   0  0  0  0  0  0  0  0  0  0  0  0
  -26.8514  -25.8478   23.9622 C   0  0  0  0  0  0  0  0  0  0  0  0
  -25.6350  -26.0410   26.1716 C   0  0  0  0  0  0  0  0  0  0  0  0
  -25.3911  -23.9796   24.8431 C   0  0  0  0  0  0  0  0  0  0  0  0
  -29.9530  -27.7303   22.0427 C   0  0  1  0  0  0  0  0  0  0  0  0
  -28.5436  -31.2494   22.2934 C   0  0  1  0  0  0  0  0  0  0  0  0
  -25.9136  -24.6866   23.5808 C   0  0  2  0  0  0  0  0  0  0  0  0
  -25.7696  -37.3984   26.2797 C   0  0  0  0  0  0  0  0  0  0  0  0
  -28.2220  -30.9385   26.8934 C   0  0  0  0  0  0  0  0  0  0  0  0
  -27.2766  -32.9495   28.0469 C   0  0  0  0  0  0  0  0  0  0  0  0
  -29.5951  -33.0154   27.1289 C   0  0  0  0  0  0  0  0  0  0  0  0
  -27.1510  -36.6987   22.8043 C   0  0  0  0  0  0  0  0  0  0  0  0
  -20.2778  -29.2922   20.0758 C   0  0  0  0  0  0  0  0  0  0  0  0
  -20.4475  -22.9980   25.0437 C   0  0  0  0  0  0  0  0  0  0  0  0
  -20.3845  -23.7652   23.7235 C   0  0  0  0  0  0  0  0  0  0  0  0
  -21.2718  -23.6905   26.1269 C   0  0  0  0  0  0  0  0  0  0  0  0
  -21.7393  -29.6568   19.8389 C   0  0  0  0  0  0  0  0  0  1  0  0
  -27.6305  -33.0549   25.5380 C   0  0  1  0  0  0  0  0  0  0  0  0
  -26.6498  -36.7053   25.2512 C   0  0  2  0  0  0  0  0  0  0  0  0
  -28.1688  -32.4793   26.8783 C   0  0  0  0  0  0  0  0  0  0  0  0
  -27.2310  -22.6536   23.1186 N   0  0  0  0  0  0  0  0  0  0  0  0
  -26.5817  -23.7197   22.6208 N   0  0  0  0  0  0  0  0  0  0  0  0
  -27.7695  -31.8798   23.3646 N   0  0  0  0  0  0  0  0  0  0  0  0
  -24.7521  -24.9541   25.7413 N   0  0  0  0  0  0  0  0  0  0  0  0
  -26.0056  -24.8040   20.5952 N   0  0  0  0  0  0  0  0  0  0  0  0
  -26.7148  -21.5484   18.7810 N   0  0  0  0  0  0  0  0  0  0  0  0
  -19.7524  -25.0384   23.8998 N   0  0  0  0  0  0  0  0  0  0  0  0
  -29.5831  -29.1133   21.8305 N   0  0  0  0  0  0  0  0  0  0  0  0
  -27.5946  -34.5124   25.4852 N   0  0  0  0  0  0  0  0  0  0  0  0
  -22.6558  -23.8591   25.7437 N   0  0  0  0  0  0  0  0  0  0  0  0
  -26.3406  -37.2737   23.9087 N   0  3  0  0  0  0  0  0  0  0  0  0
  -28.6566  -22.7631   18.8938 O   0  0  0  0  0  0  0  0  0  0  0  0
  -28.3229  -29.4163   23.7651 O   0  0  0  0  0  0  0  0  0  0  0  0
  -29.6457  -32.9039   24.2959 O   0  0  0  0  0  0  0  0  0  0  0  0
  -25.3204  -34.6959   25.0713 O   0  0  0  0  0  0  0  0  0  0  0  0
  -22.9628  -25.7727   26.9687 O   0  0  0  0  0  0  0  0  0  0  0  0
  -30.6528  -17.3206   22.4880 O   0  0  0  0  0  0  0  0  0  0  0  0
  -22.3393  -30.0665   21.0672 O   0  0  0  0  0  0  0  0  0  1  0  0
  -33.4703  -15.6181   18.0645 F   0  0  0  0  0  0  0  0  0  0  0  0
  -33.4005  -17.0305   22.5818 F   0  0  0  0  0  0  0  0  0  0  0  0
  1  2  1  0  0  0  0
  1  5  2  0  0  0  0
  2  6  2  0  0  0  0
  3 10  2  0  0  0  0
  3 17  1  0  0  0  0
  4 11  1  0  0  0  0
  4 17  2  0  0  0  0
  5 19  1  0  0  0  0
  6 21  1  0  0  0  0
  7 12  2  0  0  0  0
  7 20  1  0  0  0  0
  8  9  2  0  0  0  0
  8 25  1  0  0  0  0
  9 26  1  0  0  0  0
 10 27  1  0  0  0  0
 11 27  2  0  0  0  0
 12 28  1  0  0  0  0
 13 14  2  0  0  0  0
 13 29  1  0  0  0  0
 14 30  1  0  0  0  0
 15 22  1  0  0  0  0
 15 28  2  0  0  0  0
 16 30  2  0  0  0  0
 16 31  1  0  0  0  0
 17 32  1  0  0  0  0
 18 32  1  0  0  0  0
 18 33  2  0  0  0  0
 18 34  1  0  0  0  0
 19 21  2  0  0  0  0
 19 39  1  0  0  0  0
 20 22  2  0  0  0  0
 20 40  1  0  0  0  0
 21 51  1  0  0  0  0
 22 43  1  0  0  0  0
 23 24  1  0  0  0  0
 23 25  2  0  0  0  0
 23 41  1  0  0  0  0
 24 26  2  0  0  0  0
 24 42  1  0  0  0  0
 25 59  1  0  0  0  0
 26 73  1  0  0  0  0
 27 83  1  0  0  0  0
 28 84  1  0  0  0  0
 29 31  2  0  0  0  0
 29 83  1  0  0  0  0
 30 85  1  0  0  0  0
 31 86  1  0  0  0  0
 32 67  2  0  0  0  0
 33 68  1  0  0  0  0
 33 71  1  0  0  0  0
 34 72  1  0  0  0  0
 34 78  2  0  0  0  0
 35 52  1  0  0  0  0
 35 74  1  0  0  0  0
 35 79  2  0  0  0  0
 36 64  1  0  0  0  0
 36 69  1  0  0  0  0
 36 80  2  0  0  0  0
 37 65  1  0  0  0  0
 37 75  1  0  0  0  0
 37 81  2  0  0  0  0
 38 70  1  0  0  0  0
 38 76  1  0  0  0  0
 38 82  2  0  0  0  0
 39 44  1  0  0  0  0
 40 52  1  0  0  0  0
 41 45  1  0  0  0  0
 42 45  1  0  0  0  0
 43 69  1  0  0  0  0
 44 47  1  0  0  0  0
 46 48  1  0  0  0  0
 46 49  1  0  0  0  0
 47 51  1  0  0  0  0
 48 53  1  0  0  0  0
 49 70  1  0  0  0  0
 50 53  1  0  0  0  0
 50 70  1  0  0  0  0
 51 74  1  0  0  0  0
 52 69  1  0  0  0  0
 53 68  1  0  0  0  0
 54 65  1  0  0  0  0
 55 66  1  0  0  0  0
 56 66  1  0  0  0  0
 57 66  1  0  0  0  0
 58 77  1  0  0  0  0
 59 63  1  0  0  0  0
 60 61  1  0  0  0  0
 60 62  1  0  0  0  0
 61 73  1  0  0  0  0
 62 76  1  0  0  0  0
 63 84  1  0  0  0  0
 64 66  1  0  0  0  0
 64 75  1  0  0  0  0
 65 77  1  0  0  0  0
 67 68  1  0  0  0  0
M  CHG  1  77   1
M  ISO  4  38 100  63 101  76 100  84 101
M  END
> <Batch ID>
0138

> <Smiles>
CNC(C)C(=O)NC(C(=O)N1Cc2cc([101O:1][101CH2:1]Cc3ccc(NCCC[100NH:0][100C:0](=O)N4CCCC(n5nc(-c6ccc(Oc7ccc(F)cc7F)cc6)c(C(N)=O)c5N)C4)c4c3CCC4)ccc2CC1C(=O)NC1CCCc2ccccc21)C(C)(C)C

> <Shape>
0.249

> <Color>
0.078

> <Negative vol penalty>
0.000

$$$$

  -OEChem-04052321083D

 93102  0     1  0  0  0  0  0999 V2000
  -29.3714  -38.4021   24.7776 C   0  0  0  0  0  0  0  0  0  0  0  0
  -29.7607  -37.1594   25.2669 C   0  0  0  0  0  0  0  0  0  0  0  0
  -23.0370   -9.9233   19.9175 C   0  0  0  0  0  0  0  0  0  0  0  0
  -23.9388   -9.8280   22.1569 C   0  0  0  0  0  0  0  0  0  0  0  0
  -28.4262  -38.4828   23.7558 C   0  0  0  0  0  0  0  0  0  0  0  0
  -29.2041  -35.9965   24.7355 C   0  0  0  0  0  0  0  0  0  0  0  0
  -31.9921  -30.5981   23.9679 C   0  0  0  0  0  0  0  0  0  0  0  0
  -31.7362  -21.2174   25.0152 C   0  0  0  0  0  0  0  0  0  0  0  0
  -22.3184   -8.7521   20.1570 C   0  0  0  0  0  0  0  0  0  0  0  0
  -23.2201   -8.6567   22.3964 C   0  0  0  0  0  0  0  0  0  0  0  0
  -31.9940  -29.4273   24.7250 C   0  0  0  0  0  0  0  0  0  0  0  0
  -32.3169  -22.4812   25.1205 C   0  0  0  0  0  0  0  0  0  0  0  0
  -20.0416   -7.7986   23.1589 C   0  0  0  0  0  0  0  0  0  0  0  0
  -19.3597   -7.6949   24.3712 C   0  0  0  0  0  0  0  0  0  0  0  0
  -30.2541  -28.5230   23.3200 C   0  0  0  0  0  0  0  0  0  0  0  0
  -30.0551  -22.1137   23.5294 C   0  0  0  0  0  0  0  0  0  0  0  0
  -20.6583   -5.7370   24.9343 C   0  0  0  0  0  0  0  0  0  0  0  0
  -23.8473  -10.4613   20.9174 C   0  0  0  0  0  0  0  0  0  0  0  0
  -24.1632  -12.9926   20.8990 C   0  0  0  0  0  0  0  0  0  0  0  0
  -27.8649  -37.3200   23.2050 C   0  0  0  0  0  0  0  0  0  0  0  0
  -31.1120  -30.7446   22.8861 C   0  0  0  0  0  0  0  0  0  0  0  0
  -28.2494  -36.0618   23.7064 C   0  0  0  0  0  0  0  0  0  0  0  0
  -30.2447  -29.6956   22.5492 C   0  0  0  0  0  0  0  0  0  0  0  0
  -30.6052  -21.0336   24.2196 C   0  0  0  0  0  0  0  0  0  0  0  0
  -30.6358  -23.3775   23.6348 C   0  0  0  0  0  0  0  0  0  0  0  0
  -22.4099   -8.1188   21.3964 C   0  0  0  0  0  0  0  0  0  0  0  0
  -31.1230  -28.3907   24.4029 C   0  0  0  0  0  0  0  0  0  0  0  0
  -31.7668  -23.5613   24.4303 C   0  0  0  0  0  0  0  0  0  0  0  0
  -21.0319   -6.8714   22.8342 C   0  0  0  0  0  0  0  0  0  0  0  0
  -19.6681   -6.6642   25.2590 C   0  0  0  0  0  0  0  0  0  0  0  0
  -21.3403   -5.8406   23.7219 C   0  0  0  0  0  0  0  0  0  0  0  0
  -24.5904  -11.6708   20.6705 C   0  0  0  0  0  0  0  0  0  0  0  0
  -25.2252  -13.7695   20.5053 C   0  0  0  0  0  0  0  0  0  0  0  0
  -22.9178  -13.4749   21.4205 C   0  0  0  0  0  0  0  0  0  0  0  0
  -28.7296  -32.7288   22.1854 C   0  0  0  0  0  0  0  0  0  0  0  0
  -28.7959  -31.1801   19.3359 C   0  0  0  0  0  0  0  0  0  0  0  0
  -29.6177  -28.3683   17.5851 C   0  0  0  0  0  0  0  0  0  0  0  0
  -30.8046  -14.6132   20.7253 C   0  0  0  0  0  0  0  0  0  0  0  0
  -26.8117  -37.4592   22.1344 C   0  0  0  0  0  0  0  0  0  0  0  0
  -31.1410  -32.0032   22.0629 C   0  0  0  0  0  0  0  0  0  0  0  0
  -29.2945  -29.7951   21.3849 C   0  0  0  0  0  0  0  0  0  0  0  0
  -26.5473  -36.1656   21.3683 C   0  0  0  0  0  0  0  0  0  0  0  0
  -29.4438  -12.5782   17.9866 C   0  0  0  0  0  0  0  0  0  0  0  0
  -26.3996  -34.9940   22.3339 C   0  0  0  0  0  0  0  0  0  0  0  0
  -28.0419  -12.2293   18.4880 C   0  0  0  0  0  0  0  0  0  0  0  0
  -29.0108  -17.4875   22.0330 C   0  0  0  0  0  0  0  0  0  0  0  0
  -30.4326  -12.7586   19.1359 C   0  0  0  0  0  0  0  0  0  0  0  0
  -28.8862  -16.0271   21.6159 C   0  0  0  0  0  0  0  0  0  0  0  0
  -28.5985  -13.3700   20.6680 C   0  0  0  0  0  0  0  0  0  0  0  0
  -27.6867  -34.7768   23.1387 C   0  0  1  0  0  0  0  0  0  0  0  0
  -29.8432  -32.2474   21.2989 C   0  0  1  0  0  0  0  0  0  0  0  0
  -27.5622  -13.2438   19.5426 C   0  0  2  0  0  0  0  0  0  0  0  0
  -30.1447  -17.4191   23.0435 C   0  0  1  0  0  0  0  0  0  0  0  0
  -31.1266  -16.4269   22.4171 C   0  0  1  0  0  0  0  0  0  0  0  0
  -30.0346  -24.5223   22.8880 C   0  0  0  0  0  0  0  0  0  0  0  0
  -30.4545  -12.1888   24.7711 C   0  0  0  0  0  0  0  0  0  0  0  0
  -29.5154  -27.3833   15.2793 C   0  0  0  0  0  0  0  0  0  0  0  0
  -32.1554  -15.2502   26.4453 C   0  0  0  0  0  0  0  0  0  0  0  0
  -25.8144  -30.6437   19.7000 C   0  0  0  0  0  0  0  0  0  0  0  0
  -25.9811  -28.8986   17.9125 C   0  0  0  0  0  0  0  0  0  0  0  0
  -26.4833  -31.2825   17.3764 C   0  0  0  0  0  0  0  0  0  0  0  0
  -32.5640  -28.1371   17.4273 C   0  0  0  0  0  0  0  0  0  0  0  0
  -29.9819  -19.6737   24.1056 C   0  0  0  0  0  0  0  0  0  0  0  0
  -31.9511  -15.6939   23.4687 C   0  0  0  0  0  0  0  0  0  0  0  0
  -30.8839  -13.1531   25.8690 C   0  0  0  0  0  0  0  0  0  0  0  0
  -32.3560  -26.8640   25.7463 C   0  0  0  0  0  0  0  0  0  1  0  0
  -32.4146  -25.3526   25.8542 C   0  0  0  0  0  0  0  0  0  0  0  0
  -28.1218  -29.9537   18.7698 C   0  0  1  0  0  0  0  0  0  0  0  0
  -30.3512  -28.1793   16.2695 C   0  0  2  0  0  0  0  0  0  0  0  0
  -31.7729  -14.2790   25.3366 C   0  0  1  0  0  0  0  0  0  0  0  0
  -26.6166  -30.1932   18.4629 C   0  0  0  0  0  0  0  0  0  0  0  0
  -25.8272  -11.6078   20.1703 N   0  0  0  0  0  0  0  0  0  0  0  0
  -26.1863  -12.8998   20.0811 N   0  0  0  0  0  0  0  0  0  0  0  0
  -29.3561  -31.0481   20.6144 N   0  0  0  0  0  0  0  0  0  0  0  0
  -29.9208  -13.7055   20.1267 N   0  0  0  0  0  0  0  0  0  0  0  0
  -30.2644  -15.5236   21.6385 N   0  0  0  0  0  0  0  0  0  0  0  0
  -25.4212  -15.1050   20.4840 N   0  0  0  0  0  0  0  0  0  0  0  0
  -21.9354  -12.5405   21.7755 N   0  0  0  0  0  0  0  0  0  0  0  0
  -28.6801  -34.1020   22.3310 N   0  0  0  0  0  0  0  0  0  0  0  0
  -28.9115  -29.5523   17.6105 N   0  0  0  0  0  0  0  0  0  0  0  0
  -30.7626  -18.7435   23.2386 N   0  3  0  0  0  0  0  0  0  0  0  0
  -31.6342  -27.4543   16.4913 N   0  3  0  0  0  0  0  0  0  0  0  0
  -22.6769  -14.6989   21.5520 O   0  0  0  0  0  0  0  0  0  0  0  0
  -27.9706  -31.9147   22.6980 O   0  0  0  0  0  0  0  0  0  0  0  0
  -28.8306  -32.2149   18.6654 O   0  0  0  0  0  0  0  0  0  0  0  0
  -29.6634  -27.5460   18.4973 O   0  0  0  0  0  0  0  0  0  0  0  0
  -32.0073  -14.6310   20.4342 O   0  0  0  0  0  0  0  0  0  0  0  0
  -21.7086   -6.9761   21.6305 O   0  0  0  0  0  0  0  0  0  0  0  0
  -31.1223  -27.2394   25.1457 O   0  0  0  0  0  0  0  0  0  1  0  0
  -32.3460  -24.7892   24.5459 O   0  0  0  0  0  0  0  0  0  0  0  0
  -31.0691  -14.9903   24.3249 O   0  0  0  0  0  0  0  0  0  0  0  0
  -19.0142   -6.5657   26.4238 F   0  0  0  0  0  0  0  0  0  0  0  0
  -22.2914   -4.9476   23.4161 F   0  0  0  0  0  0  0  0  0  0  0  0
  1  2  1  0  0  0  0
  1  5  2  0  0  0  0
  2  6  2  0  0  0  0
  3  9  2  0  0  0  0
  3 18  1  0  0  0  0
  4 10  1  0  0  0  0
  4 18  2  0  0  0  0
  5 20  1  0  0  0  0
  6 22  1  0  0  0  0
  7 11  2  0  0  0  0
  7 21  1  0  0  0  0
  8 12  2  0  0  0  0
  8 24  1  0  0  0  0
  9 26  1  0  0  0  0
 10 26  2  0  0  0  0
 11 27  1  0  0  0  0
 12 28  1  0  0  0  0
 13 14  2  0  0  0  0
 13 29  1  0  0  0  0
 14 30  1  0  0  0  0
 15 23  1  0  0  0  0
 15 27  2  0  0  0  0
 16 24  2  0  0  0  0
 16 25  1  0  0  0  0
 17 30  2  0  0  0  0
 17 31  1  0  0  0  0
 18 32  1  0  0  0  0
 19 32  1  0  0  0  0
 19 33  2  0  0  0  0
 19 34  1  0  0  0  0
 20 22  2  0  0  0  0
 20 39  1  0  0  0  0
 21 23  2  0  0  0  0
 21 40  1  0  0  0  0
 22 50  1  0  0  0  0
 23 41  1  0  0  0  0
 24 63  1  0  0  0  0
 25 28  2  0  0  0  0
 25 55  1  0  0  0  0
 26 88  1  0  0  0  0
 27 89  1  0  0  0  0
 28 90  1  0  0  0  0
 29 31  2  0  0  0  0
 29 88  1  0  0  0  0
 30 92  1  0  0  0  0
 31 93  1  0  0  0  0
 32 72  2  0  0  0  0
 33 73  1  0  0  0  0
 33 77  1  0  0  0  0
 34 78  1  0  0  0  0
 34 83  2  0  0  0  0
 35 51  1  0  0  0  0
 35 79  1  0  0  0  0
 35 84  2  0  0  0  0
 36 68  1  0  0  0  0
 36 74  1  0  0  0  0
 36 85  2  0  0  0  0
 37 69  1  0  0  0  0
 37 80  1  0  0  0  0
 37 86  2  0  0  0  0
 38 75  1  0  0  0  0
 38 76  1  0  0  0  0
 38 87  2  0  0  0  0
 39 42  1  0  0  0  0
 40 51  1  0  0  0  0
 41 74  1  0  0  0  0
 42 44  1  0  0  0  0
 43 45  1  0  0  0  0
 43 47  1  0  0  0  0
 44 50  1  0  0  0  0
 45 52  1  0  0  0  0
 46 48  1  0  0  0  0
 46 53  1  0  0  0  0
 47 75  1  0  0  0  0
 48 76  1  0  0  0  0
 49 52  1  0  0  0  0
 49 75  1  0  0  0  0
 50 79  1  0  0  0  0
 51 74  1  0  0  0  0
 52 73  1  0  0  0  0
 53 54  1  0  0  0  0
 53 81  1  0  0  0  0
 54 64  1  0  0  0  0
 54 76  1  0  0  0  0
 56 65  1  0  0  0  0
 57 69  1  0  0  0  0
 58 70  1  0  0  0  0
 59 71  1  0  0  0  0
 60 71  1  0  0  0  0
 61 71  1  0  0  0  0
 62 82  1  0  0  0  0
 63 81  1  0  0  0  0
 64 91  1  0  0  0  0
 65 70  1  0  0  0  0
 66 67  1  0  0  0  0
 66 89  1  0  0  0  0
 67 90  1  0  0  0  0
 68 71  1  0  0  0  0
 68 80  1  0  0  0  0
 69 82  1  0  0  0  0
 70 91  1  0  0  0  0
 72 73  1  0  0  0  0
M  CHG  2  81   1  82   1
M  ISO  4  38 100  66 101  76 100  89 101
M  END
> <Batch ID>
0138

> <Smiles>
CCC(C)OCC1C(NCc2ccc(OC[101CH2:1][101O:1]c3ccc4c(c3)CN(C(=O)C(NC(=O)C(C)NC)C(C)(C)C)C(C(=O)NC3CCCc5ccccc53)C4)c(C)c2)CC[100N:0]1[100C:0](=O)N1CCCC(n2nc(-c3ccc(Oc4ccc(F)cc4F)cc3)c(C(N)=O)c2N)C1

> <Shape>
0.217

> <Color>
0.174

> <Negative vol penalty>
0.000

$$$$

  -OEChem-04052321083D

 83 91  0     1  0  0  0  0  0999 V2000
  -22.4822  -35.1482   15.9824 C   0  0  0  0  0  0  0  0  0  0  0  0
  -23.1255  -33.9174   15.8996 C   0  0  0  0  0  0  0  0  0  0  0  0
  -24.0319   -9.7785   21.0532 C   0  0  0  0  0  0  0  0  0  0  0  0
  -24.4204  -10.6643   23.2671 C   0  0  0  0  0  0  0  0  0  0  0  0
  -22.6764  -35.9613   17.0982 C   0  0  0  0  0  0  0  0  0  0  0  0
  -23.9642  -33.4995   16.9323 C   0  0  0  0  0  0  0  0  0  0  0  0
  -24.7801  -27.7647   18.9203 C   0  0  0  0  0  0  0  0  0  0  0  0
  -23.5445   -8.5968   21.6115 C   0  0  0  0  0  0  0  0  0  0  0  0
  -23.9330   -9.4826   23.8254 C   0  0  0  0  0  0  0  0  0  0  0  0
  -25.7664  -26.8139   18.6620 C   0  0  0  0  0  0  0  0  0  0  0  0
  -20.6765   -7.5131   23.0372 C   0  0  0  0  0  0  0  0  0  0  0  0
  -19.5023   -6.9807   22.5049 C   0  0  0  0  0  0  0  0  0  0  0  0
  -26.9267  -27.4812   20.6690 C   0  0  0  0  0  0  0  0  0  0  0  0
  -28.2369  -19.5689   21.5948 C   0  0  0  0  0  0  0  0  0  0  0  0
  -20.6839   -4.9549   21.9244 C   0  0  0  0  0  0  0  0  0  0  0  0
  -24.4699  -10.8122   21.8810 C   0  0  0  0  0  0  0  0  0  0  0  0
  -24.2358  -13.1849   20.9737 C   0  0  0  0  0  0  0  0  0  0  0  0
  -23.5103  -35.5489   18.1494 C   0  0  0  0  0  0  0  0  0  0  0  0
  -24.8654  -28.5898   20.0509 C   0  0  0  0  0  0  0  0  0  0  0  0
  -24.1708  -34.3085   18.0626 C   0  0  0  0  0  0  0  0  0  0  0  0
  -25.9387  -28.4400   20.9407 C   0  0  0  0  0  0  0  0  0  0  0  0
  -28.3458  -20.9545   21.6336 C   0  0  0  0  0  0  0  0  0  0  0  0
  -29.5204  -21.5661   21.2100 C   0  0  0  0  0  0  0  0  0  0  0  0
  -23.4950   -8.4488   22.9976 C   0  0  0  0  0  0  0  0  0  0  0  0
  -26.8415  -26.6739   19.5349 C   0  0  0  0  0  0  0  0  0  0  0  0
  -21.8545   -6.7664   23.0131 C   0  0  0  0  0  0  0  0  0  0  0  0
  -19.5060   -5.7017   21.9485 C   0  0  0  0  0  0  0  0  0  0  0  0
  -21.8582   -5.4873   22.4567 C   0  0  0  0  0  0  0  0  0  0  0  0
  -24.9741  -12.0329   21.3049 C   0  0  0  0  0  0  0  0  0  0  0  0
  -30.5487  -20.7539   20.7599 C   0  0  0  0  0  0  0  0  0  0  0  0
  -29.3226  -18.8460   21.1273 C   0  0  0  0  0  0  0  0  0  0  0  0
  -25.1679  -14.0549   20.4630 C   0  0  0  0  0  0  0  0  0  0  0  0
  -22.8330  -13.4453   21.1152 C   0  0  0  0  0  0  0  0  0  0  0  0
  -25.1129  -31.7227   20.5281 C   0  0  0  0  0  0  0  0  0  0  0  0
  -28.9284  -23.7659   20.1142 C   0  0  0  0  0  0  0  0  0  0  0  0
  -24.7685  -30.8816   23.6420 C   0  0  0  0  0  0  0  0  0  0  0  0
  -25.0748  -28.4774   26.0446 C   0  0  0  0  0  0  0  0  0  0  0  0
  -30.1587  -16.5154   20.6632 C   0  0  0  0  0  0  0  0  0  0  0  0
  -23.7265  -36.4830   19.3137 C   0  0  0  0  0  0  0  0  0  0  0  0
  -23.7793  -29.5924   20.3295 C   0  0  0  0  0  0  0  0  0  0  0  0
  -26.0662  -29.2873   22.1793 C   0  0  0  0  0  0  0  0  0  0  0  0
  -24.3367  -35.8018   20.5359 C   0  0  0  0  0  0  0  0  0  0  0  0
  -29.9939  -13.3045   19.1335 C   0  0  0  0  0  0  0  0  0  0  0  0
  -25.5158  -34.9254   20.1256 C   0  0  0  0  0  0  0  0  0  0  0  0
  -28.6125  -12.7822   19.5348 C   0  0  0  0  0  0  0  0  0  0  0  0
  -30.6429  -14.1123   20.2560 C   0  0  0  0  0  0  0  0  0  0  0  0
  -28.4370  -14.6800   21.1945 C   0  0  0  0  0  0  0  0  0  0  0  0
  -25.0688  -33.8094   19.1737 C   0  0  1  0  0  0  0  0  0  0  0  0
  -24.2353  -30.7305   21.2374 C   0  0  1  0  0  0  0  0  0  0  0  0
  -27.7162  -13.9149   20.0726 C   0  0  2  0  0  0  0  0  0  0  0  0
  -27.1926  -21.7607   22.1330 C   0  0  0  0  0  0  0  0  0  0  0  0
  -31.8346  -21.3548   20.2935 C   0  0  0  0  0  0  0  0  0  0  0  0
  -24.7521  -28.0979   28.5041 C   0  0  0  0  0  0  0  0  0  0  0  0
  -27.3294  -32.4381   24.2157 C   0  0  0  0  0  0  0  0  0  0  0  0
  -27.4695  -31.2591   26.4199 C   0  0  0  0  0  0  0  0  0  0  0  0
  -25.5232  -32.7369   25.9194 C   0  0  0  0  0  0  0  0  0  0  0  0
  -23.0656  -26.3564   25.5716 C   0  0  0  0  0  0  0  0  0  0  0  0
  -29.6672  -23.0646   21.2395 C   0  0  0  0  0  0  0  0  0  0  0  0
  -28.4700  -25.1800   20.4135 C   0  0  0  0  0  0  0  0  0  1  0  0
  -25.7120  -30.4998   24.7569 C   0  0  1  0  0  0  0  0  0  0  0  0
  -24.1184  -28.0051   27.1247 C   0  0  2  0  0  0  0  0  0  0  0  0
  -26.5074  -31.7187   25.3037 C   0  0  0  0  0  0  0  0  0  0  0  0
  -26.2748  -12.1566   21.0277 N   0  0  0  0  0  0  0  0  0  0  0  0
  -30.4798  -19.4048   20.7075 N   0  0  0  0  0  0  0  0  0  0  0  0
  -26.3611  -13.3966   20.5169 N   0  0  0  0  0  0  0  0  0  0  0  0
  -24.9822  -30.2577   22.4047 N   0  0  0  0  0  0  0  0  0  0  0  0
  -29.7379  -15.1696   20.7120 N   0  0  0  0  0  0  0  0  0  0  0  0
  -25.0749  -15.3111   19.9775 N   0  0  0  0  0  0  0  0  0  0  0  0
  -22.0187  -12.4423   21.6586 N   0  0  0  0  0  0  0  0  0  0  0  0
  -29.2018  -17.4347   21.0918 N   0  0  0  0  0  0  0  0  0  0  0  0
  -24.4198  -32.7463   19.9106 N   0  0  0  0  0  0  0  0  0  0  0  0
  -24.9031  -29.8155   25.7598 N   0  0  0  0  0  0  0  0  0  0  0  0
  -23.7231  -26.5886   26.8834 N   0  3  0  0  0  0  0  0  0  0  0  0
  -22.3143  -14.5290   20.7548 O   0  0  0  0  0  0  0  0  0  0  0  0
  -26.3289  -31.5715   20.5413 O   0  0  0  0  0  0  0  0  0  0  0  0
  -28.7091  -23.2327   19.0272 O   0  0  0  0  0  0  0  0  0  0  0  0
  -23.8705  -31.6979   23.8628 O   0  0  0  0  0  0  0  0  0  0  0  0
  -25.8949  -27.7344   25.5098 O   0  0  0  0  0  0  0  0  0  0  0  0
  -31.2754  -16.8314   20.2445 O   0  0  0  0  0  0  0  0  0  0  0  0
  -23.0193   -7.2960   23.5427 O   0  0  0  0  0  0  0  0  0  0  0  0
  -27.8059  -25.7471   19.2848 O   0  0  0  0  0  0  0  0  0  1  0  0
  -18.3780   -5.1900   21.4387 F   0  0  0  0  0  0  0  0  0  0  0  0
  -22.9865   -4.7648   22.4317 F   0  0  0  0  0  0  0  0  0  0  0  0
  1  2  1  0  0  0  0
  1  5  2  0  0  0  0
  2  6  2  0  0  0  0
  3  8  2  0  0  0  0
  3 16  1  0  0  0  0
  4  9  1  0  0  0  0
  4 16  2  0  0  0  0
  5 18  1  0  0  0  0
  6 20  1  0  0  0  0
  7 10  2  0  0  0  0
  7 19  1  0  0  0  0
  8 24  1  0  0  0  0
  9 24  2  0  0  0  0
 10 25  1  0  0  0  0
 11 12  2  0  0  0  0
 11 26  1  0  0  0  0
 12 27  1  0  0  0  0
 13 21  1  0  0  0  0
 13 25  2  0  0  0  0
 14 22  2  0  0  0  0
 14 31  1  0  0  0  0
 15 27  2  0  0  0  0
 15 28  1  0  0  0  0
 16 29  1  0  0  0  0
 17 29  1  0  0  0  0
 17 32  2  0  0  0  0
 17 33  1  0  0  0  0
 18 20  2  0  0  0  0
 18 39  1  0  0  0  0
 19 21  2  0  0  0  0
 19 40  1  0  0  0  0
 20 48  1  0  0  0  0
 21 41  1  0  0  0  0
 22 23  1  0  0  0  0
 22 51  1  0  0  0  0
 23 30  2  0  0  0  0
 23 58  1  0  0  0  0
 24 80  1  0  0  0  0
 25 81  1  0  0  0  0
 26 28  2  0  0  0  0
 26 80  1  0  0  0  0
 27 82  1  0  0  0  0
 28 83  1  0  0  0  0
 29 63  2  0  0  0  0
 30 52  1  0  0  0  0
 30 64  1  0  0  0  0
 31 64  2  0  0  0  0
 31 70  1  0  0  0  0
 32 65  1  0  0  0  0
 32 68  1  0  0  0  0
 33 69  1  0  0  0  0
 33 74  2  0  0  0  0
 34 49  1  0  0  0  0
 34 71  1  0  0  0  0
 34 75  2  0  0  0  0
 35 58  1  0  0  0  0
 35 59  1  0  0  0  0
 35 76  2  0  0  0  0
 36 60  1  0  0  0  0
 36 66  1  0  0  0  0
 36 77  2  0  0  0  0
 37 61  1  0  0  0  0
 37 72  1  0  0  0  0
 37 78  2  0  0  0  0
 38 67  1  0  0  0  0
 38 70  1  0  0  0  0
 38 79  2  0  0  0  0
 39 42  1  0  0  0  0
 40 49  1  0  0  0  0
 41 66  1  0  0  0  0
 42 44  1  0  0  0  0
 43 45  1  0  0  0  0
 43 46  1  0  0  0  0
 44 48  1  0  0  0  0
 45 50  1  0  0  0  0
 46 67  1  0  0  0  0
 47 50  1  0  0  0  0
 47 67  1  0  0  0  0
 48 71  1  0  0  0  0
 49 66  1  0  0  0  0
 50 65  1  0  0  0  0
 53 61  1  0  0  0  0
 54 62  1  0  0  0  0
 55 62  1  0  0  0  0
 56 62  1  0  0  0  0
 57 73  1  0  0  0  0
 59 81  1  0  0  0  0
 60 62  1  0  0  0  0
 60 72  1  0  0  0  0
 61 73  1  0  0  0  0
 63 65  1  0  0  0  0
M  CHG  1  73   1
M  ISO  4  38 100  59 101  70 100  81 101
M  END
> <Batch ID>
0138

> <Smiles>
CNC(C)C(=O)NC(C(=O)N1Cc2cc([101O:1][101CH2:1]C(=O)Cc3c(C)cc([100NH:0][100C:0](=O)N4CCCC(n5nc(-c6ccc(Oc7ccc(F)cc7F)cc6)c(C(N)=O)c5N)C4)nc3C)ccc2CC1C(=O)NC1CCCc2ccccc21)C(C)(C)C

> <Shape>
0.317

> <Color>
0.188

> <Negative vol penalty>
0.000

$$$$

  -OEChem-04052321083D

 89 98  0     1  0  0  0  0  0999 V2000
  -33.2064  -30.9065   26.8391 C   0  0  0  0  0  0  0  0  0  0  0  0
  -33.4482  -29.5369   26.8030 C   0  0  0  0  0  0  0  0  0  0  0  0
  -23.0800   -9.8934   19.9755 C   0  0  0  0  0  0  0  0  0  0  0  0
  -23.9613   -9.8950   22.2250 C   0  0  0  0  0  0  0  0  0  0  0  0
  -32.4378  -31.5041   25.8410 C   0  0  0  0  0  0  0  0  0  0  0  0
  -32.9206  -28.7640   25.7692 C   0  0  0  0  0  0  0  0  0  0  0  0
  -35.5046  -23.8727   23.1417 C   0  0  0  0  0  0  0  0  0  0  0  0
  -22.3735   -8.7231   20.2532 C   0  0  0  0  0  0  0  0  0  0  0  0
  -23.2549   -8.7248   22.5027 C   0  0  0  0  0  0  0  0  0  0  0  0
  -35.3264  -22.5029   23.3303 C   0  0  0  0  0  0  0  0  0  0  0  0
  -23.0262   -5.4145   20.4794 C   0  0  0  0  0  0  0  0  0  0  0  0
  -23.0631   -4.3950   19.5282 C   0  0  0  0  0  0  0  0  0  0  0  0
  -33.7817  -22.4550   21.4780 C   0  0  0  0  0  0  0  0  0  0  0  0
  -20.6603   -4.5155   19.3060 C   0  0  0  0  0  0  0  0  0  0  0  0
  -23.8739  -10.4793   20.9615 C   0  0  0  0  0  0  0  0  0  0  0  0
  -24.1587  -13.0119   20.8490 C   0  0  0  0  0  0  0  0  0  0  0  0
  -31.9086  -30.7396   24.7893 C   0  0  0  0  0  0  0  0  0  0  0  0
  -34.8132  -24.5471   22.1251 C   0  0  0  0  0  0  0  0  0  0  0  0
  -32.1431  -29.3517   24.7569 C   0  0  0  0  0  0  0  0  0  0  0  0
  -33.9548  -23.8329   21.2770 C   0  0  0  0  0  0  0  0  0  0  0  0
  -22.4610   -8.1388   21.5167 C   0  0  0  0  0  0  0  0  0  0  0  0
  -34.4626  -21.7943   22.5002 C   0  0  0  0  0  0  0  0  0  0  0  0
  -21.8064   -5.9844   20.8441 C   0  0  0  0  0  0  0  0  0  0  0  0
  -21.8802   -3.9455   18.9415 C   0  0  0  0  0  0  0  0  0  0  0  0
  -20.6235   -5.5350   20.2573 C   0  0  0  0  0  0  0  0  0  0  0  0
  -24.6043  -11.6878   20.6751 C   0  0  0  0  0  0  0  0  0  0  0  0
  -25.2148  -13.7866   20.4355 C   0  0  0  0  0  0  0  0  0  0  0  0
  -22.9026  -13.4979   21.3403 C   0  0  0  0  0  0  0  0  0  0  0  0
  -32.6777  -26.9002   22.0445 C   0  0  0  0  0  0  0  0  0  0  0  0
  -33.1059  -26.6544   18.8384 C   0  0  0  0  0  0  0  0  0  0  0  0
  -34.0409  -24.7303   16.1795 C   0  0  0  0  0  0  0  0  0  0  0  0
  -30.7810  -14.7088   20.6738 C   0  0  0  0  0  0  0  0  0  0  0  0
  -31.0443  -31.4224   23.7590 C   0  0  0  0  0  0  0  0  0  0  0  0
  -35.0368  -26.0200   21.9178 C   0  0  0  0  0  0  0  0  0  0  0  0
  -33.2045  -24.5064   20.1581 C   0  0  0  0  0  0  0  0  0  0  0  0
  -30.8346  -30.5938   22.4942 C   0  0  0  0  0  0  0  0  0  0  0  0
  -28.7074  -16.3523   27.0353 C   0  0  0  0  0  0  0  0  0  0  0  0
  -29.4716  -12.5536   18.0027 C   0  0  0  0  0  0  0  0  0  0  0  0
  -30.4763  -29.1549   22.8520 C   0  0  0  0  0  0  0  0  0  0  0  0
  -29.0523  -15.1840   26.0886 C   0  0  0  0  0  0  0  0  0  0  0  0
  -29.0485  -17.3041   25.8700 C   0  0  0  0  0  0  0  0  0  0  0  0
  -28.0695  -12.2063   18.5044 C   0  0  0  0  0  0  0  0  0  0  0  0
  -29.4880  -18.0761   20.2514 C   0  0  0  0  0  0  0  0  0  0  0  0
  -30.4472  -12.7903   19.1532 C   0  0  0  0  0  0  0  0  0  0  0  0
  -29.1198  -16.5979   20.2944 C   0  0  0  0  0  0  0  0  0  0  0  0
  -28.5911  -13.4364   20.6441 C   0  0  0  0  0  0  0  0  0  0  0  0
  -31.6087  -28.4836   23.6385 C   0  0  1  0  0  0  0  0  0  0  0  0
  -33.8890  -26.7004   21.1781 C   0  0  1  0  0  0  0  0  0  0  0  0
  -29.9567  -16.1771   25.3131 C   0  0  0  0  0  0  0  0  0  0  0  0
  -27.5672  -13.2542   19.5149 C   0  0  2  0  0  0  0  0  0  0  0  0
  -30.2070  -18.2489   21.5798 C   0  0  1  0  0  0  0  0  0  0  0  0
  -31.0388  -16.9712   21.7084 C   0  0  1  0  0  0  0  0  0  0  0  0
  -34.2478  -24.7919   13.6793 C   0  0  0  0  0  0  0  0  0  0  0  0
  -32.7501  -15.2406   24.7953 C   0  0  0  0  0  0  0  0  0  0  0  0
  -30.0799  -26.3575   18.5832 C   0  0  0  0  0  0  0  0  0  0  0  0
  -30.4310  -25.4885   16.2616 C   0  0  0  0  0  0  0  0  0  0  0  0
  -31.1361  -27.8097   16.8425 C   0  0  0  0  0  0  0  0  0  0  0  0
  -30.3244  -20.7344   21.3651 C   0  0  0  0  0  0  0  0  0  0  0  0
  -36.9593  -24.2517   16.2931 C   0  0  0  0  0  0  0  0  0  0  0  0
  -29.9992  -16.0225   23.8072 C   0  0  0  0  0  0  0  0  0  0  0  0
  -35.3206  -18.2831   22.7416 C   0  0  0  0  0  0  0  0  0  0  0  0
  -33.8420  -16.2702   22.7690 C   0  0  0  0  0  0  0  0  0  0  0  0
  -35.3869  -19.7223   23.2132 C   0  0  0  0  0  0  0  0  0  1  0  0
  -32.4645  -25.8514   17.7327 C   0  0  1  0  0  0  0  0  0  0  0  0
  -34.9597  -25.0136   15.0047 C   0  0  2  0  0  0  0  0  0  0  0  0
  -31.2890  -16.5932   23.1636 C   0  0  1  0  0  0  0  0  0  0  0  0
  -32.5408  -15.6702   23.3353 C   0  0  2  0  0  0  0  0  0  0  0  0
  -31.0404  -26.3642   17.3772 C   0  0  0  0  0  0  0  0  0  0  0  0
  -25.8466  -11.6215   20.1890 N   0  0  0  0  0  0  0  0  0  0  0  0
  -26.1906  -12.9136   20.0537 N   0  0  0  0  0  0  0  0  0  0  0  0
  -33.4518  -25.9490   19.9997 N   0  0  0  0  0  0  0  0  0  0  0  0
  -29.9143  -13.7678   20.1023 N   0  0  0  0  0  0  0  0  0  0  0  0
  -30.2471  -15.9625   20.9864 N   0  0  0  0  0  0  0  0  0  0  0  0
  -25.3946  -15.1227   20.3649 N   0  0  0  0  0  0  0  0  0  0  0  0
  -21.9284  -12.5654   21.7219 N   0  0  0  0  0  0  0  0  0  0  0  0
  -32.6788  -28.0900   22.7472 N   0  0  0  0  0  0  0  0  0  0  0  0
  -33.4031  -25.8722   16.6159 N   0  0  0  0  0  0  0  0  0  0  0  0
  -31.0592  -19.4520   21.5696 N   0  3  0  0  0  0  0  0  0  0  0  0
  -36.1522  -24.1210   15.0528 N   0  3  0  0  0  0  0  0  0  0  0  0
  -34.0390  -17.6758   23.1954 N   0  3  0  0  0  0  0  0  0  0  0  0
  -22.6454  -14.7229   21.4227 O   0  0  0  0  0  0  0  0  0  0  0  0
  -31.8060  -26.0394   22.0721 O   0  0  0  0  0  0  0  0  0  0  0  0
  -33.2995  -27.8617   18.6750 O   0  0  0  0  0  0  0  0  0  0  0  0
  -33.9001  -23.6076   16.6594 O   0  0  0  0  0  0  0  0  0  0  0  0
  -31.9769  -14.4533   20.8639 O   0  0  0  0  0  0  0  0  0  0  0  0
  -21.7716   -6.9970   21.7880 O   0  0  0  0  0  0  0  0  0  0  0  0
  -34.2851  -20.4477   22.6838 O   0  0  0  0  0  0  0  0  0  1  0  0
  -21.9159   -2.9676   18.0268 F   0  0  0  0  0  0  0  0  0  0  0  0
  -19.4487   -6.0795   20.6027 F   0  0  0  0  0  0  0  0  0  0  0  0
  1  2  1  0  0  0  0
  1  5  2  0  0  0  0
  2  6  2  0  0  0  0
  3  8  2  0  0  0  0
  3 15  1  0  0  0  0
  4  9  1  0  0  0  0
  4 15  2  0  0  0  0
  5 17  1  0  0  0  0
  6 19  1  0  0  0  0
  7 10  2  0  0  0  0
  7 18  1  0  0  0  0
  8 21  1  0  0  0  0
  9 21  2  0  0  0  0
 10 22  1  0  0  0  0
 11 12  2  0  0  0  0
 11 23  1  0  0  0  0
 12 24  1  0  0  0  0
 13 20  1  0  0  0  0
 13 22  2  0  0  0  0
 14 24  2  0  0  0  0
 14 25  1  0  0  0  0
 15 26  1  0  0  0  0
 16 26  1  0  0  0  0
 16 27  2  0  0  0  0
 16 28  1  0  0  0  0
 17 19  2  0  0  0  0
 17 33  1  0  0  0  0
 18 20  2  0  0  0  0
 18 34  1  0  0  0  0
 19 47  1  0  0  0  0
 20 35  1  0  0  0  0
 21 86  1  0  0  0  0
 22 87  1  0  0  0  0
 23 25  2  0  0  0  0
 23 86  1  0  0  0  0
 24 88  1  0  0  0  0
 25 89  1  0  0  0  0
 26 69  2  0  0  0  0
 27 70  1  0  0  0  0
 27 74  1  0  0  0  0
 28 75  1  0  0  0  0
 28 81  2  0  0  0  0
 29 48  1  0  0  0  0
 29 76  1  0  0  0  0
 29 82  2  0  0  0  0
 30 64  1  0  0  0  0
 30 71  1  0  0  0  0
 30 83  2  0  0  0  0
 31 65  1  0  0  0  0
 31 77  1  0  0  0  0
 31 84  2  0  0  0  0
 32 72  1  0  0  0  0
 32 73  1  0  0  0  0
 32 85  2  0  0  0  0
 33 36  1  0  0  0  0
 34 48  1  0  0  0  0
 35 71  1  0  0  0  0
 36 39  1  0  0  0  0
 37 40  1  0  0  0  0
 37 41  1  0  0  0  0
 38 42  1  0  0  0  0
 38 44  1  0  0  0  0
 39 47  1  0  0  0  0
 40 49  1  0  0  0  0
 41 49  1  0  0  0  0
 42 50  1  0  0  0  0
 43 45  1  0  0  0  0
 43 51  1  0  0  0  0
 44 72  1  0  0  0  0
 45 73  1  0  0  0  0
 46 50  1  0  0  0  0
 46 72  1  0  0  0  0
 47 76  1  0  0  0  0
 48 71  1  0  0  0  0
 49 60  1  0  0  0  0
 50 70  1  0  0  0  0
 51 52  1  0  0  0  0
 51 78  1  0  0  0  0
 52 66  1  0  0  0  0
 52 73  1  0  0  0  0
 53 65  1  0  0  0  0
 54 67  1  0  0  0  0
 55 68  1  0  0  0  0
 56 68  1  0  0  0  0
 57 68  1  0  0  0  0
 58 78  1  0  0  0  0
 59 79  1  0  0  0  0
 60 66  1  0  0  0  0
 61 63  1  0  0  0  0
 61 80  1  0  0  0  0
 62 67  1  0  0  0  0
 62 80  1  0  0  0  0
 63 87  1  0  0  0  0
 64 68  1  0  0  0  0
 64 77  1  0  0  0  0
 65 79  1  0  0  0  0
 66 67  1  0  0  0  0
 69 70  1  0  0  0  0
M  CHG  3  78   1  79   1  80   1
M  ISO  4  32 100  63 101  73 100  87 101
M  END
> <Batch ID>
0138

> <Smiles>
CNC(C)C(=O)NC(C(=O)N1Cc2cc([101O:1][101CH2:1]CNCC(C)C(CC3CCC3)C3C(NC)CC[100N:0]3[100C:0](=O)N3CCCC(n4nc(-c5ccc(Oc6ccc(F)cc6F)cc5)c(C(N)=O)c4N)C3)ccc2CC1C(=O)NC1CCCc2ccccc21)C(C)(C)C

> <Shape>
0.187

> <Color>
0.165

> <Negative vol penalty>
0.000

$$$$

  -OEChem-04052321083D

 80 88  0     1  0  0  0  0  0999 V2000
  -23.7420  -32.9495   29.0764 C   0  0  0  0  0  0  0  0  0  0  0  0
  -24.6002  -32.6020   28.0380 C   0  0  0  0  0  0  0  0  0  0  0  0
  -27.0502  -12.9127   21.4993 C   0  0  0  0  0  0  0  0  0  0  0  0
  -26.6350  -13.9835   19.3737 C   0  0  0  0  0  0  0  0  0  0  0  0
  -22.5535  -32.2447   29.2624 C   0  0  0  0  0  0  0  0  0  0  0  0
  -24.2708  -31.5486   27.1857 C   0  0  0  0  0  0  0  0  0  0  0  0
  -25.5059  -31.1305   21.2020 C   0  0  0  0  0  0  0  0  0  0  0  0
  -26.3268  -11.7968   21.0785 C   0  0  0  0  0  0  0  0  0  0  0  0
  -25.9116  -12.8676   18.9529 C   0  0  0  0  0  0  0  0  0  0  0  0
  -26.5149  -30.4769   20.4959 C   0  0  0  0  0  0  0  0  0  0  0  0
  -23.0813  -10.9090   20.7576 C   0  0  0  0  0  0  0  0  0  0  0  0
  -22.1632  -10.3580   21.6515 C   0  0  0  0  0  0  0  0  0  0  0  0
  -30.7869  -22.7814   19.8342 C   0  0  0  0  0  0  0  0  0  0  0  0
  -25.0407  -28.6015   20.1373 C   0  0  0  0  0  0  0  0  0  0  0  0
  -29.1045  -24.2354   20.7507 C   0  0  0  0  0  0  0  0  0  0  0  0
  -23.3639   -8.2622   21.5926 C   0  0  0  0  0  0  0  0  0  0  0  0
  -31.2497  -23.8652   19.1055 C   0  0  0  0  0  0  0  0  0  0  0  0
  -27.2043  -14.0060   20.6469 C   0  0  0  0  0  0  0  0  0  0  0  0
  -29.3317  -15.3860   20.9255 C   0  0  0  0  0  0  0  0  0  0  0  0
  -22.2048  -31.1884   28.4061 C   0  0  0  0  0  0  0  0  0  0  0  0
  -24.2582  -30.5189   21.3906 C   0  0  0  0  0  0  0  0  0  0  0  0
  -23.0772  -30.8281   27.3613 C   0  0  0  0  0  0  0  0  0  0  0  0
  -24.0167  -29.2505   20.8439 C   0  0  0  0  0  0  0  0  0  0  0  0
  -29.6934  -22.9784   20.6701 C   0  0  0  0  0  0  0  0  0  0  0  0
  -25.7575  -11.7743   19.8053 C   0  0  0  0  0  0  0  0  0  0  0  0
  -26.2833  -29.2110   19.9659 C   0  0  0  0  0  0  0  0  0  0  0  0
  -24.1406  -10.1367   20.2811 C   0  0  0  0  0  0  0  0  0  0  0  0
  -22.3045   -9.0346   22.0690 C   0  0  0  0  0  0  0  0  0  0  0  0
  -24.2819   -8.8133   20.6986 C   0  0  0  0  0  0  0  0  0  0  0  0
  -27.9511  -15.1592   21.0812 C   0  0  0  0  0  0  0  0  0  0  0  0
  -29.6428  -25.2542   19.9812 C   0  0  0  0  0  0  0  0  0  0  0  0
  -29.5450  -16.6144   21.5018 C   0  0  0  0  0  0  0  0  0  0  0  0
  -30.3319  -14.5601   20.3146 C   0  0  0  0  0  0  0  0  0  0  0  0
  -22.5837  -29.5728   23.9214 C   0  0  0  0  0  0  0  0  0  0  0  0
  -20.2989  -28.9740   21.6980 C   0  0  0  0  0  0  0  0  0  0  0  0
  -19.5313  -28.2949   18.4428 C   0  0  0  0  0  0  0  0  0  0  0  0
  -28.1001  -21.9297   22.3157 C   0  0  0  0  0  0  0  0  0  0  0  0
  -20.9322  -30.4252   28.6757 C   0  0  0  0  0  0  0  0  0  0  0  0
  -23.1715  -31.2484   22.1317 C   0  0  0  0  0  0  0  0  0  0  0  0
  -22.6879  -28.5591   21.0011 C   0  0  0  0  0  0  0  0  0  0  0  0
  -20.4774  -29.5645   27.4998 C   0  0  0  0  0  0  0  0  0  0  0  0
  -26.5076  -19.4855   24.3570 C   0  0  0  0  0  0  0  0  0  0  0  0
  -21.6510  -28.7718   26.9331 C   0  0  0  0  0  0  0  0  0  0  0  0
  -26.8547  -18.1607   23.6739 C   0  0  0  0  0  0  0  0  0  0  0  0
  -26.2676  -20.6014   23.3416 C   0  0  0  0  0  0  0  0  0  0  0  0
  -27.6943  -19.4702   21.6821 C   0  0  0  0  0  0  0  0  0  0  0  0
  -22.7430  -29.7076   26.4007 C   0  0  1  0  0  0  0  0  0  0  0  0
  -22.1089  -30.3156   22.7046 C   0  0  1  0  0  0  0  0  0  0  0  0
  -28.0084  -18.3316   22.6663 C   0  0  2  0  0  0  0  0  0  0  0  0
  -17.5814  -27.8183   16.9368 C   0  0  0  0  0  0  0  0  0  0  0  0
  -20.1330  -26.1390   22.8138 C   0  0  0  0  0  0  0  0  0  0  0  0
  -18.9212  -25.4642   20.7295 C   0  0  0  0  0  0  0  0  0  0  0  0
  -17.9247  -27.1701   22.2526 C   0  0  0  0  0  0  0  0  0  0  0  0
  -20.0771  -30.6862   16.7867 C   0  0  0  0  0  0  0  0  0  0  0  0
  -29.4930  -27.6592   19.3341 C   0  0  0  0  0  0  0  0  0  0  0  0
  -28.6138  -28.8578   19.6497 C   0  0  0  0  0  0  0  0  0  1  0  0
  -19.9273  -27.7895   20.8390 C   0  0  1  0  0  0  0  0  0  0  0  0
  -18.4961  -28.8915   17.5064 C   0  0  2  0  0  0  0  0  0  0  0  0
  -19.2524  -26.6526   21.6572 C   0  0  0  0  0  0  0  0  0  0  0  0
  -30.7039  -25.1009   19.1576 N   0  0  0  0  0  0  0  0  0  0  0  0
  -27.3311  -16.1630   21.7074 N   0  0  0  0  0  0  0  0  0  0  0  0
  -28.3267  -17.0323   21.9504 N   0  0  0  0  0  0  0  0  0  0  0  0
  -21.6593  -29.3106   21.7392 N   0  0  0  0  0  0  0  0  0  0  0  0
  -27.4033  -20.7075   22.4230 N   0  0  0  0  0  0  0  0  0  0  0  0
  -30.6540  -17.3670   21.6635 N   0  0  0  0  0  0  0  0  0  0  0  0
  -29.9411  -13.3287   19.7714 N   0  0  0  0  0  0  0  0  0  0  0  0
  -29.1814  -21.9016   21.4356 N   0  0  0  0  0  0  0  0  0  0  0  0
  -29.0462  -26.5007   20.0731 N   0  0  0  0  0  0  0  0  0  0  0  0
  -22.3652  -30.2425   25.1102 N   0  0  0  0  0  0  0  0  0  0  0  0
  -19.1051  -28.3139   19.7540 N   0  0  0  0  0  0  0  0  0  0  0  0
  -19.1648  -29.5895   16.3721 N   0  3  0  0  0  0  0  0  0  0  0  0
  -31.5394  -14.8967   20.2669 O   0  0  0  0  0  0  0  0  0  0  0  0
  -23.1080  -28.4729   23.7914 O   0  0  0  0  0  0  0  0  0  0  0  0
  -19.4137  -29.5828   22.3042 O   0  0  0  0  0  0  0  0  0  0  0  0
  -20.6085  -27.8525   18.0499 O   0  0  0  0  0  0  0  0  0  0  0  0
  -27.7791  -22.9200   22.9776 O   0  0  0  0  0  0  0  0  0  0  0  0
  -25.0516  -10.6855   19.3942 O   0  0  0  0  0  0  0  0  0  0  0  0
  -27.2666  -28.5705   19.2769 O   0  0  0  0  0  0  0  0  0  1  0  0
  -21.4238   -8.5060   22.9287 F   0  0  0  0  0  0  0  0  0  0  0  0
  -25.2982   -8.0668   20.2452 F   0  0  0  0  0  0  0  0  0  0  0  0
  1  2  1  0  0  0  0
  1  5  2  0  0  0  0
  2  6  2  0  0  0  0
  3  8  2  0  0  0  0
  3 18  1  0  0  0  0
  4  9  1  0  0  0  0
  4 18  2  0  0  0  0
  5 20  1  0  0  0  0
  6 22  1  0  0  0  0
  7 10  2  0  0  0  0
  7 21  1  0  0  0  0
  8 25  1  0  0  0  0
  9 25  2  0  0  0  0
 10 26  1  0  0  0  0
 11 12  2  0  0  0  0
 11 27  1  0  0  0  0
 12 28  1  0  0  0  0
 13 17  2  0  0  0  0
 13 24  1  0  0  0  0
 14 23  1  0  0  0  0
 14 26  2  0  0  0  0
 15 24  2  0  0  0  0
 15 31  1  0  0  0  0
 16 28  2  0  0  0  0
 16 29  1  0  0  0  0
 17 60  1  0  0  0  0
 18 30  1  0  0  0  0
 19 30  1  0  0  0  0
 19 32  2  0  0  0  0
 19 33  1  0  0  0  0
 20 22  2  0  0  0  0
 20 38  1  0  0  0  0
 21 23  2  0  0  0  0
 21 39  1  0  0  0  0
 22 47  1  0  0  0  0
 23 40  1  0  0  0  0
 24 67  1  0  0  0  0
 25 77  1  0  0  0  0
 26 78  1  0  0  0  0
 27 29  2  0  0  0  0
 27 77  1  0  0  0  0
 28 79  1  0  0  0  0
 29 80  1  0  0  0  0
 30 61  2  0  0  0  0
 31 60  2  0  0  0  0
 31 68  1  0  0  0  0
 32 62  1  0  0  0  0
 32 65  1  0  0  0  0
 33 66  1  0  0  0  0
 33 72  2  0  0  0  0
 34 48  1  0  0  0  0
 34 69  1  0  0  0  0
 34 73  2  0  0  0  0
 35 57  1  0  0  0  0
 35 63  1  0  0  0  0
 35 74  2  0  0  0  0
 36 58  1  0  0  0  0
 36 70  1  0  0  0  0
 36 75  2  0  0  0  0
 37 64  1  0  0  0  0
 37 67  1  0  0  0  0
 37 76  2  0  0  0  0
 38 41  1  0  0  0  0
 39 48  1  0  0  0  0
 40 63  1  0  0  0  0
 41 43  1  0  0  0  0
 42 44  1  0  0  0  0
 42 45  1  0  0  0  0
 43 47  1  0  0  0  0
 44 49  1  0  0  0  0
 45 64  1  0  0  0  0
 46 49  1  0  0  0  0
 46 64  1  0  0  0  0
 47 69  1  0  0  0  0
 48 63  1  0  0  0  0
 49 62  1  0  0  0  0
 50 58  1  0  0  0  0
 51 59  1  0  0  0  0
 52 59  1  0  0  0  0
 53 59  1  0  0  0  0
 54 71  1  0  0  0  0
 55 56  1  0  0  0  0
 55 68  1  0  0  0  0
 56 78  1  0  0  0  0
 57 59  1  0  0  0  0
 57 70  1  0  0  0  0
 58 71  1  0  0  0  0
 61 62  1  0  0  0  0
M  CHG  1  71   1
M  ISO  4  37 100  56 101  67 100  78 101
M  END
> <Batch ID>
0138

> <Smiles>
CNC(C)C(=O)NC(C(=O)N1Cc2cc([101O:1][101CH2:1]CNc3cc([100NH:0][100C:0](=O)N4CCCC(n5nc(-c6ccc(Oc7ccc(F)cc7F)cc6)c(C(N)=O)c5N)C4)ccn3)ccc2CC1C(=O)NC1CCCc2ccccc21)C(C)(C)C

> <Shape>
0.270

> <Color>
0.081

> <Negative vol penalty>
0.000

$$$$

  -OEChem-04052321083D

 87 96  0     1  0  0  0  0  0999 V2000
  -18.8886  -13.1475   23.8044 C   0  0  0  0  0  0  0  0  0  0  0  0
  -19.8892  -12.4946   24.5170 C   0  0  0  0  0  0  0  0  0  0  0  0
  -22.8459  -10.1056   20.1091 C   0  0  0  0  0  0  0  0  0  0  0  0
  -24.2747   -9.5474   21.9756 C   0  0  0  0  0  0  0  0  0  0  0  0
  -18.8797  -14.5400   23.7340 C   0  0  0  0  0  0  0  0  0  0  0  0
  -20.8823  -13.2338   25.1587 C   0  0  0  0  0  0  0  0  0  0  0  0
  -23.6376  -11.8772   30.4572 C   0  0  0  0  0  0  0  0  0  0  0  0
  -22.1365   -8.9195   20.2973 C   0  0  0  0  0  0  0  0  0  0  0  0
  -23.5652   -8.3612   22.1639 C   0  0  0  0  0  0  0  0  0  0  0  0
  -24.8601  -11.2751   30.7515 C   0  0  0  0  0  0  0  0  0  0  0  0
  -20.6328   -7.4073   23.5464 C   0  0  0  0  0  0  0  0  0  0  0  0
  -20.2731   -7.0691   24.8509 C   0  0  0  0  0  0  0  0  0  0  0  0
  -25.8674  -13.4535   30.9948 C   0  0  0  0  0  0  0  0  0  0  0  0
  -33.0675  -10.7701   27.7156 C   0  0  0  0  0  0  0  0  0  0  0  0
  -30.8872  -11.7620   27.9315 C   0  0  0  0  0  0  0  0  0  0  0  0
  -21.5422   -5.0212   24.6699 C   0  0  0  0  0  0  0  0  0  0  0  0
  -23.9150  -10.4196   20.9482 C   0  0  0  0  0  0  0  0  0  0  0  0
  -24.1417  -12.9566   20.8085 C   0  0  0  0  0  0  0  0  0  0  0  0
  -19.8677  -15.2970   24.3832 C   0  0  0  0  0  0  0  0  0  0  0  0
  -23.5231  -13.2742   30.4188 C   0  0  0  0  0  0  0  0  0  0  0  0
  -20.8875  -14.6376   25.0958 C   0  0  0  0  0  0  0  0  0  0  0  0
  -24.6417  -14.0708   30.7024 C   0  0  0  0  0  0  0  0  0  0  0  0
  -32.1053  -11.6683   27.2677 C   0  0  0  0  0  0  0  0  0  0  0  0
  -22.4961   -8.0473   21.3247 C   0  0  0  0  0  0  0  0  0  0  0  0
  -25.9760  -12.0633   31.0175 C   0  0  0  0  0  0  0  0  0  0  0  0
  -21.4471   -6.5524   22.8035 C   0  0  0  0  0  0  0  0  0  0  0  0
  -20.7278   -5.8761   25.4127 C   0  0  0  0  0  0  0  0  0  0  0  0
  -21.9018   -5.3594   23.3654 C   0  0  0  0  0  0  0  0  0  0  0  0
  -24.6485  -11.6444   20.7540 C   0  0  0  0  0  0  0  0  0  0  0  0
  -32.7650   -9.9943   28.8230 C   0  0  0  0  0  0  0  0  0  0  0  0
  -30.6821  -10.9416   29.0291 C   0  0  0  0  0  0  0  0  0  0  0  0
  -25.2302  -13.7559   20.5580 C   0  0  0  0  0  0  0  0  0  0  0  0
  -22.8063  -13.4124   21.0630 C   0  0  0  0  0  0  0  0  0  0  0  0
  -22.7722  -15.4026   28.1805 C   0  0  0  0  0  0  0  0  0  0  0  0
  -22.9188  -17.4853   30.6631 C   0  0  0  0  0  0  0  0  0  0  0  0
  -24.1405  -18.2139   33.7653 C   0  0  0  0  0  0  0  0  0  0  0  0
  -31.1215  -12.9645   21.2772 C   0  0  0  0  0  0  0  0  0  0  0  0
  -19.8436  -16.7981   24.2392 C   0  0  0  0  0  0  0  0  0  0  0  0
  -22.1909  -13.9083   30.1260 C   0  0  0  0  0  0  0  0  0  0  0  0
  -24.5667  -15.5751   30.6938 C   0  0  0  0  0  0  0  0  0  0  0  0
  -20.7184  -17.5219   25.2595 C   0  0  0  0  0  0  0  0  0  0  0  0
  -32.6684  -14.9084   25.2002 C   0  0  0  0  0  0  0  0  0  0  0  0
  -29.4218  -13.7587   18.2512 C   0  0  0  0  0  0  0  0  0  0  0  0
  -32.3741  -14.0382   26.4203 C   0  0  0  0  0  0  0  0  0  0  0  0
  -22.0891  -16.8592   25.3532 C   0  0  0  0  0  0  0  0  0  0  0  0
  -27.9600  -13.4253   18.5544 C   0  0  0  0  0  0  0  0  0  0  0  0
  -31.7075  -14.6121   24.0509 C   0  0  0  0  0  0  0  0  0  0  0  0
  -31.4107  -12.2487   24.9019 C   0  0  0  0  0  0  0  0  0  0  0  0
  -30.3763  -12.7737   18.9225 C   0  0  0  0  0  0  0  0  0  0  0  0
  -28.7191  -12.2812   20.6789 C   0  0  0  0  0  0  0  0  0  0  0  0
  -32.3839  -12.5432   26.0587 C   0  0  2  0  0  0  0  0  0  0  0  0
  -21.9679  -15.4055   25.8260 C   0  0  1  0  0  0  0  0  0  0  0  0
  -22.3106  -15.3386   29.6090 C   0  0  1  0  0  0  0  0  0  0  0  0
  -27.7206  -13.2800   20.0693 C   0  0  2  0  0  0  0  0  0  0  0  0
  -31.7140  -13.1261   23.6818 C   0  0  1  0  0  0  0  0  0  0  0  0
  -33.7741   -9.0196   29.3315 C   0  0  0  0  0  0  0  0  0  0  0  0
  -24.1161  -20.0069   35.5208 C   0  0  0  0  0  0  0  0  0  0  0  0
  -24.8684  -19.1391   28.9977 C   0  0  0  0  0  0  0  0  0  0  0  0
  -25.5236  -20.3465   31.0908 C   0  0  0  0  0  0  0  0  0  0  0  0
  -23.1756  -20.4801   30.2590 C   0  0  0  0  0  0  0  0  0  0  0  0
  -22.9009  -16.4091   35.7565 C   0  0  0  0  0  0  0  0  0  0  0  0
  -28.9269  -10.0196   30.5440 C   0  0  0  0  0  0  0  0  0  0  0  0
  -27.4284  -10.2046   30.7146 C   0  0  0  0  0  0  0  0  0  1  0  0
  -24.0044  -18.3259   31.2907 C   0  0  1  0  0  0  0  0  0  0  0  0
  -23.4598  -18.7296   35.0203 C   0  0  2  0  0  0  0  0  0  0  0  0
  -24.3952  -19.5446   30.4079 C   0  0  0  0  0  0  0  0  0  0  0  0
  -25.9572  -11.6077   20.4894 N   0  0  0  0  0  0  0  0  0  0  0  0
  -31.5929  -10.0571   29.4937 N   0  0  0  0  0  0  0  0  0  0  0  0
  -26.2819  -12.9069   20.3754 N   0  0  0  0  0  0  0  0  0  0  0  0
  -23.2435  -16.1478   30.3958 N   0  0  0  0  0  0  0  0  0  0  0  0
  -30.0975  -12.6836   20.3578 N   0  0  0  0  0  0  0  0  0  0  0  0
  -25.3808  -15.0950   20.4782 N   0  0  0  0  0  0  0  0  0  0  0  0
  -21.8084  -12.4574   21.3010 N   0  0  0  0  0  0  0  0  0  0  0  0
  -29.4640  -11.0458   29.6801 N   0  0  0  0  0  0  0  0  0  0  0  0
  -21.7469  -15.3557   27.2553 N   0  0  0  0  0  0  0  0  0  0  0  0
  -23.5267  -18.6815   32.6225 N   0  0  0  0  0  0  0  0  0  0  0  0
  -30.7711  -12.8618   22.6179 N   0  0  0  0  0  0  0  0  0  0  0  0
  -23.5302  -17.7092   36.1042 N   0  3  0  0  0  0  0  0  0  0  0  0
  -22.5036  -14.6297   21.0627 O   0  0  0  0  0  0  0  0  0  0  0  0
  -23.9698  -15.4897   27.9359 O   0  0  0  0  0  0  0  0  0  0  0  0
  -21.8207  -17.9947   30.4256 O   0  0  0  0  0  0  0  0  0  0  0  0
  -25.1211  -17.4736   33.7955 O   0  0  0  0  0  0  0  0  0  0  0  0
  -32.2621  -13.2885   20.9292 O   0  0  0  0  0  0  0  0  0  0  0  0
  -21.8040   -6.8899   21.5088 O   0  0  0  0  0  0  0  0  0  0  0  0
  -27.1707  -11.4782   31.3044 O   0  0  0  0  0  0  0  0  0  1  0  0
  -20.3836   -5.5522   26.6660 F   0  0  0  0  0  0  0  0  0  0  0  0
  -22.6854   -4.5346   22.6571 F   0  0  0  0  0  0  0  0  0  0  0  0
  1  2  1  0  0  0  0
  1  5  2  0  0  0  0
  2  6  2  0  0  0  0
  3  8  2  0  0  0  0
  3 17  1  0  0  0  0
  4  9  1  0  0  0  0
  4 17  2  0  0  0  0
  5 19  1  0  0  0  0
  6 21  1  0  0  0  0
  7 10  2  0  0  0  0
  7 20  1  0  0  0  0
  8 24  1  0  0  0  0
  9 24  2  0  0  0  0
 10 25  1  0  0  0  0
 11 12  2  0  0  0  0
 11 26  1  0  0  0  0
 12 27  1  0  0  0  0
 13 22  1  0  0  0  0
 13 25  2  0  0  0  0
 14 23  1  0  0  0  0
 14 30  2  0  0  0  0
 15 23  2  0  0  0  0
 15 31  1  0  0  0  0
 16 27  2  0  0  0  0
 16 28  1  0  0  0  0
 17 29  1  0  0  0  0
 18 29  1  0  0  0  0
 18 32  2  0  0  0  0
 18 33  1  0  0  0  0
 19 21  2  0  0  0  0
 19 38  1  0  0  0  0
 20 22  2  0  0  0  0
 20 39  1  0  0  0  0
 21 52  1  0  0  0  0
 22 40  1  0  0  0  0
 23 51  1  0  0  0  0
 24 84  1  0  0  0  0
 25 85  1  0  0  0  0
 26 28  2  0  0  0  0
 26 84  1  0  0  0  0
 27 86  1  0  0  0  0
 28 87  1  0  0  0  0
 29 67  2  0  0  0  0
 30 56  1  0  0  0  0
 30 68  1  0  0  0  0
 31 68  2  0  0  0  0
 31 74  1  0  0  0  0
 32 69  1  0  0  0  0
 32 72  1  0  0  0  0
 33 73  1  0  0  0  0
 33 79  2  0  0  0  0
 34 53  1  0  0  0  0
 34 75  1  0  0  0  0
 34 80  2  0  0  0  0
 35 64  1  0  0  0  0
 35 70  1  0  0  0  0
 35 81  2  0  0  0  0
 36 65  1  0  0  0  0
 36 76  1  0  0  0  0
 36 82  2  0  0  0  0
 37 71  1  0  0  0  0
 37 77  1  0  0  0  0
 37 83  2  0  0  0  0
 38 41  1  0  0  0  0
 39 53  1  0  0  0  0
 40 70  1  0  0  0  0
 41 45  1  0  0  0  0
 42 44  1  0  0  0  0
 42 47  1  0  0  0  0
 43 46  1  0  0  0  0
 43 49  1  0  0  0  0
 44 51  1  0  0  0  0
 45 52  1  0  0  0  0
 46 54  1  0  0  0  0
 47 55  1  0  0  0  0
 48 51  1  0  0  0  0
 48 55  1  0  0  0  0
 49 71  1  0  0  0  0
 50 54  1  0  0  0  0
 50 71  1  0  0  0  0
 52 75  1  0  0  0  0
 53 70  1  0  0  0  0
 54 69  1  0  0  0  0
 55 77  1  0  0  0  0
 57 65  1  0  0  0  0
 58 66  1  0  0  0  0
 59 66  1  0  0  0  0
 60 66  1  0  0  0  0
 61 78  1  0  0  0  0
 62 63  1  0  0  0  0
 62 74  1  0  0  0  0
 63 85  1  0  0  0  0
 64 66  1  0  0  0  0
 64 76  1  0  0  0  0
 65 78  1  0  0  0  0
 67 69  1  0  0  0  0
M  CHG  1  78   1
M  ISO  4  37 100  63 101  77 100  85 101
M  END
> <Batch ID>
0138

> <Smiles>
CNC(C)C(=O)NC(C(=O)N1Cc2cc([101O:1][101CH2:1]CNc3cc(C4CCCC([100NH:0][100C:0](=O)N5CCCC(n6nc(-c7ccc(Oc8ccc(F)cc8F)cc7)c(C(N)=O)c6N)C5)C4)cc(C)n3)ccc2CC1C(=O)NC1CCCc2ccccc21)C(C)(C)C

> <Shape>
0.151

> <Color>
0.174

> <Negative vol penalty>
0.000

$$$$

  -OEChem-04052321083D

 86 95  0     1  0  0  0  0  0999 V2000
  -31.0394  -21.7663   16.2473 C   0  0  0  0  0  0  0  0  0  0  0  0
  -30.7265  -21.9171   17.5945 C   0  0  0  0  0  0  0  0  0  0  0  0
  -24.2964  -12.8007   21.4827 C   0  0  0  0  0  0  0  0  0  0  0  0
  -26.1183  -12.8810   19.8981 C   0  0  0  0  0  0  0  0  0  0  0  0
  -31.0349  -22.8760   15.4033 C   0  0  0  0  0  0  0  0  0  0  0  0
  -30.4099  -23.1781   18.0986 C   0  0  0  0  0  0  0  0  0  0  0  0
  -26.3647  -23.0934   21.1440 C   0  0  0  0  0  0  0  0  0  0  0  0
  -24.3261  -11.4067   21.4463 C   0  0  0  0  0  0  0  0  0  0  0  0
  -26.1481  -11.4869   19.8617 C   0  0  0  0  0  0  0  0  0  0  0  0
  -26.5566  -22.6295   22.4447 C   0  0  0  0  0  0  0  0  0  0  0  0
  -23.2450   -8.9453   19.3976 C   0  0  0  0  0  0  0  0  0  0  0  0
  -22.0266   -8.2743   19.2937 C   0  0  0  0  0  0  0  0  0  0  0  0
  -26.6443  -24.9062   23.2372 C   0  0  0  0  0  0  0  0  0  0  0  0
  -22.4631   -7.1567   21.3907 C   0  0  0  0  0  0  0  0  0  0  0  0
  -25.1925  -13.5379   20.7085 C   0  0  0  0  0  0  0  0  0  0  0  0
  -24.0829  -15.8144   20.4015 C   0  0  0  0  0  0  0  0  0  0  0  0
  -30.7087  -24.1496   15.8953 C   0  0  0  0  0  0  0  0  0  0  0  0
  -26.3221  -24.4696   20.8781 C   0  0  0  0  0  0  0  0  0  0  0  0
  -30.4023  -24.3061   17.2606 C   0  0  0  0  0  0  0  0  0  0  0  0
  -26.4492  -25.3849   21.9326 C   0  0  0  0  0  0  0  0  0  0  0  0
  -25.2520  -10.7498   20.6359 C   0  0  0  0  0  0  0  0  0  0  0  0
  -26.6993  -23.5360   23.4911 C   0  0  0  0  0  0  0  0  0  0  0  0
  -24.0725   -8.7219   20.4981 C   0  0  0  0  0  0  0  0  0  0  0  0
  -21.6356   -7.3800   20.2902 C   0  0  0  0  0  0  0  0  0  0  0  0
  -23.6815   -7.8277   21.4947 C   0  0  0  0  0  0  0  0  0  0  0  0
  -25.1618  -14.9780   20.7452 C   0  0  0  0  0  0  0  0  0  0  0  0
  -24.5564  -17.0873   20.6063 C   0  0  0  0  0  0  0  0  0  0  0  0
  -27.1558  -22.2691   28.8375 C   0  0  0  0  0  0  0  0  0  0  0  0
  -26.8050  -22.4681   27.4433 C   0  0  0  0  0  0  0  0  0  0  0  0
  -28.5384  -21.2653   30.5883 C   0  0  0  0  0  0  0  0  0  0  0  0
  -29.1773  -20.0963   30.7608 C   0  0  0  0  0  0  0  0  0  0  0  0
  -28.3261  -21.7408   29.2334 C   0  0  0  0  0  0  0  0  0  0  0  0
  -26.6491  -21.4867   26.5255 C   0  0  0  0  0  0  0  0  0  0  0  0
  -22.7700  -15.4713   19.9386 C   0  0  0  0  0  0  0  0  0  0  0  0
  -28.0710  -26.4732   19.1373 C   0  0  0  0  0  0  0  0  0  0  0  0
  -25.7632  -28.5952   19.9699 C   0  0  0  0  0  0  0  0  0  0  0  0
  -23.3101  -29.4947   22.1654 C   0  0  0  0  0  0  0  0  0  0  0  0
  -28.8629  -19.3202   24.1161 C   0  0  0  0  0  0  0  0  0  0  0  0
  -30.7632  -25.3271   14.9544 C   0  0  0  0  0  0  0  0  0  0  0  0
  -26.0877  -24.9535   19.4734 C   0  0  0  0  0  0  0  0  0  0  0  0
  -26.3905  -26.8723   21.7030 C   0  0  0  0  0  0  0  0  0  0  0  0
  -26.7364  -19.9942   26.8370 C   0  0  0  0  0  0  0  0  0  0  0  0
  -30.0514  -26.5673   15.4889 C   0  0  0  0  0  0  0  0  0  0  0  0
  -28.6135  -19.6230   20.5774 C   0  0  0  0  0  0  0  0  0  0  0  0
  -30.4442  -26.8244   16.9402 C   0  0  0  0  0  0  0  0  0  0  0  0
  -27.6033  -18.5423   20.1881 C   0  0  0  0  0  0  0  0  0  0  0  0
  -29.5083  -19.1705   21.7292 C   0  0  0  0  0  0  0  0  0  0  0  0
  -27.7762  -17.6132   22.5345 C   0  0  0  0  0  0  0  0  0  0  0  0
  -28.5961  -18.2389   27.4172 C   0  0  0  0  0  0  0  0  0  0  0  0
  -30.2757  -20.4726   28.6408 C   0  0  0  0  0  0  0  0  0  0  0  0
  -30.0294  -25.6536   17.8397 C   0  0  1  0  0  0  0  0  0  0  0  0
  -29.6947  -19.3817   29.5363 C   0  0  2  0  0  0  0  0  0  0  0  0
  -26.5751  -26.3808   19.2440 C   0  0  1  0  0  0  0  0  0  0  0  0
  -26.8144  -18.0444   21.4141 C   0  0  2  0  0  0  0  0  0  0  0  0
  -28.1007  -19.3587   26.4776 C   0  0  1  0  0  0  0  0  0  0  0  0
  -24.8082  -21.9237   24.8997 C   0  0  0  0  0  0  0  0  0  0  0  0
  -21.6227  -31.2999   22.6025 C   0  0  0  0  0  0  0  0  0  0  0  0
  -27.9854  -30.4234   20.9844 C   0  0  0  0  0  0  0  0  0  0  0  0
  -26.2494  -31.7239   22.2348 C   0  0  0  0  0  0  0  0  0  0  0  0
  -26.1555  -31.5942   19.7454 C   0  0  0  0  0  0  0  0  0  0  0  0
  -21.0502  -27.5968   21.9427 C   0  0  0  0  0  0  0  0  0  0  0  0
  -26.3082  -21.8290   25.1001 C   0  0  1  0  0  0  0  0  0  1  0  0
  -25.5573  -29.5558   21.1162 C   0  0  1  0  0  0  0  0  0  0  0  0
  -21.8797  -29.9528   21.9453 C   0  0  2  0  0  0  0  0  0  0  0  0
  -26.4900  -30.7964   21.0245 C   0  0  0  0  0  0  0  0  0  0  0  0
  -26.2396  -15.6620   21.1383 N   0  0  0  0  0  0  0  0  0  0  0  0
  -25.8403  -16.9416   21.0428 N   0  0  0  0  0  0  0  0  0  0  0  0
  -26.1659  -27.2962   20.3111 N   0  0  0  0  0  0  0  0  0  0  0  0
  -28.6986  -18.7121   22.8606 N   0  0  0  0  0  0  0  0  0  0  0  0
  -23.9956  -18.3057   20.4536 N   0  0  0  0  0  0  0  0  0  0  0  0
  -22.5587  -15.3497   18.5584 N   0  0  0  0  0  0  0  0  0  0  0  0
  -28.6107  -25.7095   18.1199 N   0  0  0  0  0  0  0  0  0  0  0  0
  -24.1344  -29.8776   21.1285 N   0  0  0  0  0  0  0  0  0  0  0  0
  -28.0519  -18.8303   25.1326 N   0  0  0  0  0  0  0  0  0  0  0  0
  -28.5813  -18.5881   28.8770 N   0  3  0  0  0  0  0  0  0  0  0  0
  -20.9246  -28.9614   22.5163 N   0  3  0  0  0  0  0  0  0  0  0  0
  -21.8086  -15.2944   20.7248 O   0  0  0  0  0  0  0  0  0  0  0  0
  -28.6897  -27.1857   19.9191 O   0  0  0  0  0  0  0  0  0  0  0  0
  -25.5668  -28.9810   18.8148 O   0  0  0  0  0  0  0  0  0  0  0  0
  -23.6619  -28.8637   23.1597 O   0  0  0  0  0  0  0  0  0  0  0  0
  -29.6686  -20.2358   24.3151 O   0  0  0  0  0  0  0  0  0  0  0  0
  -29.3189  -21.4800   28.2983 O   0  0  0  0  0  0  0  0  0  0  0  0
  -25.2815   -9.3895   20.6003 O   0  0  0  0  0  0  0  0  0  0  0  0
  -26.8888  -23.0825   24.7712 O   0  0  0  0  0  0  0  0  0  1  0  0
  -20.4648   -6.7369   20.1910 F   0  0  0  0  0  0  0  0  0  0  0  0
  -24.4718   -7.6099   22.5548 F   0  0  0  0  0  0  0  0  0  0  0  0
  1  2  1  0  0  0  0
  1  5  2  0  0  0  0
  2  6  2  0  0  0  0
  3  8  2  0  0  0  0
  3 15  1  0  0  0  0
  4  9  1  0  0  0  0
  4 15  2  0  0  0  0
  5 17  1  0  0  0  0
  6 19  1  0  0  0  0
  7 10  2  0  0  0  0
  7 18  1  0  0  0  0
  8 21  1  0  0  0  0
  9 21  2  0  0  0  0
 10 22  1  0  0  0  0
 11 12  2  0  0  0  0
 11 23  1  0  0  0  0
 12 24  1  0  0  0  0
 13 20  1  0  0  0  0
 13 22  2  0  0  0  0
 14 24  2  0  0  0  0
 14 25  1  0  0  0  0
 15 26  1  0  0  0  0
 16 26  1  0  0  0  0
 16 27  2  0  0  0  0
 16 34  1  0  0  0  0
 17 19  2  0  0  0  0
 17 39  1  0  0  0  0
 18 20  2  0  0  0  0
 18 40  1  0  0  0  0
 19 51  1  0  0  0  0
 20 41  1  0  0  0  0
 21 83  1  0  0  0  0
 22 84  1  0  0  0  0
 23 25  2  0  0  0  0
 23 83  1  0  0  0  0
 24 85  1  0  0  0  0
 25 86  1  0  0  0  0
 26 66  2  0  0  0  0
 27 67  1  0  0  0  0
 27 70  1  0  0  0  0
 28 29  1  0  0  0  0
 28 32  2  0  0  0  0
 29 33  2  0  0  0  0
 30 31  2  0  0  0  0
 30 32  1  0  0  0  0
 31 52  1  0  0  0  0
 32 82  1  0  0  0  0
 33 42  1  0  0  0  0
 33 62  1  0  0  0  0
 34 71  1  0  0  0  0
 34 77  2  0  0  0  0
 35 53  1  0  0  0  0
 35 72  1  0  0  0  0
 35 78  2  0  0  0  0
 36 63  1  0  0  0  0
 36 68  1  0  0  0  0
 36 79  2  0  0  0  0
 37 64  1  0  0  0  0
 37 73  1  0  0  0  0
 37 80  2  0  0  0  0
 38 69  1  0  0  0  0
 38 74  1  0  0  0  0
 38 81  2  0  0  0  0
 39 43  1  0  0  0  0
 40 53  1  0  0  0  0
 41 68  1  0  0  0  0
 42 55  1  0  0  0  0
 43 45  1  0  0  0  0
 44 46  1  0  0  0  0
 44 47  1  0  0  0  0
 45 51  1  0  0  0  0
 46 54  1  0  0  0  0
 47 69  1  0  0  0  0
 48 54  1  0  0  0  0
 48 69  1  0  0  0  0
 49 55  1  0  0  0  0
 49 75  1  0  0  0  0
 50 52  1  0  0  0  0
 50 82  1  0  0  0  0
 51 72  1  0  0  0  0
 52 75  1  0  0  0  0
 53 68  1  0  0  0  0
 54 67  1  0  0  0  0
 55 74  1  0  0  0  0
 56 62  1  0  0  0  0
 57 64  1  0  0  0  0
 58 65  1  0  0  0  0
 59 65  1  0  0  0  0
 60 65  1  0  0  0  0
 61 76  1  0  0  0  0
 62 84  1  0  0  0  0
 63 65  1  0  0  0  0
 63 73  1  0  0  0  0
 64 76  1  0  0  0  0
 66 67  1  0  0  0  0
M  CHG  2  75   1  76   1
M  ISO  4  38 100  62 101  74 100  84 101
M  END
> <Batch ID>
0138

> <Smiles>
CNC(C)C(=O)NC(C(=O)N1Cc2cc([101O:1][101CH:1](C)C3=CC=C4C=CC(CO4)NCC([100NH:0][100C:0](=O)N4CCCC(n5nc(-c6ccc(Oc7ccc(F)cc7F)cc6)c(C(N)=O)c5N)C4)C3)ccc2CC1C(=O)NC1CCCc2ccccc21)C(C)(C)C

> <Shape>
0.212

> <Color>
0.073

> <Negative vol penalty>
0.000

$$$$

  -OEChem-04052321083D

 81 89  0     1  0  0  0  0  0999 V2000
  -17.8391  -32.7050   23.8724 C   0  0  0  0  0  0  0  0  0  0  0  0
  -19.0825  -32.9943   23.3195 C   0  0  0  0  0  0  0  0  0  0  0  0
  -23.2252  -12.3138   20.6738 C   0  0  0  0  0  0  0  0  0  0  0  0
  -25.4721  -12.1434   21.5454 C   0  0  0  0  0  0  0  0  0  0  0  0
  -17.6144  -31.4654   24.4696 C   0  0  0  0  0  0  0  0  0  0  0  0
  -20.1023  -32.0443   23.3645 C   0  0  0  0  0  0  0  0  0  0  0  0
  -25.7384  -29.7218   19.6018 C   0  0  0  0  0  0  0  0  0  0  0  0
  -23.1037  -10.9249   20.7155 C   0  0  0  0  0  0  0  0  0  0  0  0
  -25.3506  -10.7545   21.5871 C   0  0  0  0  0  0  0  0  0  0  0  0
  -27.0994  -29.4593   19.7519 C   0  0  0  0  0  0  0  0  0  0  0  0
  -22.5028   -8.5457   23.0417 C   0  0  0  0  0  0  0  0  0  0  0  0
  -21.3232   -8.0135   23.5621 C   0  0  0  0  0  0  0  0  0  0  0  0
  -26.5722  -27.3222   20.7389 C   0  0  0  0  0  0  0  0  0  0  0  0
  -20.8904   -6.9127   21.4554 C   0  0  0  0  0  0  0  0  0  0  0  0
  -24.4095  -12.9231   21.0887 C   0  0  0  0  0  0  0  0  0  0  0  0
  -23.7415  -15.3019   21.7231 C   0  0  0  0  0  0  0  0  0  0  0  0
  -18.6290  -30.4962   24.5134 C   0  0  0  0  0  0  0  0  0  0  0  0
  -24.7822  -28.7895   20.0298 C   0  0  0  0  0  0  0  0  0  0  0  0
  -19.8914  -30.7911   23.9640 C   0  0  0  0  0  0  0  0  0  0  0  0
  -25.1997  -27.5741   20.5907 C   0  0  0  0  0  0  0  0  0  0  0  0
  -24.1664  -10.1452   21.1721 C   0  0  0  0  0  0  0  0  0  0  0  0
  -27.5164  -28.2606   20.3232 C   0  0  0  0  0  0  0  0  0  0  0  0
  -22.8762   -8.2614   21.7281 C   0  0  0  0  0  0  0  0  0  0  0  0
  -20.5170   -7.1970   22.7690 C   0  0  0  0  0  0  0  0  0  0  0  0
  -22.0701   -7.4449   20.9350 C   0  0  0  0  0  0  0  0  0  0  0  0
  -24.5358  -14.3577   21.0454 C   0  0  0  0  0  0  0  0  0  0  0  0
  -24.2626  -16.5177   21.3533 C   0  0  0  0  0  0  0  0  0  0  0  0
  -22.6319  -15.0982   22.6080 C   0  0  0  0  0  0  0  0  0  0  0  0
  -22.4466  -28.8006   22.1859 C   0  0  0  0  0  0  0  0  0  0  0  0
  -28.6491  -19.7538   20.6017 C   0  0  0  0  0  0  0  0  0  0  0  0
  -21.7757  -25.8984   20.9016 C   0  0  0  0  0  0  0  0  0  0  0  0
  -22.8828  -23.1624   19.1883 C   0  0  0  0  0  0  0  0  0  0  0  0
  -18.3536  -29.1880   25.2115 C   0  0  0  0  0  0  0  0  0  0  0  0
  -23.3184  -29.0763   19.8364 C   0  0  0  0  0  0  0  0  0  0  0  0
  -24.2136  -26.5315   21.0478 C   0  0  0  0  0  0  0  0  0  0  0  0
  -19.3708  -28.0975   24.8853 C   0  0  0  0  0  0  0  0  0  0  0  0
  -27.6097  -17.7236   17.7688 C   0  0  0  0  0  0  0  0  0  0  0  0
  -20.7909  -28.6461   24.9817 C   0  0  0  0  0  0  0  0  0  0  0  0
  -30.3113  -23.3080   18.5629 C   0  0  0  0  0  0  0  0  0  0  0  0
  -31.2787  -24.0154   20.7923 C   0  0  0  0  0  0  0  0  0  0  0  0
  -26.6701  -16.7220   18.4389 C   0  0  0  0  0  0  0  0  0  0  0  0
  -31.2675  -24.2597   17.8428 C   0  0  0  0  0  0  0  0  0  0  0  0
  -32.2366  -24.9693   20.0771 C   0  0  0  0  0  0  0  0  0  0  0  0
  -28.7768  -18.0947   18.6799 C   0  0  0  0  0  0  0  0  0  0  0  0
  -27.4167  -17.6102   20.6899 C   0  0  0  0  0  0  0  0  0  0  0  0
  -21.0151  -29.7775   23.9712 C   0  0  1  0  0  0  0  0  0  0  0  0
  -22.4234  -28.2764   20.7779 C   0  0  1  0  0  0  0  0  0  0  0  0
  -30.8880  -22.8286   19.9017 C   0  0  0  0  0  0  0  0  0  0  0  0
  -26.2093  -17.2331   19.8152 C   0  0  2  0  0  0  0  0  0  0  0  0
  -31.7203  -25.4303   18.7146 C   0  0  0  0  0  0  0  0  0  0  0  0
  -22.1136  -20.9363   18.3223 C   0  0  0  0  0  0  0  0  0  0  0  0
  -21.9035  -24.7573   23.7285 C   0  0  0  0  0  0  0  0  0  0  0  0
  -22.0806  -22.4713   22.7228 C   0  0  0  0  0  0  0  0  0  0  0  0
  -20.0434  -23.8540   22.3220 C   0  0  0  0  0  0  0  0  0  0  0  0
  -23.4542  -23.9247   16.3863 C   0  0  0  0  0  0  0  0  0  0  0  0
  -29.5965  -20.6470   19.8410 C   0  0  0  0  0  0  0  0  0  0  0  0
  -29.8933  -21.9197   20.6217 C   0  0  0  0  0  0  0  0  0  0  0  0
  -30.9693  -27.7204   19.3819 C   0  0  0  0  0  0  0  0  0  0  0  0
  -29.7297  -28.5828   19.5148 C   0  0  0  0  0  0  0  0  0  1  0  0
  -22.2104  -24.4798   21.1800 C   0  0  1  0  0  0  0  0  0  0  0  0
  -22.3004  -22.4117   18.0044 C   0  0  2  0  0  0  0  0  0  0  0  0
  -21.5783  -23.9109   22.4816 C   0  0  0  0  0  0  0  0  0  0  0  0
  -25.4890  -14.9250   20.3012 N   0  0  0  0  0  0  0  0  0  0  0  0
  -25.2969  -16.2387   20.5092 N   0  0  0  0  0  0  0  0  0  0  0  0
  -22.7934  -26.8611   20.8431 N   0  0  0  0  0  0  0  0  0  0  0  0
  -28.2969  -18.5504   19.9901 N   0  0  0  0  0  0  0  0  0  0  0  0
  -23.9324  -17.7875   21.6711 N   0  0  0  0  0  0  0  0  0  0  0  0
  -22.8869  -14.9642   23.9796 N   0  0  0  0  0  0  0  0  0  0  0  0
  -21.2182  -29.2369   22.6441 N   0  0  0  0  0  0  0  0  0  0  0  0
  -21.8966  -23.7135   19.9789 N   0  0  0  0  0  0  0  0  0  0  0  0
  -30.5771  -26.3674   18.9129 N   0  3  0  0  0  0  0  0  0  0  0  0
  -23.2019  -22.5274   16.8234 N   0  3  0  0  0  0  0  0  0  0  0  0
  -21.4508  -15.0204   22.1926 O   0  0  0  0  0  0  0  0  0  0  0  0
  -23.5008  -28.8074   22.8107 O   0  0  0  0  0  0  0  0  0  0  0  0
  -28.2335  -20.1177   21.7048 O   0  0  0  0  0  0  0  0  0  0  0  0
  -20.5780  -26.1422   20.7349 O   0  0  0  0  0  0  0  0  0  0  0  0
  -24.0916  -23.2480   19.3936 O   0  0  0  0  0  0  0  0  0  0  0  0
  -24.0481   -8.7899   21.2131 O   0  0  0  0  0  0  0  0  0  0  0  0
  -28.8442  -28.0021   20.4714 O   0  0  0  0  0  0  0  0  0  1  0  0
  -19.3850   -6.6847   23.2693 F   0  0  0  0  0  0  0  0  0  0  0  0
  -22.4242   -7.1673   19.6727 F   0  0  0  0  0  0  0  0  0  0  0  0
  1  2  1  0  0  0  0
  1  5  2  0  0  0  0
  2  6  2  0  0  0  0
  3  8  2  0  0  0  0
  3 15  1  0  0  0  0
  4  9  1  0  0  0  0
  4 15  2  0  0  0  0
  5 17  1  0  0  0  0
  6 19  1  0  0  0  0
  7 10  2  0  0  0  0
  7 18  1  0  0  0  0
  8 21  1  0  0  0  0
  9 21  2  0  0  0  0
 10 22  1  0  0  0  0
 11 12  2  0  0  0  0
 11 23  1  0  0  0  0
 12 24  1  0  0  0  0
 13 20  1  0  0  0  0
 13 22  2  0  0  0  0
 14 24  2  0  0  0  0
 14 25  1  0  0  0  0
 15 26  1  0  0  0  0
 16 26  1  0  0  0  0
 16 27  2  0  0  0  0
 16 28  1  0  0  0  0
 17 19  2  0  0  0  0
 17 33  1  0  0  0  0
 18 20  2  0  0  0  0
 18 34  1  0  0  0  0
 19 46  1  0  0  0  0
 20 35  1  0  0  0  0
 21 78  1  0  0  0  0
 22 79  1  0  0  0  0
 23 25  2  0  0  0  0
 23 78  1  0  0  0  0
 24 80  1  0  0  0  0
 25 81  1  0  0  0  0
 26 63  2  0  0  0  0
 27 64  1  0  0  0  0
 27 67  1  0  0  0  0
 28 68  1  0  0  0  0
 28 73  2  0  0  0  0
 29 47  1  0  0  0  0
 29 69  1  0  0  0  0
 29 74  2  0  0  0  0
 30 56  1  0  0  0  0
 30 66  1  0  0  0  0
 30 75  2  0  0  0  0
 31 60  1  0  0  0  0
 31 65  1  0  0  0  0
 31 76  2  0  0  0  0
 32 61  1  0  0  0  0
 32 70  1  0  0  0  0
 32 77  2  0  0  0  0
 33 36  1  0  0  0  0
 34 47  1  0  0  0  0
 35 65  1  0  0  0  0
 36 38  1  0  0  0  0
 37 41  1  0  0  0  0
 37 44  1  0  0  0  0
 38 46  1  0  0  0  0
 39 42  1  0  0  0  0
 39 48  1  0  0  0  0
 40 43  1  0  0  0  0
 40 48  1  0  0  0  0
 41 49  1  0  0  0  0
 42 50  1  0  0  0  0
 43 50  1  0  0  0  0
 44 66  1  0  0  0  0
 45 49  1  0  0  0  0
 45 66  1  0  0  0  0
 46 69  1  0  0  0  0
 47 65  1  0  0  0  0
 48 57  1  0  0  0  0
 49 64  1  0  0  0  0
 50 71  1  0  0  0  0
 51 61  1  0  0  0  0
 52 62  1  0  0  0  0
 53 62  1  0  0  0  0
 54 62  1  0  0  0  0
 55 72  1  0  0  0  0
 56 57  1  0  0  0  0
 58 59  1  0  0  0  0
 58 71  1  0  0  0  0
 59 79  1  0  0  0  0
 60 62  1  0  0  0  0
 60 70  1  0  0  0  0
 61 72  1  0  0  0  0
 63 64  1  0  0  0  0
M  CHG  2  71   1  72   1
M  ISO  4  30 100  56 100  59 101  79 101
M  END
> <Batch ID>
0138

> <Smiles>
CNC(C)C(=O)NC(C(=O)N1Cc2cc([101O:1][101CH2:1]CNC3CCC(C[100CH2:0][100C:0](=O)N4CCCC(n5nc(-c6ccc(Oc7ccc(F)cc7F)cc6)c(C(N)=O)c5N)C4)CC3)ccc2CC1C(=O)NC1CCCc2ccccc21)C(C)(C)C

> <Shape>
0.258

> <Color>
0.074

> <Negative vol penalty>
0.000

$$$$
