
  -OEChem-04052321103D

 91101  0     1  0  0  0  0  0999 V2000
  -32.1395  -14.5157   20.1959 C   0  0  0  0  0  0  0  0  0  0  0  0
  -31.3173  -15.6364   20.1382 C   0  0  0  0  0  0  0  0  0  0  0  0
  -29.3297  -26.0763   21.2054 C   0  0  0  0  0  0  0  0  0  0  0  0
  -27.4664  -25.0298   20.0785 C   0  0  0  0  0  0  0  0  0  0  0  0
  -31.5853  -13.2401   20.0985 C   0  0  0  0  0  0  0  0  0  0  0  0
  -29.9402  -15.4821   19.9818 C   0  0  0  0  0  0  0  0  0  0  0  0
  -25.5445  -19.0006   22.3909 C   0  0  0  0  0  0  0  0  0  0  0  0
  -29.9434  -24.8317   21.3466 C   0  0  0  0  0  0  0  0  0  0  0  0
  -28.0802  -23.7851   20.2196 C   0  0  0  0  0  0  0  0  0  0  0  0
  -24.7907  -20.0501   21.8672 C   0  0  0  0  0  0  0  0  0  0  0  0
  -29.3236  -20.3784   19.9628 C   0  0  0  0  0  0  0  0  0  0  0  0
  -29.3366  -19.5315   18.8546 C   0  0  0  0  0  0  0  0  0  0  0  0
  -23.0141  -18.5045   21.3434 C   0  0  0  0  0  0  0  0  0  0  0  0
  -30.5634  -21.1922   17.5999 C   0  0  0  0  0  0  0  0  0  0  0  0
  -19.4952  -25.7700   21.7578 C   0  0  0  0  0  0  0  0  0  0  0  0
  -28.0912  -26.1753   20.5714 C   0  0  0  0  0  0  0  0  0  0  0  0
  -27.5981  -28.3622   19.3539 C   0  0  0  0  0  0  0  0  0  0  0  0
  -30.1997  -13.0698   19.9506 C   0  0  0  0  0  0  0  0  0  0  0  0
  -25.0424  -17.6913   22.3848 C   0  0  0  0  0  0  0  0  0  0  0  0
  -29.3671  -14.2031   19.8810 C   0  0  0  0  0  0  0  0  0  0  0  0
  -23.7625  -17.4407   21.8699 C   0  0  0  0  0  0  0  0  0  0  0  0
  -21.3065  -24.7175   23.5063 C   0  0  0  0  0  0  0  0  0  0  0  0
  -19.9011  -26.5483   22.8298 C   0  0  0  0  0  0  0  0  0  0  0  0
  -20.8243  -26.0047   23.7162 C   0  0  0  0  0  0  0  0  0  0  0  0
  -29.3187  -23.6862   20.8537 C   0  0  0  0  0  0  0  0  0  0  0  0
  -23.5265  -19.8017   21.3407 C   0  0  0  0  0  0  0  0  0  0  0  0
  -29.9304  -21.6322   19.8896 C   0  0  0  0  0  0  0  0  0  0  0  0
  -29.9565  -19.9383   17.6732 C   0  0  0  0  0  0  0  0  0  0  0  0
  -30.5503  -22.0391   18.7082 C   0  0  0  0  0  0  0  0  0  0  0  0
  -27.4564  -27.4606   20.4258 C   0  0  0  0  0  0  0  0  0  0  0  0
  -20.8375  -24.0211   22.4042 C   0  0  0  0  0  0  0  0  0  0  0  0
  -26.7961  -29.4251   19.6910 C   0  0  0  0  0  0  0  0  0  0  0  0
  -28.3842  -28.2489   18.1603 C   0  0  0  0  0  0  0  0  0  0  0  0
  -25.9430  -14.9497   21.0521 C   0  0  0  0  0  0  0  0  0  0  0  0
  -23.4982  -13.7425   22.8093 C   0  0  0  0  0  0  0  0  0  0  0  0
  -20.5367  -14.2912   24.4140 C   0  0  0  0  0  0  0  0  0  0  0  0
  -21.9785  -29.9438   23.2084 C   0  0  0  0  0  0  0  0  0  0  0  0
  -29.6518  -11.6725   19.8021 C   0  0  0  0  0  0  0  0  0  0  0  0
  -25.8571  -16.5746   22.9778 C   0  0  0  0  0  0  0  0  0  0  0  0
  -23.1696  -16.0562   21.8583 C   0  0  0  0  0  0  0  0  0  0  0  0
  -28.1427  -11.5843   20.0142 C   0  0  0  0  0  0  0  0  0  0  0  0
  -25.0426  -31.7338   23.4970 C   0  0  0  0  0  0  0  0  0  0  0  0
  -23.5902  -24.8250   24.7093 C   0  0  0  0  0  0  0  0  0  0  0  0
  -23.5955  -23.5782   23.8813 C   0  0  0  0  0  0  0  0  0  0  0  0
  -27.4297  -12.6910   19.2437 C   0  0  0  0  0  0  0  0  0  0  0  0
  -26.0215  -30.9230   22.6459 C   0  0  0  0  0  0  0  0  0  0  0  0
  -20.9046  -25.7204   27.2504 C   0  0  0  0  0  0  0  0  0  0  0  0
  -24.0523  -30.8325   24.2311 C   0  0  0  0  0  0  0  0  0  0  0  0
  -24.2957  -29.0780   22.5175 C   0  0  0  0  0  0  0  0  0  0  0  0
  -22.2978  -24.1021   24.4368 C   0  0  0  0  0  0  0  0  0  0  0  0
  -27.8660  -14.0759   19.7370 C   0  0  1  0  0  0  0  0  0  0  0  0
  -25.4577  -15.1993   22.4520 C   0  0  1  0  0  0  0  0  0  0  0  0
  -20.4202  -26.5904   26.1204 C   0  0  1  0  0  0  0  0  0  0  0  0
  -20.8056  -27.2116   27.4380 C   0  0  1  0  0  0  0  0  0  0  0  0
  -25.2788  -29.9466   21.7141 C   0  0  2  0  0  0  0  0  0  0  0  0
  -19.4133  -29.2139   27.9865 C   0  0  0  0  0  0  0  0  0  0  0  0
  -18.7577  -13.1035   25.7264 C   0  0  0  0  0  0  0  0  0  0  0  0
  -22.4092  -12.5289   20.2303 C   0  0  0  0  0  0  0  0  0  0  0  0
  -20.2184  -12.1940   21.3950 C   0  0  0  0  0  0  0  0  0  0  0  0
  -22.2629  -11.0339   22.2298 C   0  0  0  0  0  0  0  0  0  0  0  0
  -21.0119  -15.9738   26.8019 C   0  0  0  0  0  0  0  0  0  0  0  0
  -21.2943  -26.8043   24.8891 C   0  0  0  0  0  0  0  0  0  0  0  0
  -19.3508  -27.9213   23.0048 C   0  0  0  0  0  0  0  0  0  0  0  0
  -19.7587  -27.7864   28.3279 C   0  0  0  0  0  0  0  0  0  0  0  0
  -19.9946  -28.9652   22.0832 C   0  0  0  0  0  0  0  0  0  0  0  0
  -21.3692  -20.7075   20.9144 C   0  0  0  0  0  0  0  0  0  1  0  0
  -20.7635  -22.0942   21.0122 C   0  0  0  0  0  0  0  0  0  0  0  0
  -22.0218  -13.5261   22.5800 C   0  0  1  0  0  0  0  0  0  0  0  0
  -20.0529  -13.8974   25.7980 C   0  0  2  0  0  0  0  0  0  0  0  0
  -21.7398  -12.3466   21.6071 C   0  0  0  0  0  0  0  0  0  0  0  0
  -19.9412  -24.5159   21.5213 N   0  0  0  0  0  0  0  0  0  0  0  0
  -26.6296  -27.9116   21.3730 N   0  0  0  0  0  0  0  0  0  0  0  0
  -26.2446  -29.1081   20.8974 N   0  0  0  0  0  0  0  0  0  0  0  0
  -24.0075  -14.9966   22.4437 N   0  0  0  0  0  0  0  0  0  0  0  0
  -23.3807  -29.9323   23.2906 N   0  0  0  0  0  0  0  0  0  0  0  0
  -26.5161  -30.5906   19.0701 N   0  0  0  0  0  0  0  0  0  0  0  0
  -29.1499  -27.0902   17.9720 N   0  0  0  0  0  0  0  0  0  0  0  0
  -27.2082  -14.3982   20.9852 N   0  0  0  0  0  0  0  0  0  0  0  0
  -21.4226  -13.3677   23.9007 N   0  0  0  0  0  0  0  0  0  0  0  0
  -21.4227  -29.0644   22.2872 N   0  0  0  0  0  0  0  0  0  0  0  0
  -19.8145  -15.1118   26.6283 N   0  3  0  0  0  0  0  0  0  0  0  0
  -28.4198  -29.1557   17.2943 O   0  0  0  0  0  0  0  0  0  0  0  0
  -25.2223  -15.2350   20.1029 O   0  0  0  0  0  0  0  0  0  0  0  0
  -24.1732  -12.8349   23.3014 O   0  0  0  0  0  0  0  0  0  0  0  0
  -20.1629  -15.3137   23.8437 O   0  0  0  0  0  0  0  0  0  0  0  0
  -21.2743  -30.6867   23.9006 O   0  0  0  0  0  0  0  0  0  0  0  0
  -29.9174  -22.4715   20.9910 O   0  0  0  0  0  0  0  0  0  0  0  0
  -22.7889  -20.8240   20.8284 O   0  0  0  0  0  0  0  0  0  1  0  0
  -21.2869  -22.7499   22.1609 O   0  0  0  0  0  0  0  0  0  0  0  0
  -29.9702  -19.1243   16.6095 F   0  0  0  0  0  0  0  0  0  0  0  0
  -31.1360  -23.2420   18.6322 F   0  0  0  0  0  0  0  0  0  0  0  0
  1  2  1  0  0  0  0
  1  5  2  0  0  0  0
  2  6  2  0  0  0  0
  3  8  2  0  0  0  0
  3 16  1  0  0  0  0
  4  9  1  0  0  0  0
  4 16  2  0  0  0  0
  5 18  1  0  0  0  0
  6 20  1  0  0  0  0
  7 10  2  0  0  0  0
  7 19  1  0  0  0  0
  8 25  1  0  0  0  0
  9 25  2  0  0  0  0
 10 26  1  0  0  0  0
 11 12  2  0  0  0  0
 11 27  1  0  0  0  0
 12 28  1  0  0  0  0
 13 21  1  0  0  0  0
 13 26  2  0  0  0  0
 14 28  2  0  0  0  0
 14 29  1  0  0  0  0
 15 23  2  0  0  0  0
 15 71  1  0  0  0  0
 16 30  1  0  0  0  0
 17 30  1  0  0  0  0
 17 32  2  0  0  0  0
 17 33  1  0  0  0  0
 18 20  2  0  0  0  0
 18 38  1  0  0  0  0
 19 21  2  0  0  0  0
 19 39  1  0  0  0  0
 20 51  1  0  0  0  0
 21 40  1  0  0  0  0
 22 24  2  0  0  0  0
 22 31  1  0  0  0  0
 22 50  1  0  0  0  0
 23 24  1  0  0  0  0
 23 63  1  0  0  0  0
 24 62  1  0  0  0  0
 25 87  1  0  0  0  0
 26 88  1  0  0  0  0
 27 29  2  0  0  0  0
 27 87  1  0  0  0  0
 28 90  1  0  0  0  0
 29 91  1  0  0  0  0
 30 72  2  0  0  0  0
 31 71  2  0  0  0  0
 31 89  1  0  0  0  0
 32 73  1  0  0  0  0
 32 76  1  0  0  0  0
 33 77  1  0  0  0  0
 33 82  2  0  0  0  0
 34 52  1  0  0  0  0
 34 78  1  0  0  0  0
 34 83  2  0  0  0  0
 35 68  1  0  0  0  0
 35 74  1  0  0  0  0
 35 84  2  0  0  0  0
 36 69  1  0  0  0  0
 36 79  1  0  0  0  0
 36 85  2  0  0  0  0
 37 75  1  0  0  0  0
 37 80  1  0  0  0  0
 37 86  2  0  0  0  0
 38 41  1  0  0  0  0
 39 52  1  0  0  0  0
 40 74  1  0  0  0  0
 41 45  1  0  0  0  0
 42 46  1  0  0  0  0
 42 48  1  0  0  0  0
 43 44  1  0  0  0  0
 43 50  1  0  0  0  0
 44 50  1  0  0  0  0
 45 51  1  0  0  0  0
 46 55  1  0  0  0  0
 47 53  1  0  0  0  0
 47 54  1  0  0  0  0
 48 75  1  0  0  0  0
 49 55  1  0  0  0  0
 49 75  1  0  0  0  0
 51 78  1  0  0  0  0
 52 74  1  0  0  0  0
 53 54  1  0  0  0  0
 53 62  1  0  0  0  0
 54 64  1  0  0  0  0
 55 73  1  0  0  0  0
 56 64  1  0  0  0  0
 57 69  1  0  0  0  0
 58 70  1  0  0  0  0
 59 70  1  0  0  0  0
 60 70  1  0  0  0  0
 61 81  1  0  0  0  0
 63 65  1  0  0  0  0
 65 80  1  0  0  0  0
 66 67  1  0  0  0  0
 66 88  1  0  0  0  0
 67 89  1  0  0  0  0
 68 70  1  0  0  0  0
 68 79  1  0  0  0  0
 69 81  1  0  0  0  0
 72 73  1  0  0  0  0
M  CHG  1  81   1
M  ISO  4  37 100  66 101  80 100  88 101
M  END
> <Batch ID>
0139

> <Smiles>
CCC1CC1Cc1c(CC[100NH:0][100C:0](=O)N2CCCC(n3nc(-c4ccc(Oc5ccc(F)cc5F)cc4)c(C(N)=O)c3N)C2)cnc(OC[101CH2:1][101O:1]c2ccc3c(c2)CN(C(=O)C(NC(=O)C(C)NC)C(C)(C)C)C(C(=O)NC2CCCc4ccccc42)C3)c1C1CC1

> <Shape>
0.238

> <Color>
0.058

> <Negative vol penalty>
0.000

$$$$

  -OEChem-04052321103D

 88 98  0     1  0  0  0  0  0999 V2000
  -20.7332  -36.1838   17.6333 C   0  0  0  0  0  0  0  0  0  0  0  0
  -21.2533  -34.9910   17.1414 C   0  0  0  0  0  0  0  0  0  0  0  0
  -23.7562  -10.0540   21.9449 C   0  0  0  0  0  0  0  0  0  0  0  0
  -24.2478   -8.9097   19.8746 C   0  0  0  0  0  0  0  0  0  0  0  0
  -21.3111  -36.7873   18.7494 C   0  0  0  0  0  0  0  0  0  0  0  0
  -22.3525  -34.4014   17.7648 C   0  0  0  0  0  0  0  0  0  0  0  0
  -25.1658  -27.9748   19.2140 C   0  0  0  0  0  0  0  0  0  0  0  0
  -22.7614   -9.1176   22.2262 C   0  0  0  0  0  0  0  0  0  0  0  0
  -23.2530   -7.9732   20.1560 C   0  0  0  0  0  0  0  0  0  0  0  0
  -26.3583  -27.2655   19.0778 C   0  0  0  0  0  0  0  0  0  0  0  0
  -20.3370   -6.8209   23.6624 C   0  0  0  0  0  0  0  0  0  0  0  0
  -20.2816   -6.3025   24.9562 C   0  0  0  0  0  0  0  0  0  0  0  0
  -31.8925  -26.8319   19.9582 C   0  0  0  0  0  0  0  0  0  0  0  0
  -27.2253  -28.3568   21.0467 C   0  0  0  0  0  0  0  0  0  0  0  0
  -22.5233   -5.4369   24.7054 C   0  0  0  0  0  0  0  0  0  0  0  0
  -33.0008  -26.0520   19.6699 C   0  0  0  0  0  0  0  0  0  0  0  0
  -24.4994   -9.9501   20.7690 C   0  0  0  0  0  0  0  0  0  0  0  0
  -26.8858  -10.8488   20.8380 C   0  0  0  0  0  0  0  0  0  0  0  0
  -22.4119  -36.1998   19.3926 C   0  0  0  0  0  0  0  0  0  0  0  0
  -24.9978  -28.8900   20.2631 C   0  0  0  0  0  0  0  0  0  0  0  0
  -22.9466  -34.9982   18.8898 C   0  0  0  0  0  0  0  0  0  0  0  0
  -26.0287  -29.0745   21.1955 C   0  0  0  0  0  0  0  0  0  0  0  0
  -30.7812  -26.2049   20.5105 C   0  0  0  0  0  0  0  0  0  0  0  0
  -22.5098   -8.0772   21.3318 C   0  0  0  0  0  0  0  0  0  0  0  0
  -27.3894  -27.4586   19.9925 C   0  0  0  0  0  0  0  0  0  0  0  0
  -21.4856   -6.6472   22.8901 C   0  0  0  0  0  0  0  0  0  0  0  0
  -30.8117  -24.8363   20.7542 C   0  0  0  0  0  0  0  0  0  0  0  0
  -21.3747   -5.6105   25.4777 C   0  0  0  0  0  0  0  0  0  0  0  0
  -22.5787   -5.9553   23.4116 C   0  0  0  0  0  0  0  0  0  0  0  0
  -25.5267  -10.9174   20.4776 C   0  0  0  0  0  0  0  0  0  0  0  0
  -31.9683  -24.1456   20.4300 C   0  0  0  0  0  0  0  0  0  0  0  0
  -27.4343  -12.0011   20.3304 C   0  0  0  0  0  0  0  0  0  0  0  0
  -27.5896   -9.8341   21.5666 C   0  0  0  0  0  0  0  0  0  0  0  0
  -24.4847  -32.0215   20.4474 C   0  0  0  0  0  0  0  0  0  0  0  0
  -24.1835  -31.3916   23.6152 C   0  0  0  0  0  0  0  0  0  0  0  0
  -24.9148  -29.3418   26.2439 C   0  0  0  0  0  0  0  0  0  0  0  0
  -27.4452  -17.2960   19.4297 C   0  0  0  0  0  0  0  0  0  0  0  0
  -23.0323  -36.9137   20.5674 C   0  0  0  0  0  0  0  0  0  0  0  0
  -23.6953  -29.6274   20.4116 C   0  0  0  0  0  0  0  0  0  0  0  0
  -25.8908  -30.0304   22.3513 C   0  0  0  0  0  0  0  0  0  0  0  0
  -23.9613  -36.0300   21.3959 C   0  0  0  0  0  0  0  0  0  0  0  0
  -25.5472  -15.4288   17.1361 C   0  0  0  0  0  0  0  0  0  0  0  0
  -24.9039  -35.2471   20.4874 C   0  0  0  0  0  0  0  0  0  0  0  0
  -25.4782  -14.0707   17.8338 C   0  0  0  0  0  0  0  0  0  0  0  0
  -28.8987  -20.4361   19.5095 C   0  0  0  0  0  0  0  0  0  0  0  0
  -26.4737  -20.5878   20.1899 C   0  0  0  0  0  0  0  0  0  0  0  0
  -27.3350  -23.7276   20.8090 C   0  0  0  0  0  0  0  0  0  0  0  0
  -25.3923  -16.5882   18.1219 C   0  0  0  0  0  0  0  0  0  0  0  0
  -28.5183  -19.3354   18.5253 C   0  0  0  0  0  0  0  0  0  0  0  0
  -26.1467  -19.4612   19.2076 C   0  0  0  0  0  0  0  0  0  0  0  0
  -26.2697  -15.1804   19.9573 C   0  0  0  0  0  0  0  0  0  0  0  0
  -24.1226  -34.3151   19.5535 C   0  0  1  0  0  0  0  0  0  0  0  0
  -23.8261  -30.9142   21.2206 C   0  0  1  0  0  0  0  0  0  0  0  0
  -27.7164  -21.3835   19.7633 C   0  0  0  0  0  0  0  0  0  0  0  0
  -28.0702  -22.4250   20.7910 C   0  0  1  0  0  0  0  0  0  0  0  0
  -26.4802  -13.9973   18.9996 C   0  0  1  0  0  0  0  0  0  0  0  0
  -28.7717  -23.6775   20.3648 C   0  0  2  0  0  0  0  0  0  0  0  0
  -32.0539  -22.6740   20.6705 C   0  0  0  0  0  0  0  0  0  0  0  0
  -24.5614  -29.1079   28.7173 C   0  0  0  0  0  0  0  0  0  0  0  0
  -26.2787  -33.5524   24.1164 C   0  0  0  0  0  0  0  0  0  0  0  0
  -26.5740  -32.6323   26.4260 C   0  0  0  0  0  0  0  0  0  0  0  0
  -24.3661  -33.5600   25.7278 C   0  0  0  0  0  0  0  0  0  0  0  0
  -23.4814  -26.7737   25.9135 C   0  0  0  0  0  0  0  0  0  0  0  0
  -29.5692  -27.0141   20.8333 C   0  0  0  0  0  0  0  0  0  1  0  0
  -25.1305  -31.3401   24.7897 C   0  0  1  0  0  0  0  0  0  0  0  0
  -24.0394  -28.7508   27.3342 C   0  0  2  0  0  0  0  0  0  0  0  0
  -25.5910  -32.7545   25.2422 C   0  0  0  0  0  0  0  0  0  0  0  0
  -33.0676  -24.7202   19.8923 N   0  0  0  0  0  0  0  0  0  0  0  0
  -25.2299  -12.0257   19.7939 N   0  0  0  0  0  0  0  0  0  0  0  0
  -26.4102  -12.6642   19.7207 N   0  0  0  0  0  0  0  0  0  0  0  0
  -24.6006  -30.7327   22.4500 N   0  0  0  0  0  0  0  0  0  0  0  0
  -26.3399  -16.4537   19.2372 N   0  0  0  0  0  0  0  0  0  0  0  0
  -27.3259  -18.6171   18.9734 N   0  0  0  0  0  0  0  0  0  0  0  0
  -28.6878  -12.5018   20.3505 N   0  0  0  0  0  0  0  0  0  0  0  0
  -26.8738   -8.7159   22.0155 N   0  0  0  0  0  0  0  0  0  0  0  0
  -23.6857  -33.1345   20.2674 N   0  0  0  0  0  0  0  0  0  0  0  0
  -24.4517  -30.5721   25.8279 N   0  0  0  0  0  0  0  0  0  0  0  0
  -23.9975  -27.2657   27.2168 N   0  3  0  0  0  0  0  0  0  0  0  0
  -28.8135   -9.9244   21.8263 O   0  0  0  0  0  0  0  0  0  0  0  0
  -25.6333  -31.8774   20.0452 O   0  0  0  0  0  0  0  0  0  0  0  0
  -23.1099  -31.9883   23.7296 O   0  0  0  0  0  0  0  0  0  0  0  0
  -25.9119  -28.7709   25.8075 O   0  0  0  0  0  0  0  0  0  0  0  0
  -28.4784  -16.8916   19.9776 O   0  0  0  0  0  0  0  0  0  0  0  0
  -21.5393   -7.1632   21.6061 O   0  0  0  0  0  0  0  0  0  0  0  0
  -29.7356  -24.1963   21.2949 O   0  0  0  0  0  0  0  0  0  0  0  0
  -28.5629  -26.7633   19.8605 O   0  0  0  0  0  0  0  0  0  1  0  0
  -21.3219   -5.1141   26.7206 F   0  0  0  0  0  0  0  0  0  0  0  0
  -23.6852   -5.7863   22.6748 F   0  0  0  0  0  0  0  0  0  0  0  0
  1  2  1  0  0  0  0
  1  5  2  0  0  0  0
  2  6  2  0  0  0  0
  3  8  2  0  0  0  0
  3 17  1  0  0  0  0
  4  9  1  0  0  0  0
  4 17  2  0  0  0  0
  5 19  1  0  0  0  0
  6 21  1  0  0  0  0
  7 10  2  0  0  0  0
  7 20  1  0  0  0  0
  8 24  1  0  0  0  0
  9 24  2  0  0  0  0
 10 25  1  0  0  0  0
 11 12  2  0  0  0  0
 11 26  1  0  0  0  0
 12 28  1  0  0  0  0
 13 16  2  0  0  0  0
 13 23  1  0  0  0  0
 14 22  1  0  0  0  0
 14 25  2  0  0  0  0
 15 28  2  0  0  0  0
 15 29  1  0  0  0  0
 16 68  1  0  0  0  0
 17 30  1  0  0  0  0
 18 30  1  0  0  0  0
 18 32  2  0  0  0  0
 18 33  1  0  0  0  0
 19 21  2  0  0  0  0
 19 38  1  0  0  0  0
 20 22  2  0  0  0  0
 20 39  1  0  0  0  0
 21 52  1  0  0  0  0
 22 40  1  0  0  0  0
 23 27  2  0  0  0  0
 23 64  1  0  0  0  0
 24 84  1  0  0  0  0
 25 86  1  0  0  0  0
 26 29  2  0  0  0  0
 26 84  1  0  0  0  0
 27 31  1  0  0  0  0
 27 85  1  0  0  0  0
 28 87  1  0  0  0  0
 29 88  1  0  0  0  0
 30 69  2  0  0  0  0
 31 58  1  0  0  0  0
 31 68  2  0  0  0  0
 32 70  1  0  0  0  0
 32 74  1  0  0  0  0
 33 75  1  0  0  0  0
 33 79  2  0  0  0  0
 34 53  1  0  0  0  0
 34 76  1  0  0  0  0
 34 80  2  0  0  0  0
 35 65  1  0  0  0  0
 35 71  1  0  0  0  0
 35 81  2  0  0  0  0
 36 66  1  0  0  0  0
 36 77  1  0  0  0  0
 36 82  2  0  0  0  0
 37 72  1  0  0  0  0
 37 73  1  0  0  0  0
 37 83  2  0  0  0  0
 38 41  1  0  0  0  0
 39 53  1  0  0  0  0
 40 71  1  0  0  0  0
 41 43  1  0  0  0  0
 42 44  1  0  0  0  0
 42 48  1  0  0  0  0
 43 52  1  0  0  0  0
 44 56  1  0  0  0  0
 45 49  1  0  0  0  0
 45 54  1  0  0  0  0
 46 50  1  0  0  0  0
 46 54  1  0  0  0  0
 47 55  1  0  0  0  0
 47 57  1  0  0  0  0
 48 72  1  0  0  0  0
 49 73  1  0  0  0  0
 50 73  1  0  0  0  0
 51 56  1  0  0  0  0
 51 72  1  0  0  0  0
 52 76  1  0  0  0  0
 53 71  1  0  0  0  0
 54 55  1  0  0  0  0
 55 57  1  0  0  0  0
 56 70  1  0  0  0  0
 57 85  1  0  0  0  0
 59 66  1  0  0  0  0
 60 67  1  0  0  0  0
 61 67  1  0  0  0  0
 62 67  1  0  0  0  0
 63 78  1  0  0  0  0
 64 86  1  0  0  0  0
 65 67  1  0  0  0  0
 65 77  1  0  0  0  0
 66 78  1  0  0  0  0
 69 70  1  0  0  0  0
M  CHG  1  78   1
M  ISO  4  37 100  64 101  73 100  86 101
M  END
> <Batch ID>
0139

> <Smiles>
CNC(C)C(=O)NC(C(=O)N1Cc2cc([101O:1][101CH2:1]c3ccnc(C)c3OC3CC3C3CC[100N:0]([100C:0](=O)N4CCCC(n5nc(-c6ccc(Oc7ccc(F)cc7F)cc6)c(C(N)=O)c5N)C4)CC3)ccc2CC1C(=O)NC1CCCc2ccccc21)C(C)(C)C

> <Shape>
0.286

> <Color>
0.122

> <Negative vol penalty>
0.000

$$$$

  -OEChem-04052321103D

 94104  0     1  0  0  0  0  0999 V2000
  -35.2541  -30.0374   18.8711 C   0  0  0  0  0  0  0  0  0  0  0  0
  -34.6527  -28.8796   19.3540 C   0  0  0  0  0  0  0  0  0  0  0  0
  -24.4040  -21.7863   25.9839 C   0  0  0  0  0  0  0  0  0  0  0  0
  -23.2028   -9.7086   19.8187 C   0  0  0  0  0  0  0  0  0  0  0  0
  -24.2019   -9.4050   21.9974 C   0  0  0  0  0  0  0  0  0  0  0  0
  -34.9153  -31.2761   19.4140 C   0  0  0  0  0  0  0  0  0  0  0  0
  -33.7129  -28.9597   20.3810 C   0  0  0  0  0  0  0  0  0  0  0  0
  -23.6121  -20.7685   25.4523 C   0  0  0  0  0  0  0  0  0  0  0  0
  -28.7607  -25.4339   21.1227 C   0  0  0  0  0  0  0  0  0  0  0  0
  -25.7575  -21.8609   25.6548 C   0  0  0  0  0  0  0  0  0  0  0  0
  -22.5850   -8.4629   19.9283 C   0  0  0  0  0  0  0  0  0  0  0  0
  -23.5840   -8.1592   22.1071 C   0  0  0  0  0  0  0  0  0  0  0  0
  -28.5160  -24.3158   21.9188 C   0  0  0  0  0  0  0  0  0  0  0  0
  -20.5138   -6.9605   22.8536 C   0  0  0  0  0  0  0  0  0  0  0  0
  -19.8928   -6.6512   24.0637 C   0  0  0  0  0  0  0  0  0  0  0  0
  -27.5324  -25.7368   23.6018 C   0  0  0  0  0  0  0  0  0  0  0  0
  -21.3575   -4.7481   24.3288 C   0  0  0  0  0  0  0  0  0  0  0  0
  -24.0113  -10.1796   20.8532 C   0  0  0  0  0  0  0  0  0  0  0  0
  -24.1347  -12.7103   21.1502 C   0  0  0  0  0  0  0  0  0  0  0  0
  -33.9637  -31.3724   20.4416 C   0  0  0  0  0  0  0  0  0  0  0  0
  -28.4023  -26.7152   21.5657 C   0  0  0  0  0  0  0  0  0  0  0  0
  -24.1737  -19.8253   24.5917 C   0  0  0  0  0  0  0  0  0  0  0  0
  -33.3620  -30.2007   20.9391 C   0  0  0  0  0  0  0  0  0  0  0  0
  -27.7713  -26.8693   22.8083 C   0  0  0  0  0  0  0  0  0  0  0  0
  -25.5271  -19.8999   24.2626 C   0  0  0  0  0  0  0  0  0  0  0  0
  -26.3190  -20.9177   24.7942 C   0  0  0  0  0  0  0  0  0  0  0  0
  -22.7756   -7.6882   21.0725 C   0  0  0  0  0  0  0  0  0  0  0  0
  -27.9044  -24.4674   23.1598 C   0  0  0  0  0  0  0  0  0  0  0  0
  -21.5566   -6.1637   22.3811 C   0  0  0  0  0  0  0  0  0  0  0  0
  -20.3147   -5.5450   24.8013 C   0  0  0  0  0  0  0  0  0  0  0  0
  -21.9785   -5.0575   23.1187 C   0  0  0  0  0  0  0  0  0  0  0  0
  -24.6503  -11.4661   20.7402 C   0  0  0  0  0  0  0  0  0  0  0  0
  -25.1178  -13.6130   20.8261 C   0  0  0  0  0  0  0  0  0  0  0  0
  -22.8794  -13.0221   21.7688 C   0  0  0  0  0  0  0  0  0  0  0  0
  -29.9923  -29.3889   22.2193 C   0  0  0  0  0  0  0  0  0  0  0  0
  -27.0101  -30.6109   22.5869 C   0  0  0  0  0  0  0  0  0  0  0  0
  -23.7110  -30.0492   23.2558 C   0  0  0  0  0  0  0  0  0  0  0  0
  -30.4906  -15.1161   20.6861 C   0  0  0  0  0  0  0  0  0  0  0  0
  -33.6647  -32.7288   21.0293 C   0  0  0  0  0  0  0  0  0  0  0  0
  -28.6489  -27.9082   20.6835 C   0  0  0  0  0  0  0  0  0  0  0  0
  -27.3487  -28.2209   23.3209 C   0  0  0  0  0  0  0  0  0  0  0  0
  -32.3835  -32.7643   21.8586 C   0  0  0  0  0  0  0  0  0  0  0  0
  -29.2978  -13.0662   18.0305 C   0  0  0  0  0  0  0  0  0  0  0  0
  -22.6729  -18.9414   22.6838 C   0  0  0  0  0  0  0  0  0  0  0  0
  -21.8243  -18.9873   23.9159 C   0  0  0  0  0  0  0  0  0  0  0  0
  -32.3299  -31.5727   22.8095 C   0  0  0  0  0  0  0  0  0  0  0  0
  -27.9435  -12.5652   18.5352 C   0  0  0  0  0  0  0  0  0  0  0  0
  -26.7491  -19.4750   22.0499 C   0  0  0  0  0  0  0  0  0  0  0  0
  -30.3181  -13.1709   19.1620 C   0  0  0  0  0  0  0  0  0  0  0  0
  -28.5240  -13.4700   20.8250 C   0  0  0  0  0  0  0  0  0  0  0  0
  -28.2382  -19.2095   22.1335 C   0  0  0  0  0  0  0  0  0  0  0  0
  -23.3053  -18.7455   24.0357 C   0  0  0  0  0  0  0  0  0  0  0  0
  -26.1396  -18.8755   23.3292 C   0  0  1  0  0  0  0  0  0  0  0  0
  -32.3197  -30.2491   22.0352 C   0  0  1  0  0  0  0  0  0  0  0  0
  -28.7081  -29.2216   21.4574 C   0  0  1  0  0  0  0  0  0  0  0  0
  -27.4460  -13.4012   19.7297 C   0  0  2  0  0  0  0  0  0  0  0  0
  -27.2717  -18.0768   24.0098 C   0  0  1  0  0  0  0  0  0  0  0  0
  -26.3660  -17.0376   28.3591 C   0  0  0  0  0  0  0  0  0  0  0  0
  -21.5233  -31.2489   23.5241 C   0  0  0  0  0  0  0  0  0  0  0  0
  -25.1794  -15.4885   26.0103 C   0  0  0  0  0  0  0  0  0  0  0  0
  -27.8830  -31.5807   25.3450 C   0  0  0  0  0  0  0  0  0  0  0  0
  -25.4674  -31.9015   25.9200 C   0  0  0  0  0  0  0  0  0  0  0  0
  -26.4893  -33.2110   24.0589 C   0  0  0  0  0  0  0  0  0  0  0  0
  -22.4909  -28.5704   21.0011 C   0  0  0  0  0  0  0  0  0  0  0  0
  -27.7859  -21.0215   24.4541 C   0  0  0  0  0  0  0  0  0  0  0  0
  -26.8207  -16.7076   24.4982 C   0  0  0  0  0  0  0  0  0  0  0  0
  -27.0314  -16.9261   26.9943 C   0  0  0  0  0  0  0  0  0  0  0  0
  -30.5164  -17.0248   22.2721 C   0  0  0  0  0  0  0  0  0  0  0  0
  -29.6987  -17.6194   23.4034 C   0  0  0  0  0  0  0  0  0  0  0  0
  -28.0665  -22.1094   23.4231 C   0  0  0  0  0  0  0  0  0  1  0  0
  -26.0433  -30.7430   23.7388 C   0  0  1  0  0  0  0  0  0  0  0  0
  -22.4474  -30.5217   22.5598 C   0  0  2  0  0  0  0  0  0  0  0  0
  -26.0375  -16.7442   25.8281 C   0  0  2  0  0  0  0  0  0  0  0  0
  -26.4803  -31.8337   24.7571 C   0  0  0  0  0  0  0  0  0  0  0  0
  -25.8664  -11.5657   20.1970 N   0  0  0  0  0  0  0  0  0  0  0  0
  -26.1232  -12.8832   20.2633 N   0  0  0  0  0  0  0  0  0  0  0  0
  -27.6170  -29.3575   22.4244 N   0  0  0  0  0  0  0  0  0  0  0  0
  -29.7853  -13.9776   20.2626 N   0  0  0  0  0  0  0  0  0  0  0  0
  -25.2117  -14.9519   20.9705 N   0  0  0  0  0  0  0  0  0  0  0  0
  -21.9858  -11.9749   22.0318 N   0  0  0  0  0  0  0  0  0  0  0  0
  -31.0028  -29.9905   21.4938 N   0  0  0  0  0  0  0  0  0  0  0  0
  -24.7302  -30.9713   23.1455 N   0  0  0  0  0  0  0  0  0  0  0  0
  -29.9129  -15.8276   21.7305 N   0  0  0  0  0  0  0  0  0  0  0  0
  -28.3159  -17.9285   22.9207 N   0  3  2  0  0  0  0  0  0  0  0  0
  -21.7083  -29.3624   21.9847 N   0  3  0  0  0  0  0  0  0  0  0  0
  -22.5528  -14.1966   22.0642 O   0  0  0  0  0  0  0  0  0  0  0  0
  -30.0608  -29.0021   23.3801 O   0  0  0  0  0  0  0  0  0  0  0  0
  -27.2136  -31.5819   21.8538 O   0  0  0  0  0  0  0  0  0  0  0  0
  -23.7853  -28.9715   23.8421 O   0  0  0  0  0  0  0  0  0  0  0  0
  -31.5534  -15.4752   20.1680 O   0  0  0  0  0  0  0  0  0  0  0  0
  -22.1727   -6.4726   21.1800 O   0  0  0  0  0  0  0  0  0  0  0  0
  -27.6650  -23.3778   23.9391 O   0  0  0  0  0  0  0  0  0  1  0  0
  -19.7192   -5.2489   25.9640 F   0  0  0  0  0  0  0  0  0  0  0  0
  -22.9806   -4.2890   22.6705 F   0  0  0  0  0  0  0  0  0  0  0  0
  1  2  1  0  0  0  0
  1  6  2  0  0  0  0
  2  7  2  0  0  0  0
  3  8  2  0  0  0  0
  3 10  1  0  0  0  0
  4 11  2  0  0  0  0
  4 18  1  0  0  0  0
  5 12  1  0  0  0  0
  5 18  2  0  0  0  0
  6 20  1  0  0  0  0
  7 23  1  0  0  0  0
  8 22  1  0  0  0  0
  9 13  2  0  0  0  0
  9 21  1  0  0  0  0
 10 26  2  0  0  0  0
 11 27  1  0  0  0  0
 12 27  2  0  0  0  0
 13 28  1  0  0  0  0
 14 15  2  0  0  0  0
 14 29  1  0  0  0  0
 15 30  1  0  0  0  0
 16 24  1  0  0  0  0
 16 28  2  0  0  0  0
 17 30  2  0  0  0  0
 17 31  1  0  0  0  0
 18 32  1  0  0  0  0
 19 32  1  0  0  0  0
 19 33  2  0  0  0  0
 19 34  1  0  0  0  0
 20 23  2  0  0  0  0
 20 39  1  0  0  0  0
 21 24  2  0  0  0  0
 21 40  1  0  0  0  0
 22 25  2  0  0  0  0
 22 52  1  0  0  0  0
 23 54  1  0  0  0  0
 24 41  1  0  0  0  0
 25 26  1  0  0  0  0
 25 53  1  0  0  0  0
 26 65  1  0  0  0  0
 27 91  1  0  0  0  0
 28 92  1  0  0  0  0
 29 31  2  0  0  0  0
 29 91  1  0  0  0  0
 30 93  1  0  0  0  0
 31 94  1  0  0  0  0
 32 75  2  0  0  0  0
 33 76  1  0  0  0  0
 33 79  1  0  0  0  0
 34 80  1  0  0  0  0
 34 86  2  0  0  0  0
 35 55  1  0  0  0  0
 35 81  1  0  0  0  0
 35 87  2  0  0  0  0
 36 71  1  0  0  0  0
 36 77  1  0  0  0  0
 36 88  2  0  0  0  0
 37 72  1  0  0  0  0
 37 82  1  0  0  0  0
 37 89  2  0  0  0  0
 38 78  1  0  0  0  0
 38 83  1  0  0  0  0
 38 90  2  0  0  0  0
 39 42  1  0  0  0  0
 40 55  1  0  0  0  0
 41 77  1  0  0  0  0
 42 46  1  0  0  0  0
 43 47  1  0  0  0  0
 43 49  1  0  0  0  0
 44 45  1  0  0  0  0
 44 52  1  0  0  0  0
 45 52  1  0  0  0  0
 46 54  1  0  0  0  0
 47 56  1  0  0  0  0
 48 51  1  0  0  0  0
 48 53  1  0  0  0  0
 49 78  1  0  0  0  0
 50 56  1  0  0  0  0
 50 78  1  0  0  0  0
 51 84  1  0  0  0  0
 53 57  1  0  0  0  0
 54 81  1  0  0  0  0
 55 77  1  0  0  0  0
 56 76  1  0  0  0  0
 57 66  1  0  0  0  0
 57 84  1  0  0  0  0
 58 67  1  0  0  0  0
 59 72  1  0  0  0  0
 60 73  1  0  0  0  0
 61 74  1  0  0  0  0
 62 74  1  0  0  0  0
 63 74  1  0  0  0  0
 64 85  1  0  0  0  0
 65 70  1  0  0  0  0
 66 73  1  0  0  0  0
 67 73  1  0  0  0  0
 68 69  1  0  0  0  0
 68 83  1  0  0  0  0
 69 84  1  0  0  0  0
 70 92  1  0  0  0  0
 71 74  1  0  0  0  0
 71 82  1  0  0  0  0
 72 85  1  0  0  0  0
 75 76  1  0  0  0  0
M  CHG  2  84   1  85   1
M  ISO  4  38 100  70 101  83 100  92 101
M  END
> <Batch ID>
0139

> <Smiles>
CCC(C)CC1C(c2c(C[101CH2:1][101O:1]c3ccc4c(c3)CN(C(=O)C(NC(=O)C(C)NC)C(C)(C)C)C(C(=O)NC3CCCc5ccccc53)C4)cccc2C2CC2)CCN1CC[100NH:0][100C:0](=O)N1CCCC(n2nc(-c3ccc(Oc4ccc(F)cc4F)cc3)c(C(N)=O)c2N)C1

> <Shape>
0.272

> <Color>
0.174

> <Negative vol penalty>
0.000

$$$$

  -OEChem-04052321103D

 88 97  0     1  0  0  0  0  0999 V2000
  -30.5391  -24.8873   17.4741 C   0  0  0  0  0  0  0  0  0  0  0  0
  -29.2423  -25.3245   17.7196 C   0  0  0  0  0  0  0  0  0  0  0  0
  -26.4741  -17.6057   20.8642 C   0  0  0  0  0  0  0  0  0  0  0  0
  -28.8409  -17.2992   21.2397 C   0  0  0  0  0  0  0  0  0  0  0  0
  -31.5686  -25.2504   18.3399 C   0  0  0  0  0  0  0  0  0  0  0  0
  -28.9767  -26.1346   18.8242 C   0  0  0  0  0  0  0  0  0  0  0  0
  -20.3585  -23.4045   24.1126 C   0  0  0  0  0  0  0  0  0  0  0  0
  -24.4336  -27.9850   19.1976 C   0  0  0  0  0  0  0  0  0  0  0  0
  -21.4169  -23.5088   25.0143 C   0  0  0  0  0  0  0  0  0  0  0  0
  -26.3036  -16.2224   20.8096 C   0  0  0  0  0  0  0  0  0  0  0  0
  -28.6705  -15.9159   21.1852 C   0  0  0  0  0  0  0  0  0  0  0  0
  -23.3268  -27.2047   19.5294 C   0  0  0  0  0  0  0  0  0  0  0  0
  -28.2845  -13.5451   18.8059 C   0  0  0  0  0  0  0  0  0  0  0  0
  -29.1989  -12.8086   18.0528 C   0  0  0  0  0  0  0  0  0  0  0  0
  -22.7402  -24.6083   23.3246 C   0  0  0  0  0  0  0  0  0  0  0  0
  -23.3722  -28.1030   21.7677 C   0  0  0  0  0  0  0  0  0  0  0  0
  -29.8331  -11.5740   20.0304 C   0  0  0  0  0  0  0  0  0  0  0  0
  -27.7428  -18.1442   21.0791 C   0  0  0  0  0  0  0  0  0  0  0  0
  -27.6291  -20.5058   20.1214 C   0  0  0  0  0  0  0  0  0  0  0  0
  -31.3124  -26.0551   19.4623 C   0  0  0  0  0  0  0  0  0  0  0  0
  -20.4759  -23.9078   22.8075 C   0  0  0  0  0  0  0  0  0  0  0  0
  -25.0256  -28.8234   20.1531 C   0  0  0  0  0  0  0  0  0  0  0  0
  -30.0064  -26.5316   19.6963 C   0  0  0  0  0  0  0  0  0  0  0  0
  -21.6842  -24.5059   22.4039 C   0  0  0  0  0  0  0  0  0  0  0  0
  -24.4847  -28.8948   21.4448 C   0  0  0  0  0  0  0  0  0  0  0  0
  -22.6073  -24.1116   24.6206 C   0  0  0  0  0  0  0  0  0  0  0  0
  -27.4017  -15.3775   20.9702 C   0  0  0  0  0  0  0  0  0  0  0  0
  -22.7977  -27.2614   20.8154 C   0  0  0  0  0  0  0  0  0  0  0  0
  -28.1445  -13.2961   20.1712 C   0  0  0  0  0  0  0  0  0  0  0  0
  -29.9732  -11.8230   18.6650 C   0  0  0  0  0  0  0  0  0  0  0  0
  -28.9187  -12.3105   20.7834 C   0  0  0  0  0  0  0  0  0  0  0  0
  -27.9196  -19.5730   21.1349 C   0  0  0  0  0  0  0  0  0  0  0  0
  -27.9708  -21.7203   20.6642 C   0  0  0  0  0  0  0  0  0  0  0  0
  -27.0978  -20.2935   18.8067 C   0  0  0  0  0  0  0  0  0  0  0  0
  -27.8925  -28.9989   21.5147 C   0  0  0  0  0  0  0  0  0  0  0  0
  -26.6792  -31.7128   22.8129 C   0  0  0  0  0  0  0  0  0  0  0  0
  -23.9243  -33.4963   23.7491 C   0  0  0  0  0  0  0  0  0  0  0  0
  -28.3736  -23.6985   26.3012 C   0  0  0  0  0  0  0  0  0  0  0  0
  -32.4653  -26.4246   20.3620 C   0  0  0  0  0  0  0  0  0  0  0  0
  -19.3193  -23.7325   21.8563 C   0  0  0  0  0  0  0  0  0  0  0  0
  -26.2025  -29.6788   19.7717 C   0  0  0  0  0  0  0  0  0  0  0  0
  -25.0710  -29.7939   22.5014 C   0  0  0  0  0  0  0  0  0  0  0  0
  -32.0152  -26.9092   21.7364 C   0  0  0  0  0  0  0  0  0  0  0  0
  -19.4282  -24.5885   20.5954 C   0  0  0  0  0  0  0  0  0  0  0  0
  -30.9504  -23.6951   23.8443 C   0  0  0  0  0  0  0  0  0  0  0  0
  -30.9356  -27.9705   21.5854 C   0  0  0  0  0  0  0  0  0  0  0  0
  -30.4397  -22.7225   22.7799 C   0  0  0  0  0  0  0  0  0  0  0  0
  -30.5706  -23.2415   25.2521 C   0  0  0  0  0  0  0  0  0  0  0  0
  -28.6225  -22.0048   24.3866 C   0  0  0  0  0  0  0  0  0  0  0  0
  -29.6884  -27.3883   20.9085 C   0  0  1  0  0  0  0  0  0  0  0  0
  -21.8596  -25.0831   21.0192 C   0  0  1  0  0  0  0  0  0  1  0  0
  -27.0407  -30.1109   20.9710 C   0  0  1  0  0  0  0  0  0  0  0  0
  -20.8386  -24.5614   19.9906 C   0  0  1  0  0  0  0  0  0  0  0  0
  -28.9328  -22.4491   22.9469 C   0  0  2  0  0  0  0  0  0  0  0  0
  -23.2510  -35.6650   24.8173 C   0  0  0  0  0  0  0  0  0  0  0  0
  -20.2205  -22.7058   18.4162 C   0  0  0  0  0  0  0  0  0  0  0  0
  -22.6357  -23.1777   18.9141 C   0  0  0  0  0  0  0  0  0  0  0  0
  -27.4662  -30.6081   25.5461 C   0  0  0  0  0  0  0  0  0  0  0  0
  -25.9562  -32.3099   26.5912 C   0  0  0  0  0  0  0  0  0  0  0  0
  -27.9173  -33.0486   25.2380 C   0  0  0  0  0  0  0  0  0  0  0  0
  -22.4485  -34.3614   21.3341 C   0  0  0  0  0  0  0  0  0  0  0  0
  -25.5140  -25.3479   26.6746 C   0  0  0  0  0  0  0  0  0  0  0  0
  -24.7451  -25.1593   25.3673 C   0  0  0  0  0  0  0  0  0  0  0  0
  -26.1048  -24.0583   27.2404 C   0  0  0  0  0  0  0  0  0  0  0  0
  -25.9118  -32.0465   24.0694 C   0  0  1  0  0  0  0  0  0  0  0  0
  -23.5312  -34.9427   23.5086 C   0  0  2  0  0  0  0  0  0  0  0  0
  -21.2168  -23.1700   19.4741 C   0  0  0  0  0  0  0  0  0  0  0  0
  -26.8028  -31.9848   25.3421 C   0  0  0  0  0  0  0  0  0  0  0  0
  -28.4084  -20.1458   22.2381 N   0  0  0  0  0  0  0  0  0  0  0  0
  -28.4278  -21.4516   21.9209 N   0  0  0  0  0  0  0  0  0  0  0  0
  -26.2250  -30.6061   22.0816 N   0  0  0  0  0  0  0  0  0  0  0  0
  -29.1286  -23.0009   25.3439 N   0  0  0  0  0  0  0  0  0  0  0  0
  -27.9221  -22.9812   20.1845 N   0  0  0  0  0  0  0  0  0  0  0  0
  -26.8018  -18.9824   18.4095 N   0  0  0  0  0  0  0  0  0  0  0  0
  -23.6786  -24.2206   25.5314 N   0  0  0  0  0  0  0  0  0  0  0  0
  -28.7752  -28.4652   20.5952 N   0  0  0  0  0  0  0  0  0  0  0  0
  -25.2923  -33.3466   23.8361 N   0  0  0  0  0  0  0  0  0  0  0  0
  -27.0132  -23.4160   26.3168 N   0  0  0  0  0  0  0  0  0  0  0  0
  -22.3069  -35.0127   22.6617 N   0  3  0  0  0  0  0  0  0  0  0  0
  -26.9070  -21.2366   18.0020 O   0  0  0  0  0  0  0  0  0  0  0  0
  -27.7598  -28.6519   22.6825 O   0  0  0  0  0  0  0  0  0  0  0  0
  -27.6417  -32.4126   22.4884 O   0  0  0  0  0  0  0  0  0  0  0  0
  -23.1002  -32.5905   23.8534 O   0  0  0  0  0  0  0  0  0  0  0  0
  -28.8739  -24.5167   27.0805 O   0  0  0  0  0  0  0  0  0  0  0  0
  -27.2357  -14.0276   20.9173 O   0  0  0  0  0  0  0  0  0  0  0  0
  -21.7180  -26.5004   21.1421 O   0  0  0  0  0  0  0  0  0  1  0  0
  -30.8501  -11.1148   17.9415 F   0  0  0  0  0  0  0  0  0  0  0  0
  -28.7878  -12.0660   22.0945 F   0  0  0  0  0  0  0  0  0  0  0  0
  1  2  1  0  0  0  0
  1  5  2  0  0  0  0
  2  6  2  0  0  0  0
  3 10  2  0  0  0  0
  3 18  1  0  0  0  0
  4 11  1  0  0  0  0
  4 18  2  0  0  0  0
  5 20  1  0  0  0  0
  6 23  1  0  0  0  0
  7  9  2  0  0  0  0
  7 21  1  0  0  0  0
  8 12  2  0  0  0  0
  8 22  1  0  0  0  0
  9 26  1  0  0  0  0
 10 27  1  0  0  0  0
 11 27  2  0  0  0  0
 12 28  1  0  0  0  0
 13 14  2  0  0  0  0
 13 29  1  0  0  0  0
 14 30  1  0  0  0  0
 15 24  1  0  0  0  0
 15 26  2  0  0  0  0
 16 25  1  0  0  0  0
 16 28  2  0  0  0  0
 17 30  2  0  0  0  0
 17 31  1  0  0  0  0
 18 32  1  0  0  0  0
 19 32  1  0  0  0  0
 19 33  2  0  0  0  0
 19 34  1  0  0  0  0
 20 23  2  0  0  0  0
 20 39  1  0  0  0  0
 21 24  2  0  0  0  0
 21 40  1  0  0  0  0
 22 25  2  0  0  0  0
 22 41  1  0  0  0  0
 23 50  1  0  0  0  0
 24 51  1  0  0  0  0
 25 42  1  0  0  0  0
 26 75  1  0  0  0  0
 27 85  1  0  0  0  0
 28 86  1  0  0  0  0
 29 31  2  0  0  0  0
 29 85  1  0  0  0  0
 30 87  1  0  0  0  0
 31 88  1  0  0  0  0
 32 69  2  0  0  0  0
 33 70  1  0  0  0  0
 33 73  1  0  0  0  0
 34 74  1  0  0  0  0
 34 80  2  0  0  0  0
 35 52  1  0  0  0  0
 35 76  1  0  0  0  0
 35 81  2  0  0  0  0
 36 65  1  0  0  0  0
 36 71  1  0  0  0  0
 36 82  2  0  0  0  0
 37 66  1  0  0  0  0
 37 77  1  0  0  0  0
 37 83  2  0  0  0  0
 38 72  1  0  0  0  0
 38 78  1  0  0  0  0
 38 84  2  0  0  0  0
 39 43  1  0  0  0  0
 40 44  1  0  0  0  0
 41 52  1  0  0  0  0
 42 71  1  0  0  0  0
 43 46  1  0  0  0  0
 44 53  1  0  0  0  0
 45 47  1  0  0  0  0
 45 48  1  0  0  0  0
 46 50  1  0  0  0  0
 47 54  1  0  0  0  0
 48 72  1  0  0  0  0
 49 54  1  0  0  0  0
 49 72  1  0  0  0  0
 50 76  1  0  0  0  0
 51 53  1  0  0  0  0
 51 86  1  0  0  0  0
 52 71  1  0  0  0  0
 53 67  1  0  0  0  0
 54 70  1  0  0  0  0
 55 66  1  0  0  0  0
 56 67  1  0  0  0  0
 57 67  1  0  0  0  0
 58 68  1  0  0  0  0
 59 68  1  0  0  0  0
 60 68  1  0  0  0  0
 61 79  1  0  0  0  0
 62 63  1  0  0  0  0
 62 64  1  0  0  0  0
 63 75  1  0  0  0  0
 64 78  1  0  0  0  0
 65 68  1  0  0  0  0
 65 77  1  0  0  0  0
 66 79  1  0  0  0  0
 69 70  1  0  0  0  0
M  CHG  1  79   1
M  ISO  4  38 100  51 101  78 100  86 101
M  END
> <Batch ID>
0139

> <Smiles>
CNC(C)C(=O)NC(C(=O)N1Cc2cc([101O:1][101CH:1]3c4cc(NCCC[100NH:0][100C:0](=O)N5CCCC(n6nc(-c7ccc(Oc8ccc(F)cc8F)cc7)c(C(N)=O)c6N)C5)ccc4CCC3C(C)C)ccc2CC1C(=O)NC1CCCc2ccccc21)C(C)(C)C

> <Shape>
0.265

> <Color>
0.060

> <Negative vol penalty>
0.000

$$$$

  -OEChem-04052321103D

 89 98  0     1  0  0  0  0  0999 V2000
  -28.7792  -36.2446   21.9370 C   0  0  0  0  0  0  0  0  0  0  0  0
  -28.8335  -34.8720   22.1573 C   0  0  0  0  0  0  0  0  0  0  0  0
  -27.5572  -15.4716   24.2493 C   0  0  0  0  0  0  0  0  0  0  0  0
  -23.0727  -10.4126   20.6828 C   0  0  0  0  0  0  0  0  0  0  0  0
  -24.6875   -8.7288   21.3107 C   0  0  0  0  0  0  0  0  0  0  0  0
  -27.5850  -36.9352   22.1392 C   0  0  0  0  0  0  0  0  0  0  0  0
  -27.6938  -34.1894   22.5810 C   0  0  0  0  0  0  0  0  0  0  0  0
  -26.9766  -29.8549   20.0625 C   0  0  0  0  0  0  0  0  0  0  0  0
  -26.3961  -16.2436   24.2085 C   0  0  0  0  0  0  0  0  0  0  0  0
  -28.6382  -15.7940   23.4288 C   0  0  0  0  0  0  0  0  0  0  0  0
  -22.1914   -9.9278   21.6492 C   0  0  0  0  0  0  0  0  0  0  0  0
  -23.8061   -8.2440   22.2771 C   0  0  0  0  0  0  0  0  0  0  0  0
  -27.7602  -28.7641   20.4365 C   0  0  0  0  0  0  0  0  0  0  0  0
  -21.8406   -6.3343   24.6645 C   0  0  0  0  0  0  0  0  0  0  0  0
  -21.6733   -4.9525   24.7545 C   0  0  0  0  0  0  0  0  0  0  0  0
  -25.9177  -27.8899   21.7249 C   0  0  0  0  0  0  0  0  0  0  0  0
  -20.8872   -4.8989   22.4706 C   0  0  0  0  0  0  0  0  0  0  0  0
  -24.3207   -9.8131   20.5136 C   0  0  0  0  0  0  0  0  0  0  0  0
  -25.0122  -10.3893   18.1266 C   0  0  0  0  0  0  0  0  0  0  0  0
  -26.4276  -36.2591   22.5563 C   0  0  0  0  0  0  0  0  0  0  0  0
  -25.6590  -29.9772   20.5266 C   0  0  0  0  0  0  0  0  0  0  0  0
  -26.4834  -34.8718   22.7903 C   0  0  0  0  0  0  0  0  0  0  0  0
  -25.1186  -28.9819   21.3533 C   0  0  0  0  0  0  0  0  0  0  0  0
  -26.3160  -17.3378   23.3471 C   0  0  0  0  0  0  0  0  0  0  0  0
  -28.5582  -16.8882   22.5675 C   0  0  0  0  0  0  0  0  0  0  0  0
  -27.3971  -17.6602   22.5266 C   0  0  0  0  0  0  0  0  0  0  0  0
  -22.5581   -8.8435   22.4463 C   0  0  0  0  0  0  0  0  0  0  0  0
  -27.2318  -27.7828   21.2701 C   0  0  0  0  0  0  0  0  0  0  0  0
  -21.5311   -6.9985   23.4776 C   0  0  0  0  0  0  0  0  0  0  0  0
  -21.1966   -4.2347   23.6576 C   0  0  0  0  0  0  0  0  0  0  0  0
  -21.0544   -6.2808   22.3806 C   0  0  0  0  0  0  0  0  0  0  0  0
  -25.2313  -10.3131   19.5151 C   0  0  0  0  0  0  0  0  0  0  0  0
  -26.1699  -10.9324   17.6256 C   0  0  0  0  0  0  0  0  0  0  0  0
  -23.8646  -10.0037   17.3584 C   0  0  0  0  0  0  0  0  0  0  0  0
  -24.0982  -32.0898   22.3167 C   0  0  0  0  0  0  0  0  0  0  0  0
  -21.5257  -30.2830   21.5166 C   0  0  0  0  0  0  0  0  0  0  0  0
  -20.7742  -26.7692   21.1918 C   0  0  0  0  0  0  0  0  0  0  0  0
  -30.4053  -14.4232   20.0189 C   0  0  0  0  0  0  0  0  0  0  0  0
  -25.1720  -37.0561   22.8072 C   0  0  0  0  0  0  0  0  0  0  0  0
  -24.8181  -31.1463   20.0924 C   0  0  0  0  0  0  0  0  0  0  0  0
  -23.7030  -29.0560   21.8622 C   0  0  0  0  0  0  0  0  0  0  0  0
  -23.9130  -36.1974   22.8958 C   0  0  0  0  0  0  0  0  0  0  0  0
  -30.8610  -11.2263   18.5193 C   0  0  0  0  0  0  0  0  0  0  0  0
  -24.1540  -34.9878   23.7934 C   0  0  0  0  0  0  0  0  0  0  0  0
  -28.1591  -23.3384   20.0020 C   0  0  0  0  0  0  0  0  0  0  0  0
  -26.9042  -23.1535   22.1900 C   0  0  0  0  0  0  0  0  0  0  0  0
  -29.4501  -10.6366   18.4792 C   0  0  0  0  0  0  0  0  0  0  0  0
  -28.5455  -24.7730   20.3492 C   0  0  0  0  0  0  0  0  0  0  0  0
  -27.2936  -24.5888   22.5308 C   0  0  0  0  0  0  0  0  0  0  0  0
  -31.0908  -12.0546   19.7815 C   0  0  0  0  0  0  0  0  0  0  0  0
  -28.6791  -12.5218   19.9792 C   0  0  0  0  0  0  0  0  0  0  0  0
  -25.2620  -34.0920   23.2264 C   0  0  1  0  0  0  0  0  0  0  0  0
  -23.6571  -31.4318   21.0400 C   0  0  1  0  0  0  0  0  0  0  0  0
  -27.9342  -22.4928   21.2633 C   0  0  0  0  0  0  0  0  0  0  0  0
  -28.3813  -11.7243   18.6980 C   0  0  2  0  0  0  0  0  0  0  0  0
  -27.5209  -25.4254   21.2735 C   0  0  0  0  0  0  0  0  0  1  0  0
  -25.0589  -18.1455   23.3250 C   0  0  0  0  0  0  0  0  0  0  0  0
  -19.0761  -25.5885   19.7705 C   0  0  0  0  0  0  0  0  0  0  0  0
  -19.7550  -30.4596   23.9952 C   0  0  0  0  0  0  0  0  0  0  0  0
  -18.8983  -28.1686   23.4610 C   0  0  0  0  0  0  0  0  0  0  0  0
  -18.5218  -30.0438   21.8596 C   0  0  0  0  0  0  0  0  0  0  0  0
  -22.8378  -25.0476   19.9523 C   0  0  0  0  0  0  0  0  0  0  0  0
  -29.7318  -17.2080   21.6998 C   0  0  0  0  0  0  0  0  0  0  0  0
  -27.4960  -21.0772   20.8923 C   0  0  0  0  0  0  0  0  0  0  0  0
  -29.5630  -16.7464   20.2485 C   0  0  0  0  0  0  0  0  0  0  0  0
  -27.7086  -20.0846   22.0262 C   0  0  0  0  0  0  0  0  0  0  0  0
  -20.8432  -29.0735   22.1083 C   0  0  1  0  0  0  0  0  0  0  0  0
  -20.5323  -26.0071   19.9014 C   0  0  2  0  0  0  0  0  0  0  0  0
  -19.5324  -29.4409   22.8595 C   0  0  0  0  0  0  0  0  0  0  0  0
  -26.4339  -10.7710   19.8732 N   0  0  0  0  0  0  0  0  0  0  0  0
  -26.9808  -11.1401   18.7024 N   0  0  0  0  0  0  0  0  0  0  0  0
  -22.9228  -30.2216   21.4149 N   0  0  0  0  0  0  0  0  0  0  0  0
  -30.0441  -13.0687   19.9293 N   0  0  0  0  0  0  0  0  0  0  0  0
  -26.5634  -11.2478   16.3733 N   0  0  0  0  0  0  0  0  0  0  0  0
  -22.7610   -9.4625   18.0318 N   0  0  0  0  0  0  0  0  0  0  0  0
  -27.3169  -18.7496   21.6677 N   0  0  0  0  0  0  0  0  0  0  0  0
  -24.7547  -33.2917   22.1325 N   0  0  0  0  0  0  0  0  0  0  0  0
  -20.6583  -28.1311   21.0101 N   0  0  0  0  0  0  0  0  0  0  0  0
  -29.3515  -15.3193   20.1509 N   0  0  0  0  0  0  0  0  0  0  0  0
  -21.3793  -24.7817   19.8569 N   0  3  0  0  0  0  0  0  0  0  0  0
  -23.8255  -10.1201   16.1101 O   0  0  0  0  0  0  0  0  0  0  0  0
  -23.8594  -31.5479   23.3896 O   0  0  0  0  0  0  0  0  0  0  0  0
  -20.8439  -31.2439   21.1514 O   0  0  0  0  0  0  0  0  0  0  0  0
  -21.0358  -26.2118   22.2555 O   0  0  0  0  0  0  0  0  0  0  0  0
  -31.5795  -14.8060   19.9784 O   0  0  0  0  0  0  0  0  0  0  0  0
  -21.6984   -8.3703   23.3895 O   0  0  0  0  0  0  0  0  0  0  0  0
  -27.9946  -26.7174   21.6372 O   0  0  0  0  0  0  0  0  0  1  0  0
  -21.0375   -2.9076   23.7436 F   0  0  0  0  0  0  0  0  0  0  0  0
  -20.7565   -6.9131   21.2373 F   0  0  0  0  0  0  0  0  0  0  0  0
  1  2  1  0  0  0  0
  1  6  2  0  0  0  0
  2  7  2  0  0  0  0
  3  9  1  0  0  0  0
  3 10  2  0  0  0  0
  4 11  2  0  0  0  0
  4 18  1  0  0  0  0
  5 12  1  0  0  0  0
  5 18  2  0  0  0  0
  6 20  1  0  0  0  0
  7 22  1  0  0  0  0
  8 13  2  0  0  0  0
  8 21  1  0  0  0  0
  9 24  2  0  0  0  0
 10 25  1  0  0  0  0
 11 27  1  0  0  0  0
 12 27  2  0  0  0  0
 13 28  1  0  0  0  0
 14 15  2  0  0  0  0
 14 29  1  0  0  0  0
 15 30  1  0  0  0  0
 16 23  1  0  0  0  0
 16 28  2  0  0  0  0
 17 30  2  0  0  0  0
 17 31  1  0  0  0  0
 18 32  1  0  0  0  0
 19 32  1  0  0  0  0
 19 33  2  0  0  0  0
 19 34  1  0  0  0  0
 20 22  2  0  0  0  0
 20 39  1  0  0  0  0
 21 23  2  0  0  0  0
 21 40  1  0  0  0  0
 22 52  1  0  0  0  0
 23 41  1  0  0  0  0
 24 26  1  0  0  0  0
 24 57  1  0  0  0  0
 25 26  2  0  0  0  0
 25 63  1  0  0  0  0
 26 76  1  0  0  0  0
 27 86  1  0  0  0  0
 28 87  1  0  0  0  0
 29 31  2  0  0  0  0
 29 86  1  0  0  0  0
 30 88  1  0  0  0  0
 31 89  1  0  0  0  0
 32 70  2  0  0  0  0
 33 71  1  0  0  0  0
 33 74  1  0  0  0  0
 34 75  1  0  0  0  0
 34 81  2  0  0  0  0
 35 53  1  0  0  0  0
 35 77  1  0  0  0  0
 35 82  2  0  0  0  0
 36 67  1  0  0  0  0
 36 72  1  0  0  0  0
 36 83  2  0  0  0  0
 37 68  1  0  0  0  0
 37 78  1  0  0  0  0
 37 84  2  0  0  0  0
 38 73  1  0  0  0  0
 38 79  1  0  0  0  0
 38 85  2  0  0  0  0
 39 42  1  0  0  0  0
 40 53  1  0  0  0  0
 41 72  1  0  0  0  0
 42 44  1  0  0  0  0
 43 47  1  0  0  0  0
 43 50  1  0  0  0  0
 44 52  1  0  0  0  0
 45 48  1  0  0  0  0
 45 54  1  0  0  0  0
 46 49  1  0  0  0  0
 46 54  1  0  0  0  0
 47 55  1  0  0  0  0
 48 56  1  0  0  0  0
 49 56  1  0  0  0  0
 50 73  1  0  0  0  0
 51 55  1  0  0  0  0
 51 73  1  0  0  0  0
 52 77  1  0  0  0  0
 53 72  1  0  0  0  0
 54 64  1  0  0  0  0
 55 71  1  0  0  0  0
 56 87  1  0  0  0  0
 58 68  1  0  0  0  0
 59 69  1  0  0  0  0
 60 69  1  0  0  0  0
 61 69  1  0  0  0  0
 62 80  1  0  0  0  0
 63 65  1  0  0  0  0
 64 66  1  0  0  0  0
 65 79  1  0  0  0  0
 66 76  1  0  0  0  0
 67 69  1  0  0  0  0
 67 78  1  0  0  0  0
 68 80  1  0  0  0  0
 70 71  1  0  0  0  0
M  CHG  1  80   1
M  ISO  4  38 100  56 101  79 100  87 101
M  END
> <Batch ID>
0139

> <Smiles>
CNC(C)C(=O)NC(C(=O)N1Cc2cc([101O:1][101CH:1]3CCC(CCNc4c(C)cccc4CC[100NH:0][100C:0](=O)N4CCCC(n5nc(-c6ccc(Oc7ccc(F)cc7F)cc6)c(C(N)=O)c5N)C4)CC3)ccc2CC1C(=O)NC1CCCc2ccccc21)C(C)(C)C

> <Shape>
0.312

> <Color>
0.094

> <Negative vol penalty>
0.000

$$$$

  -OEChem-04052321103D

 87 96  0     1  0  0  0  0  0999 V2000
  -20.5084  -25.0001   24.9042 C   0  0  0  0  0  0  0  0  0  0  0  0
  -21.3956  -25.0028   23.8326 C   0  0  0  0  0  0  0  0  0  0  0  0
  -24.2443   -8.7845   19.6170 C   0  0  0  0  0  0  0  0  0  0  0  0
  -24.4376   -9.3023   21.9689 C   0  0  0  0  0  0  0  0  0  0  0  0
  -19.5644  -26.0187   25.0288 C   0  0  0  0  0  0  0  0  0  0  0  0
  -21.3386  -26.0236   22.8844 C   0  0  0  0  0  0  0  0  0  0  0  0
  -25.9196  -27.8177   21.6839 C   0  0  0  0  0  0  0  0  0  0  0  0
  -23.0780   -8.0631   19.8716 C   0  0  0  0  0  0  0  0  0  0  0  0
  -23.2712   -8.5809   22.2236 C   0  0  0  0  0  0  0  0  0  0  0  0
  -26.6919  -27.0566   20.8076 C   0  0  0  0  0  0  0  0  0  0  0  0
  -22.3685   -5.3393   22.5520 C   0  0  0  0  0  0  0  0  0  0  0  0
  -22.3710   -4.4663   23.6399 C   0  0  0  0  0  0  0  0  0  0  0  0
  -26.0538  -28.5107   18.9917 C   0  0  0  0  0  0  0  0  0  0  0  0
  -26.0403  -18.6972   15.0623 C   0  0  0  0  0  0  0  0  0  0  0  0
  -20.5460   -5.6992   24.6333 C   0  0  0  0  0  0  0  0  0  0  0  0
  -24.9242   -9.4041   20.6656 C   0  0  0  0  0  0  0  0  0  0  0  0
  -27.3227   -9.6629   19.8365 C   0  0  0  0  0  0  0  0  0  0  0  0
  -19.5023  -27.0577   24.0868 C   0  0  0  0  0  0  0  0  0  0  0  0
  -25.1987  -28.9265   21.2178 C   0  0  0  0  0  0  0  0  0  0  0  0
  -20.3921  -27.0563   22.9957 C   0  0  0  0  0  0  0  0  0  0  0  0
  -25.2751  -29.2858   19.8646 C   0  0  0  0  0  0  0  0  0  0  0  0
  -25.6143  -17.3743   15.0197 C   0  0  0  0  0  0  0  0  0  0  0  0
  -25.7901  -16.5571   16.1308 C   0  0  0  0  0  0  0  0  0  0  0  0
  -22.5914   -7.9613   21.1749 C   0  0  0  0  0  0  0  0  0  0  0  0
  -26.7568  -27.4013   19.4607 C   0  0  0  0  0  0  0  0  0  0  0  0
  -21.4549   -6.3923   22.5048 C   0  0  0  0  0  0  0  0  0  0  0  0
  -21.4597   -4.6462   24.6805 C   0  0  0  0  0  0  0  0  0  0  0  0
  -20.5436   -6.5722   23.5454 C   0  0  0  0  0  0  0  0  0  0  0  0
  -26.1293  -10.1490   20.4033 C   0  0  0  0  0  0  0  0  0  0  0  0
  -26.6315  -19.1509   16.2304 C   0  0  0  0  0  0  0  0  0  0  0  0
  -26.3927  -17.1065   17.2510 C   0  0  0  0  0  0  0  0  0  0  0  0
  -28.1552  -10.7548   19.8000 C   0  0  0  0  0  0  0  0  0  0  0  0
  -27.6496   -8.3425   19.3834 C   0  0  0  0  0  0  0  0  0  0  0  0
  -22.1201  -29.7072   21.0879 C   0  0  0  0  0  0  0  0  0  0  0  0
  -23.2854  -32.5475   20.0405 C   0  0  0  0  0  0  0  0  0  0  0  0
  -25.8327  -34.2619   18.5508 C   0  0  0  0  0  0  0  0  0  0  0  0
  -27.1584  -16.6432   19.6059 C   0  0  0  0  0  0  0  0  0  0  0  0
  -18.4337  -28.1113   24.2377 C   0  0  0  0  0  0  0  0  0  0  0  0
  -24.3915  -29.7531   22.1809 C   0  0  0  0  0  0  0  0  0  0  0  0
  -24.5363  -30.4790   19.3179 C   0  0  0  0  0  0  0  0  0  0  0  0
  -18.6851  -29.3588   23.3947 C   0  0  0  0  0  0  0  0  0  0  0  0
  -29.0233  -14.8794   22.0733 C   0  0  0  0  0  0  0  0  0  0  0  0
  -19.0772  -28.9718   21.9722 C   0  0  0  0  0  0  0  0  0  0  0  0
  -28.6060  -13.4212   21.8695 C   0  0  0  0  0  0  0  0  0  0  0  0
  -27.7213  -23.0455   17.8598 C   0  0  0  0  0  0  0  0  0  0  0  0
  -25.3810  -23.8707   17.4405 C   0  0  0  0  0  0  0  0  0  0  0  0
  -27.8561  -15.8397   21.8515 C   0  0  0  0  0  0  0  0  0  0  0  0
  -28.1457  -24.5022   18.0574 C   0  0  0  0  0  0  0  0  0  0  0  0
  -25.8985  -25.2946   17.6547 C   0  0  0  0  0  0  0  0  0  0  0  0
  -26.7388  -14.2223   20.3665 C   0  0  0  0  0  0  0  0  0  0  0  0
  -20.3779  -28.1597   21.9601 C   0  0  1  0  0  0  0  0  0  0  0  0
  -23.2886  -30.5574   21.4996 C   0  0  1  0  0  0  0  0  0  0  0  0
  -26.4972  -22.9438   16.9390 C   0  0  0  0  0  0  0  0  0  0  0  0
  -27.8968  -13.2220   20.5157 C   0  0  2  0  0  0  0  0  0  0  0  0
  -24.9736  -16.8574   13.7740 C   0  0  0  0  0  0  0  0  0  0  0  0
  -25.3368  -15.1346   16.1042 C   0  0  0  0  0  0  0  0  0  0  0  0
  -26.4797  -36.5660   17.7960 C   0  0  0  0  0  0  0  0  0  0  0  0
  -21.4388  -32.2728   17.6271 C   0  0  0  0  0  0  0  0  0  0  0  0
  -22.7841  -34.0478   16.4835 C   0  0  0  0  0  0  0  0  0  0  0  0
  -21.5596  -34.5771   18.5913 C   0  0  0  0  0  0  0  0  0  0  0  0
  -28.1660  -34.3286   20.3702 C   0  0  0  0  0  0  0  0  0  0  0  0
  -27.1070  -20.5795   16.3122 C   0  0  0  0  0  0  0  0  0  0  0  0
  -26.0071  -21.5021   16.8356 C   0  0  0  0  0  0  0  0  0  0  0  0
  -23.6299  -33.1294   18.6908 C   0  0  1  0  0  0  0  0  0  0  0  0
  -26.5343  -35.5537   18.9296 C   0  0  2  0  0  0  0  0  0  0  0  0
  -22.3656  -33.4831   17.8578 C   0  0  0  0  0  0  0  0  0  0  0  0
  -26.1938  -11.4485   20.7054 N   0  0  0  0  0  0  0  0  0  0  0  0
  -26.8194  -18.3869   17.3298 N   0  0  0  0  0  0  0  0  0  0  0  0
  -27.4378  -11.7882   20.3270 N   0  0  0  0  0  0  0  0  0  0  0  0
  -23.7556  -31.2519   20.2980 N   0  0  0  0  0  0  0  0  0  0  0  0
  -27.2358  -15.5953   20.5475 N   0  0  0  0  0  0  0  0  0  0  0  0
  -27.0293  -25.2896   18.5855 N   0  0  0  0  0  0  0  0  0  1  0  0
  -29.4235  -10.9221   19.3690 N   0  0  0  0  0  0  0  0  0  0  0  0
  -28.2208   -7.4452   20.2961 N   0  0  0  0  0  0  0  0  0  0  0  0
  -26.5778  -16.2841   18.3900 N   0  0  0  0  0  0  0  0  0  0  0  0
  -21.5198  -29.0317   22.1333 N   0  0  0  0  0  0  0  0  0  0  0  0
  -24.5123  -34.2624   18.9479 N   0  0  0  0  0  0  0  0  0  0  0  0
  -27.9643  -35.2900   19.2558 N   0  3  0  0  0  0  0  0  0  0  0  0
  -27.4564   -7.9745   18.1998 O   0  0  0  0  0  0  0  0  0  0  0  0
  -21.7868  -29.6681   19.9093 O   0  0  0  0  0  0  0  0  0  0  0  0
  -22.6296  -33.2205   20.8397 O   0  0  0  0  0  0  0  0  0  0  0  0
  -26.3983  -33.3456   17.9584 O   0  0  0  0  0  0  0  0  0  0  0  0
  -27.6011  -17.7687   19.8496 O   0  0  0  0  0  0  0  0  0  0  0  0
  -21.4532   -7.2577   21.4237 O   0  0  0  0  0  0  0  0  0  0  0  0
  -27.5094  -26.6597   18.6031 O   0  0  0  0  0  0  0  0  0  1  0  0
  -21.4611   -3.8069   25.7244 F   0  0  0  0  0  0  0  0  0  0  0  0
  -19.6627   -7.5813   23.5051 F   0  0  0  0  0  0  0  0  0  0  0  0
  1  2  1  0  0  0  0
  1  5  2  0  0  0  0
  2  6  2  0  0  0  0
  3  8  2  0  0  0  0
  3 16  1  0  0  0  0
  4  9  1  0  0  0  0
  4 16  2  0  0  0  0
  5 18  1  0  0  0  0
  6 20  1  0  0  0  0
  7 10  2  0  0  0  0
  7 19  1  0  0  0  0
  8 24  1  0  0  0  0
  9 24  2  0  0  0  0
 10 25  1  0  0  0  0
 11 12  2  0  0  0  0
 11 26  1  0  0  0  0
 12 27  1  0  0  0  0
 13 21  1  0  0  0  0
 13 25  2  0  0  0  0
 14 22  2  0  0  0  0
 14 30  1  0  0  0  0
 15 27  2  0  0  0  0
 15 28  1  0  0  0  0
 16 29  1  0  0  0  0
 17 29  1  0  0  0  0
 17 32  2  0  0  0  0
 17 33  1  0  0  0  0
 18 20  2  0  0  0  0
 18 38  1  0  0  0  0
 19 21  2  0  0  0  0
 19 39  1  0  0  0  0
 20 51  1  0  0  0  0
 21 40  1  0  0  0  0
 22 23  1  0  0  0  0
 22 55  1  0  0  0  0
 23 31  2  0  0  0  0
 23 56  1  0  0  0  0
 24 84  1  0  0  0  0
 25 85  1  0  0  0  0
 26 28  2  0  0  0  0
 26 84  1  0  0  0  0
 27 86  1  0  0  0  0
 28 87  1  0  0  0  0
 29 67  2  0  0  0  0
 30 62  1  0  0  0  0
 30 68  2  0  0  0  0
 31 68  1  0  0  0  0
 31 75  1  0  0  0  0
 32 69  1  0  0  0  0
 32 73  1  0  0  0  0
 33 74  1  0  0  0  0
 33 79  2  0  0  0  0
 34 52  1  0  0  0  0
 34 76  1  0  0  0  0
 34 80  2  0  0  0  0
 35 64  1  0  0  0  0
 35 70  1  0  0  0  0
 35 81  2  0  0  0  0
 36 65  1  0  0  0  0
 36 77  1  0  0  0  0
 36 82  2  0  0  0  0
 37 71  1  0  0  0  0
 37 75  1  0  0  0  0
 37 83  2  0  0  0  0
 38 41  1  0  0  0  0
 39 52  1  0  0  0  0
 40 70  1  0  0  0  0
 41 43  1  0  0  0  0
 42 44  1  0  0  0  0
 42 47  1  0  0  0  0
 43 51  1  0  0  0  0
 44 54  1  0  0  0  0
 45 48  1  0  0  0  0
 45 53  1  0  0  0  0
 46 49  1  0  0  0  0
 46 53  1  0  0  0  0
 47 71  1  0  0  0  0
 48 72  1  0  0  0  0
 49 72  1  0  0  0  0
 50 54  1  0  0  0  0
 50 71  1  0  0  0  0
 51 76  1  0  0  0  0
 52 70  1  0  0  0  0
 53 63  1  0  0  0  0
 54 69  1  0  0  0  0
 57 65  1  0  0  0  0
 58 66  1  0  0  0  0
 59 66  1  0  0  0  0
 60 66  1  0  0  0  0
 61 78  1  0  0  0  0
 62 63  1  0  0  0  0
 64 66  1  0  0  0  0
 64 77  1  0  0  0  0
 65 78  1  0  0  0  0
 67 69  1  0  0  0  0
 72 85  1  0  0  0  0
M  CHG  1  78   1
M  ISO  4  37 100  72 101  75 100  85 101
M  END
> <Batch ID>
0139

> <Smiles>
CNC(C)C(=O)NC(C(=O)N1Cc2cc([101O:1][101N:1]3CCC(CCc4cc(C)c(C)c([100NH:0][100C:0](=O)N5CCCC(n6nc(-c7ccc(Oc8ccc(F)cc8F)cc7)c(C(N)=O)c6N)C5)n4)CC3)ccc2CC1C(=O)NC1CCCc2ccccc21)C(C)(C)C

> <Shape>
0.214

> <Color>
0.130

> <Negative vol penalty>
0.000

$$$$

  -OEChem-04052321103D

 86 95  0     1  0  0  0  0  0999 V2000
  -16.7709  -28.4800   23.9577 C   0  0  0  0  0  0  0  0  0  0  0  0
  -17.4099  -27.7336   22.9728 C   0  0  0  0  0  0  0  0  0  0  0  0
  -21.9694  -21.5744   14.5077 C   0  0  0  0  0  0  0  0  0  0  0  0
  -24.7031   -8.7058   20.6585 C   0  0  0  0  0  0  0  0  0  0  0  0
  -23.0992  -10.5111   20.7330 C   0  0  0  0  0  0  0  0  0  0  0  0
  -17.2747  -29.7281   24.3216 C   0  0  0  0  0  0  0  0  0  0  0  0
  -18.5524  -28.2353   22.3505 C   0  0  0  0  0  0  0  0  0  0  0  0
  -22.4888  -20.2856   14.6209 C   0  0  0  0  0  0  0  0  0  0  0  0
  -22.2134  -24.7631   21.9193 C   0  0  0  0  0  0  0  0  0  0  0  0
  -22.2812  -22.5330   15.4647 C   0  0  0  0  0  0  0  0  0  0  0  0
  -23.7065   -7.8049   21.0334 C   0  0  0  0  0  0  0  0  0  0  0  0
  -22.1025   -9.6101   21.1080 C   0  0  0  0  0  0  0  0  0  0  0  0
  -22.0806  -23.8211   20.9000 C   0  0  0  0  0  0  0  0  0  0  0  0
  -20.1249   -7.3186   19.6051 C   0  0  0  0  0  0  0  0  0  0  0  0
  -18.8901   -7.4167   18.9638 C   0  0  0  0  0  0  0  0  0  0  0  0
  -23.6257  -25.0814   19.5422 C   0  0  0  0  0  0  0  0  0  0  0  0
  -17.8187   -7.8277   21.0899 C   0  0  0  0  0  0  0  0  0  0  0  0
  -24.3995  -10.0590   20.5083 C   0  0  0  0  0  0  0  0  0  0  0  0
  -26.1944  -10.9688   18.9404 C   0  0  0  0  0  0  0  0  0  0  0  0
  -18.4295  -30.2412   23.7103 C   0  0  0  0  0  0  0  0  0  0  0  0
  -23.3292  -19.9377   15.6922 C   0  0  0  0  0  0  0  0  0  0  0  0
  -23.0462  -25.8790   21.7531 C   0  0  0  0  0  0  0  0  0  0  0  0
  -19.0713  -29.4920   22.7056 C   0  0  0  0  0  0  0  0  0  0  0  0
  -23.7692  -26.0348   20.5619 C   0  0  0  0  0  0  0  0  0  0  0  0
  -23.6441  -20.9073   16.6609 C   0  0  0  0  0  0  0  0  0  0  0  0
  -23.1115  -22.2017   16.5346 C   0  0  0  0  0  0  0  0  0  0  0  0
  -22.4062   -8.2570   21.2582 C   0  0  0  0  0  0  0  0  0  0  0  0
  -22.7846  -23.9817   19.7102 C   0  0  0  0  0  0  0  0  0  0  0  0
  -20.2066   -7.4750   20.9888 C   0  0  0  0  0  0  0  0  0  0  0  0
  -17.7370   -7.6713   19.7062 C   0  0  0  0  0  0  0  0  0  0  0  0
  -19.0535   -7.7295   21.7312 C   0  0  0  0  0  0  0  0  0  0  0  0
  -25.4287  -10.9902   20.1215 C   0  0  0  0  0  0  0  0  0  0  0  0
  -27.0248  -12.0573   19.0497 C   0  0  0  0  0  0  0  0  0  0  0  0
  -26.1582  -10.0472   17.8426 C   0  0  0  0  0  0  0  0  0  0  0  0
  -22.5982  -29.0255   21.7075 C   0  0  0  0  0  0  0  0  0  0  0  0
  -25.8380  -29.0925   21.5613 C   0  0  0  0  0  0  0  0  0  0  0  0
  -28.7348  -27.4876   20.7366 C   0  0  0  0  0  0  0  0  0  0  0  0
  -27.8676  -17.4285   20.3090 C   0  0  0  0  0  0  0  0  0  0  0  0
  -18.9095  -31.6158   24.1036 C   0  0  0  0  0  0  0  0  0  0  0  0
  -23.8648  -18.5310   15.7802 C   0  0  0  0  0  0  0  0  0  0  0  0
  -23.1992  -26.8720   22.8725 C   0  0  0  0  0  0  0  0  0  0  0  0
  -24.5328  -20.5889   17.8365 C   0  0  0  0  0  0  0  0  0  0  0  0
  -24.6921  -27.2045   20.3416 C   0  0  0  0  0  0  0  0  0  0  0  0
  -20.3400  -31.9114   23.6604 C   0  0  0  0  0  0  0  0  0  0  0  0
  -25.3871  -18.4585   15.6534 C   0  0  0  0  0  0  0  0  0  0  0  0
  -25.9641  -20.2363   17.4296 C   0  0  0  0  0  0  0  0  0  0  0  0
  -27.9830  -15.0850   22.9869 C   0  0  0  0  0  0  0  0  0  0  0  0
  -20.5445  -31.4985   22.2063 C   0  0  0  0  0  0  0  0  0  0  0  0
  -27.3864  -13.8117   22.3847 C   0  0  0  0  0  0  0  0  0  0  0  0
  -27.2899  -16.3383   22.4571 C   0  0  0  0  0  0  0  0  0  0  0  0
  -26.6448  -15.1712   20.3846 C   0  0  0  0  0  0  0  0  0  0  0  0
  -20.3273  -29.9914   22.0250 C   0  0  1  0  0  0  0  0  0  0  0  0
  -23.6781  -28.2400   22.3963 C   0  0  1  0  0  0  0  0  0  0  0  0
  -26.1444  -18.7858   16.9514 C   0  0  2  0  0  0  0  0  0  0  0  0
  -27.3484  -13.8835   20.8463 C   0  0  2  0  0  0  0  0  0  0  0  0
  -31.2230  -27.8111   20.6951 C   0  0  0  0  0  0  0  0  0  0  0  0
  -29.8686  -18.1054   17.8336 C   0  0  0  0  0  0  0  0  0  0  0  0
  -25.5651  -30.8559   19.0862 C   0  0  0  0  0  0  0  0  0  0  0  0
  -27.9611  -30.3607   18.5548 C   0  0  0  0  0  0  0  0  0  0  0  0
  -27.3740  -31.5502   20.6674 C   0  0  0  0  0  0  0  0  0  0  0  0
  -29.1752  -25.2360   22.6062 C   0  0  0  0  0  0  0  0  0  0  0  0
  -23.4047  -23.2881   17.5215 C   0  0  0  0  0  0  0  0  0  1  0  0
  -27.6378  -18.4997   16.7527 C   0  0  0  0  0  0  0  0  0  0  0  0
  -26.8584  -29.0847   20.4487 C   0  0  1  0  0  0  0  0  0  0  0  0
  -30.0353  -27.3023   21.4973 C   0  0  2  0  0  0  0  0  0  0  0  0
  -28.3902  -18.3876   18.0805 C   0  0  1  0  0  0  0  0  0  0  0  0
  -26.9208  -30.4417   19.6924 C   0  0  0  0  0  0  0  0  0  0  0  0
  -25.7446  -12.0114   20.9224 N   0  0  0  0  0  0  0  0  0  0  0  0
  -26.7182  -12.6417   20.2433 N   0  0  0  0  0  0  0  0  0  0  0  0
  -24.8031  -28.1517   21.4632 N   0  0  0  0  0  0  0  0  0  0  0  0
  -27.2893  -16.3460   20.9922 N   0  0  0  0  0  0  0  0  0  0  0  0
  -27.9801  -12.5620   18.2404 N   0  0  0  0  0  0  0  0  0  0  0  0
  -25.2969  -10.3184   16.7708 N   0  0  0  0  0  0  0  0  0  0  0  0
  -21.4827  -29.2546   22.4903 N   0  0  0  0  0  0  0  0  0  0  0  0
  -28.1217  -28.6806   21.0563 N   0  0  0  0  0  0  0  0  0  0  0  0
  -27.8304  -17.3535   18.9220 N   0  0  0  0  0  0  0  0  0  0  0  0
  -30.2567  -25.8602   21.8012 N   0  3  0  0  0  0  0  0  0  0  0  0
  -26.8566   -9.0055   17.8206 O   0  0  0  0  0  0  0  0  0  0  0  0
  -22.7653  -29.3976   20.5519 O   0  0  0  0  0  0  0  0  0  0  0  0
  -25.9589  -29.8987   22.4871 O   0  0  0  0  0  0  0  0  0  0  0  0
  -28.3075  -26.6589   19.9360 O   0  0  0  0  0  0  0  0  0  0  0  0
  -28.3840  -18.3880   20.8919 O   0  0  0  0  0  0  0  0  0  0  0  0
  -21.4334   -7.3781   21.6238 O   0  0  0  0  0  0  0  0  0  0  0  0
  -22.6554  -23.0572   18.7060 O   0  0  0  0  0  0  0  0  0  1  0  0
  -16.5515   -7.7670   19.0902 F   0  0  0  0  0  0  0  0  0  0  0  0
  -19.1259   -7.8818   23.0606 F   0  0  0  0  0  0  0  0  0  0  0  0
  1  2  1  0  0  0  0
  1  6  2  0  0  0  0
  2  7  2  0  0  0  0
  3  8  1  0  0  0  0
  3 10  2  0  0  0  0
  4 11  2  0  0  0  0
  4 18  1  0  0  0  0
  5 12  1  0  0  0  0
  5 18  2  0  0  0  0
  6 20  1  0  0  0  0
  7 23  1  0  0  0  0
  8 21  2  0  0  0  0
  9 13  2  0  0  0  0
  9 22  1  0  0  0  0
 10 26  1  0  0  0  0
 11 27  1  0  0  0  0
 12 27  2  0  0  0  0
 13 28  1  0  0  0  0
 14 15  2  0  0  0  0
 14 29  1  0  0  0  0
 15 30  1  0  0  0  0
 16 24  1  0  0  0  0
 16 28  2  0  0  0  0
 17 30  2  0  0  0  0
 17 31  1  0  0  0  0
 18 32  1  0  0  0  0
 19 32  1  0  0  0  0
 19 33  2  0  0  0  0
 19 34  1  0  0  0  0
 20 23  2  0  0  0  0
 20 39  1  0  0  0  0
 21 25  1  0  0  0  0
 21 40  1  0  0  0  0
 22 24  2  0  0  0  0
 22 41  1  0  0  0  0
 23 52  1  0  0  0  0
 24 43  1  0  0  0  0
 25 26  2  0  0  0  0
 25 42  1  0  0  0  0
 26 62  1  0  0  0  0
 27 83  1  0  0  0  0
 28 84  1  0  0  0  0
 29 31  2  0  0  0  0
 29 83  1  0  0  0  0
 30 85  1  0  0  0  0
 31 86  1  0  0  0  0
 32 68  2  0  0  0  0
 33 69  1  0  0  0  0
 33 72  1  0  0  0  0
 34 73  1  0  0  0  0
 34 78  2  0  0  0  0
 35 53  1  0  0  0  0
 35 74  1  0  0  0  0
 35 79  2  0  0  0  0
 36 64  1  0  0  0  0
 36 70  1  0  0  0  0
 36 80  2  0  0  0  0
 37 65  1  0  0  0  0
 37 75  1  0  0  0  0
 37 81  2  0  0  0  0
 38 71  1  0  0  0  0
 38 76  1  0  0  0  0
 38 82  2  0  0  0  0
 39 44  1  0  0  0  0
 40 45  1  0  0  0  0
 41 53  1  0  0  0  0
 42 46  1  0  0  0  0
 43 70  1  0  0  0  0
 44 48  1  0  0  0  0
 45 54  1  0  0  0  0
 46 54  1  0  0  0  0
 47 49  1  0  0  0  0
 47 50  1  0  0  0  0
 48 52  1  0  0  0  0
 49 55  1  0  0  0  0
 50 71  1  0  0  0  0
 51 55  1  0  0  0  0
 51 71  1  0  0  0  0
 52 74  1  0  0  0  0
 53 70  1  0  0  0  0
 54 63  1  0  0  0  0
 55 69  1  0  0  0  0
 56 65  1  0  0  0  0
 57 66  1  0  0  0  0
 58 67  1  0  0  0  0
 59 67  1  0  0  0  0
 60 67  1  0  0  0  0
 61 77  1  0  0  0  0
 62 84  1  0  0  0  0
 63 66  1  0  0  0  0
 64 67  1  0  0  0  0
 64 75  1  0  0  0  0
 65 77  1  0  0  0  0
 66 76  1  0  0  0  0
 68 69  1  0  0  0  0
M  CHG  1  77   1
M  ISO  4  38 100  62 101  76 100  84 101
M  END
> <Batch ID>
0139

> <Smiles>
CNC(C)C(=O)NC(C(=O)N1Cc2cc([101O:1][101CH2:1]c3cccc4c3CCC(CC(C)[100NH:0][100C:0](=O)N3CCCC(n5nc(-c6ccc(Oc7ccc(F)cc7F)cc6)c(C(N)=O)c5N)C3)CC4)ccc2CC1C(=O)NC1CCCc2ccccc21)C(C)(C)C

> <Shape>
0.219

> <Color>
0.106

> <Negative vol penalty>
0.000

$$$$

  -OEChem-04052321103D

 87 95  0     1  0  0  0  0  0999 V2000
  -17.0886  -30.5422   23.8247 C   0  0  0  0  0  0  0  0  0  0  0  0
  -18.3080  -30.7764   24.4519 C   0  0  0  0  0  0  0  0  0  0  0  0
  -26.6263  -14.2024   21.8754 C   0  0  0  0  0  0  0  0  0  0  0  0
  -26.3726  -13.9762   19.4834 C   0  0  0  0  0  0  0  0  0  0  0  0
  -16.9504  -29.4631   22.9526 C   0  0  0  0  0  0  0  0  0  0  0  0
  -19.3898  -29.9310   24.2083 C   0  0  0  0  0  0  0  0  0  0  0  0
  -26.5352  -30.0113   23.7045 C   0  0  0  0  0  0  0  0  0  0  0  0
  -32.5272  -24.8751   23.6893 C   0  0  0  0  0  0  0  0  0  0  0  0
  -25.8289  -13.0741   22.0667 C   0  0  0  0  0  0  0  0  0  0  0  0
  -25.5752  -12.8478   19.6748 C   0  0  0  0  0  0  0  0  0  0  0  0
  -27.6580  -29.3576   24.2103 C   0  0  0  0  0  0  0  0  0  0  0  0
  -32.6241  -24.4371   22.3686 C   0  0  0  0  0  0  0  0  0  0  0  0
  -24.1569  -10.0419   23.1736 C   0  0  0  0  0  0  0  0  0  0  0  0
  -24.5876   -9.0931   24.1008 C   0  0  0  0  0  0  0  0  0  0  0  0
  -27.3254  -27.5713   22.6236 C   0  0  0  0  0  0  0  0  0  0  0  0
  -30.6683  -23.3748   24.0506 C   0  0  0  0  0  0  0  0  0  0  0  0
  -26.6131   -8.7659   22.8249 C   0  0  0  0  0  0  0  0  0  0  0  0
  -26.8981  -14.6535   20.5837 C   0  0  0  0  0  0  0  0  0  0  0  0
  -29.1203  -15.8563   20.2333 C   0  0  0  0  0  0  0  0  0  0  0  0
  -18.0338  -28.6097   22.6908 C   0  0  0  0  0  0  0  0  0  0  0  0
  -25.7915  -29.4436   22.6600 C   0  0  0  0  0  0  0  0  0  0  0  0
  -19.2657  -28.8387   23.3330 C   0  0  0  0  0  0  0  0  0  0  0  0
  -26.1950  -28.2210   22.1046 C   0  0  0  0  0  0  0  0  0  0  0  0
  -31.5493  -24.3440   24.5303 C   0  0  0  0  0  0  0  0  0  0  0  0
  -25.3034  -12.3968   20.9664 C   0  0  0  0  0  0  0  0  0  0  0  0
  -28.0516  -28.1360   23.6718 C   0  0  0  0  0  0  0  0  0  0  0  0
  -31.7431  -23.4679   21.8888 C   0  0  0  0  0  0  0  0  0  0  0  0
  -24.9542  -10.3527   22.0720 C   0  0  0  0  0  0  0  0  0  0  0  0
  -30.7651  -22.9368   22.7298 C   0  0  0  0  0  0  0  0  0  0  0  0
  -25.8157   -8.4551   23.9265 C   0  0  0  0  0  0  0  0  0  0  0  0
  -26.1823   -9.7147   21.8977 C   0  0  0  0  0  0  0  0  0  0  0  0
  -27.7212  -15.8194   20.3854 C   0  0  0  0  0  0  0  0  0  0  0  0
  -29.4134  -17.1888   20.0753 C   0  0  0  0  0  0  0  0  0  0  0  0
  -30.0700  -14.7822   20.2346 C   0  0  0  0  0  0  0  0  0  0  0  0
  -22.7987  -28.4232   22.3341 C   0  0  0  0  0  0  0  0  0  0  0  0
  -23.6747  -28.0544   19.2326 C   0  0  0  0  0  0  0  0  0  0  0  0
  -26.1847  -27.6010   16.9652 C   0  0  0  0  0  0  0  0  0  0  0  0
  -28.7026  -22.4843   21.7049 C   0  0  0  0  0  0  0  0  0  0  0  0
  -17.8230  -27.4284   21.7770 C   0  0  0  0  0  0  0  0  0  0  0  0
  -24.5983  -30.1743   22.1077 C   0  0  0  0  0  0  0  0  0  0  0  0
  -25.4426  -27.5792   20.9687 C   0  0  0  0  0  0  0  0  0  0  0  0
  -19.1239  -26.8003   21.2837 C   0  0  0  0  0  0  0  0  0  0  0  0
  -26.4013  -21.1627   19.2728 C   0  0  0  0  0  0  0  0  0  0  0  0
  -20.0987  -26.6121   22.4418 C   0  0  0  0  0  0  0  0  0  0  0  0
  -26.6296  -19.6541   19.3621 C   0  0  0  0  0  0  0  0  0  0  0  0
  -26.5607  -21.8338   20.6333 C   0  0  0  0  0  0  0  0  0  0  0  0
  -28.1073  -20.0456   21.3834 C   0  0  0  0  0  0  0  0  0  0  0  0
  -20.4694  -27.9585   23.0752 C   0  0  1  0  0  0  0  0  0  0  0  0
  -23.6161  -29.2558   21.3873 C   0  0  1  0  0  0  0  0  0  0  0  0
  -27.9833  -19.3381   20.0230 C   0  0  1  0  0  0  0  0  0  0  0  0
  -30.8981  -24.3706   17.2136 C   0  0  0  0  0  0  0  0  0  0  0  0
  -32.7868  -25.2777   26.5277 C   0  0  0  0  0  0  0  0  0  0  0  0
  -26.5876  -27.2977   14.5070 C   0  0  0  0  0  0  0  0  0  0  0  0
  -22.7043  -25.1685   19.4321 C   0  0  0  0  0  0  0  0  0  0  0  0
  -23.9742  -24.6698   17.3328 C   0  0  0  0  0  0  0  0  0  0  0  0
  -22.1077  -26.3244   17.2961 C   0  0  0  0  0  0  0  0  0  0  0  0
  -27.8247  -30.0599   16.8127 C   0  0  0  0  0  0  0  0  0  0  0  0
  -29.9174  -25.9847   27.5436 C   0  0  0  0  0  0  0  0  0  0  0  0
  -31.0847  -23.3790   18.3478 C   0  0  0  0  0  0  0  0  0  0  0  0
  -30.9914  -27.2495   25.6869 C   0  0  0  0  0  0  0  0  0  0  0  0
  -31.6878  -24.0358   19.5801 C   0  0  0  0  0  0  0  0  0  0  0  0
  -29.8458  -28.1323   25.2328 C   0  0  0  0  0  0  0  0  0  1  0  0
  -31.4459  -24.8167   25.9620 C   0  0  1  0  0  0  0  0  0  0  0  0
  -24.2873  -26.9393   18.4201 C   0  0  1  0  0  0  0  0  0  0  0  0
  -26.4923  -28.2954   15.6508 C   0  0  2  0  0  0  0  0  0  0  0  0
  -23.2817  -25.7864   18.1430 C   0  0  0  0  0  0  0  0  0  0  0  0
  -27.1643  -17.0321   20.3293 N   0  0  0  0  0  0  0  0  0  0  0  0
  -28.2187  -17.8436   20.1402 N   0  0  0  0  0  0  0  0  0  0  0  0
  -24.2792  -28.3294   20.4674 N   0  0  0  0  0  0  0  0  0  0  0  0
  -27.8403  -21.4826   21.2477 N   0  0  0  0  0  0  0  0  0  0  0  0
  -30.5740  -17.8527   19.8887 N   0  0  0  0  0  0  0  0  0  0  0  0
  -29.5986  -13.4739   20.4092 N   0  0  0  0  0  0  0  0  0  0  0  0
  -21.4385  -28.6532   22.2549 N   0  0  0  0  0  0  0  0  0  0  0  0
  -24.8296  -27.5613   17.2170 N   0  0  0  0  0  0  0  0  0  0  0  0
  -27.7859  -29.0295   15.7431 N   0  3  0  0  0  0  0  0  0  0  0  0
  -30.4534  -25.9399   26.1341 N   0  3  1  0  0  0  0  0  0  0  0  0
  -31.3018  -14.9784   20.1019 O   0  0  0  0  0  0  0  0  0  0  0  0
  -23.3605  -27.6298   23.0801 O   0  0  0  0  0  0  0  0  0  0  0  0
  -22.7001  -28.6639   18.7849 O   0  0  0  0  0  0  0  0  0  0  0  0
  -27.0588  -27.1368   17.6938 O   0  0  0  0  0  0  0  0  0  0  0  0
  -28.4648  -23.6893   21.6306 O   0  0  0  0  0  0  0  0  0  0  0  0
  -24.5255  -11.2956   21.1528 O   0  0  0  0  0  0  0  0  0  0  0  0
  -29.8755  -21.9652   22.2603 O   0  0  0  0  0  0  0  0  0  0  0  0
  -29.1467  -27.4956   24.1640 O   0  0  0  0  0  0  0  0  0  1  0  0
  -31.8481  -23.0486   20.5968 O   0  0  0  0  0  0  0  0  0  0  0  0
  -26.2300   -7.5450   24.8178 F   0  0  0  0  0  0  0  0  0  0  0  0
  -26.9531  -10.0100   20.8421 F   0  0  0  0  0  0  0  0  0  0  0  0
  1  2  1  0  0  0  0
  1  5  2  0  0  0  0
  2  6  2  0  0  0  0
  3  9  2  0  0  0  0
  3 18  1  0  0  0  0
  4 10  1  0  0  0  0
  4 18  2  0  0  0  0
  5 20  1  0  0  0  0
  6 22  1  0  0  0  0
  7 11  2  0  0  0  0
  7 21  1  0  0  0  0
  8 12  2  0  0  0  0
  8 24  1  0  0  0  0
  9 25  1  0  0  0  0
 10 25  2  0  0  0  0
 11 26  1  0  0  0  0
 12 27  1  0  0  0  0
 13 14  2  0  0  0  0
 13 28  1  0  0  0  0
 14 30  1  0  0  0  0
 15 23  1  0  0  0  0
 15 26  2  0  0  0  0
 16 24  2  0  0  0  0
 16 29  1  0  0  0  0
 17 30  2  0  0  0  0
 17 31  1  0  0  0  0
 18 32  1  0  0  0  0
 19 32  1  0  0  0  0
 19 33  2  0  0  0  0
 19 34  1  0  0  0  0
 20 22  2  0  0  0  0
 20 39  1  0  0  0  0
 21 23  2  0  0  0  0
 21 40  1  0  0  0  0
 22 48  1  0  0  0  0
 23 41  1  0  0  0  0
 24 63  1  0  0  0  0
 25 82  1  0  0  0  0
 26 84  1  0  0  0  0
 27 29  2  0  0  0  0
 27 85  1  0  0  0  0
 28 31  2  0  0  0  0
 28 82  1  0  0  0  0
 29 83  1  0  0  0  0
 30 86  1  0  0  0  0
 31 87  1  0  0  0  0
 32 67  2  0  0  0  0
 33 68  1  0  0  0  0
 33 71  1  0  0  0  0
 34 72  1  0  0  0  0
 34 77  2  0  0  0  0
 35 49  1  0  0  0  0
 35 73  1  0  0  0  0
 35 78  2  0  0  0  0
 36 64  1  0  0  0  0
 36 69  1  0  0  0  0
 36 79  2  0  0  0  0
 37 65  1  0  0  0  0
 37 74  1  0  0  0  0
 37 80  2  0  0  0  0
 38 70  1  0  0  0  0
 38 81  2  0  0  0  0
 38 83  1  0  0  0  0
 39 42  1  0  0  0  0
 40 49  1  0  0  0  0
 41 69  1  0  0  0  0
 42 44  1  0  0  0  0
 43 45  1  0  0  0  0
 43 46  1  0  0  0  0
 44 48  1  0  0  0  0
 45 50  1  0  0  0  0
 46 70  1  0  0  0  0
 47 50  1  0  0  0  0
 47 70  1  0  0  0  0
 48 73  1  0  0  0  0
 49 69  1  0  0  0  0
 50 68  1  0  0  0  0
 51 59  1  0  0  0  0
 52 63  1  0  0  0  0
 53 65  1  0  0  0  0
 54 66  1  0  0  0  0
 55 66  1  0  0  0  0
 56 66  1  0  0  0  0
 57 75  1  0  0  0  0
 58 76  1  0  0  0  0
 59 61  1  0  0  0  0
 60 62  1  0  0  0  0
 60 76  1  0  0  0  0
 61 85  1  0  0  0  0
 62 84  1  0  0  0  0
 63 76  1  0  0  0  0
 64 66  1  0  0  0  0
 64 74  1  0  0  0  0
 65 75  1  0  0  0  0
 67 68  1  0  0  0  0
M  CHG  2  75   1  76   1
M  ISO  4  38 100  62 101  83 100  84 101
M  END
> <Batch ID>
0139

> <Smiles>
CCCOc1ccc(C(C)N(C)C[101CH2:1][101O:1]c2ccc3c(c2)CN(C(=O)C(NC(=O)C(C)NC)C(C)(C)C)C(C(=O)NC2CCCc4ccccc42)C3)cc1[100O:0][100C:0](=O)N1CCCC(n2nc(-c3ccc(Oc4ccc(F)cc4F)cc3)c(C(N)=O)c2N)C1

> <Shape>
0.245

> <Color>
0.089

> <Negative vol penalty>
0.000

$$$$

  -OEChem-04052321103D

 87 96  0     1  0  0  0  0  0999 V2000
  -33.4411  -26.2504   15.6502 C   0  0  0  0  0  0  0  0  0  0  0  0
  -32.6156  -25.2524   16.1582 C   0  0  0  0  0  0  0  0  0  0  0  0
  -22.8219  -10.4187   20.6103 C   0  0  0  0  0  0  0  0  0  0  0  0
  -24.3038   -9.2602   22.1265 C   0  0  0  0  0  0  0  0  0  0  0  0
  -33.6519  -27.4185   16.3817 C   0  0  0  0  0  0  0  0  0  0  0  0
  -32.0013  -25.4215   17.3985 C   0  0  0  0  0  0  0  0  0  0  0  0
  -26.4580  -23.4210   19.0644 C   0  0  0  0  0  0  0  0  0  0  0  0
  -26.9893  -18.6004   23.6938 C   0  0  0  0  0  0  0  0  0  0  0  0
  -22.0130   -9.2849   20.5345 C   0  0  0  0  0  0  0  0  0  0  0  0
  -23.4948   -8.1264   22.0508 C   0  0  0  0  0  0  0  0  0  0  0  0
  -26.0418  -22.3013   19.7833 C   0  0  0  0  0  0  0  0  0  0  0  0
  -19.6410   -7.7867   22.4219 C   0  0  0  0  0  0  0  0  0  0  0  0
  -18.2613   -7.9672   22.5190 C   0  0  0  0  0  0  0  0  0  0  0  0
  -25.9887  -19.3908   23.1392 C   0  0  0  0  0  0  0  0  0  0  0  0
  -25.9677  -23.6286   21.7962 C   0  0  0  0  0  0  0  0  0  0  0  0
  -17.9800   -6.9970   20.3243 C   0  0  0  0  0  0  0  0  0  0  0  0
  -23.9674  -10.4063   21.4062 C   0  0  0  0  0  0  0  0  0  0  0  0
  -24.6957  -12.6392   22.4020 C   0  0  0  0  0  0  0  0  0  0  0  0
  -33.0322  -27.6061   17.6273 C   0  0  0  0  0  0  0  0  0  0  0  0
  -26.6429  -24.6525   19.7092 C   0  0  0  0  0  0  0  0  0  0  0  0
  -32.2051  -26.5926   18.1480 C   0  0  0  0  0  0  0  0  0  0  0  0
  -26.3837  -24.7631   21.0828 C   0  0  0  0  0  0  0  0  0  0  0  0
  -28.3233  -18.9477   23.5112 C   0  0  0  0  0  0  0  0  0  0  0  0
  -22.3494   -8.1388   21.2548 C   0  0  0  0  0  0  0  0  0  0  0  0
  -25.7994  -22.4043   21.1500 C   0  0  0  0  0  0  0  0  0  0  0  0
  -20.1903   -7.2115   21.2759 C   0  0  0  0  0  0  0  0  0  0  0  0
  -17.4308   -7.5723   21.4702 C   0  0  0  0  0  0  0  0  0  0  0  0
  -19.3597   -6.8166   20.2272 C   0  0  0  0  0  0  0  0  0  0  0  0
  -24.8037  -11.5770   21.4845 C   0  0  0  0  0  0  0  0  0  0  0  0
  -26.3716  -20.5093   22.4165 C   0  0  0  0  0  0  0  0  0  1  0  0
  -28.6017  -20.0860   22.7720 C   0  0  0  0  0  0  0  0  0  0  0  0
  -25.7152  -13.4936   22.0598 C   0  0  0  0  0  0  0  0  0  0  0  0
  -23.7577  -12.8359   23.4683 C   0  0  0  0  0  0  0  0  0  0  0  0
  -29.1201  -26.5875   20.1816 C   0  0  0  0  0  0  0  0  0  0  0  0
  -26.8558  -28.5420   21.4366 C   0  0  0  0  0  0  0  0  0  0  0  0
  -23.7840  -28.8589   22.8894 C   0  0  0  0  0  0  0  0  0  0  0  0
  -31.0249  -14.3956   20.5975 C   0  0  0  0  0  0  0  0  0  0  0  0
  -33.3278  -28.8654   18.4028 C   0  0  0  0  0  0  0  0  0  0  0  0
  -27.0664  -25.8572   18.9145 C   0  0  0  0  0  0  0  0  0  0  0  0
  -26.5477  -26.0672   21.8183 C   0  0  0  0  0  0  0  0  0  0  0  0
  -32.3419  -29.1268   19.5386 C   0  0  0  0  0  0  0  0  0  0  0  0
  -28.7357  -13.5569   18.0028 C   0  0  0  0  0  0  0  0  0  0  0  0
  -32.1113  -27.8551   20.3487 C   0  0  0  0  0  0  0  0  0  0  0  0
  -32.4443  -21.1322   20.7154 C   0  0  0  0  0  0  0  0  0  0  0  0
  -32.1740  -22.5945   20.4954 C   0  0  0  0  0  0  0  0  0  0  0  0
  -27.5029  -13.0491   18.7527 C   0  0  0  0  0  0  0  0  0  0  0  0
  -30.0300  -13.1482   18.7026 C   0  0  0  0  0  0  0  0  0  0  0  0
  -28.8766  -13.0161   20.8765 C   0  0  0  0  0  0  0  0  0  0  0  0
  -31.5013  -26.7496   19.4784 C   0  0  1  0  0  0  0  0  0  0  0  0
  -27.7181  -26.9388   19.7706 C   0  0  1  0  0  0  0  0  0  0  0  0
  -31.6069  -21.8986   21.7015 C   0  0  0  0  0  0  0  0  0  0  0  0
  -27.5458  -13.4511   20.2392 C   0  0  2  0  0  0  0  0  0  0  0  0
  -22.2217  -30.5781   23.8385 C   0  0  0  0  0  0  0  0  0  0  0  0
  -33.0718  -14.7853   23.1044 C   0  0  0  0  0  0  0  0  0  0  0  0
  -28.5766  -28.7145   23.9504 C   0  0  0  0  0  0  0  0  0  0  0  0
  -26.5848  -29.6198   25.1675 C   0  0  0  0  0  0  0  0  0  0  0  0
  -27.5460  -30.8799   23.2411 C   0  0  0  0  0  0  0  0  0  0  0  0
  -21.6876  -28.2207   20.9002 C   0  0  0  0  0  0  0  0  0  0  0  0
  -29.4032  -18.1084   24.1005 C   0  0  0  0  0  0  0  0  0  0  0  0
  -30.1188  -21.6397   21.8023 C   0  0  0  0  0  0  0  0  0  0  0  0
  -31.2328  -16.4662   23.6596 C   0  0  0  0  0  0  0  0  0  0  0  0
  -26.2609  -28.7459   22.8091 C   0  0  1  0  0  0  0  0  0  0  0  0
  -22.6241  -29.7942   22.5991 C   0  0  2  0  0  0  0  0  0  0  0  0
  -31.8921  -15.6019   22.5855 C   0  0  2  0  0  0  0  0  0  0  0  0
  -27.2408  -29.4649   23.7788 C   0  0  0  0  0  0  0  0  0  0  0  0
  -25.8122  -11.7396   20.6239 N   0  0  0  0  0  0  0  0  0  0  0  0
  -27.6568  -20.8785   22.2179 N   0  0  0  0  0  0  0  0  0  0  0  0
  -26.3471  -12.9140   20.9991 N   0  0  0  0  0  0  0  0  0  0  0  0
  -26.9698  -27.2150   20.9986 N   0  0  0  0  0  0  0  0  0  0  0  0
  -30.0074  -13.5600   20.1083 N   0  0  0  0  0  0  0  0  0  0  0  0
  -26.1237  -14.6767   22.5656 N   0  0  0  0  0  0  0  0  0  0  0  0
  -22.7747  -11.8600   23.6821 N   0  0  0  0  0  0  0  0  0  0  0  0
  -30.0875  -26.9858   19.2788 N   0  0  0  0  0  0  0  0  0  0  0  0
  -24.9982  -29.4479   22.6065 N   0  0  0  0  0  0  0  0  0  0  0  0
  -30.9246  -14.7435   21.9390 N   0  0  0  0  0  0  0  0  0  0  0  0
  -21.4407  -29.0208   22.1273 N   0  3  0  0  0  0  0  0  0  0  0  0
  -30.1148  -17.2673   23.0976 N   0  3  0  0  0  0  0  0  0  0  0  0
  -23.7800  -13.8552   24.1992 O   0  0  0  0  0  0  0  0  0  0  0  0
  -29.3101  -25.9999   21.2400 O   0  0  0  0  0  0  0  0  0  0  0  0
  -27.1998  -29.5244   20.7746 O   0  0  0  0  0  0  0  0  0  0  0  0
  -23.6287  -27.7210   23.3272 O   0  0  0  0  0  0  0  0  0  0  0  0
  -31.9511  -14.8058   19.8898 O   0  0  0  0  0  0  0  0  0  0  0  0
  -21.5602   -7.0323   21.1813 O   0  0  0  0  0  0  0  0  0  0  0  0
  -25.3937  -21.3127   21.8541 O   0  0  0  0  0  0  0  0  0  1  0  0
  -29.9044  -20.4616   22.5700 O   0  0  0  0  0  0  0  0  0  0  0  0
  -16.1057   -7.7442   21.5643 F   0  0  0  0  0  0  0  0  0  0  0  0
  -19.8814   -6.2623   19.1243 F   0  0  0  0  0  0  0  0  0  0  0  0
  1  2  1  0  0  0  0
  1  5  2  0  0  0  0
  2  6  2  0  0  0  0
  3  9  2  0  0  0  0
  3 17  1  0  0  0  0
  4 10  1  0  0  0  0
  4 17  2  0  0  0  0
  5 19  1  0  0  0  0
  6 21  1  0  0  0  0
  7 11  2  0  0  0  0
  7 20  1  0  0  0  0
  8 14  2  0  0  0  0
  8 23  1  0  0  0  0
  9 24  1  0  0  0  0
 10 24  2  0  0  0  0
 11 25  1  0  0  0  0
 12 13  2  0  0  0  0
 12 26  1  0  0  0  0
 13 27  1  0  0  0  0
 14 30  1  0  0  0  0
 15 22  1  0  0  0  0
 15 25  2  0  0  0  0
 16 27  2  0  0  0  0
 16 28  1  0  0  0  0
 17 29  1  0  0  0  0
 18 29  1  0  0  0  0
 18 32  2  0  0  0  0
 18 33  1  0  0  0  0
 19 21  2  0  0  0  0
 19 38  1  0  0  0  0
 20 22  2  0  0  0  0
 20 39  1  0  0  0  0
 21 49  1  0  0  0  0
 22 40  1  0  0  0  0
 23 31  2  0  0  0  0
 23 59  1  0  0  0  0
 24 83  1  0  0  0  0
 25 84  1  0  0  0  0
 26 28  2  0  0  0  0
 26 83  1  0  0  0  0
 27 86  1  0  0  0  0
 28 87  1  0  0  0  0
 29 66  2  0  0  0  0
 30 67  2  0  0  0  0
 30 84  1  0  0  0  0
 31 67  1  0  0  0  0
 31 85  1  0  0  0  0
 32 68  1  0  0  0  0
 32 71  1  0  0  0  0
 33 72  1  0  0  0  0
 33 78  2  0  0  0  0
 34 50  1  0  0  0  0
 34 73  1  0  0  0  0
 34 79  2  0  0  0  0
 35 62  1  0  0  0  0
 35 69  1  0  0  0  0
 35 80  2  0  0  0  0
 36 63  1  0  0  0  0
 36 74  1  0  0  0  0
 36 81  2  0  0  0  0
 37 70  1  0  0  0  0
 37 75  1  0  0  0  0
 37 82  2  0  0  0  0
 38 41  1  0  0  0  0
 39 50  1  0  0  0  0
 40 69  1  0  0  0  0
 41 43  1  0  0  0  0
 42 46  1  0  0  0  0
 42 47  1  0  0  0  0
 43 49  1  0  0  0  0
 44 45  1  0  0  0  0
 44 51  1  0  0  0  0
 45 51  1  0  0  0  0
 46 52  1  0  0  0  0
 47 70  1  0  0  0  0
 48 52  1  0  0  0  0
 48 70  1  0  0  0  0
 49 73  1  0  0  0  0
 50 69  1  0  0  0  0
 51 60  1  0  0  0  0
 52 68  1  0  0  0  0
 53 63  1  0  0  0  0
 54 64  1  0  0  0  0
 55 65  1  0  0  0  0
 56 65  1  0  0  0  0
 57 65  1  0  0  0  0
 58 76  1  0  0  0  0
 59 77  1  0  0  0  0
 60 85  1  0  0  0  0
 61 64  1  0  0  0  0
 61 77  1  0  0  0  0
 62 65  1  0  0  0  0
 62 74  1  0  0  0  0
 63 76  1  0  0  0  0
 64 75  1  0  0  0  0
 66 68  1  0  0  0  0
M  CHG  2  76   1  77   1
M  ISO  4  30 101  37 100  75 100  84 101
M  END
> <Batch ID>
0139

> <Smiles>
CNC(C)C(=O)NC(C(=O)N1Cc2cc([101O:1][101c:1]3ccc(CNCC(C)[100NH:0][100C:0](=O)N4CCCC(n5nc(-c6ccc(Oc7ccc(F)cc7F)cc6)c(C(N)=O)c5N)C4)c(OCC4CC4)n3)ccc2CC1C(=O)NC1CCCc2ccccc21)C(C)(C)C

> <Shape>
0.233

> <Color>
0.119

> <Negative vol penalty>
0.000

$$$$

  -OEChem-04052321103D

 86 95  0     1  0  0  0  0  0999 V2000
  -30.9364  -22.3379   19.3317 C   0  0  0  0  0  0  0  0  0  0  0  0
  -29.5795  -22.6279   19.4320 C   0  0  0  0  0  0  0  0  0  0  0  0
  -28.1638  -16.1521   20.0745 C   0  0  0  0  0  0  0  0  0  0  0  0
  -29.4569  -17.4535   18.5024 C   0  0  0  0  0  0  0  0  0  0  0  0
  -31.8459  -22.9599   20.1860 C   0  0  0  0  0  0  0  0  0  0  0  0
  -29.1311  -23.5392   20.3875 C   0  0  0  0  0  0  0  0  0  0  0  0
  -25.7443  -26.8066   18.5171 C   0  0  0  0  0  0  0  0  0  0  0  0
  -29.2903  -15.3819   20.3635 C   0  0  0  0  0  0  0  0  0  0  0  0
  -30.5834  -16.6833   18.7914 C   0  0  0  0  0  0  0  0  0  0  0  0
  -24.4384  -26.3463   18.3538 C   0  0  0  0  0  0  0  0  0  0  0  0
  -31.7370  -12.8417   21.2493 C   0  0  0  0  0  0  0  0  0  0  0  0
  -31.5785  -11.4575   21.3154 C   0  0  0  0  0  0  0  0  0  0  0  0
  -23.8036  -27.4363   20.4100 C   0  0  0  0  0  0  0  0  0  0  0  0
  -30.8278  -11.4339   19.0190 C   0  0  0  0  0  0  0  0  0  0  0  0
  -28.2471  -17.1879   19.1439 C   0  0  0  0  0  0  0  0  0  0  0  0
  -26.6749  -19.1672   19.4877 C   0  0  0  0  0  0  0  0  0  0  0  0
  -31.4096  -23.8865   21.1460 C   0  0  0  0  0  0  0  0  0  0  0  0
  -26.0927  -27.5773   19.6356 C   0  0  0  0  0  0  0  0  0  0  0  0
  -30.0355  -24.1731   21.2563 C   0  0  0  0  0  0  0  0  0  0  0  0
  -25.1139  -27.9073   20.5839 C   0  0  0  0  0  0  0  0  0  0  0  0
  -30.5000  -15.6475   19.7219 C   0  0  0  0  0  0  0  0  0  0  0  0
  -23.4685  -26.6588   19.3018 C   0  0  0  0  0  0  0  0  0  0  0  0
  -31.4408  -13.5221   20.0681 C   0  0  0  0  0  0  0  0  0  0  0  0
  -31.1239  -10.7536   20.2003 C   0  0  0  0  0  0  0  0  0  0  0  0
  -30.9863  -12.8181   18.9530 C   0  0  0  0  0  0  0  0  0  0  0  0
  -27.0838  -17.9835   18.8446 C   0  0  0  0  0  0  0  0  0  0  0  0
  -25.5207  -19.5301   18.8376 C   0  0  0  0  0  0  0  0  0  0  0  0
  -18.3884  -18.6863   19.3615 C   0  0  0  0  0  0  0  0  0  0  0  0
  -27.2839  -19.8753   20.5755 C   0  0  0  0  0  0  0  0  0  0  0  0
  -28.1042  -27.2162   22.0702 C   0  0  0  0  0  0  0  0  0  0  0  0
  -27.2100  -30.2585   22.7533 C   0  0  0  0  0  0  0  0  0  0  0  0
  -24.1462  -32.1640   22.7611 C   0  0  0  0  0  0  0  0  0  0  0  0
  -20.6831  -18.3976   16.5500 C   0  0  0  0  0  0  0  0  0  0  0  0
  -32.4248  -24.4979   22.0789 C   0  0  0  0  0  0  0  0  0  0  0  0
  -27.4995  -28.0886   19.7834 C   0  0  0  0  0  0  0  0  0  0  0  0
  -25.4320  -28.7486   21.7920 C   0  0  0  0  0  0  0  0  0  0  0  0
  -19.4307  -17.8324   20.0222 C   0  0  0  0  0  0  0  0  0  0  0  0
  -31.9104  -25.7327   22.8142 C   0  0  0  0  0  0  0  0  0  0  0  0
  -23.4504  -17.8056   14.5687 C   0  0  0  0  0  0  0  0  0  0  0  0
  -30.5184  -25.4747   23.3820 C   0  0  0  0  0  0  0  0  0  0  0  0
  -24.6197  -17.8891   15.5490 C   0  0  0  0  0  0  0  0  0  0  0  0
  -20.7895  -22.8813   20.2032 C   0  0  0  0  0  0  0  0  0  0  0  0
  -21.0527  -22.9221   17.6833 C   0  0  0  0  0  0  0  0  0  0  0  0
  -21.1205  -24.3707   20.2587 C   0  0  0  0  0  0  0  0  0  0  0  0
  -21.3836  -24.4113   17.7449 C   0  0  0  0  0  0  0  0  0  0  0  0
  -22.2698  -17.0706   15.1917 C   0  0  0  0  0  0  0  0  0  0  0  0
  -22.9501  -17.7736   17.4664 C   0  0  0  0  0  0  0  0  0  0  0  0
  -29.5132  -25.1746   22.2634 C   0  0  1  0  0  0  0  0  0  0  0  0
  -18.7585  -19.0945   17.9534 C   0  0  1  0  0  0  0  0  0  0  0  0
  -27.8613  -28.4342   21.2246 C   0  0  1  0  0  0  0  0  0  0  0  0
  -24.1744  -18.5097   16.8846 C   0  0  1  0  0  0  0  0  0  0  0  0
  -20.1663  -22.5138   18.8581 C   0  0  0  0  0  0  0  0  0  0  0  0
  -22.0051  -24.7964   19.0877 C   0  0  0  0  0  0  0  0  0  1  0  0
  -20.2351  -17.3548   18.8242 C   0  0  1  0  0  0  0  0  0  0  0  0
  -19.8983  -14.9445   19.3948 C   0  0  0  0  0  0  0  0  0  0  0  0
  -23.7550  -34.6254   22.4685 C   0  0  0  0  0  0  0  0  0  0  0  0
  -27.3000  -30.3410   25.8021 C   0  0  0  0  0  0  0  0  0  0  0  0
  -25.4620  -32.0400   25.7410 C   0  0  0  0  0  0  0  0  0  0  0  0
  -27.6650  -32.5498   24.6876 C   0  0  0  0  0  0  0  0  0  0  0  0
  -22.2624  -31.7164   20.5228 C   0  0  0  0  0  0  0  0  0  0  0  0
  -18.9143  -20.6026   17.8552 C   0  0  0  0  0  0  0  0  0  0  0  0
  -19.7503  -15.9851   18.3365 C   0  0  0  0  0  0  0  0  0  0  0  0
  -26.1138  -30.8915   23.5759 C   0  0  1  0  0  0  0  0  0  0  0  0
  -23.7579  -33.2644   21.7901 C   0  0  2  0  0  0  0  0  0  0  0  0
  -26.6318  -31.4301   24.9394 C   0  0  0  0  0  0  0  0  0  0  0  0
  -26.2565  -17.6187   17.8614 N   0  0  0  0  0  0  0  0  0  0  0  0
  -25.3162  -18.5787   17.8820 N   0  0  0  0  0  0  0  0  0  0  0  0
  -26.8231  -29.2195   21.8952 N   0  0  0  0  0  0  0  0  0  0  0  0
  -21.8798  -17.6745   16.4648 N   0  0  0  0  0  0  0  0  0  0  0  0
  -20.0239  -18.3800   17.7875 N   0  0  0  0  0  0  0  0  0  0  0  0
  -24.6710  -20.5670   18.9959 N   0  0  0  0  0  0  0  0  0  0  0  0
  -28.4669  -19.3641   21.1266 N   0  0  0  0  0  0  0  0  0  0  0  0
  -29.1141  -26.3979   21.6011 N   0  0  0  0  0  0  0  0  0  0  0  0
  -25.5004  -31.9067   22.7265 N   0  0  0  0  0  0  0  0  0  0  0  0
  -19.9534  -21.0429   18.8120 N   0  3  0  0  0  0  0  0  0  0  0  0
  -22.3970  -33.0115   21.2380 N   0  3  0  0  0  0  0  0  0  0  0  0
  -17.3655  -19.0547   19.9283 O   0  0  0  0  0  0  0  0  0  0  0  0
  -26.7848  -20.9211   21.0558 O   0  0  0  0  0  0  0  0  0  0  0  0
  -27.4265  -27.0331   23.0747 O   0  0  0  0  0  0  0  0  0  0  0  0
  -28.3657  -30.6756   22.8627 O   0  0  0  0  0  0  0  0  0  0  0  0
  -23.3304  -31.5926   23.4812 O   0  0  0  0  0  0  0  0  0  0  0  0
  -20.2209  -19.0082   15.5786 O   0  0  0  0  0  0  0  0  0  0  0  0
  -31.5995  -14.8963   20.0038 O   0  0  0  0  0  0  0  0  0  0  0  0
  -22.1850  -26.2074   19.1442 O   0  0  0  0  0  0  0  0  0  1  0  0
  -30.9732   -9.4241   20.2634 F   0  0  0  0  0  0  0  0  0  0  0  0
  -30.7013  -13.4661   17.8151 F   0  0  0  0  0  0  0  0  0  0  0  0
  1  2  1  0  0  0  0
  1  5  2  0  0  0  0
  2  6  2  0  0  0  0
  3  8  2  0  0  0  0
  3 15  1  0  0  0  0
  4  9  1  0  0  0  0
  4 15  2  0  0  0  0
  5 17  1  0  0  0  0
  6 19  1  0  0  0  0
  7 10  2  0  0  0  0
  7 18  1  0  0  0  0
  8 21  1  0  0  0  0
  9 21  2  0  0  0  0
 10 22  1  0  0  0  0
 11 12  2  0  0  0  0
 11 23  1  0  0  0  0
 12 24  1  0  0  0  0
 13 20  1  0  0  0  0
 13 22  2  0  0  0  0
 14 24  2  0  0  0  0
 14 25  1  0  0  0  0
 15 26  1  0  0  0  0
 16 26  1  0  0  0  0
 16 27  2  0  0  0  0
 16 29  1  0  0  0  0
 17 19  2  0  0  0  0
 17 34  1  0  0  0  0
 18 20  2  0  0  0  0
 18 35  1  0  0  0  0
 19 48  1  0  0  0  0
 20 36  1  0  0  0  0
 21 83  1  0  0  0  0
 22 84  1  0  0  0  0
 23 25  2  0  0  0  0
 23 83  1  0  0  0  0
 24 85  1  0  0  0  0
 25 86  1  0  0  0  0
 26 66  2  0  0  0  0
 27 67  1  0  0  0  0
 27 71  1  0  0  0  0
 28 37  1  0  0  0  0
 28 49  1  0  0  0  0
 28 77  2  0  0  0  0
 29 72  1  0  0  0  0
 29 78  2  0  0  0  0
 30 50  1  0  0  0  0
 30 73  1  0  0  0  0
 30 79  2  0  0  0  0
 31 63  1  0  0  0  0
 31 68  1  0  0  0  0
 31 80  2  0  0  0  0
 32 64  1  0  0  0  0
 32 74  1  0  0  0  0
 32 81  2  0  0  0  0
 33 69  1  0  0  0  0
 33 70  1  0  0  0  0
 33 82  2  0  0  0  0
 34 38  1  0  0  0  0
 35 50  1  0  0  0  0
 36 68  1  0  0  0  0
 37 54  1  0  0  0  0
 38 40  1  0  0  0  0
 39 41  1  0  0  0  0
 39 46  1  0  0  0  0
 40 48  1  0  0  0  0
 41 51  1  0  0  0  0
 42 44  1  0  0  0  0
 42 52  1  0  0  0  0
 43 45  1  0  0  0  0
 43 52  1  0  0  0  0
 44 53  1  0  0  0  0
 45 53  1  0  0  0  0
 46 69  1  0  0  0  0
 47 51  1  0  0  0  0
 47 69  1  0  0  0  0
 48 73  1  0  0  0  0
 49 61  1  0  0  0  0
 49 70  1  0  0  0  0
 50 68  1  0  0  0  0
 51 67  1  0  0  0  0
 52 75  1  0  0  0  0
 53 84  1  0  0  0  0
 54 62  1  0  0  0  0
 54 70  1  0  0  0  0
 55 62  1  0  0  0  0
 56 64  1  0  0  0  0
 57 65  1  0  0  0  0
 58 65  1  0  0  0  0
 59 65  1  0  0  0  0
 60 76  1  0  0  0  0
 61 75  1  0  0  0  0
 63 65  1  0  0  0  0
 63 74  1  0  0  0  0
 64 76  1  0  0  0  0
 66 67  1  0  0  0  0
M  CHG  2  75   1  76   1
M  ISO  4  33 100  53 101  70 100  84 101
M  END
> <Batch ID>
0139

> <Smiles>
CCC1CC(=O)C(CNC2CC[101CH:1]([101O:1]c3ccc4c(c3)CN(C(=O)C(NC(=O)C(C)NC)C(C)(C)C)C(C(=O)NC3CCCc5ccccc53)C4)CC2)[100N:0]1[100C:0](=O)N1CCCC(n2nc(-c3ccc(Oc4ccc(F)cc4F)cc3)c(C(N)=O)c2N)C1

> <Shape>
0.184

> <Color>
0.056

> <Negative vol penalty>
0.000

$$$$

  -OEChem-04052321103D

 92101  0     1  0  0  0  0  0999 V2000
  -36.7878  -30.3294   16.0735 C   0  0  0  0  0  0  0  0  0  0  0  0
  -36.2605  -29.0470   16.1873 C   0  0  0  0  0  0  0  0  0  0  0  0
  -23.0133   -9.9242   19.9543 C   0  0  0  0  0  0  0  0  0  0  0  0
  -23.7584   -9.9155   22.2525 C   0  0  0  0  0  0  0  0  0  0  0  0
  -35.9406  -31.4360   16.1100 C   0  0  0  0  0  0  0  0  0  0  0  0
  -34.8856  -28.8707   16.3389 C   0  0  0  0  0  0  0  0  0  0  0  0
  -31.4951  -24.2821   14.1129 C   0  0  0  0  0  0  0  0  0  0  0  0
  -22.2512   -8.7815   20.1971 C   0  0  0  0  0  0  0  0  0  0  0  0
  -22.9963   -8.7727   22.4953 C   0  0  0  0  0  0  0  0  0  0  0  0
  -31.0125  -23.1076   14.6886 C   0  0  0  0  0  0  0  0  0  0  0  0
  -23.2425   -5.4480   21.9328 C   0  0  0  0  0  0  0  0  0  0  0  0
  -23.8384   -4.4124   22.6525 C   0  0  0  0  0  0  0  0  0  0  0  0
  -28.9098  -24.2002   15.1404 C   0  0  0  0  0  0  0  0  0  0  0  0
  -31.2836  -19.9083   19.8223 C   0  0  0  0  0  0  0  0  0  0  0  0
  -22.1288   -4.6073   24.3484 C   0  0  0  0  0  0  0  0  0  0  0  0
  -29.3651  -18.0509   20.3835 C   0  0  0  0  0  0  0  0  0  0  0  0
  -23.7670  -10.4912   20.9820 C   0  0  0  0  0  0  0  0  0  0  0  0
  -24.1462  -13.0113   20.8695 C   0  0  0  0  0  0  0  0  0  0  0  0
  -34.5536  -31.2727   16.2523 C   0  0  0  0  0  0  0  0  0  0  0  0
  -30.6912  -25.4296   14.0564 C   0  0  0  0  0  0  0  0  0  0  0  0
  -34.0191  -29.9763   16.3787 C   0  0  0  0  0  0  0  0  0  0  0  0
  -29.3837  -25.3873   14.5613 C   0  0  0  0  0  0  0  0  0  0  0  0
  -31.5631  -18.8914   20.7285 C   0  0  0  0  0  0  0  0  0  0  0  0
  -30.5909  -17.9410   21.0199 C   0  0  0  0  0  0  0  0  0  0  0  0
  -22.2426   -8.2058   21.4675 C   0  0  0  0  0  0  0  0  0  0  0  0
  -29.7207  -23.0674   15.2050 C   0  0  0  0  0  0  0  0  0  0  0  0
  -22.0898   -6.0633   22.4209 C   0  0  0  0  0  0  0  0  0  0  0  0
  -23.2816   -3.9920   23.8603 C   0  0  0  0  0  0  0  0  0  0  0  0
  -21.5329   -5.6429   23.6287 C   0  0  0  0  0  0  0  0  0  0  0  0
  -24.5549  -11.6713   20.7317 C   0  0  0  0  0  0  0  0  0  0  0  0
  -30.0269  -19.9300   19.2393 C   0  0  0  0  0  0  0  0  0  0  0  0
  -25.2514  -13.7456   20.5148 C   0  0  0  0  0  0  0  0  0  0  0  0
  -22.8807  -13.5447   21.2814 C   0  0  0  0  0  0  0  0  0  0  0  0
  -30.8889  -28.3680   15.2525 C   0  0  0  0  0  0  0  0  0  0  0  0
  -28.2419  -28.8623   13.4439 C   0  0  0  0  0  0  0  0  0  0  0  0
  -25.5168  -27.5373   11.8739 C   0  0  0  0  0  0  0  0  0  0  0  0
  -30.7480  -14.6845   20.7404 C   0  0  0  0  0  0  0  0  0  0  0  0
  -33.6826  -32.5013   16.3339 C   0  0  0  0  0  0  0  0  0  0  0  0
  -31.2173  -26.6808   13.4082 C   0  0  0  0  0  0  0  0  0  0  0  0
  -28.4734  -26.5860   14.5068 C   0  0  0  0  0  0  0  0  0  0  0  0
  -32.1990  -32.2113   16.1210 C   0  0  0  0  0  0  0  0  0  0  0  0
  -29.5913  -12.3216   18.3414 C   0  0  0  0  0  0  0  0  0  0  0  0
  -31.7675  -31.0030   16.9458 C   0  0  0  0  0  0  0  0  0  0  0  0
  -28.1470  -12.0479   18.7645 C   0  0  0  0  0  0  0  0  0  0  0  0
  -30.1056  -15.4489   27.9734 C   0  0  0  0  0  0  0  0  0  0  0  0
  -28.8941  -16.2122   25.9874 C   0  0  0  0  0  0  0  0  0  0  0  0
  -30.5038  -12.5266   19.5485 C   0  0  0  0  0  0  0  0  0  0  0  0
  -28.6040  -13.2825   20.9245 C   0  0  0  0  0  0  0  0  0  0  0  0
  -32.5306  -29.7430   16.5195 C   0  0  1  0  0  0  0  0  0  0  0  0
  -30.4920  -27.9420   13.8673 C   0  0  1  0  0  0  0  0  0  0  0  0
  -28.7875  -16.1020   27.5126 C   0  0  1  0  0  0  0  0  0  0  0  0
  -30.9791  -15.3202   26.7151 C   0  0  1  0  0  0  0  0  0  0  0  0
  -27.6350  -13.1244   19.7403 C   0  0  2  0  0  0  0  0  0  0  0  0
  -30.3900  -16.3647   25.7723 C   0  0  1  0  0  0  0  0  0  0  0  0
  -32.9080  -18.8397   21.3743 C   0  0  0  0  0  0  0  0  0  0  0  0
  -32.4612  -15.5087   26.9981 C   0  0  0  0  0  0  0  0  0  0  0  0
  -26.2902  -15.9936   27.4996 C   0  0  0  0  0  0  0  0  0  0  0  0
  -23.5162  -28.1951   10.5091 C   0  0  0  0  0  0  0  0  0  0  0  0
  -26.8667  -29.8978   15.9631 C   0  0  0  0  0  0  0  0  0  0  0  0
  -24.6714  -29.6365   14.7881 C   0  0  0  0  0  0  0  0  0  0  0  0
  -26.3826  -31.2158   13.8936 C   0  0  0  0  0  0  0  0  0  0  0  0
  -26.4080  -25.9079    9.5696 C   0  0  0  0  0  0  0  0  0  0  0  0
  -27.5525  -15.3367   27.9611 C   0  0  0  0  0  0  0  0  0  0  0  0
  -30.4522  -17.2127   23.4237 C   0  0  0  0  0  0  0  0  0  0  0  0
  -28.2833  -22.0619   16.8109 C   0  0  0  0  0  0  0  0  0  1  0  0
  -28.4239  -20.8990   17.7740 C   0  0  0  0  0  0  0  0  0  0  0  0
  -30.8372  -16.8314   21.9823 C   0  0  1  0  0  0  0  0  0  0  0  0
  -26.7549  -28.7256   13.6654 C   0  0  1  0  0  0  0  0  0  0  0  0
  -24.9656  -27.7358   10.4735 C   0  0  2  0  0  0  0  0  0  0  0  0
  -26.1865  -29.8467   14.5805 C   0  0  0  0  0  0  0  0  0  0  0  0
  -29.0569  -19.0243   19.4975 N   0  0  0  0  0  0  0  0  0  0  0  0
  -25.8209  -11.5579   20.3213 N   0  0  0  0  0  0  0  0  0  0  0  0
  -26.2172  -12.8361   20.1981 N   0  0  0  0  0  0  0  0  0  0  0  0
  -29.0359  -27.7877   13.8689 N   0  0  0  0  0  0  0  0  0  0  0  0
  -29.9626  -13.5613   20.4332 N   0  0  0  0  0  0  0  0  0  0  0  0
  -25.4816  -15.0740   20.4460 N   0  0  0  0  0  0  0  0  0  0  0  0
  -21.8535  -12.6496   21.6103 N   0  0  0  0  0  0  0  0  0  0  0  0
  -31.9824  -29.2120   15.2898 N   0  0  0  0  0  0  0  0  0  0  0  0
  -26.1480  -28.6712   12.3398 N   0  0  0  0  0  0  0  0  0  0  0  0
  -30.1570  -15.6202   21.5806 N   0  0  0  0  0  0  0  0  0  0  0  0
  -30.7554  -16.0962   24.3555 N   0  3  0  0  0  0  0  0  0  0  0  0
  -25.0360  -26.4617    9.7037 N   0  3  0  0  0  0  0  0  0  0  0  0
  -22.6619  -14.7785   21.3399 O   0  0  0  0  0  0  0  0  0  0  0  0
  -30.2495  -27.9623   16.2159 O   0  0  0  0  0  0  0  0  0  0  0  0
  -28.6821  -29.8819   12.9068 O   0  0  0  0  0  0  0  0  0  0  0  0
  -25.3959  -26.4831   12.4941 O   0  0  0  0  0  0  0  0  0  0  0  0
  -31.8893  -14.8444   20.2944 O   0  0  0  0  0  0  0  0  0  0  0  0
  -21.4989   -7.0908   21.7048 O   0  0  0  0  0  0  0  0  0  0  0  0
  -29.2473  -21.9225   15.7681 O   0  0  0  0  0  0  0  0  0  1  0  0
  -29.7271  -20.9223   18.3434 O   0  0  0  0  0  0  0  0  0  0  0  0
  -23.8531   -2.9965   24.5505 F   0  0  0  0  0  0  0  0  0  0  0  0
  -20.4249   -6.2294   24.1022 F   0  0  0  0  0  0  0  0  0  0  0  0
  1  2  1  0  0  0  0
  1  5  2  0  0  0  0
  2  6  2  0  0  0  0
  3  8  2  0  0  0  0
  3 17  1  0  0  0  0
  4  9  1  0  0  0  0
  4 17  2  0  0  0  0
  5 19  1  0  0  0  0
  6 21  1  0  0  0  0
  7 10  2  0  0  0  0
  7 20  1  0  0  0  0
  8 25  1  0  0  0  0
  9 25  2  0  0  0  0
 10 26  1  0  0  0  0
 11 12  2  0  0  0  0
 11 27  1  0  0  0  0
 12 28  1  0  0  0  0
 13 22  1  0  0  0  0
 13 26  2  0  0  0  0
 14 23  1  0  0  0  0
 14 31  2  0  0  0  0
 15 28  2  0  0  0  0
 15 29  1  0  0  0  0
 16 24  1  0  0  0  0
 16 71  2  0  0  0  0
 17 30  1  0  0  0  0
 18 30  1  0  0  0  0
 18 32  2  0  0  0  0
 18 33  1  0  0  0  0
 19 21  2  0  0  0  0
 19 38  1  0  0  0  0
 20 22  2  0  0  0  0
 20 39  1  0  0  0  0
 21 49  1  0  0  0  0
 22 40  1  0  0  0  0
 23 24  2  0  0  0  0
 23 55  1  0  0  0  0
 24 67  1  0  0  0  0
 25 88  1  0  0  0  0
 26 89  1  0  0  0  0
 27 29  2  0  0  0  0
 27 88  1  0  0  0  0
 28 91  1  0  0  0  0
 29 92  1  0  0  0  0
 30 72  2  0  0  0  0
 31 71  1  0  0  0  0
 31 90  1  0  0  0  0
 32 73  1  0  0  0  0
 32 76  1  0  0  0  0
 33 77  1  0  0  0  0
 33 83  2  0  0  0  0
 34 50  1  0  0  0  0
 34 78  1  0  0  0  0
 34 84  2  0  0  0  0
 35 68  1  0  0  0  0
 35 74  1  0  0  0  0
 35 85  2  0  0  0  0
 36 69  1  0  0  0  0
 36 79  1  0  0  0  0
 36 86  2  0  0  0  0
 37 75  1  0  0  0  0
 37 80  1  0  0  0  0
 37 87  2  0  0  0  0
 38 41  1  0  0  0  0
 39 50  1  0  0  0  0
 40 74  1  0  0  0  0
 41 43  1  0  0  0  0
 42 44  1  0  0  0  0
 42 47  1  0  0  0  0
 43 49  1  0  0  0  0
 44 53  1  0  0  0  0
 45 51  1  0  0  0  0
 45 52  1  0  0  0  0
 46 51  1  0  0  0  0
 46 54  1  0  0  0  0
 47 75  1  0  0  0  0
 48 53  1  0  0  0  0
 48 75  1  0  0  0  0
 49 78  1  0  0  0  0
 50 74  1  0  0  0  0
 51 63  1  0  0  0  0
 52 54  1  0  0  0  0
 52 56  1  0  0  0  0
 53 73  1  0  0  0  0
 54 81  1  0  0  0  0
 57 63  1  0  0  0  0
 58 69  1  0  0  0  0
 59 70  1  0  0  0  0
 60 70  1  0  0  0  0
 61 70  1  0  0  0  0
 62 82  1  0  0  0  0
 64 67  1  0  0  0  0
 64 81  1  0  0  0  0
 65 66  1  0  0  0  0
 65 89  1  0  0  0  0
 66 90  1  0  0  0  0
 67 80  1  0  0  0  0
 68 70  1  0  0  0  0
 68 79  1  0  0  0  0
 69 82  1  0  0  0  0
 72 73  1  0  0  0  0
M  CHG  2  81   1  82   1
M  ISO  4  37 100  65 101  80 100  89 101
M  END
> <Batch ID>
0139

> <Smiles>
CCC1CC(C)C(NCC([100NH:0][100C:0](=O)N2CCCC(n3nc(-c4ccc(Oc5ccc(F)cc5F)cc4)c(C(N)=O)c3N)C2)c2cnc(OC[101CH2:1][101O:1]c3ccc4c(c3)CN(C(=O)C(NC(=O)C(C)NC)C(C)(C)C)C(C(=O)NC3CCCc5ccccc53)C4)cc2C)C1

> <Shape>
0.198

> <Color>
0.185

> <Negative vol penalty>
0.000

$$$$

  -OEChem-04052321103D

 85 93  0     1  0  0  0  0  0999 V2000
  -34.0578  -27.9829   16.7319 C   0  0  0  0  0  0  0  0  0  0  0  0
  -33.4877  -27.3635   17.8394 C   0  0  0  0  0  0  0  0  0  0  0  0
  -22.9740  -10.0748   20.0114 C   0  0  0  0  0  0  0  0  0  0  0  0
  -24.3313   -9.6522   21.9649 C   0  0  0  0  0  0  0  0  0  0  0  0
  -33.8243  -29.3369   16.4947 C   0  0  0  0  0  0  0  0  0  0  0  0
  -32.6846  -28.0979   18.7111 C   0  0  0  0  0  0  0  0  0  0  0  0
  -28.4475  -25.6363   19.9889 C   0  0  0  0  0  0  0  0  0  0  0  0
  -22.4968   -8.7650   20.0596 C   0  0  0  0  0  0  0  0  0  0  0  0
  -23.8541   -8.3424   22.0132 C   0  0  0  0  0  0  0  0  0  0  0  0
  -28.5595  -24.6322   20.9496 C   0  0  0  0  0  0  0  0  0  0  0  0
  -21.0636   -6.7467   23.0557 C   0  0  0  0  0  0  0  0  0  0  0  0
  -20.6743   -6.2457   24.2979 C   0  0  0  0  0  0  0  0  0  0  0  0
  -27.7401  -26.1568   22.6299 C   0  0  0  0  0  0  0  0  0  0  0  0
  -29.4273  -19.3475   24.1193 C   0  0  0  0  0  0  0  0  0  0  0  0
  -22.3285   -4.4949   24.1103 C   0  0  0  0  0  0  0  0  0  0  0  0
  -23.8913  -10.5184   20.9641 C   0  0  0  0  0  0  0  0  0  0  0  0
  -23.8312  -13.0019   21.5441 C   0  0  0  0  0  0  0  0  0  0  0  0
  -33.0100  -30.0860   17.3587 C   0  0  0  0  0  0  0  0  0  0  0  0
  -27.9904  -26.9135   20.3441 C   0  0  0  0  0  0  0  0  0  0  0  0
  -32.4410  -29.4635   18.4861 C   0  0  0  0  0  0  0  0  0  0  0  0
  -27.6207  -27.1746   21.6713 C   0  0  0  0  0  0  0  0  0  0  0  0
  -30.4619  -20.1070   23.5845 C   0  0  0  0  0  0  0  0  0  0  0  0
  -29.0124  -18.1913   23.4679 C   0  0  0  0  0  0  0  0  0  0  0  0
  -22.9368   -7.8988   21.0605 C   0  0  0  0  0  0  0  0  0  0  0  0
  -28.2086  -24.8932   22.2709 C   0  0  0  0  0  0  0  0  0  0  0  0
  -22.0853   -6.1217   22.3408 C   0  0  0  0  0  0  0  0  0  0  0  0
  -21.3067   -5.1199   24.8252 C   0  0  0  0  0  0  0  0  0  0  0  0
  -22.7178   -4.9959   22.8681 C   0  0  0  0  0  0  0  0  0  0  0  0
  -24.3850  -11.8712   20.9145 C   0  0  0  0  0  0  0  0  0  0  0  0
  -31.0442  -19.6708   22.4053 C   0  0  0  0  0  0  0  0  0  0  0  0
  -29.6594  -17.8409   22.2938 C   0  0  0  0  0  0  0  0  0  0  0  0
  -24.6642  -14.0348   21.1897 C   0  0  0  0  0  0  0  0  0  0  0  0
  -22.6677  -13.1090   22.3751 C   0  0  0  0  0  0  0  0  0  0  0  0
  -29.2332  -29.8385   20.2812 C   0  0  0  0  0  0  0  0  0  0  0  0
  -26.2402  -30.7076   21.1806 C   0  0  0  0  0  0  0  0  0  0  0  0
  -23.2916  -29.8349   22.6607 C   0  0  0  0  0  0  0  0  0  0  0  0
  -29.7633  -16.1411   20.4375 C   0  0  0  0  0  0  0  0  0  0  0  0
  -32.8248  -31.5580   17.0873 C   0  0  0  0  0  0  0  0  0  0  0  0
  -27.8499  -27.9780   19.2908 C   0  0  0  0  0  0  0  0  0  0  0  0
  -27.1053  -28.5233   22.1002 C   0  0  0  0  0  0  0  0  0  0  0  0
  -31.6574  -32.1763   17.8523 C   0  0  0  0  0  0  0  0  0  0  0  0
  -28.3835  -14.2392   17.7624 C   0  0  0  0  0  0  0  0  0  0  0  0
  -31.6875  -31.7421   19.3143 C   0  0  0  0  0  0  0  0  0  0  0  0
  -27.1747  -13.5466   18.3957 C   0  0  0  0  0  0  0  0  0  0  0  0
  -29.5548  -14.3402   18.7379 C   0  0  0  0  0  0  0  0  0  0  0  0
  -28.0241  -14.2601   20.6665 C   0  0  0  0  0  0  0  0  0  0  0  0
  -31.5438  -30.2206   19.4410 C   0  0  1  0  0  0  0  0  0  0  0  0
  -27.8605  -29.3915   19.8645 C   0  0  1  0  0  0  0  0  0  0  0  0
  -26.7968  -14.1929   19.7430 C   0  0  2  0  0  0  0  0  0  0  0  0
  -27.9014  -17.3805   24.0433 C   0  0  0  0  0  0  0  0  0  0  0  0
  -32.1611  -20.4452   21.7861 C   0  0  0  0  0  0  0  0  0  0  0  0
  -33.1755  -19.8575   27.1114 C   0  0  0  0  0  0  0  0  0  0  0  0
  -21.0471  -30.7694   23.2823 C   0  0  0  0  0  0  0  0  0  0  0  0
  -27.5108  -32.1955   23.5219 C   0  0  0  0  0  0  0  0  0  0  0  0
  -25.2525  -32.2867   24.5990 C   0  0  0  0  0  0  0  0  0  0  0  0
  -25.6333  -33.4144   22.4067 C   0  0  0  0  0  0  0  0  0  0  0  0
  -21.8745  -27.8813   20.9477 C   0  0  0  0  0  0  0  0  0  0  0  0
  -32.6747  -20.1276   25.7007 C   0  0  0  0  0  0  0  0  0  0  0  0
  -31.4739  -21.0802   25.7076 C   0  0  0  0  0  0  0  0  0  0  0  0
  -29.7967  -22.4275   24.3776 C   0  0  0  0  0  0  0  0  0  0  0  0
  -29.3371  -22.9361   23.0141 C   0  0  0  0  0  0  0  0  0  1  0  0
  -30.9211  -21.3721   24.2923 C   0  0  2  0  0  0  0  0  0  0  0  0
  -25.5312  -30.8899   22.5008 C   0  0  1  0  0  0  0  0  0  0  0  0
  -21.8501  -30.0275   22.2252 C   0  0  2  0  0  0  0  0  0  0  0  0
  -25.9935  -32.1717   23.2497 C   0  0  0  0  0  0  0  0  0  0  0  0
  -25.4848  -12.1585   20.2131 N   0  0  0  0  0  0  0  0  0  0  0  0
  -30.6683  -18.5533   21.7438 N   0  0  0  0  0  0  0  0  0  0  0  0
  -25.6287  -13.4815   20.3998 N   0  0  0  0  0  0  0  0  0  0  0  0
  -26.9918  -29.5330   21.0348 N   0  0  0  0  0  0  0  0  0  0  0  0
  -29.1231  -14.9662   19.9896 N   0  0  0  0  0  0  0  0  0  0  0  0
  -24.6585  -15.3532   21.4798 N   0  0  0  0  0  0  0  0  0  0  0  0
  -21.9259  -11.9494   22.6388 N   0  0  0  0  0  0  0  0  0  0  0  0
  -29.2460  -16.6637   21.6223 N   0  0  0  0  0  0  0  0  0  0  0  0
  -30.1632  -29.8265   19.2593 N   0  0  0  0  0  0  0  0  0  0  0  0
  -24.1029  -30.8527   22.2056 N   0  0  0  0  0  0  0  0  0  0  0  0
  -21.2016  -28.7078   21.9826 N   0  3  0  0  0  0  0  0  0  0  0  0
  -22.2876  -14.2035   22.8558 O   0  0  0  0  0  0  0  0  0  0  0  0
  -29.4334  -30.1711   21.4436 O   0  0  0  0  0  0  0  0  0  0  0  0
  -26.1254  -31.5720   20.3080 O   0  0  0  0  0  0  0  0  0  0  0  0
  -23.6602  -28.8793   23.3400 O   0  0  0  0  0  0  0  0  0  0  0  0
  -30.6835  -16.6615   19.8015 O   0  0  0  0  0  0  0  0  0  0  0  0
  -22.4712   -6.6207   21.1080 O   0  0  0  0  0  0  0  0  0  0  0  0
  -28.3176  -23.9151   23.2108 O   0  0  0  0  0  0  0  0  0  1  0  0
  -20.9338   -4.6399   26.0188 F   0  0  0  0  0  0  0  0  0  0  0  0
  -23.7008   -4.3919   22.1864 F   0  0  0  0  0  0  0  0  0  0  0  0
  1  2  1  0  0  0  0
  1  5  2  0  0  0  0
  2  6  2  0  0  0  0
  3  8  2  0  0  0  0
  3 16  1  0  0  0  0
  4  9  1  0  0  0  0
  4 16  2  0  0  0  0
  5 18  1  0  0  0  0
  6 20  1  0  0  0  0
  7 10  2  0  0  0  0
  7 19  1  0  0  0  0
  8 24  1  0  0  0  0
  9 24  2  0  0  0  0
 10 25  1  0  0  0  0
 11 12  2  0  0  0  0
 11 26  1  0  0  0  0
 12 27  1  0  0  0  0
 13 21  1  0  0  0  0
 13 25  2  0  0  0  0
 14 22  1  0  0  0  0
 14 23  2  0  0  0  0
 15 27  2  0  0  0  0
 15 28  1  0  0  0  0
 16 29  1  0  0  0  0
 17 29  1  0  0  0  0
 17 32  2  0  0  0  0
 17 33  1  0  0  0  0
 18 20  2  0  0  0  0
 18 38  1  0  0  0  0
 19 21  2  0  0  0  0
 19 39  1  0  0  0  0
 20 47  1  0  0  0  0
 21 40  1  0  0  0  0
 22 30  2  0  0  0  0
 22 62  1  0  0  0  0
 23 31  1  0  0  0  0
 23 50  1  0  0  0  0
 24 82  1  0  0  0  0
 25 83  1  0  0  0  0
 26 28  2  0  0  0  0
 26 82  1  0  0  0  0
 27 84  1  0  0  0  0
 28 85  1  0  0  0  0
 29 66  2  0  0  0  0
 30 51  1  0  0  0  0
 30 67  1  0  0  0  0
 31 67  2  0  0  0  0
 31 73  1  0  0  0  0
 32 68  1  0  0  0  0
 32 71  1  0  0  0  0
 33 72  1  0  0  0  0
 33 77  2  0  0  0  0
 34 48  1  0  0  0  0
 34 74  1  0  0  0  0
 34 78  2  0  0  0  0
 35 63  1  0  0  0  0
 35 69  1  0  0  0  0
 35 79  2  0  0  0  0
 36 64  1  0  0  0  0
 36 75  1  0  0  0  0
 36 80  2  0  0  0  0
 37 70  1  0  0  0  0
 37 73  1  0  0  0  0
 37 81  2  0  0  0  0
 38 41  1  0  0  0  0
 39 48  1  0  0  0  0
 40 69  1  0  0  0  0
 41 43  1  0  0  0  0
 42 44  1  0  0  0  0
 42 45  1  0  0  0  0
 43 47  1  0  0  0  0
 44 49  1  0  0  0  0
 45 70  1  0  0  0  0
 46 49  1  0  0  0  0
 46 70  1  0  0  0  0
 47 74  1  0  0  0  0
 48 69  1  0  0  0  0
 49 68  1  0  0  0  0
 52 58  1  0  0  0  0
 53 64  1  0  0  0  0
 54 65  1  0  0  0  0
 55 65  1  0  0  0  0
 56 65  1  0  0  0  0
 57 76  1  0  0  0  0
 58 59  1  0  0  0  0
 59 62  1  0  0  0  0
 60 61  1  0  0  0  0
 60 62  1  0  0  0  0
 61 83  1  0  0  0  0
 63 65  1  0  0  0  0
 63 75  1  0  0  0  0
 64 76  1  0  0  0  0
 66 68  1  0  0  0  0
M  CHG  1  76   1
M  ISO  4  37 100  61 101  73 100  83 101
M  END
> <Batch ID>
0139

> <Smiles>
CCCC(C[101CH2:1][101O:1]c1ccc2c(c1)CN(C(=O)C(NC(=O)C(C)NC)C(C)(C)C)C(C(=O)NC1CCCc3ccccc31)C2)c1cc(C)c([100NH:0][100C:0](=O)N2CCCC(n3nc(-c4ccc(Oc5ccc(F)cc5F)cc4)c(C(N)=O)c3N)C2)nc1C

> <Shape>
0.274

> <Color>
0.119

> <Negative vol penalty>
0.000

$$$$

  -OEChem-04052321103D

 81 89  0     1  0  0  0  0  0999 V2000
  -22.9714  -29.7836   10.7142 C   0  0  0  0  0  0  0  0  0  0  0  0
  -23.2758  -28.5932   11.3668 C   0  0  0  0  0  0  0  0  0  0  0  0
  -22.9545  -10.0413   19.9238 C   0  0  0  0  0  0  0  0  0  0  0  0
  -24.0052   -9.5977   22.0537 C   0  0  0  0  0  0  0  0  0  0  0  0
  -23.1092  -30.9990   11.3834 C   0  0  0  0  0  0  0  0  0  0  0  0
  -23.7191  -28.6176   12.6886 C   0  0  0  0  0  0  0  0  0  0  0  0
  -22.5477  -24.4722   17.0416 C   0  0  0  0  0  0  0  0  0  0  0  0
  -22.2233   -8.8591   20.0382 C   0  0  0  0  0  0  0  0  0  0  0  0
  -23.2739   -8.4155   22.1682 C   0  0  0  0  0  0  0  0  0  0  0  0
  -23.2865  -23.3993   17.5384 C   0  0  0  0  0  0  0  0  0  0  0  0
  -22.7528   -5.5504   19.5945 C   0  0  0  0  0  0  0  0  0  0  0  0
  -22.6740   -4.7267   18.4716 C   0  0  0  0  0  0  0  0  0  0  0  0
  -24.0898  -24.7927   19.3363 C   0  0  0  0  0  0  0  0  0  0  0  0
  -20.2684   -4.9508   18.4761 C   0  0  0  0  0  0  0  0  0  0  0  0
  -23.8455  -10.4106   20.9315 C   0  0  0  0  0  0  0  0  0  0  0  0
  -24.2263  -12.9109   21.2654 C   0  0  0  0  0  0  0  0  0  0  0  0
  -23.5452  -31.0376   12.7172 C   0  0  0  0  0  0  0  0  0  0  0  0
  -22.5830  -25.7185   17.6834 C   0  0  0  0  0  0  0  0  0  0  0  0
  -23.8641  -29.8348   13.3758 C   0  0  0  0  0  0  0  0  0  0  0  0
  -23.3484  -25.8791   18.8472 C   0  0  0  0  0  0  0  0  0  0  0  0
  -22.3829   -8.0461   21.1604 C   0  0  0  0  0  0  0  0  0  0  0  0
  -24.0600  -23.5602   18.6842 C   0  0  0  0  0  0  0  0  0  0  0  0
  -21.5894   -6.0743   20.1583 C   0  0  0  0  0  0  0  0  0  0  0  0
  -21.4319   -4.4269   17.9124 C   0  0  0  0  0  0  0  0  0  0  0  0
  -20.3472   -5.7745   19.5990 C   0  0  0  0  0  0  0  0  0  0  0  0
  -24.6016  -11.6315   20.8135 C   0  0  0  0  0  0  0  0  0  0  0  0
  -25.2789  -13.7210   20.9158 C   0  0  0  0  0  0  0  0  0  0  0  0
  -23.0329  -13.3296   21.9408 C   0  0  0  0  0  0  0  0  0  0  0  0
  -23.5165  -28.6421   16.8557 C   0  0  0  0  0  0  0  0  0  0  0  0
  -22.2647  -29.4365   19.7409 C   0  0  0  0  0  0  0  0  0  0  0  0
  -21.3817  -28.4506   22.8866 C   0  0  0  0  0  0  0  0  0  0  0  0
  -30.7626  -14.7009   20.5774 C   0  0  0  0  0  0  0  0  0  0  0  0
  -23.7238  -32.3786   13.3840 C   0  0  0  0  0  0  0  0  0  0  0  0
  -21.7592  -26.8585   17.1502 C   0  0  0  0  0  0  0  0  0  0  0  0
  -23.4044  -27.1910   19.5849 C   0  0  0  0  0  0  0  0  0  0  0  0
  -23.8412  -32.2925   14.9036 C   0  0  0  0  0  0  0  0  0  0  0  0
  -29.2713  -12.8310   17.9400 C   0  0  0  0  0  0  0  0  0  0  0  0
  -24.8150  -31.1881   15.3020 C   0  0  0  0  0  0  0  0  0  0  0  0
  -27.3603  -22.0764   21.0995 C   0  0  0  0  0  0  0  0  0  0  0  0
  -27.8958  -12.4528   18.4921 C   0  0  0  0  0  0  0  0  0  0  0  0
  -26.3201  -23.1830   20.8917 C   0  0  0  0  0  0  0  0  0  0  0  0
  -25.2046  -21.0369   21.0328 C   0  0  0  0  0  0  0  0  0  0  0  0
  -30.3411  -12.8134   19.0296 C   0  0  0  0  0  0  0  0  0  0  0  0
  -28.6522  -13.2499   20.7705 C   0  0  0  0  0  0  0  0  0  0  0  0
  -24.3242  -29.8185   14.8174 C   0  0  1  0  0  0  0  0  0  0  0  0
  -22.2742  -28.2252   17.5910 C   0  0  1  0  0  0  0  0  0  0  0  0
  -26.6704  -20.7757   20.6896 C   0  0  2  0  0  0  0  0  0  0  0  0
  -27.5299  -13.3081   19.7201 C   0  0  2  0  0  0  0  0  0  0  0  0
  -25.0011  -22.4768   20.5778 C   0  0  2  0  0  0  0  0  0  1  0  0
  -20.4189  -29.3323   25.0297 C   0  0  0  0  0  0  0  0  0  0  0  0
  -24.9398  -30.7473   20.4005 C   0  0  0  0  0  0  0  0  0  0  0  0
  -24.2630  -30.7540   22.8110 C   0  0  0  0  0  0  0  0  0  0  0  0
  -22.9327  -32.0430   21.1402 C   0  0  0  0  0  0  0  0  0  0  0  0
  -19.0553  -26.6282   22.7266 C   0  0  0  0  0  0  0  0  0  0  0  0
  -27.2384  -19.5511   21.3865 C   0  0  0  0  0  0  0  0  0  0  0  0
  -31.0371  -16.5651   22.1926 C   0  0  0  0  0  0  0  0  0  0  0  0
  -28.7254  -19.3983   21.1071 C   0  0  0  0  0  0  0  0  0  0  0  0
  -30.6594  -17.8737   21.5240 C   0  0  0  0  0  0  0  0  0  0  0  0
  -22.7969  -29.5184   21.1512 C   0  0  1  0  0  0  0  0  0  0  0  0
  -20.1152  -28.6728   23.6935 C   0  0  2  0  0  0  0  0  0  0  0  0
  -23.7338  -30.7414   21.3610 C   0  0  0  0  0  0  0  0  0  0  0  0
  -25.7991  -11.6244   20.2219 N   0  0  0  0  0  0  0  0  0  0  0  0
  -26.1853  -12.9093   20.2995 N   0  0  0  0  0  0  0  0  0  0  0  0
  -22.5864  -28.2774   19.0207 N   0  0  0  0  0  0  0  0  0  0  0  0
  -29.9335  -13.6448   20.1647 N   0  0  0  0  0  0  0  0  0  0  0  0
  -25.5083  -15.0413   21.0784 N   0  0  0  0  0  0  0  0  0  0  0  0
  -22.0528  -12.3683   22.2232 N   0  0  0  0  0  0  0  0  0  0  0  0
  -23.2718  -29.3247   15.6795 N   0  0  0  0  0  0  0  0  0  0  0  0
  -21.6316  -29.5010   22.0289 N   0  0  0  0  0  0  0  0  0  0  0  0
  -30.2989  -15.4432   21.6567 N   0  0  0  0  0  0  0  0  0  0  0  0
  -19.4329  -27.3739   23.9547 N   0  3  0  0  0  0  0  0  0  0  0  0
  -29.2209  -18.1682   21.7700 N   0  3  0  0  0  0  0  0  0  0  0  0
  -22.8341  -14.5238   22.2690 O   0  0  0  0  0  0  0  0  0  0  0  0
  -24.6157  -28.3662   17.3219 O   0  0  0  0  0  0  0  0  0  0  0  0
  -21.5824  -30.3635   19.2972 O   0  0  0  0  0  0  0  0  0  0  0  0
  -22.0814  -27.4475   23.0078 O   0  0  0  0  0  0  0  0  0  0  0  0
  -31.8338  -14.9663   20.0217 O   0  0  0  0  0  0  0  0  0  0  0  0
  -21.6693   -6.8925   21.2726 O   0  0  0  0  0  0  0  0  0  0  0  0
  -24.7827  -22.5148   19.1708 O   0  0  0  0  0  0  0  0  0  1  0  0
  -21.3565   -3.6371   16.8332 F   0  0  0  0  0  0  0  0  0  0  0  0
  -19.2262   -6.2757   20.1354 F   0  0  0  0  0  0  0  0  0  0  0  0
  1  2  1  0  0  0  0
  1  5  2  0  0  0  0
  2  6  2  0  0  0  0
  3  8  2  0  0  0  0
  3 15  1  0  0  0  0
  4  9  1  0  0  0  0
  4 15  2  0  0  0  0
  5 17  1  0  0  0  0
  6 19  1  0  0  0  0
  7 10  2  0  0  0  0
  7 18  1  0  0  0  0
  8 21  1  0  0  0  0
  9 21  2  0  0  0  0
 10 22  1  0  0  0  0
 11 12  2  0  0  0  0
 11 23  1  0  0  0  0
 12 24  1  0  0  0  0
 13 20  1  0  0  0  0
 13 22  2  0  0  0  0
 14 24  2  0  0  0  0
 14 25  1  0  0  0  0
 15 26  1  0  0  0  0
 16 26  1  0  0  0  0
 16 27  2  0  0  0  0
 16 28  1  0  0  0  0
 17 19  2  0  0  0  0
 17 33  1  0  0  0  0
 18 20  2  0  0  0  0
 18 34  1  0  0  0  0
 19 45  1  0  0  0  0
 20 35  1  0  0  0  0
 21 78  1  0  0  0  0
 22 79  1  0  0  0  0
 23 25  2  0  0  0  0
 23 78  1  0  0  0  0
 24 80  1  0  0  0  0
 25 81  1  0  0  0  0
 26 62  2  0  0  0  0
 27 63  1  0  0  0  0
 27 66  1  0  0  0  0
 28 67  1  0  0  0  0
 28 73  2  0  0  0  0
 29 46  1  0  0  0  0
 29 68  1  0  0  0  0
 29 74  2  0  0  0  0
 30 59  1  0  0  0  0
 30 64  1  0  0  0  0
 30 75  2  0  0  0  0
 31 60  1  0  0  0  0
 31 69  1  0  0  0  0
 31 76  2  0  0  0  0
 32 65  1  0  0  0  0
 32 70  1  0  0  0  0
 32 77  2  0  0  0  0
 33 36  1  0  0  0  0
 34 46  1  0  0  0  0
 35 64  1  0  0  0  0
 36 38  1  0  0  0  0
 37 40  1  0  0  0  0
 37 43  1  0  0  0  0
 38 45  1  0  0  0  0
 39 41  1  0  0  0  0
 39 47  1  0  0  0  0
 40 48  1  0  0  0  0
 41 49  1  0  0  0  0
 42 47  1  0  0  0  0
 42 49  1  0  0  0  0
 43 65  1  0  0  0  0
 44 48  1  0  0  0  0
 44 65  1  0  0  0  0
 45 68  1  0  0  0  0
 46 64  1  0  0  0  0
 47 55  1  0  0  0  0
 48 63  1  0  0  0  0
 49 79  1  0  0  0  0
 50 60  1  0  0  0  0
 51 61  1  0  0  0  0
 52 61  1  0  0  0  0
 53 61  1  0  0  0  0
 54 71  1  0  0  0  0
 55 57  1  0  0  0  0
 56 58  1  0  0  0  0
 56 70  1  0  0  0  0
 57 72  1  0  0  0  0
 58 72  1  0  0  0  0
 59 61  1  0  0  0  0
 59 69  1  0  0  0  0
 60 71  1  0  0  0  0
 62 63  1  0  0  0  0
M  CHG  2  71   1  72   1
M  ISO  4  32 100  49 101  70 100  79 101
M  END
> <Batch ID>
0139

> <Smiles>
CNC(C)C(=O)NC(C(=O)N1Cc2cc([101O:1][101CH:1]3CCC(CCNCC[100NH:0][100C:0](=O)N4CCCC(n5nc(-c6ccc(Oc7ccc(F)cc7F)cc6)c(C(N)=O)c5N)C4)C3)ccc2CC1C(=O)NC1CCCc2ccccc21)C(C)(C)C

> <Shape>
0.252

> <Color>
0.179

> <Negative vol penalty>
0.000

$$$$

  -OEChem-04052321103D

 82 91  0     1  0  0  0  0  0999 V2000
  -19.3472  -25.4755   17.4722 C   0  0  0  0  0  0  0  0  0  0  0  0
  -20.5628  -24.8859   17.8037 C   0  0  0  0  0  0  0  0  0  0  0  0
  -23.0449   -9.8181   20.0355 C   0  0  0  0  0  0  0  0  0  0  0  0
  -23.6598  -10.0555   22.3598 C   0  0  0  0  0  0  0  0  0  0  0  0
  -19.2946  -26.8332   17.1592 C   0  0  0  0  0  0  0  0  0  0  0  0
  -21.7269  -25.6533   17.8213 C   0  0  0  0  0  0  0  0  0  0  0  0
  -29.2011  -18.6716   20.6197 C   0  0  0  0  0  0  0  0  0  0  0  0
  -24.5837  -24.7565   21.9053 C   0  0  0  0  0  0  0  0  0  0  0  0
  -28.2676  -19.7053   20.6477 C   0  0  0  0  0  0  0  0  0  0  0  0
  -22.2778   -8.6972   20.3529 C   0  0  0  0  0  0  0  0  0  0  0  0
  -22.8927   -8.9346   22.6772 C   0  0  0  0  0  0  0  0  0  0  0  0
  -25.3572  -23.5966   21.8990 C   0  0  0  0  0  0  0  0  0  0  0  0
  -23.1920   -5.5729   22.4766 C   0  0  0  0  0  0  0  0  0  0  0  0
  -23.7533   -4.6244   23.3315 C   0  0  0  0  0  0  0  0  0  0  0  0
  -27.2937  -24.8984   21.2871 C   0  0  0  0  0  0  0  0  0  0  0  0
  -28.2845  -19.6464   23.0611 C   0  0  0  0  0  0  0  0  0  0  0  0
  -21.9498   -4.9719   24.9012 C   0  0  0  0  0  0  0  0  0  0  0  0
  -23.7359  -10.4973   21.0390 C   0  0  0  0  0  0  0  0  0  0  0  0
  -24.1043  -12.9969   20.6871 C   0  0  0  0  0  0  0  0  0  0  0  0
  -20.4571  -27.6198   17.1823 C   0  0  0  0  0  0  0  0  0  0  0  0
  -25.1581  -25.9967   21.5913 C   0  0  0  0  0  0  0  0  0  0  0  0
  -21.6901  -27.0225   17.5069 C   0  0  0  0  0  0  0  0  0  0  0  0
  -29.6869  -18.1185   21.8151 C   0  0  0  0  0  0  0  0  0  0  0  0
  -26.5260  -26.0729   21.2926 C   0  0  0  0  0  0  0  0  0  0  0  0
  -27.8115  -20.1943   21.8677 C   0  0  0  0  0  0  0  0  0  0  0  0
  -29.2150  -18.5964   23.0549 C   0  0  0  0  0  0  0  0  0  0  0  0
  -22.2017   -8.2554   21.6737 C   0  0  0  0  0  0  0  0  0  0  0  0
  -26.7118  -23.6669   21.5871 C   0  0  0  0  0  0  0  0  0  0  0  0
  -22.0096   -6.2209   22.8340 C   0  0  0  0  0  0  0  0  0  0  0  0
  -23.1322   -4.3239   24.5438 C   0  0  0  0  0  0  0  0  0  0  0  0
  -21.3885   -5.9204   24.0463 C   0  0  0  0  0  0  0  0  0  0  0  0
  -24.5289  -11.6549   20.7116 C   0  0  0  0  0  0  0  0  0  0  0  0
  -25.2229  -13.7043   20.3198 C   0  0  0  0  0  0  0  0  0  0  0  0
  -22.8142  -13.5542   20.9711 C   0  0  0  0  0  0  0  0  0  0  0  0
  -24.7015  -28.1684   19.3156 C   0  0  0  0  0  0  0  0  0  0  0  0
  -26.8348  -29.8781   21.0615 C   0  0  0  0  0  0  0  0  0  0  0  0
  -29.3943  -29.8762   23.3188 C   0  0  0  0  0  0  0  0  0  0  0  0
  -30.6919  -14.7291   20.7499 C   0  0  0  0  0  0  0  0  0  0  0  0
  -20.3583  -29.0728   16.7904 C   0  0  0  0  0  0  0  0  0  0  0  0
  -24.3159  -27.2424   21.6286 C   0  0  0  0  0  0  0  0  0  0  0  0
  -27.1950  -27.3827   20.9683 C   0  0  0  0  0  0  0  0  0  0  0  0
  -21.5769  -29.8975   17.1970 C   0  0  0  0  0  0  0  0  0  0  0  0
  -29.6873  -12.1174   18.5484 C   0  0  0  0  0  0  0  0  0  0  0  0
  -22.8636  -29.1679   16.8245 C   0  0  0  0  0  0  0  0  0  0  0  0
  -28.2233  -11.8710   18.9172 C   0  0  0  0  0  0  0  0  0  0  0  0
  -31.4742  -16.8965   23.0837 C   0  0  0  0  0  0  0  0  0  0  0  0
  -30.5292  -12.4570   19.7764 C   0  0  0  0  0  0  0  0  0  0  0  0
  -30.5352  -16.9112   24.2857 C   0  0  0  0  0  0  0  0  0  0  0  0
  -28.5502  -13.3272   20.9597 C   0  0  0  0  0  0  0  0  0  0  0  0
  -22.9706  -27.8272   17.5611 C   0  0  1  0  0  0  0  0  0  0  0  0
  -30.6971  -16.9934   21.7657 C   0  0  1  0  0  0  0  0  0  0  0  0
  -24.8933  -28.3792   20.7909 C   0  0  1  0  0  0  0  0  0  0  0  0
  -27.6503  -13.0360   19.7465 C   0  0  2  0  0  0  0  0  0  0  0  0
  -30.9593  -31.4241   24.5239 C   0  0  0  0  0  0  0  0  0  0  0  0
  -28.4707  -30.2087   18.5072 C   0  0  0  0  0  0  0  0  0  0  0  0
  -30.4144  -30.9022   19.9247 C   0  0  0  0  0  0  0  0  0  0  0  0
  -28.3240  -32.2634   19.9253 C   0  0  0  0  0  0  0  0  0  0  0  0
  -28.3670  -29.0415   25.9659 C   0  0  0  0  0  0  0  0  0  0  0  0
  -26.8105  -21.3116   21.9010 C   0  0  0  0  0  0  0  0  0  1  0  0
  -28.3383  -30.0134   21.0782 C   0  0  1  0  0  0  0  0  0  0  0  0
  -29.6276  -30.6916   24.5778 C   0  0  2  0  0  0  0  0  0  0  0  0
  -28.8741  -30.8218   19.8630 C   0  0  0  0  0  0  0  0  0  0  0  0
  -25.8167  -11.5155   20.3857 N   0  0  0  0  0  0  0  0  0  0  0  0
  -26.2109  -12.7790   20.1528 N   0  0  0  0  0  0  0  0  0  0  0  0
  -29.6855  -18.0854   24.2576 N   0  0  0  0  0  0  0  0  0  0  0  0
  -26.3280  -28.5718   21.0117 N   0  0  0  0  0  0  0  0  0  0  0  0
  -29.9323  -13.5706   20.5178 N   0  0  0  0  0  0  0  0  0  0  0  0
  -25.4479  -15.0212   20.1265 N   0  0  0  0  0  0  0  0  0  0  0  0
  -21.7761  -12.6852   21.3337 N   0  0  0  0  0  0  0  0  0  0  0  0
  -23.3802  -28.0356   18.9334 N   0  0  0  0  0  0  0  0  0  0  0  0
  -28.6822  -30.5859   22.3753 N   0  0  0  0  0  0  0  0  0  0  0  0
  -30.0485  -15.7390   21.4547 N   0  0  0  0  0  0  0  0  0  0  0  0
  -29.6267  -29.8058   25.7763 N   0  3  0  0  0  0  0  0  0  0  0  0
  -22.5844  -14.7847   20.8892 O   0  0  0  0  0  0  0  0  0  0  0  0
  -25.6797  -28.1305   18.5785 O   0  0  0  0  0  0  0  0  0  0  0  0
  -26.1358  -30.8938   21.0986 O   0  0  0  0  0  0  0  0  0  0  0  0
  -29.8061  -28.7260   23.1843 O   0  0  0  0  0  0  0  0  0  0  0  0
  -31.8554  -14.8562   20.3535 O   0  0  0  0  0  0  0  0  0  0  0  0
  -21.4531   -7.1618   21.9838 O   0  0  0  0  0  0  0  0  0  0  0  0
  -27.4689  -22.5362   21.5796 O   0  0  0  0  0  0  0  0  0  1  0  0
  -23.6706   -3.4119   25.3639 F   0  0  0  0  0  0  0  0  0  0  0  0
  -20.2519   -6.5389   24.3946 F   0  0  0  0  0  0  0  0  0  0  0  0
  1  2  1  0  0  0  0
  1  5  2  0  0  0  0
  2  6  2  0  0  0  0
  3 10  2  0  0  0  0
  3 18  1  0  0  0  0
  4 11  1  0  0  0  0
  4 18  2  0  0  0  0
  5 20  1  0  0  0  0
  6 22  1  0  0  0  0
  7  9  2  0  0  0  0
  7 23  1  0  0  0  0
  8 12  2  0  0  0  0
  8 21  1  0  0  0  0
  9 25  1  0  0  0  0
 10 27  1  0  0  0  0
 11 27  2  0  0  0  0
 12 28  1  0  0  0  0
 13 14  2  0  0  0  0
 13 29  1  0  0  0  0
 14 30  1  0  0  0  0
 15 24  1  0  0  0  0
 15 28  2  0  0  0  0
 16 25  2  0  0  0  0
 16 26  1  0  0  0  0
 17 30  2  0  0  0  0
 17 31  1  0  0  0  0
 18 32  1  0  0  0  0
 19 32  1  0  0  0  0
 19 33  2  0  0  0  0
 19 34  1  0  0  0  0
 20 22  2  0  0  0  0
 20 39  1  0  0  0  0
 21 24  2  0  0  0  0
 21 40  1  0  0  0  0
 22 50  1  0  0  0  0
 23 26  2  0  0  0  0
 23 51  1  0  0  0  0
 24 41  1  0  0  0  0
 25 59  1  0  0  0  0
 26 65  1  0  0  0  0
 27 79  1  0  0  0  0
 28 80  1  0  0  0  0
 29 31  2  0  0  0  0
 29 79  1  0  0  0  0
 30 81  1  0  0  0  0
 31 82  1  0  0  0  0
 32 63  2  0  0  0  0
 33 64  1  0  0  0  0
 33 68  1  0  0  0  0
 34 69  1  0  0  0  0
 34 74  2  0  0  0  0
 35 52  1  0  0  0  0
 35 70  1  0  0  0  0
 35 75  2  0  0  0  0
 36 60  1  0  0  0  0
 36 66  1  0  0  0  0
 36 76  2  0  0  0  0
 37 61  1  0  0  0  0
 37 71  1  0  0  0  0
 37 77  2  0  0  0  0
 38 67  1  0  0  0  0
 38 72  1  0  0  0  0
 38 78  2  0  0  0  0
 39 42  1  0  0  0  0
 40 52  1  0  0  0  0
 41 66  1  0  0  0  0
 42 44  1  0  0  0  0
 43 45  1  0  0  0  0
 43 47  1  0  0  0  0
 44 50  1  0  0  0  0
 45 53  1  0  0  0  0
 46 48  1  0  0  0  0
 46 51  1  0  0  0  0
 47 67  1  0  0  0  0
 48 65  1  0  0  0  0
 49 53  1  0  0  0  0
 49 67  1  0  0  0  0
 50 70  1  0  0  0  0
 51 72  1  0  0  0  0
 52 66  1  0  0  0  0
 53 64  1  0  0  0  0
 54 61  1  0  0  0  0
 55 62  1  0  0  0  0
 56 62  1  0  0  0  0
 57 62  1  0  0  0  0
 58 73  1  0  0  0  0
 59 80  1  0  0  0  0
 60 62  1  0  0  0  0
 60 71  1  0  0  0  0
 61 73  1  0  0  0  0
 63 64  1  0  0  0  0
M  CHG  1  73   1
M  ISO  4  38 100  59 101  72 100  80 101
M  END
> <Batch ID>
0139

> <Smiles>
CNC(C)C(=O)NC(C(=O)N1Cc2cc([101O:1][101CH2:1]c3ccc4c(c3)NCCC4[100NH:0][100C:0](=O)N3CCCC(n4nc(-c5ccc(Oc6ccc(F)cc6F)cc5)c(C(N)=O)c4N)C3)ccc2CC1C(=O)NC1CCCc2ccccc21)C(C)(C)C

> <Shape>
0.263

> <Color>
0.193

> <Negative vol penalty>
0.000

$$$$

  -OEChem-04052321103D

 83 92  0     1  0  0  0  0  0999 V2000
  -25.5722  -24.9186   30.4417 C   0  0  0  0  0  0  0  0  0  0  0  0
  -26.1071  -24.3998   29.2669 C   0  0  0  0  0  0  0  0  0  0  0  0
  -23.0708   -9.8385   19.9478 C   0  0  0  0  0  0  0  0  0  0  0  0
  -23.8252   -9.8637   22.2429 C   0  0  0  0  0  0  0  0  0  0  0  0
  -24.3585  -25.6041   30.4105 C   0  0  0  0  0  0  0  0  0  0  0  0
  -25.4279  -24.5653   28.0603 C   0  0  0  0  0  0  0  0  0  0  0  0
  -27.9092  -25.3708   22.5195 C   0  0  0  0  0  0  0  0  0  0  0  0
  -29.4553  -20.4086   19.2759 C   0  0  0  0  0  0  0  0  0  0  0  0
  -22.3139   -8.6964   20.2091 C   0  0  0  0  0  0  0  0  0  0  0  0
  -23.0682   -8.7216   22.5042 C   0  0  0  0  0  0  0  0  0  0  0  0
  -28.1566  -24.4921   21.4658 C   0  0  0  0  0  0  0  0  0  0  0  0
  -28.9910  -21.6932   18.9833 C   0  0  0  0  0  0  0  0  0  0  0  0
  -19.8302   -7.9657   23.1076 C   0  0  0  0  0  0  0  0  0  0  0  0
  -19.0700   -7.9474   24.2769 C   0  0  0  0  0  0  0  0  0  0  0  0
  -27.3112  -21.5347   20.7338 C   0  0  0  0  0  0  0  0  0  0  0  0
  -26.0805  -25.1562   20.4324 C   0  0  0  0  0  0  0  0  0  0  0  0
  -20.2886   -6.0053   25.0388 C   0  0  0  0  0  0  0  0  0  0  0  0
  -23.8265  -10.4221   20.9647 C   0  0  0  0  0  0  0  0  0  0  0  0
  -24.1959  -12.9419   20.8164 C   0  0  0  0  0  0  0  0  0  0  0  0
  -23.6689  -25.7865   29.2014 C   0  0  0  0  0  0  0  0  0  0  0  0
  -26.7384  -26.1422   22.5431 C   0  0  0  0  0  0  0  0  0  0  0  0
  -24.2032  -25.2527   28.0131 C   0  0  0  0  0  0  0  0  0  0  0  0
  -28.8476  -19.7027   20.3032 C   0  0  0  0  0  0  0  0  0  0  0  0
  -27.7862  -20.2667   21.0257 C   0  0  0  0  0  0  0  0  0  0  0  0
  -25.8219  -26.0459   21.4863 C   0  0  0  0  0  0  0  0  0  0  0  0
  -22.3126   -8.1380   21.4873 C   0  0  0  0  0  0  0  0  0  0  0  0
  -27.2409  -24.3825   20.4235 C   0  0  0  0  0  0  0  0  0  0  0  0
  -27.9265  -22.2521   19.7068 C   0  0  0  0  0  0  0  0  0  1  0  0
  -20.8195   -7.0037   22.9038 C   0  0  0  0  0  0  0  0  0  0  0  0
  -19.2992   -6.9673   25.2425 C   0  0  0  0  0  0  0  0  0  0  0  0
  -21.0487   -6.0236   23.8694 C   0  0  0  0  0  0  0  0  0  0  0  0
  -24.6091  -11.6016   20.6952 C   0  0  0  0  0  0  0  0  0  0  0  0
  -25.2970  -13.6753   20.4474 C   0  0  0  0  0  0  0  0  0  0  0  0
  -22.9301  -13.4762   21.2261 C   0  0  0  0  0  0  0  0  0  0  0  0
  -24.2330  -26.3578   24.4874 C   0  0  0  0  0  0  0  0  0  0  0  0
  -23.4411  -28.8413   22.5568 C   0  0  0  0  0  0  0  0  0  0  0  0
  -23.7196  -30.3411   19.5039 C   0  0  0  0  0  0  0  0  0  0  0  0
  -30.7910  -14.6373   20.6381 C   0  0  0  0  0  0  0  0  0  0  0  0
  -22.3369  -26.4934   29.2249 C   0  0  0  0  0  0  0  0  0  0  0  0
  -26.4991  -27.1051   23.6736 C   0  0  0  0  0  0  0  0  0  0  0  0
  -27.2658  -19.3094   22.0516 C   0  0  0  0  0  0  0  0  0  0  0  0
  -24.5595  -26.8668   21.4541 C   0  0  0  0  0  0  0  0  0  0  0  0
  -21.8655  -26.9504   27.8468 C   0  0  0  0  0  0  0  0  0  0  0  0
  -28.4499  -18.3351   22.1753 C   0  0  0  0  0  0  0  0  0  0  0  0
  -29.6335  -12.2378   18.2760 C   0  0  0  0  0  0  0  0  0  0  0  0
  -22.0344  -25.8295   26.8260 C   0  0  0  0  0  0  0  0  0  0  0  0
  -28.1919  -11.9646   18.7086 C   0  0  0  0  0  0  0  0  0  0  0  0
  -30.5500  -12.4625   19.4766 C   0  0  0  0  0  0  0  0  0  0  0  0
  -28.6529  -13.2300   20.8498 C   0  0  0  0  0  0  0  0  0  0  0  0
  -23.5086  -25.4331   26.6808 C   0  0  1  0  0  0  0  0  0  0  0  0
  -25.0270  -27.4637   23.8515 C   0  0  1  0  0  0  0  0  0  0  0  0
  -27.6798  -13.0524   19.6718 C   0  0  2  0  0  0  0  0  0  0  0  0
  -29.1352  -18.3099   20.7908 C   0  0  2  0  0  0  0  0  0  0  0  0
  -22.9272  -32.3413   18.2122 C   0  0  0  0  0  0  0  0  0  0  0  0
  -20.7209  -27.5133   22.1736 C   0  0  0  0  0  0  0  0  0  0  0  0
  -20.3522  -28.9994   20.1928 C   0  0  0  0  0  0  0  0  0  0  0  0
  -20.6383  -29.9962   22.4615 C   0  0  0  0  0  0  0  0  0  0  0  0
  -26.4783  -31.3550   19.1571 C   0  0  0  0  0  0  0  0  0  0  0  0
  -30.6103  -17.9428   20.8768 C   0  0  0  0  0  0  0  0  0  0  0  0
  -30.8770  -16.8011   21.8503 C   0  0  0  0  0  0  0  0  0  0  0  0
  -22.6403  -28.9947   21.2863 C   0  0  1  0  0  0  0  0  0  0  0  0
  -24.0169  -31.7767   19.1103 C   0  0  2  0  0  0  0  0  0  0  0  0
  -21.1107  -28.8588   21.5298 C   0  0  0  0  0  0  0  0  0  0  0  0
  -25.8738  -11.4873   20.2813 N   0  0  0  0  0  0  0  0  0  0  0  0
  -26.2649  -12.7652   20.1392 N   0  0  0  0  0  0  0  0  0  0  0  0
  -24.3675  -27.7893   22.5854 N   0  0  0  0  0  0  0  0  0  0  0  0
  -30.0084  -13.5071   20.3493 N   0  0  0  0  0  0  0  0  0  0  0  0
  -25.5220  -15.0035   20.3596 N   0  0  0  0  0  0  0  0  0  0  0  0
  -21.9076  -12.5819   21.5713 N   0  0  0  0  0  0  0  0  0  0  0  0
  -24.2145  -26.4007   25.8684 N   0  0  0  0  0  0  0  0  0  0  0  0
  -23.0414  -30.2701   20.7024 N   0  0  0  0  0  0  0  0  0  0  0  0
  -30.1998  -15.5822   21.4678 N   0  0  0  0  0  0  0  0  0  0  0  0
  -25.3145  -31.8559   18.3816 N   0  3  0  0  0  0  0  0  0  0  0  0
  -22.7070  -14.7099   21.2687 O   0  0  0  0  0  0  0  0  0  0  0  0
  -23.6771  -25.5279   23.7775 O   0  0  0  0  0  0  0  0  0  0  0  0
  -23.2567  -29.6304   23.4868 O   0  0  0  0  0  0  0  0  0  0  0  0
  -24.0521  -29.3790   18.8151 O   0  0  0  0  0  0  0  0  0  0  0  0
  -31.9299  -14.7952   20.1854 O   0  0  0  0  0  0  0  0  0  0  0  0
  -28.4628  -17.3908   19.9357 O   0  0  0  0  0  0  0  0  0  0  0  0
  -21.5739   -7.0236   21.7427 O   0  0  0  0  0  0  0  0  0  0  0  0
  -27.4796  -23.5251   19.3941 O   0  0  0  0  0  0  0  0  0  1  0  0
  -18.5701   -6.9508   26.3661 F   0  0  0  0  0  0  0  0  0  0  0  0
  -21.9986   -5.0975   23.6798 F   0  0  0  0  0  0  0  0  0  0  0  0
  1  2  1  0  0  0  0
  1  5  2  0  0  0  0
  2  6  2  0  0  0  0
  3  9  2  0  0  0  0
  3 18  1  0  0  0  0
  4 10  1  0  0  0  0
  4 18  2  0  0  0  0
  5 20  1  0  0  0  0
  6 22  1  0  0  0  0
  7 11  2  0  0  0  0
  7 21  1  0  0  0  0
  8 12  2  0  0  0  0
  8 23  1  0  0  0  0
  9 26  1  0  0  0  0
 10 26  2  0  0  0  0
 11 27  1  0  0  0  0
 12 28  1  0  0  0  0
 13 14  2  0  0  0  0
 13 29  1  0  0  0  0
 14 30  1  0  0  0  0
 15 24  1  0  0  0  0
 15 28  2  0  0  0  0
 16 25  1  0  0  0  0
 16 27  2  0  0  0  0
 17 30  2  0  0  0  0
 17 31  1  0  0  0  0
 18 32  1  0  0  0  0
 19 32  1  0  0  0  0
 19 33  2  0  0  0  0
 19 34  1  0  0  0  0
 20 22  2  0  0  0  0
 20 39  1  0  0  0  0
 21 25  2  0  0  0  0
 21 40  1  0  0  0  0
 22 50  1  0  0  0  0
 23 24  2  0  0  0  0
 23 53  1  0  0  0  0
 24 41  1  0  0  0  0
 25 42  1  0  0  0  0
 26 80  1  0  0  0  0
 27 81  1  0  0  0  0
 28 81  1  0  0  0  0
 29 31  2  0  0  0  0
 29 80  1  0  0  0  0
 30 82  1  0  0  0  0
 31 83  1  0  0  0  0
 32 64  2  0  0  0  0
 33 65  1  0  0  0  0
 33 68  1  0  0  0  0
 34 69  1  0  0  0  0
 34 74  2  0  0  0  0
 35 51  1  0  0  0  0
 35 70  1  0  0  0  0
 35 75  2  0  0  0  0
 36 61  1  0  0  0  0
 36 66  1  0  0  0  0
 36 76  2  0  0  0  0
 37 62  1  0  0  0  0
 37 71  1  0  0  0  0
 37 77  2  0  0  0  0
 38 67  1  0  0  0  0
 38 72  1  0  0  0  0
 38 78  2  0  0  0  0
 39 43  1  0  0  0  0
 40 51  1  0  0  0  0
 41 44  1  0  0  0  0
 42 66  1  0  0  0  0
 43 46  1  0  0  0  0
 44 53  1  0  0  0  0
 45 47  1  0  0  0  0
 45 48  1  0  0  0  0
 46 50  1  0  0  0  0
 47 52  1  0  0  0  0
 48 67  1  0  0  0  0
 49 52  1  0  0  0  0
 49 67  1  0  0  0  0
 50 70  1  0  0  0  0
 51 66  1  0  0  0  0
 52 65  1  0  0  0  0
 53 59  1  0  0  0  0
 53 79  1  0  0  0  0
 54 62  1  0  0  0  0
 55 63  1  0  0  0  0
 56 63  1  0  0  0  0
 57 63  1  0  0  0  0
 58 73  1  0  0  0  0
 59 60  1  0  0  0  0
 60 72  1  0  0  0  0
 61 63  1  0  0  0  0
 61 71  1  0  0  0  0
 62 73  1  0  0  0  0
 64 65  1  0  0  0  0
M  CHG  1  73   1
M  ISO  4  28 101  38 100  72 100  81 101
M  END
> <Batch ID>
0139

> <Smiles>
CNC(C)C(=O)NC(C(=O)N1Cc2cc([101O:1][101c:1]3ccc4c(c3)CCC4(O)CC[100NH:0][100C:0](=O)N3CCCC(n4nc(-c5ccc(Oc6ccc(F)cc6F)cc5)c(C(N)=O)c4N)C3)ccc2CC1C(=O)NC1CCCc2ccccc21)C(C)(C)C

> <Shape>
0.288

> <Color>
0.200

> <Negative vol penalty>
0.000

$$$$

  -OEChem-04052321103D

 90 99  0     1  0  0  0  0  0999 V2000
  -26.9279  -34.8070   22.1137 C   0  0  0  0  0  0  0  0  0  0  0  0
  -27.3294  -33.4927   22.3298 C   0  0  0  0  0  0  0  0  0  0  0  0
  -23.5736   -9.9369   22.2529 C   0  0  0  0  0  0  0  0  0  0  0  0
  -23.4606   -9.5832   19.8656 C   0  0  0  0  0  0  0  0  0  0  0  0
  -25.5833  -35.1537   22.2398 C   0  0  0  0  0  0  0  0  0  0  0  0
  -26.3866  -32.5244   22.6733 C   0  0  0  0  0  0  0  0  0  0  0  0
  -27.0006  -28.2124   20.0897 C   0  0  0  0  0  0  0  0  0  0  0  0
  -22.6952   -8.8718   22.4522 C   0  0  0  0  0  0  0  0  0  0  0  0
  -22.5823   -8.5181   20.0649 C   0  0  0  0  0  0  0  0  0  0  0  0
  -28.0198  -27.3585   20.5090 C   0  0  0  0  0  0  0  0  0  0  0  0
  -22.8444   -5.4941   22.4921 C   0  0  0  0  0  0  0  0  0  0  0  0
  -23.1554   -4.5765   23.4956 C   0  0  0  0  0  0  0  0  0  0  0  0
  -26.3972  -26.0006   21.6676 C   0  0  0  0  0  0  0  0  0  0  0  0
  -21.0782   -5.0964   24.6146 C   0  0  0  0  0  0  0  0  0  0  0  0
  -23.9562  -10.2927   20.9596 C   0  0  0  0  0  0  0  0  0  0  0  0
  -26.2685  -11.3371   20.6946 C   0  0  0  0  0  0  0  0  0  0  0  0
  -24.6222  -34.1872   22.5756 C   0  0  0  0  0  0  0  0  0  0  0  0
  -25.6712  -27.9725   20.4658 C   0  0  0  0  0  0  0  0  0  0  0  0
  -25.0281  -32.8587   22.8054 C   0  0  0  0  0  0  0  0  0  0  0  0
  -25.3626  -26.8515   21.2496 C   0  0  0  0  0  0  0  0  0  0  0  0
  -22.1996   -8.1624   21.3583 C   0  0  0  0  0  0  0  0  0  0  0  0
  -27.7185  -26.2540   21.3005 C   0  0  0  0  0  0  0  0  0  0  0  0
  -21.6504   -6.2129   22.5499 C   0  0  0  0  0  0  0  0  0  0  0  0
  -22.2723   -4.3777   24.5568 C   0  0  0  0  0  0  0  0  0  0  0  0
  -20.7673   -6.0140   23.6111 C   0  0  0  0  0  0  0  0  0  0  0  0
  -24.8630  -11.3931   20.7530 C   0  0  0  0  0  0  0  0  0  0  0  0
  -26.6555  -12.6378   20.4828 C   0  0  0  0  0  0  0  0  0  0  0  0
  -27.1457  -10.2101   20.8205 C   0  0  0  0  0  0  0  0  0  0  0  0
  -28.7580  -23.3641   19.7087 C   0  0  0  0  0  0  0  0  0  0  0  0
  -23.4983  -29.5579   22.1597 C   0  0  0  0  0  0  0  0  0  0  0  0
  -21.5506  -27.1555   21.1810 C   0  0  0  0  0  0  0  0  0  0  0  0
  -21.2458  -23.9425   20.0718 C   0  0  0  0  0  0  0  0  0  0  0  0
  -26.1310  -17.3802   17.8029 C   0  0  0  0  0  0  0  0  0  0  0  0
  -23.1874  -34.6191   22.7468 C   0  0  0  0  0  0  0  0  0  0  0  0
  -24.5799  -28.8881   19.9830 C   0  0  0  0  0  0  0  0  0  0  0  0
  -23.9488  -26.5383   21.6638 C   0  0  0  0  0  0  0  0  0  0  0  0
  -22.1974  -33.4571   22.7471 C   0  0  0  0  0  0  0  0  0  0  0  0
  -31.5401  -23.3760   22.3595 C   0  0  0  0  0  0  0  0  0  0  0  0
  -31.4267  -24.8376   22.7870 C   0  0  0  0  0  0  0  0  0  0  0  0
  -24.0039  -16.9406   20.6976 C   0  0  0  0  0  0  0  0  0  0  0  0
  -22.6930  -32.3338   23.6522 C   0  0  0  0  0  0  0  0  0  0  0  0
  -30.3006  -22.9043   21.6013 C   0  0  0  0  0  0  0  0  0  0  0  0
  -27.0002  -21.7176   15.5717 C   0  0  0  0  0  0  0  0  0  0  0  0
  -28.8821  -21.0562   17.1238 C   0  0  0  0  0  0  0  0  0  0  0  0
  -24.1580  -15.4421   20.9636 C   0  0  0  0  0  0  0  0  0  0  0  0
  -26.0552  -20.7688   16.3097 C   0  0  0  0  0  0  0  0  0  0  0  0
  -27.9406  -20.1056   17.8640 C   0  0  0  0  0  0  0  0  0  0  0  0
  -31.0951  -25.7537   21.6068 C   0  0  0  0  0  0  0  0  0  0  0  0
  -23.9822  -17.2371   19.2010 C   0  0  0  0  0  0  0  0  0  0  0  0
  -25.3200  -15.2245   18.7181 C   0  0  0  0  0  0  0  0  0  0  0  0
  -24.0317  -31.7748   23.1553 C   0  0  1  0  0  0  0  0  0  0  0  0
  -29.9966  -23.8246   20.4171 C   0  0  2  0  0  0  0  0  0  0  0  0
  -23.3277  -28.8360   20.8530 C   0  0  1  0  0  0  0  0  0  0  0  0
  -28.1509  -22.2270   16.4515 C   0  0  0  0  0  0  0  0  0  0  0  0
  -25.3715  -14.8618   20.2134 C   0  0  2  0  0  0  0  0  0  0  0  0
  -26.8173  -19.6080   16.9525 C   0  0  0  0  0  0  0  0  0  0  0  0
  -29.8459  -25.2867   20.8543 C   0  0  1  0  0  0  0  0  0  1  0  0
  -19.5239  -22.2479   19.3928 C   0  0  0  0  0  0  0  0  0  0  0  0
  -26.5525  -25.5228   17.8280 C   0  0  0  0  0  0  0  0  0  0  0  0
  -20.8442  -26.7015   24.1144 C   0  0  0  0  0  0  0  0  0  0  0  0
  -19.9138  -24.4676   23.4724 C   0  0  0  0  0  0  0  0  0  0  0  0
  -18.9074  -26.5507   22.5395 C   0  0  0  0  0  0  0  0  0  0  0  0
  -22.3557  -23.7398   17.3358 C   0  0  0  0  0  0  0  0  0  0  0  0
  -21.1766  -25.7957   21.7196 C   0  0  1  0  0  0  0  0  0  0  0  0
  -20.4624  -23.3457   18.9166 C   0  0  2  0  0  0  0  0  0  0  0  0
  -27.6662  -23.2551   17.4775 C   0  0  2  0  0  0  0  0  0  0  0  0
  -27.0310  -24.4904   16.8133 C   0  0  2  0  0  0  0  0  0  0  0  0
  -20.2375  -25.8856   22.9555 C   0  0  0  0  0  0  0  0  0  0  0  0
  -24.3892  -12.6315   20.5914 N   0  0  0  0  0  0  0  0  0  0  0  0
  -25.5032  -13.3656   20.4296 N   0  0  0  0  0  0  0  0  0  0  0  0
  -22.9177  -27.4669   21.1719 N   0  0  0  0  0  0  0  0  0  0  0  0
  -25.1733  -16.6741   18.5496 N   0  0  0  0  0  0  0  0  0  0  0  0
  -27.8656  -13.2186   20.3388 N   0  0  0  0  0  0  0  0  0  0  0  0
  -26.5818   -8.9451   21.0353 N   0  0  0  0  0  0  0  0  0  0  0  0
  -23.8237  -30.8942   22.0259 N   0  0  0  0  0  0  0  0  0  0  0  0
  -28.7596  -23.6177   18.3504 N   0  0  0  0  0  0  0  0  0  0  0  0
  -20.6168  -25.0517   20.5965 N   0  0  0  0  0  0  0  0  0  0  0  0
  -25.9150  -18.7478   17.6853 N   0  0  0  0  0  0  0  0  0  0  0  0
  -21.3911  -22.7645   17.9063 N   0  3  0  0  0  0  0  0  0  0  0  0
  -28.3936  -10.3239   20.7611 O   0  0  0  0  0  0  0  0  0  0  0  0
  -27.8656  -22.8170   20.3459 O   0  0  0  0  0  0  0  0  0  0  0  0
  -23.3446  -28.9480   23.2114 O   0  0  0  0  0  0  0  0  0  0  0  0
  -20.6631  -27.9108   20.7764 O   0  0  0  0  0  0  0  0  0  0  0  0
  -22.3075  -23.4696   20.4714 O   0  0  0  0  0  0  0  0  0  0  0  0
  -27.1099  -16.8332   17.2837 O   0  0  0  0  0  0  0  0  0  0  0  0
  -27.9528  -25.1327   15.9361 O   0  0  0  0  0  0  0  0  0  0  0  0
  -21.3428   -7.1229   21.5524 O   0  0  0  0  0  0  0  0  0  0  0  0
  -28.7115  -25.4193   21.7117 O   0  0  0  0  0  0  0  0  0  1  0  0
  -22.5703   -3.4954   25.5196 F   0  0  0  0  0  0  0  0  0  0  0  0
  -19.6181   -6.7007   23.6714 F   0  0  0  0  0  0  0  0  0  0  0  0
  1  2  1  0  0  0  0
  1  5  2  0  0  0  0
  2  6  2  0  0  0  0
  3  8  2  0  0  0  0
  3 15  1  0  0  0  0
  4  9  1  0  0  0  0
  4 15  2  0  0  0  0
  5 17  1  0  0  0  0
  6 19  1  0  0  0  0
  7 10  2  0  0  0  0
  7 18  1  0  0  0  0
  8 21  1  0  0  0  0
  9 21  2  0  0  0  0
 10 22  1  0  0  0  0
 11 12  2  0  0  0  0
 11 23  1  0  0  0  0
 12 24  1  0  0  0  0
 13 20  1  0  0  0  0
 13 22  2  0  0  0  0
 14 24  2  0  0  0  0
 14 25  1  0  0  0  0
 15 26  1  0  0  0  0
 16 26  1  0  0  0  0
 16 27  2  0  0  0  0
 16 28  1  0  0  0  0
 17 19  2  0  0  0  0
 17 34  1  0  0  0  0
 18 20  2  0  0  0  0
 18 35  1  0  0  0  0
 19 51  1  0  0  0  0
 20 36  1  0  0  0  0
 21 87  1  0  0  0  0
 22 88  1  0  0  0  0
 23 25  2  0  0  0  0
 23 87  1  0  0  0  0
 24 89  1  0  0  0  0
 25 90  1  0  0  0  0
 26 69  2  0  0  0  0
 27 70  1  0  0  0  0
 27 73  1  0  0  0  0
 28 74  1  0  0  0  0
 28 80  2  0  0  0  0
 29 52  1  0  0  0  0
 29 76  1  0  0  0  0
 29 81  2  0  0  0  0
 30 53  1  0  0  0  0
 30 75  1  0  0  0  0
 30 82  2  0  0  0  0
 31 64  1  0  0  0  0
 31 71  1  0  0  0  0
 31 83  2  0  0  0  0
 32 65  1  0  0  0  0
 32 77  1  0  0  0  0
 32 84  2  0  0  0  0
 33 72  1  0  0  0  0
 33 78  1  0  0  0  0
 33 85  2  0  0  0  0
 34 37  1  0  0  0  0
 35 53  1  0  0  0  0
 36 71  1  0  0  0  0
 37 41  1  0  0  0  0
 38 39  1  0  0  0  0
 38 42  1  0  0  0  0
 39 48  1  0  0  0  0
 40 45  1  0  0  0  0
 40 49  1  0  0  0  0
 41 51  1  0  0  0  0
 42 52  1  0  0  0  0
 43 46  1  0  0  0  0
 43 54  1  0  0  0  0
 44 47  1  0  0  0  0
 44 54  1  0  0  0  0
 45 55  1  0  0  0  0
 46 56  1  0  0  0  0
 47 56  1  0  0  0  0
 48 57  1  0  0  0  0
 49 72  1  0  0  0  0
 50 55  1  0  0  0  0
 50 72  1  0  0  0  0
 51 75  1  0  0  0  0
 52 57  1  0  0  0  0
 53 71  1  0  0  0  0
 54 66  1  0  0  0  0
 55 70  1  0  0  0  0
 56 78  1  0  0  0  0
 57 88  1  0  0  0  0
 58 65  1  0  0  0  0
 59 67  1  0  0  0  0
 60 68  1  0  0  0  0
 61 68  1  0  0  0  0
 62 68  1  0  0  0  0
 63 79  1  0  0  0  0
 64 68  1  0  0  0  0
 64 77  1  0  0  0  0
 65 79  1  0  0  0  0
 66 67  1  0  0  0  0
 66 76  1  0  0  0  0
 67 86  1  0  0  0  0
 69 70  1  0  0  0  0
M  CHG  1  79   1
M  ISO  4  33 100  57 101  78 100  88 101
M  END
> <Batch ID>
0139

> <Smiles>
CNC(C)C(=O)NC(C(=O)N1Cc2cc([101O:1][101CH:1]3CCCCC3C(=O)NC(C(C)O)C3CCC([100NH:0][100C:0](=O)N4CCCC(n5nc(-c6ccc(Oc7ccc(F)cc7F)cc6)c(C(N)=O)c5N)C4)CC3)ccc2CC1C(=O)NC1CCCc2ccccc21)C(C)(C)C

> <Shape>
0.263

> <Color>
0.087

> <Negative vol penalty>
0.000

$$$$

  -OEChem-04052321103D

 87 96  0     1  0  0  0  0  0999 V2000
  -26.3820  -34.5897   24.5267 C   0  0  0  0  0  0  0  0  0  0  0  0
  -26.8650  -33.3703   24.0631 C   0  0  0  0  0  0  0  0  0  0  0  0
  -24.7635   -9.2826   21.6396 C   0  0  0  0  0  0  0  0  0  0  0  0
  -23.2620  -10.6156   20.2959 C   0  0  0  0  0  0  0  0  0  0  0  0
  -25.0865  -34.6774   25.0348 C   0  0  0  0  0  0  0  0  0  0  0  0
  -26.0532  -32.2374   24.1083 C   0  0  0  0  0  0  0  0  0  0  0  0
  -26.2330  -29.5464   19.8222 C   0  0  0  0  0  0  0  0  0  0  0  0
  -29.1755  -19.6238   17.3970 C   0  0  0  0  0  0  0  0  0  0  0  0
  -23.7767   -8.3060   21.7735 C   0  0  0  0  0  0  0  0  0  0  0  0
  -22.2752   -9.6389   20.4297 C   0  0  0  0  0  0  0  0  0  0  0  0
  -27.3474  -28.7312   19.6284 C   0  0  0  0  0  0  0  0  0  0  0  0
  -20.9831   -7.8241   23.6141 C   0  0  0  0  0  0  0  0  0  0  0  0
  -20.7734   -7.2854   24.8835 C   0  0  0  0  0  0  0  0  0  0  0  0
  -29.6442  -20.7864   17.9986 C   0  0  0  0  0  0  0  0  0  0  0  0
  -26.0637  -26.8172   20.3410 C   0  0  0  0  0  0  0  0  0  0  0  0
  -21.3195   -5.0879   24.0412 C   0  0  0  0  0  0  0  0  0  0  0  0
  -24.5061  -10.4375   20.9009 C   0  0  0  0  0  0  0  0  0  0  0  0
  -26.5040  -11.5344   19.7550 C   0  0  0  0  0  0  0  0  0  0  0  0
  -24.2551  -33.5471   25.0773 C   0  0  0  0  0  0  0  0  0  0  0  0
  -25.0267  -29.0039   20.2880 C   0  0  0  0  0  0  0  0  0  0  0  0
  -24.7459  -32.3097   24.6186 C   0  0  0  0  0  0  0  0  0  0  0  0
  -28.5291  -18.6620   18.1654 C   0  0  0  0  0  0  0  0  0  0  0  0
  -24.9348  -27.6271   20.5374 C   0  0  0  0  0  0  0  0  0  0  0  0
  -22.5325   -8.4841   21.1685 C   0  0  0  0  0  0  0  0  0  0  0  0
  -27.2637  -27.3669   19.8906 C   0  0  0  0  0  0  0  0  0  0  0  0
  -21.3609   -6.9947   22.5582 C   0  0  0  0  0  0  0  0  0  0  0  0
  -20.9417   -5.9173   25.0971 C   0  0  0  0  0  0  0  0  0  0  0  0
  -21.5292   -5.6266   22.7717 C   0  0  0  0  0  0  0  0  0  0  0  0
  -25.5249  -11.4471   20.7627 C   0  0  0  0  0  0  0  0  0  0  0  0
  -29.4431  -20.9381   19.3611 C   0  0  0  0  0  0  0  0  0  0  0  0
  -28.3781  -18.9087   19.5205 C   0  0  0  0  0  0  0  0  0  0  0  0
  -27.2216  -12.6623   20.0704 C   0  0  0  0  0  0  0  0  0  0  0  0
  -26.7433  -10.6731   18.6340 C   0  0  0  0  0  0  0  0  0  0  0  0
  -23.2241  -29.4318   22.8709 C   0  0  0  0  0  0  0  0  0  0  0  0
  -21.1918  -27.4481   21.3034 C   0  0  0  0  0  0  0  0  0  0  0  0
  -20.7605  -25.0002   18.9649 C   0  0  0  0  0  0  0  0  0  0  0  0
  -27.4686  -17.9865   21.6811 C   0  0  0  0  0  0  0  0  0  0  0  0
  -22.8786  -33.6807   25.6789 C   0  0  0  0  0  0  0  0  0  0  0  0
  -23.8261  -29.8922   20.4664 C   0  0  0  0  0  0  0  0  0  0  0  0
  -23.6570  -26.9922   21.0196 C   0  0  0  0  0  0  0  0  0  0  0  0
  -21.9523  -32.5140   25.3456 C   0  0  0  0  0  0  0  0  0  0  0  0
  -26.7350  -16.3846   16.0331 C   0  0  0  0  0  0  0  0  0  0  0  0
  -27.1874  -15.5289   24.2421 C   0  0  0  0  0  0  0  0  0  0  0  0
  -26.4567  -17.1179   17.3591 C   0  0  0  0  0  0  0  0  0  0  0  0
  -28.0190  -17.2296   15.9259 C   0  0  0  0  0  0  0  0  0  0  0  0
  -22.6712  -31.1850   25.5547 C   0  0  0  0  0  0  0  0  0  0  0  0
  -26.8104  -14.2550   23.4823 C   0  0  0  0  0  0  0  0  0  0  0  0
  -26.5320  -16.7673   23.6334 C   0  0  0  0  0  0  0  0  0  0  0  0
  -26.3789  -15.6699   21.4331 C   0  0  0  0  0  0  0  0  0  0  0  0
  -27.9951  -17.3374   17.4806 C   0  0  0  0  0  0  0  0  0  0  0  0
  -23.8871  -31.0638   24.6282 C   0  0  1  0  0  0  0  0  0  0  0  0
  -22.7967  -29.3181   21.4349 C   0  0  1  0  0  0  0  0  0  0  0  0
  -27.0670  -14.4041   21.9698 C   0  0  2  0  0  0  0  0  0  0  0  0
  -18.9900  -23.5523   17.9323 C   0  0  0  0  0  0  0  0  0  0  0  0
  -31.7091  -23.6183   21.7350 C   0  0  0  0  0  0  0  0  0  0  0  0
  -21.1589  -25.7062   23.8083 C   0  0  0  0  0  0  0  0  0  0  0  0
  -20.1866  -23.8588   22.4263 C   0  0  0  0  0  0  0  0  0  0  0  0
  -18.9310  -25.9956   22.7096 C   0  0  0  0  0  0  0  0  0  0  0  0
  -21.2522  -26.1204   16.2700 C   0  0  0  0  0  0  0  0  0  0  0  0
  -29.9415  -25.0966   20.7282 C   0  0  0  0  0  0  0  0  0  0  0  0
  -29.4475  -22.6091   21.2140 C   0  0  0  0  0  0  0  0  0  0  0  0
  -28.4643  -25.4197   20.5407 C   0  0  0  0  0  0  0  0  0  1  0  0
  -20.9906  -25.9532   21.2438 C   0  0  1  0  0  0  0  0  0  0  0  0
  -19.7643  -24.8571   17.8285 C   0  0  2  0  0  0  0  0  0  0  0  0
  -30.2017  -23.8801   21.6358 C   0  0  1  0  0  0  0  0  0  0  0  0
  -20.3416  -25.3904   22.5398 C   0  0  0  0  0  0  0  0  0  0  0  0
  -25.6100  -12.4401   21.6518 N   0  0  0  0  0  0  0  0  0  0  0  0
  -28.8199  -20.0259   20.1403 N   0  0  0  0  0  0  0  0  0  0  0  0
  -26.6512  -13.1622   21.2039 N   0  0  0  0  0  0  0  0  0  0  0  0
  -22.5126  -27.9035   21.1847 N   0  0  0  0  0  0  0  0  0  0  0  0
  -26.8217  -16.8449   22.1999 N   0  0  0  0  0  0  0  0  0  0  0  0
  -28.2787  -13.2651   19.4859 N   0  0  0  0  0  0  0  0  0  0  0  0
  -25.9121   -9.5584   18.4584 N   0  0  0  0  0  0  0  0  0  0  0  0
  -27.7211  -17.9333   20.3107 N   0  0  0  0  0  0  0  0  0  0  0  0
  -29.9164  -22.1016   19.9464 N   0  0  0  0  0  0  0  0  0  0  0  0
  -23.4672  -30.7276   23.2846 N   0  0  0  0  0  0  0  0  0  0  0  0
  -20.2243  -25.6925   20.0300 N   0  0  0  0  0  0  0  0  0  0  0  0
  -20.4690  -24.8822   16.5156 N   0  3  0  0  0  0  0  0  0  0  0  0
  -27.6772  -10.8766   17.8216 O   0  0  0  0  0  0  0  0  0  0  0  0
  -23.3245  -28.4190   23.5534 O   0  0  0  0  0  0  0  0  0  0  0  0
  -20.2125  -28.1851   21.4426 O   0  0  0  0  0  0  0  0  0  0  0  0
  -21.8992  -24.5404   18.9144 O   0  0  0  0  0  0  0  0  0  0  0  0
  -27.8003  -18.9293   22.4044 O   0  0  0  0  0  0  0  0  0  0  0  0
  -21.5695   -7.5311   21.2987 O   0  0  0  0  0  0  0  0  0  0  0  0
  -28.3501  -26.5692   19.7029 O   0  0  0  0  0  0  0  0  0  1  0  0
  -20.7418   -5.4004   26.3165 F   0  0  0  0  0  0  0  0  0  0  0  0
  -21.8932   -4.8249   21.7615 F   0  0  0  0  0  0  0  0  0  0  0  0
  1  2  1  0  0  0  0
  1  5  2  0  0  0  0
  2  6  2  0  0  0  0
  3  9  2  0  0  0  0
  3 17  1  0  0  0  0
  4 10  1  0  0  0  0
  4 17  2  0  0  0  0
  5 19  1  0  0  0  0
  6 21  1  0  0  0  0
  7 11  2  0  0  0  0
  7 20  1  0  0  0  0
  8 14  2  0  0  0  0
  8 22  1  0  0  0  0
  9 24  1  0  0  0  0
 10 24  2  0  0  0  0
 11 25  1  0  0  0  0
 12 13  2  0  0  0  0
 12 26  1  0  0  0  0
 13 27  1  0  0  0  0
 14 30  1  0  0  0  0
 15 23  1  0  0  0  0
 15 25  2  0  0  0  0
 16 27  2  0  0  0  0
 16 28  1  0  0  0  0
 17 29  1  0  0  0  0
 18 29  1  0  0  0  0
 18 32  2  0  0  0  0
 18 33  1  0  0  0  0
 19 21  2  0  0  0  0
 19 38  1  0  0  0  0
 20 23  2  0  0  0  0
 20 39  1  0  0  0  0
 21 51  1  0  0  0  0
 22 31  2  0  0  0  0
 22 50  1  0  0  0  0
 23 40  1  0  0  0  0
 24 84  1  0  0  0  0
 25 85  1  0  0  0  0
 26 28  2  0  0  0  0
 26 84  1  0  0  0  0
 27 86  1  0  0  0  0
 28 87  1  0  0  0  0
 29 67  2  0  0  0  0
 30 68  2  0  0  0  0
 30 75  1  0  0  0  0
 31 68  1  0  0  0  0
 31 74  1  0  0  0  0
 32 69  1  0  0  0  0
 32 72  1  0  0  0  0
 33 73  1  0  0  0  0
 33 79  2  0  0  0  0
 34 52  1  0  0  0  0
 34 76  1  0  0  0  0
 34 80  2  0  0  0  0
 35 63  1  0  0  0  0
 35 70  1  0  0  0  0
 35 81  2  0  0  0  0
 36 64  1  0  0  0  0
 36 77  1  0  0  0  0
 36 82  2  0  0  0  0
 37 71  1  0  0  0  0
 37 74  1  0  0  0  0
 37 83  2  0  0  0  0
 38 41  1  0  0  0  0
 39 52  1  0  0  0  0
 40 70  1  0  0  0  0
 41 46  1  0  0  0  0
 42 44  1  0  0  0  0
 42 45  1  0  0  0  0
 43 47  1  0  0  0  0
 43 48  1  0  0  0  0
 44 50  1  0  0  0  0
 45 50  1  0  0  0  0
 46 51  1  0  0  0  0
 47 53  1  0  0  0  0
 48 71  1  0  0  0  0
 49 53  1  0  0  0  0
 49 71  1  0  0  0  0
 51 76  1  0  0  0  0
 52 70  1  0  0  0  0
 53 69  1  0  0  0  0
 54 64  1  0  0  0  0
 55 65  1  0  0  0  0
 56 66  1  0  0  0  0
 57 66  1  0  0  0  0
 58 66  1  0  0  0  0
 59 78  1  0  0  0  0
 60 62  1  0  0  0  0
 60 65  1  0  0  0  0
 61 65  1  0  0  0  0
 61 75  1  0  0  0  0
 62 85  1  0  0  0  0
 63 66  1  0  0  0  0
 63 77  1  0  0  0  0
 64 78  1  0  0  0  0
 67 69  1  0  0  0  0
M  CHG  1  78   1
M  ISO  4  37 100  62 101  74 100  85 101
M  END
> <Batch ID>
0139

> <Smiles>
CNC(C)C(=O)NC(C(=O)N1Cc2cc([101O:1][101CH2:1]CC(C)CNc3ccc(C4CCC4)c([100NH:0][100C:0](=O)N4CCCC(n5nc(-c6ccc(Oc7ccc(F)cc7F)cc6)c(C(N)=O)c5N)C4)n3)ccc2CC1C(=O)NC1CCCc2ccccc21)C(C)(C)C

> <Shape>
0.312

> <Color>
0.102

> <Negative vol penalty>
0.000

$$$$

  -OEChem-04052321103D

 93102  0     1  0  0  0  0  0999 V2000
  -18.4835  -28.3913   22.1239 C   0  0  0  0  0  0  0  0  0  0  0  0
  -18.8875  -27.3801   21.2582 C   0  0  0  0  0  0  0  0  0  0  0  0
  -28.7978  -23.2570   20.6560 C   0  0  0  0  0  0  0  0  0  0  0  0
  -29.6279  -22.9249   18.4115 C   0  0  0  0  0  0  0  0  0  0  0  0
  -19.0496  -28.4871   23.3945 C   0  0  0  0  0  0  0  0  0  0  0  0
  -19.8587  -26.4646   21.6621 C   0  0  0  0  0  0  0  0  0  0  0  0
  -20.1753  -20.5338   20.1685 C   0  0  0  0  0  0  0  0  0  0  0  0
  -25.8265  -13.8040   17.0168 C   0  0  0  0  0  0  0  0  0  0  0  0
  -29.2279  -24.5834   20.6188 C   0  0  0  0  0  0  0  0  0  0  0  0
  -30.0579  -24.2513   18.3743 C   0  0  0  0  0  0  0  0  0  0  0  0
  -20.9144  -19.8470   19.2064 C   0  0  0  0  0  0  0  0  0  0  0  0
  -24.6980  -14.6236   16.9986 C   0  0  0  0  0  0  0  0  0  0  0  0
  -28.1610  -27.5122   19.3086 C   0  0  0  0  0  0  0  0  0  0  0  0
  -27.2853  -28.4910   19.7784 C   0  0  0  0  0  0  0  0  0  0  0  0
  -22.5858  -19.3308   20.8675 C   0  0  0  0  0  0  0  0  0  0  0  0
  -24.6203  -14.5701   19.4128 C   0  0  0  0  0  0  0  0  0  0  0  0
  -28.9057  -29.1387   21.4494 C   0  0  0  0  0  0  0  0  0  0  0  0
  -28.9978  -22.4278   19.5523 C   0  0  0  0  0  0  0  0  0  0  0  0
  -27.2970  -20.5597   19.1988 C   0  0  0  0  0  0  0  0  0  0  0  0
  -20.0212  -27.5666   23.8178 C   0  0  0  0  0  0  0  0  0  0  0  0
  -20.6420  -20.6337   21.4871 C   0  0  0  0  0  0  0  0  0  0  0  0
  -20.4393  -26.5490   22.9390 C   0  0  0  0  0  0  0  0  0  0  0  0
  -21.8494  -20.0173   21.8451 C   0  0  0  0  0  0  0  0  0  0  0  0
  -26.3518  -13.3674   18.2330 C   0  0  0  0  0  0  0  0  0  0  0  0
  -25.7488  -13.7505   19.4310 C   0  0  0  0  0  0  0  0  0  0  0  0
  -29.8579  -25.0805   19.4780 C   0  0  0  0  0  0  0  0  0  0  0  0
  -22.1213  -19.2478   19.5551 C   0  0  0  0  0  0  0  0  0  0  0  0
  -24.0949  -15.0067   18.1966 C   0  0  0  0  0  0  0  0  0  0  0  0
  -29.4090  -27.3465   19.9093 C   0  0  0  0  0  0  0  0  0  0  0  0
  -27.6576  -29.3043   20.8487 C   0  0  0  0  0  0  0  0  0  0  0  0
  -29.7813  -28.1598   20.9796 C   0  0  0  0  0  0  0  0  0  0  0  0
  -28.5543  -21.0574   19.5903 C   0  0  0  0  0  0  0  0  0  0  0  0
  -27.3766  -19.2077   19.4274 C   0  0  0  0  0  0  0  0  0  0  0  0
  -26.1589  -21.2571   18.6752 C   0  0  0  0  0  0  0  0  0  0  0  0
  -21.4856  -23.0343   23.3921 C   0  0  0  0  0  0  0  0  0  0  0  0
  -21.7181  -20.6786   25.6099 C   0  0  0  0  0  0  0  0  0  0  0  0
  -22.1679  -17.3622   26.2776 C   0  0  0  0  0  0  0  0  0  0  0  0
  -30.1486  -14.3740   19.1155 C   0  0  0  0  0  0  0  0  0  0  0  0
  -20.6386  -27.7389   25.1830 C   0  0  0  0  0  0  0  0  0  0  0  0
  -19.8197  -21.3553   22.5194 C   0  0  0  0  0  0  0  0  0  0  0  0
  -22.3843  -20.0781   23.2517 C   0  0  0  0  0  0  0  0  0  0  0  0
  -21.3906  -26.5036   25.6717 C   0  0  0  0  0  0  0  0  0  0  0  0
  -30.8528  -16.4849   21.8949 C   0  0  0  0  0  0  0  0  0  0  0  0
  -22.2929  -25.9572   24.5699 C   0  0  0  0  0  0  0  0  0  0  0  0
  -30.2196  -17.8225   21.5080 C   0  0  0  0  0  0  0  0  0  0  0  0
  -24.0566   -9.3984   20.2493 C   0  0  0  0  0  0  0  0  0  0  0  0
  -31.4563  -15.7752   20.6849 C   0  0  0  0  0  0  0  0  0  0  0  0
  -22.8089   -8.5323   20.4276 C   0  0  0  0  0  0  0  0  0  0  0  0
  -29.8992  -16.9298   19.1630 C   0  0  0  0  0  0  0  0  0  0  0  0
  -22.6860  -10.2141   22.0463 C   0  0  0  0  0  0  0  0  0  0  0  0
  -21.4721  -25.5221   23.3498 C   0  0  1  0  0  0  0  0  0  0  0  0
  -20.6427  -21.8324   23.7121 C   0  0  1  0  0  0  0  0  0  0  0  0
  -29.2279  -17.6567   20.3408 C   0  0  2  0  0  0  0  0  0  0  0  0
  -24.0999  -10.2610   21.5024 C   0  0  2  0  0  0  0  0  0  0  0  0
  -19.1095   -6.7733   21.8853 C   0  0  0  0  0  0  0  0  0  0  0  0
  -22.3480  -15.7439   28.1871 C   0  0  0  0  0  0  0  0  0  0  0  0
  -24.5567  -21.6512   26.1632 C   0  0  0  0  0  0  0  0  0  0  0  0
  -24.9974  -19.4820   27.3330 C   0  0  0  0  0  0  0  0  0  0  0  0
  -23.2492  -21.0339   28.2037 C   0  0  0  0  0  0  0  0  0  0  0  0
  -19.7924  -15.8479   25.3704 C   0  0  0  0  0  0  0  0  0  0  0  0
  -27.5607  -12.4905   18.2270 C   0  0  0  0  0  0  0  0  0  0  0  0
  -26.2928  -13.2944   20.7448 C   0  0  0  0  0  0  0  0  0  0  0  0
  -20.5931   -7.0692   21.7178 C   0  0  0  0  0  0  0  0  0  0  0  0
  -20.9347   -8.5320   21.9752 C   0  0  0  0  0  0  0  0  0  0  0  0
  -28.7595  -13.1056   17.4967 C   0  0  0  0  0  0  0  0  0  0  0  0
  -25.9753  -11.8373   21.0805 C   0  0  0  0  0  0  0  0  0  0  0  0
  -22.1185  -17.9549   17.5590 C   0  0  0  0  0  0  0  0  0  1  0  0
  -22.8754  -16.7256   17.0949 C   0  0  0  0  0  0  0  0  0  0  0  0
  -22.8142  -19.7483   26.0706 C   0  0  1  0  0  0  0  0  0  0  0  0
  -21.4150  -16.4063   27.1853 C   0  0  2  0  0  0  0  0  0  0  0  0
  -23.8955  -20.4792   26.9156 C   0  0  0  0  0  0  0  0  0  0  0  0
  -29.3726  -20.0996   20.0341 N   0  0  0  0  0  0  0  0  0  0  0  0
  -28.6278  -18.9864   19.9229 N   0  0  0  0  0  0  0  0  0  0  0  0
  -21.5471  -20.8006   24.2236 N   0  0  0  0  0  0  0  0  0  0  0  0
  -30.4642  -15.6485   19.6146 N   0  0  0  0  0  0  0  0  0  0  0  0
  -22.3509   -8.8107   21.7928 N   0  0  1  0  0  0  0  0  0  0  0  0
  -26.4976  -18.1984   19.2509 N   0  0  0  0  0  0  0  0  0  0  0  0
  -26.2470  -22.6452   18.5032 N   0  0  0  0  0  0  0  0  0  0  0  0
  -20.8439  -24.2414   23.5939 N   0  0  0  0  0  0  0  0  0  0  0  0
  -22.1521  -18.6509   26.7675 N   0  0  0  0  0  0  0  0  0  0  0  0
  -29.1937  -14.3426   18.1066 N   0  0  0  0  0  0  0  0  0  0  0  0
  -24.5084  -11.6427   21.1906 N   0  3  0  0  0  0  0  0  0  0  0  0
  -20.7553  -15.3393   26.3808 N   0  3  0  0  0  0  0  0  0  0  0  0
  -25.0897  -20.6690   18.3844 O   0  0  0  0  0  0  0  0  0  0  0  0
  -22.6337  -22.8782   22.9931 O   0  0  0  0  0  0  0  0  0  0  0  0
  -21.0340  -21.2696   26.4492 O   0  0  0  0  0  0  0  0  0  0  0  0
  -22.7183  -17.0010   25.2397 O   0  0  0  0  0  0  0  0  0  0  0  0
  -30.6747  -13.3402   19.5414 O   0  0  0  0  0  0  0  0  0  0  0  0
  -30.2775  -26.3748   19.4412 O   0  0  0  0  0  0  0  0  0  0  0  0
  -22.8450  -18.5774   18.6178 O   0  0  0  0  0  0  0  0  0  1  0  0
  -22.9862  -15.8114   18.1789 O   0  0  0  0  0  0  0  0  0  0  0  0
  -26.8172  -30.2452   21.2987 F   0  0  0  0  0  0  0  0  0  0  0  0
  -30.9794  -28.0061   21.5599 F   0  0  0  0  0  0  0  0  0  0  0  0
  1  2  1  0  0  0  0
  1  5  2  0  0  0  0
  2  6  2  0  0  0  0
  3  9  2  0  0  0  0
  3 18  1  0  0  0  0
  4 10  1  0  0  0  0
  4 18  2  0  0  0  0
  5 20  1  0  0  0  0
  6 22  1  0  0  0  0
  7 11  2  0  0  0  0
  7 21  1  0  0  0  0
  8 12  2  0  0  0  0
  8 24  1  0  0  0  0
  9 26  1  0  0  0  0
 10 26  2  0  0  0  0
 11 27  1  0  0  0  0
 12 28  1  0  0  0  0
 13 14  2  0  0  0  0
 13 29  1  0  0  0  0
 14 30  1  0  0  0  0
 15 23  1  0  0  0  0
 15 27  2  0  0  0  0
 16 25  1  0  0  0  0
 16 28  2  0  0  0  0
 17 30  2  0  0  0  0
 17 31  1  0  0  0  0
 18 32  1  0  0  0  0
 19 32  1  0  0  0  0
 19 33  2  0  0  0  0
 19 34  1  0  0  0  0
 20 22  2  0  0  0  0
 20 39  1  0  0  0  0
 21 23  2  0  0  0  0
 21 40  1  0  0  0  0
 22 51  1  0  0  0  0
 23 41  1  0  0  0  0
 24 25  2  0  0  0  0
 24 61  1  0  0  0  0
 25 62  1  0  0  0  0
 26 89  1  0  0  0  0
 27 90  1  0  0  0  0
 28 91  1  0  0  0  0
 29 31  2  0  0  0  0
 29 89  1  0  0  0  0
 30 92  1  0  0  0  0
 31 93  1  0  0  0  0
 32 72  2  0  0  0  0
 33 73  1  0  0  0  0
 33 77  1  0  0  0  0
 34 78  1  0  0  0  0
 34 84  2  0  0  0  0
 35 52  1  0  0  0  0
 35 79  1  0  0  0  0
 35 85  2  0  0  0  0
 36 69  1  0  0  0  0
 36 74  1  0  0  0  0
 36 86  2  0  0  0  0
 37 70  1  0  0  0  0
 37 80  1  0  0  0  0
 37 87  2  0  0  0  0
 38 75  1  0  0  0  0
 38 81  1  0  0  0  0
 38 88  2  0  0  0  0
 39 42  1  0  0  0  0
 40 52  1  0  0  0  0
 41 74  1  0  0  0  0
 42 44  1  0  0  0  0
 43 45  1  0  0  0  0
 43 47  1  0  0  0  0
 44 51  1  0  0  0  0
 45 53  1  0  0  0  0
 46 48  1  0  0  0  0
 46 54  1  0  0  0  0
 47 75  1  0  0  0  0
 48 76  1  0  0  0  0
 49 53  1  0  0  0  0
 49 75  1  0  0  0  0
 50 54  1  0  0  0  0
 50 76  1  0  0  0  0
 51 79  1  0  0  0  0
 52 74  1  0  0  0  0
 53 73  1  0  0  0  0
 54 82  1  0  0  0  0
 55 63  1  0  0  0  0
 56 70  1  0  0  0  0
 57 71  1  0  0  0  0
 58 71  1  0  0  0  0
 59 71  1  0  0  0  0
 60 83  1  0  0  0  0
 61 65  1  0  0  0  0
 62 66  1  0  0  0  0
 63 64  1  0  0  0  0
 64 76  1  0  0  0  0
 65 81  1  0  0  0  0
 66 82  1  0  0  0  0
 67 68  1  0  0  0  0
 67 90  1  0  0  0  0
 68 91  1  0  0  0  0
 69 71  1  0  0  0  0
 69 80  1  0  0  0  0
 70 83  1  0  0  0  0
 72 73  1  0  0  0  0
M  CHG  2  82   1  83   1
M  ISO  4  38 100  67 101  81 100  90 101
M  END
> <Batch ID>
0139

> <Smiles>
CCCN1CCC(NCCc2cc(OC[101CH2:1][101O:1]c3ccc4c(c3)CN(C(=O)C(NC(=O)C(C)NC)C(C)(C)C)C(C(=O)NC3CCCc5ccccc53)C4)ccc2CC[100NH:0][100C:0](=O)N2CCCC(n3nc(-c4ccc(Oc5ccc(F)cc5F)cc4)c(C(N)=O)c3N)C2)C1

> <Shape>
0.250

> <Color>
0.055

> <Negative vol penalty>
0.000

$$$$

  -OEChem-04052321103D

 86 95  0     1  0  0  0  0  0999 V2000
  -21.7812  -18.3048   22.1966 C   0  0  0  0  0  0  0  0  0  0  0  0
  -22.8491  -19.1964   22.1923 C   0  0  0  0  0  0  0  0  0  0  0  0
  -23.0472   -9.7905   19.9725 C   0  0  0  0  0  0  0  0  0  0  0  0
  -23.7150   -9.9181   22.2909 C   0  0  0  0  0  0  0  0  0  0  0  0
  -20.5468  -18.6949   21.6789 C   0  0  0  0  0  0  0  0  0  0  0  0
  -22.6836  -20.4783   21.6692 C   0  0  0  0  0  0  0  0  0  0  0  0
  -29.6082  -19.2899   22.1669 C   0  0  0  0  0  0  0  0  0  0  0  0
  -24.7227  -24.0570   24.6154 C   0  0  0  0  0  0  0  0  0  0  0  0
  -29.4317  -17.9076   22.2257 C   0  0  0  0  0  0  0  0  0  0  0  0
  -22.2879   -8.6548   20.2537 C   0  0  0  0  0  0  0  0  0  0  0  0
  -22.9556   -8.7824   22.5721 C   0  0  0  0  0  0  0  0  0  0  0  0
  -26.1061  -24.2191   24.5555 C   0  0  0  0  0  0  0  0  0  0  0  0
  -23.2508   -5.4344   22.2054 C   0  0  0  0  0  0  0  0  0  0  0  0
  -23.8317   -4.4471   23.0012 C   0  0  0  0  0  0  0  0  0  0  0  0
  -25.8147  -26.1130   23.0900 C   0  0  0  0  0  0  0  0  0  0  0  0
  -31.1324  -17.6184   20.5343 C   0  0  0  0  0  0  0  0  0  0  0  0
  -22.0645   -4.7174   24.6264 C   0  0  0  0  0  0  0  0  0  0  0  0
  -23.7609  -10.4222   20.9911 C   0  0  0  0  0  0  0  0  0  0  0  0
  -24.1207  -12.9361   20.7500 C   0  0  0  0  0  0  0  0  0  0  0  0
  -20.3633  -19.9855   21.1580 C   0  0  0  0  0  0  0  0  0  0  0  0
  -23.8738  -24.9165   23.9031 C   0  0  0  0  0  0  0  0  0  0  0  0
  -21.4459  -20.8856   21.1428 C   0  0  0  0  0  0  0  0  0  0  0  0
  -30.5468  -19.8366   21.2918 C   0  0  0  0  0  0  0  0  0  0  0  0
  -24.4208  -25.9613   23.1446 C   0  0  0  0  0  0  0  0  0  0  0  0
  -31.3090  -19.0008   20.4755 C   0  0  0  0  0  0  0  0  0  0  0  0
  -30.1938  -17.0718   21.4094 C   0  0  0  0  0  0  0  0  0  0  0  0
  -22.2420   -8.1507   21.5535 C   0  0  0  0  0  0  0  0  0  0  0  0
  -26.6525  -25.2454   23.7904 C   0  0  0  0  0  0  0  0  0  0  0  0
  -22.0768   -6.0633   22.6200 C   0  0  0  0  0  0  0  0  0  0  0  0
  -23.2386   -4.0886   24.2117 C   0  0  0  0  0  0  0  0  0  0  0  0
  -21.4837   -5.7048   23.8305 C   0  0  0  0  0  0  0  0  0  0  0  0
  -24.5460  -11.5950   20.7011 C   0  0  0  0  0  0  0  0  0  0  0  0
  -25.2304  -13.6616   20.3913 C   0  0  0  0  0  0  0  0  0  0  0  0
  -22.8372  -13.4777   21.0894 C   0  0  0  0  0  0  0  0  0  0  0  0
  -21.7505  -24.5435   21.5674 C   0  0  0  0  0  0  0  0  0  0  0  0
  -21.1585  -27.6824   22.1326 C   0  0  0  0  0  0  0  0  0  0  0  0
  -22.2828  -30.6720   23.3347 C   0  0  0  0  0  0  0  0  0  0  0  0
  -30.6908  -14.6977   20.7291 C   0  0  0  0  0  0  0  0  0  0  0  0
  -19.0237  -20.3458   20.5662 C   0  0  0  0  0  0  0  0  0  0  0  0
  -22.3826  -24.7448   23.9996 C   0  0  0  0  0  0  0  0  0  0  0  0
  -23.5521  -26.9234   22.3776 C   0  0  0  0  0  0  0  0  0  0  0  0
  -18.8274  -21.8472   20.3725 C   0  0  0  0  0  0  0  0  0  0  0  0
  -29.6589  -12.1638   18.4505 C   0  0  0  0  0  0  0  0  0  0  0  0
  -20.0594  -22.4670   19.7206 C   0  0  0  0  0  0  0  0  0  0  0  0
  -28.2017  -11.9003   18.8369 C   0  0  0  0  0  0  0  0  0  0  0  0
  -29.4045  -21.9942   20.8156 C   0  0  0  0  0  0  0  0  0  0  0  0
  -31.1701  -21.8467   22.6177 C   0  0  0  0  0  0  0  0  0  0  0  0
  -30.5265  -12.4539   19.6739 C   0  0  0  0  0  0  0  0  0  0  0  0
  -28.5699  -13.2574   20.9368 C   0  0  0  0  0  0  0  0  0  0  0  0
  -29.5214  -23.5129   20.8389 C   0  0  0  0  0  0  0  0  0  0  0  0
  -31.2737  -23.3665   22.6270 C   0  0  0  0  0  0  0  0  0  0  0  0
  -30.7176  -21.3208   21.2459 C   0  0  0  0  0  0  0  0  0  0  0  0
  -21.2988  -22.2932   20.6068 C   0  0  1  0  0  0  0  0  0  0  0  0
  -21.6329  -25.3610   22.8225 C   0  0  1  0  0  0  0  0  0  0  0  0
  -27.6439  -13.0243   19.7318 C   0  0  2  0  0  0  0  0  0  0  0  0
  -32.3212  -19.5635   19.5324 C   0  0  0  0  0  0  0  0  0  0  0  0
  -21.5867  -33.0653   23.6261 C   0  0  0  0  0  0  0  0  0  0  0  0
  -21.6207  -28.1765   19.1573 C   0  0  0  0  0  0  0  0  0  0  0  0
  -21.8560  -30.6157   19.6702 C   0  0  0  0  0  0  0  0  0  0  0  0
  -19.7034  -29.4462   20.1402 C   0  0  0  0  0  0  0  0  0  0  0  0
  -22.5427  -30.5104   26.2783 C   0  0  0  0  0  0  0  0  0  0  0  0
  -29.9572  -25.4625   22.3301 C   0  0  0  0  0  0  0  0  0  0  0  0
  -28.5377  -25.9569   22.5272 C   0  0  0  0  0  0  0  0  0  1  0  0
  -21.7102  -28.9858   21.6075 C   0  0  1  0  0  0  0  0  0  0  0  0
  -21.6453  -31.6870   24.2662 C   0  0  2  0  0  0  0  0  0  0  0  0
  -21.2393  -29.2869   20.1566 C   0  0  0  0  0  0  0  0  0  0  0  0
  -25.8260  -11.4729   20.3396 N   0  0  0  0  0  0  0  0  0  0  0  0
  -26.2145  -12.7465   20.1581 N   0  0  0  0  0  0  0  0  0  0  0  0
  -22.1004  -26.7104   22.4986 N   0  0  0  0  0  0  0  0  0  0  0  0
  -29.9385  -13.5320   20.4718 N   0  0  0  0  0  0  0  0  0  0  0  0
  -25.4506  -14.9865   20.2557 N   0  0  0  0  0  0  0  0  0  0  0  0
  -21.8078  -12.5912   21.4340 N   0  0  0  0  0  0  0  0  0  0  0  0
  -30.0162  -15.6673   21.4702 N   0  0  0  0  0  0  0  0  0  0  0  0
  -21.2818  -23.2496   21.6927 N   0  0  0  0  0  0  0  0  0  0  0  0
  -21.3390  -30.0076   22.5803 N   0  0  0  0  0  0  0  0  0  0  0  0
  -29.9492  -23.9822   22.2167 N   0  3  0  0  0  0  0  0  0  0  0  0
  -22.4249  -31.7896   25.5321 N   0  3  0  0  0  0  0  0  0  0  0  0
  -22.6054  -14.7104   21.0714 O   0  0  0  0  0  0  0  0  0  0  0  0
  -22.2295  -25.0496   20.5593 O   0  0  0  0  0  0  0  0  0  0  0  0
  -19.9371  -27.5348   22.2217 O   0  0  0  0  0  0  0  0  0  0  0  0
  -23.4969  -30.4895   23.2789 O   0  0  0  0  0  0  0  0  0  0  0  0
  -31.8385  -14.8375   20.2988 O   0  0  0  0  0  0  0  0  0  0  0  0
  -21.5009   -7.0427   21.8283 O   0  0  0  0  0  0  0  0  0  0  0  0
  -28.0025  -25.4054   23.7296 O   0  0  0  0  0  0  0  0  0  1  0  0
  -23.7957   -3.1394   24.9752 F   0  0  0  0  0  0  0  0  0  0  0  0
  -20.3551   -6.3045   24.2335 F   0  0  0  0  0  0  0  0  0  0  0  0
  1  2  1  0  0  0  0
  1  5  2  0  0  0  0
  2  6  2  0  0  0  0
  3 10  2  0  0  0  0
  3 18  1  0  0  0  0
  4 11  1  0  0  0  0
  4 18  2  0  0  0  0
  5 20  1  0  0  0  0
  6 22  1  0  0  0  0
  7  9  2  0  0  0  0
  7 23  1  0  0  0  0
  8 12  2  0  0  0  0
  8 21  1  0  0  0  0
  9 26  1  0  0  0  0
 10 27  1  0  0  0  0
 11 27  2  0  0  0  0
 12 28  1  0  0  0  0
 13 14  2  0  0  0  0
 13 29  1  0  0  0  0
 14 30  1  0  0  0  0
 15 24  1  0  0  0  0
 15 28  2  0  0  0  0
 16 25  1  0  0  0  0
 16 26  2  0  0  0  0
 17 30  2  0  0  0  0
 17 31  1  0  0  0  0
 18 32  1  0  0  0  0
 19 32  1  0  0  0  0
 19 33  2  0  0  0  0
 19 34  1  0  0  0  0
 20 22  2  0  0  0  0
 20 39  1  0  0  0  0
 21 24  2  0  0  0  0
 21 40  1  0  0  0  0
 22 53  1  0  0  0  0
 23 25  2  0  0  0  0
 23 52  1  0  0  0  0
 24 41  1  0  0  0  0
 25 56  1  0  0  0  0
 26 73  1  0  0  0  0
 27 83  1  0  0  0  0
 28 84  1  0  0  0  0
 29 31  2  0  0  0  0
 29 83  1  0  0  0  0
 30 85  1  0  0  0  0
 31 86  1  0  0  0  0
 32 67  2  0  0  0  0
 33 68  1  0  0  0  0
 33 71  1  0  0  0  0
 34 72  1  0  0  0  0
 34 78  2  0  0  0  0
 35 54  1  0  0  0  0
 35 74  1  0  0  0  0
 35 79  2  0  0  0  0
 36 64  1  0  0  0  0
 36 69  1  0  0  0  0
 36 80  2  0  0  0  0
 37 65  1  0  0  0  0
 37 75  1  0  0  0  0
 37 81  2  0  0  0  0
 38 70  1  0  0  0  0
 38 73  1  0  0  0  0
 38 82  2  0  0  0  0
 39 42  1  0  0  0  0
 40 54  1  0  0  0  0
 41 69  1  0  0  0  0
 42 44  1  0  0  0  0
 43 45  1  0  0  0  0
 43 48  1  0  0  0  0
 44 53  1  0  0  0  0
 45 55  1  0  0  0  0
 46 50  1  0  0  0  0
 46 52  1  0  0  0  0
 47 51  1  0  0  0  0
 47 52  1  0  0  0  0
 48 70  1  0  0  0  0
 49 55  1  0  0  0  0
 49 70  1  0  0  0  0
 50 76  1  0  0  0  0
 51 76  1  0  0  0  0
 53 74  1  0  0  0  0
 54 69  1  0  0  0  0
 55 68  1  0  0  0  0
 57 65  1  0  0  0  0
 58 66  1  0  0  0  0
 59 66  1  0  0  0  0
 60 66  1  0  0  0  0
 61 77  1  0  0  0  0
 62 63  1  0  0  0  0
 62 76  1  0  0  0  0
 63 84  1  0  0  0  0
 64 66  1  0  0  0  0
 64 75  1  0  0  0  0
 65 77  1  0  0  0  0
 67 68  1  0  0  0  0
M  CHG  2  76   1  77   1
M  ISO  4  38 100  63 101  73 100  84 101
M  END
> <Batch ID>
0139

> <Smiles>
CNC(C)C(=O)NC(C(=O)N1Cc2cc([101O:1][101CH2:1]CN3CCC(c4ccc([100NH:0][100C:0](=O)N5CCCC(n6nc(-c7ccc(Oc8ccc(F)cc8F)cc7)c(C(N)=O)c6N)C5)cc4C)CC3)ccc2CC1C(=O)NC1CCCc2ccccc21)C(C)(C)C

> <Shape>
0.257

> <Color>
0.210

> <Negative vol penalty>
0.000

$$$$

  -OEChem-04052321103D

 89 99  0     1  0  0  0  0  0999 V2000
  -24.4866  -37.6555   18.9719 C   0  0  0  0  0  0  0  0  0  0  0  0
  -25.5111  -36.7166   18.9076 C   0  0  0  0  0  0  0  0  0  0  0  0
  -24.9039   -9.3606   20.5214 C   0  0  0  0  0  0  0  0  0  0  0  0
  -25.4952  -10.0244   22.7679 C   0  0  0  0  0  0  0  0  0  0  0  0
  -23.5123  -37.5556   19.9642 C   0  0  0  0  0  0  0  0  0  0  0  0
  -25.5625  -35.6776   19.8362 C   0  0  0  0  0  0  0  0  0  0  0  0
  -27.4918  -29.9497   18.8492 C   0  0  0  0  0  0  0  0  0  0  0  0
  -24.7834   -8.0368   20.9442 C   0  0  0  0  0  0  0  0  0  0  0  0
  -25.3748   -8.7006   23.1907 C   0  0  0  0  0  0  0  0  0  0  0  0
  -28.7061  -29.3125   19.1007 C   0  0  0  0  0  0  0  0  0  0  0  0
  -22.5127   -6.1423   22.5836 C   0  0  0  0  0  0  0  0  0  0  0  0
  -21.3985   -5.4228   22.1519 C   0  0  0  0  0  0  0  0  0  0  0  0
  -27.8231  -28.4633   21.1788 C   0  0  0  0  0  0  0  0  0  0  0  0
  -27.7493  -21.9856   21.7921 C   0  0  0  0  0  0  0  0  0  0  0  0
  -27.0021  -19.7122   22.0318 C   0  0  0  0  0  0  0  0  0  0  0  0
  -22.8508   -3.8189   21.0770 C   0  0  0  0  0  0  0  0  0  0  0  0
  -25.2598  -10.3544   21.4332 C   0  0  0  0  0  0  0  0  0  0  0  0
  -24.3751  -12.7024   20.9732 C   0  0  0  0  0  0  0  0  0  0  0  0
  -23.5463  -36.5094   20.8996 C   0  0  0  0  0  0  0  0  0  0  0  0
  -26.4359  -29.8573   19.7673 C   0  0  0  0  0  0  0  0  0  0  0  0
  -24.5884  -35.5643   20.8428 C   0  0  0  0  0  0  0  0  0  0  0  0
  -26.5956  -29.0981   20.9354 C   0  0  0  0  0  0  0  0  0  0  0  0
  -26.8251  -21.0687   22.2803 C   0  0  0  0  0  0  0  0  0  0  0  0
  -25.0188   -7.7068   22.2789 C   0  0  0  0  0  0  0  0  0  0  0  0
  -28.8729  -28.5715   20.2670 C   0  0  0  0  0  0  0  0  0  0  0  0
  -23.7960   -5.7002   22.2619 C   0  0  0  0  0  0  0  0  0  0  0  0
  -21.5675   -4.2610   21.3986 C   0  0  0  0  0  0  0  0  0  0  0  0
  -23.9650   -4.5385   21.5086 C   0  0  0  0  0  0  0  0  0  0  0  0
  -25.3850  -11.7219   20.9969 C   0  0  0  0  0  0  0  0  0  0  0  0
  -28.8248  -21.4989   21.0667 C   0  0  0  0  0  0  0  0  0  0  0  0
  -28.1110  -19.3272   21.2955 C   0  0  0  0  0  0  0  0  0  0  0  0
  -24.9965  -13.8234   20.4794 C   0  0  0  0  0  0  0  0  0  0  0  0
  -22.9985  -12.6084   21.3629 C   0  0  0  0  0  0  0  0  0  0  0  0
  -24.8100  -31.9412   21.5330 C   0  0  0  0  0  0  0  0  0  0  0  0
  -23.0121  -29.3382   22.2505 C   0  0  0  0  0  0  0  0  0  0  0  0
  -22.7999  -25.9406   22.4911 C   0  0  0  0  0  0  0  0  0  0  0  0
  -29.3160  -17.3340   20.3356 C   0  0  0  0  0  0  0  0  0  0  0  0
  -22.4977  -36.4698   21.9829 C   0  0  0  0  0  0  0  0  0  0  0  0
  -25.1234  -30.5285   19.4686 C   0  0  0  0  0  0  0  0  0  0  0  0
  -25.4862  -28.9511   21.9434 C   0  0  0  0  0  0  0  0  0  0  0  0
  -22.4125  -35.1245   22.6993 C   0  0  0  0  0  0  0  0  0  0  0  0
  -29.5488  -14.3939   18.3409 C   0  0  0  0  0  0  0  0  0  0  0  0
  -23.8064  -34.6274   23.0690 C   0  0  0  0  0  0  0  0  0  0  0  0
  -28.4032  -13.5173   18.8521 C   0  0  0  0  0  0  0  0  0  0  0  0
  -25.8873  -22.2941   24.3507 C   0  0  0  0  0  0  0  0  0  0  0  0
  -25.3615  -20.8935   24.3999 C   0  0  0  0  0  0  0  0  0  0  0  0
  -29.1751  -23.4353   19.5453 C   0  0  0  0  0  0  0  0  0  0  0  0
  -30.5147  -23.2189   21.6774 C   0  0  0  0  0  0  0  0  0  0  0  0
  -30.2082  -15.1817   19.4715 C   0  0  0  0  0  0  0  0  0  0  0  0
  -28.1407  -15.0955   20.8085 C   0  0  0  0  0  0  0  0  0  0  0  0
  -30.1655  -24.4767   19.0403 C   0  0  0  0  0  0  0  0  0  0  0  0
  -31.4950  -24.2617   21.1558 C   0  0  0  0  0  0  0  0  0  0  0  0
  -24.6643  -34.4088   21.8169 C   0  0  1  0  0  0  0  0  0  0  0  0
  -29.8383  -22.4558   20.5271 C   0  0  0  0  0  0  0  0  0  0  0  0
  -24.2887  -30.7915   20.7181 C   0  0  1  0  0  0  0  0  0  0  0  0
  -27.4035  -14.3321   19.6961 C   0  0  2  0  0  0  0  0  0  0  0  0
  -25.6501  -21.5380   23.0668 C   0  0  0  0  0  0  0  0  0  0  0  0
  -21.2149  -24.1071   23.1417 C   0  0  0  0  0  0  0  0  0  0  0  0
  -23.4795  -29.9826   25.1960 C   0  0  0  0  0  0  0  0  0  0  0  0
  -22.7158  -27.6641   25.7525 C   0  0  0  0  0  0  0  0  0  0  0  0
  -21.1504  -29.2584   24.6434 C   0  0  0  0  0  0  0  0  0  0  0  0
  -22.8708  -24.7588   19.7787 C   0  0  0  0  0  0  0  0  0  0  0  0
  -31.6685  -26.3269   19.7703 C   0  0  0  0  0  0  0  0  0  0  0  0
  -30.8141  -27.5184   19.3848 C   0  0  0  0  0  0  0  0  0  1  0  0
  -23.0582  -28.2670   23.3131 C   0  0  1  0  0  0  0  0  0  0  0  0
  -21.7497  -24.9598   22.0017 C   0  0  2  0  0  0  0  0  0  0  0  0
  -22.6227  -28.7972   24.7084 C   0  0  0  0  0  0  0  0  0  0  0  0
  -26.5587  -12.1796   20.5532 N   0  0  0  0  0  0  0  0  0  0  0  0
  -29.0302  -20.1886   20.8049 N   0  0  0  0  0  0  0  0  0  0  0  0
  -26.2902  -13.4601   20.2460 N   0  0  0  0  0  0  0  0  0  0  0  0
  -24.2240  -29.6312   21.6091 N   0  0  0  0  0  0  0  0  0  0  0  0
  -29.2010  -15.9321   20.2247 N   0  0  0  0  0  0  0  0  0  0  0  0
  -24.5569  -15.0744   20.2262 N   0  0  0  0  0  0  0  0  0  0  0  0
  -22.5240  -11.3826   21.8492 N   0  0  0  0  0  0  0  0  0  0  0  0
  -28.2827  -17.9428   21.0471 N   0  0  0  0  0  0  0  0  0  0  0  0
  -24.2984  -33.1704   21.1634 N   0  0  0  0  0  0  0  0  0  0  0  0
  -22.2470  -27.1618   22.8141 N   0  0  0  0  0  0  0  0  0  0  0  0
  -30.7886  -25.2148   20.2101 N   0  3  0  0  0  0  0  0  0  0  0  0
  -22.3280  -24.0544   20.9688 N   0  3  0  0  0  0  0  0  0  0  0  0
  -22.2085  -13.5780   21.2668 O   0  0  0  0  0  0  0  0  0  0  0  0
  -25.6156  -31.7286   22.4317 O   0  0  0  0  0  0  0  0  0  0  0  0
  -21.9389  -29.8896   21.9937 O   0  0  0  0  0  0  0  0  0  0  0  0
  -23.9909  -25.6512   22.5817 O   0  0  0  0  0  0  0  0  0  0  0  0
  -30.2470  -17.9521   19.8129 O   0  0  0  0  0  0  0  0  0  0  0  0
  -24.5060  -21.9397   22.2934 O   0  0  0  0  0  0  0  0  0  0  0  0
  -24.9012   -6.4153   22.6919 O   0  0  0  0  0  0  0  0  0  0  0  0
  -30.0573  -27.9491   20.5153 O   0  0  0  0  0  0  0  0  0  1  0  0
  -20.4975   -3.5693   20.9855 F   0  0  0  0  0  0  0  0  0  0  0  0
  -25.1954   -4.1081   21.1975 F   0  0  0  0  0  0  0  0  0  0  0  0
  1  2  1  0  0  0  0
  1  5  2  0  0  0  0
  2  6  2  0  0  0  0
  3  8  2  0  0  0  0
  3 17  1  0  0  0  0
  4  9  1  0  0  0  0
  4 17  2  0  0  0  0
  5 19  1  0  0  0  0
  6 21  1  0  0  0  0
  7 10  2  0  0  0  0
  7 20  1  0  0  0  0
  8 24  1  0  0  0  0
  9 24  2  0  0  0  0
 10 25  1  0  0  0  0
 11 12  2  0  0  0  0
 11 26  1  0  0  0  0
 12 27  1  0  0  0  0
 13 22  1  0  0  0  0
 13 25  2  0  0  0  0
 14 23  2  0  0  0  0
 14 30  1  0  0  0  0
 15 23  1  0  0  0  0
 15 31  2  0  0  0  0
 16 27  2  0  0  0  0
 16 28  1  0  0  0  0
 17 29  1  0  0  0  0
 18 29  1  0  0  0  0
 18 32  2  0  0  0  0
 18 33  1  0  0  0  0
 19 21  2  0  0  0  0
 19 38  1  0  0  0  0
 20 22  2  0  0  0  0
 20 39  1  0  0  0  0
 21 53  1  0  0  0  0
 22 40  1  0  0  0  0
 23 57  1  0  0  0  0
 24 86  1  0  0  0  0
 25 87  1  0  0  0  0
 26 28  2  0  0  0  0
 26 86  1  0  0  0  0
 27 88  1  0  0  0  0
 28 89  1  0  0  0  0
 29 68  2  0  0  0  0
 30 54  1  0  0  0  0
 30 69  2  0  0  0  0
 31 69  1  0  0  0  0
 31 75  1  0  0  0  0
 32 70  1  0  0  0  0
 32 73  1  0  0  0  0
 33 74  1  0  0  0  0
 33 80  2  0  0  0  0
 34 55  1  0  0  0  0
 34 76  1  0  0  0  0
 34 81  2  0  0  0  0
 35 65  1  0  0  0  0
 35 71  1  0  0  0  0
 35 82  2  0  0  0  0
 36 66  1  0  0  0  0
 36 77  1  0  0  0  0
 36 83  2  0  0  0  0
 37 72  1  0  0  0  0
 37 75  1  0  0  0  0
 37 84  2  0  0  0  0
 38 41  1  0  0  0  0
 39 55  1  0  0  0  0
 40 71  1  0  0  0  0
 41 43  1  0  0  0  0
 42 44  1  0  0  0  0
 42 49  1  0  0  0  0
 43 53  1  0  0  0  0
 44 56  1  0  0  0  0
 45 46  1  0  0  0  0
 45 57  1  0  0  0  0
 46 57  1  0  0  0  0
 47 51  1  0  0  0  0
 47 54  1  0  0  0  0
 48 52  1  0  0  0  0
 48 54  1  0  0  0  0
 49 72  1  0  0  0  0
 50 56  1  0  0  0  0
 50 72  1  0  0  0  0
 51 78  1  0  0  0  0
 52 78  1  0  0  0  0
 53 76  1  0  0  0  0
 55 71  1  0  0  0  0
 56 70  1  0  0  0  0
 57 85  1  0  0  0  0
 58 66  1  0  0  0  0
 59 67  1  0  0  0  0
 60 67  1  0  0  0  0
 61 67  1  0  0  0  0
 62 79  1  0  0  0  0
 63 64  1  0  0  0  0
 63 78  1  0  0  0  0
 64 87  1  0  0  0  0
 65 67  1  0  0  0  0
 65 77  1  0  0  0  0
 66 79  1  0  0  0  0
 68 70  1  0  0  0  0
M  CHG  2  78   1  79   1
M  ISO  4  37 100  64 101  75 100  87 101
M  END
> <Batch ID>
0139

> <Smiles>
CNC(C)C(=O)NC(C(=O)N1Cc2cc([101O:1][101CH2:1]CN3CCC(c4cc(C5(O)CC5)cc([100NH:0][100C:0](=O)N5CCCC(n6nc(-c7ccc(Oc8ccc(F)cc8F)cc7)c(C(N)=O)c6N)C5)n4)CC3)ccc2CC1C(=O)NC1CCCc2ccccc21)C(C)(C)C

> <Shape>
0.281

> <Color>
0.086

> <Negative vol penalty>
0.000

$$$$

  -OEChem-04052321103D

 85 94  0     1  0  0  0  0  0999 V2000
  -28.5500  -30.9729   26.1515 C   0  0  0  0  0  0  0  0  0  0  0  0
  -28.4619  -29.5926   26.0014 C   0  0  0  0  0  0  0  0  0  0  0  0
  -23.3365   -9.6844   19.9969 C   0  0  0  0  0  0  0  0  0  0  0  0
  -23.6671  -10.0170   22.3670 C   0  0  0  0  0  0  0  0  0  0  0  0
  -28.6643  -31.7893   25.0271 C   0  0  0  0  0  0  0  0  0  0  0  0
  -28.4871  -29.0280   24.7266 C   0  0  0  0  0  0  0  0  0  0  0  0
  -31.5230  -24.9841   24.4525 C   0  0  0  0  0  0  0  0  0  0  0  0
  -22.6404   -8.5046   20.2595 C   0  0  0  0  0  0  0  0  0  0  0  0
  -22.9710   -8.8371   22.6296 C   0  0  0  0  0  0  0  0  0  0  0  0
  -31.0331  -23.7842   24.9664 C   0  0  0  0  0  0  0  0  0  0  0  0
  -23.5844   -5.5131   22.5545 C   0  0  0  0  0  0  0  0  0  0  0  0
  -24.1287   -4.6342   23.4910 C   0  0  0  0  0  0  0  0  0  0  0  0
  -30.4812  -23.0598   22.7326 C   0  0  0  0  0  0  0  0  0  0  0  0
  -31.8834  -16.9895   25.5290 C   0  0  0  0  0  0  0  0  0  0  0  0
  -22.1390   -4.8450   24.8452 C   0  0  0  0  0  0  0  0  0  0  0  0
  -23.8500  -10.4406   21.0506 C   0  0  0  0  0  0  0  0  0  0  0  0
  -24.0343  -12.9567   20.6728 C   0  0  0  0  0  0  0  0  0  0  0  0
  -28.7006  -31.2338   23.7384 C   0  0  0  0  0  0  0  0  0  0  0  0
  -31.4855  -25.2358   23.0735 C   0  0  0  0  0  0  0  0  0  0  0  0
  -28.6007  -29.8379   23.5838 C   0  0  0  0  0  0  0  0  0  0  0  0
  -30.9735  -24.2627   22.2035 C   0  0  0  0  0  0  0  0  0  0  0  0
  -31.9193  -15.6091   25.3655 C   0  0  0  0  0  0  0  0  0  0  0  0
  -22.4576   -8.0809   21.5758 C   0  0  0  0  0  0  0  0  0  0  0  0
  -30.5095  -22.8230   24.1067 C   0  0  0  0  0  0  0  0  0  0  0  0
  -22.3174   -6.0581   22.7635 C   0  0  0  0  0  0  0  0  0  0  0  0
  -31.3323  -17.7878   24.5329 C   0  0  0  0  0  0  0  0  0  0  0  0
  -23.4060   -4.3002   24.6363 C   0  0  0  0  0  0  0  0  0  0  0  0
  -21.5948   -5.7240   23.9088 C   0  0  0  0  0  0  0  0  0  0  0  0
  -24.5697  -11.6592   20.7800 C   0  0  0  0  0  0  0  0  0  0  0  0
  -30.8345  -17.1620   23.4014 C   0  0  0  0  0  0  0  0  0  0  0  0
  -31.3949  -15.0808   24.1968 C   0  0  0  0  0  0  0  0  0  0  0  0
  -25.1202  -13.7556   20.4101 C   0  0  0  0  0  0  0  0  0  0  0  0
  -22.6768  -13.4003   20.7995 C   0  0  0  0  0  0  0  0  0  0  0  0
  -30.0732  -27.4032   21.2265 C   0  0  0  0  0  0  0  0  0  0  0  0
  -31.8154  -25.9784   18.8905 C   0  0  0  0  0  0  0  0  0  0  0  0
  -33.4560  -23.1964   17.7878 C   0  0  0  0  0  0  0  0  0  0  0  0
  -30.9695  -13.1925   21.5592 C   0  0  0  0  0  0  0  0  0  0  0  0
  -28.7777  -32.1599   22.5505 C   0  0  0  0  0  0  0  0  0  0  0  0
  -32.0424  -26.5241   22.5325 C   0  0  0  0  0  0  0  0  0  0  0  0
  -30.9292  -24.4757   20.7132 C   0  0  0  0  0  0  0  0  0  0  0  0
  -29.1743  -31.4570   21.2548 C   0  0  0  0  0  0  0  0  0  0  0  0
  -29.4473  -13.6411   18.3719 C   0  0  0  0  0  0  0  0  0  0  0  0
  -28.3719  -30.1719   21.0775 C   0  0  0  0  0  0  0  0  0  0  0  0
  -28.7848  -18.3772   22.4034 C   0  0  0  0  0  0  0  0  0  0  0  0
  -29.2154  -17.3567   21.3967 C   0  0  0  0  0  0  0  0  0  0  0  0
  -27.9763  -13.3011   18.6180 C   0  0  0  0  0  0  0  0  0  0  0  0
  -30.3773  -12.7520   19.1945 C   0  0  0  0  0  0  0  0  0  0  0  0
  -28.6234  -12.3914   20.8879 C   0  0  0  0  0  0  0  0  0  0  0  0
  -28.6495  -29.1862   22.2189 C   0  0  1  0  0  0  0  0  0  0  0  0
  -30.2345  -17.9852   22.3082 C   0  0  0  0  0  0  0  0  0  0  0  0
  -31.4829  -26.8873   21.1604 C   0  0  1  0  0  0  0  0  0  0  0  0
  -27.6454  -13.2991   20.1226 C   0  0  2  0  0  0  0  0  0  0  0  0
  -32.5081  -14.7486   26.4290 C   0  0  0  0  0  0  0  0  0  0  0  0
  -34.7492  -22.3211   15.8234 C   0  0  0  0  0  0  0  0  0  0  0  0
  -29.2129  -25.6272   17.3369 C   0  0  0  0  0  0  0  0  0  0  0  0
  -30.3844  -23.9538   15.8892 C   0  0  0  0  0  0  0  0  0  0  0  0
  -31.1727  -26.3198   15.9462 C   0  0  0  0  0  0  0  0  0  0  0  0
  -35.8845  -22.7758   19.4262 C   0  0  0  0  0  0  0  0  0  0  0  0
  -31.4067  -13.6048   23.9671 C   0  0  0  0  0  0  0  0  0  0  0  0
  -30.6316  -21.1609   25.8032 C   0  0  0  0  0  0  0  0  0  1  0  0
  -30.5674  -19.6458   25.8052 C   0  0  0  0  0  0  0  0  0  0  0  0
  -31.5914  -24.8254   17.9421 C   0  0  1  0  0  0  0  0  0  0  0  0
  -34.8325  -23.0159   17.1736 C   0  0  2  0  0  0  0  0  0  0  0  0
  -30.5893  -25.1780   16.8068 C   0  0  0  0  0  0  0  0  0  0  0  0
  -25.8928  -11.6308   20.5999 N   0  0  0  0  0  0  0  0  0  0  0  0
  -30.8516  -15.8243   23.2070 N   0  0  0  0  0  0  0  0  0  0  0  0
  -26.1980  -12.9204   20.3768 N   0  0  0  0  0  0  0  0  0  0  0  0
  -31.4798  -25.7540   20.2332 N   0  0  0  0  0  0  0  0  0  0  0  0
  -30.0109  -12.7960   20.6121 N   0  0  0  0  0  0  0  0  0  0  0  0
  -25.2488  -15.0839   20.2065 N   0  0  0  0  0  0  0  0  0  0  0  0
  -21.6852  -12.4477   21.0707 N   0  0  0  0  0  0  0  0  0  0  0  0
  -29.9214  -28.5256   22.0181 N   0  0  0  0  0  0  0  0  0  0  0  0
  -32.9117  -24.4227   17.4699 N   0  0  0  0  0  0  0  0  0  0  0  0
  -30.5378  -13.2128   22.8798 N   0  0  0  0  0  0  0  0  0  0  0  0
  -35.6967  -22.1978   18.0706 N   0  3  0  0  0  0  0  0  0  0  0  0
  -22.3504  -14.6034   20.6596 O   0  0  0  0  0  0  0  0  0  0  0  0
  -29.1891  -26.8266   20.6041 O   0  0  0  0  0  0  0  0  0  0  0  0
  -32.2781  -27.0366   18.4573 O   0  0  0  0  0  0  0  0  0  0  0  0
  -32.9160  -22.3341   18.4773 O   0  0  0  0  0  0  0  0  0  0  0  0
  -32.1229  -13.5104   21.2501 O   0  0  0  0  0  0  0  0  0  0  0  0
  -21.7781   -6.9298   21.8325 O   0  0  0  0  0  0  0  0  0  0  0  0
  -30.0301  -21.6513   24.6057 O   0  0  0  0  0  0  0  0  0  1  0  0
  -31.2924  -19.1486   24.6869 O   0  0  0  0  0  0  0  0  0  0  0  0
  -23.9281   -3.4550   25.5347 F   0  0  0  0  0  0  0  0  0  0  0  0
  -20.3767   -6.2434   24.1144 F   0  0  0  0  0  0  0  0  0  0  0  0
  1  2  1  0  0  0  0
  1  5  2  0  0  0  0
  2  6  2  0  0  0  0
  3  8  2  0  0  0  0
  3 16  1  0  0  0  0
  4  9  1  0  0  0  0
  4 16  2  0  0  0  0
  5 18  1  0  0  0  0
  6 20  1  0  0  0  0
  7 10  2  0  0  0  0
  7 19  1  0  0  0  0
  8 23  1  0  0  0  0
  9 23  2  0  0  0  0
 10 24  1  0  0  0  0
 11 12  2  0  0  0  0
 11 25  1  0  0  0  0
 12 27  1  0  0  0  0
 13 21  1  0  0  0  0
 13 24  2  0  0  0  0
 14 22  2  0  0  0  0
 14 26  1  0  0  0  0
 15 27  2  0  0  0  0
 15 28  1  0  0  0  0
 16 29  1  0  0  0  0
 17 29  1  0  0  0  0
 17 32  2  0  0  0  0
 17 33  1  0  0  0  0
 18 20  2  0  0  0  0
 18 38  1  0  0  0  0
 19 21  2  0  0  0  0
 19 39  1  0  0  0  0
 20 49  1  0  0  0  0
 21 40  1  0  0  0  0
 22 31  1  0  0  0  0
 22 53  1  0  0  0  0
 23 81  1  0  0  0  0
 24 82  1  0  0  0  0
 25 28  2  0  0  0  0
 25 81  1  0  0  0  0
 26 30  2  0  0  0  0
 26 83  1  0  0  0  0
 27 84  1  0  0  0  0
 28 85  1  0  0  0  0
 29 65  2  0  0  0  0
 30 50  1  0  0  0  0
 30 66  1  0  0  0  0
 31 59  1  0  0  0  0
 31 66  2  0  0  0  0
 32 67  1  0  0  0  0
 32 70  1  0  0  0  0
 33 71  1  0  0  0  0
 33 76  2  0  0  0  0
 34 51  1  0  0  0  0
 34 72  1  0  0  0  0
 34 77  2  0  0  0  0
 35 62  1  0  0  0  0
 35 68  1  0  0  0  0
 35 78  2  0  0  0  0
 36 63  1  0  0  0  0
 36 73  1  0  0  0  0
 36 79  2  0  0  0  0
 37 69  1  0  0  0  0
 37 74  1  0  0  0  0
 37 80  2  0  0  0  0
 38 41  1  0  0  0  0
 39 51  1  0  0  0  0
 40 68  1  0  0  0  0
 41 43  1  0  0  0  0
 42 46  1  0  0  0  0
 42 47  1  0  0  0  0
 43 49  1  0  0  0  0
 44 45  1  0  0  0  0
 44 50  1  0  0  0  0
 45 50  1  0  0  0  0
 46 52  1  0  0  0  0
 47 69  1  0  0  0  0
 48 52  1  0  0  0  0
 48 69  1  0  0  0  0
 49 72  1  0  0  0  0
 51 68  1  0  0  0  0
 52 67  1  0  0  0  0
 54 63  1  0  0  0  0
 55 64  1  0  0  0  0
 56 64  1  0  0  0  0
 57 64  1  0  0  0  0
 58 75  1  0  0  0  0
 59 74  1  0  0  0  0
 60 61  1  0  0  0  0
 60 82  1  0  0  0  0
 61 83  1  0  0  0  0
 62 64  1  0  0  0  0
 62 73  1  0  0  0  0
 63 75  1  0  0  0  0
 65 67  1  0  0  0  0
M  CHG  1  75   1
M  ISO  4  37 100  60 101  74 100  82 101
M  END
> <Batch ID>
0139

> <Smiles>
CNC(C)C(=O)NC(C(=O)N1Cc2cc([101O:1][101CH2:1]COc3cc(C)c(C[100NH:0][100C:0](=O)N4CCCC(n5nc(-c6ccc(Oc7ccc(F)cc7F)cc6)c(C(N)=O)c5N)C4)nc3C3CC3)ccc2CC1C(=O)NC1CCCc2ccccc21)C(C)(C)C

> <Shape>
0.239

> <Color>
0.180

> <Negative vol penalty>
0.000

$$$$

  -OEChem-04052321103D

 84 92  0     1  0  0  0  0  0999 V2000
  -22.5413  -29.3935   22.4820 C   0  0  0  0  0  0  0  0  0  0  0  0
  -22.9768  -28.1799   23.0045 C   0  0  0  0  0  0  0  0  0  0  0  0
  -28.3756  -17.5500   19.1517 C   0  0  0  0  0  0  0  0  0  0  0  0
  -28.5754  -18.0415   21.5088 C   0  0  0  0  0  0  0  0  0  0  0  0
  -21.1960  -29.5708   22.1620 C   0  0  0  0  0  0  0  0  0  0  0  0
  -22.0667  -27.1432   23.2084 C   0  0  0  0  0  0  0  0  0  0  0  0
  -23.0848  -25.2701   18.7407 C   0  0  0  0  0  0  0  0  0  0  0  0
  -28.0162  -16.2371   19.4559 C   0  0  0  0  0  0  0  0  0  0  0  0
  -28.2159  -16.7285   21.8130 C   0  0  0  0  0  0  0  0  0  0  0  0
  -24.4188  -25.6449   18.5870 C   0  0  0  0  0  0  0  0  0  0  0  0
  -29.5689  -13.3799   20.3777 C   0  0  0  0  0  0  0  0  0  0  0  0
  -30.1716  -12.3574   19.6451 C   0  0  0  0  0  0  0  0  0  0  0  0
  -25.0648  -23.9935   20.2225 C   0  0  0  0  0  0  0  0  0  0  0  0
  -29.2084  -26.1824   17.1183 C   0  0  0  0  0  0  0  0  0  0  0  0
  -31.2306  -27.0667   18.1009 C   0  0  0  0  0  0  0  0  0  0  0  0
  -28.0010  -11.6336   18.8695 C   0  0  0  0  0  0  0  0  0  0  0  0
  -28.6553  -18.4522   20.1782 C   0  0  0  0  0  0  0  0  0  0  0  0
  -28.2649  -20.7569   19.1566 C   0  0  0  0  0  0  0  0  0  0  0  0
  -20.2707  -28.5325   22.3530 C   0  0  0  0  0  0  0  0  0  0  0  0
  -22.7289  -24.2600   19.6459 C   0  0  0  0  0  0  0  0  0  0  0  0
  -20.7074  -27.3072   22.8919 C   0  0  0  0  0  0  0  0  0  0  0  0
  -23.7258  -23.6060   20.3839 C   0  0  0  0  0  0  0  0  0  0  0  0
  -30.5865  -26.3912   17.0644 C   0  0  0  0  0  0  0  0  0  0  0  0
  -28.4744  -26.6492   18.2088 C   0  0  0  0  0  0  0  0  0  0  0  0
  -30.4967  -27.5334   19.1914 C   0  0  0  0  0  0  0  0  0  0  0  0
  -27.9363  -15.8263   20.7865 C   0  0  0  0  0  0  0  0  0  0  0  0
  -25.4088  -25.0086   19.3301 C   0  0  0  0  0  0  0  0  0  0  0  0
  -28.1822  -13.5292   20.3564 C   0  0  0  0  0  0  0  0  0  0  0  0
  -29.1186  -27.3246   19.2454 C   0  0  0  0  0  0  0  0  0  0  0  0
  -29.3877  -11.4843   18.8909 C   0  0  0  0  0  0  0  0  0  0  0  0
  -27.3982  -12.6561   19.6023 C   0  0  0  0  0  0  0  0  0  0  0  0
  -29.0272  -19.8085   19.8646 C   0  0  0  0  0  0  0  0  0  0  0  0
  -29.0551  -21.8800   19.1276 C   0  0  0  0  0  0  0  0  0  0  0  0
  -26.9593  -20.6338   18.5770 C   0  0  0  0  0  0  0  0  0  0  0  0
  -20.9258  -24.1239   22.2601 C   0  0  0  0  0  0  0  0  0  0  0  0
  -21.5359  -20.9453   22.0433 C   0  0  0  0  0  0  0  0  0  0  0  0
  -23.5792  -18.4581   20.9093 C   0  0  0  0  0  0  0  0  0  0  0  0
  -32.4609  -25.5011   21.6640 C   0  0  0  0  0  0  0  0  0  0  0  0
  -18.8182  -28.7871   22.0365 C   0  0  0  0  0  0  0  0  0  0  0  0
  -21.2883  -23.8490   19.7803 C   0  0  0  0  0  0  0  0  0  0  0  0
  -23.3984  -22.5015   21.3541 C   0  0  0  0  0  0  0  0  0  0  0  0
  -17.9850  -27.5123   21.9322 C   0  0  0  0  0  0  0  0  0  0  0  0
  -33.9158  -22.5186   20.3738 C   0  0  0  0  0  0  0  0  0  0  0  0
  -18.2836  -26.5821   23.1037 C   0  0  0  0  0  0  0  0  0  0  0  0
  -32.7115  -21.6242   20.0740 C   0  0  0  0  0  0  0  0  0  0  0  0
  -33.6980  -23.3552   21.6326 C   0  0  0  0  0  0  0  0  0  0  0  0
  -31.2529  -23.2579   21.3397 C   0  0  0  0  0  0  0  0  0  0  0  0
  -19.7551  -26.1505   23.1043 C   0  0  1  0  0  0  0  0  0  0  0  0
  -20.9846  -23.1613   21.1078 C   0  0  1  0  0  0  0  0  0  0  0  0
  -31.4027  -22.4363   20.0479 C   0  0  2  0  0  0  0  0  0  0  0  0
  -31.3712  -25.8927   15.8983 C   0  0  0  0  0  0  0  0  0  0  0  0
  -23.8375  -15.9620   20.9211 C   0  0  0  0  0  0  0  0  0  0  0  0
  -22.5088  -21.0622   24.9329 C   0  0  0  0  0  0  0  0  0  0  0  0
  -23.6092  -18.8414   24.5789 C   0  0  0  0  0  0  0  0  0  0  0  0
  -21.1317  -19.0501   24.3763 C   0  0  0  0  0  0  0  0  0  0  0  0
  -23.3989  -18.3092   17.9590 C   0  0  0  0  0  0  0  0  0  0  0  0
  -27.8694  -29.0996   20.2174 C   0  0  0  0  0  0  0  0  0  0  0  0
  -26.9930  -26.4146   18.2488 C   0  0  0  0  0  0  0  0  0  1  0  0
  -31.0862  -27.5674   21.6582 C   0  0  0  0  0  0  0  0  0  0  0  0
  -31.2042  -28.2540   20.2915 C   0  0  1  0  0  0  0  0  0  0  0  0
  -22.6094  -20.0243   22.5709 C   0  0  1  0  0  0  0  0  0  0  0  0
  -23.2786  -17.1637   20.1753 C   0  0  2  0  0  0  0  0  0  0  0  0
  -22.4711  -19.7666   24.0980 C   0  0  0  0  0  0  0  0  0  0  0  0
  -30.2108  -20.2872   20.2569 N   0  0  0  0  0  0  0  0  0  0  0  0
  -30.1983  -21.5487   19.7937 N   0  0  0  0  0  0  0  0  0  0  0  0
  -21.9748  -22.1399   21.4548 N   0  0  0  0  0  0  0  0  0  0  0  0
  -32.4408  -24.1018   21.5434 N   0  0  0  0  0  0  0  0  0  0  0  0
  -28.8768  -23.1086   18.5974 N   0  0  0  0  0  0  0  0  0  0  0  0
  -26.8560  -20.1937   17.2504 N   0  0  0  0  0  0  0  0  0  0  0  0
  -19.9801  -25.1205   22.1129 N   0  0  0  0  0  0  0  0  0  0  0  0
  -22.5498  -18.8174   21.7534 N   0  0  0  0  0  0  0  0  0  0  0  0
  -31.2269  -26.1316   21.5612 N   0  0  0  0  0  0  0  0  0  0  0  0
  -23.8780  -17.1906   18.8111 N   0  3  0  0  0  0  0  0  0  0  0  0
  -25.9161  -20.9218   19.2113 O   0  0  0  0  0  0  0  0  0  0  0  0
  -21.6815  -23.9726   23.2128 O   0  0  0  0  0  0  0  0  0  0  0  0
  -20.3520  -20.6137   22.1429 O   0  0  0  0  0  0  0  0  0  0  0  0
  -24.6242  -19.0856   20.7525 O   0  0  0  0  0  0  0  0  0  0  0  0
  -33.5022  -26.1417   21.8441 O   0  0  0  0  0  0  0  0  0  0  0  0
  -27.5853  -14.5453   21.0837 O   0  0  0  0  0  0  0  0  0  0  0  0
  -28.4009  -27.7803   20.3120 O   0  0  0  0  0  0  0  0  0  0  0  0
  -26.7116  -25.3729   19.1826 O   0  0  0  0  0  0  0  0  0  1  0  0
  -29.9668  -10.5034   18.1862 F   0  0  0  0  0  0  0  0  0  0  0  0
  -26.0656  -12.7952   19.5769 F   0  0  0  0  0  0  0  0  0  0  0  0
  -32.5428  -28.4459   20.0504 F   0  0  0  0  0  0  0  0  0  0  0  0
  1  2  1  0  0  0  0
  1  5  2  0  0  0  0
  2  6  2  0  0  0  0
  3  8  2  0  0  0  0
  3 17  1  0  0  0  0
  4  9  1  0  0  0  0
  4 17  2  0  0  0  0
  5 19  1  0  0  0  0
  6 21  1  0  0  0  0
  7 10  2  0  0  0  0
  7 20  1  0  0  0  0
  8 26  1  0  0  0  0
  9 26  2  0  0  0  0
 10 27  1  0  0  0  0
 11 12  2  0  0  0  0
 11 28  1  0  0  0  0
 12 30  1  0  0  0  0
 13 22  1  0  0  0  0
 13 27  2  0  0  0  0
 14 23  2  0  0  0  0
 14 24  1  0  0  0  0
 15 23  1  0  0  0  0
 15 25  2  0  0  0  0
 16 30  2  0  0  0  0
 16 31  1  0  0  0  0
 17 32  1  0  0  0  0
 18 32  1  0  0  0  0
 18 33  2  0  0  0  0
 18 34  1  0  0  0  0
 19 21  2  0  0  0  0
 19 39  1  0  0  0  0
 20 22  2  0  0  0  0
 20 40  1  0  0  0  0
 21 48  1  0  0  0  0
 22 41  1  0  0  0  0
 23 51  1  0  0  0  0
 24 29  2  0  0  0  0
 24 58  1  0  0  0  0
 25 29  1  0  0  0  0
 25 60  1  0  0  0  0
 26 79  1  0  0  0  0
 27 81  1  0  0  0  0
 28 31  2  0  0  0  0
 28 79  1  0  0  0  0
 29 80  1  0  0  0  0
 30 82  1  0  0  0  0
 31 83  1  0  0  0  0
 32 64  2  0  0  0  0
 33 65  1  0  0  0  0
 33 68  1  0  0  0  0
 34 69  1  0  0  0  0
 34 74  2  0  0  0  0
 35 49  1  0  0  0  0
 35 70  1  0  0  0  0
 35 75  2  0  0  0  0
 36 61  1  0  0  0  0
 36 66  1  0  0  0  0
 36 76  2  0  0  0  0
 37 62  1  0  0  0  0
 37 71  1  0  0  0  0
 37 77  2  0  0  0  0
 38 67  1  0  0  0  0
 38 72  1  0  0  0  0
 38 78  2  0  0  0  0
 39 42  1  0  0  0  0
 40 49  1  0  0  0  0
 41 66  1  0  0  0  0
 42 44  1  0  0  0  0
 43 45  1  0  0  0  0
 43 46  1  0  0  0  0
 44 48  1  0  0  0  0
 45 50  1  0  0  0  0
 46 67  1  0  0  0  0
 47 50  1  0  0  0  0
 47 67  1  0  0  0  0
 48 70  1  0  0  0  0
 49 66  1  0  0  0  0
 50 65  1  0  0  0  0
 52 62  1  0  0  0  0
 53 63  1  0  0  0  0
 54 63  1  0  0  0  0
 55 63  1  0  0  0  0
 56 73  1  0  0  0  0
 57 80  1  0  0  0  0
 58 81  1  0  0  0  0
 59 60  1  0  0  0  0
 59 72  1  0  0  0  0
 60 84  1  0  0  0  0
 61 63  1  0  0  0  0
 61 71  1  0  0  0  0
 62 73  1  0  0  0  0
 64 65  1  0  0  0  0
M  CHG  1  73   1
M  ISO  4  38 100  58 101  72 100  81 101
M  END
> <Batch ID>
0139

> <Smiles>
CNC(C)C(=O)NC(C(=O)N1Cc2cc([101O:1][101CH2:1]c3cc(C)cc(C(F)C[100NH:0][100C:0](=O)N4CCCC(n5nc(-c6ccc(Oc7ccc(F)cc7F)cc6)c(C(N)=O)c5N)C4)c3OC)ccc2CC1C(=O)NC1CCCc2ccccc21)C(C)(C)C

> <Shape>
0.214

> <Color>
0.068

> <Negative vol penalty>
0.000

$$$$

  -OEChem-04052321103D

 88 97  0     1  0  0  0  0  0999 V2000
  -28.4363  -29.4571   31.3288 C   0  0  0  0  0  0  0  0  0  0  0  0
  -28.9046  -28.2106   30.9260 C   0  0  0  0  0  0  0  0  0  0  0  0
  -31.4075  -19.9372   20.6483 C   0  0  0  0  0  0  0  0  0  0  0  0
  -23.1039   -9.8585   21.4088 C   0  0  0  0  0  0  0  0  0  0  0  0
  -23.8618  -10.6997   23.5430 C   0  0  0  0  0  0  0  0  0  0  0  0
  -27.2755  -29.5500   32.0956 C   0  0  0  0  0  0  0  0  0  0  0  0
  -28.2129  -27.0560   31.2907 C   0  0  0  0  0  0  0  0  0  0  0  0
  -31.8392  -19.0274   19.6831 C   0  0  0  0  0  0  0  0  0  0  0  0
  -27.6902  -23.8072   27.4414 C   0  0  0  0  0  0  0  0  0  0  0  0
  -30.5071  -19.5334   21.6341 C   0  0  0  0  0  0  0  0  0  0  0  0
  -22.3829   -8.8573   22.0594 C   0  0  0  0  0  0  0  0  0  0  0  0
  -23.1408   -9.6985   24.1937 C   0  0  0  0  0  0  0  0  0  0  0  0
  -28.7987  -23.0295   27.1096 C   0  0  0  0  0  0  0  0  0  0  0  0
  -23.0208   -5.8739   23.5142 C   0  0  0  0  0  0  0  0  0  0  0  0
  -23.1087   -4.5781   23.0055 C   0  0  0  0  0  0  0  0  0  0  0  0
  -27.8508  -21.1717   28.3216 C   0  0  0  0  0  0  0  0  0  0  0  0
  -20.7216   -4.5623   22.6332 C   0  0  0  0  0  0  0  0  0  0  0  0
  -23.8434  -10.7797   22.1506 C   0  0  0  0  0  0  0  0  0  0  0  0
  -24.1351  -13.1008   21.1331 C   0  0  0  0  0  0  0  0  0  0  0  0
  -26.5639  -28.3966   32.4616 C   0  0  0  0  0  0  0  0  0  0  0  0
  -26.6570  -23.2754   28.2264 C   0  0  0  0  0  0  0  0  0  0  0  0
  -27.0422  -27.1335   32.0641 C   0  0  0  0  0  0  0  0  0  0  0  0
  -31.3704  -17.7139   19.7037 C   0  0  0  0  0  0  0  0  0  0  0  0
  -26.7290  -21.9439   28.6599 C   0  0  0  0  0  0  0  0  0  0  0  0
  -30.0382  -18.2199   21.6548 C   0  0  0  0  0  0  0  0  0  0  0  0
  -30.4699  -17.3101   20.6896 C   0  0  0  0  0  0  0  0  0  0  0  0
  -22.4013   -8.7773   23.4518 C   0  0  0  0  0  0  0  0  0  0  0  0
  -28.8806  -21.7125   27.5521 C   0  0  0  0  0  0  0  0  0  0  0  0
  -21.7832   -6.5139   23.5825 C   0  0  0  0  0  0  0  0  0  0  0  0
  -21.9592   -3.9223   22.5650 C   0  0  0  0  0  0  0  0  0  0  0  0
  -20.6337   -5.8581   23.1419 C   0  0  0  0  0  0  0  0  0  0  0  0
  -24.5889  -11.8138   21.4790 C   0  0  0  0  0  0  0  0  0  0  0  0
  -25.2124  -13.6911   20.5188 C   0  0  0  0  0  0  0  0  0  0  0  0
  -22.8543  -13.7083   21.3480 C   0  0  0  0  0  0  0  0  0  0  0  0
  -25.4160  -23.9682   31.0695 C   0  0  0  0  0  0  0  0  0  0  0  0
  -23.2602  -21.6870   30.2504 C   0  0  0  0  0  0  0  0  0  0  0  0
  -22.5367  -18.9191   28.3896 C   0  0  0  0  0  0  0  0  0  0  0  0
  -30.6566  -14.8326   20.2728 C   0  0  0  0  0  0  0  0  0  0  0  0
  -25.3404  -28.5439   33.3311 C   0  0  0  0  0  0  0  0  0  0  0  0
  -25.4553  -24.1190   28.5533 C   0  0  0  0  0  0  0  0  0  0  0  0
  -25.6370  -21.3193   29.4881 C   0  0  0  0  0  0  0  0  0  0  0  0
  -24.4594  -27.2975   33.3591 C   0  0  0  0  0  0  0  0  0  0  0  0
  -29.5921  -11.7109   18.9317 C   0  0  0  0  0  0  0  0  0  0  0  0
  -31.6756  -17.1249   17.2070 C   0  0  0  0  0  0  0  0  0  0  0  0
  -30.8381  -16.0399   17.8083 C   0  0  0  0  0  0  0  0  0  0  0  0
  -25.3089  -26.0480   33.5685 C   0  0  0  0  0  0  0  0  0  0  0  0
  -28.1582  -11.5652   19.4464 C   0  0  0  0  0  0  0  0  0  0  0  0
  -30.5016  -12.3715   19.9661 C   0  0  0  0  0  0  0  0  0  0  0  0
  -28.5796  -13.5062   21.0092 C   0  0  0  0  0  0  0  0  0  0  0  0
  -31.8498  -16.7617   18.6569 C   0  0  0  0  0  0  0  0  0  0  0  0
  -26.3061  -25.8597   32.4188 C   0  0  1  0  0  0  0  0  0  0  0  0
  -24.7037  -23.6346   29.7893 C   0  0  1  0  0  0  0  0  0  0  0  0
  -27.6113  -12.9048   19.9775 C   0  0  2  0  0  0  0  0  0  0  0  0
  -30.3460  -16.2977   26.8153 C   0  0  0  0  0  0  0  0  0  0  0  0
  -20.7072  -17.2553   27.9631 C   0  0  0  0  0  0  0  0  0  0  0  0
  -23.8975  -20.3111   32.8981 C   0  0  0  0  0  0  0  0  0  0  0  0
  -22.8028  -18.2433   32.0071 C   0  0  0  0  0  0  0  0  0  0  0  0
  -21.4714  -20.3335   32.2916 C   0  0  0  0  0  0  0  0  0  0  0  0
  -22.3549  -19.6766   25.5344 C   0  0  0  0  0  0  0  0  0  0  0  0
  -29.0654  -17.8144   22.7331 C   0  0  0  0  0  0  0  0  0  0  0  0
  -31.3604  -16.8076   25.7998 C   0  0  0  0  0  0  0  0  0  0  0  0
  -29.6908  -16.9705   23.8547 C   0  0  0  0  0  0  0  0  0  0  0  0
  -31.2856  -19.9856   25.4703 C   0  0  0  0  0  0  0  0  0  0  0  0
  -30.6140  -21.2397   25.9940 C   0  0  0  0  0  0  0  0  0  1  0  0
  -23.1695  -20.1901   30.4240 C   0  0  1  0  0  0  0  0  0  0  0  0
  -21.3363  -18.5698   27.5285 C   0  0  2  0  0  0  0  0  0  0  0  0
  -30.7900  -17.6733   24.6663 C   0  0  1  0  0  0  0  0  0  0  0  0
  -22.8570  -19.7816   31.8912 C   0  0  0  0  0  0  0  0  0  0  0  0
  -25.8557  -11.5985   21.1145 N   0  0  0  0  0  0  0  0  0  0  0  0
  -26.2071  -12.7581   20.5332 N   0  0  0  0  0  0  0  0  0  0  0  0
  -24.4854  -22.1867   29.7868 N   0  0  0  0  0  0  0  0  0  0  0  0
  -29.9216  -13.6373   20.4204 N   0  0  0  0  0  0  0  0  0  0  0  0
  -25.3964  -14.9121   19.9731 N   0  0  0  0  0  0  0  0  0  0  0  0
  -21.8604  -12.9611   21.9947 N   0  0  0  0  0  0  0  0  0  0  0  0
  -29.9904  -15.9769   20.7104 N   0  0  0  0  0  0  0  0  0  0  0  0
  -25.6383  -25.3195   31.2541 N   0  0  0  0  0  0  0  0  0  0  0  0
  -22.1859  -19.7253   29.4519 N   0  0  0  0  0  0  0  0  0  0  0  0
  -21.7419  -18.4471   26.0997 N   0  3  0  0  0  0  0  0  0  0  0  0
  -30.2577  -18.9398   25.2377 N   0  3  0  0  0  0  0  0  0  0  0  0
  -22.5936  -14.8734   20.9630 O   0  0  0  0  0  0  0  0  0  0  0  0
  -25.7386  -23.0665   31.8341 O   0  0  0  0  0  0  0  0  0  0  0  0
  -22.2777  -22.3865   30.5094 O   0  0  0  0  0  0  0  0  0  0  0  0
  -23.6713  -18.5141   28.1466 O   0  0  0  0  0  0  0  0  0  0  0  0
  -31.7825  -14.8441   19.7685 O   0  0  0  0  0  0  0  0  0  0  0  0
  -21.6977   -7.8006   24.0871 O   0  0  0  0  0  0  0  0  0  0  0  0
  -29.9618  -20.9515   27.2301 O   0  0  0  0  0  0  0  0  0  1  0  0
  -22.0440   -2.6786   22.0750 F   0  0  0  0  0  0  0  0  0  0  0  0
  -19.4422   -6.4682   23.2039 F   0  0  0  0  0  0  0  0  0  0  0  0
  1  2  1  0  0  0  0
  1  6  2  0  0  0  0
  2  7  2  0  0  0  0
  3  8  1  0  0  0  0
  3 10  2  0  0  0  0
  4 11  2  0  0  0  0
  4 18  1  0  0  0  0
  5 12  1  0  0  0  0
  5 18  2  0  0  0  0
  6 20  1  0  0  0  0
  7 22  1  0  0  0  0
  8 23  2  0  0  0  0
  9 13  2  0  0  0  0
  9 21  1  0  0  0  0
 10 25  1  0  0  0  0
 11 27  1  0  0  0  0
 12 27  2  0  0  0  0
 13 28  1  0  0  0  0
 14 15  2  0  0  0  0
 14 29  1  0  0  0  0
 15 30  1  0  0  0  0
 16 24  1  0  0  0  0
 16 28  2  0  0  0  0
 17 30  2  0  0  0  0
 17 31  1  0  0  0  0
 18 32  1  0  0  0  0
 19 32  1  0  0  0  0
 19 33  2  0  0  0  0
 19 34  1  0  0  0  0
 20 22  2  0  0  0  0
 20 39  1  0  0  0  0
 21 24  2  0  0  0  0
 21 40  1  0  0  0  0
 22 51  1  0  0  0  0
 23 26  1  0  0  0  0
 23 50  1  0  0  0  0
 24 41  1  0  0  0  0
 25 26  2  0  0  0  0
 25 60  1  0  0  0  0
 26 75  1  0  0  0  0
 27 85  1  0  0  0  0
 28 86  1  0  0  0  0
 29 31  2  0  0  0  0
 29 85  1  0  0  0  0
 30 87  1  0  0  0  0
 31 88  1  0  0  0  0
 32 69  2  0  0  0  0
 33 70  1  0  0  0  0
 33 73  1  0  0  0  0
 34 74  1  0  0  0  0
 34 80  2  0  0  0  0
 35 52  1  0  0  0  0
 35 76  1  0  0  0  0
 35 81  2  0  0  0  0
 36 65  1  0  0  0  0
 36 71  1  0  0  0  0
 36 82  2  0  0  0  0
 37 66  1  0  0  0  0
 37 77  1  0  0  0  0
 37 83  2  0  0  0  0
 38 72  1  0  0  0  0
 38 75  1  0  0  0  0
 38 84  2  0  0  0  0
 39 42  1  0  0  0  0
 40 52  1  0  0  0  0
 41 71  1  0  0  0  0
 42 46  1  0  0  0  0
 43 47  1  0  0  0  0
 43 48  1  0  0  0  0
 44 45  1  0  0  0  0
 44 50  1  0  0  0  0
 45 50  1  0  0  0  0
 46 51  1  0  0  0  0
 47 53  1  0  0  0  0
 48 72  1  0  0  0  0
 49 53  1  0  0  0  0
 49 72  1  0  0  0  0
 51 76  1  0  0  0  0
 52 71  1  0  0  0  0
 53 70  1  0  0  0  0
 54 61  1  0  0  0  0
 55 66  1  0  0  0  0
 56 68  1  0  0  0  0
 57 68  1  0  0  0  0
 58 68  1  0  0  0  0
 59 78  1  0  0  0  0
 60 62  1  0  0  0  0
 61 67  1  0  0  0  0
 62 67  1  0  0  0  0
 63 64  1  0  0  0  0
 63 79  1  0  0  0  0
 64 86  1  0  0  0  0
 65 68  1  0  0  0  0
 65 77  1  0  0  0  0
 66 78  1  0  0  0  0
 67 79  1  0  0  0  0
 69 70  1  0  0  0  0
M  CHG  2  78   1  79   1
M  ISO  4  38 100  64 101  75 100  86 101
M  END
> <Batch ID>
0139

> <Smiles>
CCC(CCc1cccc(C2CC2)c1[100NH:0][100C:0](=O)N1CCCC(n2nc(-c3ccc(Oc4ccc(F)cc4F)cc3)c(C(N)=O)c2N)C1)NC[101CH2:1][101O:1]c1ccc2c(c1)CN(C(=O)C(NC(=O)C(C)NC)C(C)(C)C)C(C(=O)NC1CCCc3ccccc31)C2

> <Shape>
0.158

> <Color>
0.150

> <Negative vol penalty>
0.000

$$$$

  -OEChem-04052321103D

 88 97  0     1  0  0  0  0  0999 V2000
  -22.1234  -35.8798   25.6672 C   0  0  0  0  0  0  0  0  0  0  0  0
  -22.5756  -34.7181   26.2847 C   0  0  0  0  0  0  0  0  0  0  0  0
  -23.4933  -10.7661   23.1242 C   0  0  0  0  0  0  0  0  0  0  0  0
  -24.5212   -9.0289   21.7966 C   0  0  0  0  0  0  0  0  0  0  0  0
  -21.6997  -35.8425   24.3394 C   0  0  0  0  0  0  0  0  0  0  0  0
  -22.6033  -33.5181   25.5750 C   0  0  0  0  0  0  0  0  0  0  0  0
  -28.5570  -28.6452   24.2200 C   0  0  0  0  0  0  0  0  0  0  0  0
  -23.0146   -9.8037   24.0130 C   0  0  0  0  0  0  0  0  0  0  0  0
  -24.0425   -8.0664   22.6854 C   0  0  0  0  0  0  0  0  0  0  0  0
  -29.5653  -27.7871   23.7807 C   0  0  0  0  0  0  0  0  0  0  0  0
  -21.1203   -6.4838   23.3076 C   0  0  0  0  0  0  0  0  0  0  0  0
  -20.5366   -5.3374   22.7687 C   0  0  0  0  0  0  0  0  0  0  0  0
  -28.2540  -27.2292   21.8269 C   0  0  0  0  0  0  0  0  0  0  0  0
  -29.3261  -17.9068   22.1630 C   0  0  0  0  0  0  0  0  0  0  0  0
  -31.4371  -17.9745   20.9901 C   0  0  0  0  0  0  0  0  0  0  0  0
  -22.2012   -3.9736   23.8671 C   0  0  0  0  0  0  0  0  0  0  0  0
  -24.2466  -10.3788   22.0159 C   0  0  0  0  0  0  0  0  0  0  0  0
  -23.9800  -12.2818   20.3380 C   0  0  0  0  0  0  0  0  0  0  0  0
  -21.7314  -34.6434   23.6101 C   0  0  0  0  0  0  0  0  0  0  0  0
  -27.3985  -28.8105   23.4558 C   0  0  0  0  0  0  0  0  0  0  0  0
  -22.1784  -33.4644   24.2366 C   0  0  0  0  0  0  0  0  0  0  0  0
  -27.2460  -28.0968   22.2557 C   0  0  0  0  0  0  0  0  0  0  0  0
  -30.5450  -17.3136   21.8345 C   0  0  0  0  0  0  0  0  0  0  0  0
  -28.9992  -19.1609   21.6470 C   0  0  0  0  0  0  0  0  0  0  0  0
  -31.1103  -19.2286   20.4741 C   0  0  0  0  0  0  0  0  0  0  0  0
  -23.2892   -8.4538   23.7937 C   0  0  0  0  0  0  0  0  0  0  0  0
  -29.4141  -27.0807   22.5872 C   0  0  0  0  0  0  0  0  0  0  0  0
  -22.2446   -6.3753   24.1261 C   0  0  0  0  0  0  0  0  0  0  0  0
  -29.8913  -19.8217   20.8026 C   0  0  0  0  0  0  0  0  0  0  0  0
  -21.0770   -4.0822   23.0485 C   0  0  0  0  0  0  0  0  0  0  0  0
  -22.7850   -5.1201   24.4059 C   0  0  0  0  0  0  0  0  0  0  0  0
  -24.7409  -11.3725   21.0970 C   0  0  0  0  0  0  0  0  0  0  0  0
  -24.9113  -13.0035   19.6322 C   0  0  0  0  0  0  0  0  0  0  0  0
  -22.5585  -12.4582   20.2766 C   0  0  0  0  0  0  0  0  0  0  0  0
  -24.0719  -30.5061   23.0895 C   0  0  0  0  0  0  0  0  0  0  0  0
  -25.3522  -30.4443   20.3025 C   0  0  0  0  0  0  0  0  0  0  0  0
  -27.2829  -30.5503   17.4920 C   0  0  0  0  0  0  0  0  0  0  0  0
  -30.6847  -14.2606   20.6012 C   0  0  0  0  0  0  0  0  0  0  0  0
  -21.2189  -34.6427   22.1916 C   0  0  0  0  0  0  0  0  0  0  0  0
  -26.2600  -29.6771   23.9211 C   0  0  0  0  0  0  0  0  0  0  0  0
  -25.9679  -28.2796   21.4837 C   0  0  0  0  0  0  0  0  0  0  0  0
  -21.6324  -33.4078   21.3952 C   0  0  0  0  0  0  0  0  0  0  0  0
  -29.2963  -12.6345   17.7543 C   0  0  0  0  0  0  0  0  0  0  0  0
  -21.3999  -32.1420   22.2140 C   0  0  0  0  0  0  0  0  0  0  0  0
  -27.9028  -12.2087   18.2197 C   0  0  0  0  0  0  0  0  0  0  0  0
  -31.2662  -24.3447   20.9860 C   0  0  0  0  0  0  0  0  0  0  0  0
  -29.0566  -24.2464   22.2063 C   0  0  0  0  0  0  0  0  0  0  0  0
  -30.9190  -23.0548   20.2526 C   0  0  0  0  0  0  0  0  0  0  0  0
  -28.7090  -22.9571   21.4722 C   0  0  0  0  0  0  0  0  0  0  0  0
  -30.3257  -12.5192   18.8764 C   0  0  0  0  0  0  0  0  0  0  0  0
  -28.5732  -12.7985   20.5864 C   0  0  0  0  0  0  0  0  0  0  0  0
  -22.2468  -32.1486   23.4924 C   0  0  1  0  0  0  0  0  0  0  0  0
  -25.5325  -30.3889   22.7664 C   0  0  1  0  0  0  0  0  0  0  0  0
  -27.4898  -12.9507   19.5050 C   0  0  2  0  0  0  0  0  0  0  0  0
  -30.0123  -25.1174   21.3912 C   0  0  0  0  0  0  0  0  0  1  0  0
  -29.9628  -22.1841   21.0673 C   0  0  0  0  0  0  0  0  0  0  0  0
  -27.6895  -19.7797   22.0103 C   0  0  0  0  0  0  0  0  0  0  0  0
  -33.2401  -20.5447   20.3397 C   0  0  0  0  0  0  0  0  0  0  0  0
  -27.2415  -31.3123   15.1014 C   0  0  0  0  0  0  0  0  0  0  0  0
  -23.6021  -28.0545   19.5749 C   0  0  0  0  0  0  0  0  0  0  0  0
  -24.3702  -28.3036   17.2051 C   0  0  0  0  0  0  0  0  0  0  0  0
  -23.0945  -30.1459   18.3011 C   0  0  0  0  0  0  0  0  0  0  0  0
  -29.5448  -32.4093   17.9240 C   0  0  0  0  0  0  0  0  0  0  0  0
  -32.0785  -19.9206   19.5721 C   0  0  0  0  0  0  0  0  0  0  0  0
  -30.8944  -15.9727   22.3856 C   0  0  0  0  0  0  0  0  0  0  0  0
  -25.4891  -29.7164   18.9892 C   0  0  1  0  0  0  0  0  0  0  0  0
  -27.6030  -31.6815   16.5317 C   0  0  2  0  0  0  0  0  0  0  0  0
  -24.1578  -29.0515   18.5386 C   0  0  0  0  0  0  0  0  0  0  0  0
  -26.0544  -11.5025   20.8925 N   0  0  0  0  0  0  0  0  0  0  0  0
  -26.1261  -12.5020   19.9969 N   0  0  0  0  0  0  0  0  0  0  0  0
  -25.5911  -29.7017   21.4652 N   0  0  0  0  0  0  0  0  0  0  0  0
  -29.8745  -13.2458   20.0657 N   0  0  0  0  0  0  0  0  0  0  0  0
  -24.8015  -14.0119   18.7414 N   0  0  0  0  0  0  0  0  0  0  0  0
  -21.8341  -11.7219   19.3293 N   0  0  0  0  0  0  0  0  0  0  0  0
  -23.6206  -31.8083   23.1902 N   0  0  0  0  0  0  0  0  0  0  0  0
  -26.0245  -30.6856   18.0391 N   0  0  0  0  0  0  0  0  0  0  0  0
  -30.1797  -14.9034   21.7249 N   0  0  0  0  0  0  0  0  0  0  0  0
  -29.0567  -32.0063   16.5801 N   0  3  0  0  0  0  0  0  0  0  0  0
  -21.9507  -13.2578   21.0280 O   0  0  0  0  0  0  0  0  0  0  0  0
  -23.4020  -29.4904   23.2353 O   0  0  0  0  0  0  0  0  0  0  0  0
  -25.0366  -31.6375   20.3007 O   0  0  0  0  0  0  0  0  0  0  0  0
  -28.0689  -29.6359   17.7300 O   0  0  0  0  0  0  0  0  0  0  0  0
  -31.7747  -14.5744   20.1110 O   0  0  0  0  0  0  0  0  0  0  0  0
  -22.8225   -7.5144   24.6610 O   0  0  0  0  0  0  0  0  0  0  0  0
  -30.4043  -26.2481   22.1619 O   0  0  0  0  0  0  0  0  0  1  0  0
  -29.5705  -21.0534   20.2966 O   0  0  0  0  0  0  0  0  0  0  0  0
  -20.5154   -2.9812   22.5323 F   0  0  0  0  0  0  0  0  0  0  0  0
  -23.8642   -5.0094   25.1926 F   0  0  0  0  0  0  0  0  0  0  0  0
  1  2  1  0  0  0  0
  1  5  2  0  0  0  0
  2  6  2  0  0  0  0
  3  8  2  0  0  0  0
  3 17  1  0  0  0  0
  4  9  1  0  0  0  0
  4 17  2  0  0  0  0
  5 19  1  0  0  0  0
  6 21  1  0  0  0  0
  7 10  2  0  0  0  0
  7 20  1  0  0  0  0
  8 26  1  0  0  0  0
  9 26  2  0  0  0  0
 10 27  1  0  0  0  0
 11 12  2  0  0  0  0
 11 28  1  0  0  0  0
 12 30  1  0  0  0  0
 13 22  1  0  0  0  0
 13 27  2  0  0  0  0
 14 23  1  0  0  0  0
 14 24  2  0  0  0  0
 15 23  2  0  0  0  0
 15 25  1  0  0  0  0
 16 30  2  0  0  0  0
 16 31  1  0  0  0  0
 17 32  1  0  0  0  0
 18 32  1  0  0  0  0
 18 33  2  0  0  0  0
 18 34  1  0  0  0  0
 19 21  2  0  0  0  0
 19 39  1  0  0  0  0
 20 22  2  0  0  0  0
 20 40  1  0  0  0  0
 21 52  1  0  0  0  0
 22 41  1  0  0  0  0
 23 65  1  0  0  0  0
 24 29  1  0  0  0  0
 24 57  1  0  0  0  0
 25 29  2  0  0  0  0
 25 64  1  0  0  0  0
 26 84  1  0  0  0  0
 27 85  1  0  0  0  0
 28 31  2  0  0  0  0
 28 84  1  0  0  0  0
 29 86  1  0  0  0  0
 30 87  1  0  0  0  0
 31 88  1  0  0  0  0
 32 69  2  0  0  0  0
 33 70  1  0  0  0  0
 33 73  1  0  0  0  0
 34 74  1  0  0  0  0
 34 79  2  0  0  0  0
 35 53  1  0  0  0  0
 35 75  1  0  0  0  0
 35 80  2  0  0  0  0
 36 66  1  0  0  0  0
 36 71  1  0  0  0  0
 36 81  2  0  0  0  0
 37 67  1  0  0  0  0
 37 76  1  0  0  0  0
 37 82  2  0  0  0  0
 38 72  1  0  0  0  0
 38 77  1  0  0  0  0
 38 83  2  0  0  0  0
 39 42  1  0  0  0  0
 40 53  1  0  0  0  0
 41 71  1  0  0  0  0
 42 44  1  0  0  0  0
 43 45  1  0  0  0  0
 43 50  1  0  0  0  0
 44 52  1  0  0  0  0
 45 54  1  0  0  0  0
 46 48  1  0  0  0  0
 46 55  1  0  0  0  0
 47 49  1  0  0  0  0
 47 55  1  0  0  0  0
 48 56  1  0  0  0  0
 49 56  1  0  0  0  0
 50 72  1  0  0  0  0
 51 54  1  0  0  0  0
 51 72  1  0  0  0  0
 52 75  1  0  0  0  0
 53 71  1  0  0  0  0
 54 70  1  0  0  0  0
 55 85  1  0  0  0  0
 56 86  1  0  0  0  0
 58 64  1  0  0  0  0
 59 67  1  0  0  0  0
 60 68  1  0  0  0  0
 61 68  1  0  0  0  0
 62 68  1  0  0  0  0
 63 78  1  0  0  0  0
 65 77  1  0  0  0  0
 66 68  1  0  0  0  0
 66 76  1  0  0  0  0
 67 78  1  0  0  0  0
 69 70  1  0  0  0  0
M  CHG  1  78   1
M  ISO  4  38 100  55 101  77 100  85 101
M  END
> <Batch ID>
0139

> <Smiles>
CCc1cc(C[100NH:0][100C:0](=O)N2CCCC(n3nc(-c4ccc(Oc5ccc(F)cc5F)cc4)c(C(N)=O)c3N)C2)cc(C)c1OC1CC[101CH:1]([101O:1]c2ccc3c(c2)CN(C(=O)C(NC(=O)C(C)NC)C(C)(C)C)C(C(=O)NC2CCCc4ccccc42)C3)CC1

> <Shape>
0.276

> <Color>
0.113

> <Negative vol penalty>
0.000

$$$$

  -OEChem-04052321103D

 79 87  0     1  0  0  0  0  0999 V2000
  -27.4191  -23.5192   17.6919 C   0  0  0  0  0  0  0  0  0  0  0  0
  -26.2399  -23.9864   18.2634 C   0  0  0  0  0  0  0  0  0  0  0  0
  -26.1066  -15.8488   20.7907 C   0  0  0  0  0  0  0  0  0  0  0  0
  -23.9129  -15.1886   20.0233 C   0  0  0  0  0  0  0  0  0  0  0  0
  -28.6489  -23.8779   18.2421 C   0  0  0  0  0  0  0  0  0  0  0  0
  -26.2898  -24.8117   19.3862 C   0  0  0  0  0  0  0  0  0  0  0  0
  -23.1431  -28.7637   19.0339 C   0  0  0  0  0  0  0  0  0  0  0  0
  -26.4900  -14.5089   20.8474 C   0  0  0  0  0  0  0  0  0  0  0  0
  -24.2963  -13.8486   20.0800 C   0  0  0  0  0  0  0  0  0  0  0  0
  -21.7914  -28.5251   19.2783 C   0  0  0  0  0  0  0  0  0  0  0  0
  -26.0603  -11.8816   22.9301 C   0  0  0  0  0  0  0  0  0  0  0  0
  -26.7543  -11.4543   24.0620 C   0  0  0  0  0  0  0  0  0  0  0  0
  -22.0470  -29.3999   21.5119 C   0  0  0  0  0  0  0  0  0  0  0  0
  -28.6255  -10.8154   22.6735 C   0  0  0  0  0  0  0  0  0  0  0  0
  -24.8180  -16.1886   20.3787 C   0  0  0  0  0  0  0  0  0  0  0  0
  -24.5419  -18.4461   19.2230 C   0  0  0  0  0  0  0  0  0  0  0  0
  -28.7143  -24.7159   19.3664 C   0  0  0  0  0  0  0  0  0  0  0  0
  -23.9607  -29.3131   20.0320 C   0  0  0  0  0  0  0  0  0  0  0  0
  -27.5217  -25.1808   19.9528 C   0  0  0  0  0  0  0  0  0  0  0  0
  -23.4082  -29.6469   21.2767 C   0  0  0  0  0  0  0  0  0  0  0  0
  -25.5849  -13.5088   20.4921 C   0  0  0  0  0  0  0  0  0  0  0  0
  -21.2438  -28.8405   20.5184 C   0  0  0  0  0  0  0  0  0  0  0  0
  -26.6488  -11.7758   21.6698 C   0  0  0  0  0  0  0  0  0  0  0  0
  -28.0369  -10.9212   23.9337 C   0  0  0  0  0  0  0  0  0  0  0  0
  -27.9314  -11.2427   21.5416 C   0  0  0  0  0  0  0  0  0  0  0  0
  -24.4212  -17.5725   20.3204 C   0  0  0  0  0  0  0  0  0  0  0  0
  -24.0253  -19.6364   19.6732 C   0  0  0  0  0  0  0  0  0  0  0  0
  -25.0735  -18.2032   17.9138 C   0  0  0  0  0  0  0  0  0  0  0  0
  -26.5352  -28.3295   21.6158 C   0  0  0  0  0  0  0  0  0  0  0  0
  -26.4733  -31.3450   22.8097 C   0  0  0  0  0  0  0  0  0  0  0  0
  -24.6526  -34.1422   23.5222 C   0  0  0  0  0  0  0  0  0  0  0  0
  -20.0528  -20.8658   23.8641 C   0  0  0  0  0  0  0  0  0  0  0  0
  -30.0654  -25.0380   19.9542 C   0  0  0  0  0  0  0  0  0  0  0  0
  -25.4109  -29.5891   19.7435 C   0  0  0  0  0  0  0  0  0  0  0  0
  -24.2387  -30.2573   22.3749 C   0  0  0  0  0  0  0  0  0  0  0  0
  -30.0435  -26.2204   20.9194 C   0  0  0  0  0  0  0  0  0  0  0  0
  -23.4206  -22.1784   23.6832 C   0  0  0  0  0  0  0  0  0  0  0  0
  -28.8788  -26.0910   21.8959 C   0  0  0  0  0  0  0  0  0  0  0  0
  -24.0689  -21.2162   22.6861 C   0  0  0  0  0  0  0  0  0  0  0  0
  -18.0344  -27.8288   22.2497 C   0  0  0  0  0  0  0  0  0  0  0  0
  -19.9254  -26.9244   22.6538 C   0  0  0  0  0  0  0  0  0  0  0  0
  -22.4428  -21.4488   24.5996 C   0  0  0  0  0  0  0  0  0  0  0  0
  -22.0250  -19.7257   22.8879 C   0  0  0  0  0  0  0  0  0  0  0  0
  -27.5355  -26.0981   21.1564 C   0  0  1  0  0  0  0  0  0  0  0  0
  -26.2651  -29.6753   21.0047 C   0  0  1  0  0  0  0  0  0  0  0  0
  -23.0076  -20.4065   21.9178 C   0  0  2  0  0  0  0  0  0  0  0  0
  -18.5360  -26.8350   23.3173 C   0  0  0  0  0  0  0  0  0  0  0  0
  -19.4989  -28.3048   22.0986 C   0  0  0  0  0  0  0  0  0  1  0  0
  -24.8695  -36.4300   24.5303 C   0  0  0  0  0  0  0  0  0  0  0  0
  -26.5317  -30.1080   25.5983 C   0  0  0  0  0  0  0  0  0  0  0  0
  -25.7974  -32.3179   26.5180 C   0  0  0  0  0  0  0  0  0  0  0  0
  -27.9789  -32.1290   25.3230 C   0  0  0  0  0  0  0  0  0  0  0  0
  -23.8474  -35.4582   20.9966 C   0  0  0  0  0  0  0  0  0  0  0  0
  -17.6838  -23.1875   23.9943 C   0  0  0  0  0  0  0  0  0  0  0  0
  -18.1775  -22.0908   24.9317 C   0  0  0  0  0  0  0  0  0  0  0  0
  -18.4279  -24.5008   24.1998 C   0  0  0  0  0  0  0  0  0  0  0  0
  -25.8272  -32.0101   24.0010 C   0  0  1  0  0  0  0  0  0  0  0  0
  -24.9158  -35.6120   23.2490 C   0  0  2  0  0  0  0  0  0  0  0  0
  -26.5183  -31.6280   25.3402 C   0  0  0  0  0  0  0  0  0  0  0  0
  -23.8711  -18.1581   21.3875 N   0  0  0  0  0  0  0  0  0  0  0  0
  -23.6418  -19.4123   20.9627 N   0  0  0  0  0  0  0  0  0  0  0  0
  -25.6528  -30.5023   22.0465 N   0  0  0  0  0  0  0  0  0  0  0  0
  -21.4481  -20.7132   23.8062 N   0  0  0  0  0  0  0  0  0  0  0  0
  -23.8663  -20.8424   19.0879 N   0  0  0  0  0  0  0  0  0  0  0  0
  -25.5628  -16.9235   17.6182 N   0  0  0  0  0  0  0  0  0  0  0  0
  -27.1785  -27.4463   20.7699 N   0  0  0  0  0  0  0  0  0  0  0  0
  -25.8238  -33.4412   23.7174 N   0  0  0  0  0  0  0  0  0  0  0  0
  -19.5874  -21.8166   24.7641 N   0  0  0  0  0  0  0  0  0  0  0  0
  -17.9228  -25.5071   23.2153 N   0  3  0  0  0  0  0  0  0  0  0  0
  -23.8957  -36.1548   22.3078 N   0  3  0  0  0  0  0  0  0  0  0  0
  -25.1284  -19.0990   17.0375 O   0  0  0  0  0  0  0  0  0  0  0  0
  -26.1871  -28.1092   22.7700 O   0  0  0  0  0  0  0  0  0  0  0  0
  -27.6603  -31.5706   22.5612 O   0  0  0  0  0  0  0  0  0  0  0  0
  -23.5209  -33.6643   23.5623 O   0  0  0  0  0  0  0  0  0  0  0  0
  -19.2787  -20.2071   23.1613 O   0  0  0  0  0  0  0  0  0  0  0  0
  -25.9588  -12.2012   20.5471 O   0  0  0  0  0  0  0  0  0  0  0  0
  -19.9249  -28.6081   20.7599 O   0  0  0  0  0  0  0  0  0  1  0  0
  -28.7039  -10.5123   25.0210 F   0  0  0  0  0  0  0  0  0  0  0  0
  -28.5024  -11.1396   20.3336 F   0  0  0  0  0  0  0  0  0  0  0  0
  1  2  1  0  0  0  0
  1  5  2  0  0  0  0
  2  6  2  0  0  0  0
  3  8  2  0  0  0  0
  3 15  1  0  0  0  0
  4  9  1  0  0  0  0
  4 15  2  0  0  0  0
  5 17  1  0  0  0  0
  6 19  1  0  0  0  0
  7 10  2  0  0  0  0
  7 18  1  0  0  0  0
  8 21  1  0  0  0  0
  9 21  2  0  0  0  0
 10 22  1  0  0  0  0
 11 12  2  0  0  0  0
 11 23  1  0  0  0  0
 12 24  1  0  0  0  0
 13 20  1  0  0  0  0
 13 22  2  0  0  0  0
 14 24  2  0  0  0  0
 14 25  1  0  0  0  0
 15 26  1  0  0  0  0
 16 26  1  0  0  0  0
 16 27  2  0  0  0  0
 16 28  1  0  0  0  0
 17 19  2  0  0  0  0
 17 33  1  0  0  0  0
 18 20  2  0  0  0  0
 18 34  1  0  0  0  0
 19 44  1  0  0  0  0
 20 35  1  0  0  0  0
 21 76  1  0  0  0  0
 22 77  1  0  0  0  0
 23 25  2  0  0  0  0
 23 76  1  0  0  0  0
 24 78  1  0  0  0  0
 25 79  1  0  0  0  0
 26 60  2  0  0  0  0
 27 61  1  0  0  0  0
 27 64  1  0  0  0  0
 28 65  1  0  0  0  0
 28 71  2  0  0  0  0
 29 45  1  0  0  0  0
 29 66  1  0  0  0  0
 29 72  2  0  0  0  0
 30 57  1  0  0  0  0
 30 62  1  0  0  0  0
 30 73  2  0  0  0  0
 31 58  1  0  0  0  0
 31 67  1  0  0  0  0
 31 74  2  0  0  0  0
 32 63  1  0  0  0  0
 32 68  1  0  0  0  0
 32 75  2  0  0  0  0
 33 36  1  0  0  0  0
 34 45  1  0  0  0  0
 35 62  1  0  0  0  0
 36 38  1  0  0  0  0
 37 39  1  0  0  0  0
 37 42  1  0  0  0  0
 38 44  1  0  0  0  0
 39 46  1  0  0  0  0
 40 47  1  0  0  0  0
 40 48  1  0  0  0  0
 41 47  1  0  0  0  0
 41 48  1  0  0  0  0
 42 63  1  0  0  0  0
 43 46  1  0  0  0  0
 43 63  1  0  0  0  0
 44 66  1  0  0  0  0
 45 62  1  0  0  0  0
 46 61  1  0  0  0  0
 47 69  1  0  0  0  0
 48 77  1  0  0  0  0
 49 58  1  0  0  0  0
 50 59  1  0  0  0  0
 51 59  1  0  0  0  0
 52 59  1  0  0  0  0
 53 70  1  0  0  0  0
 54 55  1  0  0  0  0
 54 56  1  0  0  0  0
 55 68  1  0  0  0  0
 56 69  1  0  0  0  0
 57 59  1  0  0  0  0
 57 67  1  0  0  0  0
 58 70  1  0  0  0  0
 60 61  1  0  0  0  0
M  CHG  2  69   1  70   1
M  ISO  4  32 100  48 101  68 100  77 101
M  END
> <Batch ID>
0139

> <Smiles>
CNC(C)C(=O)NC(C(=O)N1Cc2cc([101O:1][101CH:1]3CC(NCCC[100NH:0][100C:0](=O)N4CCCC(n5nc(-c6ccc(Oc7ccc(F)cc7F)cc6)c(C(N)=O)c5N)C4)C3)ccc2CC1C(=O)NC1CCCc2ccccc21)C(C)(C)C

> <Shape>
0.237

> <Color>
0.079

> <Negative vol penalty>
0.000

$$$$

  -OEChem-04052321103D

 90100  0     1  0  0  0  0  0999 V2000
  -29.1433  -36.7283   19.7547 C   0  0  0  0  0  0  0  0  0  0  0  0
  -29.3646  -35.3580   19.6611 C   0  0  0  0  0  0  0  0  0  0  0  0
  -24.4803   -9.8416   22.2574 C   0  0  0  0  0  0  0  0  0  0  0  0
  -23.7744   -9.4637   19.9779 C   0  0  0  0  0  0  0  0  0  0  0  0
  -28.2296  -37.2239   20.6839 C   0  0  0  0  0  0  0  0  0  0  0  0
  -28.6730  -34.4825   20.4975 C   0  0  0  0  0  0  0  0  0  0  0  0
  -26.7144  -28.8467   19.1165 C   0  0  0  0  0  0  0  0  0  0  0  0
  -23.2562   -9.3559   22.7170 C   0  0  0  0  0  0  0  0  0  0  0  0
  -22.5503   -8.9780   20.4375 C   0  0  0  0  0  0  0  0  0  0  0  0
  -27.2410  -27.5816   19.3731 C   0  0  0  0  0  0  0  0  0  0  0  0
  -21.7915   -6.3461   23.1947 C   0  0  0  0  0  0  0  0  0  0  0  0
  -21.8099   -5.4481   24.2619 C   0  0  0  0  0  0  0  0  0  0  0  0
  -27.7713  -22.7311   20.2913 C   0  0  0  0  0  0  0  0  0  0  0  0
  -25.8319  -27.3968   21.3222 C   0  0  0  0  0  0  0  0  0  0  0  0
  -30.0476  -23.4974   20.5521 C   0  0  0  0  0  0  0  0  0  0  0  0
  -20.4745   -6.9774   25.5716 C   0  0  0  0  0  0  0  0  0  0  0  0
  -24.7394   -9.8956   20.8878 C   0  0  0  0  0  0  0  0  0  0  0  0
  -27.1762   -9.6571   20.1717 C   0  0  0  0  0  0  0  0  0  0  0  0
  -27.5193  -36.3534   21.5255 C   0  0  0  0  0  0  0  0  0  0  0  0
  -25.7488  -29.4019   19.9685 C   0  0  0  0  0  0  0  0  0  0  0  0
  -27.7499  -34.9670   21.4398 C   0  0  0  0  0  0  0  0  0  0  0  0
  -28.1597  -21.4470   20.6733 C   0  0  0  0  0  0  0  0  0  0  0  0
  -25.2927  -28.6681   21.0729 C   0  0  0  0  0  0  0  0  0  0  0  0
  -28.7152  -23.7563   20.2307 C   0  0  0  0  0  0  0  0  0  0  0  0
  -30.4361  -22.2134   20.9341 C   0  0  0  0  0  0  0  0  0  0  0  0
  -22.2912   -8.9241   21.8071 C   0  0  0  0  0  0  0  0  0  0  0  0
  -26.8019  -26.8576   20.4777 C   0  0  0  0  0  0  0  0  0  0  0  0
  -21.1147   -7.5597   23.3160 C   0  0  0  0  0  0  0  0  0  0  0  0
  -29.4922  -21.1882   20.9947 C   0  0  0  0  0  0  0  0  0  0  0  0
  -21.1514   -5.7637   25.4504 C   0  0  0  0  0  0  0  0  0  0  0  0
  -20.4562   -7.8754   24.5044 C   0  0  0  0  0  0  0  0  0  0  0  0
  -26.0035  -10.3978   20.4123 C   0  0  0  0  0  0  0  0  0  0  0  0
  -28.0866  -10.5880   19.7346 C   0  0  0  0  0  0  0  0  0  0  0  0
  -27.4207   -8.2532   20.3293 C   0  0  0  0  0  0  0  0  0  0  0  0
  -25.6100  -31.9793   21.8236 C   0  0  0  0  0  0  0  0  0  0  0  0
  -22.5279  -31.0488   22.2205 C   0  0  0  0  0  0  0  0  0  0  0  0
  -20.2323  -28.5244   22.1546 C   0  0  0  0  0  0  0  0  0  0  0  0
  -30.5710  -15.3475   20.0354 C   0  0  0  0  0  0  0  0  0  0  0  0
  -26.5767  -36.9392   22.5468 C   0  0  0  0  0  0  0  0  0  0  0  0
  -25.1712  -30.7567   19.6629 C   0  0  0  0  0  0  0  0  0  0  0  0
  -24.2431  -29.2108   22.0068 C   0  0  0  0  0  0  0  0  0  0  0  0
  -25.6086  -35.9179   23.1385 C   0  0  0  0  0  0  0  0  0  0  0  0
  -33.1671  -18.0951   21.3264 C   0  0  0  0  0  0  0  0  0  0  0  0
  -33.4538  -17.0565   20.2435 C   0  0  0  0  0  0  0  0  0  0  0  0
  -27.4792  -15.4059   18.3498 C   0  0  0  0  0  0  0  0  0  0  0  0
  -25.9066  -20.5642   21.5776 C   0  0  0  0  0  0  0  0  0  0  0  0
  -26.9585  -19.5929   22.0140 C   0  0  0  0  0  0  0  0  0  0  0  0
  -26.3510  -34.6454   23.5339 C   0  0  0  0  0  0  0  0  0  0  0  0
  -26.9040  -14.0401   18.7221 C   0  0  0  0  0  0  0  0  0  0  0  0
  -31.8123  -17.8535   21.9953 C   0  0  0  0  0  0  0  0  0  0  0  0
  -28.1959  -16.0674   19.5281 C   0  0  0  0  0  0  0  0  0  0  0  0
  -32.2907  -16.9361   19.2631 C   0  0  0  0  0  0  0  0  0  0  0  0
  -28.6587  -13.8520   20.5245 C   0  0  0  0  0  0  0  0  0  0  0  0
  -27.1358  -20.3624   20.7322 C   0  0  0  0  0  0  0  0  0  0  0  0
  -27.0007  -33.9837   22.3127 C   0  0  1  0  0  0  0  0  0  0  0  0
  -24.5672  -31.4385   20.8867 C   0  0  1  0  0  0  0  0  0  0  0  0
  -27.9851  -13.1379   19.3426 C   0  0  1  0  0  0  0  0  0  0  0  0
  -30.6608  -17.7014   20.9815 C   0  0  1  0  0  0  0  0  0  0  0  0
  -32.0975  -21.8651   22.7794 C   0  0  0  0  0  0  0  0  0  0  0  0
  -17.7996  -28.0629   22.5625 C   0  0  0  0  0  0  0  0  0  0  0  0
  -23.0155  -31.1525   25.2308 C   0  0  0  0  0  0  0  0  0  0  0  0
  -20.9304  -29.8026   25.5446 C   0  0  0  0  0  0  0  0  0  0  0  0
  -20.8044  -32.0644   24.5001 C   0  0  0  0  0  0  0  0  0  0  0  0
  -19.8086  -27.6567   19.3570 C   0  0  0  0  0  0  0  0  0  0  0  0
  -31.8673  -21.9558   21.2739 C   0  0  0  0  0  0  0  0  0  0  0  0
  -28.2994  -25.1296   19.8239 C   0  0  0  0  0  0  0  0  0  1  0  0
  -30.2911  -19.0446   20.3446 C   0  0  0  0  0  0  0  0  0  0  0  0
  -21.7996  -30.1466   23.1873 C   0  0  1  0  0  0  0  0  0  0  0  0
  -18.8520  -28.4342   21.5293 C   0  0  2  0  0  0  0  0  0  0  0  0
  -21.6587  -30.7818   24.5994 C   0  0  0  0  0  0  0  0  0  0  0  0
  -26.1524  -11.6989   20.1500 N   0  0  0  0  0  0  0  0  0  0  0  0
  -27.4295  -11.7832   19.7400 N   0  0  0  0  0  0  0  0  0  0  0  0
  -23.7135  -30.5424   21.6693 N   0  0  0  0  0  0  0  0  0  0  0  0
  -29.1843  -15.1572   20.1177 N   0  0  0  0  0  0  0  0  0  0  0  0
  -31.0355  -16.6782   19.9758 N   0  0  0  0  0  0  0  0  0  0  0  0
  -29.3771  -10.4927   19.3500 N   0  0  0  0  0  0  0  0  0  0  0  0
  -26.3755   -7.4403   20.7885 N   0  0  0  0  0  0  0  0  0  0  0  0
  -26.0088  -33.2708   21.5365 N   0  0  0  0  0  0  0  0  0  0  0  0
  -20.5292  -29.8104   22.5538 N   0  0  0  0  0  0  0  0  0  0  0  0
  -18.8374  -27.4042   20.4524 N   0  3  0  0  0  0  0  0  0  0  0  0
  -28.5381   -7.7375   20.0860 O   0  0  0  0  0  0  0  0  0  0  0  0
  -26.0212  -31.2774   22.7401 O   0  0  0  0  0  0  0  0  0  0  0  0
  -22.0584  -32.1590   21.9585 O   0  0  0  0  0  0  0  0  0  0  0  0
  -20.9717  -27.5507   22.2799 O   0  0  0  0  0  0  0  0  0  0  0  0
  -31.3520  -14.3872   20.0281 O   0  0  0  0  0  0  0  0  0  0  0  0
  -21.0967   -8.4498   22.2553 O   0  0  0  0  0  0  0  0  0  0  0  0
  -27.3183  -25.6143   20.7325 O   0  0  0  0  0  0  0  0  0  1  0  0
  -29.8765  -19.9240   21.3713 O   0  0  0  0  0  0  0  0  0  0  0  0
  -21.1678   -4.9007   26.4746 F   0  0  0  0  0  0  0  0  0  0  0  0
  -19.8033   -9.0393   24.6264 F   0  0  0  0  0  0  0  0  0  0  0  0
  1  2  1  0  0  0  0
  1  5  2  0  0  0  0
  2  6  2  0  0  0  0
  3  8  2  0  0  0  0
  3 17  1  0  0  0  0
  4  9  1  0  0  0  0
  4 17  2  0  0  0  0
  5 19  1  0  0  0  0
  6 21  1  0  0  0  0
  7 10  2  0  0  0  0
  7 20  1  0  0  0  0
  8 26  1  0  0  0  0
  9 26  2  0  0  0  0
 10 27  1  0  0  0  0
 11 12  2  0  0  0  0
 11 28  1  0  0  0  0
 12 30  1  0  0  0  0
 13 22  2  0  0  0  0
 13 24  1  0  0  0  0
 14 23  1  0  0  0  0
 14 27  2  0  0  0  0
 15 24  2  0  0  0  0
 15 25  1  0  0  0  0
 16 30  2  0  0  0  0
 16 31  1  0  0  0  0
 17 32  1  0  0  0  0
 18 32  1  0  0  0  0
 18 33  2  0  0  0  0
 18 34  1  0  0  0  0
 19 21  2  0  0  0  0
 19 39  1  0  0  0  0
 20 23  2  0  0  0  0
 20 40  1  0  0  0  0
 21 55  1  0  0  0  0
 22 29  1  0  0  0  0
 22 54  1  0  0  0  0
 23 41  1  0  0  0  0
 24 66  1  0  0  0  0
 25 29  2  0  0  0  0
 25 65  1  0  0  0  0
 26 86  1  0  0  0  0
 27 87  1  0  0  0  0
 28 31  2  0  0  0  0
 28 86  1  0  0  0  0
 29 88  1  0  0  0  0
 30 89  1  0  0  0  0
 31 90  1  0  0  0  0
 32 71  2  0  0  0  0
 33 72  1  0  0  0  0
 33 76  1  0  0  0  0
 34 77  1  0  0  0  0
 34 81  2  0  0  0  0
 35 56  1  0  0  0  0
 35 78  1  0  0  0  0
 35 82  2  0  0  0  0
 36 68  1  0  0  0  0
 36 73  1  0  0  0  0
 36 83  2  0  0  0  0
 37 69  1  0  0  0  0
 37 79  1  0  0  0  0
 37 84  2  0  0  0  0
 38 74  1  0  0  0  0
 38 75  1  0  0  0  0
 38 85  2  0  0  0  0
 39 42  1  0  0  0  0
 40 56  1  0  0  0  0
 41 73  1  0  0  0  0
 42 48  1  0  0  0  0
 43 44  1  0  0  0  0
 43 50  1  0  0  0  0
 44 52  1  0  0  0  0
 45 49  1  0  0  0  0
 45 51  1  0  0  0  0
 46 47  1  0  0  0  0
 46 54  1  0  0  0  0
 47 54  1  0  0  0  0
 48 55  1  0  0  0  0
 49 57  1  0  0  0  0
 50 58  1  0  0  0  0
 51 74  1  0  0  0  0
 52 75  1  0  0  0  0
 53 57  1  0  0  0  0
 53 74  1  0  0  0  0
 55 78  1  0  0  0  0
 56 73  1  0  0  0  0
 57 72  1  0  0  0  0
 58 67  1  0  0  0  0
 58 75  1  0  0  0  0
 59 65  1  0  0  0  0
 60 69  1  0  0  0  0
 61 70  1  0  0  0  0
 62 70  1  0  0  0  0
 63 70  1  0  0  0  0
 64 80  1  0  0  0  0
 66 87  1  0  0  0  0
 67 88  1  0  0  0  0
 68 70  1  0  0  0  0
 68 79  1  0  0  0  0
 69 80  1  0  0  0  0
 71 72  1  0  0  0  0
M  CHG  1  80   1
M  ISO  4  38 100  66 101  75 100  87 101
M  END
> <Batch ID>
0139

> <Smiles>
CCc1cc([101CH2:1][101O:1]c2ccc3c(c2)CN(C(=O)C(NC(=O)C(C)NC)C(C)(C)C)C(C(=O)NC2CCCc4ccccc42)C3)cc(C2CC2)c1OCC1CCCC[100N:0]1[100C:0](=O)N1CCCC(n2nc(-c3ccc(Oc4ccc(F)cc4F)cc3)c(C(N)=O)c2N)C1

> <Shape>
0.303

> <Color>
0.095

> <Negative vol penalty>
0.000

$$$$

  -OEChem-04052321103D

 86 95  0     1  0  0  0  0  0999 V2000
  -16.9112  -30.3274   24.4137 C   0  0  0  0  0  0  0  0  0  0  0  0
  -18.1352  -30.1933   25.0613 C   0  0  0  0  0  0  0  0  0  0  0  0
  -24.2548  -10.5119   23.4523 C   0  0  0  0  0  0  0  0  0  0  0  0
  -23.0765   -9.6627   21.5216 C   0  0  0  0  0  0  0  0  0  0  0  0
  -16.7574  -29.8537   23.1114 C   0  0  0  0  0  0  0  0  0  0  0  0
  -19.2057  -29.5844   24.4074 C   0  0  0  0  0  0  0  0  0  0  0  0
  -26.3502  -29.8459   23.9553 C   0  0  0  0  0  0  0  0  0  0  0  0
  -23.5891   -9.5926   24.2630 C   0  0  0  0  0  0  0  0  0  0  0  0
  -22.4108   -8.7434   22.3323 C   0  0  0  0  0  0  0  0  0  0  0  0
  -27.4660  -29.0146   24.0420 C   0  0  0  0  0  0  0  0  0  0  0  0
  -23.0787   -5.7689   23.7906 C   0  0  0  0  0  0  0  0  0  0  0  0
  -22.9835   -4.4543   23.3342 C   0  0  0  0  0  0  0  0  0  0  0  0
  -27.1070  -28.3053   21.7645 C   0  0  0  0  0  0  0  0  0  0  0  0
  -20.5732   -4.6134   23.3789 C   0  0  0  0  0  0  0  0  0  0  0  0
  -30.6809  -22.7529   23.4228 C   0  0  0  0  0  0  0  0  0  0  0  0
  -23.9985  -10.5470   22.0816 C   0  0  0  0  0  0  0  0  0  0  0  0
  -25.9114  -11.3114   20.5768 C   0  0  0  0  0  0  0  0  0  0  0  0
  -17.8293  -29.2474   22.4377 C   0  0  0  0  0  0  0  0  0  0  0  0
  -25.5967  -29.9051   22.7741 C   0  0  0  0  0  0  0  0  0  0  0  0
  -19.0656  -29.1010   23.0954 C   0  0  0  0  0  0  0  0  0  0  0  0
  -25.9835  -29.1401   21.6645 C   0  0  0  0  0  0  0  0  0  0  0  0
  -28.6881  -22.3841   22.4416 C   0  0  0  0  0  0  0  0  0  0  0  0
  -29.4721  -23.3438   23.1283 C   0  0  0  0  0  0  0  0  0  0  0  0
  -22.6670   -8.7083   23.7030 C   0  0  0  0  0  0  0  0  0  0  0  0
  -27.8429  -28.2419   22.9474 C   0  0  0  0  0  0  0  0  0  0  0  0
  -21.9212   -6.5057   24.0413 C   0  0  0  0  0  0  0  0  0  0  0  0
  -21.7308   -3.8766   23.1283 C   0  0  0  0  0  0  0  0  0  0  0  0
  -20.6684   -5.9280   23.8354 C   0  0  0  0  0  0  0  0  0  0  0  0
  -24.6855  -11.4968   21.2437 C   0  0  0  0  0  0  0  0  0  0  0  0
  -29.4417  -21.2358   22.3377 C   0  0  0  0  0  0  0  0  0  0  0  0
  -26.1285  -12.4986   19.9211 C   0  0  0  0  0  0  0  0  0  0  0  0
  -26.7765  -10.1683   20.5522 C   0  0  0  0  0  0  0  0  0  0  0  0
  -22.5907  -29.2269   21.9947 C   0  0  0  0  0  0  0  0  0  0  0  0
  -23.4539  -30.5017   19.1396 C   0  0  0  0  0  0  0  0  0  0  0  0
  -25.9521  -31.2587   16.9413 C   0  0  0  0  0  0  0  0  0  0  0  0
  -26.1288  -17.9705   19.6441 C   0  0  0  0  0  0  0  0  0  0  0  0
  -17.6015  -28.7083   21.0477 C   0  0  0  0  0  0  0  0  0  0  0  0
  -24.4114  -30.8270   22.6879 C   0  0  0  0  0  0  0  0  0  0  0  0
  -25.2202  -29.1828   20.3668 C   0  0  0  0  0  0  0  0  0  0  0  0
  -18.8931  -28.4123   20.2899 C   0  0  0  0  0  0  0  0  0  0  0  0
  -23.0718  -16.4411   19.1306 C   0  0  0  0  0  0  0  0  0  0  0  0
  -19.8685  -27.6449   21.1768 C   0  0  0  0  0  0  0  0  0  0  0  0
  -23.3080  -14.9982   19.5761 C   0  0  0  0  0  0  0  0  0  0  0  0
  -27.9173  -19.2124   22.3968 C   0  0  0  0  0  0  0  0  0  0  0  0
  -28.8523  -20.0270   20.1896 C   0  0  0  0  0  0  0  0  0  0  0  0
  -23.7532  -17.4228   20.0768 C   0  0  0  0  0  0  0  0  0  0  0  0
  -27.5643  -17.8796   21.7302 C   0  0  0  0  0  0  0  0  0  0  0  0
  -28.5026  -18.6707   19.5840 C   0  0  0  0  0  0  0  0  0  0  0  0
  -25.4731  -15.7504   20.6793 C   0  0  0  0  0  0  0  0  0  0  0  0
  -20.2576  -28.4685   22.4103 C   0  0  1  0  0  0  0  0  0  0  0  0
  -29.1070  -19.8994   21.7025 C   0  0  0  0  0  0  0  0  0  0  0  0
  -23.4159  -30.4207   21.6056 C   0  0  1  0  0  0  0  0  0  0  0  0
  -24.8100  -14.7124   19.7513 C   0  0  1  0  0  0  0  0  0  0  0  0
  -27.3157  -22.5744   21.9266 C   0  0  0  0  0  0  0  0  0  0  0  0
  -26.3449  -32.2624   14.6751 C   0  0  0  0  0  0  0  0  0  0  0  0
  -22.4481  -27.9353   17.8312 C   0  0  0  0  0  0  0  0  0  0  0  0
  -23.7062  -28.5784   15.7644 C   0  0  0  0  0  0  0  0  0  0  0  0
  -21.8605  -30.0325   16.6020 C   0  0  0  0  0  0  0  0  0  0  0  0
  -31.7397  -20.5260   23.0526 C   0  0  0  0  0  0  0  0  0  0  0  0
  -27.6224  -33.4287   18.0639 C   0  0  0  0  0  0  0  0  0  0  0  0
  -29.9675  -25.5648   24.1518 C   0  0  0  0  0  0  0  0  0  0  0  0
  -29.2470  -26.8929   24.3129 C   0  0  0  0  0  0  0  0  0  1  0  0
  -24.0504  -29.9595   17.8632 C   0  0  1  0  0  0  0  0  0  0  0  0
  -26.2650  -32.5284   16.1703 C   0  0  2  0  0  0  0  0  0  0  0  0
  -23.0297  -29.1239   17.0401 C   0  0  0  0  0  0  0  0  0  0  0  0
  -24.1608  -12.7065   21.0312 N   0  0  0  0  0  0  0  0  0  0  0  0
  -30.6510  -21.4714   22.9378 N   0  0  0  0  0  0  0  0  0  0  0  0
  -25.0613  -13.2921   20.2236 N   0  0  0  0  0  0  0  0  0  0  0  0
  -24.0650  -30.0950   20.3341 N   0  0  0  0  0  0  0  0  0  0  0  0
  -25.1763  -17.1160   20.2194 N   0  0  0  0  0  0  0  0  0  0  0  0
  -27.3745  -18.0567   20.2838 N   0  0  0  0  0  0  0  0  0  0  0  0
  -27.1264  -12.9307   19.1211 N   0  0  0  0  0  0  0  0  0  0  0  0
  -26.4023   -9.0314   21.2815 N   0  0  0  0  0  0  0  0  0  0  0  0
  -29.1171  -24.6080   23.4415 N   0  0  0  0  0  0  0  0  0  0  0  0
  -21.2332  -29.4775   22.0572 N   0  0  0  0  0  0  0  0  0  0  0  0
  -24.5973  -31.1076   17.1483 N   0  0  0  0  0  0  0  0  0  0  0  0
  -27.5679  -33.0977   16.6167 N   0  3  0  0  0  0  0  0  0  0  0  0
  -27.8575  -10.1612   19.9160 O   0  0  0  0  0  0  0  0  0  0  0  0
  -23.1444  -28.1572   22.2201 O   0  0  0  0  0  0  0  0  0  0  0  0
  -22.4859  -31.2639   19.0786 O   0  0  0  0  0  0  0  0  0  0  0  0
  -26.8223  -30.4771   17.3187 O   0  0  0  0  0  0  0  0  0  0  0  0
  -25.8819  -18.6180   18.6190 O   0  0  0  0  0  0  0  0  0  0  0  0
  -22.0174   -7.8110   24.4937 O   0  0  0  0  0  0  0  0  0  0  0  0
  -28.9389  -27.4235   23.0302 O   0  0  0  0  0  0  0  0  0  1  0  0
  -21.6395   -2.6147   22.6884 F   0  0  0  0  0  0  0  0  0  0  0  0
  -19.5528   -6.6313   24.0733 F   0  0  0  0  0  0  0  0  0  0  0  0
  1  2  1  0  0  0  0
  1  5  2  0  0  0  0
  2  6  2  0  0  0  0
  3  8  2  0  0  0  0
  3 16  1  0  0  0  0
  4  9  1  0  0  0  0
  4 16  2  0  0  0  0
  5 18  1  0  0  0  0
  6 20  1  0  0  0  0
  7 10  2  0  0  0  0
  7 19  1  0  0  0  0
  8 24  1  0  0  0  0
  9 24  2  0  0  0  0
 10 25  1  0  0  0  0
 11 12  2  0  0  0  0
 11 26  1  0  0  0  0
 12 27  1  0  0  0  0
 13 21  1  0  0  0  0
 13 25  2  0  0  0  0
 14 27  2  0  0  0  0
 14 28  1  0  0  0  0
 15 23  2  0  0  0  0
 15 67  1  0  0  0  0
 16 29  1  0  0  0  0
 17 29  1  0  0  0  0
 17 31  2  0  0  0  0
 17 32  1  0  0  0  0
 18 20  2  0  0  0  0
 18 37  1  0  0  0  0
 19 21  2  0  0  0  0
 19 38  1  0  0  0  0
 20 50  1  0  0  0  0
 21 39  1  0  0  0  0
 22 23  1  0  0  0  0
 22 30  2  0  0  0  0
 22 54  1  0  0  0  0
 23 74  1  0  0  0  0
 24 83  1  0  0  0  0
 25 84  1  0  0  0  0
 26 28  2  0  0  0  0
 26 83  1  0  0  0  0
 27 85  1  0  0  0  0
 28 86  1  0  0  0  0
 29 66  2  0  0  0  0
 30 51  1  0  0  0  0
 30 67  1  0  0  0  0
 31 68  1  0  0  0  0
 31 72  1  0  0  0  0
 32 73  1  0  0  0  0
 32 78  2  0  0  0  0
 33 52  1  0  0  0  0
 33 75  1  0  0  0  0
 33 79  2  0  0  0  0
 34 63  1  0  0  0  0
 34 69  1  0  0  0  0
 34 80  2  0  0  0  0
 35 64  1  0  0  0  0
 35 76  1  0  0  0  0
 35 81  2  0  0  0  0
 36 70  1  0  0  0  0
 36 71  1  0  0  0  0
 36 82  2  0  0  0  0
 37 40  1  0  0  0  0
 38 52  1  0  0  0  0
 39 69  1  0  0  0  0
 40 42  1  0  0  0  0
 41 43  1  0  0  0  0
 41 46  1  0  0  0  0
 42 50  1  0  0  0  0
 43 53  1  0  0  0  0
 44 47  1  0  0  0  0
 44 51  1  0  0  0  0
 45 48  1  0  0  0  0
 45 51  1  0  0  0  0
 46 70  1  0  0  0  0
 47 71  1  0  0  0  0
 48 71  1  0  0  0  0
 49 53  1  0  0  0  0
 49 70  1  0  0  0  0
 50 75  1  0  0  0  0
 52 69  1  0  0  0  0
 53 68  1  0  0  0  0
 55 64  1  0  0  0  0
 56 65  1  0  0  0  0
 57 65  1  0  0  0  0
 58 65  1  0  0  0  0
 59 67  1  0  0  0  0
 60 77  1  0  0  0  0
 61 62  1  0  0  0  0
 61 74  1  0  0  0  0
 62 84  1  0  0  0  0
 63 65  1  0  0  0  0
 63 76  1  0  0  0  0
 64 77  1  0  0  0  0
 66 68  1  0  0  0  0
M  CHG  1  77   1
M  ISO  4  36 100  62 101  71 100  84 101
M  END
> <Batch ID>
0139

> <Smiles>
CNC(C)C(=O)NC(C(=O)N1Cc2cc([101O:1][101CH2:1]CNc3cn(C)c(C4CC[100N:0]([100C:0](=O)N5CCCC(n6nc(-c7ccc(Oc8ccc(F)cc8F)cc7)c(C(N)=O)c6N)C5)CC4)c3C)ccc2CC1C(=O)NC1CCCc2ccccc21)C(C)(C)C

> <Shape>
0.248

> <Color>
0.092

> <Negative vol penalty>
0.000

$$$$

  -OEChem-04052321103D

 89 98  0     1  0  0  0  0  0999 V2000
  -17.5209  -26.4493   22.7290 C   0  0  0  0  0  0  0  0  0  0  0  0
  -18.6057  -26.0439   21.9582 C   0  0  0  0  0  0  0  0  0  0  0  0
  -25.0333  -13.7492   22.4695 C   0  0  0  0  0  0  0  0  0  0  0  0
  -25.8378  -14.3739   20.2787 C   0  0  0  0  0  0  0  0  0  0  0  0
  -17.6168  -27.5954   23.5172 C   0  0  0  0  0  0  0  0  0  0  0  0
  -19.7868  -26.7850   21.9743 C   0  0  0  0  0  0  0  0  0  0  0  0
  -25.4980  -24.6200   21.5266 C   0  0  0  0  0  0  0  0  0  0  0  0
  -27.4276  -21.0015   17.9093 C   0  0  0  0  0  0  0  0  0  0  0  0
  -24.1743  -12.8166   21.8882 C   0  0  0  0  0  0  0  0  0  0  0  0
  -24.9788  -13.4412   19.6973 C   0  0  0  0  0  0  0  0  0  0  0  0
  -26.3836  -24.5247   20.4540 C   0  0  0  0  0  0  0  0  0  0  0  0
  -24.3905   -9.7037   20.5860 C   0  0  0  0  0  0  0  0  0  0  0  0
  -24.3256   -8.4349   21.1618 C   0  0  0  0  0  0  0  0  0  0  0  0
  -27.1380  -22.3476   17.7160 C   0  0  0  0  0  0  0  0  0  0  0  0
  -27.4165  -26.5971   21.1304 C   0  0  0  0  0  0  0  0  0  0  0  0
  -21.9665   -8.7454   21.5803 C   0  0  0  0  0  0  0  0  0  0  0  0
  -25.8650  -14.5279   21.6647 C   0  0  0  0  0  0  0  0  0  0  0  0
  -28.0771  -15.2785   22.6900 C   0  0  0  0  0  0  0  0  0  0  0  0
  -18.8028  -28.3455   23.5504 C   0  0  0  0  0  0  0  0  0  0  0  0
  -25.5581  -25.7121   22.4042 C   0  0  0  0  0  0  0  0  0  0  0  0
  -19.8982  -27.9430   22.7626 C   0  0  0  0  0  0  0  0  0  0  0  0
  -28.5790  -20.6357   18.5977 C   0  0  0  0  0  0  0  0  0  0  0  0
  -26.5322  -26.7027   22.2148 C   0  0  0  0  0  0  0  0  0  0  0  0
  -24.1471  -12.6626   20.5021 C   0  0  0  0  0  0  0  0  0  0  0  0
  -27.3411  -25.5148   20.2541 C   0  0  0  0  0  0  0  0  0  0  0  0
  -23.2433  -10.4934   20.5073 C   0  0  0  0  0  0  0  0  0  0  0  0
  -23.1137   -7.9558   21.6590 C   0  0  0  0  0  0  0  0  0  0  0  0
  -22.0313  -10.0142   21.0044 C   0  0  0  0  0  0  0  0  0  0  0  0
  -26.7522  -15.4919   22.2646 C   0  0  0  0  0  0  0  0  0  0  0  0
  -28.0248  -23.2817   18.2268 C   0  0  0  0  0  0  0  0  0  0  0  0
  -29.4014  -21.6464   19.0688 C   0  0  0  0  0  0  0  0  0  0  0  0
  -28.4793  -16.4954   23.1838 C   0  0  0  0  0  0  0  0  0  0  0  0
  -28.8730  -14.0868   22.6430 C   0  0  0  0  0  0  0  0  0  0  0  0
  -23.5638  -28.0510   23.2144 C   0  0  0  0  0  0  0  0  0  0  0  0
  -25.8754  -28.7434   25.3822 C   0  0  0  0  0  0  0  0  0  0  0  0
  -29.1617  -28.5367   26.2792 C   0  0  0  0  0  0  0  0  0  0  0  0
  -28.7825  -22.0531   22.7771 C   0  0  0  0  0  0  0  0  0  0  0  0
  -18.8431  -29.6035   24.3814 C   0  0  0  0  0  0  0  0  0  0  0  0
  -24.6129  -25.7866   23.5720 C   0  0  0  0  0  0  0  0  0  0  0  0
  -26.6514  -27.8849   23.1403 C   0  0  0  0  0  0  0  0  0  0  0  0
  -20.2564  -30.1235   24.6313 C   0  0  0  0  0  0  0  0  0  0  0  0
  -29.3204  -17.1644   18.0044 C   0  0  0  0  0  0  0  0  0  0  0  0
  -25.8219  -20.6780   24.1986 C   0  0  0  0  0  0  0  0  0  0  0  0
  -28.0493  -18.0312   18.0828 C   0  0  0  0  0  0  0  0  0  0  0  0
  -30.1251  -18.4767   18.0727 C   0  0  0  0  0  0  0  0  0  0  0  0
  -21.0613  -30.1258   23.3355 C   0  0  0  0  0  0  0  0  0  0  0  0
  -25.9064  -19.1905   23.8519 C   0  0  0  0  0  0  0  0  0  0  0  0
  -26.3749  -21.5518   23.0749 C   0  0  0  0  0  0  0  0  0  0  0  0
  -27.8253  -19.7199   22.2910 C   0  0  0  0  0  0  0  0  0  0  0  0
  -28.9087  -19.1025   18.8198 C   0  0  0  0  0  0  0  0  0  0  0  0
  -21.2046  -28.7066   22.7726 C   0  0  1  0  0  0  0  0  0  0  0  0
  -24.4306  -27.2049   24.1035 C   0  0  1  0  0  0  0  0  0  0  0  0
  -27.3307  -18.7961   23.4172 C   0  0  2  0  0  0  0  0  0  0  0  0
  -30.7574  -29.2302   28.0876 C   0  0  0  0  0  0  0  0  0  0  0  0
  -29.9221  -25.1680   16.7865 C   0  0  0  0  0  0  0  0  0  0  0  0
  -28.0823  -26.8511   16.6204 C   0  0  0  0  0  0  0  0  0  0  0  0
  -25.8723  -31.5921   24.2893 C   0  0  0  0  0  0  0  0  0  0  0  0
  -28.0713  -31.9575   25.4290 C   0  0  0  0  0  0  0  0  0  0  0  0
  -26.0411  -31.4302   26.7792 C   0  0  0  0  0  0  0  0  0  0  0  0
  -29.8258  -25.7273   26.9310 C   0  0  0  0  0  0  0  0  0  0  0  0
  -31.4588  -23.1054   21.1137 C   0  0  0  0  0  0  0  0  0  0  0  0
  -31.6844  -22.1576   19.9362 C   0  0  0  0  0  0  0  0  0  0  0  0
  -31.2177  -22.3972   22.4450 C   0  0  0  0  0  0  0  0  0  0  0  0
  -27.7408  -24.7561   18.0358 C   0  0  2  0  0  0  0  0  0  1  0  0
  -27.1110  -29.6108   25.3874 C   0  0  1  0  0  0  0  0  0  0  0  0
  -29.8264  -28.1380   27.5845 C   0  0  2  0  0  0  0  0  0  0  0  0
  -28.4002  -25.3595   16.7707 C   0  0  0  0  0  0  0  0  0  0  0  0
  -26.7706  -31.1265   25.4525 C   0  0  0  0  0  0  0  0  0  0  0  0
  -26.3402  -16.7457   22.4702 N   0  0  0  0  0  0  0  0  0  0  0  0
  -29.1531  -22.9646   18.9006 N   0  0  0  0  0  0  0  0  0  0  0  0
  -27.4124  -17.3311   23.0303 N   0  0  0  0  0  0  0  0  0  0  0  0
  -25.7005  -27.9161   24.2638 N   0  0  0  0  0  0  0  0  0  0  0  0
  -27.7287  -21.1267   22.7111 N   0  0  0  0  0  0  0  0  0  0  0  0
  -29.6381  -16.9214   23.7299 N   0  0  0  0  0  0  0  0  0  0  0  0
  -28.3047  -12.9247   22.1038 N   0  0  0  0  0  0  0  0  0  0  0  0
  -30.5752  -21.2758   19.7706 N   0  0  0  0  0  0  0  0  0  0  0  0
  -22.2149  -27.9725   23.5039 N   0  0  0  0  0  0  0  0  0  0  0  0
  -27.9382  -29.1362   26.4914 N   0  0  0  0  0  0  0  0  0  0  0  0
  -30.0345  -21.5665   22.4215 N   0  0  0  0  0  0  0  0  0  0  0  0
  -30.6211  -26.8906   27.4012 N   0  3  0  0  0  0  0  0  0  0  0  0
  -30.0476  -14.0493   23.0817 O   0  0  0  0  0  0  0  0  0  0  0  0
  -24.0807  -28.7263   22.3321 O   0  0  0  0  0  0  0  0  0  0  0  0
  -25.0979  -28.7926   26.3386 O   0  0  0  0  0  0  0  0  0  0  0  0
  -29.6779  -28.3397   25.1814 O   0  0  0  0  0  0  0  0  0  0  0  0
  -28.6205  -23.2255   23.1322 O   0  0  0  0  0  0  0  0  0  0  0  0
  -23.3091  -11.7524   19.9346 O   0  0  0  0  0  0  0  0  0  0  0  0
  -28.2063  -25.4245   19.2076 O   0  0  0  0  0  0  0  0  0  1  0  0
  -23.0512   -6.7367   22.2106 F   0  0  0  0  0  0  0  0  0  0  0  0
  -20.9257  -10.7677   20.9305 F   0  0  0  0  0  0  0  0  0  0  0  0
  1  2  1  0  0  0  0
  1  5  2  0  0  0  0
  2  6  2  0  0  0  0
  3  9  2  0  0  0  0
  3 17  1  0  0  0  0
  4 10  1  0  0  0  0
  4 17  2  0  0  0  0
  5 19  1  0  0  0  0
  6 21  1  0  0  0  0
  7 11  2  0  0  0  0
  7 20  1  0  0  0  0
  8 14  2  0  0  0  0
  8 22  1  0  0  0  0
  9 24  1  0  0  0  0
 10 24  2  0  0  0  0
 11 25  1  0  0  0  0
 12 13  2  0  0  0  0
 12 26  1  0  0  0  0
 13 27  1  0  0  0  0
 14 30  1  0  0  0  0
 15 23  1  0  0  0  0
 15 25  2  0  0  0  0
 16 27  2  0  0  0  0
 16 28  1  0  0  0  0
 17 29  1  0  0  0  0
 18 29  1  0  0  0  0
 18 32  2  0  0  0  0
 18 33  1  0  0  0  0
 19 21  2  0  0  0  0
 19 38  1  0  0  0  0
 20 23  2  0  0  0  0
 20 39  1  0  0  0  0
 21 51  1  0  0  0  0
 22 31  2  0  0  0  0
 22 50  1  0  0  0  0
 23 40  1  0  0  0  0
 24 86  1  0  0  0  0
 25 87  1  0  0  0  0
 26 28  2  0  0  0  0
 26 86  1  0  0  0  0
 27 88  1  0  0  0  0
 28 89  1  0  0  0  0
 29 69  2  0  0  0  0
 30 64  1  0  0  0  0
 30 70  2  0  0  0  0
 31 70  1  0  0  0  0
 31 76  1  0  0  0  0
 32 71  1  0  0  0  0
 32 74  1  0  0  0  0
 33 75  1  0  0  0  0
 33 81  2  0  0  0  0
 34 52  1  0  0  0  0
 34 77  1  0  0  0  0
 34 82  2  0  0  0  0
 35 65  1  0  0  0  0
 35 72  1  0  0  0  0
 35 83  2  0  0  0  0
 36 66  1  0  0  0  0
 36 78  1  0  0  0  0
 36 84  2  0  0  0  0
 37 73  1  0  0  0  0
 37 79  1  0  0  0  0
 37 85  2  0  0  0  0
 38 41  1  0  0  0  0
 39 52  1  0  0  0  0
 40 72  1  0  0  0  0
 41 46  1  0  0  0  0
 42 44  1  0  0  0  0
 42 45  1  0  0  0  0
 43 47  1  0  0  0  0
 43 48  1  0  0  0  0
 44 50  1  0  0  0  0
 45 50  1  0  0  0  0
 46 51  1  0  0  0  0
 47 53  1  0  0  0  0
 48 73  1  0  0  0  0
 49 53  1  0  0  0  0
 49 73  1  0  0  0  0
 51 77  1  0  0  0  0
 52 72  1  0  0  0  0
 53 71  1  0  0  0  0
 54 66  1  0  0  0  0
 55 67  1  0  0  0  0
 56 67  1  0  0  0  0
 57 68  1  0  0  0  0
 58 68  1  0  0  0  0
 59 68  1  0  0  0  0
 60 80  1  0  0  0  0
 61 62  1  0  0  0  0
 61 63  1  0  0  0  0
 62 76  1  0  0  0  0
 63 79  1  0  0  0  0
 64 67  1  0  0  0  0
 64 87  1  0  0  0  0
 65 68  1  0  0  0  0
 65 78  1  0  0  0  0
 66 80  1  0  0  0  0
 69 71  1  0  0  0  0
M  CHG  1  80   1
M  ISO  4  37 100  64 101  79 100  87 101
M  END
> <Batch ID>
0139

> <Smiles>
CNC(C)C(=O)NC(C(=O)N1Cc2cc([101O:1][101CH:1](c3ccc(C4CCC4)c(NCCC[100NH:0][100C:0](=O)N4CCCC(n5nc(-c6ccc(Oc7ccc(F)cc7F)cc6)c(C(N)=O)c5N)C4)n3)C(C)C)ccc2CC1C(=O)NC1CCCc2ccccc21)C(C)(C)C

> <Shape>
0.242

> <Color>
0.078

> <Negative vol penalty>
0.000

$$$$

  -OEChem-04052321103D

 85 94  0     1  0  0  0  0  0999 V2000
  -20.1184  -12.1788   24.3054 C   0  0  0  0  0  0  0  0  0  0  0  0
  -21.4207  -11.9931   24.7582 C   0  0  0  0  0  0  0  0  0  0  0  0
  -23.2865   -9.8003   19.9125 C   0  0  0  0  0  0  0  0  0  0  0  0
  -23.7349   -9.9412   22.2823 C   0  0  0  0  0  0  0  0  0  0  0  0
  -19.5638  -13.4578   24.2869 C   0  0  0  0  0  0  0  0  0  0  0  0
  -22.1695  -13.0867   25.1918 C   0  0  0  0  0  0  0  0  0  0  0  0
  -32.4133  -16.6958   28.3551 C   0  0  0  0  0  0  0  0  0  0  0  0
  -31.2452  -17.9151   26.6271 C   0  0  0  0  0  0  0  0  0  0  0  0
  -27.2339  -14.8556   29.9392 C   0  0  0  0  0  0  0  0  0  0  0  0
  -22.5592   -8.6283   20.1197 C   0  0  0  0  0  0  0  0  0  0  0  0
  -23.0075   -8.7693   22.4896 C   0  0  0  0  0  0  0  0  0  0  0  0
  -32.7203  -15.6905   27.4382 C   0  0  0  0  0  0  0  0  0  0  0  0
  -31.5522  -16.9097   25.7102 C   0  0  0  0  0  0  0  0  0  0  0  0
  -28.4781  -15.4815   30.0040 C   0  0  0  0  0  0  0  0  0  0  0  0
  -19.4760   -7.7702   21.2109 C   0  0  0  0  0  0  0  0  0  0  0  0
  -18.2476   -7.6463   20.5619 C   0  0  0  0  0  0  0  0  0  0  0  0
  -27.3887  -17.6338   30.0016 C   0  0  0  0  0  0  0  0  0  0  0  0
  -19.0490   -5.6727   19.4218 C   0  0  0  0  0  0  0  0  0  0  0  0
  -23.8745  -10.4568   20.9937 C   0  0  0  0  0  0  0  0  0  0  0  0
  -24.1357  -12.9865   20.7947 C   0  0  0  0  0  0  0  0  0  0  0  0
  -31.6757  -17.8081   27.9495 C   0  0  0  0  0  0  0  0  0  0  0  0
  -20.3028  -14.5662   24.7295 C   0  0  0  0  0  0  0  0  0  0  0  0
  -26.0563  -15.6157   29.8941 C   0  0  0  0  0  0  0  0  0  0  0  0
  -21.6247  -14.3819   25.1779 C   0  0  0  0  0  0  0  0  0  0  0  0
  -26.1308  -17.0151   29.9388 C   0  0  0  0  0  0  0  0  0  0  0  0
  -22.4196   -8.1128   21.4083 C   0  0  0  0  0  0  0  0  0  0  0  0
  -32.2898  -15.7974   26.1158 C   0  0  0  0  0  0  0  0  0  0  0  0
  -28.5558  -16.8708   30.0323 C   0  0  0  0  0  0  0  0  0  0  0  0
  -20.4910   -6.8454   20.9653 C   0  0  0  0  0  0  0  0  0  0  0  0
  -18.0341   -6.5975   19.6674 C   0  0  0  0  0  0  0  0  0  0  0  0
  -20.2775   -5.7966   20.0708 C   0  0  0  0  0  0  0  0  0  0  0  0
  -24.6264  -11.6671   20.7802 C   0  0  0  0  0  0  0  0  0  0  0  0
  -25.2380  -13.7656   20.5407 C   0  0  0  0  0  0  0  0  0  0  0  0
  -22.8028  -13.4651   21.0180 C   0  0  0  0  0  0  0  0  0  0  0  0
  -23.6919  -15.9663   27.7988 C   0  0  0  0  0  0  0  0  0  0  0  0
  -22.3871  -17.7657   30.1614 C   0  0  0  0  0  0  0  0  0  0  0  0
  -22.8651  -19.6707   32.9523 C   0  0  0  0  0  0  0  0  0  0  0  0
  -31.1076  -12.9190   21.3667 C   0  0  0  0  0  0  0  0  0  0  0  0
  -19.6770  -15.9360   24.6464 C   0  0  0  0  0  0  0  0  0  0  0  0
  -24.7209  -14.9249   29.8513 C   0  0  0  0  0  0  0  0  0  0  0  0
  -24.8953  -17.8762   29.9131 C   0  0  0  0  0  0  0  0  0  0  0  0
  -20.4070  -16.9904   25.4745 C   0  0  0  0  0  0  0  0  0  0  0  0
  -32.1110  -20.7110   30.0168 C   0  0  0  0  0  0  0  0  0  0  0  0
  -29.4624  -13.6587   18.2970 C   0  0  0  0  0  0  0  0  0  0  0  0
  -21.9121  -16.9036   25.2423 C   0  0  0  0  0  0  0  0  0  0  0  0
  -27.9921  -13.3512   18.5866 C   0  0  0  0  0  0  0  0  0  0  0  0
  -32.3426  -19.1976   30.1699 C   0  0  0  0  0  0  0  0  0  0  0  0
  -31.6434  -20.4373   28.5766 C   0  0  0  0  0  0  0  0  0  0  0  0
  -30.3943  -12.6788   19.0066 C   0  0  0  0  0  0  0  0  0  0  0  0
  -28.7055  -12.2510   20.7499 C   0  0  0  0  0  0  0  0  0  0  0  0
  -22.4601  -15.5397   25.6795 C   0  0  1  0  0  0  0  0  0  0  0  0
  -23.6096  -15.8070   29.2906 C   0  0  1  0  0  0  0  0  0  0  0  0
  -27.7289  -13.2467   20.1009 C   0  0  2  0  0  0  0  0  0  0  0  0
  -31.3227  -18.9631   29.0027 C   0  0  0  0  0  0  0  0  0  0  0  0
  -21.6120  -21.0401   34.6410 C   0  0  0  0  0  0  0  0  0  0  0  0
  -22.0866  -20.0093   28.1155 C   0  0  0  0  0  0  0  0  0  0  0  0
  -21.7411  -21.6019   30.0162 C   0  0  0  0  0  0  0  0  0  0  0  0
  -20.1331  -19.7300   29.6518 C   0  0  0  0  0  0  0  0  0  0  0  0
  -23.7468  -17.9378   35.1836 C   0  0  0  0  0  0  0  0  0  0  0  0
  -29.8784  -18.7705   29.4867 C   0  0  0  0  0  0  0  0  0  1  0  0
  -31.6670  -13.1330   23.7751 C   0  0  0  0  0  0  0  0  0  0  0  0
  -31.6636  -14.6023   24.1574 C   0  0  0  0  0  0  0  0  0  0  0  0
  -22.4419  -19.2237   30.5491 C   0  0  1  0  0  0  0  0  0  0  0  0
  -22.1745  -19.6679   34.3042 C   0  0  2  0  0  0  0  0  0  0  0  0
  -21.6242  -20.1253   29.5817 C   0  0  0  0  0  0  0  0  0  0  0  0
  -25.9383  -11.6075   20.5360 N   0  0  0  0  0  0  0  0  0  0  0  0
  -26.2812  -12.8993   20.3947 N   0  0  0  0  0  0  0  0  0  0  0  0
  -23.6133  -17.1540   29.8647 N   0  0  0  0  0  0  0  0  0  0  0  0
  -30.0934  -12.6280   20.4394 N   0  0  0  0  0  0  0  0  0  0  0  0
  -25.4069  -15.1004   20.4301 N   0  0  0  0  0  0  0  0  0  0  0  0
  -21.7893  -12.5289   21.2647 N   0  0  0  0  0  0  0  0  0  0  0  0
  -22.5887  -15.4850   27.1199 N   0  0  0  0  0  0  0  0  0  0  0  0
  -22.0082  -19.2927   31.9403 N   0  0  0  0  0  0  0  0  0  0  0  0
  -30.7364  -12.8540   22.7041 N   0  0  0  0  0  0  0  0  0  0  0  0
  -23.1344  -19.2776   35.3753 N   0  3  0  0  0  0  0  0  0  0  0  0
  -22.5157  -14.6857   20.9831 O   0  0  0  0  0  0  0  0  0  0  0  0
  -24.6822  -16.4886   27.3007 O   0  0  0  0  0  0  0  0  0  0  0  0
  -21.2971  -17.1889   30.1301 O   0  0  0  0  0  0  0  0  0  0  0  0
  -24.0455  -19.9810   32.8080 O   0  0  0  0  0  0  0  0  0  0  0  0
  -32.2571  -13.2199   21.0277 O   0  0  0  0  0  0  0  0  0  0  0  0
  -21.7098   -6.9693   21.6110 O   0  0  0  0  0  0  0  0  0  0  0  0
  -29.7689  -17.4843   30.0949 O   0  0  0  0  0  0  0  0  0  1  0  0
  -32.5905  -14.8175   25.2206 O   0  0  0  0  0  0  0  0  0  0  0  0
  -16.8538   -6.4778   19.0454 F   0  0  0  0  0  0  0  0  0  0  0  0
  -21.2484   -4.9044   19.8317 F   0  0  0  0  0  0  0  0  0  0  0  0
  1  2  1  0  0  0  0
  1  5  2  0  0  0  0
  2  6  2  0  0  0  0
  3 10  2  0  0  0  0
  3 19  1  0  0  0  0
  4 11  1  0  0  0  0
  4 19  2  0  0  0  0
  5 22  1  0  0  0  0
  6 24  1  0  0  0  0
  7 12  2  0  0  0  0
  7 21  1  0  0  0  0
  8 13  1  0  0  0  0
  8 21  2  0  0  0  0
  9 14  2  0  0  0  0
  9 23  1  0  0  0  0
 10 26  1  0  0  0  0
 11 26  2  0  0  0  0
 12 27  1  0  0  0  0
 13 27  2  0  0  0  0
 14 28  1  0  0  0  0
 15 16  2  0  0  0  0
 15 29  1  0  0  0  0
 16 30  1  0  0  0  0
 17 25  1  0  0  0  0
 17 28  2  0  0  0  0
 18 30  2  0  0  0  0
 18 31  1  0  0  0  0
 19 32  1  0  0  0  0
 20 32  1  0  0  0  0
 20 33  2  0  0  0  0
 20 34  1  0  0  0  0
 21 54  1  0  0  0  0
 22 24  2  0  0  0  0
 22 39  1  0  0  0  0
 23 25  2  0  0  0  0
 23 40  1  0  0  0  0
 24 51  1  0  0  0  0
 25 41  1  0  0  0  0
 26 81  1  0  0  0  0
 27 83  1  0  0  0  0
 28 82  1  0  0  0  0
 29 31  2  0  0  0  0
 29 81  1  0  0  0  0
 30 84  1  0  0  0  0
 31 85  1  0  0  0  0
 32 66  2  0  0  0  0
 33 67  1  0  0  0  0
 33 70  1  0  0  0  0
 34 71  1  0  0  0  0
 34 76  2  0  0  0  0
 35 52  1  0  0  0  0
 35 72  1  0  0  0  0
 35 77  2  0  0  0  0
 36 63  1  0  0  0  0
 36 68  1  0  0  0  0
 36 78  2  0  0  0  0
 37 64  1  0  0  0  0
 37 73  1  0  0  0  0
 37 79  2  0  0  0  0
 38 69  1  0  0  0  0
 38 74  1  0  0  0  0
 38 80  2  0  0  0  0
 39 42  1  0  0  0  0
 40 52  1  0  0  0  0
 41 68  1  0  0  0  0
 42 45  1  0  0  0  0
 43 47  1  0  0  0  0
 43 48  1  0  0  0  0
 44 46  1  0  0  0  0
 44 49  1  0  0  0  0
 45 51  1  0  0  0  0
 46 53  1  0  0  0  0
 47 54  1  0  0  0  0
 48 54  1  0  0  0  0
 49 69  1  0  0  0  0
 50 53  1  0  0  0  0
 50 69  1  0  0  0  0
 51 72  1  0  0  0  0
 52 68  1  0  0  0  0
 53 67  1  0  0  0  0
 54 60  1  0  0  0  0
 55 64  1  0  0  0  0
 56 65  1  0  0  0  0
 57 65  1  0  0  0  0
 58 65  1  0  0  0  0
 59 75  1  0  0  0  0
 60 82  1  0  0  0  0
 61 62  1  0  0  0  0
 61 74  1  0  0  0  0
 62 83  1  0  0  0  0
 63 65  1  0  0  0  0
 63 73  1  0  0  0  0
 64 75  1  0  0  0  0
 66 67  1  0  0  0  0
M  CHG  1  75   1
M  ISO  4  38 100  60 101  74 100  82 101
M  END
> <Batch ID>
0139

> <Smiles>
CNC(C)C(=O)NC(C(=O)N1Cc2cc([101O:1][101CH2:1]C3(c4ccc(OCC[100NH:0][100C:0](=O)N5CCCC(n6nc(-c7ccc(Oc8ccc(F)cc8F)cc7)c(C(N)=O)c6N)C5)cc4)CCC3)ccc2CC1C(=O)NC1CCCc2ccccc21)C(C)(C)C

> <Shape>
0.118

> <Color>
0.174

> <Negative vol penalty>
0.000

$$$$

  -OEChem-04052321103D

 85 94  0     1  0  0  0  0  0999 V2000
  -17.5866  -22.7472   23.4164 C   0  0  0  0  0  0  0  0  0  0  0  0
  -18.8741  -22.2610   23.2128 C   0  0  0  0  0  0  0  0  0  0  0  0
  -22.5064  -13.8066   22.1222 C   0  0  0  0  0  0  0  0  0  0  0  0
  -22.7549  -14.6908   19.8876 C   0  0  0  0  0  0  0  0  0  0  0  0
  -17.2537  -24.0337   22.9943 C   0  0  0  0  0  0  0  0  0  0  0  0
  -19.8291  -23.0607   22.5860 C   0  0  0  0  0  0  0  0  0  0  0  0
  -25.8379  -23.2230   23.7583 C   0  0  0  0  0  0  0  0  0  0  0  0
  -21.3930  -14.6228   22.3214 C   0  0  0  0  0  0  0  0  0  0  0  0
  -21.6414  -15.5070   20.0868 C   0  0  0  0  0  0  0  0  0  0  0  0
  -26.9318  -22.6252   23.1341 C   0  0  0  0  0  0  0  0  0  0  0  0
  -20.9369  -18.4232   21.6458 C   0  0  0  0  0  0  0  0  0  0  0  0
  -21.0283  -19.7545   21.2398 C   0  0  0  0  0  0  0  0  0  0  0  0
  -27.3081  -24.6461   21.8716 C   0  0  0  0  0  0  0  0  0  0  0  0
  -19.1734  -19.4209   19.7282 C   0  0  0  0  0  0  0  0  0  0  0  0
  -30.7841  -18.7093   17.6207 C   0  0  0  0  0  0  0  0  0  0  0  0
  -23.1874  -13.8407   20.9053 C   0  0  0  0  0  0  0  0  0  0  0  0
  -24.3512  -11.6888   20.1823 C   0  0  0  0  0  0  0  0  0  0  0  0
  -18.2078  -24.8530   22.3707 C   0  0  0  0  0  0  0  0  0  0  0  0
  -25.4636  -24.5353   23.4353 C   0  0  0  0  0  0  0  0  0  0  0  0
  -19.5082  -24.3588   22.1540 C   0  0  0  0  0  0  0  0  0  0  0  0
  -26.2106  -25.2591   22.4950 C   0  0  0  0  0  0  0  0  0  0  0  0
  -20.9605  -15.4730   21.3037 C   0  0  0  0  0  0  0  0  0  0  0  0
  -27.6654  -23.3357   22.1885 C   0  0  0  0  0  0  0  0  0  0  0  0
  -19.9638  -17.5907   21.0930 C   0  0  0  0  0  0  0  0  0  0  0  0
  -20.1465  -20.2534   20.2811 C   0  0  0  0  0  0  0  0  0  0  0  0
  -19.0820  -18.0895   20.1342 C   0  0  0  0  0  0  0  0  0  0  0  0
  -24.3380  -12.9982   20.6992 C   0  0  0  0  0  0  0  0  0  0  0  0
  -28.3303  -18.7179   18.6723 C   0  0  0  0  0  0  0  0  0  0  0  0
  -29.9608  -17.6102   17.5129 C   0  0  0  0  0  0  0  0  0  0  0  0
  -29.1539  -19.8167   18.7807 C   0  0  0  0  0  0  0  0  0  0  0  0
  -25.6773  -11.3311   20.1873 C   0  0  0  0  0  0  0  0  0  0  0  0
  -23.2622  -10.8692   19.7374 C   0  0  0  0  0  0  0  0  0  0  0  0
  -22.8732  -25.8850   22.1816 C   0  0  0  0  0  0  0  0  0  0  0  0
  -24.4517  -28.6352   22.8653 C   0  0  0  0  0  0  0  0  0  0  0  0
  -27.4300  -30.2022   23.4315 C   0  0  0  0  0  0  0  0  0  0  0  0
  -30.7555  -14.4981   20.0046 C   0  0  0  0  0  0  0  0  0  0  0  0
  -17.7879  -26.2192   21.8892 C   0  0  0  0  0  0  0  0  0  0  0  0
  -24.2972  -25.1752   24.1372 C   0  0  0  0  0  0  0  0  0  0  0  0
  -25.8623  -26.6777   22.1278 C   0  0  0  0  0  0  0  0  0  0  0  0
  -18.9627  -27.1402   21.5699 C   0  0  0  0  0  0  0  0  0  0  0  0
  -29.7733  -12.1703   22.5132 C   0  0  0  0  0  0  0  0  0  0  0  0
  -20.0061  -26.4045   20.7352 C   0  0  0  0  0  0  0  0  0  0  0  0
  -26.7988  -19.0489   20.7263 C   0  0  0  0  0  0  0  0  0  0  0  0
  -26.5720  -17.6523   20.2381 C   0  0  0  0  0  0  0  0  0  0  0  0
  -28.2701  -12.0004   22.2861 C   0  0  0  0  0  0  0  0  0  0  0  0
  -30.2245  -13.6059   22.2537 C   0  0  0  0  0  0  0  0  0  0  0  0
  -28.3411  -13.9759   20.7078 C   0  0  0  0  0  0  0  0  0  0  0  0
  -20.5789  -25.2051   21.5000 C   0  0  1  0  0  0  0  0  0  0  0  0
  -26.9611  -18.7323   19.2627 C   0  0  0  0  0  0  0  0  0  0  0  0
  -23.6944  -26.3383   23.3555 C   0  0  1  0  0  0  0  0  0  0  0  0
  -27.8484  -12.5318   20.9030 C   0  0  2  0  0  0  0  0  0  0  0  0
  -28.4047  -32.4613   23.9255 C   0  0  0  0  0  0  0  0  0  0  0  0
  -24.0505  -29.4429   19.9504 C   0  0  0  0  0  0  0  0  0  0  0  0
  -25.8156  -31.1905   20.2644 C   0  0  0  0  0  0  0  0  0  0  0  0
  -23.7118  -31.2909   21.6011 C   0  0  0  0  0  0  0  0  0  0  0  0
  -28.5458  -29.2844   26.0144 C   0  0  0  0  0  0  0  0  0  0  0  0
  -30.4233  -16.3865   16.8018 C   0  0  0  0  0  0  0  0  0  0  0  0
  -31.1297  -15.3738   17.7128 C   0  0  0  0  0  0  0  0  0  0  0  0
  -29.0321  -23.1802   20.2484 C   0  0  0  0  0  0  0  0  0  1  0  0
  -29.6632  -22.0289   19.4896 C   0  0  0  0  0  0  0  0  0  0  0  0
  -25.4328  -29.5158   22.1298 C   0  0  1  0  0  0  0  0  0  0  0  0
  -27.8702  -31.1667   24.5180 C   0  0  2  0  0  0  0  0  0  0  0  0
  -24.7583  -30.3327   20.9917 C   0  0  0  0  0  0  0  0  0  0  0  0
  -30.3954  -19.8323   18.2566 N   0  0  0  0  0  0  0  0  0  0  0  0
  -25.5588  -13.4422   21.0100 N   0  0  0  0  0  0  0  0  0  0  0  0
  -28.7191  -17.5948   18.0368 N   0  0  0  0  0  0  0  0  0  0  0  0
  -26.3515  -12.4060   20.6876 N   0  0  0  0  0  0  0  0  0  0  0  0
  -24.7096  -27.2573   22.8369 N   0  0  0  0  0  0  0  0  0  0  0  0
  -29.7945  -14.0485   20.9251 N   0  0  0  0  0  0  0  0  0  0  0  0
  -26.3208  -10.2051   19.8125 N   0  0  0  0  0  0  0  0  0  0  0  0
  -21.9633  -11.3919   19.8007 N   0  0  0  0  0  0  0  0  0  0  0  0
  -21.5456  -25.6469   22.4822 N   0  0  0  0  0  0  0  0  0  0  0  0
  -26.0877  -30.3337   23.1450 N   0  0  0  0  0  0  0  0  0  0  0  0
  -30.2639  -14.8933   18.7665 N   0  0  0  0  0  0  0  0  0  0  0  0
  -28.9425  -30.5534   25.3517 N   0  3  0  0  0  0  0  0  0  0  0  0
  -23.4341   -9.7017   19.3122 O   0  0  0  0  0  0  0  0  0  0  0  0
  -23.4044  -25.7619   21.0842 O   0  0  0  0  0  0  0  0  0  0  0  0
  -23.4957  -29.1514   23.4495 O   0  0  0  0  0  0  0  0  0  0  0  0
  -28.2007  -29.4138   22.8884 O   0  0  0  0  0  0  0  0  0  0  0  0
  -31.9628  -14.5389   20.2648 O   0  0  0  0  0  0  0  0  0  0  0  0
  -19.8738  -16.2694   21.4977 O   0  0  0  0  0  0  0  0  0  0  0  0
  -28.7332  -22.7543   21.5772 O   0  0  0  0  0  0  0  0  0  1  0  0
  -28.7395  -20.9487   19.4317 O   0  0  0  0  0  0  0  0  0  0  0  0
  -20.2334  -21.5323   19.8924 F   0  0  0  0  0  0  0  0  0  0  0  0
  -18.1443  -17.2948   19.6004 F   0  0  0  0  0  0  0  0  0  0  0  0
  1  2  1  0  0  0  0
  1  5  2  0  0  0  0
  2  6  2  0  0  0  0
  3  8  2  0  0  0  0
  3 16  1  0  0  0  0
  4  9  1  0  0  0  0
  4 16  2  0  0  0  0
  5 18  1  0  0  0  0
  6 20  1  0  0  0  0
  7 10  2  0  0  0  0
  7 19  1  0  0  0  0
  8 22  1  0  0  0  0
  9 22  2  0  0  0  0
 10 23  1  0  0  0  0
 11 12  2  0  0  0  0
 11 24  1  0  0  0  0
 12 25  1  0  0  0  0
 13 21  1  0  0  0  0
 13 23  2  0  0  0  0
 14 25  2  0  0  0  0
 14 26  1  0  0  0  0
 15 29  1  0  0  0  0
 15 64  2  0  0  0  0
 16 27  1  0  0  0  0
 17 27  1  0  0  0  0
 17 31  2  0  0  0  0
 17 32  1  0  0  0  0
 18 20  2  0  0  0  0
 18 37  1  0  0  0  0
 19 21  2  0  0  0  0
 19 38  1  0  0  0  0
 20 48  1  0  0  0  0
 21 39  1  0  0  0  0
 22 81  1  0  0  0  0
 23 82  1  0  0  0  0
 24 26  2  0  0  0  0
 24 81  1  0  0  0  0
 25 84  1  0  0  0  0
 26 85  1  0  0  0  0
 27 65  2  0  0  0  0
 28 30  2  0  0  0  0
 28 49  1  0  0  0  0
 28 66  1  0  0  0  0
 29 57  1  0  0  0  0
 29 66  2  0  0  0  0
 30 64  1  0  0  0  0
 30 83  1  0  0  0  0
 31 67  1  0  0  0  0
 31 70  1  0  0  0  0
 32 71  1  0  0  0  0
 32 76  2  0  0  0  0
 33 50  1  0  0  0  0
 33 72  1  0  0  0  0
 33 77  2  0  0  0  0
 34 61  1  0  0  0  0
 34 68  1  0  0  0  0
 34 78  2  0  0  0  0
 35 62  1  0  0  0  0
 35 73  1  0  0  0  0
 35 79  2  0  0  0  0
 36 69  1  0  0  0  0
 36 74  1  0  0  0  0
 36 80  2  0  0  0  0
 37 40  1  0  0  0  0
 38 50  1  0  0  0  0
 39 68  1  0  0  0  0
 40 42  1  0  0  0  0
 41 45  1  0  0  0  0
 41 46  1  0  0  0  0
 42 48  1  0  0  0  0
 43 44  1  0  0  0  0
 43 49  1  0  0  0  0
 44 49  1  0  0  0  0
 45 51  1  0  0  0  0
 46 69  1  0  0  0  0
 47 51  1  0  0  0  0
 47 69  1  0  0  0  0
 48 72  1  0  0  0  0
 50 68  1  0  0  0  0
 51 67  1  0  0  0  0
 52 62  1  0  0  0  0
 53 63  1  0  0  0  0
 54 63  1  0  0  0  0
 55 63  1  0  0  0  0
 56 75  1  0  0  0  0
 57 58  1  0  0  0  0
 58 74  1  0  0  0  0
 59 60  1  0  0  0  0
 59 82  1  0  0  0  0
 60 83  1  0  0  0  0
 61 63  1  0  0  0  0
 61 73  1  0  0  0  0
 62 75  1  0  0  0  0
 65 67  1  0  0  0  0
M  CHG  1  75   1
M  ISO  4  36 100  59 101  74 100  82 101
M  END
> <Batch ID>
0139

> <Smiles>
CNC(C)C(=O)NC(C(=O)N1Cc2cc([101O:1][101CH2:1]COc3ncc(CC[100NH:0][100C:0](=O)N4CCCC(n5nc(-c6ccc(Oc7ccc(F)cc7F)cc6)c(C(N)=O)c5N)C4)nc3C3CC3)ccc2CC1C(=O)NC1CCCc2ccccc21)C(C)(C)C

> <Shape>
0.226

> <Color>
0.061

> <Negative vol penalty>
0.000

$$$$

  -OEChem-04052321103D

 82 90  0     1  0  0  0  0  0999 V2000
  -28.3825  -16.0164   13.4760 C   0  0  0  0  0  0  0  0  0  0  0  0
  -28.2267  -16.1378   14.8531 C   0  0  0  0  0  0  0  0  0  0  0  0
  -23.0909   -9.8980   19.9758 C   0  0  0  0  0  0  0  0  0  0  0  0
  -23.5029  -10.0812   22.3493 C   0  0  0  0  0  0  0  0  0  0  0  0
  -29.1018  -16.9793   12.7694 C   0  0  0  0  0  0  0  0  0  0  0  0
  -28.7912  -17.2217   15.5246 C   0  0  0  0  0  0  0  0  0  0  0  0
  -26.4924  -20.1380   20.3945 C   0  0  0  0  0  0  0  0  0  0  0  0
  -22.2706   -8.7931   20.2034 C   0  0  0  0  0  0  0  0  0  0  0  0
  -22.6826   -8.9763   22.5770 C   0  0  0  0  0  0  0  0  0  0  0  0
  -26.7581  -20.0379   21.7595 C   0  0  0  0  0  0  0  0  0  0  0  0
  -20.9852   -5.9847   23.7516 C   0  0  0  0  0  0  0  0  0  0  0  0
  -21.4423   -5.0095   24.6378 C   0  0  0  0  0  0  0  0  0  0  0  0
  -28.2838  -21.8990   21.5929 C   0  0  0  0  0  0  0  0  0  0  0  0
  -23.3705   -4.6350   23.2310 C   0  0  0  0  0  0  0  0  0  0  0  0
  -23.7071  -10.5420   21.0488 C   0  0  0  0  0  0  0  0  0  0  0  0
  -24.1684  -13.0362   20.7771 C   0  0  0  0  0  0  0  0  0  0  0  0
  -29.6672  -18.0807   13.4312 C   0  0  0  0  0  0  0  0  0  0  0  0
  -27.1297  -21.1141   19.6151 C   0  0  0  0  0  0  0  0  0  0  0  0
  -29.5199  -18.1996   14.8264 C   0  0  0  0  0  0  0  0  0  0  0  0
  -28.0225  -22.0111   20.2188 C   0  0  0  0  0  0  0  0  0  0  0  0
  -22.0664   -8.3322   21.5040 C   0  0  0  0  0  0  0  0  0  0  0  0
  -27.6560  -20.9165   22.3583 C   0  0  0  0  0  0  0  0  0  0  0  0
  -21.7206   -6.2851   22.6050 C   0  0  0  0  0  0  0  0  0  0  0  0
  -22.6350   -4.3346   24.3775 C   0  0  0  0  0  0  0  0  0  0  0  0
  -22.9133   -5.6103   22.3447 C   0  0  0  0  0  0  0  0  0  0  0  0
  -24.5551  -11.6831   20.8142 C   0  0  0  0  0  0  0  0  0  0  0  0
  -25.3327  -13.7192   20.5232 C   0  0  0  0  0  0  0  0  0  0  0  0
  -22.8727  -13.6233   20.9563 C   0  0  0  0  0  0  0  0  0  0  0  0
  -29.1124  -21.0586   17.1312 C   0  0  0  0  0  0  0  0  0  0  0  0
  -28.6678  -24.2711   17.2015 C   0  0  0  0  0  0  0  0  0  0  0  0
  -27.8282  -27.0409   19.0098 C   0  0  0  0  0  0  0  0  0  0  0  0
  -31.1014  -12.4492   21.5031 C   0  0  0  0  0  0  0  0  0  0  0  0
  -30.4764  -19.0710   12.6316 C   0  0  0  0  0  0  0  0  0  0  0  0
  -26.8121  -21.2262   18.1492 C   0  0  0  0  0  0  0  0  0  0  0  0
  -28.7176  -23.0897   19.4302 C   0  0  0  0  0  0  0  0  0  0  0  0
  -30.7248  -20.3870   13.3641 C   0  0  0  0  0  0  0  0  0  0  0  0
  -29.5786  -13.2131   18.3767 C   0  0  0  0  0  0  0  0  0  0  0  0
  -31.1763  -20.1235   14.7971 C   0  0  0  0  0  0  0  0  0  0  0  0
  -28.0836  -13.0297   18.6436 C   0  0  0  0  0  0  0  0  0  0  0  0
  -29.3983  -16.6926   26.0007 C   0  0  0  0  0  0  0  0  0  0  0  0
  -30.6940  -17.1283   23.8849 C   0  0  0  0  0  0  0  0  0  0  0  0
  -30.4174  -12.1880   19.1366 C   0  0  0  0  0  0  0  0  0  0  0  0
  -28.6670  -11.9490   20.8549 C   0  0  0  0  0  0  0  0  0  0  0  0
  -29.5023  -18.1683   26.3606 C   0  0  0  0  0  0  0  0  0  0  0  0
  -30.7915  -18.6018   24.2558 C   0  0  0  0  0  0  0  0  0  0  0  0
  -30.0963  -19.3741   15.5868 C   0  0  1  0  0  0  0  0  0  0  0  0
  -27.9073  -21.9284   17.3524 C   0  0  1  0  0  0  0  0  0  0  0  0
  -30.5723  -16.2368   25.1263 C   0  0  0  0  0  0  0  0  0  0  0  0
  -27.7837  -12.9954   20.1542 C   0  0  2  0  0  0  0  0  0  0  0  0
  -27.5924  -29.5307   18.8043 C   0  0  0  0  0  0  0  0  0  0  0  0
  -31.7037  -24.5634   17.2897 C   0  0  0  0  0  0  0  0  0  0  0  0
  -31.3842  -26.9333   18.0314 C   0  0  0  0  0  0  0  0  0  0  0  0
  -30.5408  -26.2019   15.8006 C   0  0  0  0  0  0  0  0  0  0  0  0
  -24.9469  -26.9397   19.6783 C   0  0  0  0  0  0  0  0  0  0  0  0
  -30.4140  -14.7711   24.7277 C   0  0  0  0  0  0  0  0  0  0  0  0
  -31.7439  -14.1779   24.2648 C   0  0  0  0  0  0  0  0  0  0  0  0
  -31.6291  -12.6978   23.9153 C   0  0  0  0  0  0  0  0  0  0  0  0
  -29.5811  -20.4630   25.3897 C   0  0  0  0  0  0  0  0  0  0  0  0
  -29.2162  -21.2194   24.1276 C   0  0  0  0  0  0  0  0  0  1  0  0
  -29.3470  -25.4295   17.8912 C   0  0  1  0  0  0  0  0  0  0  0  0
  -26.8815  -28.1895   18.7119 C   0  0  2  0  0  0  0  0  0  0  0  0
  -30.7325  -25.7606   17.2680 C   0  0  0  0  0  0  0  0  0  0  0  0
  -25.8627  -11.5145   20.6007 N   0  0  0  0  0  0  0  0  0  0  0  0
  -26.3079  -12.7706   20.4270 N   0  0  0  0  0  0  0  0  0  0  0  0
  -28.3787  -23.1547   17.9990 N   0  0  0  0  0  0  0  0  0  0  0  0
  -30.0859  -12.2073   20.5633 N   0  0  0  0  0  0  0  0  0  0  0  0
  -25.6072  -15.0326   20.3749 N   0  0  0  0  0  0  0  0  0  0  0  0
  -21.7848  -12.7768   21.2097 N   0  0  0  0  0  0  0  0  0  0  0  0
  -29.0439  -20.2819   15.9904 N   0  0  0  0  0  0  0  0  0  0  0  0
  -28.3976  -26.5368   17.8596 N   0  0  0  0  0  0  0  0  0  0  0  0
  -30.7005  -12.4568   22.8335 N   0  0  0  0  0  0  0  0  0  0  0  0
  -29.5990  -18.9880   25.0968 N   0  3  0  0  0  0  0  0  0  0  0  0
  -25.7480  -28.1908   19.6794 N   0  3  0  0  0  0  0  0  0  0  0  0
  -22.6823  -14.8607   20.8772 O   0  0  0  0  0  0  0  0  0  0  0  0
  -30.0367  -21.0911   17.9352 O   0  0  0  0  0  0  0  0  0  0  0  0
  -28.3972  -24.3564   16.0010 O   0  0  0  0  0  0  0  0  0  0  0  0
  -28.0441  -26.6340   20.1493 O   0  0  0  0  0  0  0  0  0  0  0  0
  -32.2773  -12.6492   21.1801 O   0  0  0  0  0  0  0  0  0  0  0  0
  -21.2658   -7.2542   21.7265 O   0  0  0  0  0  0  0  0  0  0  0  0
  -27.9177  -20.8205   23.6903 O   0  0  0  0  0  0  0  0  0  1  0  0
  -23.0747   -3.3992   25.2294 F   0  0  0  0  0  0  0  0  0  0  0  0
  -23.6248   -5.8954   21.2455 F   0  0  0  0  0  0  0  0  0  0  0  0
  1  2  1  0  0  0  0
  1  5  2  0  0  0  0
  2  6  2  0  0  0  0
  3  8  2  0  0  0  0
  3 15  1  0  0  0  0
  4  9  1  0  0  0  0
  4 15  2  0  0  0  0
  5 17  1  0  0  0  0
  6 19  1  0  0  0  0
  7 10  2  0  0  0  0
  7 18  1  0  0  0  0
  8 21  1  0  0  0  0
  9 21  2  0  0  0  0
 10 22  1  0  0  0  0
 11 12  2  0  0  0  0
 11 23  1  0  0  0  0
 12 24  1  0  0  0  0
 13 20  1  0  0  0  0
 13 22  2  0  0  0  0
 14 24  2  0  0  0  0
 14 25  1  0  0  0  0
 15 26  1  0  0  0  0
 16 26  1  0  0  0  0
 16 27  2  0  0  0  0
 16 28  1  0  0  0  0
 17 19  2  0  0  0  0
 17 33  1  0  0  0  0
 18 20  2  0  0  0  0
 18 34  1  0  0  0  0
 19 46  1  0  0  0  0
 20 35  1  0  0  0  0
 21 79  1  0  0  0  0
 22 80  1  0  0  0  0
 23 25  2  0  0  0  0
 23 79  1  0  0  0  0
 24 81  1  0  0  0  0
 25 82  1  0  0  0  0
 26 63  2  0  0  0  0
 27 64  1  0  0  0  0
 27 67  1  0  0  0  0
 28 68  1  0  0  0  0
 28 74  2  0  0  0  0
 29 47  1  0  0  0  0
 29 69  1  0  0  0  0
 29 75  2  0  0  0  0
 30 60  1  0  0  0  0
 30 65  1  0  0  0  0
 30 76  2  0  0  0  0
 31 61  1  0  0  0  0
 31 70  1  0  0  0  0
 31 77  2  0  0  0  0
 32 66  1  0  0  0  0
 32 71  1  0  0  0  0
 32 78  2  0  0  0  0
 33 36  1  0  0  0  0
 34 47  1  0  0  0  0
 35 65  1  0  0  0  0
 36 38  1  0  0  0  0
 37 39  1  0  0  0  0
 37 42  1  0  0  0  0
 38 46  1  0  0  0  0
 39 49  1  0  0  0  0
 40 44  1  0  0  0  0
 40 48  1  0  0  0  0
 41 45  1  0  0  0  0
 41 48  1  0  0  0  0
 42 66  1  0  0  0  0
 43 49  1  0  0  0  0
 43 66  1  0  0  0  0
 44 72  1  0  0  0  0
 45 72  1  0  0  0  0
 46 69  1  0  0  0  0
 47 65  1  0  0  0  0
 48 55  1  0  0  0  0
 49 64  1  0  0  0  0
 50 61  1  0  0  0  0
 51 62  1  0  0  0  0
 52 62  1  0  0  0  0
 53 62  1  0  0  0  0
 54 73  1  0  0  0  0
 55 56  1  0  0  0  0
 56 57  1  0  0  0  0
 57 71  1  0  0  0  0
 58 59  1  0  0  0  0
 58 72  1  0  0  0  0
 59 80  1  0  0  0  0
 60 62  1  0  0  0  0
 60 70  1  0  0  0  0
 61 73  1  0  0  0  0
 63 64  1  0  0  0  0
M  CHG  2  72   1  73   1
M  ISO  4  32 100  59 101  71 100  80 101
M  END
> <Batch ID>
0139

> <Smiles>
CNC(C)C(=O)NC(C(=O)N1Cc2cc([101O:1][101CH2:1]CN3CCC(CCC[100NH:0][100C:0](=O)N4CCCC(n5nc(-c6ccc(Oc7ccc(F)cc7F)cc6)c(C(N)=O)c5N)C4)CC3)ccc2CC1C(=O)NC1CCCc2ccccc21)C(C)(C)C

> <Shape>
0.232

> <Color>
0.198

> <Negative vol penalty>
0.000

$$$$

  -OEChem-04052321103D

 87 95  0     1  0  0  0  0  0999 V2000
  -21.8745  -12.2351   19.3859 C   0  0  0  0  0  0  0  0  0  0  0  0
  -21.8350  -13.6223   19.4828 C   0  0  0  0  0  0  0  0  0  0  0  0
  -27.9462  -25.1569   24.1121 C   0  0  0  0  0  0  0  0  0  0  0  0
  -25.7722  -24.1191   24.2954 C   0  0  0  0  0  0  0  0  0  0  0  0
  -22.9856  -11.5360   19.8558 C   0  0  0  0  0  0  0  0  0  0  0  0
  -22.9061  -14.3112   20.0507 C   0  0  0  0  0  0  0  0  0  0  0  0
  -24.2300  -18.3970   17.3676 C   0  0  0  0  0  0  0  0  0  0  0  0
  -17.0282  -29.4156   23.8141 C   0  0  0  0  0  0  0  0  0  0  0  0
  -28.3913  -24.4182   25.2083 C   0  0  0  0  0  0  0  0  0  0  0  0
  -26.2173  -23.3803   25.3917 C   0  0  0  0  0  0  0  0  0  0  0  0
  -23.4351  -19.5340   17.5051 C   0  0  0  0  0  0  0  0  0  0  0  0
  -17.6284  -28.2398   23.3638 C   0  0  0  0  0  0  0  0  0  0  0  0
  -26.7480  -23.8924   28.6912 C   0  0  0  0  0  0  0  0  0  0  0  0
  -25.9099  -23.8143   29.8034 C   0  0  0  0  0  0  0  0  0  0  0  0
  -25.0499  -20.4708   19.0329 C   0  0  0  0  0  0  0  0  0  0  0  0
  -19.0076  -30.6595   23.2047 C   0  0  0  0  0  0  0  0  0  0  0  0
  -25.8323  -21.4102   29.5760 C   0  0  0  0  0  0  0  0  0  0  0  0
  -26.6366  -25.0074   23.6556 C   0  0  0  0  0  0  0  0  0  0  0  0
  -26.2381  -25.4005   21.1668 C   0  0  0  0  0  0  0  0  0  0  0  0
  -24.0750  -12.2174   20.4210 C   0  0  0  0  0  0  0  0  0  0  0  0
  -25.4376  -18.2833   18.0713 C   0  0  0  0  0  0  0  0  0  0  0  0
  -24.0322  -13.6205   20.5298 C   0  0  0  0  0  0  0  0  0  0  0  0
  -25.8596  -19.3323   18.9005 C   0  0  0  0  0  0  0  0  0  0  0  0
  -17.7178  -30.6255   23.7345 C   0  0  0  0  0  0  0  0  0  0  0  0
  -19.6079  -29.4837   22.7544 C   0  0  0  0  0  0  0  0  0  0  0  0
  -27.5269  -23.5299   25.8481 C   0  0  0  0  0  0  0  0  0  0  0  0
  -23.8435  -20.5699   18.3401 C   0  0  0  0  0  0  0  0  0  0  0  0
  -18.9183  -28.2738   22.8340 C   0  0  0  0  0  0  0  0  0  0  0  0
  -27.1282  -22.7295   28.0213 C   0  0  0  0  0  0  0  0  0  0  0  0
  -25.4521  -22.5732   30.2458 C   0  0  0  0  0  0  0  0  0  0  0  0
  -26.6704  -21.4884   28.4637 C   0  0  0  0  0  0  0  0  0  0  0  0
  -26.1760  -25.7706   22.5236 C   0  0  0  0  0  0  0  0  0  0  0  0
  -25.6753  -26.4588   20.4961 C   0  0  0  0  0  0  0  0  0  0  0  0
  -26.7578  -24.2067   20.5664 C   0  0  0  0  0  0  0  0  0  0  0  0
  -26.5697  -16.2945   20.2773 C   0  0  0  0  0  0  0  0  0  0  0  0
  -29.3120  -17.9647   19.8163 C   0  0  0  0  0  0  0  0  0  0  0  0
  -30.8043  -20.8613   18.8015 C   0  0  0  0  0  0  0  0  0  0  0  0
  -21.7298  -30.6594   22.0750 C   0  0  0  0  0  0  0  0  0  0  0  0
  -25.2336  -11.4150   20.9581 C   0  0  0  0  0  0  0  0  0  0  0  0
  -26.2966  -17.0618   17.8913 C   0  0  0  0  0  0  0  0  0  0  0  0
  -27.1573  -19.2682   19.6622 C   0  0  0  0  0  0  0  0  0  0  0  0
  -26.4888  -12.2480   21.2052 C   0  0  0  0  0  0  0  0  0  0  0  0
  -25.0264  -31.1912   20.8392 C   0  0  0  0  0  0  0  0  0  0  0  0
  -26.1383  -13.5351   21.9451 C   0  0  0  0  0  0  0  0  0  0  0  0
  -25.6991  -29.8262   21.0018 C   0  0  0  0  0  0  0  0  0  0  0  0
  -24.0694  -31.4926   21.9912 C   0  0  0  0  0  0  0  0  0  0  0  0
  -23.7379  -29.0885   22.4149 C   0  0  0  0  0  0  0  0  0  0  0  0
  -25.1852  -14.4053   21.1170 C   0  0  1  0  0  0  0  0  0  0  0  0
  -27.2574  -16.8305   19.0536 C   0  0  1  0  0  0  0  0  0  0  0  0
  -24.6620  -28.7123   21.2452 C   0  0  2  0  0  0  0  0  0  0  0  0
  -16.8857  -32.9159   23.0900 C   0  0  0  0  0  0  0  0  0  0  0  0
  -17.8407  -32.5226   25.3897 C   0  0  0  0  0  0  0  0  0  0  0  0
  -33.0576  -21.9426   18.5768 C   0  0  0  0  0  0  0  0  0  0  0  0
  -29.3823  -18.4389   22.8296 C   0  0  0  0  0  0  0  0  0  0  0  0
  -31.0526  -20.2614   22.4336 C   0  0  0  0  0  0  0  0  0  0  0  0
  -31.6015  -17.9107   21.8047 C   0  0  0  0  0  0  0  0  0  0  0  0
  -30.5048  -21.1445   15.8708 C   0  0  0  0  0  0  0  0  0  0  0  0
  -20.8569  -25.2276   22.9759 C   0  0  0  0  0  0  0  0  0  0  0  0
  -20.6746  -24.5873   21.6105 C   0  0  0  0  0  0  0  0  0  0  0  0
  -21.8201  -23.0862   19.9756 C   0  0  0  0  0  0  0  0  0  0  0  0
  -19.6501  -26.0725   23.3580 C   0  0  0  0  0  0  0  0  0  0  0  0
  -23.1304  -22.3652   19.7272 C   0  0  0  0  0  0  0  0  0  1  0  0
  -17.0753  -31.8821   24.2163 C   0  0  0  0  0  0  0  0  0  0  0  0
  -29.9241  -19.2037   20.4239 C   0  0  1  0  0  0  0  0  0  0  0  0
  -31.9850  -21.1178   17.8825 C   0  0  2  0  0  0  0  0  0  0  0  0
  -30.4647  -18.9544   21.8602 C   0  0  0  0  0  0  0  0  0  0  0  0
  -25.6180  -26.9704   22.7058 N   0  0  0  0  0  0  0  0  0  0  0  0
  -25.3244  -27.3634   21.4546 N   0  0  0  0  0  0  0  0  0  0  0  0
  -27.9592  -18.0504   19.4581 N   0  0  0  0  0  0  0  0  0  0  0  0
  -23.1134  -30.3961   22.1599 N   0  0  0  0  0  0  0  0  0  0  0  0
  -25.4515  -26.6946   19.1859 N   0  0  0  0  0  0  0  0  0  0  0  0
  -27.3000  -23.2203   21.4015 N   0  0  0  0  0  0  0  0  0  0  0  0
  -20.9189  -29.5341   22.2190 N   0  0  0  0  0  0  0  0  0  0  0  0
  -25.9107  -15.0972   20.0732 N   0  0  0  0  0  0  0  0  0  0  0  0
  -30.9334  -19.6665   19.4776 N   0  0  0  0  0  0  0  0  0  0  0  0
  -31.5427  -21.8525   16.6637 N   0  3  0  0  0  0  0  0  0  0  0  0
  -21.8978  -23.8126   21.2681 N   0  3  0  0  0  0  0  0  0  0  0  0
  -26.7568  -24.0274   19.3249 O   0  0  0  0  0  0  0  0  0  0  0  0
  -26.6336  -16.9200   21.3291 O   0  0  0  0  0  0  0  0  0  0  0  0
  -30.0104  -16.9602   19.6585 O   0  0  0  0  0  0  0  0  0  0  0  0
  -29.8634  -21.6444   18.9116 O   0  0  0  0  0  0  0  0  0  0  0  0
  -21.2972  -31.7948   21.8612 O   0  0  0  0  0  0  0  0  0  0  0  0
  -27.9610  -22.8087   26.9177 O   0  0  0  0  0  0  0  0  0  0  0  0
  -23.0692  -21.6806   18.4767 O   0  0  0  0  0  0  0  0  0  1  0  0
  -19.4902  -27.1071   22.3972 O   0  0  0  0  0  0  0  0  0  0  0  0
  -24.6485  -22.4981   31.3148 F   0  0  0  0  0  0  0  0  0  0  0  0
  -27.0332  -20.3677   27.8249 F   0  0  0  0  0  0  0  0  0  0  0  0
  1  2  1  0  0  0  0
  1  5  2  0  0  0  0
  2  6  2  0  0  0  0
  3  9  2  0  0  0  0
  3 18  1  0  0  0  0
  4 10  1  0  0  0  0
  4 18  2  0  0  0  0
  5 20  1  0  0  0  0
  6 22  1  0  0  0  0
  7 11  2  0  0  0  0
  7 21  1  0  0  0  0
  8 12  2  0  0  0  0
  8 24  1  0  0  0  0
  9 26  1  0  0  0  0
 10 26  2  0  0  0  0
 11 27  1  0  0  0  0
 12 28  1  0  0  0  0
 13 14  2  0  0  0  0
 13 29  1  0  0  0  0
 14 30  1  0  0  0  0
 15 23  1  0  0  0  0
 15 27  2  0  0  0  0
 16 24  2  0  0  0  0
 16 25  1  0  0  0  0
 17 30  2  0  0  0  0
 17 31  1  0  0  0  0
 18 32  1  0  0  0  0
 19 32  1  0  0  0  0
 19 33  2  0  0  0  0
 19 34  1  0  0  0  0
 20 22  2  0  0  0  0
 20 39  1  0  0  0  0
 21 23  2  0  0  0  0
 21 40  1  0  0  0  0
 22 48  1  0  0  0  0
 23 41  1  0  0  0  0
 24 63  1  0  0  0  0
 25 28  2  0  0  0  0
 25 73  1  0  0  0  0
 26 83  1  0  0  0  0
 27 84  1  0  0  0  0
 28 85  1  0  0  0  0
 29 31  2  0  0  0  0
 29 83  1  0  0  0  0
 30 86  1  0  0  0  0
 31 87  1  0  0  0  0
 32 67  2  0  0  0  0
 33 68  1  0  0  0  0
 33 71  1  0  0  0  0
 34 72  1  0  0  0  0
 34 78  2  0  0  0  0
 35 49  1  0  0  0  0
 35 74  1  0  0  0  0
 35 79  2  0  0  0  0
 36 64  1  0  0  0  0
 36 69  1  0  0  0  0
 36 80  2  0  0  0  0
 37 65  1  0  0  0  0
 37 75  1  0  0  0  0
 37 81  2  0  0  0  0
 38 70  1  0  0  0  0
 38 73  1  0  0  0  0
 38 82  2  0  0  0  0
 39 42  1  0  0  0  0
 40 49  1  0  0  0  0
 41 69  1  0  0  0  0
 42 44  1  0  0  0  0
 43 45  1  0  0  0  0
 43 46  1  0  0  0  0
 44 48  1  0  0  0  0
 45 50  1  0  0  0  0
 46 70  1  0  0  0  0
 47 50  1  0  0  0  0
 47 70  1  0  0  0  0
 48 74  1  0  0  0  0
 49 69  1  0  0  0  0
 50 68  1  0  0  0  0
 51 63  1  0  0  0  0
 52 63  1  0  0  0  0
 53 65  1  0  0  0  0
 54 66  1  0  0  0  0
 55 66  1  0  0  0  0
 56 66  1  0  0  0  0
 57 76  1  0  0  0  0
 58 59  1  0  0  0  0
 58 61  1  0  0  0  0
 59 77  1  0  0  0  0
 60 62  1  0  0  0  0
 60 77  1  0  0  0  0
 61 85  1  0  0  0  0
 62 84  1  0  0  0  0
 64 66  1  0  0  0  0
 64 75  1  0  0  0  0
 65 76  1  0  0  0  0
 67 68  1  0  0  0  0
M  CHG  2  76   1  77   1
M  ISO  4  38 100  62 101  73 100  84 101
M  END
> <Batch ID>
0139

> <Smiles>
CNC(C)C(=O)NC(C(=O)N1Cc2cc([101O:1][101CH2:1]CNCCCOc3ccc(C(C)C)cc3[100NH:0][100C:0](=O)N3CCCC(n4nc(-c5ccc(Oc6ccc(F)cc6F)cc5)c(C(N)=O)c4N)C3)ccc2CC1C(=O)NC1CCCc2ccccc21)C(C)(C)C

> <Shape>
0.197

> <Color>
0.079

> <Negative vol penalty>
0.000

$$$$

  -OEChem-04052321103D

 83 92  0     1  0  0  0  0  0999 V2000
  -31.8888  -14.9965   18.2775 C   0  0  0  0  0  0  0  0  0  0  0  0
  -30.8545  -15.9233   18.1964 C   0  0  0  0  0  0  0  0  0  0  0  0
  -29.0210  -26.6684   19.9251 C   0  0  0  0  0  0  0  0  0  0  0  0
  -27.2315  -25.2984   19.0546 C   0  0  0  0  0  0  0  0  0  0  0  0
  -31.6359  -13.7116   18.7561 C   0  0  0  0  0  0  0  0  0  0  0  0
  -29.5664  -15.5655   18.5928 C   0  0  0  0  0  0  0  0  0  0  0  0
  -25.4097  -19.1667   21.2870 C   0  0  0  0  0  0  0  0  0  0  0  0
  -29.9289  -25.6382   19.6802 C   0  0  0  0  0  0  0  0  0  0  0  0
  -28.1394  -24.2682   18.8097 C   0  0  0  0  0  0  0  0  0  0  0  0
  -24.3162  -19.8730   20.7879 C   0  0  0  0  0  0  0  0  0  0  0  0
  -29.7188  -21.8645   20.5869 C   0  0  0  0  0  0  0  0  0  0  0  0
  -29.3490  -20.5724   20.9602 C   0  0  0  0  0  0  0  0  0  0  0  0
  -22.8644  -18.0466   21.4011 C   0  0  0  0  0  0  0  0  0  0  0  0
  -29.5536  -19.8504   18.6637 C   0  0  0  0  0  0  0  0  0  0  0  0
  -27.6723  -26.4985   19.6124 C   0  0  0  0  0  0  0  0  0  0  0  0
  -26.3670  -28.5992   18.9872 C   0  0  0  0  0  0  0  0  0  0  0  0
  -30.3461  -13.3408   19.1677 C   0  0  0  0  0  0  0  0  0  0  0  0
  -25.2401  -17.8884   21.8379 C   0  0  0  0  0  0  0  0  0  0  0  0
  -29.2958  -14.2740   19.0761 C   0  0  0  0  0  0  0  0  0  0  0  0
  -23.9570  -17.3273   21.9088 C   0  0  0  0  0  0  0  0  0  0  0  0
  -29.4881  -24.4381   19.1225 C   0  0  0  0  0  0  0  0  0  0  0  0
  -23.0437  -19.3118   20.8423 C   0  0  0  0  0  0  0  0  0  0  0  0
  -30.0060  -22.1496   19.2520 C   0  0  0  0  0  0  0  0  0  0  0  0
  -29.2664  -19.5654   19.9986 C   0  0  0  0  0  0  0  0  0  0  0  0
  -29.9234  -21.1425   18.2904 C   0  0  0  0  0  0  0  0  0  0  0  0
  -26.7339  -27.5622   19.8656 C   0  0  0  0  0  0  0  0  0  0  0  0
  -25.4533  -29.3415   19.6948 C   0  0  0  0  0  0  0  0  0  0  0  0
  -26.8121  -28.8675   17.6509 C   0  0  0  0  0  0  0  0  0  0  0  0
  -26.3009  -14.9786   21.1224 C   0  0  0  0  0  0  0  0  0  0  0  0
  -24.8328  -14.1836   23.9036 C   0  0  0  0  0  0  0  0  0  0  0  0
  -22.4410  -14.9088   26.2275 C   0  0  0  0  0  0  0  0  0  0  0  0
  -21.7291  -28.1891   24.0782 C   0  0  0  0  0  0  0  0  0  0  0  0
  -30.1115  -11.9257   19.6337 C   0  0  0  0  0  0  0  0  0  0  0  0
  -26.4260  -17.1506   22.3963 C   0  0  0  0  0  0  0  0  0  0  0  0
  -23.7186  -15.9665   22.5088 C   0  0  0  0  0  0  0  0  0  0  0  0
  -28.7957  -11.7422   20.3856 C   0  0  0  0  0  0  0  0  0  0  0  0
  -24.2508  -30.5531   24.1586 C   0  0  0  0  0  0  0  0  0  0  0  0
  -27.6535  -12.4206   19.6361 C   0  0  0  0  0  0  0  0  0  0  0  0
  -19.1522  -23.7603   19.0300 C   0  0  0  0  0  0  0  0  0  0  0  0
  -18.8185  -25.0704   19.6872 C   0  0  0  0  0  0  0  0  0  0  0  0
  -25.1469  -30.1678   22.9817 C   0  0  0  0  0  0  0  0  0  0  0  0
  -19.3391  -25.7226   22.6885 C   0  0  0  0  0  0  0  0  0  0  0  0
  -21.6541  -24.7284   22.6516 C   0  0  0  0  0  0  0  0  0  0  0  0
  -23.7725  -29.3152   24.9087 C   0  0  0  0  0  0  0  0  0  0  0  0
  -19.7922  -26.6900   23.7785 C   0  0  0  0  0  0  0  0  0  0  0  0
  -22.0617  -25.7100   23.7453 C   0  0  0  0  0  0  0  0  0  0  0  0
  -23.9402  -27.9320   22.8656 C   0  0  0  0  0  0  0  0  0  0  0  0
  -27.8902  -13.9312   19.5199 C   0  0  1  0  0  0  0  0  0  0  0  0
  -26.2117  -15.6419   22.4677 C   0  0  1  0  0  0  0  0  0  0  0  0
  -19.9200  -24.2104   20.2420 C   0  0  0  0  0  0  0  0  0  0  0  0
  -20.1516  -24.4214   22.7110 C   0  0  0  0  0  0  0  0  0  0  0  0
  -24.4474  -29.1484   22.0651 C   0  0  2  0  0  0  0  0  0  0  0  0
  -21.4532  -14.0545   28.3703 C   0  0  0  0  0  0  0  0  0  0  0  0
  -23.3302  -12.0302   22.3495 C   0  0  0  0  0  0  0  0  0  0  0  0
  -21.7227  -11.8699   24.2621 C   0  0  0  0  0  0  0  0  0  0  0  0
  -24.1307  -11.3189   24.6095 C   0  0  0  0  0  0  0  0  0  0  0  0
  -23.2110  -17.3606   27.6954 C   0  0  0  0  0  0  0  0  0  0  0  0
  -19.8695  -21.0250   20.8972 C   0  0  0  0  0  0  0  0  0  0  0  0
  -20.5429  -22.1877   21.6292 C   0  0  0  0  0  0  0  0  0  0  0  0
  -20.7110  -19.7573   20.9692 C   0  0  0  0  0  0  0  0  0  1  0  0
  -23.4450  -13.7311   24.2885 C   0  0  1  0  0  0  0  0  0  0  0  0
  -22.4947  -14.9683   27.7434 C   0  0  2  0  0  0  0  0  0  0  0  0
  -19.7391  -23.5025   21.5637 C   0  0  2  0  0  0  0  0  0  0  0  0
  -23.1616  -12.2624   23.8643 C   0  0  0  0  0  0  0  0  0  0  0  0
  -26.1049  -27.6358   21.0416 N   0  0  0  0  0  0  0  0  0  0  0  0
  -25.3335  -28.7281   20.9070 N   0  0  0  0  0  0  0  0  0  0  0  0
  -24.9108  -15.2821   23.0357 N   0  0  0  0  0  0  0  0  0  0  0  0
  -23.1183  -28.3705   24.0034 N   0  0  0  0  0  0  0  0  0  0  0  0
  -21.2345  -26.9238   23.7210 N   0  0  0  0  0  0  0  0  0  0  0  0
  -24.7489  -30.4526   19.3922 N   0  0  0  0  0  0  0  0  0  0  0  0
  -27.7541  -28.0045   17.0746 N   0  0  0  0  0  0  0  0  0  0  0  0
  -27.5793  -14.5892   20.7709 N   0  0  0  0  0  0  0  0  0  0  0  0
  -23.3193  -13.9739   25.7216 N   0  0  0  0  0  0  0  0  0  0  0  0
  -22.2451  -16.3593   28.2164 N   0  3  0  0  0  0  0  0  0  0  0  0
  -26.3994  -29.8530   16.9936 O   0  0  0  0  0  0  0  0  0  0  0  0
  -25.2850  -14.8298   20.4536 O   0  0  0  0  0  0  0  0  0  0  0  0
  -25.8116  -13.5891   24.3619 O   0  0  0  0  0  0  0  0  0  0  0  0
  -21.6920  -15.6180   25.5591 O   0  0  0  0  0  0  0  0  0  0  0  0
  -20.9740  -29.1012   24.4372 O   0  0  0  0  0  0  0  0  0  0  0  0
  -30.3738  -23.4327   18.8831 O   0  0  0  0  0  0  0  0  0  0  0  0
  -21.9668  -20.0038   20.3517 O   0  0  0  0  0  0  0  0  0  1  0  0
  -28.9127  -18.3243   20.3575 F   0  0  0  0  0  0  0  0  0  0  0  0
  -30.1992  -21.4101   17.0066 F   0  0  0  0  0  0  0  0  0  0  0  0
  1  2  1  0  0  0  0
  1  5  2  0  0  0  0
  2  6  2  0  0  0  0
  3  8  2  0  0  0  0
  3 15  1  0  0  0  0
  4  9  1  0  0  0  0
  4 15  2  0  0  0  0
  5 17  1  0  0  0  0
  6 19  1  0  0  0  0
  7 10  2  0  0  0  0
  7 18  1  0  0  0  0
  8 21  1  0  0  0  0
  9 21  2  0  0  0  0
 10 22  1  0  0  0  0
 11 12  2  0  0  0  0
 11 23  1  0  0  0  0
 12 24  1  0  0  0  0
 13 20  1  0  0  0  0
 13 22  2  0  0  0  0
 14 24  2  0  0  0  0
 14 25  1  0  0  0  0
 15 26  1  0  0  0  0
 16 26  1  0  0  0  0
 16 27  2  0  0  0  0
 16 28  1  0  0  0  0
 17 19  2  0  0  0  0
 17 33  1  0  0  0  0
 18 20  2  0  0  0  0
 18 34  1  0  0  0  0
 19 48  1  0  0  0  0
 20 35  1  0  0  0  0
 21 80  1  0  0  0  0
 22 81  1  0  0  0  0
 23 25  2  0  0  0  0
 23 80  1  0  0  0  0
 24 82  1  0  0  0  0
 25 83  1  0  0  0  0
 26 65  2  0  0  0  0
 27 66  1  0  0  0  0
 27 70  1  0  0  0  0
 28 71  1  0  0  0  0
 28 75  2  0  0  0  0
 29 49  1  0  0  0  0
 29 72  1  0  0  0  0
 29 76  2  0  0  0  0
 30 61  1  0  0  0  0
 30 67  1  0  0  0  0
 30 77  2  0  0  0  0
 31 62  1  0  0  0  0
 31 73  1  0  0  0  0
 31 78  2  0  0  0  0
 32 68  1  0  0  0  0
 32 69  1  0  0  0  0
 32 79  2  0  0  0  0
 33 36  1  0  0  0  0
 34 49  1  0  0  0  0
 35 67  1  0  0  0  0
 36 38  1  0  0  0  0
 37 41  1  0  0  0  0
 37 44  1  0  0  0  0
 38 48  1  0  0  0  0
 39 40  1  0  0  0  0
 39 50  1  0  0  0  0
 40 50  1  0  0  0  0
 41 52  1  0  0  0  0
 42 45  1  0  0  0  0
 42 51  1  0  0  0  0
 43 46  1  0  0  0  0
 43 51  1  0  0  0  0
 44 68  1  0  0  0  0
 45 69  1  0  0  0  0
 46 69  1  0  0  0  0
 47 52  1  0  0  0  0
 47 68  1  0  0  0  0
 48 72  1  0  0  0  0
 49 67  1  0  0  0  0
 50 63  1  0  0  0  0
 51 63  1  0  0  0  0
 52 66  1  0  0  0  0
 53 62  1  0  0  0  0
 54 64  1  0  0  0  0
 55 64  1  0  0  0  0
 56 64  1  0  0  0  0
 57 74  1  0  0  0  0
 58 59  1  0  0  0  0
 58 60  1  0  0  0  0
 59 63  1  0  0  0  0
 60 81  1  0  0  0  0
 61 64  1  0  0  0  0
 61 73  1  0  0  0  0
 62 74  1  0  0  0  0
 65 66  1  0  0  0  0
M  CHG  1  74   1
M  ISO  4  32 100  60 101  69 100  81 101
M  END
> <Batch ID>
0139

> <Smiles>
CNC(C)C(=O)NC(C(=O)N1Cc2cc([101O:1][101CH2:1]CCC(C3CC3)C3CC[100N:0]([100C:0](=O)N4CCCC(n5nc(-c6ccc(Oc7ccc(F)cc7F)cc6)c(C(N)=O)c5N)C4)CC3)ccc2CC1C(=O)NC1CCCc2ccccc21)C(C)(C)C

> <Shape>
0.199

> <Color>
0.059

> <Negative vol penalty>
0.000

$$$$

  -OEChem-04052321103D

 87 96  0     1  0  0  0  0  0999 V2000
  -31.9817  -28.0891   15.4116 C   0  0  0  0  0  0  0  0  0  0  0  0
  -31.1914  -27.2812   16.2230 C   0  0  0  0  0  0  0  0  0  0  0  0
  -23.0083   -9.9810   20.2793 C   0  0  0  0  0  0  0  0  0  0  0  0
  -24.3308   -9.0889   22.0938 C   0  0  0  0  0  0  0  0  0  0  0  0
  -32.3682  -29.3536   15.8539 C   0  0  0  0  0  0  0  0  0  0  0  0
  -30.7881  -27.7370   17.4776 C   0  0  0  0  0  0  0  0  0  0  0  0
  -25.8936  -26.8188   18.3970 C   0  0  0  0  0  0  0  0  0  0  0  0
  -22.2531   -8.8086   20.2533 C   0  0  0  0  0  0  0  0  0  0  0  0
  -23.5755   -7.9165   22.0679 C   0  0  0  0  0  0  0  0  0  0  0  0
  -25.5478  -25.5195   18.7658 C   0  0  0  0  0  0  0  0  0  0  0  0
  -20.5532   -6.8778   23.1665 C   0  0  0  0  0  0  0  0  0  0  0  0
  -20.1230   -6.3587   24.3876 C   0  0  0  0  0  0  0  0  0  0  0  0
  -25.4729  -26.2024   21.0782 C   0  0  0  0  0  0  0  0  0  0  0  0
  -29.6581  -19.3522   21.3429 C   0  0  0  0  0  0  0  0  0  0  0  0
  -27.6798  -18.1020   21.9430 C   0  0  0  0  0  0  0  0  0  0  0  0
  -21.3322   -4.3145   23.9446 C   0  0  0  0  0  0  0  0  0  0  0  0
  -24.0472  -10.1211   21.1995 C   0  0  0  0  0  0  0  0  0  0  0  0
  -24.5730  -12.4913   21.9827 C   0  0  0  0  0  0  0  0  0  0  0  0
  -31.9614  -29.8289   17.1105 C   0  0  0  0  0  0  0  0  0  0  0  0
  -26.0425  -27.8188   19.3687 C   0  0  0  0  0  0  0  0  0  0  0  0
  -31.1707  -29.0085   17.9376 C   0  0  0  0  0  0  0  0  0  0  0  0
  -25.8181  -27.5141   20.7189 C   0  0  0  0  0  0  0  0  0  0  0  0
  -27.4946  -20.0481   20.5235 C   0  0  0  0  0  0  0  0  0  0  0  0
  -28.8752  -20.2329   20.5966 C   0  0  0  0  0  0  0  0  0  0  0  0
  -26.8969  -18.9827   21.1967 C   0  0  0  0  0  0  0  0  0  0  0  0
  -22.5366   -7.7764   21.1476 C   0  0  0  0  0  0  0  0  0  0  0  0
  -25.3403  -25.2104   20.1069 C   0  0  0  0  0  0  0  0  0  0  0  0
  -21.3728   -6.1152   22.3344 C   0  0  0  0  0  0  0  0  0  0  0  0
  -29.0605  -18.2867   22.0161 C   0  0  0  0  0  0  0  0  0  0  0  0
  -20.5125   -5.0771   24.7767 C   0  0  0  0  0  0  0  0  0  0  0  0
  -21.7623   -4.8336   22.7234 C   0  0  0  0  0  0  0  0  0  0  0  0
  -24.8282  -11.3317   21.2264 C   0  0  0  0  0  0  0  0  0  0  0  0
  -25.5977  -13.3460   21.6572 C   0  0  0  0  0  0  0  0  0  0  0  0
  -23.5052  -12.7709   22.8978 C   0  0  0  0  0  0  0  0  0  0  0  0
  -28.4446  -29.6568   20.3461 C   0  0  0  0  0  0  0  0  0  0  0  0
  -26.1333  -31.0480   22.1475 C   0  0  0  0  0  0  0  0  0  0  0  0
  -23.0933  -30.7759   23.6743 C   0  0  0  0  0  0  0  0  0  0  0  0
  -31.0137  -14.3191   20.7268 C   0  0  0  0  0  0  0  0  0  0  0  0
  -32.4434  -31.1838   17.5650 C   0  0  0  0  0  0  0  0  0  0  0  0
  -26.3897  -29.2217   18.9518 C   0  0  0  0  0  0  0  0  0  0  0  0
  -25.9455  -28.5563   21.7987 C   0  0  0  0  0  0  0  0  0  0  0  0
  -31.6625  -31.7415   18.7521 C   0  0  0  0  0  0  0  0  0  0  0  0
  -29.0893  -13.0607   18.0084 C   0  0  0  0  0  0  0  0  0  0  0  0
  -31.4908  -30.6733   19.8275 C   0  0  0  0  0  0  0  0  0  0  0  0
  -27.7915  -12.5889   18.6664 C   0  0  0  0  0  0  0  0  0  0  0  0
  -25.2446  -21.4283   20.2693 C   0  0  0  0  0  0  0  0  0  0  0  0
  -30.3009  -12.8034   18.9016 C   0  0  0  0  0  0  0  0  0  0  0  0
  -28.8945  -12.8815   20.9239 C   0  0  0  0  0  0  0  0  0  0  0  0
  -26.6327  -21.0173   19.7019 C   0  0  1  0  0  0  0  0  0  0  0  0
  -30.6925  -29.4774   19.2946 C   0  0  1  0  0  0  0  0  0  0  0  0
  -27.0174  -30.0408   20.0754 C   0  0  1  0  0  0  0  0  0  0  0  0
  -27.6382  -13.1706   20.0847 C   0  0  2  0  0  0  0  0  0  0  0  0
  -25.4714  -22.8310   19.6711 C   0  0  2  0  0  0  0  0  0  1  0  0
  -26.9908  -22.5364   19.7422 C   0  0  2  0  0  0  0  0  0  0  0  0
  -29.5364  -21.3661   19.8840 C   0  0  0  0  0  0  0  0  0  0  0  0
  -25.4209  -18.7658   21.1324 C   0  0  0  0  0  0  0  0  0  0  0  0
  -21.4846  -32.0660   25.1043 C   0  0  0  0  0  0  0  0  0  0  0  0
  -27.9160  -30.5725   24.5776 C   0  0  0  0  0  0  0  0  0  0  0  0
  -25.9219  -30.9855   26.0341 C   0  0  0  0  0  0  0  0  0  0  0  0
  -26.7712  -32.7957   24.5426 C   0  0  0  0  0  0  0  0  0  0  0  0
  -20.9710  -30.6355   21.6164 C   0  0  0  0  0  0  0  0  0  0  0  0
  -31.5897  -15.7991   22.6338 C   0  0  0  0  0  0  0  0  0  0  0  0
  -31.1660  -17.2197   22.3059 C   0  0  0  0  0  0  0  0  0  0  0  0
  -25.5695  -30.8160   23.5285 C   0  0  1  0  0  0  0  0  0  0  0  0
  -21.8855  -31.6954   23.6850 C   0  0  2  0  0  0  0  0  0  0  0  0
  -26.5441  -31.2721   24.6508 C   0  0  0  0  0  0  0  0  0  0  0  0
  -25.9286  -11.4369   20.4767 N   0  0  0  0  0  0  0  0  0  0  0  0
  -26.3739  -12.6727   20.7603 N   0  0  0  0  0  0  0  0  0  0  0  0
  -26.2930  -29.9119   21.3415 N   0  0  0  0  0  0  0  0  0  0  0  0
  -30.0923  -13.3818   20.2312 N   0  0  0  0  0  0  0  0  0  0  0  0
  -25.9014  -14.6002   22.0534 N   0  0  0  0  0  0  0  0  0  0  0  0
  -22.5366  -11.7818   23.1166 N   0  0  0  0  0  0  0  0  0  0  0  0
  -29.2801  -29.7905   19.2537 N   0  0  0  0  0  0  0  0  0  0  0  0
  -24.2718  -31.4820   23.5569 N   0  0  0  0  0  0  0  0  0  0  0  0
  -30.7380  -14.8226   21.9922 N   0  0  0  0  0  0  0  0  0  0  0  0
  -20.7243  -31.0330   23.0264 N   0  3  0  0  0  0  0  0  0  0  0  0
  -23.4037  -13.8714   23.4911 O   0  0  0  0  0  0  0  0  0  0  0  0
  -28.7644  -29.2693   21.4639 O   0  0  0  0  0  0  0  0  0  0  0  0
  -26.4147  -32.1959   21.7942 O   0  0  0  0  0  0  0  0  0  0  0  0
  -23.0008  -29.5537   23.7652 O   0  0  0  0  0  0  0  0  0  0  0  0
  -32.0055  -14.6844   20.0866 O   0  0  0  0  0  0  0  0  0  0  0  0
  -27.7785  -23.0198   18.6397 O   0  0  0  0  0  0  0  0  0  0  0  0
  -21.7997   -6.6323   21.1228 O   0  0  0  0  0  0  0  0  0  0  0  0
  -25.0034  -23.9429   20.4697 O   0  0  0  0  0  0  0  0  0  1  0  0
  -29.8243  -17.4272   22.7446 O   0  0  0  0  0  0  0  0  0  0  0  0
  -20.1006   -4.5793   25.9500 F   0  0  0  0  0  0  0  0  0  0  0  0
  -22.5506   -4.0968   21.9288 F   0  0  0  0  0  0  0  0  0  0  0  0
  1  2  1  0  0  0  0
  1  5  2  0  0  0  0
  2  6  2  0  0  0  0
  3  8  2  0  0  0  0
  3 17  1  0  0  0  0
  4  9  1  0  0  0  0
  4 17  2  0  0  0  0
  5 19  1  0  0  0  0
  6 21  1  0  0  0  0
  7 10  2  0  0  0  0
  7 20  1  0  0  0  0
  8 26  1  0  0  0  0
  9 26  2  0  0  0  0
 10 27  1  0  0  0  0
 11 12  2  0  0  0  0
 11 28  1  0  0  0  0
 12 30  1  0  0  0  0
 13 22  1  0  0  0  0
 13 27  2  0  0  0  0
 14 24  2  0  0  0  0
 14 29  1  0  0  0  0
 15 25  1  0  0  0  0
 15 29  2  0  0  0  0
 16 30  2  0  0  0  0
 16 31  1  0  0  0  0
 17 32  1  0  0  0  0
 18 32  1  0  0  0  0
 18 33  2  0  0  0  0
 18 34  1  0  0  0  0
 19 21  2  0  0  0  0
 19 39  1  0  0  0  0
 20 22  2  0  0  0  0
 20 40  1  0  0  0  0
 21 50  1  0  0  0  0
 22 41  1  0  0  0  0
 23 24  1  0  0  0  0
 23 25  2  0  0  0  0
 23 49  1  0  0  0  0
 24 55  1  0  0  0  0
 25 56  1  0  0  0  0
 26 83  1  0  0  0  0
 27 84  1  0  0  0  0
 28 31  2  0  0  0  0
 28 83  1  0  0  0  0
 29 85  1  0  0  0  0
 30 86  1  0  0  0  0
 31 87  1  0  0  0  0
 32 67  2  0  0  0  0
 33 68  1  0  0  0  0
 33 71  1  0  0  0  0
 34 72  1  0  0  0  0
 34 77  2  0  0  0  0
 35 51  1  0  0  0  0
 35 73  1  0  0  0  0
 35 78  2  0  0  0  0
 36 64  1  0  0  0  0
 36 69  1  0  0  0  0
 36 79  2  0  0  0  0
 37 65  1  0  0  0  0
 37 74  1  0  0  0  0
 37 80  2  0  0  0  0
 38 70  1  0  0  0  0
 38 75  1  0  0  0  0
 38 81  2  0  0  0  0
 39 42  1  0  0  0  0
 40 51  1  0  0  0  0
 41 69  1  0  0  0  0
 42 44  1  0  0  0  0
 43 45  1  0  0  0  0
 43 47  1  0  0  0  0
 44 50  1  0  0  0  0
 45 52  1  0  0  0  0
 46 49  1  0  0  0  0
 46 53  1  0  0  0  0
 47 70  1  0  0  0  0
 48 52  1  0  0  0  0
 48 70  1  0  0  0  0
 49 54  1  0  0  0  0
 50 73  1  0  0  0  0
 51 69  1  0  0  0  0
 52 68  1  0  0  0  0
 53 54  1  0  0  0  0
 53 84  1  0  0  0  0
 54 82  1  0  0  0  0
 57 65  1  0  0  0  0
 58 66  1  0  0  0  0
 59 66  1  0  0  0  0
 60 66  1  0  0  0  0
 61 76  1  0  0  0  0
 62 63  1  0  0  0  0
 62 75  1  0  0  0  0
 63 85  1  0  0  0  0
 64 66  1  0  0  0  0
 64 74  1  0  0  0  0
 65 76  1  0  0  0  0
 67 68  1  0  0  0  0
M  CHG  1  76   1
M  ISO  4  38 100  53 101  75 100  84 101
M  END
> <Batch ID>
0139

> <Smiles>
CNC(C)C(=O)NC(C(=O)N1Cc2cc([101O:1][101CH:1]3CC(c4c(C)cc(OCC[100NH:0][100C:0](=O)N5CCCC(n6nc(-c7ccc(Oc8ccc(F)cc8F)cc7)c(C(N)=O)c6N)C5)cc4C)C3O)ccc2CC1C(=O)NC1CCCc2ccccc21)C(C)(C)C

> <Shape>
0.327

> <Color>
0.159

> <Negative vol penalty>
0.000

$$$$

  -OEChem-04052321103D

 88 96  0     1  0  0  0  0  0999 V2000
  -20.0921   -9.1847   19.0122 C   0  0  0  0  0  0  0  0  0  0  0  0
  -20.1179  -10.5345   19.3479 C   0  0  0  0  0  0  0  0  0  0  0  0
  -28.8778  -25.9508   20.7047 C   0  0  0  0  0  0  0  0  0  0  0  0
  -27.1771  -25.9935   18.9893 C   0  0  0  0  0  0  0  0  0  0  0  0
  -21.0574   -8.3208   19.5278 C   0  0  0  0  0  0  0  0  0  0  0  0
  -21.1085  -11.0211   20.2002 C   0  0  0  0  0  0  0  0  0  0  0  0
  -23.1319  -15.3602   18.5502 C   0  0  0  0  0  0  0  0  0  0  0  0
  -29.3565  -24.7418   20.2001 C   0  0  0  0  0  0  0  0  0  0  0  0
  -27.6558  -24.7845   18.4846 C   0  0  0  0  0  0  0  0  0  0  0  0
  -22.3938  -16.5252   18.7547 C   0  0  0  0  0  0  0  0  0  0  0  0
  -20.6186  -23.2835   20.0280 C   0  0  0  0  0  0  0  0  0  0  0  0
  -20.0649  -24.5440   20.2515 C   0  0  0  0  0  0  0  0  0  0  0  0
  -28.2027  -21.5292   16.9634 C   0  0  0  0  0  0  0  0  0  0  0  0
  -27.2673  -20.5481   16.6344 C   0  0  0  0  0  0  0  0  0  0  0  0
  -23.7606  -17.0472   20.6727 C   0  0  0  0  0  0  0  0  0  0  0  0
  -19.1048  -22.3305   21.6519 C   0  0  0  0  0  0  0  0  0  0  0  0
  -26.4944  -20.5176   18.9233 C   0  0  0  0  0  0  0  0  0  0  0  0
  -27.7880  -26.5767   20.0994 C   0  0  0  0  0  0  0  0  0  0  0  0
  -27.6981  -29.1216   20.2505 C   0  0  0  0  0  0  0  0  0  0  0  0
  -22.0661   -8.7987   20.3791 C   0  0  0  0  0  0  0  0  0  0  0  0
  -24.1846  -15.0239   19.4133 C   0  0  0  0  0  0  0  0  0  0  0  0
  -22.0874  -10.1625   20.7287 C   0  0  0  0  0  0  0  0  0  0  0  0
  -24.5121  -15.8787   20.4754 C   0  0  0  0  0  0  0  0  0  0  0  0
  -18.5510  -23.5911   21.8754 C   0  0  0  0  0  0  0  0  0  0  0  0
  -28.7456  -24.1586   19.0900 C   0  0  0  0  0  0  0  0  0  0  0  0
  -22.7063  -17.3675   19.8178 C   0  0  0  0  0  0  0  0  0  0  0  0
  -20.1385  -22.1767   20.7281 C   0  0  0  0  0  0  0  0  0  0  0  0
  -19.0311  -24.6978   21.1752 C   0  0  0  0  0  0  0  0  0  0  0  0
  -28.2840  -22.0044   18.2723 C   0  0  0  0  0  0  0  0  0  0  0  0
  -26.4132  -20.0424   17.6144 C   0  0  0  0  0  0  0  0  0  0  0  0
  -27.4298  -21.4987   19.2522 C   0  0  0  0  0  0  0  0  0  0  0  0
  -27.2926  -27.8253   20.6206 C   0  0  0  0  0  0  0  0  0  0  0  0
  -26.9331  -29.9559   21.0285 C   0  0  0  0  0  0  0  0  0  0  0  0
  -28.6786  -29.5347   19.2894 C   0  0  0  0  0  0  0  0  0  0  0  0
  -24.7827  -12.6034   21.3849 C   0  0  0  0  0  0  0  0  0  0  0  0
  -27.6571  -14.0748   21.6935 C   0  0  0  0  0  0  0  0  0  0  0  0
  -29.4759  -16.9543   21.4764 C   0  0  0  0  0  0  0  0  0  0  0  0
  -21.6074  -29.3063   23.6867 C   0  0  0  0  0  0  0  0  0  0  0  0
  -23.0599   -7.8180   20.9493 C   0  0  0  0  0  0  0  0  0  0  0  0
  -24.9882  -13.7772   19.1632 C   0  0  0  0  0  0  0  0  0  0  0  0
  -25.6460  -15.5732   21.4186 C   0  0  0  0  0  0  0  0  0  0  0  0
  -24.2973   -8.4827   21.5470 C   0  0  0  0  0  0  0  0  0  0  0  0
  -24.6965  -30.1287   25.2544 C   0  0  0  0  0  0  0  0  0  0  0  0
  -23.8964   -9.6553   22.4364 C   0  0  0  0  0  0  0  0  0  0  0  0
  -25.7487  -29.7486   24.2112 C   0  0  0  0  0  0  0  0  0  0  0  0
  -23.5213  -29.1535   25.2520 C   0  0  0  0  0  0  0  0  0  0  0  0
  -23.9376  -28.5734   22.8932 C   0  0  0  0  0  0  0  0  0  0  0  0
  -23.1606  -10.7327   21.6305 C   0  0  1  0  0  0  0  0  0  0  0  0
  -25.7094  -13.2713   20.4088 C   0  0  1  0  0  0  0  0  0  0  0  0
  -25.1158  -29.5596   22.8195 C   0  0  2  0  0  0  0  0  0  0  0  0
  -18.9683  -24.1766   24.8799 C   0  0  0  0  0  0  0  0  0  0  0  0
  -16.1927  -22.9468   22.4358 C   0  0  0  0  0  0  0  0  0  0  0  0
  -31.7929  -17.8518   21.8272 C   0  0  0  0  0  0  0  0  0  0  0  0
  -27.2131  -14.0343   24.7119 C   0  0  0  0  0  0  0  0  0  0  0  0
  -29.0321  -15.7403   24.9323 C   0  0  0  0  0  0  0  0  0  0  0  0
  -29.5451  -13.4870   23.9931 C   0  0  0  0  0  0  0  0  0  0  0  0
  -29.7248  -17.7454   18.6354 C   0  0  0  0  0  0  0  0  0  0  0  0
  -17.8354  -23.3287   24.3143 C   0  0  0  0  0  0  0  0  0  0  0  0
  -18.9136  -28.1865   22.1057 C   0  0  0  0  0  0  0  0  0  0  0  0
  -19.7935  -29.4244   21.9970 C   0  0  0  0  0  0  0  0  0  0  0  0
  -19.3727  -27.0513   21.1987 C   0  0  0  0  0  0  0  0  0  0  0  0
  -22.6681  -19.6058   20.6205 C   0  0  0  0  0  0  0  0  0  1  0  0
  -22.0517  -20.8995   20.1246 C   0  0  0  0  0  0  0  0  0  0  0  0
  -17.4452  -23.7373   22.8679 C   0  0  1  0  0  0  0  0  0  0  0  0
  -28.2223  -15.1360   22.6063 C   0  0  1  0  0  0  0  0  0  0  0  0
  -30.8155  -17.2530   20.8278 C   0  0  2  0  0  0  0  0  0  0  0  0
  -28.4805  -14.6045   24.0445 C   0  0  0  0  0  0  0  0  0  0  0  0
  -26.3438  -27.8305   21.5607 N   0  0  0  0  0  0  0  0  0  0  0  0
  -26.1468  -29.1403   21.7879 N   0  0  0  0  0  0  0  0  0  0  0  0
  -26.3980  -14.3394   21.1362 N   0  0  0  0  0  0  0  0  0  0  0  0
  -22.9656  -29.0206   23.9031 N   0  0  0  0  0  0  0  0  0  0  0  0
  -26.8632  -31.3002   21.1303 N   0  0  0  0  0  0  0  0  0  0  0  0
  -29.3733  -28.5476   18.5771 N   0  0  0  0  0  0  0  0  0  0  0  0
  -24.1013  -11.5204   20.8630 N   0  0  0  0  0  0  0  0  0  0  0  0
  -29.4107  -15.6572   21.9396 N   0  0  0  0  0  0  0  0  0  0  0  0
  -21.1633  -29.1611   22.3781 N   0  0  0  0  0  0  0  0  0  0  0  0
  -30.6435  -18.2163   19.7037 N   0  3  0  0  0  0  0  0  0  0  0  0
  -28.9428  -30.7430   19.0805 O   0  0  0  0  0  0  0  0  0  0  0  0
  -24.6936  -13.0374   22.5274 O   0  0  0  0  0  0  0  0  0  0  0  0
  -28.3118  -13.0520   21.4770 O   0  0  0  0  0  0  0  0  0  0  0  0
  -28.5786  -17.7892   21.5666 O   0  0  0  0  0  0  0  0  0  0  0  0
  -20.8482  -29.6694   24.5915 O   0  0  0  0  0  0  0  0  0  0  0  0
  -29.2126  -22.9790   18.5971 O   0  0  0  0  0  0  0  0  0  0  0  0
  -21.9871  -18.5049   20.0200 O   0  0  0  0  0  0  0  0  0  1  0  0
  -20.6825  -20.9386   20.5079 O   0  0  0  0  0  0  0  0  0  0  0  0
  -18.5025  -25.9364   21.3823 O   0  0  0  0  0  0  0  0  0  0  0  0
  -25.5140  -19.1014   17.2980 F   0  0  0  0  0  0  0  0  0  0  0  0
  -27.5024  -21.9522   20.5111 F   0  0  0  0  0  0  0  0  0  0  0  0
  1  2  1  0  0  0  0
  1  5  2  0  0  0  0
  2  6  2  0  0  0  0
  3  8  2  0  0  0  0
  3 18  1  0  0  0  0
  4  9  1  0  0  0  0
  4 18  2  0  0  0  0
  5 20  1  0  0  0  0
  6 22  1  0  0  0  0
  7 10  2  0  0  0  0
  7 21  1  0  0  0  0
  8 25  1  0  0  0  0
  9 25  2  0  0  0  0
 10 26  1  0  0  0  0
 11 12  2  0  0  0  0
 11 27  1  0  0  0  0
 12 28  1  0  0  0  0
 13 14  2  0  0  0  0
 13 29  1  0  0  0  0
 14 30  1  0  0  0  0
 15 23  1  0  0  0  0
 15 26  2  0  0  0  0
 16 24  1  0  0  0  0
 16 27  2  0  0  0  0
 17 30  2  0  0  0  0
 17 31  1  0  0  0  0
 18 32  1  0  0  0  0
 19 32  1  0  0  0  0
 19 33  2  0  0  0  0
 19 34  1  0  0  0  0
 20 22  2  0  0  0  0
 20 39  1  0  0  0  0
 21 23  2  0  0  0  0
 21 40  1  0  0  0  0
 22 48  1  0  0  0  0
 23 41  1  0  0  0  0
 24 28  2  0  0  0  0
 24 64  1  0  0  0  0
 25 83  1  0  0  0  0
 26 84  1  0  0  0  0
 27 85  1  0  0  0  0
 28 86  1  0  0  0  0
 29 31  2  0  0  0  0
 29 83  1  0  0  0  0
 30 87  1  0  0  0  0
 31 88  1  0  0  0  0
 32 68  2  0  0  0  0
 33 69  1  0  0  0  0
 33 72  1  0  0  0  0
 34 73  1  0  0  0  0
 34 78  2  0  0  0  0
 35 49  1  0  0  0  0
 35 74  1  0  0  0  0
 35 79  2  0  0  0  0
 36 65  1  0  0  0  0
 36 70  1  0  0  0  0
 36 80  2  0  0  0  0
 37 66  1  0  0  0  0
 37 75  1  0  0  0  0
 37 81  2  0  0  0  0
 38 71  1  0  0  0  0
 38 76  1  0  0  0  0
 38 82  2  0  0  0  0
 39 42  1  0  0  0  0
 40 49  1  0  0  0  0
 41 70  1  0  0  0  0
 42 44  1  0  0  0  0
 43 45  1  0  0  0  0
 43 46  1  0  0  0  0
 44 48  1  0  0  0  0
 45 50  1  0  0  0  0
 46 71  1  0  0  0  0
 47 50  1  0  0  0  0
 47 71  1  0  0  0  0
 48 74  1  0  0  0  0
 49 70  1  0  0  0  0
 50 69  1  0  0  0  0
 51 58  1  0  0  0  0
 52 64  1  0  0  0  0
 53 66  1  0  0  0  0
 54 67  1  0  0  0  0
 55 67  1  0  0  0  0
 56 67  1  0  0  0  0
 57 77  1  0  0  0  0
 58 64  1  0  0  0  0
 59 60  1  0  0  0  0
 59 61  1  0  0  0  0
 60 76  1  0  0  0  0
 61 86  1  0  0  0  0
 62 63  1  0  0  0  0
 62 84  1  0  0  0  0
 63 85  1  0  0  0  0
 65 67  1  0  0  0  0
 65 75  1  0  0  0  0
 66 77  1  0  0  0  0
 68 69  1  0  0  0  0
M  CHG  1  77   1
M  ISO  4  38 100  62 101  76 100  84 101
M  END
> <Batch ID>
0139

> <Smiles>
CCC(C)c1cc(OC[101CH2:1][101O:1]c2ccc3c(c2)CN(C(=O)C(NC(=O)C(C)NC)C(C)(C)C)C(C(=O)NC2CCCc4ccccc42)C3)ccc1OCCC[100NH:0][100C:0](=O)N1CCCC(n2nc(-c3ccc(Oc4ccc(F)cc4F)cc3)c(C(N)=O)c2N)C1

> <Shape>
0.247

> <Color>
0.054

> <Negative vol penalty>
0.000

$$$$

  -OEChem-04052321103D

 85 94  0     1  0  0  0  0  0999 V2000
  -18.4396  -29.3723   20.9021 C   0  0  0  0  0  0  0  0  0  0  0  0
  -18.9382  -28.0840   20.7378 C   0  0  0  0  0  0  0  0  0  0  0  0
  -22.9989   -9.8988   19.9804 C   0  0  0  0  0  0  0  0  0  0  0  0
  -23.7378   -9.9371   22.2803 C   0  0  0  0  0  0  0  0  0  0  0  0
  -19.2991  -30.4670   20.8191 C   0  0  0  0  0  0  0  0  0  0  0  0
  -20.2965  -27.8896   20.4895 C   0  0  0  0  0  0  0  0  0  0  0  0
  -23.7624  -23.2261   22.4245 C   0  0  0  0  0  0  0  0  0  0  0  0
  -22.2347   -8.7624   20.2448 C   0  0  0  0  0  0  0  0  0  0  0  0
  -22.9735   -8.8006   22.5448 C   0  0  0  0  0  0  0  0  0  0  0  0
  -24.1862  -22.0518   21.8039 C   0  0  0  0  0  0  0  0  0  0  0  0
  -23.2170   -5.4646   22.0523 C   0  0  0  0  0  0  0  0  0  0  0  0
  -23.8096   -4.4434   22.7950 C   0  0  0  0  0  0  0  0  0  0  0  0
  -26.2690  -23.1193   21.2195 C   0  0  0  0  0  0  0  0  0  0  0  0
  -22.0956   -4.6757   24.4819 C   0  0  0  0  0  0  0  0  0  0  0  0
  -23.7506  -10.4862   20.9981 C   0  0  0  0  0  0  0  0  0  0  0  0
  -24.1334  -13.0030   20.8342 C   0  0  0  0  0  0  0  0  0  0  0  0
  -20.6703  -30.2854   20.5792 C   0  0  0  0  0  0  0  0  0  0  0  0
  -24.5857  -24.3612   22.4378 C   0  0  0  0  0  0  0  0  0  0  0  0
  -21.1749  -28.9830   20.4019 C   0  0  0  0  0  0  0  0  0  0  0  0
  -25.8544  -24.3060   21.8431 C   0  0  0  0  0  0  0  0  0  0  0  0
  -22.2219   -8.2132   21.5270 C   0  0  0  0  0  0  0  0  0  0  0  0
  -25.4384  -21.9991   21.1988 C   0  0  0  0  0  0  0  0  0  0  0  0
  -22.0637   -6.0913   22.5244 C   0  0  0  0  0  0  0  0  0  0  0  0
  -23.2489   -4.0490   24.0098 C   0  0  0  0  0  0  0  0  0  0  0  0
  -21.5030   -5.6969   23.7391 C   0  0  0  0  0  0  0  0  0  0  0  0
  -24.5407  -11.6598   20.7255 C   0  0  0  0  0  0  0  0  0  0  0  0
  -25.2405  -13.7283   20.4674 C   0  0  0  0  0  0  0  0  0  0  0  0
  -22.8674  -13.5464   21.2315 C   0  0  0  0  0  0  0  0  0  0  0  0
  -24.3506  -27.3163   21.2907 C   0  0  0  0  0  0  0  0  0  0  0  0
  -27.1236  -27.7506   22.9169 C   0  0  0  0  0  0  0  0  0  0  0  0
  -29.9302  -26.3675   24.2795 C   0  0  0  0  0  0  0  0  0  0  0  0
  -30.7377  -14.6648   20.6884 C   0  0  0  0  0  0  0  0  0  0  0  0
  -21.5522  -31.5022   20.4510 C   0  0  0  0  0  0  0  0  0  0  0  0
  -24.1248  -25.6119   23.1346 C   0  0  0  0  0  0  0  0  0  0  0  0
  -26.7844  -25.4907   21.8475 C   0  0  0  0  0  0  0  0  0  0  0  0
  -23.0423  -31.1883   20.5574 C   0  0  0  0  0  0  0  0  0  0  0  0
  -29.5844  -12.2539   18.3359 C   0  0  0  0  0  0  0  0  0  0  0  0
  -23.3973  -29.9838   19.6914 C   0  0  0  0  0  0  0  0  0  0  0  0
  -30.1843  -18.2321   18.6475 C   0  0  0  0  0  0  0  0  0  0  0  0
  -28.7935  -18.7248   18.3600 C   0  0  0  0  0  0  0  0  0  0  0  0
  -28.1386  -11.9909   18.7607 C   0  0  0  0  0  0  0  0  0  0  0  0
  -28.8392  -17.6265   23.2308 C   0  0  0  0  0  0  0  0  0  0  0  0
  -30.4939  -12.4829   19.5411 C   0  0  0  0  0  0  0  0  0  0  0  0
  -28.5914  -13.2696   20.8958 C   0  0  0  0  0  0  0  0  0  0  0  0
  -27.6529  -18.5499   23.0074 C   0  0  0  0  0  0  0  0  0  0  0  0
  -22.6464  -28.7300   20.1557 C   0  0  1  0  0  0  0  0  0  0  0  0
  -24.8358  -26.8679   22.6402 C   0  0  1  0  0  0  0  0  0  0  0  0
  -29.3940  -18.9227   19.7242 C   0  0  0  0  0  0  0  0  0  0  0  0
  -27.6254  -13.0882   19.7125 C   0  0  2  0  0  0  0  0  0  0  0  0
  -28.8675  -18.1342   20.9145 C   0  0  1  0  0  0  0  0  0  0  0  0
  -29.8273  -17.9770   22.1117 C   0  0  2  0  0  0  0  0  0  0  0  0
  -32.0300  -26.9799   25.5095 C   0  0  0  0  0  0  0  0  0  0  0  0
  -30.7270  -19.4051   23.9692 C   0  0  0  0  0  0  0  0  0  0  0  0
  -31.9778  -19.2324   21.7992 C   0  0  0  0  0  0  0  0  0  0  0  0
  -28.3369  -28.7963   20.3199 C   0  0  0  0  0  0  0  0  0  0  0  0
  -30.6040  -28.4892   21.3370 C   0  0  0  0  0  0  0  0  0  0  0  0
  -28.9830  -30.0822   22.3652 C   0  0  0  0  0  0  0  0  0  0  0  0
  -29.1756  -24.7236   26.6220 C   0  0  0  0  0  0  0  0  0  0  0  0
  -30.8263  -16.8370   21.8855 C   0  0  0  0  0  0  0  0  0  0  0  0
  -26.3581  -18.5165   20.8434 C   0  0  0  0  0  0  0  0  0  0  0  0
  -25.3595  -19.6236   21.1179 C   0  0  0  0  0  0  0  0  0  1  0  0
  -28.5894  -27.5950   22.5913 C   0  0  1  0  0  0  0  0  0  0  0  0
  -30.5798  -26.5412   25.6405 C   0  0  2  0  0  0  0  0  0  0  0  0
  -30.6062  -19.2590   22.4588 C   0  0  0  0  0  0  0  0  0  0  0  0
  -29.1102  -28.7188   21.6514 C   0  0  0  0  0  0  0  0  0  0  0  0
  -25.8077  -11.5364   20.3210 N   0  0  0  0  0  0  0  0  0  0  0  0
  -26.2060  -12.8112   20.1723 N   0  0  0  0  0  0  0  0  0  0  0  0
  -26.2858  -26.6927   22.5361 N   0  0  0  0  0  0  0  0  0  0  0  0
  -29.9516  -13.5364   20.4025 N   0  0  0  0  0  0  0  0  0  0  0  0
  -25.4726  -15.0547   20.3715 N   0  0  0  0  0  0  0  0  0  0  0  0
  -21.8382  -12.6596   21.5761 N   0  0  0  0  0  0  0  0  0  0  0  0
  -23.2701  -28.1764   21.3385 N   0  0  0  0  0  0  0  0  0  0  0  0
  -29.2856  -27.5159   23.8710 N   0  0  0  0  0  0  0  0  0  0  0  0
  -30.1457  -15.6186   21.5073 N   0  0  0  0  0  0  0  0  0  0  0  0
  -27.6566  -18.8435   21.5165 N   0  3  1  0  0  0  0  0  0  0  0  0
  -30.5433  -25.2591   26.3993 N   0  3  0  0  0  0  0  0  0  0  0  0
  -22.6501  -14.7814   21.2636 O   0  0  0  0  0  0  0  0  0  0  0  0
  -24.9157  -26.9130   20.2809 O   0  0  0  0  0  0  0  0  0  0  0  0
  -26.7372  -28.7698   23.4943 O   0  0  0  0  0  0  0  0  0  0  0  0
  -29.9918  -25.3192   23.6409 O   0  0  0  0  0  0  0  0  0  0  0  0
  -31.8804  -14.8139   20.2423 O   0  0  0  0  0  0  0  0  0  0  0  0
  -21.4761   -7.1044   21.7854 O   0  0  0  0  0  0  0  0  0  0  0  0
  -25.8542  -20.8544   20.5918 O   0  0  0  0  0  0  0  0  0  1  0  0
  -23.8172   -3.0673   24.7222 F   0  0  0  0  0  0  0  0  0  0  0  0
  -20.3945   -6.2945   24.1972 F   0  0  0  0  0  0  0  0  0  0  0  0
  1  2  1  0  0  0  0
  1  5  2  0  0  0  0
  2  6  2  0  0  0  0
  3  8  2  0  0  0  0
  3 15  1  0  0  0  0
  4  9  1  0  0  0  0
  4 15  2  0  0  0  0
  5 17  1  0  0  0  0
  6 19  1  0  0  0  0
  7 10  2  0  0  0  0
  7 18  1  0  0  0  0
  8 21  1  0  0  0  0
  9 21  2  0  0  0  0
 10 22  1  0  0  0  0
 11 12  2  0  0  0  0
 11 23  1  0  0  0  0
 12 24  1  0  0  0  0
 13 20  1  0  0  0  0
 13 22  2  0  0  0  0
 14 24  2  0  0  0  0
 14 25  1  0  0  0  0
 15 26  1  0  0  0  0
 16 26  1  0  0  0  0
 16 27  2  0  0  0  0
 16 28  1  0  0  0  0
 17 19  2  0  0  0  0
 17 33  1  0  0  0  0
 18 20  2  0  0  0  0
 18 34  1  0  0  0  0
 19 46  1  0  0  0  0
 20 35  1  0  0  0  0
 21 82  1  0  0  0  0
 22 83  1  0  0  0  0
 23 25  2  0  0  0  0
 23 82  1  0  0  0  0
 24 84  1  0  0  0  0
 25 85  1  0  0  0  0
 26 66  2  0  0  0  0
 27 67  1  0  0  0  0
 27 70  1  0  0  0  0
 28 71  1  0  0  0  0
 28 77  2  0  0  0  0
 29 47  1  0  0  0  0
 29 72  1  0  0  0  0
 29 78  2  0  0  0  0
 30 62  1  0  0  0  0
 30 68  1  0  0  0  0
 30 79  2  0  0  0  0
 31 63  1  0  0  0  0
 31 73  1  0  0  0  0
 31 80  2  0  0  0  0
 32 69  1  0  0  0  0
 32 74  1  0  0  0  0
 32 81  2  0  0  0  0
 33 36  1  0  0  0  0
 34 47  1  0  0  0  0
 35 68  1  0  0  0  0
 36 38  1  0  0  0  0
 37 41  1  0  0  0  0
 37 43  1  0  0  0  0
 38 46  1  0  0  0  0
 39 40  1  0  0  0  0
 39 48  1  0  0  0  0
 40 48  1  0  0  0  0
 41 49  1  0  0  0  0
 42 45  1  0  0  0  0
 42 51  1  0  0  0  0
 43 69  1  0  0  0  0
 44 49  1  0  0  0  0
 44 69  1  0  0  0  0
 45 75  1  0  0  0  0
 46 72  1  0  0  0  0
 47 68  1  0  0  0  0
 48 50  1  0  0  0  0
 49 67  1  0  0  0  0
 50 51  1  0  0  0  0
 50 75  1  0  0  0  0
 51 59  1  0  0  0  0
 51 64  1  0  0  0  0
 52 63  1  0  0  0  0
 53 64  1  0  0  0  0
 54 64  1  0  0  0  0
 55 65  1  0  0  0  0
 56 65  1  0  0  0  0
 57 65  1  0  0  0  0
 58 76  1  0  0  0  0
 59 74  1  0  0  0  0
 60 61  1  0  0  0  0
 60 75  1  0  0  0  0
 61 83  1  0  0  0  0
 62 65  1  0  0  0  0
 62 73  1  0  0  0  0
 63 76  1  0  0  0  0
 66 67  1  0  0  0  0
M  CHG  2  75   1  76   1
M  ISO  4  32 100  61 101  74 100  83 101
M  END
> <Batch ID>
0139

> <Smiles>
CNC(C)C(=O)NC(C(=O)N1Cc2cc([101O:1][101CH2:1]CN3CCC(C[100NH:0][100C:0](=O)N4CCCC(n5nc(-c6ccc(Oc7ccc(F)cc7F)cc6)c(C(N)=O)c5N)C4)(C(C)C)C3C3CC3)ccc2CC1C(=O)NC1CCCc2ccccc21)C(C)(C)C

> <Shape>
0.275

> <Color>
0.193

> <Negative vol penalty>
0.000

$$$$

  -OEChem-04052321103D

 86 95  0     1  0  0  0  0  0999 V2000
  -28.2634  -32.8505   24.3932 C   0  0  0  0  0  0  0  0  0  0  0  0
  -28.2142  -31.4703   24.2259 C   0  0  0  0  0  0  0  0  0  0  0  0
  -22.9149  -10.1625   19.9456 C   0  0  0  0  0  0  0  0  0  0  0  0
  -23.8457   -9.8731   22.1562 C   0  0  0  0  0  0  0  0  0  0  0  0
  -27.0810  -33.5868   24.4542 C   0  0  0  0  0  0  0  0  0  0  0  0
  -26.9824  -30.8253   24.1207 C   0  0  0  0  0  0  0  0  0  0  0  0
  -26.8951  -27.4001   20.3918 C   0  0  0  0  0  0  0  0  0  0  0  0
  -22.1131   -9.0371   20.1359 C   0  0  0  0  0  0  0  0  0  0  0  0
  -23.0439   -8.7477   22.3465 C   0  0  0  0  0  0  0  0  0  0  0  0
  -27.5083  -26.1728   20.6401 C   0  0  0  0  0  0  0  0  0  0  0  0
  -19.8229   -8.0898   23.1296 C   0  0  0  0  0  0  0  0  0  0  0  0
  -19.1563   -7.9696   24.3489 C   0  0  0  0  0  0  0  0  0  0  0  0
  -27.8775  -20.8669   20.7767 C   0  0  0  0  0  0  0  0  0  0  0  0
  -25.3506  -25.1927   21.0905 C   0  0  0  0  0  0  0  0  0  0  0  0
  -27.5437  -21.1332   23.1518 C   0  0  0  0  0  0  0  0  0  0  0  0
  -20.3111   -5.8906   24.7751 C   0  0  0  0  0  0  0  0  0  0  0  0
  -23.7813  -10.5804   20.9558 C   0  0  0  0  0  0  0  0  0  0  0  0
  -24.2894  -13.0777   21.0697 C   0  0  0  0  0  0  0  0  0  0  0  0
  -25.8343  -32.9517   24.3400 C   0  0  0  0  0  0  0  0  0  0  0  0
  -25.5037  -27.5357   20.5019 C   0  0  0  0  0  0  0  0  0  0  0  0
  -25.7821  -31.5536   24.1816 C   0  0  0  0  0  0  0  0  0  0  0  0
  -28.6651  -19.7318   21.0095 C   0  0  0  0  0  0  0  0  0  0  0  0
  -24.7219  -26.4221   20.8406 C   0  0  0  0  0  0  0  0  0  0  0  0
  -27.3216  -21.5661   21.8466 C   0  0  0  0  0  0  0  0  0  0  0  0
  -28.8915  -19.2906   22.3262 C   0  0  0  0  0  0  0  0  0  0  0  0
  -22.1775   -8.3297   21.3363 C   0  0  0  0  0  0  0  0  0  0  0  0
  -26.7363  -25.0696   20.9923 C   0  0  0  0  0  0  0  0  0  0  0  0
  -20.7335   -7.1105   22.7329 C   0  0  0  0  0  0  0  0  0  0  0  0
  -19.4004   -6.8700   25.1717 C   0  0  0  0  0  0  0  0  0  0  0  0
  -20.9776   -6.0109   23.5557 C   0  0  0  0  0  0  0  0  0  0  0  0
  -28.3220  -19.9997   23.3901 C   0  0  0  0  0  0  0  0  0  0  0  0
  -24.6102  -11.7425   20.7596 C   0  0  0  0  0  0  0  0  0  0  0  0
  -25.4007  -13.7934   20.6964 C   0  0  0  0  0  0  0  0  0  0  0  0
  -30.4172  -17.6563   21.6781 C   0  0  0  0  0  0  0  0  0  0  0  0
  -23.0939  -13.6223   21.6439 C   0  0  0  0  0  0  0  0  0  0  0  0
  -23.5556  -29.2605   22.3276 C   0  0  0  0  0  0  0  0  0  0  0  0
  -21.2701  -28.0082   20.3961 C   0  0  0  0  0  0  0  0  0  0  0  0
  -20.3135  -25.5004   18.2884 C   0  0  0  0  0  0  0  0  0  0  0  0
  -30.9408  -14.4456   20.5326 C   0  0  0  0  0  0  0  0  0  0  0  0
  -24.5821  -33.7838   24.4592 C   0  0  0  0  0  0  0  0  0  0  0  0
  -24.8550  -28.8598   20.2047 C   0  0  0  0  0  0  0  0  0  0  0  0
  -23.2225  -26.5102   20.9524 C   0  0  0  0  0  0  0  0  0  0  0  0
  -30.5668  -18.3005   20.3154 C   0  0  0  0  0  0  0  0  0  0  0  0
  -23.3269  -33.0700   23.9638 C   0  0  0  0  0  0  0  0  0  0  0  0
  -29.4603  -12.4096   18.0148 C   0  0  0  0  0  0  0  0  0  0  0  0
  -23.2673  -31.6496   24.5166 C   0  0  0  0  0  0  0  0  0  0  0  0
  -28.0429  -12.1598   18.5330 C   0  0  0  0  0  0  0  0  0  0  0  0
  -30.4794  -12.4414   19.1517 C   0  0  0  0  0  0  0  0  0  0  0  0
  -28.7447  -13.1333   20.7597 C   0  0  0  0  0  0  0  0  0  0  0  0
  -29.2593  -18.9522   19.8606 C   0  0  1  0  0  0  0  0  0  0  0  0
  -24.4658  -30.8209   24.0387 C   0  0  1  0  0  0  0  0  0  0  0  0
  -23.4799  -29.0093   20.8482 C   0  0  1  0  0  0  0  0  0  0  0  0
  -27.6739  -13.1483   19.6555 C   0  0  2  0  0  0  0  0  0  0  0  0
  -28.8288  -17.1346   18.1991 C   0  0  0  0  0  0  0  0  0  0  0  0
  -18.3744  -24.7321   16.8930 C   0  0  0  0  0  0  0  0  0  0  0  0
  -19.8316  -27.0679   22.9173 C   0  0  0  0  0  0  0  0  0  0  0  0
  -18.4680  -25.5342   21.4832 C   0  0  0  0  0  0  0  0  0  0  0  0
  -18.3318  -28.0022   21.1475 C   0  0  0  0  0  0  0  0  0  0  0  0
  -21.8968  -25.6588   15.7930 C   0  0  0  0  0  0  0  0  0  0  0  0
  -26.4808  -22.7825   21.5920 C   0  0  0  0  0  0  0  0  0  1  0  0
  -31.2515  -16.4406   21.9756 C   0  0  0  0  0  0  0  0  0  0  0  0
  -28.2631  -17.9132   19.3396 C   0  0  0  0  0  0  0  0  0  0  0  0
  -20.4135  -26.7654   20.4201 C   0  0  1  0  0  0  0  0  0  0  0  0
  -19.6687  -25.5304   16.9144 C   0  0  2  0  0  0  0  0  0  0  0  0
  -19.2896  -26.8409   21.4919 C   0  0  0  0  0  0  0  0  0  0  0  0
  -25.8297  -11.6149   20.2300 N   0  0  0  0  0  0  0  0  0  0  0  0
  -29.6542  -18.1410   22.6091 N   0  0  0  0  0  0  0  0  0  0  0  0
  -26.2849  -12.8791   20.2042 N   0  0  0  0  0  0  0  0  0  0  0  0
  -22.6356  -27.8280   20.6583 N   0  0  0  0  0  0  0  0  0  0  0  0
  -30.0714  -13.3995   20.1820 N   0  0  0  0  0  0  0  0  0  0  0  0
  -25.6979  -15.1094   20.7443 N   0  0  0  0  0  0  0  0  0  0  0  0
  -22.0492  -12.7461   21.9683 N   0  0  0  0  0  0  0  0  0  0  0  0
  -24.2705  -30.3923   22.6703 N   0  0  0  0  0  0  0  0  0  0  0  0
  -19.9278  -26.5781   19.0572 N   0  0  0  0  0  0  0  0  0  0  0  0
  -30.4742  -15.3125   21.5131 N   0  0  0  0  0  0  0  0  0  0  0  0
  -20.5924  -24.9553   15.8961 N   0  3  0  0  0  0  0  0  0  0  0  0
  -22.9496  -14.8516   21.8477 O   0  0  0  0  0  0  0  0  0  0  0  0
  -23.0048  -28.4857   23.1010 O   0  0  0  0  0  0  0  0  0  0  0  0
  -20.7483  -29.0977   20.1467 O   0  0  0  0  0  0  0  0  0  0  0  0
  -21.0796  -24.6081   18.6454 O   0  0  0  0  0  0  0  0  0  0  0  0
  -32.0485  -14.5989   20.0067 O   0  0  0  0  0  0  0  0  0  0  0  0
  -21.3951   -7.2317   21.5224 O   0  0  0  0  0  0  0  0  0  0  0  0
  -27.3324  -23.8707   21.2358 O   0  0  0  0  0  0  0  0  0  1  0  0
  -18.7614   -6.7555   26.3433 F   0  0  0  0  0  0  0  0  0  0  0  0
  -21.8522   -5.0674   23.1806 F   0  0  0  0  0  0  0  0  0  0  0  0
  -28.5599  -19.5034   25.0298 Cl  0  0  0  0  0  0  0  0  0  0  0  0
  1  2  1  0  0  0  0
  1  5  2  0  0  0  0
  2  6  2  0  0  0  0
  3  8  2  0  0  0  0
  3 17  1  0  0  0  0
  4  9  1  0  0  0  0
  4 17  2  0  0  0  0
  5 19  1  0  0  0  0
  6 21  1  0  0  0  0
  7 10  2  0  0  0  0
  7 20  1  0  0  0  0
  8 26  1  0  0  0  0
  9 26  2  0  0  0  0
 10 27  1  0  0  0  0
 11 12  2  0  0  0  0
 11 28  1  0  0  0  0
 12 29  1  0  0  0  0
 13 22  1  0  0  0  0
 13 24  2  0  0  0  0
 14 23  1  0  0  0  0
 14 27  2  0  0  0  0
 15 24  1  0  0  0  0
 15 31  2  0  0  0  0
 16 29  2  0  0  0  0
 16 30  1  0  0  0  0
 17 32  1  0  0  0  0
 18 32  1  0  0  0  0
 18 33  2  0  0  0  0
 18 35  1  0  0  0  0
 19 21  2  0  0  0  0
 19 40  1  0  0  0  0
 20 23  2  0  0  0  0
 20 41  1  0  0  0  0
 21 51  1  0  0  0  0
 22 25  2  0  0  0  0
 22 50  1  0  0  0  0
 23 42  1  0  0  0  0
 24 60  1  0  0  0  0
 25 31  1  0  0  0  0
 25 67  1  0  0  0  0
 26 82  1  0  0  0  0
 27 83  1  0  0  0  0
 28 30  2  0  0  0  0
 28 82  1  0  0  0  0
 29 84  1  0  0  0  0
 30 85  1  0  0  0  0
 31 86  1  0  0  0  0
 32 66  2  0  0  0  0
 33 68  1  0  0  0  0
 33 71  1  0  0  0  0
 34 43  1  0  0  0  0
 34 61  1  0  0  0  0
 34 67  2  0  0  0  0
 35 72  1  0  0  0  0
 35 77  2  0  0  0  0
 36 52  1  0  0  0  0
 36 73  1  0  0  0  0
 36 78  2  0  0  0  0
 37 63  1  0  0  0  0
 37 69  1  0  0  0  0
 37 79  2  0  0  0  0
 38 64  1  0  0  0  0
 38 74  1  0  0  0  0
 38 80  2  0  0  0  0
 39 70  1  0  0  0  0
 39 75  1  0  0  0  0
 39 81  2  0  0  0  0
 40 44  1  0  0  0  0
 41 52  1  0  0  0  0
 42 69  1  0  0  0  0
 43 50  1  0  0  0  0
 44 46  1  0  0  0  0
 45 47  1  0  0  0  0
 45 48  1  0  0  0  0
 46 51  1  0  0  0  0
 47 53  1  0  0  0  0
 48 70  1  0  0  0  0
 49 53  1  0  0  0  0
 49 70  1  0  0  0  0
 50 62  1  0  0  0  0
 51 73  1  0  0  0  0
 52 69  1  0  0  0  0
 53 68  1  0  0  0  0
 54 62  1  0  0  0  0
 55 64  1  0  0  0  0
 56 65  1  0  0  0  0
 57 65  1  0  0  0  0
 58 65  1  0  0  0  0
 59 76  1  0  0  0  0
 60 83  1  0  0  0  0
 61 75  1  0  0  0  0
 63 65  1  0  0  0  0
 63 74  1  0  0  0  0
 64 76  1  0  0  0  0
 66 68  1  0  0  0  0
M  CHG  1  76   1
M  ISO  4  39 100  60 101  75 100  83 101
M  END
> <Batch ID>
0139

> <Smiles>
CCC1C=C(C[100NH:0][100C:0](=O)N2CCCC(n3nc(-c4ccc(Oc5ccc(F)cc5F)cc4)c(C(N)=O)c3N)C2)Nc2c(Cl)cc([101CH2:1][101O:1]c3ccc4c(c3)CN(C(=O)C(NC(=O)C(C)NC)C(C)(C)C)C(C(=O)NC3CCCc5ccccc53)C4)cc21

> <Shape>
0.371

> <Color>
0.188

> <Negative vol penalty>
0.000

$$$$

  -OEChem-04052321103D

 87 96  0     1  0  0  0  0  0999 V2000
  -17.9907  -28.3314   22.8809 C   0  0  0  0  0  0  0  0  0  0  0  0
  -18.7814  -27.5966   22.0032 C   0  0  0  0  0  0  0  0  0  0  0  0
  -24.5658   -9.4915   21.4590 C   0  0  0  0  0  0  0  0  0  0  0  0
  -24.8653  -10.5887   23.5906 C   0  0  0  0  0  0  0  0  0  0  0  0
  -18.5092  -29.4682   23.4995 C   0  0  0  0  0  0  0  0  0  0  0  0
  -20.0909  -27.9989   21.7428 C   0  0  0  0  0  0  0  0  0  0  0  0
  -23.3630  -24.1347   21.8238 C   0  0  0  0  0  0  0  0  0  0  0  0
  -24.2921   -8.2915   22.1151 C   0  0  0  0  0  0  0  0  0  0  0  0
  -24.5915   -9.3886   24.2467 C   0  0  0  0  0  0  0  0  0  0  0  0
  -23.4010  -23.3090   20.7011 C   0  0  0  0  0  0  0  0  0  0  0  0
  -21.6778   -6.8709   23.7213 C   0  0  0  0  0  0  0  0  0  0  0  0
  -20.5916   -6.1198   23.2724 C   0  0  0  0  0  0  0  0  0  0  0  0
  -28.9170  -20.2813   18.4556 C   0  0  0  0  0  0  0  0  0  0  0  0
  -25.3645  -24.4723   19.9196 C   0  0  0  0  0  0  0  0  0  0  0  0
  -26.6419  -19.8795   19.2130 C   0  0  0  0  0  0  0  0  0  0  0  0
  -22.0702   -4.2719   22.7863 C   0  0  0  0  0  0  0  0  0  0  0  0
  -24.8525  -10.6402   22.1967 C   0  0  0  0  0  0  0  0  0  0  0  0
  -24.2118  -12.8715   21.1392 C   0  0  0  0  0  0  0  0  0  0  0  0
  -19.8289  -29.8792   23.2540 C   0  0  0  0  0  0  0  0  0  0  0  0
  -24.3206  -25.1442   21.9977 C   0  0  0  0  0  0  0  0  0  0  0  0
  -20.6272  -29.1431   22.3577 C   0  0  0  0  0  0  0  0  0  0  0  0
  -28.3923  -20.7495   17.2638 C   0  0  0  0  0  0  0  0  0  0  0  0
  -25.3379  -25.3078   21.0467 C   0  0  0  0  0  0  0  0  0  0  0  0
  -28.0274  -19.8363   19.4346 C   0  0  0  0  0  0  0  0  0  0  0  0
  -26.1275  -20.3625   18.0066 C   0  0  0  0  0  0  0  0  0  0  0  0
  -27.0160  -20.7766   17.0297 C   0  0  0  0  0  0  0  0  0  0  0  0
  -24.3049   -8.2400   23.5089 C   0  0  0  0  0  0  0  0  0  0  0  0
  -24.4002  -23.4796   19.7473 C   0  0  0  0  0  0  0  0  0  0  0  0
  -22.9602   -6.3225   23.7027 C   0  0  0  0  0  0  0  0  0  0  0  0
  -20.7877   -4.8203   22.8049 C   0  0  0  0  0  0  0  0  0  0  0  0
  -23.1564   -5.0231   23.2353 C   0  0  0  0  0  0  0  0  0  0  0  0
  -25.1360  -11.8800   21.5195 C   0  0  0  0  0  0  0  0  0  0  0  0
  -24.9760  -13.8394   20.5346 C   0  0  0  0  0  0  0  0  0  0  0  0
  -22.7897  -12.9138   21.3167 C   0  0  0  0  0  0  0  0  0  0  0  0
  -24.2249  -28.3144   22.2086 C   0  0  0  0  0  0  0  0  0  0  0  0
  -27.3824  -27.9763   22.8708 C   0  0  0  0  0  0  0  0  0  0  0  0
  -30.2131  -26.0891   22.6020 C   0  0  0  0  0  0  0  0  0  0  0  0
  -29.5287  -17.0643   20.3961 C   0  0  0  0  0  0  0  0  0  0  0  0
  -20.3299  -31.1416   23.9097 C   0  0  0  0  0  0  0  0  0  0  0  0
  -24.2814  -26.0091   23.2277 C   0  0  0  0  0  0  0  0  0  0  0  0
  -29.1102  -21.3236   16.0852 C   0  0  0  0  0  0  0  0  0  0  0  0
  -26.4014  -26.3636   21.1968 C   0  0  0  0  0  0  0  0  0  0  0  0
  -21.8489  -31.2877   23.8685 C   0  0  0  0  0  0  0  0  0  0  0  0
  -29.8167  -13.7733   19.0683 C   0  0  0  0  0  0  0  0  0  0  0  0
  -22.3773  -30.9788   22.4713 C   0  0  0  0  0  0  0  0  0  0  0  0
  -28.5520  -13.0679   19.5614 C   0  0  0  0  0  0  0  0  0  0  0  0
  -30.3611  -14.7488   20.1094 C   0  0  0  0  0  0  0  0  0  0  0  0
  -28.1199  -15.0333   21.0941 C   0  0  0  0  0  0  0  0  0  0  0  0
  -22.0604  -29.5335   22.0688 C   0  0  1  0  0  0  0  0  0  0  0  0
  -25.0046  -27.3400   23.0455 C   0  0  1  0  0  0  0  0  0  0  0  0
  -27.5019  -14.0806   20.0564 C   0  0  2  0  0  0  0  0  0  0  0  0
  -27.9608  -21.4593   15.0511 C   0  0  2  0  0  0  0  0  0  0  0  0
  -24.0066  -19.0192   17.8361 C   0  0  0  0  0  0  0  0  0  0  0  0
  -32.6478  -26.0921   23.2102 C   0  0  0  0  0  0  0  0  0  0  0  0
  -29.3318  -22.9541   13.5715 C   0  0  0  0  0  0  0  0  0  0  0  0
  -26.8341  -22.8918   13.3246 C   0  0  0  0  0  0  0  0  0  0  0  0
  -27.9383  -29.9668   20.6261 C   0  0  0  0  0  0  0  0  0  0  0  0
  -30.3263  -29.2151   20.6452 C   0  0  0  0  0  0  0  0  0  0  0  0
  -29.3407  -30.2837   22.6724 C   0  0  0  0  0  0  0  0  0  0  0  0
  -29.9239  -23.6469   24.2484 C   0  0  0  0  0  0  0  0  0  0  0  0
  -28.5523  -19.3209   20.7330 C   0  0  0  0  0  0  0  0  0  0  0  0
  -23.9334  -21.3494   18.7985 C   0  0  0  0  0  0  0  0  0  1  0  0
  -24.6234  -20.4200   17.7906 C   0  0  1  0  0  0  0  0  0  0  0  0
  -28.6484  -27.9332   22.0495 C   0  0  1  0  0  0  0  0  0  0  0  0
  -31.2480  -25.6731   23.6318 C   0  0  2  0  0  0  0  0  0  0  0  0
  -28.0014  -22.7840   14.3068 C   0  0  0  0  0  0  0  0  0  0  0  0
  -29.0424  -29.3310   21.4942 C   0  0  0  0  0  0  0  0  0  0  0  0
  -26.3913  -12.1895   21.1844 N   0  0  0  0  0  0  0  0  0  0  0  0
  -26.2614  -13.3863   20.5871 N   0  0  0  0  0  0  0  0  0  0  0  0
  -26.7070  -21.3346   15.7930 N   0  0  0  0  0  0  0  0  0  0  0  0
  -26.3167  -27.1884   22.4133 N   0  0  0  0  0  0  0  0  0  0  0  0
  -29.3162  -15.6828   20.5357 N   0  0  0  0  0  0  0  0  0  0  0  0
  -24.6672  -15.0254   19.9684 N   0  0  0  0  0  0  0  0  0  0  0  0
  -22.1641  -11.8362   21.9584 N   0  0  0  0  0  0  0  0  0  0  0  0
  -22.9752  -28.6168   22.7148 N   0  0  0  0  0  0  0  0  0  0  0  0
  -29.6643  -27.3191   22.8975 N   0  0  0  0  0  0  0  0  0  0  0  0
  -28.4854  -17.8790   20.8187 N   0  0  0  0  0  0  0  0  0  0  0  0
  -31.2343  -24.1937   23.8115 N   0  3  0  0  0  0  0  0  0  0  0  0
  -22.0923  -13.8711   20.9034 O   0  0  0  0  0  0  0  0  0  0  0  0
  -24.7211  -28.7601   21.1805 O   0  0  0  0  0  0  0  0  0  0  0  0
  -27.3430  -28.6775   23.8849 O   0  0  0  0  0  0  0  0  0  0  0  0
  -29.9235  -25.3944   21.6304 O   0  0  0  0  0  0  0  0  0  0  0  0
  -30.5687  -17.5364   19.9245 O   0  0  0  0  0  0  0  0  0  0  0  0
  -24.0375   -7.0692   24.1495 O   0  0  0  0  0  0  0  0  0  0  0  0
  -24.4393  -22.6754   18.6502 O   0  0  0  0  0  0  0  0  0  1  0  0
  -19.7443   -4.0986   22.3753 F   0  0  0  0  0  0  0  0  0  0  0  0
  -24.3860   -4.4905   23.2161 F   0  0  0  0  0  0  0  0  0  0  0  0
  1  2  1  0  0  0  0
  1  5  2  0  0  0  0
  2  6  2  0  0  0  0
  3  8  2  0  0  0  0
  3 17  1  0  0  0  0
  4  9  1  0  0  0  0
  4 17  2  0  0  0  0
  5 19  1  0  0  0  0
  6 21  1  0  0  0  0
  7 10  2  0  0  0  0
  7 20  1  0  0  0  0
  8 27  1  0  0  0  0
  9 27  2  0  0  0  0
 10 28  1  0  0  0  0
 11 12  2  0  0  0  0
 11 29  1  0  0  0  0
 12 30  1  0  0  0  0
 13 22  2  0  0  0  0
 13 24  1  0  0  0  0
 14 23  1  0  0  0  0
 14 28  2  0  0  0  0
 15 24  2  0  0  0  0
 15 25  1  0  0  0  0
 16 30  2  0  0  0  0
 16 31  1  0  0  0  0
 17 32  1  0  0  0  0
 18 32  1  0  0  0  0
 18 33  2  0  0  0  0
 18 34  1  0  0  0  0
 19 21  2  0  0  0  0
 19 39  1  0  0  0  0
 20 23  2  0  0  0  0
 20 40  1  0  0  0  0
 21 49  1  0  0  0  0
 22 26  1  0  0  0  0
 22 41  1  0  0  0  0
 23 42  1  0  0  0  0
 24 61  1  0  0  0  0
 25 26  2  0  0  0  0
 25 63  1  0  0  0  0
 26 70  1  0  0  0  0
 27 84  1  0  0  0  0
 28 85  1  0  0  0  0
 29 31  2  0  0  0  0
 29 84  1  0  0  0  0
 30 86  1  0  0  0  0
 31 87  1  0  0  0  0
 32 68  2  0  0  0  0
 33 69  1  0  0  0  0
 33 73  1  0  0  0  0
 34 74  1  0  0  0  0
 34 79  2  0  0  0  0
 35 50  1  0  0  0  0
 35 75  1  0  0  0  0
 35 80  2  0  0  0  0
 36 64  1  0  0  0  0
 36 71  1  0  0  0  0
 36 81  2  0  0  0  0
 37 65  1  0  0  0  0
 37 76  1  0  0  0  0
 37 82  2  0  0  0  0
 38 72  1  0  0  0  0
 38 77  1  0  0  0  0
 38 83  2  0  0  0  0
 39 43  1  0  0  0  0
 40 50  1  0  0  0  0
 41 52  1  0  0  0  0
 42 71  1  0  0  0  0
 43 45  1  0  0  0  0
 44 46  1  0  0  0  0
 44 47  1  0  0  0  0
 45 49  1  0  0  0  0
 46 51  1  0  0  0  0
 47 72  1  0  0  0  0
 48 51  1  0  0  0  0
 48 72  1  0  0  0  0
 49 75  1  0  0  0  0
 50 71  1  0  0  0  0
 51 69  1  0  0  0  0
 52 66  1  0  0  0  0
 52 70  1  0  0  0  0
 53 63  1  0  0  0  0
 54 65  1  0  0  0  0
 55 66  1  0  0  0  0
 56 66  1  0  0  0  0
 57 67  1  0  0  0  0
 58 67  1  0  0  0  0
 59 67  1  0  0  0  0
 60 78  1  0  0  0  0
 61 77  1  0  0  0  0
 62 63  1  0  0  0  0
 62 85  1  0  0  0  0
 64 67  1  0  0  0  0
 64 76  1  0  0  0  0
 65 78  1  0  0  0  0
 68 69  1  0  0  0  0
M  CHG  1  78   1
M  ISO  4  38 100  62 101  77 100  85 101
M  END
> <Batch ID>
0139

> <Smiles>
CNC(C)C(=O)NC(C(=O)N1Cc2cc([101O:1][101CH2:1]C(C)c3cc(C[100NH:0][100C:0](=O)N4CCCC(n5nc(-c6ccc(Oc7ccc(F)cc7F)cc6)c(C(N)=O)c5N)C4)cc4c3NC(C(C)C)C4)ccc2CC1C(=O)NC1CCCc2ccccc21)C(C)(C)C

> <Shape>
0.242

> <Color>
0.099

> <Negative vol penalty>
0.000

$$$$

  -OEChem-04052321103D

 79 87  0     1  0  0  0  0  0999 V2000
  -18.0971  -26.1474   19.8269 C   0  0  0  0  0  0  0  0  0  0  0  0
  -19.2604  -26.6486   19.2517 C   0  0  0  0  0  0  0  0  0  0  0  0
  -27.0830  -17.3790   19.9987 C   0  0  0  0  0  0  0  0  0  0  0  0
  -25.9893  -17.7323   17.8736 C   0  0  0  0  0  0  0  0  0  0  0  0
  -17.8051  -26.4251   21.1616 C   0  0  0  0  0  0  0  0  0  0  0  0
  -20.1320  -27.4288   20.0108 C   0  0  0  0  0  0  0  0  0  0  0  0
  -24.9799  -26.1168   19.3617 C   0  0  0  0  0  0  0  0  0  0  0  0
  -26.9831  -15.9992   19.8207 C   0  0  0  0  0  0  0  0  0  0  0  0
  -25.8895  -16.3525   17.6956 C   0  0  0  0  0  0  0  0  0  0  0  0
  -25.6088  -26.5586   18.1985 C   0  0  0  0  0  0  0  0  0  0  0  0
  -26.6928  -12.3845   20.0912 C   0  0  0  0  0  0  0  0  0  0  0  0
  -26.2668  -11.6182   21.1761 C   0  0  0  0  0  0  0  0  0  0  0  0
  -26.6443  -28.3459   19.4446 C   0  0  0  0  0  0  0  0  0  0  0  0
  -24.1849  -12.8432   21.2236 C   0  0  0  0  0  0  0  0  0  0  0  0
  -26.5860  -18.2456   19.0252 C   0  0  0  0  0  0  0  0  0  0  0  0
  -26.1387  -20.4349   20.2558 C   0  0  0  0  0  0  0  0  0  0  0  0
  -18.6783  -27.2010   21.9402 C   0  0  0  0  0  0  0  0  0  0  0  0
  -25.1701  -26.7938   20.5749 C   0  0  0  0  0  0  0  0  0  0  0  0
  -19.8507  -27.7182   21.3568 C   0  0  0  0  0  0  0  0  0  0  0  0
  -26.0186  -27.9091   20.6222 C   0  0  0  0  0  0  0  0  0  0  0  0
  -26.3864  -15.4859   18.6692 C   0  0  0  0  0  0  0  0  0  0  0  0
  -26.4389  -27.6751   18.2393 C   0  0  0  0  0  0  0  0  0  0  0  0
  -25.8650  -13.3801   19.5726 C   0  0  0  0  0  0  0  0  0  0  0  0
  -25.0128  -11.8475   21.7423 C   0  0  0  0  0  0  0  0  0  0  0  0
  -24.6110  -13.6095   20.1388 C   0  0  0  0  0  0  0  0  0  0  0  0
  -26.6883  -19.6711   19.2088 C   0  0  0  0  0  0  0  0  0  0  0  0
  -26.5166  -21.7251   19.9745 C   0  0  0  0  0  0  0  0  0  0  0  0
  -25.3567  -20.0158   21.3820 C   0  0  0  0  0  0  0  0  0  0  0  0
  -23.2737  -28.3486   22.5973 C   0  0  0  0  0  0  0  0  0  0  0  0
  -25.9653  -28.4899   24.4022 C   0  0  0  0  0  0  0  0  0  0  0  0
  -29.3751  -28.4248   24.5294 C   0  0  0  0  0  0  0  0  0  0  0  0
  -30.3541  -25.3512   18.5348 C   0  0  0  0  0  0  0  0  0  0  0  0
  -18.2967  -27.5139   23.3653 C   0  0  0  0  0  0  0  0  0  0  0  0
  -24.5056  -26.2885   21.8261 C   0  0  0  0  0  0  0  0  0  0  0  0
  -26.2719  -28.6590   21.9036 C   0  0  0  0  0  0  0  0  0  0  0  0
  -19.4587  -28.0362   24.2064 C   0  0  0  0  0  0  0  0  0  0  0  0
  -28.6087  -23.7139   15.8200 C   0  0  0  0  0  0  0  0  0  0  0  0
  -20.2274  -29.1117   23.4454 C   0  0  0  0  0  0  0  0  0  0  0  0
  -27.9046  -22.5723   16.5557 C   0  0  0  0  0  0  0  0  0  0  0  0
  -29.9967  -23.9717   16.3989 C   0  0  0  0  0  0  0  0  0  0  0  0
  -29.3092  -23.1048   18.6011 C   0  0  0  0  0  0  0  0  0  0  0  0
  -20.8334  -28.5477   22.1546 C   0  0  1  0  0  0  0  0  0  0  0  0
  -24.3640  -27.3607   22.9021 C   0  0  1  0  0  0  0  0  0  0  0  0
  -27.9205  -29.9816   15.6754 C   0  0  1  0  0  0  0  0  0  0  0  0
  -27.8918  -22.8099   18.0774 C   0  0  2  0  0  0  0  0  0  0  0  0
  -28.7781  -29.9509   16.9128 C   0  0  1  0  0  0  0  0  0  0  0  0
  -27.3321  -29.5347   16.9892 C   0  0  2  0  0  0  0  0  0  1  0  0
  -28.5496  -31.8522   14.1412 C   0  0  0  0  0  0  0  0  0  0  0  0
  -31.2899  -28.6020   26.1417 C   0  0  0  0  0  0  0  0  0  0  0  0
  -25.5540  -31.5094   24.5551 C   0  0  0  0  0  0  0  0  0  0  0  0
  -27.9264  -31.7234   25.3259 C   0  0  0  0  0  0  0  0  0  0  0  0
  -26.2813  -30.4458   26.6985 C   0  0  0  0  0  0  0  0  0  0  0  0
  -30.3292  -25.7007   23.8755 C   0  0  0  0  0  0  0  0  0  0  0  0
  -27.5151  -31.2860   15.0806 C   0  0  0  0  0  0  0  0  0  0  0  0
  -31.4144  -27.5835   18.3121 C   0  0  0  0  0  0  0  0  0  0  0  0
  -30.3455  -28.6590   18.3664 C   0  0  0  0  0  0  0  0  0  0  0  0
  -27.1186  -29.4558   24.5280 C   0  0  1  0  0  0  0  0  0  0  0  0
  -30.3353  -27.6610   25.4233 C   0  0  2  0  0  0  0  0  0  0  0  0
  -26.7140  -30.7709   25.2522 C   0  0  0  0  0  0  0  0  0  0  0  0
  -27.3637  -20.4140   18.3279 N   0  0  0  0  0  0  0  0  0  0  0  0
  -27.2410  -21.6582   18.8208 N   0  0  0  0  0  0  0  0  0  0  0  0
  -25.5944  -28.1299   23.0989 N   0  0  0  0  0  0  0  0  0  0  0  0
  -29.9123  -24.2088   17.8470 N   0  0  0  0  0  0  0  0  0  0  0  0
  -26.2965  -22.8990   20.6038 N   0  0  0  0  0  0  0  0  0  0  0  0
  -23.9618  -19.9790   21.2503 N   0  0  0  0  0  0  0  0  0  0  0  0
  -22.0236  -27.7788   22.4490 N   0  0  0  0  0  0  0  0  0  0  0  0
  -28.1967  -28.7214   25.1813 N   0  0  0  0  0  0  0  0  0  0  0  0
  -30.9195  -26.3473   17.7482 N   0  0  0  0  0  0  0  0  0  0  0  0
  -29.8128  -28.9123   16.9929 N   0  3  0  0  0  0  0  0  0  0  0  0
  -31.1403  -26.7002   24.6173 N   0  3  0  0  0  0  0  0  0  0  0  0
  -25.8784  -19.6994   22.4780 O   0  0  0  0  0  0  0  0  0  0  0  0
  -23.5462  -29.5398   22.5050 O   0  0  0  0  0  0  0  0  0  0  0  0
  -25.4184  -28.0648   25.4229 O   0  0  0  0  0  0  0  0  0  0  0  0
  -29.6449  -28.7312   23.3702 O   0  0  0  0  0  0  0  0  0  0  0  0
  -30.2476  -25.4767   19.7596 O   0  0  0  0  0  0  0  0  0  0  0  0
  -26.2891  -14.1395   18.4950 O   0  0  0  0  0  0  0  0  0  0  0  0
  -27.0535  -28.1089   17.1053 O   0  0  0  0  0  0  0  0  0  1  0  0
  -24.6031  -11.1106   22.7831 F   0  0  0  0  0  0  0  0  0  0  0  0
  -23.8107  -14.5638   19.6441 F   0  0  0  0  0  0  0  0  0  0  0  0
  1  2  1  0  0  0  0
  1  5  2  0  0  0  0
  2  6  2  0  0  0  0
  3  8  2  0  0  0  0
  3 15  1  0  0  0  0
  4  9  1  0  0  0  0
  4 15  2  0  0  0  0
  5 17  1  0  0  0  0
  6 19  1  0  0  0  0
  7 10  2  0  0  0  0
  7 18  1  0  0  0  0
  8 21  1  0  0  0  0
  9 21  2  0  0  0  0
 10 22  1  0  0  0  0
 11 12  2  0  0  0  0
 11 23  1  0  0  0  0
 12 24  1  0  0  0  0
 13 20  1  0  0  0  0
 13 22  2  0  0  0  0
 14 24  2  0  0  0  0
 14 25  1  0  0  0  0
 15 26  1  0  0  0  0
 16 26  1  0  0  0  0
 16 27  2  0  0  0  0
 16 28  1  0  0  0  0
 17 19  2  0  0  0  0
 17 33  1  0  0  0  0
 18 20  2  0  0  0  0
 18 34  1  0  0  0  0
 19 42  1  0  0  0  0
 20 35  1  0  0  0  0
 21 76  1  0  0  0  0
 22 77  1  0  0  0  0
 23 25  2  0  0  0  0
 23 76  1  0  0  0  0
 24 78  1  0  0  0  0
 25 79  1  0  0  0  0
 26 60  2  0  0  0  0
 27 61  1  0  0  0  0
 27 64  1  0  0  0  0
 28 65  1  0  0  0  0
 28 71  2  0  0  0  0
 29 43  1  0  0  0  0
 29 66  1  0  0  0  0
 29 72  2  0  0  0  0
 30 57  1  0  0  0  0
 30 62  1  0  0  0  0
 30 73  2  0  0  0  0
 31 58  1  0  0  0  0
 31 67  1  0  0  0  0
 31 74  2  0  0  0  0
 32 63  1  0  0  0  0
 32 68  1  0  0  0  0
 32 75  2  0  0  0  0
 33 36  1  0  0  0  0
 34 43  1  0  0  0  0
 35 62  1  0  0  0  0
 36 38  1  0  0  0  0
 37 39  1  0  0  0  0
 37 40  1  0  0  0  0
 38 42  1  0  0  0  0
 39 45  1  0  0  0  0
 40 63  1  0  0  0  0
 41 45  1  0  0  0  0
 41 63  1  0  0  0  0
 42 66  1  0  0  0  0
 43 62  1  0  0  0  0
 44 46  1  0  0  0  0
 44 47  1  0  0  0  0
 44 54  1  0  0  0  0
 45 61  1  0  0  0  0
 46 47  1  0  0  0  0
 46 69  1  0  0  0  0
 47 77  1  0  0  0  0
 48 54  1  0  0  0  0
 49 58  1  0  0  0  0
 50 59  1  0  0  0  0
 51 59  1  0  0  0  0
 52 59  1  0  0  0  0
 53 70  1  0  0  0  0
 55 56  1  0  0  0  0
 55 68  1  0  0  0  0
 56 69  1  0  0  0  0
 57 59  1  0  0  0  0
 57 67  1  0  0  0  0
 58 70  1  0  0  0  0
 60 61  1  0  0  0  0
M  CHG  2  69   1  70   1
M  ISO  4  32 100  47 101  68 100  77 101
M  END
> <Batch ID>
0139

> <Smiles>
CCC1C(NCC[100NH:0][100C:0](=O)N2CCCC(n3nc(-c4ccc(Oc5ccc(F)cc5F)cc4)c(C(N)=O)c3N)C2)[101CH:1]1[101O:1]c1ccc2c(c1)CN(C(=O)C(NC(=O)C(C)NC)C(C)(C)C)C(C(=O)NC1CCCc3ccccc31)C2

> <Shape>
0.214

> <Color>
0.076

> <Negative vol penalty>
0.000

$$$$

  -OEChem-04052321103D

 85 93  0     1  0  0  0  0  0999 V2000
  -21.7411  -11.8188   21.7117 C   0  0  0  0  0  0  0  0  0  0  0  0
  -21.9307  -13.0734   22.2822 C   0  0  0  0  0  0  0  0  0  0  0  0
  -29.3585  -28.3091   19.3246 C   0  0  0  0  0  0  0  0  0  0  0  0
  -28.4581  -26.2789   20.2757 C   0  0  0  0  0  0  0  0  0  0  0  0
  -22.7755  -11.2156   20.9975 C   0  0  0  0  0  0  0  0  0  0  0  0
  -23.1553  -13.7250   22.1398 C   0  0  0  0  0  0  0  0  0  0  0  0
  -22.6251  -18.6175   20.9449 C   0  0  0  0  0  0  0  0  0  0  0  0
  -30.6140  -27.7086   19.2312 C   0  0  0  0  0  0  0  0  0  0  0  0
  -29.7136  -25.6783   20.1822 C   0  0  0  0  0  0  0  0  0  0  0  0
  -22.2880  -19.4921   21.9769 C   0  0  0  0  0  0  0  0  0  0  0  0
  -34.1388  -26.8284   19.0757 C   0  0  0  0  0  0  0  0  0  0  0  0
  -35.2462  -27.5697   19.4877 C   0  0  0  0  0  0  0  0  0  0  0  0
  -24.5975  -20.1664   22.1519 C   0  0  0  0  0  0  0  0  0  0  0  0
  -20.7003  -25.4098   22.2553 C   0  0  0  0  0  0  0  0  0  0  0  0
  -21.3814  -25.7310   24.5509 C   0  0  0  0  0  0  0  0  0  0  0  0
  -34.3059  -27.7412   21.7066 C   0  0  0  0  0  0  0  0  0  0  0  0
  -28.2806  -27.5942   19.8469 C   0  0  0  0  0  0  0  0  0  0  0  0
  -25.9646  -28.2108   18.9728 C   0  0  0  0  0  0  0  0  0  0  0  0
  -24.0101  -11.8643   20.8380 C   0  0  0  0  0  0  0  0  0  0  0  0
  -23.9550  -18.5026   20.5152 C   0  0  0  0  0  0  0  0  0  0  0  0
  -24.2076  -13.1293   21.4240 C   0  0  0  0  0  0  0  0  0  0  0  0
  -24.9485  -19.2915   21.1124 C   0  0  0  0  0  0  0  0  0  0  0  0
  -20.1959  -26.7099   22.2230 C   0  0  0  0  0  0  0  0  0  0  0  0
  -20.8771  -27.0311   24.5187 C   0  0  0  0  0  0  0  0  0  0  0  0
  -20.2844  -27.5205   23.3547 C   0  0  0  0  0  0  0  0  0  0  0  0
  -30.7916  -26.3932   19.6600 C   0  0  0  0  0  0  0  0  0  0  0  0
  -23.2747  -20.2646   22.5826 C   0  0  0  0  0  0  0  0  0  0  0  0
  -33.1149  -26.5436   19.9791 C   0  0  0  0  0  0  0  0  0  0  0  0
  -21.2930  -24.9203   23.4193 C   0  0  0  0  0  0  0  0  0  0  0  0
  -35.3298  -28.0261   20.8031 C   0  0  0  0  0  0  0  0  0  0  0  0
  -33.1984  -27.0000   21.2945 C   0  0  0  0  0  0  0  0  0  0  0  0
  -26.9835  -28.2142   19.9442 C   0  0  0  0  0  0  0  0  0  0  0  0
  -24.9434  -28.9301   19.5438 C   0  0  0  0  0  0  0  0  0  0  0  0
  -25.9432  -27.6109   17.6707 C   0  0  0  0  0  0  0  0  0  0  0  0
  -26.0919  -16.1506   20.4371 C   0  0  0  0  0  0  0  0  0  0  0  0
  -27.8646  -18.3394   18.8281 C   0  0  0  0  0  0  0  0  0  0  0  0
  -28.5030  -21.6245   18.1594 C   0  0  0  0  0  0  0  0  0  0  0  0
  -23.4330  -30.0602   25.2265 C   0  0  0  0  0  0  0  0  0  0  0  0
  -25.1142  -11.1520   20.0976 C   0  0  0  0  0  0  0  0  0  0  0  0
  -24.2981  -17.5741   19.3826 C   0  0  0  0  0  0  0  0  0  0  0  0
  -26.3877  -19.2203   20.6742 C   0  0  0  0  0  0  0  0  0  0  0  0
  -26.2565  -12.0722   19.6748 C   0  0  0  0  0  0  0  0  0  0  0  0
  -24.1425  -32.4497   22.6842 C   0  0  0  0  0  0  0  0  0  0  0  0
  -26.6717  -12.9743   20.8327 C   0  0  0  0  0  0  0  0  0  0  0  0
  -24.8591  -31.6349   21.6060 C   0  0  0  0  0  0  0  0  0  0  0  0
  -24.5129  -31.9771   24.0883 C   0  0  0  0  0  0  0  0  0  0  0  0
  -25.0363  -29.7198   23.2491 C   0  0  0  0  0  0  0  0  0  0  0  0
  -25.5133  -13.8787   21.2704 C   0  0  1  0  0  0  0  0  0  0  0  0
  -25.7664  -17.1603   19.3730 C   0  0  1  0  0  0  0  0  0  0  0  0
  -24.6516  -30.1228   21.8153 C   0  0  2  0  0  0  0  0  0  0  0  0
  -19.5674  -27.2096   20.9635 C   0  0  0  0  0  0  0  0  0  0  0  0
  -18.4020  -29.0299   24.0364 C   0  0  0  0  0  0  0  0  0  0  0  0
  -30.0373  -23.1029   16.8336 C   0  0  0  0  0  0  0  0  0  0  0  0
  -30.0927  -17.8374   20.8513 C   0  0  0  0  0  0  0  0  0  0  0  0
  -31.1775  -19.9572   20.0779 C   0  0  0  0  0  0  0  0  0  0  0  0
  -30.8653  -18.0643   18.4836 C   0  0  0  0  0  0  0  0  0  0  0  0
  -26.2541  -22.7653   16.6101 C   0  0  0  0  0  0  0  0  0  0  0  0
  -20.9820  -27.8786   25.7442 C   0  0  0  0  0  0  0  0  0  0  0  0
  -19.7430  -28.9145   23.3199 C   0  0  0  0  0  0  0  0  0  0  0  0
  -22.4179  -28.0420   26.2541 C   0  0  0  0  0  0  0  0  0  0  0  0
  -23.7451  -22.2943   23.7292 C   0  0  0  0  0  0  0  0  0  1  0  0
  -22.8926  -23.4042   24.3130 C   0  0  0  0  0  0  0  0  0  0  0  0
  -28.8550  -19.4094   19.2194 C   0  0  1  0  0  0  0  0  0  0  0  0
  -28.7078  -22.3646   16.8499 C   0  0  2  0  0  0  0  0  0  0  0  0
  -30.2209  -18.8172   19.6679 C   0  0  0  0  0  0  0  0  0  0  0  0
  -26.6408  -28.8829   21.0485 N   0  0  0  0  0  0  0  0  0  0  0  0
  -25.3952  -29.3064   20.7745 N   0  0  0  0  0  0  0  0  0  0  0  0
  -26.6741  -18.2929   19.5672 N   0  0  0  0  0  0  0  0  0  0  0  0
  -24.2914  -30.5352   24.2213 N   0  0  0  0  0  0  0  0  0  0  0  0
  -23.7120  -29.2713   19.1082 N   0  0  0  0  0  0  0  0  0  0  0  0
  -27.0766  -26.9076   17.2404 N   0  0  0  0  0  0  0  0  0  0  0  0
  -25.3581  -14.9831   20.3481 N   0  0  0  0  0  0  0  0  0  0  0  0
  -28.9427  -20.3199   18.0829 N   0  0  0  0  0  0  0  0  0  0  0  0
  -23.2736  -28.6808   25.2791 N   0  0  0  0  0  0  0  0  0  0  0  0
  -27.6163  -23.3573   16.6397 N   0  3  0  0  0  0  0  0  0  0  0  0
  -24.9547  -27.7099   16.9049 O   0  0  0  0  0  0  0  0  0  0  0  0
  -26.9465  -16.4109   21.2759 O   0  0  0  0  0  0  0  0  0  0  0  0
  -28.1342  -17.5776   17.8960 O   0  0  0  0  0  0  0  0  0  0  0  0
  -28.0063  -22.1522   19.1521 O   0  0  0  0  0  0  0  0  0  0  0  0
  -22.8475  -30.8101   26.0150 O   0  0  0  0  0  0  0  0  0  0  0  0
  -32.0165  -25.8069   19.5687 O   0  0  0  0  0  0  0  0  0  0  0  0
  -22.9484  -21.1186   23.5906 O   0  0  0  0  0  0  0  0  0  1  0  0
  -21.7863  -23.6425   23.4512 O   0  0  0  0  0  0  0  0  0  0  0  0
  -36.3940  -28.7366   21.1990 F   0  0  0  0  0  0  0  0  0  0  0  0
  -32.2184  -26.7285   22.1673 F   0  0  0  0  0  0  0  0  0  0  0  0
  1  2  1  0  0  0  0
  1  5  2  0  0  0  0
  2  6  2  0  0  0  0
  3  8  2  0  0  0  0
  3 17  1  0  0  0  0
  4  9  1  0  0  0  0
  4 17  2  0  0  0  0
  5 19  1  0  0  0  0
  6 21  1  0  0  0  0
  7 10  2  0  0  0  0
  7 20  1  0  0  0  0
  8 26  1  0  0  0  0
  9 26  2  0  0  0  0
 10 27  1  0  0  0  0
 11 12  2  0  0  0  0
 11 28  1  0  0  0  0
 12 30  1  0  0  0  0
 13 22  1  0  0  0  0
 13 27  2  0  0  0  0
 14 23  2  0  0  0  0
 14 29  1  0  0  0  0
 15 24  1  0  0  0  0
 15 29  2  0  0  0  0
 16 30  2  0  0  0  0
 16 31  1  0  0  0  0
 17 32  1  0  0  0  0
 18 32  1  0  0  0  0
 18 33  2  0  0  0  0
 18 34  1  0  0  0  0
 19 21  2  0  0  0  0
 19 39  1  0  0  0  0
 20 22  2  0  0  0  0
 20 40  1  0  0  0  0
 21 48  1  0  0  0  0
 22 41  1  0  0  0  0
 23 25  1  0  0  0  0
 23 51  1  0  0  0  0
 24 25  2  0  0  0  0
 24 58  1  0  0  0  0
 25 59  1  0  0  0  0
 26 81  1  0  0  0  0
 27 82  1  0  0  0  0
 28 31  2  0  0  0  0
 28 81  1  0  0  0  0
 29 83  1  0  0  0  0
 30 84  1  0  0  0  0
 31 85  1  0  0  0  0
 32 66  2  0  0  0  0
 33 67  1  0  0  0  0
 33 70  1  0  0  0  0
 34 71  1  0  0  0  0
 34 76  2  0  0  0  0
 35 49  1  0  0  0  0
 35 72  1  0  0  0  0
 35 77  2  0  0  0  0
 36 63  1  0  0  0  0
 36 68  1  0  0  0  0
 36 78  2  0  0  0  0
 37 64  1  0  0  0  0
 37 73  1  0  0  0  0
 37 79  2  0  0  0  0
 38 69  1  0  0  0  0
 38 74  1  0  0  0  0
 38 80  2  0  0  0  0
 39 42  1  0  0  0  0
 40 49  1  0  0  0  0
 41 68  1  0  0  0  0
 42 44  1  0  0  0  0
 43 45  1  0  0  0  0
 43 46  1  0  0  0  0
 44 48  1  0  0  0  0
 45 50  1  0  0  0  0
 46 69  1  0  0  0  0
 47 50  1  0  0  0  0
 47 69  1  0  0  0  0
 48 72  1  0  0  0  0
 49 68  1  0  0  0  0
 50 67  1  0  0  0  0
 52 59  1  0  0  0  0
 53 64  1  0  0  0  0
 54 65  1  0  0  0  0
 55 65  1  0  0  0  0
 56 65  1  0  0  0  0
 57 75  1  0  0  0  0
 58 60  1  0  0  0  0
 60 74  1  0  0  0  0
 61 62  1  0  0  0  0
 61 82  1  0  0  0  0
 62 83  1  0  0  0  0
 63 65  1  0  0  0  0
 63 73  1  0  0  0  0
 64 75  1  0  0  0  0
 66 67  1  0  0  0  0
M  CHG  1  75   1
M  ISO  4  38 100  61 101  74 100  82 101
M  END
> <Batch ID>
0139

> <Smiles>
CCc1c(C)cc(OC[101CH2:1][101O:1]c2ccc3c(c2)CN(C(=O)C(NC(=O)C(C)NC)C(C)(C)C)C(C(=O)NC2CCCc4ccccc42)C3)cc1CC[100NH:0][100C:0](=O)N1CCCC(n2nc(-c3ccc(Oc4ccc(F)cc4F)cc3)c(C(N)=O)c2N)C1

> <Shape>
0.251

> <Color>
0.059

> <Negative vol penalty>
0.000

$$$$

  -OEChem-04052321103D

 89 98  0     1  0  0  0  0  0999 V2000
  -15.5184  -29.8136   26.9401 C   0  0  0  0  0  0  0  0  0  0  0  0
  -16.3282  -28.6956   27.1128 C   0  0  0  0  0  0  0  0  0  0  0  0
  -23.0928   -9.7686   19.9847 C   0  0  0  0  0  0  0  0  0  0  0  0
  -23.6516  -10.0269   22.3209 C   0  0  0  0  0  0  0  0  0  0  0  0
  -15.7132  -30.6511   25.8426 C   0  0  0  0  0  0  0  0  0  0  0  0
  -17.3324  -28.4138   26.1873 C   0  0  0  0  0  0  0  0  0  0  0  0
  -22.8062  -25.9207   27.3393 C   0  0  0  0  0  0  0  0  0  0  0  0
  -28.8302  -19.3029   24.6794 C   0  0  0  0  0  0  0  0  0  0  0  0
  -22.3319   -8.6405   20.2914 C   0  0  0  0  0  0  0  0  0  0  0  0
  -22.8907   -8.8988   22.6277 C   0  0  0  0  0  0  0  0  0  0  0  0
  -23.2865  -24.6171   27.2223 C   0  0  0  0  0  0  0  0  0  0  0  0
  -27.9991  -19.9744   25.5759 C   0  0  0  0  0  0  0  0  0  0  0  0
  -23.2339   -5.5397   22.4545 C   0  0  0  0  0  0  0  0  0  0  0  0
  -23.7866   -4.6030   23.3277 C   0  0  0  0  0  0  0  0  0  0  0  0
  -24.1896  -25.1512   25.0501 C   0  0  0  0  0  0  0  0  0  0  0  0
  -28.5711  -22.0766   24.5315 C   0  0  0  0  0  0  0  0  0  0  0  0
  -21.9438   -4.9383   24.8538 C   0  0  0  0  0  0  0  0  0  0  0  0
  -23.7527  -10.4618   20.9995 C   0  0  0  0  0  0  0  0  0  0  0  0
  -24.0997  -12.9635   20.6408 C   0  0  0  0  0  0  0  0  0  0  0  0
  -16.7266  -30.3849   24.9084 C   0  0  0  0  0  0  0  0  0  0  0  0
  -23.0049  -26.8478   26.3062 C   0  0  0  0  0  0  0  0  0  0  0  0
  -17.5400  -29.2478   25.0755 C   0  0  0  0  0  0  0  0  0  0  0  0
  -29.5319  -20.0182   23.7089 C   0  0  0  0  0  0  0  0  0  0  0  0
  -23.7131  -26.4667   25.1576 C   0  0  0  0  0  0  0  0  0  0  0  0
  -29.4023  -21.4050   23.6350 C   0  0  0  0  0  0  0  0  0  0  0  0
  -22.2308   -8.2056   21.6129 C   0  0  0  0  0  0  0  0  0  0  0  0
  -23.9758  -24.2313   26.0764 C   0  0  0  0  0  0  0  0  0  0  0  0
  -27.8695  -21.3613   25.5019 C   0  0  0  0  0  0  0  0  0  0  0  0
  -22.0361   -6.1758   22.7809 C   0  0  0  0  0  0  0  0  0  0  0  0
  -23.1416   -4.3023   24.5274 C   0  0  0  0  0  0  0  0  0  0  0  0
  -21.3911   -5.8751   23.9806 C   0  0  0  0  0  0  0  0  0  0  0  0
  -24.5393  -11.6268   20.6832 C   0  0  0  0  0  0  0  0  0  0  0  0
  -25.2180  -13.6819   20.2947 C   0  0  0  0  0  0  0  0  0  0  0  0
  -22.7970  -13.5071   20.8919 C   0  0  0  0  0  0  0  0  0  0  0  0
  -21.0937  -28.5086   24.3845 C   0  0  0  0  0  0  0  0  0  0  0  0
  -23.8779  -29.8826   23.4452 C   0  0  0  0  0  0  0  0  0  0  0  0
  -27.2701  -29.6491   23.1533 C   0  0  0  0  0  0  0  0  0  0  0  0
  -30.6633  -14.7741   20.8430 C   0  0  0  0  0  0  0  0  0  0  0  0
  -16.8683  -31.2928   23.7125 C   0  0  0  0  0  0  0  0  0  0  0  0
  -22.5038  -28.2577   26.4593 C   0  0  0  0  0  0  0  0  0  0  0  0
  -23.9705  -27.4298   24.0286 C   0  0  0  0  0  0  0  0  0  0  0  0
  -18.1977  -31.1319   22.9797 C   0  0  0  0  0  0  0  0  0  0  0  0
  -29.7399  -12.1379   18.6352 C   0  0  0  0  0  0  0  0  0  0  0  0
  -31.5299  -18.5100   23.5060 C   0  0  0  0  0  0  0  0  0  0  0  0
  -18.5147  -29.6551   22.7669 C   0  0  0  0  0  0  0  0  0  0  0  0
  -28.2709  -11.8763   18.9721 C   0  0  0  0  0  0  0  0  0  0  0  0
  -31.2938  -17.0322   23.2097 C   0  0  0  0  0  0  0  0  0  0  0  0
  -30.5495  -12.4946   19.8799 C   0  0  0  0  0  0  0  0  0  0  0  0
  -28.5339  -13.3481   21.0125 C   0  0  0  0  0  0  0  0  0  0  0  0
  -30.4156  -19.2771   22.7602 C   0  0  1  0  0  0  0  0  0  0  0  0
  -18.6560  -28.9225   24.1066 C   0  0  1  0  0  0  0  0  0  0  0  0
  -22.3157  -28.9732   25.1250 C   0  0  1  0  0  0  0  0  0  0  0  0
  -29.6226  -18.2022   21.9739 C   0  0  2  0  0  0  0  0  0  0  0  0
  -27.6655  -13.0392   19.7810 C   0  0  2  0  0  0  0  0  0  0  0  0
  -30.6187  -17.0442   21.8447 C   0  0  2  0  0  0  0  0  0  0  0  0
  -30.1445  -22.1919   22.6052 C   0  0  0  0  0  0  0  0  0  0  0  0
  -29.2666  -30.9149   22.3112 C   0  0  0  0  0  0  0  0  0  0  0  0
  -30.2403  -18.7106   19.5941 C   0  0  0  0  0  0  0  0  0  0  0  0
  -27.9417  -17.8612   20.1406 C   0  0  0  0  0  0  0  0  0  0  0  0
  -23.1166  -29.1708   20.5775 C   0  0  0  0  0  0  0  0  0  0  0  0
  -25.4973  -29.5778   19.9183 C   0  0  0  0  0  0  0  0  0  0  0  0
  -24.1286  -31.4409   20.8553 C   0  0  0  0  0  0  0  0  0  0  0  0
  -28.4948  -29.7382   25.8461 C   0  0  0  0  0  0  0  0  0  0  0  0
  -24.8064  -22.2868   27.1649 C   0  0  0  0  0  0  0  0  0  1  0  0
  -25.9242  -21.3058   26.8689 C   0  0  0  0  0  0  0  0  0  0  0  0
  -24.9119  -29.5871   22.3857 C   0  0  1  0  0  0  0  0  0  0  0  0
  -28.3812  -30.6195   23.5118 C   0  0  2  0  0  0  0  0  0  0  0  0
  -29.1159  -18.7085   20.6291 C   0  0  0  0  0  0  0  0  0  0  0  0
  -24.4072  -29.9252   20.9545 C   0  0  0  0  0  0  0  0  0  0  0  0
  -25.8357  -11.5008   20.3875 N   0  0  0  0  0  0  0  0  0  0  0  0
  -26.2203  -12.7675   20.1559 N   0  0  0  0  0  0  0  0  0  0  0  0
  -23.4552  -28.7952   24.2227 N   0  0  0  0  0  0  0  0  0  0  0  0
  -29.9229  -13.6053   20.6007 N   0  0  0  0  0  0  0  0  0  0  0  0
  -25.4318  -15.0003   20.0986 N   0  0  0  0  0  0  0  0  0  0  0  0
  -21.7611  -12.6280   21.2361 N   0  0  0  0  0  0  0  0  0  0  0  0
  -19.9437  -29.2050   24.7038 N   0  0  0  0  0  0  0  0  0  0  0  0
  -26.1177  -30.3076   22.7798 N   0  0  0  0  0  0  0  0  0  0  0  0
  -29.9922  -15.7805   21.5267 N   0  0  0  0  0  0  0  0  0  0  0  0
  -29.2329  -30.0541   24.5961 N   0  3  0  0  0  0  0  0  0  0  0  0
  -22.5547  -14.7343   20.7973 O   0  0  0  0  0  0  0  0  0  0  0  0
  -21.1875  -27.5875   23.5817 O   0  0  0  0  0  0  0  0  0  0  0  0
  -23.4660  -31.0372   23.5828 O   0  0  0  0  0  0  0  0  0  0  0  0
  -27.4117  -28.4290   23.1965 O   0  0  0  0  0  0  0  0  0  0  0  0
  -31.8340  -14.9127   20.4723 O   0  0  0  0  0  0  0  0  0  0  0  0
  -21.4882   -7.1050   21.9125 O   0  0  0  0  0  0  0  0  0  0  0  0
  -24.4451  -22.9593   25.9593 O   0  0  0  0  0  0  0  0  0  1  0  0
  -27.0535  -22.0211   26.3828 O   0  0  0  0  0  0  0  0  0  0  0  0
  -23.6717   -3.4015   25.3652 F   0  0  0  0  0  0  0  0  0  0  0  0
  -20.2396   -6.4820   24.2991 F   0  0  0  0  0  0  0  0  0  0  0  0
  1  2  1  0  0  0  0
  1  5  2  0  0  0  0
  2  6  2  0  0  0  0
  3  9  2  0  0  0  0
  3 18  1  0  0  0  0
  4 10  1  0  0  0  0
  4 18  2  0  0  0  0
  5 20  1  0  0  0  0
  6 22  1  0  0  0  0
  7 11  2  0  0  0  0
  7 21  1  0  0  0  0
  8 12  2  0  0  0  0
  8 23  1  0  0  0  0
  9 26  1  0  0  0  0
 10 26  2  0  0  0  0
 11 27  1  0  0  0  0
 12 28  1  0  0  0  0
 13 14  2  0  0  0  0
 13 29  1  0  0  0  0
 14 30  1  0  0  0  0
 15 24  1  0  0  0  0
 15 27  2  0  0  0  0
 16 25  1  0  0  0  0
 16 28  2  0  0  0  0
 17 30  2  0  0  0  0
 17 31  1  0  0  0  0
 18 32  1  0  0  0  0
 19 32  1  0  0  0  0
 19 33  2  0  0  0  0
 19 34  1  0  0  0  0
 20 22  2  0  0  0  0
 20 39  1  0  0  0  0
 21 24  2  0  0  0  0
 21 40  1  0  0  0  0
 22 51  1  0  0  0  0
 23 25  2  0  0  0  0
 23 50  1  0  0  0  0
 24 41  1  0  0  0  0
 25 56  1  0  0  0  0
 26 85  1  0  0  0  0
 27 86  1  0  0  0  0
 28 87  1  0  0  0  0
 29 31  2  0  0  0  0
 29 85  1  0  0  0  0
 30 88  1  0  0  0  0
 31 89  1  0  0  0  0
 32 70  2  0  0  0  0
 33 71  1  0  0  0  0
 33 74  1  0  0  0  0
 34 75  1  0  0  0  0
 34 80  2  0  0  0  0
 35 52  1  0  0  0  0
 35 76  1  0  0  0  0
 35 81  2  0  0  0  0
 36 66  1  0  0  0  0
 36 72  1  0  0  0  0
 36 82  2  0  0  0  0
 37 67  1  0  0  0  0
 37 77  1  0  0  0  0
 37 83  2  0  0  0  0
 38 73  1  0  0  0  0
 38 78  1  0  0  0  0
 38 84  2  0  0  0  0
 39 42  1  0  0  0  0
 40 52  1  0  0  0  0
 41 72  1  0  0  0  0
 42 45  1  0  0  0  0
 43 46  1  0  0  0  0
 43 48  1  0  0  0  0
 44 47  1  0  0  0  0
 44 50  1  0  0  0  0
 45 51  1  0  0  0  0
 46 54  1  0  0  0  0
 47 55  1  0  0  0  0
 48 73  1  0  0  0  0
 49 54  1  0  0  0  0
 49 73  1  0  0  0  0
 50 53  1  0  0  0  0
 51 76  1  0  0  0  0
 52 72  1  0  0  0  0
 53 55  1  0  0  0  0
 53 68  1  0  0  0  0
 54 71  1  0  0  0  0
 55 78  1  0  0  0  0
 57 67  1  0  0  0  0
 58 68  1  0  0  0  0
 59 68  1  0  0  0  0
 60 69  1  0  0  0  0
 61 69  1  0  0  0  0
 62 69  1  0  0  0  0
 63 79  1  0  0  0  0
 64 65  1  0  0  0  0
 64 86  1  0  0  0  0
 65 87  1  0  0  0  0
 66 69  1  0  0  0  0
 66 77  1  0  0  0  0
 67 79  1  0  0  0  0
 70 71  1  0  0  0  0
M  CHG  1  79   1
M  ISO  4  38 100  64 101  78 100  86 101
M  END
> <Batch ID>
0139

> <Smiles>
CNC(C)C(=O)NC(C(=O)N1Cc2cc([101O:1][101CH2:1]COc3ccc(C4CCC([100NH:0][100C:0](=O)N5CCCC(n6nc(-c7ccc(Oc8ccc(F)cc8F)cc7)c(C(N)=O)c6N)C5)C4C(C)C)c(C)c3)ccc2CC1C(=O)NC1CCCc2ccccc21)C(C)(C)C

> <Shape>
0.302

> <Color>
0.204

> <Negative vol penalty>
0.000

$$$$

  -OEChem-04052321103D

 84 93  0     1  0  0  0  0  0999 V2000
  -22.2363  -11.1366   19.2119 C   0  0  0  0  0  0  0  0  0  0  0  0
  -21.8058  -12.3867   19.6448 C   0  0  0  0  0  0  0  0  0  0  0  0
  -29.5638  -28.3874   21.1388 C   0  0  0  0  0  0  0  0  0  0  0  0
  -28.3403  -26.9699   22.6656 C   0  0  0  0  0  0  0  0  0  0  0  0
  -23.5610  -10.7495   19.4103 C   0  0  0  0  0  0  0  0  0  0  0  0
  -22.6996  -13.2501   20.2774 C   0  0  0  0  0  0  0  0  0  0  0  0
  -22.8173  -19.3606   19.8859 C   0  0  0  0  0  0  0  0  0  0  0  0
  -30.6966  -28.2784   21.9454 C   0  0  0  0  0  0  0  0  0  0  0  0
  -29.4731  -26.8609   23.4721 C   0  0  0  0  0  0  0  0  0  0  0  0
  -22.3285  -20.3637   20.7218 C   0  0  0  0  0  0  0  0  0  0  0  0
  -34.0160  -28.0797   23.4141 C   0  0  0  0  0  0  0  0  0  0  0  0
  -35.2382  -27.8391   22.7865 C   0  0  0  0  0  0  0  0  0  0  0  0
  -24.5061  -20.5684   21.7393 C   0  0  0  0  0  0  0  0  0  0  0  0
  -20.8531  -24.7281   22.8175 C   0  0  0  0  0  0  0  0  0  0  0  0
  -34.3677  -25.7745   21.8828 C   0  0  0  0  0  0  0  0  0  0  0  0
  -20.5575  -24.2450   25.4868 C   0  0  0  0  0  0  0  0  0  0  0  0
  -28.3856  -27.7331   21.4990 C   0  0  0  0  0  0  0  0  0  0  0  0
  -26.8493  -27.0079   19.5959 C   0  0  0  0  0  0  0  0  0  0  0  0
  -24.4738  -11.6125   20.0370 C   0  0  0  0  0  0  0  0  0  0  0  0
  -24.1536  -18.9457   19.9780 C   0  0  0  0  0  0  0  0  0  0  0  0
  -24.0374  -12.8737   20.4855 C   0  0  0  0  0  0  0  0  0  0  0  0
  -25.0100  -19.5617   20.9017 C   0  0  0  0  0  0  0  0  0  0  0  0
  -20.8416  -23.1749   24.6538 C   0  0  0  0  0  0  0  0  0  0  0  0
  -20.9907  -23.4295   23.2950 C   0  0  0  0  0  0  0  0  0  0  0  0
  -30.6513  -27.5151   23.1120 C   0  0  0  0  0  0  0  0  0  0  0  0
  -23.1722  -20.9657   21.6507 C   0  0  0  0  0  0  0  0  0  0  0  0
  -32.9696  -27.1677   23.2761 C   0  0  0  0  0  0  0  0  0  0  0  0
  -35.4141  -26.6865   22.0209 C   0  0  0  0  0  0  0  0  0  0  0  0
  -33.1455  -26.0151   22.5104 C   0  0  0  0  0  0  0  0  0  0  0  0
  -27.2150  -27.8458   20.6665 C   0  0  0  0  0  0  0  0  0  0  0  0
  -20.5683  -25.7287   23.7327 C   0  0  0  0  0  0  0  0  0  0  0  0
  -25.6662  -27.5336   19.1372 C   0  0  0  0  0  0  0  0  0  0  0  0
  -27.5192  -25.8574   19.0638 C   0  0  0  0  0  0  0  0  0  0  0  0
  -25.6092  -16.2113   20.6911 C   0  0  0  0  0  0  0  0  0  0  0  0
  -28.2731  -17.8629   19.8553 C   0  0  0  0  0  0  0  0  0  0  0  0
  -29.8065  -20.8880   19.4760 C   0  0  0  0  0  0  0  0  0  0  0  0
  -21.4017  -30.8466   21.7235 C   0  0  0  0  0  0  0  0  0  0  0  0
  -25.8838  -11.1314   20.2717 C   0  0  0  0  0  0  0  0  0  0  0  0
  -24.6723  -17.8810   19.0508 C   0  0  0  0  0  0  0  0  0  0  0  0
  -26.4581  -19.1666   21.0264 C   0  0  0  0  0  0  0  0  0  0  0  0
  -26.8610  -12.2529   20.6145 C   0  0  0  0  0  0  0  0  0  0  0  0
  -23.2818  -31.6689   18.8139 C   0  0  0  0  0  0  0  0  0  0  0  0
  -21.3780  -21.6396   26.6610 C   0  0  0  0  0  0  0  0  0  0  0  0
  -22.3486  -21.2893   25.5768 C   0  0  0  0  0  0  0  0  0  0  0  0
  -26.2627  -13.1784   21.6691 C   0  0  0  0  0  0  0  0  0  0  0  0
  -24.4700  -30.7067   18.8621 C   0  0  0  0  0  0  0  0  0  0  0  0
  -22.8780  -32.1375   20.2101 C   0  0  0  0  0  0  0  0  0  0  0  0
  -23.8052  -30.0916   21.2240 C   0  0  0  0  0  0  0  0  0  0  0  0
  -20.9780  -21.8029   25.2172 C   0  0  0  0  0  0  0  0  0  0  0  0
  -24.9831  -13.8481   21.1535 C   0  0  1  0  0  0  0  0  0  0  0  0
  -25.9176  -17.1792   19.5839 C   0  0  1  0  0  0  0  0  0  0  0  0
  -24.2136  -29.5478   19.8442 C   0  0  2  0  0  0  0  0  0  0  0  0
  -31.5938  -22.5283   18.8339 C   0  0  0  0  0  0  0  0  0  0  0  0
  -29.4540  -17.0811   22.5580 C   0  0  0  0  0  0  0  0  0  0  0  0
  -31.1771  -18.8701   22.2443 C   0  0  0  0  0  0  0  0  0  0  0  0
  -31.0591  -16.9602   20.6440 C   0  0  0  0  0  0  0  0  0  0  0  0
  -28.7432  -21.1472   16.7263 C   0  0  0  0  0  0  0  0  0  0  0  0
  -21.2973  -22.3235   22.3285 C   0  0  0  0  0  0  0  0  0  1  0  0
  -20.1396  -28.1635   24.0700 C   0  0  0  0  0  0  0  0  0  0  0  0
  -20.0403  -29.4401   23.2491 C   0  0  0  0  0  0  0  0  0  0  0  0
  -29.2621  -18.7378   20.5871 C   0  0  1  0  0  0  0  0  0  0  0  0
  -30.6259  -21.4661   18.3364 C   0  0  2  0  0  0  0  0  0  0  0  0
  -30.2103  -17.9186   21.5075 C   0  0  0  0  0  0  0  0  0  0  0  0
  -20.4165  -25.5199   25.0598 N   0  0  0  0  0  0  0  0  0  0  0  0
  -26.3355  -28.8291   20.8754 N   0  0  0  0  0  0  0  0  0  0  0  0
  -25.4055  -28.6125   19.9297 N   0  0  0  0  0  0  0  0  0  0  0  0
  -26.9164  -18.1164   20.1020 N   0  0  0  0  0  0  0  0  0  0  0  0
  -22.6479  -30.9904   21.0916 N   0  0  0  0  0  0  0  0  0  0  0  0
  -24.8340  -27.1736   18.1371 N   0  0  0  0  0  0  0  0  0  0  0  0
  -28.7247  -25.4537   19.6539 N   0  0  0  0  0  0  0  0  0  0  0  0
  -20.4319  -27.0471   23.2313 N   0  0  0  0  0  0  0  0  0  0  0  0
  -25.3083  -14.9351   20.2551 N   0  0  0  0  0  0  0  0  0  0  0  0
  -29.9497  -19.5195   19.5651 N   0  0  0  0  0  0  0  0  0  0  0  0
  -21.2652  -29.7284   22.5369 N   0  0  0  0  0  0  0  0  0  0  0  0
  -29.7317  -22.0854   17.3176 N   0  3  0  0  0  0  0  0  0  0  0  0
  -27.0707  -25.2163   18.0833 O   0  0  0  0  0  0  0  0  0  0  0  0
  -25.6433  -16.5938   21.8548 O   0  0  0  0  0  0  0  0  0  0  0  0
  -28.6889  -16.9915   19.0876 O   0  0  0  0  0  0  0  0  0  0  0  0
  -29.1120  -21.5816   20.2158 O   0  0  0  0  0  0  0  0  0  0  0  0
  -20.4772  -31.6519   21.5695 O   0  0  0  0  0  0  0  0  0  0  0  0
  -31.7565  -27.4084   23.8991 O   0  0  0  0  0  0  0  0  0  0  0  0
  -22.6975  -21.9446   22.4683 O   0  0  0  0  0  0  0  0  0  1  0  0
  -36.5873  -26.4563   21.4170 F   0  0  0  0  0  0  0  0  0  0  0  0
  -32.1435  -25.1358   22.3732 F   0  0  0  0  0  0  0  0  0  0  0  0
  1  2  1  0  0  0  0
  1  5  2  0  0  0  0
  2  6  2  0  0  0  0
  3  8  2  0  0  0  0
  3 17  1  0  0  0  0
  4  9  1  0  0  0  0
  4 17  2  0  0  0  0
  5 19  1  0  0  0  0
  6 21  1  0  0  0  0
  7 10  2  0  0  0  0
  7 20  1  0  0  0  0
  8 25  1  0  0  0  0
  9 25  2  0  0  0  0
 10 26  1  0  0  0  0
 11 12  2  0  0  0  0
 11 27  1  0  0  0  0
 12 28  1  0  0  0  0
 13 22  1  0  0  0  0
 13 26  2  0  0  0  0
 14 24  1  0  0  0  0
 14 31  2  0  0  0  0
 15 28  2  0  0  0  0
 15 29  1  0  0  0  0
 16 23  1  0  0  0  0
 16 64  2  0  0  0  0
 17 30  1  0  0  0  0
 18 30  1  0  0  0  0
 18 32  2  0  0  0  0
 18 33  1  0  0  0  0
 19 21  2  0  0  0  0
 19 38  1  0  0  0  0
 20 22  2  0  0  0  0
 20 39  1  0  0  0  0
 21 50  1  0  0  0  0
 22 40  1  0  0  0  0
 23 24  2  0  0  0  0
 23 49  1  0  0  0  0
 24 58  1  0  0  0  0
 25 81  1  0  0  0  0
 26 82  1  0  0  0  0
 27 29  2  0  0  0  0
 27 81  1  0  0  0  0
 28 83  1  0  0  0  0
 29 84  1  0  0  0  0
 30 65  2  0  0  0  0
 31 64  1  0  0  0  0
 31 71  1  0  0  0  0
 32 66  1  0  0  0  0
 32 69  1  0  0  0  0
 33 70  1  0  0  0  0
 33 76  2  0  0  0  0
 34 51  1  0  0  0  0
 34 72  1  0  0  0  0
 34 77  2  0  0  0  0
 35 61  1  0  0  0  0
 35 67  1  0  0  0  0
 35 78  2  0  0  0  0
 36 62  1  0  0  0  0
 36 73  1  0  0  0  0
 36 79  2  0  0  0  0
 37 68  1  0  0  0  0
 37 74  1  0  0  0  0
 37 80  2  0  0  0  0
 38 41  1  0  0  0  0
 39 51  1  0  0  0  0
 40 67  1  0  0  0  0
 41 45  1  0  0  0  0
 42 46  1  0  0  0  0
 42 47  1  0  0  0  0
 43 44  1  0  0  0  0
 43 49  1  0  0  0  0
 44 49  1  0  0  0  0
 45 50  1  0  0  0  0
 46 52  1  0  0  0  0
 47 68  1  0  0  0  0
 48 52  1  0  0  0  0
 48 68  1  0  0  0  0
 50 72  1  0  0  0  0
 51 67  1  0  0  0  0
 52 66  1  0  0  0  0
 53 62  1  0  0  0  0
 54 63  1  0  0  0  0
 55 63  1  0  0  0  0
 56 63  1  0  0  0  0
 57 75  1  0  0  0  0
 58 82  1  0  0  0  0
 59 60  1  0  0  0  0
 59 71  1  0  0  0  0
 60 74  1  0  0  0  0
 61 63  1  0  0  0  0
 61 73  1  0  0  0  0
 62 75  1  0  0  0  0
 65 66  1  0  0  0  0
M  CHG  1  75   1
M  ISO  4  37 100  58 101  74 100  82 101
M  END
> <Batch ID>
0139

> <Smiles>
CNC(C)C(=O)NC(C(=O)N1Cc2cc([101O:1][101CH2:1]c3cc(NCC[100NH:0][100C:0](=O)N4CCCC(n5nc(-c6ccc(Oc7ccc(F)cc7F)cc6)c(C(N)=O)c5N)C4)ncc3C3CC3)ccc2CC1C(=O)NC1CCCc2ccccc21)C(C)(C)C

> <Shape>
0.217

> <Color>
0.075

> <Negative vol penalty>
0.000

$$$$

  -OEChem-04052321103D

 86 95  0     1  0  0  0  0  0999 V2000
  -27.0075  -19.0789   19.0459 C   0  0  0  0  0  0  0  0  0  0  0  0
  -27.2691  -19.8741   20.1559 C   0  0  0  0  0  0  0  0  0  0  0  0
  -22.9431   -9.9489   20.0531 C   0  0  0  0  0  0  0  0  0  0  0  0
  -23.6529  -10.0702   22.3593 C   0  0  0  0  0  0  0  0  0  0  0  0
  -27.3943  -19.5090   17.7784 C   0  0  0  0  0  0  0  0  0  0  0  0
  -27.9070  -21.1049   19.9975 C   0  0  0  0  0  0  0  0  0  0  0  0
  -28.2552  -23.9708   23.9811 C   0  0  0  0  0  0  0  0  0  0  0  0
  -31.3522  -18.5684   24.7468 C   0  0  0  0  0  0  0  0  0  0  0  0
  -22.1412   -8.8491   20.3577 C   0  0  0  0  0  0  0  0  0  0  0  0
  -22.8509   -8.9704   22.6639 C   0  0  0  0  0  0  0  0  0  0  0  0
  -29.1135  -23.6856   25.0421 C   0  0  0  0  0  0  0  0  0  0  0  0
  -32.0987  -19.5782   25.3539 C   0  0  0  0  0  0  0  0  0  0  0  0
  -22.9989   -5.6095   22.3267 C   0  0  0  0  0  0  0  0  0  0  0  0
  -23.5504   -4.6062   23.1233 C   0  0  0  0  0  0  0  0  0  0  0  0
  -30.6349  -25.3867   24.2606 C   0  0  0  0  0  0  0  0  0  0  0  0
  -32.3223  -20.6942   23.2228 C   0  0  0  0  0  0  0  0  0  0  0  0
  -21.8225   -4.9664   24.7732 C   0  0  0  0  0  0  0  0  0  0  0  0
  -23.6990  -10.5595   21.0538 C   0  0  0  0  0  0  0  0  0  0  0  0
  -24.1605  -13.0536   20.7816 C   0  0  0  0  0  0  0  0  0  0  0  0
  -28.0484  -20.7401   17.6067 C   0  0  0  0  0  0  0  0  0  0  0  0
  -28.5860  -24.9603   23.0441 C   0  0  0  0  0  0  0  0  0  0  0  0
  -28.2838  -21.5674   18.7236 C   0  0  0  0  0  0  0  0  0  0  0  0
  -31.0908  -18.6214   23.3776 C   0  0  0  0  0  0  0  0  0  0  0  0
  -29.7779  -25.6843   23.1901 C   0  0  0  0  0  0  0  0  0  0  0  0
  -31.5758  -19.6844   22.6157 C   0  0  0  0  0  0  0  0  0  0  0  0
  -22.0950   -8.3598   21.6631 C   0  0  0  0  0  0  0  0  0  0  0  0
  -30.3049  -24.3916   25.1803 C   0  0  0  0  0  0  0  0  0  0  0  0
  -32.5837  -20.6411   24.5919 C   0  0  0  0  0  0  0  0  0  0  0  0
  -21.8592   -6.2914   22.7532 C   0  0  0  0  0  0  0  0  0  0  0  0
  -22.9622   -4.2846   24.3466 C   0  0  0  0  0  0  0  0  0  0  0  0
  -21.2710   -5.9698   23.9765 C   0  0  0  0  0  0  0  0  0  0  0  0
  -24.5281  -11.6953   20.7397 C   0  0  0  0  0  0  0  0  0  0  0  0
  -25.2940  -13.7280   20.3982 C   0  0  0  0  0  0  0  0  0  0  0  0
  -22.9067  -13.6522   21.1356 C   0  0  0  0  0  0  0  0  0  0  0  0
  -29.1362  -24.9909   19.9136 C   0  0  0  0  0  0  0  0  0  0  0  0
  -29.2511  -28.2019   20.3595 C   0  0  0  0  0  0  0  0  0  0  0  0
  -29.7747  -30.8138   22.4927 C   0  0  0  0  0  0  0  0  0  0  0  0
  -30.8142  -14.4662   20.6809 C   0  0  0  0  0  0  0  0  0  0  0  0
  -28.4382  -21.1603   16.2114 C   0  0  0  0  0  0  0  0  0  0  0  0
  -27.6368  -25.2744   21.9204 C   0  0  0  0  0  0  0  0  0  0  0  0
  -30.1697  -26.7702   22.2228 C   0  0  0  0  0  0  0  0  0  0  0  0
  -29.4948  -22.2601   16.1951 C   0  0  0  0  0  0  0  0  0  0  0  0
  -29.6057  -12.0723   18.3806 C   0  0  0  0  0  0  0  0  0  0  0  0
  -29.0846  -23.3890   17.1288 C   0  0  0  0  0  0  0  0  0  0  0  0
  -28.1581  -11.8401   18.8047 C   0  0  0  0  0  0  0  0  0  0  0  0
  -29.8332  -16.3659   23.6613 C   0  0  0  0  0  0  0  0  0  0  0  0
  -30.5007  -12.2693   19.5967 C   0  0  0  0  0  0  0  0  0  0  0  0
  -29.4278  -15.2768   22.6772 C   0  0  0  0  0  0  0  0  0  0  0  0
  -31.0096  -16.7435   21.6336 C   0  0  0  0  0  0  0  0  0  0  0  0
  -28.6150  -13.2104   20.9038 C   0  0  0  0  0  0  0  0  0  0  0  0
  -30.2789  -17.5145   22.7419 C   0  0  2  0  0  0  0  0  0  0  0  0
  -29.0038  -22.8960   18.5792 C   0  0  1  0  0  0  0  0  0  0  0  0
  -28.3181  -25.9482   20.7334 C   0  0  1  0  0  0  0  0  0  0  0  0
  -27.6682  -12.9831   19.7072 C   0  0  2  0  0  0  0  0  0  0  0  0
  -31.3094  -19.7618   21.1482 C   0  0  0  0  0  0  0  0  0  0  0  0
  -29.8363  -33.3216   22.5585 C   0  0  0  0  0  0  0  0  0  0  0  0
  -31.9779  -28.1684   18.9908 C   0  0  0  0  0  0  0  0  0  0  0  0
  -32.3944  -30.4559   19.9192 C   0  0  0  0  0  0  0  0  0  0  0  0
  -30.5048  -30.0799   18.3347 C   0  0  0  0  0  0  0  0  0  0  0  0
  -27.5661  -30.9321   24.4592 C   0  0  0  0  0  0  0  0  0  0  0  0
  -33.3522  -23.3677   26.8535 C   0  0  0  0  0  0  0  0  0  0  0  0
  -32.5380  -24.3235   25.9956 C   0  0  0  0  0  0  0  0  0  1  0  0
  -33.0255  -21.9136   26.5519 C   0  0  0  0  0  0  0  0  0  0  0  0
  -30.3356  -29.1962   20.6974 C   0  0  1  0  0  0  0  0  0  0  0  0
  -28.9782  -32.0805   22.7487 C   0  0  2  0  0  0  0  0  0  0  0  0
  -31.2970  -29.4534   19.5028 C   0  0  0  0  0  0  0  0  0  0  0  0
  -25.7958  -11.5157   20.3594 N   0  0  0  0  0  0  0  0  0  0  0  0
  -26.2347  -12.7699   20.1589 N   0  0  0  0  0  0  0  0  0  0  0  0
  -29.2114  -27.0360   21.1372 N   0  0  0  0  0  0  0  0  0  0  0  0
  -30.0104  -13.3413   20.4650 N   0  0  0  0  0  0  0  0  0  0  0  0
  -30.3406  -15.4492   21.5490 N   0  0  0  0  0  0  0  0  0  0  0  0
  -25.5676  -15.0411   20.2456 N   0  0  0  0  0  0  0  0  0  0  0  0
  -21.8465  -12.8133   21.5052 N   0  0  0  0  0  0  0  0  0  0  0  0
  -28.4135  -23.9321   19.3977 N   0  0  0  0  0  0  0  0  0  0  0  0
  -29.6561  -30.3913   21.1855 N   0  0  0  0  0  0  0  0  0  0  0  0
  -28.4465  -32.0856   24.1409 N   0  3  0  0  0  0  0  0  0  0  0  0
  -22.7268  -14.8933   21.1086 O   0  0  0  0  0  0  0  0  0  0  0  0
  -30.3340  -25.1984   19.7592 O   0  0  0  0  0  0  0  0  0  0  0  0
  -28.4637  -28.4538   19.4440 O   0  0  0  0  0  0  0  0  0  0  0  0
  -30.4389  -30.2570   23.3642 O   0  0  0  0  0  0  0  0  0  0  0  0
  -31.9293  -14.5705   20.1522 O   0  0  0  0  0  0  0  0  0  0  0  0
  -21.3124   -7.2868   21.9608 O   0  0  0  0  0  0  0  0  0  0  0  0
  -31.1509  -24.1127   26.2222 O   0  0  0  0  0  0  0  0  0  1  0  0
  -33.3125  -21.6263   25.1842 O   0  0  0  0  0  0  0  0  0  0  0  0
  -23.4910   -3.3200   25.1108 F   0  0  0  0  0  0  0  0  0  0  0  0
  -20.1754   -6.6206   24.3910 F   0  0  0  0  0  0  0  0  0  0  0  0
  1  2  1  0  0  0  0
  1  5  2  0  0  0  0
  2  6  2  0  0  0  0
  3  9  2  0  0  0  0
  3 18  1  0  0  0  0
  4 10  1  0  0  0  0
  4 18  2  0  0  0  0
  5 20  1  0  0  0  0
  6 22  1  0  0  0  0
  7 11  2  0  0  0  0
  7 21  1  0  0  0  0
  8 12  2  0  0  0  0
  8 23  1  0  0  0  0
  9 26  1  0  0  0  0
 10 26  2  0  0  0  0
 11 27  1  0  0  0  0
 12 28  1  0  0  0  0
 13 14  2  0  0  0  0
 13 29  1  0  0  0  0
 14 30  1  0  0  0  0
 15 24  1  0  0  0  0
 15 27  2  0  0  0  0
 16 25  1  0  0  0  0
 16 28  2  0  0  0  0
 17 30  2  0  0  0  0
 17 31  1  0  0  0  0
 18 32  1  0  0  0  0
 19 32  1  0  0  0  0
 19 33  2  0  0  0  0
 19 34  1  0  0  0  0
 20 22  2  0  0  0  0
 20 39  1  0  0  0  0
 21 24  2  0  0  0  0
 21 40  1  0  0  0  0
 22 52  1  0  0  0  0
 23 25  2  0  0  0  0
 23 51  1  0  0  0  0
 24 41  1  0  0  0  0
 25 55  1  0  0  0  0
 26 82  1  0  0  0  0
 27 83  1  0  0  0  0
 28 84  1  0  0  0  0
 29 31  2  0  0  0  0
 29 82  1  0  0  0  0
 30 85  1  0  0  0  0
 31 86  1  0  0  0  0
 32 67  2  0  0  0  0
 33 68  1  0  0  0  0
 33 72  1  0  0  0  0
 34 73  1  0  0  0  0
 34 77  2  0  0  0  0
 35 53  1  0  0  0  0
 35 74  1  0  0  0  0
 35 78  2  0  0  0  0
 36 64  1  0  0  0  0
 36 69  1  0  0  0  0
 36 79  2  0  0  0  0
 37 65  1  0  0  0  0
 37 75  1  0  0  0  0
 37 80  2  0  0  0  0
 38 70  1  0  0  0  0
 38 71  1  0  0  0  0
 38 81  2  0  0  0  0
 39 42  1  0  0  0  0
 40 53  1  0  0  0  0
 41 69  1  0  0  0  0
 42 44  1  0  0  0  0
 43 45  1  0  0  0  0
 43 47  1  0  0  0  0
 44 52  1  0  0  0  0
 45 54  1  0  0  0  0
 46 48  1  0  0  0  0
 46 51  1  0  0  0  0
 47 70  1  0  0  0  0
 48 71  1  0  0  0  0
 49 51  1  0  0  0  0
 49 71  1  0  0  0  0
 50 54  1  0  0  0  0
 50 70  1  0  0  0  0
 52 74  1  0  0  0  0
 53 69  1  0  0  0  0
 54 68  1  0  0  0  0
 56 65  1  0  0  0  0
 57 66  1  0  0  0  0
 58 66  1  0  0  0  0
 59 66  1  0  0  0  0
 60 76  1  0  0  0  0
 61 62  1  0  0  0  0
 61 63  1  0  0  0  0
 62 83  1  0  0  0  0
 63 84  1  0  0  0  0
 64 66  1  0  0  0  0
 64 75  1  0  0  0  0
 65 76  1  0  0  0  0
 67 68  1  0  0  0  0
M  CHG  1  76   1
M  ISO  4  38 100  62 101  71 100  83 101
M  END
> <Batch ID>
0139

> <Smiles>
CNC(C)C(=O)NC(C(=O)N1Cc2cc([101O:1][101CH2:1]CCOc3ccc(C4CC[100N:0]([100C:0](=O)N5CCCC(n6nc(-c7ccc(Oc8ccc(F)cc8F)cc7)c(C(N)=O)c6N)C5)C4)c(C)c3)ccc2CC1C(=O)NC1CCCc2ccccc21)C(C)(C)C

> <Shape>
0.271

> <Color>
0.217

> <Negative vol penalty>
0.000

$$$$

  -OEChem-04052321103D

 87 95  0     1  0  0  0  0  0999 V2000
  -21.4498  -30.6384   24.0623 C   0  0  0  0  0  0  0  0  0  0  0  0
  -22.3821  -29.7114   23.6073 C   0  0  0  0  0  0  0  0  0  0  0  0
  -23.0171   -9.9365   19.9185 C   0  0  0  0  0  0  0  0  0  0  0  0
  -23.9227   -9.7354   22.1493 C   0  0  0  0  0  0  0  0  0  0  0  0
  -20.0906  -30.4282   23.8336 C   0  0  0  0  0  0  0  0  0  0  0  0
  -21.9555  -28.5730   22.9242 C   0  0  0  0  0  0  0  0  0  0  0  0
  -24.8493  -25.7334   18.3341 C   0  0  0  0  0  0  0  0  0  0  0  0
  -26.7426  -18.9680   18.6728 C   0  0  0  0  0  0  0  0  0  0  0  0
  -28.8175  -20.0730   18.1151 C   0  0  0  0  0  0  0  0  0  0  0  0
  -22.2690   -8.7762   20.1175 C   0  0  0  0  0  0  0  0  0  0  0  0
  -23.1745   -8.5751   22.3484 C   0  0  0  0  0  0  0  0  0  0  0  0
  -25.6697  -24.6068   18.2969 C   0  0  0  0  0  0  0  0  0  0  0  0
  -27.3428  -18.4106   19.8018 C   0  0  0  0  0  0  0  0  0  0  0  0
  -29.4177  -19.5156   19.2442 C   0  0  0  0  0  0  0  0  0  0  0  0
  -19.4054   -7.8970   21.6859 C   0  0  0  0  0  0  0  0  0  0  0  0
  -18.0694   -7.9104   21.2853 C   0  0  0  0  0  0  0  0  0  0  0  0
  -23.7682  -23.2494   17.6962 C   0  0  0  0  0  0  0  0  0  0  0  0
  -18.5061   -6.0813   19.7684 C   0  0  0  0  0  0  0  0  0  0  0  0
  -23.8440  -10.4161   20.9344 C   0  0  0  0  0  0  0  0  0  0  0  0
  -24.2253  -12.9373   21.0078 C   0  0  0  0  0  0  0  0  0  0  0  0
  -19.6479  -29.2915   23.1389 C   0  0  0  0  0  0  0  0  0  0  0  0
  -23.4778  -25.6244   18.0629 C   0  0  0  0  0  0  0  0  0  0  0  0
  -20.5890  -28.3468   22.6871 C   0  0  0  0  0  0  0  0  0  0  0  0
  -22.9330  -24.3765   17.7281 C   0  0  0  0  0  0  0  0  0  0  0  0
  -27.4799  -19.7992   17.8294 C   0  0  0  0  0  0  0  0  0  0  0  0
  -22.3477   -8.0955   21.3325 C   0  0  0  0  0  0  0  0  0  0  0  0
  -28.6804  -18.6845   20.0875 C   0  0  0  0  0  0  0  0  0  0  0  0
  -25.1287  -23.3641   17.9807 C   0  0  0  0  0  0  0  0  0  0  0  0
  -20.2918   -6.9758   21.1278 C   0  0  0  0  0  0  0  0  0  0  0  0
  -17.6197   -7.0025   20.3265 C   0  0  0  0  0  0  0  0  0  0  0  0
  -19.8421   -6.0680   20.1690 C   0  0  0  0  0  0  0  0  0  0  0  0
  -24.6174  -11.6143   20.7292 C   0  0  0  0  0  0  0  0  0  0  0  0
  -25.3060  -13.7006   20.6389 C   0  0  0  0  0  0  0  0  0  0  0  0
  -22.9944  -13.4321   21.5516 C   0  0  0  0  0  0  0  0  0  0  0  0
  -20.8151  -26.1676   19.7117 C   0  0  0  0  0  0  0  0  0  0  0  0
  -19.3882  -25.5280   16.8696 C   0  0  0  0  0  0  0  0  0  0  0  0
  -19.5590  -24.0066   13.8196 C   0  0  0  0  0  0  0  0  0  0  0  0
  -30.8089  -14.6259   20.5533 C   0  0  0  0  0  0  0  0  0  0  0  0
  -18.1652  -29.0837   22.9570 C   0  0  0  0  0  0  0  0  0  0  0  0
  -22.6113  -26.8537   18.0811 C   0  0  0  0  0  0  0  0  0  0  0  0
  -21.4706  -24.2095   17.4090 C   0  0  0  0  0  0  0  0  0  0  0  0
  -17.8219  -28.0397   21.8975 C   0  0  0  0  0  0  0  0  0  0  0  0
  -29.4753  -12.4716   18.0518 C   0  0  0  0  0  0  0  0  0  0  0  0
  -18.6767  -26.7900   22.0828 C   0  0  0  0  0  0  0  0  0  0  0  0
  -28.0633  -12.1610   18.5514 C   0  0  0  0  0  0  0  0  0  0  0  0
  -30.4716  -12.5757   19.2044 C   0  0  0  0  0  0  0  0  0  0  0  0
  -28.6771  -13.2099   20.7699 C   0  0  0  0  0  0  0  0  0  0  0  0
  -20.1671  -27.1120   21.9206 C   0  0  1  0  0  0  0  0  0  0  0  0
  -21.1332  -26.5398   18.2912 C   0  0  1  0  0  0  0  0  0  0  0  0
  -27.6262  -13.1507   19.6482 C   0  0  2  0  0  0  0  0  0  0  0  0
  -28.2855  -22.8665   13.8193 C   0  0  0  0  0  0  0  0  0  0  0  0
  -27.3885  -18.3272   15.1205 C   0  0  0  0  0  0  0  0  0  0  0  0
  -18.2232  -23.6290   11.7290 C   0  0  0  0  0  0  0  0  0  0  0  0
  -17.6960  -23.4504   18.3291 C   0  0  0  0  0  0  0  0  0  0  0  0
  -17.0973  -22.4756   16.1021 C   0  0  0  0  0  0  0  0  0  0  0  0
  -16.4472  -24.8206   16.6505 C   0  0  0  0  0  0  0  0  0  0  0  0
  -21.5712  -25.3879   12.1456 C   0  0  0  0  0  0  0  0  0  0  0  0
  -27.2277  -22.0155   14.5098 C   0  0  0  0  0  0  0  0  0  0  0  0
  -26.3076  -19.2767   15.6296 C   0  0  0  0  0  0  0  0  0  0  0  0
  -27.7793  -21.3846   15.7967 C   0  0  0  0  0  0  0  0  0  0  0  0
  -30.9949  -16.6606   21.9619 C   0  0  0  0  0  0  0  0  0  0  0  0
  -30.6664  -17.8801   21.1193 C   0  0  0  0  0  0  0  0  0  0  0  0
  -25.5581  -21.2225   17.0397 C   0  0  0  0  0  0  0  0  0  1  0  0
  -18.8739  -24.2832   16.1878 C   0  0  1  0  0  0  0  0  0  0  0  0
  -19.2482  -24.5128   12.4226 C   0  0  2  0  0  0  0  0  0  0  0  0
  -26.8111  -20.4209   16.5717 C   0  0  2  0  0  0  0  0  0  0  0  0
  -17.5558  -23.7599   16.8252 C   0  0  0  0  0  0  0  0  0  0  0  0
  -25.8508  -11.5379   20.2222 N   0  0  0  0  0  0  0  0  0  0  0  0
  -26.2430  -12.8226   20.1792 N   0  0  0  0  0  0  0  0  0  0  0  0
  -20.6633  -25.4401   17.4461 N   0  0  0  0  0  0  0  0  0  0  0  0
  -29.9987  -13.5313   20.2089 N   0  0  0  0  0  0  0  0  0  0  0  0
  -25.5365  -15.0305   20.6659 N   0  0  0  0  0  0  0  0  0  0  0  0
  -21.9891  -12.5109   21.8758 N   0  0  0  0  0  0  0  0  0  0  0  0
  -20.5059  -27.2450   20.5199 N   0  0  0  0  0  0  0  0  0  0  0  0
  -18.7634  -24.6102   14.7703 N   0  0  0  0  0  0  0  0  0  0  0  0
  -30.2828  -15.4866   21.5089 N   0  0  0  0  0  0  0  0  0  0  0  0
  -20.4860  -24.5370   11.5930 N   0  3  0  0  0  0  0  0  0  0  0  0
  -22.7858  -14.6563   21.7289 O   0  0  0  0  0  0  0  0  0  0  0  0
  -20.8462  -24.9900   20.0492 O   0  0  0  0  0  0  0  0  0  0  0  0
  -18.6876  -26.5431   16.8838 O   0  0  0  0  0  0  0  0  0  0  0  0
  -20.4188  -23.1576   14.0444 O   0  0  0  0  0  0  0  0  0  0  0  0
  -31.9165  -14.8245   20.0427 O   0  0  0  0  0  0  0  0  0  0  0  0
  -21.6177   -6.9633   21.5271 O   0  0  0  0  0  0  0  0  0  0  0  0
  -29.2655  -18.1415   21.1899 O   0  0  0  0  0  0  0  0  0  0  0  0
  -25.9272  -22.2627   17.9442 O   0  0  0  0  0  0  0  0  0  1  0  0
  -16.3364   -7.0144   19.9430 F   0  0  0  0  0  0  0  0  0  0  0  0
  -20.6886   -5.1798   19.6301 F   0  0  0  0  0  0  0  0  0  0  0  0
  1  2  1  0  0  0  0
  1  5  2  0  0  0  0
  2  6  2  0  0  0  0
  3 10  2  0  0  0  0
  3 19  1  0  0  0  0
  4 11  1  0  0  0  0
  4 19  2  0  0  0  0
  5 21  1  0  0  0  0
  6 23  1  0  0  0  0
  7 12  2  0  0  0  0
  7 22  1  0  0  0  0
  8 13  2  0  0  0  0
  8 25  1  0  0  0  0
  9 14  1  0  0  0  0
  9 25  2  0  0  0  0
 10 26  1  0  0  0  0
 11 26  2  0  0  0  0
 12 28  1  0  0  0  0
 13 27  1  0  0  0  0
 14 27  2  0  0  0  0
 15 16  2  0  0  0  0
 15 29  1  0  0  0  0
 16 30  1  0  0  0  0
 17 24  1  0  0  0  0
 17 28  2  0  0  0  0
 18 30  2  0  0  0  0
 18 31  1  0  0  0  0
 19 32  1  0  0  0  0
 20 32  1  0  0  0  0
 20 33  2  0  0  0  0
 20 34  1  0  0  0  0
 21 23  2  0  0  0  0
 21 39  1  0  0  0  0
 22 24  2  0  0  0  0
 22 40  1  0  0  0  0
 23 48  1  0  0  0  0
 24 41  1  0  0  0  0
 25 66  1  0  0  0  0
 26 83  1  0  0  0  0
 27 84  1  0  0  0  0
 28 85  1  0  0  0  0
 29 31  2  0  0  0  0
 29 83  1  0  0  0  0
 30 86  1  0  0  0  0
 31 87  1  0  0  0  0
 32 68  2  0  0  0  0
 33 69  1  0  0  0  0
 33 72  1  0  0  0  0
 34 73  1  0  0  0  0
 34 78  2  0  0  0  0
 35 49  1  0  0  0  0
 35 74  1  0  0  0  0
 35 79  2  0  0  0  0
 36 64  1  0  0  0  0
 36 70  1  0  0  0  0
 36 80  2  0  0  0  0
 37 65  1  0  0  0  0
 37 75  1  0  0  0  0
 37 81  2  0  0  0  0
 38 71  1  0  0  0  0
 38 76  1  0  0  0  0
 38 82  2  0  0  0  0
 39 42  1  0  0  0  0
 40 49  1  0  0  0  0
 41 70  1  0  0  0  0
 42 44  1  0  0  0  0
 43 45  1  0  0  0  0
 43 46  1  0  0  0  0
 44 48  1  0  0  0  0
 45 50  1  0  0  0  0
 46 71  1  0  0  0  0
 47 50  1  0  0  0  0
 47 71  1  0  0  0  0
 48 74  1  0  0  0  0
 49 70  1  0  0  0  0
 50 69  1  0  0  0  0
 51 58  1  0  0  0  0
 52 59  1  0  0  0  0
 53 65  1  0  0  0  0
 54 67  1  0  0  0  0
 55 67  1  0  0  0  0
 56 67  1  0  0  0  0
 57 77  1  0  0  0  0
 58 60  1  0  0  0  0
 59 66  1  0  0  0  0
 60 66  1  0  0  0  0
 61 62  1  0  0  0  0
 61 76  1  0  0  0  0
 62 84  1  0  0  0  0
 63 66  1  0  0  0  0
 63 85  1  0  0  0  0
 64 67  1  0  0  0  0
 64 75  1  0  0  0  0
 65 77  1  0  0  0  0
 68 69  1  0  0  0  0
M  CHG  1  77   1
M  ISO  4  38 100  63 101  76 100  85 101
M  END
> <Batch ID>
0139

> <Smiles>
CCCC(CC)(c1ccc(OCC[100NH:0][100C:0](=O)N2CCCC(n3nc(-c4ccc(Oc5ccc(F)cc5F)cc4)c(C(N)=O)c3N)C2)cc1)[101CH2:1][101O:1]c1ccc2c(c1)CN(C(=O)C(NC(=O)C(C)NC)C(C)(C)C)C(C(=O)NC1CCCc3ccccc31)C2

> <Shape>
0.247

> <Color>
0.196

> <Negative vol penalty>
0.000

$$$$

  -OEChem-04052321103D

 83 92  0     1  0  0  0  0  0999 V2000
  -18.5481  -24.2932   23.3259 C   0  0  0  0  0  0  0  0  0  0  0  0
  -19.8968  -24.2796   22.9850 C   0  0  0  0  0  0  0  0  0  0  0  0
  -23.1706  -13.4123   20.3885 C   0  0  0  0  0  0  0  0  0  0  0  0
  -24.7722  -15.0044   21.2471 C   0  0  0  0  0  0  0  0  0  0  0  0
  -17.8186  -25.4777   23.2322 C   0  0  0  0  0  0  0  0  0  0  0  0
  -20.5165  -25.4502   22.5490 C   0  0  0  0  0  0  0  0  0  0  0  0
  -25.6043  -22.3085   18.3633 C   0  0  0  0  0  0  0  0  0  0  0  0
  -25.0403  -26.1731   24.7072 C   0  0  0  0  0  0  0  0  0  0  0  0
  -26.8747  -22.6279   18.8482 C   0  0  0  0  0  0  0  0  0  0  0  0
  -24.1725  -12.4448   20.3135 C   0  0  0  0  0  0  0  0  0  0  0  0
  -25.7741  -14.0368   21.1721 C   0  0  0  0  0  0  0  0  0  0  0  0
  -26.1095  -25.4301   24.2089 C   0  0  0  0  0  0  0  0  0  0  0  0
  -28.8305  -12.0936   20.8682 C   0  0  0  0  0  0  0  0  0  0  0  0
  -30.0601  -12.4738   20.3306 C   0  0  0  0  0  0  0  0  0  0  0  0
  -25.9846  -24.5465   20.0492 C   0  0  0  0  0  0  0  0  0  0  0  0
  -26.8300  -27.3401   22.9235 C   0  0  0  0  0  0  0  0  0  0  0  0
  -28.9731  -13.0476   18.2506 C   0  0  0  0  0  0  0  0  0  0  0  0
  -23.4704  -14.6921   20.8552 C   0  0  0  0  0  0  0  0  0  0  0  0
  -21.5884  -15.9560   22.0250 C   0  0  0  0  0  0  0  0  0  0  0  0
  -18.4320  -26.6656   22.8041 C   0  0  0  0  0  0  0  0  0  0  0  0
  -24.8513  -27.5041   24.3083 C   0  0  0  0  0  0  0  0  0  0  0  0
  -19.7942  -26.6513   22.4482 C   0  0  0  0  0  0  0  0  0  0  0  0
  -24.5344  -23.1048   18.7411 C   0  0  0  0  0  0  0  0  0  0  0  0
  -24.7264  -24.2152   19.5745 C   0  0  0  0  0  0  0  0  0  0  0  0
  -25.7590  -28.0986   23.4202 C   0  0  0  0  0  0  0  0  0  0  0  0
  -27.0634  -23.7383   19.6854 C   0  0  0  0  0  0  0  0  0  0  0  0
  -25.4743  -12.7570   20.7053 C   0  0  0  0  0  0  0  0  0  0  0  0
  -27.0029  -26.0126   23.3147 C   0  0  0  0  0  0  0  0  0  0  0  0
  -27.6722  -12.1902   20.0970 C   0  0  0  0  0  0  0  0  0  0  0  0
  -30.1314  -12.9509   19.0218 C   0  0  0  0  0  0  0  0  0  0  0  0
  -27.7435  -12.6673   18.7882 C   0  0  0  0  0  0  0  0  0  0  0  0
  -22.4360  -15.6922   20.9324 C   0  0  0  0  0  0  0  0  0  0  0  0
  -20.7906  -16.9896   21.5989 C   0  0  0  0  0  0  0  0  0  0  0  0
  -21.5277  -15.3233   23.3102 C   0  0  0  0  0  0  0  0  0  0  0  0
  -22.5586  -29.0815   22.7723 C   0  0  0  0  0  0  0  0  0  0  0  0
  -24.3767  -31.6636   23.5137 C   0  0  0  0  0  0  0  0  0  0  0  0
  -27.4530  -32.9089   24.3088 C   0  0  0  0  0  0  0  0  0  0  0  0
  -21.5240  -21.2780   17.4851 C   0  0  0  0  0  0  0  0  0  0  0  0
  -17.5910  -27.9107   22.6737 C   0  0  0  0  0  0  0  0  0  0  0  0
  -23.7082  -28.3004   24.8757 C   0  0  0  0  0  0  0  0  0  0  0  0
  -23.4406  -24.9494   19.7943 C   0  0  0  0  0  0  0  0  0  0  0  0
  -25.6120  -29.5304   22.9764 C   0  0  0  0  0  0  0  0  0  0  0  0
  -18.4132  -29.1920   22.5608 C   0  0  0  0  0  0  0  0  0  0  0  0
  -22.4149  -23.8765   19.3971 C   0  0  0  0  0  0  0  0  0  0  0  0
  -18.9041  -18.8710   17.6250 C   0  0  0  0  0  0  0  0  0  0  0  0
  -19.5438  -29.0137   21.5524 C   0  0  0  0  0  0  0  0  0  0  0  0
  -19.4357  -17.8072   18.5871 C   0  0  0  0  0  0  0  0  0  0  0  0
  -20.0169  -19.4524   16.7556 C   0  0  0  0  0  0  0  0  0  0  0  0
  -21.7086  -18.9106   18.4639 C   0  0  0  0  0  0  0  0  0  0  0  0
  -23.0958  -23.0042   18.3270 C   0  0  2  0  0  0  0  0  0  0  0  0
  -20.5079  -27.9063   21.9948 C   0  0  1  0  0  0  0  0  0  0  0  0
  -23.3173  -29.4894   24.0035 C   0  0  1  0  0  0  0  0  0  0  0  0
  -20.6328  -18.3349   19.4006 C   0  0  2  0  0  0  0  0  0  0  0  0
  -28.6342  -35.0632   24.8201 C   0  0  0  0  0  0  0  0  0  0  0  0
  -24.3370  -32.3861   20.5495 C   0  0  0  0  0  0  0  0  0  0  0  0
  -26.2569  -33.9362   20.9730 C   0  0  0  0  0  0  0  0  0  0  0  0
  -24.0667  -34.3292   22.1006 C   0  0  0  0  0  0  0  0  0  0  0  0
  -28.2170  -31.9827   27.0139 C   0  0  0  0  0  0  0  0  0  0  0  0
  -28.4465  -24.0659   20.1888 C   0  0  0  0  0  0  0  0  0  0  0  0
  -28.7910  -23.3980   21.5217 C   0  0  0  0  0  0  0  0  0  0  0  0
  -27.9054  -23.8576   22.6741 C   0  0  0  0  0  0  0  0  0  1  0  0
  -25.5156  -32.3963   22.8466 C   0  0  1  0  0  0  0  0  0  0  0  0
  -27.9019  -33.8633   25.4006 C   0  0  2  0  0  0  0  0  0  0  0  0
  -25.0460  -33.2343   21.6241 C   0  0  0  0  0  0  0  0  0  0  0  0
  -22.1987  -16.4935   19.8905 N   0  0  0  0  0  0  0  0  0  0  0  0
  -21.1929  -17.2710   20.3265 N   0  0  0  0  0  0  0  0  0  0  0  0
  -24.4748  -30.2655   23.5541 N   0  0  0  0  0  0  0  0  0  0  0  0
  -21.1209  -19.9363   17.5880 N   0  0  0  0  0  0  0  0  0  0  0  0
  -19.7912  -17.6762   22.1923 N   0  0  0  0  0  0  0  0  0  0  0  0
  -22.4201  -14.2774   23.5828 N   0  0  0  0  0  0  0  0  0  0  0  0
  -21.3910  -28.3905   23.0342 N   0  0  0  0  0  0  0  0  0  0  0  0
  -26.1664  -33.1780   23.8925 N   0  0  0  0  0  0  0  0  0  0  0  0
  -22.5732  -21.6560   18.3139 N   0  0  0  0  0  0  0  0  0  0  0  0
  -28.8162  -33.1697   26.3513 N   0  3  0  0  0  0  0  0  0  0  0  0
  -20.6956  -15.6640   24.1848 O   0  0  0  0  0  0  0  0  0  0  0  0
  -22.9992  -29.3735   21.6667 O   0  0  0  0  0  0  0  0  0  0  0  0
  -23.4381  -32.3084   23.9880 O   0  0  0  0  0  0  0  0  0  0  0  0
  -28.1732  -32.0164   23.8668 O   0  0  0  0  0  0  0  0  0  0  0  0
  -20.9850  -22.0808   16.7158 O   0  0  0  0  0  0  0  0  0  0  0  0
  -26.4521  -11.8130   20.6325 O   0  0  0  0  0  0  0  0  0  0  0  0
  -28.0471  -25.2894   22.8262 O   0  0  0  0  0  0  0  0  0  1  0  0
  -31.3121  -13.3175   18.5061 F   0  0  0  0  0  0  0  0  0  0  0  0
  -26.6340  -12.7636   18.0429 F   0  0  0  0  0  0  0  0  0  0  0  0
  1  2  1  0  0  0  0
  1  5  2  0  0  0  0
  2  6  2  0  0  0  0
  3 10  2  0  0  0  0
  3 18  1  0  0  0  0
  4 11  1  0  0  0  0
  4 18  2  0  0  0  0
  5 20  1  0  0  0  0
  6 22  1  0  0  0  0
  7  9  2  0  0  0  0
  7 23  1  0  0  0  0
  8 12  2  0  0  0  0
  8 21  1  0  0  0  0
  9 26  1  0  0  0  0
 10 27  1  0  0  0  0
 11 27  2  0  0  0  0
 12 28  1  0  0  0  0
 13 14  2  0  0  0  0
 13 29  1  0  0  0  0
 14 30  1  0  0  0  0
 15 24  1  0  0  0  0
 15 26  2  0  0  0  0
 16 25  1  0  0  0  0
 16 28  2  0  0  0  0
 17 30  2  0  0  0  0
 17 31  1  0  0  0  0
 18 32  1  0  0  0  0
 19 32  1  0  0  0  0
 19 33  2  0  0  0  0
 19 34  1  0  0  0  0
 20 22  2  0  0  0  0
 20 39  1  0  0  0  0
 21 25  2  0  0  0  0
 21 40  1  0  0  0  0
 22 51  1  0  0  0  0
 23 24  2  0  0  0  0
 23 50  1  0  0  0  0
 24 41  1  0  0  0  0
 25 42  1  0  0  0  0
 26 59  1  0  0  0  0
 27 80  1  0  0  0  0
 28 81  1  0  0  0  0
 29 31  2  0  0  0  0
 29 80  1  0  0  0  0
 30 82  1  0  0  0  0
 31 83  1  0  0  0  0
 32 65  2  0  0  0  0
 33 66  1  0  0  0  0
 33 69  1  0  0  0  0
 34 70  1  0  0  0  0
 34 75  2  0  0  0  0
 35 52  1  0  0  0  0
 35 71  1  0  0  0  0
 35 76  2  0  0  0  0
 36 62  1  0  0  0  0
 36 67  1  0  0  0  0
 36 77  2  0  0  0  0
 37 63  1  0  0  0  0
 37 72  1  0  0  0  0
 37 78  2  0  0  0  0
 38 68  1  0  0  0  0
 38 73  1  0  0  0  0
 38 79  2  0  0  0  0
 39 43  1  0  0  0  0
 40 52  1  0  0  0  0
 41 44  1  0  0  0  0
 42 67  1  0  0  0  0
 43 46  1  0  0  0  0
 44 50  1  0  0  0  0
 45 47  1  0  0  0  0
 45 48  1  0  0  0  0
 46 51  1  0  0  0  0
 47 53  1  0  0  0  0
 48 68  1  0  0  0  0
 49 53  1  0  0  0  0
 49 68  1  0  0  0  0
 50 73  1  0  0  0  0
 51 71  1  0  0  0  0
 52 67  1  0  0  0  0
 53 66  1  0  0  0  0
 54 63  1  0  0  0  0
 55 64  1  0  0  0  0
 56 64  1  0  0  0  0
 57 64  1  0  0  0  0
 58 74  1  0  0  0  0
 59 60  1  0  0  0  0
 60 61  1  0  0  0  0
 61 81  1  0  0  0  0
 62 64  1  0  0  0  0
 62 72  1  0  0  0  0
 63 74  1  0  0  0  0
 65 66  1  0  0  0  0
M  CHG  1  74   1
M  ISO  4  38 100  61 101  73 100  81 101
M  END
> <Batch ID>
0139

> <Smiles>
CNC(C)C(=O)NC(C(=O)N1Cc2cc([101O:1][101CH2:1]CCc3ccc4c(c3)CCC4[100NH:0][100C:0](=O)N3CCCC(n4nc(-c5ccc(Oc6ccc(F)cc6F)cc5)c(C(N)=O)c4N)C3)ccc2CC1C(=O)NC1CCCc2ccccc21)C(C)(C)C

> <Shape>
0.212

> <Color>
0.085

> <Negative vol penalty>
0.000

$$$$

  -OEChem-04052321103D

 86 94  0     1  0  0  0  0  0999 V2000
  -21.3512   -8.0857   18.3339 C   0  0  0  0  0  0  0  0  0  0  0  0
  -21.1609   -9.4445   18.1040 C   0  0  0  0  0  0  0  0  0  0  0  0
  -29.5001  -28.3370   20.1713 C   0  0  0  0  0  0  0  0  0  0  0  0
  -27.7541  -27.0886   19.0623 C   0  0  0  0  0  0  0  0  0  0  0  0
  -22.1701   -7.6651   19.3811 C   0  0  0  0  0  0  0  0  0  0  0  0
  -21.7884  -10.3835   18.9217 C   0  0  0  0  0  0  0  0  0  0  0  0
  -23.9514  -15.8629   17.2474 C   0  0  0  0  0  0  0  0  0  0  0  0
  -30.3576  -27.2433   20.0524 C   0  0  0  0  0  0  0  0  0  0  0  0
  -28.6116  -25.9949   18.9433 C   0  0  0  0  0  0  0  0  0  0  0  0
  -23.4239  -17.1497   17.3460 C   0  0  0  0  0  0  0  0  0  0  0  0
  -30.2242  -22.7493   18.6686 C   0  0  0  0  0  0  0  0  0  0  0  0
  -29.7153  -21.4892   18.9828 C   0  0  0  0  0  0  0  0  0  0  0  0
  -24.6554  -17.4912   19.3920 C   0  0  0  0  0  0  0  0  0  0  0  0
  -20.3519  -22.7419   20.0199 C   0  0  0  0  0  0  0  0  0  0  0  0
  -22.2248  -24.0452   19.2257 C   0  0  0  0  0  0  0  0  0  0  0  0
  -29.2476  -22.2389   21.2315 C   0  0  0  0  0  0  0  0  0  0  0  0
  -28.1983  -28.2596   19.6763 C   0  0  0  0  0  0  0  0  0  0  0  0
  -27.1432  -30.4413   18.8797 C   0  0  0  0  0  0  0  0  0  0  0  0
  -22.8157   -8.5995   20.2061 C   0  0  0  0  0  0  0  0  0  0  0  0
  -24.8279  -15.3759   18.2277 C   0  0  0  0  0  0  0  0  0  0  0  0
  -22.6156   -9.9750   19.9817 C   0  0  0  0  0  0  0  0  0  0  0  0
  -25.1947  -16.1988   19.3021 C   0  0  0  0  0  0  0  0  0  0  0  0
  -19.8556  -23.8617   20.6873 C   0  0  0  0  0  0  0  0  0  0  0  0
  -21.7284  -25.1651   19.8930 C   0  0  0  0  0  0  0  0  0  0  0  0
  -20.5438  -25.0733   20.6238 C   0  0  0  0  0  0  0  0  0  0  0  0
  -29.9134  -26.0722   19.4384 C   0  0  0  0  0  0  0  0  0  0  0  0
  -23.7736  -17.9630   18.4200 C   0  0  0  0  0  0  0  0  0  0  0  0
  -30.2450  -23.7542   19.6358 C   0  0  0  0  0  0  0  0  0  0  0  0
  -21.5365  -22.8337   19.2892 C   0  0  0  0  0  0  0  0  0  0  0  0
  -29.2269  -21.2340   20.2643 C   0  0  0  0  0  0  0  0  0  0  0  0
  -29.7566  -23.4990   20.9172 C   0  0  0  0  0  0  0  0  0  0  0  0
  -27.3119  -29.3889   19.7993 C   0  0  0  0  0  0  0  0  0  0  0  0
  -26.1962  -31.2523   19.4559 C   0  0  0  0  0  0  0  0  0  0  0  0
  -27.7851  -30.6658   17.6174 C   0  0  0  0  0  0  0  0  0  0  0  0
  -24.7593  -12.9676   20.3012 C   0  0  0  0  0  0  0  0  0  0  0  0
  -27.8076  -13.9044   20.8948 C   0  0  0  0  0  0  0  0  0  0  0  0
  -30.1394  -16.3952   20.8217 C   0  0  0  0  0  0  0  0  0  0  0  0
  -21.8346  -30.2403   23.4312 C   0  0  0  0  0  0  0  0  0  0  0  0
  -23.6537   -8.0968   21.3549 C   0  0  0  0  0  0  0  0  0  0  0  0
  -25.4092  -13.9952   18.0926 C   0  0  0  0  0  0  0  0  0  0  0  0
  -26.1477  -15.7306   20.3703 C   0  0  0  0  0  0  0  0  0  0  0  0
  -24.5808   -9.1577   21.9426 C   0  0  0  0  0  0  0  0  0  0  0  0
  -24.5021  -32.5797   23.7289 C   0  0  0  0  0  0  0  0  0  0  0  0
  -23.8261  -10.4656   22.1588 C   0  0  0  0  0  0  0  0  0  0  0  0
  -25.5095  -32.1222   22.6726 C   0  0  0  0  0  0  0  0  0  0  0  0
  -23.8037  -31.3952   24.3932 C   0  0  0  0  0  0  0  0  0  0  0  0
  -24.1747  -29.9905   22.4025 C   0  0  0  0  0  0  0  0  0  0  0  0
  -23.2989  -11.0243   20.8317 C   0  0  1  0  0  0  0  0  0  0  0  0
  -25.8903  -13.4169   19.4198 C   0  0  1  0  0  0  0  0  0  0  0  0
  -24.8640  -31.1515   21.6654 C   0  0  2  0  0  0  0  0  0  0  0  0
  -18.5843  -23.7328   21.4621 C   0  0  0  0  0  0  0  0  0  0  0  0
  -22.4876  -26.4494   19.8068 C   0  0  0  0  0  0  0  0  0  0  0  0
  -32.5327  -16.8709   21.4074 C   0  0  0  0  0  0  0  0  0  0  0  0
  -27.0507  -14.0655   23.8463 C   0  0  0  0  0  0  0  0  0  0  0  0
  -29.1203  -15.4207   24.2313 C   0  0  0  0  0  0  0  0  0  0  0  0
  -29.3037  -13.0761   23.3996 C   0  0  0  0  0  0  0  0  0  0  0  0
  -30.8257  -17.0142   18.0101 C   0  0  0  0  0  0  0  0  0  0  0  0
  -19.6410  -27.7630   23.1340 C   0  0  0  0  0  0  0  0  0  0  0  0
  -20.3925  -26.5242   22.6480 C   0  0  0  0  0  0  0  0  0  0  0  0
  -19.9582  -29.0320   22.3458 C   0  0  0  0  0  0  0  0  0  0  0  0
  -21.9630  -19.4360   17.9640 C   0  0  0  0  0  0  0  0  0  1  0  0
  -21.2675  -20.5343   18.7447 C   0  0  0  0  0  0  0  0  0  0  0  0
  -28.4605  -14.8810   21.8429 C   0  0  1  0  0  0  0  0  0  0  0  0
  -31.5715  -16.4200   20.3187 C   0  0  2  0  0  0  0  0  0  0  0  0
  -28.4643  -14.3693   23.3111 C   0  0  0  0  0  0  0  0  0  0  0  0
  -26.5345  -29.5170   20.8778 N   0  0  0  0  0  0  0  0  0  0  0  0
  -25.8683  -30.6596   20.6396 N   0  0  0  0  0  0  0  0  0  0  0  0
  -26.6844  -14.3706   20.1971 N   0  0  0  0  0  0  0  0  0  0  0  0
  -23.2114  -30.5145   23.3835 N   0  0  0  0  0  0  0  0  0  0  0  0
  -25.6205  -32.4075   19.0604 N   0  0  0  0  0  0  0  0  0  0  0  0
  -28.7336  -29.7336   17.1751 N   0  0  0  0  0  0  0  0  0  0  0  0
  -20.0406  -26.2085   21.3004 N   0  0  0  0  0  0  0  0  0  0  0  0
  -24.3675  -11.6593   20.0906 N   0  0  0  0  0  0  0  0  0  0  0  0
  -29.7878  -15.1510   21.3008 N   0  0  0  0  0  0  0  0  0  0  0  0
  -21.3534  -29.4016   22.4334 N   0  0  0  0  0  0  0  0  0  0  0  0
  -31.6987  -17.3528   19.1635 N   0  3  0  0  0  0  0  0  0  0  0  0
  -27.5373  -31.6720   16.9106 O   0  0  0  0  0  0  0  0  0  0  0  0
  -24.2788  -13.7495   21.1132 O   0  0  0  0  0  0  0  0  0  0  0  0
  -28.2813  -12.7720   20.7722 O   0  0  0  0  0  0  0  0  0  0  0  0
  -29.4072  -17.3820   20.7959 O   0  0  0  0  0  0  0  0  0  0  0  0
  -21.0885  -30.7127   24.2956 O   0  0  0  0  0  0  0  0  0  0  0  0
  -30.7499  -25.0049   19.3221 O   0  0  0  0  0  0  0  0  0  0  0  0
  -23.2596  -19.2191   18.5190 O   0  0  0  0  0  0  0  0  0  1  0  0
  -22.0241  -21.7337   18.6337 O   0  0  0  0  0  0  0  0  0  0  0  0
  -28.7368  -20.0244   20.5654 F   0  0  0  0  0  0  0  0  0  0  0  0
  -29.7729  -24.4608   21.8503 F   0  0  0  0  0  0  0  0  0  0  0  0
  1  2  1  0  0  0  0
  1  5  2  0  0  0  0
  2  6  2  0  0  0  0
  3  8  2  0  0  0  0
  3 17  1  0  0  0  0
  4  9  1  0  0  0  0
  4 17  2  0  0  0  0
  5 19  1  0  0  0  0
  6 21  1  0  0  0  0
  7 10  2  0  0  0  0
  7 20  1  0  0  0  0
  8 26  1  0  0  0  0
  9 26  2  0  0  0  0
 10 27  1  0  0  0  0
 11 12  2  0  0  0  0
 11 28  1  0  0  0  0
 12 30  1  0  0  0  0
 13 22  1  0  0  0  0
 13 27  2  0  0  0  0
 14 23  2  0  0  0  0
 14 29  1  0  0  0  0
 15 24  1  0  0  0  0
 15 29  2  0  0  0  0
 16 30  2  0  0  0  0
 16 31  1  0  0  0  0
 17 32  1  0  0  0  0
 18 32  1  0  0  0  0
 18 33  2  0  0  0  0
 18 34  1  0  0  0  0
 19 21  2  0  0  0  0
 19 39  1  0  0  0  0
 20 22  2  0  0  0  0
 20 40  1  0  0  0  0
 21 48  1  0  0  0  0
 22 41  1  0  0  0  0
 23 25  1  0  0  0  0
 23 51  1  0  0  0  0
 24 25  2  0  0  0  0
 24 52  1  0  0  0  0
 25 72  1  0  0  0  0
 26 82  1  0  0  0  0
 27 83  1  0  0  0  0
 28 31  2  0  0  0  0
 28 82  1  0  0  0  0
 29 84  1  0  0  0  0
 30 85  1  0  0  0  0
 31 86  1  0  0  0  0
 32 66  2  0  0  0  0
 33 67  1  0  0  0  0
 33 70  1  0  0  0  0
 34 71  1  0  0  0  0
 34 77  2  0  0  0  0
 35 49  1  0  0  0  0
 35 73  1  0  0  0  0
 35 78  2  0  0  0  0
 36 63  1  0  0  0  0
 36 68  1  0  0  0  0
 36 79  2  0  0  0  0
 37 64  1  0  0  0  0
 37 74  1  0  0  0  0
 37 80  2  0  0  0  0
 38 69  1  0  0  0  0
 38 75  1  0  0  0  0
 38 81  2  0  0  0  0
 39 42  1  0  0  0  0
 40 49  1  0  0  0  0
 41 68  1  0  0  0  0
 42 44  1  0  0  0  0
 43 45  1  0  0  0  0
 43 46  1  0  0  0  0
 44 48  1  0  0  0  0
 45 50  1  0  0  0  0
 46 69  1  0  0  0  0
 47 50  1  0  0  0  0
 47 69  1  0  0  0  0
 48 73  1  0  0  0  0
 49 68  1  0  0  0  0
 50 67  1  0  0  0  0
 53 64  1  0  0  0  0
 54 65  1  0  0  0  0
 55 65  1  0  0  0  0
 56 65  1  0  0  0  0
 57 76  1  0  0  0  0
 58 59  1  0  0  0  0
 58 60  1  0  0  0  0
 59 72  1  0  0  0  0
 60 75  1  0  0  0  0
 61 62  1  0  0  0  0
 61 83  1  0  0  0  0
 62 84  1  0  0  0  0
 63 65  1  0  0  0  0
 63 74  1  0  0  0  0
 64 76  1  0  0  0  0
 66 67  1  0  0  0  0
M  CHG  1  76   1
M  ISO  4  38 100  61 101  75 100  83 101
M  END
> <Batch ID>
0139

> <Smiles>
CNC(C)C(=O)NC(C(=O)N1Cc2cc([101O:1][101CH2:1]COc3cc(C)c(NCCC[100NH:0][100C:0](=O)N4CCCC(n5nc(-c6ccc(Oc7ccc(F)cc7F)cc6)c(C(N)=O)c5N)C4)c(C)c3)ccc2CC1C(=O)NC1CCCc2ccccc21)C(C)(C)C

> <Shape>
0.287

> <Color>
0.056

> <Negative vol penalty>
0.000

$$$$

  -OEChem-04052321103D

 85 94  0     1  0  0  0  0  0999 V2000
  -23.0060  -29.1554   23.9307 C   0  0  0  0  0  0  0  0  0  0  0  0
  -23.4317  -27.8467   23.7274 C   0  0  0  0  0  0  0  0  0  0  0  0
  -21.1872  -20.4654   21.6580 C   0  0  0  0  0  0  0  0  0  0  0  0
  -22.6696  -20.0918   23.5289 C   0  0  0  0  0  0  0  0  0  0  0  0
  -23.4575  -30.1726   23.0908 C   0  0  0  0  0  0  0  0  0  0  0  0
  -24.3083  -27.5541   22.6832 C   0  0  0  0  0  0  0  0  0  0  0  0
  -28.7421  -23.3295   22.6730 C   0  0  0  0  0  0  0  0  0  0  0  0
  -30.0220  -14.9735   21.4146 C   0  0  0  0  0  0  0  0  0  0  0  0
  -20.3397  -21.2101   22.4782 C   0  0  0  0  0  0  0  0  0  0  0  0
  -21.8221  -20.8366   24.3490 C   0  0  0  0  0  0  0  0  0  0  0  0
  -28.7996  -22.0314   22.1676 C   0  0  0  0  0  0  0  0  0  0  0  0
  -30.4343  -16.2871   21.1908 C   0  0  0  0  0  0  0  0  0  0  0  0
  -17.9700  -23.5127   23.9940 C   0  0  0  0  0  0  0  0  0  0  0  0
  -17.4794  -24.7191   23.4944 C   0  0  0  0  0  0  0  0  0  0  0  0
  -29.8409  -22.8664   20.1582 C   0  0  0  0  0  0  0  0  0  0  0  0
  -29.6822  -16.1328   18.9000 C   0  0  0  0  0  0  0  0  0  0  0  0
  -19.7390  -25.5427   23.2646 C   0  0  0  0  0  0  0  0  0  0  0  0
  -22.3521  -19.9061   22.1834 C   0  0  0  0  0  0  0  0  0  0  0  0
  -24.3103  -19.6145   20.5747 C   0  0  0  0  0  0  0  0  0  0  0  0
  -24.3477  -29.8939   22.0418 C   0  0  0  0  0  0  0  0  0  0  0  0
  -29.2243  -24.4089   21.9190 C   0  0  0  0  0  0  0  0  0  0  0  0
  -24.7711  -28.5683   21.8276 C   0  0  0  0  0  0  0  0  0  0  0  0
  -29.7906  -24.1769   20.6574 C   0  0  0  0  0  0  0  0  0  0  0  0
  -29.2700  -14.8191   19.1238 C   0  0  0  0  0  0  0  0  0  0  0  0
  -29.4399  -14.2395   20.3811 C   0  0  0  0  0  0  0  0  0  0  0  0
  -20.6572  -21.3958   23.8237 C   0  0  0  0  0  0  0  0  0  0  0  0
  -29.3465  -21.8000   20.9088 C   0  0  0  0  0  0  0  0  0  0  0  0
  -30.2643  -16.8668   19.9335 C   0  0  0  0  0  0  0  0  0  0  0  0
  -19.3451  -23.3213   24.1289 C   0  0  0  0  0  0  0  0  0  0  0  0
  -18.3639  -25.7341   23.1297 C   0  0  0  0  0  0  0  0  0  0  0  0
  -20.2296  -24.3363   23.7642 C   0  0  0  0  0  0  0  0  0  0  0  0
  -23.2277  -19.1362   21.3368 C   0  0  0  0  0  0  0  0  0  0  0  0
  -24.8135  -18.4973   19.9540 C   0  0  0  0  0  0  0  0  0  0  0  0
  -24.8161  -20.9493   20.4399 C   0  0  0  0  0  0  0  0  0  0  0  0
  -27.9315  -27.0355   20.6806 C   0  0  0  0  0  0  0  0  0  0  0  0
  -31.0108  -27.7285   19.9323 C   0  0  0  0  0  0  0  0  0  0  0  0
  -34.1695  -26.5916   19.3187 C   0  0  0  0  0  0  0  0  0  0  0  0
  -25.6976  -12.8596   20.9283 C   0  0  0  0  0  0  0  0  0  0  0  0
  -24.7712  -31.0189   21.1309 C   0  0  0  0  0  0  0  0  0  0  0  0
  -29.1793  -25.7999   22.4896 C   0  0  0  0  0  0  0  0  0  0  0  0
  -30.3406  -25.2989   19.8165 C   0  0  0  0  0  0  0  0  0  0  0  0
  -25.9930  -30.6854   20.2786 C   0  0  0  0  0  0  0  0  0  0  0  0
  -23.0327  -14.0147   18.8690 C   0  0  0  0  0  0  0  0  0  0  0  0
  -27.9665  -14.8053   16.8934 C   0  0  0  0  0  0  0  0  0  0  0  0
  -27.1508  -14.0249   17.8762 C   0  0  0  0  0  0  0  0  0  0  0  0
  -25.8427  -29.3050   19.6471 C   0  0  0  0  0  0  0  0  0  0  0  0
  -22.9120  -15.4975   19.2246 C   0  0  0  0  0  0  0  0  0  0  0  0
  -23.3872  -13.1686   20.0899 C   0  0  0  0  0  0  0  0  0  0  0  0
  -24.4638  -15.0979   21.1818 C   0  0  0  0  0  0  0  0  0  0  0  0
  -28.6507  -14.0521   18.0029 C   0  0  0  0  0  0  0  0  0  0  0  0
  -25.7412  -28.2152   20.7211 C   0  0  1  0  0  0  0  0  0  0  0  0
  -29.2311  -26.8864   21.4199 C   0  0  1  0  0  0  0  0  0  0  0  0
  -24.1625  -15.9986   19.9717 C   0  0  2  0  0  0  0  0  0  0  0  0
  -36.4651  -27.3921   18.6967 C   0  0  0  0  0  0  0  0  0  0  0  0
  -30.0910  -28.1186   17.0493 C   0  0  0  0  0  0  0  0  0  0  0  0
  -32.4870  -27.9700   16.3383 C   0  0  0  0  0  0  0  0  0  0  0  0
  -31.7491  -29.8094   17.8532 C   0  0  0  0  0  0  0  0  0  0  0  0
  -35.3403  -25.5457   21.8275 C   0  0  0  0  0  0  0  0  0  0  0  0
  -29.0073  -12.8346   20.6463 C   0  0  0  0  0  0  0  0  0  0  0  0
  -28.0139  -12.7089   21.8064 C   0  0  0  0  0  0  0  0  0  0  0  0
  -29.9764  -20.3695   19.1164 C   0  0  0  0  0  0  0  0  0  1  0  0
  -29.9428  -18.9002   18.7429 C   0  0  0  0  0  0  0  0  0  0  0  0
  -31.9126  -27.4526   18.7535 C   0  0  1  0  0  0  0  0  0  0  0  0
  -35.5219  -27.0450   19.8381 C   0  0  2  0  0  0  0  0  0  0  0  0
  -31.5479  -28.3165   17.5133 C   0  0  0  0  0  0  0  0  0  0  0  0
  -23.0525  -17.8179   21.2130 N   0  0  0  0  0  0  0  0  0  0  0  0
  -24.0318  -17.4582   20.3658 N   0  0  0  0  0  0  0  0  0  0  0  0
  -30.2681  -26.6418   20.4155 N   0  0  0  0  0  0  0  0  0  0  0  0
  -24.5828  -13.6958   20.7520 N   0  0  0  0  0  0  0  0  0  0  0  0
  -25.8438  -18.3122   19.1016 N   0  0  0  0  0  0  0  0  0  0  0  0
  -24.1812  -21.9790   21.1476 N   0  0  0  0  0  0  0  0  0  0  0  0
  -27.0484  -27.9212   21.2680 N   0  0  0  0  0  0  0  0  0  0  0  0
  -33.2782  -27.6400   19.2316 N   0  0  0  0  0  0  0  0  0  0  0  0
  -26.7911  -13.4400   21.5592 N   0  0  0  0  0  0  0  0  0  0  0  0
  -36.1499  -25.9692   20.6561 N   0  3  0  0  0  0  0  0  0  0  0  0
  -25.7917  -21.2234   19.7005 O   0  0  0  0  0  0  0  0  0  0  0  0
  -27.7444  -26.3954   19.6525 O   0  0  0  0  0  0  0  0  0  0  0  0
  -30.9723  -28.8645   20.4114 O   0  0  0  0  0  0  0  0  0  0  0  0
  -33.9291  -25.4247   19.0166 O   0  0  0  0  0  0  0  0  0  0  0  0
  -25.7188  -11.6845   20.5467 O   0  0  0  0  0  0  0  0  0  0  0  0
  -19.8306  -22.1227   24.6242 O   0  0  0  0  0  0  0  0  0  0  0  0
  -29.4033  -20.5341   20.4128 O   0  0  0  0  0  0  0  0  0  1  0  0
  -30.6692  -18.1572   19.7142 O   0  0  0  0  0  0  0  0  0  0  0  0
  -17.8927  -26.8920   22.6486 F   0  0  0  0  0  0  0  0  0  0  0  0
  -21.5517  -24.1579   23.8904 F   0  0  0  0  0  0  0  0  0  0  0  0
  1  2  1  0  0  0  0
  1  5  2  0  0  0  0
  2  6  2  0  0  0  0
  3  9  2  0  0  0  0
  3 18  1  0  0  0  0
  4 10  1  0  0  0  0
  4 18  2  0  0  0  0
  5 20  1  0  0  0  0
  6 22  1  0  0  0  0
  7 11  2  0  0  0  0
  7 21  1  0  0  0  0
  8 12  2  0  0  0  0
  8 25  1  0  0  0  0
  9 26  1  0  0  0  0
 10 26  2  0  0  0  0
 11 27  1  0  0  0  0
 12 28  1  0  0  0  0
 13 14  2  0  0  0  0
 13 29  1  0  0  0  0
 14 30  1  0  0  0  0
 15 23  1  0  0  0  0
 15 27  2  0  0  0  0
 16 24  1  0  0  0  0
 16 28  2  0  0  0  0
 17 30  2  0  0  0  0
 17 31  1  0  0  0  0
 18 32  1  0  0  0  0
 19 32  1  0  0  0  0
 19 33  2  0  0  0  0
 19 34  1  0  0  0  0
 20 22  2  0  0  0  0
 20 39  1  0  0  0  0
 21 23  2  0  0  0  0
 21 40  1  0  0  0  0
 22 51  1  0  0  0  0
 23 41  1  0  0  0  0
 24 25  2  0  0  0  0
 24 50  1  0  0  0  0
 25 59  1  0  0  0  0
 26 81  1  0  0  0  0
 27 82  1  0  0  0  0
 28 83  1  0  0  0  0
 29 31  2  0  0  0  0
 29 81  1  0  0  0  0
 30 84  1  0  0  0  0
 31 85  1  0  0  0  0
 32 66  2  0  0  0  0
 33 67  1  0  0  0  0
 33 70  1  0  0  0  0
 34 71  1  0  0  0  0
 34 76  2  0  0  0  0
 35 52  1  0  0  0  0
 35 72  1  0  0  0  0
 35 77  2  0  0  0  0
 36 63  1  0  0  0  0
 36 68  1  0  0  0  0
 36 78  2  0  0  0  0
 37 64  1  0  0  0  0
 37 73  1  0  0  0  0
 37 79  2  0  0  0  0
 38 69  1  0  0  0  0
 38 74  1  0  0  0  0
 38 80  2  0  0  0  0
 39 42  1  0  0  0  0
 40 52  1  0  0  0  0
 41 68  1  0  0  0  0
 42 46  1  0  0  0  0
 43 47  1  0  0  0  0
 43 48  1  0  0  0  0
 44 45  1  0  0  0  0
 44 50  1  0  0  0  0
 45 50  1  0  0  0  0
 46 51  1  0  0  0  0
 47 53  1  0  0  0  0
 48 69  1  0  0  0  0
 49 53  1  0  0  0  0
 49 69  1  0  0  0  0
 51 72  1  0  0  0  0
 52 68  1  0  0  0  0
 53 67  1  0  0  0  0
 54 64  1  0  0  0  0
 55 65  1  0  0  0  0
 56 65  1  0  0  0  0
 57 65  1  0  0  0  0
 58 75  1  0  0  0  0
 59 60  1  0  0  0  0
 60 74  1  0  0  0  0
 61 62  1  0  0  0  0
 61 82  1  0  0  0  0
 62 83  1  0  0  0  0
 63 65  1  0  0  0  0
 63 73  1  0  0  0  0
 64 75  1  0  0  0  0
 66 67  1  0  0  0  0
M  CHG  1  75   1
M  ISO  4  38 100  61 101  74 100  82 101
M  END
> <Batch ID>
0139

> <Smiles>
CNC(C)C(=O)NC(C(=O)N1Cc2cc([101O:1][101CH2:1]COc3ccc(CC[100NH:0][100C:0](=O)N4CCCC(n5nc(-c6ccc(Oc7ccc(F)cc7F)cc6)c(C(N)=O)c5N)C4)c(C4CC4)c3)ccc2CC1C(=O)NC1CCCc2ccccc21)C(C)(C)C

> <Shape>
0.215

> <Color>
0.070

> <Negative vol penalty>
0.000

$$$$

  -OEChem-04052321103D

 80 88  0     1  0  0  0  0  0999 V2000
  -17.6039  -26.1512   23.1197 C   0  0  0  0  0  0  0  0  0  0  0  0
  -18.7334  -25.8791   22.3544 C   0  0  0  0  0  0  0  0  0  0  0  0
  -29.5123  -14.6986   21.5333 C   0  0  0  0  0  0  0  0  0  0  0  0
  -30.3729  -16.6333   22.6967 C   0  0  0  0  0  0  0  0  0  0  0  0
  -17.2400  -27.4721   23.3782 C   0  0  0  0  0  0  0  0  0  0  0  0
  -19.4990  -26.9278   21.8461 C   0  0  0  0  0  0  0  0  0  0  0  0
  -25.5754  -27.0191   21.0876 C   0  0  0  0  0  0  0  0  0  0  0  0
  -30.0351  -13.8693   22.5255 C   0  0  0  0  0  0  0  0  0  0  0  0
  -30.8957  -15.8040   23.6890 C   0  0  0  0  0  0  0  0  0  0  0  0
  -26.3850  -26.8016   19.9736 C   0  0  0  0  0  0  0  0  0  0  0  0
  -29.7512  -14.1306   26.3928 C   0  0  0  0  0  0  0  0  0  0  0  0
  -29.5560  -14.5093   27.7210 C   0  0  0  0  0  0  0  0  0  0  0  0
  -26.4837  -29.1809   19.5883 C   0  0  0  0  0  0  0  0  0  0  0  0
  -31.9483  -14.6035   28.0456 C   0  0  0  0  0  0  0  0  0  0  0  0
  -29.6812  -16.0806   21.6189 C   0  0  0  0  0  0  0  0  0  0  0  0
  -27.7917  -17.0652   20.2160 C   0  0  0  0  0  0  0  0  0  0  0  0
  -18.0070  -28.5374   22.8809 C   0  0  0  0  0  0  0  0  0  0  0  0
  -25.2043  -28.3207   21.4546 C   0  0  0  0  0  0  0  0  0  0  0  0
  -19.1443  -28.2642   22.0970 C   0  0  0  0  0  0  0  0  0  0  0  0
  -25.6714  -29.4124   20.7089 C   0  0  0  0  0  0  0  0  0  0  0  0
  -30.7268  -14.4220   23.6034 C   0  0  0  0  0  0  0  0  0  0  0  0
  -26.8369  -27.8823   19.2221 C   0  0  0  0  0  0  0  0  0  0  0  0
  -31.0449  -13.9883   25.8910 C   0  0  0  0  0  0  0  0  0  0  0  0
  -30.6545  -14.7457   28.5474 C   0  0  0  0  0  0  0  0  0  0  0  0
  -32.1434  -14.2248   26.7174 C   0  0  0  0  0  0  0  0  0  0  0  0
  -29.1418  -16.9377   20.5940 C   0  0  0  0  0  0  0  0  0  0  0  0
  -27.8040  -17.9976   19.2076 C   0  0  0  0  0  0  0  0  0  0  0  0
  -26.6303  -16.4002   20.7305 C   0  0  0  0  0  0  0  0  0  0  0  0
  -31.6322  -22.3750   17.9997 C   0  0  0  0  0  0  0  0  0  0  0  0
  -22.4455  -29.8785   21.7110 C   0  0  0  0  0  0  0  0  0  0  0  0
  -24.3288  -32.2208   22.9312 C   0  0  0  0  0  0  0  0  0  0  0  0
  -27.4306  -33.6282   23.1441 C   0  0  0  0  0  0  0  0  0  0  0  0
  -17.5474  -29.9490   23.1469 C   0  0  0  0  0  0  0  0  0  0  0  0
  -24.3524  -28.5402   22.6746 C   0  0  0  0  0  0  0  0  0  0  0  0
  -25.3182  -30.8306   21.0727 C   0  0  0  0  0  0  0  0  0  0  0  0
  -18.6237  -30.9995   22.8856 C   0  0  0  0  0  0  0  0  0  0  0  0
  -30.5874  -19.7300   15.7326 C   0  0  0  0  0  0  0  0  0  0  0  0
  -19.3121  -30.7377   21.5498 C   0  0  0  0  0  0  0  0  0  0  0  0
  -33.0944  -24.3622   17.6030 C   0  0  0  0  0  0  0  0  0  0  0  0
  -31.1382  -23.8370   16.0513 C   0  0  0  0  0  0  0  0  0  0  0  0
  -29.9973  -18.7095   16.7049 C   0  0  0  0  0  0  0  0  0  0  0  0
  -32.2748  -25.4880   18.2367 C   0  0  0  0  0  0  0  0  0  0  0  0
  -30.3316  -24.9561   16.7118 C   0  0  0  0  0  0  0  0  0  0  0  0
  -31.7851  -20.4561   16.3395 C   0  0  0  0  0  0  0  0  0  0  0  0
  -30.9008  -20.0949   18.6225 C   0  0  0  0  0  0  0  0  0  0  0  0
  -20.0143  -29.3745   21.5488 C   0  0  1  0  0  0  0  0  0  0  0  0
  -32.2348  -23.2722   16.9577 C   0  0  0  0  0  0  0  0  0  0  0  0
  -23.6140  -29.8751   22.6555 C   0  0  1  0  0  0  0  0  0  0  0  0
  -29.6714  -19.3623   18.0597 C   0  0  2  0  0  0  0  0  0  0  0  0
  -31.2523  -26.0451   17.2520 C   0  0  0  0  0  0  0  0  0  0  0  0
  -28.6512  -35.5572   24.1864 C   0  0  0  0  0  0  0  0  0  0  0  0
  -30.8068  -29.0731   16.6031 C   0  0  0  0  0  0  0  0  0  0  0  0
  -23.1055  -34.1067   20.8680 C   0  0  0  0  0  0  0  0  0  0  0  0
  -24.9891  -35.6965   21.3069 C   0  0  0  0  0  0  0  0  0  0  0  0
  -23.4073  -35.1026   23.1421 C   0  0  0  0  0  0  0  0  0  0  0  0
  -29.2239  -31.8255   24.6584 C   0  0  0  0  0  0  0  0  0  0  0  0
  -28.5934  -28.6812   17.7574 C   0  0  0  0  0  0  0  0  0  1  0  0
  -25.0911  -33.3891   22.3541 C   0  0  1  0  0  0  0  0  0  0  0  0
  -28.2430  -34.0999   24.3365 C   0  0  2  0  0  0  0  0  0  0  0  0
  -29.7699  -28.0450   17.0258 C   0  0  2  0  0  0  0  0  0  0  0  0
  -24.1535  -34.5470   21.9095 C   0  0  0  0  0  0  0  0  0  0  0  0
  -29.9528  -17.7260   19.8834 N   0  0  0  0  0  0  0  0  0  0  0  0
  -29.1099  -18.3577   19.0488 N   0  0  0  0  0  0  0  0  0  0  0  0
  -31.4415  -21.0402   17.6415 N   0  0  0  0  0  0  0  0  0  0  0  0
  -24.4776  -30.9932   22.2704 N   0  0  0  0  0  0  0  0  0  0  0  0
  -26.8251  -18.5364   18.4501 N   0  0  0  0  0  0  0  0  0  0  0  0
  -25.9418  -16.9894   21.7997 N   0  0  0  0  0  0  0  0  0  0  0  0
  -21.2616  -29.4480   22.2791 N   0  0  0  0  0  0  0  0  0  0  0  0
  -26.0762  -33.7708   23.3602 N   0  0  0  0  0  0  0  0  0  0  0  0
  -30.4280  -27.0714   17.9444 N   0  3  0  0  0  0  0  0  0  0  0  0
  -29.4780  -33.2782   24.4795 N   0  3  0  0  0  0  0  0  0  0  0  0
  -26.2249  -15.3074   20.2669 O   0  0  0  0  0  0  0  0  0  0  0  0
  -31.3359  -22.8456   19.1009 O   0  0  0  0  0  0  0  0  0  0  0  0
  -22.6056  -30.2461   20.5530 O   0  0  0  0  0  0  0  0  0  0  0  0
  -23.6329  -32.3896   23.9356 O   0  0  0  0  0  0  0  0  0  0  0  0
  -27.9460  -33.1816   22.1216 O   0  0  0  0  0  0  0  0  0  0  0  0
  -31.2370  -13.6131   24.5719 O   0  0  0  0  0  0  0  0  0  0  0  0
  -27.6267  -27.6728   18.1339 O   0  0  0  0  0  0  0  0  0  1  0  0
  -30.4670  -15.1108   29.8224 F   0  0  0  0  0  0  0  0  0  0  0  0
  -33.3886  -14.0909   26.2406 F   0  0  0  0  0  0  0  0  0  0  0  0
  1  2  1  0  0  0  0
  1  5  2  0  0  0  0
  2  6  2  0  0  0  0
  3  8  2  0  0  0  0
  3 15  1  0  0  0  0
  4  9  1  0  0  0  0
  4 15  2  0  0  0  0
  5 17  1  0  0  0  0
  6 19  1  0  0  0  0
  7 10  2  0  0  0  0
  7 18  1  0  0  0  0
  8 21  1  0  0  0  0
  9 21  2  0  0  0  0
 10 22  1  0  0  0  0
 11 12  2  0  0  0  0
 11 23  1  0  0  0  0
 12 24  1  0  0  0  0
 13 20  1  0  0  0  0
 13 22  2  0  0  0  0
 14 24  2  0  0  0  0
 14 25  1  0  0  0  0
 15 26  1  0  0  0  0
 16 26  1  0  0  0  0
 16 27  2  0  0  0  0
 16 28  1  0  0  0  0
 17 19  2  0  0  0  0
 17 33  1  0  0  0  0
 18 20  2  0  0  0  0
 18 34  1  0  0  0  0
 19 46  1  0  0  0  0
 20 35  1  0  0  0  0
 21 77  1  0  0  0  0
 22 78  1  0  0  0  0
 23 25  2  0  0  0  0
 23 77  1  0  0  0  0
 24 79  1  0  0  0  0
 25 80  1  0  0  0  0
 26 62  2  0  0  0  0
 27 63  1  0  0  0  0
 27 66  1  0  0  0  0
 28 67  1  0  0  0  0
 28 72  2  0  0  0  0
 29 47  1  0  0  0  0
 29 64  1  0  0  0  0
 29 73  2  0  0  0  0
 30 48  1  0  0  0  0
 30 68  1  0  0  0  0
 30 74  2  0  0  0  0
 31 58  1  0  0  0  0
 31 65  1  0  0  0  0
 31 75  2  0  0  0  0
 32 59  1  0  0  0  0
 32 69  1  0  0  0  0
 32 76  2  0  0  0  0
 33 36  1  0  0  0  0
 34 48  1  0  0  0  0
 35 65  1  0  0  0  0
 36 38  1  0  0  0  0
 37 41  1  0  0  0  0
 37 44  1  0  0  0  0
 38 46  1  0  0  0  0
 39 42  1  0  0  0  0
 39 47  1  0  0  0  0
 40 43  1  0  0  0  0
 40 47  1  0  0  0  0
 41 49  1  0  0  0  0
 42 50  1  0  0  0  0
 43 50  1  0  0  0  0
 44 64  1  0  0  0  0
 45 49  1  0  0  0  0
 45 64  1  0  0  0  0
 46 68  1  0  0  0  0
 48 65  1  0  0  0  0
 49 63  1  0  0  0  0
 50 70  1  0  0  0  0
 51 59  1  0  0  0  0
 52 60  1  0  0  0  0
 53 61  1  0  0  0  0
 54 61  1  0  0  0  0
 55 61  1  0  0  0  0
 56 71  1  0  0  0  0
 57 60  1  0  0  0  0
 57 78  1  0  0  0  0
 58 61  1  0  0  0  0
 58 69  1  0  0  0  0
 59 71  1  0  0  0  0
 60 70  1  0  0  0  0
 62 63  1  0  0  0  0
M  CHG  2  70   1  71   1
M  ISO  4  29 100  47 100  57 101  78 101
M  END
> <Batch ID>
0139

> <Smiles>
CNC(C)C(=O)NC(C(=O)N1Cc2cc([101O:1][101CH2:1]C(C)NC3CC[100CH:0]([100C:0](=O)N4CCCC(n5nc(-c6ccc(Oc7ccc(F)cc7F)cc6)c(C(N)=O)c5N)C4)CC3)ccc2CC1C(=O)NC1CCCc2ccccc21)C(C)(C)C

> <Shape>
0.233

> <Color>
0.109

> <Negative vol penalty>
0.000

$$$$

  -OEChem-04052321103D

 86 95  0     1  0  0  0  0  0999 V2000
  -25.7453  -26.7399   23.6252 C   0  0  0  0  0  0  0  0  0  0  0  0
  -25.8267  -25.3667   23.8328 C   0  0  0  0  0  0  0  0  0  0  0  0
  -23.2807   -9.8013   19.9164 C   0  0  0  0  0  0  0  0  0  0  0  0
  -23.7377   -9.9390   22.2848 C   0  0  0  0  0  0  0  0  0  0  0  0
  -25.8250  -27.6135   24.7089 C   0  0  0  0  0  0  0  0  0  0  0  0
  -25.9890  -24.8663   25.1242 C   0  0  0  0  0  0  0  0  0  0  0  0
  -22.9490  -20.9303   26.0789 C   0  0  0  0  0  0  0  0  0  0  0  0
  -22.5528   -8.6299   20.1249 C   0  0  0  0  0  0  0  0  0  0  0  0
  -23.0097   -8.7676   22.4933 C   0  0  0  0  0  0  0  0  0  0  0  0
  -23.3273  -19.6929   25.5596 C   0  0  0  0  0  0  0  0  0  0  0  0
  -23.2017   -5.3539   20.6457 C   0  0  0  0  0  0  0  0  0  0  0  0
  -23.4261   -4.2885   19.7739 C   0  0  0  0  0  0  0  0  0  0  0  0
  -24.2060  -19.0634   27.7162 C   0  0  0  0  0  0  0  0  0  0  0  0
  -28.5999  -15.4708   25.8312 C   0  0  0  0  0  0  0  0  0  0  0  0
  -21.1024   -4.3391   19.1141 C   0  0  0  0  0  0  0  0  0  0  0  0
  -29.5402  -15.8156   23.8146 C   0  0  0  0  0  0  0  0  0  0  0  0
  -23.8733  -10.4558   20.9963 C   0  0  0  0  0  0  0  0  0  0  0  0
  -24.1367  -12.9855   20.7993 C   0  0  0  0  0  0  0  0  0  0  0  0
  -25.9787  -27.1231   26.0153 C   0  0  0  0  0  0  0  0  0  0  0  0
  -23.2066  -21.2482   27.4202 C   0  0  0  0  0  0  0  0  0  0  0  0
  -26.0722  -25.7342   26.2262 C   0  0  0  0  0  0  0  0  0  0  0  0
  -23.8276  -20.3044   28.2507 C   0  0  0  0  0  0  0  0  0  0  0  0
  -28.4156  -16.0791   24.5651 C   0  0  0  0  0  0  0  0  0  0  0  0
  -22.4172   -8.1131   21.4134 C   0  0  0  0  0  0  0  0  0  0  0  0
  -23.9585  -18.7604   26.3776 C   0  0  0  0  0  0  0  0  0  0  0  0
  -21.9277   -5.9119   20.7518 C   0  0  0  0  0  0  0  0  0  0  0  0
  -22.3765   -3.7811   19.0081 C   0  0  0  0  0  0  0  0  0  0  0  0
  -20.8781   -5.4045   19.9860 C   0  0  0  0  0  0  0  0  0  0  0  0
  -24.6259  -11.6656   20.7815 C   0  0  0  0  0  0  0  0  0  0  0  0
  -29.8315  -14.8541   25.8159 C   0  0  0  0  0  0  0  0  0  0  0  0
  -25.2390  -13.7636   20.5422 C   0  0  0  0  0  0  0  0  0  0  0  0
  -22.8051  -13.4653   21.0278 C   0  0  0  0  0  0  0  0  0  0  0  0
  -24.9351  -23.4618   28.9088 C   0  0  0  0  0  0  0  0  0  0  0  0
  -23.5495  -22.2043   31.5585 C   0  0  0  0  0  0  0  0  0  0  0  0
  -22.0432  -19.5284   33.0477 C   0  0  0  0  0  0  0  0  0  0  0  0
  -31.1105  -12.9093   21.3465 C   0  0  0  0  0  0  0  0  0  0  0  0
  -26.1075  -28.1083   27.1500 C   0  0  0  0  0  0  0  0  0  0  0  0
  -22.7682  -22.5770   27.9719 C   0  0  0  0  0  0  0  0  0  0  0  0
  -24.1086  -20.5890   29.7028 C   0  0  0  0  0  0  0  0  0  0  0  0
  -25.9034  -27.4815   28.5269 C   0  0  0  0  0  0  0  0  0  0  0  0
  -29.4553  -13.6544   18.2835 C   0  0  0  0  0  0  0  0  0  0  0  0
  -26.6965  -26.1840   28.6457 C   0  0  0  0  0  0  0  0  0  0  0  0
  -27.9857  -13.3483   18.5780 C   0  0  0  0  0  0  0  0  0  0  0  0
  -25.8220  -16.1845   24.3743 C   0  0  0  0  0  0  0  0  0  0  0  0
  -30.3885  -12.6727   18.9887 C   0  0  0  0  0  0  0  0  0  0  0  0
  -28.7055  -12.2448   20.7374 C   0  0  0  0  0  0  0  0  0  0  0  0
  -27.1873  -16.8852   24.1102 C   0  0  1  0  0  0  0  0  0  0  0  0
  -26.2235  -25.1519   27.6148 C   0  0  1  0  0  0  0  0  0  0  0  0
  -23.5425  -22.9908   29.2195 C   0  0  1  0  0  0  0  0  0  0  0  0
  -26.7099  -17.9711   25.1309 C   0  0  2  0  0  0  0  0  0  0  0  0
  -27.7277  -13.2424   20.0931 C   0  0  2  0  0  0  0  0  0  0  0  0
  -25.2527  -17.5583   24.7851 C   0  0  2  0  0  0  0  0  0  1  0  0
  -27.0899  -19.4045   24.8121 C   0  0  0  0  0  0  0  0  0  0  0  0
  -29.7459  -12.8008   27.2753 C   0  0  0  0  0  0  0  0  0  0  0  0
  -30.8155  -14.9151   28.1358 C   0  0  0  0  0  0  0  0  0  0  0  0
  -21.0545  -18.7884   35.2323 C   0  0  0  0  0  0  0  0  0  0  0  0
  -26.3547  -21.8545   32.7068 C   0  0  0  0  0  0  0  0  0  0  0  0
  -25.3888  -20.2888   34.4050 C   0  0  0  0  0  0  0  0  0  0  0  0
  -24.6510  -22.6710   34.3455 C   0  0  0  0  0  0  0  0  0  0  0  0
  -19.3803  -19.0985   31.8298 C   0  0  0  0  0  0  0  0  0  0  0  0
  -31.6882  -14.5941   24.1491 C   0  0  0  0  0  0  0  0  0  0  0  0
  -31.6787  -13.1199   23.7531 C   0  0  0  0  0  0  0  0  0  0  0  0
  -30.5160  -14.0787   26.8708 C   0  0  0  0  0  0  0  0  0  0  0  0
  -23.8947  -21.0932   32.5205 C   0  0  1  0  0  0  0  0  0  0  0  0
  -20.7760  -19.4182   33.8764 C   0  0  2  0  0  0  0  0  0  0  0  0
  -25.0689  -21.4719   33.4666 C   0  0  0  0  0  0  0  0  0  0  0  0
  -25.9367  -11.6048   20.5326 N   0  0  0  0  0  0  0  0  0  0  0  0
  -30.3942  -15.0706   24.5852 N   0  0  0  0  0  0  0  0  0  0  0  0
  -26.2807  -12.8963   20.3916 N   0  0  0  0  0  0  0  0  0  0  0  0
  -23.6666  -21.9047   30.1938 N   0  0  0  0  0  0  0  0  0  0  0  0
  -30.0927  -12.6206   20.4225 N   0  0  0  0  0  0  0  0  0  0  0  0
  -25.4090  -15.0984   20.4325 N   0  0  0  0  0  0  0  0  0  0  0  0
  -21.7915  -12.5300   21.2770 N   0  0  0  0  0  0  0  0  0  0  0  0
  -24.9849  -24.5391   28.0449 N   0  0  0  0  0  0  0  0  0  0  0  0
  -22.6561  -20.7526   33.2121 N   0  0  0  0  0  0  0  0  0  0  0  0
  -30.7440  -12.8433   22.6852 N   0  0  0  0  0  0  0  0  0  0  0  0
  -19.7653  -18.5825   33.1686 N   0  3  0  0  0  0  0  0  0  0  0  0
  -22.5193  -14.6863   20.9953 O   0  0  0  0  0  0  0  0  0  0  0  0
  -25.8933  -22.8910   29.4164 O   0  0  0  0  0  0  0  0  0  0  0  0
  -23.1825  -23.2955   32.0015 O   0  0  0  0  0  0  0  0  0  0  0  0
  -22.4507  -18.6181   32.3296 O   0  0  0  0  0  0  0  0  0  0  0  0
  -32.2591  -13.2093   21.0038 O   0  0  0  0  0  0  0  0  0  0  0  0
  -21.7067   -6.9702   21.6173 O   0  0  0  0  0  0  0  0  0  0  0  0
  -24.3294  -17.5521   25.8731 O   0  0  0  0  0  0  0  0  0  1  0  0
  -22.5924   -2.7589   18.1698 F   0  0  0  0  0  0  0  0  0  0  0  0
  -19.6522   -5.9372   20.0828 F   0  0  0  0  0  0  0  0  0  0  0  0
  1  2  1  0  0  0  0
  1  5  2  0  0  0  0
  2  6  2  0  0  0  0
  3  8  2  0  0  0  0
  3 17  1  0  0  0  0
  4  9  1  0  0  0  0
  4 17  2  0  0  0  0
  5 19  1  0  0  0  0
  6 21  1  0  0  0  0
  7 10  2  0  0  0  0
  7 20  1  0  0  0  0
  8 24  1  0  0  0  0
  9 24  2  0  0  0  0
 10 25  1  0  0  0  0
 11 12  2  0  0  0  0
 11 26  1  0  0  0  0
 12 27  1  0  0  0  0
 13 22  1  0  0  0  0
 13 25  2  0  0  0  0
 14 23  1  0  0  0  0
 14 30  2  0  0  0  0
 15 27  2  0  0  0  0
 15 28  1  0  0  0  0
 16 23  2  0  0  0  0
 16 68  1  0  0  0  0
 17 29  1  0  0  0  0
 18 29  1  0  0  0  0
 18 31  2  0  0  0  0
 18 32  1  0  0  0  0
 19 21  2  0  0  0  0
 19 37  1  0  0  0  0
 20 22  2  0  0  0  0
 20 38  1  0  0  0  0
 21 48  1  0  0  0  0
 22 39  1  0  0  0  0
 23 47  1  0  0  0  0
 24 83  1  0  0  0  0
 25 84  1  0  0  0  0
 26 28  2  0  0  0  0
 26 83  1  0  0  0  0
 27 85  1  0  0  0  0
 28 86  1  0  0  0  0
 29 67  2  0  0  0  0
 30 63  1  0  0  0  0
 30 68  1  0  0  0  0
 31 69  1  0  0  0  0
 31 72  1  0  0  0  0
 32 73  1  0  0  0  0
 32 78  2  0  0  0  0
 33 49  1  0  0  0  0
 33 74  1  0  0  0  0
 33 79  2  0  0  0  0
 34 64  1  0  0  0  0
 34 70  1  0  0  0  0
 34 80  2  0  0  0  0
 35 65  1  0  0  0  0
 35 75  1  0  0  0  0
 35 81  2  0  0  0  0
 36 71  1  0  0  0  0
 36 76  1  0  0  0  0
 36 82  2  0  0  0  0
 37 40  1  0  0  0  0
 38 49  1  0  0  0  0
 39 70  1  0  0  0  0
 40 42  1  0  0  0  0
 41 43  1  0  0  0  0
 41 45  1  0  0  0  0
 42 48  1  0  0  0  0
 43 51  1  0  0  0  0
 44 47  1  0  0  0  0
 44 52  1  0  0  0  0
 45 71  1  0  0  0  0
 46 51  1  0  0  0  0
 46 71  1  0  0  0  0
 47 50  1  0  0  0  0
 48 74  1  0  0  0  0
 49 70  1  0  0  0  0
 50 52  1  0  0  0  0
 50 53  1  0  0  0  0
 51 69  1  0  0  0  0
 52 84  1  0  0  0  0
 54 63  1  0  0  0  0
 55 63  1  0  0  0  0
 56 65  1  0  0  0  0
 57 66  1  0  0  0  0
 58 66  1  0  0  0  0
 59 66  1  0  0  0  0
 60 77  1  0  0  0  0
 61 62  1  0  0  0  0
 61 68  1  0  0  0  0
 62 76  1  0  0  0  0
 64 66  1  0  0  0  0
 64 75  1  0  0  0  0
 65 77  1  0  0  0  0
 67 69  1  0  0  0  0
M  CHG  1  77   1
M  ISO  4  36 100  52 101  76 100  84 101
M  END
> <Batch ID>
0139

> <Smiles>
CNC(C)C(=O)NC(C(=O)N1Cc2cc([101O:1][101CH:1]3CC(c4cc(C(C)C)n(CC[100NH:0][100C:0](=O)N5CCCC(n6nc(-c7ccc(Oc8ccc(F)cc8F)cc7)c(C(N)=O)c6N)C5)c4)C3C)ccc2CC1C(=O)NC1CCCc2ccccc21)C(C)(C)C

> <Shape>
0.122

> <Color>
0.174

> <Negative vol penalty>
0.000

$$$$

  -OEChem-04052321103D

 87 96  0     1  0  0  0  0  0999 V2000
  -20.5954  -25.5184   25.6339 C   0  0  0  0  0  0  0  0  0  0  0  0
  -21.6508  -25.3614   24.7412 C   0  0  0  0  0  0  0  0  0  0  0  0
  -32.6890  -23.3061   16.8359 C   0  0  0  0  0  0  0  0  0  0  0  0
  -22.8944  -10.8001   22.2623 C   0  0  0  0  0  0  0  0  0  0  0  0
  -23.4475  -10.4402   19.9382 C   0  0  0  0  0  0  0  0  0  0  0  0
  -19.5094  -26.3236   25.2929 C   0  0  0  0  0  0  0  0  0  0  0  0
  -21.6203  -26.0086   23.5065 C   0  0  0  0  0  0  0  0  0  0  0  0
  -32.1236  -22.0552   16.5890 C   0  0  0  0  0  0  0  0  0  0  0  0
  -26.0400  -28.1927   22.3482 C   0  0  0  0  0  0  0  0  0  0  0  0
  -32.0787  -24.1826   17.7332 C   0  0  0  0  0  0  0  0  0  0  0  0
  -22.2702   -9.5536   22.3068 C   0  0  0  0  0  0  0  0  0  0  0  0
  -22.8233   -9.1936   19.9827 C   0  0  0  0  0  0  0  0  0  0  0  0
  -27.0571  -27.3622   21.8797 C   0  0  0  0  0  0  0  0  0  0  0  0
  -20.8462   -6.3120   23.1313 C   0  0  0  0  0  0  0  0  0  0  0  0
  -21.1097   -5.4937   24.2296 C   0  0  0  0  0  0  0  0  0  0  0  0
  -30.3373  -22.5571   18.1364 C   0  0  0  0  0  0  0  0  0  0  0  0
  -26.5548  -28.0333   19.6177 C   0  0  0  0  0  0  0  0  0  0  0  0
  -23.4588   -5.4924   23.6651 C   0  0  0  0  0  0  0  0  0  0  0  0
  -23.4831  -11.2435   21.0779 C   0  0  0  0  0  0  0  0  0  0  0  0
  -25.4780  -12.8167   21.3082 C   0  0  0  0  0  0  0  0  0  0  0  0
  -30.9478  -21.6807   17.2392 C   0  0  0  0  0  0  0  0  0  0  0  0
  -19.4701  -26.9887   24.0573 C   0  0  0  0  0  0  0  0  0  0  0  0
  -25.2641  -28.9426   21.4527 C   0  0  0  0  0  0  0  0  0  0  0  0
  -20.5322  -26.8224   23.1481 C   0  0  0  0  0  0  0  0  0  0  0  0
  -25.5301  -28.8745   20.0776 C   0  0  0  0  0  0  0  0  0  0  0  0
  -22.2346   -8.7503   21.1670 C   0  0  0  0  0  0  0  0  0  0  0  0
  -30.9028  -23.8081   18.3834 C   0  0  0  0  0  0  0  0  0  0  0  0
  -27.3128  -27.2802   20.5140 C   0  0  0  0  0  0  0  0  0  0  0  0
  -21.8889   -6.7206   22.2997 C   0  0  0  0  0  0  0  0  0  0  0  0
  -22.4160   -5.0839   24.4965 C   0  0  0  0  0  0  0  0  0  0  0  0
  -23.1952   -6.3108   22.5667 C   0  0  0  0  0  0  0  0  0  0  0  0
  -24.1276  -12.5313   21.0312 C   0  0  0  0  0  0  0  0  0  0  0  0
  -25.5872  -14.1732   21.1232 C   0  0  0  0  0  0  0  0  0  0  0  0
  -26.5389  -11.9343   21.6977 C   0  0  0  0  0  0  0  0  0  0  0  0
  -22.1796  -29.0361   20.6908 C   0  0  0  0  0  0  0  0  0  0  0  0
  -24.4798  -18.7276   18.0702 C   0  0  0  0  0  0  0  0  0  0  0  0
  -23.0980  -31.5832   18.9045 C   0  0  0  0  0  0  0  0  0  0  0  0
  -25.6011  -33.2116   17.2523 C   0  0  0  0  0  0  0  0  0  0  0  0
  -18.2531  -27.8106   23.7138 C   0  0  0  0  0  0  0  0  0  0  0  0
  -24.1882  -29.8541   21.9761 C   0  0  0  0  0  0  0  0  0  0  0  0
  -24.7393  -29.6747   19.0763 C   0  0  0  0  0  0  0  0  0  0  0  0
  -18.4716  -28.7610   22.5393 C   0  0  0  0  0  0  0  0  0  0  0  0
  -22.0421  -17.7150   20.4934 C   0  0  0  0  0  0  0  0  0  0  0  0
  -30.2303  -19.4958   18.2594 C   0  0  0  0  0  0  0  0  0  0  0  0
  -19.1633  -28.0372   21.3885 C   0  0  0  0  0  0  0  0  0  0  0  0
  -28.7365  -19.2998   18.4981 C   0  0  0  0  0  0  0  0  0  0  0  0
  -22.4606  -16.2890   20.8494 C   0  0  0  0  0  0  0  0  0  0  0  0
  -28.9064  -20.4768   16.4357 C   0  0  0  0  0  0  0  0  0  0  0  0
  -22.3093  -18.0249   19.0239 C   0  0  0  0  0  0  0  0  0  0  0  0
  -24.1444  -16.3668   18.9563 C   0  0  0  0  0  0  0  0  0  0  0  0
  -30.3431  -20.3433   16.9747 C   0  0  1  0  0  0  0  0  0  0  0  0
  -20.5471  -27.5278   21.8094 C   0  0  1  0  0  0  0  0  0  0  0  0
  -23.1224  -30.1803   20.9345 C   0  0  1  0  0  0  0  0  0  0  0  0
  -28.1432  -19.3290   17.0937 C   0  0  2  0  0  0  0  0  0  0  0  0
  -23.9199  -16.0226   20.4393 C   0  0  2  0  0  0  0  0  0  0  0  0
  -26.0388  -35.2497   15.8551 C   0  0  0  0  0  0  0  0  0  0  0  0
  -21.7722  -30.2266   16.5146 C   0  0  0  0  0  0  0  0  0  0  0  0
  -23.0345  -31.7864   15.0174 C   0  0  0  0  0  0  0  0  0  0  0  0
  -21.3893  -32.6938   16.6584 C   0  0  0  0  0  0  0  0  0  0  0  0
  -27.5369  -34.2851   19.2169 C   0  0  0  0  0  0  0  0  0  0  0  0
  -25.9034  -18.3583   17.7369 C   0  0  0  0  0  0  0  0  0  0  0  0
  -29.1079  -24.2167   19.8891 C   0  0  0  0  0  0  0  0  0  0  0  0
  -28.5941  -25.2998   20.8178 C   0  0  0  0  0  0  0  0  0  1  0  0
  -23.5926  -31.7752   17.4912 C   0  0  1  0  0  0  0  0  0  0  0  0
  -26.0326  -34.6670   17.2598 C   0  0  2  0  0  0  0  0  0  0  0  0
  -26.6375  -19.5289   17.0861 C   0  0  2  0  0  0  0  0  0  0  0  0
  -22.4609  -31.6038   16.4388 C   0  0  0  0  0  0  0  0  0  0  0  0
  -23.4289  -13.6192   20.6959 N   0  0  0  0  0  0  0  0  0  0  0  0
  -24.3439  -14.6014   20.7611 N   0  0  0  0  0  0  0  0  0  0  0  0
  -23.6937  -30.5466   19.6369 N   0  0  0  0  0  0  0  0  0  0  0  0
  -23.7002  -17.7376   18.6685 N   0  0  0  0  0  0  0  0  0  0  0  0
  -26.6245  -15.0298   21.2367 N   0  0  0  0  0  0  0  0  0  0  0  0
  -26.2539  -10.5697   21.8420 N   0  0  0  0  0  0  0  0  0  0  0  0
  -21.5038  -28.6137   21.8197 N   0  0  0  0  0  0  0  0  0  0  0  0
  -24.2444  -33.0800   17.4605 N   0  0  0  0  0  0  0  0  0  0  0  0
  -26.1947  -19.6530   15.6656 N   0  3  0  0  0  0  0  0  0  0  0  0
  -27.4037  -34.7979   17.8290 N   0  3  0  0  0  0  0  0  0  0  0  0
  -27.7011  -12.3464   21.9275 O   0  0  0  0  0  0  0  0  0  0  0  0
  -22.0720  -28.5718   19.5618 O   0  0  0  0  0  0  0  0  0  0  0  0
  -24.0755  -19.8636   17.8086 O   0  0  0  0  0  0  0  0  0  0  0  0
  -22.2207  -32.3302   19.3449 O   0  0  0  0  0  0  0  0  0  0  0  0
  -26.3882  -32.2844   17.0755 O   0  0  0  0  0  0  0  0  0  0  0  0
  -21.6258   -7.5337   21.2102 O   0  0  0  0  0  0  0  0  0  0  0  0
  -30.3038  -24.6687   19.2651 O   0  0  0  0  0  0  0  0  0  0  0  0
  -28.3046  -26.4700   20.0540 O   0  0  0  0  0  0  0  0  0  1  0  0
  -22.6691   -4.2992   25.5522 F   0  0  0  0  0  0  0  0  0  0  0  0
  -24.2013   -6.7010   21.7721 F   0  0  0  0  0  0  0  0  0  0  0  0
  1  2  1  0  0  0  0
  1  6  2  0  0  0  0
  2  7  2  0  0  0  0
  3  8  1  0  0  0  0
  3 10  2  0  0  0  0
  4 11  2  0  0  0  0
  4 19  1  0  0  0  0
  5 12  1  0  0  0  0
  5 19  2  0  0  0  0
  6 22  1  0  0  0  0
  7 24  1  0  0  0  0
  8 21  2  0  0  0  0
  9 13  2  0  0  0  0
  9 23  1  0  0  0  0
 10 27  1  0  0  0  0
 11 26  1  0  0  0  0
 12 26  2  0  0  0  0
 13 28  1  0  0  0  0
 14 15  2  0  0  0  0
 14 29  1  0  0  0  0
 15 30  1  0  0  0  0
 16 21  1  0  0  0  0
 16 27  2  0  0  0  0
 17 25  1  0  0  0  0
 17 28  2  0  0  0  0
 18 30  2  0  0  0  0
 18 31  1  0  0  0  0
 19 32  1  0  0  0  0
 20 32  1  0  0  0  0
 20 33  2  0  0  0  0
 20 34  1  0  0  0  0
 21 51  1  0  0  0  0
 22 24  2  0  0  0  0
 22 39  1  0  0  0  0
 23 25  2  0  0  0  0
 23 40  1  0  0  0  0
 24 52  1  0  0  0  0
 25 41  1  0  0  0  0
 26 83  1  0  0  0  0
 27 84  1  0  0  0  0
 28 85  1  0  0  0  0
 29 31  2  0  0  0  0
 29 83  1  0  0  0  0
 30 86  1  0  0  0  0
 31 87  1  0  0  0  0
 32 68  2  0  0  0  0
 33 69  1  0  0  0  0
 33 72  1  0  0  0  0
 34 73  1  0  0  0  0
 34 78  2  0  0  0  0
 35 53  1  0  0  0  0
 35 74  1  0  0  0  0
 35 79  2  0  0  0  0
 36 61  1  0  0  0  0
 36 71  1  0  0  0  0
 36 80  2  0  0  0  0
 37 64  1  0  0  0  0
 37 70  1  0  0  0  0
 37 81  2  0  0  0  0
 38 65  1  0  0  0  0
 38 75  1  0  0  0  0
 38 82  2  0  0  0  0
 39 42  1  0  0  0  0
 40 53  1  0  0  0  0
 41 70  1  0  0  0  0
 42 45  1  0  0  0  0
 43 47  1  0  0  0  0
 43 49  1  0  0  0  0
 44 46  1  0  0  0  0
 44 51  1  0  0  0  0
 45 52  1  0  0  0  0
 46 54  1  0  0  0  0
 47 55  1  0  0  0  0
 48 51  1  0  0  0  0
 48 54  1  0  0  0  0
 49 71  1  0  0  0  0
 50 55  1  0  0  0  0
 50 71  1  0  0  0  0
 52 74  1  0  0  0  0
 53 70  1  0  0  0  0
 54 66  1  0  0  0  0
 55 69  1  0  0  0  0
 56 65  1  0  0  0  0
 57 67  1  0  0  0  0
 58 67  1  0  0  0  0
 59 67  1  0  0  0  0
 60 77  1  0  0  0  0
 61 66  1  0  0  0  0
 62 63  1  0  0  0  0
 62 84  1  0  0  0  0
 63 85  1  0  0  0  0
 64 67  1  0  0  0  0
 64 75  1  0  0  0  0
 65 77  1  0  0  0  0
 66 76  1  0  0  0  0
 68 69  1  0  0  0  0
M  CHG  2  76   1  77   1
M  ISO  4  36 100  61 100  63 101  85 101
M  END
> <Batch ID>
0139

> <Smiles>
CNC(C)C(=O)NC(C(=O)N1Cc2cc([101O:1][101CH2:1]COc3cccc(C4CCC(C(N)[100CH2:0][100C:0](=O)N5CCCC(n6nc(-c7ccc(Oc8ccc(F)cc8F)cc7)c(C(N)=O)c6N)C5)C4)c3)ccc2CC1C(=O)NC1CCCc2ccccc21)C(C)(C)C

> <Shape>
0.241

> <Color>
0.119

> <Negative vol penalty>
0.000

$$$$

  -OEChem-04052321103D

 81 89  0     1  0  0  0  0  0999 V2000
  -18.7876  -10.2868   25.3979 C   0  0  0  0  0  0  0  0  0  0  0  0
  -19.9302  -10.9908   25.7644 C   0  0  0  0  0  0  0  0  0  0  0  0
  -24.6812  -28.2390   22.9061 C   0  0  0  0  0  0  0  0  0  0  0  0
  -24.9402  -29.7768   21.0607 C   0  0  0  0  0  0  0  0  0  0  0  0
  -18.6446   -9.8242   24.0905 C   0  0  0  0  0  0  0  0  0  0  0  0
  -20.9311  -11.2315   24.8237 C   0  0  0  0  0  0  0  0  0  0  0  0
  -25.8597  -16.1151   23.0418 C   0  0  0  0  0  0  0  0  0  0  0  0
  -23.3206  -28.5405   22.9664 C   0  0  0  0  0  0  0  0  0  0  0  0
  -23.5796  -30.0782   21.1210 C   0  0  0  0  0  0  0  0  0  0  0  0
  -27.2235  -16.2202   22.7720 C   0  0  0  0  0  0  0  0  0  0  0  0
  -20.5071  -27.7039   21.2879 C   0  0  0  0  0  0  0  0  0  0  0  0
  -19.6129  -26.6414   21.4184 C   0  0  0  0  0  0  0  0  0  0  0  0
  -26.8322  -15.4419   20.5224 C   0  0  0  0  0  0  0  0  0  0  0  0
  -18.8131  -27.5704   23.5003 C   0  0  0  0  0  0  0  0  0  0  0  0
  -25.4910  -28.8572   21.9533 C   0  0  0  0  0  0  0  0  0  0  0  0
  -27.8528  -28.7260   22.9084 C   0  0  0  0  0  0  0  0  0  0  0  0
  -19.6398  -10.0678   23.1309 C   0  0  0  0  0  0  0  0  0  0  0  0
  -24.9719  -15.6615   22.0557 C   0  0  0  0  0  0  0  0  0  0  0  0
  -20.8018  -10.7706   23.5026 C   0  0  0  0  0  0  0  0  0  0  0  0
  -25.4573  -15.3345   20.7815 C   0  0  0  0  0  0  0  0  0  0  0  0
  -22.7698  -29.4600   22.0738 C   0  0  0  0  0  0  0  0  0  0  0  0
  -27.7103  -15.8808   21.5130 C   0  0  0  0  0  0  0  0  0  0  0  0
  -20.5544  -28.6996   22.2636 C   0  0  0  0  0  0  0  0  0  0  0  0
  -18.7659  -26.5746   22.5246 C   0  0  0  0  0  0  0  0  0  0  0  0
  -19.7074  -28.6329   23.3698 C   0  0  0  0  0  0  0  0  0  0  0  0
  -26.8966  -28.5466   21.8909 C   0  0  0  0  0  0  0  0  0  0  0  0
  -29.0293  -28.2816   22.3561 C   0  0  0  0  0  0  0  0  0  0  0  0
  -27.6920  -29.2476   24.2342 C   0  0  0  0  0  0  0  0  0  0  0  0
  -23.0121  -13.1749   21.7742 C   0  0  0  0  0  0  0  0  0  0  0  0
  -22.1048  -14.6940   19.0555 C   0  0  0  0  0  0  0  0  0  0  0  0
  -22.8860  -16.8973   16.5692 C   0  0  0  0  0  0  0  0  0  0  0  0
  -30.2631  -24.4045   17.9633 C   0  0  0  0  0  0  0  0  0  0  0  0
  -19.4620   -9.5070   21.7421 C   0  0  0  0  0  0  0  0  0  0  0  0
  -23.5000  -15.5793   22.3544 C   0  0  0  0  0  0  0  0  0  0  0  0
  -24.5430  -14.8616   19.6820 C   0  0  0  0  0  0  0  0  0  0  0  0
  -20.3989  -10.1286   20.7097 C   0  0  0  0  0  0  0  0  0  0  0  0
  -31.2491  -27.8210   18.1430 C   0  0  0  0  0  0  0  0  0  0  0  0
  -21.8235  -10.1922   21.2514 C   0  0  0  0  0  0  0  0  0  0  0  0
  -30.3317  -28.4106   19.2157 C   0  0  0  0  0  0  0  0  0  0  0  0
  -28.6550  -21.2879   19.1528 C   0  0  0  0  0  0  0  0  0  0  0  0
  -31.1035  -21.7174   19.6297 C   0  0  0  0  0  0  0  0  0  0  0  0
  -28.9256  -19.7858   19.1380 C   0  0  0  0  0  0  0  0  0  0  0  0
  -31.3662  -20.2139   19.6144 C   0  0  0  0  0  0  0  0  0  0  0  0
  -30.5275  -26.7754   17.2957 C   0  0  0  0  0  0  0  0  0  0  0  0
  -28.9640  -26.2841   19.1363 C   0  0  0  0  0  0  0  0  0  0  0  0
  -21.8983  -11.0731   22.5044 C   0  0  1  0  0  0  0  0  0  0  0  0
  -22.7565  -14.6160   21.4343 C   0  0  1  0  0  0  0  0  0  0  0  0
  -29.6633  -27.3031   20.0523 C   0  0  2  0  0  0  0  0  0  0  0  0
  -29.9018  -22.0830   18.7545 C   0  0  0  0  0  0  0  0  0  0  0  0
  -30.1232  -19.4196   20.0115 C   0  0  0  0  0  0  0  0  0  0  0  0
  -21.9577  -17.9051   14.4668 C   0  0  0  0  0  0  0  0  0  0  0  0
  -31.8460  -16.3352   20.6873 C   0  0  0  0  0  0  0  0  0  0  0  0
  -22.6681  -12.0931   17.5629 C   0  0  0  0  0  0  0  0  0  0  0  0
  -22.6507  -13.3971   15.4258 C   0  0  0  0  0  0  0  0  0  0  0  0
  -20.5946  -13.2862   16.8339 C   0  0  0  0  0  0  0  0  0  0  0  0
  -23.0116  -19.6344   17.6878 C   0  0  0  0  0  0  0  0  0  0  0  0
  -29.7698  -16.9862   21.9517 C   0  0  0  0  0  0  0  0  0  1  0  0
  -22.5592  -14.6721   17.6161 C   0  0  1  0  0  0  0  0  0  0  0  0
  -22.1113  -18.0582   15.9720 C   0  0  2  0  0  0  0  0  0  0  0  0
  -30.9143  -17.4728   21.0713 C   0  0  2  0  0  0  0  0  0  0  0  0
  -22.1359  -13.3691   16.8808 C   0  0  0  0  0  0  0  0  0  0  0  0
  -27.4203  -28.0288   20.7766 N   0  0  0  0  0  0  0  0  0  0  0  0
  -28.7184  -27.8791   21.0906 N   0  0  0  0  0  0  0  0  0  0  0  0
  -23.1129  -14.7919   20.0250 N   0  0  0  0  0  0  0  0  0  0  0  0
  -29.9171  -25.7532   18.1492 N   0  0  0  0  0  0  0  0  0  0  0  0
  -30.2890  -28.1999   22.8344 N   0  0  0  0  0  0  0  0  0  0  0  0
  -27.8493  -30.6260   24.4335 N   0  0  0  0  0  0  0  0  0  0  0  0
  -21.8789  -12.4735   22.1396 N   0  0  0  0  0  0  0  0  0  0  0  0
  -22.0467  -15.8950   17.0076 N   0  0  0  0  0  0  0  0  0  0  0  0
  -29.6438  -23.5013   18.8185 N   0  0  0  0  0  0  0  0  0  0  0  0
  -22.8136  -19.3442   16.2443 N   0  3  0  0  0  0  0  0  0  0  0  0
  -27.4331  -28.5109   25.2159 O   0  0  0  0  0  0  0  0  0  0  0  0
  -24.1527  -12.7316   21.7084 O   0  0  0  0  0  0  0  0  0  0  0  0
  -20.8993  -14.6338   19.3101 O   0  0  0  0  0  0  0  0  0  0  0  0
  -24.1130  -16.8796   16.6364 O   0  0  0  0  0  0  0  0  0  0  0  0
  -31.0685  -24.0335   17.1028 O   0  0  0  0  0  0  0  0  0  0  0  0
  -21.4422  -29.7543   22.1322 O   0  0  0  0  0  0  0  0  0  0  0  0
  -29.0411  -15.9818   21.2472 O   0  0  0  0  0  0  0  0  0  1  0  0
  -30.3800  -18.0267   19.8699 O   0  0  0  0  0  0  0  0  0  0  0  0
  -17.9061  -25.5551   22.6490 F   0  0  0  0  0  0  0  0  0  0  0  0
  -19.7473  -29.5871   24.3099 F   0  0  0  0  0  0  0  0  0  0  0  0
  1  2  1  0  0  0  0
  1  5  2  0  0  0  0
  2  6  2  0  0  0  0
  3  8  2  0  0  0  0
  3 15  1  0  0  0  0
  4  9  1  0  0  0  0
  4 15  2  0  0  0  0
  5 17  1  0  0  0  0
  6 19  1  0  0  0  0
  7 10  2  0  0  0  0
  7 18  1  0  0  0  0
  8 21  1  0  0  0  0
  9 21  2  0  0  0  0
 10 22  1  0  0  0  0
 11 12  2  0  0  0  0
 11 23  1  0  0  0  0
 12 24  1  0  0  0  0
 13 20  1  0  0  0  0
 13 22  2  0  0  0  0
 14 24  2  0  0  0  0
 14 25  1  0  0  0  0
 15 26  1  0  0  0  0
 16 26  1  0  0  0  0
 16 27  2  0  0  0  0
 16 28  1  0  0  0  0
 17 19  2  0  0  0  0
 17 33  1  0  0  0  0
 18 20  2  0  0  0  0
 18 34  1  0  0  0  0
 19 46  1  0  0  0  0
 20 35  1  0  0  0  0
 21 77  1  0  0  0  0
 22 78  1  0  0  0  0
 23 25  2  0  0  0  0
 23 77  1  0  0  0  0
 24 80  1  0  0  0  0
 25 81  1  0  0  0  0
 26 62  2  0  0  0  0
 27 63  1  0  0  0  0
 27 66  1  0  0  0  0
 28 67  1  0  0  0  0
 28 72  2  0  0  0  0
 29 47  1  0  0  0  0
 29 68  1  0  0  0  0
 29 73  2  0  0  0  0
 30 58  1  0  0  0  0
 30 64  1  0  0  0  0
 30 74  2  0  0  0  0
 31 59  1  0  0  0  0
 31 69  1  0  0  0  0
 31 75  2  0  0  0  0
 32 65  1  0  0  0  0
 32 70  1  0  0  0  0
 32 76  2  0  0  0  0
 33 36  1  0  0  0  0
 34 47  1  0  0  0  0
 35 64  1  0  0  0  0
 36 38  1  0  0  0  0
 37 39  1  0  0  0  0
 37 44  1  0  0  0  0
 38 46  1  0  0  0  0
 39 48  1  0  0  0  0
 40 42  1  0  0  0  0
 40 49  1  0  0  0  0
 41 43  1  0  0  0  0
 41 49  1  0  0  0  0
 42 50  1  0  0  0  0
 43 50  1  0  0  0  0
 44 65  1  0  0  0  0
 45 48  1  0  0  0  0
 45 65  1  0  0  0  0
 46 68  1  0  0  0  0
 47 64  1  0  0  0  0
 48 63  1  0  0  0  0
 49 70  1  0  0  0  0
 50 79  1  0  0  0  0
 51 59  1  0  0  0  0
 52 60  1  0  0  0  0
 53 61  1  0  0  0  0
 54 61  1  0  0  0  0
 55 61  1  0  0  0  0
 56 71  1  0  0  0  0
 57 60  1  0  0  0  0
 57 78  1  0  0  0  0
 58 61  1  0  0  0  0
 58 69  1  0  0  0  0
 59 71  1  0  0  0  0
 60 79  1  0  0  0  0
 62 63  1  0  0  0  0
M  CHG  1  71   1
M  ISO  4  32 100  57 101  70 100  78 101
M  END
> <Batch ID>
0139

> <Smiles>
CNC(C)C(=O)NC(C(=O)N1Cc2cc([101O:1][101CH2:1]C(C)OC3CCC([100NH:0][100C:0](=O)N4CCCC(n5nc(-c6ccc(Oc7ccc(F)cc7F)cc6)c(C(N)=O)c5N)C4)CC3)ccc2CC1C(=O)NC1CCCc2ccccc21)C(C)(C)C

> <Shape>
0.255

> <Color>
0.053

> <Negative vol penalty>
0.000

$$$$

  -OEChem-04052321103D

 87 95  0     1  0  0  0  0  0999 V2000
  -30.5122  -23.8476   18.1186 C   0  0  0  0  0  0  0  0  0  0  0  0
  -29.3039  -23.8644   18.8079 C   0  0  0  0  0  0  0  0  0  0  0  0
  -26.5420  -13.8545   23.0497 C   0  0  0  0  0  0  0  0  0  0  0  0
  -25.4004  -14.0259   20.9274 C   0  0  0  0  0  0  0  0  0  0  0  0
  -31.5253  -24.7394   18.4681 C   0  0  0  0  0  0  0  0  0  0  0  0
  -29.1085  -24.7724   19.8480 C   0  0  0  0  0  0  0  0  0  0  0  0
  -24.5823  -27.0331   19.6285 C   0  0  0  0  0  0  0  0  0  0  0  0
  -25.7423  -12.7641   23.3919 C   0  0  0  0  0  0  0  0  0  0  0  0
  -24.6007  -12.9354   21.2695 C   0  0  0  0  0  0  0  0  0  0  0  0
  -23.4822  -26.3000   20.0714 C   0  0  0  0  0  0  0  0  0  0  0  0
  -24.8846   -9.5690   21.3524 C   0  0  0  0  0  0  0  0  0  0  0  0
  -24.6867   -8.5836   20.3852 C   0  0  0  0  0  0  0  0  0  0  0  0
  -23.5547  -27.4748   22.1771 C   0  0  0  0  0  0  0  0  0  0  0  0
  -21.6493  -19.6613   23.9223 C   0  0  0  0  0  0  0  0  0  0  0  0
  -20.3449  -19.9319   21.9068 C   0  0  0  0  0  0  0  0  0  0  0  0
  -22.3054   -8.9841   20.4646 C   0  0  0  0  0  0  0  0  0  0  0  0
  -26.3710  -14.4854   21.8174 C   0  0  0  0  0  0  0  0  0  0  0  0
  -28.4349  -15.5820   20.7948 C   0  0  0  0  0  0  0  0  0  0  0  0
  -31.3387  -25.6653   19.5067 C   0  0  0  0  0  0  0  0  0  0  0  0
  -25.1846  -27.9865   20.4620 C   0  0  0  0  0  0  0  0  0  0  0  0
  -30.1205  -25.6765   20.2127 C   0  0  0  0  0  0  0  0  0  0  0  0
  -24.6607  -28.2205   21.7414 C   0  0  0  0  0  0  0  0  0  0  0  0
  -20.8171  -19.1233   22.9406 C   0  0  0  0  0  0  0  0  0  0  0  0
  -22.0091  -21.0080   23.8702 C   0  0  0  0  0  0  0  0  0  0  0  0
  -20.7048  -21.2785   21.8546 C   0  0  0  0  0  0  0  0  0  0  0  0
  -21.5369  -21.8166   22.8363 C   0  0  0  0  0  0  0  0  0  0  0  0
  -24.7716  -12.3046   22.5018 C   0  0  0  0  0  0  0  0  0  0  0  0
  -22.9701  -26.5187   21.3469 C   0  0  0  0  0  0  0  0  0  0  0  0
  -23.7930  -10.2619   21.8757 C   0  0  0  0  0  0  0  0  0  0  0  0
  -23.3971   -8.2912   19.9413 C   0  0  0  0  0  0  0  0  0  0  0  0
  -22.5034   -9.9695   21.4318 C   0  0  0  0  0  0  0  0  0  0  0  0
  -27.1965  -15.6122   21.4636 C   0  0  0  0  0  0  0  0  0  0  0  0
  -28.8063  -16.9010   20.7005 C   0  0  0  0  0  0  0  0  0  0  0  0
  -29.1825  -14.4620   20.3027 C   0  0  0  0  0  0  0  0  0  0  0  0
  -28.0687  -28.3364   21.7516 C   0  0  0  0  0  0  0  0  0  0  0  0
  -26.8652  -31.1916   22.7116 C   0  0  0  0  0  0  0  0  0  0  0  0
  -24.1180  -33.0764   23.4513 C   0  0  0  0  0  0  0  0  0  0  0  0
  -25.7008  -22.0201   20.6782 C   0  0  0  0  0  0  0  0  0  0  0  0
  -32.4802  -26.5777   19.8797 C   0  0  0  0  0  0  0  0  0  0  0  0
  -26.3540  -28.7879   19.9594 C   0  0  0  0  0  0  0  0  0  0  0  0
  -25.2583  -29.2470   22.6675 C   0  0  0  0  0  0  0  0  0  0  0  0
  -32.0563  -27.7604   20.7468 C   0  0  0  0  0  0  0  0  0  0  0  0
  -28.2996  -21.1026   22.9323 C   0  0  0  0  0  0  0  0  0  0  0  0
  -31.1473  -27.2933   21.8793 C   0  0  0  0  0  0  0  0  0  0  0  0
  -28.4233  -19.5887   22.7511 C   0  0  0  0  0  0  0  0  0  0  0  0
  -26.8487  -21.5670   22.8261 C   0  0  0  0  0  0  0  0  0  0  0  0
  -26.2745  -19.6282   21.4171 C   0  0  0  0  0  0  0  0  0  0  0  0
  -29.8615  -26.6632   21.3305 C   0  0  1  0  0  0  0  0  0  0  0  0
  -27.2067  -29.3695   21.0828 C   0  0  1  0  0  0  0  0  0  0  0  0
  -27.7256  -19.1195   21.4603 C   0  0  2  0  0  0  0  0  0  0  0  0
  -20.4331  -17.6831   22.9966 C   0  0  0  0  0  0  0  0  0  0  0  0
  -22.9007  -21.5560   24.9368 C   0  0  0  0  0  0  0  0  0  0  0  0
  -23.4529  -35.3623   24.2449 C   0  0  0  0  0  0  0  0  0  0  0  0
  -27.6914  -30.4432   25.5519 C   0  0  0  0  0  0  0  0  0  0  0  0
  -26.1906  -32.2621   26.3931 C   0  0  0  0  0  0  0  0  0  0  0  0
  -28.1315  -32.8255   24.9309 C   0  0  0  0  0  0  0  0  0  0  0  0
  -22.6079  -33.6267   20.9661 C   0  0  0  0  0  0  0  0  0  0  0  0
  -20.1833  -22.1204   20.7356 C   0  0  0  0  0  0  0  0  0  0  0  0
  -24.5623  -22.3147   18.4927 C   0  0  0  0  0  0  0  0  0  0  0  0
  -21.1367  -24.2101   23.4166 C   0  0  0  0  0  0  0  0  0  0  0  0
  -20.8817  -21.8814   19.3975 C   0  0  0  0  0  0  0  0  0  0  0  0
  -23.1012  -21.9807   18.2562 C   0  0  0  0  0  0  0  0  0  0  0  0
  -21.8089  -25.5528   23.1840 C   0  0  0  0  0  0  0  0  0  1  0  0
  -26.1135  -31.6811   23.9259 C   0  0  1  0  0  0  0  0  0  0  0  0
  -23.7177  -34.4802   23.0347 C   0  0  2  0  0  0  0  0  0  0  0  0
  -27.0215  -31.7822   25.1840 C   0  0  0  0  0  0  0  0  0  0  0  0
  -26.8073  -16.8520   21.7725 N   0  0  0  0  0  0  0  0  0  0  0  0
  -27.8070  -17.6132   21.2957 N   0  0  0  0  0  0  0  0  0  0  0  0
  -26.4044  -30.0007   22.1327 N   0  0  0  0  0  0  0  0  0  0  0  0
  -26.2456  -21.0903   21.5791 N   0  0  0  0  0  0  0  0  0  0  0  0
  -29.8871  -17.5094   20.1675 N   0  0  0  0  0  0  0  0  0  0  0  0
  -28.6557  -13.1758   20.4831 N   0  0  0  0  0  0  0  0  0  0  0  0
  -21.8940  -23.1538   22.7849 N   0  0  0  0  0  0  0  0  0  0  0  0
  -28.9407  -27.6914   20.8953 N   0  0  0  0  0  0  0  0  0  0  0  0
  -25.4874  -32.9404   23.5381 N   0  0  0  0  0  0  0  0  0  0  0  0
  -25.1548  -21.4848   19.5180 N   0  0  0  0  0  0  0  0  0  0  0  0
  -22.4821  -34.4410   22.2023 N   0  3  0  0  0  0  0  0  0  0  0  0
  -22.3196  -22.2335   19.4972 N   0  3  0  0  0  0  0  0  0  0  0  0
  -30.2929  -14.5965   19.7349 O   0  0  0  0  0  0  0  0  0  0  0  0
  -27.9525  -28.1400   22.9556 O   0  0  0  0  0  0  0  0  0  0  0  0
  -27.8214  -31.8457   22.2880 O   0  0  0  0  0  0  0  0  0  0  0  0
  -23.2978  -32.1903   23.6806 O   0  0  0  0  0  0  0  0  0  0  0  0
  -25.7057  -23.2376   20.8896 O   0  0  0  0  0  0  0  0  0  0  0  0
  -23.9912  -11.2405   22.8353 O   0  0  0  0  0  0  0  0  0  0  0  0
  -21.8968  -25.8040   21.7820 O   0  0  0  0  0  0  0  0  0  1  0  0
  -23.2072   -7.3460   19.0114 F   0  0  0  0  0  0  0  0  0  0  0  0
  -21.4508  -10.6327   21.9300 F   0  0  0  0  0  0  0  0  0  0  0  0
  1  2  1  0  0  0  0
  1  5  2  0  0  0  0
  2  6  2  0  0  0  0
  3  8  2  0  0  0  0
  3 17  1  0  0  0  0
  4  9  1  0  0  0  0
  4 17  2  0  0  0  0
  5 19  1  0  0  0  0
  6 21  1  0  0  0  0
  7 10  2  0  0  0  0
  7 20  1  0  0  0  0
  8 27  1  0  0  0  0
  9 27  2  0  0  0  0
 10 28  1  0  0  0  0
 11 12  2  0  0  0  0
 11 29  1  0  0  0  0
 12 30  1  0  0  0  0
 13 22  1  0  0  0  0
 13 28  2  0  0  0  0
 14 23  1  0  0  0  0
 14 24  2  0  0  0  0
 15 23  2  0  0  0  0
 15 25  1  0  0  0  0
 16 30  2  0  0  0  0
 16 31  1  0  0  0  0
 17 32  1  0  0  0  0
 18 32  1  0  0  0  0
 18 33  2  0  0  0  0
 18 34  1  0  0  0  0
 19 21  2  0  0  0  0
 19 39  1  0  0  0  0
 20 22  2  0  0  0  0
 20 40  1  0  0  0  0
 21 48  1  0  0  0  0
 22 41  1  0  0  0  0
 23 51  1  0  0  0  0
 24 26  1  0  0  0  0
 24 52  1  0  0  0  0
 25 26  2  0  0  0  0
 25 58  1  0  0  0  0
 26 73  1  0  0  0  0
 27 84  1  0  0  0  0
 28 85  1  0  0  0  0
 29 31  2  0  0  0  0
 29 84  1  0  0  0  0
 30 86  1  0  0  0  0
 31 87  1  0  0  0  0
 32 67  2  0  0  0  0
 33 68  1  0  0  0  0
 33 71  1  0  0  0  0
 34 72  1  0  0  0  0
 34 79  2  0  0  0  0
 35 49  1  0  0  0  0
 35 74  1  0  0  0  0
 35 80  2  0  0  0  0
 36 64  1  0  0  0  0
 36 69  1  0  0  0  0
 36 81  2  0  0  0  0
 37 65  1  0  0  0  0
 37 75  1  0  0  0  0
 37 82  2  0  0  0  0
 38 70  1  0  0  0  0
 38 76  1  0  0  0  0
 38 83  2  0  0  0  0
 39 42  1  0  0  0  0
 40 49  1  0  0  0  0
 41 69  1  0  0  0  0
 42 44  1  0  0  0  0
 43 45  1  0  0  0  0
 43 46  1  0  0  0  0
 44 48  1  0  0  0  0
 45 50  1  0  0  0  0
 46 70  1  0  0  0  0
 47 50  1  0  0  0  0
 47 70  1  0  0  0  0
 48 74  1  0  0  0  0
 49 69  1  0  0  0  0
 50 68  1  0  0  0  0
 53 65  1  0  0  0  0
 54 66  1  0  0  0  0
 55 66  1  0  0  0  0
 56 66  1  0  0  0  0
 57 77  1  0  0  0  0
 58 61  1  0  0  0  0
 59 62  1  0  0  0  0
 59 76  1  0  0  0  0
 60 63  1  0  0  0  0
 60 73  1  0  0  0  0
 61 78  1  0  0  0  0
 62 78  1  0  0  0  0
 63 85  1  0  0  0  0
 64 66  1  0  0  0  0
 64 75  1  0  0  0  0
 65 77  1  0  0  0  0
 67 68  1  0  0  0  0
M  CHG  2  77   1  78   1
M  ISO  4  38 100  63 101  76 100  85 101
M  END
> <Batch ID>
0139

> <Smiles>
CNC(C)C(=O)NC(C(=O)N1Cc2cc([101O:1][101CH2:1]CNc3c(C)cc(C)cc3CCNCC[100NH:0][100C:0](=O)N3CCCC(n4nc(-c5ccc(Oc6ccc(F)cc6F)cc5)c(C(N)=O)c4N)C3)ccc2CC1C(=O)NC1CCCc2ccccc21)C(C)(C)C

> <Shape>
0.242

> <Color>
0.068

> <Negative vol penalty>
0.000

$$$$

  -OEChem-04052321103D

 85 93  0     1  0  0  0  0  0999 V2000
  -22.2288  -24.9029   21.9707 C   0  0  0  0  0  0  0  0  0  0  0  0
  -22.8997  -23.8838   21.3042 C   0  0  0  0  0  0  0  0  0  0  0  0
  -22.8048  -30.2143   20.1187 C   0  0  0  0  0  0  0  0  0  0  0  0
  -22.9972  -29.0821   22.2443 C   0  0  0  0  0  0  0  0  0  0  0  0
  -21.5602  -24.6292   23.1621 C   0  0  0  0  0  0  0  0  0  0  0  0
  -22.8923  -22.5883   21.8224 C   0  0  0  0  0  0  0  0  0  0  0  0
  -24.8786  -19.0546   19.0348 C   0  0  0  0  0  0  0  0  0  0  0  0
  -30.4404  -18.5253   23.8229 C   0  0  0  0  0  0  0  0  0  0  0  0
  -21.5771  -30.7460   20.5130 C   0  0  0  0  0  0  0  0  0  0  0  0
  -21.7695  -29.6139   22.6387 C   0  0  0  0  0  0  0  0  0  0  0  0
  -26.2525  -18.9417   18.8269 C   0  0  0  0  0  0  0  0  0  0  0  0
  -30.1770  -19.7755   23.2633 C   0  0  0  0  0  0  0  0  0  0  0  0
  -18.5170  -30.3825   24.0672 C   0  0  0  0  0  0  0  0  0  0  0  0
  -17.6081  -29.5249   24.6869 C   0  0  0  0  0  0  0  0  0  0  0  0
  -26.3319  -17.1053   20.3891 C   0  0  0  0  0  0  0  0  0  0  0  0
  -30.6994  -17.5896   21.6106 C   0  0  0  0  0  0  0  0  0  0  0  0
  -17.5822  -28.1280   22.7159 C   0  0  0  0  0  0  0  0  0  0  0  0
  -23.5149  -29.3823   20.9843 C   0  0  0  0  0  0  0  0  0  0  0  0
  -26.0564  -29.4019   20.7656 C   0  0  0  0  0  0  0  0  0  0  0  0
  -21.5556  -23.3321   23.7010 C   0  0  0  0  0  0  0  0  0  0  0  0
  -24.2217  -18.1994   19.9312 C   0  0  0  0  0  0  0  0  0  0  0  0
  -22.2031  -22.2871   23.0111 C   0  0  0  0  0  0  0  0  0  0  0  0
  -24.9491  -17.2078   20.6047 C   0  0  0  0  0  0  0  0  0  0  0  0
  -30.7017  -17.4323   22.9965 C   0  0  0  0  0  0  0  0  0  0  0  0
  -30.4358  -18.8398   21.0510 C   0  0  0  0  0  0  0  0  0  0  0  0
  -21.0594  -30.4459   21.7730 C   0  0  0  0  0  0  0  0  0  0  0  0
  -26.9799  -17.9688   19.5062 C   0  0  0  0  0  0  0  0  0  0  0  0
  -30.1746  -19.9328   21.8774 C   0  0  0  0  0  0  0  0  0  0  0  0
  -18.9585  -30.1128   22.7718 C   0  0  0  0  0  0  0  0  0  0  0  0
  -17.1407  -28.3977   24.0113 C   0  0  0  0  0  0  0  0  0  0  0  0
  -18.4911  -28.9856   22.0961 C   0  0  0  0  0  0  0  0  0  0  0  0
  -24.7829  -28.8322   20.5773 C   0  0  0  0  0  0  0  0  0  0  0  0
  -26.9239  -28.4962   20.2057 C   0  0  0  0  0  0  0  0  0  0  0  0
  -26.4225  -30.6391   21.3909 C   0  0  0  0  0  0  0  0  0  0  0  0
  -22.5823  -18.6034   22.6244 C   0  0  0  0  0  0  0  0  0  0  0  0
  -22.0217  -15.4247   22.3016 C   0  0  0  0  0  0  0  0  0  0  0  0
  -23.0120  -12.4245   21.0115 C   0  0  0  0  0  0  0  0  0  0  0  0
  -28.6380  -23.2436   19.4199 C   0  0  0  0  0  0  0  0  0  0  0  0
  -20.8095  -23.0901   24.9894 C   0  0  0  0  0  0  0  0  0  0  0  0
  -22.7346  -18.3168   20.1242 C   0  0  0  0  0  0  0  0  0  0  0  0
  -24.2877  -16.2518   21.5624 C   0  0  0  0  0  0  0  0  0  0  0  0
  -21.2278  -21.7988   25.6850 C   0  0  0  0  0  0  0  0  0  0  0  0
  -26.0375  -24.4470   17.3066 C   0  0  0  0  0  0  0  0  0  0  0  0
  -21.2132  -20.6456   24.6928 C   0  0  0  0  0  0  0  0  0  0  0  0
  -25.5805  -25.7381   17.9879 C   0  0  0  0  0  0  0  0  0  0  0  0
  -26.4194  -23.3758   18.3257 C   0  0  0  0  0  0  0  0  0  0  0  0
  -26.9562  -25.0928   20.0102 C   0  0  0  0  0  0  0  0  0  0  0  0
  -22.2344  -20.8767   23.5718 C   0  0  1  0  0  0  0  0  0  0  0  0
  -22.2556  -17.7281   21.4476 C   0  0  1  0  0  0  0  0  0  0  0  0
  -26.6137  -26.2218   19.0231 C   0  0  2  0  0  0  0  0  0  0  0  0
  -32.3973  -15.5852   23.2541 C   0  0  0  0  0  0  0  0  0  0  0  0
  -29.9369  -15.0390   23.1990 C   0  0  0  0  0  0  0  0  0  0  0  0
  -22.3719   -9.9988   20.9504 C   0  0  0  0  0  0  0  0  0  0  0  0
  -23.0767  -15.0773   25.1435 C   0  0  0  0  0  0  0  0  0  0  0  0
  -23.3079  -12.6272   24.6837 C   0  0  0  0  0  0  0  0  0  0  0  0
  -21.0584  -13.7024   24.6047 C   0  0  0  0  0  0  0  0  0  0  0  0
  -22.6845  -12.4653   18.0704 C   0  0  0  0  0  0  0  0  0  0  0  0
  -30.4386  -18.9921   19.5493 C   0  0  0  0  0  0  0  0  0  0  0  0
  -30.8258  -23.2519   20.5913 C   0  0  0  0  0  0  0  0  0  0  0  0
  -29.0295  -19.0492   18.9696 C   0  0  0  0  0  0  0  0  0  1  0  0
  -30.7964  -22.2219   21.7063 C   0  0  0  0  0  0  0  0  0  0  0  0
  -30.9848  -16.0963   23.5955 C   0  0  0  0  0  0  0  0  0  0  0  0
  -22.7188  -14.1648   22.7550 C   0  0  1  0  0  0  0  0  0  0  0  0
  -22.2472  -11.3488   20.2615 C   0  0  2  0  0  0  0  0  0  0  0  0
  -22.5535  -13.9120   24.2802 C   0  0  0  0  0  0  0  0  0  0  0  0
  -24.8324  -27.6558   19.9468 N   0  0  0  0  0  0  0  0  0  0  0  0
  -26.1475  -27.4789   19.7340 N   0  0  0  0  0  0  0  0  0  0  0  0
  -22.8328  -16.4106   21.7221 N   0  0  0  0  0  0  0  0  0  0  0  0
  -27.4033  -23.8979   19.2772 N   0  0  0  0  0  0  0  0  0  0  0  0
  -28.2675  -28.4787   20.0755 N   0  0  0  0  0  0  0  0  0  0  0  0
  -25.4059  -31.4499   21.9139 N   0  0  0  0  0  0  0  0  0  0  0  0
  -22.0451  -19.8741   22.5467 N   0  0  0  0  0  0  0  0  0  0  0  0
  -22.2071  -13.0894   21.9122 N   0  0  0  0  0  0  0  0  0  0  0  0
  -29.5151  -23.8075   20.3382 N   0  0  0  0  0  0  0  0  0  0  0  0
  -22.7678  -11.2169   18.8713 N   0  3  0  0  0  0  0  0  0  0  0  0
  -27.6144  -31.0223   21.4686 O   0  0  0  0  0  0  0  0  0  0  0  0
  -23.2697  -18.1583   23.5360 O   0  0  0  0  0  0  0  0  0  0  0  0
  -20.8014  -15.5274   22.4496 O   0  0  0  0  0  0  0  0  0  0  0  0
  -24.2050  -12.6496   20.8202 O   0  0  0  0  0  0  0  0  0  0  0  0
  -28.9386  -22.2348   18.7726 O   0  0  0  0  0  0  0  0  0  0  0  0
  -19.8615  -30.9647   22.1582 O   0  0  0  0  0  0  0  0  0  0  0  0
  -28.3212  -17.8568   19.3056 O   0  0  0  0  0  0  0  0  0  1  0  0
  -29.9137  -21.1608   21.3477 O   0  0  0  0  0  0  0  0  0  0  0  0
  -16.2691  -27.5734   24.6071 F   0  0  0  0  0  0  0  0  0  0  0  0
  -18.9125  -28.7207   20.8519 F   0  0  0  0  0  0  0  0  0  0  0  0
  1  2  1  0  0  0  0
  1  5  2  0  0  0  0
  2  6  2  0  0  0  0
  3  9  2  0  0  0  0
  3 18  1  0  0  0  0
  4 10  1  0  0  0  0
  4 18  2  0  0  0  0
  5 20  1  0  0  0  0
  6 22  1  0  0  0  0
  7 11  2  0  0  0  0
  7 21  1  0  0  0  0
  8 12  2  0  0  0  0
  8 24  1  0  0  0  0
  9 26  1  0  0  0  0
 10 26  2  0  0  0  0
 11 27  1  0  0  0  0
 12 28  1  0  0  0  0
 13 14  2  0  0  0  0
 13 29  1  0  0  0  0
 14 30  1  0  0  0  0
 15 23  1  0  0  0  0
 15 27  2  0  0  0  0
 16 24  2  0  0  0  0
 16 25  1  0  0  0  0
 17 30  2  0  0  0  0
 17 31  1  0  0  0  0
 18 32  1  0  0  0  0
 19 32  1  0  0  0  0
 19 33  2  0  0  0  0
 19 34  1  0  0  0  0
 20 22  2  0  0  0  0
 20 39  1  0  0  0  0
 21 23  2  0  0  0  0
 21 40  1  0  0  0  0
 22 48  1  0  0  0  0
 23 41  1  0  0  0  0
 24 62  1  0  0  0  0
 25 28  2  0  0  0  0
 25 58  1  0  0  0  0
 26 81  1  0  0  0  0
 27 82  1  0  0  0  0
 28 83  1  0  0  0  0
 29 31  2  0  0  0  0
 29 81  1  0  0  0  0
 30 84  1  0  0  0  0
 31 85  1  0  0  0  0
 32 66  2  0  0  0  0
 33 67  1  0  0  0  0
 33 70  1  0  0  0  0
 34 71  1  0  0  0  0
 34 76  2  0  0  0  0
 35 49  1  0  0  0  0
 35 72  1  0  0  0  0
 35 77  2  0  0  0  0
 36 63  1  0  0  0  0
 36 68  1  0  0  0  0
 36 78  2  0  0  0  0
 37 64  1  0  0  0  0
 37 73  1  0  0  0  0
 37 79  2  0  0  0  0
 38 69  1  0  0  0  0
 38 74  1  0  0  0  0
 38 80  2  0  0  0  0
 39 42  1  0  0  0  0
 40 49  1  0  0  0  0
 41 68  1  0  0  0  0
 42 44  1  0  0  0  0
 43 45  1  0  0  0  0
 43 46  1  0  0  0  0
 44 48  1  0  0  0  0
 45 50  1  0  0  0  0
 46 69  1  0  0  0  0
 47 50  1  0  0  0  0
 47 69  1  0  0  0  0
 48 72  1  0  0  0  0
 49 68  1  0  0  0  0
 50 67  1  0  0  0  0
 51 62  1  0  0  0  0
 52 62  1  0  0  0  0
 53 64  1  0  0  0  0
 54 65  1  0  0  0  0
 55 65  1  0  0  0  0
 56 65  1  0  0  0  0
 57 75  1  0  0  0  0
 58 60  1  0  0  0  0
 59 61  1  0  0  0  0
 59 74  1  0  0  0  0
 60 82  1  0  0  0  0
 61 83  1  0  0  0  0
 63 65  1  0  0  0  0
 63 73  1  0  0  0  0
 64 75  1  0  0  0  0
 66 67  1  0  0  0  0
M  CHG  1  75   1
M  ISO  4  38 100  60 101  74 100  82 101
M  END
> <Batch ID>
0139

> <Smiles>
CNC(C)C(=O)NC(C(=O)N1Cc2cc([101O:1][101CH2:1]Cc3cc(C(C)C)ccc3OCC[100NH:0][100C:0](=O)N3CCCC(n4nc(-c5ccc(Oc6ccc(F)cc6F)cc5)c(C(N)=O)c4N)C3)ccc2CC1C(=O)NC1CCCc2ccccc21)C(C)(C)C

> <Shape>
0.227

> <Color>
0.065

> <Negative vol penalty>
0.000

$$$$

  -OEChem-04052321103D

 92102  0     1  0  0  0  0  0999 V2000
  -27.7785  -12.8628   28.4934 C   0  0  0  0  0  0  0  0  0  0  0  0
  -26.9454  -13.2708   27.4567 C   0  0  0  0  0  0  0  0  0  0  0  0
  -24.3789  -29.3126   20.3576 C   0  0  0  0  0  0  0  0  0  0  0  0
  -24.2524  -27.6474   22.1034 C   0  0  0  0  0  0  0  0  0  0  0  0
  -29.1390  -13.1651   28.4530 C   0  0  0  0  0  0  0  0  0  0  0  0
  -27.4720  -13.9825   26.3795 C   0  0  0  0  0  0  0  0  0  0  0  0
  -25.7691  -12.2963   21.9183 C   0  0  0  0  0  0  0  0  0  0  0  0
  -25.1603  -17.9324   23.8917 C   0  0  0  0  0  0  0  0  0  0  0  0
  -23.1197  -29.7898   20.7214 C   0  0  0  0  0  0  0  0  0  0  0  0
  -22.9932  -28.1245   22.4673 C   0  0  0  0  0  0  0  0  0  0  0  0
  -24.4854  -12.6855   21.5385 C   0  0  0  0  0  0  0  0  0  0  0  0
  -24.0647  -17.0856   23.7243 C   0  0  0  0  0  0  0  0  0  0  0  0
  -19.8105  -27.8534   21.3593 C   0  0  0  0  0  0  0  0  0  0  0  0
  -18.8064  -26.9154   21.5987 C   0  0  0  0  0  0  0  0  0  0  0  0
  -25.4295  -14.3896   20.1158 C   0  0  0  0  0  0  0  0  0  0  0  0
  -23.2796  -18.4619   21.9004 C   0  0  0  0  0  0  0  0  0  0  0  0
  -18.5845  -27.7306   23.8622 C   0  0  0  0  0  0  0  0  0  0  0  0
  -24.9452  -28.2414   21.0485 C   0  0  0  0  0  0  0  0  0  0  0  0
  -27.4578  -28.4636   20.6673 C   0  0  0  0  0  0  0  0  0  0  0  0
  -29.6843  -13.8725   27.3700 C   0  0  0  0  0  0  0  0  0  0  0  0
  -26.8943  -12.9591   21.4072 C   0  0  0  0  0  0  0  0  0  0  0  0
  -28.8408  -14.2958   26.3252 C   0  0  0  0  0  0  0  0  0  0  0  0
  -26.7265  -14.0052   20.4887 C   0  0  0  0  0  0  0  0  0  0  0  0
  -24.3752  -19.3087   22.0679 C   0  0  0  0  0  0  0  0  0  0  0  0
  -25.3156  -19.0440   23.0635 C   0  0  0  0  0  0  0  0  0  0  0  0
  -22.4269  -29.1958   21.7763 C   0  0  0  0  0  0  0  0  0  0  0  0
  -24.3153  -13.7342   20.6393 C   0  0  0  0  0  0  0  0  0  0  0  0
  -23.1243  -17.3503   22.7286 C   0  0  0  0  0  0  0  0  0  0  0  0
  -20.2017  -28.7300   22.3713 C   0  0  0  0  0  0  0  0  0  0  0  0
  -18.1933  -26.8540   22.8501 C   0  0  0  0  0  0  0  0  0  0  0  0
  -19.5887  -28.6687   23.6227 C   0  0  0  0  0  0  0  0  0  0  0  0
  -26.2457  -27.7477   20.6727 C   0  0  0  0  0  0  0  0  0  0  0  0
  -28.3918  -27.5541   20.2349 C   0  0  0  0  0  0  0  0  0  0  0  0
  -27.7164  -29.8286   21.0216 C   0  0  0  0  0  0  0  0  0  0  0  0
  -27.4449  -19.7587   24.1946 C   0  0  0  0  0  0  0  0  0  0  0  0
  -29.2622  -14.6609   22.6725 C   0  0  0  0  0  0  0  0  0  0  0  0
  -30.4083  -14.5965   19.6386 C   0  0  0  0  0  0  0  0  0  0  0  0
  -29.7622  -14.2669   16.3038 C   0  0  0  0  0  0  0  0  0  0  0  0
  -28.6369  -21.5736   20.3915 C   0  0  0  0  0  0  0  0  0  0  0  0
  -31.1524  -14.2172   27.3934 C   0  0  0  0  0  0  0  0  0  0  0  0
  -28.2731  -12.5097   21.8064 C   0  0  0  0  0  0  0  0  0  0  0  0
  -27.9023  -14.7359   19.8955 C   0  0  0  0  0  0  0  0  0  0  0  0
  -31.6984  -14.6494   26.0350 C   0  0  0  0  0  0  0  0  0  0  0  0
  -30.8037  -20.3052   24.3212 C   0  0  0  0  0  0  0  0  0  0  0  0
  -28.8323  -23.6494   17.5054 C   0  0  0  0  0  0  0  0  0  0  0  0
  -24.6486  -21.8613   21.7787 C   0  0  0  0  0  0  0  0  0  0  0  0
  -23.3846  -21.4789   21.0742 C   0  0  0  0  0  0  0  0  0  0  0  0
  -30.7622  -15.6603   25.3805 C   0  0  0  0  0  0  0  0  0  0  0  0
  -29.5637  -20.7076   25.1101 C   0  0  0  0  0  0  0  0  0  0  0  0
  -28.3009  -24.9997   17.9894 C   0  0  0  0  0  0  0  0  0  0  0  0
  -30.6191  -21.0162   22.9912 C   0  0  0  0  0  0  0  0  0  0  0  0
  -28.0879  -22.4845   18.1543 C   0  0  0  0  0  0  0  0  0  0  0  0
  -27.5181  -23.8686   20.1123 C   0  0  0  0  0  0  0  0  0  0  0  0
  -24.5172  -20.4923   21.1676 C   0  0  0  0  0  0  0  0  0  0  0  0
  -29.3792  -15.0481   25.1275 C   0  0  1  0  0  0  0  0  0  0  0  0
  -28.4482  -20.8637   24.0684 C   0  0  1  0  0  0  0  0  0  0  0  0
  -29.3319  -13.5919   21.6189 C   0  0  1  0  0  0  0  0  0  0  0  0
  -28.2753  -25.0734   19.5280 C   0  0  2  0  0  0  0  0  0  0  0  0
  -29.1377  -20.8031   22.6969 C   0  0  1  0  0  0  0  0  0  0  0  0
  -30.8957  -14.2982   14.0652 C   0  0  0  0  0  0  0  0  0  0  0  0
  -30.5907  -17.6392   19.7762 C   0  0  0  0  0  0  0  0  0  0  0  0
  -30.8005  -17.6698   17.2815 C   0  0  0  0  0  0  0  0  0  0  0  0
  -32.5346  -16.5268   18.6633 C   0  0  0  0  0  0  0  0  0  0  0  0
  -28.9633  -11.4755   15.7307 C   0  0  0  0  0  0  0  0  0  0  0  0
  -20.9576  -15.0065   21.0389 C   0  0  0  0  0  0  0  0  0  0  0  0
  -22.0177  -13.9317   21.2207 C   0  0  0  0  0  0  0  0  0  1  0  0
  -21.5214  -16.4030   21.2490 C   0  0  0  0  0  0  0  0  0  0  0  0
  -30.2510  -15.4701   18.4175 C   0  0  1  0  0  0  0  0  0  0  0  0
  -30.4306  -13.4327   15.2259 C   0  0  2  0  0  0  0  0  0  0  0  0
  -31.0218  -16.8142   18.5471 C   0  0  0  0  0  0  0  0  0  0  0  0
  -26.3931  -26.4811   20.2751 N   0  0  0  0  0  0  0  0  0  0  0  0
  -27.7089  -26.3940   20.0158 N   0  0  0  0  0  0  0  0  0  0  0  0
  -29.2301  -14.2636   20.3217 N   0  0  0  0  0  0  0  0  0  0  0  0
  -28.1019  -22.6135   19.6135 N   0  0  0  0  0  0  0  0  0  0  0  0
  -29.7224  -27.6416   20.0244 N   0  0  0  0  0  0  0  0  0  0  0  0
  -28.0439  -30.1230   22.3521 N   0  0  0  0  0  0  0  0  0  0  0  0
  -26.4191  -19.8807   23.2497 N   0  0  0  0  0  0  0  0  0  0  0  0
  -29.4118  -14.1897   23.9628 N   0  0  0  0  0  0  0  0  0  0  0  0
  -30.6577  -14.6555   17.2776 N   0  0  0  0  0  0  0  0  0  0  0  0
  -28.6173  -21.7791   21.7656 N   0  0  0  0  0  0  0  0  0  0  0  0
  -29.4825  -12.4105   14.6996 N   0  3  0  0  0  0  0  0  0  0  0  0
  -27.6426  -30.7618   20.1865 O   0  0  0  0  0  0  0  0  0  0  0  0
  -27.5761  -18.8855   25.0462 O   0  0  0  0  0  0  0  0  0  0  0  0
  -29.0871  -15.8271   22.3393 O   0  0  0  0  0  0  0  0  0  0  0  0
  -31.5345  -14.2174   19.9698 O   0  0  0  0  0  0  0  0  0  0  0  0
  -28.5662  -14.5489   16.2820 O   0  0  0  0  0  0  0  0  0  0  0  0
  -29.1027  -20.5410   19.8980 O   0  0  0  0  0  0  0  0  0  0  0  0
  -21.1983  -29.6613   22.1318 O   0  0  0  0  0  0  0  0  0  0  0  0
  -23.0633  -14.1165   20.2674 O   0  0  0  0  0  0  0  0  0  1  0  0
  -22.0479  -16.5178   22.5641 O   0  0  0  0  0  0  0  0  0  0  0  0
  -17.2280  -25.9542   23.0794 F   0  0  0  0  0  0  0  0  0  0  0  0
  -19.9595  -29.5090   24.5985 F   0  0  0  0  0  0  0  0  0  0  0  0
  1  2  1  0  0  0  0
  1  5  2  0  0  0  0
  2  6  2  0  0  0  0
  3  9  2  0  0  0  0
  3 18  1  0  0  0  0
  4 10  1  0  0  0  0
  4 18  2  0  0  0  0
  5 20  1  0  0  0  0
  6 22  1  0  0  0  0
  7 11  2  0  0  0  0
  7 21  1  0  0  0  0
  8 12  2  0  0  0  0
  8 25  1  0  0  0  0
  9 26  1  0  0  0  0
 10 26  2  0  0  0  0
 11 27  1  0  0  0  0
 12 28  1  0  0  0  0
 13 14  2  0  0  0  0
 13 29  1  0  0  0  0
 14 30  1  0  0  0  0
 15 23  1  0  0  0  0
 15 27  2  0  0  0  0
 16 24  1  0  0  0  0
 16 28  2  0  0  0  0
 17 30  2  0  0  0  0
 17 31  1  0  0  0  0
 18 32  1  0  0  0  0
 19 32  1  0  0  0  0
 19 33  2  0  0  0  0
 19 34  1  0  0  0  0
 20 22  2  0  0  0  0
 20 40  1  0  0  0  0
 21 23  2  0  0  0  0
 21 41  1  0  0  0  0
 22 55  1  0  0  0  0
 23 42  1  0  0  0  0
 24 25  2  0  0  0  0
 24 54  1  0  0  0  0
 25 77  1  0  0  0  0
 26 88  1  0  0  0  0
 27 89  1  0  0  0  0
 28 90  1  0  0  0  0
 29 31  2  0  0  0  0
 29 88  1  0  0  0  0
 30 91  1  0  0  0  0
 31 92  1  0  0  0  0
 32 71  2  0  0  0  0
 33 72  1  0  0  0  0
 33 75  1  0  0  0  0
 34 76  1  0  0  0  0
 34 82  2  0  0  0  0
 35 56  1  0  0  0  0
 35 77  1  0  0  0  0
 35 83  2  0  0  0  0
 36 57  1  0  0  0  0
 36 78  1  0  0  0  0
 36 84  2  0  0  0  0
 37 68  1  0  0  0  0
 37 73  1  0  0  0  0
 37 85  2  0  0  0  0
 38 69  1  0  0  0  0
 38 79  1  0  0  0  0
 38 86  2  0  0  0  0
 39 74  1  0  0  0  0
 39 80  1  0  0  0  0
 39 87  2  0  0  0  0
 40 43  1  0  0  0  0
 41 57  1  0  0  0  0
 42 73  1  0  0  0  0
 43 48  1  0  0  0  0
 44 49  1  0  0  0  0
 44 51  1  0  0  0  0
 45 50  1  0  0  0  0
 45 52  1  0  0  0  0
 46 47  1  0  0  0  0
 46 54  1  0  0  0  0
 47 54  1  0  0  0  0
 48 55  1  0  0  0  0
 49 56  1  0  0  0  0
 50 58  1  0  0  0  0
 51 59  1  0  0  0  0
 52 74  1  0  0  0  0
 53 58  1  0  0  0  0
 53 74  1  0  0  0  0
 55 78  1  0  0  0  0
 56 59  1  0  0  0  0
 57 73  1  0  0  0  0
 58 72  1  0  0  0  0
 59 80  1  0  0  0  0
 60 69  1  0  0  0  0
 61 70  1  0  0  0  0
 62 70  1  0  0  0  0
 63 70  1  0  0  0  0
 64 81  1  0  0  0  0
 65 66  1  0  0  0  0
 65 67  1  0  0  0  0
 66 89  1  0  0  0  0
 67 90  1  0  0  0  0
 68 70  1  0  0  0  0
 68 79  1  0  0  0  0
 69 81  1  0  0  0  0
 71 72  1  0  0  0  0
M  CHG  1  81   1
M  ISO  4  39 100  66 101  80 100  89 101
M  END
> <Batch ID>
0139

> <Smiles>
CNC(C)C(=O)NC(C(=O)N1Cc2cc([101O:1][101CH2:1]CCOc3ccc(NC(=O)C4CCCC4[100NH:0][100C:0](=O)N4CCCC(n5nc(-c6ccc(Oc7ccc(F)cc7F)cc6)c(C(N)=O)c5N)C4)c(C4CC4)c3)ccc2CC1C(=O)NC1CCCc2ccccc21)C(C)(C)C

> <Shape>
0.230

> <Color>
0.070

> <Negative vol penalty>
0.000

$$$$

  -OEChem-04052321103D

 91101  0     1  0  0  0  0  0999 V2000
  -17.8117  -24.9313   21.2666 C   0  0  0  0  0  0  0  0  0  0  0  0
  -19.1571  -24.7364   20.9710 C   0  0  0  0  0  0  0  0  0  0  0  0
  -30.3032  -23.4839   18.1882 C   0  0  0  0  0  0  0  0  0  0  0  0
  -22.7528  -12.0034   22.4371 C   0  0  0  0  0  0  0  0  0  0  0  0
  -23.6826  -11.7720   20.2192 C   0  0  0  0  0  0  0  0  0  0  0  0
  -17.4078  -26.0792   21.9471 C   0  0  0  0  0  0  0  0  0  0  0  0
  -20.0993  -25.6899   21.3550 C   0  0  0  0  0  0  0  0  0  0  0  0
  -24.2327  -23.6156   23.4183 C   0  0  0  0  0  0  0  0  0  0  0  0
  -29.9519  -23.0103   19.4522 C   0  0  0  0  0  0  0  0  0  0  0  0
  -29.8298  -22.8391   17.0454 C   0  0  0  0  0  0  0  0  0  0  0  0
  -22.5865  -10.6205   22.5116 C   0  0  0  0  0  0  0  0  0  0  0  0
  -23.5163  -10.3891   20.2937 C   0  0  0  0  0  0  0  0  0  0  0  0
  -25.1659  -23.0546   22.5476 C   0  0  0  0  0  0  0  0  0  0  0  0
  -24.5139   -7.9086   23.1144 C   0  0  0  0  0  0  0  0  0  0  0  0
  -24.9018   -7.2716   24.2931 C   0  0  0  0  0  0  0  0  0  0  0  0
  -26.5224  -25.0409   22.7312 C   0  0  0  0  0  0  0  0  0  0  0  0
  -22.6410   -6.4804   24.6095 C   0  0  0  0  0  0  0  0  0  0  0  0
  -23.3009  -12.5792   21.2908 C   0  0  0  0  0  0  0  0  0  0  0  0
  -24.6006  -14.7511   21.6082 C   0  0  0  0  0  0  0  0  0  0  0  0
  -18.3468  -27.0426   22.3481 C   0  0  0  0  0  0  0  0  0  0  0  0
  -24.4324  -24.9001   23.9443 C   0  0  0  0  0  0  0  0  0  0  0  0
  -19.7075  -26.8524   22.0403 C   0  0  0  0  0  0  0  0  0  0  0  0
  -25.5915  -25.6149   23.6104 C   0  0  0  0  0  0  0  0  0  0  0  0
  -29.1273  -21.8918   19.5736 C   0  0  0  0  0  0  0  0  0  0  0  0
  -28.6540  -21.2469   18.4308 C   0  0  0  0  0  0  0  0  0  0  0  0
  -22.9682   -9.8134   21.4399 C   0  0  0  0  0  0  0  0  0  0  0  0
  -26.3095  -23.7684   22.2016 C   0  0  0  0  0  0  0  0  0  0  0  0
  -29.0053  -21.7206   17.1667 C   0  0  0  0  0  0  0  0  0  0  0  0
  -23.1896   -7.8316   22.6833 C   0  0  0  0  0  0  0  0  0  0  0  0
  -23.9654   -6.5575   25.0407 C   0  0  0  0  0  0  0  0  0  0  0  0
  -22.2532   -7.1175   23.4308 C   0  0  0  0  0  0  0  0  0  0  0  0
  -23.4724  -14.0077   21.2130 C   0  0  0  0  0  0  0  0  0  0  0  0
  -24.2671  -16.0545   21.3316 C   0  0  0  0  0  0  0  0  0  0  0  0
  -25.8394  -14.3036   22.1747 C   0  0  0  0  0  0  0  0  0  0  0  0
  -22.8695  -27.6626   23.7717 C   0  0  0  0  0  0  0  0  0  0  0  0
  -25.0908  -28.6079   25.9384 C   0  0  0  0  0  0  0  0  0  0  0  0
  -28.1929  -28.1631   27.2897 C   0  0  0  0  0  0  0  0  0  0  0  0
  -22.0925  -19.9416   18.1485 C   0  0  0  0  0  0  0  0  0  0  0  0
  -17.8567  -28.2901   23.0398 C   0  0  0  0  0  0  0  0  0  0  0  0
  -23.4294  -25.4804   24.9033 C   0  0  0  0  0  0  0  0  0  0  0  0
  -25.8627  -26.9892   24.1638 C   0  0  0  0  0  0  0  0  0  0  0  0
  -18.9639  -29.0723   23.7415 C   0  0  0  0  0  0  0  0  0  0  0  0
  -19.8443  -18.1347   20.0550 C   0  0  0  0  0  0  0  0  0  0  0  0
  -20.1751  -29.2209   22.8262 C   0  0  0  0  0  0  0  0  0  0  0  0
  -30.2758  -17.8274   19.4883 C   0  0  0  0  0  0  0  0  0  0  0  0
  -30.5065  -17.2350   18.1261 C   0  0  0  0  0  0  0  0  0  0  0  0
  -20.6697  -16.9549   20.5681 C   0  0  0  0  0  0  0  0  0  0  0  0
  -25.5174  -21.1269   18.9177 C   0  0  0  0  0  0  0  0  0  0  0  0
  -25.6704  -18.9904   17.5906 C   0  0  0  0  0  0  0  0  0  0  0  0
  -20.1752  -18.4401   18.5985 C   0  0  0  0  0  0  0  0  0  0  0  0
  -24.1100  -21.3450   18.3691 C   0  0  0  0  0  0  0  0  0  0  0  0
  -24.2634  -19.2514   17.0632 C   0  0  0  0  0  0  0  0  0  0  0  0
  -22.4624  -17.5371   18.8606 C   0  0  0  0  0  0  0  0  0  0  0  0
  -20.7625  -27.8520   22.4619 C   0  0  1  0  0  0  0  0  0  0  0  0
  -23.4827  -27.0034   24.9747 C   0  0  1  0  0  0  0  0  0  0  0  0
  -29.8548  -18.5835   18.2587 C   0  0  0  0  0  0  0  0  0  0  0  0
  -26.3803  -20.3015   17.9545 C   0  0  0  0  0  0  0  0  0  0  0  0
  -22.1728  -17.1890   20.3346 C   0  0  2  0  0  0  0  0  0  0  0  0
  -29.7431  -29.1137   29.0191 C   0  0  0  0  0  0  0  0  0  0  0  0
  -25.7254  -30.9446   24.0818 C   0  0  0  0  0  0  0  0  0  0  0  0
  -27.8555  -31.2852   25.3526 C   0  0  0  0  0  0  0  0  0  0  0  0
  -25.6605  -31.5310   26.5121 C   0  0  0  0  0  0  0  0  0  0  0  0
  -28.2475  -25.6217   28.8054 C   0  0  0  0  0  0  0  0  0  0  0  0
  -28.9631  -21.6559   14.7898 C   0  0  0  0  0  0  0  0  0  0  0  0
  -28.7660  -21.4048   20.9385 C   0  0  0  0  0  0  0  0  0  0  0  0
  -28.3764  -18.7563   17.9320 C   0  0  0  0  0  0  0  0  0  0  0  0
  -27.3481  -21.8027   21.3569 C   0  0  0  0  0  0  0  0  0  1  0  0
  -27.7558  -20.0254   18.5569 C   0  0  1  0  0  0  0  0  0  0  0  0
  -26.4662  -29.2251   25.8596 C   0  0  1  0  0  0  0  0  0  0  0  0
  -28.6618  -28.0837   28.7313 C   0  0  2  0  0  0  0  0  0  0  0  0
  -26.4212  -30.7214   25.4394 C   0  0  0  0  0  0  0  0  0  0  0  0
  -22.4952  -14.7749   20.7228 N   0  0  0  0  0  0  0  0  0  0  0  0
  -23.0083  -16.0140   20.8082 N   0  0  0  0  0  0  0  0  0  0  0  0
  -24.8492  -27.5162   25.0925 N   0  0  0  0  0  0  0  0  0  0  0  0
  -21.6113  -18.6515   18.4176 N   0  0  0  0  0  0  0  0  0  0  0  0
  -23.4813  -20.0804   17.9901 N   0  0  0  0  0  0  0  0  0  0  0  0
  -24.9307  -17.2197   21.4875 N   0  0  0  0  0  0  0  0  0  0  0  0
  -26.0168  -12.9306   22.3931 N   0  0  0  0  0  0  0  0  0  0  0  0
  -21.5451  -27.3291   23.5613 N   0  0  0  0  0  0  0  0  0  0  0  0
  -27.0954  -28.9867   27.1541 N   0  0  0  0  0  0  0  0  0  0  0  0
  -29.2124  -26.7300   29.0232 N   0  3  0  0  0  0  0  0  0  0  0  0
  -26.7552  -15.0993   22.4934 O   0  0  0  0  0  0  0  0  0  0  0  0
  -23.5474  -28.4190   23.0861 O   0  0  0  0  0  0  0  0  0  0  0  0
  -24.2637  -29.0726   26.7268 O   0  0  0  0  0  0  0  0  0  0  0  0
  -28.7473  -27.5581   26.3747 O   0  0  0  0  0  0  0  0  0  0  0  0
  -21.3308  -20.9127   18.0593 O   0  0  0  0  0  0  0  0  0  0  0  0
  -22.8062   -8.4639   21.5124 O   0  0  0  0  0  0  0  0  0  0  0  0
  -28.5538  -21.1032   16.0391 O   0  0  0  0  0  0  0  0  0  0  0  0
  -27.2281  -23.2195   21.3454 O   0  0  0  0  0  0  0  0  0  1  0  0
  -24.3384   -5.9445   26.1718 F   0  0  0  0  0  0  0  0  0  0  0  0
  -20.9797   -7.0389   23.0210 F   0  0  0  0  0  0  0  0  0  0  0  0
  1  2  1  0  0  0  0
  1  6  2  0  0  0  0
  2  7  2  0  0  0  0
  3  9  2  0  0  0  0
  3 10  1  0  0  0  0
  4 11  2  0  0  0  0
  4 18  1  0  0  0  0
  5 12  1  0  0  0  0
  5 18  2  0  0  0  0
  6 20  1  0  0  0  0
  7 22  1  0  0  0  0
  8 13  2  0  0  0  0
  8 21  1  0  0  0  0
  9 24  1  0  0  0  0
 10 28  2  0  0  0  0
 11 26  1  0  0  0  0
 12 26  2  0  0  0  0
 13 27  1  0  0  0  0
 14 15  2  0  0  0  0
 14 29  1  0  0  0  0
 15 30  1  0  0  0  0
 16 23  1  0  0  0  0
 16 27  2  0  0  0  0
 17 30  2  0  0  0  0
 17 31  1  0  0  0  0
 18 32  1  0  0  0  0
 19 32  1  0  0  0  0
 19 33  2  0  0  0  0
 19 34  1  0  0  0  0
 20 22  2  0  0  0  0
 20 39  1  0  0  0  0
 21 23  2  0  0  0  0
 21 40  1  0  0  0  0
 22 54  1  0  0  0  0
 23 41  1  0  0  0  0
 24 25  2  0  0  0  0
 24 65  1  0  0  0  0
 25 28  1  0  0  0  0
 25 68  1  0  0  0  0
 26 87  1  0  0  0  0
 27 89  1  0  0  0  0
 28 88  1  0  0  0  0
 29 31  2  0  0  0  0
 29 87  1  0  0  0  0
 30 90  1  0  0  0  0
 31 91  1  0  0  0  0
 32 72  2  0  0  0  0
 33 73  1  0  0  0  0
 33 77  1  0  0  0  0
 34 78  1  0  0  0  0
 34 82  2  0  0  0  0
 35 55  1  0  0  0  0
 35 79  1  0  0  0  0
 35 83  2  0  0  0  0
 36 69  1  0  0  0  0
 36 74  1  0  0  0  0
 36 84  2  0  0  0  0
 37 70  1  0  0  0  0
 37 80  1  0  0  0  0
 37 85  2  0  0  0  0
 38 75  1  0  0  0  0
 38 76  1  0  0  0  0
 38 86  2  0  0  0  0
 39 42  1  0  0  0  0
 40 55  1  0  0  0  0
 41 74  1  0  0  0  0
 42 44  1  0  0  0  0
 43 47  1  0  0  0  0
 43 50  1  0  0  0  0
 44 54  1  0  0  0  0
 45 46  1  0  0  0  0
 45 56  1  0  0  0  0
 46 56  1  0  0  0  0
 47 58  1  0  0  0  0
 48 51  1  0  0  0  0
 48 57  1  0  0  0  0
 49 52  1  0  0  0  0
 49 57  1  0  0  0  0
 50 75  1  0  0  0  0
 51 76  1  0  0  0  0
 52 76  1  0  0  0  0
 53 58  1  0  0  0  0
 53 75  1  0  0  0  0
 54 79  1  0  0  0  0
 55 74  1  0  0  0  0
 56 66  1  0  0  0  0
 57 68  1  0  0  0  0
 58 73  1  0  0  0  0
 59 70  1  0  0  0  0
 60 71  1  0  0  0  0
 61 71  1  0  0  0  0
 62 71  1  0  0  0  0
 63 81  1  0  0  0  0
 64 88  1  0  0  0  0
 65 67  1  0  0  0  0
 66 68  1  0  0  0  0
 67 89  1  0  0  0  0
 69 71  1  0  0  0  0
 69 80  1  0  0  0  0
 70 81  1  0  0  0  0
 72 73  1  0  0  0  0
M  CHG  1  81   1
M  ISO  4  38 100  67 101  76 100  89 101
M  END
> <Batch ID>
0139

> <Smiles>
CNC(C)C(=O)NC(C(=O)N1Cc2cc([101O:1][101CH2:1]Cc3cccc(OC)c3C(CC3CC3)C3CC[100N:0]([100C:0](=O)N4CCCC(n5nc(-c6ccc(Oc7ccc(F)cc7F)cc6)c(C(N)=O)c5N)C4)CC3)ccc2CC1C(=O)NC1CCCc2ccccc21)C(C)(C)C

> <Shape>
0.222

> <Color>
0.068

> <Negative vol penalty>
0.000

$$$$

  -OEChem-04052321103D

 90 99  0     1  0  0  0  0  0999 V2000
  -22.4253  -12.8558   17.7199 C   0  0  0  0  0  0  0  0  0  0  0  0
  -22.5153  -14.2181   17.9869 C   0  0  0  0  0  0  0  0  0  0  0  0
  -31.4207  -25.9481   18.4304 C   0  0  0  0  0  0  0  0  0  0  0  0
  -31.1599  -24.6954   20.4797 C   0  0  0  0  0  0  0  0  0  0  0  0
  -23.1364  -11.9451   18.5003 C   0  0  0  0  0  0  0  0  0  0  0  0
  -23.3156  -14.6705   19.0354 C   0  0  0  0  0  0  0  0  0  0  0  0
  -26.5526  -19.8661   19.2189 C   0  0  0  0  0  0  0  0  0  0  0  0
  -32.8058  -25.8117   18.5232 C   0  0  0  0  0  0  0  0  0  0  0  0
  -32.5450  -24.5589   20.5725 C   0  0  0  0  0  0  0  0  0  0  0  0
  -26.2961  -21.1114   19.7911 C   0  0  0  0  0  0  0  0  0  0  0  0
  -35.1223  -23.4311   17.8910 C   0  0  0  0  0  0  0  0  0  0  0  0
  -35.8176  -23.0766   16.7350 C   0  0  0  0  0  0  0  0  0  0  0  0
  -27.5602  -20.4684   21.7424 C   0  0  0  0  0  0  0  0  0  0  0  0
  -21.9565  -24.1610   22.7123 C   0  0  0  0  0  0  0  0  0  0  0  0
  -37.0889  -25.1266   16.8712 C   0  0  0  0  0  0  0  0  0  0  0  0
  -30.5978  -25.3900   19.4086 C   0  0  0  0  0  0  0  0  0  0  0  0
  -28.2681  -24.6612   18.6677 C   0  0  0  0  0  0  0  0  0  0  0  0
  -23.9534  -12.3873   19.5527 C   0  0  0  0  0  0  0  0  0  0  0  0
  -27.3069  -18.9071   19.9100 C   0  0  0  0  0  0  0  0  0  0  0  0
  -24.0372  -13.7648   19.8315 C   0  0  0  0  0  0  0  0  0  0  0  0
  -27.8270  -19.2127   21.1757 C   0  0  0  0  0  0  0  0  0  0  0  0
  -20.9673  -25.0947   23.0003 C   0  0  0  0  0  0  0  0  0  0  0  0
  -21.2807  -26.2219   23.7516 C   0  0  0  0  0  0  0  0  0  0  0  0
  -33.3679  -25.1171   19.5943 C   0  0  0  0  0  0  0  0  0  0  0  0
  -26.7975  -21.4116   21.0542 C   0  0  0  0  0  0  0  0  0  0  0  0
  -35.4101  -24.6334   18.5371 C   0  0  0  0  0  0  0  0  0  0  0  0
  -36.8010  -23.9243   16.2251 C   0  0  0  0  0  0  0  0  0  0  0  0
  -36.3935  -25.4811   18.0272 C   0  0  0  0  0  0  0  0  0  0  0  0
  -29.1670  -25.5310   19.3136 C   0  0  0  0  0  0  0  0  0  0  0  0
  -22.5877  -26.3678   24.1880 C   0  0  0  0  0  0  0  0  0  0  0  0
  -23.2333  -24.3992   23.1950 C   0  0  0  0  0  0  0  0  0  0  0  0
  -27.0354  -25.2349   18.8625 C   0  0  0  0  0  0  0  0  0  0  0  0
  -28.5244  -23.4436   17.9555 C   0  0  0  0  0  0  0  0  0  0  0  0
  -26.7408  -15.9839   21.0228 C   0  0  0  0  0  0  0  0  0  0  0  0
  -29.9125  -16.0497   21.7000 C   0  0  0  0  0  0  0  0  0  0  0  0
  -32.7008  -17.9112   22.3380 C   0  0  0  0  0  0  0  0  0  0  0  0
  -24.8786  -28.9455   23.0374 C   0  0  0  0  0  0  0  0  0  0  0  0
  -24.6659  -11.3619   20.3986 C   0  0  0  0  0  0  0  0  0  0  0  0
  -27.5973  -17.5783   19.2677 C   0  0  0  0  0  0  0  0  0  0  0  0
  -28.6597  -18.2253   21.9505 C   0  0  0  0  0  0  0  0  0  0  0  0
  -25.7855  -11.9496   21.2539 C   0  0  0  0  0  0  0  0  0  0  0  0
  -24.9466  -29.4888   19.5194 C   0  0  0  0  0  0  0  0  0  0  0  0
  -25.3102  -13.2162   21.9585 C   0  0  0  0  0  0  0  0  0  0  0  0
  -18.7316  -30.2296   24.6366 C   0  0  0  0  0  0  0  0  0  0  0  0
  -19.3473  -31.0196   23.5156 C   0  0  0  0  0  0  0  0  0  0  0  0
  -25.9548  -28.4576   19.0094 C   0  0  0  0  0  0  0  0  0  0  0  0
  -25.3575  -30.0569   20.8760 C   0  0  0  0  0  0  0  0  0  0  0  0
  -26.6305  -28.0144   21.4064 C   0  0  0  0  0  0  0  0  0  0  0  0
  -24.9143  -14.2962   20.9444 C   0  0  1  0  0  0  0  0  0  0  0  0
  -27.9441  -16.4893   20.2782 C   0  0  1  0  0  0  0  0  0  0  0  0
  -19.2511  -29.5224   23.4156 C   0  0  0  0  0  0  0  0  0  0  0  0
  -26.2303  -27.3721   20.0672 C   0  0  2  0  0  0  0  0  0  0  0  0
  -19.5818  -24.8658   22.4933 C   0  0  0  0  0  0  0  0  0  0  0  0
  -19.9604  -27.3257   25.5953 C   0  0  0  0  0  0  0  0  0  0  0  0
  -35.1376  -17.6827   22.8919 C   0  0  0  0  0  0  0  0  0  0  0  0
  -29.1879  -15.3034   24.5685 C   0  0  0  0  0  0  0  0  0  0  0  0
  -31.4870  -16.0134   25.2601 C   0  0  0  0  0  0  0  0  0  0  0  0
  -31.1962  -14.1228   23.6589 C   0  0  0  0  0  0  0  0  0  0  0  0
  -33.5134  -19.3365   19.8748 C   0  0  0  0  0  0  0  0  0  0  0  0
  -22.9842  -27.5576   24.9994 C   0  0  0  0  0  0  0  0  0  0  0  0
  -24.5005  -27.7124   25.1577 C   0  0  0  0  0  0  0  0  0  0  0  0
  -26.4744  -22.6808   23.0394 C   0  0  0  0  0  0  0  0  0  1  0  0
  -25.5174  -23.7854   23.4437 C   0  0  0  0  0  0  0  0  0  0  0  0
  -20.2392  -27.2395   24.0762 C   0  0  1  0  0  0  0  0  0  0  0  0
  -30.7445  -16.4858   22.8818 C   0  0  1  0  0  0  0  0  0  0  0  0
  -34.1109  -17.8367   21.7807 C   0  0  2  0  0  0  0  0  0  0  0  0
  -20.5097  -28.6648   23.5011 C   0  0  1  0  0  0  0  0  0  0  0  0
  -30.6366  -15.4995   24.0788 C   0  0  0  0  0  0  0  0  0  0  0  0
  -28.5573  -26.5777   19.8764 N   0  0  0  0  0  0  0  0  0  0  0  0
  -23.5756  -25.4823   23.9281 N   0  0  0  0  0  0  0  0  0  0  0  0
  -27.2621  -26.3694   19.5847 N   0  0  0  0  0  0  0  0  0  0  0  0
  -28.9107  -16.9374   21.2827 N   0  0  0  0  0  0  0  0  0  0  0  0
  -25.6022  -28.9760   21.8339 N   0  0  0  0  0  0  0  0  0  0  0  0
  -25.7905  -24.8745   18.4846 N   0  0  0  0  0  0  0  0  0  0  0  0
  -29.8488  -22.9972   17.8503 N   0  0  0  0  0  0  0  0  0  0  0  0
  -26.0933  -14.9343   20.3994 N   0  0  0  0  0  0  0  0  0  0  0  0
  -32.1018  -16.6699   22.3796 N   0  0  0  0  0  0  0  0  0  0  0  0
  -25.1671  -27.8838   23.8861 N   0  0  0  0  0  0  0  0  0  0  0  0
  -34.4306  -19.0737   21.0135 N   0  3  0  0  0  0  0  0  0  0  0  0
  -27.6080  -22.7799   17.4139 O   0  0  0  0  0  0  0  0  0  0  0  0
  -26.4242  -16.5065   22.0850 O   0  0  0  0  0  0  0  0  0  0  0  0
  -30.1476  -14.9646   21.1624 O   0  0  0  0  0  0  0  0  0  0  0  0
  -32.1838  -18.9646   22.7035 O   0  0  0  0  0  0  0  0  0  0  0  0
  -24.0337  -29.7981   23.3313 O   0  0  0  0  0  0  0  0  0  0  0  0
  -21.1068  -28.5760   22.2105 O   0  0  0  0  0  0  0  0  0  0  0  0
  -34.7194  -24.9836   19.6851 O   0  0  0  0  0  0  0  0  0  0  0  0
  -26.5480  -22.6260   21.6153 O   0  0  0  0  0  0  0  0  0  1  0  0
  -24.2254  -23.4936   22.9252 O   0  0  0  0  0  0  0  0  0  0  0  0
  -37.4698  -23.5831   15.1159 F   0  0  0  0  0  0  0  0  0  0  0  0
  -36.6753  -26.6369   18.6441 F   0  0  0  0  0  0  0  0  0  0  0  0
  1  2  1  0  0  0  0
  1  5  2  0  0  0  0
  2  6  2  0  0  0  0
  3  8  2  0  0  0  0
  3 16  1  0  0  0  0
  4  9  1  0  0  0  0
  4 16  2  0  0  0  0
  5 18  1  0  0  0  0
  6 20  1  0  0  0  0
  7 10  2  0  0  0  0
  7 19  1  0  0  0  0
  8 24  1  0  0  0  0
  9 24  2  0  0  0  0
 10 25  1  0  0  0  0
 11 12  2  0  0  0  0
 11 26  1  0  0  0  0
 12 27  1  0  0  0  0
 13 21  1  0  0  0  0
 13 25  2  0  0  0  0
 14 22  2  0  0  0  0
 14 31  1  0  0  0  0
 15 27  2  0  0  0  0
 15 28  1  0  0  0  0
 16 29  1  0  0  0  0
 17 29  1  0  0  0  0
 17 32  2  0  0  0  0
 17 33  1  0  0  0  0
 18 20  2  0  0  0  0
 18 38  1  0  0  0  0
 19 21  2  0  0  0  0
 19 39  1  0  0  0  0
 20 49  1  0  0  0  0
 21 40  1  0  0  0  0
 22 23  1  0  0  0  0
 22 53  1  0  0  0  0
 23 30  2  0  0  0  0
 23 64  1  0  0  0  0
 24 86  1  0  0  0  0
 25 87  1  0  0  0  0
 26 28  2  0  0  0  0
 26 86  1  0  0  0  0
 27 89  1  0  0  0  0
 28 90  1  0  0  0  0
 29 69  2  0  0  0  0
 30 60  1  0  0  0  0
 30 70  1  0  0  0  0
 31 70  2  0  0  0  0
 31 88  1  0  0  0  0
 32 71  1  0  0  0  0
 32 74  1  0  0  0  0
 33 75  1  0  0  0  0
 33 80  2  0  0  0  0
 34 50  1  0  0  0  0
 34 76  1  0  0  0  0
 34 81  2  0  0  0  0
 35 65  1  0  0  0  0
 35 72  1  0  0  0  0
 35 82  2  0  0  0  0
 36 66  1  0  0  0  0
 36 77  1  0  0  0  0
 36 83  2  0  0  0  0
 37 73  1  0  0  0  0
 37 78  1  0  0  0  0
 37 84  2  0  0  0  0
 38 41  1  0  0  0  0
 39 50  1  0  0  0  0
 40 72  1  0  0  0  0
 41 43  1  0  0  0  0
 42 46  1  0  0  0  0
 42 47  1  0  0  0  0
 43 49  1  0  0  0  0
 44 45  1  0  0  0  0
 44 51  1  0  0  0  0
 45 51  1  0  0  0  0
 46 52  1  0  0  0  0
 47 73  1  0  0  0  0
 48 52  1  0  0  0  0
 48 73  1  0  0  0  0
 49 76  1  0  0  0  0
 50 72  1  0  0  0  0
 51 67  1  0  0  0  0
 52 71  1  0  0  0  0
 54 64  1  0  0  0  0
 55 66  1  0  0  0  0
 56 68  1  0  0  0  0
 57 68  1  0  0  0  0
 58 68  1  0  0  0  0
 59 79  1  0  0  0  0
 60 61  1  0  0  0  0
 61 78  1  0  0  0  0
 62 63  1  0  0  0  0
 62 87  1  0  0  0  0
 63 88  1  0  0  0  0
 64 67  1  0  0  0  0
 65 68  1  0  0  0  0
 65 77  1  0  0  0  0
 66 79  1  0  0  0  0
 67 85  1  0  0  0  0
 69 71  1  0  0  0  0
M  CHG  1  79   1
M  ISO  4  37 100  62 101  78 100  87 101
M  END
> <Batch ID>
0139

> <Smiles>
CNC(C)C(=O)NC(C(=O)N1Cc2cc([101O:1][101CH2:1]COc3cc(C)c(C(C)C(O)C4CC4)c(CC[100NH:0][100C:0](=O)N4CCCC(n5nc(-c6ccc(Oc7ccc(F)cc7F)cc6)c(C(N)=O)c5N)C4)n3)ccc2CC1C(=O)NC1CCCc2ccccc21)C(C)(C)C

> <Shape>
0.204

> <Color>
0.069

> <Negative vol penalty>
0.000

$$$$

  -OEChem-04052321103D

 87 96  0     1  0  0  0  0  0999 V2000
  -23.8637   -4.5672   22.5470 C   0  0  0  0  0  0  0  0  0  0  0  0
  -24.3096   -5.2249   21.4051 C   0  0  0  0  0  0  0  0  0  0  0  0
  -27.1376  -31.2470   23.2977 C   0  0  0  0  0  0  0  0  0  0  0  0
  -24.9894  -32.2122   23.8369 C   0  0  0  0  0  0  0  0  0  0  0  0
  -22.9041   -5.1638   23.3638 C   0  0  0  0  0  0  0  0  0  0  0  0
  -23.7952   -6.4792   21.0786 C   0  0  0  0  0  0  0  0  0  0  0  0
  -28.1191  -12.2022   20.4139 C   0  0  0  0  0  0  0  0  0  0  0  0
  -28.3745  -19.1782   19.5886 C   0  0  0  0  0  0  0  0  0  0  0  0
  -27.7088  -31.9125   24.3824 C   0  0  0  0  0  0  0  0  0  0  0  0
  -25.5606  -32.8777   24.9216 C   0  0  0  0  0  0  0  0  0  0  0  0
  -28.9046  -13.3001   20.0620 C   0  0  0  0  0  0  0  0  0  0  0  0
  -28.7190  -17.9346   19.0593 C   0  0  0  0  0  0  0  0  0  0  0  0
  -27.4362  -35.6422   25.4415 C   0  0  0  0  0  0  0  0  0  0  0  0
  -27.1047  -36.9845   25.6260 C   0  0  0  0  0  0  0  0  0  0  0  0
  -26.9122  -14.6143   19.6730 C   0  0  0  0  0  0  0  0  0  0  0  0
  -28.4041  -16.9231   21.2305 C   0  0  0  0  0  0  0  0  0  0  0  0
  -26.1950  -36.4607   27.8021 C   0  0  0  0  0  0  0  0  0  0  0  0
  -25.7778  -31.3969   23.0250 C   0  0  0  0  0  0  0  0  0  0  0  0
  -25.5361  -30.8419   20.5468 C   0  0  0  0  0  0  0  0  0  0  0  0
  -22.3847   -6.4303   23.0523 C   0  0  0  0  0  0  0  0  0  0  0  0
  -26.7257  -12.3110   20.4115 C   0  0  0  0  0  0  0  0  0  0  0  0
  -22.8267   -7.0927   21.8912 C   0  0  0  0  0  0  0  0  0  0  0  0
  -26.1205  -13.5217   20.0365 C   0  0  0  0  0  0  0  0  0  0  0  0
  -28.0448  -19.2943   20.9390 C   0  0  0  0  0  0  0  0  0  0  0  0
  -28.0597  -18.1668   21.7599 C   0  0  0  0  0  0  0  0  0  0  0  0
  -26.9204  -32.7278   25.1943 C   0  0  0  0  0  0  0  0  0  0  0  0
  -28.3026  -14.5030   19.6922 C   0  0  0  0  0  0  0  0  0  0  0  0
  -28.7338  -16.8070   19.8802 C   0  0  0  0  0  0  0  0  0  1  0  0
  -27.1470  -34.7092   26.4373 C   0  0  0  0  0  0  0  0  0  0  0  0
  -26.4842  -37.3938   26.8063 C   0  0  0  0  0  0  0  0  0  0  0  0
  -26.5264  -35.1184   27.6175 C   0  0  0  0  0  0  0  0  0  0  0  0
  -25.1873  -30.7103   21.9043 C   0  0  0  0  0  0  0  0  0  0  0  0
  -24.6878  -29.9846   19.8897 C   0  0  0  0  0  0  0  0  0  0  0  0
  -26.5374  -31.6655   19.9346 C   0  0  0  0  0  0  0  0  0  0  0  0
  -23.4260  -10.6346   21.0259 C   0  0  0  0  0  0  0  0  0  0  0  0
  -23.1904  -13.4922   22.1164 C   0  0  0  0  0  0  0  0  0  0  0  0
  -23.4789  -16.5660   23.5675 C   0  0  0  0  0  0  0  0  0  0  0  0
  -21.7519  -25.0519   21.5927 C   0  0  0  0  0  0  0  0  0  0  0  0
  -21.3143   -7.0142   23.9399 C   0  0  0  0  0  0  0  0  0  0  0  0
  -25.8393  -11.1361   20.7240 C   0  0  0  0  0  0  0  0  0  0  0  0
  -24.6176  -13.5823   20.0151 C   0  0  0  0  0  0  0  0  0  0  0  0
  -21.0944   -8.5096   23.7259 C   0  0  0  0  0  0  0  0  0  0  0  0
  -20.3371  -28.0245   20.2368 C   0  0  0  0  0  0  0  0  0  0  0  0
  -21.0065   -8.8285   22.2368 C   0  0  0  0  0  0  0  0  0  0  0  0
  -23.9899  -21.1781   20.3383 C   0  0  0  0  0  0  0  0  0  0  0  0
  -24.8419  -21.3461   22.7119 C   0  0  0  0  0  0  0  0  0  0  0  0
  -21.4512  -29.0618   20.3879 C   0  0  0  0  0  0  0  0  0  0  0  0
  -23.6286  -22.6636   20.3605 C   0  0  0  0  0  0  0  0  0  0  0  0
  -24.4814  -22.8318   22.7385 C   0  0  0  0  0  0  0  0  0  0  0  0
  -20.3050  -27.0549   21.4161 C   0  0  0  0  0  0  0  0  0  0  0  0
  -22.7020  -27.4236   21.8544 C   0  0  0  0  0  0  0  0  0  0  0  0
  -22.3108   -8.4652   21.5169 C   0  0  1  0  0  0  0  0  0  0  0  0
  -24.5465  -11.5339   21.4585 C   0  0  1  0  0  0  0  0  0  0  0  0
  -25.1337  -20.8216   21.2986 C   0  0  0  0  0  0  0  0  0  0  0  0
  -22.8099  -28.3895   20.6620 C   0  0  2  0  0  0  0  0  0  0  0  0
  -23.3298  -23.1457   21.7817 C   0  0  0  0  0  0  0  0  0  0  0  0
  -27.7109  -18.2665   23.2087 C   0  0  0  0  0  0  0  0  0  0  0  0
  -22.1719  -18.2489   24.8930 C   0  0  0  0  0  0  0  0  0  0  0  0
  -21.6879  -14.3091   19.5907 C   0  0  0  0  0  0  0  0  0  0  0  0
  -21.1658  -16.4952   20.6937 C   0  0  0  0  0  0  0  0  0  0  0  0
  -20.3201  -14.3674   21.6835 C   0  0  0  0  0  0  0  0  0  0  0  0
  -25.3591  -16.4030   25.8472 C   0  0  0  0  0  0  0  0  0  0  0  0
  -26.4850  -21.3193   20.7784 C   0  0  0  0  0  0  0  0  0  0  0  0
  -27.6795  -20.6362   21.4833 C   0  0  2  0  0  0  0  0  0  0  0  0
  -22.7820  -14.9186   21.8484 C   0  0  1  0  0  0  0  0  0  0  0  0
  -23.1204  -17.0619   24.9567 C   0  0  2  0  0  0  0  0  0  0  0  0
  -21.5159  -15.0140   20.9510 C   0  0  0  0  0  0  0  0  0  0  0  0
  -24.1947  -29.8381   22.0994 N   0  0  0  0  0  0  0  0  0  0  0  0
  -23.9124  -29.4140   20.8558 N   0  0  0  0  0  0  0  0  0  0  0  0
  -24.0704  -12.9035   21.2002 N   0  0  0  0  0  0  0  0  0  0  0  0
  -21.6235  -26.4504   21.6215 N   0  0  0  0  0  0  0  0  0  0  0  0
  -24.5369  -29.6707   18.5854 N   0  0  0  0  0  0  0  0  0  0  0  0
  -26.1812  -32.9580   19.5260 N   0  0  0  0  0  0  0  0  0  0  0  0
  -23.3216   -9.4710   21.7640 N   0  0  0  0  0  0  0  0  0  0  0  0
  -22.6384  -15.5542   23.1538 N   0  0  0  0  0  0  0  0  0  0  0  0
  -23.0370  -24.5616   21.7900 N   0  0  0  0  0  0  0  0  0  0  0  0
  -28.8290  -21.6093   21.4342 N   0  3  0  0  0  0  0  0  0  0  0  0
  -24.3484  -17.4804   25.6901 N   0  3  0  0  0  0  0  0  0  0  0  0
  -27.7088  -31.2611   19.7403 O   0  0  0  0  0  0  0  0  0  0  0  0
  -22.7073  -10.9711   20.0922 O   0  0  0  0  0  0  0  0  0  0  0  0
  -22.7384  -12.9114   23.1072 O   0  0  0  0  0  0  0  0  0  0  0  0
  -24.4089  -17.0322   22.9131 O   0  0  0  0  0  0  0  0  0  0  0  0
  -20.7933  -24.2964   21.3998 O   0  0  0  0  0  0  0  0  0  0  0  0
  -27.4774  -33.3771   26.2529 O   0  0  0  0  0  0  0  0  0  0  0  0
  -29.0754  -15.5723   19.3542 O   0  0  0  0  0  0  0  0  0  1  0  0
  -26.1673  -38.6830   26.9839 F   0  0  0  0  0  0  0  0  0  0  0  0
  -26.2471  -34.2269   28.5782 F   0  0  0  0  0  0  0  0  0  0  0  0
  1  2  1  0  0  0  0
  1  5  2  0  0  0  0
  2  6  2  0  0  0  0
  3  9  2  0  0  0  0
  3 18  1  0  0  0  0
  4 10  1  0  0  0  0
  4 18  2  0  0  0  0
  5 20  1  0  0  0  0
  6 22  1  0  0  0  0
  7 11  2  0  0  0  0
  7 21  1  0  0  0  0
  8 12  2  0  0  0  0
  8 24  1  0  0  0  0
  9 26  1  0  0  0  0
 10 26  2  0  0  0  0
 11 27  1  0  0  0  0
 12 28  1  0  0  0  0
 13 14  2  0  0  0  0
 13 29  1  0  0  0  0
 14 30  1  0  0  0  0
 15 23  1  0  0  0  0
 15 27  2  0  0  0  0
 16 25  1  0  0  0  0
 16 28  2  0  0  0  0
 17 30  2  0  0  0  0
 17 31  1  0  0  0  0
 18 32  1  0  0  0  0
 19 32  1  0  0  0  0
 19 33  2  0  0  0  0
 19 34  1  0  0  0  0
 20 22  2  0  0  0  0
 20 39  1  0  0  0  0
 21 23  2  0  0  0  0
 21 40  1  0  0  0  0
 22 52  1  0  0  0  0
 23 41  1  0  0  0  0
 24 25  2  0  0  0  0
 24 64  1  0  0  0  0
 25 57  1  0  0  0  0
 26 84  1  0  0  0  0
 27 85  1  0  0  0  0
 28 85  1  0  0  0  0
 29 31  2  0  0  0  0
 29 84  1  0  0  0  0
 30 86  1  0  0  0  0
 31 87  1  0  0  0  0
 32 68  2  0  0  0  0
 33 69  1  0  0  0  0
 33 72  1  0  0  0  0
 34 73  1  0  0  0  0
 34 79  2  0  0  0  0
 35 53  1  0  0  0  0
 35 74  1  0  0  0  0
 35 80  2  0  0  0  0
 36 65  1  0  0  0  0
 36 70  1  0  0  0  0
 36 81  2  0  0  0  0
 37 66  1  0  0  0  0
 37 75  1  0  0  0  0
 37 82  2  0  0  0  0
 38 71  1  0  0  0  0
 38 76  1  0  0  0  0
 38 83  2  0  0  0  0
 39 42  1  0  0  0  0
 40 53  1  0  0  0  0
 41 70  1  0  0  0  0
 42 44  1  0  0  0  0
 43 47  1  0  0  0  0
 43 50  1  0  0  0  0
 44 52  1  0  0  0  0
 45 48  1  0  0  0  0
 45 54  1  0  0  0  0
 46 49  1  0  0  0  0
 46 54  1  0  0  0  0
 47 55  1  0  0  0  0
 48 56  1  0  0  0  0
 49 56  1  0  0  0  0
 50 71  1  0  0  0  0
 51 55  1  0  0  0  0
 51 71  1  0  0  0  0
 52 74  1  0  0  0  0
 53 70  1  0  0  0  0
 54 63  1  0  0  0  0
 55 69  1  0  0  0  0
 56 76  1  0  0  0  0
 58 66  1  0  0  0  0
 59 67  1  0  0  0  0
 60 67  1  0  0  0  0
 61 67  1  0  0  0  0
 62 78  1  0  0  0  0
 63 64  1  0  0  0  0
 64 77  1  0  0  0  0
 65 67  1  0  0  0  0
 65 75  1  0  0  0  0
 66 78  1  0  0  0  0
 68 69  1  0  0  0  0
M  CHG  2  77   1  78   1
M  ISO  4  28 101  38 100  76 100  85 101
M  END
> <Batch ID>
0139

> <Smiles>
CNC(C)C(=O)NC(C(=O)N1Cc2cc([101O:1][101c:1]3ccc(C(N)CC4CCC([100NH:0][100C:0](=O)N5CCCC(n6nc(-c7ccc(Oc8ccc(F)cc8F)cc7)c(C(N)=O)c6N)C5)CC4)c(C)c3)ccc2CC1C(=O)NC1CCCc2ccccc21)C(C)(C)C

> <Shape>
0.278

> <Color>
0.038

> <Negative vol penalty>
0.000

$$$$

  -OEChem-04052321103D

 86 95  0     1  0  0  0  0  0999 V2000
  -27.9191  -10.6654   19.8051 C   0  0  0  0  0  0  0  0  0  0  0  0
  -28.2950  -11.8753   19.2305 C   0  0  0  0  0  0  0  0  0  0  0  0
  -22.3370  -27.2741   26.2961 C   0  0  0  0  0  0  0  0  0  0  0  0
  -21.2745  -26.5423   24.2534 C   0  0  0  0  0  0  0  0  0  0  0  0
  -26.6646  -10.5373   20.3998 C   0  0  0  0  0  0  0  0  0  0  0  0
  -27.4160  -12.9576   19.2492 C   0  0  0  0  0  0  0  0  0  0  0  0
  -29.6964  -17.2901   20.5432 C   0  0  0  0  0  0  0  0  0  0  0  0
  -21.6545  -26.2857   27.0052 C   0  0  0  0  0  0  0  0  0  0  0  0
  -20.5920  -25.5539   24.9625 C   0  0  0  0  0  0  0  0  0  0  0  0
  -30.4519  -17.9299   19.5615 C   0  0  0  0  0  0  0  0  0  0  0  0
  -21.9272  -22.9559   27.5263 C   0  0  0  0  0  0  0  0  0  0  0  0
  -22.6523  -22.2031   28.4499 C   0  0  0  0  0  0  0  0  0  0  0  0
  -30.9937  -22.7440   17.4156 C   0  0  0  0  0  0  0  0  0  0  0  0
  -28.6217  -19.4467   19.1502 C   0  0  0  0  0  0  0  0  0  0  0  0
  -32.8044  -22.7668   19.0149 C   0  0  0  0  0  0  0  0  0  0  0  0
  -21.1936  -22.9674   30.2178 C   0  0  0  0  0  0  0  0  0  0  0  0
  -22.1470  -27.4025   24.9202 C   0  0  0  0  0  0  0  0  0  0  0  0
  -22.7814  -29.8153   24.3880 C   0  0  0  0  0  0  0  0  0  0  0  0
  -25.7735  -11.6215   20.4343 C   0  0  0  0  0  0  0  0  0  0  0  0
  -28.3917  -17.7176   20.8286 C   0  0  0  0  0  0  0  0  0  0  0  0
  -26.1478  -12.8436   19.8437 C   0  0  0  0  0  0  0  0  0  0  0  0
  -30.5127  -23.9424   17.9430 C   0  0  0  0  0  0  0  0  0  0  0  0
  -27.8527  -18.8123   20.1377 C   0  0  0  0  0  0  0  0  0  0  0  0
  -32.1395  -22.1562   17.9516 C   0  0  0  0  0  0  0  0  0  0  0  0
  -32.3234  -23.9652   19.5424 C   0  0  0  0  0  0  0  0  0  0  0  0
  -20.7820  -25.4255   26.3385 C   0  0  0  0  0  0  0  0  0  0  0  0
  -29.9135  -19.0065   18.8628 C   0  0  0  0  0  0  0  0  0  0  0  0
  -20.8354  -23.7145   27.9484 C   0  0  0  0  0  0  0  0  0  0  0  0
  -31.1776  -24.5530   19.0064 C   0  0  0  0  0  0  0  0  0  0  0  0
  -22.2855  -22.2088   29.7957 C   0  0  0  0  0  0  0  0  0  0  0  0
  -20.4686  -23.7202   29.2941 C   0  0  0  0  0  0  0  0  0  0  0  0
  -22.8512  -28.4236   24.1873 C   0  0  0  0  0  0  0  0  0  0  0  0
  -23.6300  -30.3412   23.4447 C   0  0  0  0  0  0  0  0  0  0  0  0
  -22.0179  -30.5655   25.3418 C   0  0  0  0  0  0  0  0  0  0  0  0
  -25.5084  -16.3909   20.6564 C   0  0  0  0  0  0  0  0  0  0  0  0
  -24.5817  -19.1487   22.0911 C   0  0  0  0  0  0  0  0  0  0  0  0
  -25.2172  -22.4419   22.7219 C   0  0  0  0  0  0  0  0  0  0  0  0
  -28.3609  -28.0937   20.7202 C   0  0  0  0  0  0  0  0  0  0  0  0
  -24.4098  -11.4211   21.0466 C   0  0  0  0  0  0  0  0  0  0  0  0
  -27.5996  -17.0338   21.9091 C   0  0  0  0  0  0  0  0  0  0  0  0
  -26.4643  -19.3229   20.4205 C   0  0  0  0  0  0  0  0  0  0  0  0
  -23.6829  -12.7275   21.3555 C   0  0  0  0  0  0  0  0  0  0  0  0
  -25.4187  -29.4388   19.0980 C   0  0  0  0  0  0  0  0  0  0  0  0
  -28.1216  -24.8674   18.2605 C   0  0  0  0  0  0  0  0  0  0  0  0
  -28.0228  -23.7393   17.2818 C   0  0  0  0  0  0  0  0  0  0  0  0
  -23.7738  -13.6823   20.1695 C   0  0  0  0  0  0  0  0  0  0  0  0
  -24.4171  -29.4604   20.2540 C   0  0  0  0  0  0  0  0  0  0  0  0
  -26.3181  -28.2083   19.1688 C   0  0  0  0  0  0  0  0  0  0  0  0
  -26.0497  -28.0740   21.6149 C   0  0  0  0  0  0  0  0  0  0  0  0
  -29.2849  -24.5566   17.3568 C   0  0  0  0  0  0  0  0  0  0  0  0
  -25.2318  -14.0479   19.8659 C   0  0  1  0  0  0  0  0  0  0  0  0
  -26.0938  -17.2269   21.7591 C   0  0  1  0  0  0  0  0  0  0  0  0
  -25.1260  -29.3056   21.6126 C   0  0  2  0  0  0  0  0  0  0  0  0
  -33.0487  -24.6034   20.6812 C   0  0  0  0  0  0  0  0  0  0  0  0
  -24.2591  -24.4438   23.8930 C   0  0  0  0  0  0  0  0  0  0  0  0
  -22.5524  -19.4920   19.8386 C   0  0  0  0  0  0  0  0  0  0  0  0
  -22.3125  -21.8908   20.5144 C   0  0  0  0  0  0  0  0  0  0  0  0
  -21.6950  -20.0786   22.1136 C   0  0  0  0  0  0  0  0  0  0  0  0
  -27.5638  -22.6628   24.5117 C   0  0  0  0  0  0  0  0  0  0  0  0
  -32.6609  -20.8603   17.3796 C   0  0  0  0  0  0  0  0  0  0  0  0
  -30.6131  -28.1211   19.6792 C   0  0  0  0  0  0  0  0  0  0  0  0
  -32.0655  -19.6395   18.0726 C   0  0  0  0  0  0  0  0  0  1  0  0
  -31.2044  -26.9303   18.9461 C   0  0  0  0  0  0  0  0  0  0  0  0
  -24.1348  -20.5073   21.6081 C   0  0  1  0  0  0  0  0  0  0  0  0
  -25.1872  -23.2448   24.0098 C   0  0  2  0  0  0  0  0  0  0  0  0
  -22.6992  -20.4816   21.0117 C   0  0  0  0  0  0  0  0  0  0  0  0
  -23.6786  -28.0867   23.1943 N   0  0  0  0  0  0  0  0  0  0  0  0
  -24.1365  -29.2742   22.7626 N   0  0  0  0  0  0  0  0  0  0  0  0
  -25.7271  -18.6172   21.4816 N   0  0  0  0  0  0  0  0  0  0  0  0
  -26.9772  -28.1298   20.4801 N   0  0  0  0  0  0  0  0  0  0  0  0
  -23.9848  -31.6077   23.1403 N   0  0  0  0  0  0  0  0  0  0  0  0
  -20.7287  -30.9838   24.9851 N   0  0  0  0  0  0  0  0  0  0  0  0
  -25.7130  -15.0330   20.8106 N   0  0  0  0  0  0  0  0  0  0  0  0
  -24.2963  -21.4157   22.7382 N   0  0  0  0  0  0  0  0  0  0  0  0
  -29.1699  -28.1437   19.5916 N   0  0  0  0  0  0  0  0  0  0  0  0
  -26.5530  -23.7385   24.3443 N   0  3  0  0  0  0  0  0  0  0  0  0
  -22.4719  -30.8704   26.4708 O   0  0  0  0  0  0  0  0  0  0  0  0
  -24.9137  -16.9372   19.7346 O   0  0  0  0  0  0  0  0  0  0  0  0
  -23.9424  -18.5830   22.9816 O   0  0  0  0  0  0  0  0  0  0  0  0
  -25.9786  -22.7014   21.7927 O   0  0  0  0  0  0  0  0  0  0  0  0
  -28.8404  -28.0272   21.8572 O   0  0  0  0  0  0  0  0  0  0  0  0
  -20.1161  -24.4608   27.0300 O   0  0  0  0  0  0  0  0  0  0  0  0
  -30.6485  -19.6324   17.9036 O   0  0  0  0  0  0  0  0  0  1  0  0
  -30.7086  -25.7250   19.5233 O   0  0  0  0  0  0  0  0  0  0  0  0
  -22.9809  -21.4846   30.6823 F   0  0  0  0  0  0  0  0  0  0  0  0
  -19.4199  -24.4461   29.7054 F   0  0  0  0  0  0  0  0  0  0  0  0
  1  2  1  0  0  0  0
  1  5  2  0  0  0  0
  2  6  2  0  0  0  0
  3  8  2  0  0  0  0
  3 17  1  0  0  0  0
  4  9  1  0  0  0  0
  4 17  2  0  0  0  0
  5 19  1  0  0  0  0
  6 21  1  0  0  0  0
  7 10  2  0  0  0  0
  7 20  1  0  0  0  0
  8 26  1  0  0  0  0
  9 26  2  0  0  0  0
 10 27  1  0  0  0  0
 11 12  2  0  0  0  0
 11 28  1  0  0  0  0
 12 30  1  0  0  0  0
 13 22  1  0  0  0  0
 13 24  2  0  0  0  0
 14 23  1  0  0  0  0
 14 27  2  0  0  0  0
 15 24  1  0  0  0  0
 15 25  2  0  0  0  0
 16 30  2  0  0  0  0
 16 31  1  0  0  0  0
 17 32  1  0  0  0  0
 18 32  1  0  0  0  0
 18 33  2  0  0  0  0
 18 34  1  0  0  0  0
 19 21  2  0  0  0  0
 19 39  1  0  0  0  0
 20 23  2  0  0  0  0
 20 40  1  0  0  0  0
 21 51  1  0  0  0  0
 22 29  2  0  0  0  0
 22 50  1  0  0  0  0
 23 41  1  0  0  0  0
 24 60  1  0  0  0  0
 25 29  1  0  0  0  0
 25 54  1  0  0  0  0
 26 82  1  0  0  0  0
 27 83  1  0  0  0  0
 28 31  2  0  0  0  0
 28 82  1  0  0  0  0
 29 84  1  0  0  0  0
 30 85  1  0  0  0  0
 31 86  1  0  0  0  0
 32 67  2  0  0  0  0
 33 68  1  0  0  0  0
 33 71  1  0  0  0  0
 34 72  1  0  0  0  0
 34 77  2  0  0  0  0
 35 52  1  0  0  0  0
 35 73  1  0  0  0  0
 35 78  2  0  0  0  0
 36 64  1  0  0  0  0
 36 69  1  0  0  0  0
 36 79  2  0  0  0  0
 37 65  1  0  0  0  0
 37 74  1  0  0  0  0
 37 80  2  0  0  0  0
 38 70  1  0  0  0  0
 38 75  1  0  0  0  0
 38 81  2  0  0  0  0
 39 42  1  0  0  0  0
 40 52  1  0  0  0  0
 41 69  1  0  0  0  0
 42 46  1  0  0  0  0
 43 47  1  0  0  0  0
 43 48  1  0  0  0  0
 44 45  1  0  0  0  0
 44 50  1  0  0  0  0
 45 50  1  0  0  0  0
 46 51  1  0  0  0  0
 47 53  1  0  0  0  0
 48 70  1  0  0  0  0
 49 53  1  0  0  0  0
 49 70  1  0  0  0  0
 51 73  1  0  0  0  0
 52 69  1  0  0  0  0
 53 68  1  0  0  0  0
 55 65  1  0  0  0  0
 56 66  1  0  0  0  0
 57 66  1  0  0  0  0
 58 66  1  0  0  0  0
 59 76  1  0  0  0  0
 60 62  1  0  0  0  0
 61 63  1  0  0  0  0
 61 75  1  0  0  0  0
 62 83  1  0  0  0  0
 63 84  1  0  0  0  0
 64 66  1  0  0  0  0
 64 74  1  0  0  0  0
 65 76  1  0  0  0  0
 67 68  1  0  0  0  0
M  CHG  1  76   1
M  ISO  4  38 100  62 101  75 100  83 101
M  END
> <Batch ID>
0139

> <Smiles>
CNC(C)C(=O)NC(C(=O)N1Cc2cc([101O:1][101CH2:1]Cc3cc(C)c(OCC[100NH:0][100C:0](=O)N4CCCC(n5nc(-c6ccc(Oc7ccc(F)cc7F)cc6)c(C(N)=O)c5N)C4)c(C4CC4)c3)ccc2CC1C(=O)NC1CCCc2ccccc21)C(C)(C)C

> <Shape>
0.200

> <Color>
0.080

> <Negative vol penalty>
0.000

$$$$

  -OEChem-04052321103D

 81 89  0     1  0  0  0  0  0999 V2000
  -32.4175  -27.4915   14.5752 C   0  0  0  0  0  0  0  0  0  0  0  0
  -31.3045  -26.6846   14.7888 C   0  0  0  0  0  0  0  0  0  0  0  0
  -19.5447  -18.3918   20.2514 C   0  0  0  0  0  0  0  0  0  0  0  0
  -29.6561  -18.3779   21.8813 C   0  0  0  0  0  0  0  0  0  0  0  0
  -27.8924  -17.8894   20.3040 C   0  0  0  0  0  0  0  0  0  0  0  0
  -32.9906  -28.1831   15.6416 C   0  0  0  0  0  0  0  0  0  0  0  0
  -30.7646  -26.5681   16.0692 C   0  0  0  0  0  0  0  0  0  0  0  0
  -24.8522  -25.9152   17.5262 C   0  0  0  0  0  0  0  0  0  0  0  0
  -30.3892  -17.2947   21.3970 C   0  0  0  0  0  0  0  0  0  0  0  0
  -28.6256  -16.8061   19.8197 C   0  0  0  0  0  0  0  0  0  0  0  0
  -24.0834  -24.7977   17.8486 C   0  0  0  0  0  0  0  0  0  0  0  0
  -29.2824  -13.6244   20.7557 C   0  0  0  0  0  0  0  0  0  0  0  0
  -28.6043  -12.4229   20.5501 C   0  0  0  0  0  0  0  0  0  0  0  0
  -19.9446  -18.1248   21.5840 C   0  0  0  0  0  0  0  0  0  0  0  0
  -24.4242  -25.2473   20.1940 C   0  0  0  0  0  0  0  0  0  0  0  0
  -29.1933  -12.4913   18.2080 C   0  0  0  0  0  0  0  0  0  0  0  0
  -19.1824  -19.7192   20.1888 C   0  0  0  0  0  0  0  0  0  0  0  0
  -28.4076  -18.6753   21.3348 C   0  0  0  0  0  0  0  0  0  0  0  0
  -27.6923  -21.1237   21.3750 C   0  0  0  0  0  0  0  0  0  0  0  0
  -32.4517  -28.0826   16.9339 C   0  0  0  0  0  0  0  0  0  0  0  0
  -25.4227  -26.7022   18.5369 C   0  0  0  0  0  0  0  0  0  0  0  0
  -31.3319  -27.2580   17.1541 C   0  0  0  0  0  0  0  0  0  0  0  0
  -25.1976  -26.3758   19.8819 C   0  0  0  0  0  0  0  0  0  0  0  0
  -29.8740  -16.5088   20.3662 C   0  0  0  0  0  0  0  0  0  0  0  0
  -23.8717  -24.4619   19.1825 C   0  0  0  0  0  0  0  0  0  0  0  0
  -29.9159  -14.2594   19.6874 C   0  0  0  0  0  0  0  0  0  0  0  0
  -28.5598  -11.8563   19.2763 C   0  0  0  0  0  0  0  0  0  0  0  0
  -29.8714  -13.6928   18.4136 C   0  0  0  0  0  0  0  0  0  0  0  0
  -27.6495  -19.7939   21.8350 C   0  0  0  0  0  0  0  0  0  0  0  0
  -19.8143  -19.2972   22.2953 C   0  0  0  0  0  0  0  0  0  0  0  0
  -26.7942  -21.7915   22.1711 C   0  0  0  0  0  0  0  0  0  0  0  0
  -28.4740  -21.7034   20.3221 C   0  0  0  0  0  0  0  0  0  0  0  0
  -28.3913  -27.4614   19.3822 C   0  0  0  0  0  0  0  0  0  0  0  0
  -26.8777  -29.4162   21.4823 C   0  0  0  0  0  0  0  0  0  0  0  0
  -24.0622  -30.1110   23.2814 C   0  0  0  0  0  0  0  0  0  0  0  0
  -21.9837  -20.0197   25.2648 C   0  0  0  0  0  0  0  0  0  0  0  0
  -33.1343  -28.8119   18.0638 C   0  0  0  0  0  0  0  0  0  0  0  0
  -26.2272  -27.9199   18.1730 C   0  0  0  0  0  0  0  0  0  0  0  0
  -25.7711  -27.1998   21.0046 C   0  0  0  0  0  0  0  0  0  0  0  0
  -32.2749  -28.9296   19.3200 C   0  0  0  0  0  0  0  0  0  0  0  0
  -24.8620  -21.6779   26.5466 C   0  0  0  0  0  0  0  0  0  0  0  0
  -31.6305  -27.5879   19.6536 C   0  0  0  0  0  0  0  0  0  0  0  0
  -25.9066  -21.5030   25.4429 C   0  0  0  0  0  0  0  0  0  0  0  0
  -23.9712  -20.4448   26.6810 C   0  0  0  0  0  0  0  0  0  0  0  0
  -24.3672  -19.8351   24.3261 C   0  0  0  0  0  0  0  0  0  0  0  0
  -30.7024  -27.1255   18.5239 C   0  0  1  0  0  0  0  0  0  0  0  0
  -27.1870  -28.3537   19.2766 C   0  0  1  0  0  0  0  0  0  0  0  0
  -25.2532  -21.0748   24.1151 C   0  0  2  0  0  0  0  0  0  0  0  0
  -23.1383  -31.7545   24.9375 C   0  0  0  0  0  0  0  0  0  0  0  0
  -28.5297  -28.1139   23.6925 C   0  0  0  0  0  0  0  0  0  0  0  0
  -26.9301  -29.0777   25.3601 C   0  0  0  0  0  0  0  0  0  0  0  0
  -28.2742  -30.5928   23.9038 C   0  0  0  0  0  0  0  0  0  0  0  0
  -21.8965  -30.9284   21.4373 C   0  0  0  0  0  0  0  0  0  0  0  0
  -20.0934  -19.5779   23.7186 C   0  0  0  0  0  0  0  0  0  0  0  0
  -20.3148  -22.5762   21.8782 C   0  0  0  0  0  0  0  0  0  0  0  0
  -21.1469  -22.5597   20.5949 C   0  0  0  0  0  0  0  0  0  0  0  0
  -19.0624  -21.6965   21.7926 C   0  0  0  0  0  0  0  0  0  0  0  0
  -22.3993  -23.4154   20.7294 C   0  0  0  0  0  0  0  0  0  1  0  0
  -26.3661  -29.2757   22.8956 C   0  0  1  0  0  0  0  0  0  0  0  0
  -23.2764  -31.3967   23.4659 C   0  0  2  0  0  0  0  0  0  0  0  0
  -27.5157  -29.2482   23.9421 C   0  0  0  0  0  0  0  0  0  0  0  0
  -26.7921  -19.6251   22.8452 N   0  0  0  0  0  0  0  0  0  0  0  0
  -19.3499  -20.2595   21.4371 N   0  0  0  0  0  0  0  0  0  0  0  0
  -26.2880  -20.8576   23.0265 N   0  0  0  0  0  0  0  0  0  0  0  0
  -26.5558  -28.3771   20.5977 N   0  0  0  0  0  0  0  0  0  0  0  0
  -23.3811  -20.0925   25.3873 N   0  0  0  0  0  0  0  0  0  0  0  0
  -26.3960  -23.0806   22.2159 N   0  0  0  0  0  0  0  0  0  0  0  0
  -29.3468  -20.8746   19.6039 N   0  0  0  0  0  0  0  0  0  0  0  0
  -29.4467  -27.8429   18.5759 N   0  0  0  0  0  0  0  0  0  0  0  0
  -25.4057  -30.3564   23.0913 N   0  0  0  0  0  0  0  0  0  0  0  0
  -21.5070  -19.6858   24.0031 N   0  0  0  0  0  0  0  0  0  0  0  0
  -21.9107  -31.2568   22.8860 N   0  3  0  0  0  0  0  0  0  0  0  0
  -28.4127  -22.9236   20.0376 O   0  0  0  0  0  0  0  0  0  0  0  0
  -28.3656  -26.4990   20.1404 O   0  0  0  0  0  0  0  0  0  0  0  0
  -27.5327  -30.4146   21.1727 O   0  0  0  0  0  0  0  0  0  0  0  0
  -23.5373  -29.0000   23.3073 O   0  0  0  0  0  0  0  0  0  0  0  0
  -21.2175  -20.2416   26.2086 O   0  0  0  0  0  0  0  0  0  0  0  0
  -30.5893  -15.4517   19.8933 O   0  0  0  0  0  0  0  0  0  0  0  0
  -23.1223  -23.3712   19.4999 O   0  0  0  0  0  0  0  0  0  1  0  0
  -27.9099  -10.7018   19.0793 F   0  0  0  0  0  0  0  0  0  0  0  0
  -30.4791  -14.2975   17.3836 F   0  0  0  0  0  0  0  0  0  0  0  0
  1  2  1  0  0  0  0
  1  6  2  0  0  0  0
  2  7  2  0  0  0  0
  3 14  1  0  0  0  0
  3 17  2  0  0  0  0
  4  9  2  0  0  0  0
  4 18  1  0  0  0  0
  5 10  1  0  0  0  0
  5 18  2  0  0  0  0
  6 20  1  0  0  0  0
  7 22  1  0  0  0  0
  8 11  2  0  0  0  0
  8 21  1  0  0  0  0
  9 24  1  0  0  0  0
 10 24  2  0  0  0  0
 11 25  1  0  0  0  0
 12 13  2  0  0  0  0
 12 26  1  0  0  0  0
 13 27  1  0  0  0  0
 14 30  2  0  0  0  0
 15 23  1  0  0  0  0
 15 25  2  0  0  0  0
 16 27  2  0  0  0  0
 16 28  1  0  0  0  0
 17 63  1  0  0  0  0
 18 29  1  0  0  0  0
 19 29  1  0  0  0  0
 19 31  2  0  0  0  0
 19 32  1  0  0  0  0
 20 22  2  0  0  0  0
 20 37  1  0  0  0  0
 21 23  2  0  0  0  0
 21 38  1  0  0  0  0
 22 46  1  0  0  0  0
 23 39  1  0  0  0  0
 24 78  1  0  0  0  0
 25 79  1  0  0  0  0
 26 28  2  0  0  0  0
 26 78  1  0  0  0  0
 27 80  1  0  0  0  0
 28 81  1  0  0  0  0
 29 62  2  0  0  0  0
 30 54  1  0  0  0  0
 30 63  1  0  0  0  0
 31 64  1  0  0  0  0
 31 67  1  0  0  0  0
 32 68  1  0  0  0  0
 32 73  2  0  0  0  0
 33 47  1  0  0  0  0
 33 69  1  0  0  0  0
 33 74  2  0  0  0  0
 34 59  1  0  0  0  0
 34 65  1  0  0  0  0
 34 75  2  0  0  0  0
 35 60  1  0  0  0  0
 35 70  1  0  0  0  0
 35 76  2  0  0  0  0
 36 66  1  0  0  0  0
 36 71  1  0  0  0  0
 36 77  2  0  0  0  0
 37 40  1  0  0  0  0
 38 47  1  0  0  0  0
 39 65  1  0  0  0  0
 40 42  1  0  0  0  0
 41 43  1  0  0  0  0
 41 44  1  0  0  0  0
 42 46  1  0  0  0  0
 43 48  1  0  0  0  0
 44 66  1  0  0  0  0
 45 48  1  0  0  0  0
 45 66  1  0  0  0  0
 46 69  1  0  0  0  0
 47 65  1  0  0  0  0
 48 64  1  0  0  0  0
 49 60  1  0  0  0  0
 50 61  1  0  0  0  0
 51 61  1  0  0  0  0
 52 61  1  0  0  0  0
 53 72  1  0  0  0  0
 54 71  1  0  0  0  0
 55 56  1  0  0  0  0
 55 57  1  0  0  0  0
 56 58  1  0  0  0  0
 57 63  1  0  0  0  0
 58 79  1  0  0  0  0
 59 61  1  0  0  0  0
 59 70  1  0  0  0  0
 60 72  1  0  0  0  0
 62 64  1  0  0  0  0
M  CHG  1  72   1
M  ISO  4  36 100  58 101  71 100  79 101
M  END
> <Batch ID>
0139

> <Smiles>
CNC(C)C(=O)NC(C(=O)N1Cc2cc([101O:1][101CH2:1]CCCn3cccc3C[100NH:0][100C:0](=O)N3CCCC(n4nc(-c5ccc(Oc6ccc(F)cc6F)cc5)c(C(N)=O)c4N)C3)ccc2CC1C(=O)NC1CCCc2ccccc21)C(C)(C)C

> <Shape>
0.190

> <Color>
0.069

> <Negative vol penalty>
0.000

$$$$

  -OEChem-04052321103D

 95104  0     1  0  0  0  0  0999 V2000
  -36.5211  -16.3866   24.3098 C   0  0  0  0  0  0  0  0  0  0  0  0
  -35.6531  -17.1449   23.5306 C   0  0  0  0  0  0  0  0  0  0  0  0
  -22.9445  -18.5706   24.9690 C   0  0  0  0  0  0  0  0  0  0  0  0
  -25.1158  -18.3050   23.9432 C   0  0  0  0  0  0  0  0  0  0  0  0
  -36.5505  -14.9997   24.1700 C   0  0  0  0  0  0  0  0  0  0  0  0
  -34.8148  -16.5166   22.6102 C   0  0  0  0  0  0  0  0  0  0  0  0
  -30.0810  -18.3095   22.7547 C   0  0  0  0  0  0  0  0  0  0  0  0
  -22.9274  -17.2120   25.2845 C   0  0  0  0  0  0  0  0  0  0  0  0
  -25.0986  -16.9464   24.2587 C   0  0  0  0  0  0  0  0  0  0  0  0
  -29.8433  -19.5312   22.1263 C   0  0  0  0  0  0  0  0  0  0  0  0
  -22.4717  -13.8861   26.6794 C   0  0  0  0  0  0  0  0  0  0  0  0
  -22.0603  -13.5232   27.9618 C   0  0  0  0  0  0  0  0  0  0  0  0
  -28.9495  -18.3661   20.2125 C   0  0  0  0  0  0  0  0  0  0  0  0
  -23.8684  -14.8168   28.9077 C   0  0  0  0  0  0  0  0  0  0  0  0
  -24.0387  -19.1171   24.2983 C   0  0  0  0  0  0  0  0  0  0  0  0
  -24.5592  -21.5709   24.7627 C   0  0  0  0  0  0  0  0  0  0  0  0
  -35.7053  -14.3534   23.2543 C   0  0  0  0  0  0  0  0  0  0  0  0
  -29.7642  -17.1046   22.1111 C   0  0  0  0  0  0  0  0  0  0  0  0
  -34.8340  -15.1199   22.4571 C   0  0  0  0  0  0  0  0  0  0  0  0
  -29.1817  -17.1305   20.8359 C   0  0  0  0  0  0  0  0  0  0  0  0
  -24.0044  -16.3999   24.9293 C   0  0  0  0  0  0  0  0  0  0  0  0
  -29.2802  -19.5595   20.8538 C   0  0  0  0  0  0  0  0  0  0  0  0
  -23.5814  -14.7142   26.5111 C   0  0  0  0  0  0  0  0  0  0  0  0
  -22.7586  -13.9886   29.0760 C   0  0  0  0  0  0  0  0  0  0  0  0
  -24.2798  -15.1796   27.6252 C   0  0  0  0  0  0  0  0  0  0  0  0
  -24.0568  -20.5203   23.9717 C   0  0  0  0  0  0  0  0  0  0  0  0
  -24.3432  -22.7001   24.0112 C   0  0  0  0  0  0  0  0  0  0  0  0
  -25.1669  -21.5297   26.0606 C   0  0  0  0  0  0  0  0  0  0  0  0
  -31.4292  -14.5824   21.1262 C   0  0  0  0  0  0  0  0  0  0  0  0
  -21.4445  -28.2698   22.6083 C   0  0  0  0  0  0  0  0  0  0  0  0
  -28.4868  -13.3879   20.4642 C   0  0  0  0  0  0  0  0  0  0  0  0
  -25.4090  -14.0348   20.3286 C   0  0  0  0  0  0  0  0  0  0  0  0
  -21.1211  -25.8077   20.7387 C   0  0  0  0  0  0  0  0  0  0  0  0
  -35.8066  -12.8560   23.1049 C   0  0  0  0  0  0  0  0  0  0  0  0
  -30.0020  -15.7959   22.8134 C   0  0  0  0  0  0  0  0  0  0  0  0
  -28.8047  -15.8656   20.1104 C   0  0  0  0  0  0  0  0  0  0  0  0
  -34.6193  -12.2352   22.3734 C   0  0  0  0  0  0  0  0  0  0  0  0
  -18.2941  -26.5081   22.8653 C   0  0  0  0  0  0  0  0  0  0  0  0
  -22.9564  -23.2490   19.1920 C   0  0  0  0  0  0  0  0  0  0  0  0
  -34.2899  -13.0338   21.1162 C   0  0  0  0  0  0  0  0  0  0  0  0
  -19.0101  -27.8469   22.9914 C   0  0  0  0  0  0  0  0  0  0  0  0
  -21.1561  -32.2096   25.6313 C   0  0  0  0  0  0  0  0  0  0  0  0
  -23.2621  -33.4381   24.9734 C   0  0  0  0  0  0  0  0  0  0  0  0
  -21.5602  -31.0385   24.7375 C   0  0  0  0  0  0  0  0  0  0  0  0
  -23.6662  -32.2667   24.0800 C   0  0  0  0  0  0  0  0  0  0  0  0
  -23.4360  -22.3795   20.3521 C   0  0  0  0  0  0  0  0  0  0  0  0
  -21.5378  -23.7468   19.4375 C   0  0  0  0  0  0  0  0  0  0  0  0
  -19.4317  -25.5294   22.6256 C   0  0  0  0  0  0  0  0  0  0  0  0
  -21.8685  -23.6681   21.8909 C   0  0  0  0  0  0  0  0  0  0  0  0
  -33.8916  -14.4729   21.4653 C   0  0  1  0  0  0  0  0  0  0  0  0
  -30.1152  -14.6150   21.8542 C   0  0  1  0  0  0  0  0  0  0  0  0
  -20.1810  -27.7260   22.0202 C   0  0  2  0  0  0  0  0  0  0  0  0
  -22.3794  -32.9817   26.1419 C   0  0  0  0  0  0  0  0  0  0  0  0
  -22.4429  -31.4952   23.5691 C   0  0  0  0  0  0  0  0  0  0  0  0
  -23.2988  -23.1273   21.6884 C   0  0  1  0  0  0  0  0  0  0  0  0
  -21.9477  -34.1765   26.9900 C   0  0  0  0  0  0  0  0  0  0  0  0
  -22.9122  -14.1471   20.1025 C   0  0  0  0  0  0  0  0  0  0  0  0
  -29.4781  -12.8567   17.6278 C   0  0  0  0  0  0  0  0  0  0  0  0
  -27.0918  -12.5923   16.9180 C   0  0  0  0  0  0  0  0  0  0  0  0
  -28.0711  -11.0320   18.6000 C   0  0  0  0  0  0  0  0  0  0  0  0
  -24.9969  -12.8834   23.0236 C   0  0  0  0  0  0  0  0  0  0  0  0
  -26.3121  -26.3371   21.2197 C   0  0  0  0  0  0  0  0  0  0  0  0
  -25.4266  -27.3578   20.4972 C   0  0  0  0  0  0  0  0  0  0  0  0
  -26.6983  -25.1411   20.3452 C   0  0  0  0  0  0  0  0  0  0  0  0
  -25.0196  -28.5386   21.3824 C   0  0  0  0  0  0  0  0  0  0  0  0
  -27.5515  -24.1390   21.1275 C   0  0  0  0  0  0  0  0  0  0  0  0
  -24.1841  -29.5916   20.6457 C   0  0  0  0  0  0  0  0  0  0  0  0
  -27.9001  -22.8813   20.3234 C   0  0  0  0  0  0  0  0  0  0  0  0
  -23.7481  -30.7576   21.5417 C   0  0  0  0  0  0  0  0  0  0  0  0
  -28.7622  -21.8705   21.0706 C   0  0  0  0  0  0  0  0  0  1  0  0
  -27.5653  -13.4171   19.2688 C   0  0  1  0  0  0  0  0  0  0  0  0
  -24.0831  -13.4393   20.7665 C   0  0  2  0  0  0  0  0  0  0  0  0
  -22.8741  -30.3011   22.7198 C   0  0  2  0  0  0  0  0  0  0  0  0
  -28.0604  -12.4985   18.1162 C   0  0  0  0  0  0  0  0  0  0  0  0
  -23.5590  -20.9444   22.8070 N   0  0  0  0  0  0  0  0  0  0  0  0
  -23.7474  -22.2739   22.8607 N   0  0  0  0  0  0  0  0  0  0  0  0
  -29.0627  -14.6109   20.8361 N   0  0  0  0  0  0  0  0  0  0  0  0
  -21.4267  -24.4406   20.7215 N   0  0  0  0  0  0  0  0  0  0  0  0
  -20.3928  -26.2921   21.8290 N   0  0  0  0  0  0  0  0  0  0  0  0
  -24.6066  -24.0061   24.2289 N   0  0  0  0  0  0  0  0  0  0  0  0
  -25.3120  -20.2865   26.6913 N   0  0  0  0  0  0  0  0  0  0  0  0
  -32.5312  -14.5156   21.9572 N   0  0  0  0  0  0  0  0  0  0  0  0
  -21.7092  -29.5816   22.2610 N   0  0  0  0  0  0  0  0  0  0  0  0
  -26.2363  -13.0838   19.7697 N   0  0  0  0  0  0  0  0  0  0  0  0
  -23.9258  -13.5556   22.2439 N   0  3  0  0  0  0  0  0  0  0  0  0
  -25.5544  -22.5665   26.6509 O   0  0  0  0  0  0  0  0  0  0  0  0
  -31.4421  -14.6139   19.9013 O   0  0  0  0  0  0  0  0  0  0  0  0
  -22.1327  -27.5551   23.3275 O   0  0  0  0  0  0  0  0  0  0  0  0
  -28.6827  -12.3206   21.0508 O   0  0  0  0  0  0  0  0  0  0  0  0
  -25.6819  -15.2254   20.4649 O   0  0  0  0  0  0  0  0  0  0  0  0
  -21.4634  -26.5563   19.8141 O   0  0  0  0  0  0  0  0  0  0  0  0
  -23.9881  -15.0742   25.2372 O   0  0  0  0  0  0  0  0  0  0  0  0
  -29.0460  -20.7598   20.2332 O   0  0  0  0  0  0  0  0  0  1  0  0
  -22.3625  -13.6413   30.3075 F   0  0  0  0  0  0  0  0  0  0  0  0
  -25.3460  -15.9764   27.4699 F   0  0  0  0  0  0  0  0  0  0  0  0
  1  2  1  0  0  0  0
  1  5  2  0  0  0  0
  2  6  2  0  0  0  0
  3  8  2  0  0  0  0
  3 15  1  0  0  0  0
  4  9  1  0  0  0  0
  4 15  2  0  0  0  0
  5 17  1  0  0  0  0
  6 19  1  0  0  0  0
  7 10  2  0  0  0  0
  7 18  1  0  0  0  0
  8 21  1  0  0  0  0
  9 21  2  0  0  0  0
 10 22  1  0  0  0  0
 11 12  2  0  0  0  0
 11 23  1  0  0  0  0
 12 24  1  0  0  0  0
 13 20  1  0  0  0  0
 13 22  2  0  0  0  0
 14 24  2  0  0  0  0
 14 25  1  0  0  0  0
 15 26  1  0  0  0  0
 16 26  1  0  0  0  0
 16 27  2  0  0  0  0
 16 28  1  0  0  0  0
 17 19  2  0  0  0  0
 17 34  1  0  0  0  0
 18 20  2  0  0  0  0
 18 35  1  0  0  0  0
 19 50  1  0  0  0  0
 20 36  1  0  0  0  0
 21 92  1  0  0  0  0
 22 93  1  0  0  0  0
 23 25  2  0  0  0  0
 23 92  1  0  0  0  0
 24 94  1  0  0  0  0
 25 95  1  0  0  0  0
 26 75  2  0  0  0  0
 27 76  1  0  0  0  0
 27 80  1  0  0  0  0
 28 81  1  0  0  0  0
 28 86  2  0  0  0  0
 29 51  1  0  0  0  0
 29 82  1  0  0  0  0
 29 87  2  0  0  0  0
 30 52  1  0  0  0  0
 30 83  1  0  0  0  0
 30 88  2  0  0  0  0
 31 71  1  0  0  0  0
 31 77  1  0  0  0  0
 31 89  2  0  0  0  0
 32 72  1  0  0  0  0
 32 84  1  0  0  0  0
 32 90  2  0  0  0  0
 33 78  1  0  0  0  0
 33 79  1  0  0  0  0
 33 91  2  0  0  0  0
 34 37  1  0  0  0  0
 35 51  1  0  0  0  0
 36 77  1  0  0  0  0
 37 40  1  0  0  0  0
 38 41  1  0  0  0  0
 38 48  1  0  0  0  0
 39 46  1  0  0  0  0
 39 47  1  0  0  0  0
 40 50  1  0  0  0  0
 41 52  1  0  0  0  0
 42 44  1  0  0  0  0
 42 53  1  0  0  0  0
 43 45  1  0  0  0  0
 43 53  1  0  0  0  0
 44 54  1  0  0  0  0
 45 54  1  0  0  0  0
 46 55  1  0  0  0  0
 47 78  1  0  0  0  0
 48 79  1  0  0  0  0
 49 55  1  0  0  0  0
 49 78  1  0  0  0  0
 50 82  1  0  0  0  0
 51 77  1  0  0  0  0
 52 79  1  0  0  0  0
 53 56  1  0  0  0  0
 54 73  1  0  0  0  0
 55 76  1  0  0  0  0
 57 72  1  0  0  0  0
 58 74  1  0  0  0  0
 59 74  1  0  0  0  0
 60 74  1  0  0  0  0
 61 85  1  0  0  0  0
 62 63  1  0  0  0  0
 62 64  1  0  0  0  0
 63 65  1  0  0  0  0
 64 66  1  0  0  0  0
 65 67  1  0  0  0  0
 66 68  1  0  0  0  0
 67 69  1  0  0  0  0
 68 70  1  0  0  0  0
 69 73  1  0  0  0  0
 70 93  1  0  0  0  0
 71 74  1  0  0  0  0
 71 84  1  0  0  0  0
 72 85  1  0  0  0  0
 73 83  1  0  0  0  0
 75 76  1  0  0  0  0
M  CHG  1  85   1
M  ISO  4  33 100  70 101  79 100  93 101
M  END
> <Batch ID>
0139

> <Smiles>
CNC(C)C(=O)NC(C(=O)N1Cc2cc([101O:1][101CH2:1]CCCCCCCCC(NC(=O)C3CCC[100N:0]3[100C:0](=O)N3CCCC(n4nc(-c5ccc(Oc6ccc(F)cc6F)cc5)c(C(N)=O)c4N)C3)C3CCC(C)CC3)ccc2CC1C(=O)NC1CCCc2ccccc21)C(C)(C)C

> <Shape>
0.219

> <Color>
0.075

> <Negative vol penalty>
0.000

$$$$

  -OEChem-04052321103D

 83 92  0     1  0  0  0  0  0999 V2000
  -28.6054  -17.8515   16.4696 C   0  0  0  0  0  0  0  0  0  0  0  0
  -27.5109  -18.7080   16.4073 C   0  0  0  0  0  0  0  0  0  0  0  0
  -24.3295  -17.4010   22.7731 C   0  0  0  0  0  0  0  0  0  0  0  0
  -24.7299  -18.7031   20.7778 C   0  0  0  0  0  0  0  0  0  0  0  0
  -29.4883  -17.9277   17.5460 C   0  0  0  0  0  0  0  0  0  0  0  0
  -27.2980  -19.6405   17.4220 C   0  0  0  0  0  0  0  0  0  0  0  0
  -24.7052  -26.2319   18.4927 C   0  0  0  0  0  0  0  0  0  0  0  0
  -25.0246  -16.3292   22.2132 C   0  0  0  0  0  0  0  0  0  0  0  0
  -25.4251  -17.6313   20.2179 C   0  0  0  0  0  0  0  0  0  0  0  0
  -23.7910  -26.9124   19.2958 C   0  0  0  0  0  0  0  0  0  0  0  0
  -24.4326  -13.8829   19.9572 C   0  0  0  0  0  0  0  0  0  0  0  0
  -23.8664  -12.6133   20.0720 C   0  0  0  0  0  0  0  0  0  0  0  0
  -25.4263  -27.0069   21.0667 C   0  0  0  0  0  0  0  0  0  0  0  0
  -20.2654  -27.2652   22.6285 C   0  0  0  0  0  0  0  0  0  0  0  0
  -25.8164  -11.8529   21.2789 C   0  0  0  0  0  0  0  0  0  0  0  0
  -17.7684  -28.3538   22.7886 C   0  0  0  0  0  0  0  0  0  0  0  0
  -24.1821  -18.5880   22.0554 C   0  0  0  0  0  0  0  0  0  0  0  0
  -23.9944  -20.7361   23.4185 C   0  0  0  0  0  0  0  0  0  0  0  0
  -29.2915  -18.8681   18.5695 C   0  0  0  0  0  0  0  0  0  0  0  0
  -25.9852  -25.9237   18.9753 C   0  0  0  0  0  0  0  0  0  0  0  0
  -28.1783  -19.7284   18.5137 C   0  0  0  0  0  0  0  0  0  0  0  0
  -26.3557  -26.3247   20.2668 C   0  0  0  0  0  0  0  0  0  0  0  0
  -20.1298  -28.6361   22.8167 C   0  0  0  0  0  0  0  0  0  0  0  0
  -18.8609  -29.1987   22.8993 C   0  0  0  0  0  0  0  0  0  0  0  0
  -25.5725  -16.4443   20.9356 C   0  0  0  0  0  0  0  0  0  0  0  0
  -24.1505  -27.2975   20.5840 C   0  0  0  0  0  0  0  0  0  0  0  0
  -25.6907  -14.1375   20.5031 C   0  0  0  0  0  0  0  0  0  0  0  0
  -24.5583  -11.5983   20.7329 C   0  0  0  0  0  0  0  0  0  0  0  0
  -26.3825  -13.1226   21.1640 C   0  0  0  0  0  0  0  0  0  0  0  0
  -23.4636  -19.6954   22.6331 C   0  0  0  0  0  0  0  0  0  0  0  0
  -19.1100  -26.5068   22.5302 C   0  0  0  0  0  0  0  0  0  0  0  0
  -22.9121  -21.5274   23.7167 C   0  0  0  0  0  0  0  0  0  0  0  0
  -25.3450  -20.9669   23.8408 C   0  0  0  0  0  0  0  0  0  0  0  0
  -27.5892  -23.2343   19.5211 C   0  0  0  0  0  0  0  0  0  0  0  0
  -30.0318  -25.2761   20.1430 C   0  0  0  0  0  0  0  0  0  0  0  0
  -31.0267  -28.4048   21.0748 C   0  0  0  0  0  0  0  0  0  0  0  0
  -18.2433  -24.1627   22.2133 C   0  0  0  0  0  0  0  0  0  0  0  0
  -30.2464  -18.8811   19.7368 C   0  0  0  0  0  0  0  0  0  0  0  0
  -26.9689  -25.2127   18.0869 C   0  0  0  0  0  0  0  0  0  0  0  0
  -27.7245  -26.0358   20.8248 C   0  0  0  0  0  0  0  0  0  0  0  0
  -30.1587  -20.1496   20.5814 C   0  0  0  0  0  0  0  0  0  0  0  0
  -17.9587  -20.7166   23.0622 C   0  0  0  0  0  0  0  0  0  0  0  0
  -28.7025  -20.4947   20.8767 C   0  0  0  0  0  0  0  0  0  0  0  0
  -19.4092  -20.2293   23.0908 C   0  0  0  0  0  0  0  0  0  0  0  0
  -22.3225  -29.1814   24.0565 C   0  0  0  0  0  0  0  0  0  0  0  0
  -21.4678  -30.4082   24.1247 C   0  0  0  0  0  0  0  0  0  0  0  0
  -17.7278  -21.7454   21.9567 C   0  0  0  0  0  0  0  0  0  0  0  0
  -20.1027  -22.3990   21.9960 C   0  0  0  0  0  0  0  0  0  0  0  0
  -27.9274  -20.7700   19.5825 C   0  0  1  0  0  0  0  0  0  0  0  0
  -28.0692  -24.4981   18.8654 C   0  0  1  0  0  0  0  0  0  0  0  0
  -20.3994  -21.4096   23.1348 C   0  0  2  0  0  0  0  0  0  0  0  0
  -21.3520  -29.4811   22.9282 C   0  0  0  0  0  0  0  0  0  0  0  0
  -18.6564  -30.6602   23.1019 C   0  0  0  0  0  0  0  0  0  0  0  0
  -33.0873  -29.7620   21.5325 C   0  0  0  0  0  0  0  0  0  0  0  0
  -30.3605  -23.8667   22.8292 C   0  0  0  0  0  0  0  0  0  0  0  0
  -31.7334  -25.8121   23.6030 C   0  0  0  0  0  0  0  0  0  0  0  0
  -32.5075  -24.4291   21.6766 C   0  0  0  0  0  0  0  0  0  0  0  0
  -30.3843  -30.3225   18.9141 C   0  0  0  0  0  0  0  0  0  0  0  0
  -21.9208  -29.9496   21.6222 C   0  0  0  0  0  0  0  0  0  0  0  0
  -22.3040  -28.7908   20.7112 C   0  0  0  0  0  0  0  0  0  1  0  0
  -30.5421  -25.9899   21.3714 C   0  0  1  0  0  0  0  0  0  0  0  0
  -32.0609  -29.3491   20.4890 C   0  0  2  0  0  0  0  0  0  0  0  0
  -31.2593  -25.0284   22.3605 C   0  0  0  0  0  0  0  0  0  0  0  0
  -17.8606  -27.0176   22.6055 N   0  0  0  0  0  0  0  0  0  0  0  0
  -22.1465  -19.8120   22.4443 N   0  0  0  0  0  0  0  0  0  0  0  0
  -21.8406  -20.9354   23.1154 N   0  0  0  0  0  0  0  0  0  0  0  0
  -28.6487  -25.3327   19.9198 N   0  0  0  0  0  0  0  0  0  0  0  0
  -18.6994  -22.8359   22.0642 N   0  0  0  0  0  0  0  0  0  0  0  0
  -22.7820  -22.6649   24.4320 N   0  0  0  0  0  0  0  0  0  0  0  0
  -26.3337  -20.0556   23.4454 N   0  0  0  0  0  0  0  0  0  0  0  0
  -19.2583  -25.1107   22.3383 N   0  0  0  0  0  0  0  0  0  0  0  0
  -28.2329  -22.0931   19.0821 N   0  0  0  0  0  0  0  0  0  0  0  0
  -31.3780  -27.0843   20.8899 N   0  0  0  0  0  0  0  0  0  0  0  0
  -31.4018  -30.5791   19.9658 N   0  3  0  0  0  0  0  0  0  0  0  0
  -25.6628  -21.9432   24.5615 O   0  0  0  0  0  0  0  0  0  0  0  0
  -26.7015  -23.2904   20.3641 O   0  0  0  0  0  0  0  0  0  0  0  0
  -30.8317  -24.6959   19.4047 O   0  0  0  0  0  0  0  0  0  0  0  0
  -30.0108  -28.7991   21.6431 O   0  0  0  0  0  0  0  0  0  0  0  0
  -17.0407  -24.4345   22.2562 O   0  0  0  0  0  0  0  0  0  0  0  0
  -26.2511  -15.3987   20.3890 O   0  0  0  0  0  0  0  0  0  0  0  0
  -23.2599  -27.9612   21.3703 O   0  0  0  0  0  0  0  0  0  1  0  0
  -24.0138  -10.3796   20.8444 F   0  0  0  0  0  0  0  0  0  0  0  0
  -27.5910  -13.3615   21.6916 F   0  0  0  0  0  0  0  0  0  0  0  0
  1  2  1  0  0  0  0
  1  5  2  0  0  0  0
  2  6  2  0  0  0  0
  3  8  2  0  0  0  0
  3 17  1  0  0  0  0
  4  9  1  0  0  0  0
  4 17  2  0  0  0  0
  5 19  1  0  0  0  0
  6 21  1  0  0  0  0
  7 10  2  0  0  0  0
  7 20  1  0  0  0  0
  8 25  1  0  0  0  0
  9 25  2  0  0  0  0
 10 26  1  0  0  0  0
 11 12  2  0  0  0  0
 11 27  1  0  0  0  0
 12 28  1  0  0  0  0
 13 22  1  0  0  0  0
 13 26  2  0  0  0  0
 14 23  1  0  0  0  0
 14 31  2  0  0  0  0
 15 28  2  0  0  0  0
 15 29  1  0  0  0  0
 16 24  1  0  0  0  0
 16 64  2  0  0  0  0
 17 30  1  0  0  0  0
 18 30  1  0  0  0  0
 18 32  2  0  0  0  0
 18 33  1  0  0  0  0
 19 21  2  0  0  0  0
 19 38  1  0  0  0  0
 20 22  2  0  0  0  0
 20 39  1  0  0  0  0
 21 49  1  0  0  0  0
 22 40  1  0  0  0  0
 23 24  2  0  0  0  0
 23 52  1  0  0  0  0
 24 53  1  0  0  0  0
 25 80  1  0  0  0  0
 26 81  1  0  0  0  0
 27 29  2  0  0  0  0
 27 80  1  0  0  0  0
 28 82  1  0  0  0  0
 29 83  1  0  0  0  0
 30 65  2  0  0  0  0
 31 64  1  0  0  0  0
 31 71  1  0  0  0  0
 32 66  1  0  0  0  0
 32 69  1  0  0  0  0
 33 70  1  0  0  0  0
 33 75  2  0  0  0  0
 34 50  1  0  0  0  0
 34 72  1  0  0  0  0
 34 76  2  0  0  0  0
 35 61  1  0  0  0  0
 35 67  1  0  0  0  0
 35 77  2  0  0  0  0
 36 62  1  0  0  0  0
 36 73  1  0  0  0  0
 36 78  2  0  0  0  0
 37 68  1  0  0  0  0
 37 71  1  0  0  0  0
 37 79  2  0  0  0  0
 38 41  1  0  0  0  0
 39 50  1  0  0  0  0
 40 67  1  0  0  0  0
 41 43  1  0  0  0  0
 42 44  1  0  0  0  0
 42 47  1  0  0  0  0
 43 49  1  0  0  0  0
 44 51  1  0  0  0  0
 45 46  1  0  0  0  0
 45 52  1  0  0  0  0
 46 52  1  0  0  0  0
 47 68  1  0  0  0  0
 48 51  1  0  0  0  0
 48 68  1  0  0  0  0
 49 72  1  0  0  0  0
 50 67  1  0  0  0  0
 51 66  1  0  0  0  0
 52 59  1  0  0  0  0
 54 62  1  0  0  0  0
 55 63  1  0  0  0  0
 56 63  1  0  0  0  0
 57 63  1  0  0  0  0
 58 74  1  0  0  0  0
 59 60  1  0  0  0  0
 60 81  1  0  0  0  0
 61 63  1  0  0  0  0
 61 73  1  0  0  0  0
 62 74  1  0  0  0  0
 65 66  1  0  0  0  0
M  CHG  1  74   1
M  ISO  4  37 100  60 101  71 100  81 101
M  END
> <Batch ID>
0139

> <Smiles>
CNC(C)C(=O)NC(C(=O)N1Cc2cc([101O:1][101CH2:1]CC3(c4cc([100NH:0][100C:0](=O)N5CCCC(n6nc(-c7ccc(Oc8ccc(F)cc8F)cc7)c(C(N)=O)c6N)C5)ncc4C)CC3)ccc2CC1C(=O)NC1CCCc2ccccc21)C(C)(C)C

> <Shape>
0.211

> <Color>
0.057

> <Negative vol penalty>
0.000

$$$$

  -OEChem-04052321103D

 88 98  0     1  0  0  0  0  0999 V2000
  -24.7723  -19.3531   21.3763 C   0  0  0  0  0  0  0  0  0  0  0  0
  -25.4535  -20.4404   20.8385 C   0  0  0  0  0  0  0  0  0  0  0  0
  -26.3119  -12.7667   21.5217 C   0  0  0  0  0  0  0  0  0  0  0  0
  -26.0172  -13.3741   19.2020 C   0  0  0  0  0  0  0  0  0  0  0  0
  -23.4193  -19.4668   21.6928 C   0  0  0  0  0  0  0  0  0  0  0  0
  -24.7816  -21.6418   20.6159 C   0  0  0  0  0  0  0  0  0  0  0  0
  -27.4370  -25.6678   22.1603 C   0  0  0  0  0  0  0  0  0  0  0  0
  -25.0838  -12.1055   21.5046 C   0  0  0  0  0  0  0  0  0  0  0  0
  -24.7892  -12.7128   19.1848 C   0  0  0  0  0  0  0  0  0  0  0  0
  -28.4728  -26.1024   21.3344 C   0  0  0  0  0  0  0  0  0  0  0  0
  -22.1937   -9.9501   21.9699 C   0  0  0  0  0  0  0  0  0  0  0  0
  -22.1291   -8.6869   22.5580 C   0  0  0  0  0  0  0  0  0  0  0  0
  -31.2174  -19.7660   15.7895 C   0  0  0  0  0  0  0  0  0  0  0  0
  -30.8033  -21.8648   16.9495 C   0  0  0  0  0  0  0  0  0  0  0  0
  -27.0435  -27.8413   20.4670 C   0  0  0  0  0  0  0  0  0  0  0  0
  -23.7984   -7.8803   21.0088 C   0  0  0  0  0  0  0  0  0  0  0  0
  -26.7786  -13.4011   20.3704 C   0  0  0  0  0  0  0  0  0  0  0  0
  -29.3096  -13.5414   20.0848 C   0  0  0  0  0  0  0  0  0  0  0  0
  -22.7328  -20.6732   21.4829 C   0  0  0  0  0  0  0  0  0  0  0  0
  -26.1911  -26.3110   22.1378 C   0  0  0  0  0  0  0  0  0  0  0  0
  -23.4177  -21.7714   20.9286 C   0  0  0  0  0  0  0  0  0  0  0  0
  -31.3619  -20.4849   14.6151 C   0  0  0  0  0  0  0  0  0  0  0  0
  -30.9383  -22.5806   15.7580 C   0  0  0  0  0  0  0  0  0  0  0  0
  -25.9943  -27.4146   21.2954 C   0  0  0  0  0  0  0  0  0  0  0  0
  -31.2242  -21.8779   14.5996 C   0  0  0  0  0  0  0  0  0  0  0  0
  -30.9420  -20.4677   16.9652 C   0  0  0  0  0  0  0  0  0  0  0  0
  -24.3225  -12.0785   20.3362 C   0  0  0  0  0  0  0  0  0  0  0  0
  -28.2752  -27.1874   20.4855 C   0  0  0  0  0  0  0  0  0  0  0  0
  -23.0607  -10.1783   20.9012 C   0  0  0  0  0  0  0  0  0  0  0  0
  -22.9314   -7.6520   22.0775 C   0  0  0  0  0  0  0  0  0  0  0  0
  -23.8630   -9.1434   20.4207 C   0  0  0  0  0  0  0  0  0  0  0  0
  -28.0468  -14.0848   20.3877 C   0  0  0  0  0  0  0  0  0  0  0  0
  -30.1823  -14.5895   20.2475 C   0  0  0  0  0  0  0  0  0  0  0  0
  -29.6623  -12.2086   19.6915 C   0  0  0  0  0  0  0  0  0  0  0  0
  -23.2243  -25.4293   21.4136 C   0  0  0  0  0  0  0  0  0  0  0  0
  -22.4955  -28.4043   22.4816 C   0  0  0  0  0  0  0  0  0  0  0  0
  -23.5269  -31.6028   23.0754 C   0  0  0  0  0  0  0  0  0  0  0  0
  -30.5192  -20.2991   19.4429 C   0  0  0  0  0  0  0  0  0  0  0  0
  -21.2588  -20.7338   21.7966 C   0  0  0  0  0  0  0  0  0  0  0  0
  -25.0925  -25.8468   23.0543 C   0  0  0  0  0  0  0  0  0  0  0  0
  -31.6170  -19.9592   13.2379 C   0  0  0  0  0  0  0  0  0  0  0  0
  -31.3756  -22.4128   13.2107 C   0  0  0  0  0  0  0  0  0  0  0  0
  -24.6820  -28.1522   21.2483 C   0  0  0  0  0  0  0  0  0  0  0  0
  -20.7116  -22.1565   21.8790 C   0  0  0  0  0  0  0  0  0  0  0  0
  -32.0717  -21.2347   12.5126 C   0  0  0  0  0  0  0  0  0  0  0  0
  -30.0417  -18.8959   22.6803 C   0  0  0  0  0  0  0  0  0  0  0  0
  -21.2004  -22.9859   20.6958 C   0  0  0  0  0  0  0  0  0  0  0  0
  -29.6020  -17.4588   22.3913 C   0  0  0  0  0  0  0  0  0  0  0  0
  -29.3536  -24.4445   16.2069 C   0  0  0  0  0  0  0  0  0  0  0  0
  -31.8249  -24.7243   16.6555 C   0  0  0  0  0  0  0  0  0  0  0  0
  -29.4741  -19.8791   21.6580 C   0  0  0  0  0  0  0  0  0  0  0  0
  -29.2954  -18.0979   19.9655 C   0  0  0  0  0  0  0  0  0  0  0  0
  -29.1775  -25.9554   16.2890 C   0  0  0  0  0  0  0  0  0  0  0  0
  -31.6299  -26.2331   16.7338 C   0  0  0  0  0  0  0  0  0  0  0  0
  -30.7716  -24.0660   15.7499 C   0  0  0  0  0  0  0  0  0  0  0  0
  -22.7297  -23.0990   20.6956 C   0  0  1  0  0  0  0  0  0  0  0  0
  -23.7026  -26.2540   22.5750 C   0  0  1  0  0  0  0  0  0  0  0  0
  -29.8952  -17.0627   20.9309 C   0  0  2  0  0  0  0  0  0  0  0  0
  -22.6960  -33.8166   23.9157 C   0  0  0  0  0  0  0  0  0  0  0  0
  -21.0554  -28.8669   19.8317 C   0  0  0  0  0  0  0  0  0  0  0  0
  -21.0845  -31.3214   20.3242 C   0  0  0  0  0  0  0  0  0  0  0  0
  -19.8608  -29.7617   21.8383 C   0  0  0  0  0  0  0  0  0  0  0  0
  -25.4614  -31.6098   25.3151 C   0  0  0  0  0  0  0  0  0  0  0  0
  -30.0215  -28.0086   17.4234 C   0  0  0  0  0  0  0  0  0  0  0  0
  -28.9140  -28.2146   18.4379 C   0  0  0  0  0  0  0  0  0  1  0  0
  -22.3890  -29.7709   21.8491 C   0  0  1  0  0  0  0  0  0  0  0  0
  -23.3682  -32.5039   24.2867 C   0  0  2  0  0  0  0  0  0  0  0  0
  -21.1216  -29.9153   20.9601 C   0  0  0  0  0  0  0  0  0  0  0  0
  -28.1074  -15.3776   20.7180 N   0  0  0  0  0  0  0  0  0  0  0  0
  -29.4189  -15.6553   20.6237 N   0  0  0  0  0  0  0  0  0  0  0  0
  -23.6366  -27.6564   22.1587 N   0  0  0  0  0  0  0  0  0  0  0  0
  -29.7946  -19.4416   20.2976 N   0  0  0  0  0  0  0  0  0  0  0  0
  -31.5206  -14.6941   20.1042 N   0  0  0  0  0  0  0  0  0  0  0  0
  -28.6420  -11.2551   19.5722 N   0  0  0  0  0  0  0  0  0  0  0  0
  -30.7933  -19.7627   18.1853 N   0  0  0  0  0  0  0  0  0  0  0  0
  -23.1645  -24.0734   21.6732 N   0  0  0  0  0  0  0  0  0  0  0  0
  -22.4647  -30.7338   22.9426 N   0  0  0  0  0  0  0  0  0  0  0  0
  -30.2251  -26.5537   17.2088 N   0  3  0  0  0  0  0  0  0  0  0  0
  -24.6994  -32.8096   24.8829 N   0  3  0  0  0  0  0  0  0  0  0  0
  -30.8491  -11.8689   19.4688 O   0  0  0  0  0  0  0  0  0  0  0  0
  -22.9299  -25.9824   20.3605 O   0  0  0  0  0  0  0  0  0  0  0  0
  -21.6027  -28.0176   23.2399 O   0  0  0  0  0  0  0  0  0  0  0  0
  -24.4945  -31.6663   22.3202 O   0  0  0  0  0  0  0  0  0  0  0  0
  -30.8942  -21.4157   19.8098 O   0  0  0  0  0  0  0  0  0  0  0  0
  -23.1243  -11.4332   20.3190 O   0  0  0  0  0  0  0  0  0  0  0  0
  -29.2843  -27.6132   19.6779 O   0  0  0  0  0  0  0  0  0  1  0  0
  -22.8703   -6.4395   22.6433 F   0  0  0  0  0  0  0  0  0  0  0  0
  -24.6986   -9.3570   19.3951 F   0  0  0  0  0  0  0  0  0  0  0  0
  1  2  1  0  0  0  0
  1  5  2  0  0  0  0
  2  6  2  0  0  0  0
  3  8  2  0  0  0  0
  3 17  1  0  0  0  0
  4  9  1  0  0  0  0
  4 17  2  0  0  0  0
  5 19  1  0  0  0  0
  6 21  1  0  0  0  0
  7 10  2  0  0  0  0
  7 20  1  0  0  0  0
  8 27  1  0  0  0  0
  9 27  2  0  0  0  0
 10 28  1  0  0  0  0
 11 12  2  0  0  0  0
 11 29  1  0  0  0  0
 12 30  1  0  0  0  0
 13 22  2  0  0  0  0
 13 26  1  0  0  0  0
 14 23  1  0  0  0  0
 14 26  2  0  0  0  0
 15 24  1  0  0  0  0
 15 28  2  0  0  0  0
 16 30  2  0  0  0  0
 16 31  1  0  0  0  0
 17 32  1  0  0  0  0
 18 32  1  0  0  0  0
 18 33  2  0  0  0  0
 18 34  1  0  0  0  0
 19 21  2  0  0  0  0
 19 39  1  0  0  0  0
 20 24  2  0  0  0  0
 20 40  1  0  0  0  0
 21 56  1  0  0  0  0
 22 25  1  0  0  0  0
 22 41  1  0  0  0  0
 23 25  2  0  0  0  0
 23 55  1  0  0  0  0
 24 43  1  0  0  0  0
 25 42  1  0  0  0  0
 26 75  1  0  0  0  0
 27 85  1  0  0  0  0
 28 86  1  0  0  0  0
 29 31  2  0  0  0  0
 29 85  1  0  0  0  0
 30 87  1  0  0  0  0
 31 88  1  0  0  0  0
 32 69  2  0  0  0  0
 33 70  1  0  0  0  0
 33 73  1  0  0  0  0
 34 74  1  0  0  0  0
 34 80  2  0  0  0  0
 35 57  1  0  0  0  0
 35 76  1  0  0  0  0
 35 81  2  0  0  0  0
 36 66  1  0  0  0  0
 36 71  1  0  0  0  0
 36 82  2  0  0  0  0
 37 67  1  0  0  0  0
 37 77  1  0  0  0  0
 37 83  2  0  0  0  0
 38 72  1  0  0  0  0
 38 75  1  0  0  0  0
 38 84  2  0  0  0  0
 39 44  1  0  0  0  0
 40 57  1  0  0  0  0
 41 45  1  0  0  0  0
 42 45  1  0  0  0  0
 43 71  1  0  0  0  0
 44 47  1  0  0  0  0
 46 48  1  0  0  0  0
 46 51  1  0  0  0  0
 47 56  1  0  0  0  0
 48 58  1  0  0  0  0
 49 53  1  0  0  0  0
 49 55  1  0  0  0  0
 50 54  1  0  0  0  0
 50 55  1  0  0  0  0
 51 72  1  0  0  0  0
 52 58  1  0  0  0  0
 52 72  1  0  0  0  0
 53 78  1  0  0  0  0
 54 78  1  0  0  0  0
 56 76  1  0  0  0  0
 57 71  1  0  0  0  0
 58 70  1  0  0  0  0
 59 67  1  0  0  0  0
 60 68  1  0  0  0  0
 61 68  1  0  0  0  0
 62 68  1  0  0  0  0
 63 79  1  0  0  0  0
 64 65  1  0  0  0  0
 64 78  1  0  0  0  0
 65 86  1  0  0  0  0
 66 68  1  0  0  0  0
 66 77  1  0  0  0  0
 67 79  1  0  0  0  0
 69 70  1  0  0  0  0
M  CHG  2  78   1  79   1
M  ISO  4  38 100  65 101  75 100  86 101
M  END
> <Batch ID>
0139

> <Smiles>
CNC(C)C(=O)NC(C(=O)N1Cc2cc([101O:1][101CH2:1]CN3CCC(c4cc([100NH:0][100C:0](=O)N5CCCC(n6nc(-c7ccc(Oc8ccc(F)cc8F)cc7)c(C(N)=O)c6N)C5)cc5c4CCC5)CC3)ccc2CC1C(=O)NC1CCCc2ccccc21)C(C)(C)C

> <Shape>
0.242

> <Color>
0.054

> <Negative vol penalty>
0.000

$$$$

  -OEChem-04052321103D

 88 97  0     1  0  0  0  0  0999 V2000
  -32.4025  -14.1918   20.7170 C   0  0  0  0  0  0  0  0  0  0  0  0
  -31.6552  -15.3630   20.6460 C   0  0  0  0  0  0  0  0  0  0  0  0
  -22.3846  -24.5136   18.3637 C   0  0  0  0  0  0  0  0  0  0  0  0
  -29.6381  -27.6564   21.7646 C   0  0  0  0  0  0  0  0  0  0  0  0
  -28.2295  -27.6950   19.8020 C   0  0  0  0  0  0  0  0  0  0  0  0
  -31.7938  -12.9618   20.4706 C   0  0  0  0  0  0  0  0  0  0  0  0
  -30.2989  -15.3051   20.3275 C   0  0  0  0  0  0  0  0  0  0  0  0
  -25.8556  -18.9339   22.4713 C   0  0  0  0  0  0  0  0  0  0  0  0
  -23.1676  -23.5101   18.9348 C   0  0  0  0  0  0  0  0  0  0  0  0
  -30.4011  -26.6360   21.1969 C   0  0  0  0  0  0  0  0  0  0  0  0
  -28.9926  -26.6747   19.2343 C   0  0  0  0  0  0  0  0  0  0  0  0
  -25.2258  -20.0590   21.9411 C   0  0  0  0  0  0  0  0  0  0  0  0
  -30.3497  -23.8332   17.4193 C   0  0  0  0  0  0  0  0  0  0  0  0
  -29.6706  -22.7786   16.8091 C   0  0  0  0  0  0  0  0  0  0  0  0
  -20.8344  -26.3944   18.6131 C   0  0  0  0  0  0  0  0  0  0  0  0
  -22.4602  -24.2084   21.1347 C   0  0  0  0  0  0  0  0  0  0  0  0
  -20.9100  -26.0891   21.3842 C   0  0  0  0  0  0  0  0  0  0  0  0
  -23.4389  -18.6632   21.1176 C   0  0  0  0  0  0  0  0  0  0  0  0
  -28.5891  -22.2614   18.9067 C   0  0  0  0  0  0  0  0  0  0  0  0
  -21.6281  -25.3789   19.1708 C   0  0  0  0  0  0  0  0  0  0  0  0
  -21.6665  -25.2239   20.5770 C   0  0  0  0  0  0  0  0  0  0  0  0
  -28.5522  -28.1859   21.0671 C   0  0  0  0  0  0  0  0  0  0  0  0
  -27.9718  -30.6264   21.5307 C   0  0  0  0  0  0  0  0  0  0  0  0
  -30.4272  -12.8880   20.1585 C   0  0  0  0  0  0  0  0  0  0  0  0
  -25.2863  -17.6614   22.3190 C   0  0  0  0  0  0  0  0  0  0  0  0
  -29.6716  -14.0732   20.0754 C   0  0  0  0  0  0  0  0  0  0  0  0
  -24.0622  -17.5239   21.6491 C   0  0  0  0  0  0  0  0  0  0  0  0
  -23.2054  -23.3577   20.3176 C   0  0  0  0  0  0  0  0  0  0  0  0
  -20.1270  -27.0927   20.8130 C   0  0  0  0  0  0  0  0  0  0  0  0
  -20.0892  -27.2450   19.4302 C   0  0  0  0  0  0  0  0  0  0  0  0
  -30.0783  -26.1452   19.9317 C   0  0  0  0  0  0  0  0  0  0  0  0
  -24.0188  -19.9234   21.2616 C   0  0  0  0  0  0  0  0  0  0  0  0
  -30.1485  -24.1019   18.7732 C   0  0  0  0  0  0  0  0  0  0  0  0
  -28.7903  -21.9927   17.5528 C   0  0  0  0  0  0  0  0  0  0  0  0
  -29.2682  -23.3160   19.5169 C   0  0  0  0  0  0  0  0  0  0  0  0
  -27.7633  -29.2395   21.6533 C   0  0  0  0  0  0  0  0  0  0  0  0
  -26.9599  -31.1921   22.2671 C   0  0  0  0  0  0  0  0  0  0  0  0
  -28.9893  -31.3394   20.8151 C   0  0  0  0  0  0  0  0  0  0  0  0
  -26.1820  -14.9576   20.9080 C   0  0  0  0  0  0  0  0  0  0  0  0
  -23.4888  -13.7980   22.2953 C   0  0  0  0  0  0  0  0  0  0  0  0
  -20.3972  -14.4292   23.5955 C   0  0  0  0  0  0  0  0  0  0  0  0
  -21.5147  -29.2780   23.8598 C   0  0  0  0  0  0  0  0  0  0  0  0
  -29.8239  -11.5397   19.8538 C   0  0  0  0  0  0  0  0  0  0  0  0
  -25.9648  -16.4611   22.9201 C   0  0  0  0  0  0  0  0  0  0  0  0
  -23.3993  -16.1826   21.4760 C   0  0  0  0  0  0  0  0  0  0  0  0
  -28.2979  -11.5328   19.8904 C   0  0  0  0  0  0  0  0  0  0  0  0
  -24.1339  -30.3296   26.0302 C   0  0  0  0  0  0  0  0  0  0  0  0
  -27.7401  -12.7279   19.1240 C   0  0  0  0  0  0  0  0  0  0  0  0
  -25.3799  -30.2946   25.1435 C   0  0  0  0  0  0  0  0  0  0  0  0
  -23.1727  -29.1903   25.6981 C   0  0  0  0  0  0  0  0  0  0  0  0
  -24.0310  -29.0662   23.3912 C   0  0  0  0  0  0  0  0  0  0  0  0
  -28.1923  -14.0492   19.7572 C   0  0  1  0  0  0  0  0  0  0  0  0
  -25.5535  -15.1490   22.2594 C   0  0  1  0  0  0  0  0  0  0  0  0
  -25.0043  -30.2288   23.6509 C   0  0  2  0  0  0  0  0  0  0  0  0
  -17.1495  -26.8836   18.5532 C   0  0  0  0  0  0  0  0  0  0  0  0
  -20.1379  -29.3323   18.0403 C   0  0  0  0  0  0  0  0  0  0  0  0
  -18.4167  -13.2753   24.6170 C   0  0  0  0  0  0  0  0  0  0  0  0
  -22.6382  -12.8183   19.5336 C   0  0  0  0  0  0  0  0  0  0  0  0
  -20.3131  -12.5488   20.4220 C   0  0  0  0  0  0  0  0  0  0  0  0
  -22.1812  -11.2133   21.3963 C   0  0  0  0  0  0  0  0  0  0  0  0
  -20.6868  -15.9263   26.1320 C   0  0  0  0  0  0  0  0  0  0  0  0
  -19.3368  -27.9914   21.7067 C   0  0  0  0  0  0  0  0  0  0  0  0
  -24.0481  -22.2784   20.9309 C   0  0  0  0  0  0  0  0  0  1  0  0
  -18.1589  -27.7775   17.8431 C   0  0  0  0  0  0  0  0  0  0  0  0
  -19.9784  -29.3678   21.9127 C   0  0  0  0  0  0  0  0  0  0  0  0
  -19.2603  -28.3138   18.7969 C   0  0  1  0  0  0  0  0  0  0  0  0
  -22.0389  -13.6890   21.8892 C   0  0  1  0  0  0  0  0  0  0  0  0
  -19.7367  -13.9807   24.8866 C   0  0  2  0  0  0  0  0  0  0  0  0
  -21.8061  -12.5925   20.8117 C   0  0  0  0  0  0  0  0  0  0  0  0
  -26.7023  -28.9424   22.4083 N   0  0  0  0  0  0  0  0  0  0  0  0
  -26.2352  -30.1504   22.7668 N   0  0  0  0  0  0  0  0  0  0  0  0
  -24.1049  -15.0382   22.0761 N   0  0  0  0  0  0  0  0  0  0  0  0
  -22.8554  -29.1847   24.2680 N   0  0  0  0  0  0  0  0  0  0  0  0
  -26.6282  -32.4741   22.5295 N   0  0  0  0  0  0  0  0  0  0  0  0
  -29.9516  -30.6030   20.1108 N   0  0  0  0  0  0  0  0  0  0  0  0
  -27.4142  -14.3333   20.9440 N   0  0  0  0  0  0  0  0  0  0  0  0
  -21.2841  -13.4860   23.1211 N   0  0  0  0  0  0  0  0  0  0  0  0
  -21.3021  -29.2722   22.4866 N   0  0  0  0  0  0  0  0  0  0  0  0
  -19.4716  -15.1533   25.7673 N   0  3  0  0  0  0  0  0  0  0  0  0
  -29.0531  -32.5922   20.8141 O   0  0  0  0  0  0  0  0  0  0  0  0
  -25.5919  -15.3461   19.9068 O   0  0  0  0  0  0  0  0  0  0  0  0
  -24.0518  -12.8210   22.7953 O   0  0  0  0  0  0  0  0  0  0  0  0
  -20.1483  -15.5067   23.0593 O   0  0  0  0  0  0  0  0  0  0  0  0
  -20.5769  -29.3657   24.6597 O   0  0  0  0  0  0  0  0  0  0  0  0
  -30.8228  -25.1497   19.3774 O   0  0  0  0  0  0  0  0  0  0  0  0
  -23.4022  -21.0199   20.7425 O   0  0  0  0  0  0  0  0  0  1  0  0
  -28.1371  -20.9810   16.9663 F   0  0  0  0  0  0  0  0  0  0  0  0
  -29.0699  -23.5700   20.8177 F   0  0  0  0  0  0  0  0  0  0  0  0
  1  2  1  0  0  0  0
  1  6  2  0  0  0  0
  2  7  2  0  0  0  0
  3  9  2  0  0  0  0
  3 20  1  0  0  0  0
  4 10  2  0  0  0  0
  4 22  1  0  0  0  0
  5 11  1  0  0  0  0
  5 22  2  0  0  0  0
  6 24  1  0  0  0  0
  7 26  1  0  0  0  0
  8 12  2  0  0  0  0
  8 25  1  0  0  0  0
  9 28  1  0  0  0  0
 10 31  1  0  0  0  0
 11 31  2  0  0  0  0
 12 32  1  0  0  0  0
 13 14  2  0  0  0  0
 13 33  1  0  0  0  0
 14 34  1  0  0  0  0
 15 20  2  0  0  0  0
 15 30  1  0  0  0  0
 16 21  1  0  0  0  0
 16 28  2  0  0  0  0
 17 21  2  0  0  0  0
 17 29  1  0  0  0  0
 18 27  1  0  0  0  0
 18 32  2  0  0  0  0
 19 34  2  0  0  0  0
 19 35  1  0  0  0  0
 20 21  1  0  0  0  0
 22 36  1  0  0  0  0
 23 36  1  0  0  0  0
 23 37  2  0  0  0  0
 23 38  1  0  0  0  0
 24 26  2  0  0  0  0
 24 43  1  0  0  0  0
 25 27  2  0  0  0  0
 25 44  1  0  0  0  0
 26 52  1  0  0  0  0
 27 45  1  0  0  0  0
 28 63  1  0  0  0  0
 29 30  2  0  0  0  0
 29 62  1  0  0  0  0
 30 66  1  0  0  0  0
 31 85  1  0  0  0  0
 32 86  1  0  0  0  0
 33 35  2  0  0  0  0
 33 85  1  0  0  0  0
 34 87  1  0  0  0  0
 35 88  1  0  0  0  0
 36 70  2  0  0  0  0
 37 71  1  0  0  0  0
 37 74  1  0  0  0  0
 38 75  1  0  0  0  0
 38 80  2  0  0  0  0
 39 53  1  0  0  0  0
 39 76  1  0  0  0  0
 39 81  2  0  0  0  0
 40 67  1  0  0  0  0
 40 72  1  0  0  0  0
 40 82  2  0  0  0  0
 41 68  1  0  0  0  0
 41 77  1  0  0  0  0
 41 83  2  0  0  0  0
 42 73  1  0  0  0  0
 42 78  1  0  0  0  0
 42 84  2  0  0  0  0
 43 46  1  0  0  0  0
 44 53  1  0  0  0  0
 45 72  1  0  0  0  0
 46 48  1  0  0  0  0
 47 49  1  0  0  0  0
 47 50  1  0  0  0  0
 48 52  1  0  0  0  0
 49 54  1  0  0  0  0
 50 73  1  0  0  0  0
 51 54  1  0  0  0  0
 51 73  1  0  0  0  0
 52 76  1  0  0  0  0
 53 72  1  0  0  0  0
 54 71  1  0  0  0  0
 55 64  1  0  0  0  0
 56 66  1  0  0  0  0
 57 68  1  0  0  0  0
 58 69  1  0  0  0  0
 59 69  1  0  0  0  0
 60 69  1  0  0  0  0
 61 79  1  0  0  0  0
 62 65  1  0  0  0  0
 63 86  1  0  0  0  0
 64 66  1  0  0  0  0
 65 78  1  0  0  0  0
 67 69  1  0  0  0  0
 67 77  1  0  0  0  0
 68 79  1  0  0  0  0
 70 71  1  0  0  0  0
M  CHG  1  79   1
M  ISO  4  42 100  63 101  78 100  86 101
M  END
> <Batch ID>
0139

> <Smiles>
CCC(C)c1cc2ccc([101CH2:1][101O:1]c3ccc4c(c3)CN(C(=O)C(NC(=O)C(C)NC)C(C)(C)C)C(C(=O)NC3CCCc5ccccc53)C4)cc2cc1CC[100NH:0][100C:0](=O)N1CCCC(n2nc(-c3ccc(Oc4ccc(F)cc4F)cc3)c(C(N)=O)c2N)C1

> <Shape>
0.242

> <Color>
0.070

> <Negative vol penalty>
0.000

$$$$

  -OEChem-04052321103D

 89 98  0     1  0  0  0  0  0999 V2000
  -23.2617  -36.2976   20.8421 C   0  0  0  0  0  0  0  0  0  0  0  0
  -24.2651  -35.3610   20.6152 C   0  0  0  0  0  0  0  0  0  0  0  0
  -23.3108  -10.8936   22.9221 C   0  0  0  0  0  0  0  0  0  0  0  0
  -24.5490   -9.1499   21.7982 C   0  0  0  0  0  0  0  0  0  0  0  0
  -22.2130  -35.9973   21.7104 C   0  0  0  0  0  0  0  0  0  0  0  0
  -24.2209  -34.1240   21.2572 C   0  0  0  0  0  0  0  0  0  0  0  0
  -31.1489  -21.1136   20.8222 C   0  0  0  0  0  0  0  0  0  0  0  0
  -28.8280  -20.7058   21.3554 C   0  0  0  0  0  0  0  0  0  0  0  0
  -26.0801  -28.7399   19.0074 C   0  0  0  0  0  0  0  0  0  0  0  0
  -22.8351   -9.9616   23.8443 C   0  0  0  0  0  0  0  0  0  0  0  0
  -24.0734   -8.2177   22.7205 C   0  0  0  0  0  0  0  0  0  0  0  0
  -30.7837  -22.2511   20.1023 C   0  0  0  0  0  0  0  0  0  0  0  0
  -28.4628  -21.8433   20.6355 C   0  0  0  0  0  0  0  0  0  0  0  0
  -27.2560  -28.0097   19.1736 C   0  0  0  0  0  0  0  0  0  0  0  0
  -21.2282   -6.4716   23.2564 C   0  0  0  0  0  0  0  0  0  0  0  0
  -20.7650   -5.2514   22.7645 C   0  0  0  0  0  0  0  0  0  0  0  0
  -26.1980  -26.7125   20.9105 C   0  0  0  0  0  0  0  0  0  0  0  0
  -22.4340   -4.0912   24.0704 C   0  0  0  0  0  0  0  0  0  0  0  0
  -24.1677  -10.4878   21.8990 C   0  0  0  0  0  0  0  0  0  0  0  0
  -23.8952  -12.2474   20.0721 C   0  0  0  0  0  0  0  0  0  0  0  0
  -30.1711  -20.3409   21.4487 C   0  0  0  0  0  0  0  0  0  0  0  0
  -22.1507  -34.7523   22.3559 C   0  0  0  0  0  0  0  0  0  0  0  0
  -24.9558  -28.4688   19.8005 C   0  0  0  0  0  0  0  0  0  0  0  0
  -23.1710  -33.8073   22.1359 C   0  0  0  0  0  0  0  0  0  0  0  0
  -25.0082  -27.4390   20.7507 C   0  0  0  0  0  0  0  0  0  0  0  0
  -23.2164   -8.6236   23.7436 C   0  0  0  0  0  0  0  0  0  0  0  0
  -29.4406  -22.6159   20.0089 C   0  0  0  0  0  0  0  0  0  0  0  0
  -27.3161  -26.9977   20.1272 C   0  0  0  0  0  0  0  0  0  0  0  0
  -22.2945   -6.5017   24.1554 C   0  0  0  0  0  0  0  0  0  0  0  0
  -21.3678   -4.0612   23.1714 C   0  0  0  0  0  0  0  0  0  0  0  0
  -22.8973   -5.3115   24.5624 C   0  0  0  0  0  0  0  0  0  0  0  0
  -24.6589  -11.4501   20.9456 C   0  0  0  0  0  0  0  0  0  0  0  0
  -24.8243  -12.9856   19.3804 C   0  0  0  0  0  0  0  0  0  0  0  0
  -22.4733  -12.3147   19.9013 C   0  0  0  0  0  0  0  0  0  0  0  0
  -23.2518  -30.1198   21.9158 C   0  0  0  0  0  0  0  0  0  0  0  0
  -21.3423  -27.4987   21.8399 C   0  0  0  0  0  0  0  0  0  0  0  0
  -21.0302  -24.1587   21.2123 C   0  0  0  0  0  0  0  0  0  0  0  0
  -30.4122  -14.7250   20.6456 C   0  0  0  0  0  0  0  0  0  0  0  0
  -21.0225  -34.4912   23.3222 C   0  0  0  0  0  0  0  0  0  0  0  0
  -23.6863  -29.2477   19.5905 C   0  0  0  0  0  0  0  0  0  0  0  0
  -23.8224  -27.0950   21.6134 C   0  0  0  0  0  0  0  0  0  0  0  0
  -20.8508  -33.0157   23.6737 C   0  0  0  0  0  0  0  0  0  0  0  0
  -29.3497  -12.8114   17.8374 C   0  0  0  0  0  0  0  0  0  0  0  0
  -22.2002  -32.3843   24.0010 C   0  0  0  0  0  0  0  0  0  0  0  0
  -30.5731  -17.8671   24.4581 C   0  0  0  0  0  0  0  0  0  0  0  0
  -27.9581  -12.3174   18.2368 C   0  0  0  0  0  0  0  0  0  0  0  0
  -29.9729  -16.6376   23.7820 C   0  0  0  0  0  0  0  0  0  0  0  0
  -29.9744  -17.8424   21.5674 C   0  0  0  0  0  0  0  0  0  0  0  0
  -30.2998  -12.8485   19.0324 C   0  0  0  0  0  0  0  0  0  0  0  0
  -28.4120  -13.1147   20.5941 C   0  0  0  0  0  0  0  0  0  0  0  0
  -30.5693  -19.1005   22.2345 C   0  0  2  0  0  0  0  0  0  0  0  0
  -23.1449  -32.4451   22.7946 C   0  0  1  0  0  0  0  0  0  0  0  0
  -22.7660  -29.2295   20.8071 C   0  0  1  0  0  0  0  0  0  0  0  0
  -30.1896  -19.1720   23.7382 C   0  0  2  0  0  0  0  0  0  0  0  0
  -27.4027  -13.1131   19.4333 C   0  0  2  0  0  0  0  0  0  0  0  0
  -30.3737  -16.5655   22.3100 C   0  0  2  0  0  0  0  0  0  0  0  0
  -19.3566  -22.2900   21.2777 C   0  0  0  0  0  0  0  0  0  0  0  0
  -21.6008  -27.3766   24.8777 C   0  0  0  0  0  0  0  0  0  0  0  0
  -20.7413  -25.0269   24.7867 C   0  0  0  0  0  0  0  0  0  0  0  0
  -19.3034  -26.9101   24.0067 C   0  0  0  0  0  0  0  0  0  0  0  0
  -30.8874  -21.5574   26.6355 C   0  0  0  0  0  0  0  0  0  0  0  0
  -21.2776  -23.6800   18.3022 C   0  0  0  0  0  0  0  0  0  0  0  0
  -30.8619  -20.3542   24.4468 C   0  0  0  0  0  0  0  0  0  0  0  0
  -30.0303  -24.7936   19.2565 C   0  0  0  0  0  0  0  0  0  0  0  0
  -29.2925  -26.1136   19.1433 C   0  0  0  0  0  0  0  0  0  1  0  0
  -21.2818  -26.1975   22.6030 C   0  0  1  0  0  0  0  0  0  0  0  0
  -19.9966  -23.3740   20.4245 C   0  0  2  0  0  0  0  0  0  0  0  0
  -20.7550  -26.3853   24.0538 C   0  0  0  0  0  0  0  0  0  0  0  0
  -25.9718  -11.6617   20.8220 N   0  0  0  0  0  0  0  0  0  0  0  0
  -26.0405  -12.6003   19.8626 N   0  0  0  0  0  0  0  0  0  0  0  0
  -22.6060  -27.8892   21.3748 N   0  0  0  0  0  0  0  0  0  0  0  0
  -29.7144  -13.6195   20.1318 N   0  0  0  0  0  0  0  0  0  0  0  0
  -24.7113  -13.9201   18.4128 N   0  0  0  0  0  0  0  0  0  0  0  0
  -21.8720  -11.4644   18.9633 N   0  0  0  0  0  0  0  0  0  0  0  0
  -22.7996  -31.4227   21.8303 N   0  0  0  0  0  0  0  0  0  0  0  0
  -20.4842  -25.2848   21.7911 N   0  0  0  0  0  0  0  0  0  0  0  0
  -29.7838  -15.4042   21.6821 N   0  0  0  0  0  0  0  0  0  0  0  0
  -30.3616  -20.4148   25.8331 N   0  3  0  0  0  0  0  0  0  0  0  0
  -20.6293  -22.7276   19.2401 N   0  3  0  0  0  0  0  0  0  0  0  0
  -21.7591  -13.1170   20.5492 O   0  0  0  0  0  0  0  0  0  0  0  0
  -23.9817  -29.6583   22.7853 O   0  0  0  0  0  0  0  0  0  0  0  0
  -20.3053  -28.1411   21.6568 O   0  0  0  0  0  0  0  0  0  0  0  0
  -22.2036  -23.8058   21.3079 O   0  0  0  0  0  0  0  0  0  0  0  0
  -31.5112  -15.0836   20.2090 O   0  0  0  0  0  0  0  0  0  0  0  0
  -22.7527   -7.7139   24.6435 O   0  0  0  0  0  0  0  0  0  0  0  0
  -29.0822  -23.7340   19.3028 O   0  0  0  0  0  0  0  0  0  0  0  0
  -28.4628  -26.2838   20.2918 O   0  0  0  0  0  0  0  0  0  1  0  0
  -20.9219   -2.8894   22.7001 F   0  0  0  0  0  0  0  0  0  0  0  0
  -23.9212   -5.3339   25.4266 F   0  0  0  0  0  0  0  0  0  0  0  0
  1  2  1  0  0  0  0
  1  5  2  0  0  0  0
  2  6  2  0  0  0  0
  3 10  2  0  0  0  0
  3 19  1  0  0  0  0
  4 11  1  0  0  0  0
  4 19  2  0  0  0  0
  5 22  1  0  0  0  0
  6 24  1  0  0  0  0
  7 12  2  0  0  0  0
  7 21  1  0  0  0  0
  8 13  1  0  0  0  0
  8 21  2  0  0  0  0
  9 14  2  0  0  0  0
  9 23  1  0  0  0  0
 10 26  1  0  0  0  0
 11 26  2  0  0  0  0
 12 27  1  0  0  0  0
 13 27  2  0  0  0  0
 14 28  1  0  0  0  0
 15 16  2  0  0  0  0
 15 29  1  0  0  0  0
 16 30  1  0  0  0  0
 17 25  1  0  0  0  0
 17 28  2  0  0  0  0
 18 30  2  0  0  0  0
 18 31  1  0  0  0  0
 19 32  1  0  0  0  0
 20 32  1  0  0  0  0
 20 33  2  0  0  0  0
 20 34  1  0  0  0  0
 21 51  1  0  0  0  0
 22 24  2  0  0  0  0
 22 39  1  0  0  0  0
 23 25  2  0  0  0  0
 23 40  1  0  0  0  0
 24 52  1  0  0  0  0
 25 41  1  0  0  0  0
 26 85  1  0  0  0  0
 27 86  1  0  0  0  0
 28 87  1  0  0  0  0
 29 31  2  0  0  0  0
 29 85  1  0  0  0  0
 30 88  1  0  0  0  0
 31 89  1  0  0  0  0
 32 69  2  0  0  0  0
 33 70  1  0  0  0  0
 33 73  1  0  0  0  0
 34 74  1  0  0  0  0
 34 80  2  0  0  0  0
 35 53  1  0  0  0  0
 35 75  1  0  0  0  0
 35 81  2  0  0  0  0
 36 66  1  0  0  0  0
 36 71  1  0  0  0  0
 36 82  2  0  0  0  0
 37 67  1  0  0  0  0
 37 76  1  0  0  0  0
 37 83  2  0  0  0  0
 38 72  1  0  0  0  0
 38 77  1  0  0  0  0
 38 84  2  0  0  0  0
 39 42  1  0  0  0  0
 40 53  1  0  0  0  0
 41 71  1  0  0  0  0
 42 44  1  0  0  0  0
 43 46  1  0  0  0  0
 43 49  1  0  0  0  0
 44 52  1  0  0  0  0
 45 47  1  0  0  0  0
 45 54  1  0  0  0  0
 46 55  1  0  0  0  0
 47 56  1  0  0  0  0
 48 51  1  0  0  0  0
 48 56  1  0  0  0  0
 49 72  1  0  0  0  0
 50 55  1  0  0  0  0
 50 72  1  0  0  0  0
 51 54  1  0  0  0  0
 52 75  1  0  0  0  0
 53 71  1  0  0  0  0
 54 63  1  0  0  0  0
 55 70  1  0  0  0  0
 56 77  1  0  0  0  0
 57 67  1  0  0  0  0
 58 68  1  0  0  0  0
 59 68  1  0  0  0  0
 60 68  1  0  0  0  0
 61 78  1  0  0  0  0
 62 79  1  0  0  0  0
 63 78  1  0  0  0  0
 64 65  1  0  0  0  0
 64 86  1  0  0  0  0
 65 87  1  0  0  0  0
 66 68  1  0  0  0  0
 66 76  1  0  0  0  0
 67 79  1  0  0  0  0
 69 70  1  0  0  0  0
M  CHG  2  78   1  79   1
M  ISO  4  38 100  65 101  77 100  87 101
M  END
> <Batch ID>
0139

> <Smiles>
CNCC1CCC([100NH:0][100C:0](=O)N2CCCC(n3nc(-c4ccc(Oc5ccc(F)cc5F)cc4)c(C(N)=O)c3N)C2)CC1c1ccc(OC[101CH2:1][101O:1]c2ccc3c(c2)CN(C(=O)C(NC(=O)C(C)NC)C(C)(C)C)C(C(=O)NC2CCCc4ccccc42)C3)cc1

> <Shape>
0.307

> <Color>
0.126

> <Negative vol penalty>
0.000

$$$$

  -OEChem-04052321103D

 89 98  0     1  0  0  0  0  0999 V2000
  -33.1803  -31.3959   23.5723 C   0  0  0  0  0  0  0  0  0  0  0  0
  -33.2434  -30.0213   23.3676 C   0  0  0  0  0  0  0  0  0  0  0  0
  -28.4097  -15.8497   25.7454 C   0  0  0  0  0  0  0  0  0  0  0  0
  -23.5767   -9.6147   20.1759 C   0  0  0  0  0  0  0  0  0  0  0  0
  -24.1435   -9.9992   22.4928 C   0  0  0  0  0  0  0  0  0  0  0  0
  -32.0571  -32.1104   23.1577 C   0  0  0  0  0  0  0  0  0  0  0  0
  -32.1827  -29.3602   22.7492 C   0  0  0  0  0  0  0  0  0  0  0  0
  -32.5398  -24.5395   18.9891 C   0  0  0  0  0  0  0  0  0  0  0  0
  -27.5829  -16.7810   25.1172 C   0  0  0  0  0  0  0  0  0  0  0  0
  -29.6619  -15.5535   25.2070 C   0  0  0  0  0  0  0  0  0  0  0  0
  -23.0373   -8.3736   20.5138 C   0  0  0  0  0  0  0  0  0  0  0  0
  -23.6040   -8.7581   22.8307 C   0  0  0  0  0  0  0  0  0  0  0  0
  -32.3671  -23.1719   19.1982 C   0  0  0  0  0  0  0  0  0  0  0  0
  -20.1794   -7.1873   21.8770 C   0  0  0  0  0  0  0  0  0  0  0  0
  -18.9440   -6.8459   21.3268 C   0  0  0  0  0  0  0  0  0  0  0  0
  -30.0797  -23.3531   18.4537 C   0  0  0  0  0  0  0  0  0  0  0  0
  -29.6681  -20.0939   22.8674 C   0  0  0  0  0  0  0  0  0  0  0  0
  -19.9472   -4.9187   20.2701 C   0  0  0  0  0  0  0  0  0  0  0  0
  -24.1298  -10.4275   21.1654 C   0  0  0  0  0  0  0  0  0  0  0  0
  -24.0162  -12.9461   20.7761 C   0  0  0  0  0  0  0  0  0  0  0  0
  -30.9863  -31.4592   22.5252 C   0  0  0  0  0  0  0  0  0  0  0  0
  -31.4788  -25.3274   18.5202 C   0  0  0  0  0  0  0  0  0  0  0  0
  -31.0436  -30.0664   22.3270 C   0  0  0  0  0  0  0  0  0  0  0  0
  -30.2423  -24.7299   18.2370 C   0  0  0  0  0  0  0  0  0  0  0  0
  -28.0083  -17.4160   23.9504 C   0  0  0  0  0  0  0  0  0  0  0  0
  -30.0873  -16.1886   24.0403 C   0  0  0  0  0  0  0  0  0  0  0  0
  -30.3398  -19.4856   20.6395 C   0  0  0  0  0  0  0  0  0  0  0  0
  -29.9012  -19.1164   21.9063 C   0  0  0  0  0  0  0  0  0  0  0  0
  -29.2606  -17.1198   23.4119 C   0  0  0  0  0  0  0  0  0  0  0  0
  -23.0509   -7.9453   21.8412 C   0  0  0  0  0  0  0  0  0  0  0  0
  -31.1361  -22.5790   18.9333 C   0  0  0  0  0  0  0  0  0  0  0  0
  -21.2988   -6.3945   21.6237 C   0  0  0  0  0  0  0  0  0  0  0  0
  -18.8278   -5.7116   20.5234 C   0  0  0  0  0  0  0  0  0  0  0  0
  -21.1826   -5.2602   20.8203 C   0  0  0  0  0  0  0  0  0  0  0  0
  -24.6877  -11.7095   20.8168 C   0  0  0  0  0  0  0  0  0  0  0  0
  -29.8869  -21.4158   22.5143 C   0  0  0  0  0  0  0  0  0  0  0  0
  -30.5286  -20.8347   20.3861 C   0  0  0  0  0  0  0  0  0  1  0  0
  -24.9790  -13.8471   20.3919 C   0  0  0  0  0  0  0  0  0  0  0  0
  -22.6448  -13.2529   21.0602 C   0  0  0  0  0  0  0  0  0  0  0  0
  -29.8430  -27.7994   19.6677 C   0  0  0  0  0  0  0  0  0  0  0  0
  -28.4879  -27.7715   16.7206 C   0  0  0  0  0  0  0  0  0  0  0  0
  -27.7005  -26.0022   13.9105 C   0  0  0  0  0  0  0  0  0  0  0  0
  -30.9485  -13.8813   20.8551 C   0  0  0  0  0  0  0  0  0  0  0  0
  -29.7729  -32.2665   22.1371 C   0  0  0  0  0  0  0  0  0  0  0  0
  -31.6892  -26.7963   18.2744 C   0  0  0  0  0  0  0  0  0  0  0  0
  -29.0775  -25.5280   17.7129 C   0  0  0  0  0  0  0  0  0  0  0  0
  -28.8536  -31.5490   21.1521 C   0  0  0  0  0  0  0  0  0  0  0  0
  -29.0316  -14.1477   17.8666 C   0  0  0  0  0  0  0  0  0  0  0  0
  -28.6120  -30.1104   21.5981 C   0  0  0  0  0  0  0  0  0  0  0  0
  -27.6404  -13.6646   18.2802 C   0  0  0  0  0  0  0  0  0  0  0  0
  -30.1347  -13.3632   18.5735 C   0  0  0  0  0  0  0  0  0  0  0  0
  -28.6329  -12.8440   20.4574 C   0  0  0  0  0  0  0  0  0  0  0  0
  -29.9240  -29.3174   21.6374 C   0  0  1  0  0  0  0  0  0  0  0  0
  -30.3898  -27.5957   18.2831 C   0  0  1  0  0  0  0  0  0  0  0  0
  -27.4870  -13.6427   19.8129 C   0  0  2  0  0  0  0  0  0  0  0  0
  -27.1003  -18.4085   23.2994 C   0  0  0  0  0  0  0  0  0  0  0  0
  -30.5996  -18.4661   19.5815 C   0  0  0  0  0  0  0  0  0  0  0  0
  -29.6472  -22.4914   23.5206 C   0  0  0  0  0  0  0  0  0  0  0  0
  -26.5591  -26.2399   11.6883 C   0  0  0  0  0  0  0  0  0  0  0  0
  -25.7720  -27.6701   18.1075 C   0  0  0  0  0  0  0  0  0  0  0  0
  -24.7639  -26.9596   15.9287 C   0  0  0  0  0  0  0  0  0  0  0  0
  -25.8729  -29.1858   16.1208 C   0  0  0  0  0  0  0  0  0  0  0  0
  -30.1816  -25.3484   12.4356 C   0  0  0  0  0  0  0  0  0  0  0  0
  -31.4332  -15.8497   23.4866 C   0  0  0  0  0  0  0  0  0  0  0  0
  -31.6170  -14.3562   23.1975 C   0  0  0  0  0  0  0  0  0  0  0  0
  -27.2905  -27.0924   16.1009 C   0  0  1  0  0  0  0  0  0  0  0  0
  -27.8804  -26.3196   12.4370 C   0  0  2  0  0  0  0  0  0  0  0  0
  -25.9460  -27.7120   16.5762 C   0  0  0  0  0  0  0  0  0  0  0  0
  -25.9774  -11.8119   20.4848 N   0  0  0  0  0  0  0  0  0  0  0  0
  -30.3127  -21.8127   21.2941 N   0  0  0  0  0  0  0  0  0  0  0  0
  -26.1240  -13.1236   20.2317 N   0  0  0  0  0  0  0  0  0  0  0  0
  -29.3310  -26.9618   17.4948 N   0  0  0  0  0  0  0  0  0  0  0  0
  -29.9317  -13.3828   20.0242 N   0  0  0  0  0  0  0  0  0  0  0  0
  -24.9494  -15.1798   20.1786 N   0  0  0  0  0  0  0  0  0  0  0  0
  -21.7916  -12.2084   21.4415 N   0  0  0  0  0  0  0  0  0  0  0  0
  -29.6894  -17.7600   22.2338 N   0  0  0  0  0  0  0  0  0  0  0  0
  -30.3212  -28.9309   20.3006 N   0  0  0  0  0  0  0  0  0  0  0  0
  -27.4944  -27.1429   14.6572 N   0  0  0  0  0  0  0  0  0  0  0  0
  -30.6723  -13.8699   22.2169 N   0  0  0  0  0  0  0  0  0  0  0  0
  -28.8330  -25.3584   11.8126 N   0  3  0  0  0  0  0  0  0  0  0  0
  -22.1855  -14.4161   20.9624 O   0  0  0  0  0  0  0  0  0  0  0  0
  -29.0450  -26.9909   20.1272 O   0  0  0  0  0  0  0  0  0  0  0  0
  -28.6725  -28.9744   16.5191 O   0  0  0  0  0  0  0  0  0  0  0  0
  -27.7353  -24.8566   14.3542 O   0  0  0  0  0  0  0  0  0  0  0  0
  -32.0209  -14.3101   20.4157 O   0  0  0  0  0  0  0  0  0  0  0  0
  -22.5244   -6.7343   22.1714 O   0  0  0  0  0  0  0  0  0  0  0  0
  -30.9646  -21.2445   19.1372 O   0  0  0  0  0  0  0  0  0  1  0  0
  -17.6411   -5.3830   19.9964 F   0  0  0  0  0  0  0  0  0  0  0  0
  -22.2542   -4.4939   20.5744 F   0  0  0  0  0  0  0  0  0  0  0  0
  1  2  1  0  0  0  0
  1  6  2  0  0  0  0
  2  7  2  0  0  0  0
  3  9  1  0  0  0  0
  3 10  2  0  0  0  0
  4 11  2  0  0  0  0
  4 19  1  0  0  0  0
  5 12  1  0  0  0  0
  5 19  2  0  0  0  0
  6 21  1  0  0  0  0
  7 23  1  0  0  0  0
  8 13  2  0  0  0  0
  8 22  1  0  0  0  0
  9 25  2  0  0  0  0
 10 26  1  0  0  0  0
 11 30  1  0  0  0  0
 12 30  2  0  0  0  0
 13 31  1  0  0  0  0
 14 15  2  0  0  0  0
 14 32  1  0  0  0  0
 15 33  1  0  0  0  0
 16 24  1  0  0  0  0
 16 31  2  0  0  0  0
 17 28  2  0  0  0  0
 17 36  1  0  0  0  0
 18 33  2  0  0  0  0
 18 34  1  0  0  0  0
 19 35  1  0  0  0  0
 20 35  1  0  0  0  0
 20 38  2  0  0  0  0
 20 39  1  0  0  0  0
 21 23  2  0  0  0  0
 21 44  1  0  0  0  0
 22 24  2  0  0  0  0
 22 45  1  0  0  0  0
 23 53  1  0  0  0  0
 24 46  1  0  0  0  0
 25 29  1  0  0  0  0
 25 56  1  0  0  0  0
 26 29  2  0  0  0  0
 26 64  1  0  0  0  0
 27 28  1  0  0  0  0
 27 37  2  0  0  0  0
 27 57  1  0  0  0  0
 28 76  1  0  0  0  0
 29 76  1  0  0  0  0
 30 86  1  0  0  0  0
 31 87  1  0  0  0  0
 32 34  2  0  0  0  0
 32 86  1  0  0  0  0
 33 88  1  0  0  0  0
 34 89  1  0  0  0  0
 35 69  2  0  0  0  0
 36 58  1  0  0  0  0
 36 70  2  0  0  0  0
 37 70  1  0  0  0  0
 37 87  1  0  0  0  0
 38 71  1  0  0  0  0
 38 74  1  0  0  0  0
 39 75  1  0  0  0  0
 39 81  2  0  0  0  0
 40 54  1  0  0  0  0
 40 77  1  0  0  0  0
 40 82  2  0  0  0  0
 41 66  1  0  0  0  0
 41 72  1  0  0  0  0
 41 83  2  0  0  0  0
 42 67  1  0  0  0  0
 42 78  1  0  0  0  0
 42 84  2  0  0  0  0
 43 73  1  0  0  0  0
 43 79  1  0  0  0  0
 43 85  2  0  0  0  0
 44 47  1  0  0  0  0
 45 54  1  0  0  0  0
 46 72  1  0  0  0  0
 47 49  1  0  0  0  0
 48 50  1  0  0  0  0
 48 51  1  0  0  0  0
 49 53  1  0  0  0  0
 50 55  1  0  0  0  0
 51 73  1  0  0  0  0
 52 55  1  0  0  0  0
 52 73  1  0  0  0  0
 53 77  1  0  0  0  0
 54 72  1  0  0  0  0
 55 71  1  0  0  0  0
 59 67  1  0  0  0  0
 60 68  1  0  0  0  0
 61 68  1  0  0  0  0
 62 68  1  0  0  0  0
 63 80  1  0  0  0  0
 64 65  1  0  0  0  0
 65 79  1  0  0  0  0
 66 68  1  0  0  0  0
 66 78  1  0  0  0  0
 67 80  1  0  0  0  0
 69 71  1  0  0  0  0
M  CHG  1  80   1
M  ISO  4  37 101  43 100  79 100  87 101
M  END
> <Batch ID>
0139

> <Smiles>
CNC(C)C(=O)NC(C(=O)N1Cc2cc([101O:1][101c:1]3nc(C)cc(Nc4c(C)cccc4CC[100NH:0][100C:0](=O)N4CCCC(n5nc(-c6ccc(Oc7ccc(F)cc7F)cc6)c(C(N)=O)c5N)C4)c3C)ccc2CC1C(=O)NC1CCCc2ccccc21)C(C)(C)C

> <Shape>
0.223

> <Color>
0.155

> <Negative vol penalty>
0.000

$$$$

  -OEChem-04052321103D

 85 94  0     1  0  0  0  0  0999 V2000
  -23.3408   -8.7227   21.8982 C   0  0  0  0  0  0  0  0  0  0  0  0
  -24.5450   -9.3972   22.0727 C   0  0  0  0  0  0  0  0  0  0  0  0
  -22.5937  -27.4422   19.4945 C   0  0  0  0  0  0  0  0  0  0  0  0
  -23.4930  -26.0253   21.2326 C   0  0  0  0  0  0  0  0  0  0  0  0
  -22.3226   -9.3009   21.1415 C   0  0  0  0  0  0  0  0  0  0  0  0
  -24.7320  -10.6499   21.4895 C   0  0  0  0  0  0  0  0  0  0  0  0
  -28.0621  -16.8915   22.6160 C   0  0  0  0  0  0  0  0  0  0  0  0
  -31.9594  -22.3247   19.1996 C   0  0  0  0  0  0  0  0  0  0  0  0
  -30.9018  -21.5732   19.7009 C   0  0  0  0  0  0  0  0  0  0  0  0
  -21.3835  -26.7515   19.5576 C   0  0  0  0  0  0  0  0  0  0  0  0
  -22.2828  -25.3347   21.2957 C   0  0  0  0  0  0  0  0  0  0  0  0
  -28.9303  -17.7790   21.9816 C   0  0  0  0  0  0  0  0  0  0  0  0
  -18.6499  -26.6925   21.5467 C   0  0  0  0  0  0  0  0  0  0  0  0
  -17.4746  -27.4435   21.5553 C   0  0  0  0  0  0  0  0  0  0  0  0
  -27.0720  -18.7150   20.7612 C   0  0  0  0  0  0  0  0  0  0  0  0
  -16.7597  -26.3478   19.5241 C   0  0  0  0  0  0  0  0  0  0  0  0
  -23.6485  -27.0791   20.3319 C   0  0  0  0  0  0  0  0  0  0  0  0
  -25.2672  -28.9319   21.0060 C   0  0  0  0  0  0  0  0  0  0  0  0
  -22.4936  -10.5656   20.5568 C   0  0  0  0  0  0  0  0  0  0  0  0
  -26.6917  -16.9018   22.3192 C   0  0  0  0  0  0  0  0  0  0  0  0
  -23.7156  -11.2450   20.7231 C   0  0  0  0  0  0  0  0  0  0  0  0
  -26.1881  -17.8284   21.3951 C   0  0  0  0  0  0  0  0  0  0  0  0
  -30.7978  -22.5558   17.0747 C   0  0  0  0  0  0  0  0  0  0  0  0
  -29.7279  -21.7911   17.5783 C   0  0  0  0  0  0  0  0  0  0  0  0
  -31.9104  -22.8088   17.8932 C   0  0  0  0  0  0  0  0  0  0  0  0
  -29.7947  -21.3067   18.8961 C   0  0  0  0  0  0  0  0  0  0  0  0
  -21.2280  -25.6977   20.4582 C   0  0  0  0  0  0  0  0  0  0  0  0
  -28.4357  -18.6890   21.0519 C   0  0  0  0  0  0  0  0  0  0  0  0
  -18.8802  -25.7691   20.5269 C   0  0  0  0  0  0  0  0  0  0  0  0
  -16.5294  -27.2712   20.5440 C   0  0  0  0  0  0  0  0  0  0  0  0
  -17.9350  -25.5968   19.5156 C   0  0  0  0  0  0  0  0  0  0  0  0
  -24.8990  -27.7918   20.2668 C   0  0  0  0  0  0  0  0  0  0  0  0
  -26.5416  -29.2192   20.5819 C   0  0  0  0  0  0  0  0  0  0  0  0
  -24.5237  -29.6656   21.9881 C   0  0  0  0  0  0  0  0  0  0  0  0
  -24.6472  -14.8019   21.0888 C   0  0  0  0  0  0  0  0  0  0  0  0
  -22.4624  -17.0819   21.8309 C   0  0  0  0  0  0  0  0  0  0  0  0
  -21.8028  -20.3755   22.4339 C   0  0  0  0  0  0  0  0  0  0  0  0
  -30.7905  -25.8123   18.3028 C   0  0  0  0  0  0  0  0  0  0  0  0
  -21.3817  -11.1293   19.7080 C   0  0  0  0  0  0  0  0  0  0  0  0
  -25.7644  -15.9560   23.0319 C   0  0  0  0  0  0  0  0  0  0  0  0
  -30.8201  -23.0559   15.6521 C   0  0  0  0  0  0  0  0  0  0  0  0
  -24.7221  -17.8938   21.0562 C   0  0  0  0  0  0  0  0  0  0  0  0
  -21.5218  -12.6248   19.4353 C   0  0  0  0  0  0  0  0  0  0  0  0
  -29.4539  -23.0338   14.9731 C   0  0  0  0  0  0  0  0  0  0  0  0
  -29.4079  -28.7867   16.7734 C   0  0  0  0  0  0  0  0  0  0  0  0
  -28.7466  -21.7108   15.2410 C   0  0  0  0  0  0  0  0  0  0  0  0
  -22.9492  -12.9592   19.0143 C   0  0  0  0  0  0  0  0  0  0  0  0
  -28.1202  -28.9720   17.5782 C   0  0  0  0  0  0  0  0  0  0  0  0
  -29.6973  -27.3091   16.5259 C   0  0  0  0  0  0  0  0  0  0  0  0
  -28.4776  -26.6625   18.5675 C   0  0  0  0  0  0  0  0  0  0  0  0
  -28.4955  -21.4969   16.7428 C   0  0  2  0  0  0  0  0  0  0  0  0
  -23.9473  -12.6165   20.1269 C   0  0  1  0  0  0  0  0  0  0  0  0
  -24.4643  -15.7085   22.2730 C   0  0  1  0  0  0  0  0  0  0  0  0
  -28.1416  -28.1340   18.8704 C   0  0  2  0  0  0  0  0  0  0  0  0
  -27.3046  -22.3320   17.2301 C   0  0  0  0  0  0  0  0  0  0  0  0
  -19.9168  -21.9399   22.9753 C   0  0  0  0  0  0  0  0  0  0  0  0
  -21.5193  -16.9442   18.9323 C   0  0  0  0  0  0  0  0  0  0  0  0
  -20.3420  -19.1254   19.2848 C   0  0  0  0  0  0  0  0  0  0  0  0
  -19.6822  -17.1241   20.6197 C   0  0  0  0  0  0  0  0  0  0  0  0
  -23.0453  -21.1710   24.9995 C   0  0  0  0  0  0  0  0  0  0  0  0
  -33.0863  -23.5899   17.3971 C   0  0  0  0  0  0  0  0  0  0  0  0
  -28.7063  -20.4612   19.4892 C   0  0  0  0  0  0  0  0  0  1  0  0
  -33.1126  -25.0364   17.8991 C   0  0  0  0  0  0  0  0  0  0  0  0
  -21.8777  -18.2756   21.1152 C   0  0  1  0  0  0  0  0  0  0  0  0
  -21.0210  -21.0601   23.5405 C   0  0  2  0  0  0  0  0  0  0  0  0
  -20.8832  -17.8650   19.9927 C   0  0  0  0  0  0  0  0  0  0  0  0
  -25.8617  -27.3829   19.4361 N   0  0  0  0  0  0  0  0  0  0  0  0
  -26.8473  -28.2709   19.6506 N   0  0  0  0  0  0  0  0  0  0  0  0
  -23.8566  -16.9441   21.7749 N   0  0  0  0  0  0  0  0  0  0  0  0
  -29.7224  -26.5716   17.7970 N   0  0  0  0  0  0  0  0  0  0  0  0
  -27.4193  -30.1881   20.9186 N   0  0  0  0  0  0  0  0  0  0  0  0
  -23.2286  -29.2341   22.3054 N   0  0  0  0  0  0  0  0  0  0  0  0
  -23.9195  -13.6293   21.1603 N   0  0  0  0  0  0  0  0  0  0  0  0
  -21.2954  -19.1258   22.1479 N   0  0  0  0  0  0  0  0  0  0  0  0
  -31.9302  -25.7717   17.5089 N   0  0  0  0  0  0  0  0  0  0  0  0
  -21.9257  -21.9118   24.3634 N   0  3  0  0  0  0  0  0  0  0  0  0
  -24.9878  -30.6837   22.5552 O   0  0  0  0  0  0  0  0  0  0  0  0
  -25.3920  -15.1417   20.1770 O   0  0  0  0  0  0  0  0  0  0  0  0
  -21.7104  -16.3044   22.4239 O   0  0  0  0  0  0  0  0  0  0  0  0
  -22.7650  -20.8988   21.8762 O   0  0  0  0  0  0  0  0  0  0  0  0
  -30.7348  -25.2183   19.3850 O   0  0  0  0  0  0  0  0  0  0  0  0
  -20.0472  -25.0237   20.5203 O   0  0  0  0  0  0  0  0  0  0  0  0
  -29.2810  -19.5558   20.4308 O   0  0  0  0  0  0  0  0  0  1  0  0
  -15.4001  -27.9914   20.5532 F   0  0  0  0  0  0  0  0  0  0  0  0
  -18.1502  -24.7104   18.5339 F   0  0  0  0  0  0  0  0  0  0  0  0
  1  2  1  0  0  0  0
  1  5  2  0  0  0  0
  2  6  2  0  0  0  0
  3 10  2  0  0  0  0
  3 17  1  0  0  0  0
  4 11  1  0  0  0  0
  4 17  2  0  0  0  0
  5 19  1  0  0  0  0
  6 21  1  0  0  0  0
  7 12  2  0  0  0  0
  7 20  1  0  0  0  0
  8  9  2  0  0  0  0
  8 25  1  0  0  0  0
  9 26  1  0  0  0  0
 10 27  1  0  0  0  0
 11 27  2  0  0  0  0
 12 28  1  0  0  0  0
 13 14  2  0  0  0  0
 13 29  1  0  0  0  0
 14 30  1  0  0  0  0
 15 22  1  0  0  0  0
 15 28  2  0  0  0  0
 16 30  2  0  0  0  0
 16 31  1  0  0  0  0
 17 32  1  0  0  0  0
 18 32  1  0  0  0  0
 18 33  2  0  0  0  0
 18 34  1  0  0  0  0
 19 21  2  0  0  0  0
 19 39  1  0  0  0  0
 20 22  2  0  0  0  0
 20 40  1  0  0  0  0
 21 52  1  0  0  0  0
 22 42  1  0  0  0  0
 23 24  1  0  0  0  0
 23 25  2  0  0  0  0
 23 41  1  0  0  0  0
 24 26  2  0  0  0  0
 24 51  1  0  0  0  0
 25 61  1  0  0  0  0
 26 62  1  0  0  0  0
 27 82  1  0  0  0  0
 28 83  1  0  0  0  0
 29 31  2  0  0  0  0
 29 82  1  0  0  0  0
 30 84  1  0  0  0  0
 31 85  1  0  0  0  0
 32 67  2  0  0  0  0
 33 68  1  0  0  0  0
 33 71  1  0  0  0  0
 34 72  1  0  0  0  0
 34 77  2  0  0  0  0
 35 53  1  0  0  0  0
 35 73  1  0  0  0  0
 35 78  2  0  0  0  0
 36 64  1  0  0  0  0
 36 69  1  0  0  0  0
 36 79  2  0  0  0  0
 37 65  1  0  0  0  0
 37 74  1  0  0  0  0
 37 80  2  0  0  0  0
 38 70  1  0  0  0  0
 38 75  1  0  0  0  0
 38 81  2  0  0  0  0
 39 43  1  0  0  0  0
 40 53  1  0  0  0  0
 41 44  1  0  0  0  0
 42 69  1  0  0  0  0
 43 47  1  0  0  0  0
 44 46  1  0  0  0  0
 45 48  1  0  0  0  0
 45 49  1  0  0  0  0
 46 51  1  0  0  0  0
 47 52  1  0  0  0  0
 48 54  1  0  0  0  0
 49 70  1  0  0  0  0
 50 54  1  0  0  0  0
 50 70  1  0  0  0  0
 51 55  1  0  0  0  0
 52 73  1  0  0  0  0
 53 69  1  0  0  0  0
 54 68  1  0  0  0  0
 56 65  1  0  0  0  0
 57 66  1  0  0  0  0
 58 66  1  0  0  0  0
 59 66  1  0  0  0  0
 60 76  1  0  0  0  0
 61 63  1  0  0  0  0
 62 83  1  0  0  0  0
 63 75  1  0  0  0  0
 64 66  1  0  0  0  0
 64 74  1  0  0  0  0
 65 76  1  0  0  0  0
 67 68  1  0  0  0  0
M  CHG  1  76   1
M  ISO  4  38 100  62 101  75 100  83 101
M  END
> <Batch ID>
0139

> <Smiles>
CNC(C)C(=O)NC(C(=O)N1Cc2cc([101O:1][101CH2:1]c3ccc(CC[100NH:0][100C:0](=O)N4CCCC(n5nc(-c6ccc(Oc7ccc(F)cc7F)cc6)c(C(N)=O)c5N)C4)c4c3C(C)CCC4)ccc2CC1C(=O)NC1CCCc2ccccc21)C(C)(C)C

> <Shape>
0.196

> <Color>
0.075

> <Negative vol penalty>
0.000

$$$$

  -OEChem-04052321103D

 88 97  0     1  0  0  0  0  0999 V2000
  -32.3628  -13.9204   21.1358 C   0  0  0  0  0  0  0  0  0  0  0  0
  -31.6006  -15.0574   21.3842 C   0  0  0  0  0  0  0  0  0  0  0  0
  -29.1635  -25.9715   20.3187 C   0  0  0  0  0  0  0  0  0  0  0  0
  -27.2185  -24.5418   20.2193 C   0  0  0  0  0  0  0  0  0  0  0  0
  -31.7936  -12.8313   20.4770 C   0  0  0  0  0  0  0  0  0  0  0  0
  -30.2691  -15.1065   20.9729 C   0  0  0  0  0  0  0  0  0  0  0  0
  -25.6312  -17.8961   23.8389 C   0  0  0  0  0  0  0  0  0  0  0  0
  -21.6085  -26.8563   24.8926 C   0  0  0  0  0  0  0  0  0  0  0  0
  -29.9362  -24.8909   20.7440 C   0  0  0  0  0  0  0  0  0  0  0  0
  -27.9912  -23.4611   20.6447 C   0  0  0  0  0  0  0  0  0  0  0  0
  -25.0170  -19.1327   23.6456 C   0  0  0  0  0  0  0  0  0  0  0  0
  -22.2384  -25.6296   25.1023 C   0  0  0  0  0  0  0  0  0  0  0  0
  -29.5285  -20.2446   21.3577 C   0  0  0  0  0  0  0  0  0  0  0  0
  -29.3698  -19.0303   20.6900 C   0  0  0  0  0  0  0  0  0  0  0  0
  -23.3128  -18.0704   22.3089 C   0  0  0  0  0  0  0  0  0  0  0  0
  -20.5230  -24.5272   23.8065 C   0  0  0  0  0  0  0  0  0  0  0  0
  -30.0462  -20.0794   18.6214 C   0  0  0  0  0  0  0  0  0  0  0  0
  -27.8047  -25.7970   20.0564 C   0  0  0  0  0  0  0  0  0  0  0  0
  -26.7728  -27.3219   18.2908 C   0  0  0  0  0  0  0  0  0  0  0  0
  -30.4517  -12.8633   20.0661 C   0  0  0  0  0  0  0  0  0  0  0  0
  -25.0961  -16.7371   23.2586 C   0  0  0  0  0  0  0  0  0  0  0  0
  -29.6819  -14.0173   20.3069 C   0  0  0  0  0  0  0  0  0  0  0  0
  -23.9207  -16.8200   22.4984 C   0  0  0  0  0  0  0  0  0  0  0  0
  -20.4358  -26.9185   24.1399 C   0  0  0  0  0  0  0  0  0  0  0  0
  -19.8930  -25.7539   23.5968 C   0  0  0  0  0  0  0  0  0  0  0  0
  -29.3500  -23.6357   20.9070 C   0  0  0  0  0  0  0  0  0  0  0  0
  -23.8592  -19.2204   22.8781 C   0  0  0  0  0  0  0  0  0  0  0  0
  -21.6957  -24.4651   24.5593 C   0  0  0  0  0  0  0  0  0  0  0  0
  -29.9459  -21.3763   20.6573 C   0  0  0  0  0  0  0  0  0  0  0  0
  -29.6287  -18.9476   19.3219 C   0  0  0  0  0  0  0  0  0  0  0  0
  -30.2048  -21.2937   19.2892 C   0  0  0  0  0  0  0  0  0  0  0  0
  -27.0059  -26.9130   19.6175 C   0  0  0  0  0  0  0  0  0  0  0  0
  -25.9577  -28.4211   18.4085 C   0  0  0  0  0  0  0  0  0  0  0  0
  -27.2503  -26.7585   17.0618 C   0  0  0  0  0  0  0  0  0  0  0  0
  -26.1301  -14.6078   21.1371 C   0  0  0  0  0  0  0  0  0  0  0  0
  -23.3739  -13.0809   21.9078 C   0  0  0  0  0  0  0  0  0  0  0  0
  -20.1935  -13.2834   23.1288 C   0  0  0  0  0  0  0  0  0  0  0  0
  -22.1221  -30.2186   22.6403 C   0  0  0  0  0  0  0  0  0  0  0  0
  -29.8940  -11.6800   19.3154 C   0  0  0  0  0  0  0  0  0  0  0  0
  -25.7556  -15.4068   23.4988 C   0  0  0  0  0  0  0  0  0  0  0  0
  -23.2948  -15.6024   21.8706 C   0  0  0  0  0  0  0  0  0  0  0  0
  -28.3692  -11.6669   19.2452 C   0  0  0  0  0  0  0  0  0  0  0  0
  -24.9292  -32.0178   21.3913 C   0  0  0  0  0  0  0  0  0  0  0  0
  -27.8409  -13.0436   18.8549 C   0  0  0  0  0  0  0  0  0  0  0  0
  -17.7827  -25.4243   19.7761 C   0  0  0  0  0  0  0  0  0  0  0  0
  -17.0056  -24.1464   19.9280 C   0  0  0  0  0  0  0  0  0  0  0  0
  -25.7587  -30.9504   20.6754 C   0  0  0  0  0  0  0  0  0  0  0  0
  -24.2629  -31.4650   22.6493 C   0  0  0  0  0  0  0  0  0  0  0  0
  -24.2852  -29.1813   21.7231 C   0  0  0  0  0  0  0  0  0  0  0  0
  -28.2271  -14.0989   19.8983 C   0  0  1  0  0  0  0  0  0  0  0  0
  -25.4118  -14.3687   22.4350 C   0  0  1  0  0  0  0  0  0  0  0  0
  -17.2007  -25.0527   21.1117 C   0  0  0  0  0  0  0  0  0  0  0  0
  -24.9315  -29.6766   20.4179 C   0  0  2  0  0  0  0  0  0  0  0  0
  -18.1719  -11.8740   23.6027 C   0  0  0  0  0  0  0  0  0  0  0  0
  -17.3500  -23.8821   23.3373 C   0  0  0  0  0  0  0  0  0  0  0  0
  -22.7224  -13.0175   18.9276 C   0  0  0  0  0  0  0  0  0  0  0  0
  -20.3497  -12.4909   19.5286 C   0  0  0  0  0  0  0  0  0  0  0  0
  -22.1744  -10.9117   20.1603 C   0  0  0  0  0  0  0  0  0  0  0  0
  -20.2905  -13.9104   26.0195 C   0  0  0  0  0  0  0  0  0  0  0  0
  -19.7822  -28.2458   23.9312 C   0  0  0  0  0  0  0  0  0  0  0  0
  -20.0535  -28.8506   22.5497 C   0  0  0  0  0  0  0  0  0  0  0  0
  -23.3952  -21.3924   23.7285 C   0  0  0  0  0  0  0  0  0  1  0  0
  -22.1665  -22.2809   23.7446 C   0  0  0  0  0  0  0  0  0  0  0  0
  -21.9556  -13.1091   21.3913 C   0  0  1  0  0  0  0  0  0  0  0  0
  -19.4587  -12.4554   24.1676 C   0  0  2  0  0  0  0  0  0  0  0  0
  -18.1125  -24.6330   22.2556 C   0  0  2  0  0  0  0  0  0  0  0  0
  -21.8131  -12.4057   20.0120 C   0  0  0  0  0  0  0  0  0  0  0  0
  -26.3889  -27.6893   20.5123 N   0  0  0  0  0  0  0  0  0  0  0  0
  -25.7602  -28.5971   19.7464 N   0  0  0  0  0  0  0  0  0  0  0  0
  -23.9805  -14.3255   22.1292 N   0  0  0  0  0  0  0  0  0  0  0  0
  -23.4929  -30.2587   22.3363 N   0  0  0  0  0  0  0  0  0  0  0  0
  -25.3980  -29.2447   17.4970 N   0  0  0  0  0  0  0  0  0  0  0  0
  -28.0782  -25.6293   17.1217 N   0  0  0  0  0  0  0  0  0  0  0  0
  -18.7066  -25.7980   22.8322 N   0  0  0  0  0  0  0  0  0  0  0  0
  -27.3685  -13.9997   21.0591 N   0  0  0  0  0  0  0  0  0  0  0  0
  -21.1262  -12.5332   22.4443 N   0  0  0  0  0  0  0  0  0  0  0  0
  -21.4659  -29.0406   22.3051 N   0  0  0  0  0  0  0  0  0  0  0  0
  -19.1158  -13.2943   25.3506 N   0  3  0  0  0  0  0  0  0  0  0  0
  -26.9649  -27.2520   15.9444 O   0  0  0  0  0  0  0  0  0  0  0  0
  -25.5994  -15.2921   20.2700 O   0  0  0  0  0  0  0  0  0  0  0  0
  -23.9208  -11.9947   22.1142 O   0  0  0  0  0  0  0  0  0  0  0  0
  -19.9605  -14.4754   22.9406 O   0  0  0  0  0  0  0  0  0  0  0  0
  -21.5261  -31.1647   23.1663 O   0  0  0  0  0  0  0  0  0  0  0  0
  -30.1037  -22.5810   21.3218 O   0  0  0  0  0  0  0  0  0  0  0  0
  -23.2580  -20.4263   22.6873 O   0  0  0  0  0  0  0  0  0  1  0  0
  -22.3147  -23.2603   24.7655 O   0  0  0  0  0  0  0  0  0  0  0  0
  -29.4778  -17.7811   18.6811 F   0  0  0  0  0  0  0  0  0  0  0  0
  -30.6072  -22.3773   18.6112 F   0  0  0  0  0  0  0  0  0  0  0  0
  1  2  1  0  0  0  0
  1  5  2  0  0  0  0
  2  6  2  0  0  0  0
  3  9  2  0  0  0  0
  3 18  1  0  0  0  0
  4 10  1  0  0  0  0
  4 18  2  0  0  0  0
  5 20  1  0  0  0  0
  6 22  1  0  0  0  0
  7 11  2  0  0  0  0
  7 21  1  0  0  0  0
  8 12  2  0  0  0  0
  8 24  1  0  0  0  0
  9 26  1  0  0  0  0
 10 26  2  0  0  0  0
 11 27  1  0  0  0  0
 12 28  1  0  0  0  0
 13 14  2  0  0  0  0
 13 29  1  0  0  0  0
 14 30  1  0  0  0  0
 15 23  1  0  0  0  0
 15 27  2  0  0  0  0
 16 25  1  0  0  0  0
 16 28  2  0  0  0  0
 17 30  2  0  0  0  0
 17 31  1  0  0  0  0
 18 32  1  0  0  0  0
 19 32  1  0  0  0  0
 19 33  2  0  0  0  0
 19 34  1  0  0  0  0
 20 22  2  0  0  0  0
 20 39  1  0  0  0  0
 21 23  2  0  0  0  0
 21 40  1  0  0  0  0
 22 50  1  0  0  0  0
 23 41  1  0  0  0  0
 24 25  2  0  0  0  0
 24 60  1  0  0  0  0
 25 74  1  0  0  0  0
 26 84  1  0  0  0  0
 27 85  1  0  0  0  0
 28 86  1  0  0  0  0
 29 31  2  0  0  0  0
 29 84  1  0  0  0  0
 30 87  1  0  0  0  0
 31 88  1  0  0  0  0
 32 68  2  0  0  0  0
 33 69  1  0  0  0  0
 33 72  1  0  0  0  0
 34 73  1  0  0  0  0
 34 79  2  0  0  0  0
 35 51  1  0  0  0  0
 35 75  1  0  0  0  0
 35 80  2  0  0  0  0
 36 64  1  0  0  0  0
 36 70  1  0  0  0  0
 36 81  2  0  0  0  0
 37 65  1  0  0  0  0
 37 76  1  0  0  0  0
 37 82  2  0  0  0  0
 38 71  1  0  0  0  0
 38 77  1  0  0  0  0
 38 83  2  0  0  0  0
 39 42  1  0  0  0  0
 40 51  1  0  0  0  0
 41 70  1  0  0  0  0
 42 44  1  0  0  0  0
 43 47  1  0  0  0  0
 43 48  1  0  0  0  0
 44 50  1  0  0  0  0
 45 46  1  0  0  0  0
 45 52  1  0  0  0  0
 46 52  1  0  0  0  0
 47 53  1  0  0  0  0
 48 71  1  0  0  0  0
 49 53  1  0  0  0  0
 49 71  1  0  0  0  0
 50 75  1  0  0  0  0
 51 70  1  0  0  0  0
 52 66  1  0  0  0  0
 53 69  1  0  0  0  0
 54 65  1  0  0  0  0
 55 66  1  0  0  0  0
 56 67  1  0  0  0  0
 57 67  1  0  0  0  0
 58 67  1  0  0  0  0
 59 78  1  0  0  0  0
 60 61  1  0  0  0  0
 61 77  1  0  0  0  0
 62 63  1  0  0  0  0
 62 85  1  0  0  0  0
 63 86  1  0  0  0  0
 64 67  1  0  0  0  0
 64 76  1  0  0  0  0
 65 78  1  0  0  0  0
 66 74  1  0  0  0  0
 68 69  1  0  0  0  0
M  CHG  1  78   1
M  ISO  4  38 100  62 101  77 100  85 101
M  END
> <Batch ID>
0139

> <Smiles>
CNC(C)C(=O)NC(C(=O)N1Cc2cc([101O:1][101CH2:1]COc3ccc(CC[100NH:0][100C:0](=O)N4CCCC(n5nc(-c6ccc(Oc7ccc(F)cc7F)cc6)c(C(N)=O)c5N)C4)c(NC(C)C4CC4)c3)ccc2CC1C(=O)NC1CCCc2ccccc21)C(C)(C)C

> <Shape>
0.262

> <Color>
0.080

> <Negative vol penalty>
0.000

$$$$

  -OEChem-04052321103D

 91101  0     1  0  0  0  0  0999 V2000
  -25.5330  -38.6890   22.3272 C   0  0  0  0  0  0  0  0  0  0  0  0
  -26.2689  -37.8324   21.5147 C   0  0  0  0  0  0  0  0  0  0  0  0
  -23.6414   -9.1081   23.8154 C   0  0  0  0  0  0  0  0  0  0  0  0
  -22.1464  -10.3642   22.3926 C   0  0  0  0  0  0  0  0  0  0  0  0
  -24.9176  -38.1987   23.4783 C   0  0  0  0  0  0  0  0  0  0  0  0
  -26.3907  -36.4853   21.8534 C   0  0  0  0  0  0  0  0  0  0  0  0
  -26.9754  -30.0057   18.8549 C   0  0  0  0  0  0  0  0  0  0  0  0
  -23.2134   -7.9224   23.2183 C   0  0  0  0  0  0  0  0  0  0  0  0
  -21.7184   -9.1785   21.7955 C   0  0  0  0  0  0  0  0  0  0  0  0
  -27.7809  -28.8686   18.8961 C   0  0  0  0  0  0  0  0  0  0  0  0
  -20.5522   -5.8490   23.4259 C   0  0  0  0  0  0  0  0  0  0  0  0
  -20.2614   -4.7713   24.2623 C   0  0  0  0  0  0  0  0  0  0  0  0
  -26.6087  -28.1169   20.8659 C   0  0  0  0  0  0  0  0  0  0  0  0
  -29.8274  -24.3234   18.2739 C   0  0  0  0  0  0  0  0  0  0  0  0
  -31.7246  -24.0199   20.2966 C   0  0  0  0  0  0  0  0  0  0  0  0
  -21.9588   -3.4549   23.1563 C   0  0  0  0  0  0  0  0  0  0  0  0
  -23.1079  -10.3291   23.4025 C   0  0  0  0  0  0  0  0  0  0  0  0
  -23.4538  -11.9035   25.3797 C   0  0  0  0  0  0  0  0  0  0  0  0
  -25.0240  -36.8428   23.8261 C   0  0  0  0  0  0  0  0  0  0  0  0
  -25.9860  -30.2127   19.8269 C   0  0  0  0  0  0  0  0  0  0  0  0
  -25.7773  -35.9767   23.0108 C   0  0  0  0  0  0  0  0  0  0  0  0
  -25.7902  -29.2562   20.8333 C   0  0  0  0  0  0  0  0  0  0  0  0
  -30.4919  -23.1070   18.4300 C   0  0  0  0  0  0  0  0  0  0  0  0
  -30.1116  -25.3882   19.1291 C   0  0  0  0  0  0  0  0  0  0  0  0
  -31.4404  -22.9552   19.4414 C   0  0  0  0  0  0  0  0  0  0  0  0
  -22.2519   -7.9576   22.2084 C   0  0  0  0  0  0  0  0  0  0  0  0
  -27.5996  -27.9254   19.9034 C   0  0  0  0  0  0  0  0  0  0  0  0
  -21.5462   -5.7296   22.4546 C   0  0  0  0  0  0  0  0  0  0  0  0
  -20.9647   -3.5743   24.1276 C   0  0  0  0  0  0  0  0  0  0  0  0
  -22.2495   -4.5326   22.3198 C   0  0  0  0  0  0  0  0  0  0  0  0
  -31.0601  -25.2364   20.1404 C   0  0  0  0  0  0  0  0  0  0  0  0
  -23.5492  -11.5542   24.0193 C   0  0  0  0  0  0  0  0  0  0  0  0
  -24.0099  -13.1573   25.4520 C   0  0  0  0  0  0  0  0  0  0  0  0
  -22.9110  -11.1610   26.4796 C   0  0  0  0  0  0  0  0  0  0  0  0
  -25.4482  -32.4255   22.0446 C   0  0  0  0  0  0  0  0  0  0  0  0
  -22.6815  -30.7830   22.4561 C   0  0  0  0  0  0  0  0  0  0  0  0
  -20.9849  -27.8390   22.1368 C   0  0  0  0  0  0  0  0  0  0  0  0
  -27.9488  -15.8343   21.7679 C   0  0  0  0  0  0  0  0  0  0  0  0
  -24.3806  -36.3689   25.1052 C   0  0  0  0  0  0  0  0  0  0  0  0
  -25.1075  -31.4314   19.7529 C   0  0  0  0  0  0  0  0  0  0  0  0
  -24.7284  -29.4215   21.8886 C   0  0  0  0  0  0  0  0  0  0  0  0
  -24.2463  -34.8508   25.1933 C   0  0  0  0  0  0  0  0  0  0  0  0
  -24.1346  -16.2971   21.8986 C   0  0  0  0  0  0  0  0  0  0  0  0
  -25.5514  -34.1749   24.7852 C   0  0  0  0  0  0  0  0  0  0  0  0
  -34.7522  -21.1353   19.5113 C   0  0  0  0  0  0  0  0  0  0  0  0
  -34.6040  -22.6091   19.2548 C   0  0  0  0  0  0  0  0  0  0  0  0
  -31.2741  -18.5097   19.2462 C   0  0  0  0  0  0  0  0  0  0  0  0
  -31.8014  -18.4268   21.7167 C   0  0  0  0  0  0  0  0  0  0  0  0
  -24.0359  -15.8520   23.3546 C   0  0  0  0  0  0  0  0  0  0  0  0
  -29.8228  -18.1294   19.5410 C   0  0  0  0  0  0  0  0  0  0  0  0
  -30.3511  -18.0455   22.0157 C   0  0  0  0  0  0  0  0  0  0  0  0
  -25.5672  -16.6809   21.5409 C   0  0  0  0  0  0  0  0  0  0  0  0
  -26.0438  -14.4566   22.5644 C   0  0  0  0  0  0  0  0  0  0  0  0
  -25.9120  -34.5039   23.3315 C   0  0  1  0  0  0  0  0  0  0  0  0
  -24.4731  -31.7929   21.0924 C   0  0  1  0  0  0  0  0  0  0  0  0
  -31.9582  -19.2296   20.4173 C   0  0  0  0  0  0  0  0  0  0  0  0
  -33.6077  -21.8937   20.1245 C   0  0  0  0  0  0  0  0  0  0  0  0
  -25.0589  -14.7509   23.7097 C   0  0  2  0  0  0  0  0  0  0  0  0
  -29.7084  -17.3181   20.8334 C   0  0  0  0  0  0  0  0  0  0  0  0
  -30.1736  -21.9812   17.5017 C   0  0  0  0  0  0  0  0  0  0  0  0
  -18.7501  -26.7936   22.5951 C   0  0  0  0  0  0  0  0  0  0  0  0
  -23.3798  -30.5955   25.4204 C   0  0  0  0  0  0  0  0  0  0  0  0
  -21.6665  -28.7829   25.6380 C   0  0  0  0  0  0  0  0  0  0  0  0
  -20.9721  -31.0762   24.9442 C   0  0  0  0  0  0  0  0  0  0  0  0
  -20.5305  -27.2750   19.2672 C   0  0  0  0  0  0  0  0  0  0  0  0
  -29.3752  -26.6799   18.9277 C   0  0  0  0  0  0  0  0  0  1  0  0
  -31.4488  -20.6649   20.5743 C   0  0  0  0  0  0  0  0  0  0  0  0
  -32.1662  -21.6629   19.6257 C   0  0  1  0  0  0  0  0  0  0  0  0
  -22.2458  -29.6209   23.3156 C   0  0  1  0  0  0  0  0  0  0  0  0
  -19.6099  -27.5246   21.5757 C   0  0  2  0  0  0  0  0  0  0  0  0
  -22.0874  -30.0164   24.8109 C   0  0  0  0  0  0  0  0  0  0  0  0
  -24.1208  -12.5090   23.2806 N   0  0  0  0  0  0  0  0  0  0  0  0
  -24.3895  -13.4707   24.1801 N   0  0  0  0  0  0  0  0  0  0  0  0
  -23.8991  -30.6328   21.7773 N   0  0  0  0  0  0  0  0  0  0  0  0
  -26.5621  -15.6887   21.9673 N   0  0  0  0  0  0  0  0  0  0  0  0
  -24.2063  -14.0113   26.4789 N   0  0  0  0  0  0  0  0  0  0  0  0
  -21.5523  -11.3174   26.7856 N   0  0  0  0  0  0  0  0  0  0  0  0
  -25.1129  -33.7121   22.4210 N   0  0  0  0  0  0  0  0  0  0  0  0
  -21.0299  -29.0947   22.7048 N   0  0  0  0  0  0  0  0  0  0  0  0
  -28.3264  -17.0084   21.1213 N   0  0  0  0  0  0  0  0  0  0  0  0
  -19.7292  -26.6688   20.3615 N   0  3  0  0  0  0  0  0  0  0  0  0
  -23.6140  -10.3945   27.1808 O   0  0  0  0  0  0  0  0  0  0  0  0
  -26.4313  -31.7926   22.4118 O   0  0  0  0  0  0  0  0  0  0  0  0
  -21.9643  -31.7840   22.3838 O   0  0  0  0  0  0  0  0  0  0  0  0
  -21.9241  -27.0483   22.0804 O   0  0  0  0  0  0  0  0  0  0  0  0
  -28.7751  -14.9920   22.1315 O   0  0  0  0  0  0  0  0  0  0  0  0
  -21.8342   -6.8007   21.6254 O   0  0  0  0  0  0  0  0  0  0  0  0
  -28.3850  -26.8149   19.9463 O   0  0  0  0  0  0  0  0  0  1  0  0
  -20.6865   -2.5400   24.9319 F   0  0  0  0  0  0  0  0  0  0  0  0
  -23.2063   -4.4124   21.3893 F   0  0  0  0  0  0  0  0  0  0  0  0
  -31.4381  -26.5313   21.2172 Cl  0  0  0  0  0  0  0  0  0  0  0  0
  1  2  1  0  0  0  0
  1  5  2  0  0  0  0
  2  6  2  0  0  0  0
  3  8  2  0  0  0  0
  3 17  1  0  0  0  0
  4  9  1  0  0  0  0
  4 17  2  0  0  0  0
  5 19  1  0  0  0  0
  6 21  1  0  0  0  0
  7 10  2  0  0  0  0
  7 20  1  0  0  0  0
  8 26  1  0  0  0  0
  9 26  2  0  0  0  0
 10 27  1  0  0  0  0
 11 12  2  0  0  0  0
 11 28  1  0  0  0  0
 12 29  1  0  0  0  0
 13 22  1  0  0  0  0
 13 27  2  0  0  0  0
 14 23  2  0  0  0  0
 14 24  1  0  0  0  0
 15 25  2  0  0  0  0
 15 31  1  0  0  0  0
 16 29  2  0  0  0  0
 16 30  1  0  0  0  0
 17 32  1  0  0  0  0
 18 32  1  0  0  0  0
 18 33  2  0  0  0  0
 18 34  1  0  0  0  0
 19 21  2  0  0  0  0
 19 39  1  0  0  0  0
 20 22  2  0  0  0  0
 20 40  1  0  0  0  0
 21 54  1  0  0  0  0
 22 41  1  0  0  0  0
 23 25  1  0  0  0  0
 23 60  1  0  0  0  0
 24 31  2  0  0  0  0
 24 66  1  0  0  0  0
 25 68  1  0  0  0  0
 26 87  1  0  0  0  0
 27 88  1  0  0  0  0
 28 30  2  0  0  0  0
 28 87  1  0  0  0  0
 29 89  1  0  0  0  0
 30 90  1  0  0  0  0
 31 91  1  0  0  0  0
 32 72  2  0  0  0  0
 33 73  1  0  0  0  0
 33 76  1  0  0  0  0
 34 77  1  0  0  0  0
 34 82  2  0  0  0  0
 35 55  1  0  0  0  0
 35 78  1  0  0  0  0
 35 83  2  0  0  0  0
 36 69  1  0  0  0  0
 36 74  1  0  0  0  0
 36 84  2  0  0  0  0
 37 70  1  0  0  0  0
 37 79  1  0  0  0  0
 37 85  2  0  0  0  0
 38 75  1  0  0  0  0
 38 80  1  0  0  0  0
 38 86  2  0  0  0  0
 39 42  1  0  0  0  0
 40 55  1  0  0  0  0
 41 74  1  0  0  0  0
 42 44  1  0  0  0  0
 43 49  1  0  0  0  0
 43 52  1  0  0  0  0
 44 54  1  0  0  0  0
 45 46  1  0  0  0  0
 45 57  1  0  0  0  0
 46 57  1  0  0  0  0
 47 50  1  0  0  0  0
 47 56  1  0  0  0  0
 48 51  1  0  0  0  0
 48 56  1  0  0  0  0
 49 58  1  0  0  0  0
 50 59  1  0  0  0  0
 51 59  1  0  0  0  0
 52 75  1  0  0  0  0
 53 58  1  0  0  0  0
 53 75  1  0  0  0  0
 54 78  1  0  0  0  0
 55 74  1  0  0  0  0
 56 67  1  0  0  0  0
 57 68  1  0  0  0  0
 58 73  1  0  0  0  0
 59 80  1  0  0  0  0
 61 70  1  0  0  0  0
 62 71  1  0  0  0  0
 63 71  1  0  0  0  0
 64 71  1  0  0  0  0
 65 81  1  0  0  0  0
 66 88  1  0  0  0  0
 67 68  1  0  0  0  0
 69 71  1  0  0  0  0
 69 79  1  0  0  0  0
 70 81  1  0  0  0  0
 72 73  1  0  0  0  0
M  CHG  1  81   1
M  ISO  4  38 100  66 101  80 100  88 101
M  END
> <Batch ID>
0139

> <Smiles>
CNC(C)C(=O)NC(C(=O)N1Cc2cc([101O:1][101CH2:1]c3cc(C)c(C(CC4CCC([100NH:0][100C:0](=O)N5CCCC(n6nc(-c7ccc(Oc8ccc(F)cc8F)cc7)c(C(N)=O)c6N)C5)CC4)C4CC4)cc3Cl)ccc2CC1C(=O)NC1CCCc2ccccc21)C(C)(C)C

> <Shape>
0.289

> <Color>
0.087

> <Negative vol penalty>
0.000

$$$$

  -OEChem-04052321103D

 82 91  0     1  0  0  0  0  0999 V2000
  -18.3387  -25.9372   23.0447 C   0  0  0  0  0  0  0  0  0  0  0  0
  -19.3711  -25.8657   22.1149 C   0  0  0  0  0  0  0  0  0  0  0  0
  -26.5992  -13.0204   21.5835 C   0  0  0  0  0  0  0  0  0  0  0  0
  -26.1676  -13.9721   19.4052 C   0  0  0  0  0  0  0  0  0  0  0  0
  -17.9070  -27.1781   23.5112 C   0  0  0  0  0  0  0  0  0  0  0  0
  -19.9716  -27.0352   21.6501 C   0  0  0  0  0  0  0  0  0  0  0  0
  -28.5793  -22.3087   16.4923 C   0  0  0  0  0  0  0  0  0  0  0  0
  -25.0235  -26.7076   21.5245 C   0  0  0  0  0  0  0  0  0  0  0  0
  -29.0598  -21.2785   17.2991 C   0  0  0  0  0  0  0  0  0  0  0  0
  -25.3146  -12.4771   21.6006 C   0  0  0  0  0  0  0  0  0  0  0  0
  -24.8831  -13.4288   19.4222 C   0  0  0  0  0  0  0  0  0  0  0  0
  -25.5897  -26.0036   20.4627 C   0  0  0  0  0  0  0  0  0  0  0  0
  -23.7173   -9.8166   20.2578 C   0  0  0  0  0  0  0  0  0  0  0  0
  -23.5790   -8.4924   20.6736 C   0  0  0  0  0  0  0  0  0  0  0  0
  -29.4332  -22.8594   19.0803 C   0  0  0  0  0  0  0  0  0  0  0  0
  -26.0663  -28.0867   19.3434 C   0  0  0  0  0  0  0  0  0  0  0  0
  -22.1372   -9.2085   22.4751 C   0  0  0  0  0  0  0  0  0  0  0  0
  -27.0257  -13.7680   20.4858 C   0  0  0  0  0  0  0  0  0  0  0  0
  -29.5241  -13.7275   19.9722 C   0  0  0  0  0  0  0  0  0  0  0  0
  -18.5090  -28.3630   23.0592 C   0  0  0  0  0  0  0  0  0  0  0  0
  -28.5287  -23.6298   16.9665 C   0  0  0  0  0  0  0  0  0  0  0  0
  -24.9645  -28.1084   21.4988 C   0  0  0  0  0  0  0  0  0  0  0  0
  -19.5466  -28.2932   22.1100 C   0  0  0  0  0  0  0  0  0  0  0  0
  -28.9561  -23.9110   18.2778 C   0  0  0  0  0  0  0  0  0  0  0  0
  -25.5011  -28.8063   20.4073 C   0  0  0  0  0  0  0  0  0  0  0  0
  -29.4861  -21.5537   18.5937 C   0  0  0  0  0  0  0  0  0  0  0  0
  -24.4566  -12.6812   20.5200 C   0  0  0  0  0  0  0  0  0  0  0  0
  -26.1086  -26.6929   19.3706 C   0  0  0  0  0  0  0  0  0  0  0  0
  -23.0655  -10.8368   20.9507 C   0  0  0  0  0  0  0  0  0  0  0  0
  -22.7890   -8.1883   21.7822 C   0  0  0  0  0  0  0  0  0  0  0  0
  -22.2755  -10.5328   22.0593 C   0  0  0  0  0  0  0  0  0  0  0  0
  -28.3523  -14.3300   20.4678 C   0  0  0  0  0  0  0  0  0  0  0  0
  -30.5074  -14.6626   20.1850 C   0  0  0  0  0  0  0  0  0  0  0  0
  -29.7074  -12.4379   19.3730 C   0  0  0  0  0  0  0  0  0  0  0  0
  -22.6208  -30.2556   21.5169 C   0  0  0  0  0  0  0  0  0  0  0  0
  -25.0774  -32.3604   21.7553 C   0  0  0  0  0  0  0  0  0  0  0  0
  -28.3802  -33.0313   21.2182 C   0  0  0  0  0  0  0  0  0  0  0  0
  -30.4333  -20.6126   20.7300 C   0  0  0  0  0  0  0  0  0  0  0  0
  -17.9764  -29.6834   23.5566 C   0  0  0  0  0  0  0  0  0  0  0  0
  -27.9473  -24.6930   16.0703 C   0  0  0  0  0  0  0  0  0  0  0  0
  -24.3746  -28.8542   22.6642 C   0  0  0  0  0  0  0  0  0  0  0  0
  -25.4807  -30.3108   20.3404 C   0  0  0  0  0  0  0  0  0  0  0  0
  -18.9173  -30.8569   23.2960 C   0  0  0  0  0  0  0  0  0  0  0  0
  -28.2489  -26.1169   16.5329 C   0  0  0  0  0  0  0  0  0  0  0  0
  -31.6732  -18.2717   23.1090 C   0  0  0  0  0  0  0  0  0  0  0  0
  -19.4352  -30.8175   21.8617 C   0  0  0  0  0  0  0  0  0  0  0  0
  -31.0739  -16.9394   22.6530 C   0  0  0  0  0  0  0  0  0  0  0  0
  -30.7016  -19.4318   22.8999 C   0  0  0  0  0  0  0  0  0  0  0  0
  -29.5612  -18.2189   21.0840 C   0  0  0  0  0  0  0  0  0  0  0  0
  -28.9360  -25.3219   18.8451 C   0  0  2  0  0  0  0  0  0  0  0  0
  -20.2397  -29.5383   21.6006 C   0  0  1  0  0  0  0  0  0  0  0  0
  -23.9041  -30.2586   22.2985 C   0  0  1  0  0  0  0  0  0  0  0  0
  -30.5274  -17.0302   21.2147 C   0  0  2  0  0  0  0  0  0  0  0  0
  -28.0333  -26.2736   18.0353 C   0  0  2  0  0  0  0  0  0  1  0  0
  -30.3666  -25.8711   18.9293 C   0  0  0  0  0  0  0  0  0  0  0  0
  -30.0890  -34.8501   21.4816 C   0  0  0  0  0  0  0  0  0  0  0  0
  -23.9122  -33.8027   19.3321 C   0  0  0  0  0  0  0  0  0  0  0  0
  -26.1041  -34.9833   19.0681 C   0  0  0  0  0  0  0  0  0  0  0  0
  -24.7537  -35.3124   21.1395 C   0  0  0  0  0  0  0  0  0  0  0  0
  -30.0257  -31.3808   23.0422 C   0  0  0  0  0  0  0  0  0  0  0  0
  -25.9414  -33.1111   20.7709 C   0  0  1  0  0  0  0  0  0  0  0  0
  -29.4463  -33.6282   22.1192 C   0  0  2  0  0  0  0  0  0  0  0  0
  -25.1766  -34.2740   20.0777 C   0  0  0  0  0  0  0  0  0  0  0  0
  -28.5693  -15.5531   20.9586 N   0  0  0  0  0  0  0  0  0  0  0  0
  -29.8889  -15.7268   20.7726 N   0  0  0  0  0  0  0  0  0  0  0  0
  -24.8876  -30.9946   21.5015 N   0  0  0  0  0  0  0  0  0  0  0  0
  -30.2290  -19.4574   21.5140 N   0  0  0  0  0  0  0  0  0  0  0  0
  -31.8321  -14.6701   19.9251 N   0  0  0  0  0  0  0  0  0  0  0  0
  -28.5910  -11.6028   19.2301 N   0  0  0  0  0  0  0  0  0  0  0  0
  -29.9709  -20.5085   19.4185 N   0  0  0  0  0  0  0  0  0  0  0  0
  -21.5651  -29.6496   22.1710 N   0  0  0  0  0  0  0  0  0  0  0  0
  -27.1283  -33.5318   21.5074 N   0  0  0  0  0  0  0  0  0  0  0  0
  -30.5136  -32.6250   22.3936 N   0  3  0  0  0  0  0  0  0  0  0  0
  -30.8310  -12.0315   18.9910 O   0  0  0  0  0  0  0  0  0  0  0  0
  -22.5902  -30.7666   20.4036 O   0  0  0  0  0  0  0  0  0  0  0  0
  -24.5948  -32.9620   22.7179 O   0  0  0  0  0  0  0  0  0  0  0  0
  -28.6332  -32.2066   20.3428 O   0  0  0  0  0  0  0  0  0  0  0  0
  -31.0026  -21.6102   21.1802 O   0  0  0  0  0  0  0  0  0  0  0  0
  -23.2031  -12.1510   20.5362 O   0  0  0  0  0  0  0  0  0  0  0  0
  -26.6612  -26.0081   18.3325 O   0  0  0  0  0  0  0  0  0  1  0  0
  -22.6551   -6.9164   22.1804 F   0  0  0  0  0  0  0  0  0  0  0  0
  -21.6460  -11.5085   22.7283 F   0  0  0  0  0  0  0  0  0  0  0  0
  1  2  1  0  0  0  0
  1  5  2  0  0  0  0
  2  6  2  0  0  0  0
  3 10  2  0  0  0  0
  3 18  1  0  0  0  0
  4 11  1  0  0  0  0
  4 18  2  0  0  0  0
  5 20  1  0  0  0  0
  6 23  1  0  0  0  0
  7  9  2  0  0  0  0
  7 21  1  0  0  0  0
  8 12  2  0  0  0  0
  8 22  1  0  0  0  0
  9 26  1  0  0  0  0
 10 27  1  0  0  0  0
 11 27  2  0  0  0  0
 12 28  1  0  0  0  0
 13 14  2  0  0  0  0
 13 29  1  0  0  0  0
 14 30  1  0  0  0  0
 15 24  1  0  0  0  0
 15 26  2  0  0  0  0
 16 25  1  0  0  0  0
 16 28  2  0  0  0  0
 17 30  2  0  0  0  0
 17 31  1  0  0  0  0
 18 32  1  0  0  0  0
 19 32  1  0  0  0  0
 19 33  2  0  0  0  0
 19 34  1  0  0  0  0
 20 23  2  0  0  0  0
 20 39  1  0  0  0  0
 21 24  2  0  0  0  0
 21 40  1  0  0  0  0
 22 25  2  0  0  0  0
 22 41  1  0  0  0  0
 23 51  1  0  0  0  0
 24 50  1  0  0  0  0
 25 42  1  0  0  0  0
 26 70  1  0  0  0  0
 27 79  1  0  0  0  0
 28 80  1  0  0  0  0
 29 31  2  0  0  0  0
 29 79  1  0  0  0  0
 30 81  1  0  0  0  0
 31 82  1  0  0  0  0
 32 64  2  0  0  0  0
 33 65  1  0  0  0  0
 33 68  1  0  0  0  0
 34 69  1  0  0  0  0
 34 74  2  0  0  0  0
 35 52  1  0  0  0  0
 35 71  1  0  0  0  0
 35 75  2  0  0  0  0
 36 61  1  0  0  0  0
 36 66  1  0  0  0  0
 36 76  2  0  0  0  0
 37 62  1  0  0  0  0
 37 72  1  0  0  0  0
 37 77  2  0  0  0  0
 38 67  1  0  0  0  0
 38 70  1  0  0  0  0
 38 78  2  0  0  0  0
 39 43  1  0  0  0  0
 40 44  1  0  0  0  0
 41 52  1  0  0  0  0
 42 66  1  0  0  0  0
 43 46  1  0  0  0  0
 44 54  1  0  0  0  0
 45 47  1  0  0  0  0
 45 48  1  0  0  0  0
 46 51  1  0  0  0  0
 47 53  1  0  0  0  0
 48 67  1  0  0  0  0
 49 53  1  0  0  0  0
 49 67  1  0  0  0  0
 50 54  1  0  0  0  0
 50 55  1  0  0  0  0
 51 71  1  0  0  0  0
 52 66  1  0  0  0  0
 53 65  1  0  0  0  0
 54 80  1  0  0  0  0
 56 62  1  0  0  0  0
 57 63  1  0  0  0  0
 58 63  1  0  0  0  0
 59 63  1  0  0  0  0
 60 73  1  0  0  0  0
 61 63  1  0  0  0  0
 61 72  1  0  0  0  0
 62 73  1  0  0  0  0
 64 65  1  0  0  0  0
M  CHG  1  73   1
M  ISO  4  38 100  54 101  70 100  80 101
M  END
> <Batch ID>
0139

> <Smiles>
CNC(C)C(=O)NC(C(=O)N1Cc2cc([101O:1][101CH:1]3CCc4ccc([100NH:0][100C:0](=O)N5CCCC(n6nc(-c7ccc(Oc8ccc(F)cc8F)cc7)c(C(N)=O)c6N)C5)cc4C3C)ccc2CC1C(=O)NC1CCCc2ccccc21)C(C)(C)C

> <Shape>
0.324

> <Color>
0.100

> <Negative vol penalty>
0.000

$$$$

  -OEChem-04052321103D

 83 91  0     1  0  0  0  0  0999 V2000
  -27.4341  -38.6754   24.3486 C   0  0  0  0  0  0  0  0  0  0  0  0
  -28.1400  -37.5971   23.8249 C   0  0  0  0  0  0  0  0  0  0  0  0
  -26.5635  -12.5799   21.7124 C   0  0  0  0  0  0  0  0  0  0  0  0
  -26.0004  -13.9056   19.7727 C   0  0  0  0  0  0  0  0  0  0  0  0
  -26.3336  -38.4514   25.1749 C   0  0  0  0  0  0  0  0  0  0  0  0
  -27.7466  -36.2941   24.1279 C   0  0  0  0  0  0  0  0  0  0  0  0
  -28.0609  -31.4046   20.4537 C   0  0  0  0  0  0  0  0  0  0  0  0
  -25.2893  -12.0127   21.6946 C   0  0  0  0  0  0  0  0  0  0  0  0
  -24.7262  -13.3384   19.7549 C   0  0  0  0  0  0  0  0  0  0  0  0
  -28.9856  -30.3663   20.3511 C   0  0  0  0  0  0  0  0  0  0  0  0
  -23.6571   -9.6079   19.9668 C   0  0  0  0  0  0  0  0  0  0  0  0
  -23.5598   -8.2269   20.1370 C   0  0  0  0  0  0  0  0  0  0  0  0
  -27.5895  -28.9920   21.7587 C   0  0  0  0  0  0  0  0  0  0  0  0
  -30.7472  -23.8173   19.5487 C   0  0  0  0  0  0  0  0  0  0  0  0
  -22.2093   -8.5654   22.1115 C   0  0  0  0  0  0  0  0  0  0  0  0
  -28.4340  -23.9269   20.0907 C   0  0  0  0  0  0  0  0  0  0  0  0
  -26.9190  -13.5264   20.7514 C   0  0  0  0  0  0  0  0  0  0  0  0
  -29.3859  -13.6397   20.1117 C   0  0  0  0  0  0  0  0  0  0  0  0
  -25.9205  -37.1450   25.4804 C   0  0  0  0  0  0  0  0  0  0  0  0
  -26.8968  -31.2480   21.2197 C   0  0  0  0  0  0  0  0  0  0  0  0
  -26.6403  -36.0525   24.9601 C   0  0  0  0  0  0  0  0  0  0  0  0
  -26.6503  -30.0289   21.8673 C   0  0  0  0  0  0  0  0  0  0  0  0
  -30.7416  -22.4797   19.9281 C   0  0  0  0  0  0  0  0  0  0  0  0
  -24.3707  -12.3919   20.7159 C   0  0  0  0  0  0  0  0  0  0  0  0
  -28.7514  -29.1608   21.0060 C   0  0  0  0  0  0  0  0  0  0  0  0
  -23.0305  -10.4677   20.8689 C   0  0  0  0  0  0  0  0  0  0  0  0
  -29.5756  -24.5617   19.6286 C   0  0  0  0  0  0  0  0  0  0  0  0
  -22.8359   -7.7056   21.2093 C   0  0  0  0  0  0  0  0  0  0  0  0
  -22.3066   -9.9464   21.9412 C   0  0  0  0  0  0  0  0  0  0  0  0
  -28.2349  -14.1131   20.7696 C   0  0  0  0  0  0  0  0  0  0  0  0
  -29.5479  -21.9380   20.3770 C   0  0  0  0  0  0  0  0  0  0  0  0
  -30.3666  -14.5425   20.4430 C   0  0  0  0  0  0  0  0  0  0  0  0
  -29.5536  -12.4870   19.2757 C   0  0  0  0  0  0  0  0  0  0  0  0
  -25.6955  -32.6765   23.7926 C   0  0  0  0  0  0  0  0  0  0  0  0
  -30.1106  -20.2976   22.1532 C   0  0  0  0  0  0  0  0  0  0  0  0
  -23.1336  -30.7883   23.1652 C   0  0  0  0  0  0  0  0  0  0  0  0
  -21.9125  -27.9484   21.7193 C   0  0  0  0  0  0  0  0  0  0  0  0
  -24.7536  -36.9528   26.4163 C   0  0  0  0  0  0  0  0  0  0  0  0
  -25.8963  -32.3683   21.2985 C   0  0  0  0  0  0  0  0  0  0  0  0
  -25.4062  -29.8030   22.6855 C   0  0  0  0  0  0  0  0  0  0  0  0
  -24.1746  -35.5407   26.3859 C   0  0  0  0  0  0  0  0  0  0  0  0
  -31.6606  -17.5779   23.8970 C   0  0  0  0  0  0  0  0  0  0  0  0
  -25.2916  -34.5041   26.4532 C   0  0  0  0  0  0  0  0  0  0  0  0
  -31.0412  -16.3386   23.2523 C   0  0  0  0  0  0  0  0  0  0  0  0
  -30.6575  -18.7242   23.9806 C   0  0  0  0  0  0  0  0  0  0  0  0
  -29.4221  -17.8522   22.0224 C   0  0  0  0  0  0  0  0  0  0  0  0
  -26.2293  -34.6243   25.2458 C   0  0  1  0  0  0  0  0  0  0  0  0
  -24.9937  -32.2782   22.5251 C   0  0  1  0  0  0  0  0  0  0  0  0
  -30.4110  -16.6804   21.8905 C   0  0  2  0  0  0  0  0  0  0  0  0
  -33.6138  -20.4662   18.3151 C   0  0  0  0  0  0  0  0  0  0  0  0
  -19.7848  -26.6551   21.4069 C   0  0  0  0  0  0  0  0  0  0  0  0
  -23.3143  -29.7999   26.0462 C   0  0  0  0  0  0  0  0  0  0  0  0
  -21.8366  -27.8824   25.4076 C   0  0  0  0  0  0  0  0  0  0  0  0
  -20.9875  -30.2214   25.2319 C   0  0  0  0  0  0  0  0  0  0  0  0
  -22.0494  -28.2100   18.7745 C   0  0  0  0  0  0  0  0  0  0  0  0
  -31.9935  -21.6769   19.8448 C   0  0  0  0  0  0  0  0  0  0  0  0
  -29.4826  -20.5064   20.7982 C   0  0  0  0  0  0  0  0  0  0  0  0
  -32.3174  -21.2559   18.4025 C   0  0  0  0  0  0  0  0  0  0  0  0
  -30.4150  -28.0681   19.7043 C   0  0  0  0  0  0  0  0  0  1  0  0
  -30.7555  -26.6167   19.4267 C   0  0  0  0  0  0  0  0  0  0  0  0
  -22.7054  -29.3983   23.5695 C   0  0  1  0  0  0  0  0  0  0  0  0
  -20.7104  -27.7111   20.8231 C   0  0  2  0  0  0  0  0  0  0  0  0
  -22.2354  -29.3301   25.0501 C   0  0  0  0  0  0  0  0  0  0  0  0
  -28.3898  -22.6295   20.4684 N   0  0  0  0  0  0  0  0  0  0  0  0
  -28.4619  -15.2298   21.4664 N   0  0  0  0  0  0  0  0  0  0  0  0
  -29.7668  -15.4656   21.2482 N   0  0  0  0  0  0  0  0  0  0  0  0
  -24.4612  -30.9307   22.7373 N   0  0  0  0  0  0  0  0  0  0  0  0
  -30.0648  -19.0032   22.6714 N   0  0  0  0  0  0  0  0  0  0  0  0
  -31.6748  -14.6287   20.1213 N   0  0  0  0  0  0  0  0  0  0  0  0
  -28.4425  -11.6664   19.0384 N   0  0  0  0  0  0  0  0  0  0  0  0
  -25.6242  -34.0274   24.0745 N   0  0  0  0  0  0  0  0  0  0  0  0
  -21.6946  -28.9849   22.6021 N   0  0  0  0  0  0  0  0  0  0  0  0
  -21.1516  -27.2556   19.4745 N   0  3  0  0  0  0  0  0  0  0  0  0
  -30.6600  -12.1843   18.7680 O   0  0  0  0  0  0  0  0  0  0  0  0
  -26.2587  -31.8213   24.4658 O   0  0  0  0  0  0  0  0  0  0  0  0
  -30.6284  -21.2569   22.7310 O   0  0  0  0  0  0  0  0  0  0  0  0
  -22.3181  -31.7122   23.2199 O   0  0  0  0  0  0  0  0  0  0  0  0
  -22.9404  -27.2786   21.6461 O   0  0  0  0  0  0  0  0  0  0  0  0
  -23.1273  -11.8385   20.6981 O   0  0  0  0  0  0  0  0  0  0  0  0
  -29.6527  -28.1459   20.9081 O   0  0  0  0  0  0  0  0  0  1  0  0
  -29.5500  -25.8806   19.2585 O   0  0  0  0  0  0  0  0  0  0  0  0
  -22.7413   -6.3794   21.3718 F   0  0  0  0  0  0  0  0  0  0  0  0
  -21.7014  -10.7674   22.8105 F   0  0  0  0  0  0  0  0  0  0  0  0
  1  2  1  0  0  0  0
  1  5  2  0  0  0  0
  2  6  2  0  0  0  0
  3  8  2  0  0  0  0
  3 17  1  0  0  0  0
  4  9  1  0  0  0  0
  4 17  2  0  0  0  0
  5 19  1  0  0  0  0
  6 21  1  0  0  0  0
  7 10  2  0  0  0  0
  7 20  1  0  0  0  0
  8 24  1  0  0  0  0
  9 24  2  0  0  0  0
 10 25  1  0  0  0  0
 11 12  2  0  0  0  0
 11 26  1  0  0  0  0
 12 28  1  0  0  0  0
 13 22  1  0  0  0  0
 13 25  2  0  0  0  0
 14 23  1  0  0  0  0
 14 27  2  0  0  0  0
 15 28  2  0  0  0  0
 15 29  1  0  0  0  0
 16 27  1  0  0  0  0
 16 64  2  0  0  0  0
 17 30  1  0  0  0  0
 18 30  1  0  0  0  0
 18 32  2  0  0  0  0
 18 33  1  0  0  0  0
 19 21  2  0  0  0  0
 19 38  1  0  0  0  0
 20 22  2  0  0  0  0
 20 39  1  0  0  0  0
 21 47  1  0  0  0  0
 22 40  1  0  0  0  0
 23 31  2  0  0  0  0
 23 56  1  0  0  0  0
 24 79  1  0  0  0  0
 25 80  1  0  0  0  0
 26 29  2  0  0  0  0
 26 79  1  0  0  0  0
 27 81  1  0  0  0  0
 28 82  1  0  0  0  0
 29 83  1  0  0  0  0
 30 65  2  0  0  0  0
 31 57  1  0  0  0  0
 31 64  1  0  0  0  0
 32 66  1  0  0  0  0
 32 69  1  0  0  0  0
 33 70  1  0  0  0  0
 33 74  2  0  0  0  0
 34 48  1  0  0  0  0
 34 71  1  0  0  0  0
 34 75  2  0  0  0  0
 35 57  1  0  0  0  0
 35 68  1  0  0  0  0
 35 76  2  0  0  0  0
 36 61  1  0  0  0  0
 36 67  1  0  0  0  0
 36 77  2  0  0  0  0
 37 62  1  0  0  0  0
 37 72  1  0  0  0  0
 37 78  2  0  0  0  0
 38 41  1  0  0  0  0
 39 48  1  0  0  0  0
 40 67  1  0  0  0  0
 41 43  1  0  0  0  0
 42 44  1  0  0  0  0
 42 45  1  0  0  0  0
 43 47  1  0  0  0  0
 44 49  1  0  0  0  0
 45 68  1  0  0  0  0
 46 49  1  0  0  0  0
 46 68  1  0  0  0  0
 47 71  1  0  0  0  0
 48 67  1  0  0  0  0
 49 66  1  0  0  0  0
 50 58  1  0  0  0  0
 51 62  1  0  0  0  0
 52 63  1  0  0  0  0
 53 63  1  0  0  0  0
 54 63  1  0  0  0  0
 55 73  1  0  0  0  0
 56 58  1  0  0  0  0
 59 60  1  0  0  0  0
 59 80  1  0  0  0  0
 60 81  1  0  0  0  0
 61 63  1  0  0  0  0
 61 72  1  0  0  0  0
 62 73  1  0  0  0  0
 65 66  1  0  0  0  0
M  CHG  1  73   1
M  ISO  4  35 100  57 100  59 101  80 101
M  END
> <Batch ID>
0139

> <Smiles>
CCCc1cc(OC[101CH2:1][101O:1]c2ccc3c(c2)CN(C(=O)C(NC(=O)C(C)NC)C(C)(C)C)C(C(=O)NC2CCCc4ccccc42)C3)cnc1[100CH2:0][100C:0](=O)N1CCCC(n2nc(-c3ccc(Oc4ccc(F)cc4F)cc3)c(C(N)=O)c2N)C1

> <Shape>
0.357

> <Color>
0.095

> <Negative vol penalty>
0.000

$$$$

  -OEChem-04052321103D

 84 93  0     1  0  0  0  0  0999 V2000
  -21.9758  -31.1873   23.7037 C   0  0  0  0  0  0  0  0  0  0  0  0
  -21.3619  -30.1373   23.0284 C   0  0  0  0  0  0  0  0  0  0  0  0
  -25.8591  -13.6218   19.5383 C   0  0  0  0  0  0  0  0  0  0  0  0
  -24.0200  -13.7202   21.1019 C   0  0  0  0  0  0  0  0  0  0  0  0
  -23.2309  -31.6375   23.2964 C   0  0  0  0  0  0  0  0  0  0  0  0
  -22.0024  -29.5376   21.9446 C   0  0  0  0  0  0  0  0  0  0  0  0
  -22.7179  -23.1939   18.6946 C   0  0  0  0  0  0  0  0  0  0  0  0
  -26.0775  -12.2870   19.8791 C   0  0  0  0  0  0  0  0  0  0  0  0
  -24.2384  -12.3853   21.4427 C   0  0  0  0  0  0  0  0  0  0  0  0
  -22.6046  -22.6112   17.4331 C   0  0  0  0  0  0  0  0  0  0  0  0
  -23.5565   -9.3410   20.1436 C   0  0  0  0  0  0  0  0  0  0  0  0
  -22.4426   -8.5065   20.2352 C   0  0  0  0  0  0  0  0  0  0  0  0
  -22.3417  -20.2912   13.0476 C   0  0  0  0  0  0  0  0  0  0  0  0
  -24.8060  -23.4201   16.8684 C   0  0  0  0  0  0  0  0  0  0  0  0
  -24.4553  -20.3983   11.8912 C   0  0  0  0  0  0  0  0  0  0  0  0
  -22.9649   -8.0637   22.5521 C   0  0  0  0  0  0  0  0  0  0  0  0
  -24.8304  -14.3384   20.1497 C   0  0  0  0  0  0  0  0  0  0  0  0
  -25.5100  -16.7874   19.9301 C   0  0  0  0  0  0  0  0  0  0  0  0
  -23.8914  -31.0366   22.2132 C   0  0  0  0  0  0  0  0  0  0  0  0
  -23.8736  -23.9046   19.0491 C   0  0  0  0  0  0  0  0  0  0  0  0
  -23.2670  -29.9811   21.5216 C   0  0  0  0  0  0  0  0  0  0  0  0
  -22.2445  -18.9143   12.7832 C   0  0  0  0  0  0  0  0  0  0  0  0
  -24.9325  -24.0087   18.1359 C   0  0  0  0  0  0  0  0  0  0  0  0
  -23.2778  -18.2777   12.0689 C   0  0  0  0  0  0  0  0  0  0  0  0
  -23.4399  -21.0273   12.6043 C   0  0  0  0  0  0  0  0  0  0  0  0
  -24.3733  -19.0329   11.6211 C   0  0  0  0  0  0  0  0  0  0  0  0
  -25.2671  -11.6687   20.8313 C   0  0  0  0  0  0  0  0  0  0  0  0
  -23.6475  -22.7266   16.5187 C   0  0  0  0  0  0  0  0  0  0  0  0
  -24.3747   -9.5368   21.2562 C   0  0  0  0  0  0  0  0  0  0  0  0
  -22.1467   -7.8679   21.4394 C   0  0  0  0  0  0  0  0  0  0  0  0
  -24.0788   -8.8981   22.4605 C   0  0  0  0  0  0  0  0  0  0  0  0
  -24.6046  -15.7175   19.7985 C   0  0  0  0  0  0  0  0  0  0  0  0
  -24.8216  -17.8795   19.4612 C   0  0  0  0  0  0  0  0  0  0  0  0
  -26.8533  -16.7935   20.4313 C   0  0  0  0  0  0  0  0  0  0  0  0
  -24.4941  -26.9122   19.8696 C   0  0  0  0  0  0  0  0  0  0  0  0
  -27.4682  -25.7388   20.4174 C   0  0  0  0  0  0  0  0  0  0  0  0
  -29.8033  -23.3393   19.7562 C   0  0  0  0  0  0  0  0  0  0  0  0
  -20.2587  -18.4869   15.6320 C   0  0  0  0  0  0  0  0  0  0  0  0
  -25.2263  -31.5889   21.7800 C   0  0  0  0  0  0  0  0  0  0  0  0
  -23.9912  -24.5046   20.4234 C   0  0  0  0  0  0  0  0  0  0  0  0
  -23.2102  -16.8148   11.7065 C   0  0  0  0  0  0  0  0  0  0  0  0
  -26.2026  -24.7438   18.4748 C   0  0  0  0  0  0  0  0  0  0  0  0
  -26.0024  -30.6527   20.8572 C   0  0  0  0  0  0  0  0  0  0  0  0
  -22.1736  -16.0317   12.5085 C   0  0  0  0  0  0  0  0  0  0  0  0
  -20.3778  -19.5951   19.0135 C   0  0  0  0  0  0  0  0  0  0  0  0
  -25.0920  -30.1079   19.7612 C   0  0  0  0  0  0  0  0  0  0  0  0
  -20.8614  -16.8044   12.5806 C   0  0  0  0  0  0  0  0  0  0  0  0
  -21.5563  -18.8235   19.6100 C   0  0  0  0  0  0  0  0  0  0  0  0
  -19.6017  -18.7497   18.0060 C   0  0  0  0  0  0  0  0  0  0  0  0
  -21.5997  -17.3886   17.5273 C   0  0  0  0  0  0  0  0  0  0  0  0
  -23.9408  -29.2886   20.3569 C   0  0  1  0  0  0  0  0  0  0  0  0
  -21.0500  -18.1437   13.3049 C   0  0  1  0  0  0  0  0  0  0  0  0
  -25.0036  -25.6437   20.4934 C   0  0  1  0  0  0  0  0  0  0  0  0
  -22.4461  -18.2186   18.5075 C   0  0  2  0  0  0  0  0  0  0  0  0
  -25.4924  -18.4095   10.8478 C   0  0  0  0  0  0  0  0  0  0  0  0
  -32.1532  -22.6676   20.3252 C   0  0  0  0  0  0  0  0  0  0  0  0
  -28.5364  -27.9391   18.5932 C   0  0  0  0  0  0  0  0  0  0  0  0
  -30.6890  -26.6701   18.4391 C   0  0  0  0  0  0  0  0  0  0  0  0
  -29.9052  -27.5297   20.6458 C   0  0  0  0  0  0  0  0  0  0  0  0
  -28.9119  -20.7607   20.9030 C   0  0  0  0  0  0  0  0  0  0  0  0
  -23.5263  -22.5052   12.8965 C   0  0  0  0  0  0  0  0  0  0  0  0
  -24.2346  -22.7957   14.2151 C   0  0  0  0  0  0  0  0  0  1  0  0
  -28.7179  -25.5638   19.5886 C   0  0  1  0  0  0  0  0  0  0  0  0
  -30.6816  -22.5084   20.6741 C   0  0  2  0  0  0  0  0  0  0  0  0
  -29.4375  -26.9134   19.3093 C   0  0  0  0  0  0  0  0  0  0  0  0
  -23.4305  -16.0956   19.2863 N   0  0  0  0  0  0  0  0  0  0  0  0
  -23.5934  -17.4154   19.0920 N   0  0  0  0  0  0  0  0  0  0  0  0
  -26.2671  -25.3185   19.8287 N   0  0  0  0  0  0  0  0  0  0  0  0
  -20.5031  -18.2071   16.9867 N   0  0  0  0  0  0  0  0  0  0  0  0
  -25.1530  -19.1818   19.3329 N   0  0  0  0  0  0  0  0  0  0  0  0
  -27.0546  -17.0161   21.8004 N   0  0  0  0  0  0  0  0  0  0  0  0
  -24.4051  -27.9749   20.7483 N   0  0  0  0  0  0  0  0  0  0  0  0
  -29.5388  -24.5828   20.2901 N   0  0  0  0  0  0  0  0  0  0  0  0
  -21.1646  -17.9394   14.7318 N   0  0  0  0  0  0  0  0  0  0  0  0
  -30.3260  -21.0653   20.5647 N   0  3  0  0  0  0  0  0  0  0  0  0
  -27.8467  -16.6235   19.6844 O   0  0  0  0  0  0  0  0  0  0  0  0
  -24.2047  -26.9261   18.6789 O   0  0  0  0  0  0  0  0  0  0  0  0
  -27.5556  -26.2237   21.5482 O   0  0  0  0  0  0  0  0  0  0  0  0
  -29.3958  -22.9279   18.6721 O   0  0  0  0  0  0  0  0  0  0  0  0
  -19.3070  -19.1781   15.2533 O   0  0  0  0  0  0  0  0  0  0  0  0
  -25.4798  -10.3661   21.1639 O   0  0  0  0  0  0  0  0  0  0  0  0
  -23.5393  -22.1593   15.2865 O   0  0  0  0  0  0  0  0  0  1  0  0
  -21.0761   -7.0678   21.5277 F   0  0  0  0  0  0  0  0  0  0  0  0
  -24.8605   -9.0833   23.5331 F   0  0  0  0  0  0  0  0  0  0  0  0
  1  2  1  0  0  0  0
  1  5  2  0  0  0  0
  2  6  2  0  0  0  0
  3  8  2  0  0  0  0
  3 17  1  0  0  0  0
  4  9  1  0  0  0  0
  4 17  2  0  0  0  0
  5 19  1  0  0  0  0
  6 21  1  0  0  0  0
  7 10  2  0  0  0  0
  7 20  1  0  0  0  0
  8 27  1  0  0  0  0
  9 27  2  0  0  0  0
 10 28  1  0  0  0  0
 11 12  2  0  0  0  0
 11 29  1  0  0  0  0
 12 30  1  0  0  0  0
 13 22  1  0  0  0  0
 13 25  2  0  0  0  0
 14 23  1  0  0  0  0
 14 28  2  0  0  0  0
 15 25  1  0  0  0  0
 15 26  2  0  0  0  0
 16 30  2  0  0  0  0
 16 31  1  0  0  0  0
 17 32  1  0  0  0  0
 18 32  1  0  0  0  0
 18 33  2  0  0  0  0
 18 34  1  0  0  0  0
 19 21  2  0  0  0  0
 19 39  1  0  0  0  0
 20 23  2  0  0  0  0
 20 40  1  0  0  0  0
 21 51  1  0  0  0  0
 22 24  2  0  0  0  0
 22 52  1  0  0  0  0
 23 42  1  0  0  0  0
 24 26  1  0  0  0  0
 24 41  1  0  0  0  0
 25 61  1  0  0  0  0
 26 55  1  0  0  0  0
 27 81  1  0  0  0  0
 28 82  1  0  0  0  0
 29 31  2  0  0  0  0
 29 81  1  0  0  0  0
 30 83  1  0  0  0  0
 31 84  1  0  0  0  0
 32 66  2  0  0  0  0
 33 67  1  0  0  0  0
 33 70  1  0  0  0  0
 34 71  1  0  0  0  0
 34 76  2  0  0  0  0
 35 53  1  0  0  0  0
 35 72  1  0  0  0  0
 35 77  2  0  0  0  0
 36 63  1  0  0  0  0
 36 68  1  0  0  0  0
 36 78  2  0  0  0  0
 37 64  1  0  0  0  0
 37 73  1  0  0  0  0
 37 79  2  0  0  0  0
 38 69  1  0  0  0  0
 38 74  1  0  0  0  0
 38 80  2  0  0  0  0
 39 43  1  0  0  0  0
 40 53  1  0  0  0  0
 41 44  1  0  0  0  0
 42 68  1  0  0  0  0
 43 46  1  0  0  0  0
 44 47  1  0  0  0  0
 45 48  1  0  0  0  0
 45 49  1  0  0  0  0
 46 51  1  0  0  0  0
 47 52  1  0  0  0  0
 48 54  1  0  0  0  0
 49 69  1  0  0  0  0
 50 54  1  0  0  0  0
 50 69  1  0  0  0  0
 51 72  1  0  0  0  0
 52 74  1  0  0  0  0
 53 68  1  0  0  0  0
 54 67  1  0  0  0  0
 56 64  1  0  0  0  0
 57 65  1  0  0  0  0
 58 65  1  0  0  0  0
 59 65  1  0  0  0  0
 60 75  1  0  0  0  0
 61 62  1  0  0  0  0
 62 82  1  0  0  0  0
 63 65  1  0  0  0  0
 63 73  1  0  0  0  0
 64 75  1  0  0  0  0
 66 67  1  0  0  0  0
M  CHG  1  75   1
M  ISO  4  38 100  62 101  74 100  82 101
M  END
> <Batch ID>
0139

> <Smiles>
CNC(C)C(=O)NC(C(=O)N1Cc2cc([101O:1][101CH2:1]Cc3cc(C)c4c(c3)C([100NH:0][100C:0](=O)N3CCCC(n5nc(-c6ccc(Oc7ccc(F)cc7F)cc6)c(C(N)=O)c5N)C3)CCC4)ccc2CC1C(=O)NC1CCCc2ccccc21)C(C)(C)C

> <Shape>
0.205

> <Color>
0.066

> <Negative vol penalty>
0.000

$$$$

  -OEChem-04052321103D

 84 92  0     1  0  0  0  0  0999 V2000
  -16.9593  -26.1737   25.1017 C   0  0  0  0  0  0  0  0  0  0  0  0
  -17.8578  -25.1996   24.6785 C   0  0  0  0  0  0  0  0  0  0  0  0
  -23.8874   -9.8167   22.1075 C   0  0  0  0  0  0  0  0  0  0  0  0
  -24.3805  -11.2738   23.9706 C   0  0  0  0  0  0  0  0  0  0  0  0
  -17.0841  -27.4834   24.6399 C   0  0  0  0  0  0  0  0  0  0  0  0
  -18.8811  -25.5343   23.7923 C   0  0  0  0  0  0  0  0  0  0  0  0
  -23.3459  -23.5662   25.1475 C   0  0  0  0  0  0  0  0  0  0  0  0
  -23.3826   -8.8607   22.9888 C   0  0  0  0  0  0  0  0  0  0  0  0
  -23.8756  -10.3177   24.8519 C   0  0  0  0  0  0  0  0  0  0  0  0
  -23.5572  -22.2163   24.8702 C   0  0  0  0  0  0  0  0  0  0  0  0
  -20.5330   -8.3384   24.7324 C   0  0  0  0  0  0  0  0  0  0  0  0
  -19.3247   -7.7253   24.4011 C   0  0  0  0  0  0  0  0  0  0  0  0
  -24.8357  -22.8237   22.9169 C   0  0  0  0  0  0  0  0  0  0  0  0
  -25.9528  -19.2820   22.0468 C   0  0  0  0  0  0  0  0  0  0  0  0
  -20.4208   -5.5722   24.3882 C   0  0  0  0  0  0  0  0  0  0  0  0
  -24.3864  -11.0233   22.5984 C   0  0  0  0  0  0  0  0  0  0  0  0
  -24.1960  -13.0519   21.0634 C   0  0  0  0  0  0  0  0  0  0  0  0
  -18.1152  -27.8364   23.7551 C   0  0  0  0  0  0  0  0  0  0  0  0
  -23.8697  -24.5565   24.3040 C   0  0  0  0  0  0  0  0  0  0  0  0
  -19.0190  -26.8496   23.3172 C   0  0  0  0  0  0  0  0  0  0  0  0
  -24.6319  -24.1856   23.1871 C   0  0  0  0  0  0  0  0  0  0  0  0
  -27.2478  -18.9063   21.7073 C   0  0  0  0  0  0  0  0  0  0  0  0
  -28.3223  -19.3909   22.4449 C   0  0  0  0  0  0  0  0  0  0  0  0
  -23.3766   -9.1112   24.3610 C   0  0  0  0  0  0  0  0  0  0  0  0
  -24.2997  -21.8448   23.7532 C   0  0  0  0  0  0  0  0  0  0  0  0
  -21.6852   -7.5685   24.8915 C   0  0  0  0  0  0  0  0  0  0  0  0
  -19.2686   -6.3422   24.2291 C   0  0  0  0  0  0  0  0  0  0  0  0
  -21.6291   -6.1854   24.7195 C   0  0  0  0  0  0  0  0  0  0  0  0
  -24.9085  -12.0111   21.6886 C   0  0  0  0  0  0  0  0  0  0  0  0
  -28.0506  -20.2417   23.5042 C   0  0  0  0  0  0  0  0  0  0  0  0
  -25.7871  -20.1377   23.1239 C   0  0  0  0  0  0  0  0  0  1  0  0
  -25.1368  -13.7047   20.3049 C   0  0  0  0  0  0  0  0  0  0  0  0
  -22.8079  -13.3977   21.1597 C   0  0  0  0  0  0  0  0  0  0  0  0
  -22.6207  -26.8503   22.4924 C   0  0  0  0  0  0  0  0  0  0  0  0
  -25.7298  -27.6771   22.0771 C   0  0  0  0  0  0  0  0  0  0  0  0
  -29.0078  -26.7280   22.0985 C   0  0  0  0  0  0  0  0  0  0  0  0
  -31.0876  -14.2081   20.7356 C   0  0  0  0  0  0  0  0  0  0  0  0
  -18.1813  -29.2547   23.2463 C   0  0  0  0  0  0  0  0  0  0  0  0
  -23.6554  -26.0087   24.6318 C   0  0  0  0  0  0  0  0  0  0  0  0
  -25.2330  -25.2104   22.2614 C   0  0  0  0  0  0  0  0  0  0  0  0
  -19.5190  -29.6087   22.6017 C   0  0  0  0  0  0  0  0  0  0  0  0
  -29.2406  -12.9494   17.9642 C   0  0  0  0  0  0  0  0  0  0  0  0
  -19.9555  -28.5088   21.6391 C   0  0  0  0  0  0  0  0  0  0  0  0
  -27.8566  -12.6601   18.5480 C   0  0  0  0  0  0  0  0  0  0  0  0
  -30.3514  -12.6396   18.9652 C   0  0  0  0  0  0  0  0  0  0  0  0
  -28.8202  -13.0082   20.8608 C   0  0  0  0  0  0  0  0  0  0  0  0
  -20.1572  -27.1791   22.3759 C   0  0  1  0  0  0  0  0  0  0  0  0
  -23.8012  -26.9228   23.4191 C   0  0  1  0  0  0  0  0  0  0  0  0
  -27.6645  -13.3582   19.9078 C   0  0  2  0  0  0  0  0  0  0  0  0
  -27.4574  -17.9857   20.5505 C   0  0  0  0  0  0  0  0  0  0  0  0
  -28.6615  -21.4391   25.6207 C   0  0  0  0  0  0  0  0  0  0  0  0
  -31.3181  -27.6143   21.6807 C   0  0  0  0  0  0  0  0  0  0  0  0
  -25.2313  -27.5517   19.0694 C   0  0  0  0  0  0  0  0  0  0  0  0
  -27.7114  -27.4982   18.7311 C   0  0  0  0  0  0  0  0  0  0  0  0
  -26.6445  -29.4763   19.8133 C   0  0  0  0  0  0  0  0  0  0  0  0
  -29.8499  -26.1720   24.8807 C   0  0  0  0  0  0  0  0  0  0  0  0
  -29.7222  -19.0043   22.1042 C   0  0  0  0  0  0  0  0  0  0  0  0
  -29.1641  -20.7944   24.3327 C   0  0  0  0  0  0  0  0  0  0  0  0
  -31.6785  -15.7611   22.5790 C   0  0  0  0  0  0  0  0  0  0  0  0
  -31.4400  -17.1912   22.1319 C   0  0  0  0  0  0  0  0  0  0  0  0
  -26.8134  -27.3033   21.0946 C   0  0  1  0  0  0  0  0  0  0  0  0
  -30.2370  -27.3653   22.7209 C   0  0  2  0  0  0  0  0  0  0  0  0
  -26.5873  -27.9378   19.6933 C   0  0  0  0  0  0  0  0  0  0  0  0
  -26.2021  -11.9994   21.3560 N   0  0  0  0  0  0  0  0  0  0  0  0
  -26.8063  -20.6290   23.8639 N   0  0  0  0  0  0  0  0  0  0  0  0
  -26.3098  -13.0409   20.5135 N   0  0  0  0  0  0  0  0  0  0  0  0
  -24.9902  -26.6173   22.6208 N   0  0  0  0  0  0  0  0  0  0  0  0
  -30.1104  -13.3333   20.2327 N   0  0  0  0  0  0  0  0  0  0  0  0
  -25.0667  -14.7761   19.4865 N   0  0  0  0  0  0  0  0  0  0  0  0
  -21.9817  -12.6219   21.9842 N   0  0  0  0  0  0  0  0  0  0  0  0
  -21.4179  -27.1812   23.0866 N   0  0  0  0  0  0  0  0  0  0  0  0
  -28.0778  -27.6735   21.7212 N   0  0  0  0  0  0  0  0  0  0  0  0
  -30.7768  -14.8294   21.9389 N   0  0  0  0  0  0  0  0  0  0  0  0
  -30.7990  -26.4806   23.7803 N   0  3  0  0  0  0  0  0  0  0  0  0
  -30.0675  -17.6150   22.5134 N   0  3  0  0  0  0  0  0  0  0  0  0
  -22.3115  -14.3561   20.5205 O   0  0  0  0  0  0  0  0  0  0  0  0
  -22.7890  -26.5201   21.3243 O   0  0  0  0  0  0  0  0  0  0  0  0
  -25.5511  -28.8650   22.3573 O   0  0  0  0  0  0  0  0  0  0  0  0
  -28.8865  -25.5131   21.9575 O   0  0  0  0  0  0  0  0  0  0  0  0
  -32.1555  -14.4237   20.1525 O   0  0  0  0  0  0  0  0  0  0  0  0
  -22.8839   -8.1786   25.2212 O   0  0  0  0  0  0  0  0  0  0  0  0
  -24.5069  -20.5279   23.4799 O   0  0  0  0  0  0  0  0  0  1  0  0
  -18.1079   -5.7534   23.9125 F   0  0  0  0  0  0  0  0  0  0  0  0
  -22.7325   -5.4403   24.8722 F   0  0  0  0  0  0  0  0  0  0  0  0
  1  2  1  0  0  0  0
  1  5  2  0  0  0  0
  2  6  2  0  0  0  0
  3  8  2  0  0  0  0
  3 16  1  0  0  0  0
  4  9  1  0  0  0  0
  4 16  2  0  0  0  0
  5 18  1  0  0  0  0
  6 20  1  0  0  0  0
  7 10  2  0  0  0  0
  7 19  1  0  0  0  0
  8 24  1  0  0  0  0
  9 24  2  0  0  0  0
 10 25  1  0  0  0  0
 11 12  2  0  0  0  0
 11 26  1  0  0  0  0
 12 27  1  0  0  0  0
 13 21  1  0  0  0  0
 13 25  2  0  0  0  0
 14 22  2  0  0  0  0
 14 31  1  0  0  0  0
 15 27  2  0  0  0  0
 15 28  1  0  0  0  0
 16 29  1  0  0  0  0
 17 29  1  0  0  0  0
 17 32  2  0  0  0  0
 17 33  1  0  0  0  0
 18 20  2  0  0  0  0
 18 38  1  0  0  0  0
 19 21  2  0  0  0  0
 19 39  1  0  0  0  0
 20 47  1  0  0  0  0
 21 40  1  0  0  0  0
 22 23  1  0  0  0  0
 22 50  1  0  0  0  0
 23 30  2  0  0  0  0
 23 57  1  0  0  0  0
 24 81  1  0  0  0  0
 25 82  1  0  0  0  0
 26 28  2  0  0  0  0
 26 81  1  0  0  0  0
 27 83  1  0  0  0  0
 28 84  1  0  0  0  0
 29 64  2  0  0  0  0
 30 58  1  0  0  0  0
 30 65  1  0  0  0  0
 31 65  2  0  0  0  0
 31 82  1  0  0  0  0
 32 66  1  0  0  0  0
 32 69  1  0  0  0  0
 33 70  1  0  0  0  0
 33 76  2  0  0  0  0
 34 48  1  0  0  0  0
 34 71  1  0  0  0  0
 34 77  2  0  0  0  0
 35 61  1  0  0  0  0
 35 67  1  0  0  0  0
 35 78  2  0  0  0  0
 36 62  1  0  0  0  0
 36 72  1  0  0  0  0
 36 79  2  0  0  0  0
 37 68  1  0  0  0  0
 37 73  1  0  0  0  0
 37 80  2  0  0  0  0
 38 41  1  0  0  0  0
 39 48  1  0  0  0  0
 40 67  1  0  0  0  0
 41 43  1  0  0  0  0
 42 44  1  0  0  0  0
 42 45  1  0  0  0  0
 43 47  1  0  0  0  0
 44 49  1  0  0  0  0
 45 68  1  0  0  0  0
 46 49  1  0  0  0  0
 46 68  1  0  0  0  0
 47 71  1  0  0  0  0
 48 67  1  0  0  0  0
 49 66  1  0  0  0  0
 51 58  1  0  0  0  0
 52 62  1  0  0  0  0
 53 63  1  0  0  0  0
 54 63  1  0  0  0  0
 55 63  1  0  0  0  0
 56 74  1  0  0  0  0
 57 75  1  0  0  0  0
 59 60  1  0  0  0  0
 59 73  1  0  0  0  0
 60 75  1  0  0  0  0
 61 63  1  0  0  0  0
 61 72  1  0  0  0  0
 62 74  1  0  0  0  0
 64 66  1  0  0  0  0
M  CHG  2  74   1  75   1
M  ISO  4  31 101  37 100  73 100  82 101
M  END
> <Batch ID>
0139

> <Smiles>
CCc1n[101c:1]([101O:1]c2ccc3c(c2)CN(C(=O)C(NC(=O)C(C)NC)C(C)(C)C)C(C(=O)NC2CCCc4ccccc42)C3)cc(C)c1CNCC[100NH:0][100C:0](=O)N1CCCC(n2nc(-c3ccc(Oc4ccc(F)cc4F)cc3)c(C(N)=O)c2N)C1

> <Shape>
0.238

> <Color>
0.122

> <Negative vol penalty>
0.000

$$$$

  -OEChem-04052321103D

 90100  0     1  0  0  0  0  0999 V2000
  -28.8404  -10.1308   16.7934 C   0  0  0  0  0  0  0  0  0  0  0  0
  -28.6785  -11.3459   16.1375 C   0  0  0  0  0  0  0  0  0  0  0  0
  -15.1073  -22.5013   13.2740 C   0  0  0  0  0  0  0  0  0  0  0  0
  -14.8789  -21.3580   12.5083 C   0  0  0  0  0  0  0  0  0  0  0  0
  -25.2853  -29.8045   19.6844 C   0  0  0  0  0  0  0  0  0  0  0  0
  -24.3614  -28.9454   21.7448 C   0  0  0  0  0  0  0  0  0  0  0  0
  -28.9770  -10.1041   18.1797 C   0  0  0  0  0  0  0  0  0  0  0  0
  -28.6651  -12.5356   16.8664 C   0  0  0  0  0  0  0  0  0  0  0  0
  -16.0942  -22.4950   14.2597 C   0  0  0  0  0  0  0  0  0  0  0  0
  -28.6084  -16.7305   14.2968 C   0  0  0  0  0  0  0  0  0  0  0  0
  -15.6374  -20.2083   12.7284 C   0  0  0  0  0  0  0  0  0  0  0  0
  -25.2602  -31.0957   20.2114 C   0  0  0  0  0  0  0  0  0  0  0  0
  -24.3363  -30.2366   22.2719 C   0  0  0  0  0  0  0  0  0  0  0  0
  -27.4858  -17.1705   13.5968 C   0  0  0  0  0  0  0  0  0  0  0  0
  -26.5330  -32.4097   23.6404 C   0  0  0  0  0  0  0  0  0  0  0  0
  -26.9954  -32.5848   24.9446 C   0  0  0  0  0  0  0  0  0  0  0  0
  -27.0372  -18.7779   15.3388 C   0  0  0  0  0  0  0  0  0  0  0  0
  -24.8298  -33.4335   25.5984 C   0  0  0  0  0  0  0  0  0  0  0  0
  -24.8359  -28.7293   20.4511 C   0  0  0  0  0  0  0  0  0  0  0  0
  -25.9882  -26.6818   19.4573 C   0  0  0  0  0  0  0  0  0  0  0  0
  -28.9527  -11.2936   18.9264 C   0  0  0  0  0  0  0  0  0  0  0  0
  -28.9482  -17.3044   15.5303 C   0  0  0  0  0  0  0  0  0  0  0  0
  -28.8254  -12.5314   18.2639 C   0  0  0  0  0  0  0  0  0  0  0  0
  -16.8527  -21.3452   14.4798 C   0  0  0  0  0  0  0  0  0  0  0  0
  -28.1661  -18.3451   16.0511 C   0  0  0  0  0  0  0  0  0  0  0  0
  -16.6244  -20.2019   13.7141 C   0  0  0  0  0  0  0  0  0  0  0  0
  -24.7857  -31.3118   21.5052 C   0  0  0  0  0  0  0  0  0  0  0  0
  -26.6983  -18.1924   14.1192 C   0  0  0  0  0  0  0  0  0  0  0  0
  -25.2191  -32.7466   23.3150 C   0  0  0  0  0  0  0  0  0  0  0  0
  -26.1438  -33.0966   25.9237 C   0  0  0  0  0  0  0  0  0  0  0  0
  -24.3675  -33.2585   24.2941 C   0  0  0  0  0  0  0  0  0  0  0  0
  -24.8610  -27.3954   19.9070 C   0  0  0  0  0  0  0  0  0  0  0  0
  -25.4856  -25.4738   19.0396 C   0  0  0  0  0  0  0  0  0  0  0  0
  -27.3663  -27.0757   19.4206 C   0  0  0  0  0  0  0  0  0  0  0  0
  -29.2146  -16.2262   18.5086 C   0  0  0  0  0  0  0  0  0  0  0  0
  -30.3391  -19.2155   19.0758 C   0  0  0  0  0  0  0  0  0  0  0  0
  -30.3163  -22.7967   18.6380 C   0  0  0  0  0  0  0  0  0  0  0  0
  -20.2462  -23.8704   17.0057 C   0  0  0  0  0  0  0  0  0  0  0  0
  -29.1127  -11.2074   20.4238 C   0  0  0  0  0  0  0  0  0  0  0  0
  -30.1775  -16.8368   16.2600 C   0  0  0  0  0  0  0  0  0  0  0  0
  -28.4995  -19.0082   17.3617 C   0  0  0  0  0  0  0  0  0  0  0  0
  -28.6434  -12.4666   21.1453 C   0  0  0  0  0  0  0  0  0  0  0  0
  -21.9079  -22.4185   19.8313 C   0  0  0  0  0  0  0  0  0  0  0  0
  -29.2520  -13.6979   20.4910 C   0  0  0  0  0  0  0  0  0  0  0  0
  -22.9498  -23.4885   20.1482 C   0  0  0  0  0  0  0  0  0  0  0  0
  -24.2867  -20.5944   13.8386 C   0  0  0  0  0  0  0  0  0  0  0  0
  -23.2647  -18.2878   13.9651 C   0  0  0  0  0  0  0  0  0  0  0  0
  -23.0700  -21.1730   14.5507 C   0  0  0  0  0  0  0  0  0  0  0  0
  -22.0485  -18.8662   14.6780 C   0  0  0  0  0  0  0  0  0  0  0  0
  -17.3815  -21.6456   16.9607 C   0  0  0  0  0  0  0  0  0  0  0  0
  -20.5767  -23.0208   19.3774 C   0  0  0  0  0  0  0  0  0  0  0  0
  -18.6447  -22.0255   17.7196 C   0  0  0  0  0  0  0  0  0  0  0  0
  -21.7525  -25.0494   18.5749 C   0  0  0  0  0  0  0  0  0  0  0  0
  -17.9165  -21.3620   15.5516 C   0  0  2  0  0  0  0  0  0  0  0  0
  -28.7771  -13.8358   19.0389 C   0  0  1  0  0  0  0  0  0  0  0  0
  -30.1374  -17.1413   17.7544 C   0  0  1  0  0  0  0  0  0  0  0  0
  -23.1139  -24.4560   18.9648 C   0  0  1  0  0  0  0  0  0  0  0  0
  -24.5153  -19.1311   14.2126 C   0  0  0  0  0  0  0  0  0  1  0  0
  -21.8195  -20.3294   14.3038 C   0  0  0  0  0  0  0  0  0  0  0  0
  -19.0011  -22.4472   15.3714 C   0  0  2  0  0  0  0  0  0  0  0  0
  -17.4233  -18.9589   13.9320 C   0  0  0  0  0  0  0  0  0  0  0  0
  -31.8391  -24.5633   19.5641 C   0  0  0  0  0  0  0  0  0  0  0  0
  -28.2504  -19.4462   21.2881 C   0  0  0  0  0  0  0  0  0  0  0  0
  -28.6136  -21.9233   21.2770 C   0  0  0  0  0  0  0  0  0  0  0  0
  -30.4921  -20.3918   21.8671 C   0  0  0  0  0  0  0  0  0  0  0  0
  -30.9388  -23.8393   15.9390 C   0  0  0  0  0  0  0  0  0  0  0  0
  -20.1425  -21.9667   14.4789 C   0  0  0  0  0  0  0  0  0  0  0  0
  -29.7181  -20.5355   19.4645 C   0  0  1  0  0  0  0  0  0  0  0  0
  -31.5155  -23.6865   18.3644 C   0  0  2  0  0  0  0  0  0  0  0  0
  -29.2609  -20.5606   20.9504 C   0  0  0  0  0  0  0  0  0  0  0  0
  -23.7278  -26.6988   19.7862 N   0  0  0  0  0  0  0  0  0  0  0  0
  -24.1403  -25.5349   19.2557 N   0  0  0  0  0  0  0  0  0  0  0  0
  -29.7077  -18.5116   18.0406 N   0  0  0  0  0  0  0  0  0  0  0  0
  -20.7717  -23.9962   18.2981 N   0  0  0  0  0  0  0  0  0  0  0  0
  -19.4544  -22.7500   16.7379 N   0  0  0  0  0  0  0  0  0  0  0  0
  -26.0675  -24.3758   18.5121 N   0  0  0  0  0  0  0  0  0  0  0  0
  -27.8472  -27.7180   18.2714 N   0  0  0  0  0  0  0  0  0  0  0  0
  -29.5326  -14.8864   18.3930 N   0  0  0  0  0  0  0  0  0  0  0  0
  -30.6958  -21.5629   19.1227 N   0  0  0  0  0  0  0  0  0  0  0  0
  -31.2486  -24.5704   17.1946 N   0  3  0  0  0  0  0  0  0  0  0  0
  -28.1521  -26.8498   20.3719 O   0  0  0  0  0  0  0  0  0  0  0  0
  -28.2839  -16.7007   19.1492 O   0  0  0  0  0  0  0  0  0  0  0  0
  -31.3513  -18.8269   19.6640 O   0  0  0  0  0  0  0  0  0  0  0  0
  -29.1586  -23.1612   18.4447 O   0  0  0  0  0  0  0  0  0  0  0  0
  -20.4496  -24.7323   16.1409 O   0  0  0  0  0  0  0  0  0  0  0  0
  -24.7613  -32.5715   22.0199 O   0  0  0  0  0  0  0  0  0  0  0  0
  -25.5946  -18.6261   13.4339 O   0  0  0  0  0  0  0  0  0  1  0  0
  -20.7402  -20.8341   15.0826 O   0  0  0  0  0  0  0  0  0  0  0  0
  -26.5875  -33.2632   27.1765 F   0  0  0  0  0  0  0  0  0  0  0  0
  -23.1038  -33.5828   23.9878 F   0  0  0  0  0  0  0  0  0  0  0  0
  1  2  1  0  0  0  0
  1  7  2  0  0  0  0
  2  8  2  0  0  0  0
  3  4  1  0  0  0  0
  3  9  2  0  0  0  0
  4 11  2  0  0  0  0
  5 12  2  0  0  0  0
  5 19  1  0  0  0  0
  6 13  1  0  0  0  0
  6 19  2  0  0  0  0
  7 21  1  0  0  0  0
  8 23  1  0  0  0  0
  9 24  1  0  0  0  0
 10 14  2  0  0  0  0
 10 22  1  0  0  0  0
 11 26  1  0  0  0  0
 12 27  1  0  0  0  0
 13 27  2  0  0  0  0
 14 28  1  0  0  0  0
 15 16  2  0  0  0  0
 15 29  1  0  0  0  0
 16 30  1  0  0  0  0
 17 25  1  0  0  0  0
 17 28  2  0  0  0  0
 18 30  2  0  0  0  0
 18 31  1  0  0  0  0
 19 32  1  0  0  0  0
 20 32  1  0  0  0  0
 20 33  2  0  0  0  0
 20 34  1  0  0  0  0
 21 23  2  0  0  0  0
 21 39  1  0  0  0  0
 22 25  2  0  0  0  0
 22 40  1  0  0  0  0
 23 55  1  0  0  0  0
 24 26  2  0  0  0  0
 24 54  1  0  0  0  0
 25 41  1  0  0  0  0
 26 61  1  0  0  0  0
 27 86  1  0  0  0  0
 28 87  1  0  0  0  0
 29 31  2  0  0  0  0
 29 86  1  0  0  0  0
 30 89  1  0  0  0  0
 31 90  1  0  0  0  0
 32 71  2  0  0  0  0
 33 72  1  0  0  0  0
 33 76  1  0  0  0  0
 34 77  1  0  0  0  0
 34 81  2  0  0  0  0
 35 56  1  0  0  0  0
 35 78  1  0  0  0  0
 35 82  2  0  0  0  0
 36 68  1  0  0  0  0
 36 73  1  0  0  0  0
 36 83  2  0  0  0  0
 37 69  1  0  0  0  0
 37 79  1  0  0  0  0
 37 84  2  0  0  0  0
 38 74  1  0  0  0  0
 38 75  1  0  0  0  0
 38 85  2  0  0  0  0
 39 42  1  0  0  0  0
 40 56  1  0  0  0  0
 41 73  1  0  0  0  0
 42 44  1  0  0  0  0
 43 45  1  0  0  0  0
 43 51  1  0  0  0  0
 44 55  1  0  0  0  0
 45 57  1  0  0  0  0
 46 48  1  0  0  0  0
 46 58  1  0  0  0  0
 47 49  1  0  0  0  0
 47 58  1  0  0  0  0
 48 59  1  0  0  0  0
 49 59  1  0  0  0  0
 50 52  1  0  0  0  0
 50 54  1  0  0  0  0
 51 74  1  0  0  0  0
 52 75  1  0  0  0  0
 53 57  1  0  0  0  0
 53 74  1  0  0  0  0
 54 60  1  0  0  0  0
 55 78  1  0  0  0  0
 56 73  1  0  0  0  0
 57 72  1  0  0  0  0
 58 87  1  0  0  0  0
 59 88  1  0  0  0  0
 60 67  1  0  0  0  0
 60 75  1  0  0  0  0
 62 69  1  0  0  0  0
 63 70  1  0  0  0  0
 64 70  1  0  0  0  0
 65 70  1  0  0  0  0
 66 80  1  0  0  0  0
 67 88  1  0  0  0  0
 68 70  1  0  0  0  0
 68 79  1  0  0  0  0
 69 80  1  0  0  0  0
 71 72  1  0  0  0  0
M  CHG  1  80   1
M  ISO  4  38 100  58 101  75 100  87 101
M  END
> <Batch ID>
0139

> <Smiles>
CNC(C)C(=O)NC(C(=O)N1Cc2cc([101O:1][101CH:1]3CCC(OCC4C(c5ccccc5C)CC[100N:0]4[100C:0](=O)N4CCCC(n5nc(-c6ccc(Oc7ccc(F)cc7F)cc6)c(C(N)=O)c5N)C4)CC3)ccc2CC1C(=O)NC1CCCc2ccccc21)C(C)(C)C

> <Shape>
0.198

> <Color>
0.069

> <Negative vol penalty>
0.000

$$$$

  -OEChem-04052321103D

 87 96  0     1  0  0  0  0  0999 V2000
  -32.6528  -28.4238   17.7450 C   0  0  0  0  0  0  0  0  0  0  0  0
  -31.3119  -28.2707   18.0829 C   0  0  0  0  0  0  0  0  0  0  0  0
  -23.6980  -13.0120   19.4741 C   0  0  0  0  0  0  0  0  0  0  0  0
  -24.8088  -13.6626   21.5186 C   0  0  0  0  0  0  0  0  0  0  0  0
  -33.3848  -27.3287   17.2880 C   0  0  0  0  0  0  0  0  0  0  0  0
  -30.7020  -27.0225   17.9628 C   0  0  0  0  0  0  0  0  0  0  0  0
  -20.1086  -27.6430   20.4152 C   0  0  0  0  0  0  0  0  0  0  0  0
  -27.8543  -25.8570   21.9849 C   0  0  0  0  0  0  0  0  0  0  0  0
  -21.2684  -26.8689   20.3384 C   0  0  0  0  0  0  0  0  0  0  0  0
  -24.8221  -12.2772   19.0971 C   0  0  0  0  0  0  0  0  0  0  0  0
  -25.9329  -12.9277   21.1417 C   0  0  0  0  0  0  0  0  0  0  0  0
  -26.5977  -26.4548   22.0701 C   0  0  0  0  0  0  0  0  0  0  0  0
  -29.2304  -11.5173   20.5524 C   0  0  0  0  0  0  0  0  0  0  0  0
  -30.4802  -12.1142   20.7170 C   0  0  0  0  0  0  0  0  0  0  0  0
  -25.5853  -24.4324   21.2311 C   0  0  0  0  0  0  0  0  0  0  0  0
  -29.8238  -13.8995   19.2274 C   0  0  0  0  0  0  0  0  0  0  0  0
  -23.6914  -13.7047   20.6848 C   0  0  0  0  0  0  0  0  0  0  0  0
  -21.4269  -14.0081   21.8196 C   0  0  0  0  0  0  0  0  0  0  0  0
  -32.7860  -26.0644   17.1715 C   0  0  0  0  0  0  0  0  0  0  0  0
  -19.5607  -27.8813   21.6644 C   0  0  0  0  0  0  0  0  0  0  0  0
  -27.9871  -24.5439   21.5111 C   0  0  0  0  0  0  0  0  0  0  0  0
  -31.4263  -25.9097   17.5026 C   0  0  0  0  0  0  0  0  0  0  0  0
  -26.8444  -23.8193   21.1433 C   0  0  0  0  0  0  0  0  0  0  0  0
  -20.1577  -27.3727   22.8239 C   0  0  0  0  0  0  0  0  0  0  0  0
  -21.8669  -26.3584   21.5013 C   0  0  0  0  0  0  0  0  0  0  0  0
  -21.3145  -26.6148   22.7582 C   0  0  0  0  0  0  0  0  0  0  0  0
  -25.9395  -12.2351   19.9309 C   0  0  0  0  0  0  0  0  0  0  0  0
  -25.4632  -25.7435   21.6905 C   0  0  0  0  0  0  0  0  0  0  0  0
  -28.2772  -12.1114   19.7253 C   0  0  0  0  0  0  0  0  0  0  0  0
  -30.7769  -13.3053   20.0546 C   0  0  0  0  0  0  0  0  0  0  0  0
  -28.5739  -13.3025   19.0628 C   0  0  0  0  0  0  0  0  0  0  0  0
  -22.5307  -14.4644   21.0745 C   0  0  0  0  0  0  0  0  0  0  0  0
  -20.6037  -15.1030   21.9195 C   0  0  0  0  0  0  0  0  0  0  0  0
  -21.1688  -12.7105   22.3723 C   0  0  0  0  0  0  0  0  0  0  0  0
  -29.4495  -23.1899   19.0348 C   0  0  0  0  0  0  0  0  0  0  0  0
  -28.5143  -20.4422   20.4832 C   0  0  0  0  0  0  0  0  0  0  0  0
  -26.3485  -18.8787   22.6073 C   0  0  0  0  0  0  0  0  0  0  0  0
  -19.8731  -20.4255   22.9606 C   0  0  0  0  0  0  0  0  0  0  0  0
  -33.6052  -24.9206   16.6280 C   0  0  0  0  0  0  0  0  0  0  0  0
  -18.3573  -28.7037   22.0015 C   0  0  0  0  0  0  0  0  0  0  0  0
  -29.3471  -23.9041   21.4505 C   0  0  0  0  0  0  0  0  0  0  0  0
  -19.4097  -27.8090   24.0438 C   0  0  0  0  0  0  0  0  0  0  0  0
  -26.9311  -22.3998   20.6472 C   0  0  0  0  0  0  0  0  0  0  0  0
  -18.0644  -28.2292   23.4329 C   0  0  0  0  0  0  0  0  0  0  0  0
  -32.9839  -23.5501   16.8854 C   0  0  0  0  0  0  0  0  0  0  0  0
  -20.7677  -19.5743   19.5588 C   0  0  0  0  0  0  0  0  0  0  0  0
  -31.4991  -23.5631   16.5364 C   0  0  0  0  0  0  0  0  0  0  0  0
  -21.2173  -18.1206   19.7172 C   0  0  0  0  0  0  0  0  0  0  0  0
  -21.1917  -20.4178   20.7575 C   0  0  0  0  0  0  0  0  0  0  0  0
  -21.1729  -18.4445   22.2338 C   0  0  0  0  0  0  0  0  0  0  0  0
  -30.7358  -24.5664   17.4095 C   0  0  1  0  0  0  0  0  0  0  0  0
  -29.4161  -22.7392   20.4678 C   0  0  1  0  0  0  0  0  0  0  0  0
  -20.7547  -17.5347   21.0644 C   0  0  2  0  0  0  0  0  0  0  0  0
  -22.4431  -27.2331   24.9210 C   0  0  0  0  0  0  0  0  0  0  0  0
  -25.3737  -17.0256   23.9903 C   0  0  0  0  0  0  0  0  0  0  0  0
  -27.2337  -19.6296   17.8357 C   0  0  0  0  0  0  0  0  0  0  0  0
  -25.9384  -17.8840   19.0780 C   0  0  0  0  0  0  0  0  0  0  0  0
  -28.4303  -17.7839   19.0257 C   0  0  0  0  0  0  0  0  0  0  0  0
  -28.0427  -19.5675   24.9342 C   0  0  0  0  0  0  0  0  0  0  0  0
  -23.1161  -25.5382   21.3665 C   0  0  0  0  0  0  0  0  0  1  0  0
  -18.6196  -22.4823   23.5570 C   0  0  0  0  0  0  0  0  0  0  0  0
  -19.4057  -23.2735   24.5858 C   0  0  0  0  0  0  0  0  0  0  0  0
  -21.0466  -25.1420   24.8198 C   0  0  0  0  0  0  0  0  0  0  0  0
  -21.9519  -26.0928   24.0011 C   0  0  1  0  0  0  0  0  0  0  0  0
  -27.2902  -19.5613   20.4160 C   0  0  1  0  0  0  0  0  0  0  0  0
  -26.5840  -17.9164   23.7574 C   0  0  2  0  0  0  0  0  0  0  0  0
  -27.2214  -18.7421   19.0963 C   0  0  0  0  0  0  0  0  0  0  0  0
  -22.4217  -15.7490   20.7255 N   0  0  0  0  0  0  0  0  0  0  0  0
  -21.2396  -16.1093   21.2537 N   0  0  0  0  0  0  0  0  0  0  0  0
  -28.2837  -21.8203   20.6001 N   0  0  0  0  0  0  0  0  0  0  0  0
  -20.7042  -19.8155   22.0064 N   0  0  0  0  0  0  0  0  0  0  0  0
  -19.4052  -15.2936   22.5108 N   0  0  0  0  0  0  0  0  0  0  0  0
  -22.1197  -11.6997   22.1764 N   0  0  0  0  0  0  0  0  0  0  0  0
  -30.5122  -24.0191   18.7304 N   0  0  0  0  0  0  0  0  0  0  0  0
  -27.3074  -18.7456   21.6255 N   0  0  0  0  0  0  0  0  0  0  0  0
  -19.4794  -21.7267   22.6733 N   0  0  0  0  0  0  0  0  0  0  0  0
  -26.8626  -18.6685   25.0135 N   0  3  0  0  0  0  0  0  0  0  0  0
  -20.2726  -24.2689   23.9001 N   0  3  0  0  0  0  0  0  0  0  0  0
  -20.1182  -12.4506   23.0065 O   0  0  0  0  0  0  0  0  0  0  0  0
  -28.5767  -22.8121   18.2621 O   0  0  0  0  0  0  0  0  0  0  0  0
  -29.6339  -19.9261   20.4411 O   0  0  0  0  0  0  0  0  0  0  0  0
  -25.4059  -19.6670   22.5807 O   0  0  0  0  0  0  0  0  0  0  0  0
  -19.5043  -19.8509   23.9907 O   0  0  0  0  0  0  0  0  0  0  0  0
  -27.0365  -11.5180   19.5635 O   0  0  0  0  0  0  0  0  0  0  0  0
  -24.2355  -26.3249   21.7720 O   0  0  0  0  0  0  0  0  0  1  0  0
  -31.9767  -13.8792   20.2139 F   0  0  0  0  0  0  0  0  0  0  0  0
  -27.6618  -13.8786   18.2678 F   0  0  0  0  0  0  0  0  0  0  0  0
  1  2  1  0  0  0  0
  1  5  2  0  0  0  0
  2  6  2  0  0  0  0
  3 10  2  0  0  0  0
  3 17  1  0  0  0  0
  4 11  1  0  0  0  0
  4 17  2  0  0  0  0
  5 19  1  0  0  0  0
  6 22  1  0  0  0  0
  7  9  2  0  0  0  0
  7 20  1  0  0  0  0
  8 12  2  0  0  0  0
  8 21  1  0  0  0  0
  9 25  1  0  0  0  0
 10 27  1  0  0  0  0
 11 27  2  0  0  0  0
 12 28  1  0  0  0  0
 13 14  2  0  0  0  0
 13 29  1  0  0  0  0
 14 30  1  0  0  0  0
 15 23  1  0  0  0  0
 15 28  2  0  0  0  0
 16 30  2  0  0  0  0
 16 31  1  0  0  0  0
 17 32  1  0  0  0  0
 18 32  1  0  0  0  0
 18 33  2  0  0  0  0
 18 34  1  0  0  0  0
 19 22  2  0  0  0  0
 19 39  1  0  0  0  0
 20 24  2  0  0  0  0
 20 40  1  0  0  0  0
 21 23  2  0  0  0  0
 21 41  1  0  0  0  0
 22 51  1  0  0  0  0
 23 43  1  0  0  0  0
 24 26  1  0  0  0  0
 24 42  1  0  0  0  0
 25 26  2  0  0  0  0
 25 60  1  0  0  0  0
 26 64  1  0  0  0  0
 27 84  1  0  0  0  0
 28 85  1  0  0  0  0
 29 31  2  0  0  0  0
 29 84  1  0  0  0  0
 30 86  1  0  0  0  0
 31 87  1  0  0  0  0
 32 68  2  0  0  0  0
 33 69  1  0  0  0  0
 33 72  1  0  0  0  0
 34 73  1  0  0  0  0
 34 79  2  0  0  0  0
 35 52  1  0  0  0  0
 35 74  1  0  0  0  0
 35 80  2  0  0  0  0
 36 65  1  0  0  0  0
 36 70  1  0  0  0  0
 36 81  2  0  0  0  0
 37 66  1  0  0  0  0
 37 75  1  0  0  0  0
 37 82  2  0  0  0  0
 38 71  1  0  0  0  0
 38 76  1  0  0  0  0
 38 83  2  0  0  0  0
 39 45  1  0  0  0  0
 40 44  1  0  0  0  0
 41 52  1  0  0  0  0
 42 44  1  0  0  0  0
 43 70  1  0  0  0  0
 45 47  1  0  0  0  0
 46 48  1  0  0  0  0
 46 49  1  0  0  0  0
 47 51  1  0  0  0  0
 48 53  1  0  0  0  0
 49 71  1  0  0  0  0
 50 53  1  0  0  0  0
 50 71  1  0  0  0  0
 51 74  1  0  0  0  0
 52 70  1  0  0  0  0
 53 69  1  0  0  0  0
 54 64  1  0  0  0  0
 55 66  1  0  0  0  0
 56 67  1  0  0  0  0
 57 67  1  0  0  0  0
 58 67  1  0  0  0  0
 59 77  1  0  0  0  0
 60 85  1  0  0  0  0
 61 62  1  0  0  0  0
 61 76  1  0  0  0  0
 62 78  1  0  0  0  0
 63 64  1  0  0  0  0
 63 78  1  0  0  0  0
 65 67  1  0  0  0  0
 65 75  1  0  0  0  0
 66 77  1  0  0  0  0
 68 69  1  0  0  0  0
M  CHG  2  77   1  78   1
M  ISO  4  38 100  60 101  76 100  85 101
M  END
> <Batch ID>
0139

> <Smiles>
CNC(C)C(=O)NC(C(=O)N1Cc2cc([101O:1][101CH2:1]c3ccc4c(c3C(C)CNCC[100NH:0][100C:0](=O)N3CCCC(n5nc(-c6ccc(Oc7ccc(F)cc7F)cc6)c(C(N)=O)c5N)C3)CCC4)ccc2CC1C(=O)NC1CCCc2ccccc21)C(C)(C)C

> <Shape>
0.211

> <Color>
0.074

> <Negative vol penalty>
0.000

$$$$

  -OEChem-04052321103D

 83 91  0     1  0  0  0  0  0999 V2000
  -19.5984  -32.3005   21.8903 C   0  0  0  0  0  0  0  0  0  0  0  0
  -20.5257  -31.3013   21.6127 C   0  0  0  0  0  0  0  0  0  0  0  0
  -23.0708   -9.7968   19.9768 C   0  0  0  0  0  0  0  0  0  0  0  0
  -23.6788   -9.9930   22.3068 C   0  0  0  0  0  0  0  0  0  0  0  0
  -18.4473  -31.9993   22.6171 C   0  0  0  0  0  0  0  0  0  0  0  0
  -20.3030  -30.0004   22.0628 C   0  0  0  0  0  0  0  0  0  0  0  0
  -21.8516  -24.8041   19.2156 C   0  0  0  0  0  0  0  0  0  0  0  0
  -26.3958  -20.2916   18.9174 C   0  0  0  0  0  0  0  0  0  0  0  0
  -22.3174   -8.6599   20.2691 C   0  0  0  0  0  0  0  0  0  0  0  0
  -22.9253   -8.8562   22.5992 C   0  0  0  0  0  0  0  0  0  0  0  0
  -22.9317  -23.9361   19.3697 C   0  0  0  0  0  0  0  0  0  0  0  0
  -23.2671   -5.5034   22.3287 C   0  0  0  0  0  0  0  0  0  0  0  0
  -23.8388   -4.5443   23.1646 C   0  0  0  0  0  0  0  0  0  0  0  0
  -27.3454  -19.3083   19.1716 C   0  0  0  0  0  0  0  0  0  0  0  0
  -21.5936  -22.5359   20.8077 C   0  0  0  0  0  0  0  0  0  0  0  0
  -22.0285   -4.8362   24.7377 C   0  0  0  0  0  0  0  0  0  0  0  0
  -23.7516  -10.4633   20.9957 C   0  0  0  0  0  0  0  0  0  0  0  0
  -24.0892  -12.9742   20.6970 C   0  0  0  0  0  0  0  0  0  0  0  0
  -18.2057  -30.6920   23.0680 C   0  0  0  0  0  0  0  0  0  0  0  0
  -20.6357  -24.5499   19.8663 C   0  0  0  0  0  0  0  0  0  0  0  0
  -19.1483  -29.6817   22.7974 C   0  0  0  0  0  0  0  0  0  0  0  0
  -20.4988  -23.4009   20.6583 C   0  0  0  0  0  0  0  0  0  0  0  0
  -26.0869  -21.2231   19.9024 C   0  0  0  0  0  0  0  0  0  0  0  0
  -22.2446   -8.1896   21.5803 C   0  0  0  0  0  0  0  0  0  0  0  0
  -22.8037  -22.8033   20.1681 C   0  0  0  0  0  0  0  0  0  0  0  0
  -22.0761   -6.1290   22.6973 C   0  0  0  0  0  0  0  0  0  0  0  0
  -23.2196   -4.2107   24.3691 C   0  0  0  0  0  0  0  0  0  0  0  0
  -21.4568   -5.7954   23.9018 C   0  0  0  0  0  0  0  0  0  0  0  0
  -24.5306  -11.6374   20.6942 C   0  0  0  0  0  0  0  0  0  0  0  0
  -26.7504  -21.1289   21.1151 C   0  0  0  0  0  0  0  0  0  0  0  0
  -27.9528  -19.2999   20.4169 C   0  0  0  0  0  0  0  0  0  0  0  0
  -25.1994  -13.7031   20.3468 C   0  0  0  0  0  0  0  0  0  0  0  0
  -22.7917  -13.5092   20.9900 C   0  0  0  0  0  0  0  0  0  0  0  0
  -18.9004  -26.0711   22.0522 C   0  0  0  0  0  0  0  0  0  0  0  0
  -16.7674  -23.7049   21.4411 C   0  0  0  0  0  0  0  0  0  0  0  0
  -16.2022  -20.5342   20.3124 C   0  0  0  0  0  0  0  0  0  0  0  0
  -30.6544  -14.7870   20.8090 C   0  0  0  0  0  0  0  0  0  0  0  0
  -16.9703  -30.4245   23.8907 C   0  0  0  0  0  0  0  0  0  0  0  0
  -19.4718  -25.4818   19.6685 C   0  0  0  0  0  0  0  0  0  0  0  0
  -19.2084  -23.0719   21.3620 C   0  0  0  0  0  0  0  0  0  0  0  0
  -16.6266  -28.9419   24.0092 C   0  0  0  0  0  0  0  0  0  0  0  0
  -29.6863  -12.2098   18.5512 C   0  0  0  0  0  0  0  0  0  0  0  0
  -17.8725  -28.1308   24.3507 C   0  0  0  0  0  0  0  0  0  0  0  0
  -28.2250  -11.9374   18.9120 C   0  0  0  0  0  0  0  0  0  0  0  0
  -30.5218  -12.5340   19.7877 C   0  0  0  0  0  0  0  0  0  0  0  0
  -28.5301  -13.3543   20.9851 C   0  0  0  0  0  0  0  0  0  0  0  0
  -18.9302  -28.2533   23.2472 C   0  0  1  0  0  0  0  0  0  0  0  0
  -18.4413  -25.3972   20.7902 C   0  0  1  0  0  0  0  0  0  0  0  0
  -27.6359  -13.0774   19.7644 C   0  0  2  0  0  0  0  0  0  0  0  0
  -26.4587  -22.1020   22.2101 C   0  0  0  0  0  0  0  0  0  0  0  0
  -14.3607  -18.8644   19.9689 C   0  0  0  0  0  0  0  0  0  0  0  0
  -31.4112  -16.8986   23.1755 C   0  0  0  0  0  0  0  0  0  0  0  0
  -16.7201  -23.1439   24.4399 C   0  0  0  0  0  0  0  0  0  0  0  0
  -15.6547  -20.9343   23.9392 C   0  0  0  0  0  0  0  0  0  0  0  0
  -14.4832  -23.0494   23.3256 C   0  0  0  0  0  0  0  0  0  0  0  0
  -16.6817  -20.4319   17.3937 C   0  0  0  0  0  0  0  0  0  0  0  0
  -25.0627  -22.2862   19.6339 C   0  0  0  0  0  0  0  0  0  1  0  0
  -29.6143  -18.1755   21.9005 C   0  0  0  0  0  0  0  0  0  0  0  0
  -16.5110  -22.3261   22.0000 C   0  0  1  0  0  0  0  0  0  0  0  0
  -15.1795  -19.9794   19.3373 C   0  0  2  0  0  0  0  0  0  0  0  0
  -30.6294  -17.0294   21.8720 C   0  0  2  0  0  0  0  0  0  0  0  0
  -15.8673  -22.3704   23.4146 C   0  0  0  0  0  0  0  0  0  0  0  0
  -25.8205  -11.5210   20.3680 N   0  0  0  0  0  0  0  0  0  0  0  0
  -27.6787  -20.1879   21.3988 N   0  0  0  0  0  0  0  0  0  0  0  0
  -26.1992  -12.7939   20.1624 N   0  0  0  0  0  0  0  0  0  0  0  0
  -18.1012  -24.0172   21.1425 N   0  0  0  0  0  0  0  0  0  0  0  0
  -29.9098  -13.6242   20.5512 N   0  0  0  0  0  0  0  0  0  0  0  0
  -25.4081  -15.0265   20.1816 N   0  0  0  0  0  0  0  0  0  0  0  0
  -21.7639  -12.6199   21.3323 N   0  0  0  0  0  0  0  0  0  0  0  0
  -28.9186  -18.2919   20.6605 N   0  0  0  0  0  0  0  0  0  0  0  0
  -18.5839  -27.4145   22.1199 N   0  0  0  0  0  0  0  0  0  0  0  0
  -15.7123  -21.6232   21.0018 N   0  0  0  0  0  0  0  0  0  0  0  0
  -29.9972  -15.7738   21.5336 N   0  0  0  0  0  0  0  0  0  0  0  0
  -15.8590  -19.4360   18.1274 N   0  3  0  0  0  0  0  0  0  0  0  0
  -22.5466  -14.7382   20.9336 O   0  0  0  0  0  0  0  0  0  0  0  0
  -19.4964  -25.4202   22.9024 O   0  0  0  0  0  0  0  0  0  0  0  0
  -15.8183  -24.4738   21.2690 O   0  0  0  0  0  0  0  0  0  0  0  0
  -17.3223  -20.0477   20.4514 O   0  0  0  0  0  0  0  0  0  0  0  0
  -31.8168  -14.9370   20.4176 O   0  0  0  0  0  0  0  0  0  0  0  0
  -21.5093   -7.0804   21.8660 O   0  0  0  0  0  0  0  0  0  0  0  0
  -23.8566  -21.9548   20.3207 O   0  0  0  0  0  0  0  0  0  1  0  0
  -23.7679   -3.2885   25.1710 F   0  0  0  0  0  0  0  0  0  0  0  0
  -20.3119   -6.3921   24.2607 F   0  0  0  0  0  0  0  0  0  0  0  0
  1  2  1  0  0  0  0
  1  5  2  0  0  0  0
  2  6  2  0  0  0  0
  3  9  2  0  0  0  0
  3 17  1  0  0  0  0
  4 10  1  0  0  0  0
  4 17  2  0  0  0  0
  5 19  1  0  0  0  0
  6 21  1  0  0  0  0
  7 11  2  0  0  0  0
  7 20  1  0  0  0  0
  8 14  2  0  0  0  0
  8 23  1  0  0  0  0
  9 24  1  0  0  0  0
 10 24  2  0  0  0  0
 11 25  1  0  0  0  0
 12 13  2  0  0  0  0
 12 26  1  0  0  0  0
 13 27  1  0  0  0  0
 14 31  1  0  0  0  0
 15 22  1  0  0  0  0
 15 25  2  0  0  0  0
 16 27  2  0  0  0  0
 16 28  1  0  0  0  0
 17 29  1  0  0  0  0
 18 29  1  0  0  0  0
 18 32  2  0  0  0  0
 18 33  1  0  0  0  0
 19 21  2  0  0  0  0
 19 38  1  0  0  0  0
 20 22  2  0  0  0  0
 20 39  1  0  0  0  0
 21 47  1  0  0  0  0
 22 40  1  0  0  0  0
 23 30  2  0  0  0  0
 23 57  1  0  0  0  0
 24 80  1  0  0  0  0
 25 81  1  0  0  0  0
 26 28  2  0  0  0  0
 26 80  1  0  0  0  0
 27 82  1  0  0  0  0
 28 83  1  0  0  0  0
 29 63  2  0  0  0  0
 30 50  1  0  0  0  0
 30 64  1  0  0  0  0
 31 64  2  0  0  0  0
 31 70  1  0  0  0  0
 32 65  1  0  0  0  0
 32 68  1  0  0  0  0
 33 69  1  0  0  0  0
 33 75  2  0  0  0  0
 34 48  1  0  0  0  0
 34 71  1  0  0  0  0
 34 76  2  0  0  0  0
 35 59  1  0  0  0  0
 35 66  1  0  0  0  0
 35 77  2  0  0  0  0
 36 60  1  0  0  0  0
 36 72  1  0  0  0  0
 36 78  2  0  0  0  0
 37 67  1  0  0  0  0
 37 73  1  0  0  0  0
 37 79  2  0  0  0  0
 38 41  1  0  0  0  0
 39 48  1  0  0  0  0
 40 66  1  0  0  0  0
 41 43  1  0  0  0  0
 42 44  1  0  0  0  0
 42 45  1  0  0  0  0
 43 47  1  0  0  0  0
 44 49  1  0  0  0  0
 45 67  1  0  0  0  0
 46 49  1  0  0  0  0
 46 67  1  0  0  0  0
 47 71  1  0  0  0  0
 48 66  1  0  0  0  0
 49 65  1  0  0  0  0
 51 60  1  0  0  0  0
 52 61  1  0  0  0  0
 53 62  1  0  0  0  0
 54 62  1  0  0  0  0
 55 62  1  0  0  0  0
 56 74  1  0  0  0  0
 57 81  1  0  0  0  0
 58 61  1  0  0  0  0
 58 70  1  0  0  0  0
 59 62  1  0  0  0  0
 59 72  1  0  0  0  0
 60 74  1  0  0  0  0
 61 73  1  0  0  0  0
 63 65  1  0  0  0  0
M  CHG  1  74   1
M  ISO  4  37 100  57 101  73 100  81 101
M  END
> <Batch ID>
0139

> <Smiles>
CNC(C)C(=O)NC(C(=O)N1Cc2cc([101O:1][101CH2:1]c3ccc(NCC(C)[100NH:0][100C:0](=O)N4CCCC(n5nc(-c6ccc(Oc7ccc(F)cc7F)cc6)c(C(N)=O)c5N)C4)nc3C)ccc2CC1C(=O)NC1CCCc2ccccc21)C(C)(C)C

> <Shape>
0.269

> <Color>
0.218

> <Negative vol penalty>
0.000

$$$$

  -OEChem-04052321103D

 82 90  0     1  0  0  0  0  0999 V2000
  -24.0930  -22.7254   18.6387 C   0  0  0  0  0  0  0  0  0  0  0  0
  -24.1387  -21.4637   18.0544 C   0  0  0  0  0  0  0  0  0  0  0  0
  -27.0078  -26.0600   17.4835 C   0  0  0  0  0  0  0  0  0  0  0  0
  -26.5919  -25.5094   19.7988 C   0  0  0  0  0  0  0  0  0  0  0  0
  -24.5375  -22.9024   19.9483 C   0  0  0  0  0  0  0  0  0  0  0  0
  -24.6301  -20.3784   18.7791 C   0  0  0  0  0  0  0  0  0  0  0  0
  -23.7253  -13.3149   19.5566 C   0  0  0  0  0  0  0  0  0  0  0  0
  -29.4157  -13.3897   20.6296 C   0  0  0  0  0  0  0  0  0  0  0  0
  -28.8046  -12.1364   20.6670 C   0  0  0  0  0  0  0  0  0  0  0  0
  -26.0655  -27.0857   17.5581 C   0  0  0  0  0  0  0  0  0  0  0  0
  -25.6495  -26.5351   19.8735 C   0  0  0  0  0  0  0  0  0  0  0  0
  -24.4572  -12.1283   19.5519 C   0  0  0  0  0  0  0  0  0  0  0  0
  -23.3954  -29.2411   20.7762 C   0  0  0  0  0  0  0  0  0  0  0  0
  -23.4316  -30.0760   21.8930 C   0  0  0  0  0  0  0  0  0  0  0  0
  -25.1241  -12.5377   21.8338 C   0  0  0  0  0  0  0  0  0  0  0  0
  -29.6362  -13.2107   18.2304 C   0  0  0  0  0  0  0  0  0  0  0  0
  -25.6862  -30.7348   21.3275 C   0  0  0  0  0  0  0  0  0  0  0  0
  -27.2710  -25.2718   18.6039 C   0  0  0  0  0  0  0  0  0  0  0  0
  -29.6226  -24.3022   18.7967 C   0  0  0  0  0  0  0  0  0  0  0  0
  -25.0256  -21.8169   20.6927 C   0  0  0  0  0  0  0  0  0  0  0  0
  -23.6960  -14.1287   20.6983 C   0  0  0  0  0  0  0  0  0  0  0  0
  -25.0828  -20.5413   20.0994 C   0  0  0  0  0  0  0  0  0  0  0  0
  -24.3889  -13.7329   21.8513 C   0  0  0  0  0  0  0  0  0  0  0  0
  -29.8314  -13.9269   19.4113 C   0  0  0  0  0  0  0  0  0  0  0  0
  -28.6093  -11.4202   19.4861 C   0  0  0  0  0  0  0  0  0  0  0  0
  -25.3864  -27.3233   18.7531 C   0  0  0  0  0  0  0  0  0  0  0  0
  -25.1591  -11.7410   20.6897 C   0  0  0  0  0  0  0  0  0  0  0  0
  -24.5047  -29.1530   19.9351 C   0  0  0  0  0  0  0  0  0  0  0  0
  -24.5769  -30.8229   22.1686 C   0  0  0  0  0  0  0  0  0  0  0  0
  -25.6500  -29.8999   20.2107 C   0  0  0  0  0  0  0  0  0  0  0  0
  -29.0252  -11.9573   18.2678 C   0  0  0  0  0  0  0  0  0  0  0  0
  -28.2439  -24.2118   18.5273 C   0  0  0  0  0  0  0  0  0  0  0  0
  -30.0987  -23.0320   18.5810 C   0  0  0  0  0  0  0  0  0  0  0  0
  -30.4033  -25.4333   19.2054 C   0  0  0  0  0  0  0  0  0  0  0  0
  -24.6122  -17.0998   21.3592 C   0  0  0  0  0  0  0  0  0  0  0  0
  -23.1777  -16.4937   24.2048 C   0  0  0  0  0  0  0  0  0  0  0  0
  -22.1351  -14.1832   26.4897 C   0  0  0  0  0  0  0  0  0  0  0  0
  -29.7020  -17.6199   19.2871 C   0  0  0  0  0  0  0  0  0  0  0  0
  -25.5390  -22.0663   22.0887 C   0  0  0  0  0  0  0  0  0  0  0  0
  -22.8800  -15.3922   20.6960 C   0  0  0  0  0  0  0  0  0  0  0  0
  -24.3732  -14.5608   23.1093 C   0  0  0  0  0  0  0  0  0  0  0  0
  -25.6962  -20.7933   22.9163 C   0  0  0  0  0  0  0  0  0  0  0  0
  -27.8880  -18.9984   16.4752 C   0  0  0  0  0  0  0  0  0  0  0  0
  -26.4019  -19.7121   22.1039 C   0  0  0  0  0  0  0  0  0  0  0  0
  -27.9357  -20.4954   16.7869 C   0  0  0  0  0  0  0  0  0  0  0  0
  -27.7226  -18.1737   17.7483 C   0  0  0  0  0  0  0  0  0  0  0  0
  -28.8096  -19.9245   19.1000 C   0  0  0  0  0  0  0  0  0  0  0  0
  -25.5860  -19.3347   20.8616 C   0  0  1  0  0  0  0  0  0  0  0  0
  -23.3386  -16.4015   21.7441 C   0  0  1  0  0  0  0  0  0  0  0  0
  -28.9983  -20.8116   17.8560 C   0  0  2  0  0  0  0  0  0  0  0  0
  -21.0304  -13.9923   28.7349 C   0  0  0  0  0  0  0  0  0  0  0  0
  -25.8191   -8.8061   19.0837 C   0  0  0  0  0  0  0  0  0  0  0  0
  -25.7808  -17.3375   25.5546 C   0  0  0  0  0  0  0  0  0  0  0  0
  -24.9651  -16.2444   27.6541 C   0  0  0  0  0  0  0  0  0  0  0  0
  -23.7064  -18.1651   26.6797 C   0  0  0  0  0  0  0  0  0  0  0  0
  -19.8622  -12.6532   25.3706 C   0  0  0  0  0  0  0  0  0  0  0  0
  -27.9448  -10.0663   19.5699 C   0  0  0  0  0  0  0  0  0  0  0  0
  -30.4850  -15.2669   19.3713 C   0  0  0  0  0  0  0  0  0  0  0  0
  -23.6252  -15.9168   25.5261 C   0  0  1  0  0  0  0  0  0  0  0  0
  -20.8193  -14.0203   27.2291 C   0  0  2  0  0  0  0  0  0  0  0  0
  -26.4208  -10.1598   19.4391 C   0  0  2  0  0  0  0  0  0  1  0  0
  -24.5214  -16.9011   26.3295 C   0  0  0  0  0  0  0  0  0  0  0  0
  -27.8684  -22.9814   18.1677 N   0  0  0  0  0  0  0  0  0  0  0  0
  -29.0183  -22.2871   18.2097 N   0  0  0  0  0  0  0  0  0  0  0  0
  -23.5660  -15.7908   23.0554 N   0  0  0  0  0  0  0  0  0  0  0  0
  -28.7759  -18.5091   18.7169 N   0  0  0  0  0  0  0  0  0  0  0  0
  -31.3319  -22.4909   18.6746 N   0  0  0  0  0  0  0  0  0  0  0  0
  -29.7557  -26.6638   19.3809 N   0  0  0  0  0  0  0  0  0  0  0  0
  -24.4844  -18.4691   21.2242 N   0  0  0  0  0  0  0  0  0  0  0  0
  -22.4115  -15.5078   26.2249 N   0  0  0  0  0  0  0  0  0  0  0  0
  -29.5983  -16.2965   18.8767 N   0  0  0  0  0  0  0  0  0  0  0  0
  -20.1515  -12.7509   26.8245 N   0  3  0  0  0  0  0  0  0  0  0  0
  -31.6413  -25.3588   19.3931 O   0  0  0  0  0  0  0  0  0  0  0  0
  -25.6354  -16.4450   21.1981 O   0  0  0  0  0  0  0  0  0  0  0  0
  -22.5024  -17.5259   24.1932 O   0  0  0  0  0  0  0  0  0  0  0  0
  -22.8483  -13.2308   26.1815 O   0  0  0  0  0  0  0  0  0  0  0  0
  -30.5619  -17.9799   20.0983 O   0  0  0  0  0  0  0  0  0  0  0  0
  -24.4669  -28.3242   18.8263 O   0  0  0  0  0  0  0  0  0  0  0  0
  -25.8749  -10.5836   20.6876 O   0  0  0  0  0  0  0  0  0  1  0  0
  -24.6109  -31.6258   23.2402 F   0  0  0  0  0  0  0  0  0  0  0  0
  -26.7183  -29.8203   19.4056 F   0  0  0  0  0  0  0  0  0  0  0  0
  -28.8010  -11.0994   16.7869 Cl  0  0  0  0  0  0  0  0  0  0  0  0
  1  2  1  0  0  0  0
  1  5  2  0  0  0  0
  2  6  2  0  0  0  0
  3 10  2  0  0  0  0
  3 18  1  0  0  0  0
  4 11  1  0  0  0  0
  4 18  2  0  0  0  0
  5 20  1  0  0  0  0
  6 22  1  0  0  0  0
  7 12  2  0  0  0  0
  7 21  1  0  0  0  0
  8  9  2  0  0  0  0
  8 24  1  0  0  0  0
  9 25  1  0  0  0  0
 10 26  1  0  0  0  0
 11 26  2  0  0  0  0
 12 27  1  0  0  0  0
 13 14  2  0  0  0  0
 13 28  1  0  0  0  0
 14 29  1  0  0  0  0
 15 23  1  0  0  0  0
 15 27  2  0  0  0  0
 16 24  2  0  0  0  0
 16 31  1  0  0  0  0
 17 29  2  0  0  0  0
 17 30  1  0  0  0  0
 18 32  1  0  0  0  0
 19 32  1  0  0  0  0
 19 33  2  0  0  0  0
 19 34  1  0  0  0  0
 20 22  2  0  0  0  0
 20 39  1  0  0  0  0
 21 23  2  0  0  0  0
 21 40  1  0  0  0  0
 22 48  1  0  0  0  0
 23 41  1  0  0  0  0
 24 58  1  0  0  0  0
 25 31  2  0  0  0  0
 25 57  1  0  0  0  0
 26 78  1  0  0  0  0
 27 79  1  0  0  0  0
 28 30  2  0  0  0  0
 28 78  1  0  0  0  0
 29 80  1  0  0  0  0
 30 81  1  0  0  0  0
 31 82  1  0  0  0  0
 32 63  2  0  0  0  0
 33 64  1  0  0  0  0
 33 67  1  0  0  0  0
 34 68  1  0  0  0  0
 34 73  2  0  0  0  0
 35 49  1  0  0  0  0
 35 69  1  0  0  0  0
 35 74  2  0  0  0  0
 36 59  1  0  0  0  0
 36 65  1  0  0  0  0
 36 75  2  0  0  0  0
 37 60  1  0  0  0  0
 37 70  1  0  0  0  0
 37 76  2  0  0  0  0
 38 66  1  0  0  0  0
 38 71  1  0  0  0  0
 38 77  2  0  0  0  0
 39 42  1  0  0  0  0
 40 49  1  0  0  0  0
 41 65  1  0  0  0  0
 42 44  1  0  0  0  0
 43 45  1  0  0  0  0
 43 46  1  0  0  0  0
 44 48  1  0  0  0  0
 45 50  1  0  0  0  0
 46 66  1  0  0  0  0
 47 50  1  0  0  0  0
 47 66  1  0  0  0  0
 48 69  1  0  0  0  0
 49 65  1  0  0  0  0
 50 64  1  0  0  0  0
 51 60  1  0  0  0  0
 52 61  1  0  0  0  0
 53 62  1  0  0  0  0
 54 62  1  0  0  0  0
 55 62  1  0  0  0  0
 56 72  1  0  0  0  0
 57 61  1  0  0  0  0
 58 71  1  0  0  0  0
 59 62  1  0  0  0  0
 59 70  1  0  0  0  0
 60 72  1  0  0  0  0
 61 79  1  0  0  0  0
 63 64  1  0  0  0  0
M  CHG  1  72   1
M  ISO  4  38 100  61 101  71 100  79 101
M  END
> <Batch ID>
0139

> <Smiles>
CNC(C)C(=O)NC(C(=O)N1Cc2cc([101O:1][101CH:1](C)Cc3ccc(C[100NH:0][100C:0](=O)N4CCCC(n5nc(-c6ccc(Oc7ccc(F)cc7F)cc6)c(C(N)=O)c5N)C4)cc3Cl)ccc2CC1C(=O)NC1CCCc2ccccc21)C(C)(C)C

> <Shape>
0.212

> <Color>
0.086

> <Negative vol penalty>
0.000

$$$$

  -OEChem-04052321103D

 89 98  0     1  0  0  0  0  0999 V2000
  -33.1438  -33.4288   24.9672 C   0  0  0  0  0  0  0  0  0  0  0  0
  -33.0262  -32.1506   25.5038 C   0  0  0  0  0  0  0  0  0  0  0  0
  -23.0703   -9.8271   20.0128 C   0  0  0  0  0  0  0  0  0  0  0  0
  -23.7947   -9.9388   22.3149 C   0  0  0  0  0  0  0  0  0  0  0  0
  -32.1759  -33.9044   24.0836 C   0  0  0  0  0  0  0  0  0  0  0  0
  -31.9398  -31.3477   25.1578 C   0  0  0  0  0  0  0  0  0  0  0  0
  -33.3024  -26.5871   24.0972 C   0  0  0  0  0  0  0  0  0  0  0  0
  -22.3137   -8.6925   20.3059 C   0  0  0  0  0  0  0  0  0  0  0  0
  -23.0380   -8.8043   22.6080 C   0  0  0  0  0  0  0  0  0  0  0  0
  -33.5709  -25.7462   25.1764 C   0  0  0  0  0  0  0  0  0  0  0  0
  -19.7948   -8.0591   23.1970 C   0  0  0  0  0  0  0  0  0  0  0  0
  -19.0196   -8.0807   24.3563 C   0  0  0  0  0  0  0  0  0  0  0  0
  -31.3740  -24.7742   24.9579 C   0  0  0  0  0  0  0  0  0  0  0  0
  -29.8821  -17.5138   22.9504 C   0  0  0  0  0  0  0  0  0  0  0  0
  -32.0684  -16.6233   22.4362 C   0  0  0  0  0  0  0  0  0  0  0  0
  -20.2343   -6.1722   25.2043 C   0  0  0  0  0  0  0  0  0  0  0  0
  -23.8108  -10.4502   21.0173 C   0  0  0  0  0  0  0  0  0  0  0  0
  -24.1741  -12.9642   20.7818 C   0  0  0  0  0  0  0  0  0  0  0  0
  -31.0822  -33.1034   23.7191 C   0  0  0  0  0  0  0  0  0  0  0  0
  -32.0615  -26.5353   23.4461 C   0  0  0  0  0  0  0  0  0  0  0  0
  -30.9557  -31.8136   24.2695 C   0  0  0  0  0  0  0  0  0  0  0  0
  -31.0931  -25.6137   23.8691 C   0  0  0  0  0  0  0  0  0  0  0  0
  -31.8459  -18.4533   23.9979 C   0  0  0  0  0  0  0  0  0  0  0  0
  -30.4625  -18.4369   23.8201 C   0  0  0  0  0  0  0  0  0  0  0  0
  -32.6489  -17.5465   23.3060 C   0  0  0  0  0  0  0  0  0  0  0  0
  -30.6850  -16.6069   22.2585 C   0  0  0  0  0  0  0  0  0  0  0  0
  -22.2975   -8.1811   21.6035 C   0  0  0  0  0  0  0  0  0  0  0  0
  -32.6056  -24.8416   25.6087 C   0  0  0  0  0  0  0  0  0  0  0  0
  -20.7898   -7.0939   23.0412 C   0  0  0  0  0  0  0  0  0  0  0  0
  -19.2393   -7.1373   25.3600 C   0  0  0  0  0  0  0  0  0  0  0  0
  -21.0095   -6.1505   24.0449 C   0  0  0  0  0  0  0  0  0  0  0  0
  -24.5930  -11.6219   20.7150 C   0  0  0  0  0  0  0  0  0  0  0  0
  -25.2776  -13.6877   20.4004 C   0  0  0  0  0  0  0  0  0  0  0  0
  -22.9014  -13.5085   21.1554 C   0  0  0  0  0  0  0  0  0  0  0  0
  -29.6793  -28.5901   22.9916 C   0  0  0  0  0  0  0  0  0  0  0  0
  -28.5086  -26.2172   21.1152 C   0  0  0  0  0  0  0  0  0  0  0  0
  -28.4296  -22.8889   20.3650 C   0  0  0  0  0  0  0  0  0  0  0  0
  -30.7484  -14.7020   20.6112 C   0  0  0  0  0  0  0  0  0  0  0  0
  -30.0363  -33.6786   22.7972 C   0  0  0  0  0  0  0  0  0  0  0  0
  -31.7972  -27.4305   22.2666 C   0  0  0  0  0  0  0  0  0  0  0  0
  -29.7526  -25.5045   23.1912 C   0  0  0  0  0  0  0  0  0  0  0  0
  -29.1133  -32.6249   22.1905 C   0  0  0  0  0  0  0  0  0  0  0  0
  -29.6519  -12.1851   18.3440 C   0  0  0  0  0  0  0  0  0  0  0  0
  -28.6292  -31.6568   23.2652 C   0  0  0  0  0  0  0  0  0  0  0  0
  -28.2036  -11.9247   18.7642 C   0  0  0  0  0  0  0  0  0  0  0  0
  -33.8670  -19.9641   24.5353 C   0  0  0  0  0  0  0  0  0  0  0  0
  -30.5501  -12.4649   19.5476 C   0  0  0  0  0  0  0  0  0  0  0  0
  -28.6278  -13.2683   20.8622 C   0  0  0  0  0  0  0  0  0  0  0  0
  -34.2939  -21.1857   25.3442 C   0  0  0  0  0  0  0  0  0  0  0  0
  -32.4787  -19.4601   24.9457 C   0  0  2  0  0  0  0  0  0  0  0  0
  -29.8048  -30.9034   23.8992 C   0  0  1  0  0  0  0  0  0  0  0  0
  -30.3105  -27.6498   22.0042 C   0  0  1  0  0  0  0  0  0  0  0  0
  -32.5009  -19.0027   26.4353 C   0  0  2  0  0  0  0  0  0  0  0  0
  -27.6719  -13.0455   19.6788 C   0  0  2  0  0  0  0  0  0  0  0  0
  -33.4418  -19.8769   27.3201 C   0  0  2  0  0  0  0  0  0  0  0  0
  -29.5806  -19.3967   24.5496 C   0  0  0  0  0  0  0  0  0  0  0  0
  -34.1326  -17.5432   23.4784 C   0  0  0  0  0  0  0  0  0  0  0  0
  -32.8944  -17.5253   26.6156 C   0  0  0  0  0  0  0  0  0  0  0  0
  -32.8825  -19.9895   28.7413 C   0  0  0  0  0  0  0  0  0  0  0  0
  -27.3504  -21.2464   18.8046 C   0  0  0  0  0  0  0  0  0  0  0  0
  -25.9226  -26.3902   22.7254 C   0  0  0  0  0  0  0  0  0  0  0  0
  -25.2726  -24.1609   21.7896 C   0  0  0  0  0  0  0  0  0  0  0  0
  -25.6004  -26.1054   20.2618 C   0  0  0  0  0  0  0  0  0  0  0  0
  -31.0390  -22.0773   19.2287 C   0  0  0  0  0  0  0  0  0  0  0  0
  -34.2686  -22.2855   27.5585 C   0  0  0  0  0  0  0  0  0  0  0  0
  -34.2233  -23.6327   26.8648 C   0  0  0  0  0  0  0  0  0  1  0  0
  -27.6150  -25.0209   21.3374 C   0  0  1  0  0  0  0  0  0  0  0  0
  -28.5492  -22.1510   19.0437 C   0  0  2  0  0  0  0  0  0  0  0  0
  -26.1271  -25.4225   21.5428 C   0  0  0  0  0  0  0  0  0  0  0  0
  -25.8634  -11.4972   20.3218 N   0  0  0  0  0  0  0  0  0  0  0  0
  -26.2523  -12.7704   20.1381 N   0  0  0  0  0  0  0  0  0  0  0  0
  -29.5395  -26.4056   22.0465 N   0  0  0  0  0  0  0  0  0  0  0  0
  -29.9857  -13.5406   20.3656 N   0  0  0  0  0  0  0  0  0  0  0  0
  -25.4994  -15.0126   20.2670 N   0  0  0  0  0  0  0  0  0  0  0  0
  -21.8773  -12.6237   21.5198 N   0  0  0  0  0  0  0  0  0  0  0  0
  -30.0957  -15.6698   21.3740 N   0  0  0  0  0  0  0  0  0  0  0  0
  -30.2580  -29.8446   23.0229 N   0  0  0  0  0  0  0  0  0  0  0  0
  -27.8421  -24.1264   20.2075 N   0  0  0  0  0  0  0  0  0  0  0  0
  -33.5919  -21.2541   26.6885 N   0  3  1  0  0  0  0  0  0  0  0  0
  -29.7812  -21.3126   19.0284 N   0  3  0  0  0  0  0  0  0  0  0  0
  -22.6739  -14.7421   21.1500 O   0  0  0  0  0  0  0  0  0  0  0  0
  -28.7361  -28.2065   23.6734 O   0  0  0  0  0  0  0  0  0  0  0  0
  -28.3038  -26.9533   20.1467 O   0  0  0  0  0  0  0  0  0  0  0  0
  -28.8151  -22.4134   21.4307 O   0  0  0  0  0  0  0  0  0  0  0  0
  -31.8858  -14.8401   20.1540 O   0  0  0  0  0  0  0  0  0  0  0  0
  -21.5591   -7.0742   21.8899 O   0  0  0  0  0  0  0  0  0  0  0  0
  -32.8649  -24.0202   26.6623 O   0  0  0  0  0  0  0  0  0  1  0  0
  -18.4958   -7.1592   26.4739 F   0  0  0  0  0  0  0  0  0  0  0  0
  -21.9647   -5.2216   23.9014 F   0  0  0  0  0  0  0  0  0  0  0  0
  1  2  1  0  0  0  0
  1  5  2  0  0  0  0
  2  6  2  0  0  0  0
  3  8  2  0  0  0  0
  3 17  1  0  0  0  0
  4  9  1  0  0  0  0
  4 17  2  0  0  0  0
  5 19  1  0  0  0  0
  6 21  1  0  0  0  0
  7 10  2  0  0  0  0
  7 20  1  0  0  0  0
  8 27  1  0  0  0  0
  9 27  2  0  0  0  0
 10 28  1  0  0  0  0
 11 12  2  0  0  0  0
 11 29  1  0  0  0  0
 12 30  1  0  0  0  0
 13 22  1  0  0  0  0
 13 28  2  0  0  0  0
 14 24  2  0  0  0  0
 14 26  1  0  0  0  0
 15 25  1  0  0  0  0
 15 26  2  0  0  0  0
 16 30  2  0  0  0  0
 16 31  1  0  0  0  0
 17 32  1  0  0  0  0
 18 32  1  0  0  0  0
 18 33  2  0  0  0  0
 18 34  1  0  0  0  0
 19 21  2  0  0  0  0
 19 39  1  0  0  0  0
 20 22  2  0  0  0  0
 20 40  1  0  0  0  0
 21 51  1  0  0  0  0
 22 41  1  0  0  0  0
 23 24  1  0  0  0  0
 23 25  2  0  0  0  0
 23 50  1  0  0  0  0
 24 56  1  0  0  0  0
 25 57  1  0  0  0  0
 26 76  1  0  0  0  0
 27 86  1  0  0  0  0
 28 87  1  0  0  0  0
 29 31  2  0  0  0  0
 29 86  1  0  0  0  0
 30 88  1  0  0  0  0
 31 89  1  0  0  0  0
 32 70  2  0  0  0  0
 33 71  1  0  0  0  0
 33 74  1  0  0  0  0
 34 75  1  0  0  0  0
 34 81  2  0  0  0  0
 35 52  1  0  0  0  0
 35 77  1  0  0  0  0
 35 82  2  0  0  0  0
 36 67  1  0  0  0  0
 36 72  1  0  0  0  0
 36 83  2  0  0  0  0
 37 68  1  0  0  0  0
 37 78  1  0  0  0  0
 37 84  2  0  0  0  0
 38 73  1  0  0  0  0
 38 76  1  0  0  0  0
 38 85  2  0  0  0  0
 39 42  1  0  0  0  0
 40 52  1  0  0  0  0
 41 72  1  0  0  0  0
 42 44  1  0  0  0  0
 43 45  1  0  0  0  0
 43 47  1  0  0  0  0
 44 51  1  0  0  0  0
 45 54  1  0  0  0  0
 46 49  1  0  0  0  0
 46 50  1  0  0  0  0
 47 73  1  0  0  0  0
 48 54  1  0  0  0  0
 48 73  1  0  0  0  0
 49 79  1  0  0  0  0
 50 53  1  0  0  0  0
 51 77  1  0  0  0  0
 52 72  1  0  0  0  0
 53 55  1  0  0  0  0
 53 58  1  0  0  0  0
 54 71  1  0  0  0  0
 55 59  1  0  0  0  0
 55 79  1  0  0  0  0
 60 68  1  0  0  0  0
 61 69  1  0  0  0  0
 62 69  1  0  0  0  0
 63 69  1  0  0  0  0
 64 80  1  0  0  0  0
 65 66  1  0  0  0  0
 65 79  1  0  0  0  0
 66 87  1  0  0  0  0
 67 69  1  0  0  0  0
 67 78  1  0  0  0  0
 68 80  1  0  0  0  0
 70 71  1  0  0  0  0
M  CHG  2  79   1  80   1
M  ISO  4  38 100  66 101  76 100  87 101
M  END
> <Batch ID>
0139

> <Smiles>
CNC(C)C(=O)NC(C(=O)N1Cc2cc([101O:1][101CH2:1]CN3CCC(c4c(C)cc([100NH:0][100C:0](=O)N5CCCC(n6nc(-c7ccc(Oc8ccc(F)cc8F)cc7)c(C(N)=O)c6N)C5)cc4C)C(C)C3C)ccc2CC1C(=O)NC1CCCc2ccccc21)C(C)(C)C

> <Shape>
0.221

> <Color>
0.208

> <Negative vol penalty>
0.000

$$$$

  -OEChem-04052321103D

 91100  0     1  0  0  0  0  0999 V2000
  -32.2990  -30.2759   19.8105 C   0  0  0  0  0  0  0  0  0  0  0  0
  -31.2119  -29.4616   20.1115 C   0  0  0  0  0  0  0  0  0  0  0  0
  -23.0732   -9.8705   19.9406 C   0  0  0  0  0  0  0  0  0  0  0  0
  -23.8382   -9.8739   22.2323 C   0  0  0  0  0  0  0  0  0  0  0  0
  -32.2173  -31.1839   18.7556 C   0  0  0  0  0  0  0  0  0  0  0  0
  -30.0421  -29.5557   19.3584 C   0  0  0  0  0  0  0  0  0  0  0  0
  -28.1662  -25.0210   18.1085 C   0  0  0  0  0  0  0  0  0  0  0  0
  -22.3301   -8.7168   20.1904 C   0  0  0  0  0  0  0  0  0  0  0  0
  -23.0951   -8.7202   22.4821 C   0  0  0  0  0  0  0  0  0  0  0  0
  -27.4667  -24.3274   19.0951 C   0  0  0  0  0  0  0  0  0  0  0  0
  -19.8684   -7.9209   23.0905 C   0  0  0  0  0  0  0  0  0  0  0  0
  -19.1141   -7.8789   24.2631 C   0  0  0  0  0  0  0  0  0  0  0  0
  -25.3831  -25.0477   18.1158 C   0  0  0  0  0  0  0  0  0  0  0  0
  -20.3575   -5.9405   24.9936 C   0  0  0  0  0  0  0  0  0  0  0  0
  -23.8273  -10.4491   20.9616 C   0  0  0  0  0  0  0  0  0  0  0  0
  -24.1684  -12.9745   20.8449 C   0  0  0  0  0  0  0  0  0  0  0  0
  -31.0494  -31.2824   17.9832 C   0  0  0  0  0  0  0  0  0  0  0  0
  -27.4783  -25.7434   17.1229 C   0  0  0  0  0  0  0  0  0  0  0  0
  -29.9443  -30.4669   18.2931 C   0  0  0  0  0  0  0  0  0  0  0  0
  -26.0762  -25.7476   17.1163 C   0  0  0  0  0  0  0  0  0  0  0  0
  -22.3410   -8.1417   21.4611 C   0  0  0  0  0  0  0  0  0  0  0  0
  -26.0750  -24.3430   19.1006 C   0  0  0  0  0  0  0  0  0  0  0  0
  -20.8672   -6.9726   22.8695 C   0  0  0  0  0  0  0  0  0  0  0  0
  -19.3586   -6.8887   25.2146 C   0  0  0  0  0  0  0  0  0  0  0  0
  -21.1118   -5.9824   23.8210 C   0  0  0  0  0  0  0  0  0  0  0  0
  -24.5956  -11.6405   20.7041 C   0  0  0  0  0  0  0  0  0  0  0  0
  -25.2596  -13.7247   20.4804 C   0  0  0  0  0  0  0  0  0  0  0  0
  -24.3178  -18.8069   23.2730 C   0  0  0  0  0  0  0  0  0  0  0  0
  -24.1771  -19.7341   22.1797 C   0  0  0  0  0  0  0  0  0  0  0  0
  -26.4773  -19.5901   21.2660 C   0  0  0  0  0  0  0  0  0  0  0  0
  -25.4190  -18.5500   23.9938 C   0  0  0  0  0  0  0  0  0  0  0  0
  -27.2457  -19.1912   22.2933 C   0  0  0  0  0  0  0  0  0  0  0  0
  -25.1215  -20.0824   21.2958 C   0  0  0  0  0  0  0  0  0  0  0  0
  -26.7548  -19.1523   23.7057 C   0  0  0  0  0  0  0  0  0  0  0  0
  -22.8988  -13.4894   21.2675 C   0  0  0  0  0  0  0  0  0  0  0  0
  -27.3340  -28.8035   16.2751 C   0  0  0  0  0  0  0  0  0  0  0  0
  -25.5397  -27.6398   13.8361 C   0  0  0  0  0  0  0  0  0  0  0  0
  -23.5219  -25.1548   12.6529 C   0  0  0  0  0  0  0  0  0  0  0  0
  -30.7436  -14.7445   20.6582 C   0  0  0  0  0  0  0  0  0  0  0  0
  -30.9915  -32.3122   16.8827 C   0  0  0  0  0  0  0  0  0  0  0  0
  -28.2472  -26.4644   16.0499 C   0  0  0  0  0  0  0  0  0  0  0  0
  -25.2903  -26.4911   16.0685 C   0  0  0  0  0  0  0  0  0  0  0  0
  -29.8484  -32.0862   15.8965 C   0  0  0  0  0  0  0  0  0  0  0  0
  -29.6011  -12.3636   18.2701 C   0  0  0  0  0  0  0  0  0  0  0  0
  -28.5491  -31.7986   16.6421 C   0  0  0  0  0  0  0  0  0  0  0  0
  -25.5742  -15.0708   25.6192 C   0  0  0  0  0  0  0  0  0  0  0  0
  -25.1160  -15.2393   24.1974 C   0  0  0  0  0  0  0  0  0  0  0  0
  -28.1647  -12.0690   18.7057 C   0  0  0  0  0  0  0  0  0  0  0  0
  -30.5209  -12.5827   19.4693 C   0  0  0  0  0  0  0  0  0  0  0  0
  -28.6221  -13.3111   20.8613 C   0  0  0  0  0  0  0  0  0  0  0  0
  -28.6668  -30.5221   17.4837 C   0  0  1  0  0  0  0  0  0  0  0  0
  -27.4502  -27.5896   15.3972 C   0  0  1  0  0  0  0  0  0  0  0  0
  -25.9700  -16.2956   24.8421 C   0  0  0  0  0  0  0  0  0  0  0  0
  -27.6453  -13.1383   19.6856 C   0  0  2  0  0  0  0  0  0  0  0  0
  -22.1751  -24.5021   10.6386 C   0  0  0  0  0  0  0  0  0  0  0  0
  -23.3840  -29.6480   14.6296 C   0  0  0  0  0  0  0  0  0  0  0  0
  -21.7546  -28.3377   13.2526 C   0  0  0  0  0  0  0  0  0  0  0  0
  -23.7282  -29.4068   12.1643 C   0  0  0  0  0  0  0  0  0  0  0  0
  -25.1280  -22.7054   12.2288 C   0  0  0  0  0  0  0  0  0  0  0  0
  -25.3799  -17.6424   25.1907 C   0  0  0  0  0  0  0  0  0  0  0  0
  -29.0662  -18.4430   20.8605 C   0  0  0  0  0  0  0  0  0  0  0  0
  -30.8118  -16.8930   21.8984 C   0  0  0  0  0  0  0  0  0  0  0  0
  -24.1048  -23.1578   19.7085 C   0  0  0  0  0  0  0  0  0  1  0  0
  -23.8282  -21.9057   20.5181 C   0  0  0  0  0  0  0  0  0  0  0  0
  -24.0694  -27.3709   13.6241 C   0  0  1  0  0  0  0  0  0  0  0  0
  -23.5220  -24.3978   11.3371 C   0  0  2  0  0  0  0  0  0  0  0  0
  -30.5454  -18.0668   20.9564 C   0  0  2  0  0  0  0  0  0  0  0  0
  -23.2486  -28.6783   13.4387 C   0  0  0  0  0  0  0  0  0  0  0  0
  -25.8595  -11.5456   20.2828 N   0  0  0  0  0  0  0  0  0  0  0  0
  -26.2359  -12.8294   20.1557 N   0  0  0  0  0  0  0  0  0  0  0  0
  -26.0876  -27.1859   15.0442 N   0  0  0  0  0  0  0  0  0  0  0  0
  -29.9721  -13.6097   20.3582 N   0  0  0  0  0  0  0  0  0  0  0  0
  -25.4696  -15.0564   20.4091 N   0  0  0  0  0  0  0  0  0  0  0  0
  -21.8878  -12.5794   21.6056 N   0  0  0  0  0  0  0  0  0  0  0  0
  -28.5571  -18.8267   22.1459 N   0  0  0  0  0  0  0  0  0  0  0  0
  -28.5486  -29.3499   16.6431 N   0  0  0  0  0  0  0  0  0  0  0  0
  -23.9816  -26.4457   12.4996 N   0  0  0  0  0  0  0  0  0  0  0  0
  -30.1462  -15.6718   21.5031 N   0  0  0  0  0  0  0  0  0  0  0  0
  -31.3168  -19.2524   21.4326 N   0  3  0  0  0  0  0  0  0  0  0  0
  -23.8210  -22.9563   11.5687 N   0  3  0  0  0  0  0  0  0  0  0  0
  -27.4937  -19.4917   24.6286 O   0  0  0  0  0  0  0  0  0  0  0  0
  -22.6624  -14.7198   21.3274 O   0  0  0  0  0  0  0  0  0  0  0  0
  -26.2245  -29.2148   16.5937 O   0  0  0  0  0  0  0  0  0  0  0  0
  -26.1802  -28.2245   12.9588 O   0  0  0  0  0  0  0  0  0  0  0  0
  -23.1476  -24.6524   13.7103 O   0  0  0  0  0  0  0  0  0  0  0  0
  -31.8785  -14.9209   20.2023 O   0  0  0  0  0  0  0  0  0  0  0  0
  -21.6158   -7.0161   21.7052 O   0  0  0  0  0  0  0  0  0  0  0  0
  -25.3898  -23.6674   20.0628 O   0  0  0  0  0  0  0  0  0  1  0  0
  -24.8434  -20.9459   20.2509 O   0  0  0  0  0  0  0  0  0  0  0  0
  -18.6352   -6.8495   26.3412 F   0  0  0  0  0  0  0  0  0  0  0  0
  -22.0708   -5.0694   23.6147 F   0  0  0  0  0  0  0  0  0  0  0  0
  1  2  1  0  0  0  0
  1  5  2  0  0  0  0
  2  6  2  0  0  0  0
  3  8  2  0  0  0  0
  3 15  1  0  0  0  0
  4  9  1  0  0  0  0
  4 15  2  0  0  0  0
  5 17  1  0  0  0  0
  6 19  1  0  0  0  0
  7 10  2  0  0  0  0
  7 18  1  0  0  0  0
  8 21  1  0  0  0  0
  9 21  2  0  0  0  0
 10 22  1  0  0  0  0
 11 12  2  0  0  0  0
 11 23  1  0  0  0  0
 12 24  1  0  0  0  0
 13 20  1  0  0  0  0
 13 22  2  0  0  0  0
 14 24  2  0  0  0  0
 14 25  1  0  0  0  0
 15 26  1  0  0  0  0
 16 26  1  0  0  0  0
 16 27  2  0  0  0  0
 16 35  1  0  0  0  0
 17 19  2  0  0  0  0
 17 40  1  0  0  0  0
 18 20  2  0  0  0  0
 18 41  1  0  0  0  0
 19 51  1  0  0  0  0
 20 42  1  0  0  0  0
 21 87  1  0  0  0  0
 22 88  1  0  0  0  0
 23 25  2  0  0  0  0
 23 87  1  0  0  0  0
 24 90  1  0  0  0  0
 25 91  1  0  0  0  0
 26 69  2  0  0  0  0
 27 70  1  0  0  0  0
 27 73  1  0  0  0  0
 28 29  1  0  0  0  0
 28 31  2  0  0  0  0
 29 33  2  0  0  0  0
 30 32  2  0  0  0  0
 30 33  1  0  0  0  0
 31 34  1  0  0  0  0
 31 60  1  0  0  0  0
 32 34  1  0  0  0  0
 32 75  1  0  0  0  0
 33 89  1  0  0  0  0
 34 81  2  0  0  0  0
 35 74  1  0  0  0  0
 35 82  2  0  0  0  0
 36 52  1  0  0  0  0
 36 76  1  0  0  0  0
 36 83  2  0  0  0  0
 37 65  1  0  0  0  0
 37 71  1  0  0  0  0
 37 84  2  0  0  0  0
 38 66  1  0  0  0  0
 38 77  1  0  0  0  0
 38 85  2  0  0  0  0
 39 72  1  0  0  0  0
 39 78  1  0  0  0  0
 39 86  2  0  0  0  0
 40 43  1  0  0  0  0
 41 52  1  0  0  0  0
 42 71  1  0  0  0  0
 43 45  1  0  0  0  0
 44 48  1  0  0  0  0
 44 49  1  0  0  0  0
 45 51  1  0  0  0  0
 46 47  1  0  0  0  0
 46 53  1  0  0  0  0
 47 53  1  0  0  0  0
 48 54  1  0  0  0  0
 49 72  1  0  0  0  0
 50 54  1  0  0  0  0
 50 72  1  0  0  0  0
 51 76  1  0  0  0  0
 52 71  1  0  0  0  0
 53 60  1  0  0  0  0
 54 70  1  0  0  0  0
 55 66  1  0  0  0  0
 56 68  1  0  0  0  0
 57 68  1  0  0  0  0
 58 68  1  0  0  0  0
 59 80  1  0  0  0  0
 61 67  1  0  0  0  0
 61 75  1  0  0  0  0
 62 67  1  0  0  0  0
 62 78  1  0  0  0  0
 63 64  1  0  0  0  0
 63 88  1  0  0  0  0
 64 89  1  0  0  0  0
 65 68  1  0  0  0  0
 65 77  1  0  0  0  0
 66 80  1  0  0  0  0
 67 79  1  0  0  0  0
 69 70  1  0  0  0  0
M  CHG  2  79   1  80   1
M  ISO  4  39 100  63 101  78 100  88 101
M  END
> <Batch ID>
0139

> <Smiles>
CNC(C)C(=O)NC(C(=O)N1Cc2cc([101O:1][101CH2:1]COc3ccc(CC4CC4)c(=O)c(NCC(N)C[100NH:0][100C:0](=O)N4CCCC(n5nc(-c6ccc(Oc7ccc(F)cc7F)cc6)c(C(N)=O)c5N)C4)c3)ccc2CC1C(=O)NC1CCCc2ccccc21)C(C)(C)C

> <Shape>
0.182

> <Color>
0.180

> <Negative vol penalty>
0.000

$$$$

  -OEChem-04052321103D

 87 95  0     1  0  0  0  0  0999 V2000
  -25.5063  -31.0253   17.2995 C   0  0  0  0  0  0  0  0  0  0  0  0
  -25.7549  -29.6570   17.3346 C   0  0  0  0  0  0  0  0  0  0  0  0
  -31.2686  -20.7048   20.0878 C   0  0  0  0  0  0  0  0  0  0  0  0
  -28.9270  -20.7318   20.6825 C   0  0  0  0  0  0  0  0  0  0  0  0
  -25.1294  -31.6943   18.4633 C   0  0  0  0  0  0  0  0  0  0  0  0
  -25.6277  -28.9569   18.5339 C   0  0  0  0  0  0  0  0  0  0  0  0
  -23.6694  -23.1980   19.2450 C   0  0  0  0  0  0  0  0  0  0  0  0
  -21.8896  -14.9464   21.9945 C   0  0  0  0  0  0  0  0  0  0  0  0
  -31.1956  -22.0533   19.7391 C   0  0  0  0  0  0  0  0  0  0  0  0
  -28.8541  -22.0804   20.3338 C   0  0  0  0  0  0  0  0  0  0  0  0
  -24.3466  -21.9907   19.4109 C   0  0  0  0  0  0  0  0  0  0  0  0
  -22.3560  -16.2511   21.8338 C   0  0  0  0  0  0  0  0  0  0  0  0
  -30.0928  -23.8941   17.1276 C   0  0  0  0  0  0  0  0  0  0  0  0
  -30.6944  -24.2870   15.9321 C   0  0  0  0  0  0  0  0  0  0  0  0
  -24.0882  -22.1812   21.8018 C   0  0  0  0  0  0  0  0  0  0  0  0
  -24.5552  -15.4002   21.3079 C   0  0  0  0  0  0  0  0  0  0  0  0
  -32.1397  -25.7894   17.1532 C   0  0  0  0  0  0  0  0  0  0  0  0
  -30.1343  -20.0439   20.5595 C   0  0  0  0  0  0  0  0  0  0  0  0
  -30.5233  -18.1147   22.1825 C   0  0  0  0  0  0  0  0  0  0  0  0
  -24.9881  -31.0003   19.6754 C   0  0  0  0  0  0  0  0  0  0  0  0
  -23.2052  -23.9126   20.3587 C   0  0  0  0  0  0  0  0  0  0  0  0
  -25.2498  -29.6175   19.7152 C   0  0  0  0  0  0  0  0  0  0  0  0
  -23.4031  -23.3960   21.6472 C   0  0  0  0  0  0  0  0  0  0  0  0
  -24.0888  -14.0955   21.4687 C   0  0  0  0  0  0  0  0  0  0  0  0
  -22.7560  -13.8686   21.8120 C   0  0  0  0  0  0  0  0  0  0  0  0
  -29.9884  -22.7411   19.8621 C   0  0  0  0  0  0  0  0  0  0  0  0
  -24.5587  -21.4836   20.6896 C   0  0  0  0  0  0  0  0  0  0  0  0
  -23.6888  -16.4780   21.4905 C   0  0  0  0  0  0  0  0  0  0  0  0
  -30.5146  -24.4489   18.3360 C   0  0  0  0  0  0  0  0  0  0  0  0
  -31.7179  -25.2347   15.9449 C   0  0  0  0  0  0  0  0  0  0  0  0
  -31.5381  -25.3965   18.3488 C   0  0  0  0  0  0  0  0  0  0  0  0
  -30.2089  -18.6507   20.9194 C   0  0  0  0  0  0  0  0  0  0  0  0
  -30.4612  -16.7544   22.0034 C   0  0  0  0  0  0  0  0  0  0  0  0
  -30.8428  -18.7864   23.4083 C   0  0  0  0  0  0  0  0  0  0  0  0
  -23.7996  -26.7824   21.5894 C   0  0  0  0  0  0  0  0  0  0  0  0
  -21.3838  -25.9890   23.6035 C   0  0  0  0  0  0  0  0  0  0  0  0
  -20.9729  -12.1701   22.3217 C   0  0  0  0  0  0  0  0  0  0  0  0
  -19.5438  -23.5318   25.0947 C   0  0  0  0  0  0  0  0  0  0  0  0
  -27.5227  -13.2848   18.1075 C   0  0  0  0  0  0  0  0  0  0  0  0
  -24.6244  -31.7750   20.9173 C   0  0  0  0  0  0  0  0  0  0  0  0
  -22.4530  -25.2001   20.1615 C   0  0  0  0  0  0  0  0  0  0  0  0
  -22.9069  -24.1144   22.8744 C   0  0  0  0  0  0  0  0  0  0  0  0
  -24.1481  -30.8923   22.0680 C   0  0  0  0  0  0  0  0  0  0  0  0
  -31.0396  -13.3887   18.6524 C   0  0  0  0  0  0  0  0  0  0  0  0
  -25.0813  -29.6990   22.2472 C   0  0  0  0  0  0  0  0  0  0  0  0
  -31.2539  -14.7007   19.4092 C   0  0  0  0  0  0  0  0  0  0  0  0
  -29.9370  -13.5158   17.6035 C   0  0  0  0  0  0  0  0  0  0  0  0
  -28.8651  -15.3365   18.8723 C   0  0  0  0  0  0  0  0  0  0  0  0
  -25.0984  -28.8187   20.9917 C   0  0  1  0  0  0  0  0  0  0  0  0
  -22.4754  -26.0999   21.3932 C   0  0  1  0  0  0  0  0  0  0  0  0
  -29.9290  -15.2420   19.9793 C   0  0  2  0  0  0  0  0  0  0  0  0
  -20.8545  -10.6688   22.4030 C   0  0  0  0  0  0  0  0  0  0  0  0
  -17.6630  -23.1910   26.7206 C   0  0  0  0  0  0  0  0  0  0  0  0
  -23.2712  -26.6219   25.9159 C   0  0  0  0  0  0  0  0  0  0  0  0
  -21.7125  -25.3847   27.4351 C   0  0  0  0  0  0  0  0  0  0  0  0
  -20.9243  -27.4247   26.2352 C   0  0  0  0  0  0  0  0  0  0  0  0
  -17.8727  -22.1843   23.0574 C   0  0  0  0  0  0  0  0  0  0  0  0
  -25.0395  -12.9605   21.2670 C   0  0  0  0  0  0  0  0  0  0  0  0
  -24.9162  -12.2641   19.8986 C   0  0  0  0  0  0  0  0  0  0  0  0
  -25.1147  -13.1904   18.7008 C   0  0  0  0  0  0  0  0  0  0  0  0
  -25.1001  -19.3417   19.8090 C   0  0  0  0  0  0  0  0  0  1  0  0
  -25.2071  -17.9507   20.4035 C   0  0  0  0  0  0  0  0  0  0  0  0
  -21.2903  -25.2866   24.9365 C   0  0  1  0  0  0  0  0  0  0  0  0
  -18.0451  -23.3539   25.2577 C   0  0  2  0  0  0  0  0  0  0  0  0
  -21.8107  -26.1666   26.1079 C   0  0  0  0  0  0  0  0  0  0  0  0
  -29.9653  -17.7079   20.0052 N   0  0  0  0  0  0  0  0  0  0  0  0
  -30.1268  -16.5656   20.6947 N   0  0  0  0  0  0  0  0  0  0  0  0
  -22.1825  -25.3726   22.6299 N   0  0  0  0  0  0  0  0  0  0  0  0
  -28.7074  -14.0325   18.2092 N   0  0  0  0  0  0  0  0  0  0  0  0
  -30.6607  -15.7132   22.8392 N   0  0  0  0  0  0  0  0  0  0  0  0
  -30.8620  -20.1877   23.4169 N   0  0  0  0  0  0  0  0  0  0  0  0
  -22.2705  -12.5693   21.9794 N   0  0  0  0  0  0  0  0  0  0  0  0
  -23.9099  -27.9949   20.9358 N   0  0  0  0  0  0  0  0  0  0  0  0
  -19.9013  -24.8634   25.0784 N   0  0  0  0  0  0  0  0  0  0  0  0
  -26.4047  -13.8435   18.7146 N   0  0  0  0  0  0  0  0  0  0  0  0
  -17.5827  -22.1481   24.5140 N   0  3  0  0  0  0  0  0  0  0  0  0
  -31.1197  -18.1621   24.4605 O   0  0  0  0  0  0  0  0  0  0  0  0
  -24.6571  -26.2492   22.2836 O   0  0  0  0  0  0  0  0  0  0  0  0
  -20.7649  -27.0419   23.4301 O   0  0  0  0  0  0  0  0  0  0  0  0
  -20.0032  -12.8893   22.5393 O   0  0  0  0  0  0  0  0  0  0  0  0
  -20.3202  -22.5842   24.9958 O   0  0  0  0  0  0  0  0  0  0  0  0
  -27.4667  -12.1971   17.5237 O   0  0  0  0  0  0  0  0  0  0  0  0
  -29.9168  -24.0571   19.5221 O   0  0  0  0  0  0  0  0  0  0  0  0
  -25.2200  -20.3057   20.8543 O   0  0  0  0  0  0  0  0  0  1  0  0
  -24.1467  -17.7595   21.3321 O   0  0  0  0  0  0  0  0  0  0  0  0
  -32.2966  -25.6108   14.7969 F   0  0  0  0  0  0  0  0  0  0  0  0
  -31.9483  -25.9321   19.5066 F   0  0  0  0  0  0  0  0  0  0  0  0
  1  2  1  0  0  0  0
  1  5  2  0  0  0  0
  2  6  2  0  0  0  0
  3  9  2  0  0  0  0
  3 18  1  0  0  0  0
  4 10  1  0  0  0  0
  4 18  2  0  0  0  0
  5 20  1  0  0  0  0
  6 22  1  0  0  0  0
  7 11  2  0  0  0  0
  7 21  1  0  0  0  0
  8 12  2  0  0  0  0
  8 25  1  0  0  0  0
  9 26  1  0  0  0  0
 10 26  2  0  0  0  0
 11 27  1  0  0  0  0
 12 28  1  0  0  0  0
 13 14  2  0  0  0  0
 13 29  1  0  0  0  0
 14 30  1  0  0  0  0
 15 23  1  0  0  0  0
 15 27  2  0  0  0  0
 16 24  1  0  0  0  0
 16 28  2  0  0  0  0
 17 30  2  0  0  0  0
 17 31  1  0  0  0  0
 18 32  1  0  0  0  0
 19 32  1  0  0  0  0
 19 33  2  0  0  0  0
 19 34  1  0  0  0  0
 20 22  2  0  0  0  0
 20 40  1  0  0  0  0
 21 23  2  0  0  0  0
 21 41  1  0  0  0  0
 22 49  1  0  0  0  0
 23 42  1  0  0  0  0
 24 25  2  0  0  0  0
 24 58  1  0  0  0  0
 25 72  1  0  0  0  0
 26 83  1  0  0  0  0
 27 84  1  0  0  0  0
 28 85  1  0  0  0  0
 29 31  2  0  0  0  0
 29 83  1  0  0  0  0
 30 86  1  0  0  0  0
 31 87  1  0  0  0  0
 32 66  2  0  0  0  0
 33 67  1  0  0  0  0
 33 70  1  0  0  0  0
 34 71  1  0  0  0  0
 34 77  2  0  0  0  0
 35 50  1  0  0  0  0
 35 73  1  0  0  0  0
 35 78  2  0  0  0  0
 36 63  1  0  0  0  0
 36 68  1  0  0  0  0
 36 79  2  0  0  0  0
 37 52  1  0  0  0  0
 37 72  1  0  0  0  0
 37 80  2  0  0  0  0
 38 64  1  0  0  0  0
 38 74  1  0  0  0  0
 38 81  2  0  0  0  0
 39 69  1  0  0  0  0
 39 75  1  0  0  0  0
 39 82  2  0  0  0  0
 40 43  1  0  0  0  0
 41 50  1  0  0  0  0
 42 68  1  0  0  0  0
 43 45  1  0  0  0  0
 44 46  1  0  0  0  0
 44 47  1  0  0  0  0
 45 49  1  0  0  0  0
 46 51  1  0  0  0  0
 47 69  1  0  0  0  0
 48 51  1  0  0  0  0
 48 69  1  0  0  0  0
 49 73  1  0  0  0  0
 50 68  1  0  0  0  0
 51 67  1  0  0  0  0
 53 64  1  0  0  0  0
 54 65  1  0  0  0  0
 55 65  1  0  0  0  0
 56 65  1  0  0  0  0
 57 76  1  0  0  0  0
 58 59  1  0  0  0  0
 59 60  1  0  0  0  0
 60 75  1  0  0  0  0
 61 62  1  0  0  0  0
 61 84  1  0  0  0  0
 62 85  1  0  0  0  0
 63 65  1  0  0  0  0
 63 74  1  0  0  0  0
 64 76  1  0  0  0  0
 66 67  1  0  0  0  0
M  CHG  1  76   1
M  ISO  4  39 100  61 101  75 100  84 101
M  END
> <Batch ID>
0139

> <Smiles>
CNC(C)C(=O)NC(C(=O)N1Cc2cc([101O:1][101CH2:1]COc3ccc(NC(C)=O)c(CCC[100NH:0][100C:0](=O)N4CCCC(n5nc(-c6ccc(Oc7ccc(F)cc7F)cc6)c(C(N)=O)c5N)C4)c3)ccc2CC1C(=O)NC1CCCc2ccccc21)C(C)(C)C

> <Shape>
0.206

> <Color>
0.054

> <Negative vol penalty>
0.000

$$$$

  -OEChem-04052321103D

 86 95  0     1  0  0  0  0  0999 V2000
  -27.9669  -33.9540   28.7753 C   0  0  0  0  0  0  0  0  0  0  0  0
  -28.4155  -32.9594   27.9123 C   0  0  0  0  0  0  0  0  0  0  0  0
  -23.5294   -9.6083   20.8621 C   0  0  0  0  0  0  0  0  0  0  0  0
  -24.1580  -10.3468   23.0750 C   0  0  0  0  0  0  0  0  0  0  0  0
  -26.7016  -34.5118   28.5966 C   0  0  0  0  0  0  0  0  0  0  0  0
  -27.5986  -32.5210   26.8707 C   0  0  0  0  0  0  0  0  0  0  0  0
  -29.3890  -30.6995   21.3045 C   0  0  0  0  0  0  0  0  0  0  0  0
  -22.9399   -8.4690   21.4098 C   0  0  0  0  0  0  0  0  0  0  0  0
  -23.5684   -9.2075   23.6227 C   0  0  0  0  0  0  0  0  0  0  0  0
  -29.5975  -29.4362   20.7530 C   0  0  0  0  0  0  0  0  0  0  0  0
  -23.9491   -5.4748   22.6100 C   0  0  0  0  0  0  0  0  0  0  0  0
  -24.2075   -4.2514   21.9918 C   0  0  0  0  0  0  0  0  0  0  0  0
  -27.3721  -29.4816   19.8230 C   0  0  0  0  0  0  0  0  0  0  0  0
  -31.2378  -19.7782   21.7547 C   0  0  0  0  0  0  0  0  0  0  0  0
  -21.8451   -3.9623   21.5765 C   0  0  0  0  0  0  0  0  0  0  0  0
  -24.1386  -10.5472   21.6947 C   0  0  0  0  0  0  0  0  0  0  0  0
  -24.1340  -12.9677   20.8892 C   0  0  0  0  0  0  0  0  0  0  0  0
  -25.8726  -34.0869   27.5464 C   0  0  0  0  0  0  0  0  0  0  0  0
  -28.1646  -31.3599   21.1283 C   0  0  0  0  0  0  0  0  0  0  0  0
  -26.3205  -33.0727   26.6786 C   0  0  0  0  0  0  0  0  0  0  0  0
  -27.1516  -30.7544   20.3712 C   0  0  0  0  0  0  0  0  0  0  0  0
  -30.9649  -18.4175   21.6693 C   0  0  0  0  0  0  0  0  0  0  0  0
  -29.8731  -17.9781   20.9289 C   0  0  0  0  0  0  0  0  0  0  0  0
  -22.9594   -8.2686   22.7901 C   0  0  0  0  0  0  0  0  0  0  0  0
  -28.5880  -28.8258   20.0146 C   0  0  0  0  0  0  0  0  0  0  0  0
  -22.6387   -5.9419   22.7115 C   0  0  0  0  0  0  0  0  0  0  0  0
  -23.1555   -3.4952   21.4750 C   0  0  0  0  0  0  0  0  0  0  0  0
  -21.5867   -5.1857   22.1948 C   0  0  0  0  0  0  0  0  0  0  0  0
  -24.7483  -11.7241   21.1295 C   0  0  0  0  0  0  0  0  0  0  0  0
  -29.0914  -18.9322   20.2977 C   0  0  0  0  0  0  0  0  0  0  0  0
  -30.3951  -20.6517   21.0863 C   0  0  0  0  0  0  0  0  0  0  0  0
  -25.1298  -13.7437   20.3482 C   0  0  0  0  0  0  0  0  0  0  0  0
  -22.7839  -13.3843   21.1332 C   0  0  0  0  0  0  0  0  0  0  0  0
  -25.8738  -32.3948   23.0739 C   0  0  0  0  0  0  0  0  0  0  0  0
  -24.6645  -33.6599   20.3427 C   0  0  0  0  0  0  0  0  0  0  0  0
  -24.4805  -33.5590   16.9364 C   0  0  0  0  0  0  0  0  0  0  0  0
  -30.3818  -15.5921   20.3009 C   0  0  0  0  0  0  0  0  0  0  0  0
  -24.4941  -34.6860   27.4218 C   0  0  0  0  0  0  0  0  0  0  0  0
  -27.9651  -32.7338   21.7072 C   0  0  0  0  0  0  0  0  0  0  0  0
  -25.8262  -31.4299   20.1357 C   0  0  0  0  0  0  0  0  0  0  0  0
  -23.8390  -34.4301   26.0670 C   0  0  0  0  0  0  0  0  0  0  0  0
  -29.7393  -12.4911   18.6735 C   0  0  0  0  0  0  0  0  0  0  0  0
  -31.2522  -16.4831   23.3574 C   0  0  0  0  0  0  0  0  0  0  0  0
  -32.0858  -17.6212   23.8575 C   0  0  0  0  0  0  0  0  0  0  0  0
  -23.9944  -32.9664   25.6668 C   0  0  0  0  0  0  0  0  0  0  0  0
  -28.3330  -12.1174   19.1476 C   0  0  0  0  0  0  0  0  0  0  0  0
  -30.5488  -13.1686   19.7779 C   0  0  0  0  0  0  0  0  0  0  0  0
  -28.4893  -13.9498   20.8812 C   0  0  0  0  0  0  0  0  0  0  0  0
  -31.8579  -17.4534   22.3792 C   0  0  0  0  0  0  0  0  0  0  0  0
  -25.4734  -32.5881   25.5220 C   0  0  1  0  0  0  0  0  0  0  0  0
  -26.4950  -33.0941   21.8979 C   0  0  1  0  0  0  0  0  0  0  0  0
  -27.6138  -13.3232   19.7837 C   0  0  2  0  0  0  0  0  0  0  0  0
  -27.9038  -18.5246   19.4871 C   0  0  0  0  0  0  0  0  0  0  0  0
  -23.3818  -34.6972   14.9884 C   0  0  0  0  0  0  0  0  0  0  0  0
  -22.0455  -32.2345   20.9901 C   0  0  0  0  0  0  0  0  0  0  0  0
  -21.3372  -32.6070   18.6178 C   0  0  0  0  0  0  0  0  0  0  0  0
  -21.7776  -34.5590   20.1073 C   0  0  0  0  0  0  0  0  0  0  0  0
  -27.0866  -34.3657   15.7890 C   0  0  0  0  0  0  0  0  0  0  0  0
  -29.2707  -25.2689   19.9226 C   0  0  0  0  0  0  0  0  0  0  0  0
  -30.1803  -24.2959   20.6647 C   0  0  0  0  0  0  0  0  0  0  0  0
  -29.6747  -26.7162   20.1709 C   0  0  0  0  0  0  0  0  0  1  0  0
  -29.7510  -22.8512   20.4516 C   0  0  0  0  0  0  0  0  0  0  0  0
  -23.7213  -33.1777   19.2672 C   0  0  1  0  0  0  0  0  0  0  0  0
  -24.6070  -34.6496   15.8881 C   0  0  2  0  0  0  0  0  0  0  0  0
  -22.2446  -33.1307   19.7515 C   0  0  0  0  0  0  0  0  0  0  0  0
  -26.0347  -11.7064   20.7705 N   0  0  0  0  0  0  0  0  0  0  0  0
  -29.3251  -20.2624   20.3575 N   0  0  0  0  0  0  0  0  0  0  0  0
  -26.2368  -12.9486   20.2990 N   0  0  0  0  0  0  0  0  0  0  0  0
  -25.6771  -32.7697   20.7275 N   0  0  0  0  0  0  0  0  0  0  0  0
  -29.8069  -14.3040   20.3303 N   0  0  0  0  0  0  0  0  0  0  0  0
  -25.1577  -15.0218   19.9146 N   0  0  0  0  0  0  0  0  0  0  0  0
  -21.8909  -12.4611   21.6941 N   0  0  0  0  0  0  0  0  0  0  0  0
  -29.5702  -16.5979   20.8246 N   0  0  0  0  0  0  0  0  0  0  0  0
  -26.0004  -33.0801   24.2671 N   0  0  0  0  0  0  0  0  0  0  0  0
  -23.9441  -34.0403   18.1120 N   0  0  0  0  0  0  0  0  0  0  0  0
  -25.8066  -34.4126   15.0362 N   0  3  0  0  0  0  0  0  0  0  0  0
  -22.3771  -14.5357   20.8466 O   0  0  0  0  0  0  0  0  0  0  0  0
  -25.3194  -31.3142   22.9105 O   0  0  0  0  0  0  0  0  0  0  0  0
  -24.5130  -34.7878   20.8187 O   0  0  0  0  0  0  0  0  0  0  0  0
  -24.8199  -32.3956   16.7316 O   0  0  0  0  0  0  0  0  0  0  0  0
  -31.5000  -15.7928   19.8199 O   0  0  0  0  0  0  0  0  0  0  0  0
  -22.3839   -7.1571   23.3249 O   0  0  0  0  0  0  0  0  0  0  0  0
  -28.7886  -27.5924   19.4757 O   0  0  0  0  0  0  0  0  0  1  0  0
  -30.6440  -21.9979   21.1541 O   0  0  0  0  0  0  0  0  0  0  0  0
  -23.4039   -2.3211   20.8800 F   0  0  0  0  0  0  0  0  0  0  0  0
  -20.3258   -5.6299   22.2883 F   0  0  0  0  0  0  0  0  0  0  0  0
  1  2  1  0  0  0  0
  1  5  2  0  0  0  0
  2  6  2  0  0  0  0
  3  8  2  0  0  0  0
  3 16  1  0  0  0  0
  4  9  1  0  0  0  0
  4 16  2  0  0  0  0
  5 18  1  0  0  0  0
  6 20  1  0  0  0  0
  7 10  2  0  0  0  0
  7 19  1  0  0  0  0
  8 24  1  0  0  0  0
  9 24  2  0  0  0  0
 10 25  1  0  0  0  0
 11 12  2  0  0  0  0
 11 26  1  0  0  0  0
 12 27  1  0  0  0  0
 13 21  1  0  0  0  0
 13 25  2  0  0  0  0
 14 22  2  0  0  0  0
 14 31  1  0  0  0  0
 15 27  2  0  0  0  0
 15 28  1  0  0  0  0
 16 29  1  0  0  0  0
 17 29  1  0  0  0  0
 17 32  2  0  0  0  0
 17 33  1  0  0  0  0
 18 20  2  0  0  0  0
 18 38  1  0  0  0  0
 19 21  2  0  0  0  0
 19 39  1  0  0  0  0
 20 50  1  0  0  0  0
 21 40  1  0  0  0  0
 22 23  1  0  0  0  0
 22 49  1  0  0  0  0
 23 30  2  0  0  0  0
 23 73  1  0  0  0  0
 24 82  1  0  0  0  0
 25 83  1  0  0  0  0
 26 28  2  0  0  0  0
 26 82  1  0  0  0  0
 27 85  1  0  0  0  0
 28 86  1  0  0  0  0
 29 66  2  0  0  0  0
 30 53  1  0  0  0  0
 30 67  1  0  0  0  0
 31 67  2  0  0  0  0
 31 84  1  0  0  0  0
 32 68  1  0  0  0  0
 32 71  1  0  0  0  0
 33 72  1  0  0  0  0
 33 77  2  0  0  0  0
 34 51  1  0  0  0  0
 34 74  1  0  0  0  0
 34 78  2  0  0  0  0
 35 63  1  0  0  0  0
 35 69  1  0  0  0  0
 35 79  2  0  0  0  0
 36 64  1  0  0  0  0
 36 75  1  0  0  0  0
 36 80  2  0  0  0  0
 37 70  1  0  0  0  0
 37 73  1  0  0  0  0
 37 81  2  0  0  0  0
 38 41  1  0  0  0  0
 39 51  1  0  0  0  0
 40 69  1  0  0  0  0
 41 45  1  0  0  0  0
 42 46  1  0  0  0  0
 42 47  1  0  0  0  0
 43 44  1  0  0  0  0
 43 49  1  0  0  0  0
 44 49  1  0  0  0  0
 45 50  1  0  0  0  0
 46 52  1  0  0  0  0
 47 70  1  0  0  0  0
 48 52  1  0  0  0  0
 48 70  1  0  0  0  0
 50 74  1  0  0  0  0
 51 69  1  0  0  0  0
 52 68  1  0  0  0  0
 54 64  1  0  0  0  0
 55 65  1  0  0  0  0
 56 65  1  0  0  0  0
 57 65  1  0  0  0  0
 58 76  1  0  0  0  0
 59 60  1  0  0  0  0
 59 61  1  0  0  0  0
 60 62  1  0  0  0  0
 61 83  1  0  0  0  0
 62 84  1  0  0  0  0
 63 65  1  0  0  0  0
 63 75  1  0  0  0  0
 64 76  1  0  0  0  0
 66 68  1  0  0  0  0
M  CHG  1  76   1
M  ISO  4  37 100  61 101  73 100  83 101
M  END
> <Batch ID>
0139

> <Smiles>
CNC(C)C(=O)NC(C(=O)N1Cc2cc([101O:1][101CH2:1]CCCOc3cc(C4CC4)c([100NH:0][100C:0](=O)N4CCCC(n5nc(-c6ccc(Oc7ccc(F)cc7F)cc6)c(C(N)=O)c5N)C4)c(C)n3)ccc2CC1C(=O)NC1CCCc2ccccc21)C(C)(C)C

> <Shape>
0.295

> <Color>
0.168

> <Negative vol penalty>
0.000

$$$$

  -OEChem-04052321103D

 86 95  0     1  0  0  0  0  0999 V2000
  -17.0486  -30.4422   23.5044 C   0  0  0  0  0  0  0  0  0  0  0  0
  -18.3584  -30.8690   23.3103 C   0  0  0  0  0  0  0  0  0  0  0  0
  -21.9537  -15.1815   20.4711 C   0  0  0  0  0  0  0  0  0  0  0  0
  -24.0858  -14.4944   21.3759 C   0  0  0  0  0  0  0  0  0  0  0  0
  -16.7545  -29.0793   23.5114 C   0  0  0  0  0  0  0  0  0  0  0  0
  -19.3751  -29.9331   23.1242 C   0  0  0  0  0  0  0  0  0  0  0  0
  -25.5762  -29.0429   19.6498 C   0  0  0  0  0  0  0  0  0  0  0  0
  -21.4108  -13.9419   20.8088 C   0  0  0  0  0  0  0  0  0  0  0  0
  -23.5430  -13.2547   21.7137 C   0  0  0  0  0  0  0  0  0  0  0  0
  -26.9008  -28.6782   19.8867 C   0  0  0  0  0  0  0  0  0  0  0  0
  -22.7705  -10.3620   20.1432 C   0  0  0  0  0  0  0  0  0  0  0  0
  -23.5188   -9.2236   19.8439 C   0  0  0  0  0  0  0  0  0  0  0  0
  -30.2262  -24.0937   22.1376 C   0  0  0  0  0  0  0  0  0  0  0  0
  -30.7002  -23.9336   19.3552 C   0  0  0  0  0  0  0  0  0  0  0  0
  -26.2626  -26.3523   19.8390 C   0  0  0  0  0  0  0  0  0  0  0  0
  -23.5653   -8.6381   22.1875 C   0  0  0  0  0  0  0  0  0  0  0  0
  -23.2912  -15.4578   20.7546 C   0  0  0  0  0  0  0  0  0  0  0  0
  -23.8878  -17.8971   21.2037 C   0  0  0  0  0  0  0  0  0  0  0  0
  -17.7667  -28.1265   23.3156 C   0  0  0  0  0  0  0  0  0  0  0  0
  -24.5813  -28.0637   19.5163 C   0  0  0  0  0  0  0  0  0  0  0  0
  -19.0946  -28.5561   23.1299 C   0  0  0  0  0  0  0  0  0  0  0  0
  -30.6088  -25.2101   21.4128 C   0  0  0  0  0  0  0  0  0  0  0  0
  -30.8434  -25.1308   20.0363 C   0  0  0  0  0  0  0  0  0  0  0  0
  -24.9266  -26.7072   19.5979 C   0  0  0  0  0  0  0  0  0  0  0  0
  -30.0675  -22.8847   21.4571 C   0  0  0  0  0  0  0  0  0  0  0  0
  -30.3028  -22.8053   20.0755 C   0  0  0  0  0  0  0  0  0  0  0  0
  -22.2054  -12.9784   21.4301 C   0  0  0  0  0  0  0  0  0  0  0  0
  -27.2437  -27.3329   19.9842 C   0  0  0  0  0  0  0  0  0  0  0  0
  -22.4196  -10.6385   21.4646 C   0  0  0  0  0  0  0  0  0  0  0  0
  -23.9162   -8.3616   20.8660 C   0  0  0  0  0  0  0  0  0  0  0  0
  -22.8170   -9.7765   22.4867 C   0  0  0  0  0  0  0  0  0  0  0  0
  -23.8527  -16.7380   20.4055 C   0  0  0  0  0  0  0  0  0  0  0  0
  -24.5216  -18.8326   20.4229 C   0  0  0  0  0  0  0  0  0  0  0  0
  -23.3919  -18.1091   22.5321 C   0  0  0  0  0  0  0  0  0  0  0  0
  -21.9342  -27.3232   21.1127 C   0  0  0  0  0  0  0  0  0  0  0  0
  -21.5272  -25.2109   18.6848 C   0  0  0  0  0  0  0  0  0  0  0  0
  -22.9403  -23.3380   16.2065 C   0  0  0  0  0  0  0  0  0  0  0  0
  -28.7726  -19.2535   16.5157 C   0  0  0  0  0  0  0  0  0  0  0  0
  -17.4079  -26.6630   23.3784 C   0  0  0  0  0  0  0  0  0  0  0  0
  -23.1616  -28.4728   19.2344 C   0  0  0  0  0  0  0  0  0  0  0  0
  -30.8734  -26.5918   21.9238 C   0  0  0  0  0  0  0  0  0  0  0  0
  -31.2882  -26.4517   19.4907 C   0  0  0  0  0  0  0  0  0  0  0  0
  -23.8995  -25.6167   19.4417 C   0  0  0  0  0  0  0  0  0  0  0  0
  -18.4833  -25.7468   22.8003 C   0  0  0  0  0  0  0  0  0  0  0  0
  -25.3401  -19.3469   15.5744 C   0  0  0  0  0  0  0  0  0  0  0  0
  -19.8602  -26.1432   23.3236 C   0  0  0  0  0  0  0  0  0  0  0  0
  -24.6099  -18.7915   16.7984 C   0  0  0  0  0  0  0  0  0  0  0  0
  -26.6758  -18.6428   15.3464 C   0  0  0  0  0  0  0  0  0  0  0  0
  -26.8462  -18.0743   17.7384 C   0  0  0  0  0  0  0  0  0  0  0  0
  -20.2210  -27.5721   22.8998 C   0  0  1  0  0  0  0  0  0  0  0  0
  -22.1434  -27.4068   19.6272 C   0  0  1  0  0  0  0  0  0  0  0  0
  -30.8702  -27.4211   20.6196 C   0  0  1  0  0  0  0  0  0  0  0  0
  -25.5195  -18.7914   18.0418 C   0  0  2  0  0  0  0  0  0  0  0  0
  -29.6475  -21.6773   22.2327 C   0  0  0  0  0  0  0  0  0  0  0  0
  -22.3578  -21.6823   14.4130 C   0  0  0  0  0  0  0  0  0  0  0  0
  -31.6280  -19.0338   18.8463 C   0  0  0  0  0  0  0  0  0  0  0  0
  -21.2267  -23.0309   20.7984 C   0  0  0  0  0  0  0  0  0  0  0  0
  -21.6016  -21.3314   18.9985 C   0  0  0  0  0  0  0  0  0  0  0  0
  -19.6290  -22.8538   18.8826 C   0  0  0  0  0  0  0  0  0  0  0  0
  -23.9339  -25.1281   14.0694 C   0  0  0  0  0  0  0  0  0  0  0  0
  -29.4886  -28.0281   20.3491 C   0  0  0  0  0  0  0  0  0  1  0  0
  -30.7532  -21.3145   18.1261 C   0  0  0  0  0  0  0  0  0  0  0  0
  -21.9378  -23.7803   18.4322 C   0  0  1  0  0  0  0  0  0  0  0  0
  -22.5661  -23.1512   14.7472 C   0  0  2  0  0  0  0  0  0  0  0  0
  -30.8043  -19.8138   17.8261 C   0  0  2  0  0  0  0  0  0  0  0  0
  -21.1180  -22.7695   19.2828 C   0  0  0  0  0  0  0  0  0  0  0  0
  -24.4190  -16.9183   19.2093 N   0  0  0  0  0  0  0  0  0  0  0  0
  -24.8158  -18.2017   19.2501 N   0  0  0  0  0  0  0  0  0  0  0  0
  -22.5238  -26.0675   19.1735 N   0  0  0  0  0  0  0  0  0  0  0  0
  -27.4914  -18.6796   16.5627 N   0  0  0  0  0  0  0  0  0  0  0  0
  -24.8502  -20.1251   20.6320 N   0  0  0  0  0  0  0  0  0  0  0  0
  -22.7674  -17.0411   23.1906 N   0  0  0  0  0  0  0  0  0  0  0  0
  -30.1468  -21.5773   19.3923 N   0  0  0  0  0  0  0  0  0  0  0  0
  -20.6411  -27.5977   21.5152 N   0  0  0  0  0  0  0  0  0  0  0  0
  -21.8317  -23.5734   16.9919 N   0  0  0  0  0  0  0  0  0  0  0  0
  -29.4762  -19.2533   17.7139 N   0  0  0  0  0  0  0  0  0  0  0  0
  -23.6408  -23.6862   13.8643 N   0  3  0  0  0  0  0  0  0  0  0  0
  -23.4848  -19.2177   23.1117 O   0  0  0  0  0  0  0  0  0  0  0  0
  -22.8760  -27.0298   21.8399 O   0  0  0  0  0  0  0  0  0  0  0  0
  -20.3668  -25.5574   18.4502 O   0  0  0  0  0  0  0  0  0  0  0  0
  -24.0997  -23.2771   16.6099 O   0  0  0  0  0  0  0  0  0  0  0  0
  -29.2516  -19.7355   15.4836 O   0  0  0  0  0  0  0  0  0  0  0  0
  -21.6760  -11.7687   21.7600 O   0  0  0  0  0  0  0  0  0  0  0  0
  -28.5358  -26.9741   20.2161 O   0  0  0  0  0  0  0  0  0  1  0  0
  -24.6335   -7.2676   20.5783 F   0  0  0  0  0  0  0  0  0  0  0  0
  -22.4820  -10.0363   23.7580 F   0  0  0  0  0  0  0  0  0  0  0  0
  1  2  1  0  0  0  0
  1  5  2  0  0  0  0
  2  6  2  0  0  0  0
  3  8  2  0  0  0  0
  3 17  1  0  0  0  0
  4  9  1  0  0  0  0
  4 17  2  0  0  0  0
  5 19  1  0  0  0  0
  6 21  1  0  0  0  0
  7 10  2  0  0  0  0
  7 20  1  0  0  0  0
  8 27  1  0  0  0  0
  9 27  2  0  0  0  0
 10 28  1  0  0  0  0
 11 12  2  0  0  0  0
 11 29  1  0  0  0  0
 12 30  1  0  0  0  0
 13 22  1  0  0  0  0
 13 25  2  0  0  0  0
 14 23  1  0  0  0  0
 14 26  2  0  0  0  0
 15 24  1  0  0  0  0
 15 28  2  0  0  0  0
 16 30  2  0  0  0  0
 16 31  1  0  0  0  0
 17 32  1  0  0  0  0
 18 32  1  0  0  0  0
 18 33  2  0  0  0  0
 18 34  1  0  0  0  0
 19 21  2  0  0  0  0
 19 39  1  0  0  0  0
 20 24  2  0  0  0  0
 20 40  1  0  0  0  0
 21 50  1  0  0  0  0
 22 23  2  0  0  0  0
 22 41  1  0  0  0  0
 23 42  1  0  0  0  0
 24 43  1  0  0  0  0
 25 26  1  0  0  0  0
 25 54  1  0  0  0  0
 26 73  1  0  0  0  0
 27 83  1  0  0  0  0
 28 84  1  0  0  0  0
 29 31  2  0  0  0  0
 29 83  1  0  0  0  0
 30 85  1  0  0  0  0
 31 86  1  0  0  0  0
 32 67  2  0  0  0  0
 33 68  1  0  0  0  0
 33 71  1  0  0  0  0
 34 72  1  0  0  0  0
 34 78  2  0  0  0  0
 35 51  1  0  0  0  0
 35 74  1  0  0  0  0
 35 79  2  0  0  0  0
 36 63  1  0  0  0  0
 36 69  1  0  0  0  0
 36 80  2  0  0  0  0
 37 64  1  0  0  0  0
 37 75  1  0  0  0  0
 37 81  2  0  0  0  0
 38 70  1  0  0  0  0
 38 76  1  0  0  0  0
 38 82  2  0  0  0  0
 39 44  1  0  0  0  0
 40 51  1  0  0  0  0
 41 52  1  0  0  0  0
 42 52  1  0  0  0  0
 43 69  1  0  0  0  0
 44 46  1  0  0  0  0
 45 47  1  0  0  0  0
 45 48  1  0  0  0  0
 46 50  1  0  0  0  0
 47 53  1  0  0  0  0
 48 70  1  0  0  0  0
 49 53  1  0  0  0  0
 49 70  1  0  0  0  0
 50 74  1  0  0  0  0
 51 69  1  0  0  0  0
 52 61  1  0  0  0  0
 53 68  1  0  0  0  0
 55 64  1  0  0  0  0
 56 65  1  0  0  0  0
 57 66  1  0  0  0  0
 58 66  1  0  0  0  0
 59 66  1  0  0  0  0
 60 77  1  0  0  0  0
 61 84  1  0  0  0  0
 62 65  1  0  0  0  0
 62 73  1  0  0  0  0
 63 66  1  0  0  0  0
 63 75  1  0  0  0  0
 64 77  1  0  0  0  0
 65 76  1  0  0  0  0
 67 68  1  0  0  0  0
M  CHG  1  77   1
M  ISO  4  38 100  61 101  76 100  84 101
M  END
> <Batch ID>
0139

> <Smiles>
CNC(C)C(=O)NC(C(=O)N1Cc2cc([101O:1][101CH2:1]C3Cc4cc(C)c(NCC(C)[100NH:0][100C:0](=O)N5CCCC(n6nc(-c7ccc(Oc8ccc(F)cc8F)cc7)c(C(N)=O)c6N)C5)cc4C3)ccc2CC1C(=O)NC1CCCc2ccccc21)C(C)(C)C

> <Shape>
0.213

> <Color>
0.073

> <Negative vol penalty>
0.000

$$$$

  -OEChem-04052321103D

 83 91  0     1  0  0  0  0  0999 V2000
  -30.6113  -24.4958   18.3307 C   0  0  0  0  0  0  0  0  0  0  0  0
  -29.4528  -24.4680   19.1004 C   0  0  0  0  0  0  0  0  0  0  0  0
  -25.3027  -10.7757   21.9043 C   0  0  0  0  0  0  0  0  0  0  0  0
  -25.1385  -12.0867   23.9270 C   0  0  0  0  0  0  0  0  0  0  0  0
  -31.5898  -25.4572   18.5804 C   0  0  0  0  0  0  0  0  0  0  0  0
  -29.2726  -25.4008   20.1210 C   0  0  0  0  0  0  0  0  0  0  0  0
  -24.6137  -27.3856   20.1386 C   0  0  0  0  0  0  0  0  0  0  0  0
  -26.7216  -22.6601   22.3843 C   0  0  0  0  0  0  0  0  0  0  0  0
  -25.0236  -21.2546   21.3953 C   0  0  0  0  0  0  0  0  0  0  0  0
  -25.1938   -9.6048   22.6544 C   0  0  0  0  0  0  0  0  0  0  0  0
  -25.0296  -10.9158   24.6771 C   0  0  0  0  0  0  0  0  0  0  0  0
  -23.5918  -26.6068   20.6798 C   0  0  0  0  0  0  0  0  0  0  0  0
  -25.7715  -23.1970   23.2529 C   0  0  0  0  0  0  0  0  0  0  0  0
  -24.0734  -21.7914   22.2640 C   0  0  0  0  0  0  0  0  0  0  0  0
  -24.5966   -6.2811   24.0003 C   0  0  0  0  0  0  0  0  0  0  0  0
  -23.7380   -5.2874   23.5303 C   0  0  0  0  0  0  0  0  0  0  0  0
  -23.7333  -27.8607   22.7358 C   0  0  0  0  0  0  0  0  0  0  0  0
  -21.8799   -6.8248   23.6743 C   0  0  0  0  0  0  0  0  0  0  0  0
  -25.2751  -12.0167   22.5406 C   0  0  0  0  0  0  0  0  0  0  0  0
  -24.3387  -13.9731   21.1976 C   0  0  0  0  0  0  0  0  0  0  0  0
  -31.4172  -26.4083   19.5983 C   0  0  0  0  0  0  0  0  0  0  0  0
  -25.2115  -28.4024   20.8970 C   0  0  0  0  0  0  0  0  0  0  0  0
  -30.2503  -26.3749   20.3855 C   0  0  0  0  0  0  0  0  0  0  0  0
  -24.7608  -28.6527   22.2009 C   0  0  0  0  0  0  0  0  0  0  0  0
  -26.3477  -21.6890   21.4554 C   0  0  0  0  0  0  0  0  0  0  0  0
  -25.0573   -9.6748   24.0408 C   0  0  0  0  0  0  0  0  0  0  0  0
  -24.4473  -22.7626   23.1928 C   0  0  0  0  0  0  0  0  0  0  0  0
  -23.1534  -26.8423   21.9796 C   0  0  0  0  0  0  0  0  0  0  0  0
  -24.0969   -7.5467   24.3073 C   0  0  0  0  0  0  0  0  0  0  0  0
  -22.3796   -5.5592   23.3673 C   0  0  0  0  0  0  0  0  0  0  0  0
  -22.7385   -7.8185   24.1442 C   0  0  0  0  0  0  0  0  0  0  0  0
  -25.3881  -13.2266   21.7663 C   0  0  0  0  0  0  0  0  0  0  0  0
  -24.9646  -15.0220   20.5695 C   0  0  0  0  0  0  0  0  0  0  0  0
  -22.9246  -13.7392   21.2339 C   0  0  0  0  0  0  0  0  0  0  0  0
  -28.1487  -28.9663   21.9733 C   0  0  0  0  0  0  0  0  0  0  0  0
  -26.8417  -31.7803   22.9194 C   0  0  0  0  0  0  0  0  0  0  0  0
  -24.0411  -33.5287   23.7835 C   0  0  0  0  0  0  0  0  0  0  0  0
  -28.7910  -19.0843   20.5243 C   0  0  0  0  0  0  0  0  0  0  0  0
  -32.5238  -27.3985   19.8618 C   0  0  0  0  0  0  0  0  0  0  0  0
  -26.2944  -29.2512   20.2893 C   0  0  0  0  0  0  0  0  0  0  0  0
  -25.3557  -29.7455   23.0496 C   0  0  0  0  0  0  0  0  0  0  0  0
  -32.0880  -28.5858   20.7167 C   0  0  0  0  0  0  0  0  0  0  0  0
  -29.8613  -15.8212   19.5844 C   0  0  0  0  0  0  0  0  0  0  0  0
  -31.2863  -28.1088   21.9236 C   0  0  0  0  0  0  0  0  0  0  0  0
  -28.7096  -14.9169   20.0269 C   0  0  0  0  0  0  0  0  0  0  0  0
  -30.0838  -16.9716   20.5637 C   0  0  0  0  0  0  0  0  0  0  0  0
  -27.7325  -16.8750   21.2957 C   0  0  0  0  0  0  0  0  0  0  0  0
  -30.0072  -27.3855   21.4854 C   0  0  1  0  0  0  0  0  0  0  0  0
  -27.1834  -29.9223   21.3317 C   0  0  1  0  0  0  0  0  0  0  0  0
  -27.4336  -15.7322   20.3104 C   0  0  2  0  0  0  0  0  0  0  0  0
  -27.0281  -21.3611   19.0489 C   0  0  0  0  0  0  0  0  0  0  0  0
  -23.2935  -35.7998   24.5453 C   0  0  0  0  0  0  0  0  0  0  0  0
  -27.8988  -31.1863   25.7193 C   0  0  0  0  0  0  0  0  0  0  0  0
  -26.3503  -32.9449   26.6014 C   0  0  0  0  0  0  0  0  0  0  0  0
  -28.1520  -33.5656   24.9916 C   0  0  0  0  0  0  0  0  0  0  0  0
  -22.3385  -33.8985   21.3912 C   0  0  0  0  0  0  0  0  0  0  0  0
  -21.4510  -24.5182   24.2286 C   0  0  0  0  0  0  0  0  0  0  0  0
  -22.1752  -23.3519   23.5747 C   0  0  0  0  0  0  0  0  0  0  0  0
  -22.1323  -25.8461   23.9376 C   0  0  0  0  0  0  0  0  0  1  0  0
  -27.3636  -21.1145   20.5271 C   0  0  2  0  0  0  0  0  0  0  0  0
  -26.1443  -32.2698   24.1656 C   0  0  1  0  0  0  0  0  0  0  0  0
  -23.5299  -34.8906   23.3495 C   0  0  2  0  0  0  0  0  0  0  0  0
  -27.1263  -32.4697   25.3544 C   0  0  0  0  0  0  0  0  0  0  0  0
  -26.5895  -13.7563   21.5211 N   0  0  0  0  0  0  0  0  0  0  0  0
  -26.2989  -14.8467   20.7913 N   0  0  0  0  0  0  0  0  0  0  0  0
  -26.4161  -30.5442   22.4129 N   0  0  0  0  0  0  0  0  0  0  0  0
  -28.8360  -17.7054   20.7881 N   0  0  0  0  0  0  0  0  0  0  0  0
  -24.4983  -16.0679   19.8546 N   0  0  0  0  0  0  0  0  0  0  0  0
  -22.4508  -12.6147   21.9234 N   0  0  0  0  0  0  0  0  0  0  0  0
  -28.9991  -28.3418   21.0809 N   0  0  0  0  0  0  0  0  0  0  0  0
  -25.4189  -33.4756   23.7805 N   0  0  0  0  0  0  0  0  0  0  0  0
  -27.5683  -19.7018   20.7576 N   0  0  0  0  0  0  0  0  0  0  0  0
  -22.2463  -34.7491   22.6056 N   0  3  0  0  0  0  0  0  0  0  0  0
  -22.1066  -14.4957   20.6576 O   0  0  0  0  0  0  0  0  0  0  0  0
  -28.1249  -28.8080   23.1883 O   0  0  0  0  0  0  0  0  0  0  0  0
  -27.7263  -32.4727   22.4099 O   0  0  0  0  0  0  0  0  0  0  0  0
  -23.2930  -32.6055   24.0976 O   0  0  0  0  0  0  0  0  0  0  0  0
  -29.7666  -19.7171   20.1063 O   0  0  0  0  0  0  0  0  0  0  0  0
  -24.9508   -8.5324   24.7730 O   0  0  0  0  0  0  0  0  0  0  0  0
  -23.5140  -23.2893   24.0473 O   0  0  0  0  0  0  0  0  0  0  0  0
  -22.1566  -26.0832   22.5105 O   0  0  0  0  0  0  0  0  0  1  0  0
  -21.5555   -4.6053   22.9145 F   0  0  0  0  0  0  0  0  0  0  0  0
  -22.2528   -9.0329   24.4364 F   0  0  0  0  0  0  0  0  0  0  0  0
  1  2  1  0  0  0  0
  1  5  2  0  0  0  0
  2  6  2  0  0  0  0
  3 10  2  0  0  0  0
  3 19  1  0  0  0  0
  4 11  1  0  0  0  0
  4 19  2  0  0  0  0
  5 21  1  0  0  0  0
  6 23  1  0  0  0  0
  7 12  2  0  0  0  0
  7 22  1  0  0  0  0
  8 13  2  0  0  0  0
  8 25  1  0  0  0  0
  9 14  1  0  0  0  0
  9 25  2  0  0  0  0
 10 26  1  0  0  0  0
 11 26  2  0  0  0  0
 12 28  1  0  0  0  0
 13 27  1  0  0  0  0
 14 27  2  0  0  0  0
 15 16  2  0  0  0  0
 15 29  1  0  0  0  0
 16 30  1  0  0  0  0
 17 24  1  0  0  0  0
 17 28  2  0  0  0  0
 18 30  2  0  0  0  0
 18 31  1  0  0  0  0
 19 32  1  0  0  0  0
 20 32  1  0  0  0  0
 20 33  2  0  0  0  0
 20 34  1  0  0  0  0
 21 23  2  0  0  0  0
 21 39  1  0  0  0  0
 22 24  2  0  0  0  0
 22 40  1  0  0  0  0
 23 48  1  0  0  0  0
 24 41  1  0  0  0  0
 25 60  1  0  0  0  0
 26 79  1  0  0  0  0
 27 80  1  0  0  0  0
 28 81  1  0  0  0  0
 29 31  2  0  0  0  0
 29 79  1  0  0  0  0
 30 82  1  0  0  0  0
 31 83  1  0  0  0  0
 32 64  2  0  0  0  0
 33 65  1  0  0  0  0
 33 68  1  0  0  0  0
 34 69  1  0  0  0  0
 34 74  2  0  0  0  0
 35 49  1  0  0  0  0
 35 70  1  0  0  0  0
 35 75  2  0  0  0  0
 36 61  1  0  0  0  0
 36 66  1  0  0  0  0
 36 76  2  0  0  0  0
 37 62  1  0  0  0  0
 37 71  1  0  0  0  0
 37 77  2  0  0  0  0
 38 67  1  0  0  0  0
 38 72  1  0  0  0  0
 38 78  2  0  0  0  0
 39 42  1  0  0  0  0
 40 49  1  0  0  0  0
 41 66  1  0  0  0  0
 42 44  1  0  0  0  0
 43 45  1  0  0  0  0
 43 46  1  0  0  0  0
 44 48  1  0  0  0  0
 45 50  1  0  0  0  0
 46 67  1  0  0  0  0
 47 50  1  0  0  0  0
 47 67  1  0  0  0  0
 48 70  1  0  0  0  0
 49 66  1  0  0  0  0
 50 65  1  0  0  0  0
 51 60  1  0  0  0  0
 52 62  1  0  0  0  0
 53 63  1  0  0  0  0
 54 63  1  0  0  0  0
 55 63  1  0  0  0  0
 56 73  1  0  0  0  0
 57 58  1  0  0  0  0
 57 59  1  0  0  0  0
 58 80  1  0  0  0  0
 59 81  1  0  0  0  0
 60 72  1  0  0  0  0
 61 63  1  0  0  0  0
 61 71  1  0  0  0  0
 62 73  1  0  0  0  0
 64 65  1  0  0  0  0
M  CHG  1  73   1
M  ISO  4  38 100  59 101  72 100  81 101
M  END
> <Batch ID>
0139

> <Smiles>
CNC(C)C(=O)NC(C(=O)N1Cc2cc([101O:1][101CH2:1]CCOc3ccc(C(C)[100NH:0][100C:0](=O)N4CCCC(n5nc(-c6ccc(Oc7ccc(F)cc7F)cc6)c(C(N)=O)c5N)C4)cc3)ccc2CC1C(=O)NC1CCCc2ccccc21)C(C)(C)C

> <Shape>
0.276

> <Color>
0.085

> <Negative vol penalty>
0.000

$$$$

  -OEChem-04052321103D

 88 97  0     1  0  0  0  0  0999 V2000
  -24.8750  -32.4294   24.3420 C   0  0  0  0  0  0  0  0  0  0  0  0
  -24.3787  -31.1987   24.7598 C   0  0  0  0  0  0  0  0  0  0  0  0
  -28.1970  -14.4377   19.3650 C   0  0  0  0  0  0  0  0  0  0  0  0
  -27.4528  -15.2748   21.5057 C   0  0  0  0  0  0  0  0  0  0  0  0
  -19.3826  -21.3816   21.9547 C   0  0  0  0  0  0  0  0  0  0  0  0
  -25.1852  -32.6348   22.9983 C   0  0  0  0  0  0  0  0  0  0  0  0
  -24.1914  -30.1730   23.8339 C   0  0  0  0  0  0  0  0  0  0  0  0
  -24.4615  -23.0362   23.2773 C   0  0  0  0  0  0  0  0  0  0  0  0
  -29.1475  -15.4562   19.2972 C   0  0  0  0  0  0  0  0  0  0  0  0
  -28.4034  -16.2933   21.4379 C   0  0  0  0  0  0  0  0  0  0  0  0
  -20.6691  -21.4910   21.4280 C   0  0  0  0  0  0  0  0  0  0  0  0
  -23.6854  -21.9589   22.8522 C   0  0  0  0  0  0  0  0  0  0  0  0
  -28.7509  -19.2775   19.8871 C   0  0  0  0  0  0  0  0  0  0  0  0
  -28.3433  -20.5679   20.2252 C   0  0  0  0  0  0  0  0  0  0  0  0
  -24.3305  -22.4024   20.5704 C   0  0  0  0  0  0  0  0  0  0  0  0
  -29.9826  -20.6210   21.9992 C   0  0  0  0  0  0  0  0  0  0  0  0
  -27.3495  -14.3470   20.4693 C   0  0  0  0  0  0  0  0  0  0  0  0
  -19.0144  -20.2377   22.6744 C   0  0  0  0  0  0  0  0  0  0  0  0
  -26.5320  -12.0138   21.0984 C   0  0  0  0  0  0  0  0  0  0  0  0
  -25.0107  -31.6080   22.0571 C   0  0  0  0  0  0  0  0  0  0  0  0
  -25.1705  -23.8127   22.3495 C   0  0  0  0  0  0  0  0  0  0  0  0
  -24.4983  -30.3653   22.4762 C   0  0  0  0  0  0  0  0  0  0  0  0
  -25.1169  -23.4875   20.9867 C   0  0  0  0  0  0  0  0  0  0  0  0
  -19.9358  -19.1968   22.8727 C   0  0  0  0  0  0  0  0  0  0  0  0
  -21.2247  -19.3225   22.3308 C   0  0  0  0  0  0  0  0  0  0  0  0
  -29.2508  -16.3840   20.3336 C   0  0  0  0  0  0  0  0  0  0  0  0
  -23.6174  -21.6436   21.4983 C   0  0  0  0  0  0  0  0  0  0  0  0
  -21.5890  -20.4628   21.6146 C   0  0  0  0  0  0  0  0  0  1  0  0
  -29.7743  -18.6587   20.6052 C   0  0  0  0  0  0  0  0  0  0  0  0
  -28.9592  -21.2397   21.2811 C   0  0  0  0  0  0  0  0  0  0  0  0
  -30.3902  -19.3305   21.6611 C   0  0  0  0  0  0  0  0  0  0  0  0
  -26.3670  -13.2954   20.5397 C   0  0  0  0  0  0  0  0  0  0  0  0
  -25.3165  -11.4009   20.9164 C   0  0  0  0  0  0  0  0  0  0  0  0
  -17.6348  -20.1381   23.2173 C   0  0  0  0  0  0  0  0  0  0  0  0
  -27.6813  -11.4297   21.7258 C   0  0  0  0  0  0  0  0  0  0  0  0
  -25.1035  -26.8642   21.4619 C   0  0  0  0  0  0  0  0  0  0  0  0
  -27.6959  -26.0072   19.7105 C   0  0  0  0  0  0  0  0  0  0  0  0
  -29.4532  -23.5267   18.1594 C   0  0  0  0  0  0  0  0  0  0  0  0
  -19.7498  -13.5022   20.2476 C   0  0  0  0  0  0  0  0  0  0  0  0
  -25.3154  -31.8924   20.6076 C   0  0  0  0  0  0  0  0  0  0  0  0
  -26.0244  -24.9552   22.8270 C   0  0  0  0  0  0  0  0  0  0  0  0
  -25.8754  -24.2773   19.9525 C   0  0  0  0  0  0  0  0  0  0  0  0
  -17.2587  -18.9102   24.0154 C   0  0  0  0  0  0  0  0  0  0  0  0
  -25.4412  -30.6336   19.7533 C   0  0  0  0  0  0  0  0  0  0  0  0
  -18.4685  -18.2497   24.6570 C   0  0  0  0  0  0  0  0  0  0  0  0
  -21.5267  -11.3929   17.9960 C   0  0  0  0  0  0  0  0  0  0  0  0
  -24.2898  -29.6754   20.0417 C   0  0  0  0  0  0  0  0  0  0  0  0
  -22.9836  -11.5256   18.4430 C   0  0  0  0  0  0  0  0  0  0  0  0
  -20.7717  -12.7131   18.1335 C   0  0  0  0  0  0  0  0  0  0  0  0
  -22.2967  -13.4618   19.9189 C   0  0  0  0  0  0  0  0  0  0  0  0
  -19.5697  -17.9441   23.6369 C   0  0  1  0  0  0  0  0  0  0  0  0
  -24.3046  -29.2202   21.5060 C   0  0  1  0  0  0  0  0  0  0  0  0
  -26.2952  -25.9929   21.7421 C   0  0  1  0  0  0  0  0  0  0  0  0
  -23.0841  -12.1420   19.8513 C   0  0  2  0  0  0  0  0  0  0  0  0
  -22.8613  -18.2560   23.9028 C   0  0  0  0  0  0  0  0  0  0  0  0
  -31.5925  -23.6470   19.4656 C   0  0  0  0  0  0  0  0  0  0  0  0
  -18.4919  -13.0589   23.2156 C   0  0  0  0  0  0  0  0  0  0  0  0
  -26.2731  -27.1617   17.2706 C   0  0  0  0  0  0  0  0  0  0  0  0
  -27.8973  -25.9220   15.8237 C   0  0  0  0  0  0  0  0  0  0  0  0
  -28.7170  -27.6780   17.3945 C   0  0  0  0  0  0  0  0  0  0  0  0
  -31.0965  -23.4059   15.7010 C   0  0  0  0  0  0  0  0  0  0  0  0
  -22.2491  -18.2429   22.5075 C   0  0  0  0  0  0  0  0  0  0  0  0
  -19.1772  -16.8174   22.6777 C   0  0  0  0  0  0  0  0  0  0  0  0
  -19.2417  -15.4591   23.3735 C   0  0  0  0  0  0  0  0  0  0  0  0
  -27.9140  -25.4658   18.3183 C   0  0  1  0  0  0  0  0  0  0  0  0
  -30.9291  -23.1722   18.1822 C   0  0  2  0  0  0  0  0  0  0  0  0
  -18.8768  -14.3065   22.4271 C   0  0  1  0  0  0  0  0  0  0  0  0
  -27.6844  -26.5430   17.2208 C   0  0  0  0  0  0  0  0  0  0  0  0
  -25.1431  -13.4864   20.0401 N   0  0  0  0  0  0  0  0  0  0  0  0
  -24.5281  -12.3167   20.2841 N   0  0  0  0  0  0  0  0  0  0  0  0
  -26.6913  -25.3889   20.4684 N   0  0  0  0  0  0  0  0  0  0  0  0
  -20.9055  -13.2436   19.4924 N   0  0  0  0  0  0  0  0  0  0  0  0
  -24.8558  -10.1731   21.2372 N   0  0  0  0  0  0  0  0  0  0  0  0
  -28.8486  -12.1985   21.8301 N   0  0  0  0  0  0  0  0  0  0  0  0
  -25.3173  -28.2067   21.7100 N   0  0  0  0  0  0  0  0  0  0  0  0
  -29.2510  -24.8821   18.3121 N   0  0  0  0  0  0  0  0  0  0  0  0
  -19.9660  -13.9976   21.5277 N   0  0  0  0  0  0  0  0  0  0  0  0
  -31.6312  -23.8032   17.0289 N   0  3  0  0  0  0  0  0  0  0  0  0
  -16.8094  -21.0163   22.9805 O   0  0  0  0  0  0  0  0  0  0  0  0
  -27.6785  -10.2550   22.1657 O   0  0  0  0  0  0  0  0  0  0  0  0
  -24.0673  -26.3563   21.0498 O   0  0  0  0  0  0  0  0  0  0  0  0
  -28.3959  -26.9395   20.1134 O   0  0  0  0  0  0  0  0  0  0  0  0
  -28.5683  -22.6858   18.0165 O   0  0  0  0  0  0  0  0  0  0  0  0
  -18.6098  -13.3011   19.8153 O   0  0  0  0  0  0  0  0  0  0  0  0
  -30.1784  -17.3779   20.2678 O   0  0  0  0  0  0  0  0  0  0  0  0
  -22.8601  -20.5930   21.0805 O   0  0  0  0  0  0  0  0  0  1  0  0
  -28.5687  -22.4794   21.6047 F   0  0  0  0  0  0  0  0  0  0  0  0
  -31.3747  -18.7417   22.3538 F   0  0  0  0  0  0  0  0  0  0  0  0
  1  2  1  0  0  0  0
  1  6  2  0  0  0  0
  2  7  2  0  0  0  0
  3  9  2  0  0  0  0
  3 17  1  0  0  0  0
  4 10  1  0  0  0  0
  4 17  2  0  0  0  0
  5 11  2  0  0  0  0
  5 18  1  0  0  0  0
  6 20  1  0  0  0  0
  7 22  1  0  0  0  0
  8 12  2  0  0  0  0
  8 21  1  0  0  0  0
  9 26  1  0  0  0  0
 10 26  2  0  0  0  0
 11 28  1  0  0  0  0
 12 27  1  0  0  0  0
 13 14  2  0  0  0  0
 13 29  1  0  0  0  0
 14 30  1  0  0  0  0
 15 23  1  0  0  0  0
 15 27  2  0  0  0  0
 16 30  2  0  0  0  0
 16 31  1  0  0  0  0
 17 32  1  0  0  0  0
 18 24  2  0  0  0  0
 18 34  1  0  0  0  0
 19 32  1  0  0  0  0
 19 33  2  0  0  0  0
 19 35  1  0  0  0  0
 20 22  2  0  0  0  0
 20 40  1  0  0  0  0
 21 23  2  0  0  0  0
 21 41  1  0  0  0  0
 22 52  1  0  0  0  0
 23 42  1  0  0  0  0
 24 25  1  0  0  0  0
 24 51  1  0  0  0  0
 25 28  2  0  0  0  0
 25 62  1  0  0  0  0
 26 85  1  0  0  0  0
 27 86  1  0  0  0  0
 28 86  1  0  0  0  0
 29 31  2  0  0  0  0
 29 85  1  0  0  0  0
 30 87  1  0  0  0  0
 31 88  1  0  0  0  0
 32 69  2  0  0  0  0
 33 70  1  0  0  0  0
 33 73  1  0  0  0  0
 34 43  1  0  0  0  0
 34 79  2  0  0  0  0
 35 74  1  0  0  0  0
 35 80  2  0  0  0  0
 36 53  1  0  0  0  0
 36 75  1  0  0  0  0
 36 81  2  0  0  0  0
 37 65  1  0  0  0  0
 37 71  1  0  0  0  0
 37 82  2  0  0  0  0
 38 66  1  0  0  0  0
 38 76  1  0  0  0  0
 38 83  2  0  0  0  0
 39 72  1  0  0  0  0
 39 77  1  0  0  0  0
 39 84  2  0  0  0  0
 40 44  1  0  0  0  0
 41 53  1  0  0  0  0
 42 71  1  0  0  0  0
 43 45  1  0  0  0  0
 44 47  1  0  0  0  0
 45 51  1  0  0  0  0
 46 48  1  0  0  0  0
 46 49  1  0  0  0  0
 47 52  1  0  0  0  0
 48 54  1  0  0  0  0
 49 72  1  0  0  0  0
 50 54  1  0  0  0  0
 50 72  1  0  0  0  0
 51 63  1  0  0  0  0
 52 75  1  0  0  0  0
 53 71  1  0  0  0  0
 54 70  1  0  0  0  0
 55 62  1  0  0  0  0
 56 66  1  0  0  0  0
 57 67  1  0  0  0  0
 58 68  1  0  0  0  0
 59 68  1  0  0  0  0
 60 68  1  0  0  0  0
 61 78  1  0  0  0  0
 63 64  1  0  0  0  0
 64 67  1  0  0  0  0
 65 68  1  0  0  0  0
 65 76  1  0  0  0  0
 66 78  1  0  0  0  0
 67 77  1  0  0  0  0
 69 70  1  0  0  0  0
M  CHG  1  78   1
M  ISO  4  28 101  39 100  77 100  86 101
M  END
> <Batch ID>
0139

> <Smiles>
CCc1c2c(cc[101c:1]1[101O:1]c1ccc3c(c1)CN(C(=O)C(NC(=O)C(C)NC)C(C)(C)C)C(C(=O)NC1CCCc4ccccc41)C3)C(=O)CCC2CCC(C)[100NH:0][100C:0](=O)N1CCCC(n2nc(-c3ccc(Oc4ccc(F)cc4F)cc3)c(C(N)=O)c2N)C1

> <Shape>
0.199

> <Color>
0.074

> <Negative vol penalty>
0.000

$$$$

  -OEChem-04052321103D

 85 94  0     1  0  0  0  0  0999 V2000
  -31.9250  -30.1969   28.9336 C   0  0  0  0  0  0  0  0  0  0  0  0
  -31.5072  -29.1651   28.0992 C   0  0  0  0  0  0  0  0  0  0  0  0
  -23.2522   -9.7992   19.9137 C   0  0  0  0  0  0  0  0  0  0  0  0
  -23.5775   -9.9945   22.2997 C   0  0  0  0  0  0  0  0  0  0  0  0
  -31.1465  -31.3464   29.0623 C   0  0  0  0  0  0  0  0  0  0  0  0
  -30.3099  -29.2816   27.3940 C   0  0  0  0  0  0  0  0  0  0  0  0
  -29.1067  -27.1043   21.7978 C   0  0  0  0  0  0  0  0  0  0  0  0
  -29.4160  -19.2028   16.2880 C   0  0  0  0  0  0  0  0  0  0  0  0
  -22.4981   -8.6426   20.1111 C   0  0  0  0  0  0  0  0  0  0  0  0
  -22.8233   -8.8378   22.4972 C   0  0  0  0  0  0  0  0  0  0  0  0
  -28.4526  -25.9536   21.3596 C   0  0  0  0  0  0  0  0  0  0  0  0
  -29.0147  -20.3388   16.9945 C   0  0  0  0  0  0  0  0  0  0  0  0
  -23.2773   -5.4962   22.2559 C   0  0  0  0  0  0  0  0  0  0  0  0
  -23.7706   -4.5456   23.1496 C   0  0  0  0  0  0  0  0  0  0  0  0
  -26.4124  -27.2161   21.1088 C   0  0  0  0  0  0  0  0  0  0  0  0
  -28.3575  -18.9777   18.9010 C   0  0  0  0  0  0  0  0  0  0  0  0
  -21.7815   -4.7831   24.5002 C   0  0  0  0  0  0  0  0  0  0  0  0
  -23.7920  -10.4752   21.0080 C   0  0  0  0  0  0  0  0  0  0  0  0
  -24.1000  -12.9954   20.7607 C   0  0  0  0  0  0  0  0  0  0  0  0
  -29.9439  -31.4812   28.3508 C   0  0  0  0  0  0  0  0  0  0  0  0
  -28.4146  -28.3191   21.9053 C   0  0  0  0  0  0  0  0  0  0  0  0
  -29.5139  -30.4334   27.5143 C   0  0  0  0  0  0  0  0  0  0  0  0
  -29.2798  -17.9670   16.8987 C   0  0  0  0  0  0  0  0  0  0  0  0
  -27.0606  -28.3813   21.5462 C   0  0  0  0  0  0  0  0  0  0  0  0
  -28.7610  -17.8587   18.1934 C   0  0  0  0  0  0  0  0  0  0  0  0
  -22.2836   -8.1619   21.4028 C   0  0  0  0  0  0  0  0  0  0  0  0
  -27.1046  -26.0088   21.0178 C   0  0  0  0  0  0  0  0  0  0  0  0
  -28.4887  -20.2270   18.2915 C   0  0  0  0  0  0  0  0  0  0  0  0
  -22.0362   -6.0904   22.4844 C   0  0  0  0  0  0  0  0  0  0  0  0
  -23.0227   -4.1890   24.2717 C   0  0  0  0  0  0  0  0  0  0  0  0
  -21.2882   -5.7338   23.6065 C   0  0  0  0  0  0  0  0  0  0  0  0
  -24.5716  -11.6697   20.8047 C   0  0  0  0  0  0  0  0  0  0  0  0
  -25.2253  -13.7532   20.5461 C   0  0  0  0  0  0  0  0  0  0  0  0
  -22.7642  -13.4970   20.9013 C   0  0  0  0  0  0  0  0  0  0  0  0
  -27.7089  -30.2949   24.2932 C   0  0  0  0  0  0  0  0  0  0  0  0
  -26.5637  -32.1574   21.8969 C   0  0  0  0  0  0  0  0  0  0  0  0
  -25.3274  -32.3588   18.7224 C   0  0  0  0  0  0  0  0  0  0  0  0
  -29.9634  -14.4486   17.5859 C   0  0  0  0  0  0  0  0  0  0  0  0
  -29.1126  -32.7224   28.5587 C   0  0  0  0  0  0  0  0  0  0  0  0
  -29.1413  -29.5573   22.3541 C   0  0  0  0  0  0  0  0  0  0  0  0
  -26.2776  -29.6655   21.6246 C   0  0  0  0  0  0  0  0  0  0  0  0
  -28.7051  -16.4274   18.6163 C   0  0  0  0  0  0  0  0  0  0  0  0
  -28.0437  -32.9260   27.4881 C   0  0  0  0  0  0  0  0  0  0  0  0
  -30.1285  -12.5139   20.6993 C   0  0  0  0  0  0  0  0  0  0  0  0
  -27.2898  -31.6248   27.2322 C   0  0  0  0  0  0  0  0  0  0  0  0
  -28.6570  -12.1951   20.9725 C   0  0  0  0  0  0  0  0  0  0  0  0
  -30.4200  -12.6397   19.2053 C   0  0  0  0  0  0  0  0  0  0  0  0
  -28.0749  -13.2494   18.7584 C   0  0  0  0  0  0  0  0  0  0  0  0
  -28.2336  -30.5331   26.7137 C   0  0  1  0  0  0  0  0  0  0  0  0
  -29.6446  -16.6114   16.3686 C   0  0  2  0  0  0  0  0  0  0  0  0
  -28.2093  -30.6265   22.9158 C   0  0  1  0  0  0  0  0  0  0  0  0
  -27.7273  -13.1903   20.2518 C   0  0  1  0  0  0  0  0  0  0  0  0
  -24.4436  -34.0116   17.0538 C   0  0  0  0  0  0  0  0  0  0  0  0
  -23.9285  -32.2915   23.4292 C   0  0  0  0  0  0  0  0  0  0  0  0
  -22.8322  -33.1130   21.3337 C   0  0  0  0  0  0  0  0  0  0  0  0
  -24.6468  -34.4536   22.3979 C   0  0  0  0  0  0  0  0  0  0  0  0
  -27.4802  -31.7345   16.7899 C   0  0  0  0  0  0  0  0  0  0  0  0
  -28.8373  -16.2257   15.1343 C   0  0  0  0  0  0  0  0  0  0  0  0
  -26.2877  -22.5274   20.0255 C   0  0  0  0  0  0  0  0  0  0  0  0
  -27.1920  -23.6550   20.4978 C   0  0  0  0  0  0  0  0  0  1  0  0
  -27.0385  -21.2111   19.8989 C   0  0  0  0  0  0  0  0  0  0  0  0
  -25.2323  -32.3051   21.2008 C   0  0  1  0  0  0  0  0  0  0  0  0
  -25.6732  -33.2758   17.5631 C   0  0  2  0  0  0  0  0  0  0  0  0
  -24.1740  -33.0160   22.0906 C   0  0  0  0  0  0  0  0  0  0  0  0
  -25.8934  -11.5866   20.6318 N   0  0  0  0  0  0  0  0  0  0  0  0
  -26.2620  -12.8697   20.4770 N   0  0  0  0  0  0  0  0  0  0  0  0
  -27.0309  -30.8475   22.0751 N   0  0  0  0  0  0  0  0  0  0  0  0
  -29.3535  -15.7050   17.5025 N   0  0  0  0  0  0  0  0  0  0  0  0
  -29.4920  -13.5749   18.5716 N   0  0  0  0  0  0  0  0  0  0  0  0
  -25.4191  -15.0824   20.4117 N   0  0  0  0  0  0  0  0  0  0  0  0
  -21.7258  -12.5808   21.1170 N   0  0  0  0  0  0  0  0  0  0  0  0
  -28.5275  -30.7429   25.3123 N   0  0  0  0  0  0  0  0  0  0  0  0
  -25.5048  -32.9839   19.9385 N   0  0  0  0  0  0  0  0  0  0  0  0
  -26.2513  -32.4905   16.4361 N   0  3  0  0  0  0  0  0  0  0  0  0
  -22.4972  -14.7200   20.8211 O   0  0  0  0  0  0  0  0  0  0  0  0
  -26.6570  -29.6794   24.4220 O   0  0  0  0  0  0  0  0  0  0  0  0
  -27.1703  -33.1673   22.2626 O   0  0  0  0  0  0  0  0  0  0  0  0
  -24.9353  -31.2047   18.5648 O   0  0  0  0  0  0  0  0  0  0  0  0
  -30.9117  -14.1414   16.8527 O   0  0  0  0  0  0  0  0  0  0  0  0
  -27.4644  -16.2031   15.4812 O   0  0  0  0  0  0  0  0  0  0  0  0
  -21.5475   -7.0334   21.5959 O   0  0  0  0  0  0  0  0  0  0  0  0
  -26.4508  -24.8647   20.5820 O   0  0  0  0  0  0  0  0  0  1  0  0
  -28.1036  -21.3496   18.9608 O   0  0  0  0  0  0  0  0  0  0  0  0
  -23.4958   -3.2750   25.1289 F   0  0  0  0  0  0  0  0  0  0  0  0
  -20.0947   -6.3003   23.8307 F   0  0  0  0  0  0  0  0  0  0  0  0
  1  2  1  0  0  0  0
  1  5  2  0  0  0  0
  2  6  2  0  0  0  0
  3  9  2  0  0  0  0
  3 18  1  0  0  0  0
  4 10  1  0  0  0  0
  4 18  2  0  0  0  0
  5 20  1  0  0  0  0
  6 22  1  0  0  0  0
  7 11  2  0  0  0  0
  7 21  1  0  0  0  0
  8 12  2  0  0  0  0
  8 23  1  0  0  0  0
  9 26  1  0  0  0  0
 10 26  2  0  0  0  0
 11 27  1  0  0  0  0
 12 28  1  0  0  0  0
 13 14  2  0  0  0  0
 13 29  1  0  0  0  0
 14 30  1  0  0  0  0
 15 24  1  0  0  0  0
 15 27  2  0  0  0  0
 16 25  1  0  0  0  0
 16 28  2  0  0  0  0
 17 30  2  0  0  0  0
 17 31  1  0  0  0  0
 18 32  1  0  0  0  0
 19 32  1  0  0  0  0
 19 33  2  0  0  0  0
 19 34  1  0  0  0  0
 20 22  2  0  0  0  0
 20 39  1  0  0  0  0
 21 24  2  0  0  0  0
 21 40  1  0  0  0  0
 22 49  1  0  0  0  0
 23 25  2  0  0  0  0
 23 50  1  0  0  0  0
 24 41  1  0  0  0  0
 25 42  1  0  0  0  0
 26 81  1  0  0  0  0
 27 82  1  0  0  0  0
 28 83  1  0  0  0  0
 29 31  2  0  0  0  0
 29 81  1  0  0  0  0
 30 84  1  0  0  0  0
 31 85  1  0  0  0  0
 32 65  2  0  0  0  0
 33 66  1  0  0  0  0
 33 70  1  0  0  0  0
 34 71  1  0  0  0  0
 34 75  2  0  0  0  0
 35 51  1  0  0  0  0
 35 72  1  0  0  0  0
 35 76  2  0  0  0  0
 36 62  1  0  0  0  0
 36 67  1  0  0  0  0
 36 77  2  0  0  0  0
 37 63  1  0  0  0  0
 37 73  1  0  0  0  0
 37 78  2  0  0  0  0
 38 68  1  0  0  0  0
 38 69  1  0  0  0  0
 38 79  2  0  0  0  0
 39 43  1  0  0  0  0
 40 51  1  0  0  0  0
 41 67  1  0  0  0  0
 42 68  1  0  0  0  0
 43 45  1  0  0  0  0
 44 46  1  0  0  0  0
 44 47  1  0  0  0  0
 45 49  1  0  0  0  0
 46 52  1  0  0  0  0
 47 69  1  0  0  0  0
 48 52  1  0  0  0  0
 48 69  1  0  0  0  0
 49 72  1  0  0  0  0
 50 58  1  0  0  0  0
 50 68  1  0  0  0  0
 51 67  1  0  0  0  0
 52 66  1  0  0  0  0
 53 63  1  0  0  0  0
 54 64  1  0  0  0  0
 55 64  1  0  0  0  0
 56 64  1  0  0  0  0
 57 74  1  0  0  0  0
 58 80  1  0  0  0  0
 59 60  1  0  0  0  0
 59 61  1  0  0  0  0
 60 82  1  0  0  0  0
 61 83  1  0  0  0  0
 62 64  1  0  0  0  0
 62 73  1  0  0  0  0
 63 74  1  0  0  0  0
 65 66  1  0  0  0  0
M  CHG  1  74   1
M  ISO  4  38 100  60 101  68 100  82 101
M  END
> <Batch ID>
0139

> <Smiles>
CNC(C)C(=O)NC(C(=O)N1Cc2cc([101O:1][101CH2:1]CCOc3ccc4c(c3)C[100N:0]([100C:0](=O)N3CCCC(n5nc(-c6ccc(Oc7ccc(F)cc7F)cc6)c(C(N)=O)c5N)C3)C4CO)ccc2CC1C(=O)NC1CCCc2ccccc21)C(C)(C)C

> <Shape>
0.268

> <Color>
0.180

> <Negative vol penalty>
0.000

$$$$

  -OEChem-04052321103D

 79 87  0     1  0  0  0  0  0999 V2000
  -28.8927  -35.7703   22.6614 C   0  0  0  0  0  0  0  0  0  0  0  0
  -29.5020  -34.7161   21.9885 C   0  0  0  0  0  0  0  0  0  0  0  0
  -23.2791  -11.7525   23.2369 C   0  0  0  0  0  0  0  0  0  0  0  0
  -25.1923  -10.2774   23.2073 C   0  0  0  0  0  0  0  0  0  0  0  0
  -27.8294  -35.5211   23.5280 C   0  0  0  0  0  0  0  0  0  0  0  0
  -29.0489  -33.4117   22.1828 C   0  0  0  0  0  0  0  0  0  0  0  0
  -28.2698  -27.1964   18.7072 C   0  0  0  0  0  0  0  0  0  0  0  0
  -22.8479  -11.1693   24.4284 C   0  0  0  0  0  0  0  0  0  0  0  0
  -24.7611   -9.6942   24.3988 C   0  0  0  0  0  0  0  0  0  0  0  0
  -28.5869  -25.8446   18.8335 C   0  0  0  0  0  0  0  0  0  0  0  0
  -21.2513   -8.3480   25.3852 C   0  0  0  0  0  0  0  0  0  0  0  0
  -19.8995   -8.0222   25.4943 C   0  0  0  0  0  0  0  0  0  0  0  0
  -26.6909  -25.5425   20.2940 C   0  0  0  0  0  0  0  0  0  0  0  0
  -19.6978   -9.4967   27.3975 C   0  0  0  0  0  0  0  0  0  0  0  0
  -24.4513  -11.3064   22.6264 C   0  0  0  0  0  0  0  0  0  0  0  0
  -24.2038  -11.9517   20.1707 C   0  0  0  0  0  0  0  0  0  0  0  0
  -27.3568  -34.2141   23.7257 C   0  0  0  0  0  0  0  0  0  0  0  0
  -27.1653  -27.7346   19.3832 C   0  0  0  0  0  0  0  0  0  0  0  0
  -27.9791  -33.1446   23.0540 C   0  0  0  0  0  0  0  0  0  0  0  0
  -26.3604  -26.9009   20.1726 C   0  0  0  0  0  0  0  0  0  0  0  0
  -23.5889  -10.1402   25.0094 C   0  0  0  0  0  0  0  0  0  0  0  0
  -27.7991  -25.0181   19.6293 C   0  0  0  0  0  0  0  0  0  0  0  0
  -21.8265   -9.2481   26.2823 C   0  0  0  0  0  0  0  0  0  0  0  0
  -19.1227   -8.5966   26.5004 C   0  0  0  0  0  0  0  0  0  0  0  0
  -21.0497   -9.8225   27.2884 C   0  0  0  0  0  0  0  0  0  0  0  0
  -24.8969  -11.9081   21.3953 C   0  0  0  0  0  0  0  0  0  0  0  0
  -25.0467  -12.6278   19.3230 C   0  0  0  0  0  0  0  0  0  0  0  0
  -22.9133  -11.4279   19.8301 C   0  0  0  0  0  0  0  0  0  0  0  0
  -26.7690  -29.9643   21.6137 C   0  0  0  0  0  0  0  0  0  0  0  0
  -23.6221  -29.4269   21.0384 C   0  0  0  0  0  0  0  0  0  0  0  0
  -21.2058  -27.2986   19.9075 C   0  0  0  0  0  0  0  0  0  0  0  0
  -29.4206  -16.6118   20.2437 C   0  0  0  0  0  0  0  0  0  0  0  0
  -26.2353  -33.9885   24.7086 C   0  0  0  0  0  0  0  0  0  0  0  0
  -26.8210  -29.1891   19.2153 C   0  0  0  0  0  0  0  0  0  0  0  0
  -25.1520  -27.4253   20.9029 C   0  0  0  0  0  0  0  0  0  0  0  0
  -25.5719  -32.6205   24.5723 C   0  0  0  0  0  0  0  0  0  0  0  0
  -29.6911  -13.4866   18.5595 C   0  0  0  0  0  0  0  0  0  0  0  0
  -26.6268  -31.5239   24.4649 C   0  0  0  0  0  0  0  0  0  0  0  0
  -27.4798  -20.9053   19.7064 C   0  0  0  0  0  0  0  0  0  0  0  0
  -27.8359  -20.8591   22.2080 C   0  0  0  0  0  0  0  0  0  0  0  0
  -28.4306  -12.7316   18.9848 C   0  0  0  0  0  0  0  0  0  0  0  0
  -27.9470  -19.4552   19.5345 C   0  0  0  0  0  0  0  0  0  0  0  0
  -27.6832  -19.3422   22.0466 C   0  0  0  0  0  0  0  0  0  0  0  0
  -30.2472  -14.3418   19.6959 C   0  0  0  0  0  0  0  0  0  0  0  0
  -28.0163  -14.5168   20.7284 C   0  0  0  0  0  0  0  0  0  0  0  0
  -27.5001  -31.7186   23.2195 C   0  0  1  0  0  0  0  0  0  0  0  0
  -25.9739  -29.7385   20.3589 C   0  0  1  0  0  0  0  0  0  0  0  0
  -28.1563  -21.5927   20.8942 C   0  0  0  0  0  0  0  0  0  0  0  0
  -27.3868  -13.6840   19.5986 C   0  0  2  0  0  0  0  0  0  0  0  0
  -28.4506  -18.8180   20.8363 C   0  0  0  0  0  0  0  0  0  0  0  0
  -18.7217  -27.1252   19.5968 C   0  0  0  0  0  0  0  0  0  0  0  0
  -28.4649  -23.7666   22.1327 C   0  0  0  0  0  0  0  0  0  0  0  0
  -23.2821  -28.9629   24.0349 C   0  0  0  0  0  0  0  0  0  0  0  0
  -21.0737  -27.8887   23.5473 C   0  0  0  0  0  0  0  0  0  0  0  0
  -21.4471  -30.2865   22.9694 C   0  0  0  0  0  0  0  0  0  0  0  0
  -21.4782  -26.9727   16.9786 C   0  0  0  0  0  0  0  0  0  0  0  0
  -22.5781  -28.4900   21.5963 C   0  0  1  0  0  0  0  0  0  0  0  0
  -20.0448  -27.5091   18.9525 C   0  0  2  0  0  0  0  0  0  0  0  0
  -27.7569  -23.0640   20.9843 C   0  0  1  0  0  0  0  0  0  1  0  0
  -22.1191  -28.8972   23.0249 C   0  0  0  0  0  0  0  0  0  0  0  0
  -26.0885  -12.5085   21.3350 N   0  0  0  0  0  0  0  0  0  0  0  0
  -26.1507  -12.9358   20.0623 N   0  0  0  0  0  0  0  0  0  0  0  0
  -24.8603  -28.8556   20.7121 N   0  0  0  0  0  0  0  0  0  0  0  0
  -29.2078  -15.2235   20.2328 N   0  0  0  0  0  0  0  0  0  0  0  0
  -24.9440  -12.9830   18.0246 N   0  0  0  0  0  0  0  0  0  0  0  0
  -22.8324  -10.1178   19.3387 N   0  0  0  0  0  0  0  0  0  0  0  0
  -26.7948  -31.2803   22.0342 N   0  0  0  0  0  0  0  0  0  0  0  0
  -21.5016  -28.4461   20.6126 N   0  0  0  0  0  0  0  0  0  0  0  0
  -28.3827  -17.3754   20.7637 N   0  0  0  0  0  0  0  0  0  0  0  0
  -20.2271  -26.6832   17.7255 N   0  3  0  0  0  0  0  0  0  0  0  0
  -21.8649  -12.1074   19.9421 O   0  0  0  0  0  0  0  0  0  0  0  0
  -27.3171  -29.0146   22.1608 O   0  0  0  0  0  0  0  0  0  0  0  0
  -23.3468  -30.6202   20.8907 O   0  0  0  0  0  0  0  0  0  0  0  0
  -21.7894  -26.2228   20.0198 O   0  0  0  0  0  0  0  0  0  0  0  0
  -30.4565  -17.1327   19.8163 O   0  0  0  0  0  0  0  0  0  0  0  0
  -23.1685   -9.5711   26.1721 O   0  0  0  0  0  0  0  0  0  0  0  0
  -28.1068  -23.6984   19.7548 O   0  0  0  0  0  0  0  0  0  1  0  0
  -17.8241   -8.2848   26.6042 F   0  0  0  0  0  0  0  0  0  0  0  0
  -21.5963  -10.6888   28.1524 F   0  0  0  0  0  0  0  0  0  0  0  0
  1  2  1  0  0  0  0
  1  5  2  0  0  0  0
  2  6  2  0  0  0  0
  3  8  2  0  0  0  0
  3 15  1  0  0  0  0
  4  9  1  0  0  0  0
  4 15  2  0  0  0  0
  5 17  1  0  0  0  0
  6 19  1  0  0  0  0
  7 10  2  0  0  0  0
  7 18  1  0  0  0  0
  8 21  1  0  0  0  0
  9 21  2  0  0  0  0
 10 22  1  0  0  0  0
 11 12  2  0  0  0  0
 11 23  1  0  0  0  0
 12 24  1  0  0  0  0
 13 20  1  0  0  0  0
 13 22  2  0  0  0  0
 14 24  2  0  0  0  0
 14 25  1  0  0  0  0
 15 26  1  0  0  0  0
 16 26  1  0  0  0  0
 16 27  2  0  0  0  0
 16 28  1  0  0  0  0
 17 19  2  0  0  0  0
 17 33  1  0  0  0  0
 18 20  2  0  0  0  0
 18 34  1  0  0  0  0
 19 46  1  0  0  0  0
 20 35  1  0  0  0  0
 21 76  1  0  0  0  0
 22 77  1  0  0  0  0
 23 25  2  0  0  0  0
 23 76  1  0  0  0  0
 24 78  1  0  0  0  0
 25 79  1  0  0  0  0
 26 61  2  0  0  0  0
 27 62  1  0  0  0  0
 27 65  1  0  0  0  0
 28 66  1  0  0  0  0
 28 71  2  0  0  0  0
 29 47  1  0  0  0  0
 29 67  1  0  0  0  0
 29 72  2  0  0  0  0
 30 57  1  0  0  0  0
 30 63  1  0  0  0  0
 30 73  2  0  0  0  0
 31 58  1  0  0  0  0
 31 68  1  0  0  0  0
 31 74  2  0  0  0  0
 32 64  1  0  0  0  0
 32 69  1  0  0  0  0
 32 75  2  0  0  0  0
 33 36  1  0  0  0  0
 34 47  1  0  0  0  0
 35 63  1  0  0  0  0
 36 38  1  0  0  0  0
 37 41  1  0  0  0  0
 37 44  1  0  0  0  0
 38 46  1  0  0  0  0
 39 42  1  0  0  0  0
 39 48  1  0  0  0  0
 40 43  1  0  0  0  0
 40 48  1  0  0  0  0
 41 49  1  0  0  0  0
 42 50  1  0  0  0  0
 43 50  1  0  0  0  0
 44 64  1  0  0  0  0
 45 49  1  0  0  0  0
 45 64  1  0  0  0  0
 46 67  1  0  0  0  0
 47 63  1  0  0  0  0
 48 59  1  0  0  0  0
 49 62  1  0  0  0  0
 50 69  1  0  0  0  0
 51 58  1  0  0  0  0
 52 59  1  0  0  0  0
 53 60  1  0  0  0  0
 54 60  1  0  0  0  0
 55 60  1  0  0  0  0
 56 70  1  0  0  0  0
 57 60  1  0  0  0  0
 57 68  1  0  0  0  0
 58 70  1  0  0  0  0
 59 77  1  0  0  0  0
 61 62  1  0  0  0  0
M  CHG  1  70   1
M  ISO  4  32 100  59 101  69 100  77 101
M  END
> <Batch ID>
0139

> <Smiles>
CNC(C)C(=O)NC(C(=O)N1Cc2cc([101O:1][101CH:1](C)C3CCC([100NH:0][100C:0](=O)N4CCCC(n5nc(-c6ccc(Oc7ccc(F)cc7F)cc6)c(C(N)=O)c5N)C4)CC3)ccc2CC1C(=O)NC1CCCc2ccccc21)C(C)(C)C

> <Shape>
0.260

> <Color>
0.064

> <Negative vol penalty>
0.000

$$$$

  -OEChem-04052321103D

 86 95  0     1  0  0  0  0  0999 V2000
  -31.7199  -36.7773   17.9843 C   0  0  0  0  0  0  0  0  0  0  0  0
  -31.7095  -35.7223   18.8912 C   0  0  0  0  0  0  0  0  0  0  0  0
  -23.7292   -9.5793   20.5049 C   0  0  0  0  0  0  0  0  0  0  0  0
  -24.2279  -10.1855   22.7899 C   0  0  0  0  0  0  0  0  0  0  0  0
  -30.6829  -37.7092   17.9888 C   0  0  0  0  0  0  0  0  0  0  0  0
  -30.6625  -35.5994   19.8039 C   0  0  0  0  0  0  0  0  0  0  0  0
  -28.9464  -30.8485   20.1632 C   0  0  0  0  0  0  0  0  0  0  0  0
  -23.1953   -8.3674   20.9430 C   0  0  0  0  0  0  0  0  0  0  0  0
  -23.6939   -8.9736   23.2279 C   0  0  0  0  0  0  0  0  0  0  0  0
  -29.7019  -29.9542   20.9204 C   0  0  0  0  0  0  0  0  0  0  0  0
  -20.3152   -7.2727   22.3358 C   0  0  0  0  0  0  0  0  0  0  0  0
  -19.0993   -6.8642   21.7877 C   0  0  0  0  0  0  0  0  0  0  0  0
  -28.1846  -30.2496   22.7723 C   0  0  0  0  0  0  0  0  0  0  0  0
  -30.4515  -26.5310   23.6511 C   0  0  0  0  0  0  0  0  0  0  0  0
  -20.1534   -4.8615   20.9420 C   0  0  0  0  0  0  0  0  0  0  0  0
  -28.3588  -25.7972   22.0615 C   0  0  0  0  0  0  0  0  0  0  0  0
  -24.2456  -10.4883   21.4284 C   0  0  0  0  0  0  0  0  0  0  0  0
  -24.1133  -12.9579   20.8030 C   0  0  0  0  0  0  0  0  0  0  0  0
  -29.6177  -37.5921   18.8956 C   0  0  0  0  0  0  0  0  0  0  0  0
  -27.8086  -31.4594   20.7096 C   0  0  0  0  0  0  0  0  0  0  0  0
  -29.6109  -36.5313   19.8214 C   0  0  0  0  0  0  0  0  0  0  0  0
  -27.4149  -31.1493   22.0191 C   0  0  0  0  0  0  0  0  0  0  0  0
  -30.0912  -25.1903   23.5737 C   0  0  0  0  0  0  0  0  0  0  0  0
  -29.0255  -24.8081   22.7664 C   0  0  0  0  0  0  0  0  0  0  0  0
  -23.1776   -8.0646   22.3045 C   0  0  0  0  0  0  0  0  0  0  0  0
  -29.3227  -29.6568   22.2261 C   0  0  0  0  0  0  0  0  0  0  0  0
  -21.4502   -6.4757   22.1869 C   0  0  0  0  0  0  0  0  0  0  0  0
  -19.0184   -5.6586   21.0909 C   0  0  0  0  0  0  0  0  0  0  0  0
  -21.3693   -5.2701   21.4901 C   0  0  0  0  0  0  0  0  0  0  0  0
  -24.7978  -11.7401   20.9765 C   0  0  0  0  0  0  0  0  0  0  0  0
  -29.7203  -27.4431   22.9073 C   0  0  0  0  0  0  0  0  0  1  0  0
  -25.0757  -13.8329   20.3617 C   0  0  0  0  0  0  0  0  0  0  0  0
  -22.7311  -13.2704   21.0213 C   0  0  0  0  0  0  0  0  0  0  0  0
  -26.9515  -34.4567   21.3303 C   0  0  0  0  0  0  0  0  0  0  0  0
  -24.1126  -33.0779   22.0800 C   0  0  0  0  0  0  0  0  0  0  0  0
  -22.4200  -30.2841   23.0680 C   0  0  0  0  0  0  0  0  0  0  0  0
  -30.2159  -15.9821   20.6854 C   0  0  0  0  0  0  0  0  0  0  0  0
  -28.5433  -38.6506   18.8941 C   0  0  0  0  0  0  0  0  0  0  0  0
  -26.9892  -32.4014   19.8707 C   0  0  0  0  0  0  0  0  0  0  0  0
  -26.1902  -31.7628   22.6453 C   0  0  0  0  0  0  0  0  0  0  0  0
  -27.2799  -38.2372   19.6444 C   0  0  0  0  0  0  0  0  0  0  0  0
  -29.8089  -12.9993   18.7844 C   0  0  0  0  0  0  0  0  0  0  0  0
  -27.6377  -37.6185   20.9920 C   0  0  0  0  0  0  0  0  0  0  0  0
  -28.4157  -12.5034   19.1756 C   0  0  0  0  0  0  0  0  0  0  0  0
  -29.3751  -19.1057   20.1984 C   0  0  0  0  0  0  0  0  0  0  0  0
  -29.0967  -18.8769   22.7058 C   0  0  0  0  0  0  0  0  0  0  0  0
  -29.7222  -20.5849   20.3730 C   0  0  0  0  0  0  0  0  0  0  0  0
  -29.4450  -20.3558   22.8787 C   0  0  0  0  0  0  0  0  0  0  0  0
  -30.5358  -13.6325   19.9687 C   0  0  0  0  0  0  0  0  0  0  0  0
  -28.3946  -14.2073   21.0451 C   0  0  0  0  0  0  0  0  0  0  0  0
  -28.4800  -36.3500   20.8105 C   0  0  1  0  0  0  0  0  0  0  0  0
  -26.1409  -33.3583   20.7026 C   0  0  1  0  0  0  0  0  0  0  0  0
  -27.6008  -13.6111   19.8700 C   0  0  2  0  0  0  0  0  0  0  0  0
  -29.7414  -18.2940   21.4443 C   0  0  0  0  0  0  0  0  0  0  0  0
  -29.0704  -21.1525   21.6314 C   0  0  0  0  0  0  0  0  0  0  0  0
  -30.8590  -24.1817   24.3620 C   0  0  0  0  0  0  0  0  0  0  0  0
  -20.1125  -29.4756   23.6328 C   0  0  0  0  0  0  0  0  0  0  0  0
  -24.2782  -34.4965   24.7763 C   0  0  0  0  0  0  0  0  0  0  0  0
  -22.5056  -32.9444   25.6232 C   0  0  0  0  0  0  0  0  0  0  0  0
  -22.0041  -34.4962   23.7356 C   0  0  0  0  0  0  0  0  0  0  0  0
  -22.4580  -28.2897   20.8817 C   0  0  0  0  0  0  0  0  0  0  0  0
  -28.5980  -23.3865   22.6460 C   0  0  0  0  0  0  0  0  0  0  0  0
  -23.5030  -32.5001   23.3343 C   0  0  1  0  0  0  0  0  0  0  0  0
  -21.1560  -29.6319   22.5376 C   0  0  2  0  0  0  0  0  0  0  0  0
  -23.0969  -33.5991   24.3565 C   0  0  0  0  0  0  0  0  0  0  0  0
  -28.6797  -27.1096   22.1114 N   0  0  0  0  0  0  0  0  0  0  0  0
  -26.0948  -11.8294   20.6702 N   0  0  0  0  0  0  0  0  0  0  0  0
  -26.2330  -13.1139   20.2997 N   0  0  0  0  0  0  0  0  0  0  0  0
  -25.4255  -32.6825   21.7869 N   0  0  0  0  0  0  0  0  0  0  0  0
  -29.7100  -14.6758   20.5815 N   0  0  0  0  0  0  0  0  0  0  0  0
  -25.0364  -15.1395   20.0244 N   0  0  0  0  0  0  0  0  0  0  0  0
  -21.8801  -12.2539   21.4760 N   0  0  0  0  0  0  0  0  0  0  0  0
  -27.6404  -35.2372   20.4216 N   0  0  0  0  0  0  0  0  0  0  0  0
  -22.3987  -31.6523   22.8983 N   0  0  0  0  0  0  0  0  0  0  0  0
  -29.3662  -16.9112   21.2731 N   0  0  0  0  0  0  0  0  0  0  0  0
  -29.5130  -22.5609   21.8090 N   0  3  0  0  0  0  0  0  0  0  0  0
  -21.4623  -28.2825   21.9842 N   0  3  0  0  0  0  0  0  0  0  0  0
  -22.2612  -14.4129   20.8035 O   0  0  0  0  0  0  0  0  0  0  0  0
  -26.9509  -34.5874   22.5487 O   0  0  0  0  0  0  0  0  0  0  0  0
  -23.4460  -33.8461   21.3820 O   0  0  0  0  0  0  0  0  0  0  0  0
  -23.3333  -29.6442   23.5848 O   0  0  0  0  0  0  0  0  0  0  0  0
  -31.3393  -16.2981   20.2793 O   0  0  0  0  0  0  0  0  0  0  0  0
  -22.6564   -6.8823   22.7323 O   0  0  0  0  0  0  0  0  0  0  0  0
  -30.0587  -28.7847   22.9675 O   0  0  0  0  0  0  0  0  0  1  0  0
  -17.8504   -5.2657   20.5660 F   0  0  0  0  0  0  0  0  0  0  0  0
  -22.4560   -4.4995   21.3448 F   0  0  0  0  0  0  0  0  0  0  0  0
  1  2  1  0  0  0  0
  1  5  2  0  0  0  0
  2  6  2  0  0  0  0
  3  8  2  0  0  0  0
  3 17  1  0  0  0  0
  4  9  1  0  0  0  0
  4 17  2  0  0  0  0
  5 19  1  0  0  0  0
  6 21  1  0  0  0  0
  7 10  2  0  0  0  0
  7 20  1  0  0  0  0
  8 25  1  0  0  0  0
  9 25  2  0  0  0  0
 10 26  1  0  0  0  0
 11 12  2  0  0  0  0
 11 27  1  0  0  0  0
 12 28  1  0  0  0  0
 13 22  1  0  0  0  0
 13 26  2  0  0  0  0
 14 23  2  0  0  0  0
 14 31  1  0  0  0  0
 15 28  2  0  0  0  0
 15 29  1  0  0  0  0
 16 24  2  0  0  0  0
 16 66  1  0  0  0  0
 17 30  1  0  0  0  0
 18 30  1  0  0  0  0
 18 32  2  0  0  0  0
 18 33  1  0  0  0  0
 19 21  2  0  0  0  0
 19 38  1  0  0  0  0
 20 22  2  0  0  0  0
 20 39  1  0  0  0  0
 21 51  1  0  0  0  0
 22 40  1  0  0  0  0
 23 24  1  0  0  0  0
 23 56  1  0  0  0  0
 24 62  1  0  0  0  0
 25 83  1  0  0  0  0
 26 84  1  0  0  0  0
 27 29  2  0  0  0  0
 27 83  1  0  0  0  0
 28 85  1  0  0  0  0
 29 86  1  0  0  0  0
 30 67  2  0  0  0  0
 31 66  2  0  0  0  0
 31 84  1  0  0  0  0
 32 68  1  0  0  0  0
 32 71  1  0  0  0  0
 33 72  1  0  0  0  0
 33 78  2  0  0  0  0
 34 52  1  0  0  0  0
 34 73  1  0  0  0  0
 34 79  2  0  0  0  0
 35 63  1  0  0  0  0
 35 69  1  0  0  0  0
 35 80  2  0  0  0  0
 36 64  1  0  0  0  0
 36 74  1  0  0  0  0
 36 81  2  0  0  0  0
 37 70  1  0  0  0  0
 37 75  1  0  0  0  0
 37 82  2  0  0  0  0
 38 41  1  0  0  0  0
 39 52  1  0  0  0  0
 40 69  1  0  0  0  0
 41 43  1  0  0  0  0
 42 44  1  0  0  0  0
 42 49  1  0  0  0  0
 43 51  1  0  0  0  0
 44 53  1  0  0  0  0
 45 47  1  0  0  0  0
 45 54  1  0  0  0  0
 46 48  1  0  0  0  0
 46 54  1  0  0  0  0
 47 55  1  0  0  0  0
 48 55  1  0  0  0  0
 49 70  1  0  0  0  0
 50 53  1  0  0  0  0
 50 70  1  0  0  0  0
 51 73  1  0  0  0  0
 52 69  1  0  0  0  0
 53 68  1  0  0  0  0
 54 75  1  0  0  0  0
 55 76  1  0  0  0  0
 57 64  1  0  0  0  0
 58 65  1  0  0  0  0
 59 65  1  0  0  0  0
 60 65  1  0  0  0  0
 61 77  1  0  0  0  0
 62 76  1  0  0  0  0
 63 65  1  0  0  0  0
 63 74  1  0  0  0  0
 64 77  1  0  0  0  0
 67 68  1  0  0  0  0
M  CHG  2  76   1  77   1
M  ISO  4  31 101  37 100  75 100  84 101
M  END
> <Batch ID>
0139

> <Smiles>
CNC(C)C(=O)NC(C(=O)N1Cc2cc([101O:1][101c:1]3cc(C)c(CNC4CCC([100NH:0][100C:0](=O)N5CCCC(n6nc(-c7ccc(Oc8ccc(F)cc8F)cc7)c(C(N)=O)c6N)C5)CC4)cn3)ccc2CC1C(=O)NC1CCCc2ccccc21)C(C)(C)C

> <Shape>
0.260

> <Color>
0.150

> <Negative vol penalty>
0.000

$$$$

  -OEChem-04052321103D

 83 92  0     1  0  0  0  0  0999 V2000
  -16.7355  -29.9818   23.9301 C   0  0  0  0  0  0  0  0  0  0  0  0
  -17.8878  -30.5430   24.4711 C   0  0  0  0  0  0  0  0  0  0  0  0
  -25.6716  -17.8726   18.2566 C   0  0  0  0  0  0  0  0  0  0  0  0
  -27.0140  -16.7061   16.6213 C   0  0  0  0  0  0  0  0  0  0  0  0
  -16.8271  -28.8542   23.1152 C   0  0  0  0  0  0  0  0  0  0  0  0
  -19.1323  -29.9762   24.1984 C   0  0  0  0  0  0  0  0  0  0  0  0
  -26.0015  -31.7772   23.2566 C   0  0  0  0  0  0  0  0  0  0  0  0
  -25.6815  -16.7409   19.0720 C   0  0  0  0  0  0  0  0  0  0  0  0
  -27.0240  -15.5744   17.4368 C   0  0  0  0  0  0  0  0  0  0  0  0
  -27.2745  -31.4484   23.7205 C   0  0  0  0  0  0  0  0  0  0  0  0
  -28.6579  -14.5091   20.1965 C   0  0  0  0  0  0  0  0  0  0  0  0
  -29.8749  -13.8512   20.3746 C   0  0  0  0  0  0  0  0  0  0  0  0
  -27.3185  -29.5482   22.2350 C   0  0  0  0  0  0  0  0  0  0  0  0
  -28.9263  -11.8405   19.4288 C   0  0  0  0  0  0  0  0  0  0  0  0
  -26.3379  -17.8551   17.0312 C   0  0  0  0  0  0  0  0  0  0  0  0
  -25.2018  -19.6633   15.6358 C   0  0  0  0  0  0  0  0  0  0  0  0
  -18.0742  -28.2791   22.8245 C   0  0  0  0  0  0  0  0  0  0  0  0
  -25.3719  -30.9863   22.2847 C   0  0  0  0  0  0  0  0  0  0  0  0
  -19.2405  -28.8391   23.3800 C   0  0  0  0  0  0  0  0  0  0  0  0
  -26.0386  -29.8705   21.7587 C   0  0  0  0  0  0  0  0  0  0  0  0
  -26.3577  -15.5919   18.6621 C   0  0  0  0  0  0  0  0  0  0  0  0
  -27.9320  -30.3322   23.2118 C   0  0  0  0  0  0  0  0  0  0  0  0
  -27.5751  -13.8327   19.6346 C   0  0  0  0  0  0  0  0  0  0  0  0
  -30.0091  -12.5169   19.9908 C   0  0  0  0  0  0  0  0  0  0  0  0
  -27.7093  -12.4984   19.2507 C   0  0  0  0  0  0  0  0  0  0  0  0
  -26.3275  -19.0236   16.1882 C   0  0  0  0  0  0  0  0  0  0  0  0
  -25.7209  -20.7146   14.9204 C   0  0  0  0  0  0  0  0  0  0  0  0
  -23.8111  -19.3366   15.7584 C   0  0  0  0  0  0  0  0  0  0  0  0
  -22.7135  -29.2466   22.1861 C   0  0  0  0  0  0  0  0  0  0  0  0
  -23.5018  -28.9287   19.0556 C   0  0  0  0  0  0  0  0  0  0  0  0
  -25.9328  -28.9769   16.6608 C   0  0  0  0  0  0  0  0  0  0  0  0
  -30.8127  -23.8328   15.3693 C   0  0  0  0  0  0  0  0  0  0  0  0
  -18.1188  -27.0324   21.9769 C   0  0  0  0  0  0  0  0  0  0  0  0
  -24.0096  -31.3697   21.7754 C   0  0  0  0  0  0  0  0  0  0  0  0
  -25.4145  -29.0005   20.6994 C   0  0  0  0  0  0  0  0  0  0  0  0
  -19.5093  -26.7154   21.4325 C   0  0  0  0  0  0  0  0  0  0  0  0
  -29.6448  -22.0386   12.5244 C   0  0  0  0  0  0  0  0  0  0  0  0
  -20.5553  -26.8379   22.5360 C   0  0  0  0  0  0  0  0  0  0  0  0
  -29.9647  -27.1697   18.9325 C   0  0  0  0  0  0  0  0  0  0  0  0
  -32.3539  -26.3456   18.9551 C   0  0  0  0  0  0  0  0  0  0  0  0
  -28.5606  -21.1201   13.0909 C   0  0  0  0  0  0  0  0  0  0  0  0
  -29.5416  -25.9282   18.1465 C   0  0  0  0  0  0  0  0  0  0  0  0
  -31.9352  -25.1032   18.1684 C   0  0  0  0  0  0  0  0  0  0  0  0
  -30.9996  -28.3231   23.5825 C   0  0  0  0  0  0  0  0  0  0  0  0
  -30.8076  -22.2076   13.4998 C   0  0  0  0  0  0  0  0  0  0  0  0
  -29.3374  -21.7310   15.4195 C   0  0  0  0  0  0  0  0  0  0  0  0
  -20.6109  -28.2678   23.0872 C   0  0  1  0  0  0  0  0  0  0  0  0
  -23.2519  -30.1992   21.1563 C   0  0  1  0  0  0  0  0  0  0  0  0
  -31.2142  -26.9402   19.7948 C   0  0  0  0  0  0  0  0  0  0  0  0
  -30.1250  -28.1020   22.3795 C   0  0  2  0  0  0  0  0  0  0  0  0
  -28.1181  -21.5746   14.4948 C   0  0  2  0  0  0  0  0  0  0  0  0
  -30.6977  -25.3742   17.3109 C   0  0  0  0  0  0  0  0  0  0  0  0
  -29.5278  -28.6262   23.6580 C   0  0  2  0  0  0  0  0  0  1  0  0
  -26.2785  -28.6429   14.1978 C   0  0  0  0  0  0  0  0  0  0  0  0
  -32.1900  -25.8225   21.8121 C   0  0  0  0  0  0  0  0  0  0  0  0
  -23.2882  -25.9091   19.4375 C   0  0  0  0  0  0  0  0  0  0  0  0
  -24.5386  -25.6188   17.2880 C   0  0  0  0  0  0  0  0  0  0  0  0
  -22.3207  -26.7606   17.2943 C   0  0  0  0  0  0  0  0  0  0  0  0
  -26.9026  -31.7501   16.3031 C   0  0  0  0  0  0  0  0  0  0  0  0
  -29.8165  -26.7186   21.9215 C   0  0  0  0  0  0  0  0  0  0  0  0
  -24.3317  -27.9537   18.2558 C   0  0  1  0  0  0  0  0  0  0  0  0
  -25.9944  -29.6499   15.3015 C   0  0  2  0  0  0  0  0  0  0  0  0
  -30.9048  -26.0764   21.0206 C   0  0  1  0  0  0  0  0  0  0  0  0
  -23.6310  -26.5756   18.0903 C   0  0  0  0  0  0  0  0  0  0  0  0
  -27.4752  -19.6186   15.8525 N   0  0  0  0  0  0  0  0  0  0  0  0
  -27.0734  -20.6432   15.0813 N   0  0  0  0  0  0  0  0  0  0  0  0
  -24.0786  -29.4130   20.2383 N   0  0  0  0  0  0  0  0  0  0  0  0
  -30.3204  -22.6414   14.8114 N   0  0  0  0  0  0  0  0  0  0  0  0
  -25.1478  -21.6838   14.1756 N   0  0  0  0  0  0  0  0  0  0  0  0
  -23.4518  -18.2239   16.5312 N   0  0  0  0  0  0  0  0  0  0  0  0
  -21.3365  -29.1312   22.1802 N   0  0  0  0  0  0  0  0  0  0  0  0
  -24.6437  -28.6205   16.9962 N   0  0  0  0  0  0  0  0  0  0  0  0
  -30.2939  -24.1744   16.6122 N   0  0  0  0  0  0  0  0  0  0  0  0
  -27.0685  -30.6828   15.2831 N   0  3  0  0  0  0  0  0  0  0  0  0
  -22.9148  -20.0016   15.1858 O   0  0  0  0  0  0  0  0  0  0  0  0
  -23.4899  -28.6587   22.9298 O   0  0  0  0  0  0  0  0  0  0  0  0
  -22.3861  -29.2544   18.6425 O   0  0  0  0  0  0  0  0  0  0  0  0
  -26.9290  -28.7831   17.3540 O   0  0  0  0  0  0  0  0  0  0  0  0
  -31.6484  -24.5425   14.7993 O   0  0  0  0  0  0  0  0  0  0  0  0
  -26.3678  -14.4875   19.4577 O   0  0  0  0  0  0  0  0  0  0  0  0
  -29.1744  -30.0087   23.6633 O   0  0  0  0  0  0  0  0  0  1  0  0
  -31.1782  -11.8857   20.1605 F   0  0  0  0  0  0  0  0  0  0  0  0
  -26.6729  -11.8437   18.7093 F   0  0  0  0  0  0  0  0  0  0  0  0
  1  2  1  0  0  0  0
  1  5  2  0  0  0  0
  2  6  2  0  0  0  0
  3  8  2  0  0  0  0
  3 15  1  0  0  0  0
  4  9  1  0  0  0  0
  4 15  2  0  0  0  0
  5 17  1  0  0  0  0
  6 19  1  0  0  0  0
  7 10  2  0  0  0  0
  7 18  1  0  0  0  0
  8 21  1  0  0  0  0
  9 21  2  0  0  0  0
 10 22  1  0  0  0  0
 11 12  2  0  0  0  0
 11 23  1  0  0  0  0
 12 24  1  0  0  0  0
 13 20  1  0  0  0  0
 13 22  2  0  0  0  0
 14 24  2  0  0  0  0
 14 25  1  0  0  0  0
 15 26  1  0  0  0  0
 16 26  1  0  0  0  0
 16 27  2  0  0  0  0
 16 28  1  0  0  0  0
 17 19  2  0  0  0  0
 17 33  1  0  0  0  0
 18 20  2  0  0  0  0
 18 34  1  0  0  0  0
 19 47  1  0  0  0  0
 20 35  1  0  0  0  0
 21 80  1  0  0  0  0
 22 81  1  0  0  0  0
 23 25  2  0  0  0  0
 23 80  1  0  0  0  0
 24 82  1  0  0  0  0
 25 83  1  0  0  0  0
 26 65  2  0  0  0  0
 27 66  1  0  0  0  0
 27 69  1  0  0  0  0
 28 70  1  0  0  0  0
 28 75  2  0  0  0  0
 29 48  1  0  0  0  0
 29 71  1  0  0  0  0
 29 76  2  0  0  0  0
 30 61  1  0  0  0  0
 30 67  1  0  0  0  0
 30 77  2  0  0  0  0
 31 62  1  0  0  0  0
 31 72  1  0  0  0  0
 31 78  2  0  0  0  0
 32 68  1  0  0  0  0
 32 73  1  0  0  0  0
 32 79  2  0  0  0  0
 33 36  1  0  0  0  0
 34 48  1  0  0  0  0
 35 67  1  0  0  0  0
 36 38  1  0  0  0  0
 37 41  1  0  0  0  0
 37 45  1  0  0  0  0
 38 47  1  0  0  0  0
 39 42  1  0  0  0  0
 39 49  1  0  0  0  0
 40 43  1  0  0  0  0
 40 49  1  0  0  0  0
 41 51  1  0  0  0  0
 42 52  1  0  0  0  0
 43 52  1  0  0  0  0
 44 50  1  0  0  0  0
 44 53  1  0  0  0  0
 45 68  1  0  0  0  0
 46 51  1  0  0  0  0
 46 68  1  0  0  0  0
 47 71  1  0  0  0  0
 48 67  1  0  0  0  0
 49 63  1  0  0  0  0
 50 53  1  0  0  0  0
 50 60  1  0  0  0  0
 51 66  1  0  0  0  0
 52 73  1  0  0  0  0
 53 81  1  0  0  0  0
 54 62  1  0  0  0  0
 55 63  1  0  0  0  0
 56 64  1  0  0  0  0
 57 64  1  0  0  0  0
 58 64  1  0  0  0  0
 59 74  1  0  0  0  0
 60 63  1  0  0  0  0
 61 64  1  0  0  0  0
 61 72  1  0  0  0  0
 62 74  1  0  0  0  0
 65 66  1  0  0  0  0
M  CHG  1  74   1
M  ISO  4  32 100  53 101  73 100  81 101
M  END
> <Batch ID>
0139

> <Smiles>
CNC(C)C(=O)NC(C(=O)N1Cc2cc([101O:1][101CH:1]3CC3CC(C)C3CCC([100NH:0][100C:0](=O)N4CCCC(n5nc(-c6ccc(Oc7ccc(F)cc7F)cc6)c(C(N)=O)c5N)C4)CC3)ccc2CC1C(=O)NC1CCCc2ccccc21)C(C)(C)C

> <Shape>
0.246

> <Color>
0.110

> <Negative vol penalty>
0.000

$$$$

  -OEChem-04052321103D

 91100  0     1  0  0  0  0  0999 V2000
  -28.4785  -33.4226   27.2938 C   0  0  0  0  0  0  0  0  0  0  0  0
  -28.6292  -32.3034   26.4814 C   0  0  0  0  0  0  0  0  0  0  0  0
  -23.9104  -11.1786   23.7425 C   0  0  0  0  0  0  0  0  0  0  0  0
  -23.8647  -13.5874   23.9235 C   0  0  0  0  0  0  0  0  0  0  0  0
  -27.2057  -33.9321   27.5476 C   0  0  0  0  0  0  0  0  0  0  0  0
  -27.5070  -31.6923   25.9231 C   0  0  0  0  0  0  0  0  0  0  0  0
  -27.1302  -28.9951   20.4378 C   0  0  0  0  0  0  0  0  0  0  0  0
  -28.3795  -20.2784   20.1463 C   0  0  0  0  0  0  0  0  0  0  0  0
  -23.3274  -11.0726   25.0052 C   0  0  0  0  0  0  0  0  0  0  0  0
  -23.2817  -13.4815   25.1862 C   0  0  0  0  0  0  0  0  0  0  0  0
  -27.2003  -27.6600   20.0422 C   0  0  0  0  0  0  0  0  0  0  0  0
  -27.3593  -21.2175   20.2972 C   0  0  0  0  0  0  0  0  0  0  0  0
  -20.2412  -11.3621   26.3561 C   0  0  0  0  0  0  0  0  0  0  0  0
  -19.1922  -10.4561   26.5118 C   0  0  0  0  0  0  0  0  0  0  0  0
  -24.7915  -27.5320   20.0684 C   0  0  0  0  0  0  0  0  0  0  0  0
  -28.9114  -22.7327   21.3614 C   0  0  0  0  0  0  0  0  0  0  0  0
  -20.4675   -9.2667   28.1839 C   0  0  0  0  0  0  0  0  0  0  0  0
  -24.1791  -12.4359   23.2017 C   0  0  0  0  0  0  0  0  0  0  0  0
  -24.1186  -12.6267   20.6585 C   0  0  0  0  0  0  0  0  0  0  0  0
  -26.0681  -33.3328   26.9843 C   0  0  0  0  0  0  0  0  0  0  0  0
  -25.8884  -29.6065   20.6626 C   0  0  0  0  0  0  0  0  0  0  0  0
  -26.2177  -32.1935   26.1706 C   0  0  0  0  0  0  0  0  0  0  0  0
  -29.6657  -20.5664   20.6029 C   0  0  0  0  0  0  0  0  0  0  0  0
  -24.7083  -28.8757   20.4643 C   0  0  0  0  0  0  0  0  0  0  0  0
  -29.9317  -21.7935   21.2104 C   0  0  0  0  0  0  0  0  0  0  0  0
  -23.0130  -12.2241   25.7271 C   0  0  0  0  0  0  0  0  0  0  0  0
  -26.0310  -26.9274   19.8603 C   0  0  0  0  0  0  0  0  0  0  0  0
  -27.6252  -22.4447   20.9047 C   0  0  0  0  0  0  0  0  0  0  0  0
  -21.4035  -11.2204   27.1143 C   0  0  0  0  0  0  0  0  0  0  0  0
  -19.3053   -9.4084   27.4257 C   0  0  0  0  0  0  0  0  0  0  0  0
  -21.5166  -10.1727   28.0282 C   0  0  0  0  0  0  0  0  0  0  0  0
  -24.7819  -12.5460   21.8976 C   0  0  0  0  0  0  0  0  0  0  0  0
  -25.1295  -12.7162   19.7330 C   0  0  0  0  0  0  0  0  0  0  0  0
  -22.7142  -12.6213   20.3699 C   0  0  0  0  0  0  0  0  0  0  0  0
  -24.4608  -30.9274   23.1768 C   0  0  0  0  0  0  0  0  0  0  0  0
  -22.1996  -31.7148   20.9883 C   0  0  0  0  0  0  0  0  0  0  0  0
  -20.7189  -31.0527   17.9857 C   0  0  0  0  0  0  0  0  0  0  0  0
  -30.7856  -14.6554   20.0477 C   0  0  0  0  0  0  0  0  0  0  0  0
  -24.7092  -33.8910   27.3256 C   0  0  0  0  0  0  0  0  0  0  0  0
  -25.8290  -31.0552   21.0631 C   0  0  0  0  0  0  0  0  0  0  0  0
  -23.3497  -29.4914   20.6728 C   0  0  0  0  0  0  0  0  0  0  0  0
  -23.6011  -33.4097   26.3925 C   0  0  0  0  0  0  0  0  0  0  0  0
  -29.6827  -11.4284   19.0249 C   0  0  0  0  0  0  0  0  0  0  0  0
  -30.9475  -19.1932   18.9407 C   0  0  0  0  0  0  0  0  0  0  0  0
  -23.6957  -31.9015   26.1847 C   0  0  0  0  0  0  0  0  0  0  0  0
  -28.2417  -11.3561   19.5334 C   0  0  0  0  0  0  0  0  0  0  0  0
  -30.5138  -17.7375   18.7902 C   0  0  0  0  0  0  0  0  0  0  0  0
  -30.5860  -12.1869   19.9948 C   0  0  0  0  0  0  0  0  0  0  0  0
  -28.6667  -13.4603   20.8714 C   0  0  0  0  0  0  0  0  0  0  0  0
  -30.7415  -19.5451   20.4301 C   0  0  2  0  0  0  0  0  0  0  0  0
  -25.0266  -31.5176   25.5267 C   0  0  1  0  0  0  0  0  0  0  0  0
  -24.5254  -31.4289   21.7619 C   0  0  1  0  0  0  0  0  0  0  0  0
  -27.7059  -12.7531   19.9004 C   0  0  2  0  0  0  0  0  0  0  0  0
  -30.8302  -17.1347   20.1507 C   0  0  1  0  0  0  0  0  0  0  0  0
  -30.3537  -18.2174   21.1176 C   0  0  1  0  0  0  0  0  0  0  0  0
  -31.3005  -22.1234   21.7080 C   0  0  0  0  0  0  0  0  0  0  0  0
  -18.8719  -31.8448   16.4829 C   0  0  0  0  0  0  0  0  0  0  0  0
  -30.4568  -16.1023   25.4973 C   0  0  0  0  0  0  0  0  0  0  0  0
  -20.1471  -30.3923   22.8181 C   0  0  0  0  0  0  0  0  0  0  0  0
  -18.5503  -30.3628   20.8899 C   0  0  0  0  0  0  0  0  0  0  0  0
  -19.3895  -32.5372   21.7790 C   0  0  0  0  0  0  0  0  0  0  0  0
  -22.6111  -31.6824   15.7988 C   0  0  0  0  0  0  0  0  0  0  0  0
  -25.0468  -24.7631   19.9142 C   0  0  0  0  0  0  0  0  0  1  0  0
  -25.5928  -23.3573   20.0729 C   0  0  0  0  0  0  0  0  0  0  0  0
  -30.3547  -17.1686   23.2207 C   0  0  0  0  0  0  0  0  0  0  0  0
  -20.9514  -31.0536   20.4555 C   0  0  1  0  0  0  0  0  0  0  0  0
  -20.3498  -31.9569   16.8235 C   0  0  2  0  0  0  0  0  0  0  0  0
  -31.0901  -17.1135   24.5537 C   0  0  2  0  0  0  0  0  0  0  0  0
  -19.7851  -31.0741   21.4835 C   0  0  0  0  0  0  0  0  0  0  0  0
  -26.1114  -12.5810   21.7740 N   0  0  0  0  0  0  0  0  0  0  0  0
  -26.2917  -12.6846   20.4462 N   0  0  0  0  0  0  0  0  0  0  0  0
  -23.3441  -30.9090   21.0702 N   0  0  0  0  0  0  0  0  0  0  0  0
  -30.0221  -13.5039   20.3006 N   0  0  0  0  0  0  0  0  0  0  0  0
  -25.1289  -12.8180   18.3869 N   0  0  0  0  0  0  0  0  0  0  0  0
  -21.8128  -12.5232   21.4387 N   0  0  0  0  0  0  0  0  0  0  0  0
  -24.9892  -31.8009   24.1080 N   0  0  0  0  0  0  0  0  0  0  0  0
  -20.6461  -31.7162   19.1922 N   0  0  0  0  0  0  0  0  0  0  0  0
  -30.1740  -15.8633   20.3603 N   0  0  0  0  0  0  0  0  0  0  0  0
  -21.1398  -31.5935   15.6132 N   0  3  0  0  0  0  0  0  0  0  0  0
  -22.2720  -12.6846   19.1977 O   0  0  0  0  0  0  0  0  0  0  0  0
  -23.9668  -29.8298   23.4067 O   0  0  0  0  0  0  0  0  0  0  0  0
  -22.1624  -32.9042   21.3130 O   0  0  0  0  0  0  0  0  0  0  0  0
  -21.0364  -29.8745   17.8383 O   0  0  0  0  0  0  0  0  0  0  0  0
  -31.9257  -14.6107   19.5732 O   0  0  0  0  0  0  0  0  0  0  0  0
  -32.4413  -16.7288   24.3046 O   0  0  0  0  0  0  0  0  0  0  0  0
  -22.4438  -12.1211   26.9591 O   0  0  0  0  0  0  0  0  0  0  0  0
  -26.0966  -25.6240   19.4748 O   0  0  0  0  0  0  0  0  0  1  0  0
  -26.6231  -23.3670   21.0535 O   0  0  0  0  0  0  0  0  0  0  0  0
  -31.0059  -18.1062   22.3725 O   0  0  0  0  0  0  0  0  0  0  0  0
  -18.2972   -8.5394   27.5763 F   0  0  0  0  0  0  0  0  0  0  0  0
  -22.6302  -10.0321   28.7602 F   0  0  0  0  0  0  0  0  0  0  0  0
  1  2  1  0  0  0  0
  1  5  2  0  0  0  0
  2  6  2  0  0  0  0
  3  9  2  0  0  0  0
  3 18  1  0  0  0  0
  4 10  1  0  0  0  0
  4 18  2  0  0  0  0
  5 20  1  0  0  0  0
  6 22  1  0  0  0  0
  7 11  2  0  0  0  0
  7 21  1  0  0  0  0
  8 12  2  0  0  0  0
  8 23  1  0  0  0  0
  9 26  1  0  0  0  0
 10 26  2  0  0  0  0
 11 27  1  0  0  0  0
 12 28  1  0  0  0  0
 13 14  2  0  0  0  0
 13 29  1  0  0  0  0
 14 30  1  0  0  0  0
 15 24  1  0  0  0  0
 15 27  2  0  0  0  0
 16 25  1  0  0  0  0
 16 28  2  0  0  0  0
 17 30  2  0  0  0  0
 17 31  1  0  0  0  0
 18 32  1  0  0  0  0
 19 32  1  0  0  0  0
 19 33  2  0  0  0  0
 19 34  1  0  0  0  0
 20 22  2  0  0  0  0
 20 39  1  0  0  0  0
 21 24  2  0  0  0  0
 21 40  1  0  0  0  0
 22 51  1  0  0  0  0
 23 25  2  0  0  0  0
 23 50  1  0  0  0  0
 24 41  1  0  0  0  0
 25 56  1  0  0  0  0
 26 86  1  0  0  0  0
 27 87  1  0  0  0  0
 28 88  1  0  0  0  0
 29 31  2  0  0  0  0
 29 86  1  0  0  0  0
 30 90  1  0  0  0  0
 31 91  1  0  0  0  0
 32 70  2  0  0  0  0
 33 71  1  0  0  0  0
 33 74  1  0  0  0  0
 34 75  1  0  0  0  0
 34 80  2  0  0  0  0
 35 52  1  0  0  0  0
 35 76  1  0  0  0  0
 35 81  2  0  0  0  0
 36 66  1  0  0  0  0
 36 72  1  0  0  0  0
 36 82  2  0  0  0  0
 37 67  1  0  0  0  0
 37 77  1  0  0  0  0
 37 83  2  0  0  0  0
 38 73  1  0  0  0  0
 38 78  1  0  0  0  0
 38 84  2  0  0  0  0
 39 42  1  0  0  0  0
 40 52  1  0  0  0  0
 41 72  1  0  0  0  0
 42 45  1  0  0  0  0
 43 46  1  0  0  0  0
 43 48  1  0  0  0  0
 44 47  1  0  0  0  0
 44 50  1  0  0  0  0
 45 51  1  0  0  0  0
 46 53  1  0  0  0  0
 47 54  1  0  0  0  0
 48 73  1  0  0  0  0
 49 53  1  0  0  0  0
 49 73  1  0  0  0  0
 50 55  1  0  0  0  0
 51 76  1  0  0  0  0
 52 72  1  0  0  0  0
 53 71  1  0  0  0  0
 54 55  1  0  0  0  0
 54 78  1  0  0  0  0
 55 89  1  0  0  0  0
 57 67  1  0  0  0  0
 58 68  1  0  0  0  0
 59 69  1  0  0  0  0
 60 69  1  0  0  0  0
 61 69  1  0  0  0  0
 62 79  1  0  0  0  0
 63 64  1  0  0  0  0
 63 87  1  0  0  0  0
 64 88  1  0  0  0  0
 65 68  1  0  0  0  0
 65 89  1  0  0  0  0
 66 69  1  0  0  0  0
 66 77  1  0  0  0  0
 67 79  1  0  0  0  0
 68 85  1  0  0  0  0
 70 71  1  0  0  0  0
M  CHG  1  79   1
M  ISO  4  38 100  63 101  78 100  87 101
M  END
> <Batch ID>
0139

> <Smiles>
CNC(C)C(=O)NC(C(=O)N1Cc2cc([101O:1][101CH2:1]COc3ccc(C4CCC([100NH:0][100C:0](=O)N5CCCC(n6nc(-c7ccc(Oc8ccc(F)cc8F)cc7)c(C(N)=O)c6N)C5)C4OCC(C)O)c(C)c3)ccc2CC1C(=O)NC1CCCc2ccccc21)C(C)(C)C

> <Shape>
0.266

> <Color>
0.103

> <Negative vol penalty>
0.000

$$$$

  -OEChem-04052321103D

 87 95  0     1  0  0  0  0  0999 V2000
  -32.4564  -17.5516   21.7183 C   0  0  0  0  0  0  0  0  0  0  0  0
  -31.2492  -18.1441   21.3618 C   0  0  0  0  0  0  0  0  0  0  0  0
  -30.0135  -24.1605   19.7132 C   0  0  0  0  0  0  0  0  0  0  0  0
  -27.6682  -24.1123   19.1349 C   0  0  0  0  0  0  0  0  0  0  0  0
  -32.6023  -16.1672   21.6391 C   0  0  0  0  0  0  0  0  0  0  0  0
  -30.1875  -17.3526   20.9249 C   0  0  0  0  0  0  0  0  0  0  0  0
  -25.7790  -18.6787   23.0348 C   0  0  0  0  0  0  0  0  0  0  0  0
  -19.7757  -25.9092   20.5055 C   0  0  0  0  0  0  0  0  0  0  0  0
  -30.0106  -22.7715   19.8406 C   0  0  0  0  0  0  0  0  0  0  0  0
  -27.6653  -22.7233   19.2623 C   0  0  0  0  0  0  0  0  0  0  0  0
  -25.1406  -19.8063   22.5204 C   0  0  0  0  0  0  0  0  0  0  0  0
  -20.4275  -24.7960   21.0360 C   0  0  0  0  0  0  0  0  0  0  0  0
  -27.1276  -19.1320   19.0830 C   0  0  0  0  0  0  0  0  0  0  0  0
  -26.4875  -18.3903   18.0902 C   0  0  0  0  0  0  0  0  0  0  0  0
  -23.6751  -18.3837   21.2368 C   0  0  0  0  0  0  0  0  0  0  0  0
  -21.9071  -26.2518   22.2725 C   0  0  0  0  0  0  0  0  0  0  0  0
  -27.9894  -19.3089   16.4357 C   0  0  0  0  0  0  0  0  0  0  0  0
  -28.8422  -24.8309   19.3604 C   0  0  0  0  0  0  0  0  0  0  0  0
  -29.1154  -27.0128   18.0671 C   0  0  0  0  0  0  0  0  0  0  0  0
  -31.5388  -15.3576   21.2102 C   0  0  0  0  0  0  0  0  0  0  0  0
  -25.3767  -17.3931   22.6450 C   0  0  0  0  0  0  0  0  0  0  0  0
  -30.3198  -15.9563   20.8386 C   0  0  0  0  0  0  0  0  0  0  0  0
  -24.3084  -17.2413   21.7497 C   0  0  0  0  0  0  0  0  0  0  0  0
  -20.1896  -27.1937   20.8584 C   0  0  0  0  0  0  0  0  0  0  0  0
  -21.2553  -27.3650   21.7419 C   0  0  0  0  0  0  0  0  0  0  0  0
  -28.8366  -22.0529   19.6151 C   0  0  0  0  0  0  0  0  0  0  0  0
  -24.0904  -19.6590   21.6190 C   0  0  0  0  0  0  0  0  0  0  0  0
  -21.4932  -24.9673   21.9196 C   0  0  0  0  0  0  0  0  0  0  0  0
  -28.1985  -19.9623   18.7522 C   0  0  0  0  0  0  0  0  0  0  0  0
  -26.9184  -18.4787   16.7665 C   0  0  0  0  0  0  0  0  0  0  0  0
  -28.6295  -20.0507   17.4285 C   0  0  0  0  0  0  0  0  0  0  0  0
  -28.8444  -26.2658   19.2291 C   0  0  0  0  0  0  0  0  0  0  0  0
  -28.9900  -28.3218   18.4633 C   0  0  0  0  0  0  0  0  0  0  0  0
  -29.4505  -26.5634   16.7474 C   0  0  0  0  0  0  0  0  0  0  0  0
  -26.7735  -14.9645   21.1436 C   0  0  0  0  0  0  0  0  0  0  0  0
  -24.0113  -13.4303   21.8775 C   0  0  0  0  0  0  0  0  0  0  0  0
  -20.6927  -13.6461   22.6437 C   0  0  0  0  0  0  0  0  0  0  0  0
  -25.9398  -30.9696   22.8834 C   0  0  0  0  0  0  0  0  0  0  0  0
  -31.7592  -13.8699   21.0959 C   0  0  0  0  0  0  0  0  0  0  0  0
  -26.0581  -16.1863   23.2296 C   0  0  0  0  0  0  0  0  0  0  0  0
  -23.8250  -15.8827   21.3150 C   0  0  0  0  0  0  0  0  0  0  0  0
  -30.4646  -13.0694   20.9802 C   0  0  0  0  0  0  0  0  0  0  0  0
  -29.4499  -31.1304   22.3093 C   0  0  0  0  0  0  0  0  0  0  0  0
  -29.5307  -13.7096   19.9580 C   0  0  0  0  0  0  0  0  0  0  0  0
  -29.7172  -29.9693   21.3499 C   0  0  0  0  0  0  0  0  0  0  0  0
  -28.3691  -30.7816   23.3301 C   0  0  0  0  0  0  0  0  0  0  0  0
  -27.3695  -29.1370   21.7907 C   0  0  0  0  0  0  0  0  0  0  0  0
  -29.1370  -15.1293   20.3836 C   0  0  1  0  0  0  0  0  0  0  0  0
  -25.9031  -14.9368   22.3681 C   0  0  1  0  0  0  0  0  0  0  0  0
  -28.4126  -29.4611   20.7074 C   0  0  2  0  0  0  0  0  0  0  0  0
  -17.9898  -28.4119   20.6835 C   0  0  0  0  0  0  0  0  0  0  0  0
  -19.5973  -28.4278   18.7416 C   0  0  0  0  0  0  0  0  0  0  0  0
  -18.6916  -12.2199   23.1526 C   0  0  0  0  0  0  0  0  0  0  0  0
  -23.7585  -12.7332   18.9177 C   0  0  0  0  0  0  0  0  0  0  0  0
  -21.3535  -12.1704   19.3272 C   0  0  0  0  0  0  0  0  0  0  0  0
  -23.1488  -10.8795   20.4819 C   0  0  0  0  0  0  0  0  0  0  0  0
  -20.3828  -14.8377   25.3350 C   0  0  0  0  0  0  0  0  0  0  0  0
  -22.7167  -30.4073   23.4605 C   0  0  0  0  0  0  0  0  0  0  0  0
  -22.4608  -28.9108   23.2854 C   0  0  0  0  0  0  0  0  0  0  0  0
  -23.5223  -31.0376   22.3264 C   0  0  0  0  0  0  0  0  0  0  0  0
  -23.4225  -21.9182   21.9447 C   0  0  0  0  0  0  0  0  0  1  0  0
  -22.1637  -22.7038   21.6320 C   0  0  0  0  0  0  0  0  0  0  0  0
  -19.4733  -28.3680   20.2749 C   0  0  0  0  0  0  0  0  0  0  0  0
  -22.6729  -13.2561   21.2012 C   0  0  1  0  0  0  0  0  0  0  0  0
  -19.8662  -12.9904   23.7352 C   0  0  2  0  0  0  0  0  0  0  0  0
  -22.7436  -12.2856   19.9885 C   0  0  0  0  0  0  0  0  0  0  0  0
  -28.5679  -27.0363   20.2845 N   0  0  0  0  0  0  0  0  0  0  0  0
  -28.6645  -28.2810   19.7872 N   0  0  0  0  0  0  0  0  0  0  0  0
  -24.5274  -14.7335   21.9095 N   0  0  0  0  0  0  0  0  0  0  0  0
  -27.1578  -30.3080   22.6560 N   0  0  0  0  0  0  0  0  0  0  0  0
  -29.1275  -29.4924   17.8050 N   0  0  0  0  0  0  0  0  0  0  0  0
  -29.5374  -25.1844   16.5131 N   0  0  0  0  0  0  0  0  0  0  0  0
  -21.6878  -28.6579   22.1103 N   0  0  0  0  0  0  0  0  0  0  0  0
  -28.1231  -15.0848   21.4152 N   0  0  0  0  0  0  0  0  0  0  0  0
  -21.7395  -12.8429   22.2435 N   0  0  0  0  0  0  0  0  0  0  0  0
  -24.8420  -30.4604   22.2004 N   0  0  0  0  0  0  0  0  0  0  0  0
  -19.3344  -14.0205   24.6718 N   0  3  0  0  0  0  0  0  0  0  0  0
  -29.6826  -27.3616   15.8079 O   0  0  0  0  0  0  0  0  0  0  0  0
  -26.2590  -14.8812   20.0346 O   0  0  0  0  0  0  0  0  0  0  0  0
  -24.5746  -12.4475   22.3658 O   0  0  0  0  0  0  0  0  0  0  0  0
  -20.4332  -14.7580   22.1888 O   0  0  0  0  0  0  0  0  0  0  0  0
  -25.8391  -31.9452   23.6350 O   0  0  0  0  0  0  0  0  0  0  0  0
  -28.8335  -20.6974   19.7391 O   0  0  0  0  0  0  0  0  0  0  0  0
  -23.4660  -20.7580   21.1149 O   0  0  0  0  0  0  0  0  0  1  0  0
  -22.1332  -23.8736   22.4405 O   0  0  0  0  0  0  0  0  0  0  0  0
  -26.3046  -17.7652   15.8135 F   0  0  0  0  0  0  0  0  0  0  0  0
  -29.6586  -20.8456   17.1048 F   0  0  0  0  0  0  0  0  0  0  0  0
  1  2  1  0  0  0  0
  1  5  2  0  0  0  0
  2  6  2  0  0  0  0
  3  9  2  0  0  0  0
  3 18  1  0  0  0  0
  4 10  1  0  0  0  0
  4 18  2  0  0  0  0
  5 20  1  0  0  0  0
  6 22  1  0  0  0  0
  7 11  2  0  0  0  0
  7 21  1  0  0  0  0
  8 12  2  0  0  0  0
  8 24  1  0  0  0  0
  9 26  1  0  0  0  0
 10 26  2  0  0  0  0
 11 27  1  0  0  0  0
 12 28  1  0  0  0  0
 13 14  2  0  0  0  0
 13 29  1  0  0  0  0
 14 30  1  0  0  0  0
 15 23  1  0  0  0  0
 15 27  2  0  0  0  0
 16 25  1  0  0  0  0
 16 28  2  0  0  0  0
 17 30  2  0  0  0  0
 17 31  1  0  0  0  0
 18 32  1  0  0  0  0
 19 32  1  0  0  0  0
 19 33  2  0  0  0  0
 19 34  1  0  0  0  0
 20 22  2  0  0  0  0
 20 39  1  0  0  0  0
 21 23  2  0  0  0  0
 21 40  1  0  0  0  0
 22 48  1  0  0  0  0
 23 41  1  0  0  0  0
 24 25  2  0  0  0  0
 24 63  1  0  0  0  0
 25 73  1  0  0  0  0
 26 83  1  0  0  0  0
 27 84  1  0  0  0  0
 28 85  1  0  0  0  0
 29 31  2  0  0  0  0
 29 83  1  0  0  0  0
 30 86  1  0  0  0  0
 31 87  1  0  0  0  0
 32 67  2  0  0  0  0
 33 68  1  0  0  0  0
 33 71  1  0  0  0  0
 34 72  1  0  0  0  0
 34 78  2  0  0  0  0
 35 49  1  0  0  0  0
 35 74  1  0  0  0  0
 35 79  2  0  0  0  0
 36 64  1  0  0  0  0
 36 69  1  0  0  0  0
 36 80  2  0  0  0  0
 37 65  1  0  0  0  0
 37 75  1  0  0  0  0
 37 81  2  0  0  0  0
 38 70  1  0  0  0  0
 38 76  1  0  0  0  0
 38 82  2  0  0  0  0
 39 42  1  0  0  0  0
 40 49  1  0  0  0  0
 41 69  1  0  0  0  0
 42 44  1  0  0  0  0
 43 45  1  0  0  0  0
 43 46  1  0  0  0  0
 44 48  1  0  0  0  0
 45 50  1  0  0  0  0
 46 70  1  0  0  0  0
 47 50  1  0  0  0  0
 47 70  1  0  0  0  0
 48 74  1  0  0  0  0
 49 69  1  0  0  0  0
 50 68  1  0  0  0  0
 51 63  1  0  0  0  0
 52 63  1  0  0  0  0
 53 65  1  0  0  0  0
 54 66  1  0  0  0  0
 55 66  1  0  0  0  0
 56 66  1  0  0  0  0
 57 77  1  0  0  0  0
 58 59  1  0  0  0  0
 58 60  1  0  0  0  0
 59 73  1  0  0  0  0
 60 76  1  0  0  0  0
 61 62  1  0  0  0  0
 61 84  1  0  0  0  0
 62 85  1  0  0  0  0
 64 66  1  0  0  0  0
 64 75  1  0  0  0  0
 65 77  1  0  0  0  0
 67 68  1  0  0  0  0
M  CHG  1  77   1
M  ISO  4  38 100  61 101  76 100  84 101
M  END
> <Batch ID>
0139

> <Smiles>
CNC(C)C(=O)NC(C(=O)N1Cc2cc([101O:1][101CH2:1]COc3ccc(C(C)C)c(NCCC[100NH:0][100C:0](=O)N4CCCC(n5nc(-c6ccc(Oc7ccc(F)cc7F)cc6)c(C(N)=O)c5N)C4)c3)ccc2CC1C(=O)NC1CCCc2ccccc21)C(C)(C)C

> <Shape>
0.240

> <Color>
0.061

> <Negative vol penalty>
0.000

$$$$

  -OEChem-04052321103D

 90 98  0     1  0  0  0  0  0999 V2000
  -29.0634  -32.5874   23.1076 C   0  0  0  0  0  0  0  0  0  0  0  0
  -28.8544  -31.2152   23.0141 C   0  0  0  0  0  0  0  0  0  0  0  0
  -22.9146  -10.0678   19.9906 C   0  0  0  0  0  0  0  0  0  0  0  0
  -23.7889   -9.9068   22.2371 C   0  0  0  0  0  0  0  0  0  0  0  0
  -27.9934  -33.4370   23.3857 C   0  0  0  0  0  0  0  0  0  0  0  0
  -27.5754  -30.6916   23.1997 C   0  0  0  0  0  0  0  0  0  0  0  0
  -26.3792  -27.2077   19.7246 C   0  0  0  0  0  0  0  0  0  0  0  0
  -22.1223   -8.9426   20.2184 C   0  0  0  0  0  0  0  0  0  0  0  0
  -22.9966   -8.7817   22.4649 C   0  0  0  0  0  0  0  0  0  0  0  0
  -26.9175  -25.9323   19.8901 C   0  0  0  0  0  0  0  0  0  0  0  0
  -23.0764   -5.4855   21.7168 C   0  0  0  0  0  0  0  0  0  0  0  0
  -23.6703   -4.3910   22.3451 C   0  0  0  0  0  0  0  0  0  0  0  0
  -28.4822  -21.1603   19.3453 C   0  0  0  0  0  0  0  0  0  0  0  0
  -24.8270  -25.1784   20.8286 C   0  0  0  0  0  0  0  0  0  0  0  0
  -28.6618  -21.5924   21.7156 C   0  0  0  0  0  0  0  0  0  0  0  0
  -22.0696   -4.5569   24.1472 C   0  0  0  0  0  0  0  0  0  0  0  0
  -23.7480  -10.5498   21.0000 C   0  0  0  0  0  0  0  0  0  0  0  0
  -28.8356  -19.8283   19.5614 C   0  0  0  0  0  0  0  0  0  0  0  0
  -24.2212  -13.0566   20.9964 C   0  0  0  0  0  0  0  0  0  0  0  0
  -26.6989  -32.9245   23.5652 C   0  0  0  0  0  0  0  0  0  0  0  0
  -25.0621  -27.4813   20.1206 C   0  0  0  0  0  0  0  0  0  0  0  0
  -26.4873  -31.5350   23.4818 C   0  0  0  0  0  0  0  0  0  0  0  0
  -24.2736  -26.4574   20.6647 C   0  0  0  0  0  0  0  0  0  0  0  0
  -28.3953  -22.0423   20.4224 C   0  0  0  0  0  0  0  0  0  0  0  0
  -29.0151  -20.2604   21.9316 C   0  0  0  0  0  0  0  0  0  0  0  0
  -22.1632   -8.2996   21.4555 C   0  0  0  0  0  0  0  0  0  0  0  0
  -26.1423  -24.9182   20.4448 C   0  0  0  0  0  0  0  0  0  0  0  0
  -21.9791   -6.1158   22.3036 C   0  0  0  0  0  0  0  0  0  0  0  0
  -29.1020  -19.3784   20.8545 C   0  0  0  0  0  0  0  0  0  0  0  0
  -23.1670   -3.9267   23.5603 C   0  0  0  0  0  0  0  0  0  0  0  0
  -21.4757   -5.6515   23.5188 C   0  0  0  0  0  0  0  0  0  0  0  0
  -24.5671  -11.7117   20.7652 C   0  0  0  0  0  0  0  0  0  0  0  0
  -25.3330  -13.7675   20.6155 C   0  0  0  0  0  0  0  0  0  0  0  0
  -28.9246  -18.9264   18.4213 C   0  0  0  0  0  0  0  0  0  0  0  0
  -23.0037  -13.6134   21.5096 C   0  0  0  0  0  0  0  0  0  0  0  0
  -23.7161  -29.4293   22.2412 C   0  0  0  0  0  0  0  0  0  0  0  0
  -20.9653  -28.3631   20.8926 C   0  0  0  0  0  0  0  0  0  0  0  0
  -19.3550  -25.9138   19.1449 C   0  0  0  0  0  0  0  0  0  0  0  0
  -30.8668  -14.4881   20.5638 C   0  0  0  0  0  0  0  0  0  0  0  0
  -25.5823  -33.8776   23.9107 C   0  0  0  0  0  0  0  0  0  0  0  0
  -24.4876  -28.8554   19.9107 C   0  0  0  0  0  0  0  0  0  0  0  0
  -22.8474  -26.6943   21.0872 C   0  0  0  0  0  0  0  0  0  0  0  0
  -24.1906  -33.2790   23.7232 C   0  0  0  0  0  0  0  0  0  0  0  0
  -29.4808  -12.3033   18.1179 C   0  0  0  0  0  0  0  0  0  0  0  0
  -24.1224  -31.8841   24.3367 C   0  0  0  0  0  0  0  0  0  0  0  0
  -28.0532  -12.0609   18.6109 C   0  0  0  0  0  0  0  0  0  0  0  0
  -30.4683  -12.4086   19.2779 C   0  0  0  0  0  0  0  0  0  0  0  0
  -28.6822  -13.1587   20.8014 C   0  0  0  0  0  0  0  0  0  0  0  0
  -25.1101  -30.9315   23.6522 C   0  0  1  0  0  0  0  0  0  0  0  0
  -23.3020  -29.1532   20.8234 C   0  0  1  0  0  0  0  0  0  0  0  0
  -27.6415  -13.1012   19.6700 C   0  0  2  0  0  0  0  0  0  0  0  0
  -28.4383  -18.4959   25.3167 C   0  0  0  0  0  0  0  0  0  0  0  0
  -31.8050  -19.0696   17.4261 C   0  0  0  0  0  0  0  0  0  0  0  0
  -28.1705  -19.1735   16.0552 C   0  0  0  0  0  0  0  0  0  0  0  0
  -17.1000  -25.3075   18.2256 C   0  0  0  0  0  0  0  0  0  0  0  0
  -20.0223  -27.6254   23.6991 C   0  0  0  0  0  0  0  0  0  0  0  0
  -18.2492  -26.2003   22.6533 C   0  0  0  0  0  0  0  0  0  0  0  0
  -18.2686  -28.6616   22.2481 C   0  0  0  0  0  0  0  0  0  0  0  0
  -20.3734  -25.8600   16.3666 C   0  0  0  0  0  0  0  0  0  0  0  0
  -29.3003  -19.7981   23.3225 C   0  0  0  0  0  0  0  0  0  0  0  0
  -28.0152  -23.4749   20.1891 C   0  0  0  0  0  0  0  0  0  1  0  0
  -28.1327  -18.9945   23.9133 C   0  0  0  0  0  0  0  0  0  0  0  0
  -30.6167  -18.8035   16.5104 C   0  0  0  0  0  0  0  0  0  0  0  0
  -31.1130  -16.5597   21.9080 C   0  0  0  0  0  0  0  0  0  0  0  0
  -30.8384  -17.7621   21.0227 C   0  0  0  0  0  0  0  0  0  0  0  0
  -29.3185  -19.4525   17.0247 C   0  0  2  0  0  0  0  0  0  0  0  0
  -20.0246  -27.2110   21.1507 C   0  0  1  0  0  0  0  0  0  0  0  0
  -18.4357  -25.9756   17.9384 C   0  0  2  0  0  0  0  0  0  0  0  0
  -19.1686  -27.4203   22.4317 C   0  0  0  0  0  0  0  0  0  0  0  0
  -25.8020  -11.5739   20.2752 N   0  0  0  0  0  0  0  0  0  0  0  0
  -26.2417  -12.8413   20.1954 N   0  0  0  0  0  0  0  0  0  0  0  0
  -22.3331  -28.0562   20.8675 N   0  0  0  0  0  0  0  0  0  0  0  0
  -30.0205  -13.4131   20.2456 N   0  0  0  0  0  0  0  0  0  0  0  0
  -25.6121  -15.0882   20.6023 N   0  0  0  0  0  0  0  0  0  0  0  0
  -21.9619  -12.7406   21.8518 N   0  0  0  0  0  0  0  0  0  0  0  0
  -24.5875  -30.4932   22.3758 N   0  0  0  0  0  0  0  0  0  0  0  0
  -19.2427  -27.0412   19.9308 N   0  0  0  0  0  0  0  0  0  0  0  0
  -30.3629  -15.3982   21.4849 N   0  0  0  0  0  0  0  0  0  0  0  0
  -19.0632  -25.2901   16.7734 N   0  3  0  0  0  0  0  0  0  0  0  0
  -28.6750  -17.7152   18.5415 O   0  0  0  0  0  0  0  0  0  0  0  0
  -22.8385  -14.8495   21.6449 O   0  0  0  0  0  0  0  0  0  0  0  0
  -23.2762  -28.7298   23.1462 O   0  0  0  0  0  0  0  0  0  0  0  0
  -20.5030  -29.4925   20.7125 O   0  0  0  0  0  0  0  0  0  0  0  0
  -20.0956  -24.9592   19.3697 O   0  0  0  0  0  0  0  0  0  0  0  0
  -31.9862  -14.6294   20.0599 O   0  0  0  0  0  0  0  0  0  0  0  0
  -21.3900   -7.2018   21.6782 O   0  0  0  0  0  0  0  0  0  0  0  0
  -26.6655  -23.6726   20.6081 O   0  0  0  0  0  0  0  0  0  1  0  0
  -29.4490  -18.0762   21.0686 O   0  0  0  0  0  0  0  0  0  0  0  0
  -23.7365   -2.8747   24.1629 F   0  0  0  0  0  0  0  0  0  0  0  0
  -20.4210   -6.2522   24.0869 F   0  0  0  0  0  0  0  0  0  0  0  0
  1  2  1  0  0  0  0
  1  5  2  0  0  0  0
  2  6  2  0  0  0  0
  3  8  2  0  0  0  0
  3 17  1  0  0  0  0
  4  9  1  0  0  0  0
  4 17  2  0  0  0  0
  5 20  1  0  0  0  0
  6 22  1  0  0  0  0
  7 10  2  0  0  0  0
  7 21  1  0  0  0  0
  8 26  1  0  0  0  0
  9 26  2  0  0  0  0
 10 27  1  0  0  0  0
 11 12  2  0  0  0  0
 11 28  1  0  0  0  0
 12 30  1  0  0  0  0
 13 18  2  0  0  0  0
 13 24  1  0  0  0  0
 14 23  1  0  0  0  0
 14 27  2  0  0  0  0
 15 24  2  0  0  0  0
 15 25  1  0  0  0  0
 16 30  2  0  0  0  0
 16 31  1  0  0  0  0
 17 32  1  0  0  0  0
 18 29  1  0  0  0  0
 18 34  1  0  0  0  0
 19 32  1  0  0  0  0
 19 33  2  0  0  0  0
 19 35  1  0  0  0  0
 20 22  2  0  0  0  0
 20 40  1  0  0  0  0
 21 23  2  0  0  0  0
 21 41  1  0  0  0  0
 22 49  1  0  0  0  0
 23 42  1  0  0  0  0
 24 61  1  0  0  0  0
 25 29  2  0  0  0  0
 25 60  1  0  0  0  0
 26 86  1  0  0  0  0
 27 87  1  0  0  0  0
 28 31  2  0  0  0  0
 28 86  1  0  0  0  0
 29 88  1  0  0  0  0
 30 89  1  0  0  0  0
 31 90  1  0  0  0  0
 32 70  2  0  0  0  0
 33 71  1  0  0  0  0
 33 74  1  0  0  0  0
 34 66  1  0  0  0  0
 34 80  2  0  0  0  0
 35 75  1  0  0  0  0
 35 81  2  0  0  0  0
 36 50  1  0  0  0  0
 36 76  1  0  0  0  0
 36 82  2  0  0  0  0
 37 67  1  0  0  0  0
 37 72  1  0  0  0  0
 37 83  2  0  0  0  0
 38 68  1  0  0  0  0
 38 77  1  0  0  0  0
 38 84  2  0  0  0  0
 39 73  1  0  0  0  0
 39 78  1  0  0  0  0
 39 85  2  0  0  0  0
 40 43  1  0  0  0  0
 41 50  1  0  0  0  0
 42 72  1  0  0  0  0
 43 45  1  0  0  0  0
 44 46  1  0  0  0  0
 44 47  1  0  0  0  0
 45 49  1  0  0  0  0
 46 51  1  0  0  0  0
 47 73  1  0  0  0  0
 48 51  1  0  0  0  0
 48 73  1  0  0  0  0
 49 76  1  0  0  0  0
 50 72  1  0  0  0  0
 51 71  1  0  0  0  0
 52 62  1  0  0  0  0
 53 63  1  0  0  0  0
 54 66  1  0  0  0  0
 55 68  1  0  0  0  0
 56 69  1  0  0  0  0
 57 69  1  0  0  0  0
 58 69  1  0  0  0  0
 59 79  1  0  0  0  0
 60 62  1  0  0  0  0
 61 87  1  0  0  0  0
 63 66  1  0  0  0  0
 64 65  1  0  0  0  0
 64 78  1  0  0  0  0
 65 88  1  0  0  0  0
 67 69  1  0  0  0  0
 67 77  1  0  0  0  0
 68 79  1  0  0  0  0
 70 71  1  0  0  0  0
M  CHG  1  79   1
M  ISO  4  39 100  61 101  78 100  87 101
M  END
> <Batch ID>
0139

> <Smiles>
CCCc1cc([101CH2:1][101O:1]c2ccc3c(c2)CN(C(=O)C(NC(=O)C(C)NC)C(C)(C)C)C(C(=O)NC2CCCc4ccccc42)C3)cc(C(=O)C(C)CC)c1OCC[100NH:0][100C:0](=O)N1CCCC(n2nc(-c3ccc(Oc4ccc(F)cc4F)cc3)c(C(N)=O)c2N)C1

> <Shape>
0.404

> <Color>
0.203

> <Negative vol penalty>
0.000

$$$$

  -OEChem-04052321103D

 87 96  0     1  0  0  0  0  0999 V2000
  -22.2627   -7.2834   18.0080 C   0  0  0  0  0  0  0  0  0  0  0  0
  -21.4013   -8.3690   17.8855 C   0  0  0  0  0  0  0  0  0  0  0  0
  -28.7895  -26.6941   19.1251 C   0  0  0  0  0  0  0  0  0  0  0  0
  -26.6394  -25.5989   19.2465 C   0  0  0  0  0  0  0  0  0  0  0  0
  -23.0707   -7.1601   19.1376 C   0  0  0  0  0  0  0  0  0  0  0  0
  -21.3467   -9.3314   18.8931 C   0  0  0  0  0  0  0  0  0  0  0  0
  -22.4172  -17.0593   18.4916 C   0  0  0  0  0  0  0  0  0  0  0  0
  -29.4132  -25.4543   18.9860 C   0  0  0  0  0  0  0  0  0  0  0  0
  -27.2631  -24.3590   19.1074 C   0  0  0  0  0  0  0  0  0  0  0  0
  -22.7407  -18.4137   18.5746 C   0  0  0  0  0  0  0  0  0  0  0  0
  -28.9765  -22.1987   21.0640 C   0  0  0  0  0  0  0  0  0  0  0  0
  -28.5687  -21.1694   21.9124 C   0  0  0  0  0  0  0  0  0  0  0  0
  -23.3887  -18.1282   20.8869 C   0  0  0  0  0  0  0  0  0  0  0  0
  -27.9127  -19.8508   19.9971 C   0  0  0  0  0  0  0  0  0  0  0  0
  -27.4026  -26.7664   19.2554 C   0  0  0  0  0  0  0  0  0  0  0  0
  -26.7892  -29.1217   18.4910 C   0  0  0  0  0  0  0  0  0  0  0  0
  -23.0330   -8.1265   20.1550 C   0  0  0  0  0  0  0  0  0  0  0  0
  -22.5929  -16.2299   19.6028 C   0  0  0  0  0  0  0  0  0  0  0  0
  -22.1540   -9.2202   20.0379 C   0  0  0  0  0  0  0  0  0  0  0  0
  -23.0781  -16.7681   20.8060 C   0  0  0  0  0  0  0  0  0  0  0  0
  -28.6501  -24.2867   18.9772 C   0  0  0  0  0  0  0  0  0  0  0  0
  -23.2250  -18.9469   19.7694 C   0  0  0  0  0  0  0  0  0  0  0  0
  -28.8523  -22.0542   19.6822 C   0  0  0  0  0  0  0  0  0  0  0  0
  -28.0368  -19.9954   21.3790 C   0  0  0  0  0  0  0  0  0  0  0  0
  -28.3205  -20.8802   19.1488 C   0  0  0  0  0  0  0  0  0  0  0  0
  -26.7578  -28.0469   19.3996 C   0  0  0  0  0  0  0  0  0  0  0  0
  -26.0276  -30.0972   19.0866 C   0  0  0  0  0  0  0  0  0  0  0  0
  -27.4478  -29.2286   17.2220 C   0  0  0  0  0  0  0  0  0  0  0  0
  -22.3283  -12.7733   21.0371 C   0  0  0  0  0  0  0  0  0  0  0  0
  -24.9415  -13.9804   22.0976 C   0  0  0  0  0  0  0  0  0  0  0  0
  -27.8229  -15.2433   22.1706 C   0  0  0  0  0  0  0  0  0  0  0  0
  -21.7183  -29.3926   23.3118 C   0  0  0  0  0  0  0  0  0  0  0  0
  -23.8906   -7.9256   21.3792 C   0  0  0  0  0  0  0  0  0  0  0  0
  -22.1995  -14.7779   19.5771 C   0  0  0  0  0  0  0  0  0  0  0  0
  -23.2183  -15.8455   21.9858 C   0  0  0  0  0  0  0  0  0  0  0  0
  -24.0457   -9.1851   22.2277 C   0  0  0  0  0  0  0  0  0  0  0  0
  -24.6602  -31.7020   23.3705 C   0  0  0  0  0  0  0  0  0  0  0  0
  -22.6930   -9.8588   22.4353 C   0  0  0  0  0  0  0  0  0  0  0  0
  -21.7757  -22.5394   20.0882 C   0  0  0  0  0  0  0  0  0  0  0  0
  -22.9696  -23.1156   22.2374 C   0  0  0  0  0  0  0  0  0  0  0  0
  -21.4044  -24.0093   19.9004 C   0  0  0  0  0  0  0  0  0  0  0  0
  -22.5983  -24.5855   22.0496 C   0  0  0  0  0  0  0  0  0  0  0  0
  -25.5578  -31.0576   22.3153 C   0  0  0  0  0  0  0  0  0  0  0  0
  -18.8151  -28.3503   23.2237 C   0  0  0  0  0  0  0  0  0  0  0  0
  -23.7726  -30.6649   24.0479 C   0  0  0  0  0  0  0  0  0  0  0  0
  -23.8273  -29.2236   22.0388 C   0  0  0  0  0  0  0  0  0  0  0  0
  -18.0973  -27.0146   23.1545 C   0  0  0  0  0  0  0  0  0  0  0  0
  -22.0843  -10.2979   21.0981 C   0  0  1  0  0  0  0  0  0  0  0  0
  -23.1257  -13.8867   20.4241 C   0  0  1  0  0  0  0  0  0  0  0  0
  -23.0706  -22.3805   20.8949 C   0  0  0  0  0  0  0  0  0  0  0  0
  -21.3033  -24.7443   21.2429 C   0  0  0  0  0  0  0  0  0  0  0  0
  -24.7276  -30.2374   21.3133 C   0  0  2  0  0  0  0  0  0  0  0  0
  -19.8440  -28.2424   22.1087 C   0  0  2  0  0  0  0  0  0  0  0  0
  -20.3735  -26.8236   22.2787 C   0  0  2  0  0  0  0  0  0  0  0  0
  -19.7588  -31.3175   21.5149 C   0  0  0  0  0  0  0  0  0  0  0  0
  -30.0918  -15.6269   23.1718 C   0  0  0  0  0  0  0  0  0  0  0  0
  -22.2340  -26.9896   20.6140 C   0  0  0  0  0  0  0  0  0  0  0  0
  -23.5576  -14.5958   24.7452 C   0  0  0  0  0  0  0  0  0  0  0  0
  -25.7969  -15.1852   25.6972 C   0  0  0  0  0  0  0  0  0  0  0  0
  -25.3593  -12.8671   24.8865 C   0  0  0  0  0  0  0  0  0  0  0  0
  -29.1897  -14.1890   19.7666 C   0  0  0  0  0  0  0  0  0  0  0  0
  -23.3933  -20.9032   21.1117 C   0  0  0  0  0  0  0  0  0  1  0  0
  -20.8239  -30.2880   21.1957 C   0  0  0  0  0  0  0  0  0  0  0  0
  -25.6263  -14.7378   23.2069 C   0  0  1  0  0  0  0  0  0  0  0  0
  -29.2762  -14.8052   22.1856 C   0  0  2  0  0  0  0  0  0  0  0  0
  -20.9805  -26.2216   21.0262 C   0  0  1  0  0  0  0  0  0  0  0  0
  -25.0752  -14.3597   24.6108 C   0  0  0  0  0  0  0  0  0  0  0  0
  -26.0337  -28.3142   20.4897 N   0  0  0  0  0  0  0  0  0  0  0  0
  -25.6031  -29.5682   20.2699 N   0  0  0  0  0  0  0  0  0  0  0  0
  -23.7890  -14.5602   21.5534 N   0  0  0  0  0  0  0  0  0  0  0  0
  -23.0142  -29.8765   23.0675 N   0  0  0  0  0  0  0  0  0  0  0  0
  -25.6863  -31.3474   18.7084 N   0  0  0  0  0  0  0  0  0  0  0  0
  -26.7501  -28.8354   16.0718 N   0  0  0  0  0  0  0  0  0  0  0  0
  -22.7174  -11.5117   20.6289 N   0  0  0  0  0  0  0  0  0  0  0  0
  -27.0561  -14.4991   23.0421 N   0  0  0  0  0  0  0  0  0  0  0  0
  -20.8749  -29.2365   22.2014 N   0  0  0  0  0  0  0  0  0  0  0  0
  -19.1444  -26.0451   22.6793 N   0  3  0  0  0  0  0  0  0  0  0  0
  -29.8787  -14.9624   20.8316 N   0  3  0  0  0  0  0  0  0  0  0  0
  -28.6262  -29.6447   17.1130 O   0  0  0  0  0  0  0  0  0  0  0  0
  -21.4270  -13.0378   21.8240 O   0  0  0  0  0  0  0  0  0  0  0  0
  -25.4101  -12.9009   21.7255 O   0  0  0  0  0  0  0  0  0  0  0  0
  -27.4099  -16.1570   21.4598 O   0  0  0  0  0  0  0  0  0  0  0  0
  -21.3408  -29.1064   24.4552 O   0  0  0  0  0  0  0  0  0  0  0  0
  -29.2583  -23.0767   18.8413 O   0  0  0  0  0  0  0  0  0  0  0  0
  -23.5432  -20.2691   19.8421 O   0  0  0  0  0  0  0  0  0  1  0  0
  -27.6467  -19.0064   22.1937 F   0  0  0  0  0  0  0  0  0  0  0  0
  -28.1998  -20.7351   17.8220 F   0  0  0  0  0  0  0  0  0  0  0  0
  1  2  1  0  0  0  0
  1  5  2  0  0  0  0
  2  6  2  0  0  0  0
  3  8  2  0  0  0  0
  3 15  1  0  0  0  0
  4  9  1  0  0  0  0
  4 15  2  0  0  0  0
  5 17  1  0  0  0  0
  6 19  1  0  0  0  0
  7 10  2  0  0  0  0
  7 18  1  0  0  0  0
  8 21  1  0  0  0  0
  9 21  2  0  0  0  0
 10 22  1  0  0  0  0
 11 12  2  0  0  0  0
 11 23  1  0  0  0  0
 12 24  1  0  0  0  0
 13 20  1  0  0  0  0
 13 22  2  0  0  0  0
 14 24  2  0  0  0  0
 14 25  1  0  0  0  0
 15 26  1  0  0  0  0
 16 26  1  0  0  0  0
 16 27  2  0  0  0  0
 16 28  1  0  0  0  0
 17 19  2  0  0  0  0
 17 33  1  0  0  0  0
 18 20  2  0  0  0  0
 18 34  1  0  0  0  0
 19 48  1  0  0  0  0
 20 35  1  0  0  0  0
 21 84  1  0  0  0  0
 22 85  1  0  0  0  0
 23 25  2  0  0  0  0
 23 84  1  0  0  0  0
 24 86  1  0  0  0  0
 25 87  1  0  0  0  0
 26 68  2  0  0  0  0
 27 69  1  0  0  0  0
 27 72  1  0  0  0  0
 28 73  1  0  0  0  0
 28 79  2  0  0  0  0
 29 49  1  0  0  0  0
 29 74  1  0  0  0  0
 29 80  2  0  0  0  0
 30 64  1  0  0  0  0
 30 70  1  0  0  0  0
 30 81  2  0  0  0  0
 31 65  1  0  0  0  0
 31 75  1  0  0  0  0
 31 82  2  0  0  0  0
 32 71  1  0  0  0  0
 32 76  1  0  0  0  0
 32 83  2  0  0  0  0
 33 36  1  0  0  0  0
 34 49  1  0  0  0  0
 35 70  1  0  0  0  0
 36 38  1  0  0  0  0
 37 43  1  0  0  0  0
 37 45  1  0  0  0  0
 38 48  1  0  0  0  0
 39 41  1  0  0  0  0
 39 50  1  0  0  0  0
 40 42  1  0  0  0  0
 40 50  1  0  0  0  0
 41 51  1  0  0  0  0
 42 51  1  0  0  0  0
 43 52  1  0  0  0  0
 44 47  1  0  0  0  0
 44 53  1  0  0  0  0
 45 71  1  0  0  0  0
 46 52  1  0  0  0  0
 46 71  1  0  0  0  0
 47 77  1  0  0  0  0
 48 74  1  0  0  0  0
 49 70  1  0  0  0  0
 50 62  1  0  0  0  0
 51 66  1  0  0  0  0
 52 69  1  0  0  0  0
 53 54  1  0  0  0  0
 53 76  1  0  0  0  0
 54 66  1  0  0  0  0
 54 77  1  0  0  0  0
 55 63  1  0  0  0  0
 56 65  1  0  0  0  0
 57 66  1  0  0  0  0
 58 67  1  0  0  0  0
 59 67  1  0  0  0  0
 60 67  1  0  0  0  0
 61 78  1  0  0  0  0
 62 85  1  0  0  0  0
 63 76  1  0  0  0  0
 64 67  1  0  0  0  0
 64 75  1  0  0  0  0
 65 78  1  0  0  0  0
 68 69  1  0  0  0  0
M  CHG  2  77   1  78   1
M  ISO  4  32 100  62 101  76 100  85 101
M  END
> <Batch ID>
0139

> <Smiles>
CC[100N:0](C1CCNC1C(C)C1CCC([101CH2:1][101O:1]c2ccc3c(c2)CN(C(=O)C(NC(=O)C(C)NC)C(C)(C)C)C(C(=O)NC2CCCc4ccccc42)C3)CC1)[100C:0](=O)N1CCCC(n2nc(-c3ccc(Oc4ccc(F)cc4F)cc3)c(C(N)=O)c2N)C1

> <Shape>
0.254

> <Color>
0.060

> <Negative vol penalty>
0.000

$$$$

  -OEChem-04052321103D

 90 99  0     1  0  0  0  0  0999 V2000
  -16.4157  -26.5349   21.0792 C   0  0  0  0  0  0  0  0  0  0  0  0
  -16.9744  -25.2800   20.8588 C   0  0  0  0  0  0  0  0  0  0  0  0
  -27.5341  -23.3769   20.5879 C   0  0  0  0  0  0  0  0  0  0  0  0
  -28.9830  -23.4649   18.6566 C   0  0  0  0  0  0  0  0  0  0  0  0
  -17.1965  -27.5607   21.6102 C   0  0  0  0  0  0  0  0  0  0  0  0
  -18.3145  -25.0505   21.1683 C   0  0  0  0  0  0  0  0  0  0  0  0
  -20.7646  -19.8561   23.2945 C   0  0  0  0  0  0  0  0  0  0  0  0
  -27.9489  -14.1222   19.8367 C   0  0  0  0  0  0  0  0  0  0  0  0
  -27.5819  -24.7674   20.6871 C   0  0  0  0  0  0  0  0  0  0  0  0
  -29.0308  -24.8554   18.7557 C   0  0  0  0  0  0  0  0  0  0  0  0
  -21.4462  -18.8146   22.6664 C   0  0  0  0  0  0  0  0  0  0  0  0
  -26.8977  -14.7040   20.5510 C   0  0  0  0  0  0  0  0  0  0  0  0
  -26.1434  -27.4239   19.1684 C   0  0  0  0  0  0  0  0  0  0  0  0
  -24.9434  -28.0996   19.3894 C   0  0  0  0  0  0  0  0  0  0  0  0
  -25.5920  -14.9750   18.5215 C   0  0  0  0  0  0  0  0  0  0  0  0
  -23.5476  -19.8371   23.2645 C   0  0  0  0  0  0  0  0  0  0  0  0
  -25.8281  -28.9965   21.4510 C   0  0  0  0  0  0  0  0  0  0  0  0
  -28.0724  -13.5149   16.2684 C   0  0  0  0  0  0  0  0  0  0  0  0
  -26.6386  -14.3912   17.7803 C   0  0  0  0  0  0  0  0  0  0  0  0
  -28.2347  -22.7256   19.5726 C   0  0  0  0  0  0  0  0  0  0  0  0
  -27.2604  -20.5199   18.7401 C   0  0  0  0  0  0  0  0  0  0  0  0
  -18.5443  -27.3410   21.9353 C   0  0  0  0  0  0  0  0  0  0  0  0
  -21.4706  -20.9033   23.9039 C   0  0  0  0  0  0  0  0  0  0  0  0
  -19.1144  -26.0747   21.7029 C   0  0  0  0  0  0  0  0  0  0  0  0
  -22.8727  -20.8893   23.9018 C   0  0  0  0  0  0  0  0  0  0  0  0
  -26.8306  -14.0918   16.4025 C   0  0  0  0  0  0  0  0  0  0  0  0
  -27.7906  -13.9791   18.4537 C   0  0  0  0  0  0  0  0  0  0  0  0
  -28.3302  -25.5066   19.7710 C   0  0  0  0  0  0  0  0  0  0  0  0
  -25.7365  -15.1245   19.9056 C   0  0  0  0  0  0  0  0  0  0  0  0
  -22.8378  -18.8064   22.6488 C   0  0  0  0  0  0  0  0  0  0  0  0
  -27.1858  -27.5344   20.0887 C   0  0  0  0  0  0  0  0  0  0  0  0
  -24.7857  -28.8859   20.5307 C   0  0  0  0  0  0  0  0  0  0  0  0
  -27.0282  -28.3207   21.2299 C   0  0  0  0  0  0  0  0  0  0  0  0
  -28.1862  -21.2892   19.4700 C   0  0  0  0  0  0  0  0  0  0  0  0
  -27.6411  -19.2196   18.9654 C   0  0  0  0  0  0  0  0  0  0  0  0
  -26.1551  -20.9429   17.9307 C   0  0  0  0  0  0  0  0  0  0  0  0
  -21.6587  -24.0439   23.4507 C   0  0  0  0  0  0  0  0  0  0  0  0
  -23.4637  -23.9314   26.1436 C   0  0  0  0  0  0  0  0  0  0  0  0
  -25.4645  -22.1013   28.2160 C   0  0  0  0  0  0  0  0  0  0  0  0
  -31.6020  -15.3094   19.3740 C   0  0  0  0  0  0  0  0  0  0  0  0
  -19.3611  -28.4939   22.4630 C   0  0  0  0  0  0  0  0  0  0  0  0
  -20.7208  -22.0056   24.6004 C   0  0  0  0  0  0  0  0  0  0  0  0
  -23.6776  -21.9795   24.5593 C   0  0  0  0  0  0  0  0  0  0  0  0
  -20.6732  -28.0634   23.1136 C   0  0  0  0  0  0  0  0  0  0  0  0
  -30.9498  -17.2826   22.2650 C   0  0  0  0  0  0  0  0  0  0  0  0
  -21.3977  -27.0494   22.2340 C   0  0  0  0  0  0  0  0  0  0  0  0
  -30.1020  -18.4400   21.7343 C   0  0  0  0  0  0  0  0  0  0  0  0
  -32.0195  -16.8596   21.2606 C   0  0  0  0  0  0  0  0  0  0  0  0
  -30.6646  -17.7006   19.3815 C   0  0  0  0  0  0  0  0  0  0  0  0
  -20.5578  -25.7799   22.0489 C   0  0  1  0  0  0  0  0  0  0  0  0
  -21.5373  -23.2864   24.7427 C   0  0  1  0  0  0  0  0  0  0  0  0
  -29.5360  -18.1255   20.3364 C   0  0  2  0  0  0  0  0  0  0  0  0
  -27.3456  -17.5975   13.6725 C   0  0  0  0  0  0  0  0  0  0  0  0
  -25.4000  -13.0411   14.6310 C   0  0  0  0  0  0  0  0  0  0  0  0
  -26.8236  -22.2928   30.3168 C   0  0  0  0  0  0  0  0  0  0  0  0
  -25.6345  -25.4203   24.6006 C   0  0  0  0  0  0  0  0  0  0  0  0
  -27.2623  -24.7495   26.3806 C   0  0  0  0  0  0  0  0  0  0  0  0
  -25.3121  -26.1942   26.9568 C   0  0  0  0  0  0  0  0  0  0  0  0
  -23.8345  -20.0521   29.5954 C   0  0  0  0  0  0  0  0  0  0  0  0
  -26.7885  -16.6908   14.7594 C   0  0  0  0  0  0  0  0  0  0  0  0
  -26.4064  -15.3168   14.1988 C   0  0  0  0  0  0  0  0  0  0  0  0
  -29.9578  -12.9067   17.7771 C   0  0  0  0  0  0  0  0  0  0  0  0
  -31.0862  -13.8703   17.4190 C   0  0  0  0  0  0  0  0  0  0  0  0
  -23.9148  -16.6521   19.9660 C   0  0  0  0  0  0  0  0  0  0  0  0
  -22.8604  -17.1656   20.9274 C   0  0  0  0  0  0  0  0  0  1  0  0
  -25.8770  -14.3515   15.3051 C   0  0  2  0  0  0  0  0  0  0  0  0
  -24.9329  -23.7488   26.4390 C   0  0  1  0  0  0  0  0  0  0  0  0
  -25.4687  -21.9365   29.7251 C   0  0  2  0  0  0  0  0  0  0  0  0
  -25.7705  -25.0085   26.0801 C   0  0  0  0  0  0  0  0  0  0  0  0
  -29.0872  -20.5401   20.1112 N   0  0  0  0  0  0  0  0  0  0  0  0
  -28.6437  -13.4509   17.5111 N   0  0  0  0  0  0  0  0  0  0  0  0
  -28.7292  -19.2865   19.7850 N   0  0  0  0  0  0  0  0  0  0  0  0
  -22.8986  -23.0386   25.2219 N   0  0  0  0  0  0  0  0  0  0  0  0
  -31.4168  -16.5742   19.9562 N   0  0  0  0  0  0  0  0  0  0  0  0
  -27.1478  -18.0370   18.5406 N   0  0  0  0  0  0  0  0  0  0  0  0
  -25.9049  -22.3163   17.8065 N   0  0  0  0  0  0  0  0  0  0  0  0
  -20.6356  -24.9459   23.2291 N   0  0  0  0  0  0  0  0  0  0  0  0
  -25.0212  -23.3517   27.8400 N   0  0  0  0  0  0  0  0  0  0  0  0
  -30.9918  -15.1201   18.1401 N   0  0  0  0  0  0  0  0  0  0  0  0
  -25.1509  -20.5278   30.0932 N   0  3  0  0  0  0  0  0  0  0  0  0
  -25.4014  -20.1264   17.3485 O   0  0  0  0  0  0  0  0  0  0  0  0
  -22.6109  -23.8271   22.7104 O   0  0  0  0  0  0  0  0  0  0  0  0
  -22.8389  -24.8283   26.7151 O   0  0  0  0  0  0  0  0  0  0  0  0
  -25.8223  -21.2113   27.4477 O   0  0  0  0  0  0  0  0  0  0  0  0
  -32.2578  -14.4134   19.9163 O   0  0  0  0  0  0  0  0  0  0  0  0
  -28.3769  -26.8635   19.8674 O   0  0  0  0  0  0  0  0  0  0  0  0
  -24.7230  -15.6903   20.6334 O   0  0  0  0  0  0  0  0  0  0  0  0
  -23.5055  -17.7914   22.0358 O   0  0  0  0  0  0  0  0  0  1  0  0
  -23.6338  -29.5360   20.7421 F   0  0  0  0  0  0  0  0  0  0  0  0
  -28.0265  -28.4316   22.1170 F   0  0  0  0  0  0  0  0  0  0  0  0
  1  2  1  0  0  0  0
  1  5  2  0  0  0  0
  2  6  2  0  0  0  0
  3  9  2  0  0  0  0
  3 20  1  0  0  0  0
  4 10  1  0  0  0  0
  4 20  2  0  0  0  0
  5 22  1  0  0  0  0
  6 24  1  0  0  0  0
  7 11  2  0  0  0  0
  7 23  1  0  0  0  0
  8 12  2  0  0  0  0
  8 27  1  0  0  0  0
  9 28  1  0  0  0  0
 10 28  2  0  0  0  0
 11 30  1  0  0  0  0
 12 29  1  0  0  0  0
 13 14  2  0  0  0  0
 13 31  1  0  0  0  0
 14 32  1  0  0  0  0
 15 19  1  0  0  0  0
 15 29  2  0  0  0  0
 16 25  1  0  0  0  0
 16 30  2  0  0  0  0
 17 32  2  0  0  0  0
 17 33  1  0  0  0  0
 18 26  2  0  0  0  0
 18 71  1  0  0  0  0
 19 26  1  0  0  0  0
 19 27  2  0  0  0  0
 20 34  1  0  0  0  0
 21 34  1  0  0  0  0
 21 35  2  0  0  0  0
 21 36  1  0  0  0  0
 22 24  2  0  0  0  0
 22 41  1  0  0  0  0
 23 25  2  0  0  0  0
 23 42  1  0  0  0  0
 24 50  1  0  0  0  0
 25 43  1  0  0  0  0
 26 66  1  0  0  0  0
 27 71  1  0  0  0  0
 28 86  1  0  0  0  0
 29 87  1  0  0  0  0
 30 88  1  0  0  0  0
 31 33  2  0  0  0  0
 31 86  1  0  0  0  0
 32 89  1  0  0  0  0
 33 90  1  0  0  0  0
 34 70  2  0  0  0  0
 35 72  1  0  0  0  0
 35 75  1  0  0  0  0
 36 76  1  0  0  0  0
 36 81  2  0  0  0  0
 37 51  1  0  0  0  0
 37 77  1  0  0  0  0
 37 82  2  0  0  0  0
 38 67  1  0  0  0  0
 38 73  1  0  0  0  0
 38 83  2  0  0  0  0
 39 68  1  0  0  0  0
 39 78  1  0  0  0  0
 39 84  2  0  0  0  0
 40 74  1  0  0  0  0
 40 79  1  0  0  0  0
 40 85  2  0  0  0  0
 41 44  1  0  0  0  0
 42 51  1  0  0  0  0
 43 73  1  0  0  0  0
 44 46  1  0  0  0  0
 45 47  1  0  0  0  0
 45 48  1  0  0  0  0
 46 50  1  0  0  0  0
 47 52  1  0  0  0  0
 48 74  1  0  0  0  0
 49 52  1  0  0  0  0
 49 74  1  0  0  0  0
 50 77  1  0  0  0  0
 51 73  1  0  0  0  0
 52 72  1  0  0  0  0
 53 60  1  0  0  0  0
 54 66  1  0  0  0  0
 55 68  1  0  0  0  0
 56 69  1  0  0  0  0
 57 69  1  0  0  0  0
 58 69  1  0  0  0  0
 59 80  1  0  0  0  0
 60 61  1  0  0  0  0
 61 66  1  0  0  0  0
 62 63  1  0  0  0  0
 62 71  1  0  0  0  0
 63 79  1  0  0  0  0
 64 65  1  0  0  0  0
 64 87  1  0  0  0  0
 65 88  1  0  0  0  0
 67 69  1  0  0  0  0
 67 78  1  0  0  0  0
 68 80  1  0  0  0  0
 70 72  1  0  0  0  0
M  CHG  1  80   1
M  ISO  4  40 100  65 101  79 100  88 101
M  END
> <Batch ID>
0139

> <Smiles>
CCCC(C)c1cn(CC[100NH:0][100C:0](=O)N2CCCC(n3nc(-c4ccc(Oc5ccc(F)cc5F)cc4)c(C(N)=O)c3N)C2)c2ccc(OC[101CH2:1][101O:1]c3ccc4c(c3)CN(C(=O)C(NC(=O)C(C)NC)C(C)(C)C)C(C(=O)NC3CCCc5ccccc53)C4)cc12

> <Shape>
0.211

> <Color>
0.084

> <Negative vol penalty>
0.000

$$$$

  -OEChem-04052321103D

 85 93  0     1  0  0  0  0  0999 V2000
  -24.0568  -22.5708   16.3006 C   0  0  0  0  0  0  0  0  0  0  0  0
  -25.0801  -21.6293   16.2582 C   0  0  0  0  0  0  0  0  0  0  0  0
  -27.5600  -25.9893   20.5130 C   0  0  0  0  0  0  0  0  0  0  0  0
  -26.5542  -25.1859   18.4685 C   0  0  0  0  0  0  0  0  0  0  0  0
  -23.2139  -22.6331   17.4095 C   0  0  0  0  0  0  0  0  0  0  0  0
  -25.2618  -20.7502   17.3252 C   0  0  0  0  0  0  0  0  0  0  0  0
  -27.1441  -14.9303   17.0208 C   0  0  0  0  0  0  0  0  0  0  0  0
  -26.4350  -26.7771   20.7568 C   0  0  0  0  0  0  0  0  0  0  0  0
  -25.4292  -25.9736   18.7124 C   0  0  0  0  0  0  0  0  0  0  0  0
  -28.3900  -14.3360   17.2168 C   0  0  0  0  0  0  0  0  0  0  0  0
  -23.9791  -29.2744   21.7342 C   0  0  0  0  0  0  0  0  0  0  0  0
  -24.1844  -30.5905   22.1481 C   0  0  0  0  0  0  0  0  0  0  0  0
  -27.7834  -13.8300   19.4961 C   0  0  0  0  0  0  0  0  0  0  0  0
  -25.3856  -31.0466   20.1021 C   0  0  0  0  0  0  0  0  0  0  0  0
  -27.6196  -25.1937   19.3688 C   0  0  0  0  0  0  0  0  0  0  0  0
  -30.1086  -24.8208   18.9523 C   0  0  0  0  0  0  0  0  0  0  0  0
  -23.3794  -21.7479   18.4864 C   0  0  0  0  0  0  0  0  0  0  0  0
  -26.2111  -14.9888   18.0661 C   0  0  0  0  0  0  0  0  0  0  0  0
  -24.4212  -20.8016   18.4501 C   0  0  0  0  0  0  0  0  0  0  0  0
  -26.5254  -14.4233   19.3101 C   0  0  0  0  0  0  0  0  0  0  0  0
  -25.3696  -26.7692   19.8566 C   0  0  0  0  0  0  0  0  0  0  0  0
  -28.7109  -13.7883   18.4554 C   0  0  0  0  0  0  0  0  0  0  0  0
  -24.4770  -28.8443   20.5042 C   0  0  0  0  0  0  0  0  0  0  0  0
  -24.8877  -31.4766   21.3321 C   0  0  0  0  0  0  0  0  0  0  0  0
  -25.1803  -29.7304   19.6882 C   0  0  0  0  0  0  0  0  0  0  0  0
  -28.7816  -24.3801   19.1160 C   0  0  0  0  0  0  0  0  0  0  0  0
  -30.8282  -23.6709   18.7370 C   0  0  0  0  0  0  0  0  0  0  0  0
  -30.6430  -26.1507   18.9916 C   0  0  0  0  0  0  0  0  0  0  0  0
  -24.7829  -17.3324   19.6696 C   0  0  0  0  0  0  0  0  0  0  0  0
  -23.1281  -14.8832   21.0058 C   0  0  0  0  0  0  0  0  0  0  0  0
  -23.0004  -11.5673   21.8031 C   0  0  0  0  0  0  0  0  0  0  0  0
  -29.9103  -17.9463   20.2330 C   0  0  0  0  0  0  0  0  0  0  0  0
  -22.4731  -21.8846   19.6842 C   0  0  0  0  0  0  0  0  0  0  0  0
  -24.8614  -15.6096   17.8307 C   0  0  0  0  0  0  0  0  0  0  0  0
  -25.5512  -14.4422   20.4586 C   0  0  0  0  0  0  0  0  0  0  0  0
  -22.4980  -20.6700   20.6085 C   0  0  0  0  0  0  0  0  0  0  0  0
  -30.3822  -19.2531   16.9549 C   0  0  0  0  0  0  0  0  0  0  0  0
  -23.9344  -20.2319   20.8759 C   0  0  0  0  0  0  0  0  0  0  0  0
  -30.1452  -20.7551   17.1223 C   0  0  0  0  0  0  0  0  0  0  0  0
  -33.3513  -12.7437   21.3983 C   0  0  0  0  0  0  0  0  0  0  0  0
  -29.4537  -18.4324   17.8473 C   0  0  0  0  0  0  0  0  0  0  0  0
  -29.2490  -20.2991   19.4434 C   0  0  0  0  0  0  0  0  0  0  0  0
  -32.4064  -13.8260   23.4714 C   0  0  0  0  0  0  0  0  0  0  0  0
  -33.4511  -15.2576   21.6891 C   0  0  0  0  0  0  0  0  0  0  0  0
  -24.6347  -19.8144   19.5771 C   0  0  1  0  0  0  0  0  0  0  0  0
  -24.1831  -16.0704   19.1171 C   0  0  1  0  0  0  0  0  0  0  0  0
  -32.2694  -12.6660   22.4846 C   0  0  2  0  0  0  0  0  0  0  0  0
  -30.2005  -21.1697   18.6050 C   0  0  2  0  0  0  0  0  0  0  0  0
  -33.3606  -14.1029   20.6996 C   0  0  2  0  0  0  0  0  0  0  0  0
  -32.3468  -11.3296   23.2217 C   0  0  0  0  0  0  0  0  0  0  0  0
  -21.5366   -9.8663   22.9262 C   0  0  0  0  0  0  0  0  0  0  0  0
  -32.3088  -18.8145   23.7138 C   0  0  0  0  0  0  0  0  0  0  0  0
  -23.9450  -15.9836   23.7319 C   0  0  0  0  0  0  0  0  0  0  0  0
  -23.2922  -13.7855   24.7371 C   0  0  0  0  0  0  0  0  0  0  0  0
  -21.5772  -15.1907   23.5939 C   0  0  0  0  0  0  0  0  0  0  0  0
  -22.7548   -9.9709   19.3232 C   0  0  0  0  0  0  0  0  0  0  0  0
  -30.3499  -17.6189   22.6535 C   0  0  0  0  0  0  0  0  0  0  0  0
  -32.3329  -16.3119   23.6544 C   0  0  0  0  0  0  0  0  0  0  0  0
  -31.0193  -13.7195   17.8875 C   0  0  0  0  0  0  0  0  0  1  0  0
  -32.3007  -13.5416   18.6786 C   0  0  0  0  0  0  0  0  0  0  0  0
  -23.3216  -13.9934   22.2099 C   0  0  1  0  0  0  0  0  0  0  0  0
  -21.9134  -10.5257   21.6086 C   0  0  2  0  0  0  0  0  0  0  0  0
  -31.8621  -17.5775   22.9271 C   0  0  2  0  0  0  0  0  0  0  0  0
  -23.0533  -14.7395   23.5473 C   0  0  0  0  0  0  0  0  0  0  0  0
  -28.6624  -23.0538   19.0132 N   0  0  0  0  0  0  0  0  0  0  0  0
  -29.9236  -22.6511   18.7826 N   0  0  0  0  0  0  0  0  0  0  0  0
  -24.2470  -15.0660   20.1808 N   0  0  0  0  0  0  0  0  0  0  0  0
  -29.5552  -18.8744   19.2403 N   0  0  0  0  0  0  0  0  0  0  0  0
  -32.1400  -23.4426   18.5149 N   0  0  0  0  0  0  0  0  0  0  0  0
  -30.7058  -26.8810   17.7970 N   0  0  0  0  0  0  0  0  0  0  0  0
  -24.2104  -18.4898   19.1774 N   0  0  0  0  0  0  0  0  0  0  0  0
  -22.4725  -12.8265   21.9958 N   0  0  0  0  0  0  0  0  0  0  0  0
  -29.9901  -18.4493   21.5258 N   0  0  0  0  0  0  0  0  0  0  0  0
  -32.3497  -15.1342   22.7189 N   0  3  2  0  0  0  0  0  0  0  0  0
  -22.3739   -9.4659   20.6675 N   0  3  0  0  0  0  0  0  0  0  0  0
  -31.0680  -26.6697   20.0515 O   0  0  0  0  0  0  0  0  0  0  0  0
  -25.6964  -17.2614   20.4833 O   0  0  0  0  0  0  0  0  0  0  0  0
  -22.0230  -15.3913   20.8007 O   0  0  0  0  0  0  0  0  0  0  0  0
  -24.1979  -11.2910   21.7895 O   0  0  0  0  0  0  0  0  0  0  0  0
  -30.1445  -16.7586   19.9849 O   0  0  0  0  0  0  0  0  0  0  0  0
  -24.2716  -27.5376   20.0943 O   0  0  0  0  0  0  0  0  0  0  0  0
  -29.9264  -13.2081   18.6495 O   0  0  0  0  0  0  0  0  0  1  0  0
  -32.1819  -14.2314   19.9169 O   0  0  0  0  0  0  0  0  0  0  0  0
  -25.0835  -32.7408   21.7290 F   0  0  0  0  0  0  0  0  0  0  0  0
  -25.6600  -29.3234   18.5049 F   0  0  0  0  0  0  0  0  0  0  0  0
  1  2  1  0  0  0  0
  1  5  2  0  0  0  0
  2  6  2  0  0  0  0
  3  8  2  0  0  0  0
  3 15  1  0  0  0  0
  4  9  1  0  0  0  0
  4 15  2  0  0  0  0
  5 17  1  0  0  0  0
  6 19  1  0  0  0  0
  7 10  2  0  0  0  0
  7 18  1  0  0  0  0
  8 21  1  0  0  0  0
  9 21  2  0  0  0  0
 10 22  1  0  0  0  0
 11 12  2  0  0  0  0
 11 23  1  0  0  0  0
 12 24  1  0  0  0  0
 13 20  1  0  0  0  0
 13 22  2  0  0  0  0
 14 24  2  0  0  0  0
 14 25  1  0  0  0  0
 15 26  1  0  0  0  0
 16 26  1  0  0  0  0
 16 27  2  0  0  0  0
 16 28  1  0  0  0  0
 17 19  2  0  0  0  0
 17 33  1  0  0  0  0
 18 20  2  0  0  0  0
 18 34  1  0  0  0  0
 19 45  1  0  0  0  0
 20 35  1  0  0  0  0
 21 81  1  0  0  0  0
 22 82  1  0  0  0  0
 23 25  2  0  0  0  0
 23 81  1  0  0  0  0
 24 84  1  0  0  0  0
 25 85  1  0  0  0  0
 26 65  2  0  0  0  0
 27 66  1  0  0  0  0
 27 69  1  0  0  0  0
 28 70  1  0  0  0  0
 28 76  2  0  0  0  0
 29 46  1  0  0  0  0
 29 71  1  0  0  0  0
 29 77  2  0  0  0  0
 30 61  1  0  0  0  0
 30 67  1  0  0  0  0
 30 78  2  0  0  0  0
 31 62  1  0  0  0  0
 31 72  1  0  0  0  0
 31 79  2  0  0  0  0
 32 68  1  0  0  0  0
 32 73  1  0  0  0  0
 32 80  2  0  0  0  0
 33 36  1  0  0  0  0
 34 46  1  0  0  0  0
 35 67  1  0  0  0  0
 36 38  1  0  0  0  0
 37 39  1  0  0  0  0
 37 41  1  0  0  0  0
 38 45  1  0  0  0  0
 39 48  1  0  0  0  0
 40 47  1  0  0  0  0
 40 49  1  0  0  0  0
 41 68  1  0  0  0  0
 42 48  1  0  0  0  0
 42 68  1  0  0  0  0
 43 47  1  0  0  0  0
 43 74  1  0  0  0  0
 44 49  1  0  0  0  0
 44 74  1  0  0  0  0
 45 71  1  0  0  0  0
 46 67  1  0  0  0  0
 47 50  1  0  0  0  0
 48 66  1  0  0  0  0
 49 83  1  0  0  0  0
 51 62  1  0  0  0  0
 52 63  1  0  0  0  0
 53 64  1  0  0  0  0
 54 64  1  0  0  0  0
 55 64  1  0  0  0  0
 56 75  1  0  0  0  0
 57 63  1  0  0  0  0
 57 73  1  0  0  0  0
 58 63  1  0  0  0  0
 58 74  1  0  0  0  0
 59 60  1  0  0  0  0
 59 82  1  0  0  0  0
 60 83  1  0  0  0  0
 61 64  1  0  0  0  0
 61 72  1  0  0  0  0
 62 75  1  0  0  0  0
 65 66  1  0  0  0  0
M  CHG  2  74   1  75   1
M  ISO  4  32 100  59 101  73 100  82 101
M  END
> <Batch ID>
0139

> <Smiles>
CNC(C)C(=O)NC(C(=O)N1Cc2cc([101O:1][101CH2:1]COC3CC(C)CN(CC(C)C[100NH:0][100C:0](=O)N4CCCC(n5nc(-c6ccc(Oc7ccc(F)cc7F)cc6)c(C(N)=O)c5N)C4)C3)ccc2CC1C(=O)NC1CCCc2ccccc21)C(C)(C)C

> <Shape>
0.236

> <Color>
0.082

> <Negative vol penalty>
0.000

$$$$

  -OEChem-04052321103D

 87 96  0     1  0  0  0  0  0999 V2000
  -24.0674  -36.0727   23.7207 C   0  0  0  0  0  0  0  0  0  0  0  0
  -25.0401  -35.6468   22.8218 C   0  0  0  0  0  0  0  0  0  0  0  0
  -23.4689   -9.6492   20.5580 C   0  0  0  0  0  0  0  0  0  0  0  0
  -24.0938  -10.2312   22.8181 C   0  0  0  0  0  0  0  0  0  0  0  0
  -23.7691  -35.2989   24.8415 C   0  0  0  0  0  0  0  0  0  0  0  0
  -25.7158  -34.4475   23.0439 C   0  0  0  0  0  0  0  0  0  0  0  0
  -28.7042  -28.9846   19.5022 C   0  0  0  0  0  0  0  0  0  0  0  0
  -22.8752   -8.4763   21.0242 C   0  0  0  0  0  0  0  0  0  0  0  0
  -23.5000   -9.0582   23.2843 C   0  0  0  0  0  0  0  0  0  0  0  0
  -29.9021  -28.2752   19.4287 C   0  0  0  0  0  0  0  0  0  0  0  0
  -20.3812   -7.9443   23.9569 C   0  0  0  0  0  0  0  0  0  0  0  0
  -19.5734   -8.0349   25.0905 C   0  0  0  0  0  0  0  0  0  0  0  0
  -29.2475  -26.9820   21.3570 C   0  0  0  0  0  0  0  0  0  0  0  0
  -31.9013  -23.1803   21.5968 C   0  0  0  0  0  0  0  0  0  0  0  0
  -30.5294  -24.4577   19.5308 C   0  0  0  0  0  0  0  0  0  0  0  0
  -21.0230   -6.4863   26.2471 C   0  0  0  0  0  0  0  0  0  0  0  0
  -24.0783  -10.5266   21.4550 C   0  0  0  0  0  0  0  0  0  0  0  0
  -24.0817  -12.9971   20.8188 C   0  0  0  0  0  0  0  0  0  0  0  0
  -24.4347  -34.0847   25.0723 C   0  0  0  0  0  0  0  0  0  0  0  0
  -27.7721  -28.7050   20.5119 C   0  0  0  0  0  0  0  0  0  0  0  0
  -25.4271  -33.6574   24.1696 C   0  0  0  0  0  0  0  0  0  0  0  0
  -28.0373  -27.6875   21.4396 C   0  0  0  0  0  0  0  0  0  0  0  0
  -31.9716  -24.5672   21.4658 C   0  0  0  0  0  0  0  0  0  0  0  0
  -31.1449  -22.4321   20.6948 C   0  0  0  0  0  0  0  0  0  0  0  0
  -22.8907   -8.1808   22.3873 C   0  0  0  0  0  0  0  0  0  0  0  0
  -30.1752  -27.2756   20.3580 C   0  0  0  0  0  0  0  0  0  0  0  0
  -21.5098   -7.1247   23.9685 C   0  0  0  0  0  0  0  0  0  0  0  0
  -31.2857  -25.2059   20.4328 C   0  0  0  0  0  0  0  0  0  1  0  0
  -30.4591  -23.0708   19.6617 C   0  0  0  0  0  0  0  0  0  0  0  0
  -19.8943   -7.3059   26.2356 C   0  0  0  0  0  0  0  0  0  0  0  0
  -21.8308   -6.3958   25.1136 C   0  0  0  0  0  0  0  0  0  0  0  0
  -24.6923  -11.7381   20.9740 C   0  0  0  0  0  0  0  0  0  0  0  0
  -25.0808  -13.8060   20.3352 C   0  0  0  0  0  0  0  0  0  0  0  0
  -22.7321  -13.3993   21.0879 C   0  0  0  0  0  0  0  0  0  0  0  0
  -26.5102  -30.3536   22.9189 C   0  0  0  0  0  0  0  0  0  0  0  0
  -30.3820  -15.5773   20.5567 C   0  0  0  0  0  0  0  0  0  0  0  0
  -24.6734  -27.7017   23.2595 C   0  0  0  0  0  0  0  0  0  0  0  0
  -24.2991  -24.3500   22.7374 C   0  0  0  0  0  0  0  0  0  0  0  0
  -24.1114  -33.3060   26.3228 C   0  0  0  0  0  0  0  0  0  0  0  0
  -26.4728  -29.4611   20.5613 C   0  0  0  0  0  0  0  0  0  0  0  0
  -27.0608  -27.3349   22.5306 C   0  0  0  0  0  0  0  0  0  0  0  0
  -24.6085  -31.8631   26.2874 C   0  0  0  0  0  0  0  0  0  0  0  0
  -29.6770  -12.6792   18.5707 C   0  0  0  0  0  0  0  0  0  0  0  0
  -26.0503  -31.8072   25.7925 C   0  0  0  0  0  0  0  0  0  0  0  0
  -28.2798  -12.2620   19.0278 C   0  0  0  0  0  0  0  0  0  0  0  0
  -30.4944  -13.2515   19.7246 C   0  0  0  0  0  0  0  0  0  0  0  0
  -28.4352  -13.9742   20.8904 C   0  0  0  0  0  0  0  0  0  0  0  0
  -26.1644  -32.3501   24.3629 C   0  0  1  0  0  0  0  0  0  0  0  0
  -25.8229  -29.4427   21.9414 C   0  0  1  0  0  0  0  0  0  0  0  0
  -29.9247  -20.5104   21.7458 C   0  0  1  0  0  0  0  0  0  0  0  0
  -28.6790  -19.9112   21.1388 C   0  0  1  0  0  0  0  0  0  0  0  0
  -29.5906  -19.0531   21.9824 C   0  0  1  0  0  0  0  0  0  0  0  0
  -27.5655  -13.4190   19.7486 C   0  0  2  0  0  0  0  0  0  0  0  0
  -32.7865  -25.3523   22.4400 C   0  0  0  0  0  0  0  0  0  0  0  0
  -26.2814  -19.2551   21.4022 C   0  0  0  0  0  0  0  0  0  0  0  0
  -22.7087  -22.4558   23.1614 C   0  0  0  0  0  0  0  0  0  0  0  0
  -25.5534  -27.6198   26.1799 C   0  0  0  0  0  0  0  0  0  0  0  0
  -24.7361  -25.2557   26.2874 C   0  0  0  0  0  0  0  0  0  0  0  0
  -23.1348  -27.1065   25.8044 C   0  0  0  0  0  0  0  0  0  0  0  0
  -23.9512  -23.8410   19.8428 C   0  0  0  0  0  0  0  0  0  0  0  0
  -29.0480  -23.0889   17.7474 C   0  0  0  0  0  0  0  0  0  0  0  0
  -31.0800  -20.9485   20.8504 C   0  0  0  0  0  0  0  0  0  0  0  0
  -29.5745  -16.6417   21.2558 C   0  0  0  0  0  0  0  0  0  0  0  0
  -27.3368  -20.3024   21.6528 C   0  0  0  0  0  0  0  0  0  0  0  0
  -30.3663  -17.9448   21.3578 C   0  0  0  0  0  0  0  0  0  0  0  0
  -24.7947  -26.4089   24.0295 C   0  0  1  0  0  0  0  0  0  0  0  0
  -23.1399  -23.5397   22.1858 C   0  0  2  0  0  0  0  0  0  0  0  0
  -24.5742  -26.6054   25.5560 C   0  0  0  0  0  0  0  0  0  0  0  0
  -25.9796  -11.7420   20.6176 N   0  0  0  0  0  0  0  0  0  0  0  0
  -26.1860  -13.0132   20.2337 N   0  0  0  0  0  0  0  0  0  0  0  0
  -25.8072  -28.1068   22.5410 N   0  0  0  0  0  0  0  0  0  0  0  0
  -29.7722  -14.3328   20.3973 N   0  0  0  0  0  0  0  0  0  0  0  0
  -25.1130  -15.1110   19.9911 N   0  0  0  0  0  0  0  0  0  0  0  0
  -21.8354  -12.4419   21.5816 N   0  0  0  0  0  0  0  0  0  0  0  0
  -25.7044  -31.3633   23.4094 N   0  0  0  0  0  0  0  0  0  0  0  0
  -23.8637  -25.4740   23.4068 N   0  0  0  0  0  0  0  0  0  0  0  0
  -23.5270  -22.8895   20.9019 N   0  3  0  0  0  0  0  0  0  0  0  0
  -22.3288  -14.5689   20.8808 O   0  0  0  0  0  0  0  0  0  0  0  0
  -27.6843  -30.1542   23.2079 O   0  0  0  0  0  0  0  0  0  0  0  0
  -31.5196  -15.8466   20.1621 O   0  0  0  0  0  0  0  0  0  0  0  0
  -23.6095  -28.3254   23.2885 O   0  0  0  0  0  0  0  0  0  0  0  0
  -25.4733  -24.0169   22.5923 O   0  0  0  0  0  0  0  0  0  0  0  0
  -22.3112   -7.0365   22.8425 O   0  0  0  0  0  0  0  0  0  0  0  0
  -31.3440  -26.5821   20.2889 O   0  0  0  0  0  0  0  0  0  1  0  0
  -29.7160  -22.3550   18.7717 O   0  0  0  0  0  0  0  0  0  0  0  0
  -19.1194   -7.3942   27.3246 F   0  0  0  0  0  0  0  0  0  0  0  0
  -22.9144   -5.6076   25.1310 F   0  0  0  0  0  0  0  0  0  0  0  0
  1  2  1  0  0  0  0
  1  5  2  0  0  0  0
  2  6  2  0  0  0  0
  3  8  2  0  0  0  0
  3 17  1  0  0  0  0
  4  9  1  0  0  0  0
  4 17  2  0  0  0  0
  5 19  1  0  0  0  0
  6 21  1  0  0  0  0
  7 10  2  0  0  0  0
  7 20  1  0  0  0  0
  8 25  1  0  0  0  0
  9 25  2  0  0  0  0
 10 26  1  0  0  0  0
 11 12  2  0  0  0  0
 11 27  1  0  0  0  0
 12 30  1  0  0  0  0
 13 22  1  0  0  0  0
 13 26  2  0  0  0  0
 14 23  2  0  0  0  0
 14 24  1  0  0  0  0
 15 28  2  0  0  0  0
 15 29  1  0  0  0  0
 16 30  2  0  0  0  0
 16 31  1  0  0  0  0
 17 32  1  0  0  0  0
 18 32  1  0  0  0  0
 18 33  2  0  0  0  0
 18 34  1  0  0  0  0
 19 21  2  0  0  0  0
 19 39  1  0  0  0  0
 20 22  2  0  0  0  0
 20 40  1  0  0  0  0
 21 48  1  0  0  0  0
 22 41  1  0  0  0  0
 23 28  1  0  0  0  0
 23 54  1  0  0  0  0
 24 29  2  0  0  0  0
 24 62  1  0  0  0  0
 25 83  1  0  0  0  0
 26 84  1  0  0  0  0
 27 31  2  0  0  0  0
 27 83  1  0  0  0  0
 28 84  1  0  0  0  0
 29 85  1  0  0  0  0
 30 86  1  0  0  0  0
 31 87  1  0  0  0  0
 32 69  2  0  0  0  0
 33 70  1  0  0  0  0
 33 73  1  0  0  0  0
 34 74  1  0  0  0  0
 34 78  2  0  0  0  0
 35 49  1  0  0  0  0
 35 75  1  0  0  0  0
 35 79  2  0  0  0  0
 36 63  1  0  0  0  0
 36 72  1  0  0  0  0
 36 80  2  0  0  0  0
 37 66  1  0  0  0  0
 37 71  1  0  0  0  0
 37 81  2  0  0  0  0
 38 67  1  0  0  0  0
 38 76  1  0  0  0  0
 38 82  2  0  0  0  0
 39 42  1  0  0  0  0
 40 49  1  0  0  0  0
 41 71  1  0  0  0  0
 42 44  1  0  0  0  0
 43 45  1  0  0  0  0
 43 46  1  0  0  0  0
 44 48  1  0  0  0  0
 45 53  1  0  0  0  0
 46 72  1  0  0  0  0
 47 53  1  0  0  0  0
 47 72  1  0  0  0  0
 48 75  1  0  0  0  0
 49 71  1  0  0  0  0
 50 51  1  0  0  0  0
 50 52  1  0  0  0  0
 50 62  1  0  0  0  0
 51 52  1  0  0  0  0
 51 64  1  0  0  0  0
 52 65  1  0  0  0  0
 53 70  1  0  0  0  0
 55 64  1  0  0  0  0
 56 67  1  0  0  0  0
 57 68  1  0  0  0  0
 58 68  1  0  0  0  0
 59 68  1  0  0  0  0
 60 77  1  0  0  0  0
 61 85  1  0  0  0  0
 63 65  1  0  0  0  0
 66 68  1  0  0  0  0
 66 76  1  0  0  0  0
 67 77  1  0  0  0  0
 69 70  1  0  0  0  0
M  CHG  1  77   1
M  ISO  4  28 101  36 100  63 100  84 101
M  END
> <Batch ID>
0139

> <Smiles>
CCC1C(C[100CH2:0][100C:0](=O)N2CCCC(n3nc(-c4ccc(Oc5ccc(F)cc5F)cc4)c(C(N)=O)c3N)C2)C1Cc1cc(C)[101c:1]([101O:1]c2ccc3c(c2)CN(C(=O)C(NC(=O)C(C)NC)C(C)(C)C)C(C(=O)NC2CCCc4ccccc42)C3)cc1OC

> <Shape>
0.338

> <Color>
0.171

> <Negative vol penalty>
0.000

$$$$

  -OEChem-04052321103D

 91100  0     1  0  0  0  0  0999 V2000
  -16.7800  -25.2420   24.1312 C   0  0  0  0  0  0  0  0  0  0  0  0
  -17.4815  -24.4138   23.2610 C   0  0  0  0  0  0  0  0  0  0  0  0
  -26.3999  -12.5763   20.0133 C   0  0  0  0  0  0  0  0  0  0  0  0
  -24.7167  -14.3070   20.1068 C   0  0  0  0  0  0  0  0  0  0  0  0
  -17.0901  -26.5995   24.2018 C   0  0  0  0  0  0  0  0  0  0  0  0
  -18.4928  -24.9428   22.4599 C   0  0  0  0  0  0  0  0  0  0  0  0
  -23.6783  -22.1619   20.7618 C   0  0  0  0  0  0  0  0  0  0  0  0
  -29.4002  -24.3155   14.2919 C   0  0  0  0  0  0  0  0  0  0  0  0
  -29.6091  -22.9489   14.4768 C   0  0  0  0  0  0  0  0  0  0  0  0
  -25.6200  -11.7729   20.8451 C   0  0  0  0  0  0  0  0  0  0  0  0
  -23.9368  -13.5036   20.9386 C   0  0  0  0  0  0  0  0  0  0  0  0
  -24.0470  -21.4976   19.5928 C   0  0  0  0  0  0  0  0  0  0  0  0
  -23.9087   -9.1228   22.6515 C   0  0  0  0  0  0  0  0  0  0  0  0
  -23.7632   -7.7795   22.3051 C   0  0  0  0  0  0  0  0  0  0  0  0
  -25.0780  -23.5199   18.7761 C   0  0  0  0  0  0  0  0  0  0  0  0
  -29.3868  -24.6375   16.6863 C   0  0  0  0  0  0  0  0  0  0  0  0
  -22.7631   -8.4295   20.2040 C   0  0  0  0  0  0  0  0  0  0  0  0
  -25.9482  -13.8434   19.6442 C   0  0  0  0  0  0  0  0  0  0  0  0
  -26.7249  -14.7223   17.3788 C   0  0  0  0  0  0  0  0  0  0  0  0
  -18.1123  -27.1436   23.4082 C   0  0  0  0  0  0  0  0  0  0  0  0
  -23.9977  -23.5153   20.9424 C   0  0  0  0  0  0  0  0  0  0  0  0
  -18.8161  -26.3091   22.5190 C   0  0  0  0  0  0  0  0  0  0  0  0
  -24.7144  -24.1983   19.9494 C   0  0  0  0  0  0  0  0  0  0  0  0
  -29.2891  -25.1598   15.3967 C   0  0  0  0  0  0  0  0  0  0  0  0
  -29.7069  -22.4265   15.7665 C   0  0  0  0  0  0  0  0  0  0  0  0
  -24.3885  -12.2365   21.3077 C   0  0  0  0  0  0  0  0  0  0  0  0
  -24.7445  -22.1774   18.5985 C   0  0  0  0  0  0  0  0  0  0  0  0
  -23.4813  -10.1195   21.7742 C   0  0  0  0  0  0  0  0  0  0  0  0
  -29.5957  -23.2708   16.8713 C   0  0  0  0  0  0  0  0  0  0  0  0
  -23.1905   -7.4328   21.0814 C   0  0  0  0  0  0  0  0  0  0  0  0
  -22.9086   -9.7729   20.5504 C   0  0  0  0  0  0  0  0  0  0  0  0
  -26.7536  -14.6741   18.7854 C   0  0  0  0  0  0  0  0  0  0  0  0
  -27.6709  -15.6615   17.0480 C   0  0  0  0  0  0  0  0  0  0  0  0
  -25.9153  -13.9843   16.4538 C   0  0  0  0  0  0  0  0  0  0  0  0
  -22.3160  -26.1831   21.3409 C   0  0  0  0  0  0  0  0  0  0  0  0
  -25.2444  -27.4960   21.8130 C   0  0  0  0  0  0  0  0  0  0  0  0
  -28.6120  -27.3325   21.2848 C   0  0  0  0  0  0  0  0  0  0  0  0
  -29.8163  -20.2960   20.0102 C   0  0  0  0  0  0  0  0  0  0  0  0
  -18.3797  -28.6259   23.4848 C   0  0  0  0  0  0  0  0  0  0  0  0
  -23.6161  -24.2103   22.2206 C   0  0  0  0  0  0  0  0  0  0  0  0
  -25.0992  -25.6463   20.1033 C   0  0  0  0  0  0  0  0  0  0  0  0
  -19.7178  -29.0358   22.8751 C   0  0  0  0  0  0  0  0  0  0  0  0
  -31.7626  -17.5741   18.6316 C   0  0  0  0  0  0  0  0  0  0  0  0
  -19.9126  -28.3682   21.5174 C   0  0  0  0  0  0  0  0  0  0  0  0
  -25.8475  -27.4352   16.1946 C   0  0  0  0  0  0  0  0  0  0  0  0
  -25.1682  -27.1230   14.8904 C   0  0  0  0  0  0  0  0  0  0  0  0
  -30.6802  -16.5223   18.3816 C   0  0  0  0  0  0  0  0  0  0  0  0
  -31.4912  -18.3522   19.9158 C   0  0  0  0  0  0  0  0  0  0  0  0
  -29.0673  -17.9511   19.7222 C   0  0  0  0  0  0  0  0  0  0  0  0
  -19.9366  -26.8409   21.6519 C   0  0  1  0  0  0  0  0  0  0  0  0
  -23.5439  -25.7274   22.0773 C   0  0  1  0  0  0  0  0  0  0  0  0
  -26.5071  -26.5153   15.2049 C   0  0  0  0  0  0  0  0  0  0  0  0
  -29.2724  -17.1455   18.4264 C   0  0  2  0  0  0  0  0  0  0  0  0
  -30.2555  -27.2793   14.4668 C   0  0  0  0  0  0  0  0  0  0  0  0
  -30.7431  -28.5690   21.7613 C   0  0  0  0  0  0  0  0  0  0  0  0
  -24.5370  -29.5397   19.6605 C   0  0  0  0  0  0  0  0  0  0  0  0
  -26.9683  -30.1177   19.5087 C   0  0  0  0  0  0  0  0  0  0  0  0
  -25.7318  -30.4847   21.6439 C   0  0  0  0  0  0  0  0  0  0  0  0
  -29.7331  -25.0510   22.8005 C   0  0  0  0  0  0  0  0  0  0  0  0
  -29.9303  -20.9528   15.9463 C   0  0  0  0  0  0  0  0  0  0  0  0
  -27.7507  -26.9660   14.4481 C   0  0  0  0  0  0  0  0  0  0  0  0
  -30.7147  -22.5903   20.3038 C   0  0  0  0  0  0  0  0  0  0  0  0
  -28.6861  -20.1057   15.6993 C   0  0  0  0  0  0  0  0  0  0  0  0
  -26.3458  -19.7172   16.4811 C   0  0  0  0  0  0  0  0  0  0  0  0
  -30.7381  -23.2907   18.9570 C   0  0  0  0  0  0  0  0  0  0  0  0
  -25.3584  -20.1307   17.5545 C   0  0  0  0  0  0  0  0  0  1  0  0
  -29.0665  -26.6212   15.1984 C   0  0  1  0  0  0  0  0  0  0  0  0
  -26.2894  -28.1260   20.9242 C   0  0  1  0  0  0  0  0  0  0  0  0
  -29.7887  -27.4826   22.2321 C   0  0  2  0  0  0  0  0  0  0  0  0
  -25.8728  -29.5402   20.4303 C   0  0  0  0  0  0  0  0  0  0  0  0
  -27.6473  -15.5155   19.3120 N   0  0  0  0  0  0  0  0  0  0  0  0
  -28.1890  -16.1013   18.2306 N   0  0  0  0  0  0  0  0  0  0  0  0
  -24.6980  -26.2837   21.3683 N   0  0  0  0  0  0  0  0  0  0  0  0
  -30.1424  -18.9352   19.8867 N   0  0  0  0  0  0  0  0  0  0  0  0
  -28.1020  -16.1457   15.8639 N   0  0  0  0  0  0  0  0  0  0  0  0
  -24.9935  -13.0593   16.9629 N   0  0  0  0  0  0  0  0  0  0  0  0
  -21.2195  -26.3978   22.1541 N   0  0  0  0  0  0  0  0  0  0  0  0
  -27.5371  -28.1005   21.6798 N   0  0  0  0  0  0  0  0  0  0  0  0
  -30.8916  -21.1614   20.1696 N   0  0  0  0  0  0  0  0  0  0  0  0
  -30.5445  -26.2017   22.3265 N   0  3  0  0  0  0  0  0  0  0  0  0
  -27.6215  -20.4503   16.6800 N   0  3  0  0  0  0  0  0  0  0  0  0
  -26.0180  -14.1286   15.2120 O   0  0  0  0  0  0  0  0  0  0  0  0
  -22.3604  -26.3304   20.1252 O   0  0  0  0  0  0  0  0  0  0  0  0
  -24.9298  -28.0551   22.8666 O   0  0  0  0  0  0  0  0  0  0  0  0
  -28.6446  -26.6093   20.2915 O   0  0  0  0  0  0  0  0  0  0  0  0
  -28.6525  -20.7102   19.9756 O   0  0  0  0  0  0  0  0  0  0  0  0
  -23.6271  -11.4527   22.1192 O   0  0  0  0  0  0  0  0  0  0  0  0
  -25.1050  -21.5316   17.4562 O   0  0  0  0  0  0  0  0  0  1  0  0
  -29.6899  -22.7771   18.1376 O   0  0  0  0  0  0  0  0  0  0  0  0
  -23.0523   -6.1429   20.7482 F   0  0  0  0  0  0  0  0  0  0  0  0
  -22.4972  -10.7260   19.7030 F   0  0  0  0  0  0  0  0  0  0  0  0
  1  2  1  0  0  0  0
  1  5  2  0  0  0  0
  2  6  2  0  0  0  0
  3 10  2  0  0  0  0
  3 18  1  0  0  0  0
  4 11  1  0  0  0  0
  4 18  2  0  0  0  0
  5 20  1  0  0  0  0
  6 22  1  0  0  0  0
  7 12  2  0  0  0  0
  7 21  1  0  0  0  0
  8  9  2  0  0  0  0
  8 24  1  0  0  0  0
  9 25  1  0  0  0  0
 10 26  1  0  0  0  0
 11 26  2  0  0  0  0
 12 27  1  0  0  0  0
 13 14  2  0  0  0  0
 13 28  1  0  0  0  0
 14 30  1  0  0  0  0
 15 23  1  0  0  0  0
 15 27  2  0  0  0  0
 16 24  2  0  0  0  0
 16 29  1  0  0  0  0
 17 30  2  0  0  0  0
 17 31  1  0  0  0  0
 18 32  1  0  0  0  0
 19 32  1  0  0  0  0
 19 33  2  0  0  0  0
 19 34  1  0  0  0  0
 20 22  2  0  0  0  0
 20 39  1  0  0  0  0
 21 23  2  0  0  0  0
 21 40  1  0  0  0  0
 22 50  1  0  0  0  0
 23 41  1  0  0  0  0
 24 67  1  0  0  0  0
 25 29  2  0  0  0  0
 25 60  1  0  0  0  0
 26 87  1  0  0  0  0
 27 88  1  0  0  0  0
 28 31  2  0  0  0  0
 28 87  1  0  0  0  0
 29 89  1  0  0  0  0
 30 90  1  0  0  0  0
 31 91  1  0  0  0  0
 32 71  2  0  0  0  0
 33 72  1  0  0  0  0
 33 75  1  0  0  0  0
 34 76  1  0  0  0  0
 34 82  2  0  0  0  0
 35 51  1  0  0  0  0
 35 77  1  0  0  0  0
 35 83  2  0  0  0  0
 36 68  1  0  0  0  0
 36 73  1  0  0  0  0
 36 84  2  0  0  0  0
 37 69  1  0  0  0  0
 37 78  1  0  0  0  0
 37 85  2  0  0  0  0
 38 74  1  0  0  0  0
 38 79  1  0  0  0  0
 38 86  2  0  0  0  0
 39 42  1  0  0  0  0
 40 51  1  0  0  0  0
 41 73  1  0  0  0  0
 42 44  1  0  0  0  0
 43 47  1  0  0  0  0
 43 48  1  0  0  0  0
 44 50  1  0  0  0  0
 45 46  1  0  0  0  0
 45 52  1  0  0  0  0
 46 52  1  0  0  0  0
 47 53  1  0  0  0  0
 48 74  1  0  0  0  0
 49 53  1  0  0  0  0
 49 74  1  0  0  0  0
 50 77  1  0  0  0  0
 51 73  1  0  0  0  0
 52 61  1  0  0  0  0
 53 72  1  0  0  0  0
 54 67  1  0  0  0  0
 55 69  1  0  0  0  0
 56 70  1  0  0  0  0
 57 70  1  0  0  0  0
 58 70  1  0  0  0  0
 59 80  1  0  0  0  0
 60 63  1  0  0  0  0
 61 67  1  0  0  0  0
 62 65  1  0  0  0  0
 62 79  1  0  0  0  0
 63 81  1  0  0  0  0
 64 66  1  0  0  0  0
 64 81  1  0  0  0  0
 65 89  1  0  0  0  0
 66 88  1  0  0  0  0
 68 70  1  0  0  0  0
 68 78  1  0  0  0  0
 69 80  1  0  0  0  0
 71 72  1  0  0  0  0
M  CHG  2  80   1  81   1
M  ISO  4  38 100  66 101  79 100  88 101
M  END
> <Batch ID>
0139

> <Smiles>
CNC(C)C(=O)NC(C(=O)N1Cc2cc([101O:1][101CH2:1]CNCCc3ccc(C(C)CC4CC4)cc3OCC[100NH:0][100C:0](=O)N3CCCC(n4nc(-c5ccc(Oc6ccc(F)cc6F)cc5)c(C(N)=O)c4N)C3)ccc2CC1C(=O)NC1CCCc2ccccc21)C(C)(C)C

> <Shape>
0.232

> <Color>
0.081

> <Negative vol penalty>
0.000

$$$$

  -OEChem-04052321103D

 88 96  0     1  0  0  0  0  0999 V2000
  -29.0287  -36.3920   18.9628 C   0  0  0  0  0  0  0  0  0  0  0  0
  -29.2823  -35.0247   18.9221 C   0  0  0  0  0  0  0  0  0  0  0  0
  -23.8645   -9.9707   22.0248 C   0  0  0  0  0  0  0  0  0  0  0  0
  -24.3960  -11.3450   23.9394 C   0  0  0  0  0  0  0  0  0  0  0  0
  -28.1770  -36.9132   19.9358 C   0  0  0  0  0  0  0  0  0  0  0  0
  -28.6850  -34.1779   19.8552 C   0  0  0  0  0  0  0  0  0  0  0  0
  -26.7905  -28.4286   18.9268 C   0  0  0  0  0  0  0  0  0  0  0  0
  -23.3604   -8.9845   22.8726 C   0  0  0  0  0  0  0  0  0  0  0  0
  -23.8919  -10.3588   24.7873 C   0  0  0  0  0  0  0  0  0  0  0  0
  -27.3729  -27.1927   19.2047 C   0  0  0  0  0  0  0  0  0  0  0  0
  -30.0639  -21.2822   22.4800 C   0  0  0  0  0  0  0  0  0  0  0  0
  -30.4531  -19.9823   22.8028 C   0  0  0  0  0  0  0  0  0  0  0  0
  -20.5272   -8.4201   24.6296 C   0  0  0  0  0  0  0  0  0  0  0  0
  -19.3085   -7.8334   24.2890 C   0  0  0  0  0  0  0  0  0  0  0  0
  -26.1280  -27.0768   21.2677 C   0  0  0  0  0  0  0  0  0  0  0  0
  -28.2889  -20.4067   21.0943 C   0  0  0  0  0  0  0  0  0  0  0  0
  -20.3812   -5.6716   24.1741 C   0  0  0  0  0  0  0  0  0  0  0  0
  -24.3824  -11.1510   22.5582 C   0  0  0  0  0  0  0  0  0  0  0  0
  -24.1948  -13.2427   21.1100 C   0  0  0  0  0  0  0  0  0  0  0  0
  -27.5613  -36.0712   20.8752 C   0  0  0  0  0  0  0  0  0  0  0  0
  -25.8793  -29.0039   19.8241 C   0  0  0  0  0  0  0  0  0  0  0  0
  -27.8252  -34.6886   20.8425 C   0  0  0  0  0  0  0  0  0  0  0  0
  -25.5336  -28.3189   20.9977 C   0  0  0  0  0  0  0  0  0  0  0  0
  -28.6782  -19.1067   21.4171 C   0  0  0  0  0  0  0  0  0  0  0  0
  -23.3741   -9.1785   24.2538 C   0  0  0  0  0  0  0  0  0  0  0  0
  -27.0438  -26.5179   20.3767 C   0  0  0  0  0  0  0  0  0  0  0  0
  -28.9817  -21.4945   21.6258 C   0  0  0  0  0  0  0  0  0  0  0  0
  -29.7603  -18.8946   22.2713 C   0  0  0  0  0  0  0  0  0  0  0  0
  -21.6730   -7.6326   24.7424 C   0  0  0  0  0  0  0  0  0  0  0  0
  -19.2355   -6.4592   24.0612 C   0  0  0  0  0  0  0  0  0  0  0  0
  -21.6000   -6.2584   24.5147 C   0  0  0  0  0  0  0  0  0  0  0  0
  -24.9038  -12.1699   21.6830 C   0  0  0  0  0  0  0  0  0  0  0  0
  -25.1330  -13.9165   20.3669 C   0  0  0  0  0  0  0  0  0  0  0  0
  -22.8117  -13.5984   21.2381 C   0  0  0  0  0  0  0  0  0  0  0  0
  -25.8113  -31.6724   21.5497 C   0  0  0  0  0  0  0  0  0  0  0  0
  -22.7990  -30.6867   22.2402 C   0  0  0  0  0  0  0  0  0  0  0  0
  -20.5808  -28.1051   22.4885 C   0  0  0  0  0  0  0  0  0  0  0  0
  -31.0937  -14.3413   20.7419 C   0  0  0  0  0  0  0  0  0  0  0  0
  -26.6854  -36.6867   21.9376 C   0  0  0  0  0  0  0  0  0  0  0  0
  -25.2396  -30.3253   19.4968 C   0  0  0  0  0  0  0  0  0  0  0  0
  -24.5454  -28.8840   21.9839 C   0  0  0  0  0  0  0  0  0  0  0  0
  -25.7976  -35.6744   22.6568 C   0  0  0  0  0  0  0  0  0  0  0  0
  -29.1994  -13.2162   17.9451 C   0  0  0  0  0  0  0  0  0  0  0  0
  -26.6061  -34.4440   23.0560 C   0  0  0  0  0  0  0  0  0  0  0  0
  -27.8197  -12.9172   18.5342 C   0  0  0  0  0  0  0  0  0  0  0  0
  -30.3191  -12.8543   18.9184 C   0  0  0  0  0  0  0  0  0  0  0  0
  -28.8154  -13.1604   20.8469 C   0  0  0  0  0  0  0  0  0  0  0  0
  -27.1766  -33.7346   21.8220 C   0  0  1  0  0  0  0  0  0  0  0  0
  -24.7143  -31.0561   20.7286 C   0  0  1  0  0  0  0  0  0  0  0  0
  -27.6518  -13.5609   19.9238 C   0  0  2  0  0  0  0  0  0  0  0  0
  -25.0117  -17.5587   23.0523 C   0  0  0  0  0  0  0  0  0  0  0  0
  -27.9111  -17.9572   19.3102 C   0  0  0  0  0  0  0  0  0  0  0  0
  -18.2026  -27.6046   23.1137 C   0  0  0  0  0  0  0  0  0  0  0  0
  -23.5194  -30.9635   25.1923 C   0  0  0  0  0  0  0  0  0  0  0  0
  -21.5063  -29.5801   25.7415 C   0  0  0  0  0  0  0  0  0  0  0  0
  -21.2317  -31.7789   24.5958 C   0  0  0  0  0  0  0  0  0  0  0  0
  -19.9634  -27.0787   19.7822 C   0  0  0  0  0  0  0  0  0  0  0  0
  -31.7239  -15.8113   22.6396 C   0  0  0  0  0  0  0  0  0  0  0  0
  -26.4587  -17.4835   22.6140 C   0  0  0  0  0  0  0  0  0  0  0  0
  -31.4863  -17.2586   22.2473 C   0  0  0  0  0  0  0  0  0  0  0  0
  -26.8401  -24.3913   21.4216 C   0  0  0  0  0  0  0  0  0  1  0  0
  -27.2201  -22.9766   21.0294 C   0  0  0  0  0  0  0  0  0  0  0  0
  -27.9253  -17.9542   20.8391 C   0  0  2  0  0  0  0  0  0  0  0  0
  -22.1762  -29.8194   23.3074 C   0  0  1  0  0  0  0  0  0  0  0  0
  -19.1587  -27.9468   21.9816 C   0  0  2  0  0  0  0  0  0  0  0  0
  -22.1285  -30.5254   24.6918 C   0  0  0  0  0  0  0  0  0  0  0  0
  -26.1929  -12.1588   21.3337 N   0  0  0  0  0  0  0  0  0  0  0  0
  -26.3014  -13.2328   20.5332 N   0  0  0  0  0  0  0  0  0  0  0  0
  -23.9518  -30.1818   21.6222 N   0  0  0  0  0  0  0  0  0  0  0  0
  -30.1011  -13.4979   20.2162 N   0  0  0  0  0  0  0  0  0  0  0  0
  -25.0643  -15.0211   19.5940 N   0  0  0  0  0  0  0  0  0  0  0  0
  -21.9875  -12.7978   22.0406 N   0  0  0  0  0  0  0  0  0  0  0  0
  -26.1480  -32.9564   21.1657 N   0  0  0  0  0  0  0  0  0  0  0  0
  -20.8702  -29.4177   22.7961 N   0  0  0  0  0  0  0  0  0  0  0  0
  -30.8044  -14.9159   21.9735 N   0  0  0  0  0  0  0  0  0  0  0  0
  -19.0896  -26.8606   20.9636 N   0  3  0  0  0  0  0  0  0  0  0  0
  -22.3177  -14.5871   20.6449 O   0  0  0  0  0  0  0  0  0  0  0  0
  -26.3141  -31.0311   22.4649 O   0  0  0  0  0  0  0  0  0  0  0  0
  -22.2777  -31.7691   21.9602 O   0  0  0  0  0  0  0  0  0  0  0  0
  -21.3562  -27.1585   22.6038 O   0  0  0  0  0  0  0  0  0  0  0  0
  -32.1566  -14.5698   20.1546 O   0  0  0  0  0  0  0  0  0  0  0  0
  -22.8821   -8.2165   25.0814 O   0  0  0  0  0  0  0  0  0  0  0  0
  -27.6113  -25.3118   20.6507 O   0  0  0  0  0  0  0  0  0  1  0  0
  -28.5996  -22.7715   21.3093 O   0  0  0  0  0  0  0  0  0  0  0  0
  -30.1546  -17.6314   22.5960 O   0  0  0  0  0  0  0  0  0  0  0  0
  -26.5708  -18.0037   21.3003 O   0  0  0  0  0  0  0  0  0  0  0  0
  -18.0647   -5.8957   23.7356 F   0  0  0  0  0  0  0  0  0  0  0  0
  -22.6971   -5.4965   24.6227 F   0  0  0  0  0  0  0  0  0  0  0  0
  1  2  1  0  0  0  0
  1  5  2  0  0  0  0
  2  6  2  0  0  0  0
  3  8  2  0  0  0  0
  3 18  1  0  0  0  0
  4  9  1  0  0  0  0
  4 18  2  0  0  0  0
  5 20  1  0  0  0  0
  6 22  1  0  0  0  0
  7 10  2  0  0  0  0
  7 21  1  0  0  0  0
  8 25  1  0  0  0  0
  9 25  2  0  0  0  0
 10 26  1  0  0  0  0
 11 12  2  0  0  0  0
 11 27  1  0  0  0  0
 12 28  1  0  0  0  0
 13 14  2  0  0  0  0
 13 29  1  0  0  0  0
 14 30  1  0  0  0  0
 15 23  1  0  0  0  0
 15 26  2  0  0  0  0
 16 24  1  0  0  0  0
 16 27  2  0  0  0  0
 17 30  2  0  0  0  0
 17 31  1  0  0  0  0
 18 32  1  0  0  0  0
 19 32  1  0  0  0  0
 19 33  2  0  0  0  0
 19 34  1  0  0  0  0
 20 22  2  0  0  0  0
 20 39  1  0  0  0  0
 21 23  2  0  0  0  0
 21 40  1  0  0  0  0
 22 48  1  0  0  0  0
 23 41  1  0  0  0  0
 24 28  2  0  0  0  0
 24 63  1  0  0  0  0
 25 82  1  0  0  0  0
 26 83  1  0  0  0  0
 27 84  1  0  0  0  0
 28 85  1  0  0  0  0
 29 31  2  0  0  0  0
 29 82  1  0  0  0  0
 30 87  1  0  0  0  0
 31 88  1  0  0  0  0
 32 67  2  0  0  0  0
 33 68  1  0  0  0  0
 33 71  1  0  0  0  0
 34 72  1  0  0  0  0
 34 77  2  0  0  0  0
 35 49  1  0  0  0  0
 35 73  1  0  0  0  0
 35 78  2  0  0  0  0
 36 64  1  0  0  0  0
 36 69  1  0  0  0  0
 36 79  2  0  0  0  0
 37 65  1  0  0  0  0
 37 74  1  0  0  0  0
 37 80  2  0  0  0  0
 38 70  1  0  0  0  0
 38 75  1  0  0  0  0
 38 81  2  0  0  0  0
 39 42  1  0  0  0  0
 40 49  1  0  0  0  0
 41 69  1  0  0  0  0
 42 44  1  0  0  0  0
 43 45  1  0  0  0  0
 43 46  1  0  0  0  0
 44 48  1  0  0  0  0
 45 50  1  0  0  0  0
 46 70  1  0  0  0  0
 47 50  1  0  0  0  0
 47 70  1  0  0  0  0
 48 73  1  0  0  0  0
 49 69  1  0  0  0  0
 50 68  1  0  0  0  0
 51 59  1  0  0  0  0
 52 63  1  0  0  0  0
 53 65  1  0  0  0  0
 54 66  1  0  0  0  0
 55 66  1  0  0  0  0
 56 66  1  0  0  0  0
 57 76  1  0  0  0  0
 58 60  1  0  0  0  0
 58 75  1  0  0  0  0
 59 86  1  0  0  0  0
 60 85  1  0  0  0  0
 61 62  1  0  0  0  0
 61 83  1  0  0  0  0
 62 84  1  0  0  0  0
 63 86  1  0  0  0  0
 64 66  1  0  0  0  0
 64 74  1  0  0  0  0
 65 76  1  0  0  0  0
 67 68  1  0  0  0  0
M  CHG  1  76   1
M  ISO  4  38 100  61 101  75 100  83 101
M  END
> <Batch ID>
0139

> <Smiles>
CCOC(C)c1cc(OC[101CH2:1][101O:1]c2ccc3c(c2)CN(C(=O)C(NC(=O)C(C)NC)C(C)(C)C)C(C(=O)NC2CCCc4ccccc42)C3)ccc1OCC[100NH:0][100C:0](=O)N1CCCC(n2nc(-c3ccc(Oc4ccc(F)cc4F)cc3)c(C(N)=O)c2N)C1

> <Shape>
0.328

> <Color>
0.159

> <Negative vol penalty>
0.000

$$$$

  -OEChem-04052321103D

 87 95  0     1  0  0  0  0  0999 V2000
  -30.2881  -24.4941   16.3569 C   0  0  0  0  0  0  0  0  0  0  0  0
  -29.2425  -23.8408   17.0014 C   0  0  0  0  0  0  0  0  0  0  0  0
  -29.0179  -16.9432   19.4886 C   0  0  0  0  0  0  0  0  0  0  0  0
  -27.9655  -17.5406   21.5797 C   0  0  0  0  0  0  0  0  0  0  0  0
  -30.7212  -25.7369   16.8171 C   0  0  0  0  0  0  0  0  0  0  0  0
  -28.6302  -24.4294   18.1073 C   0  0  0  0  0  0  0  0  0  0  0  0
  -23.5784  -24.1307   17.9188 C   0  0  0  0  0  0  0  0  0  0  0  0
  -29.3534  -18.2802   19.2754 C   0  0  0  0  0  0  0  0  0  0  0  0
  -28.3011  -18.8776   21.3666 C   0  0  0  0  0  0  0  0  0  0  0  0
  -22.9998  -22.9085   18.2580 C   0  0  0  0  0  0  0  0  0  0  0  0
  -31.0386  -20.8358   21.6699 C   0  0  0  0  0  0  0  0  0  0  0  0
  -31.5724  -21.5475   22.7441 C   0  0  0  0  0  0  0  0  0  0  0  0
  -22.4978  -23.7634   20.4572 C   0  0  0  0  0  0  0  0  0  0  0  0
  -18.3969  -15.8749   21.9058 C   0  0  0  0  0  0  0  0  0  0  0  0
  -18.5189  -17.9963   20.7561 C   0  0  0  0  0  0  0  0  0  0  0  0
  -20.4889  -17.0799   21.8127 C   0  0  0  0  0  0  0  0  0  0  0  0
  -29.7321  -23.1083   22.6244 C   0  0  0  0  0  0  0  0  0  0  0  0
  -28.3239  -16.5734   20.6407 C   0  0  0  0  0  0  0  0  0  0  0  0
  -28.7449  -14.2184   21.5263 C   0  0  0  0  0  0  0  0  0  0  0  0
  -30.1075  -26.3455   17.9233 C   0  0  0  0  0  0  0  0  0  0  0  0
  -23.6310  -25.1766   18.8514 C   0  0  0  0  0  0  0  0  0  0  0  0
  -29.0564  -25.6809   18.5836 C   0  0  0  0  0  0  0  0  0  0  0  0
  -23.0754  -24.9988   20.1264 C   0  0  0  0  0  0  0  0  0  0  0  0
  -17.7809  -16.8875   21.1705 C   0  0  0  0  0  0  0  0  0  0  0  0
  -28.9950  -19.2474   20.2144 C   0  0  0  0  0  0  0  0  0  0  0  0
  -22.4619  -22.7237   19.5283 C   0  0  0  0  0  0  0  0  0  0  0  0
  -29.8516  -21.2603   21.0728 C   0  0  0  0  0  0  0  0  0  0  0  0
  -19.7509  -15.9712   22.2271 C   0  0  0  0  0  0  0  0  0  0  0  0
  -19.8729  -18.0925   21.0773 C   0  0  0  0  0  0  0  0  0  0  0  0
  -30.9192  -22.6838   23.2214 C   0  0  0  0  0  0  0  0  0  0  0  0
  -29.1983  -22.3965   21.5501 C   0  0  0  0  0  0  0  0  0  0  0  0
  -27.9765  -15.1925   20.8611 C   0  0  0  0  0  0  0  0  0  0  0  0
  -27.9800  -13.0790   21.4679 C   0  0  0  0  0  0  0  0  0  0  0  0
  -30.0346  -14.3332   22.1420 C   0  0  0  0  0  0  0  0  0  0  0  0
  -25.9654  -26.8032   20.2686 C   0  0  0  0  0  0  0  0  0  0  0  0
  -23.5035  -28.5711   21.4242 C   0  0  0  0  0  0  0  0  0  0  0  0
  -20.1903  -28.7512   22.2225 C   0  0  0  0  0  0  0  0  0  0  0  0
  -22.0922  -12.1446   20.9094 C   0  0  0  0  0  0  0  0  0  0  0  0
  -30.6417  -27.6681   18.4132 C   0  0  0  0  0  0  0  0  0  0  0  0
  -24.2347  -26.4978   18.4610 C   0  0  0  0  0  0  0  0  0  0  0  0
  -23.0883  -26.0968   21.1573 C   0  0  0  0  0  0  0  0  0  0  0  0
  -29.6919  -28.3948   19.3620 C   0  0  0  0  0  0  0  0  0  0  0  0
  -24.6653  -10.9286   18.7700 C   0  0  0  0  0  0  0  0  0  0  0  0
  -29.1532  -27.4341   20.4174 C   0  0  0  0  0  0  0  0  0  0  0  0
  -25.8750  -11.7956   19.1233 C   0  0  0  0  0  0  0  0  0  0  0  0
  -23.3640  -11.7259   18.8253 C   0  0  0  0  0  0  0  0  0  0  0  0
  -24.3370  -13.3045   20.4486 C   0  0  0  0  0  0  0  0  0  0  0  0
  -28.3505  -26.2984   19.7712 C   0  0  1  0  0  0  0  0  0  0  0  0
  -24.6937  -27.3224   19.6596 C   0  0  1  0  0  0  0  0  0  0  0  0
  -25.6664  -12.5307   20.4610 C   0  0  2  0  0  0  0  0  0  0  0  0
  -18.4777  -30.3136   23.1833 C   0  0  0  0  0  0  0  0  0  0  0  0
  -24.6267  -28.0802   24.2183 C   0  0  0  0  0  0  0  0  0  0  0  0
  -22.4261  -28.8180   25.1569 C   0  0  0  0  0  0  0  0  0  0  0  0
  -23.8053  -30.4082   23.8183 C   0  0  0  0  0  0  0  0  0  0  0  0
  -18.5789  -28.6968   19.7406 C   0  0  0  0  0  0  0  0  0  0  0  0
  -14.5813  -15.7155   19.4178 C   0  0  0  0  0  0  0  0  0  0  0  0
  -16.8700  -16.0719   18.5036 C   0  0  0  0  0  0  0  0  0  0  0  0
  -16.3331  -16.7852   20.8281 C   0  0  0  0  0  0  0  0  0  0  0  0
  -20.9434  -12.6555   23.0491 C   0  0  0  0  0  0  0  0  0  0  0  0
  -19.8368  -13.6624   22.7909 C   0  0  0  0  0  0  0  0  0  0  0  0
  -20.8375  -21.5598   20.8177 C   0  0  0  0  0  0  0  0  0  1  0  0
  -19.8896  -20.4092   20.5401 C   0  0  0  0  0  0  0  0  0  0  0  0
  -22.6219  -28.5051   22.6479 C   0  0  1  0  0  0  0  0  0  0  0  0
  -19.1350  -29.7976   21.9127 C   0  0  2  0  0  0  0  0  0  0  0  0
  -23.3713  -28.9314   23.9418 C   0  0  0  0  0  0  0  0  0  0  0  0
  -26.8129  -14.7138   20.4129 N   0  0  0  0  0  0  0  0  0  0  0  0
  -26.8445  -13.4264   20.7971 N   0  0  0  0  0  0  0  0  0  0  0  0
  -23.6954  -27.3682   20.7299 N   0  0  0  0  0  0  0  0  0  0  0  0
  -23.2263  -12.3972   20.1200 N   0  0  0  0  0  0  0  0  0  0  0  0
  -28.1749  -11.8240   21.9253 N   0  0  0  0  0  0  0  0  0  0  0  0
  -30.6813  -15.5762   22.1115 N   0  0  0  0  0  0  0  0  0  0  0  0
  -27.0332  -26.7626   19.3924 N   0  0  0  0  0  0  0  0  0  0  0  0
  -21.4441  -29.3115   22.3465 N   0  0  0  0  0  0  0  0  0  0  0  0
  -22.0433  -12.8168   22.1246 N   0  0  0  0  0  0  0  0  0  0  0  0
  -18.0761  -29.2217   21.0363 N   0  3  0  0  0  0  0  0  0  0  0  0
  -16.0505  -15.8082   19.7405 N   0  3  0  0  0  0  0  0  0  0  0  0
  -30.6041  -13.3581   22.6883 O   0  0  0  0  0  0  0  0  0  0  0  0
  -25.9774  -26.4657   21.4466 O   0  0  0  0  0  0  0  0  0  0  0  0
  -23.9975  -29.6515   21.0923 O   0  0  0  0  0  0  0  0  0  0  0  0
  -19.9280  -27.5569   22.3461 O   0  0  0  0  0  0  0  0  0  0  0  0
  -21.1927  -11.3729   20.5598 O   0  0  0  0  0  0  0  0  0  0  0  0
  -29.3225  -20.5521   20.0069 O   0  0  0  0  0  0  0  0  0  0  0  0
  -21.8971  -21.5316   19.8623 O   0  0  0  0  0  0  0  0  0  1  0  0
  -20.3529  -14.9835   22.9449 O   0  0  0  0  0  0  0  0  0  0  0  0
  -20.5973  -19.1823   20.6712 O   0  0  0  0  0  0  0  0  0  0  0  0
  -31.4311  -23.3663   24.2540 F   0  0  0  0  0  0  0  0  0  0  0  0
  -28.0570  -22.8086   20.9814 F   0  0  0  0  0  0  0  0  0  0  0  0
  1  2  1  0  0  0  0
  1  5  2  0  0  0  0
  2  6  2  0  0  0  0
  3  8  2  0  0  0  0
  3 18  1  0  0  0  0
  4  9  1  0  0  0  0
  4 18  2  0  0  0  0
  5 20  1  0  0  0  0
  6 22  1  0  0  0  0
  7 10  2  0  0  0  0
  7 21  1  0  0  0  0
  8 25  1  0  0  0  0
  9 25  2  0  0  0  0
 10 26  1  0  0  0  0
 11 12  2  0  0  0  0
 11 27  1  0  0  0  0
 12 30  1  0  0  0  0
 13 23  1  0  0  0  0
 13 26  2  0  0  0  0
 14 24  1  0  0  0  0
 14 28  2  0  0  0  0
 15 24  2  0  0  0  0
 15 29  1  0  0  0  0
 16 28  1  0  0  0  0
 16 29  2  0  0  0  0
 17 30  2  0  0  0  0
 17 31  1  0  0  0  0
 18 32  1  0  0  0  0
 19 32  1  0  0  0  0
 19 33  2  0  0  0  0
 19 34  1  0  0  0  0
 20 22  2  0  0  0  0
 20 39  1  0  0  0  0
 21 23  2  0  0  0  0
 21 40  1  0  0  0  0
 22 48  1  0  0  0  0
 23 41  1  0  0  0  0
 24 58  1  0  0  0  0
 25 82  1  0  0  0  0
 26 83  1  0  0  0  0
 27 31  2  0  0  0  0
 27 82  1  0  0  0  0
 28 84  1  0  0  0  0
 29 85  1  0  0  0  0
 30 86  1  0  0  0  0
 31 87  1  0  0  0  0
 32 66  2  0  0  0  0
 33 67  1  0  0  0  0
 33 70  1  0  0  0  0
 34 71  1  0  0  0  0
 34 77  2  0  0  0  0
 35 49  1  0  0  0  0
 35 72  1  0  0  0  0
 35 78  2  0  0  0  0
 36 63  1  0  0  0  0
 36 68  1  0  0  0  0
 36 79  2  0  0  0  0
 37 64  1  0  0  0  0
 37 73  1  0  0  0  0
 37 80  2  0  0  0  0
 38 69  1  0  0  0  0
 38 74  1  0  0  0  0
 38 81  2  0  0  0  0
 39 42  1  0  0  0  0
 40 49  1  0  0  0  0
 41 68  1  0  0  0  0
 42 44  1  0  0  0  0
 43 45  1  0  0  0  0
 43 46  1  0  0  0  0
 44 48  1  0  0  0  0
 45 50  1  0  0  0  0
 46 69  1  0  0  0  0
 47 50  1  0  0  0  0
 47 69  1  0  0  0  0
 48 72  1  0  0  0  0
 49 68  1  0  0  0  0
 50 67  1  0  0  0  0
 51 64  1  0  0  0  0
 52 65  1  0  0  0  0
 53 65  1  0  0  0  0
 54 65  1  0  0  0  0
 55 75  1  0  0  0  0
 56 76  1  0  0  0  0
 57 76  1  0  0  0  0
 58 76  1  0  0  0  0
 59 60  1  0  0  0  0
 59 74  1  0  0  0  0
 60 84  1  0  0  0  0
 61 62  1  0  0  0  0
 61 83  1  0  0  0  0
 62 85  1  0  0  0  0
 63 65  1  0  0  0  0
 63 73  1  0  0  0  0
 64 75  1  0  0  0  0
 66 67  1  0  0  0  0
M  CHG  2  75   1  76   1
M  ISO  4  38 100  61 101  74 100  83 101
M  END
> <Batch ID>
0139

> <Smiles>
CNC(C)C(=O)NC(C(=O)N1Cc2cc([101O:1][101CH2:1]COc3cc(CN(C)C)cc(OCC[100NH:0][100C:0](=O)N4CCCC(n5nc(-c6ccc(Oc7ccc(F)cc7F)cc6)c(C(N)=O)c5N)C4)c3)ccc2CC1C(=O)NC1CCCc2ccccc21)C(C)(C)C

> <Shape>
0.235

> <Color>
0.059

> <Negative vol penalty>
0.000

$$$$

  -OEChem-04052321103D

 88 96  0     1  0  0  0  0  0999 V2000
  -25.2515  -10.9941   20.2365 C   0  0  0  0  0  0  0  0  0  0  0  0
  -24.2347  -11.8703   19.8707 C   0  0  0  0  0  0  0  0  0  0  0  0
  -29.2638  -24.5346   25.5355 C   0  0  0  0  0  0  0  0  0  0  0  0
  -27.3858  -24.0241   24.1039 C   0  0  0  0  0  0  0  0  0  0  0  0
  -26.3120  -11.4470   21.0202 C   0  0  0  0  0  0  0  0  0  0  0  0
  -24.2773  -13.1997   20.2892 C   0  0  0  0  0  0  0  0  0  0  0  0
  -22.4452  -19.7869   18.1519 C   0  0  0  0  0  0  0  0  0  0  0  0
  -18.6884  -27.0954   23.5052 C   0  0  0  0  0  0  0  0  0  0  0  0
  -19.0328  -25.9966   22.7180 C   0  0  0  0  0  0  0  0  0  0  0  0
  -29.2323  -23.2348   26.0404 C   0  0  0  0  0  0  0  0  0  0  0  0
  -27.3543  -22.7242   24.6088 C   0  0  0  0  0  0  0  0  0  0  0  0
  -21.7425  -20.9066   18.5950 C   0  0  0  0  0  0  0  0  0  0  0  0
  -26.5498  -19.3792   25.7810 C   0  0  0  0  0  0  0  0  0  0  0  0
  -25.3071  -18.8472   26.1248 C   0  0  0  0  0  0  0  0  0  0  0  0
  -23.6642  -21.5966   19.8796 C   0  0  0  0  0  0  0  0  0  0  0  0
  -20.1068  -27.4694   21.1323 C   0  0  0  0  0  0  0  0  0  0  0  0
  -24.9909  -20.6238   27.7313 C   0  0  0  0  0  0  0  0  0  0  0  0
  -28.3405  -24.9293   24.5672 C   0  0  0  0  0  0  0  0  0  0  0  0
  -29.0965  -26.7340   22.9304 C   0  0  0  0  0  0  0  0  0  0  0  0
  -26.3726  -12.7850   21.4404 C   0  0  0  0  0  0  0  0  0  0  0  0
  -23.7611  -19.5576   18.5786 C   0  0  0  0  0  0  0  0  0  0  0  0
  -25.3390  -13.6706   21.0803 C   0  0  0  0  0  0  0  0  0  0  0  0
  -24.3823  -20.4747   19.4384 C   0  0  0  0  0  0  0  0  0  0  0  0
  -19.0532  -28.3812   23.1060 C   0  0  0  0  0  0  0  0  0  0  0  0
  -19.7420  -26.1836   21.5316 C   0  0  0  0  0  0  0  0  0  0  0  0
  -28.2776  -22.3295   25.5771 C   0  0  0  0  0  0  0  0  0  0  0  0
  -22.3510  -21.8101   19.4613 C   0  0  0  0  0  0  0  0  0  0  0  0
  -27.0131  -20.5336   26.4124 C   0  0  0  0  0  0  0  0  0  0  0  0
  -19.7624  -28.5682   21.9195 C   0  0  0  0  0  0  0  0  0  0  0  0
  -24.5276  -19.4695   27.0999 C   0  0  0  0  0  0  0  0  0  0  0  0
  -26.2337  -21.1559   27.3875 C   0  0  0  0  0  0  0  0  0  0  0  0
  -28.3722  -26.2721   24.0456 C   0  0  0  0  0  0  0  0  0  0  0  0
  -28.7913  -28.0709   22.8525 C   0  0  0  0  0  0  0  0  0  0  0  0
  -29.9673  -26.0186   22.0441 C   0  0  0  0  0  0  0  0  0  0  0  0
  -25.2162  -17.2644   20.2302 C   0  0  0  0  0  0  0  0  0  0  0  0
  -27.8847  -18.9382   19.4560 C   0  0  0  0  0  0  0  0  0  0  0  0
  -29.2733  -21.9232   18.5566 C   0  0  0  0  0  0  0  0  0  0  0  0
  -24.3637  -31.7016   23.7059 C   0  0  0  0  0  0  0  0  0  0  0  0
  -27.5147  -13.2168   22.3259 C   0  0  0  0  0  0  0  0  0  0  0  0
  -24.5146  -18.3592   18.0703 C   0  0  0  0  0  0  0  0  0  0  0  0
  -25.8000  -20.2848   19.9099 C   0  0  0  0  0  0  0  0  0  0  0  0
  -27.6772  -14.7321   22.4148 C   0  0  0  0  0  0  0  0  0  0  0  0
  -27.0510  -31.4382   26.0266 C   0  0  0  0  0  0  0  0  0  0  0  0
  -26.3272  -15.4007   22.6539 C   0  0  0  0  0  0  0  0  0  0  0  0
  -27.7330  -30.1221   25.6487 C   0  0  0  0  0  0  0  0  0  0  0  0
  -25.5351  -31.3561   25.8611 C   0  0  0  0  0  0  0  0  0  0  0  0
  -25.7626  -29.5945   24.1527 C   0  0  0  0  0  0  0  0  0  0  0  0
  -25.3624  -15.1261   21.4940 C   0  0  1  0  0  0  0  0  0  0  0  0
  -25.6735  -17.9537   18.9759 C   0  0  1  0  0  0  0  0  0  0  0  0
  -27.2969  -29.6461   24.2499 C   0  0  2  0  0  0  0  0  0  0  0  0
  -20.8037  -29.5094   25.3878 C   0  0  0  0  0  0  0  0  0  0  0  0
  -17.1444  -29.6993   24.0599 C   0  0  0  0  0  0  0  0  0  0  0  0
  -31.4837  -22.9889   18.0314 C   0  0  0  0  0  0  0  0  0  0  0  0
  -28.5641  -18.9892   22.4302 C   0  0  0  0  0  0  0  0  0  0  0  0
  -30.2018  -20.8220   21.9535 C   0  0  0  0  0  0  0  0  0  0  0  0
  -30.5147  -18.5726   20.9216 C   0  0  0  0  0  0  0  0  0  0  0  0
  -28.4184  -22.6145   15.8089 C   0  0  0  0  0  0  0  0  0  0  0  0
  -19.2798  -29.5006   25.3916 C   0  0  0  0  0  0  0  0  0  0  0  0
  -21.7888  -31.5437   21.6191 C   0  0  0  0  0  0  0  0  0  0  0  0
  -23.2611  -31.9109   21.4924 C   0  0  0  0  0  0  0  0  0  0  0  0
  -19.7457  -23.7285   21.0866 C   0  0  0  0  0  0  0  0  0  0  0  0
  -21.5214  -30.0666   21.3570 C   0  0  0  0  0  0  0  0  0  0  0  0
  -20.2504  -22.7794   20.0126 C   0  0  0  0  0  0  0  0  0  1  0  0
  -18.6765  -29.5453   23.9615 C   0  0  1  0  0  0  0  0  0  0  0  0
  -28.6570  -20.0711   20.0878 C   0  0  1  0  0  0  0  0  0  0  0  0
  -30.2612  -22.2856   17.4625 C   0  0  2  0  0  0  0  0  0  0  0  0
  -29.4570  -19.6166   21.3411 C   0  0  0  0  0  0  0  0  0  0  0  0
  -27.6606  -27.2372   24.6341 N   0  0  0  0  0  0  0  0  0  0  0  0
  -27.9364  -28.3189   23.8858 N   0  0  0  0  0  0  0  0  0  0  0  0
  -26.4930  -19.0944   19.3900 N   0  0  0  0  0  0  0  0  0  0  0  0
  -25.1884  -30.9004   24.5128 N   0  0  0  0  0  0  0  0  0  0  0  0
  -29.1737  -29.0468   22.0017 N   0  0  0  0  0  0  0  0  0  0  0  0
  -30.1702  -24.6499   22.2673 N   0  0  0  0  0  0  0  0  0  0  0  0
  -20.0833  -25.0925   20.7497 N   0  0  0  0  0  0  0  0  0  0  0  0
  -25.6803  -15.9695   20.3617 N   0  0  0  0  0  0  0  0  0  0  0  0
  -29.4805  -20.6443   19.0288 N   0  0  0  0  0  0  0  0  0  0  0  0
  -24.0893  -31.1988   22.4400 N   0  0  0  0  0  0  0  0  0  0  0  0
  -29.6210  -23.1890   16.4650 N   0  3  0  0  0  0  0  0  0  0  0  0
  -30.5611  -26.5800   21.0924 O   0  0  0  0  0  0  0  0  0  0  0  0
  -24.4967  -17.8635   21.0209 O   0  0  0  0  0  0  0  0  0  0  0  0
  -28.4946  -17.9542   19.0301 O   0  0  0  0  0  0  0  0  0  0  0  0
  -28.4070  -22.6984   18.9554 O   0  0  0  0  0  0  0  0  0  0  0  0
  -23.9103  -32.7873   24.0836 O   0  0  0  0  0  0  0  0  0  0  0  0
  -28.2467  -21.0610   26.0694 O   0  0  0  0  0  0  0  0  0  0  0  0
  -21.6672  -22.9035   19.8959 O   0  0  0  0  0  0  0  0  0  1  0  0
  -20.1262  -29.8175   21.5151 O   0  0  0  0  0  0  0  0  0  0  0  0
  -23.3336  -18.9593   27.4289 F   0  0  0  0  0  0  0  0  0  0  0  0
  -26.6729  -22.2657   27.9967 F   0  0  0  0  0  0  0  0  0  0  0  0
  1  2  1  0  0  0  0
  1  5  2  0  0  0  0
  2  6  2  0  0  0  0
  3 10  2  0  0  0  0
  3 18  1  0  0  0  0
  4 11  1  0  0  0  0
  4 18  2  0  0  0  0
  5 20  1  0  0  0  0
  6 22  1  0  0  0  0
  7 12  2  0  0  0  0
  7 21  1  0  0  0  0
  8  9  2  0  0  0  0
  8 24  1  0  0  0  0
  9 25  1  0  0  0  0
 10 26  1  0  0  0  0
 11 26  2  0  0  0  0
 12 27  1  0  0  0  0
 13 14  2  0  0  0  0
 13 28  1  0  0  0  0
 14 30  1  0  0  0  0
 15 23  1  0  0  0  0
 15 27  2  0  0  0  0
 16 25  2  0  0  0  0
 16 29  1  0  0  0  0
 17 30  2  0  0  0  0
 17 31  1  0  0  0  0
 18 32  1  0  0  0  0
 19 32  1  0  0  0  0
 19 33  2  0  0  0  0
 19 34  1  0  0  0  0
 20 22  2  0  0  0  0
 20 39  1  0  0  0  0
 21 23  2  0  0  0  0
 21 40  1  0  0  0  0
 22 48  1  0  0  0  0
 23 41  1  0  0  0  0
 24 29  2  0  0  0  0
 24 64  1  0  0  0  0
 25 74  1  0  0  0  0
 26 84  1  0  0  0  0
 27 85  1  0  0  0  0
 28 31  2  0  0  0  0
 28 84  1  0  0  0  0
 29 86  1  0  0  0  0
 30 87  1  0  0  0  0
 31 88  1  0  0  0  0
 32 68  2  0  0  0  0
 33 69  1  0  0  0  0
 33 72  1  0  0  0  0
 34 73  1  0  0  0  0
 34 79  2  0  0  0  0
 35 49  1  0  0  0  0
 35 75  1  0  0  0  0
 35 80  2  0  0  0  0
 36 65  1  0  0  0  0
 36 70  1  0  0  0  0
 36 81  2  0  0  0  0
 37 66  1  0  0  0  0
 37 76  1  0  0  0  0
 37 82  2  0  0  0  0
 38 71  1  0  0  0  0
 38 77  1  0  0  0  0
 38 83  2  0  0  0  0
 39 42  1  0  0  0  0
 40 49  1  0  0  0  0
 41 70  1  0  0  0  0
 42 44  1  0  0  0  0
 43 45  1  0  0  0  0
 43 46  1  0  0  0  0
 44 48  1  0  0  0  0
 45 50  1  0  0  0  0
 46 71  1  0  0  0  0
 47 50  1  0  0  0  0
 47 71  1  0  0  0  0
 48 75  1  0  0  0  0
 49 70  1  0  0  0  0
 50 69  1  0  0  0  0
 51 58  1  0  0  0  0
 52 64  1  0  0  0  0
 53 66  1  0  0  0  0
 54 67  1  0  0  0  0
 55 67  1  0  0  0  0
 56 67  1  0  0  0  0
 57 78  1  0  0  0  0
 58 64  1  0  0  0  0
 59 60  1  0  0  0  0
 59 62  1  0  0  0  0
 60 77  1  0  0  0  0
 61 63  1  0  0  0  0
 61 74  1  0  0  0  0
 62 86  1  0  0  0  0
 63 85  1  0  0  0  0
 65 67  1  0  0  0  0
 65 76  1  0  0  0  0
 66 78  1  0  0  0  0
 68 69  1  0  0  0  0
M  CHG  1  78   1
M  ISO  4  38 100  63 101  77 100  85 101
M  END
> <Batch ID>
0139

> <Smiles>
CCC(C)c1ccc(NC[101CH2:1][101O:1]c2ccc3c(c2)CN(C(=O)C(NC(=O)C(C)NC)C(C)(C)C)C(C(=O)NC2CCCc4ccccc42)C3)cc1OCCC[100NH:0][100C:0](=O)N1CCCC(n2nc(-c3ccc(Oc4ccc(F)cc4F)cc3)c(C(N)=O)c2N)C1

> <Shape>
0.221

> <Color>
0.063

> <Negative vol penalty>
0.000

$$$$

  -OEChem-04052321103D

 89 99  0     1  0  0  0  0  0999 V2000
  -21.3783  -13.3312   29.6631 C   0  0  0  0  0  0  0  0  0  0  0  0
  -22.7513  -13.5471   29.7233 C   0  0  0  0  0  0  0  0  0  0  0  0
  -22.8458  -10.1061   20.1099 C   0  0  0  0  0  0  0  0  0  0  0  0
  -24.2787   -9.5472   21.9731 C   0  0  0  0  0  0  0  0  0  0  0  0
  -20.5730  -13.6643   30.7515 C   0  0  0  0  0  0  0  0  0  0  0  0
  -23.3197  -14.0973   30.8716 C   0  0  0  0  0  0  0  0  0  0  0  0
  -27.5371  -11.6845   32.2990 C   0  0  0  0  0  0  0  0  0  0  0  0
  -22.1377   -8.9193   20.2985 C   0  0  0  0  0  0  0  0  0  0  0  0
  -23.5705   -8.3604   22.1617 C   0  0  0  0  0  0  0  0  0  0  0  0
  -28.7045  -11.9708   31.5927 C   0  0  0  0  0  0  0  0  0  0  0  0
  -20.6415   -7.4032   23.5493 C   0  0  0  0  0  0  0  0  0  0  0  0
  -20.2847   -7.0637   24.8542 C   0  0  0  0  0  0  0  0  0  0  0  0
  -29.4008  -13.4593   33.3587 C   0  0  0  0  0  0  0  0  0  0  0  0
  -32.8750  -13.5411   23.7992 C   0  0  0  0  0  0  0  0  0  0  0  0
  -21.5548   -5.0168   24.6690 C   0  0  0  0  0  0  0  0  0  0  0  0
  -31.0741  -13.0704   25.0662 C   0  0  0  0  0  0  0  0  0  0  0  0
  -23.9164  -10.4200   20.9471 C   0  0  0  0  0  0  0  0  0  0  0  0
  -24.1410  -12.9574   20.8091 C   0  0  0  0  0  0  0  0  0  0  0  0
  -21.1331  -14.2099   31.9174 C   0  0  0  0  0  0  0  0  0  0  0  0
  -27.2872  -12.2928   33.5375 C   0  0  0  0  0  0  0  0  0  0  0  0
  -22.5210  -14.4392   31.9761 C   0  0  0  0  0  0  0  0  0  0  0  0
  -28.2306  -13.1770   34.0799 C   0  0  0  0  0  0  0  0  0  0  0  0
  -31.5103  -13.1626   23.7629 C   0  0  0  0  0  0  0  0  0  0  0  0
  -22.5000   -8.0464   21.3244 C   0  0  0  0  0  0  0  0  0  0  0  0
  -29.6352  -12.8605   32.1211 C   0  0  0  0  0  0  0  0  0  0  0  0
  -21.4550   -6.5495   22.8041 C   0  0  0  0  0  0  0  0  0  0  0  0
  -20.7413   -5.8705   25.4141 C   0  0  0  0  0  0  0  0  0  0  0  0
  -21.9116   -5.3564   23.3640 C   0  0  0  0  0  0  0  0  0  0  0  0
  -24.6487  -11.6455   20.7524 C   0  0  0  0  0  0  0  0  0  0  0  0
  -33.2314  -13.6685   25.1237 C   0  0  0  0  0  0  0  0  0  0  0  0
  -25.2285  -13.7576   20.5571 C   0  0  0  0  0  0  0  0  0  0  0  0
  -22.8059  -13.4119   21.0666 C   0  0  0  0  0  0  0  0  0  0  0  0
  -25.0449  -14.2417   34.6676 C   0  0  0  0  0  0  0  0  0  0  0  0
  -26.5766  -13.7387   37.4824 C   0  0  0  0  0  0  0  0  0  0  0  0
  -29.4537  -12.8729   39.1008 C   0  0  0  0  0  0  0  0  0  0  0  0
  -31.1110  -12.9981   21.2810 C   0  0  0  0  0  0  0  0  0  0  0  0
  -20.2163  -14.5980   33.0503 C   0  0  0  0  0  0  0  0  0  0  0  0
  -26.0356  -11.9529   34.2994 C   0  0  0  0  0  0  0  0  0  0  0  0
  -28.0193  -13.8411   35.4152 C   0  0  0  0  0  0  0  0  0  0  0  0
  -20.9449  -14.8289   34.3717 C   0  0  0  0  0  0  0  0  0  0  0  0
  -29.4204  -13.7589   18.2413 C   0  0  0  0  0  0  0  0  0  0  0  0
  -22.1807  -15.6965   34.1554 C   0  0  0  0  0  0  0  0  0  0  0  0
  -27.9578  -13.4284   18.5474 C   0  0  0  0  0  0  0  0  0  0  0  0
  -31.0707  -14.4482   27.9217 C   0  0  0  0  0  0  0  0  0  0  0  0
  -31.7463  -12.0026   27.9747 C   0  0  0  0  0  0  0  0  0  0  0  0
  -35.4659  -17.0781   22.3386 C   0  0  0  0  0  0  0  0  0  0  0  0
  -34.5644  -18.1484   22.8855 C   0  0  0  0  0  0  0  0  0  0  0  0
  -31.0212  -14.4605   29.4473 C   0  0  0  0  0  0  0  0  0  0  0  0
  -31.6919  -12.0275   29.5001 C   0  0  0  0  0  0  0  0  0  0  0  0
  -30.3769  -12.7781   18.9172 C   0  0  0  0  0  0  0  0  0  0  0  0
  -28.7168  -12.2846   20.6693 C   0  0  0  0  0  0  0  0  0  0  0  0
  -23.1781  -15.0111   33.2136 C   0  0  1  0  0  0  0  0  0  0  0  0
  -25.6435  -13.0239   35.3127 C   0  0  1  0  0  0  0  0  0  0  0  0
  -32.0649  -13.3949   27.4012 C   0  0  0  0  0  0  0  0  0  0  0  0
  -27.7180  -13.2838   20.0630 C   0  0  2  0  0  0  0  0  0  0  0  0
  -35.3555  -17.2812   23.8227 C   0  0  0  0  0  0  0  0  0  0  0  0
  -30.7078  -13.0774   30.0130 C   0  0  0  0  0  0  0  0  0  1  0  0
  -35.3960  -12.8042   26.0731 C   0  0  0  0  0  0  0  0  0  0  0  0
  -30.4093  -12.5882   41.4037 C   0  0  0  0  0  0  0  0  0  0  0  0
  -26.7771  -16.7696   37.7713 C   0  0  0  0  0  0  0  0  0  0  0  0
  -28.5208  -16.4164   39.5330 C   0  0  0  0  0  0  0  0  0  0  0  0
  -26.2055  -15.5560   39.8820 C   0  0  0  0  0  0  0  0  0  0  0  0
  -30.0131  -10.0035   38.6399 C   0  0  0  0  0  0  0  0  0  0  0  0
  -35.3817  -15.0095   24.8606 C   0  0  0  0  0  0  0  0  0  0  0  0
  -34.5285  -14.0411   25.7244 C   0  0  1  0  0  0  0  0  0  0  0  0
  -27.7168  -14.4057   38.2132 C   0  0  1  0  0  0  0  0  0  0  0  0
  -29.7171  -11.9010   40.2369 C   0  0  2  0  0  0  0  0  0  0  0  0
  -27.3084  -15.7761   38.8238 C   0  0  0  0  0  0  0  0  0  0  0  0
  -25.9569  -11.6100   20.4852 N   0  0  0  0  0  0  0  0  0  0  0  0
  -32.1289  -13.3797   25.8848 N   0  0  0  0  0  0  0  0  0  0  0  0
  -26.2804  -12.9094   20.3716 N   0  0  0  0  0  0  0  0  0  0  0  0
  -26.7771  -13.4813   36.1189 N   0  0  0  0  0  0  0  0  0  0  0  0
  -30.0932  -12.6961   20.3516 N   0  0  0  0  0  0  0  0  0  0  0  0
  -25.3780  -15.0969   20.4781 N   0  0  0  0  0  0  0  0  0  0  0  0
  -21.8091  -12.4561   21.3058 N   0  0  0  0  0  0  0  0  0  0  0  0
  -30.7154  -12.9176   22.6158 N   0  0  0  0  0  0  0  0  0  0  0  0
  -23.9134  -13.9826   33.9179 N   0  0  0  0  0  0  0  0  0  0  0  0
  -28.1982  -13.4356   39.1908 N   0  0  0  0  0  0  0  0  0  0  0  0
  -34.6157  -16.2570   24.6078 N   0  3  0  0  0  0  0  0  0  0  0  0
  -30.5826  -10.7811   39.7704 N   0  3  0  0  0  0  0  0  0  0  0  0
  -22.5023  -14.6290   21.0679 O   0  0  0  0  0  0  0  0  0  0  0  0
  -25.5697  -15.3358   34.8387 O   0  0  0  0  0  0  0  0  0  0  0  0
  -25.5487  -13.4500   38.1004 O   0  0  0  0  0  0  0  0  0  0  0  0
  -30.2807  -13.1119   38.2236 O   0  0  0  0  0  0  0  0  0  0  0  0
  -32.2422  -13.3318   20.9190 O   0  0  0  0  0  0  0  0  0  0  0  0
  -21.8090   -6.8884   21.5089 O   0  0  0  0  0  0  0  0  0  0  0  0
  -30.7752  -13.1422   31.4334 O   0  0  0  0  0  0  0  0  0  1  0  0
  -20.3998   -5.5454   26.6679 F   0  0  0  0  0  0  0  0  0  0  0  0
  -22.6943   -4.5328   22.6534 F   0  0  0  0  0  0  0  0  0  0  0  0
  1  2  1  0  0  0  0
  1  5  2  0  0  0  0
  2  6  2  0  0  0  0
  3  8  2  0  0  0  0
  3 17  1  0  0  0  0
  4  9  1  0  0  0  0
  4 17  2  0  0  0  0
  5 19  1  0  0  0  0
  6 21  1  0  0  0  0
  7 10  2  0  0  0  0
  7 20  1  0  0  0  0
  8 24  1  0  0  0  0
  9 24  2  0  0  0  0
 10 25  1  0  0  0  0
 11 12  2  0  0  0  0
 11 26  1  0  0  0  0
 12 27  1  0  0  0  0
 13 22  1  0  0  0  0
 13 25  2  0  0  0  0
 14 23  1  0  0  0  0
 14 30  2  0  0  0  0
 15 27  2  0  0  0  0
 15 28  1  0  0  0  0
 16 23  2  0  0  0  0
 16 70  1  0  0  0  0
 17 29  1  0  0  0  0
 18 29  1  0  0  0  0
 18 31  2  0  0  0  0
 18 32  1  0  0  0  0
 19 21  2  0  0  0  0
 19 37  1  0  0  0  0
 20 22  2  0  0  0  0
 20 38  1  0  0  0  0
 21 52  1  0  0  0  0
 22 39  1  0  0  0  0
 23 76  1  0  0  0  0
 24 86  1  0  0  0  0
 25 87  1  0  0  0  0
 26 28  2  0  0  0  0
 26 86  1  0  0  0  0
 27 88  1  0  0  0  0
 28 89  1  0  0  0  0
 29 69  2  0  0  0  0
 30 65  1  0  0  0  0
 30 70  1  0  0  0  0
 31 71  1  0  0  0  0
 31 74  1  0  0  0  0
 32 75  1  0  0  0  0
 32 81  2  0  0  0  0
 33 53  1  0  0  0  0
 33 77  1  0  0  0  0
 33 82  2  0  0  0  0
 34 66  1  0  0  0  0
 34 72  1  0  0  0  0
 34 83  2  0  0  0  0
 35 67  1  0  0  0  0
 35 78  1  0  0  0  0
 35 84  2  0  0  0  0
 36 73  1  0  0  0  0
 36 76  1  0  0  0  0
 36 85  2  0  0  0  0
 37 40  1  0  0  0  0
 38 53  1  0  0  0  0
 39 72  1  0  0  0  0
 40 42  1  0  0  0  0
 41 43  1  0  0  0  0
 41 50  1  0  0  0  0
 42 52  1  0  0  0  0
 43 55  1  0  0  0  0
 44 48  1  0  0  0  0
 44 54  1  0  0  0  0
 45 49  1  0  0  0  0
 45 54  1  0  0  0  0
 46 47  1  0  0  0  0
 46 56  1  0  0  0  0
 47 56  1  0  0  0  0
 48 57  1  0  0  0  0
 49 57  1  0  0  0  0
 50 73  1  0  0  0  0
 51 55  1  0  0  0  0
 51 73  1  0  0  0  0
 52 77  1  0  0  0  0
 53 72  1  0  0  0  0
 54 70  1  0  0  0  0
 55 71  1  0  0  0  0
 56 79  1  0  0  0  0
 57 87  1  0  0  0  0
 58 65  1  0  0  0  0
 59 67  1  0  0  0  0
 60 68  1  0  0  0  0
 61 68  1  0  0  0  0
 62 68  1  0  0  0  0
 63 80  1  0  0  0  0
 64 65  1  0  0  0  0
 64 79  1  0  0  0  0
 66 68  1  0  0  0  0
 66 78  1  0  0  0  0
 67 80  1  0  0  0  0
 69 71  1  0  0  0  0
M  CHG  2  79   1  80   1
M  ISO  4  36 100  57 101  76 100  87 101
M  END
> <Batch ID>
0139

> <Smiles>
CNC(C)C(=O)NC(C(=O)N1Cc2cc([101O:1][101CH:1]3CCC(n4cc([100NH:0][100C:0](=O)N5CCCC(n6nc(-c7ccc(Oc8ccc(F)cc8F)cc7)c(C(N)=O)c6N)C5)cc4C(C)CNC4CC4)CC3)ccc2CC1C(=O)NC1CCCc2ccccc21)C(C)(C)C

> <Shape>
0.149

> <Color>
0.171

> <Negative vol penalty>
0.000

$$$$
