
  -OEChem-04052321133D

 77 85  0     1  0  0  0  0  0999 V2000
  -33.9310  -16.0793   39.3399 C   0  0  0  0  0  0  0  0  0  0  0  0
  -34.2204  -15.9743   37.9832 C   0  0  0  0  0  0  0  0  0  0  0  0
  -23.2884   -9.7997   19.9126 C   0  0  0  0  0  0  0  0  0  0  0  0
  -23.7388   -9.9398   22.2821 C   0  0  0  0  0  0  0  0  0  0  0  0
  -32.9564  -15.2605   39.9090 C   0  0  0  0  0  0  0  0  0  0  0  0
  -33.5363  -15.0496   37.1950 C   0  0  0  0  0  0  0  0  0  0  0  0
  -31.9061  -15.7051   31.3283 C   0  0  0  0  0  0  0  0  0  0  0  0
  -22.5620   -8.6271   20.1200 C   0  0  0  0  0  0  0  0  0  0  0  0
  -23.0123   -8.7673   22.4896 C   0  0  0  0  0  0  0  0  0  0  0  0
  -32.4806  -15.2575   30.1394 C   0  0  0  0  0  0  0  0  0  0  0  0
  -19.7652   -7.8563   22.7062 C   0  0  0  0  0  0  0  0  0  0  0  0
  -18.8626   -7.8345   23.7694 C   0  0  0  0  0  0  0  0  0  0  0  0
  -31.0007  -13.3524   30.1487 C   0  0  0  0  0  0  0  0  0  0  0  0
  -20.0681   -5.9870   24.7547 C   0  0  0  0  0  0  0  0  0  0  0  0
  -23.8769  -10.4560   20.9937 C   0  0  0  0  0  0  0  0  0  0  0  0
  -24.1364  -12.9860   20.7956 C   0  0  0  0  0  0  0  0  0  0  0  0
  -32.2532  -14.3321   39.1254 C   0  0  0  0  0  0  0  0  0  0  0  0
  -30.8803  -14.9729   31.9430 C   0  0  0  0  0  0  0  0  0  0  0  0
  -32.5524  -14.2167   37.7544 C   0  0  0  0  0  0  0  0  0  0  0  0
  -30.4131  -13.7943   31.3439 C   0  0  0  0  0  0  0  0  0  0  0  0
  -22.4239   -8.1109   21.4085 C   0  0  0  0  0  0  0  0  0  0  0  0
  -32.0299  -14.0794   29.5510 C   0  0  0  0  0  0  0  0  0  0  0  0
  -20.8192   -6.9435   22.6671 C   0  0  0  0  0  0  0  0  0  0  0  0
  -19.0141   -6.8999   24.7937 C   0  0  0  0  0  0  0  0  0  0  0  0
  -20.9706   -6.0089   23.6914 C   0  0  0  0  0  0  0  0  0  0  0  0
  -24.6279  -11.6669   20.7800 C   0  0  0  0  0  0  0  0  0  0  0  0
  -25.2380  -13.7659   20.5410 C   0  0  0  0  0  0  0  0  0  0  0  0
  -22.8034  -13.4636   21.0203 C   0  0  0  0  0  0  0  0  0  0  0  0
  -30.5417  -13.4986   34.7387 C   0  0  0  0  0  0  0  0  0  0  0  0
  -27.4931  -13.0857   33.7103 C   0  0  0  0  0  0  0  0  0  0  0  0
  -25.3241  -12.8824   31.0833 C   0  0  0  0  0  0  0  0  0  0  0  0
  -31.1088  -12.9225   21.3615 C   0  0  0  0  0  0  0  0  0  0  0  0
  -31.2417  -13.4356   39.7947 C   0  0  0  0  0  0  0  0  0  0  0  0
  -30.2527  -15.4833   33.2111 C   0  0  0  0  0  0  0  0  0  0  0  0
  -29.3006  -12.9822   31.9531 C   0  0  0  0  0  0  0  0  0  0  0  0
  -30.2988  -12.7427   38.8144 C   0  0  0  0  0  0  0  0  0  0  0  0
  -29.4605  -13.6626   18.2936 C   0  0  0  0  0  0  0  0  0  0  0  0
  -31.0831  -12.1489   37.6485 C   0  0  0  0  0  0  0  0  0  0  0  0
  -32.1079  -14.6034   25.6614 C   0  0  0  0  0  0  0  0  0  0  0  0
  -27.9907  -13.3540   18.5844 C   0  0  0  0  0  0  0  0  0  0  0  0
  -31.6646  -14.6015   24.1947 C   0  0  0  0  0  0  0  0  0  0  0  0
  -31.3471  -12.3881   25.0556 C   0  0  0  0  0  0  0  0  0  0  0  0
  -30.3936  -12.6830   19.0019 C   0  0  0  0  0  0  0  0  0  0  0  0
  -28.7066  -12.2533   20.7465 C   0  0  0  0  0  0  0  0  0  0  0  0
  -31.8144  -13.2431   36.8614 C   0  0  1  0  0  0  0  0  0  0  0  0
  -29.5661  -14.3879   34.0210 C   0  0  1  0  0  0  0  0  0  0  0  0
  -32.1988  -13.1313   26.0837 C   0  0  2  0  0  0  0  0  0  0  0  0
  -27.7288  -13.2487   20.0988 C   0  0  2  0  0  0  0  0  0  0  0  0
  -31.6703  -13.1357   23.7695 C   0  0  1  0  0  0  0  0  0  0  0  0
  -22.9008  -12.5007   30.5545 C   0  0  0  0  0  0  0  0  0  0  0  0
  -27.8477  -10.1035   34.2495 C   0  0  0  0  0  0  0  0  0  0  0  0
  -25.8173   -9.6796   32.8474 C   0  0  0  0  0  0  0  0  0  0  0  0
  -25.6289  -11.0311   34.9356 C   0  0  0  0  0  0  0  0  0  0  0  0
  -25.0603  -15.5461   29.8207 C   0  0  0  0  0  0  0  0  0  0  0  0
  -31.7539  -12.8899   27.5103 C   0  0  0  0  0  0  0  0  0  1  0  0
  -26.7680  -12.0297   32.9115 C   0  0  1  0  0  0  0  0  0  0  0  0
  -23.9771  -13.5375   30.8362 C   0  0  2  0  0  0  0  0  0  0  0  0
  -26.5378  -10.7250   33.7253 C   0  0  0  0  0  0  0  0  0  0  0  0
  -25.9396  -11.6083   20.5347 N   0  0  0  0  0  0  0  0  0  0  0  0
  -26.2816  -12.9002   20.3937 N   0  0  0  0  0  0  0  0  0  0  0  0
  -28.7234  -13.5193   33.1965 N   0  0  0  0  0  0  0  0  0  0  0  0
  -30.0940  -12.6313   20.4349 N   0  0  0  0  0  0  0  0  0  0  0  0
  -25.4060  -15.1008   20.4308 N   0  0  0  0  0  0  0  0  0  0  0  0
  -21.7907  -12.5267   21.2674 N   0  0  0  0  0  0  0  0  0  0  0  0
  -30.8909  -13.9475   35.9981 N   0  0  0  0  0  0  0  0  0  0  0  0
  -25.5427  -12.6549   32.4256 N   0  0  0  0  0  0  0  0  0  0  0  0
  -30.7389  -12.8567   22.6992 N   0  0  0  0  0  0  0  0  0  0  0  0
  -24.0567  -14.4612   29.6694 N   0  3  0  0  0  0  0  0  0  0  0  0
  -22.5156  -14.6841   20.9862 O   0  0  0  0  0  0  0  0  0  0  0  0
  -30.9465  -12.4799   34.1910 O   0  0  0  0  0  0  0  0  0  0  0  0
  -26.9831  -13.5154   34.7480 O   0  0  0  0  0  0  0  0  0  0  0  0
  -26.1026  -12.5974   30.1761 O   0  0  0  0  0  0  0  0  0  0  0  0
  -32.2579  -13.2243   21.0216 O   0  0  0  0  0  0  0  0  0  0  0  0
  -21.7149   -6.9669   21.6113 O   0  0  0  0  0  0  0  0  0  0  0  0
  -32.5894  -13.6399   28.3910 O   0  0  0  0  0  0  0  0  0  1  0  0
  -18.1482   -6.8800   25.8155 F   0  0  0  0  0  0  0  0  0  0  0  0
  -21.9819   -5.1302   23.6600 F   0  0  0  0  0  0  0  0  0  0  0  0
  1  2  1  0  0  0  0
  1  5  2  0  0  0  0
  2  6  2  0  0  0  0
  3  8  2  0  0  0  0
  3 15  1  0  0  0  0
  4  9  1  0  0  0  0
  4 15  2  0  0  0  0
  5 17  1  0  0  0  0
  6 19  1  0  0  0  0
  7 10  2  0  0  0  0
  7 18  1  0  0  0  0
  8 21  1  0  0  0  0
  9 21  2  0  0  0  0
 10 22  1  0  0  0  0
 11 12  2  0  0  0  0
 11 23  1  0  0  0  0
 12 24  1  0  0  0  0
 13 20  1  0  0  0  0
 13 22  2  0  0  0  0
 14 24  2  0  0  0  0
 14 25  1  0  0  0  0
 15 26  1  0  0  0  0
 16 26  1  0  0  0  0
 16 27  2  0  0  0  0
 16 28  1  0  0  0  0
 17 19  2  0  0  0  0
 17 33  1  0  0  0  0
 18 20  2  0  0  0  0
 18 34  1  0  0  0  0
 19 45  1  0  0  0  0
 20 35  1  0  0  0  0
 21 74  1  0  0  0  0
 22 75  1  0  0  0  0
 23 25  2  0  0  0  0
 23 74  1  0  0  0  0
 24 76  1  0  0  0  0
 25 77  1  0  0  0  0
 26 59  2  0  0  0  0
 27 60  1  0  0  0  0
 27 63  1  0  0  0  0
 28 64  1  0  0  0  0
 28 69  2  0  0  0  0
 29 46  1  0  0  0  0
 29 65  1  0  0  0  0
 29 70  2  0  0  0  0
 30 56  1  0  0  0  0
 30 61  1  0  0  0  0
 30 71  2  0  0  0  0
 31 57  1  0  0  0  0
 31 66  1  0  0  0  0
 31 72  2  0  0  0  0
 32 62  1  0  0  0  0
 32 67  1  0  0  0  0
 32 73  2  0  0  0  0
 33 36  1  0  0  0  0
 34 46  1  0  0  0  0
 35 61  1  0  0  0  0
 36 38  1  0  0  0  0
 37 40  1  0  0  0  0
 37 43  1  0  0  0  0
 38 45  1  0  0  0  0
 39 41  1  0  0  0  0
 39 47  1  0  0  0  0
 40 48  1  0  0  0  0
 41 49  1  0  0  0  0
 42 47  1  0  0  0  0
 42 49  1  0  0  0  0
 43 62  1  0  0  0  0
 44 48  1  0  0  0  0
 44 62  1  0  0  0  0
 45 65  1  0  0  0  0
 46 61  1  0  0  0  0
 47 55  1  0  0  0  0
 48 60  1  0  0  0  0
 49 67  1  0  0  0  0
 50 57  1  0  0  0  0
 51 58  1  0  0  0  0
 52 58  1  0  0  0  0
 53 58  1  0  0  0  0
 54 68  1  0  0  0  0
 55 75  1  0  0  0  0
 56 58  1  0  0  0  0
 56 66  1  0  0  0  0
 57 68  1  0  0  0  0
 59 60  1  0  0  0  0
M  CHG  1  68   1
M  ISO  4  32 100  55 101  67 100  75 101
M  END
> <Batch ID>
0140

> <Smiles>
CNC(C)C(=O)NC(C(=O)N1Cc2cc([101O:1][101CH2:1]C3CCC([100NH:0][100C:0](=O)N4CCCC(n5nc(-c6ccc(Oc7ccc(F)cc7F)cc6)c(C(N)=O)c5N)C4)C3)ccc2CC1C(=O)NC1CCCc2ccccc21)C(C)(C)C

> <Shape>
0.137

> <Color>
0.182

> <Negative vol penalty>
0.000

$$$$

  -OEChem-04052321133D

 85 94  0     1  0  0  0  0  0999 V2000
  -21.2543  -32.6780   13.9275 C   0  0  0  0  0  0  0  0  0  0  0  0
  -22.1389  -31.6707   14.2994 C   0  0  0  0  0  0  0  0  0  0  0  0
  -24.1970   -9.4623   22.0203 C   0  0  0  0  0  0  0  0  0  0  0  0
  -23.1468   -9.5644   19.8469 C   0  0  0  0  0  0  0  0  0  0  0  0
  -21.2697  -33.9003   14.5981 C   0  0  0  0  0  0  0  0  0  0  0  0
  -23.0402  -31.8856   15.3415 C   0  0  0  0  0  0  0  0  0  0  0  0
  -25.0146  -27.7571   19.4113 C   0  0  0  0  0  0  0  0  0  0  0  0
  -23.2248   -8.5579   22.4476 C   0  0  0  0  0  0  0  0  0  0  0  0
  -22.1745   -8.6601   20.2742 C   0  0  0  0  0  0  0  0  0  0  0  0
  -26.1779  -26.9920   19.4822 C   0  0  0  0  0  0  0  0  0  0  0  0
  -22.5724   -5.2575   22.1096 C   0  0  0  0  0  0  0  0  0  0  0  0
  -22.9985   -4.1353   22.8201 C   0  0  0  0  0  0  0  0  0  0  0  0
  -28.3380  -18.9577   22.4986 C   0  0  0  0  0  0  0  0  0  0  0  0
  -27.1636  -28.6371   20.9455 C   0  0  0  0  0  0  0  0  0  0  0  0
  -28.6564  -20.3931   20.1278 C   0  0  0  0  0  0  0  0  0  0  0  0
  -21.6546   -4.8201   24.7075 C   0  0  0  0  0  0  0  0  0  0  0  0
  -24.1580   -9.9656   20.7200 C   0  0  0  0  0  0  0  0  0  0  0  0
  -28.4290  -18.2826   21.2815 C   0  0  0  0  0  0  0  0  0  0  0  0
  -26.3941  -10.5989   19.6682 C   0  0  0  0  0  0  0  0  0  0  0  0
  -22.1650  -34.1268   15.6553 C   0  0  0  0  0  0  0  0  0  0  0  0
  -24.9209  -28.9754   20.0993 C   0  0  0  0  0  0  0  0  0  0  0  0
  -23.0685  -33.1125   16.0260 C   0  0  0  0  0  0  0  0  0  0  0  0
  -25.9970  -29.4146   20.8837 C   0  0  0  0  0  0  0  0  0  0  0  0
  -28.5654  -21.0683   21.3450 C   0  0  0  0  0  0  0  0  0  0  0  0
  -28.4062  -20.3506   22.5304 C   0  0  0  0  0  0  0  0  0  0  0  0
  -22.2136   -8.1568   21.5746 C   0  0  0  0  0  0  0  0  0  0  0  0
  -27.2537  -27.4333   20.2471 C   0  0  0  0  0  0  0  0  0  0  0  0
  -21.6875   -6.1610   22.6981 C   0  0  0  0  0  0  0  0  0  0  0  0
  -28.5882  -19.0003   20.0961 C   0  0  0  0  0  0  0  0  0  0  0  0
  -22.5395   -3.9166   24.1190 C   0  0  0  0  0  0  0  0  0  0  0  0
  -21.2286   -5.9423   23.9970 C   0  0  0  0  0  0  0  0  0  0  0  0
  -25.1616  -10.9002   20.2781 C   0  0  0  0  0  0  0  0  0  0  0  0
  -26.9748  -11.8233   19.4442 C   0  0  0  0  0  0  0  0  0  0  0  0
  -28.3546  -16.8165   21.2702 C   0  0  0  0  0  0  0  0  0  0  0  0
  -26.9632   -9.3260   19.3339 C   0  0  0  0  0  0  0  0  0  0  0  0
  -24.5117  -32.0092   19.2435 C   0  0  0  0  0  0  0  0  0  0  0  0
  -24.3315  -32.4820   22.4476 C   0  0  0  0  0  0  0  0  0  0  0  0
  -25.1155  -31.3930   25.5855 C   0  0  0  0  0  0  0  0  0  0  0  0
  -22.1766  -35.4810   16.3192 C   0  0  0  0  0  0  0  0  0  0  0  0
  -23.6492  -29.7760   20.0340 C   0  0  0  0  0  0  0  0  0  0  0  0
  -25.9394  -30.7054   21.6577 C   0  0  0  0  0  0  0  0  0  0  0  0
  -22.9077  -35.4961   17.6592 C   0  0  0  0  0  0  0  0  0  0  0  0
  -25.0646  -16.4917   19.7747 C   0  0  0  0  0  0  0  0  0  0  0  0
  -27.2463  -23.2285   21.2767 C   0  0  0  0  0  0  0  0  0  0  0  0
  -29.5597  -23.1176   20.2400 C   0  0  0  0  0  0  0  0  0  0  0  0
  -24.2451  -34.7712   17.5458 C   0  0  0  0  0  0  0  0  0  0  0  0
  -24.8944  -14.9723   19.7419 C   0  0  0  0  0  0  0  0  0  0  0  0
  -27.3345  -24.7523   21.2949 C   0  0  0  0  0  0  0  0  0  0  0  0
  -29.6360  -24.6420   20.2641 C   0  0  0  0  0  0  0  0  0  0  0  0
  -25.8221  -16.9394   21.0210 C   0  0  0  0  0  0  0  0  0  0  0  0
  -26.9844  -14.7617   21.1620 C   0  0  0  0  0  0  0  0  0  0  0  0
  -28.6419  -22.5841   21.3543 C   0  0  0  0  0  0  0  0  0  0  0  0
  -24.0442  -33.2988   17.1677 C   0  0  1  0  0  0  0  0  0  0  0  0
  -23.8546  -31.2516   20.3624 C   0  0  1  0  0  0  0  0  0  0  0  0
  -26.2474  -14.2566   19.9094 C   0  0  1  0  0  0  0  0  0  0  0  0
  -28.2499  -25.2779   20.1906 C   0  0  0  0  0  0  0  0  0  1  0  0
  -28.3061  -21.0520   23.8451 C   0  0  0  0  0  0  0  0  0  0  0  0
  -24.8646  -32.0102   28.0049 C   0  0  0  0  0  0  0  0  0  0  0  0
  -26.5114  -34.5935   22.1325 C   0  0  0  0  0  0  0  0  0  0  0  0
  -26.8802  -34.4817   24.6063 C   0  0  0  0  0  0  0  0  0  0  0  0
  -24.6729  -35.2192   23.7082 C   0  0  0  0  0  0  0  0  0  0  0  0
  -23.5916  -28.9258   26.1768 C   0  0  0  0  0  0  0  0  0  0  0  0
  -28.8407  -19.1732   17.7377 C   0  0  0  0  0  0  0  0  0  0  0  0
  -25.3274  -32.7829   23.5416 C   0  0  1  0  0  0  0  0  0  0  0  0
  -24.2716  -31.2366   26.8376 C   0  0  2  0  0  0  0  0  0  0  0  0
  -25.8501  -34.2459   23.4811 C   0  0  0  0  0  0  0  0  0  0  0  0
  -24.9698  -12.2130   20.4320 N   0  0  0  0  0  0  0  0  0  0  0  0
  -26.0895  -12.7475   19.9156 N   0  0  0  0  0  0  0  0  0  0  0  0
  -27.0976  -16.2213   21.1386 N   0  0  0  0  0  0  0  0  0  0  0  0
  -24.6767  -31.4557   21.5568 N   0  0  0  0  0  0  0  0  0  0  0  0
  -28.1513  -12.1887   18.8921 N   0  0  0  0  0  0  0  0  0  0  0  0
  -26.2325   -8.1681   19.6334 N   0  0  0  0  0  0  0  0  0  0  0  0
  -23.6252  -32.5331   18.3221 N   0  0  0  0  0  0  0  0  0  0  0  0
  -24.6721  -32.4339   24.7974 N   0  0  0  0  0  0  0  0  0  0  0  0
  -24.1794  -29.8002   27.2241 N   0  3  0  0  0  0  0  0  0  0  0  0
  -29.4249  -16.2183   21.3690 O   0  0  0  0  0  0  0  0  0  0  0  0
  -28.0935   -9.2180   18.8008 O   0  0  0  0  0  0  0  0  0  0  0  0
  -25.7326  -32.1121   19.2188 O   0  0  0  0  0  0  0  0  0  0  0  0
  -23.2827  -33.1287   22.3900 O   0  0  0  0  0  0  0  0  0  0  0  0
  -26.0746  -30.6669   25.3337 O   0  0  0  0  0  0  0  0  0  0  0  0
  -21.2649   -7.2742   21.9911 O   0  0  0  0  0  0  0  0  0  0  0  0
  -28.3906  -26.6887   20.3175 O   0  0  0  0  0  0  0  0  0  1  0  0
  -28.6793  -18.3589   18.8970 O   0  0  0  0  0  0  0  0  0  0  0  0
  -22.9475   -2.8381   24.8006 F   0  0  0  0  0  0  0  0  0  0  0  0
  -20.3774   -6.8061   24.5671 F   0  0  0  0  0  0  0  0  0  0  0  0
  1  2  1  0  0  0  0
  1  5  2  0  0  0  0
  2  6  2  0  0  0  0
  3  8  2  0  0  0  0
  3 17  1  0  0  0  0
  4  9  1  0  0  0  0
  4 17  2  0  0  0  0
  5 20  1  0  0  0  0
  6 22  1  0  0  0  0
  7 10  2  0  0  0  0
  7 21  1  0  0  0  0
  8 26  1  0  0  0  0
  9 26  2  0  0  0  0
 10 27  1  0  0  0  0
 11 12  2  0  0  0  0
 11 28  1  0  0  0  0
 12 30  1  0  0  0  0
 13 18  2  0  0  0  0
 13 25  1  0  0  0  0
 14 23  1  0  0  0  0
 14 27  2  0  0  0  0
 15 24  1  0  0  0  0
 15 29  2  0  0  0  0
 16 30  2  0  0  0  0
 16 31  1  0  0  0  0
 17 32  1  0  0  0  0
 18 29  1  0  0  0  0
 18 34  1  0  0  0  0
 19 32  1  0  0  0  0
 19 33  2  0  0  0  0
 19 35  1  0  0  0  0
 20 22  2  0  0  0  0
 20 39  1  0  0  0  0
 21 23  2  0  0  0  0
 21 40  1  0  0  0  0
 22 53  1  0  0  0  0
 23 41  1  0  0  0  0
 24 25  2  0  0  0  0
 24 52  1  0  0  0  0
 25 57  1  0  0  0  0
 26 81  1  0  0  0  0
 27 82  1  0  0  0  0
 28 31  2  0  0  0  0
 28 81  1  0  0  0  0
 29 83  1  0  0  0  0
 30 84  1  0  0  0  0
 31 85  1  0  0  0  0
 32 67  2  0  0  0  0
 33 68  1  0  0  0  0
 33 71  1  0  0  0  0
 34 69  1  0  0  0  0
 34 76  2  0  0  0  0
 35 72  1  0  0  0  0
 35 77  2  0  0  0  0
 36 54  1  0  0  0  0
 36 73  1  0  0  0  0
 36 78  2  0  0  0  0
 37 64  1  0  0  0  0
 37 70  1  0  0  0  0
 37 79  2  0  0  0  0
 38 65  1  0  0  0  0
 38 74  1  0  0  0  0
 38 80  2  0  0  0  0
 39 42  1  0  0  0  0
 40 54  1  0  0  0  0
 41 70  1  0  0  0  0
 42 46  1  0  0  0  0
 43 47  1  0  0  0  0
 43 50  1  0  0  0  0
 44 48  1  0  0  0  0
 44 52  1  0  0  0  0
 45 49  1  0  0  0  0
 45 52  1  0  0  0  0
 46 53  1  0  0  0  0
 47 55  1  0  0  0  0
 48 56  1  0  0  0  0
 49 56  1  0  0  0  0
 50 69  1  0  0  0  0
 51 55  1  0  0  0  0
 51 69  1  0  0  0  0
 53 73  1  0  0  0  0
 54 70  1  0  0  0  0
 55 68  1  0  0  0  0
 56 82  1  0  0  0  0
 58 65  1  0  0  0  0
 59 66  1  0  0  0  0
 60 66  1  0  0  0  0
 61 66  1  0  0  0  0
 62 75  1  0  0  0  0
 63 83  1  0  0  0  0
 64 66  1  0  0  0  0
 64 74  1  0  0  0  0
 65 75  1  0  0  0  0
 67 68  1  0  0  0  0
M  CHG  1  75   1
M  ISO  4  18 100  34 100  56 101  82 101
M  END
> <Batch ID>
0140

> <Smiles>
CNC(C)C(=O)NC(C(=O)N1Cc2cc([101O:1][101CH:1]3CCC(c4cc(OC)[100c:0]([100C:0](=O)N5CCCC(n6nc(-c7ccc(Oc8ccc(F)cc8F)cc7)c(C(N)=O)c6N)C5)cc4C)CC3)ccc2CC1C(=O)NC1CCCc2ccccc21)C(C)(C)C

> <Shape>
0.329

> <Color>
0.114

> <Negative vol penalty>
0.000

$$$$

  -OEChem-04052321133D

 83 92  0     1  0  0  0  0  0999 V2000
  -18.2894  -28.4825   18.5450 C   0  0  0  0  0  0  0  0  0  0  0  0
  -19.6609  -28.3190   18.3779 C   0  0  0  0  0  0  0  0  0  0  0  0
  -26.5904  -11.9191   21.6365 C   0  0  0  0  0  0  0  0  0  0  0  0
  -25.6121  -13.5718   20.1707 C   0  0  0  0  0  0  0  0  0  0  0  0
  -17.8038  -29.2500   19.6027 C   0  0  0  0  0  0  0  0  0  0  0  0
  -20.5475  -28.9240   19.2679 C   0  0  0  0  0  0  0  0  0  0  0  0
  -24.2596  -25.8063   20.7328 C   0  0  0  0  0  0  0  0  0  0  0  0
  -25.3651  -11.2564   21.7071 C   0  0  0  0  0  0  0  0  0  0  0  0
  -24.3867  -12.9090   20.2412 C   0  0  0  0  0  0  0  0  0  0  0  0
  -25.3090  -25.6012   19.8381 C   0  0  0  0  0  0  0  0  0  0  0  0
  -20.9093  -11.8550   20.3227 C   0  0  0  0  0  0  0  0  0  0  0  0
  -19.7644  -12.6278   20.5165 C   0  0  0  0  0  0  0  0  0  0  0  0
  -26.6558  -27.1826   21.0646 C   0  0  0  0  0  0  0  0  0  0  0  0
  -20.6632  -13.4346   22.6090 C   0  0  0  0  0  0  0  0  0  0  0  0
  -26.7139  -13.0768   20.8683 C   0  0  0  0  0  0  0  0  0  0  0  0
  -29.0108  -13.5456   19.8624 C   0  0  0  0  0  0  0  0  0  0  0  0
  -18.6847  -29.8568   20.5119 C   0  0  0  0  0  0  0  0  0  0  0  0
  -24.3968  -26.7108   21.7955 C   0  0  0  0  0  0  0  0  0  0  0  0
  -20.0733  -29.7015   20.3381 C   0  0  0  0  0  0  0  0  0  0  0  0
  -25.6076  -27.3955   21.9729 C   0  0  0  0  0  0  0  0  0  0  0  0
  -24.2632  -11.7513   21.0095 C   0  0  0  0  0  0  0  0  0  0  0  0
  -26.5063  -26.2915   20.0022 C   0  0  0  0  0  0  0  0  0  0  0  0
  -21.9311  -11.8719   21.2721 C   0  0  0  0  0  0  0  0  0  0  0  0
  -19.6414  -13.4176   21.6596 C   0  0  0  0  0  0  0  0  0  0  0  0
  -21.8081  -12.6617   22.4152 C   0  0  0  0  0  0  0  0  0  0  0  0
  -27.9792  -13.7622   20.7955 C   0  0  0  0  0  0  0  0  0  0  0  0
  -29.9892  -14.4415   20.2181 C   0  0  0  0  0  0  0  0  0  0  0  0
  -29.0786  -12.6176   18.7716 C   0  0  0  0  0  0  0  0  0  0  0  0
  -22.9335  -29.3977   22.6575 C   0  0  0  0  0  0  0  0  0  0  0  0
  -24.7982  -29.1076   25.2959 C   0  0  0  0  0  0  0  0  0  0  0  0
  -27.6364  -27.8500   26.7137 C   0  0  0  0  0  0  0  0  0  0  0  0
  -29.5120  -19.6410   23.3554 C   0  0  0  0  0  0  0  0  0  0  0  0
  -18.1141  -30.7162   21.6121 C   0  0  0  0  0  0  0  0  0  0  0  0
  -23.2648  -26.9009   22.7676 C   0  0  0  0  0  0  0  0  0  0  0  0
  -25.8127  -28.3623   23.1094 C   0  0  0  0  0  0  0  0  0  0  0  0
  -19.1097  -31.0150   22.7300 C   0  0  0  0  0  0  0  0  0  0  0  0
  -31.7355  -16.7867   24.0044 C   0  0  0  0  0  0  0  0  0  0  0  0
  -20.4539  -31.4408   22.1480 C   0  0  0  0  0  0  0  0  0  0  0  0
  -26.8654  -21.6716   23.6702 C   0  0  0  0  0  0  0  0  0  0  0  0
  -26.7431  -22.9031   22.8169 C   0  0  0  0  0  0  0  0  0  0  0  0
  -31.0768  -15.6573   23.2120 C   0  0  0  0  0  0  0  0  0  0  0  0
  -30.3382  -21.0982   20.1479 C   0  0  0  0  0  0  0  0  0  0  0  0
  -30.7141  -17.8093   24.4963 C   0  0  0  0  0  0  0  0  0  0  0  0
  -30.0222  -19.7948   20.8683 C   0  0  0  0  0  0  0  0  0  0  0  0
  -29.1881  -17.2309   22.6455 C   0  0  0  0  0  0  0  0  0  0  0  0
  -21.0662  -30.3215   21.2972 C   0  0  1  0  0  0  0  0  0  0  0  0
  -23.3345  -28.2298   23.5136 C   0  0  1  0  0  0  0  0  0  0  0  0
  -27.3467  -21.6500   22.2458 C   0  0  0  0  0  0  0  0  0  0  0  0
  -30.1930  -16.2163   22.0820 C   0  0  2  0  0  0  0  0  0  0  0  0
  -28.8165  -21.5885   21.9447 C   0  0  2  0  0  0  0  0  0  0  0  0
  -29.1200  -21.9433   20.4864 C   0  0  1  0  0  0  0  0  0  0  0  0
  -28.9085  -27.8135   28.8765 C   0  0  0  0  0  0  0  0  0  0  0  0
  -25.7643  -31.9542   24.7728 C   0  0  0  0  0  0  0  0  0  0  0  0
  -27.6706  -31.5202   26.3369 C   0  0  0  0  0  0  0  0  0  0  0  0
  -25.3238  -31.4273   27.1776 C   0  0  0  0  0  0  0  0  0  0  0  0
  -27.4010  -24.9083   26.9367 C   0  0  0  0  0  0  0  0  0  0  0  0
  -29.4326  -23.8671   18.9244 C   0  0  0  0  0  0  0  0  0  0  0  0
  -28.8565  -26.2530   19.6405 C   0  0  0  0  0  0  0  0  0  1  0  0
  -26.1799  -29.5749   25.6851 C   0  0  1  0  0  0  0  0  0  0  0  0
  -27.8678  -27.1104   28.0190 C   0  0  2  0  0  0  0  0  0  0  0  0
  -29.8032  -25.3462   18.8607 C   0  0  1  0  0  0  0  0  0  0  0  0
  -26.2304  -31.1024   25.9704 C   0  0  0  0  0  0  0  0  0  0  0  0
  -28.2747  -14.7205   21.6778 N   0  0  0  0  0  0  0  0  0  0  0  0
  -29.5032  -15.1139   21.3007 N   0  0  0  0  0  0  0  0  0  0  0  0
  -24.6742  -28.5187   24.0295 N   0  0  0  0  0  0  0  0  0  0  0  0
  -29.8757  -18.2882   23.3970 N   0  0  0  0  0  0  0  0  0  0  0  0
  -29.3370  -20.2180   22.0936 N   0  0  0  0  0  0  0  0  0  0  0  0
  -31.2093  -14.7119   19.7075 N   0  0  0  0  0  0  0  0  0  0  0  0
  -27.9854  -11.7699   18.5467 N   0  0  0  0  0  0  0  0  0  0  0  0
  -21.6536  -29.3061   22.1448 N   0  0  0  0  0  0  0  0  0  0  0  0
  -26.5901  -28.7428   26.8111 N   0  0  0  0  0  0  0  0  0  0  0  0
  -29.4212  -23.3802   20.3342 N   0  3  0  0  0  0  0  0  0  0  0  0
  -28.3395  -25.7223   27.7513 N   0  3  0  0  0  0  0  0  0  0  0  0
  -30.0857  -12.5310   18.0287 O   0  0  0  0  0  0  0  0  0  0  0  0
  -23.7260  -30.3148   22.4769 O   0  0  0  0  0  0  0  0  0  0  0  0
  -23.8648  -29.2530   26.0891 O   0  0  0  0  0  0  0  0  0  0  0  0
  -28.3181  -27.6578   25.7093 O   0  0  0  0  0  0  0  0  0  0  0  0
  -29.3796  -20.3061   24.3907 O   0  0  0  0  0  0  0  0  0  0  0  0
  -31.1255  -25.5294   19.3691 O   0  0  0  0  0  0  0  0  0  0  0  0
  -23.0675  -11.1047   21.0779 O   0  0  0  0  0  0  0  0  0  0  0  0
  -27.5382  -26.0924   19.1247 O   0  0  0  0  0  0  0  0  0  1  0  0
  -18.5426  -14.1609   21.8448 F   0  0  0  0  0  0  0  0  0  0  0  0
  -22.7869  -12.6830   23.3302 F   0  0  0  0  0  0  0  0  0  0  0  0
  1  2  1  0  0  0  0
  1  5  2  0  0  0  0
  2  6  2  0  0  0  0
  3  8  2  0  0  0  0
  3 15  1  0  0  0  0
  4  9  1  0  0  0  0
  4 15  2  0  0  0  0
  5 17  1  0  0  0  0
  6 19  1  0  0  0  0
  7 10  2  0  0  0  0
  7 18  1  0  0  0  0
  8 21  1  0  0  0  0
  9 21  2  0  0  0  0
 10 22  1  0  0  0  0
 11 12  2  0  0  0  0
 11 23  1  0  0  0  0
 12 24  1  0  0  0  0
 13 20  1  0  0  0  0
 13 22  2  0  0  0  0
 14 24  2  0  0  0  0
 14 25  1  0  0  0  0
 15 26  1  0  0  0  0
 16 26  1  0  0  0  0
 16 27  2  0  0  0  0
 16 28  1  0  0  0  0
 17 19  2  0  0  0  0
 17 33  1  0  0  0  0
 18 20  2  0  0  0  0
 18 34  1  0  0  0  0
 19 46  1  0  0  0  0
 20 35  1  0  0  0  0
 21 80  1  0  0  0  0
 22 81  1  0  0  0  0
 23 25  2  0  0  0  0
 23 80  1  0  0  0  0
 24 82  1  0  0  0  0
 25 83  1  0  0  0  0
 26 63  2  0  0  0  0
 27 64  1  0  0  0  0
 27 68  1  0  0  0  0
 28 69  1  0  0  0  0
 28 74  2  0  0  0  0
 29 47  1  0  0  0  0
 29 70  1  0  0  0  0
 29 75  2  0  0  0  0
 30 59  1  0  0  0  0
 30 65  1  0  0  0  0
 30 76  2  0  0  0  0
 31 60  1  0  0  0  0
 31 71  1  0  0  0  0
 31 77  2  0  0  0  0
 32 66  1  0  0  0  0
 32 67  1  0  0  0  0
 32 78  2  0  0  0  0
 33 36  1  0  0  0  0
 34 47  1  0  0  0  0
 35 65  1  0  0  0  0
 36 38  1  0  0  0  0
 37 41  1  0  0  0  0
 37 43  1  0  0  0  0
 38 46  1  0  0  0  0
 39 40  1  0  0  0  0
 39 48  1  0  0  0  0
 40 48  1  0  0  0  0
 41 49  1  0  0  0  0
 42 44  1  0  0  0  0
 42 51  1  0  0  0  0
 43 66  1  0  0  0  0
 44 67  1  0  0  0  0
 45 49  1  0  0  0  0
 45 66  1  0  0  0  0
 46 70  1  0  0  0  0
 47 65  1  0  0  0  0
 48 50  1  0  0  0  0
 49 64  1  0  0  0  0
 50 51  1  0  0  0  0
 50 67  1  0  0  0  0
 51 72  1  0  0  0  0
 52 60  1  0  0  0  0
 53 62  1  0  0  0  0
 54 62  1  0  0  0  0
 55 62  1  0  0  0  0
 56 73  1  0  0  0  0
 57 61  1  0  0  0  0
 57 72  1  0  0  0  0
 58 61  1  0  0  0  0
 58 81  1  0  0  0  0
 59 62  1  0  0  0  0
 59 71  1  0  0  0  0
 60 73  1  0  0  0  0
 61 79  1  0  0  0  0
 63 64  1  0  0  0  0
M  CHG  2  72   1  73   1
M  ISO  4  32 100  58 101  67 100  81 101
M  END
> <Batch ID>
0140

> <Smiles>
CNC(C)C(=O)NC(C(=O)N1Cc2cc([101O:1][101CH2:1]C(O)CNC3CC[100N:0]([100C:0](=O)N4CCCC(n5nc(-c6ccc(Oc7ccc(F)cc7F)cc6)c(C(N)=O)c5N)C4)C3C3CC3)ccc2CC1C(=O)NC1CCCc2ccccc21)C(C)(C)C

> <Shape>
0.259

> <Color>
0.075

> <Negative vol penalty>
0.000

$$$$

  -OEChem-04052321133D

 87 97  0     1  0  0  0  0  0999 V2000
  -35.4291  -26.9120    6.7350 C   0  0  0  0  0  0  0  0  0  0  0  0
  -35.1252  -25.6359    7.1984 C   0  0  0  0  0  0  0  0  0  0  0  0
  -23.1655   -9.8485   19.9151 C   0  0  0  0  0  0  0  0  0  0  0  0
  -23.8359   -9.9005   22.2356 C   0  0  0  0  0  0  0  0  0  0  0  0
  -36.0704  -27.8226    7.5738 C   0  0  0  0  0  0  0  0  0  0  0  0
  -35.4635  -25.2694    8.5006 C   0  0  0  0  0  0  0  0  0  0  0  0
  -31.7796  -18.2366   17.3072 C   0  0  0  0  0  0  0  0  0  0  0  0
  -33.7727  -16.8729   17.2413 C   0  0  0  0  0  0  0  0  0  0  0  0
  -32.3159  -21.5540   12.2147 C   0  0  0  0  0  0  0  0  0  0  0  0
  -22.4396   -8.6810   20.1509 C   0  0  0  0  0  0  0  0  0  0  0  0
  -23.1099   -8.7330   22.4715 C   0  0  0  0  0  0  0  0  0  0  0  0
  -31.9944  -18.6147   15.9819 C   0  0  0  0  0  0  0  0  0  0  0  0
  -33.9876  -17.2510   15.9159 C   0  0  0  0  0  0  0  0  0  0  0  0
  -32.4597  -20.2043   12.5330 C   0  0  0  0  0  0  0  0  0  0  0  0
  -21.1391   -5.9655   23.7656 C   0  0  0  0  0  0  0  0  0  0  0  0
  -20.3394   -5.9177   24.9074 C   0  0  0  0  0  0  0  0  0  0  0  0
  -33.7165  -20.8086   14.5014 C   0  0  0  0  0  0  0  0  0  0  0  0
  -19.0793   -7.8161   24.1042 C   0  0  0  0  0  0  0  0  0  0  0  0
  -23.8637  -10.4582   20.9574 C   0  0  0  0  0  0  0  0  0  0  0  0
  -24.1511  -12.9892   20.8186 C   0  0  0  0  0  0  0  0  0  0  0  0
  -32.6687  -17.3657   17.9369 C   0  0  0  0  0  0  0  0  0  0  0  0
  -36.4080  -27.4702    8.8900 C   0  0  0  0  0  0  0  0  0  0  0  0
  -32.8816  -22.5425   13.0328 C   0  0  0  0  0  0  0  0  0  0  0  0
  -36.1111  -26.1756    9.3573 C   0  0  0  0  0  0  0  0  0  0  0  0
  -33.5763  -22.1703   14.1926 C   0  0  0  0  0  0  0  0  0  0  0  0
  -22.4118   -8.1233   21.4291 C   0  0  0  0  0  0  0  0  0  0  0  0
  -33.0984  -18.1219   15.2862 C   0  0  0  0  0  0  0  0  0  1  0  0
  -33.1626  -19.8313   13.6749 C   0  0  0  0  0  0  0  0  0  0  0  0
  -20.9090   -6.9386   22.7931 C   0  0  0  0  0  0  0  0  0  0  0  0
  -19.3095   -6.8430   25.0767 C   0  0  0  0  0  0  0  0  0  0  0  0
  -19.8790   -7.8639   22.9624 C   0  0  0  0  0  0  0  0  0  0  0  0
  -24.6143  -11.6639   20.7143 C   0  0  0  0  0  0  0  0  0  0  0  0
  -25.2387  -13.7601   20.4880 C   0  0  0  0  0  0  0  0  0  0  0  0
  -22.8537  -13.4796   21.1820 C   0  0  0  0  0  0  0  0  0  0  0  0
  -35.0833  -24.7992   12.6286 C   0  0  0  0  0  0  0  0  0  0  0  0
  -34.1854  -25.6647   15.6231 C   0  0  0  0  0  0  0  0  0  0  0  0
  -32.7925  -24.7616   18.6049 C   0  0  0  0  0  0  0  0  0  0  0  0
  -30.7262  -14.6142   21.3723 C   0  0  0  0  0  0  0  0  0  0  0  0
  -37.1430  -28.4727    9.7441 C   0  0  0  0  0  0  0  0  0  0  0  0
  -32.6947  -23.9950   12.6900 C   0  0  0  0  0  0  0  0  0  0  0  0
  -34.1853  -23.1935   15.1149 C   0  0  0  0  0  0  0  0  0  0  0  0
  -37.1312  -28.1303   11.2317 C   0  0  0  0  0  0  0  0  0  0  0  0
  -29.6873  -12.5036   18.4617 C   0  0  0  0  0  0  0  0  0  0  0  0
  -37.4745  -26.6593   11.4436 C   0  0  0  0  0  0  0  0  0  0  0  0
  -36.3174  -19.2557   19.9355 C   0  0  0  0  0  0  0  0  0  0  0  0
  -35.7795  -20.5648   20.4423 C   0  0  0  0  0  0  0  0  0  0  0  0
  -28.2516  -12.1571   18.8525 C   0  0  0  0  0  0  0  0  0  0  0  0
  -33.3197  -16.8390   21.7586 C   0  0  0  0  0  0  0  0  0  0  0  0
  -30.5545  -12.7385   19.6930 C   0  0  0  0  0  0  0  0  0  0  0  0
  -33.0629  -15.3375   21.7485 C   0  0  0  0  0  0  0  0  0  0  0  0
  -32.1637  -15.4339   19.4548 C   0  0  0  0  0  0  0  0  0  0  0  0
  -28.5832  -13.4406   21.0143 C   0  0  0  0  0  0  0  0  0  0  0  0
  -32.4347  -16.9531   19.3819 C   0  0  1  0  0  0  0  0  0  0  0  0
  -36.4398  -25.7488   10.7715 C   0  0  1  0  0  0  0  0  0  0  0  0
  -33.7519  -24.8980   13.3180 C   0  0  1  0  0  0  0  0  0  0  0  0
  -35.1487  -19.2725   20.8815 C   0  0  0  0  0  0  0  0  0  0  0  0
  -33.5835  -17.3731   20.3388 C   0  0  1  0  0  0  0  0  0  0  0  0
  -27.6677  -13.2195   19.7991 C   0  0  2  0  0  0  0  0  0  0  0  0
  -32.2288  -25.6756   20.8730 C   0  0  0  0  0  0  0  0  0  0  0  0
  -37.1267  -25.5003   16.4176 C   0  0  0  0  0  0  0  0  0  0  0  0
  -36.4059  -25.4777   18.8152 C   0  0  0  0  0  0  0  0  0  0  0  0
  -35.8939  -27.4522   17.3792 C   0  0  0  0  0  0  0  0  0  0  0  0
  -29.9032  -24.2472   18.2221 C   0  0  0  0  0  0  0  0  0  0  0  0
  -34.6244  -25.2956   17.0196 C   0  0  1  0  0  0  0  0  0  0  0  0
  -31.7265  -25.4227   19.4600 C   0  0  2  0  0  0  0  0  0  0  0  0
  -33.7637  -18.8939   20.3923 C   0  0  1  0  0  0  0  0  0  0  0  0
  -36.0030  -25.9118   17.3897 C   0  0  0  0  0  0  0  0  0  0  0  0
  -25.8962  -11.5932   20.3460 N   0  0  0  0  0  0  0  0  0  0  0  0
  -26.2478  -12.8838   20.2160 N   0  0  0  0  0  0  0  0  0  0  0  0
  -33.9808  -24.6006   14.7334 N   0  0  0  0  0  0  0  0  0  0  0  0
  -29.9568  -13.7302   20.5977 N   0  0  0  0  0  0  0  0  0  0  0  0
  -31.9661  -15.0041   20.8442 N   0  0  0  0  0  0  0  0  0  0  0  0
  -25.4207  -15.0952   20.4063 N   0  0  0  0  0  0  0  0  0  0  0  0
  -21.8510  -12.5507   21.4917 N   0  0  0  0  0  0  0  0  0  0  0  0
  -35.2358  -25.6756   11.5712 N   0  0  0  0  0  0  0  0  0  0  0  0
  -33.5359  -25.6900   17.9073 N   0  0  0  0  0  0  0  0  0  0  0  0
  -30.5159  -24.5572   19.5395 N   0  3  0  0  0  0  0  0  0  0  0  0
  -22.5868  -14.7048   21.2146 O   0  0  0  0  0  0  0  0  0  0  0  0
  -35.9116  -23.9889   13.0276 O   0  0  0  0  0  0  0  0  0  0  0  0
  -34.0229  -26.8530   15.3345 O   0  0  0  0  0  0  0  0  0  0  0  0
  -32.9522  -23.5437   18.5630 O   0  0  0  0  0  0  0  0  0  0  0  0
  -30.3265  -15.0323   22.4660 O   0  0  0  0  0  0  0  0  0  0  0  0
  -32.7835  -19.4408   21.2632 O   0  0  0  0  0  0  0  0  0  0  0  0
  -33.3075  -18.4913   13.9931 O   0  0  0  0  0  0  0  0  0  1  0  0
  -21.7033   -6.9842   21.6597 O   0  0  0  0  0  0  0  0  0  0  0  0
  -18.5406   -6.7961   26.1726 F   0  0  0  0  0  0  0  0  0  0  0  0
  -19.6524   -8.8004   22.0310 F   0  0  0  0  0  0  0  0  0  0  0  0
  1  2  1  0  0  0  0
  1  5  2  0  0  0  0
  2  6  2  0  0  0  0
  3 10  2  0  0  0  0
  3 19  1  0  0  0  0
  4 11  1  0  0  0  0
  4 19  2  0  0  0  0
  5 22  1  0  0  0  0
  6 24  1  0  0  0  0
  7 12  2  0  0  0  0
  7 21  1  0  0  0  0
  8 13  1  0  0  0  0
  8 21  2  0  0  0  0
  9 14  2  0  0  0  0
  9 23  1  0  0  0  0
 10 26  1  0  0  0  0
 11 26  2  0  0  0  0
 12 27  1  0  0  0  0
 13 27  2  0  0  0  0
 14 28  1  0  0  0  0
 15 16  2  0  0  0  0
 15 29  1  0  0  0  0
 16 30  1  0  0  0  0
 17 25  1  0  0  0  0
 17 28  2  0  0  0  0
 18 30  2  0  0  0  0
 18 31  1  0  0  0  0
 19 32  1  0  0  0  0
 20 32  1  0  0  0  0
 20 33  2  0  0  0  0
 20 34  1  0  0  0  0
 21 53  1  0  0  0  0
 22 24  2  0  0  0  0
 22 39  1  0  0  0  0
 23 25  2  0  0  0  0
 23 40  1  0  0  0  0
 24 54  1  0  0  0  0
 25 41  1  0  0  0  0
 26 85  1  0  0  0  0
 27 84  1  0  0  0  0
 28 84  1  0  0  0  0
 29 31  2  0  0  0  0
 29 85  1  0  0  0  0
 30 86  1  0  0  0  0
 31 87  1  0  0  0  0
 32 68  2  0  0  0  0
 33 69  1  0  0  0  0
 33 73  1  0  0  0  0
 34 74  1  0  0  0  0
 34 78  2  0  0  0  0
 35 55  1  0  0  0  0
 35 75  1  0  0  0  0
 35 79  2  0  0  0  0
 36 64  1  0  0  0  0
 36 70  1  0  0  0  0
 36 80  2  0  0  0  0
 37 65  1  0  0  0  0
 37 76  1  0  0  0  0
 37 81  2  0  0  0  0
 38 71  1  0  0  0  0
 38 72  1  0  0  0  0
 38 82  2  0  0  0  0
 39 42  1  0  0  0  0
 40 55  1  0  0  0  0
 41 70  1  0  0  0  0
 42 44  1  0  0  0  0
 43 47  1  0  0  0  0
 43 49  1  0  0  0  0
 44 54  1  0  0  0  0
 45 46  1  0  0  0  0
 45 56  1  0  0  0  0
 46 56  1  0  0  0  0
 47 58  1  0  0  0  0
 48 50  1  0  0  0  0
 48 57  1  0  0  0  0
 49 71  1  0  0  0  0
 50 72  1  0  0  0  0
 51 53  1  0  0  0  0
 51 72  1  0  0  0  0
 52 58  1  0  0  0  0
 52 71  1  0  0  0  0
 53 57  1  0  0  0  0
 54 75  1  0  0  0  0
 55 70  1  0  0  0  0
 56 66  1  0  0  0  0
 57 66  1  0  0  0  0
 58 69  1  0  0  0  0
 59 65  1  0  0  0  0
 60 67  1  0  0  0  0
 61 67  1  0  0  0  0
 62 67  1  0  0  0  0
 63 77  1  0  0  0  0
 64 67  1  0  0  0  0
 64 76  1  0  0  0  0
 65 77  1  0  0  0  0
 66 83  1  0  0  0  0
 68 69  1  0  0  0  0
M  CHG  1  77   1
M  ISO  4  27 101  38 100  72 100  84 101
M  END
> <Batch ID>
0140

> <Smiles>
CNC(C)C(=O)NC(C(=O)N1Cc2cc([101O:1][101c:1]3ccc(C4C[100N:0]([100C:0](=O)N5CCCC(n6nc(-c7ccc(Oc8ccc(F)cc8F)cc7)c(C(N)=O)c6N)C5)CCC4C(O)C4CC4)cc3)ccc2CC1C(=O)NC1CCCc2ccccc21)C(C)(C)C

> <Shape>
0.167

> <Color>
0.171

> <Negative vol penalty>
0.000

$$$$

  -OEChem-04052321133D

 89 97  0     1  0  0  0  0  0999 V2000
  -31.8401  -25.3459   15.9488 C   0  0  0  0  0  0  0  0  0  0  0  0
  -30.8715  -24.8216   16.7987 C   0  0  0  0  0  0  0  0  0  0  0  0
  -29.2785  -17.2432   20.2119 C   0  0  0  0  0  0  0  0  0  0  0  0
  -27.7667  -18.0592   21.9106 C   0  0  0  0  0  0  0  0  0  0  0  0
  -32.4473  -26.5636   16.2528 C   0  0  0  0  0  0  0  0  0  0  0  0
  -30.5101  -25.5144   17.9536 C   0  0  0  0  0  0  0  0  0  0  0  0
  -25.4946  -25.6716   18.6356 C   0  0  0  0  0  0  0  0  0  0  0  0
  -20.2839  -17.2335   23.1915 C   0  0  0  0  0  0  0  0  0  0  0  0
  -19.9899  -15.8705   23.2300 C   0  0  0  0  0  0  0  0  0  0  0  0
  -29.5649  -18.5556   19.8362 C   0  0  0  0  0  0  0  0  0  0  0  0
  -28.0530  -19.3717   21.5350 C   0  0  0  0  0  0  0  0  0  0  0  0
  -24.8845  -24.5245   19.1414 C   0  0  0  0  0  0  0  0  0  0  0  0
  -30.5299  -21.6175   22.0267 C   0  0  0  0  0  0  0  0  0  0  0  0
  -30.7743  -22.5419   23.0422 C   0  0  0  0  0  0  0  0  0  0  0  0
  -24.8424  -25.5225   21.3372 C   0  0  0  0  0  0  0  0  0  0  0  0
  -20.8711  -17.0410   20.8559 C   0  0  0  0  0  0  0  0  0  0  0  0
  -28.9054  -23.8710   22.2821 C   0  0  0  0  0  0  0  0  0  0  0  0
  -28.3794  -16.9950   21.2490 C   0  0  0  0  0  0  0  0  0  0  0  0
  -28.7522  -14.8663   22.6046 C   0  0  0  0  0  0  0  0  0  0  0  0
  -32.0862  -27.2764   17.4071 C   0  0  0  0  0  0  0  0  0  0  0  0
  -25.7935  -26.7502   19.4804 C   0  0  0  0  0  0  0  0  0  0  0  0
  -31.1139  -26.7421   18.2740 C   0  0  0  0  0  0  0  0  0  0  0  0
  -25.4539  -26.6831   20.8391 C   0  0  0  0  0  0  0  0  0  0  0  0
  -20.7244  -17.8187   22.0044 C   0  0  0  0  0  0  0  0  0  0  0  0
  -20.1365  -15.0928   22.0814 C   0  0  0  0  0  0  0  0  0  0  0  0
  -28.9521  -19.6199   20.4978 C   0  0  0  0  0  0  0  0  0  0  0  0
  -24.5609  -24.4487   20.4929 C   0  0  0  0  0  0  0  0  0  0  0  0
  -29.4733  -21.8198   21.1388 C   0  0  0  0  0  0  0  0  0  0  0  0
  -20.5771  -15.6780   20.8943 C   0  0  0  0  0  0  0  0  0  0  0  0
  -29.9620  -23.6687   23.1699 C   0  0  0  0  0  0  0  0  0  0  0  0
  -28.6610  -22.9465   21.2665 C   0  0  0  0  0  0  0  0  0  0  0  0
  -28.0828  -15.6394   21.6372 C   0  0  0  0  0  0  0  0  0  0  0  0
  -28.0928  -13.6615   22.5977 C   0  0  0  0  0  0  0  0  0  0  0  0
  -29.8701  -15.2069   23.4353 C   0  0  0  0  0  0  0  0  0  0  0  0
  -28.4638  -28.2196   20.3828 C   0  0  0  0  0  0  0  0  0  0  0  0
  -26.3927  -30.2572   21.8255 C   0  0  0  0  0  0  0  0  0  0  0  0
  -23.2937  -30.7770   23.1568 C   0  0  0  0  0  0  0  0  0  0  0  0
  -22.5340  -12.0644   21.0487 C   0  0  0  0  0  0  0  0  0  0  0  0
  -32.8041  -28.5657   17.7184 C   0  0  0  0  0  0  0  0  0  0  0  0
  -26.4275  -27.9911   18.9140 C   0  0  0  0  0  0  0  0  0  0  0  0
  -25.7353  -27.8217   21.7840 C   0  0  0  0  0  0  0  0  0  0  0  0
  -32.0958  -29.4194   18.7671 C   0  0  0  0  0  0  0  0  0  0  0  0
  -25.5783  -10.7856   19.7172 C   0  0  0  0  0  0  0  0  0  0  0  0
  -31.6703  -28.5619   19.9547 C   0  0  0  0  0  0  0  0  0  0  0  0
  -26.6258  -11.8148   20.1456 C   0  0  0  0  0  0  0  0  0  0  0  0
  -24.2467  -11.4470   19.3689 C   0  0  0  0  0  0  0  0  0  0  0  0
  -24.7456  -13.3546   20.8474 C   0  0  0  0  0  0  0  0  0  0  0  0
  -30.6772  -27.4759   19.5234 C   0  0  1  0  0  0  0  0  0  0  0  0
  -27.1532  -28.8246   19.9657 C   0  0  1  0  0  0  0  0  0  0  0  0
  -26.0887  -12.7300   21.2624 C   0  0  2  0  0  0  0  0  0  0  0  0
  -21.9076  -32.5325   24.2944 C   0  0  0  0  0  0  0  0  0  0  0  0
  -21.6993  -14.3908   17.0611 C   0  0  0  0  0  0  0  0  0  0  0  0
  -19.7987  -12.9394   17.8217 C   0  0  0  0  0  0  0  0  0  0  0  0
  -27.9377  -29.7950   24.4158 C   0  0  0  0  0  0  0  0  0  0  0  0
  -26.0007  -30.7740   25.6640 C   0  0  0  0  0  0  0  0  0  0  0  0
  -27.2542  -32.1676   24.0179 C   0  0  0  0  0  0  0  0  0  0  0  0
  -21.2787  -30.7559   20.9892 C   0  0  0  0  0  0  0  0  0  0  0  0
  -21.0400  -19.2860   21.9634 C   0  0  0  0  0  0  0  0  0  0  0  0
  -19.8187  -13.6353   22.1415 C   0  0  0  0  0  0  0  0  0  0  0  0
  -20.9232  -12.7936   22.7903 C   0  0  0  0  0  0  0  0  0  0  0  0
  -22.4909  -19.6144   22.3009 C   0  0  0  0  0  0  0  0  0  0  0  0
  -24.1071  -21.5028   22.5464 C   0  0  0  0  0  0  0  0  0  0  0  0
  -24.2361  -23.0007   22.3513 C   0  0  0  0  0  0  0  0  0  1  0  0
  -19.9448  -15.3125   18.6311 C   0  0  0  0  0  0  0  0  0  0  0  0
  -25.7336  -30.3289   23.1817 C   0  0  1  0  0  0  0  0  0  0  0  0
  -22.2906  -31.9002   22.9654 C   0  0  2  0  0  0  0  0  0  0  0  0
  -20.2233  -14.3619   17.4635 C   0  0  0  0  0  0  0  0  0  0  0  0
  -26.7278  -30.7440   24.3027 C   0  0  0  0  0  0  0  0  0  0  0  0
  -27.0755  -14.9809   21.0577 N   0  0  0  0  0  0  0  0  0  0  0  0
  -27.1072  -13.7814   21.6627 N   0  0  0  0  0  0  0  0  0  0  0  0
  -26.3620  -29.0110   21.1837 N   0  0  0  0  0  0  0  0  0  0  0  0
  -23.7920  -12.2997   20.4699 N   0  0  0  0  0  0  0  0  0  0  0  0
  -28.2659  -12.5218   23.3002 N   0  0  0  0  0  0  0  0  0  0  0  0
  -30.4267  -16.4875   23.3145 N   0  0  0  0  0  0  0  0  0  0  0  0
  -29.3570  -28.0409   19.3437 N   0  0  0  0  0  0  0  0  0  0  0  0
  -24.5919  -31.2251   23.0338 N   0  0  0  0  0  0  0  0  0  0  0  0
  -22.1828  -12.9142   22.0906 N   0  0  0  0  0  0  0  0  0  0  0  0
  -21.0524  -31.3839   22.3164 N   0  3  0  0  0  0  0  0  0  0  0  0
  -22.7331  -21.0773   22.1785 N   0  3  0  0  0  0  0  0  0  0  0  0
  -30.3712  -14.3939   24.2486 O   0  0  0  0  0  0  0  0  0  0  0  0
  -28.6513  -27.9372   21.5604 O   0  0  0  0  0  0  0  0  0  0  0  0
  -26.9094  -31.2713   21.3498 O   0  0  0  0  0  0  0  0  0  0  0  0
  -22.9592  -29.6187   23.3956 O   0  0  0  0  0  0  0  0  0  0  0  0
  -21.7819  -11.1605   20.6690 O   0  0  0  0  0  0  0  0  0  0  0  0
  -29.2315  -20.9007   20.1317 O   0  0  0  0  0  0  0  0  0  0  0  0
  -23.9660  -23.3300   20.9893 O   0  0  0  0  0  0  0  0  0  1  0  0
  -20.7247  -14.9330   19.7632 O   0  0  0  0  0  0  0  0  0  0  0  0
  -30.1959  -24.5556   24.1461 F   0  0  0  0  0  0  0  0  0  0  0  0
  -27.6437  -23.1457   20.4172 F   0  0  0  0  0  0  0  0  0  0  0  0
  1  2  1  0  0  0  0
  1  5  2  0  0  0  0
  2  6  2  0  0  0  0
  3 10  2  0  0  0  0
  3 18  1  0  0  0  0
  4 11  1  0  0  0  0
  4 18  2  0  0  0  0
  5 20  1  0  0  0  0
  6 22  1  0  0  0  0
  7 12  2  0  0  0  0
  7 21  1  0  0  0  0
  8  9  2  0  0  0  0
  8 24  1  0  0  0  0
  9 25  1  0  0  0  0
 10 26  1  0  0  0  0
 11 26  2  0  0  0  0
 12 27  1  0  0  0  0
 13 14  2  0  0  0  0
 13 28  1  0  0  0  0
 14 30  1  0  0  0  0
 15 23  1  0  0  0  0
 15 27  2  0  0  0  0
 16 24  2  0  0  0  0
 16 29  1  0  0  0  0
 17 30  2  0  0  0  0
 17 31  1  0  0  0  0
 18 32  1  0  0  0  0
 19 32  1  0  0  0  0
 19 33  2  0  0  0  0
 19 34  1  0  0  0  0
 20 22  2  0  0  0  0
 20 39  1  0  0  0  0
 21 23  2  0  0  0  0
 21 40  1  0  0  0  0
 22 48  1  0  0  0  0
 23 41  1  0  0  0  0
 24 58  1  0  0  0  0
 25 29  2  0  0  0  0
 25 59  1  0  0  0  0
 26 85  1  0  0  0  0
 27 86  1  0  0  0  0
 28 31  2  0  0  0  0
 28 85  1  0  0  0  0
 29 87  1  0  0  0  0
 30 88  1  0  0  0  0
 31 89  1  0  0  0  0
 32 69  2  0  0  0  0
 33 70  1  0  0  0  0
 33 73  1  0  0  0  0
 34 74  1  0  0  0  0
 34 80  2  0  0  0  0
 35 49  1  0  0  0  0
 35 75  1  0  0  0  0
 35 81  2  0  0  0  0
 36 65  1  0  0  0  0
 36 71  1  0  0  0  0
 36 82  2  0  0  0  0
 37 66  1  0  0  0  0
 37 76  1  0  0  0  0
 37 83  2  0  0  0  0
 38 72  1  0  0  0  0
 38 77  1  0  0  0  0
 38 84  2  0  0  0  0
 39 42  1  0  0  0  0
 40 49  1  0  0  0  0
 41 71  1  0  0  0  0
 42 44  1  0  0  0  0
 43 45  1  0  0  0  0
 43 46  1  0  0  0  0
 44 48  1  0  0  0  0
 45 50  1  0  0  0  0
 46 72  1  0  0  0  0
 47 50  1  0  0  0  0
 47 72  1  0  0  0  0
 48 75  1  0  0  0  0
 49 71  1  0  0  0  0
 50 70  1  0  0  0  0
 51 66  1  0  0  0  0
 52 67  1  0  0  0  0
 53 67  1  0  0  0  0
 54 68  1  0  0  0  0
 55 68  1  0  0  0  0
 56 68  1  0  0  0  0
 57 78  1  0  0  0  0
 58 61  1  0  0  0  0
 59 60  1  0  0  0  0
 60 77  1  0  0  0  0
 61 79  1  0  0  0  0
 62 63  1  0  0  0  0
 62 79  1  0  0  0  0
 63 86  1  0  0  0  0
 64 67  1  0  0  0  0
 64 87  1  0  0  0  0
 65 68  1  0  0  0  0
 65 76  1  0  0  0  0
 66 78  1  0  0  0  0
 69 70  1  0  0  0  0
M  CHG  2  78   1  79   1
M  ISO  4  38 100  63 101  77 100  86 101
M  END
> <Batch ID>
0140

> <Smiles>
CNC(C)C(=O)NC(C(=O)N1Cc2cc([101O:1][101CH2:1]CNCCc3ccc(CC[100NH:0][100C:0](=O)N4CCCC(n5nc(-c6ccc(Oc7ccc(F)cc7F)cc6)c(C(N)=O)c5N)C4)c(OCC(C)C)c3)ccc2CC1C(=O)NC1CCCc2ccccc21)C(C)(C)C

> <Shape>
0.240

> <Color>
0.075

> <Negative vol penalty>
0.000

$$$$

  -OEChem-04052321133D

 89 98  0     1  0  0  0  0  0999 V2000
  -16.9478  -19.2357   29.0346 C   0  0  0  0  0  0  0  0  0  0  0  0
  -18.3292  -19.1372   29.1663 C   0  0  0  0  0  0  0  0  0  0  0  0
  -22.6831  -10.1667   20.1850 C   0  0  0  0  0  0  0  0  0  0  0  0
  -24.3032   -9.4706   21.8366 C   0  0  0  0  0  0  0  0  0  0  0  0
  -16.3994  -20.0500   28.0447 C   0  0  0  0  0  0  0  0  0  0  0  0
  -19.1631  -19.8522   28.3073 C   0  0  0  0  0  0  0  0  0  0  0  0
  -24.5814  -22.3572   29.6761 C   0  0  0  0  0  0  0  0  0  0  0  0
  -21.9527   -8.9998   20.4095 C   0  0  0  0  0  0  0  0  0  0  0  0
  -23.5728   -8.3036   22.0611 C   0  0  0  0  0  0  0  0  0  0  0  0
  -25.8918  -21.9262   29.4742 C   0  0  0  0  0  0  0  0  0  0  0  0
  -20.7924   -7.3940   23.7531 C   0  0  0  0  0  0  0  0  0  0  0  0
  -20.5798   -7.0090   25.0768 C   0  0  0  0  0  0  0  0  0  0  0  0
  -26.0035  -23.2336   27.4499 C   0  0  0  0  0  0  0  0  0  0  0  0
  -29.5946  -21.7526   24.9007 C   0  0  0  0  0  0  0  0  0  0  0  0
  -27.5554  -20.4628   26.3007 C   0  0  0  0  0  0  0  0  0  0  0  0
  -21.7307   -4.9268   24.6559 C   0  0  0  0  0  0  0  0  0  0  0  0
  -23.8583  -10.4021   20.8985 C   0  0  0  0  0  0  0  0  0  0  0  0
  -24.1724  -12.9330   20.8377 C   0  0  0  0  0  0  0  0  0  0  0  0
  -17.2269  -20.7829   27.1794 C   0  0  0  0  0  0  0  0  0  0  0  0
  -23.9674  -23.2224   28.7591 C   0  0  0  0  0  0  0  0  0  0  0  0
  -18.6252  -20.6761   27.3040 C   0  0  0  0  0  0  0  0  0  0  0  0
  -24.6860  -23.6761   27.6438 C   0  0  0  0  0  0  0  0  0  0  0  0
  -29.2525  -22.1782   26.1842 C   0  0  0  0  0  0  0  0  0  0  0  0
  -28.9172  -20.6820   24.3172 C   0  0  0  0  0  0  0  0  0  0  0  0
  -22.3976   -8.0682   21.3476 C   0  0  0  0  0  0  0  0  0  0  0  0
  -26.6021  -22.3621   28.3595 C   0  0  0  0  0  0  0  0  0  0  0  0
  -21.4741   -6.5454   22.8807 C   0  0  0  0  0  0  0  0  0  0  0  0
  -28.2328  -21.5333   26.8842 C   0  0  0  0  0  0  0  0  0  1  0  0
  -27.8975  -20.0371   25.0172 C   0  0  0  0  0  0  0  0  0  0  0  0
  -21.0490   -5.7754   25.5282 C   0  0  0  0  0  0  0  0  0  0  0  0
  -21.9432   -5.3118   23.3321 C   0  0  0  0  0  0  0  0  0  0  0  0
  -24.6135  -11.6071   20.6666 C   0  0  0  0  0  0  0  0  0  0  0  0
  -25.2550  -13.7028   20.4886 C   0  0  0  0  0  0  0  0  0  0  0  0
  -22.8980  -13.4248   21.2734 C   0  0  0  0  0  0  0  0  0  0  0  0
  -21.4315  -23.0369   26.8516 C   0  0  0  0  0  0  0  0  0  0  0  0
  -22.1098  -26.1594   26.2930 C   0  0  0  0  0  0  0  0  0  0  0  0
  -25.0657  -28.1559   25.7507 C   0  0  0  0  0  0  0  0  0  0  0  0
  -30.7281  -14.7767   20.6818 C   0  0  0  0  0  0  0  0  0  0  0  0
  -16.5883  -21.6132   26.0942 C   0  0  0  0  0  0  0  0  0  0  0  0
  -22.5623  -23.6993   29.0053 C   0  0  0  0  0  0  0  0  0  0  0  0
  -24.0794  -24.6213   26.6404 C   0  0  0  0  0  0  0  0  0  0  0  0
  -17.5384  -22.6295   25.4660 C   0  0  0  0  0  0  0  0  0  0  0  0
  -29.6072  -12.4376   18.2427 C   0  0  0  0  0  0  0  0  0  0  0  0
  -18.8776  -21.9767   25.1382 C   0  0  0  0  0  0  0  0  0  0  0  0
  -31.1337  -19.3431   21.4383 C   0  0  0  0  0  0  0  0  0  0  0  0
  -30.9927  -18.5800   23.8437 C   0  0  0  0  0  0  0  0  0  0  0  0
  -28.1747  -12.1180   18.6736 C   0  0  0  0  0  0  0  0  0  0  0  0
  -30.4920  -18.0322   20.9826 C   0  0  0  0  0  0  0  0  0  0  0  0
  -30.3515  -17.2674   23.3921 C   0  0  0  0  0  0  0  0  0  0  0  0
  -30.5265  -12.6397   19.4453 C   0  0  0  0  0  0  0  0  0  0  0  0
  -28.6223  -13.3167   20.8557 C   0  0  0  0  0  0  0  0  0  0  0  0
  -19.5626  -21.4555   26.4073 C   0  0  1  0  0  0  0  0  0  0  0  0
  -21.8610  -24.1731   27.7360 C   0  0  1  0  0  0  0  0  0  0  0  0
  -30.7428  -19.7399   22.8692 C   0  0  0  0  0  0  0  0  0  0  0  0
  -27.6456  -13.1597   19.6777 C   0  0  2  0  0  0  0  0  0  0  0  0
  -30.7754  -16.8977   21.9696 C   0  0  0  0  0  0  0  0  0  0  0  0
  -29.9877  -23.3264   26.7930 C   0  0  0  0  0  0  0  0  0  0  0  0
  -25.3765  -18.3445   23.0846 C   0  0  0  0  0  0  0  0  0  0  0  0
  -29.0676  -21.3366   21.8876 C   0  0  0  0  0  0  0  0  0  0  0  0
  -25.4958  -30.5881   26.1944 C   0  0  0  0  0  0  0  0  0  0  0  0
  -21.2871  -26.5385   23.3794 C   0  0  0  0  0  0  0  0  0  0  0  0
  -23.0716  -28.2826   23.1751 C   0  0  0  0  0  0  0  0  0  0  0  0
  -21.1834  -28.6138   24.7712 C   0  0  0  0  0  0  0  0  0  0  0  0
  -27.4370  -27.5522   27.4155 C   0  0  0  0  0  0  0  0  0  0  0  0
  -25.8169  -19.1394   24.2954 C   0  0  0  0  0  0  0  0  0  0  0  0
  -29.2972  -20.2391   22.9429 C   0  0  2  0  0  0  0  0  0  0  0  0
  -22.9703  -26.9059   25.3024 C   0  0  1  0  0  0  0  0  0  0  0  0
  -25.6676  -29.1675   26.7093 C   0  0  2  0  0  0  0  0  0  0  0  0
  -22.1345  -27.5588   24.1654 C   0  0  0  0  0  0  0  0  0  0  0  0
  -25.8777  -11.5351   20.2416 N   0  0  0  0  0  0  0  0  0  0  0  0
  -26.2403  -12.8254   20.1427 N   0  0  0  0  0  0  0  0  0  0  0  0
  -22.7006  -25.0542   26.9217 N   0  0  0  0  0  0  0  0  0  0  0  0
  -29.9682  -13.6407   20.3576 N   0  0  0  0  0  0  0  0  0  0  0  0
  -25.4507  -15.0378   20.4467 N   0  0  0  0  0  0  0  0  0  0  0  0
  -21.8973  -12.4968   21.5924 N   0  0  0  0  0  0  0  0  0  0  0  0
  -20.1716  -22.5467   27.1374 N   0  0  0  0  0  0  0  0  0  0  0  0
  -23.7619  -27.8522   26.0810 N   0  0  0  0  0  0  0  0  0  0  0  0
  -30.1222  -15.6785   21.5480 N   0  0  0  0  0  0  0  0  0  0  0  0
  -27.1235  -28.9063   26.8911 N   0  3  0  0  0  0  0  0  0  0  0  0
  -22.6487  -14.6510   21.3610 O   0  0  0  0  0  0  0  0  0  0  0  0
  -22.1867  -22.6356   25.9739 O   0  0  0  0  0  0  0  0  0  0  0  0
  -20.9584  -26.5471   26.5066 O   0  0  0  0  0  0  0  0  0  0  0  0
  -25.6886  -27.6852   24.8015 O   0  0  0  0  0  0  0  0  0  0  0  0
  -31.8604  -14.9753   20.2285 O   0  0  0  0  0  0  0  0  0  0  0  0
  -21.6850   -6.9295   21.5671 O   0  0  0  0  0  0  0  0  0  0  0  0
  -27.8811  -21.9425   28.1597 O   0  0  0  0  0  0  0  0  0  1  0  0
  -27.2254  -18.9900   24.4619 O   0  0  0  0  0  0  0  0  0  0  0  0
  -20.8461   -5.4064   26.7997 F   0  0  0  0  0  0  0  0  0  0  0  0
  -22.5998   -4.4929   22.4991 F   0  0  0  0  0  0  0  0  0  0  0  0
  1  2  1  0  0  0  0
  1  5  2  0  0  0  0
  2  6  2  0  0  0  0
  3  8  2  0  0  0  0
  3 17  1  0  0  0  0
  4  9  1  0  0  0  0
  4 17  2  0  0  0  0
  5 19  1  0  0  0  0
  6 21  1  0  0  0  0
  7 10  2  0  0  0  0
  7 20  1  0  0  0  0
  8 25  1  0  0  0  0
  9 25  2  0  0  0  0
 10 26  1  0  0  0  0
 11 12  2  0  0  0  0
 11 27  1  0  0  0  0
 12 30  1  0  0  0  0
 13 22  1  0  0  0  0
 13 26  2  0  0  0  0
 14 23  2  0  0  0  0
 14 24  1  0  0  0  0
 15 28  2  0  0  0  0
 15 29  1  0  0  0  0
 16 30  2  0  0  0  0
 16 31  1  0  0  0  0
 17 32  1  0  0  0  0
 18 32  1  0  0  0  0
 18 33  2  0  0  0  0
 18 34  1  0  0  0  0
 19 21  2  0  0  0  0
 19 39  1  0  0  0  0
 20 22  2  0  0  0  0
 20 40  1  0  0  0  0
 21 52  1  0  0  0  0
 22 41  1  0  0  0  0
 23 28  1  0  0  0  0
 23 57  1  0  0  0  0
 24 29  2  0  0  0  0
 24 66  1  0  0  0  0
 25 85  1  0  0  0  0
 26 86  1  0  0  0  0
 27 31  2  0  0  0  0
 27 85  1  0  0  0  0
 28 86  1  0  0  0  0
 29 87  1  0  0  0  0
 30 88  1  0  0  0  0
 31 89  1  0  0  0  0
 32 70  2  0  0  0  0
 33 71  1  0  0  0  0
 33 74  1  0  0  0  0
 34 75  1  0  0  0  0
 34 80  2  0  0  0  0
 35 53  1  0  0  0  0
 35 76  1  0  0  0  0
 35 81  2  0  0  0  0
 36 67  1  0  0  0  0
 36 72  1  0  0  0  0
 36 82  2  0  0  0  0
 37 68  1  0  0  0  0
 37 77  1  0  0  0  0
 37 83  2  0  0  0  0
 38 73  1  0  0  0  0
 38 78  1  0  0  0  0
 38 84  2  0  0  0  0
 39 42  1  0  0  0  0
 40 53  1  0  0  0  0
 41 72  1  0  0  0  0
 42 44  1  0  0  0  0
 43 47  1  0  0  0  0
 43 50  1  0  0  0  0
 44 52  1  0  0  0  0
 45 48  1  0  0  0  0
 45 54  1  0  0  0  0
 46 49  1  0  0  0  0
 46 54  1  0  0  0  0
 47 55  1  0  0  0  0
 48 56  1  0  0  0  0
 49 56  1  0  0  0  0
 50 73  1  0  0  0  0
 51 55  1  0  0  0  0
 51 73  1  0  0  0  0
 52 76  1  0  0  0  0
 53 72  1  0  0  0  0
 54 66  1  0  0  0  0
 55 71  1  0  0  0  0
 56 78  1  0  0  0  0
 58 65  1  0  0  0  0
 59 66  1  0  0  0  0
 60 68  1  0  0  0  0
 61 69  1  0  0  0  0
 62 69  1  0  0  0  0
 63 69  1  0  0  0  0
 64 79  1  0  0  0  0
 65 87  1  0  0  0  0
 67 69  1  0  0  0  0
 67 77  1  0  0  0  0
 68 79  1  0  0  0  0
 70 71  1  0  0  0  0
M  CHG  1  79   1
M  ISO  4  28 101  38 100  78 100  86 101
M  END
> <Batch ID>
0140

> <Smiles>
CCOc1c[101c:1]([101O:1]c2ccc3c(c2)CN(C(=O)C(NC(=O)C(C)NC)C(C)(C)C)C(C(=O)NC2CCCc4ccccc42)C3)c(C)cc1C(C)C1CCC([100NH:0][100C:0](=O)N2CCCC(n3nc(-c4ccc(Oc5ccc(F)cc5F)cc4)c(C(N)=O)c3N)C2)CC1

> <Shape>
0.218

> <Color>
0.192

> <Negative vol penalty>
0.000

$$$$

  -OEChem-04052321133D

 88 96  0     1  0  0  0  0  0999 V2000
  -22.2853   -8.1330   20.6440 C   0  0  0  0  0  0  0  0  0  0  0  0
  -22.0225   -9.4800   20.4160 C   0  0  0  0  0  0  0  0  0  0  0  0
  -25.9134  -30.5064   23.0391 C   0  0  0  0  0  0  0  0  0  0  0  0
  -26.6332  -31.9407   21.2331 C   0  0  0  0  0  0  0  0  0  0  0  0
  -23.3957   -7.7587   21.3995 C   0  0  0  0  0  0  0  0  0  0  0  0
  -22.8694  -10.4536   20.9444 C   0  0  0  0  0  0  0  0  0  0  0  0
  -24.3549  -15.8190   18.3926 C   0  0  0  0  0  0  0  0  0  0  0  0
  -26.0188  -31.5747   23.9296 C   0  0  0  0  0  0  0  0  0  0  0  0
  -26.7385  -33.0091   22.1236 C   0  0  0  0  0  0  0  0  0  0  0  0
  -23.8765  -17.1141   18.5862 C   0  0  0  0  0  0  0  0  0  0  0  0
  -24.6605  -35.2041   23.6350 C   0  0  0  0  0  0  0  0  0  0  0  0
  -24.1372  -36.4335   23.2346 C   0  0  0  0  0  0  0  0  0  0  0  0
  -25.6884  -17.5480   20.1185 C   0  0  0  0  0  0  0  0  0  0  0  0
  -25.4161  -24.3957   21.9873 C   0  0  0  0  0  0  0  0  0  0  0  0
  -25.6331  -23.5300   19.7422 C   0  0  0  0  0  0  0  0  0  0  0  0
  -26.3249  -37.4355   23.4523 C   0  0  0  0  0  0  0  0  0  0  0  0
  -26.2206  -30.6893   21.6908 C   0  0  0  0  0  0  0  0  0  0  0  0
  -24.9808  -29.2114   20.0216 C   0  0  0  0  0  0  0  0  0  0  0  0
  -24.2621   -8.7279   21.9293 C   0  0  0  0  0  0  0  0  0  0  0  0
  -25.4994  -15.3743   19.0701 C   0  0  0  0  0  0  0  0  0  0  0  0
  -23.9918  -10.0920   21.7089 C   0  0  0  0  0  0  0  0  0  0  0  0
  -26.1808  -16.2476   19.9299 C   0  0  0  0  0  0  0  0  0  0  0  0
  -24.8375  -24.0364   20.7700 C   0  0  0  0  0  0  0  0  0  0  0  0
  -26.7903  -24.2488   22.1768 C   0  0  0  0  0  0  0  0  0  0  0  0
  -27.5858  -23.7425   21.1489 C   0  0  0  0  0  0  0  0  0  0  0  0
  -26.4313  -32.8261   23.4719 C   0  0  0  0  0  0  0  0  0  0  0  0
  -24.5415  -17.9779   19.4514 C   0  0  0  0  0  0  0  0  0  0  0  0
  -26.0159  -35.0903   23.9440 C   0  0  0  0  0  0  0  0  0  0  0  0
  -27.0072  -23.3831   19.9317 C   0  0  0  0  0  0  0  0  0  0  0  0
  -24.9694  -37.5492   23.1433 C   0  0  0  0  0  0  0  0  0  0  0  0
  -26.8481  -36.2060   23.8527 C   0  0  0  0  0  0  0  0  0  0  0  0
  -26.1125  -29.5860   20.7704 C   0  0  0  0  0  0  0  0  0  0  0  0
  -25.3895  -28.1106   19.3091 C   0  0  0  0  0  0  0  0  0  0  0  0
  -23.6767  -29.8054   19.9742 C   0  0  0  0  0  0  0  0  0  0  0  0
  -26.1056  -13.0762   21.1807 C   0  0  0  0  0  0  0  0  0  0  0  0
  -29.1789  -14.0127   20.7330 C   0  0  0  0  0  0  0  0  0  0  0  0
  -31.3508  -16.4740   19.7994 C   0  0  0  0  0  0  0  0  0  0  0  0
  -29.9689  -24.2412   20.5464 C   0  0  0  0  0  0  0  0  0  0  0  0
  -25.4233   -8.2766   22.7794 C   0  0  0  0  0  0  0  0  0  0  0  0
  -26.0180  -13.9830   18.8300 C   0  0  0  0  0  0  0  0  0  0  0  0
  -27.4254  -15.8255   20.6655 C   0  0  0  0  0  0  0  0  0  0  0  0
  -26.4810   -9.3571   22.9889 C   0  0  0  0  0  0  0  0  0  0  0  0
  -29.2791  -26.0816   17.4111 C   0  0  0  0  0  0  0  0  0  0  0  0
  -25.8240  -10.6816   23.3644 C   0  0  0  0  0  0  0  0  0  0  0  0
  -28.3578  -27.2084   17.8748 C   0  0  0  0  0  0  0  0  0  0  0  0
  -30.2284  -25.6343   18.5186 C   0  0  0  0  0  0  0  0  0  0  0  0
  -28.6057  -26.3650   20.2431 C   0  0  0  0  0  0  0  0  0  0  0  0
  -24.9010  -11.1767   22.2444 C   0  0  1  0  0  0  0  0  0  0  0  0
  -26.8974  -13.4689   19.9656 C   0  0  1  0  0  0  0  0  0  0  0  0
  -27.6121  -26.8059   19.1579 C   0  0  1  0  0  0  0  0  0  0  0  0
  -27.3815  -24.6433   23.4913 C   0  0  0  0  0  0  0  0  0  0  0  0
  -28.4484  -19.5141   17.4134 C   0  0  0  0  0  0  0  0  0  0  0  0
  -33.5454  -17.5509   19.2324 C   0  0  0  0  0  0  0  0  0  0  0  0
  -29.3910  -14.3320   23.7601 C   0  0  0  0  0  0  0  0  0  0  0  0
  -31.4667  -15.6851   23.4019 C   0  0  0  0  0  0  0  0  0  0  0  0
  -31.3947  -13.2993   22.6770 C   0  0  0  0  0  0  0  0  0  0  0  0
  -29.4668  -22.5171   22.2219 C   0  0  0  0  0  0  0  0  0  0  0  0
  -31.1534  -15.6521   16.9631 C   0  0  0  0  0  0  0  0  0  0  0  0
  -23.3589  -24.1955   20.5646 C   0  0  0  0  0  0  0  0  0  0  0  0
  -28.7161  -20.9111   17.9440 C   0  0  0  0  0  0  0  0  0  0  0  0
  -22.5457  -22.9666   20.9585 C   0  0  0  0  0  0  0  0  0  0  0  0
  -22.2249  -20.5398   20.4622 C   0  0  0  0  0  0  0  0  0  0  0  0
  -27.4449  -21.5795   18.4445 C   0  0  0  0  0  0  0  0  0  0  0  0
  -22.6693  -19.4431   19.5146 C   0  0  0  0  0  0  0  0  0  1  0  0
  -30.0907  -15.0303   21.3749 C   0  0  1  0  0  0  0  0  0  0  0  0
  -32.5508  -16.4591   18.8697 C   0  0  2  0  0  0  0  0  0  0  0  0
  -30.5613  -14.5943   22.7913 C   0  0  0  0  0  0  0  0  0  0  0  0
  -27.1614  -28.7879   20.5539 N   0  0  0  0  0  0  0  0  0  0  0  0
  -26.6904  -27.9007   19.6610 N   0  0  0  0  0  0  0  0  0  0  0  0
  -27.8896  -14.4534   20.4023 N   0  0  0  0  0  0  0  0  0  0  0  0
  -29.5097  -25.3120   19.7523 N   0  0  0  0  0  0  0  0  0  0  0  0
  -24.7595  -27.3113   18.4222 N   0  0  0  0  0  0  0  0  0  0  0  0
  -23.4263  -30.9317   20.7699 N   0  0  0  0  0  0  0  0  0  0  0  0
  -25.6766  -11.7627   21.1723 N   0  0  0  0  0  0  0  0  0  0  0  0
  -31.1771  -15.2594   20.4286 N   0  0  0  0  0  0  0  0  0  0  0  0
  -29.0071  -23.5885   21.3409 N   0  0  0  0  0  0  0  0  0  0  0  0
  -32.1162  -16.6688   17.4597 N   0  3  0  0  0  0  0  0  0  0  0  0
  -22.9231  -21.8024   20.1123 N   0  3  0  0  0  0  0  0  0  0  0  0
  -22.7558  -29.3411   19.2602 O   0  0  0  0  0  0  0  0  0  0  0  0
  -25.9004  -13.9032   22.0614 O   0  0  0  0  0  0  0  0  0  0  0  0
  -29.5975  -12.8710   20.5259 O   0  0  0  0  0  0  0  0  0  0  0  0
  -30.6410  -17.4651   19.9551 O   0  0  0  0  0  0  0  0  0  0  0  0
  -31.1638  -23.9230   20.5883 O   0  0  0  0  0  0  0  0  0  0  0  0
  -26.5341  -33.8689   24.3406 O   0  0  0  0  0  0  0  0  0  0  0  0
  -24.0763  -19.2424   19.6426 O   0  0  0  0  0  0  0  0  0  1  0  0
  -27.7656  -22.8874   18.9131 O   0  0  0  0  0  0  0  0  0  0  0  0
  -24.4671  -38.7294   22.7573 F   0  0  0  0  0  0  0  0  0  0  0  0
  -28.1514  -36.1026   24.1471 F   0  0  0  0  0  0  0  0  0  0  0  0
  1  2  1  0  0  0  0
  1  5  2  0  0  0  0
  2  6  2  0  0  0  0
  3  8  2  0  0  0  0
  3 17  1  0  0  0  0
  4  9  1  0  0  0  0
  4 17  2  0  0  0  0
  5 19  1  0  0  0  0
  6 21  1  0  0  0  0
  7 10  2  0  0  0  0
  7 20  1  0  0  0  0
  8 26  1  0  0  0  0
  9 26  2  0  0  0  0
 10 27  1  0  0  0  0
 11 12  2  0  0  0  0
 11 28  1  0  0  0  0
 12 30  1  0  0  0  0
 13 22  1  0  0  0  0
 13 27  2  0  0  0  0
 14 23  1  0  0  0  0
 14 24  2  0  0  0  0
 15 23  2  0  0  0  0
 15 29  1  0  0  0  0
 16 30  2  0  0  0  0
 16 31  1  0  0  0  0
 17 32  1  0  0  0  0
 18 32  1  0  0  0  0
 18 33  2  0  0  0  0
 18 34  1  0  0  0  0
 19 21  2  0  0  0  0
 19 39  1  0  0  0  0
 20 22  2  0  0  0  0
 20 40  1  0  0  0  0
 21 48  1  0  0  0  0
 22 41  1  0  0  0  0
 23 59  1  0  0  0  0
 24 25  1  0  0  0  0
 24 51  1  0  0  0  0
 25 29  2  0  0  0  0
 25 76  1  0  0  0  0
 26 84  1  0  0  0  0
 27 85  1  0  0  0  0
 28 31  2  0  0  0  0
 28 84  1  0  0  0  0
 29 86  1  0  0  0  0
 30 87  1  0  0  0  0
 31 88  1  0  0  0  0
 32 68  2  0  0  0  0
 33 69  1  0  0  0  0
 33 72  1  0  0  0  0
 34 73  1  0  0  0  0
 34 79  2  0  0  0  0
 35 49  1  0  0  0  0
 35 74  1  0  0  0  0
 35 80  2  0  0  0  0
 36 65  1  0  0  0  0
 36 70  1  0  0  0  0
 36 81  2  0  0  0  0
 37 66  1  0  0  0  0
 37 75  1  0  0  0  0
 37 82  2  0  0  0  0
 38 71  1  0  0  0  0
 38 76  1  0  0  0  0
 38 83  2  0  0  0  0
 39 42  1  0  0  0  0
 40 49  1  0  0  0  0
 41 70  1  0  0  0  0
 42 44  1  0  0  0  0
 43 45  1  0  0  0  0
 43 46  1  0  0  0  0
 44 48  1  0  0  0  0
 45 50  1  0  0  0  0
 46 71  1  0  0  0  0
 47 50  1  0  0  0  0
 47 71  1  0  0  0  0
 48 74  1  0  0  0  0
 49 70  1  0  0  0  0
 50 69  1  0  0  0  0
 52 60  1  0  0  0  0
 53 66  1  0  0  0  0
 54 67  1  0  0  0  0
 55 67  1  0  0  0  0
 56 67  1  0  0  0  0
 57 76  1  0  0  0  0
 58 77  1  0  0  0  0
 59 61  1  0  0  0  0
 60 63  1  0  0  0  0
 61 78  1  0  0  0  0
 62 64  1  0  0  0  0
 62 78  1  0  0  0  0
 63 86  1  0  0  0  0
 64 85  1  0  0  0  0
 65 67  1  0  0  0  0
 65 75  1  0  0  0  0
 66 77  1  0  0  0  0
 68 69  1  0  0  0  0
M  CHG  2  77   1  78   1
M  ISO  4  38 100  64 101  76 100  85 101
M  END
> <Batch ID>
0140

> <Smiles>
CCCOc1cc(CCNC[101CH2:1][101O:1]c2ccc3c(c2)CN(C(=O)C(NC(=O)C(C)NC)C(C)(C)C)C(C(=O)NC2CCCc4ccccc42)C3)cc(C)c1[100N:0](C)[100C:0](=O)N1CCCC(n2nc(-c3ccc(Oc4ccc(F)cc4F)cc3)c(C(N)=O)c2N)C1

> <Shape>
0.299

> <Color>
0.054

> <Negative vol penalty>
0.000

$$$$

  -OEChem-04052321133D

 84 92  0     1  0  0  0  0  0999 V2000
  -21.8423  -32.8840   25.4538 C   0  0  0  0  0  0  0  0  0  0  0  0
  -21.9152  -32.7865   24.0680 C   0  0  0  0  0  0  0  0  0  0  0  0
  -23.0133  -10.6916   20.9355 C   0  0  0  0  0  0  0  0  0  0  0  0
  -24.6126   -8.9251   21.3344 C   0  0  0  0  0  0  0  0  0  0  0  0
  -22.9733  -32.6328   26.2296 C   0  0  0  0  0  0  0  0  0  0  0  0
  -23.1195  -32.4388   23.4570 C   0  0  0  0  0  0  0  0  0  0  0  0
  -23.5921  -26.6203   19.2363 C   0  0  0  0  0  0  0  0  0  0  0  0
  -22.1736  -10.1513   21.9094 C   0  0  0  0  0  0  0  0  0  0  0  0
  -23.7729   -8.3849   22.3084 C   0  0  0  0  0  0  0  0  0  0  0  0
  -23.7118  -25.6434   18.2477 C   0  0  0  0  0  0  0  0  0  0  0  0
  -20.9761   -6.4880   22.4129 C   0  0  0  0  0  0  0  0  0  0  0  0
  -20.7727   -5.1082   22.4002 C   0  0  0  0  0  0  0  0  0  0  0  0
  -26.0702  -26.1335   18.0339 C   0  0  0  0  0  0  0  0  0  0  0  0
  -21.6844   -4.9533   24.6322 C   0  0  0  0  0  0  0  0  0  0  0  0
  -24.2328  -10.0784   20.6479 C   0  0  0  0  0  0  0  0  0  0  0  0
  -24.8069  -10.8287   18.2783 C   0  0  0  0  0  0  0  0  0  0  0  0
  -24.1895  -32.2724   25.6283 C   0  0  0  0  0  0  0  0  0  0  0  0
  -24.7156  -27.3478   19.6390 C   0  0  0  0  0  0  0  0  0  0  0  0
  -24.2681  -32.1838   24.2253 C   0  0  0  0  0  0  0  0  0  0  0  0
  -25.9590  -27.1047   19.0326 C   0  0  0  0  0  0  0  0  0  0  0  0
  -22.5534   -8.9980   22.5959 C   0  0  0  0  0  0  0  0  0  0  0  0
  -24.9478  -25.4009   17.6478 C   0  0  0  0  0  0  0  0  0  0  0  0
  -21.5337   -7.1006   23.5352 C   0  0  0  0  0  0  0  0  0  0  0  0
  -21.1268   -4.3408   23.5099 C   0  0  0  0  0  0  0  0  0  0  0  0
  -21.8878   -6.3332   24.6449 C   0  0  0  0  0  0  0  0  0  0  0  0
  -25.1004  -10.6357   19.6415 C   0  0  0  0  0  0  0  0  0  0  0  0
  -25.9499  -11.3831   17.7561 C   0  0  0  0  0  0  0  0  0  0  0  0
  -23.6082  -10.5334   17.5492 C   0  0  0  0  0  0  0  0  0  0  0  0
  -26.1203  -30.0005   21.8897 C   0  0  0  0  0  0  0  0  0  0  0  0
  -28.1912  -27.7403   21.7758 C   0  0  0  0  0  0  0  0  0  0  0  0
  -26.0545  -20.9525   18.0847 C   0  0  0  0  0  0  0  0  0  0  0  0
  -30.0148  -24.8578   21.7187 C   0  0  0  0  0  0  0  0  0  0  0  0
  -30.4075  -14.5690   20.1709 C   0  0  0  0  0  0  0  0  0  0  0  0
  -25.3972  -32.0566   26.5057 C   0  0  0  0  0  0  0  0  0  0  0  0
  -24.6209  -28.4520   20.6565 C   0  0  0  0  0  0  0  0  0  0  0  0
  -27.1332  -27.9355   19.4730 C   0  0  0  0  0  0  0  0  0  0  0  0
  -26.5391  -31.3281   25.8017 C   0  0  0  0  0  0  0  0  0  0  0  0
  -30.6897  -11.4935   18.3994 C   0  0  0  0  0  0  0  0  0  0  0  0
  -26.7866  -31.9303   24.4223 C   0  0  0  0  0  0  0  0  0  0  0  0
  -29.8495  -19.1311   19.4893 C   0  0  0  0  0  0  0  0  0  0  0  0
  -28.8602  -18.9795   21.8102 C   0  0  0  0  0  0  0  0  0  0  0  0
  -29.2627  -10.9424   18.3939 C   0  0  0  0  0  0  0  0  0  0  0  0
  -29.6296  -17.6305   19.2952 C   0  0  0  0  0  0  0  0  0  0  0  0
  -28.6395  -17.4784   21.6205 C   0  0  0  0  0  0  0  0  0  0  0  0
  -31.0121  -12.2118   19.7079 C   0  0  0  0  0  0  0  0  0  0  0  0
  -28.6291  -12.7182   20.0802 C   0  0  0  0  0  0  0  0  0  0  0  0
  -25.5501  -31.7851   23.5270 C   0  0  1  0  0  0  0  0  0  0  0  0
  -25.8716  -28.5610   21.5470 C   0  0  1  0  0  0  0  0  0  0  0  0
  -28.8671  -19.7599   20.4879 C   0  0  0  0  0  0  0  0  0  0  0  0
  -28.2386  -12.0337   18.7591 C   0  0  2  0  0  0  0  0  0  0  0  0
  -29.6447  -16.8853   20.6317 C   0  0  0  0  0  0  0  0  0  0  0  0
  -32.1294  -23.8467   22.6150 C   0  0  0  0  0  0  0  0  0  0  0  0
  -29.8138  -29.3574   19.7619 C   0  0  0  0  0  0  0  0  0  0  0  0
  -31.6612  -27.6869   20.0159 C   0  0  0  0  0  0  0  0  0  0  0  0
  -30.9241  -29.0370   21.9797 C   0  0  0  0  0  0  0  0  0  0  0  0
  -28.5309  -22.7287   23.1413 C   0  0  0  0  0  0  0  0  0  0  0  0
  -27.4460  -20.7895   18.6693 C   0  0  0  0  0  0  0  0  0  0  0  0
  -27.4602  -19.8828   19.8964 C   0  0  0  0  0  0  0  0  0  0  0  0
  -24.8592  -22.0897   16.2338 C   0  0  0  0  0  0  0  0  0  0  0  0
  -24.1698  -23.3296   16.7748 C   0  0  0  0  0  0  0  0  0  1  0  0
  -29.4293  -27.1913   21.1132 C   0  0  1  0  0  0  0  0  0  0  0  0
  -30.6365  -24.0366   22.8338 C   0  0  2  0  0  0  0  0  0  0  0  0
  -30.4311  -28.3098   20.7098 C   0  0  0  0  0  0  0  0  0  0  0  0
  -26.3333  -11.0349   19.9651 N   0  0  0  0  0  0  0  0  0  0  0  0
  -26.8246  -11.4841   18.7977 N   0  0  0  0  0  0  0  0  0  0  0  0
  -27.1237  -28.0825   20.9369 N   0  0  0  0  0  0  0  0  0  0  0  0
  -30.0040  -13.2351   19.9954 N   0  0  0  0  0  0  0  0  0  0  0  0
  -26.2821  -11.7890   16.5122 N   0  0  0  0  0  0  0  0  0  0  0  0
  -23.4805   -9.2695   16.9572 N   0  0  0  0  0  0  0  0  0  0  0  0
  -25.4505  -30.4341   23.0179 N   0  0  0  0  0  0  0  0  0  0  0  0
  -26.0572  -21.7804   16.9683 N   0  0  0  0  0  0  0  0  0  0  0  0
  -29.9787  -26.2001   22.0320 N   0  0  0  0  0  0  0  0  0  0  0  0
  -29.3882  -15.4761   20.4338 N   0  0  0  0  0  0  0  0  0  0  0  0
  -29.9972  -22.6923   22.9054 N   0  3  0  0  0  0  0  0  0  0  0  0
  -22.6849  -11.3715   17.4125 O   0  0  0  0  0  0  0  0  0  0  0  0
  -26.8661  -30.6694   21.1840 O   0  0  0  0  0  0  0  0  0  0  0  0
  -28.1705  -27.8686   23.0032 O   0  0  0  0  0  0  0  0  0  0  0  0
  -25.0577  -20.4094   18.5536 O   0  0  0  0  0  0  0  0  0  0  0  0
  -29.6058  -24.3589   20.6726 O   0  0  0  0  0  0  0  0  0  0  0  0
  -31.5879  -14.9261   20.0935 O   0  0  0  0  0  0  0  0  0  0  0  0
  -21.7344   -8.4707   23.5465 O   0  0  0  0  0  0  0  0  0  0  0  0
  -25.0585  -24.4426   16.6864 O   0  0  0  0  0  0  0  0  0  1  0  0
  -20.9299   -3.0159   23.4982 F   0  0  0  0  0  0  0  0  0  0  0  0
  -22.4229   -6.9161   25.7264 F   0  0  0  0  0  0  0  0  0  0  0  0
  1  2  1  0  0  0  0
  1  5  2  0  0  0  0
  2  6  2  0  0  0  0
  3  8  2  0  0  0  0
  3 15  1  0  0  0  0
  4  9  1  0  0  0  0
  4 15  2  0  0  0  0
  5 17  1  0  0  0  0
  6 19  1  0  0  0  0
  7 10  2  0  0  0  0
  7 18  1  0  0  0  0
  8 21  1  0  0  0  0
  9 21  2  0  0  0  0
 10 22  1  0  0  0  0
 11 12  2  0  0  0  0
 11 23  1  0  0  0  0
 12 24  1  0  0  0  0
 13 20  1  0  0  0  0
 13 22  2  0  0  0  0
 14 24  2  0  0  0  0
 14 25  1  0  0  0  0
 15 26  1  0  0  0  0
 16 26  1  0  0  0  0
 16 27  2  0  0  0  0
 16 28  1  0  0  0  0
 17 19  2  0  0  0  0
 17 34  1  0  0  0  0
 18 20  2  0  0  0  0
 18 35  1  0  0  0  0
 19 47  1  0  0  0  0
 20 36  1  0  0  0  0
 21 81  1  0  0  0  0
 22 82  1  0  0  0  0
 23 25  2  0  0  0  0
 23 81  1  0  0  0  0
 24 83  1  0  0  0  0
 25 84  1  0  0  0  0
 26 64  2  0  0  0  0
 27 65  1  0  0  0  0
 27 68  1  0  0  0  0
 28 69  1  0  0  0  0
 28 75  2  0  0  0  0
 29 48  1  0  0  0  0
 29 70  1  0  0  0  0
 29 76  2  0  0  0  0
 30 61  1  0  0  0  0
 30 66  1  0  0  0  0
 30 77  2  0  0  0  0
 31 57  1  0  0  0  0
 31 71  1  0  0  0  0
 31 78  2  0  0  0  0
 32 62  1  0  0  0  0
 32 72  1  0  0  0  0
 32 79  2  0  0  0  0
 33 67  1  0  0  0  0
 33 73  1  0  0  0  0
 33 80  2  0  0  0  0
 34 37  1  0  0  0  0
 35 48  1  0  0  0  0
 36 66  1  0  0  0  0
 37 39  1  0  0  0  0
 38 42  1  0  0  0  0
 38 45  1  0  0  0  0
 39 47  1  0  0  0  0
 40 43  1  0  0  0  0
 40 49  1  0  0  0  0
 41 44  1  0  0  0  0
 41 49  1  0  0  0  0
 42 50  1  0  0  0  0
 43 51  1  0  0  0  0
 44 51  1  0  0  0  0
 45 67  1  0  0  0  0
 46 50  1  0  0  0  0
 46 67  1  0  0  0  0
 47 70  1  0  0  0  0
 48 66  1  0  0  0  0
 49 58  1  0  0  0  0
 50 65  1  0  0  0  0
 51 73  1  0  0  0  0
 52 62  1  0  0  0  0
 53 63  1  0  0  0  0
 54 63  1  0  0  0  0
 55 63  1  0  0  0  0
 56 74  1  0  0  0  0
 57 58  1  0  0  0  0
 59 60  1  0  0  0  0
 59 71  1  0  0  0  0
 60 82  1  0  0  0  0
 61 63  1  0  0  0  0
 61 72  1  0  0  0  0
 62 74  1  0  0  0  0
 64 65  1  0  0  0  0
M  CHG  1  74   1
M  ISO  4  33 100  60 101  73 100  82 101
M  END
> <Batch ID>
0140

> <Smiles>
CNC(C)C(=O)NC(C(=O)N1Cc2cc([101O:1][101CH2:1]CNC(=O)CCC3CCC([100NH:0][100C:0](=O)N4CCCC(n5nc(-c6ccc(Oc7ccc(F)cc7F)cc6)c(C(N)=O)c5N)C4)CC3)ccc2CC1C(=O)NC1CCCc2ccccc21)C(C)(C)C

> <Shape>
0.297

> <Color>
0.077

> <Negative vol penalty>
0.000

$$$$

  -OEChem-04052321133D

 90100  0     1  0  0  0  0  0999 V2000
  -31.3243  -35.5590   22.2026 C   0  0  0  0  0  0  0  0  0  0  0  0
  -31.1217  -34.3032   21.6393 C   0  0  0  0  0  0  0  0  0  0  0  0
  -23.6898   -9.5941   22.0685 C   0  0  0  0  0  0  0  0  0  0  0  0
  -24.8107   -7.9218   20.7329 C   0  0  0  0  0  0  0  0  0  0  0  0
  -30.5962  -35.9426   23.3280 C   0  0  0  0  0  0  0  0  0  0  0  0
  -30.1916  -33.4298   22.2019 C   0  0  0  0  0  0  0  0  0  0  0  0
  -26.6315  -29.4295   19.2305 C   0  0  0  0  0  0  0  0  0  0  0  0
  -22.5470   -8.7953   22.1096 C   0  0  0  0  0  0  0  0  0  0  0  0
  -23.6680   -7.1230   20.7740 C   0  0  0  0  0  0  0  0  0  0  0  0
  -26.7492  -28.0594   19.0008 C   0  0  0  0  0  0  0  0  0  0  0  0
  -22.1775   -5.0213   22.9608 C   0  0  0  0  0  0  0  0  0  0  0  0
  -22.3477   -3.6624   23.2254 C   0  0  0  0  0  0  0  0  0  0  0  0
  -25.3356  -27.6246   20.9065 C   0  0  0  0  0  0  0  0  0  0  0  0
  -28.2349  -21.4195   21.0637 C   0  0  0  0  0  0  0  0  0  0  0  0
  -21.3410   -3.1217   21.0967 C   0  0  0  0  0  0  0  0  0  0  0  0
  -28.2238  -22.6254   22.9651 C   0  0  0  0  0  0  0  0  0  0  0  0
  -24.8216   -9.1574   21.3801 C   0  0  0  0  0  0  0  0  0  0  0  0
  -27.0771   -9.9766   22.2458 C   0  0  0  0  0  0  0  0  0  0  0  0
  -29.6498  -35.0772   23.8989 C   0  0  0  0  0  0  0  0  0  0  0  0
  -25.8726  -29.9079   20.3083 C   0  0  0  0  0  0  0  0  0  0  0  0
  -29.4511  -33.8017   23.3368 C   0  0  0  0  0  0  0  0  0  0  0  0
  -25.2078  -29.0013   21.1462 C   0  0  0  0  0  0  0  0  0  0  0  0
  -28.0839  -22.7228   21.5983 C   0  0  0  0  0  0  0  0  0  0  0  0
  -22.5362   -7.5597   21.4624 C   0  0  0  0  0  0  0  0  0  0  0  0
  -26.1035  -27.1566   19.8405 C   0  0  0  0  0  0  0  0  0  0  0  0
  -21.5889   -5.4304   21.7642 C   0  0  0  0  0  0  0  0  0  0  0  0
  -21.9295   -2.7126   22.2934 C   0  0  0  0  0  0  0  0  0  0  0  0
  -21.1707   -4.4807   20.8321 C   0  0  0  0  0  0  0  0  0  0  0  0
  -26.0022   -9.9823   21.3368 C   0  0  0  0  0  0  0  0  0  0  0  0
  -28.4623  -20.5654   22.1201 C   0  0  0  0  0  0  0  0  0  0  0  0
  -27.9370  -10.9344   21.7667 C   0  0  0  0  0  0  0  0  0  0  0  0
  -27.2801   -9.1768   23.4184 C   0  0  0  0  0  0  0  0  0  0  0  0
  -26.5054  -31.6110   22.9165 C   0  0  0  0  0  0  0  0  0  0  0  0
  -23.2834  -31.5241   23.2818 C   0  0  0  0  0  0  0  0  0  0  0  0
  -20.3327  -29.9474   22.6080 C   0  0  0  0  0  0  0  0  0  0  0  0
  -29.0222  -15.8494   19.6024 C   0  0  0  0  0  0  0  0  0  0  0  0
  -28.9207  -35.5180   25.1435 C   0  0  0  0  0  0  0  0  0  0  0  0
  -25.7338  -31.3896   20.5266 C   0  0  0  0  0  0  0  0  0  0  0  0
  -24.3643  -29.4643   22.3050 C   0  0  0  0  0  0  0  0  0  0  0  0
  -27.6848  -34.6779   25.4551 C   0  0  0  0  0  0  0  0  0  0  0  0
  -27.9933  -13.4195   17.3697 C   0  0  0  0  0  0  0  0  0  0  0  0
  -28.0048  -33.1915   25.3322 C   0  0  0  0  0  0  0  0  0  0  0  0
  -26.1460  -17.4602   26.9286 C   0  0  0  0  0  0  0  0  0  0  0  0
  -26.4887  -17.9808   28.2966 C   0  0  0  0  0  0  0  0  0  0  0  0
  -27.4696  -12.2991   18.2679 C   0  0  0  0  0  0  0  0  0  0  0  0
  -27.4733  -18.2935   21.5886 C   0  0  0  0  0  0  0  0  0  0  0  0
  -29.9658  -18.6730   21.3577 C   0  0  0  0  0  0  0  0  0  0  0  0
  -27.5730  -14.7854   17.8999 C   0  0  0  0  0  0  0  0  0  0  0  0
  -27.7236  -16.7829   21.5679 C   0  0  0  0  0  0  0  0  0  0  0  0
  -30.1591  -17.1593   21.3689 C   0  0  0  0  0  0  0  0  0  0  0  0
  -27.4831  -13.9308   20.2193 C   0  0  0  0  0  0  0  0  0  0  0  0
  -28.4333  -32.8357   23.9035 C   0  0  1  0  0  0  0  0  0  0  0  0
  -28.6914  -19.0657   22.1269 C   0  0  0  0  0  0  0  0  0  0  0  0
  -25.3550  -31.7495   21.9599 C   0  0  1  0  0  0  0  0  0  0  0  0
  -26.3864  -18.9300   27.1350 C   0  0  0  0  0  0  0  0  0  0  0  0
  -27.8859  -12.5240   19.7323 C   0  0  1  0  0  0  0  0  0  0  0  0
  -17.8713  -30.0901   23.0756 C   0  0  0  0  0  0  0  0  0  0  0  0
  -23.7570  -30.4381   26.0936 C   0  0  0  0  0  0  0  0  0  0  0  0
  -21.3592  -29.7199   26.1447 C   0  0  0  0  0  0  0  0  0  0  0  0
  -21.9306  -32.1382   25.9258 C   0  0  0  0  0  0  0  0  0  0  0  0
  -19.6875  -30.2588   19.7365 C   0  0  0  0  0  0  0  0  0  0  0  0
  -27.6360  -19.5883   26.5726 C   0  0  0  0  0  0  0  0  0  0  0  0
  -27.4058  -20.1062   25.1537 C   0  0  0  0  0  0  0  0  0  0  0  0
  -28.6531  -20.8017   24.6105 C   0  0  0  0  0  0  0  0  0  0  0  0
  -27.7032  -23.9289   19.4475 C   0  0  0  0  0  0  0  0  0  0  0  0
  -27.4263  -25.3598   19.0174 C   0  0  0  0  0  0  0  0  0  1  0  0
  -22.3093  -30.5924   23.9614 C   0  0  1  0  0  0  0  0  0  0  0  0
  -18.9944  -30.4776   22.1262 C   0  0  2  0  0  0  0  0  0  0  0  0
  -22.3564  -30.7130   25.5108 C   0  0  0  0  0  0  0  0  0  0  0  0
  -26.1622  -10.8733   20.3547 N   0  0  0  0  0  0  0  0  0  0  0  0
  -28.4531  -21.3093   23.2710 N   0  0  0  0  0  0  0  0  0  0  0  0
  -27.3477  -11.4363   20.6438 N   0  0  0  0  0  0  0  0  0  0  0  0
  -24.2646  -30.9226   22.4810 N   0  0  0  0  0  0  0  0  0  0  0  0
  -27.9830  -14.9589   19.2933 N   0  0  0  0  0  0  0  0  0  0  0  0
  -28.9725  -16.4733   20.8581 N   0  0  0  0  0  0  0  0  0  0  0  0
  -29.1322  -11.3879   22.2007 N   0  0  0  0  0  0  0  0  0  0  0  0
  -26.2972   -8.2406   23.7670 N   0  0  0  0  0  0  0  0  0  0  0  0
  -27.8472  -23.8543   20.9029 N   0  0  0  0  0  0  0  0  0  0  0  0
  -27.2781  -32.7504   23.0359 N   0  0  0  0  0  0  0  0  0  0  0  0
  -21.0014  -30.8741   23.3796 N   0  0  0  0  0  0  0  0  0  0  0  0
  -18.6772  -29.9329   20.7758 N   0  3  0  0  0  0  0  0  0  0  0  0
  -28.2952   -9.3006   24.1448 O   0  0  0  0  0  0  0  0  0  0  0  0
  -26.6784  -30.5495   23.5039 O   0  0  0  0  0  0  0  0  0  0  0  0
  -23.1734  -32.7413   23.4494 O   0  0  0  0  0  0  0  0  0  0  0  0
  -20.7422  -28.8222   22.3310 O   0  0  0  0  0  0  0  0  0  0  0  0
  -29.9409  -16.0738   18.8045 O   0  0  0  0  0  0  0  0  0  0  0  0
  -21.4213   -6.7799   21.5025 O   0  0  0  0  0  0  0  0  0  0  0  0
  -26.2181  -25.8094   19.6174 O   0  0  0  0  0  0  0  0  0  1  0  0
  -22.0944   -1.4078   22.5470 F   0  0  0  0  0  0  0  0  0  0  0  0
  -20.6057   -4.8677   19.6803 F   0  0  0  0  0  0  0  0  0  0  0  0
  1  2  1  0  0  0  0
  1  5  2  0  0  0  0
  2  6  2  0  0  0  0
  3  8  2  0  0  0  0
  3 17  1  0  0  0  0
  4  9  1  0  0  0  0
  4 17  2  0  0  0  0
  5 19  1  0  0  0  0
  6 21  1  0  0  0  0
  7 10  2  0  0  0  0
  7 20  1  0  0  0  0
  8 24  1  0  0  0  0
  9 24  2  0  0  0  0
 10 25  1  0  0  0  0
 11 12  2  0  0  0  0
 11 26  1  0  0  0  0
 12 27  1  0  0  0  0
 13 22  1  0  0  0  0
 13 25  2  0  0  0  0
 14 23  1  0  0  0  0
 14 30  2  0  0  0  0
 15 27  2  0  0  0  0
 15 28  1  0  0  0  0
 16 23  2  0  0  0  0
 16 71  1  0  0  0  0
 17 29  1  0  0  0  0
 18 29  1  0  0  0  0
 18 31  2  0  0  0  0
 18 32  1  0  0  0  0
 19 21  2  0  0  0  0
 19 37  1  0  0  0  0
 20 22  2  0  0  0  0
 20 38  1  0  0  0  0
 21 52  1  0  0  0  0
 22 39  1  0  0  0  0
 23 78  1  0  0  0  0
 24 87  1  0  0  0  0
 25 88  1  0  0  0  0
 26 28  2  0  0  0  0
 26 87  1  0  0  0  0
 27 89  1  0  0  0  0
 28 90  1  0  0  0  0
 29 70  2  0  0  0  0
 30 53  1  0  0  0  0
 30 71  1  0  0  0  0
 31 72  1  0  0  0  0
 31 76  1  0  0  0  0
 32 77  1  0  0  0  0
 32 82  2  0  0  0  0
 33 54  1  0  0  0  0
 33 79  1  0  0  0  0
 33 83  2  0  0  0  0
 34 67  1  0  0  0  0
 34 73  1  0  0  0  0
 34 84  2  0  0  0  0
 35 68  1  0  0  0  0
 35 80  1  0  0  0  0
 35 85  2  0  0  0  0
 36 74  1  0  0  0  0
 36 75  1  0  0  0  0
 36 86  2  0  0  0  0
 37 40  1  0  0  0  0
 38 54  1  0  0  0  0
 39 73  1  0  0  0  0
 40 42  1  0  0  0  0
 41 45  1  0  0  0  0
 41 48  1  0  0  0  0
 42 52  1  0  0  0  0
 43 44  1  0  0  0  0
 43 55  1  0  0  0  0
 44 55  1  0  0  0  0
 45 56  1  0  0  0  0
 46 49  1  0  0  0  0
 46 53  1  0  0  0  0
 47 50  1  0  0  0  0
 47 53  1  0  0  0  0
 48 74  1  0  0  0  0
 49 75  1  0  0  0  0
 50 75  1  0  0  0  0
 51 56  1  0  0  0  0
 51 74  1  0  0  0  0
 52 79  1  0  0  0  0
 54 73  1  0  0  0  0
 55 62  1  0  0  0  0
 56 72  1  0  0  0  0
 57 68  1  0  0  0  0
 58 69  1  0  0  0  0
 59 69  1  0  0  0  0
 60 69  1  0  0  0  0
 61 81  1  0  0  0  0
 62 63  1  0  0  0  0
 63 64  1  0  0  0  0
 64 71  1  0  0  0  0
 65 66  1  0  0  0  0
 65 78  1  0  0  0  0
 66 88  1  0  0  0  0
 67 69  1  0  0  0  0
 67 80  1  0  0  0  0
 68 81  1  0  0  0  0
 70 72  1  0  0  0  0
M  CHG  1  81   1
M  ISO  4  36 100  66 101  75 100  88 101
M  END
> <Batch ID>
0140

> <Smiles>
CNC(C)C(=O)NC(C(=O)N1Cc2cc([101O:1][101CH2:1]CNc3cc(C4CC[100N:0]([100C:0](=O)N5CCCC(n6nc(-c7ccc(Oc8ccc(F)cc8F)cc7)c(C(N)=O)c6N)C5)CC4)n(CCCC4CC4)c3)ccc2CC1C(=O)NC1CCCc2ccccc21)C(C)(C)C

> <Shape>
0.251

> <Color>
0.078

> <Negative vol penalty>
0.000

$$$$

  -OEChem-04052321133D

 87 97  0     1  0  0  0  0  0999 V2000
  -16.1517  -28.7798   23.9517 C   0  0  0  0  0  0  0  0  0  0  0  0
  -17.2271  -28.3496   24.7224 C   0  0  0  0  0  0  0  0  0  0  0  0
  -25.6227  -14.4117   25.9510 C   0  0  0  0  0  0  0  0  0  0  0  0
  -24.9101  -16.7192   26.0191 C   0  0  0  0  0  0  0  0  0  0  0  0
  -16.3765  -29.3439   22.6966 C   0  0  0  0  0  0  0  0  0  0  0  0
  -18.5279  -28.4824   24.2379 C   0  0  0  0  0  0  0  0  0  0  0  0
  -25.2256  -29.6777   26.4804 C   0  0  0  0  0  0  0  0  0  0  0  0
  -25.3689  -14.2930   27.3174 C   0  0  0  0  0  0  0  0  0  0  0  0
  -24.6562  -16.6005   27.3856 C   0  0  0  0  0  0  0  0  0  0  0  0
  -26.5073  -29.1383   26.3805 C   0  0  0  0  0  0  0  0  0  0  0  0
  -22.2318  -15.3267   29.3654 C   0  0  0  0  0  0  0  0  0  0  0  0
  -21.0361  -15.8575   29.8494 C   0  0  0  0  0  0  0  0  0  0  0  0
  -26.7802  -30.2002   24.2318 C   0  0  0  0  0  0  0  0  0  0  0  0
  -22.2797  -17.3335   31.3027 C   0  0  0  0  0  0  0  0  0  0  0  0
  -25.3934  -15.6249   25.3019 C   0  0  0  0  0  0  0  0  0  0  0  0
  -25.0650  -15.0094   22.8481 C   0  0  0  0  0  0  0  0  0  0  0  0
  -17.6814  -29.4924   22.2006 C   0  0  0  0  0  0  0  0  0  0  0  0
  -24.7066  -30.4749   25.4501 C   0  0  0  0  0  0  0  0  0  0  0  0
  -18.7703  -29.0478   22.9745 C   0  0  0  0  0  0  0  0  0  0  0  0
  -25.4926  -30.7507   24.3222 C   0  0  0  0  0  0  0  0  0  0  0  0
  -24.8856  -15.3873   28.0347 C   0  0  0  0  0  0  0  0  0  0  0  0
  -27.2837  -29.3971   25.2548 C   0  0  0  0  0  0  0  0  0  0  0  0
  -23.4514  -15.7992   29.8501 C   0  0  0  0  0  0  0  0  0  0  0  0
  -21.0601  -16.8609   30.8180 C   0  0  0  0  0  0  0  0  0  0  0  0
  -23.4754  -16.8026   30.8187 C   0  0  0  0  0  0  0  0  0  0  0  0
  -25.6559  -15.7483   23.8905 C   0  0  0  0  0  0  0  0  0  0  0  0
  -25.6477  -15.5011   21.7056 C   0  0  0  0  0  0  0  0  0  0  0  0
  -24.0777  -13.9715   22.9072 C   0  0  0  0  0  0  0  0  0  0  0  0
  -22.2283  -30.2509   23.4723 C   0  0  0  0  0  0  0  0  0  0  0  0
  -23.1492  -33.2376   22.6041 C   0  0  0  0  0  0  0  0  0  0  0  0
  -25.6450  -35.5566   22.4045 C   0  0  0  0  0  0  0  0  0  0  0  0
  -28.2683  -20.8305   20.7138 C   0  0  0  0  0  0  0  0  0  0  0  0
  -17.8718  -30.0648   20.8183 C   0  0  0  0  0  0  0  0  0  0  0  0
  -23.3323  -31.0713   25.5852 C   0  0  0  0  0  0  0  0  0  0  0  0
  -24.9895  -31.6170   23.1976 C   0  0  0  0  0  0  0  0  0  0  0  0
  -19.3036  -30.5127   20.5364 C   0  0  0  0  0  0  0  0  0  0  0  0
  -29.9604  -17.4619   21.4677 C   0  0  0  0  0  0  0  0  0  0  0  0
  -20.2953  -29.4434   20.9836 C   0  0  0  0  0  0  0  0  0  0  0  0
  -31.8982  -28.3982   19.8273 C   0  0  0  0  0  0  0  0  0  0  0  0
  -31.8004  -27.5376   18.5987 C   0  0  0  0  0  0  0  0  0  0  0  0
  -30.9838  -27.6155   22.5964 C   0  0  0  0  0  0  0  0  0  0  0  0
  -28.6276  -27.1509   21.8037 C   0  0  0  0  0  0  0  0  0  0  0  0
  -28.7766  -16.6459   20.9570 C   0  0  0  0  0  0  0  0  0  0  0  0
  -30.4380  -28.0459   23.9546 C   0  0  0  0  0  0  0  0  0  0  0  0
  -28.0883  -27.5832   23.1640 C   0  0  0  0  0  0  0  0  0  0  0  0
  -30.1963  -24.7444   18.4828 C   0  0  0  0  0  0  0  0  0  0  0  0
  -29.5541  -23.9077   20.6851 C   0  0  0  0  0  0  0  0  0  0  0  0
  -29.8950  -18.8977   20.9563 C   0  0  0  0  0  0  0  0  0  0  0  0
  -27.5695  -18.7339   21.8439 C   0  0  0  0  0  0  0  0  0  0  0  0
  -20.1975  -29.1974   22.4941 C   0  0  1  0  0  0  0  0  0  0  0  0
  -22.7096  -31.4469   24.2441 C   0  0  1  0  0  0  0  0  0  0  0  0
  -30.7296  -27.4685   19.6519 C   0  0  0  0  0  0  0  0  0  0  0  0
  -30.0572  -26.6021   21.9104 C   0  0  0  0  0  0  0  0  0  0  0  0
  -29.6906  -25.1929   19.8650 C   0  0  1  0  0  0  0  0  0  0  0  0
  -30.1346  -23.2084   18.4824 C   0  0  1  0  0  0  0  0  0  0  0  0
  -27.4195  -17.3243   21.2448 C   0  0  2  0  0  0  0  0  0  0  0  0
  -29.1817  -22.8719   19.6324 C   0  0  1  0  0  0  0  0  0  0  0  0
  -29.0153  -28.5878   23.8450 C   0  0  0  0  0  0  0  0  0  1  0  0
  -29.7000  -22.6322   17.1435 C   0  0  0  0  0  0  0  0  0  0  0  0
  -26.1043  -37.8931   21.6125 C   0  0  0  0  0  0  0  0  0  0  0  0
  -23.2073  -32.2457   19.7192 C   0  0  0  0  0  0  0  0  0  0  0  0
  -24.5520  -34.2717   19.1231 C   0  0  0  0  0  0  0  0  0  0  0  0
  -22.2377  -34.5316   20.0170 C   0  0  0  0  0  0  0  0  0  0  0  0
  -26.3616  -36.4635   25.1291 C   0  0  0  0  0  0  0  0  0  0  0  0
  -24.0937  -33.8080   21.5738 C   0  0  1  0  0  0  0  0  0  0  0  0
  -25.6894  -37.0243   22.7897 C   0  0  2  0  0  0  0  0  0  0  0  0
  -30.5952  -26.2272   20.5308 C   0  0  1  0  0  0  0  0  0  0  0  0
  -23.5317  -33.6963   20.1284 C   0  0  0  0  0  0  0  0  0  0  0  0
  -26.5459  -16.6413   23.4494 N   0  0  0  0  0  0  0  0  0  0  0  0
  -26.5186  -16.4667   22.1172 N   0  0  0  0  0  0  0  0  0  0  0  0
  -23.6372  -32.1719   23.3734 N   0  0  0  0  0  0  0  0  0  0  0  0
  -28.5765  -19.5205   21.1294 N   0  0  0  0  0  0  0  0  0  0  0  0
  -25.4951  -15.1972   20.3992 N   0  0  0  0  0  0  0  0  0  0  0  0
  -22.7248  -14.3319   22.8425 N   0  0  0  0  0  0  0  0  0  0  0  0
  -20.8692  -30.2523   23.2224 N   0  0  0  0  0  0  0  0  0  0  0  0
  -24.3845  -35.1732   21.9980 N   0  0  0  0  0  0  0  0  0  0  0  0
  -29.3217  -21.5170   20.1151 N   0  0  0  0  0  0  0  0  0  0  0  0
  -26.6617  -37.2397   23.8984 N   0  3  0  0  0  0  0  0  0  0  0  0
  -24.3855  -12.7618   23.0307 O   0  0  0  0  0  0  0  0  0  0  0  0
  -23.0307  -29.3913   23.1277 O   0  0  0  0  0  0  0  0  0  0  0  0
  -22.0225  -33.7246   22.7268 O   0  0  0  0  0  0  0  0  0  0  0  0
  -26.6309  -34.8245   22.4553 O   0  0  0  0  0  0  0  0  0  0  0  0
  -27.1551  -21.3424   20.8654 O   0  0  0  0  0  0  0  0  0  0  0  0
  -24.6376  -15.2717   29.3680 O   0  0  0  0  0  0  0  0  0  0  0  0
  -28.5349  -28.8713   25.1545 O   0  0  0  0  0  0  0  0  0  1  0  0
  -19.9119  -17.3716   31.2816 F   0  0  0  0  0  0  0  0  0  0  0  0
  -24.6440  -17.2614   31.2873 F   0  0  0  0  0  0  0  0  0  0  0  0
  1  2  1  0  0  0  0
  1  5  2  0  0  0  0
  2  6  2  0  0  0  0
  3  8  2  0  0  0  0
  3 15  1  0  0  0  0
  4  9  1  0  0  0  0
  4 15  2  0  0  0  0
  5 17  1  0  0  0  0
  6 19  1  0  0  0  0
  7 10  2  0  0  0  0
  7 18  1  0  0  0  0
  8 21  1  0  0  0  0
  9 21  2  0  0  0  0
 10 22  1  0  0  0  0
 11 12  2  0  0  0  0
 11 23  1  0  0  0  0
 12 24  1  0  0  0  0
 13 20  1  0  0  0  0
 13 22  2  0  0  0  0
 14 24  2  0  0  0  0
 14 25  1  0  0  0  0
 15 26  1  0  0  0  0
 16 26  1  0  0  0  0
 16 27  2  0  0  0  0
 16 28  1  0  0  0  0
 17 19  2  0  0  0  0
 17 33  1  0  0  0  0
 18 20  2  0  0  0  0
 18 34  1  0  0  0  0
 19 50  1  0  0  0  0
 20 35  1  0  0  0  0
 21 84  1  0  0  0  0
 22 85  1  0  0  0  0
 23 25  2  0  0  0  0
 23 84  1  0  0  0  0
 24 86  1  0  0  0  0
 25 87  1  0  0  0  0
 26 69  2  0  0  0  0
 27 70  1  0  0  0  0
 27 73  1  0  0  0  0
 28 74  1  0  0  0  0
 28 79  2  0  0  0  0
 29 51  1  0  0  0  0
 29 75  1  0  0  0  0
 29 80  2  0  0  0  0
 30 65  1  0  0  0  0
 30 71  1  0  0  0  0
 30 81  2  0  0  0  0
 31 66  1  0  0  0  0
 31 76  1  0  0  0  0
 31 82  2  0  0  0  0
 32 72  1  0  0  0  0
 32 77  1  0  0  0  0
 32 83  2  0  0  0  0
 33 36  1  0  0  0  0
 34 51  1  0  0  0  0
 35 71  1  0  0  0  0
 36 38  1  0  0  0  0
 37 43  1  0  0  0  0
 37 48  1  0  0  0  0
 38 50  1  0  0  0  0
 39 40  1  0  0  0  0
 39 52  1  0  0  0  0
 40 52  1  0  0  0  0
 41 44  1  0  0  0  0
 41 53  1  0  0  0  0
 42 45  1  0  0  0  0
 42 53  1  0  0  0  0
 43 56  1  0  0  0  0
 44 58  1  0  0  0  0
 45 58  1  0  0  0  0
 46 54  1  0  0  0  0
 46 55  1  0  0  0  0
 47 54  1  0  0  0  0
 47 57  1  0  0  0  0
 48 72  1  0  0  0  0
 49 56  1  0  0  0  0
 49 72  1  0  0  0  0
 50 75  1  0  0  0  0
 51 71  1  0  0  0  0
 52 67  1  0  0  0  0
 53 67  1  0  0  0  0
 54 67  1  0  0  0  0
 55 57  1  0  0  0  0
 55 59  1  0  0  0  0
 56 70  1  0  0  0  0
 57 77  1  0  0  0  0
 58 85  1  0  0  0  0
 60 66  1  0  0  0  0
 61 68  1  0  0  0  0
 62 68  1  0  0  0  0
 63 68  1  0  0  0  0
 64 78  1  0  0  0  0
 65 68  1  0  0  0  0
 65 76  1  0  0  0  0
 66 78  1  0  0  0  0
 69 70  1  0  0  0  0
M  CHG  1  78   1
M  ISO  4  32 100  58 101  77 100  85 101
M  END
> <Batch ID>
0140

> <Smiles>
CNC(C)C(=O)NC(C(=O)N1Cc2cc([101O:1][101CH:1]3CCC(C(C4CC4)C4CC(C)C([100NH:0][100C:0](=O)N5CCCC(n6nc(-c7ccc(Oc8ccc(F)cc8F)cc7)c(C(N)=O)c6N)C5)C4)CC3)ccc2CC1C(=O)NC1CCCc2ccccc21)C(C)(C)C

> <Shape>
0.232

> <Color>
0.131

> <Negative vol penalty>
0.000

$$$$

  -OEChem-04052321133D

 88 97  0     1  0  0  0  0  0999 V2000
  -19.2258  -24.2598   24.6337 C   0  0  0  0  0  0  0  0  0  0  0  0
  -20.4781  -24.1269   24.0426 C   0  0  0  0  0  0  0  0  0  0  0  0
  -25.7196  -12.2965   21.4120 C   0  0  0  0  0  0  0  0  0  0  0  0
  -25.6524  -13.3456   19.2367 C   0  0  0  0  0  0  0  0  0  0  0  0
  -18.4878  -25.4277   24.4457 C   0  0  0  0  0  0  0  0  0  0  0  0
  -20.9927  -25.1614   23.2620 C   0  0  0  0  0  0  0  0  0  0  0  0
  -26.8636  -26.8346   22.7735 C   0  0  0  0  0  0  0  0  0  0  0  0
  -24.3383  -12.1091   21.3644 C   0  0  0  0  0  0  0  0  0  0  0  0
  -24.2710  -13.1580   19.1890 C   0  0  0  0  0  0  0  0  0  0  0  0
  -27.8425  -26.5550   21.8210 C   0  0  0  0  0  0  0  0  0  0  0  0
  -22.1230  -10.6330   18.5327 C   0  0  0  0  0  0  0  0  0  0  0  0
  -21.5772  -10.1462   17.3450 C   0  0  0  0  0  0  0  0  0  0  0  0
  -27.3456  -28.6367   20.7081 C   0  0  0  0  0  0  0  0  0  0  0  0
  -29.3944  -23.1828   17.9071 C   0  0  0  0  0  0  0  0  0  0  0  0
  -20.2310  -12.1425   17.1454 C   0  0  0  0  0  0  0  0  0  0  0  0
  -30.6500  -24.5118   16.3861 C   0  0  0  0  0  0  0  0  0  0  0  0
  -26.3767  -12.9148   20.3482 C   0  0  0  0  0  0  0  0  0  0  0  0
  -28.7983  -12.2245   19.9395 C   0  0  0  0  0  0  0  0  0  0  0  0
  -18.9978  -26.4810   23.6704 C   0  0  0  0  0  0  0  0  0  0  0  0
  -26.1096  -28.0142   22.6942 C   0  0  0  0  0  0  0  0  0  0  0  0
  -20.2603  -26.3440   23.0623 C   0  0  0  0  0  0  0  0  0  0  0  0
  -26.3595  -28.9302   21.6623 C   0  0  0  0  0  0  0  0  0  0  0  0
  -30.1948  -22.0965   17.5714 C   0  0  0  0  0  0  0  0  0  0  0  0
  -23.6140  -12.5398   20.2528 C   0  0  0  0  0  0  0  0  0  0  0  0
  -28.0816  -27.4547   20.7864 C   0  0  0  0  0  0  0  0  0  0  0  0
  -21.7227  -11.8745   19.0269 C   0  0  0  0  0  0  0  0  0  0  0  0
  -29.6198  -24.4169   17.3077 C   0  0  0  0  0  0  0  0  0  0  0  0
  -20.6313  -10.9010   16.6513 C   0  0  0  0  0  0  0  0  0  0  0  0
  -20.7768  -12.6293   18.3332 C   0  0  0  0  0  0  0  0  0  0  0  0
  -27.8035  -13.1093   20.3972 C   0  0  0  0  0  0  0  0  0  0  0  0
  -31.1992  -22.2952   16.6379 C   0  0  0  0  0  0  0  0  0  0  0  0
  -29.9812  -12.8672   20.2120 C   0  0  0  0  0  0  0  0  0  0  0  0
  -28.6650  -10.9369   19.3232 C   0  0  0  0  0  0  0  0  0  0  0  0
  -23.0240  -28.6837   22.3272 C   0  0  0  0  0  0  0  0  0  0  0  0
  -24.0256  -31.7288   22.8238 C   0  0  0  0  0  0  0  0  0  0  0  0
  -26.5753  -33.9945   22.7131 C   0  0  0  0  0  0  0  0  0  0  0  0
  -31.3833  -18.6398   20.9260 C   0  0  0  0  0  0  0  0  0  0  0  0
  -18.1430  -27.7051   23.4569 C   0  0  0  0  0  0  0  0  0  0  0  0
  -25.0757  -28.3138   23.7448 C   0  0  0  0  0  0  0  0  0  0  0  0
  -25.5914  -30.2203   21.5439 C   0  0  0  0  0  0  0  0  0  0  0  0
  -18.9206  -28.9054   22.9231 C   0  0  0  0  0  0  0  0  0  0  0  0
  -31.9487  -16.0058   23.2119 C   0  0  0  0  0  0  0  0  0  0  0  0
  -19.8254  -28.4851   21.7692 C   0  0  0  0  0  0  0  0  0  0  0  0
  -31.0227  -14.8897   22.7365 C   0  0  0  0  0  0  0  0  0  0  0  0
  -28.8293  -20.6948   19.2803 C   0  0  0  0  0  0  0  0  0  0  0  0
  -31.2877  -17.3669   23.0405 C   0  0  0  0  0  0  0  0  0  0  0  0
  -29.1119  -19.3853   20.0044 C   0  0  0  0  0  0  0  0  0  0  0  0
  -31.1385  -20.2051   19.0230 C   0  0  0  0  0  0  0  0  0  0  0  0
  -29.9583  -16.5430   21.1158 C   0  0  0  0  0  0  0  0  0  0  0  0
  -29.9470  -20.7557   18.2266 C   0  0  2  0  0  0  0  0  0  0  0  0
  -20.8631  -27.4541   22.2291 C   0  0  1  0  0  0  0  0  0  0  0  0
  -24.0138  -29.3024   23.2733 C   0  0  1  0  0  0  0  0  0  0  0  0
  -30.5733  -15.1387   21.2884 C   0  0  2  0  0  0  0  0  0  0  0  0
  -27.0801  -36.4146   23.1436 C   0  0  0  0  0  0  0  0  0  0  0  0
  -33.8006  -20.0975   15.1102 C   0  0  0  0  0  0  0  0  0  0  0  0
  -34.2391  -21.5496   17.1215 C   0  0  0  0  0  0  0  0  0  0  0  0
  -22.6241  -32.4816   20.2201 C   0  0  0  0  0  0  0  0  0  0  0  0
  -23.9329  -34.6159   20.2141 C   0  0  0  0  0  0  0  0  0  0  0  0
  -22.3408  -34.1365   22.0737 C   0  0  0  0  0  0  0  0  0  0  0  0
  -28.5709  -33.3280   24.7946 C   0  0  0  0  0  0  0  0  0  0  0  0
  -28.8307  -27.7065   18.5433 C   0  0  0  0  0  0  0  0  0  1  0  0
  -29.4708  -26.7802   17.5275 C   0  0  0  0  0  0  0  0  0  0  0  0
  -24.5138  -32.8512   21.9402 C   0  0  1  0  0  0  0  0  0  0  0  0
  -27.0642  -35.0111   23.7289 C   0  0  2  0  0  0  0  0  0  0  0  0
  -33.3765  -21.3360   15.8862 C   0  0  0  0  0  0  0  0  0  0  0  0
  -23.3662  -33.4962   21.1129 C   0  0  0  0  0  0  0  0  0  0  0  0
  -31.4484  -23.4790   16.0345 N   0  0  0  0  0  0  0  0  0  0  0  0
  -28.3104  -14.2287   20.9208 N   0  0  0  0  0  0  0  0  0  0  0  0
  -29.6365  -14.0516   20.7939 N   0  0  0  0  0  0  0  0  0  0  0  0
  -24.5867  -30.4650   22.5919 N   0  0  0  0  0  0  0  0  0  0  0  0
  -30.8378  -17.5836   21.6641 N   0  0  0  0  0  0  0  0  0  0  0  0
  -30.5683  -19.2664   19.9840 N   0  0  0  0  0  0  0  0  0  0  0  0
  -31.2721  -12.5290   20.0082 N   0  0  0  0  0  0  0  0  0  0  0  0
  -27.3766  -10.4250   19.1170 N   0  0  0  0  0  0  0  0  0  0  0  0
  -32.0169  -21.1901   16.2920 N   0  0  0  0  0  0  0  0  0  0  0  0
  -21.9358  -28.1041   22.9511 N   0  0  0  0  0  0  0  0  0  0  0  0
  -25.2166  -33.7834   22.8151 N   0  0  0  0  0  0  0  0  0  0  0  0
  -28.4449  -34.6731   24.1768 N   0  3  0  0  0  0  0  0  0  0  0  0
  -29.6593  -10.2531   18.9809 O   0  0  0  0  0  0  0  0  0  0  0  0
  -23.2315  -28.7301   21.1203 O   0  0  0  0  0  0  0  0  0  0  0  0
  -23.1828  -31.9661   23.6928 O   0  0  0  0  0  0  0  0  0  0  0  0
  -27.3233  -33.4454   21.9071 O   0  0  0  0  0  0  0  0  0  0  0  0
  -32.5392  -19.0358   21.1283 O   0  0  0  0  0  0  0  0  0  0  0  0
  -22.2660  -12.3568   20.2058 O   0  0  0  0  0  0  0  0  0  0  0  0
  -29.0425  -27.1821   19.8486 O   0  0  0  0  0  0  0  0  0  1  0  0
  -28.8554  -25.4934   17.6163 O   0  0  0  0  0  0  0  0  0  0  0  0
  -20.1084  -10.4341   15.5099 F   0  0  0  0  0  0  0  0  0  0  0  0
  -20.3892  -13.8232   18.8024 F   0  0  0  0  0  0  0  0  0  0  0  0
  1  2  1  0  0  0  0
  1  5  2  0  0  0  0
  2  6  2  0  0  0  0
  3  8  2  0  0  0  0
  3 17  1  0  0  0  0
  4  9  1  0  0  0  0
  4 17  2  0  0  0  0
  5 19  1  0  0  0  0
  6 21  1  0  0  0  0
  7 10  2  0  0  0  0
  7 20  1  0  0  0  0
  8 24  1  0  0  0  0
  9 24  2  0  0  0  0
 10 25  1  0  0  0  0
 11 12  2  0  0  0  0
 11 26  1  0  0  0  0
 12 28  1  0  0  0  0
 13 22  1  0  0  0  0
 13 25  2  0  0  0  0
 14 23  1  0  0  0  0
 14 27  2  0  0  0  0
 15 28  2  0  0  0  0
 15 29  1  0  0  0  0
 16 27  1  0  0  0  0
 16 67  2  0  0  0  0
 17 30  1  0  0  0  0
 18 30  1  0  0  0  0
 18 32  2  0  0  0  0
 18 33  1  0  0  0  0
 19 21  2  0  0  0  0
 19 38  1  0  0  0  0
 20 22  2  0  0  0  0
 20 39  1  0  0  0  0
 21 51  1  0  0  0  0
 22 40  1  0  0  0  0
 23 31  2  0  0  0  0
 23 50  1  0  0  0  0
 24 84  1  0  0  0  0
 25 85  1  0  0  0  0
 26 29  2  0  0  0  0
 26 84  1  0  0  0  0
 27 86  1  0  0  0  0
 28 87  1  0  0  0  0
 29 88  1  0  0  0  0
 30 68  2  0  0  0  0
 31 67  1  0  0  0  0
 31 75  1  0  0  0  0
 32 69  1  0  0  0  0
 32 73  1  0  0  0  0
 33 74  1  0  0  0  0
 33 79  2  0  0  0  0
 34 52  1  0  0  0  0
 34 76  1  0  0  0  0
 34 80  2  0  0  0  0
 35 63  1  0  0  0  0
 35 70  1  0  0  0  0
 35 81  2  0  0  0  0
 36 64  1  0  0  0  0
 36 77  1  0  0  0  0
 36 82  2  0  0  0  0
 37 71  1  0  0  0  0
 37 72  1  0  0  0  0
 37 83  2  0  0  0  0
 38 41  1  0  0  0  0
 39 52  1  0  0  0  0
 40 70  1  0  0  0  0
 41 43  1  0  0  0  0
 42 44  1  0  0  0  0
 42 46  1  0  0  0  0
 43 51  1  0  0  0  0
 44 53  1  0  0  0  0
 45 47  1  0  0  0  0
 45 50  1  0  0  0  0
 46 71  1  0  0  0  0
 47 72  1  0  0  0  0
 48 50  1  0  0  0  0
 48 72  1  0  0  0  0
 49 53  1  0  0  0  0
 49 71  1  0  0  0  0
 51 76  1  0  0  0  0
 52 70  1  0  0  0  0
 53 69  1  0  0  0  0
 54 64  1  0  0  0  0
 55 65  1  0  0  0  0
 56 65  1  0  0  0  0
 57 66  1  0  0  0  0
 58 66  1  0  0  0  0
 59 66  1  0  0  0  0
 60 78  1  0  0  0  0
 61 62  1  0  0  0  0
 61 85  1  0  0  0  0
 62 86  1  0  0  0  0
 63 66  1  0  0  0  0
 63 77  1  0  0  0  0
 64 78  1  0  0  0  0
 65 75  1  0  0  0  0
 68 69  1  0  0  0  0
M  CHG  1  78   1
M  ISO  4  37 100  61 101  72 100  85 101
M  END
> <Batch ID>
0140

> <Smiles>
CNC(C)C(=O)NC(C(=O)N1Cc2cc([101O:1][101CH2:1]COc3cnc(NC(C)C)c(C4CC[100N:0]([100C:0](=O)N5CCCC(n6nc(-c7ccc(Oc8ccc(F)cc8F)cc7)c(C(N)=O)c6N)C5)C4)c3)ccc2CC1C(=O)NC1CCCc2ccccc21)C(C)(C)C

> <Shape>
0.286

> <Color>
0.070

> <Negative vol penalty>
0.000

$$$$

  -OEChem-04052321133D

 87 96  0     1  0  0  0  0  0999 V2000
  -32.0592  -26.4988   19.4014 C   0  0  0  0  0  0  0  0  0  0  0  0
  -30.8271  -26.4513   18.7571 C   0  0  0  0  0  0  0  0  0  0  0  0
  -27.6910  -21.2867   21.1931 C   0  0  0  0  0  0  0  0  0  0  0  0
  -25.5415  -20.4747   20.4466 C   0  0  0  0  0  0  0  0  0  0  0  0
  -32.1216  -26.7892   20.7636 C   0  0  0  0  0  0  0  0  0  0  0  0
  -29.6564  -26.6931   19.4751 C   0  0  0  0  0  0  0  0  0  0  0  0
  -23.1187  -29.5185   18.7060 C   0  0  0  0  0  0  0  0  0  0  0  0
  -28.3158  -20.5729   20.1706 C   0  0  0  0  0  0  0  0  0  0  0  0
  -26.1664  -19.7609   19.4240 C   0  0  0  0  0  0  0  0  0  0  0  0
  -21.7771  -29.2019   18.9150 C   0  0  0  0  0  0  0  0  0  0  0  0
  -27.2257  -17.4375   16.8375 C   0  0  0  0  0  0  0  0  0  0  0  0
  -26.8150  -16.1224   16.6201 C   0  0  0  0  0  0  0  0  0  0  0  0
  -22.0123  -29.7718   21.2472 C   0  0  0  0  0  0  0  0  0  0  0  0
  -20.3659  -27.1294   21.8180 C   0  0  0  0  0  0  0  0  0  0  0  0
  -18.5223  -28.6099   22.3142 C   0  0  0  0  0  0  0  0  0  0  0  0
  -27.4651  -15.5467   18.8747 C   0  0  0  0  0  0  0  0  0  0  0  0
  -26.3038  -21.2376   21.3312 C   0  0  0  0  0  0  0  0  0  0  0  0
  -25.1776  -23.2964   22.3314 C   0  0  0  0  0  0  0  0  0  0  0  0
  -30.9518  -27.0443   21.4965 C   0  0  0  0  0  0  0  0  0  0  0  0
  -23.9213  -29.9545   19.7701 C   0  0  0  0  0  0  0  0  0  0  0  0
  -29.7031  -26.9859   20.8487 C   0  0  0  0  0  0  0  0  0  0  0  0
  -23.3631  -30.0957   21.0485 C   0  0  0  0  0  0  0  0  0  0  0  0
  -18.9708  -26.7168   23.7467 C   0  0  0  0  0  0  0  0  0  0  0  0
  -20.0504  -26.3609   22.9384 C   0  0  0  0  0  0  0  0  0  0  0  0
  -18.2067  -27.8413   23.4346 C   0  0  0  0  0  0  0  0  0  0  0  0
  -27.5536  -19.8100   19.2860 C   0  0  0  0  0  0  0  0  0  0  0  0
  -21.2244  -29.3257   20.1864 C   0  0  0  0  0  0  0  0  0  0  0  0
  -27.7563  -17.8073   18.0734 C   0  0  0  0  0  0  0  0  0  0  0  0
  -19.6019  -28.2539   21.5059 C   0  0  0  0  0  0  0  0  0  1  0  0
  -26.9346  -15.1770   17.6387 C   0  0  0  0  0  0  0  0  0  0  0  0
  -27.8759  -16.8619   19.0920 C   0  0  0  0  0  0  0  0  0  0  0  0
  -25.6578  -21.9742   22.3876 C   0  0  0  0  0  0  0  0  0  0  0  0
  -24.6559  -23.5256   23.5812 C   0  0  0  0  0  0  0  0  0  0  0  0
  -25.2009  -24.2335   21.2465 C   0  0  0  0  0  0  0  0  0  0  0  0
  -26.5351  -28.8539   21.2056 C   0  0  0  0  0  0  0  0  0  0  0  0
  -26.3745  -31.6740   22.8003 C   0  0  0  0  0  0  0  0  0  0  0  0
  -24.4615  -34.2826   23.8877 C   0  0  0  0  0  0  0  0  0  0  0  0
  -21.7885  -20.7863   27.7987 C   0  0  0  0  0  0  0  0  0  0  0  0
  -31.0657  -27.3073   22.9772 C   0  0  0  0  0  0  0  0  0  0  0  0
  -25.3598  -30.3176   19.5226 C   0  0  0  0  0  0  0  0  0  0  0  0
  -24.1769  -30.5789   22.2202 C   0  0  0  0  0  0  0  0  0  0  0  0
  -29.8070  -27.9203   23.5856 C   0  0  0  0  0  0  0  0  0  0  0  0
  -25.2713  -21.4842   28.0417 C   0  0  0  0  0  0  0  0  0  0  0  0
  -28.5656  -27.1719   23.1108 C   0  0  0  0  0  0  0  0  0  0  0  0
  -25.6814  -21.8046   26.6032 C   0  0  0  0  0  0  0  0  0  0  0  0
  -18.2767  -24.4585   24.5249 C   0  0  0  0  0  0  0  0  0  0  0  0
  -19.8070  -25.8893   25.9383 C   0  0  0  0  0  0  0  0  0  0  0  0
  -24.2146  -20.3831   28.0953 C   0  0  0  0  0  0  0  0  0  0  0  0
  -23.4291  -20.9518   25.8296 C   0  0  0  0  0  0  0  0  0  0  0  0
  -18.0067  -23.5709   25.7331 C   0  0  0  0  0  0  0  0  0  0  0  0
  -19.5250  -24.9910   27.1358 C   0  0  0  0  0  0  0  0  0  0  0  0
  -18.6317  -25.8926   24.9481 C   0  0  0  0  0  0  0  0  0  0  0  0
  -28.4128  -27.2669   21.5879 C   0  0  1  0  0  0  0  0  0  0  0  0
  -26.2160  -30.2604   20.7839 C   0  0  1  0  0  0  0  0  0  0  0  0
  -24.4522  -22.0954   25.7213 C   0  0  2  0  0  0  0  0  0  0  0  0
  -20.8832  -25.1608   23.2498 C   0  0  0  0  0  0  0  0  0  0  0  0
  -17.0470  -28.2454   24.2846 C   0  0  0  0  0  0  0  0  0  0  0  0
  -24.6037  -36.4175   25.1991 C   0  0  0  0  0  0  0  0  0  0  0  0
  -26.4878  -30.0706   25.3938 C   0  0  0  0  0  0  0  0  0  0  0  0
  -25.6817  -32.1071   26.6065 C   0  0  0  0  0  0  0  0  0  0  0  0
  -27.8632  -32.1592   25.3978 C   0  0  0  0  0  0  0  0  0  0  0  0
  -23.6003  -35.9025   21.5654 C   0  0  0  0  0  0  0  0  0  0  0  0
  -19.3892  -21.2318   27.3467 C   0  0  0  0  0  0  0  0  0  0  0  0
  -19.0413  -22.6373   27.8002 C   0  0  0  0  0  0  0  0  0  0  0  0
  -25.7110  -32.1474   24.0711 C   0  0  1  0  0  0  0  0  0  0  0  0
  -24.6726  -35.7843   23.8181 C   0  0  2  0  0  0  0  0  0  0  0  0
  -26.4208  -31.6101   25.3458 C   0  0  0  0  0  0  0  0  0  0  0  0
  -25.4590  -21.4037   23.5788 N   0  0  0  0  0  0  0  0  0  0  0  0
  -24.8482  -22.3719   24.2827 N   0  0  0  0  0  0  0  0  0  0  0  0
  -25.5802  -30.9155   21.9288 N   0  0  0  0  0  0  0  0  0  0  0  0
  -23.0751  -20.7211   27.2389 N   0  0  0  0  0  0  0  0  0  0  0  0
  -24.0562  -24.5995   24.1374 N   0  0  0  0  0  0  0  0  0  0  0  0
  -25.7744  -23.8348   20.0314 N   0  0  0  0  0  0  0  0  0  0  0  0
  -27.8856  -28.5613   21.2127 N   0  0  0  0  0  0  0  0  0  0  0  0
  -25.6571  -33.6028   23.9857 N   0  0  0  0  0  0  0  0  0  0  0  0
  -20.7659  -21.1193   26.9189 N   0  0  0  0  0  0  0  0  0  0  0  0
  -19.2034  -23.5968   26.6533 N   0  3  0  0  0  0  0  0  0  0  0  0
  -23.6303  -36.4147   22.9596 N   0  3  0  0  0  0  0  0  0  0  0  0
  -24.7419  -25.3957   21.3567 O   0  0  0  0  0  0  0  0  0  0  0  0
  -25.6236  -28.0911   21.5038 O   0  0  0  0  0  0  0  0  0  0  0  0
  -27.5519  -31.9726   22.5854 O   0  0  0  0  0  0  0  0  0  0  0  0
  -23.3472  -33.7648   23.8618 O   0  0  0  0  0  0  0  0  0  0  0  0
  -21.5682  -20.5693   28.9951 O   0  0  0  0  0  0  0  0  0  0  0  0
  -28.1629  -19.1135   18.2879 O   0  0  0  0  0  0  0  0  0  0  0  0
  -19.9154  -29.0167   20.3933 O   0  0  0  0  0  0  0  0  0  1  0  0
  -26.5387  -13.9145   17.4304 F   0  0  0  0  0  0  0  0  0  0  0  0
  -28.3838  -17.2114   20.2819 F   0  0  0  0  0  0  0  0  0  0  0  0
  1  2  1  0  0  0  0
  1  5  2  0  0  0  0
  2  6  2  0  0  0  0
  3  8  2  0  0  0  0
  3 17  1  0  0  0  0
  4  9  1  0  0  0  0
  4 17  2  0  0  0  0
  5 19  1  0  0  0  0
  6 21  1  0  0  0  0
  7 10  2  0  0  0  0
  7 20  1  0  0  0  0
  8 26  1  0  0  0  0
  9 26  2  0  0  0  0
 10 27  1  0  0  0  0
 11 12  2  0  0  0  0
 11 28  1  0  0  0  0
 12 30  1  0  0  0  0
 13 22  1  0  0  0  0
 13 27  2  0  0  0  0
 14 24  2  0  0  0  0
 14 29  1  0  0  0  0
 15 25  1  0  0  0  0
 15 29  2  0  0  0  0
 16 30  2  0  0  0  0
 16 31  1  0  0  0  0
 17 32  1  0  0  0  0
 18 32  1  0  0  0  0
 18 33  2  0  0  0  0
 18 34  1  0  0  0  0
 19 21  2  0  0  0  0
 19 39  1  0  0  0  0
 20 22  2  0  0  0  0
 20 40  1  0  0  0  0
 21 53  1  0  0  0  0
 22 41  1  0  0  0  0
 23 24  1  0  0  0  0
 23 25  2  0  0  0  0
 23 52  1  0  0  0  0
 24 56  1  0  0  0  0
 25 57  1  0  0  0  0
 26 84  1  0  0  0  0
 27 85  1  0  0  0  0
 28 31  2  0  0  0  0
 28 84  1  0  0  0  0
 29 85  1  0  0  0  0
 30 86  1  0  0  0  0
 31 87  1  0  0  0  0
 32 68  2  0  0  0  0
 33 69  1  0  0  0  0
 33 72  1  0  0  0  0
 34 73  1  0  0  0  0
 34 79  2  0  0  0  0
 35 54  1  0  0  0  0
 35 74  1  0  0  0  0
 35 80  2  0  0  0  0
 36 65  1  0  0  0  0
 36 70  1  0  0  0  0
 36 81  2  0  0  0  0
 37 66  1  0  0  0  0
 37 75  1  0  0  0  0
 37 82  2  0  0  0  0
 38 71  1  0  0  0  0
 38 76  1  0  0  0  0
 38 83  2  0  0  0  0
 39 42  1  0  0  0  0
 40 54  1  0  0  0  0
 41 70  1  0  0  0  0
 42 44  1  0  0  0  0
 43 45  1  0  0  0  0
 43 48  1  0  0  0  0
 44 53  1  0  0  0  0
 45 55  1  0  0  0  0
 46 50  1  0  0  0  0
 46 52  1  0  0  0  0
 47 51  1  0  0  0  0
 47 52  1  0  0  0  0
 48 71  1  0  0  0  0
 49 55  1  0  0  0  0
 49 71  1  0  0  0  0
 50 77  1  0  0  0  0
 51 77  1  0  0  0  0
 53 74  1  0  0  0  0
 54 70  1  0  0  0  0
 55 69  1  0  0  0  0
 58 66  1  0  0  0  0
 59 67  1  0  0  0  0
 60 67  1  0  0  0  0
 61 67  1  0  0  0  0
 62 78  1  0  0  0  0
 63 64  1  0  0  0  0
 63 76  1  0  0  0  0
 64 77  1  0  0  0  0
 65 67  1  0  0  0  0
 65 75  1  0  0  0  0
 66 78  1  0  0  0  0
 68 69  1  0  0  0  0
M  CHG  2  77   1  78   1
M  ISO  4  29 101  38 100  76 100  85 101
M  END
> <Batch ID>
0140

> <Smiles>
CNC(C)C(=O)NC(C(=O)N1Cc2cc([101O:1][101c:1]3cc(C)c(C4CCN(CC[100NH:0][100C:0](=O)N5CCCC(n6nc(-c7ccc(Oc8ccc(F)cc8F)cc7)c(C(N)=O)c6N)C5)CC4)c(C)c3)ccc2CC1C(=O)NC1CCCc2ccccc21)C(C)(C)C

> <Shape>
0.242

> <Color>
0.071

> <Negative vol penalty>
0.000

$$$$

  -OEChem-04052321133D

 84 93  0     1  0  0  0  0  0999 V2000
  -27.3358  -31.7473   14.1077 C   0  0  0  0  0  0  0  0  0  0  0  0
  -27.1739  -30.5902   14.8630 C   0  0  0  0  0  0  0  0  0  0  0  0
  -26.1127  -13.7302   21.3414 C   0  0  0  0  0  0  0  0  0  0  0  0
  -25.9345  -14.8337   19.1995 C   0  0  0  0  0  0  0  0  0  0  0  0
  -27.6643  -32.9480   14.7356 C   0  0  0  0  0  0  0  0  0  0  0  0
  -27.3414  -30.6330   16.2466 C   0  0  0  0  0  0  0  0  0  0  0  0
  -23.7014  -28.1301   18.7227 C   0  0  0  0  0  0  0  0  0  0  0  0
  -24.8067  -13.2592   21.2074 C   0  0  0  0  0  0  0  0  0  0  0  0
  -24.6284  -14.3626   19.0655 C   0  0  0  0  0  0  0  0  0  0  0  0
  -23.7979  -26.7398   18.7613 C   0  0  0  0  0  0  0  0  0  0  0  0
  -21.6726  -14.4667   21.5867 C   0  0  0  0  0  0  0  0  0  0  0  0
  -20.8308  -14.5690   22.6941 C   0  0  0  0  0  0  0  0  0  0  0  0
  -24.7112  -26.8710   20.9902 C   0  0  0  0  0  0  0  0  0  0  0  0
  -25.7040  -22.7978   19.5122 C   0  0  0  0  0  0  0  0  0  0  0  0
  -20.5509  -12.1693   22.7030 C   0  0  0  0  0  0  0  0  0  0  0  0
  -26.6766  -14.5175   20.3375 C   0  0  0  0  0  0  0  0  0  0  0  0
  -29.2070  -14.3689   20.0493 C   0  0  0  0  0  0  0  0  0  0  0  0
  -27.8265  -33.0076   16.1288 C   0  0  0  0  0  0  0  0  0  0  0  0
  -24.1200  -28.9032   19.8152 C   0  0  0  0  0  0  0  0  0  0  0  0
  -27.6737  -31.8354   16.8937 C   0  0  0  0  0  0  0  0  0  0  0  0
  -24.6167  -28.2708   20.9639 C   0  0  0  0  0  0  0  0  0  0  0  0
  -26.8945  -22.2438   19.0545 C   0  0  0  0  0  0  0  0  0  0  0  0
  -27.9073  -23.0746   18.5883 C   0  0  0  0  0  0  0  0  0  0  0  0
  -24.0645  -13.5754   20.0695 C   0  0  0  0  0  0  0  0  0  0  0  0
  -24.3055  -26.1102   19.8940 C   0  0  0  0  0  0  0  0  0  0  0  0
  -21.9536  -13.2157   21.0373 C   0  0  0  0  0  0  0  0  0  0  0  0
  -20.2700  -13.4203   23.2523 C   0  0  0  0  0  0  0  0  0  0  0  0
  -21.3927  -12.0670   21.5956 C   0  0  0  0  0  0  0  0  0  0  0  0
  -28.0256  -15.0048   20.4755 C   0  0  0  0  0  0  0  0  0  0  0  0
  -27.6819  -24.4417   18.6004 C   0  0  0  0  0  0  0  0  0  0  0  0
  -25.5771  -24.1772   19.4830 C   0  0  0  0  0  0  0  0  0  1  0  0
  -30.2115  -15.2333   20.4101 C   0  0  0  0  0  0  0  0  0  0  0  0
  -29.3808  -13.1095   19.3865 C   0  0  0  0  0  0  0  0  0  0  0  0
  -26.3467  -31.1259   20.2684 C   0  0  0  0  0  0  0  0  0  0  0  0
  -24.9647  -31.3587   23.1938 C   0  0  0  0  0  0  0  0  0  0  0  0
  -23.1055  -29.8824   25.6455 C   0  0  0  0  0  0  0  0  0  0  0  0
  -30.3609  -21.1438   21.3560 C   0  0  0  0  0  0  0  0  0  0  0  0
  -28.2280  -34.3184   16.7575 C   0  0  0  0  0  0  0  0  0  0  0  0
  -23.9846  -30.4005   19.7682 C   0  0  0  0  0  0  0  0  0  0  0  0
  -25.0607  -29.0543   22.1712 C   0  0  0  0  0  0  0  0  0  0  0  0
  -28.0199  -34.3579   18.2692 C   0  0  0  0  0  0  0  0  0  0  0  0
  -31.2832  -18.5842   23.6526 C   0  0  0  0  0  0  0  0  0  0  0  0
  -27.4187  -20.0502   17.7948 C   0  0  0  0  0  0  0  0  0  0  0  0
  -26.0449  -19.9012   18.3699 C   0  0  0  0  0  0  0  0  0  0  0  0
  -28.5619  -33.0872   18.9161 C   0  0  0  0  0  0  0  0  0  0  0  0
  -30.6595  -17.3193   23.0603 C   0  0  0  0  0  0  0  0  0  0  0  0
  -30.3916  -19.8057   23.4404 C   0  0  0  0  0  0  0  0  0  0  0  0
  -29.3653  -18.7781   21.4493 C   0  0  0  0  0  0  0  0  0  0  0  0
  -27.0615  -20.7609   19.0732 C   0  0  0  0  0  0  0  0  0  0  0  0
  -27.8228  -31.8468   18.3996 C   0  0  1  0  0  0  0  0  0  0  0  0
  -24.9196  -31.1158   20.7385 C   0  0  1  0  0  0  0  0  0  0  0  0
  -30.2536  -17.5301   21.5893 C   0  0  2  0  0  0  0  0  0  0  0  0
  -28.7329  -25.3839   18.1113 C   0  0  0  0  0  0  0  0  0  0  0  0
  -22.1723  -30.3075   27.9359 C   0  0  0  0  0  0  0  0  0  0  0  0
  -31.6667  -22.2487   18.5921 C   0  0  0  0  0  0  0  0  0  0  0  0
  -27.7364  -30.9386   24.3984 C   0  0  0  0  0  0  0  0  0  0  0  0
  -26.6316  -30.4263   26.5859 C   0  0  0  0  0  0  0  0  0  0  0  0
  -26.3525  -32.6767   25.5465 C   0  0  0  0  0  0  0  0  0  0  0  0
  -20.3211  -29.5501   24.6993 C   0  0  0  0  0  0  0  0  0  0  0  0
  -29.1960  -22.5105   18.0910 C   0  0  0  0  0  0  0  0  0  0  0  0
  -25.1702  -30.6866   24.5298 C   0  0  1  0  0  0  0  0  0  0  0  0
  -21.9103  -30.3778   26.4395 C   0  0  2  0  0  0  0  0  0  0  0  0
  -30.2678  -22.3541   19.1913 C   0  0  1  0  0  0  0  0  0  0  0  0
  -26.4662  -31.1671   25.2418 C   0  0  0  0  0  0  0  0  0  0  0  0
  -28.2566  -16.1822   21.0624 N   0  0  0  0  0  0  0  0  0  0  0  0
  -26.5388  -25.0164   19.0373 N   0  0  0  0  0  0  0  0  0  0  0  0
  -29.5948  -16.2930   21.0076 N   0  0  0  0  0  0  0  0  0  0  0  0
  -24.9144  -30.5160   22.0743 N   0  0  0  0  0  0  0  0  0  0  0  0
  -30.0443  -19.9498   22.0246 N   0  0  0  0  0  0  0  0  0  0  0  0
  -31.5534  -15.1826   20.2716 N   0  0  0  0  0  0  0  0  0  0  0  0
  -28.2423  -12.3479   19.0897 N   0  0  0  0  0  0  0  0  0  0  0  0
  -26.5293  -31.7270   19.0376 N   0  0  0  0  0  0  0  0  0  0  0  0
  -23.9487  -30.9153   25.2940 N   0  0  0  0  0  0  0  0  0  0  0  0
  -30.0028  -21.1952   20.0144 N   0  0  0  0  0  0  0  0  0  0  0  0
  -20.7074  -29.5527   26.1338 N   0  3  0  0  0  0  0  0  0  0  0  0
  -30.5134  -12.6649   19.0816 O   0  0  0  0  0  0  0  0  0  0  0  0
  -27.2179  -30.6267   20.9709 O   0  0  0  0  0  0  0  0  0  0  0  0
  -24.8458  -32.5856   23.1460 O   0  0  0  0  0  0  0  0  0  0  0  0
  -23.2762  -28.6973   25.3682 O   0  0  0  0  0  0  0  0  0  0  0  0
  -30.9261  -22.0917   21.9119 O   0  0  0  0  0  0  0  0  0  0  0  0
  -22.7901  -13.1157   19.9383 O   0  0  0  0  0  0  0  0  0  0  0  0
  -24.4013  -24.7533   19.9340 O   0  0  0  0  0  0  0  0  0  1  0  0
  -19.4628  -13.5186   24.3168 F   0  0  0  0  0  0  0  0  0  0  0  0
  -21.6599  -10.8623   21.0729 F   0  0  0  0  0  0  0  0  0  0  0  0
  1  2  1  0  0  0  0
  1  5  2  0  0  0  0
  2  6  2  0  0  0  0
  3  8  2  0  0  0  0
  3 16  1  0  0  0  0
  4  9  1  0  0  0  0
  4 16  2  0  0  0  0
  5 18  1  0  0  0  0
  6 20  1  0  0  0  0
  7 10  2  0  0  0  0
  7 19  1  0  0  0  0
  8 24  1  0  0  0  0
  9 24  2  0  0  0  0
 10 25  1  0  0  0  0
 11 12  2  0  0  0  0
 11 26  1  0  0  0  0
 12 27  1  0  0  0  0
 13 21  1  0  0  0  0
 13 25  2  0  0  0  0
 14 22  2  0  0  0  0
 14 31  1  0  0  0  0
 15 27  2  0  0  0  0
 15 28  1  0  0  0  0
 16 29  1  0  0  0  0
 17 29  1  0  0  0  0
 17 32  2  0  0  0  0
 17 33  1  0  0  0  0
 18 20  2  0  0  0  0
 18 38  1  0  0  0  0
 19 21  2  0  0  0  0
 19 39  1  0  0  0  0
 20 50  1  0  0  0  0
 21 40  1  0  0  0  0
 22 23  1  0  0  0  0
 22 49  1  0  0  0  0
 23 30  2  0  0  0  0
 23 60  1  0  0  0  0
 24 81  1  0  0  0  0
 25 82  1  0  0  0  0
 26 28  2  0  0  0  0
 26 81  1  0  0  0  0
 27 83  1  0  0  0  0
 28 84  1  0  0  0  0
 29 65  2  0  0  0  0
 30 53  1  0  0  0  0
 30 66  1  0  0  0  0
 31 66  2  0  0  0  0
 31 82  1  0  0  0  0
 32 67  1  0  0  0  0
 32 70  1  0  0  0  0
 33 71  1  0  0  0  0
 33 76  2  0  0  0  0
 34 51  1  0  0  0  0
 34 72  1  0  0  0  0
 34 77  2  0  0  0  0
 35 61  1  0  0  0  0
 35 68  1  0  0  0  0
 35 78  2  0  0  0  0
 36 62  1  0  0  0  0
 36 73  1  0  0  0  0
 36 79  2  0  0  0  0
 37 69  1  0  0  0  0
 37 74  1  0  0  0  0
 37 80  2  0  0  0  0
 38 41  1  0  0  0  0
 39 51  1  0  0  0  0
 40 68  1  0  0  0  0
 41 45  1  0  0  0  0
 42 46  1  0  0  0  0
 42 47  1  0  0  0  0
 43 44  1  0  0  0  0
 43 49  1  0  0  0  0
 44 49  1  0  0  0  0
 45 50  1  0  0  0  0
 46 52  1  0  0  0  0
 47 69  1  0  0  0  0
 48 52  1  0  0  0  0
 48 69  1  0  0  0  0
 50 72  1  0  0  0  0
 51 68  1  0  0  0  0
 52 67  1  0  0  0  0
 54 62  1  0  0  0  0
 55 63  1  0  0  0  0
 56 64  1  0  0  0  0
 57 64  1  0  0  0  0
 58 64  1  0  0  0  0
 59 75  1  0  0  0  0
 60 63  1  0  0  0  0
 61 64  1  0  0  0  0
 61 73  1  0  0  0  0
 62 75  1  0  0  0  0
 63 74  1  0  0  0  0
 65 67  1  0  0  0  0
M  CHG  1  75   1
M  ISO  4  31 101  37 100  74 100  82 101
M  END
> <Batch ID>
0140

> <Smiles>
CNC(C)C(=O)NC(C(=O)N1Cc2cc([101O:1][101c:1]3cc(C4CC4)c(CC(C)[100NH:0][100C:0](=O)N4CCCC(n5nc(-c6ccc(Oc7ccc(F)cc7F)cc6)c(C(N)=O)c5N)C4)c(C)n3)ccc2CC1C(=O)NC1CCCc2ccccc21)C(C)(C)C

> <Shape>
0.250

> <Color>
0.053

> <Negative vol penalty>
0.000

$$$$

  -OEChem-04052321133D

 88 97  0     1  0  0  0  0  0999 V2000
  -34.0988  -32.3516   16.5149 C   0  0  0  0  0  0  0  0  0  0  0  0
  -33.2702  -31.3202   16.9452 C   0  0  0  0  0  0  0  0  0  0  0  0
  -23.4549  -10.0187   22.1057 C   0  0  0  0  0  0  0  0  0  0  0  0
  -23.9244   -9.4846   19.7967 C   0  0  0  0  0  0  0  0  0  0  0  0
  -34.2294  -33.5066   17.2847 C   0  0  0  0  0  0  0  0  0  0  0  0
  -32.5723  -31.4430   18.1462 C   0  0  0  0  0  0  0  0  0  0  0  0
  -27.7459  -29.9624   17.7488 C   0  0  0  0  0  0  0  0  0  0  0  0
  -22.8406   -8.7769   22.2680 C   0  0  0  0  0  0  0  0  0  0  0  0
  -23.3102   -8.2428   19.9590 C   0  0  0  0  0  0  0  0  0  0  0  0
  -27.4983  -28.5903   17.7536 C   0  0  0  0  0  0  0  0  0  0  0  0
  -19.8663   -7.3537   21.5250 C   0  0  0  0  0  0  0  0  0  0  0  0
  -18.6452   -7.3186   22.1982 C   0  0  0  0  0  0  0  0  0  0  0  0
  -26.8815  -28.7158   20.0823 C   0  0  0  0  0  0  0  0  0  0  0  0
  -19.6061   -5.8574   23.8652 C   0  0  0  0  0  0  0  0  0  0  0  0
  -23.9968  -10.3726   20.8700 C   0  0  0  0  0  0  0  0  0  0  0  0
  -24.0441  -12.9231   20.8755 C   0  0  0  0  0  0  0  0  0  0  0  0
  -33.5253  -33.6477   18.4910 C   0  0  0  0  0  0  0  0  0  0  0  0
  -27.5733  -30.7208   18.9156 C   0  0  0  0  0  0  0  0  0  0  0  0
  -32.6946  -32.6005   18.9335 C   0  0  0  0  0  0  0  0  0  0  0  0
  -27.1251  -30.0978   20.0890 C   0  0  0  0  0  0  0  0  0  0  0  0
  -22.7683   -7.8890   21.1947 C   0  0  0  0  0  0  0  0  0  0  0  0
  -27.0689  -27.9664   18.9211 C   0  0  0  0  0  0  0  0  0  0  0  0
  -20.9574   -6.6406   22.0219 C   0  0  0  0  0  0  0  0  0  0  0  0
  -18.5151   -6.5705   23.3683 C   0  0  0  0  0  0  0  0  0  0  0  0
  -20.8273   -5.8925   23.1919 C   0  0  0  0  0  0  0  0  0  0  0  0
  -24.6309  -11.6554   20.7016 C   0  0  0  0  0  0  0  0  0  0  0  0
  -25.0552  -13.8104   20.5985 C   0  0  0  0  0  0  0  0  0  0  0  0
  -22.7047  -13.2678   21.2536 C   0  0  0  0  0  0  0  0  0  0  0  0
  -29.4857  -32.4653   20.7604 C   0  0  0  0  0  0  0  0  0  0  0  0
  -26.7080  -33.2224   22.2549 C   0  0  0  0  0  0  0  0  0  0  0  0
  -23.7175  -31.4897   23.2902 C   0  0  0  0  0  0  0  0  0  0  0  0
  -30.3676  -15.4458   21.0981 C   0  0  0  0  0  0  0  0  0  0  0  0
  -33.7351  -34.8950   19.3124 C   0  0  0  0  0  0  0  0  0  0  0  0
  -27.8189  -32.2045   18.8870 C   0  0  0  0  0  0  0  0  0  0  0  0
  -26.9049  -30.8706   21.3629 C   0  0  0  0  0  0  0  0  0  0  0  0
  -32.6708  -35.1029   20.3868 C   0  0  0  0  0  0  0  0  0  0  0  0
  -29.6233  -13.0641   18.5583 C   0  0  0  0  0  0  0  0  0  0  0  0
  -32.4235  -33.8063   21.1513 C   0  0  0  0  0  0  0  0  0  0  0  0
  -27.3866  -24.2084   21.7491 C   0  0  0  0  0  0  0  0  0  0  0  0
  -29.1484  -23.8484   19.9707 C   0  0  0  0  0  0  0  0  0  0  0  0
  -28.2129  -12.5857   18.9075 C   0  0  0  0  0  0  0  0  0  0  0  0
  -26.6462  -25.1628   20.8171 C   0  0  0  0  0  0  0  0  0  0  0  0
  -28.4034  -24.8042   19.0438 C   0  0  0  0  0  0  0  0  0  0  0  0
  -28.2384  -18.8257   21.3373 C   0  0  0  0  0  0  0  0  0  0  0  0
  -30.4550  -13.3311   19.8109 C   0  0  0  0  0  0  0  0  0  0  0  0
  -28.4219  -13.7696   21.1332 C   0  0  0  0  0  0  0  0  0  0  0  0
  -28.0840  -20.2083   20.7290 C   0  0  0  0  0  0  0  0  0  0  0  0
  -31.9020  -32.7067   20.2183 C   0  0  1  0  0  0  0  0  0  0  0  0
  -28.1041  -32.7896   20.2667 C   0  0  1  0  0  0  0  0  0  0  0  0
  -28.1970  -23.1673   20.9643 C   0  0  0  0  0  0  0  0  0  0  0  0
  -29.7426  -18.6647   21.4933 C   0  0  1  0  0  0  0  0  0  0  0  0
  -27.5272  -13.5408   19.9029 C   0  0  2  0  0  0  0  0  0  0  0  0
  -27.5949  -25.8354   19.8285 C   0  0  0  0  0  0  0  0  0  1  0  0
  -30.1692  -20.0365   22.0107 C   0  0  2  0  0  0  0  0  0  0  0  0
  -21.3774  -32.3316   23.6254 C   0  0  0  0  0  0  0  0  0  0  0  0
  -32.4746  -20.3132   24.0856 C   0  0  0  0  0  0  0  0  0  0  0  0
  -33.2872  -21.8368   22.2499 C   0  0  0  0  0  0  0  0  0  0  0  0
  -27.5547  -33.5559   25.1673 C   0  0  0  0  0  0  0  0  0  0  0  0
  -25.2722  -32.7834   25.8466 C   0  0  0  0  0  0  0  0  0  0  0  0
  -25.5333  -34.8741   24.5111 C   0  0  0  0  0  0  0  0  0  0  0  0
  -22.6024  -29.4749   21.4311 C   0  0  0  0  0  0  0  0  0  0  0  0
  -30.1262  -17.5272   22.4280 C   0  0  0  0  0  0  0  0  0  0  0  0
  -28.9719  -22.2579   21.9161 C   0  0  0  0  0  0  0  0  0  0  0  0
  -25.9147  -32.6364   23.3978 C   0  0  1  0  0  0  0  0  0  0  0  0
  -22.3337  -31.6212   22.6801 C   0  0  2  0  0  0  0  0  0  0  0  0
  -32.0952  -21.0981   22.8392 C   0  0  0  0  0  0  0  0  0  0  0  0
  -26.0852  -33.4462   24.7141 C   0  0  0  0  0  0  0  0  0  0  0  0
  -25.9152  -11.7266   20.3418 N   0  0  0  0  0  0  0  0  0  0  0  0
  -26.1437  -13.0498   20.2873 N   0  0  0  0  0  0  0  0  0  0  0  0
  -27.1647  -32.3177   21.2860 N   0  0  0  0  0  0  0  0  0  0  0  0
  -29.7492  -14.2450   20.7124 N   0  0  0  0  0  0  0  0  0  0  0  0
  -25.1105  -15.1593   20.5931 N   0  0  0  0  0  0  0  0  0  0  0  0
  -21.7931  -12.2326   21.5017 N   0  0  0  0  0  0  0  0  0  0  0  0
  -30.4981  -32.9106   19.9321 N   0  0  0  0  0  0  0  0  0  0  0  0
  -24.5362  -32.5392   22.9303 N   0  0  0  0  0  0  0  0  0  0  0  0
  -29.6273  -16.2574   21.9490 N   0  0  0  0  0  0  0  0  0  0  0  0
  -29.2943  -21.0004   21.2119 N   0  3  2  0  0  0  0  0  0  0  0  0
  -21.7744  -30.2752   22.3697 N   0  3  0  0  0  0  0  0  0  0  0  0
  -22.3231  -14.4587   21.3522 O   0  0  0  0  0  0  0  0  0  0  0  0
  -29.6230  -31.8573   21.8155 O   0  0  0  0  0  0  0  0  0  0  0  0
  -26.9088  -34.4390   22.2193 O   0  0  0  0  0  0  0  0  0  0  0  0
  -24.0388  -30.5518   24.0166 O   0  0  0  0  0  0  0  0  0  0  0  0
  -31.4937  -15.7731   20.7084 O   0  0  0  0  0  0  0  0  0  0  0  0
  -22.1693   -6.6771   21.3528 O   0  0  0  0  0  0  0  0  0  0  0  0
  -26.8271  -26.6272   18.9287 O   0  0  0  0  0  0  0  0  0  1  0  0
  -31.5698  -20.2046   21.8652 O   0  0  0  0  0  0  0  0  0  0  0  0
  -17.3428   -6.5381   24.0155 F   0  0  0  0  0  0  0  0  0  0  0  0
  -21.8722   -5.2064   23.6747 F   0  0  0  0  0  0  0  0  0  0  0  0
  1  2  1  0  0  0  0
  1  5  2  0  0  0  0
  2  6  2  0  0  0  0
  3  8  2  0  0  0  0
  3 15  1  0  0  0  0
  4  9  1  0  0  0  0
  4 15  2  0  0  0  0
  5 17  1  0  0  0  0
  6 19  1  0  0  0  0
  7 10  2  0  0  0  0
  7 18  1  0  0  0  0
  8 21  1  0  0  0  0
  9 21  2  0  0  0  0
 10 22  1  0  0  0  0
 11 12  2  0  0  0  0
 11 23  1  0  0  0  0
 12 24  1  0  0  0  0
 13 20  1  0  0  0  0
 13 22  2  0  0  0  0
 14 24  2  0  0  0  0
 14 25  1  0  0  0  0
 15 26  1  0  0  0  0
 16 26  1  0  0  0  0
 16 27  2  0  0  0  0
 16 28  1  0  0  0  0
 17 19  2  0  0  0  0
 17 33  1  0  0  0  0
 18 20  2  0  0  0  0
 18 34  1  0  0  0  0
 19 48  1  0  0  0  0
 20 35  1  0  0  0  0
 21 84  1  0  0  0  0
 22 85  1  0  0  0  0
 23 25  2  0  0  0  0
 23 84  1  0  0  0  0
 24 87  1  0  0  0  0
 25 88  1  0  0  0  0
 26 68  2  0  0  0  0
 27 69  1  0  0  0  0
 27 72  1  0  0  0  0
 28 73  1  0  0  0  0
 28 79  2  0  0  0  0
 29 49  1  0  0  0  0
 29 74  1  0  0  0  0
 29 80  2  0  0  0  0
 30 64  1  0  0  0  0
 30 70  1  0  0  0  0
 30 81  2  0  0  0  0
 31 65  1  0  0  0  0
 31 75  1  0  0  0  0
 31 82  2  0  0  0  0
 32 71  1  0  0  0  0
 32 76  1  0  0  0  0
 32 83  2  0  0  0  0
 33 36  1  0  0  0  0
 34 49  1  0  0  0  0
 35 70  1  0  0  0  0
 36 38  1  0  0  0  0
 37 41  1  0  0  0  0
 37 45  1  0  0  0  0
 38 48  1  0  0  0  0
 39 42  1  0  0  0  0
 39 50  1  0  0  0  0
 40 43  1  0  0  0  0
 40 50  1  0  0  0  0
 41 52  1  0  0  0  0
 42 53  1  0  0  0  0
 43 53  1  0  0  0  0
 44 47  1  0  0  0  0
 44 51  1  0  0  0  0
 45 71  1  0  0  0  0
 46 52  1  0  0  0  0
 46 71  1  0  0  0  0
 47 77  1  0  0  0  0
 48 74  1  0  0  0  0
 49 70  1  0  0  0  0
 50 63  1  0  0  0  0
 51 54  1  0  0  0  0
 51 62  1  0  0  0  0
 52 69  1  0  0  0  0
 53 85  1  0  0  0  0
 54 77  1  0  0  0  0
 54 86  1  0  0  0  0
 55 65  1  0  0  0  0
 56 66  1  0  0  0  0
 57 66  1  0  0  0  0
 58 67  1  0  0  0  0
 59 67  1  0  0  0  0
 60 67  1  0  0  0  0
 61 78  1  0  0  0  0
 62 76  1  0  0  0  0
 63 77  1  0  0  0  0
 64 67  1  0  0  0  0
 64 75  1  0  0  0  0
 65 78  1  0  0  0  0
 66 86  1  0  0  0  0
 68 69  1  0  0  0  0
M  CHG  2  77   1  78   1
M  ISO  4  32 100  53 101  76 100  85 101
M  END
> <Batch ID>
0140

> <Smiles>
CNC(C)C(=O)NC(C(=O)N1Cc2cc([101O:1][101CH:1]3CCC(CN4CCC(C[100NH:0][100C:0](=O)N5CCCC(n6nc(-c7ccc(Oc8ccc(F)cc8F)cc7)c(C(N)=O)c6N)C5)C4OC(C)C)CC3)ccc2CC1C(=O)NC1CCCc2ccccc21)C(C)(C)C

> <Shape>
0.297

> <Color>
0.167

> <Negative vol penalty>
0.000

$$$$

  -OEChem-04052321133D

 87 97  0     1  0  0  0  0  0999 V2000
  -12.8855  -24.8945   18.4751 C   0  0  0  0  0  0  0  0  0  0  0  0
  -14.0439  -24.1670   18.7286 C   0  0  0  0  0  0  0  0  0  0  0  0
  -23.1454   -9.6848   19.9650 C   0  0  0  0  0  0  0  0  0  0  0  0
  -23.7712   -9.8919   22.2894 C   0  0  0  0  0  0  0  0  0  0  0  0
  -12.9684  -26.2547   18.1804 C   0  0  0  0  0  0  0  0  0  0  0  0
  -15.2861  -24.7992   18.6864 C   0  0  0  0  0  0  0  0  0  0  0  0
  -20.1578  -23.5804   22.1917 C   0  0  0  0  0  0  0  0  0  0  0  0
  -22.4305   -8.5242   20.2609 C   0  0  0  0  0  0  0  0  0  0  0  0
  -23.0562   -8.7313   22.5853 C   0  0  0  0  0  0  0  0  0  0  0  0
  -21.3070  -22.8229   21.9699 C   0  0  0  0  0  0  0  0  0  0  0  0
  -23.4985   -5.3916   22.2990 C   0  0  0  0  0  0  0  0  0  0  0  0
  -24.1082   -4.4478   23.1254 C   0  0  0  0  0  0  0  0  0  0  0  0
  -28.6217  -18.9021   20.8554 C   0  0  0  0  0  0  0  0  0  0  0  0
  -22.4948  -24.8229   21.3309 C   0  0  0  0  0  0  0  0  0  0  0  0
  -25.2735  -20.4983   19.9739 C   0  0  0  0  0  0  0  0  0  0  0  0
  -25.6430  -20.2780   22.3654 C   0  0  0  0  0  0  0  0  0  0  0  0
  -22.3062   -4.6784   24.7181 C   0  0  0  0  0  0  0  0  0  0  0  0
  -27.3378  -19.5094   20.7669 C   0  0  0  0  0  0  0  0  0  0  0  0
  -23.8158  -10.3686   20.9793 C   0  0  0  0  0  0  0  0  0  0  0  0
  -24.0727  -12.8897   20.6864 C   0  0  0  0  0  0  0  0  0  0  0  0
  -14.2114  -26.9060   18.1442 C   0  0  0  0  0  0  0  0  0  0  0  0
  -20.1654  -24.9657   21.9739 C   0  0  0  0  0  0  0  0  0  0  0  0
  -15.3858  -26.1691   18.3897 C   0  0  0  0  0  0  0  0  0  0  0  0
  -21.3451  -25.5961   21.5531 C   0  0  0  0  0  0  0  0  0  0  0  0
  -24.8455  -20.6749   21.2882 C   0  0  0  0  0  0  0  0  0  0  0  0
  -26.5164  -19.9174   19.6972 C   0  0  0  0  0  0  0  0  0  0  0  0
  -26.8831  -19.6987   22.0737 C   0  0  0  0  0  0  0  0  0  0  0  0
  -22.3859   -8.0475   21.5710 C   0  0  0  0  0  0  0  0  0  0  0  0
  -22.4749  -23.4436   21.5367 C   0  0  0  0  0  0  0  0  0  0  0  0
  -22.2926   -5.9789   22.6821 C   0  0  0  0  0  0  0  0  0  0  0  0
  -23.5120   -4.0912   24.3350 C   0  0  0  0  0  0  0  0  0  0  0  0
  -21.6965   -5.6222   23.8916 C   0  0  0  0  0  0  0  0  0  0  0  0
  -24.5550  -11.5672   20.6742 C   0  0  0  0  0  0  0  0  0  0  0  0
  -28.9162  -18.7380   22.1893 C   0  0  0  0  0  0  0  0  0  0  0  0
  -25.1562  -13.6537   20.3275 C   0  0  0  0  0  0  0  0  0  0  0  0
  -22.7624  -13.3834   20.9947 C   0  0  0  0  0  0  0  0  0  0  0  0
  -18.6049  -26.9397   20.0318 C   0  0  0  0  0  0  0  0  0  0  0  0
  -30.5972  -14.8459   20.8403 C   0  0  0  0  0  0  0  0  0  0  0  0
  -20.1413  -29.2210   21.7515 C   0  0  0  0  0  0  0  0  0  0  0  0
  -22.7917  -30.0651   23.7288 C   0  0  0  0  0  0  0  0  0  0  0  0
  -14.2547  -28.3676   17.7747 C   0  0  0  0  0  0  0  0  0  0  0  0
  -18.9250  -25.7725   22.2434 C   0  0  0  0  0  0  0  0  0  0  0  0
  -21.4113  -27.0833   21.3241 C   0  0  0  0  0  0  0  0  0  0  0  0
  -15.5795  -29.0437   18.1183 C   0  0  0  0  0  0  0  0  0  0  0  0
  -29.6615  -12.3263   18.4705 C   0  0  0  0  0  0  0  0  0  0  0  0
  -16.7527  -28.1815   17.6634 C   0  0  0  0  0  0  0  0  0  0  0  0
  -28.2203  -11.9914   18.8528 C   0  0  0  0  0  0  0  0  0  0  0  0
  -27.5176  -20.5066   25.1268 C   0  0  0  0  0  0  0  0  0  0  0  0
  -28.8695  -19.8691   25.2026 C   0  0  0  0  0  0  0  0  0  0  0  0
  -30.5035  -12.6540   19.6996 C   0  0  0  0  0  0  0  0  0  0  0  0
  -28.4974  -13.4129   20.9331 C   0  0  0  0  0  0  0  0  0  0  0  0
  -16.7497  -26.8246   18.3777 C   0  0  1  0  0  0  0  0  0  0  0  0
  -18.9027  -27.1020   21.4956 C   0  0  1  0  0  0  0  0  0  0  0  0
  -27.7862  -19.2288   24.3668 C   0  0  0  0  0  0  0  0  0  0  0  0
  -27.6048  -13.1056   19.7178 C   0  0  2  0  0  0  0  0  0  0  0  0
  -26.9229  -19.7532   18.2669 C   0  0  0  0  0  0  0  0  0  0  0  0
  -23.7961  -32.0132   24.9509 C   0  0  0  0  0  0  0  0  0  0  0  0
  -21.1581  -30.3527   19.1067 C   0  0  0  0  0  0  0  0  0  0  0  0
  -22.8644  -31.6519   20.3986 C   0  0  0  0  0  0  0  0  0  0  0  0
  -20.4341  -32.0753   20.7689 C   0  0  0  0  0  0  0  0  0  0  0  0
  -22.5364  -28.7047   26.3448 C   0  0  0  0  0  0  0  0  0  0  0  0
  -23.5085  -21.3018   21.5540 C   0  0  0  0  0  0  0  0  0  1  0  0
  -30.1175  -18.1599   22.8269 C   0  0  0  0  0  0  0  0  0  0  0  0
  -29.8804  -15.8809   21.6703 C   0  0  0  0  0  0  0  0  0  0  0  0
  -30.7872  -17.0733   21.9586 C   0  0  0  0  0  0  0  0  0  0  0  0
  -21.4657  -29.9362   21.6361 C   0  0  1  0  0  0  0  0  0  0  0  0
  -22.8666  -30.8134   25.0475 C   0  0  2  0  0  0  0  0  0  0  0  0
  -21.4791  -30.9757   20.4799 C   0  0  0  0  0  0  0  0  0  0  0  0
  -25.8445  -11.4918   20.3342 N   0  0  0  0  0  0  0  0  0  0  0  0
  -27.8615  -19.2212   22.9162 N   0  0  0  0  0  0  0  0  0  0  0  0
  -26.1816  -12.7765   20.1295 N   0  0  0  0  0  0  0  0  0  0  0  0
  -20.1705  -27.8279   21.5954 N   0  0  0  0  0  0  0  0  0  0  0  0
  -29.8739  -13.7007   20.5066 N   0  0  0  0  0  0  0  0  0  0  0  0
  -25.3223  -14.9835   20.1650 N   0  0  0  0  0  0  0  0  0  0  0  0
  -21.7662  -12.4616   21.3443 N   0  0  0  0  0  0  0  0  0  0  0  0
  -17.2575  -26.9621   19.7260 N   0  0  0  0  0  0  0  0  0  0  0  0
  -21.7398  -30.5028   22.9522 N   0  0  0  0  0  0  0  0  0  0  0  0
  -23.3693  -29.9150   26.1251 N   0  3  0  0  0  0  0  0  0  0  0  0
  -22.4790  -14.6044   20.9453 O   0  0  0  0  0  0  0  0  0  0  0  0
  -19.5292  -26.8056   19.2384 O   0  0  0  0  0  0  0  0  0  0  0  0
  -31.7643  -15.0522   20.4973 O   0  0  0  0  0  0  0  0  0  0  0  0
  -19.1195  -29.8735   21.9792 O   0  0  0  0  0  0  0  0  0  0  0  0
  -23.5890  -29.1832   23.4172 O   0  0  0  0  0  0  0  0  0  0  0  0
  -21.6881   -6.9152   21.8601 O   0  0  0  0  0  0  0  0  0  0  0  0
  -23.5978  -22.7064   21.3188 O   0  0  0  0  0  0  0  0  0  1  0  0
  -24.0969   -3.1837   25.1278 F   0  0  0  0  0  0  0  0  0  0  0  0
  -20.5374   -6.1821   24.2645 F   0  0  0  0  0  0  0  0  0  0  0  0
  1  2  1  0  0  0  0
  1  5  2  0  0  0  0
  2  6  2  0  0  0  0
  3  8  2  0  0  0  0
  3 19  1  0  0  0  0
  4  9  1  0  0  0  0
  4 19  2  0  0  0  0
  5 21  1  0  0  0  0
  6 23  1  0  0  0  0
  7 10  2  0  0  0  0
  7 22  1  0  0  0  0
  8 28  1  0  0  0  0
  9 28  2  0  0  0  0
 10 29  1  0  0  0  0
 11 12  2  0  0  0  0
 11 30  1  0  0  0  0
 12 31  1  0  0  0  0
 13 18  1  0  0  0  0
 13 34  2  0  0  0  0
 14 24  1  0  0  0  0
 14 29  2  0  0  0  0
 15 25  1  0  0  0  0
 15 26  2  0  0  0  0
 16 25  2  0  0  0  0
 16 27  1  0  0  0  0
 17 31  2  0  0  0  0
 17 32  1  0  0  0  0
 18 26  1  0  0  0  0
 18 27  2  0  0  0  0
 19 33  1  0  0  0  0
 20 33  1  0  0  0  0
 20 35  2  0  0  0  0
 20 36  1  0  0  0  0
 21 23  2  0  0  0  0
 21 41  1  0  0  0  0
 22 24  2  0  0  0  0
 22 42  1  0  0  0  0
 23 52  1  0  0  0  0
 24 43  1  0  0  0  0
 25 62  1  0  0  0  0
 26 56  1  0  0  0  0
 27 70  1  0  0  0  0
 28 84  1  0  0  0  0
 29 85  1  0  0  0  0
 30 32  2  0  0  0  0
 30 84  1  0  0  0  0
 31 86  1  0  0  0  0
 32 87  1  0  0  0  0
 33 69  2  0  0  0  0
 34 63  1  0  0  0  0
 34 70  1  0  0  0  0
 35 71  1  0  0  0  0
 35 74  1  0  0  0  0
 36 75  1  0  0  0  0
 36 79  2  0  0  0  0
 37 53  1  0  0  0  0
 37 76  1  0  0  0  0
 37 80  2  0  0  0  0
 38 64  1  0  0  0  0
 38 73  1  0  0  0  0
 38 81  2  0  0  0  0
 39 66  1  0  0  0  0
 39 72  1  0  0  0  0
 39 82  2  0  0  0  0
 40 67  1  0  0  0  0
 40 77  1  0  0  0  0
 40 83  2  0  0  0  0
 41 44  1  0  0  0  0
 42 53  1  0  0  0  0
 43 72  1  0  0  0  0
 44 46  1  0  0  0  0
 45 47  1  0  0  0  0
 45 50  1  0  0  0  0
 46 52  1  0  0  0  0
 47 55  1  0  0  0  0
 48 49  1  0  0  0  0
 48 54  1  0  0  0  0
 49 54  1  0  0  0  0
 50 73  1  0  0  0  0
 51 55  1  0  0  0  0
 51 73  1  0  0  0  0
 52 76  1  0  0  0  0
 53 72  1  0  0  0  0
 54 70  1  0  0  0  0
 55 71  1  0  0  0  0
 57 67  1  0  0  0  0
 58 68  1  0  0  0  0
 59 68  1  0  0  0  0
 60 68  1  0  0  0  0
 61 78  1  0  0  0  0
 62 85  1  0  0  0  0
 63 65  1  0  0  0  0
 64 65  1  0  0  0  0
 66 68  1  0  0  0  0
 66 77  1  0  0  0  0
 67 78  1  0  0  0  0
 69 71  1  0  0  0  0
M  CHG  1  78   1
M  ISO  4  38 100  62 101  64 100  85 101
M  END
> <Batch ID>
0140

> <Smiles>
CNC(C)C(=O)NC(C(=O)N1Cc2cc([101O:1][101CH2:1]c3cc(C)c4cc(CC[100CH2:0][100C:0](=O)N5CCCC(n6nc(-c7ccc(Oc8ccc(F)cc8F)cc7)c(C(N)=O)c6N)C5)n(C5CC5)c4c3)ccc2CC1C(=O)NC1CCCc2ccccc21)C(C)(C)C

> <Shape>
0.261

> <Color>
0.222

> <Negative vol penalty>
0.000

$$$$

  -OEChem-04052321133D

 89 98  0     1  0  0  0  0  0999 V2000
  -32.5531  -12.3130   21.4710 C   0  0  0  0  0  0  0  0  0  0  0  0
  -32.1371  -13.6405   21.4717 C   0  0  0  0  0  0  0  0  0  0  0  0
  -28.0375  -25.8840   19.6015 C   0  0  0  0  0  0  0  0  0  0  0  0
  -26.0954  -25.1727   20.8503 C   0  0  0  0  0  0  0  0  0  0  0  0
  -31.7649  -11.3369   20.8628 C   0  0  0  0  0  0  0  0  0  0  0  0
  -30.9330  -13.9929   20.8631 C   0  0  0  0  0  0  0  0  0  0  0  0
  -25.5112  -18.6332   21.4858 C   0  0  0  0  0  0  0  0  0  0  0  0
  -28.7770  -24.8397   20.1567 C   0  0  0  0  0  0  0  0  0  0  0  0
  -26.8349  -24.1284   21.4055 C   0  0  0  0  0  0  0  0  0  0  0  0
  -24.7996  -19.5657   20.7321 C   0  0  0  0  0  0  0  0  0  0  0  0
  -29.1324  -21.5111   19.6805 C   0  0  0  0  0  0  0  0  0  0  0  0
  -29.9408  -20.7628   18.8248 C   0  0  0  0  0  0  0  0  0  0  0  0
  -23.4818  -17.7827   19.7815 C   0  0  0  0  0  0  0  0  0  0  0  0
  -21.6849  -24.4719   18.8952 C   0  0  0  0  0  0  0  0  0  0  0  0
  -31.8863  -21.3938   20.1110 C   0  0  0  0  0  0  0  0  0  0  0  0
  -26.6967  -26.0505   19.9484 C   0  0  0  0  0  0  0  0  0  0  0  0
  -25.1787  -27.0998   18.1870 C   0  0  0  0  0  0  0  0  0  0  0  0
  -30.5459  -11.6761   20.2548 C   0  0  0  0  0  0  0  0  0  0  0  0
  -25.2202  -17.2652   21.3846 C   0  0  0  0  0  0  0  0  0  0  0  0
  -30.1284  -13.0207   20.2450 C   0  0  0  0  0  0  0  0  0  0  0  0
  -24.1895  -16.8351   20.5368 C   0  0  0  0  0  0  0  0  0  0  0  0
  -21.4185  -23.3661   19.6949 C   0  0  0  0  0  0  0  0  0  0  0  0
  -21.4707  -25.7518   19.3945 C   0  0  0  0  0  0  0  0  0  0  0  0
  -28.1757  -23.9619   21.0587 C   0  0  0  0  0  0  0  0  0  0  0  0
  -23.7867  -19.1402   19.8776 C   0  0  0  0  0  0  0  0  0  0  0  0
  -29.7010  -22.2008   20.7514 C   0  0  0  0  0  0  0  0  0  0  0  0
  -31.3177  -20.7041   19.0401 C   0  0  0  0  0  0  0  0  0  0  0  0
  -31.0779  -22.1421   20.9666 C   0  0  0  0  0  0  0  0  0  0  0  0
  -25.9325  -27.1294   19.3756 C   0  0  0  0  0  0  0  0  0  0  0  0
  -20.9431  -23.5921   20.9765 C   0  0  0  0  0  0  0  0  0  0  0  0
  -20.9928  -25.8710   20.6895 C   0  0  0  0  0  0  0  0  0  0  0  0
  -24.6492  -28.3630   18.0847 C   0  0  0  0  0  0  0  0  0  0  0  0
  -24.9753  -26.0264   17.2585 C   0  0  0  0  0  0  0  0  0  0  0  0
  -26.8391  -14.6899   20.4622 C   0  0  0  0  0  0  0  0  0  0  0  0
  -24.1877  -13.1325   21.4952 C   0  0  0  0  0  0  0  0  0  0  0  0
  -20.8445  -13.2387   22.1722 C   0  0  0  0  0  0  0  0  0  0  0  0
  -22.8695  -29.7533   22.6305 C   0  0  0  0  0  0  0  0  0  0  0  0
  -29.7509  -10.5935   19.5687 C   0  0  0  0  0  0  0  0  0  0  0  0
  -25.9791  -16.2745   22.2243 C   0  0  0  0  0  0  0  0  0  0  0  0
  -23.8245  -15.3796   20.4073 C   0  0  0  0  0  0  0  0  0  0  0  0
  -28.3074  -10.9923   19.2732 C   0  0  0  0  0  0  0  0  0  0  0  0
  -26.1309  -30.8660   21.6857 C   0  0  0  0  0  0  0  0  0  0  0  0
  -19.3608  -30.6131   22.3161 C   0  0  0  0  0  0  0  0  0  0  0  0
  -28.2544  -12.3854   18.6543 C   0  0  0  0  0  0  0  0  0  0  0  0
  -26.0240  -31.1682   20.1951 C   0  0  0  0  0  0  0  0  0  0  0  0
  -19.2162  -29.1263   22.6088 C   0  0  0  0  0  0  0  0  0  0  0  0
  -24.8372  -31.2261   22.3996 C   0  0  0  0  0  0  0  0  0  0  0  0
  -20.7199  -30.6876   21.6378 C   0  0  0  0  0  0  0  0  0  0  0  0
  -23.5104  -30.7142   20.3591 C   0  0  0  0  0  0  0  0  0  0  0  0
  -28.8165  -13.4385   19.6168 C   0  0  1  0  0  0  0  0  0  0  0  0
  -25.9435  -14.8589   21.6568 C   0  0  1  0  0  0  0  0  0  0  0  0
  -24.8054  -30.4954   19.5432 C   0  0  2  0  0  0  0  0  0  0  0  0
  -20.6357  -28.7053   22.9990 C   0  0  1  0  0  0  0  0  0  0  0  0
  -21.7511  -26.9436   18.5464 C   0  0  0  0  0  0  0  0  0  0  0  0
  -19.1551  -22.3811   22.2766 C   0  0  0  0  0  0  0  0  0  0  0  0
  -21.5215  -22.4417   23.1436 C   0  0  0  0  0  0  0  0  0  0  0  0
  -18.9489  -11.7993   22.9674 C   0  0  0  0  0  0  0  0  0  0  0  0
  -24.0634  -11.7886   18.7587 C   0  0  0  0  0  0  0  0  0  0  0  0
  -21.7003  -11.1343   19.2648 C   0  0  0  0  0  0  0  0  0  0  0  0
  -23.5618  -10.2771   20.6870 C   0  0  0  0  0  0  0  0  0  0  0  0
  -20.3761  -14.9590   24.5344 C   0  0  0  0  0  0  0  0  0  0  0  0
  -21.6467  -21.9920   19.1665 C   0  0  0  0  0  0  0  0  0  0  0  0
  -20.9246  -27.2585   22.6198 C   0  0  0  0  0  0  0  0  0  0  0  0
  -22.9360  -21.3534   19.6938 C   0  0  0  0  0  0  0  0  0  1  0  0
  -20.6415  -22.4417   21.8802 C   0  0  0  0  0  0  0  0  0  0  0  0
  -22.8842  -12.7064   20.8642 C   0  0  1  0  0  0  0  0  0  0  0  0
  -20.0450  -12.7715   23.3751 C   0  0  2  0  0  0  0  0  0  0  0  0
  -23.0604  -11.5039   19.8944 C   0  0  0  0  0  0  0  0  0  0  0  0
  -25.8884  -28.3173   19.9847 N   0  0  0  0  0  0  0  0  0  0  0  0
  -20.7225  -24.8204   21.4963 N   0  0  0  0  0  0  0  0  0  0  0  0
  -25.1007  -29.0459   19.1755 N   0  0  0  0  0  0  0  0  0  0  0  0
  -24.5996  -14.4490   21.2443 N   0  0  0  0  0  0  0  0  0  0  0  0
  -23.6807  -30.5512   21.8100 N   0  0  0  0  0  0  0  0  0  0  0  0
  -21.5142  -29.6562   22.3071 N   0  0  0  0  0  0  0  0  0  0  0  0
  -23.8462  -28.9451   17.1689 N   0  0  0  0  0  0  0  0  0  0  0  0
  -25.5926  -24.7947   17.5155 N   0  0  0  0  0  0  0  0  0  0  0  0
  -27.8442  -13.7584   20.6399 N   0  0  0  0  0  0  0  0  0  0  0  0
  -21.9604  -12.4557   21.9652 N   0  0  0  0  0  0  0  0  0  0  0  0
  -19.4114  -13.9340   24.0592 N   0  3  0  0  0  0  0  0  0  0  0  0
  -24.2804  -26.1607   16.2228 O   0  0  0  0  0  0  0  0  0  0  0  0
  -26.6325  -15.3542   19.4534 O   0  0  0  0  0  0  0  0  0  0  0  0
  -24.8138  -12.3291   22.1912 O   0  0  0  0  0  0  0  0  0  0  0  0
  -20.5103  -14.1996   21.4827 O   0  0  0  0  0  0  0  0  0  0  0  0
  -23.3331  -29.1616   23.6144 O   0  0  0  0  0  0  0  0  0  0  0  0
  -28.8969  -22.9426   21.6004 O   0  0  0  0  0  0  0  0  0  0  0  0
  -23.0861  -20.0545   19.1352 O   0  0  0  0  0  0  0  0  0  1  0  0
  -20.7694  -27.1177   21.2187 O   0  0  0  0  0  0  0  0  0  0  0  0
  -32.0937  -19.9842   18.2192 F   0  0  0  0  0  0  0  0  0  0  0  0
  -31.6296  -22.8016   21.9945 F   0  0  0  0  0  0  0  0  0  0  0  0
  1  2  1  0  0  0  0
  1  5  2  0  0  0  0
  2  6  2  0  0  0  0
  3  8  2  0  0  0  0
  3 16  1  0  0  0  0
  4  9  1  0  0  0  0
  4 16  2  0  0  0  0
  5 18  1  0  0  0  0
  6 20  1  0  0  0  0
  7 10  2  0  0  0  0
  7 19  1  0  0  0  0
  8 24  1  0  0  0  0
  9 24  2  0  0  0  0
 10 25  1  0  0  0  0
 11 12  2  0  0  0  0
 11 26  1  0  0  0  0
 12 27  1  0  0  0  0
 13 21  1  0  0  0  0
 13 25  2  0  0  0  0
 14 22  1  0  0  0  0
 14 23  2  0  0  0  0
 15 27  2  0  0  0  0
 15 28  1  0  0  0  0
 16 29  1  0  0  0  0
 17 29  1  0  0  0  0
 17 32  2  0  0  0  0
 17 33  1  0  0  0  0
 18 20  2  0  0  0  0
 18 38  1  0  0  0  0
 19 21  2  0  0  0  0
 19 39  1  0  0  0  0
 20 50  1  0  0  0  0
 21 40  1  0  0  0  0
 22 30  2  0  0  0  0
 22 62  1  0  0  0  0
 23 31  1  0  0  0  0
 23 54  1  0  0  0  0
 24 85  1  0  0  0  0
 25 86  1  0  0  0  0
 26 28  2  0  0  0  0
 26 85  1  0  0  0  0
 27 88  1  0  0  0  0
 28 89  1  0  0  0  0
 29 69  2  0  0  0  0
 30 65  1  0  0  0  0
 30 70  1  0  0  0  0
 31 70  2  0  0  0  0
 31 87  1  0  0  0  0
 32 71  1  0  0  0  0
 32 75  1  0  0  0  0
 33 76  1  0  0  0  0
 33 80  2  0  0  0  0
 34 51  1  0  0  0  0
 34 77  1  0  0  0  0
 34 81  2  0  0  0  0
 35 66  1  0  0  0  0
 35 72  1  0  0  0  0
 35 82  2  0  0  0  0
 36 67  1  0  0  0  0
 36 78  1  0  0  0  0
 36 83  2  0  0  0  0
 37 73  1  0  0  0  0
 37 74  1  0  0  0  0
 37 84  2  0  0  0  0
 38 41  1  0  0  0  0
 39 51  1  0  0  0  0
 40 72  1  0  0  0  0
 41 44  1  0  0  0  0
 42 45  1  0  0  0  0
 42 47  1  0  0  0  0
 43 46  1  0  0  0  0
 43 48  1  0  0  0  0
 44 50  1  0  0  0  0
 45 52  1  0  0  0  0
 46 53  1  0  0  0  0
 47 73  1  0  0  0  0
 48 74  1  0  0  0  0
 49 52  1  0  0  0  0
 49 73  1  0  0  0  0
 50 77  1  0  0  0  0
 51 72  1  0  0  0  0
 52 71  1  0  0  0  0
 53 63  1  0  0  0  0
 53 74  1  0  0  0  0
 55 65  1  0  0  0  0
 56 65  1  0  0  0  0
 57 67  1  0  0  0  0
 58 68  1  0  0  0  0
 59 68  1  0  0  0  0
 60 68  1  0  0  0  0
 61 79  1  0  0  0  0
 62 64  1  0  0  0  0
 63 87  1  0  0  0  0
 64 86  1  0  0  0  0
 66 68  1  0  0  0  0
 66 78  1  0  0  0  0
 67 79  1  0  0  0  0
 69 71  1  0  0  0  0
M  CHG  1  79   1
M  ISO  4  37 100  64 101  74 100  86 101
M  END
> <Batch ID>
0140

> <Smiles>
CNC(C)C(=O)NC(C(=O)N1Cc2cc([101O:1][101CH2:1]Cc3cc(C)c(OCC4CCC[100N:0]4[100C:0](=O)N4CCCC(n5nc(-c6ccc(Oc7ccc(F)cc7F)cc6)c(C(N)=O)c5N)C4)nc3C(C)C)ccc2CC1C(=O)NC1CCCc2ccccc21)C(C)(C)C

> <Shape>
0.251

> <Color>
0.057

> <Negative vol penalty>
0.000

$$$$

  -OEChem-04052321133D

 88 96  0     1  0  0  0  0  0999 V2000
  -19.2317  -28.6608   22.8095 C   0  0  0  0  0  0  0  0  0  0  0  0
  -20.6057  -28.5210   22.6423 C   0  0  0  0  0  0  0  0  0  0  0  0
  -26.2806  -12.7682   21.5769 C   0  0  0  0  0  0  0  0  0  0  0  0
  -26.0946  -13.5086   19.2847 C   0  0  0  0  0  0  0  0  0  0  0  0
  -18.4267  -27.5289   22.9308 C   0  0  0  0  0  0  0  0  0  0  0  0
  -21.1757  -27.2492   22.5974 C   0  0  0  0  0  0  0  0  0  0  0  0
  -24.5714  -26.7725   18.8710 C   0  0  0  0  0  0  0  0  0  0  0  0
  -25.0486  -12.1232   21.4685 C   0  0  0  0  0  0  0  0  0  0  0  0
  -24.8626  -12.8635   19.1762 C   0  0  0  0  0  0  0  0  0  0  0  0
  -25.8342  -27.3229   19.0860 C   0  0  0  0  0  0  0  0  0  0  0  0
  -22.1214   -9.9783   21.6838 C   0  0  0  0  0  0  0  0  0  0  0  0
  -22.0194   -8.6849   22.1958 C   0  0  0  0  0  0  0  0  0  0  0  0
  -26.6864  -25.1356   19.6417 C   0  0  0  0  0  0  0  0  0  0  0  0
  -23.7484   -7.9476   20.6779 C   0  0  0  0  0  0  0  0  0  0  0  0
  -26.8036  -13.4610   20.4850 C   0  0  0  0  0  0  0  0  0  0  0  0
  -29.3460  -13.5881   20.3188 C   0  0  0  0  0  0  0  0  0  0  0  0
  -18.9858  -26.2424   22.8778 C   0  0  0  0  0  0  0  0  0  0  0  0
  -24.3538  -25.3989   19.0506 C   0  0  0  0  0  0  0  0  0  0  0  0
  -20.3775  -26.0991   22.7195 C   0  0  0  0  0  0  0  0  0  0  0  0
  -25.4205  -24.5698   19.4259 C   0  0  0  0  0  0  0  0  0  0  0  0
  -24.3396  -12.1708   20.2682 C   0  0  0  0  0  0  0  0  0  0  0  0
  -26.8912  -26.5049   19.4742 C   0  0  0  0  0  0  0  0  0  0  0  0
  -23.0369  -10.2564   20.6688 C   0  0  0  0  0  0  0  0  0  0  0  0
  -22.8329   -7.6695   21.6929 C   0  0  0  0  0  0  0  0  0  0  0  0
  -23.8504   -9.2411   20.1659 C   0  0  0  0  0  0  0  0  0  0  0  0
  -28.0758  -14.1280   20.5965 C   0  0  0  0  0  0  0  0  0  0  0  0
  -30.2200  -14.6153   20.5788 C   0  0  0  0  0  0  0  0  0  0  0  0
  -29.7038  -12.2755   19.8663 C   0  0  0  0  0  0  0  0  0  0  0  0
  -22.5250  -23.6503   20.9747 C   0  0  0  0  0  0  0  0  0  0  0  0
  -23.6297  -21.2010   19.1572 C   0  0  0  0  0  0  0  0  0  0  0  0
  -26.0658  -19.9928   17.0951 C   0  0  0  0  0  0  0  0  0  0  0  0
  -31.6749  -19.8663   20.0717 C   0  0  0  0  0  0  0  0  0  0  0  0
  -18.0813  -25.0496   23.0610 C   0  0  0  0  0  0  0  0  0  0  0  0
  -22.9920  -24.8164   18.7887 C   0  0  0  0  0  0  0  0  0  0  0  0
  -25.2439  -23.0858   19.6125 C   0  0  0  0  0  0  0  0  0  0  0  0
  -18.7167  -23.7310   22.6274 C   0  0  0  0  0  0  0  0  0  0  0  0
  -29.4781  -19.0803   22.8382 C   0  0  0  0  0  0  0  0  0  0  0  0
  -20.1337  -23.6142   23.1798 C   0  0  0  0  0  0  0  0  0  0  0  0
  -29.0217  -17.6668   22.4721 C   0  0  0  0  0  0  0  0  0  0  0  0
  -29.6112  -19.9572   21.5966 C   0  0  0  0  0  0  0  0  0  0  0  0
  -31.2294  -26.6416   21.3431 C   0  0  0  0  0  0  0  0  0  0  0  0
  -30.0570  -17.9918   20.1781 C   0  0  0  0  0  0  0  0  0  0  0  0
  -29.8362  -25.3357   19.9949 C   0  0  0  0  0  0  0  0  0  0  0  0
  -21.0300  -24.7359   22.6411 C   0  0  1  0  0  0  0  0  0  0  0  0
  -22.7641  -23.4863   19.5003 C   0  0  1  0  0  0  0  0  0  0  0  0
  -29.9237  -27.4195   21.2452 C   0  0  1  0  0  0  0  0  0  0  0  0
  -29.9252  -17.0494   21.3883 C   0  0  2  0  0  0  0  0  0  0  0  0
  -28.9502  -26.4001   20.6470 C   0  0  1  0  0  0  0  0  0  1  0  0
  -29.4628  -27.9738   22.5847 C   0  0  0  0  0  0  0  0  0  0  0  0
  -28.3773  -25.6171   16.1907 C   0  0  0  0  0  0  0  0  0  0  0  0
  -26.7105  -17.9444   15.7968 C   0  0  0  0  0  0  0  0  0  0  0  0
  -31.8406  -24.6553   14.6952 C   0  0  0  0  0  0  0  0  0  0  0  0
  -33.5544  -25.5352   19.7533 C   0  0  0  0  0  0  0  0  0  0  0  0
  -24.4950  -19.8360   21.7452 C   0  0  0  0  0  0  0  0  0  0  0  0
  -25.9379  -18.3137   20.3781 C   0  0  0  0  0  0  0  0  0  0  0  0
  -23.4644  -18.3085   20.0543 C   0  0  0  0  0  0  0  0  0  0  0  0
  -25.9897  -21.4568   14.5241 C   0  0  0  0  0  0  0  0  0  0  0  0
  -29.7562  -25.7579   15.5625 C   0  0  0  0  0  0  0  0  0  0  0  0
  -32.9401  -22.6810   18.8346 C   0  0  0  0  0  0  0  0  0  0  0  0
  -33.2051  -21.8196   20.0702 C   0  0  0  0  0  0  0  0  0  0  0  0
  -30.7377  -23.6835   16.7604 C   0  0  0  0  0  0  0  0  0  0  0  0
  -24.8194  -20.2739   19.2215 C   0  0  1  0  0  0  0  0  0  0  0  0
  -25.9908  -19.2834   15.7551 C   0  0  2  0  0  0  0  0  0  0  0  0
  -30.5172  -24.4239   15.4340 C   0  0  2  0  0  0  0  0  0  0  0  0
  -32.2176  -24.8444   20.0438 C   0  0  2  0  0  0  0  0  0  0  0  0
  -31.8515  -23.7642   18.9946 C   0  0  1  0  0  0  0  0  0  0  0  0
  -24.6824  -19.2113   20.3482 C   0  0  0  0  0  0  0  0  0  0  0  0
  -28.1334  -15.3994   21.0019 N   0  0  0  0  0  0  0  0  0  0  0  0
  -29.4502  -15.6669   20.9810 N   0  0  0  0  0  0  0  0  0  0  0  0
  -23.8921  -22.5646   19.3506 N   0  0  0  0  0  0  0  0  0  0  0  0
  -30.4985  -19.3213   20.6125 N   0  0  0  0  0  0  0  0  0  0  0  0
  -31.1963  -25.8794   20.0942 N   0  0  2  0  0  0  0  0  0  0  0  0
  -31.5642  -14.7124   20.5004 N   0  0  0  0  0  0  0  0  0  0  0  0
  -28.6812  -11.3421   19.6485 N   0  0  0  0  0  0  0  0  0  0  0  0
  -21.4394  -24.4476   21.2833 N   0  0  0  0  0  0  0  0  0  0  0  0
  -24.9708  -19.7108   17.8842 N   0  0  0  0  0  0  0  0  0  0  0  0
  -32.0192  -21.1319   20.5303 N   0  0  0  0  0  0  0  0  0  0  0  0
  -26.6148  -20.1194   14.6908 N   0  3  0  0  0  0  0  0  0  0  0  0
  -31.6428  -24.4277   17.6695 N   0  3  0  0  0  0  0  0  0  0  0  0
  -30.8962  -11.9353   19.6769 O   0  0  0  0  0  0  0  0  0  0  0  0
  -23.2694  -23.0934   21.7731 O   0  0  0  0  0  0  0  0  0  0  0  0
  -22.5098  -20.7333   18.9362 O   0  0  0  0  0  0  0  0  0  0  0  0
  -27.0038  -20.7211   17.4117 O   0  0  0  0  0  0  0  0  0  0  0  0
  -32.3705  -19.2668   19.2447 O   0  0  0  0  0  0  0  0  0  0  0  0
  -23.1376  -11.5412   20.1620 O   0  0  0  0  0  0  0  0  0  0  0  0
  -28.1246  -27.0397   19.6854 O   0  0  0  0  0  0  0  0  0  1  0  0
  -22.7359   -6.4278   22.1858 F   0  0  0  0  0  0  0  0  0  0  0  0
  -24.7327   -9.5024   19.1916 F   0  0  0  0  0  0  0  0  0  0  0  0
  1  2  1  0  0  0  0
  1  5  2  0  0  0  0
  2  6  2  0  0  0  0
  3  8  2  0  0  0  0
  3 15  1  0  0  0  0
  4  9  1  0  0  0  0
  4 15  2  0  0  0  0
  5 17  1  0  0  0  0
  6 19  1  0  0  0  0
  7 10  2  0  0  0  0
  7 18  1  0  0  0  0
  8 21  1  0  0  0  0
  9 21  2  0  0  0  0
 10 22  1  0  0  0  0
 11 12  2  0  0  0  0
 11 23  1  0  0  0  0
 12 24  1  0  0  0  0
 13 20  1  0  0  0  0
 13 22  2  0  0  0  0
 14 24  2  0  0  0  0
 14 25  1  0  0  0  0
 15 26  1  0  0  0  0
 16 26  1  0  0  0  0
 16 27  2  0  0  0  0
 16 28  1  0  0  0  0
 17 19  2  0  0  0  0
 17 33  1  0  0  0  0
 18 20  2  0  0  0  0
 18 34  1  0  0  0  0
 19 44  1  0  0  0  0
 20 35  1  0  0  0  0
 21 85  1  0  0  0  0
 22 86  1  0  0  0  0
 23 25  2  0  0  0  0
 23 85  1  0  0  0  0
 24 87  1  0  0  0  0
 25 88  1  0  0  0  0
 26 68  2  0  0  0  0
 27 69  1  0  0  0  0
 27 73  1  0  0  0  0
 28 74  1  0  0  0  0
 28 80  2  0  0  0  0
 29 45  1  0  0  0  0
 29 75  1  0  0  0  0
 29 81  2  0  0  0  0
 30 62  1  0  0  0  0
 30 70  1  0  0  0  0
 30 82  2  0  0  0  0
 31 63  1  0  0  0  0
 31 76  1  0  0  0  0
 31 83  2  0  0  0  0
 32 71  1  0  0  0  0
 32 77  1  0  0  0  0
 32 84  2  0  0  0  0
 33 36  1  0  0  0  0
 34 45  1  0  0  0  0
 35 70  1  0  0  0  0
 36 38  1  0  0  0  0
 37 39  1  0  0  0  0
 37 40  1  0  0  0  0
 38 44  1  0  0  0  0
 39 47  1  0  0  0  0
 40 71  1  0  0  0  0
 41 46  1  0  0  0  0
 41 72  1  0  0  0  0
 42 47  1  0  0  0  0
 42 71  1  0  0  0  0
 43 48  1  0  0  0  0
 43 72  1  0  0  0  0
 44 75  1  0  0  0  0
 45 70  1  0  0  0  0
 46 48  1  0  0  0  0
 46 49  1  0  0  0  0
 47 69  1  0  0  0  0
 48 86  1  0  0  0  0
 50 58  1  0  0  0  0
 51 63  1  0  0  0  0
 52 64  1  0  0  0  0
 53 65  1  0  0  0  0
 54 67  1  0  0  0  0
 55 67  1  0  0  0  0
 56 67  1  0  0  0  0
 57 78  1  0  0  0  0
 58 64  1  0  0  0  0
 59 60  1  0  0  0  0
 59 66  1  0  0  0  0
 60 77  1  0  0  0  0
 61 64  1  0  0  0  0
 61 79  1  0  0  0  0
 62 67  1  0  0  0  0
 62 76  1  0  0  0  0
 63 78  1  0  0  0  0
 65 66  1  0  0  0  0
 65 72  1  0  0  0  0
 66 79  1  0  0  0  0
 68 69  1  0  0  0  0
M  CHG  2  78   1  79   1
M  ISO  4  32 100  48 101  77 100  86 101
M  END
> <Batch ID>
0140

> <Smiles>
CCC(C)CNC(CC[100NH:0][100C:0](=O)N1CCCC(n2nc(-c3ccc(Oc4ccc(F)cc4F)cc3)c(C(N)=O)c2N)C1)C(C)N1CC(C)[101CH:1]([101O:1]c2ccc3c(c2)CN(C(=O)C(NC(=O)C(C)NC)C(C)(C)C)C(C(=O)NC2CCCc4ccccc42)C3)C1

> <Shape>
0.237

> <Color>
0.073

> <Negative vol penalty>
0.000

$$$$

  -OEChem-04052321133D

 85 94  0     1  0  0  0  0  0999 V2000
  -18.7844  -32.5581   25.5054 C   0  0  0  0  0  0  0  0  0  0  0  0
  -20.0575  -32.0291   25.3186 C   0  0  0  0  0  0  0  0  0  0  0  0
  -29.0590  -17.2198   23.4451 C   0  0  0  0  0  0  0  0  0  0  0  0
  -30.5119  -17.3142   21.5171 C   0  0  0  0  0  0  0  0  0  0  0  0
  -17.6774  -31.9223   24.9447 C   0  0  0  0  0  0  0  0  0  0  0  0
  -20.2241  -30.8633   24.5718 C   0  0  0  0  0  0  0  0  0  0  0  0
  -24.0843  -31.1811   21.3095 C   0  0  0  0  0  0  0  0  0  0  0  0
  -28.9616  -15.8356   23.3040 C   0  0  0  0  0  0  0  0  0  0  0  0
  -30.4146  -15.9298   21.3760 C   0  0  0  0  0  0  0  0  0  0  0  0
  -25.3696  -31.0249   21.8267 C   0  0  0  0  0  0  0  0  0  0  0  0
  -30.2603  -12.4644   20.2912 C   0  0  0  0  0  0  0  0  0  0  0  0
  -30.0471  -11.9567   19.0097 C   0  0  0  0  0  0  0  0  0  0  0  0
  -25.3936  -28.7377   21.0604 C   0  0  0  0  0  0  0  0  0  0  0  0
  -29.0447  -28.0301   21.9697 C   0  0  0  0  0  0  0  0  0  0  0  0
  -28.3314  -29.3369   20.0670 C   0  0  0  0  0  0  0  0  0  0  0  0
  -27.9760  -13.1923   18.8648 C   0  0  0  0  0  0  0  0  0  0  0  0
  -29.8341  -17.9592   22.5516 C   0  0  0  0  0  0  0  0  0  0  0  0
  -30.8870  -20.1026   23.4487 C   0  0  0  0  0  0  0  0  0  0  0  0
  -17.8316  -30.7535   24.1827 C   0  0  0  0  0  0  0  0  0  0  0  0
  -23.4387  -30.1116   20.6724 C   0  0  0  0  0  0  0  0  0  0  0  0
  -19.1180  -30.2105   24.0016 C   0  0  0  0  0  0  0  0  0  0  0  0
  -24.1012  -28.8836   20.5337 C   0  0  0  0  0  0  0  0  0  0  0  0
  -29.9897  -27.3847   21.1721 C   0  0  0  0  0  0  0  0  0  0  0  0
  -29.2764  -28.6915   19.2694 C   0  0  0  0  0  0  0  0  0  0  0  0
  -30.1055  -27.7154   19.8220 C   0  0  0  0  0  0  0  0  0  0  0  0
  -29.6394  -15.1906   22.2695 C   0  0  0  0  0  0  0  0  0  0  0  0
  -26.0233  -29.8023   21.7047 C   0  0  0  0  0  0  0  0  0  0  0  0
  -29.3313  -13.3360   20.8596 C   0  0  0  0  0  0  0  0  0  0  0  0
  -28.2156  -29.0062   21.4171 C   0  0  0  0  0  0  0  0  0  1  0  0
  -28.9050  -12.3206   18.2964 C   0  0  0  0  0  0  0  0  0  0  0  0
  -28.1892  -13.6999   20.1464 C   0  0  0  0  0  0  0  0  0  0  0  0
  -29.9346  -19.3892   22.6964 C   0  0  0  0  0  0  0  0  0  0  0  0
  -30.5542  -21.4219   23.2614 C   0  0  0  0  0  0  0  0  0  0  0  0
  -31.9752  -19.6162   24.2455 C   0  0  0  0  0  0  0  0  0  0  0  0
  -20.7908  -28.4413   21.2223 C   0  0  0  0  0  0  0  0  0  0  0  0
  -21.5114  -27.0956   18.3601 C   0  0  0  0  0  0  0  0  0  0  0  0
  -23.8880  -26.3389   16.0307 C   0  0  0  0  0  0  0  0  0  0  0  0
  -28.5097  -24.9792   19.1773 C   0  0  0  0  0  0  0  0  0  0  0  0
  -16.6003  -30.0755   23.6361 C   0  0  0  0  0  0  0  0  0  0  0  0
  -22.0627  -30.3042   20.0962 C   0  0  0  0  0  0  0  0  0  0  0  0
  -23.4597  -27.7104   19.8405 C   0  0  0  0  0  0  0  0  0  0  0  0
  -16.9023  -29.0521   22.5445 C   0  0  0  0  0  0  0  0  0  0  0  0
  -26.4659  -23.8177   21.8513 C   0  0  0  0  0  0  0  0  0  0  0  0
  -18.0587  -28.1499   22.9637 C   0  0  0  0  0  0  0  0  0  0  0  0
  -31.2332  -30.9354   17.6535 C   0  0  0  0  0  0  0  0  0  0  0  0
  -30.4656  -30.9712   16.3615 C   0  0  0  0  0  0  0  0  0  0  0  0
  -27.2405  -22.6236   22.4118 C   0  0  0  0  0  0  0  0  0  0  0  0
  -26.5958  -23.9122   20.3327 C   0  0  0  0  0  0  0  0  0  0  0  0
  -28.7567  -22.7285   20.3897 C   0  0  0  0  0  0  0  0  0  0  0  0
  -19.3421  -28.9614   23.1772 C   0  0  1  0  0  0  0  0  0  0  0  0
  -21.2996  -28.9948   19.9213 C   0  0  1  0  0  0  0  0  0  0  0  0
  -29.7835  -30.5370   17.6291 C   0  0  0  0  0  0  0  0  0  0  0  0
  -28.7016  -22.6239   21.9234 C   0  0  2  0  0  0  0  0  0  0  0  0
  -30.8653  -26.3429   21.7880 C   0  0  0  0  0  0  0  0  0  0  0  0
  -28.0853  -28.7665   17.0491 C   0  0  0  0  0  0  0  0  0  0  0  0
  -24.1810  -25.2013   13.8132 C   0  0  0  0  0  0  0  0  0  0  0  0
  -21.3271  -24.3770   19.7332 C   0  0  0  0  0  0  0  0  0  0  0  0
  -22.5313  -23.3844   17.7754 C   0  0  0  0  0  0  0  0  0  0  0  0
  -20.3063  -24.4648   17.4519 C   0  0  0  0  0  0  0  0  0  0  0  0
  -24.8304  -28.8325   14.7451 C   0  0  0  0  0  0  0  0  0  0  0  0
  -31.1193  -27.0235   18.9670 C   0  0  0  0  0  0  0  0  0  0  0  0
  -30.5220  -25.9286   18.0780 C   0  0  0  0  0  0  0  0  0  0  0  0
  -29.3802  -29.0644   17.8267 C   0  0  2  0  0  0  0  0  0  0  0  0
  -22.3299  -25.9086   17.9126 C   0  0  1  0  0  0  0  0  0  0  0  0
  -23.9147  -26.5193   14.5236 C   0  0  2  0  0  0  0  0  0  0  0  0
  -21.6353  -24.5551   18.2331 C   0  0  0  0  0  0  0  0  0  0  0  0
  -29.0622  -20.1890   22.0775 N   0  0  0  0  0  0  0  0  0  0  0  0
  -29.4649  -21.4187   22.4406 N   0  0  0  0  0  0  0  0  0  0  0  0
  -22.1110  -27.9464   19.2994 N   0  0  0  0  0  0  0  0  0  0  0  0
  -28.0058  -23.9095   19.9355 N   0  0  0  0  0  0  0  0  0  0  0  0
  -31.0899  -22.5729   23.7205 N   0  0  0  0  0  0  0  0  0  0  0  0
  -32.1751  -18.2315   24.3294 N   0  0  0  0  0  0  0  0  0  0  0  0
  -19.9463  -29.2956   21.9053 N   0  0  0  0  0  0  0  0  0  0  0  0
  -22.6092  -26.1162   16.4958 N   0  0  0  0  0  0  0  0  0  0  0  0
  -29.8575  -24.9013   18.8487 N   0  0  0  0  0  0  0  0  0  0  0  0
  -24.9810  -27.4858   14.1364 N   0  3  0  0  0  0  0  0  0  0  0  0
  -32.7374  -20.3859   24.8780 O   0  0  0  0  0  0  0  0  0  0  0  0
  -21.1375  -27.3215   21.5792 O   0  0  0  0  0  0  0  0  0  0  0  0
  -20.3845  -27.2656   17.8881 O   0  0  0  0  0  0  0  0  0  0  0  0
  -24.9007  -26.3869   16.7253 O   0  0  0  0  0  0  0  0  0  0  0  0
  -27.8114  -25.9357   18.8243 O   0  0  0  0  0  0  0  0  0  0  0  0
  -29.5448  -13.8398   22.1317 O   0  0  0  0  0  0  0  0  0  0  0  0
  -27.2776  -29.6470   22.2093 O   0  0  0  0  0  0  0  0  0  1  0  0
  -28.7012  -11.8342   17.0652 F   0  0  0  0  0  0  0  0  0  0  0  0
  -27.2938  -14.5378   20.6867 F   0  0  0  0  0  0  0  0  0  0  0  0
  1  2  1  0  0  0  0
  1  5  2  0  0  0  0
  2  6  2  0  0  0  0
  3  8  2  0  0  0  0
  3 17  1  0  0  0  0
  4  9  1  0  0  0  0
  4 17  2  0  0  0  0
  5 19  1  0  0  0  0
  6 21  1  0  0  0  0
  7 10  2  0  0  0  0
  7 20  1  0  0  0  0
  8 26  1  0  0  0  0
  9 26  2  0  0  0  0
 10 27  1  0  0  0  0
 11 12  2  0  0  0  0
 11 28  1  0  0  0  0
 12 30  1  0  0  0  0
 13 22  1  0  0  0  0
 13 27  2  0  0  0  0
 14 23  2  0  0  0  0
 14 29  1  0  0  0  0
 15 24  1  0  0  0  0
 15 29  2  0  0  0  0
 16 30  2  0  0  0  0
 16 31  1  0  0  0  0
 17 32  1  0  0  0  0
 18 32  1  0  0  0  0
 18 33  2  0  0  0  0
 18 34  1  0  0  0  0
 19 21  2  0  0  0  0
 19 39  1  0  0  0  0
 20 22  2  0  0  0  0
 20 40  1  0  0  0  0
 21 50  1  0  0  0  0
 22 41  1  0  0  0  0
 23 25  1  0  0  0  0
 23 54  1  0  0  0  0
 24 25  2  0  0  0  0
 24 63  1  0  0  0  0
 25 61  1  0  0  0  0
 26 82  1  0  0  0  0
 27 83  1  0  0  0  0
 28 31  2  0  0  0  0
 28 82  1  0  0  0  0
 29 83  1  0  0  0  0
 30 84  1  0  0  0  0
 31 85  1  0  0  0  0
 32 67  2  0  0  0  0
 33 68  1  0  0  0  0
 33 71  1  0  0  0  0
 34 72  1  0  0  0  0
 34 77  2  0  0  0  0
 35 51  1  0  0  0  0
 35 73  1  0  0  0  0
 35 78  2  0  0  0  0
 36 64  1  0  0  0  0
 36 69  1  0  0  0  0
 36 79  2  0  0  0  0
 37 65  1  0  0  0  0
 37 74  1  0  0  0  0
 37 80  2  0  0  0  0
 38 70  1  0  0  0  0
 38 75  1  0  0  0  0
 38 81  2  0  0  0  0
 39 42  1  0  0  0  0
 40 51  1  0  0  0  0
 41 69  1  0  0  0  0
 42 44  1  0  0  0  0
 43 47  1  0  0  0  0
 43 48  1  0  0  0  0
 44 50  1  0  0  0  0
 45 46  1  0  0  0  0
 45 52  1  0  0  0  0
 46 52  1  0  0  0  0
 47 53  1  0  0  0  0
 48 70  1  0  0  0  0
 49 53  1  0  0  0  0
 49 70  1  0  0  0  0
 50 73  1  0  0  0  0
 51 69  1  0  0  0  0
 52 63  1  0  0  0  0
 53 68  1  0  0  0  0
 55 63  1  0  0  0  0
 56 65  1  0  0  0  0
 57 66  1  0  0  0  0
 58 66  1  0  0  0  0
 59 66  1  0  0  0  0
 60 76  1  0  0  0  0
 61 62  1  0  0  0  0
 62 75  1  0  0  0  0
 64 66  1  0  0  0  0
 64 74  1  0  0  0  0
 65 76  1  0  0  0  0
 67 68  1  0  0  0  0
M  CHG  1  76   1
M  ISO  4  29 101  38 100  75 100  83 101
M  END
> <Batch ID>
0140

> <Smiles>
CNC(C)C(=O)NC(C(=O)N1Cc2cc([101O:1][101c:1]3cc(C)c(CC[100NH:0][100C:0](=O)N4CCCC(n5nc(-c6ccc(Oc7ccc(F)cc7F)cc6)c(C(N)=O)c5N)C4)c(C(C)C4CC4)c3)ccc2CC1C(=O)NC1CCCc2ccccc21)C(C)(C)C

> <Shape>
0.257

> <Color>
0.060

> <Negative vol penalty>
0.000

$$$$

  -OEChem-04052321133D

 89 99  0     1  0  0  0  0  0999 V2000
  -30.1214  -14.5365   22.6772 C   0  0  0  0  0  0  0  0  0  0  0  0
  -29.5624  -15.8100   22.6451 C   0  0  0  0  0  0  0  0  0  0  0  0
  -27.5987  -23.7945   20.4815 C   0  0  0  0  0  0  0  0  0  0  0  0
  -29.3519  -24.0800   18.8439 C   0  0  0  0  0  0  0  0  0  0  0  0
  -29.6367  -13.5420   21.8286 C   0  0  0  0  0  0  0  0  0  0  0  0
  -28.5190  -16.0902   21.7634 C   0  0  0  0  0  0  0  0  0  0  0  0
  -23.7957  -19.8665   22.7305 C   0  0  0  0  0  0  0  0  0  0  0  0
  -27.3015  -22.5418   19.9450 C   0  0  0  0  0  0  0  0  0  0  0  0
  -29.0547  -22.8272   18.3073 C   0  0  0  0  0  0  0  0  0  0  0  0
  -23.5555  -21.1853   22.3473 C   0  0  0  0  0  0  0  0  0  0  0  0
  -28.9963  -19.5499   16.7344 C   0  0  0  0  0  0  0  0  0  0  0  0
  -30.0626  -18.7006   16.4389 C   0  0  0  0  0  0  0  0  0  0  0  0
  -22.3008  -20.3973   20.4436 C   0  0  0  0  0  0  0  0  0  0  0  0
  -18.6738  -27.1498   23.4213 C   0  0  0  0  0  0  0  0  0  0  0  0
  -21.0783  -26.8955   22.0296 C   0  0  0  0  0  0  0  0  0  0  0  0
  -30.7351  -18.7376   18.7591 C   0  0  0  0  0  0  0  0  0  0  0  0
  -28.6239  -24.5637   19.9309 C   0  0  0  0  0  0  0  0  0  0  0  0
  -29.8462  -26.1469   21.5142 C   0  0  0  0  0  0  0  0  0  0  0  0
  -28.5804  -13.8075   20.9429 C   0  0  0  0  0  0  0  0  0  0  0  0
  -23.2987  -18.8013   21.9658 C   0  0  0  0  0  0  0  0  0  0  0  0
  -28.0206  -15.0987   20.9012 C   0  0  0  0  0  0  0  0  0  0  0  0
  -22.5340  -19.0659   20.8207 C   0  0  0  0  0  0  0  0  0  0  0  0
  -19.4602  -28.2754   23.1762 C   0  0  0  0  0  0  0  0  0  0  0  0
  -19.0897  -25.8969   22.9706 C   0  0  0  0  0  0  0  0  0  0  0  0
  -20.6624  -28.1483   22.4804 C   0  0  0  0  0  0  0  0  0  0  0  0
  -28.0295  -22.0581   18.8579 C   0  0  0  0  0  0  0  0  0  0  0  0
  -22.8104  -21.4509   21.2022 C   0  0  0  0  0  0  0  0  0  0  0  0
  -28.7994  -19.9931   18.0423 C   0  0  0  0  0  0  0  0  0  0  0  0
  -20.2919  -25.7698   22.2748 C   0  0  0  0  0  0  0  0  0  0  0  0
  -30.9320  -18.2945   17.4512 C   0  0  0  0  0  0  0  0  0  0  0  0
  -29.6689  -19.5869   19.0546 C   0  0  0  0  0  0  0  0  0  0  0  0
  -28.9310  -25.8581   20.4843 C   0  0  0  0  0  0  0  0  0  0  0  0
  -29.7702  -27.5095   21.6690 C   0  0  0  0  0  0  0  0  0  0  0  0
  -30.6898  -25.2625   22.2638 C   0  0  0  0  0  0  0  0  0  0  0  0
  -24.6081  -16.4015   20.3441 C   0  0  0  0  0  0  0  0  0  0  0  0
  -21.5206  -15.4738   19.9849 C   0  0  0  0  0  0  0  0  0  0  0  0
  -18.2220  -16.3465   19.9210 C   0  0  0  0  0  0  0  0  0  0  0  0
  -25.4280  -31.4590   20.4614 C   0  0  0  0  0  0  0  0  0  0  0  0
  -28.1218  -12.7136   20.0114 C   0  0  0  0  0  0  0  0  0  0  0  0
  -23.5440  -17.3845   22.4074 C   0  0  0  0  0  0  0  0  0  0  0  0
  -21.9608  -17.9581   19.9764 C   0  0  0  0  0  0  0  0  0  0  0  0
  -26.7635  -12.9883   19.3713 C   0  0  0  0  0  0  0  0  0  0  0  0
  -28.8005  -31.5153   19.2469 C   0  0  0  0  0  0  0  0  0  0  0  0
  -26.7025  -14.4173   18.8411 C   0  0  0  0  0  0  0  0  0  0  0  0
  -25.2936  -31.1207   24.8957 C   0  0  0  0  0  0  0  0  0  0  0  0
  -23.8211  -31.1663   25.1744 C   0  0  0  0  0  0  0  0  0  0  0  0
  -29.2921  -30.0896   19.4994 C   0  0  0  0  0  0  0  0  0  0  0  0
  -27.3261  -31.5384   18.8547 C   0  0  0  0  0  0  0  0  0  0  0  0
  -26.9175  -29.4258   20.0820 C   0  0  0  0  0  0  0  0  0  0  0  0
  -26.8710  -15.4345   19.9762 C   0  0  1  0  0  0  0  0  0  0  0  0
  -23.4249  -16.3750   21.2698 C   0  0  1  0  0  0  0  0  0  0  0  0
  -24.3229  -30.5475   23.8941 C   0  0  0  0  0  0  0  0  0  0  0  0
  -28.3921  -29.3637   20.5160 C   0  0  1  0  0  0  0  0  0  0  0  0
  -24.0847  -31.1759   22.5340 C   0  0  2  0  0  0  0  0  0  0  0  0
  -23.3261  -30.5548   21.4140 C   0  0  2  0  0  0  0  0  0  0  0  0
  -18.9919  -29.6055   23.6705 C   0  0  0  0  0  0  0  0  0  0  0  0
  -18.2350  -24.7032   23.2423 C   0  0  0  0  0  0  0  0  0  0  0  0
  -15.9345  -15.3774   19.5666 C   0  0  0  0  0  0  0  0  0  0  0  0
  -22.0313  -15.3741   16.9783 C   0  0  0  0  0  0  0  0  0  0  0  0
  -19.5524  -15.3442   16.6287 C   0  0  0  0  0  0  0  0  0  0  0  0
  -20.6582  -13.4820   17.8666 C   0  0  0  0  0  0  0  0  0  0  0  0
  -17.3535  -17.0997   22.6481 C   0  0  0  0  0  0  0  0  0  0  0  0
  -22.7062  -29.2061   21.5163 C   0  0  0  0  0  0  0  0  0  0  0  0
  -21.3604  -22.9967   20.1233 C   0  0  0  0  0  0  0  0  0  1  0  0
  -20.9006  -24.4108   20.4204 C   0  0  0  0  0  0  0  0  0  0  0  0
  -20.4339  -15.7444   18.9726 C   0  0  1  0  0  0  0  0  0  0  0  0
  -17.0044  -15.7320   20.5875 C   0  0  2  0  0  0  0  0  0  0  0  0
  -20.6812  -15.0073   17.6262 C   0  0  0  0  0  0  0  0  0  0  0  0
  -28.3183  -26.9495   20.0179 N   0  0  0  0  0  0  0  0  0  0  0  0
  -28.8496  -27.9373   20.7582 N   0  0  0  0  0  0  0  0  0  0  0  0
  -22.2334  -16.5896   20.4461 N   0  0  0  0  0  0  0  0  0  0  0  0
  -26.5138  -30.8177   19.8347 N   0  0  0  0  0  0  0  0  0  0  0  0
  -24.7521  -30.6479   21.3712 N   0  0  0  0  0  0  0  0  0  0  0  0
  -30.4016  -28.3715   22.4942 N   0  0  0  0  0  0  0  0  0  0  0  0
  -30.6436  -23.8916   21.9764 N   0  0  0  0  0  0  0  0  0  0  0  0
  -21.4571  -29.2588   22.2267 N   0  0  0  0  0  0  0  0  0  0  0  0
  -25.6395  -15.5646   20.7252 N   0  0  0  0  0  0  0  0  0  0  0  0
  -19.1750  -15.3958   19.6222 N   0  0  0  0  0  0  0  0  0  0  0  0
  -16.4172  -16.6840   21.5723 N   0  3  0  0  0  0  0  0  0  0  0  0
  -31.4497  -25.6739   23.1732 O   0  0  0  0  0  0  0  0  0  0  0  0
  -24.5863  -17.1264   19.3563 O   0  0  0  0  0  0  0  0  0  0  0  0
  -21.7246  -14.3159   20.3582 O   0  0  0  0  0  0  0  0  0  0  0  0
  -18.3165  -17.5490   19.6853 O   0  0  0  0  0  0  0  0  0  0  0  0
  -25.1059  -32.6276   20.2307 O   0  0  0  0  0  0  0  0  0  0  0  0
  -27.7399  -20.8356   18.3343 O   0  0  0  0  0  0  0  0  0  0  0  0
  -22.5733  -22.7459   20.8230 O   0  0  0  0  0  0  0  0  0  1  0  0
  -20.7126  -24.5537   21.8269 O   0  0  0  0  0  0  0  0  0  0  0  0
  -31.9550  -17.4777   17.1675 F   0  0  0  0  0  0  0  0  0  0  0  0
  -29.4841  -20.0084   20.3132 F   0  0  0  0  0  0  0  0  0  0  0  0
  1  2  1  0  0  0  0
  1  5  2  0  0  0  0
  2  6  2  0  0  0  0
  3  8  2  0  0  0  0
  3 17  1  0  0  0  0
  4  9  1  0  0  0  0
  4 17  2  0  0  0  0
  5 19  1  0  0  0  0
  6 21  1  0  0  0  0
  7 10  2  0  0  0  0
  7 20  1  0  0  0  0
  8 26  1  0  0  0  0
  9 26  2  0  0  0  0
 10 27  1  0  0  0  0
 11 12  2  0  0  0  0
 11 28  1  0  0  0  0
 12 30  1  0  0  0  0
 13 22  1  0  0  0  0
 13 27  2  0  0  0  0
 14 23  2  0  0  0  0
 14 24  1  0  0  0  0
 15 25  2  0  0  0  0
 15 29  1  0  0  0  0
 16 30  2  0  0  0  0
 16 31  1  0  0  0  0
 17 32  1  0  0  0  0
 18 32  1  0  0  0  0
 18 33  2  0  0  0  0
 18 34  1  0  0  0  0
 19 21  2  0  0  0  0
 19 39  1  0  0  0  0
 20 22  2  0  0  0  0
 20 40  1  0  0  0  0
 21 50  1  0  0  0  0
 22 41  1  0  0  0  0
 23 25  1  0  0  0  0
 23 56  1  0  0  0  0
 24 29  2  0  0  0  0
 24 57  1  0  0  0  0
 25 76  1  0  0  0  0
 26 85  1  0  0  0  0
 27 86  1  0  0  0  0
 28 31  2  0  0  0  0
 28 85  1  0  0  0  0
 29 87  1  0  0  0  0
 30 88  1  0  0  0  0
 31 89  1  0  0  0  0
 32 69  2  0  0  0  0
 33 70  1  0  0  0  0
 33 74  1  0  0  0  0
 34 75  1  0  0  0  0
 34 80  2  0  0  0  0
 35 51  1  0  0  0  0
 35 77  1  0  0  0  0
 35 81  2  0  0  0  0
 36 66  1  0  0  0  0
 36 71  1  0  0  0  0
 36 82  2  0  0  0  0
 37 67  1  0  0  0  0
 37 78  1  0  0  0  0
 37 83  2  0  0  0  0
 38 72  1  0  0  0  0
 38 73  1  0  0  0  0
 38 84  2  0  0  0  0
 39 42  1  0  0  0  0
 40 51  1  0  0  0  0
 41 71  1  0  0  0  0
 42 44  1  0  0  0  0
 43 47  1  0  0  0  0
 43 48  1  0  0  0  0
 44 50  1  0  0  0  0
 45 46  1  0  0  0  0
 45 52  1  0  0  0  0
 46 52  1  0  0  0  0
 47 53  1  0  0  0  0
 48 72  1  0  0  0  0
 49 53  1  0  0  0  0
 49 72  1  0  0  0  0
 50 77  1  0  0  0  0
 51 71  1  0  0  0  0
 52 54  1  0  0  0  0
 53 70  1  0  0  0  0
 54 55  1  0  0  0  0
 54 73  1  0  0  0  0
 55 63  1  0  0  0  0
 55 73  1  0  0  0  0
 58 67  1  0  0  0  0
 59 68  1  0  0  0  0
 60 68  1  0  0  0  0
 61 68  1  0  0  0  0
 62 79  1  0  0  0  0
 63 76  1  0  0  0  0
 64 65  1  0  0  0  0
 64 86  1  0  0  0  0
 65 87  1  0  0  0  0
 66 68  1  0  0  0  0
 66 78  1  0  0  0  0
 67 79  1  0  0  0  0
 69 70  1  0  0  0  0
M  CHG  1  79   1
M  ISO  4  38 100  64 101  73 100  86 101
M  END
> <Batch ID>
0140

> <Smiles>
CNC(C)C(=O)NC(C(=O)N1Cc2cc([101O:1][101CH2:1]COc3cc(NCC4C(C5CC5)[100N:0]4[100C:0](=O)N4CCCC(n5nc(-c6ccc(Oc7ccc(F)cc7F)cc6)c(C(N)=O)c5N)C4)c(C)cc3C)ccc2CC1C(=O)NC1CCCc2ccccc21)C(C)(C)C

> <Shape>
0.228

> <Color>
0.073

> <Negative vol penalty>
0.000

$$$$

  -OEChem-04052321133D

 86 95  0     1  0  0  0  0  0999 V2000
  -25.0745  -37.6908   22.5212 C   0  0  0  0  0  0  0  0  0  0  0  0
  -25.6022  -36.6632   21.7460 C   0  0  0  0  0  0  0  0  0  0  0  0
  -23.9404   -9.5729   22.2838 C   0  0  0  0  0  0  0  0  0  0  0  0
  -24.7442   -8.6059   20.2209 C   0  0  0  0  0  0  0  0  0  0  0  0
  -24.9801  -37.5413   23.9042 C   0  0  0  0  0  0  0  0  0  0  0  0
  -26.0369  -35.4858   22.3536 C   0  0  0  0  0  0  0  0  0  0  0  0
  -25.6907  -29.8164   20.0635 C   0  0  0  0  0  0  0  0  0  0  0  0
  -22.9078   -8.6358   22.3208 C   0  0  0  0  0  0  0  0  0  0  0  0
  -23.7116   -7.6688   20.2578 C   0  0  0  0  0  0  0  0  0  0  0  0
  -26.6221  -29.0099   19.4109 C   0  0  0  0  0  0  0  0  0  0  0  0
  -27.1218  -23.8254   19.8608 C   0  0  0  0  0  0  0  0  0  0  0  0
  -27.1355  -25.1869   19.5577 C   0  0  0  0  0  0  0  0  0  0  0  0
  -20.2734   -6.2713   23.1478 C   0  0  0  0  0  0  0  0  0  0  0  0
  -20.0119   -5.6421   24.3648 C   0  0  0  0  0  0  0  0  0  0  0  0
  -27.1507  -27.9360   21.5053 C   0  0  0  0  0  0  0  0  0  0  0  0
  -22.2596   -4.7564   24.3897 C   0  0  0  0  0  0  0  0  0  0  0  0
  -24.8585   -9.5579   21.2338 C   0  0  0  0  0  0  0  0  0  0  0  0
  -27.2101  -10.3981   21.7552 C   0  0  0  0  0  0  0  0  0  0  0  0
  -25.4050  -36.3576   24.5280 C   0  0  0  0  0  0  0  0  0  0  0  0
  -25.4898  -29.6961   21.4461 C   0  0  0  0  0  0  0  0  0  0  0  0
  -25.9494  -35.3208   23.7464 C   0  0  0  0  0  0  0  0  0  0  0  0
  -26.2144  -28.7404   22.1727 C   0  0  0  0  0  0  0  0  0  0  0  0
  -29.4083  -23.9731   20.6270 C   0  0  0  0  0  0  0  0  0  0  0  0
  -29.4220  -25.3345   20.3239 C   0  0  0  0  0  0  0  0  0  0  0  0
  -22.7935   -7.6838   21.3078 C   0  0  0  0  0  0  0  0  0  0  0  0
  -27.3543  -28.0716   20.1323 C   0  0  0  0  0  0  0  0  0  0  0  0
  -28.2582  -23.2185   20.3955 C   0  0  0  0  0  0  0  0  0  0  0  0
  -28.2856  -25.9414   19.7892 C   0  0  0  0  0  0  0  0  0  1  0  0
  -21.5279   -6.1431   22.5516 C   0  0  0  0  0  0  0  0  0  0  0  0
  -21.0051   -4.8846   24.9858 C   0  0  0  0  0  0  0  0  0  0  0  0
  -22.5210   -5.3856   23.1726 C   0  0  0  0  0  0  0  0  0  0  0  0
  -25.9250  -10.5260   21.1948 C   0  0  0  0  0  0  0  0  0  0  0  0
  -27.8388  -11.5794   21.4455 C   0  0  0  0  0  0  0  0  0  0  0  0
  -27.7842   -9.3090   22.4900 C   0  0  0  0  0  0  0  0  0  0  0  0
  -25.8465  -31.6324   23.9416 C   0  0  0  0  0  0  0  0  0  0  0  0
  -24.4753  -29.1727   25.5516 C   0  0  0  0  0  0  0  0  0  0  0  0
  -23.8063  -25.8301   25.7123 C   0  0  0  0  0  0  0  0  0  0  0  0
  -28.0311  -16.9278   21.0330 C   0  0  0  0  0  0  0  0  0  0  0  0
  -25.3269  -36.2608   26.0311 C   0  0  0  0  0  0  0  0  0  0  0  0
  -24.4622  -30.5550   22.1307 C   0  0  0  0  0  0  0  0  0  0  0  0
  -26.0215  -28.5577   23.6552 C   0  0  0  0  0  0  0  0  0  0  0  0
  -25.4633  -34.8344   26.5574 C   0  0  0  0  0  0  0  0  0  0  0  0
  -26.4995  -15.3134   18.3183 C   0  0  0  0  0  0  0  0  0  0  0  0
  -26.6310  -34.1246   25.8795 C   0  0  0  0  0  0  0  0  0  0  0  0
  -26.3134  -13.9005   18.8711 C   0  0  0  0  0  0  0  0  0  0  0  0
  -29.1534  -20.0567   19.3905 C   0  0  0  0  0  0  0  0  0  0  0  0
  -26.6706  -20.2164   19.8591 C   0  0  0  0  0  0  0  0  0  0  0  0
  -26.1996  -16.3839   19.3689 C   0  0  0  0  0  0  0  0  0  0  0  0
  -29.2653  -18.9904   20.4790 C   0  0  0  0  0  0  0  0  0  0  0  0
  -26.8398  -19.1499   20.9387 C   0  0  0  0  0  0  0  0  0  0  0  0
  -26.7675  -14.8026   21.1837 C   0  0  0  0  0  0  0  0  0  0  0  0
  -26.4087  -34.0188   24.3659 C   0  0  1  0  0  0  0  0  0  0  0  0
  -24.7087  -30.7021   23.6291 C   0  0  1  0  0  0  0  0  0  0  0  0
  -27.1185  -13.7042   20.1681 C   0  0  1  0  0  0  0  0  0  0  0  0
  -27.9631  -20.9929   19.6020 C   0  0  0  0  0  0  0  0  0  0  0  0
  -30.6228  -23.3154   21.2007 C   0  0  0  0  0  0  0  0  0  0  0  0
  -31.4200  -26.4354   19.2835 C   0  0  0  0  0  0  0  0  0  0  0  0
  -22.6999  -24.1102   27.1668 C   0  0  0  0  0  0  0  0  0  0  0  0
  -26.8537  -29.2610   27.4609 C   0  0  0  0  0  0  0  0  0  0  0  0
  -26.1956  -26.9867   28.2749 C   0  0  0  0  0  0  0  0  0  0  0  0
  -24.6387  -28.9135   28.5689 C   0  0  0  0  0  0  0  0  0  0  0  0
  -21.8694  -25.1143   23.5921 C   0  0  0  0  0  0  0  0  0  0  0  0
  -30.6513  -26.1500   20.5692 C   0  0  0  0  0  0  0  0  0  0  0  0
  -24.9866  -27.9420   26.2608 C   0  0  1  0  0  0  0  0  0  0  0  0
  -22.5232  -25.0724   26.0024 C   0  0  2  0  0  0  0  0  0  0  0  0
  -25.6739  -28.2803   27.6138 C   0  0  0  0  0  0  0  0  0  0  0  0
  -25.7464  -11.6962   20.5761 N   0  0  0  0  0  0  0  0  0  0  0  0
  -26.9275  -12.3144   20.7460 N   0  0  0  0  0  0  0  0  0  0  0  0
  -25.0098  -29.4255   24.2803 N   0  0  0  0  0  0  0  0  0  0  0  0
  -26.9598  -16.1319   20.6004 N   0  0  0  0  0  0  0  0  0  0  0  0
  -27.9985  -18.2861   20.6746 N   0  0  0  0  0  0  0  0  0  0  0  0
  -29.0767  -12.0506   21.7061 N   0  0  0  0  0  0  0  0  0  0  0  0
  -26.9996   -8.1704   22.7189 N   0  0  0  0  0  0  0  0  0  0  0  0
  -25.4724  -32.9568   24.0657 N   0  0  0  0  0  0  0  0  0  0  0  0
  -23.8488  -27.0365   26.3786 N   0  0  0  0  0  0  0  0  0  0  0  0
  -22.1018  -24.2900   24.8061 N   0  3  0  0  0  0  0  0  0  0  0  0
  -28.9525   -9.3510   22.9446 O   0  0  0  0  0  0  0  0  0  0  0  0
  -26.9796  -31.1818   24.0627 O   0  0  0  0  0  0  0  0  0  0  0  0
  -23.6275  -29.8796   26.1022 O   0  0  0  0  0  0  0  0  0  0  0  0
  -24.6847  -25.3935   24.9718 O   0  0  0  0  0  0  0  0  0  0  0  0
  -28.9630  -16.4556   21.6960 O   0  0  0  0  0  0  0  0  0  0  0  0
  -21.7862   -6.7691   21.3437 O   0  0  0  0  0  0  0  0  0  0  0  0
  -28.2800  -27.2701   19.4870 O   0  0  0  0  0  0  0  0  0  1  0  0
  -28.2252  -21.8803   20.6870 O   0  0  0  0  0  0  0  0  0  0  0  0
  -20.7544   -4.2817   26.1553 F   0  0  0  0  0  0  0  0  0  0  0  0
  -23.7286   -5.2598   22.6053 F   0  0  0  0  0  0  0  0  0  0  0  0
  1  2  1  0  0  0  0
  1  5  2  0  0  0  0
  2  6  2  0  0  0  0
  3  8  2  0  0  0  0
  3 17  1  0  0  0  0
  4  9  1  0  0  0  0
  4 17  2  0  0  0  0
  5 19  1  0  0  0  0
  6 21  1  0  0  0  0
  7 10  2  0  0  0  0
  7 20  1  0  0  0  0
  8 25  1  0  0  0  0
  9 25  2  0  0  0  0
 10 26  1  0  0  0  0
 11 12  2  0  0  0  0
 11 27  1  0  0  0  0
 12 28  1  0  0  0  0
 13 14  2  0  0  0  0
 13 29  1  0  0  0  0
 14 30  1  0  0  0  0
 15 22  1  0  0  0  0
 15 26  2  0  0  0  0
 16 30  2  0  0  0  0
 16 31  1  0  0  0  0
 17 32  1  0  0  0  0
 18 32  1  0  0  0  0
 18 33  2  0  0  0  0
 18 34  1  0  0  0  0
 19 21  2  0  0  0  0
 19 39  1  0  0  0  0
 20 22  2  0  0  0  0
 20 40  1  0  0  0  0
 21 52  1  0  0  0  0
 22 41  1  0  0  0  0
 23 24  1  0  0  0  0
 23 27  2  0  0  0  0
 23 56  1  0  0  0  0
 24 28  2  0  0  0  0
 24 63  1  0  0  0  0
 25 82  1  0  0  0  0
 26 83  1  0  0  0  0
 27 84  1  0  0  0  0
 28 83  1  0  0  0  0
 29 31  2  0  0  0  0
 29 82  1  0  0  0  0
 30 85  1  0  0  0  0
 31 86  1  0  0  0  0
 32 67  2  0  0  0  0
 33 68  1  0  0  0  0
 33 72  1  0  0  0  0
 34 73  1  0  0  0  0
 34 77  2  0  0  0  0
 35 53  1  0  0  0  0
 35 74  1  0  0  0  0
 35 78  2  0  0  0  0
 36 64  1  0  0  0  0
 36 69  1  0  0  0  0
 36 79  2  0  0  0  0
 37 65  1  0  0  0  0
 37 75  1  0  0  0  0
 37 80  2  0  0  0  0
 38 70  1  0  0  0  0
 38 71  1  0  0  0  0
 38 81  2  0  0  0  0
 39 42  1  0  0  0  0
 40 53  1  0  0  0  0
 41 69  1  0  0  0  0
 42 44  1  0  0  0  0
 43 45  1  0  0  0  0
 43 48  1  0  0  0  0
 44 52  1  0  0  0  0
 45 54  1  0  0  0  0
 46 49  1  0  0  0  0
 46 55  1  0  0  0  0
 47 50  1  0  0  0  0
 47 55  1  0  0  0  0
 48 70  1  0  0  0  0
 49 71  1  0  0  0  0
 50 71  1  0  0  0  0
 51 54  1  0  0  0  0
 51 70  1  0  0  0  0
 52 74  1  0  0  0  0
 53 69  1  0  0  0  0
 54 68  1  0  0  0  0
 55 84  1  0  0  0  0
 57 63  1  0  0  0  0
 58 65  1  0  0  0  0
 59 66  1  0  0  0  0
 60 66  1  0  0  0  0
 61 66  1  0  0  0  0
 62 76  1  0  0  0  0
 64 66  1  0  0  0  0
 64 75  1  0  0  0  0
 65 76  1  0  0  0  0
 67 68  1  0  0  0  0
M  CHG  1  76   1
M  ISO  4  28 101  38 100  71 100  83 101
M  END
> <Batch ID>
0140

> <Smiles>
CCc1c(C)c(OC2CC[100N:0]([100C:0](=O)N3CCCC(n4nc(-c5ccc(Oc6ccc(F)cc6F)cc5)c(C(N)=O)c4N)C3)CC2)cc[101c:1]1[101O:1]c1ccc2c(c1)CN(C(=O)C(NC(=O)C(C)NC)C(C)(C)C)C(C(=O)NC1CCCc3ccccc31)C2

> <Shape>
0.296

> <Color>
0.089

> <Negative vol penalty>
0.000

$$$$

  -OEChem-04052321133D

 86 95  0     1  0  0  0  0  0999 V2000
  -29.5450  -36.4281   17.7753 C   0  0  0  0  0  0  0  0  0  0  0  0
  -29.2055  -35.2045   17.2071 C   0  0  0  0  0  0  0  0  0  0  0  0
  -24.6732   -8.7180   21.3648 C   0  0  0  0  0  0  0  0  0  0  0  0
  -23.2122  -10.6349   21.5332 C   0  0  0  0  0  0  0  0  0  0  0  0
  -29.7516  -36.5232   19.1509 C   0  0  0  0  0  0  0  0  0  0  0  0
  -29.0735  -34.0750   18.0140 C   0  0  0  0  0  0  0  0  0  0  0  0
  -25.3219  -27.9948   18.5366 C   0  0  0  0  0  0  0  0  0  0  0  0
  -23.9489   -8.0776   22.3701 C   0  0  0  0  0  0  0  0  0  0  0  0
  -22.4879   -9.9944   22.5386 C   0  0  0  0  0  0  0  0  0  0  0  0
  -25.5116  -26.6213   18.6825 C   0  0  0  0  0  0  0  0  0  0  0  0
  -21.0304   -6.3933   22.6506 C   0  0  0  0  0  0  0  0  0  0  0  0
  -20.6927   -5.0544   22.4537 C   0  0  0  0  0  0  0  0  0  0  0  0
  -25.8147  -26.9214   21.0567 C   0  0  0  0  0  0  0  0  0  0  0  0
  -28.0725  -20.2506   20.1108 C   0  0  0  0  0  0  0  0  0  0  0  0
  -25.7260  -19.6922   20.2491 C   0  0  0  0  0  0  0  0  0  0  0  0
  -21.9244   -4.4512   24.4426 C   0  0  0  0  0  0  0  0  0  0  0  0
  -24.3049   -9.9967   20.9463 C   0  0  0  0  0  0  0  0  0  0  0  0
  -24.8172  -10.6014   18.5216 C   0  0  0  0  0  0  0  0  0  0  0  0
  -29.6126  -35.3963   19.9764 C   0  0  0  0  0  0  0  0  0  0  0  0
  -25.3881  -28.8446   19.6501 C   0  0  0  0  0  0  0  0  0  0  0  0
  -29.2798  -34.1548   19.4017 C   0  0  0  0  0  0  0  0  0  0  0  0
  -25.6230  -28.3050   20.9227 C   0  0  0  0  0  0  0  0  0  0  0  0
  -28.3948  -18.8935   20.1001 C   0  0  0  0  0  0  0  0  0  0  0  0
  -26.0483  -18.3351   20.2383 C   0  0  0  0  0  0  0  0  0  0  0  0
  -27.3827  -17.9358   20.1637 C   0  0  0  0  0  0  0  0  0  0  0  0
  -22.8562   -8.7157   22.9571 C   0  0  0  0  0  0  0  0  0  0  0  0
  -25.7610  -26.0847   19.9422 C   0  0  0  0  0  0  0  0  0  0  0  0
  -21.8152   -6.7612   23.7435 C   0  0  0  0  0  0  0  0  0  0  0  0
  -26.7381  -20.6500   20.1854 C   0  0  0  0  0  0  0  0  0  0  0  0
  -21.1396   -4.0833   23.3497 C   0  0  0  0  0  0  0  0  0  0  0  0
  -22.2622   -5.7901   24.6395 C   0  0  0  0  0  0  0  0  0  0  0  0
  -25.0531  -10.6590   19.9082 C   0  0  0  0  0  0  0  0  0  0  0  0
  -25.7947  -11.3956   17.9737 C   0  0  0  0  0  0  0  0  0  0  0  0
  -23.8049   -9.8933   17.7938 C   0  0  0  0  0  0  0  0  0  0  0  0
  -27.2489  -31.2739   20.5103 C   0  0  0  0  0  0  0  0  0  0  0  0
  -25.1542  -31.4970   22.9770 C   0  0  0  0  0  0  0  0  0  0  0  0
  -22.8511  -29.9578   24.9703 C   0  0  0  0  0  0  0  0  0  0  0  0
  -28.9803  -15.9896   20.0836 C   0  0  0  0  0  0  0  0  0  0  0  0
  -29.8923  -35.5382   21.4516 C   0  0  0  0  0  0  0  0  0  0  0  0
  -25.1547  -30.3208   19.4798 C   0  0  0  0  0  0  0  0  0  0  0  0
  -25.6837  -29.1719   22.1529 C   0  0  0  0  0  0  0  0  0  0  0  0
  -29.3659  -34.3733   22.2861 C   0  0  0  0  0  0  0  0  0  0  0  0
  -30.2581  -12.9333   18.7785 C   0  0  0  0  0  0  0  0  0  0  0  0
  -30.8181  -19.4450   19.3946 C   0  0  0  0  0  0  0  0  0  0  0  0
  -30.4324  -18.1909   18.6743 C   0  0  0  0  0  0  0  0  0  0  0  0
  -29.7351  -33.0427   21.6382 C   0  0  0  0  0  0  0  0  0  0  0  0
  -29.0454  -11.9998   18.7882 C   0  0  0  0  0  0  0  0  0  0  0  0
  -30.2661  -13.8653   19.9889 C   0  0  0  0  0  0  0  0  0  0  0  0
  -27.8173  -13.6985   20.2000 C   0  0  0  0  0  0  0  0  0  0  0  0
  -29.8327  -18.4953   20.0205 C   0  0  0  0  0  0  0  0  0  0  0  0
  -29.1030  -32.9122   20.2472 C   0  0  1  0  0  0  0  0  0  0  0  0
  -25.7543  -31.1545   20.6080 C   0  0  1  0  0  0  0  0  0  0  0  0
  -27.7312  -12.7851   18.9664 C   0  0  2  0  0  0  0  0  0  0  0  0
  -23.5494  -15.6570   19.0182 C   0  0  0  0  0  0  0  0  0  0  0  0
  -21.3359  -30.3874   26.9240 C   0  0  0  0  0  0  0  0  0  0  0  0
  -27.5518  -31.3744   24.8602 C   0  0  0  0  0  0  0  0  0  0  0  0
  -25.9692  -30.8518   26.7285 C   0  0  0  0  0  0  0  0  0  0  0  0
  -25.7922  -33.0255   25.5176 C   0  0  0  0  0  0  0  0  0  0  0  0
  -20.4331  -29.3405   23.3793 C   0  0  0  0  0  0  0  0  0  0  0  0
  -24.9417  -17.3330   20.3076 C   0  0  0  0  0  0  0  0  0  0  0  0
  -24.6527  -16.7003   18.9392 C   0  0  0  0  0  0  0  0  0  0  0  0
  -26.5195  -24.0450   18.9830 C   0  0  0  0  0  0  0  0  0  1  0  0
  -27.3048  -22.8565   19.5029 C   0  0  0  0  0  0  0  0  0  0  0  0
  -25.0638  -30.8990   24.3602 C   0  0  1  0  0  0  0  0  0  0  0  0
  -21.4587  -30.3750   25.4083 C   0  0  2  0  0  0  0  0  0  0  0  0
  -26.0951  -31.5213   25.3434 C   0  0  0  0  0  0  0  0  0  0  0  0
  -26.0985  -11.4289   20.2219 N   0  0  0  0  0  0  0  0  0  0  0  0
  -26.5283  -11.8622   19.0246 N   0  0  0  0  0  0  0  0  0  0  0  0
  -25.4552  -30.6097   21.9339 N   0  0  0  0  0  0  0  0  0  0  0  0
  -28.9912  -14.5788   20.0913 N   0  0  0  0  0  0  0  0  0  0  0  0
  -26.0898  -11.7333   16.7004 N   0  0  0  0  0  0  0  0  0  0  0  0
  -22.8798   -9.1241   18.5127 N   0  0  0  0  0  0  0  0  0  0  0  0
  -27.7083  -16.5568   20.1532 N   0  0  0  0  0  0  0  0  0  0  0  0
  -27.7011  -32.5709   20.3591 N   0  0  0  0  0  0  0  0  0  0  0  0
  -23.6742  -31.0473   24.7790 N   0  0  0  0  0  0  0  0  0  0  0  0
  -20.4402  -29.4342   24.8619 N   0  3  0  0  0  0  0  0  0  0  0  0
  -23.7333   -9.9281   16.5419 O   0  0  0  0  0  0  0  0  0  0  0  0
  -27.9408  -30.2642   20.5692 O   0  0  0  0  0  0  0  0  0  0  0  0
  -24.9576  -32.7054   22.8265 O   0  0  0  0  0  0  0  0  0  0  0  0
  -23.1770  -28.7827   24.8171 O   0  0  0  0  0  0  0  0  0  0  0  0
  -30.0209  -16.6462   19.9925 O   0  0  0  0  0  0  0  0  0  0  0  0
  -22.1490   -8.0910   23.9380 O   0  0  0  0  0  0  0  0  0  0  0  0
  -25.9472  -24.7445   20.0873 O   0  0  0  0  0  0  0  0  0  1  0  0
  -26.4213  -21.9829   20.1954 O   0  0  0  0  0  0  0  0  0  0  0  0
  -20.8140   -2.7978   23.1614 F   0  0  0  0  0  0  0  0  0  0  0  0
  -23.0155   -6.1377   25.6919 F   0  0  0  0  0  0  0  0  0  0  0  0
  1  2  1  0  0  0  0
  1  5  2  0  0  0  0
  2  6  2  0  0  0  0
  3  8  2  0  0  0  0
  3 17  1  0  0  0  0
  4  9  1  0  0  0  0
  4 17  2  0  0  0  0
  5 19  1  0  0  0  0
  6 21  1  0  0  0  0
  7 10  2  0  0  0  0
  7 20  1  0  0  0  0
  8 26  1  0  0  0  0
  9 26  2  0  0  0  0
 10 27  1  0  0  0  0
 11 12  2  0  0  0  0
 11 28  1  0  0  0  0
 12 30  1  0  0  0  0
 13 22  1  0  0  0  0
 13 27  2  0  0  0  0
 14 23  2  0  0  0  0
 14 29  1  0  0  0  0
 15 24  1  0  0  0  0
 15 29  2  0  0  0  0
 16 30  2  0  0  0  0
 16 31  1  0  0  0  0
 17 32  1  0  0  0  0
 18 32  1  0  0  0  0
 18 33  2  0  0  0  0
 18 34  1  0  0  0  0
 19 21  2  0  0  0  0
 19 39  1  0  0  0  0
 20 22  2  0  0  0  0
 20 40  1  0  0  0  0
 21 51  1  0  0  0  0
 22 41  1  0  0  0  0
 23 25  1  0  0  0  0
 23 50  1  0  0  0  0
 24 25  2  0  0  0  0
 24 60  1  0  0  0  0
 25 73  1  0  0  0  0
 26 82  1  0  0  0  0
 27 83  1  0  0  0  0
 28 31  2  0  0  0  0
 28 82  1  0  0  0  0
 29 84  1  0  0  0  0
 30 85  1  0  0  0  0
 31 86  1  0  0  0  0
 32 67  2  0  0  0  0
 33 68  1  0  0  0  0
 33 71  1  0  0  0  0
 34 72  1  0  0  0  0
 34 77  2  0  0  0  0
 35 52  1  0  0  0  0
 35 74  1  0  0  0  0
 35 78  2  0  0  0  0
 36 64  1  0  0  0  0
 36 69  1  0  0  0  0
 36 79  2  0  0  0  0
 37 65  1  0  0  0  0
 37 75  1  0  0  0  0
 37 80  2  0  0  0  0
 38 70  1  0  0  0  0
 38 73  1  0  0  0  0
 38 81  2  0  0  0  0
 39 42  1  0  0  0  0
 40 52  1  0  0  0  0
 41 69  1  0  0  0  0
 42 46  1  0  0  0  0
 43 47  1  0  0  0  0
 43 48  1  0  0  0  0
 44 45  1  0  0  0  0
 44 50  1  0  0  0  0
 45 50  1  0  0  0  0
 46 51  1  0  0  0  0
 47 53  1  0  0  0  0
 48 70  1  0  0  0  0
 49 53  1  0  0  0  0
 49 70  1  0  0  0  0
 51 74  1  0  0  0  0
 52 69  1  0  0  0  0
 53 68  1  0  0  0  0
 54 61  1  0  0  0  0
 55 65  1  0  0  0  0
 56 66  1  0  0  0  0
 57 66  1  0  0  0  0
 58 66  1  0  0  0  0
 59 76  1  0  0  0  0
 60 61  1  0  0  0  0
 62 63  1  0  0  0  0
 62 83  1  0  0  0  0
 63 84  1  0  0  0  0
 64 66  1  0  0  0  0
 64 75  1  0  0  0  0
 65 76  1  0  0  0  0
 67 68  1  0  0  0  0
M  CHG  1  76   1
M  ISO  4  38 100  62 101  73 100  83 101
M  END
> <Batch ID>
0140

> <Smiles>
CCCc1cc(OC[101CH2:1][101O:1]c2ccc3c(c2)CN(C(=O)C(NC(=O)C(C)NC)C(C)(C)C)C(C(=O)NC2CCCc4ccccc42)C3)cc(C2CC2)c1[100NH:0][100C:0](=O)N1CCCC(n2nc(-c3ccc(Oc4ccc(F)cc4F)cc3)c(C(N)=O)c2N)C1

> <Shape>
0.273

> <Color>
0.100

> <Negative vol penalty>
0.000

$$$$

  -OEChem-04052321133D

 90 99  0     1  0  0  0  0  0999 V2000
  -20.5737  -25.0599   25.0085 C   0  0  0  0  0  0  0  0  0  0  0  0
  -21.6219  -25.0734   24.0939 C   0  0  0  0  0  0  0  0  0  0  0  0
  -26.1671   -9.1363   20.2578 C   0  0  0  0  0  0  0  0  0  0  0  0
  -27.3489  -10.2429   22.0510 C   0  0  0  0  0  0  0  0  0  0  0  0
  -19.5183  -25.9606   24.8709 C   0  0  0  0  0  0  0  0  0  0  0  0
  -21.6148  -25.9869   23.0404 C   0  0  0  0  0  0  0  0  0  0  0  0
  -26.1123  -28.2164   22.3721 C   0  0  0  0  0  0  0  0  0  0  0  0
  -26.9681   -8.0070   20.4268 C   0  0  0  0  0  0  0  0  0  0  0  0
  -28.1499   -9.1136   22.2201 C   0  0  0  0  0  0  0  0  0  0  0  0
  -27.0973  -27.4791   21.7166 C   0  0  0  0  0  0  0  0  0  0  0  0
  -27.1459   -5.3726   22.5389 C   0  0  0  0  0  0  0  0  0  0  0  0
  -26.5174   -4.1274   22.5469 C   0  0  0  0  0  0  0  0  0  0  0  0
  -26.6190  -28.6683   19.6730 C   0  0  0  0  0  0  0  0  0  0  0  0
  -27.8324   -3.4514   20.6362 C   0  0  0  0  0  0  0  0  0  0  0  0
  -26.3576  -10.2543   21.0699 C   0  0  0  0  0  0  0  0  0  0  0  0
  -24.1303  -11.4969   21.0162 C   0  0  0  0  0  0  0  0  0  0  0  0
  -19.5031  -26.8921   23.8207 C   0  0  0  0  0  0  0  0  0  0  0  0
  -25.3645  -29.1793   21.6792 C   0  0  0  0  0  0  0  0  0  0  0  0
  -20.5576  -26.9000   22.8878 C   0  0  0  0  0  0  0  0  0  0  0  0
  -25.6268  -29.4183   20.3226 C   0  0  0  0  0  0  0  0  0  0  0  0
  -27.9595   -7.9956   21.4079 C   0  0  0  0  0  0  0  0  0  0  0  0
  -27.3489  -27.7029   20.3661 C   0  0  0  0  0  0  0  0  0  0  0  0
  -28.1176   -5.6572   21.5795 C   0  0  0  0  0  0  0  0  0  0  0  0
  -26.8607   -3.1668   21.5956 C   0  0  0  0  0  0  0  0  0  0  0  0
  -28.4608   -4.6966   20.6281 C   0  0  0  0  0  0  0  0  0  0  0  0
  -25.5308  -11.4214   20.8954 C   0  0  0  0  0  0  0  0  0  0  0  0
  -23.8337  -12.8128   20.7573 C   0  0  0  0  0  0  0  0  0  0  0  0
  -31.0996  -26.3576   17.6464 C   0  0  0  0  0  0  0  0  0  0  0  0
  -23.1822  -10.4694   21.3341 C   0  0  0  0  0  0  0  0  0  0  0  0
  -22.2850  -29.5565   20.9873 C   0  0  0  0  0  0  0  0  0  0  0  0
  -23.2970  -32.4101   19.8231 C   0  0  0  0  0  0  0  0  0  0  0  0
  -25.8581  -34.2817   18.5645 C   0  0  0  0  0  0  0  0  0  0  0  0
  -27.3165  -17.7022   21.2235 C   0  0  0  0  0  0  0  0  0  0  0  0
  -18.3174  -27.8144   23.6857 C   0  0  0  0  0  0  0  0  0  0  0  0
  -24.3237  -29.9850   22.4072 C   0  0  0  0  0  0  0  0  0  0  0  0
  -24.8658  -30.4548   19.5384 C   0  0  0  0  0  0  0  0  0  0  0  0
  -18.5706  -29.0000   22.7579 C   0  0  0  0  0  0  0  0  0  0  0  0
  -26.4337  -15.7156   18.0529 C   0  0  0  0  0  0  0  0  0  0  0  0
  -19.2340  -28.5344   21.4657 C   0  0  0  0  0  0  0  0  0  0  0  0
  -30.1061  -21.1753   22.5511 C   0  0  0  0  0  0  0  0  0  0  0  0
  -28.2041  -22.5607   21.6286 C   0  0  0  0  0  0  0  0  0  0  0  0
  -25.1449  -15.1565   18.6482 C   0  0  0  0  0  0  0  0  0  0  0  0
  -29.6273  -19.9724   21.7377 C   0  0  0  0  0  0  0  0  0  0  0  0
  -27.7214  -21.3599   20.8143 C   0  0  0  0  0  0  0  0  0  0  0  0
  -26.9163  -16.9306   18.8393 C   0  0  0  0  0  0  0  0  0  0  0  0
  -26.5913  -15.3738   20.7610 C   0  0  0  0  0  0  0  0  0  0  0  0
  -20.5981  -27.8924   21.7460 C   0  0  1  0  0  0  0  0  0  0  0  0
  -32.4965  -25.9351   18.0712 C   0  0  1  0  0  0  0  0  0  0  0  0
  -23.2702  -30.5796   21.4777 C   0  0  1  0  0  0  0  0  0  0  0  0
  -29.7098  -22.5211   21.9270 C   0  0  0  0  0  0  0  0  0  0  0  0
  -32.2375  -25.0196   19.2865 C   0  0  2  0  0  0  0  0  0  0  0  0
  -25.2604  -14.8834   20.1638 C   0  0  2  0  0  0  0  0  0  0  0  0
  -28.1214  -20.0390   21.4739 C   0  0  0  0  0  0  0  0  0  0  0  0
  -30.8576  -24.4258   18.9858 C   0  0  2  0  0  0  0  0  0  0  0  0
  -33.1787  -25.2017   16.9222 C   0  0  0  0  0  0  0  0  0  0  0  0
  -32.2964  -25.8153   20.5939 C   0  0  0  0  0  0  0  0  0  0  0  0
  -26.3708  -36.5684   17.6668 C   0  0  0  0  0  0  0  0  0  0  0  0
  -28.5539  -25.1251   16.4526 C   0  0  0  0  0  0  0  0  0  0  0  0
  -21.9197  -31.6859   17.1984 C   0  0  0  0  0  0  0  0  0  0  0  0
  -23.2385  -33.5004   16.0864 C   0  0  0  0  0  0  0  0  0  0  0  0
  -21.6295  -34.0668   17.9066 C   0  0  0  0  0  0  0  0  0  0  0  0
  -27.8340  -34.8057   20.7046 C   0  0  0  0  0  0  0  0  0  0  0  0
  -30.5419  -22.8335   20.6802 C   0  0  0  0  0  0  0  0  0  0  0  0
  -28.1164  -26.7416   18.3307 C   0  0  0  0  0  0  0  0  0  1  0  0
  -23.7975  -32.9026   18.4867 C   0  0  1  0  0  0  0  0  0  0  0  0
  -26.3438  -35.6801   18.9009 C   0  0  2  0  0  0  0  0  0  0  0  0
  -28.7779  -25.4246   17.9291 C   0  0  2  0  0  0  0  0  0  0  0  0
  -22.6595  -33.0180   17.4336 C   0  0  0  0  0  0  0  0  0  0  0  0
  -26.0855  -12.5959   20.5838 N   0  0  0  0  0  0  0  0  0  0  0  0
  -25.0281  -13.4217   20.5066 N   0  0  0  0  0  0  0  0  0  0  0  0
  -30.1983  -25.4588   18.2159 N   0  0  0  0  0  0  0  0  0  0  0  0
  -23.8540  -31.2123   20.2932 N   0  0  0  0  0  0  0  0  0  0  0  0
  -26.9313  -16.7183   20.2922 N   0  0  0  0  0  0  0  0  0  0  0  0
  -22.6704  -13.4968   20.7219 N   0  0  0  0  0  0  0  0  0  0  0  0
  -23.6571   -9.1723   21.5715 N   0  0  0  0  0  0  0  0  0  0  0  0
  -21.5947  -28.9116   21.9958 N   0  0  0  0  0  0  0  0  0  0  0  0
  -24.4976  -34.1553   18.7495 N   0  0  0  0  0  0  0  0  0  0  0  0
  -27.6948  -18.9203   20.6646 N   0  0  0  0  0  0  0  0  0  0  0  0
  -27.7192  -35.6273   19.4722 N   0  3  0  0  0  0  0  0  0  0  0  0
  -30.8568  -27.2927   16.8968 O   0  0  0  0  0  0  0  0  0  0  0  0
  -21.9488  -10.6913   21.3894 O   0  0  0  0  0  0  0  0  0  0  0  0
  -22.1594  -29.3674   19.7831 O   0  0  0  0  0  0  0  0  0  0  0  0
  -22.4485  -33.0676   20.4308 O   0  0  0  0  0  0  0  0  0  0  0  0
  -26.6099  -33.3918   18.1729 O   0  0  0  0  0  0  0  0  0  0  0  0
  -27.3246  -17.5106   22.4432 O   0  0  0  0  0  0  0  0  0  0  0  0
  -28.7412   -6.8936   21.5733 O   0  0  0  0  0  0  0  0  0  0  0  0
  -28.3093  -26.9841   19.7237 O   0  0  0  0  0  0  0  0  0  1  0  0
  -30.1220  -24.0819   20.1440 O   0  0  0  0  0  0  0  0  0  0  0  0
  -26.2582   -1.9705   21.6044 F   0  0  0  0  0  0  0  0  0  0  0  0
  -29.3944   -4.9639   19.7046 F   0  0  0  0  0  0  0  0  0  0  0  0
  1  2  1  0  0  0  0
  1  5  2  0  0  0  0
  2  6  2  0  0  0  0
  3  8  2  0  0  0  0
  3 15  1  0  0  0  0
  4  9  1  0  0  0  0
  4 15  2  0  0  0  0
  5 17  1  0  0  0  0
  6 19  1  0  0  0  0
  7 10  2  0  0  0  0
  7 18  1  0  0  0  0
  8 21  1  0  0  0  0
  9 21  2  0  0  0  0
 10 22  1  0  0  0  0
 11 12  2  0  0  0  0
 11 23  1  0  0  0  0
 12 24  1  0  0  0  0
 13 20  1  0  0  0  0
 13 22  2  0  0  0  0
 14 24  2  0  0  0  0
 14 25  1  0  0  0  0
 15 26  1  0  0  0  0
 16 26  1  0  0  0  0
 16 27  2  0  0  0  0
 16 29  1  0  0  0  0
 17 19  2  0  0  0  0
 17 34  1  0  0  0  0
 18 20  2  0  0  0  0
 18 35  1  0  0  0  0
 19 47  1  0  0  0  0
 20 36  1  0  0  0  0
 21 86  1  0  0  0  0
 22 87  1  0  0  0  0
 23 25  2  0  0  0  0
 23 86  1  0  0  0  0
 24 89  1  0  0  0  0
 25 90  1  0  0  0  0
 26 69  2  0  0  0  0
 27 70  1  0  0  0  0
 27 74  1  0  0  0  0
 28 48  1  0  0  0  0
 28 71  1  0  0  0  0
 28 80  2  0  0  0  0
 29 75  1  0  0  0  0
 29 81  2  0  0  0  0
 30 49  1  0  0  0  0
 30 76  1  0  0  0  0
 30 82  2  0  0  0  0
 31 65  1  0  0  0  0
 31 72  1  0  0  0  0
 31 83  2  0  0  0  0
 32 66  1  0  0  0  0
 32 77  1  0  0  0  0
 32 84  2  0  0  0  0
 33 73  1  0  0  0  0
 33 78  1  0  0  0  0
 33 85  2  0  0  0  0
 34 37  1  0  0  0  0
 35 49  1  0  0  0  0
 36 72  1  0  0  0  0
 37 39  1  0  0  0  0
 38 42  1  0  0  0  0
 38 45  1  0  0  0  0
 39 47  1  0  0  0  0
 40 43  1  0  0  0  0
 40 50  1  0  0  0  0
 41 44  1  0  0  0  0
 41 50  1  0  0  0  0
 42 52  1  0  0  0  0
 43 53  1  0  0  0  0
 44 53  1  0  0  0  0
 45 73  1  0  0  0  0
 46 52  1  0  0  0  0
 46 73  1  0  0  0  0
 47 76  1  0  0  0  0
 48 51  1  0  0  0  0
 48 55  1  0  0  0  0
 49 72  1  0  0  0  0
 50 63  1  0  0  0  0
 51 54  1  0  0  0  0
 51 56  1  0  0  0  0
 52 70  1  0  0  0  0
 53 78  1  0  0  0  0
 54 71  1  0  0  0  0
 54 88  1  0  0  0  0
 57 66  1  0  0  0  0
 58 67  1  0  0  0  0
 59 68  1  0  0  0  0
 60 68  1  0  0  0  0
 61 68  1  0  0  0  0
 62 79  1  0  0  0  0
 63 88  1  0  0  0  0
 64 67  1  0  0  0  0
 64 87  1  0  0  0  0
 65 68  1  0  0  0  0
 65 77  1  0  0  0  0
 66 79  1  0  0  0  0
 67 71  1  0  0  0  0
 69 70  1  0  0  0  0
M  CHG  1  79   1
M  ISO  4  33 100  64 101  78 100  87 101
M  END
> <Batch ID>
0140

> <Smiles>
CNC(C)C(=O)NC(C(=O)N1Cc2cc([101O:1][101CH2:1]C(C)N3C(=O)C(C)C(C)C3OCC3CCC([100NH:0][100C:0](=O)N4CCCC(n5nc(-c6ccc(Oc7ccc(F)cc7F)cc6)c(C(N)=O)c5N)C4)CC3)ccc2CC1C(=O)NC1CCCc2ccccc21)C(C)(C)C

> <Shape>
0.229

> <Color>
0.108

> <Negative vol penalty>
0.000

$$$$

  -OEChem-04052321133D

 91101  0     1  0  0  0  0  0999 V2000
  -22.4913  -21.0373   20.2794 C   0  0  0  0  0  0  0  0  0  0  0  0
  -22.8490  -22.3746   20.4172 C   0  0  0  0  0  0  0  0  0  0  0  0
  -27.8676  -15.6169   20.6107 C   0  0  0  0  0  0  0  0  0  0  0  0
  -30.0474  -14.6088   20.8741 C   0  0  0  0  0  0  0  0  0  0  0  0
  -21.2030  -20.7005   19.8662 C   0  0  0  0  0  0  0  0  0  0  0  0
  -21.9188  -23.3760   20.1409 C   0  0  0  0  0  0  0  0  0  0  0  0
  -21.8927  -27.0258   23.6513 C   0  0  0  0  0  0  0  0  0  0  0  0
  -27.2906  -14.3493   20.5343 C   0  0  0  0  0  0  0  0  0  0  0  0
  -29.4704  -13.3412   20.7977 C   0  0  0  0  0  0  0  0  0  0  0  0
  -22.9162  -27.9709   23.5948 C   0  0  0  0  0  0  0  0  0  0  0  0
  -26.3910  -11.8889   22.6721 C   0  0  0  0  0  0  0  0  0  0  0  0
  -25.2296  -11.6598   23.4099 C   0  0  0  0  0  0  0  0  0  0  0  0
  -21.4191  -29.5181   22.5066 C   0  0  0  0  0  0  0  0  0  0  0  0
  -29.6074  -27.4279   18.5251 C   0  0  0  0  0  0  0  0  0  0  0  0
  -24.0365  -11.1473   21.3725 C   0  0  0  0  0  0  0  0  0  0  0  0
  -29.2460  -15.7466   20.7806 C   0  0  0  0  0  0  0  0  0  0  0  0
  -30.0580  -17.8238   22.0190 C   0  0  0  0  0  0  0  0  0  0  0  0
  -20.2536  -21.6980   19.5940 C   0  0  0  0  0  0  0  0  0  0  0  0
  -20.6258  -27.3163   23.1252 C   0  0  0  0  0  0  0  0  0  0  0  0
  -20.6169  -23.0523   19.7224 C   0  0  0  0  0  0  0  0  0  0  0  0
  -20.3806  -28.5759   22.5600 C   0  0  0  0  0  0  0  0  0  0  0  0
  -29.8978  -25.1177   19.1275 C   0  0  0  0  0  0  0  0  0  0  0  0
  -28.0919  -13.2114   20.6278 C   0  0  0  0  0  0  0  0  0  0  0  0
  -22.6802  -29.2162   23.0198 C   0  0  0  0  0  0  0  0  0  0  0  0
  -26.3751  -11.7473   21.2845 C   0  0  0  0  0  0  0  0  0  0  0  0
  -30.2520  -26.2095   18.3428 C   0  0  0  0  0  0  0  0  0  0  0  0
  -24.0524  -11.2890   22.7601 C   0  0  0  0  0  0  0  0  0  0  0  0
  -25.1979  -11.3764   20.6347 C   0  0  0  0  0  0  0  0  0  0  0  0
  -29.8427  -17.0558   20.8590 C   0  0  0  0  0  0  0  0  0  0  0  0
  -28.6232  -27.5018   19.4975 C   0  0  0  0  0  0  0  0  0  0  0  0
  -28.9007  -25.2950   20.0731 C   0  0  0  0  0  0  0  0  0  0  0  0
  -30.6475  -18.9773   21.5626 C   0  0  0  0  0  0  0  0  0  0  0  0
  -29.7524  -17.5215   23.3868 C   0  0  0  0  0  0  0  0  0  0  0  0
  -18.8284  -26.0996   20.8029 C   0  0  0  0  0  0  0  0  0  0  0  0
  -16.6256  -28.1893   21.9445 C   0  0  0  0  0  0  0  0  0  0  0  0
  -15.9793  -31.0732   23.6509 C   0  0  0  0  0  0  0  0  0  0  0  0
  -30.5081  -23.1542   17.7248 C   0  0  0  0  0  0  0  0  0  0  0  0
  -18.8877  -21.2861   19.1046 C   0  0  0  0  0  0  0  0  0  0  0  0
  -19.5248  -26.2957   23.2180 C   0  0  0  0  0  0  0  0  0  0  0  0
  -19.0322  -28.9446   21.9993 C   0  0  0  0  0  0  0  0  0  0  0  0
  -17.8477  -22.4000   19.1927 C   0  0  0  0  0  0  0  0  0  0  0  0
  -32.5449  -20.1567   17.0346 C   0  0  0  0  0  0  0  0  0  0  0  0
  -18.4144  -23.7044   18.6411 C   0  0  0  0  0  0  0  0  0  0  0  0
  -31.9890  -19.1324   18.0224 C   0  0  0  0  0  0  0  0  0  0  0  0
  -33.4677  -26.4469   18.4088 C   0  0  0  0  0  0  0  0  0  0  0  0
  -33.6360  -26.4647   16.9176 C   0  0  0  0  0  0  0  0  0  0  0  0
  -26.4058  -28.6278   19.4468 C   0  0  0  0  0  0  0  0  0  0  0  0
  -28.1444  -29.2924   21.1563 C   0  0  0  0  0  0  0  0  0  0  0  0
  -31.4847  -21.1688   16.6107 C   0  0  0  0  0  0  0  0  0  0  0  0
  -30.2702  -20.8389   18.7429 C   0  0  0  0  0  0  0  0  0  0  0  0
  -25.6368  -29.9085   19.7453 C   0  0  0  0  0  0  0  0  0  0  0  0
  -27.3622  -30.5682   21.4415 C   0  0  0  0  0  0  0  0  0  0  0  0
  -19.6284  -24.1667   19.4559 C   0  0  1  0  0  0  0  0  0  0  0  0
  -27.9091  -28.7958   19.7207 C   0  0  0  0  0  0  0  0  0  0  0  0
  -18.4201  -26.5131   22.1886 C   0  0  1  0  0  0  0  0  0  0  0  0
  -31.3259  -19.8310   19.2221 C   0  0  1  0  0  0  0  0  0  0  0  0
  -32.3591  -26.9594   17.5344 C   0  0  0  0  0  0  0  0  0  0  0  0
  -28.4749  -24.1604   20.9477 C   0  0  0  0  0  0  0  0  0  0  0  0
  -14.0838  -32.5429   24.3889 C   0  0  0  0  0  0  0  0  0  0  0  0
  -16.3543  -29.2630   19.1014 C   0  0  0  0  0  0  0  0  0  0  0  0
  -15.2159  -31.2824   20.0471 C   0  0  0  0  0  0  0  0  0  0  0  0
  -14.1932  -29.0257   20.3375 C   0  0  0  0  0  0  0  0  0  0  0  0
  -31.4715  -23.3817   20.0029 C   0  0  0  0  0  0  0  0  0  0  0  0
  -16.6432  -30.6914   26.5096 C   0  0  0  0  0  0  0  0  0  0  0  0
  -25.0606  -31.5186   21.5592 C   0  0  0  0  0  0  0  0  0  0  0  0
  -23.6501  -31.0591   21.8713 C   0  0  0  0  0  0  0  0  0  1  0  0
  -16.2652  -29.6266   21.6559 C   0  0  1  0  0  0  0  0  0  0  0  0
  -14.9965  -31.3859   24.7648 C   0  0  2  0  0  0  0  0  0  0  0  0
  -15.5332  -29.7921   20.2942 C   0  0  0  0  0  0  0  0  0  0  0  0
  -30.2613  -17.6697   19.7491 N   0  0  0  0  0  0  0  0  0  0  0  0
  -28.2519  -26.4631   20.2790 N   0  0  0  0  0  0  0  0  0  0  0  0
  -30.7454  -18.8358   20.2096 N   0  0  0  0  0  0  0  0  0  0  0  0
  -17.9899  -27.9105   22.1078 N   0  0  0  0  0  0  0  0  0  0  0  0
  -30.8384  -21.7849   17.7702 N   0  0  0  0  0  0  0  0  0  0  0  0
  -31.0865  -20.0888   22.1906 N   0  0  0  0  0  0  0  0  0  0  0  0
  -29.1474  -16.2918   23.6803 N   0  0  0  0  0  0  0  0  0  0  0  0
  -19.2018  -24.7733   20.6987 N   0  0  0  0  0  0  0  0  0  0  0  0
  -15.4997  -30.0943   22.8065 N   0  0  0  0  0  0  0  0  0  0  0  0
  -30.5528  -23.8423   18.9566 N   0  0  0  0  0  0  0  0  0  0  0  0
  -25.8851  -30.3446   21.1770 N   0  3  0  0  0  0  0  0  0  0  0  0
  -15.7260  -31.7490   26.0125 N   0  3  0  0  0  0  0  0  0  0  0  0
  -29.9933  -18.3252   24.3194 O   0  0  0  0  0  0  0  0  0  0  0  0
  -18.8050  -26.9226   19.8953 O   0  0  0  0  0  0  0  0  0  0  0  0
  -15.7290  -27.3463   22.0292 O   0  0  0  0  0  0  0  0  0  0  0  0
  -17.0624  -31.6432   23.5388 O   0  0  0  0  0  0  0  0  0  0  0  0
  -30.2253  -23.7223   16.6632 O   0  0  0  0  0  0  0  0  0  0  0  0
  -27.5292  -11.9743   20.5536 O   0  0  0  0  0  0  0  0  0  0  0  0
  -31.2241  -26.1076   17.3935 O   0  0  0  0  0  0  0  0  0  0  0  0
  -23.6776  -30.1403   22.9628 O   0  0  0  0  0  0  0  0  0  1  0  0
  -22.9376  -11.0675   23.4688 F   0  0  0  0  0  0  0  0  0  0  0  0
  -25.1768  -11.2377   19.3020 F   0  0  0  0  0  0  0  0  0  0  0  0
  1  2  1  0  0  0  0
  1  5  2  0  0  0  0
  2  6  2  0  0  0  0
  3  8  2  0  0  0  0
  3 16  1  0  0  0  0
  4  9  1  0  0  0  0
  4 16  2  0  0  0  0
  5 18  1  0  0  0  0
  6 20  1  0  0  0  0
  7 10  2  0  0  0  0
  7 19  1  0  0  0  0
  8 23  1  0  0  0  0
  9 23  2  0  0  0  0
 10 24  1  0  0  0  0
 11 12  2  0  0  0  0
 11 25  1  0  0  0  0
 12 27  1  0  0  0  0
 13 21  1  0  0  0  0
 13 24  2  0  0  0  0
 14 26  2  0  0  0  0
 14 30  1  0  0  0  0
 15 27  2  0  0  0  0
 15 28  1  0  0  0  0
 16 29  1  0  0  0  0
 17 29  1  0  0  0  0
 17 32  2  0  0  0  0
 17 33  1  0  0  0  0
 18 20  2  0  0  0  0
 18 38  1  0  0  0  0
 19 21  2  0  0  0  0
 19 39  1  0  0  0  0
 20 53  1  0  0  0  0
 21 40  1  0  0  0  0
 22 26  1  0  0  0  0
 22 31  2  0  0  0  0
 22 79  1  0  0  0  0
 23 87  1  0  0  0  0
 24 89  1  0  0  0  0
 25 28  2  0  0  0  0
 25 87  1  0  0  0  0
 26 88  1  0  0  0  0
 27 90  1  0  0  0  0
 28 91  1  0  0  0  0
 29 70  2  0  0  0  0
 30 54  1  0  0  0  0
 30 71  2  0  0  0  0
 31 58  1  0  0  0  0
 31 71  1  0  0  0  0
 32 72  1  0  0  0  0
 32 75  1  0  0  0  0
 33 76  1  0  0  0  0
 33 82  2  0  0  0  0
 34 55  1  0  0  0  0
 34 77  1  0  0  0  0
 34 83  2  0  0  0  0
 35 67  1  0  0  0  0
 35 73  1  0  0  0  0
 35 84  2  0  0  0  0
 36 68  1  0  0  0  0
 36 78  1  0  0  0  0
 36 85  2  0  0  0  0
 37 74  1  0  0  0  0
 37 79  1  0  0  0  0
 37 86  2  0  0  0  0
 38 41  1  0  0  0  0
 39 55  1  0  0  0  0
 40 73  1  0  0  0  0
 41 43  1  0  0  0  0
 42 44  1  0  0  0  0
 42 49  1  0  0  0  0
 43 53  1  0  0  0  0
 44 56  1  0  0  0  0
 45 46  1  0  0  0  0
 45 57  1  0  0  0  0
 46 57  1  0  0  0  0
 47 51  1  0  0  0  0
 47 54  1  0  0  0  0
 48 52  1  0  0  0  0
 48 54  1  0  0  0  0
 49 74  1  0  0  0  0
 50 56  1  0  0  0  0
 50 74  1  0  0  0  0
 51 80  1  0  0  0  0
 52 80  1  0  0  0  0
 53 77  1  0  0  0  0
 55 73  1  0  0  0  0
 56 72  1  0  0  0  0
 57 88  1  0  0  0  0
 59 68  1  0  0  0  0
 60 69  1  0  0  0  0
 61 69  1  0  0  0  0
 62 69  1  0  0  0  0
 63 79  1  0  0  0  0
 64 81  1  0  0  0  0
 65 66  1  0  0  0  0
 65 80  1  0  0  0  0
 66 89  1  0  0  0  0
 67 69  1  0  0  0  0
 67 78  1  0  0  0  0
 68 81  1  0  0  0  0
 70 72  1  0  0  0  0
M  CHG  2  80   1  81   1
M  ISO  4  37 100  66 101  79 100  89 101
M  END
> <Batch ID>
0140

> <Smiles>
CNC(C)C(=O)NC(C(=O)N1Cc2cc([101O:1][101CH2:1]CN3CCC(c4cc(OC5CC5)c([100N:0](C)[100C:0](=O)N5CCCC(n6nc(-c7ccc(Oc8ccc(F)cc8F)cc7)c(C(N)=O)c6N)C5)c(C)n4)CC3)ccc2CC1C(=O)NC1CCCc2ccccc21)C(C)(C)C

> <Shape>
0.273

> <Color>
0.058

> <Negative vol penalty>
0.000

$$$$

  -OEChem-04052321133D

 86 95  0     1  0  0  0  0  0999 V2000
  -17.5381  -30.9065   24.0003 C   0  0  0  0  0  0  0  0  0  0  0  0
  -18.9167  -31.0891   24.0391 C   0  0  0  0  0  0  0  0  0  0  0  0
  -24.7291   -9.3136   20.0604 C   0  0  0  0  0  0  0  0  0  0  0  0
  -24.4973   -9.8597   22.4024 C   0  0  0  0  0  0  0  0  0  0  0  0
  -17.0079  -29.7081   23.5245 C   0  0  0  0  0  0  0  0  0  0  0  0
  -19.7660  -30.0728   23.6029 C   0  0  0  0  0  0  0  0  0  0  0  0
  -26.0930  -29.0770   20.3946 C   0  0  0  0  0  0  0  0  0  0  0  0
  -24.5025   -7.9685   20.3516 C   0  0  0  0  0  0  0  0  0  0  0  0
  -24.2706   -8.5145   22.6936 C   0  0  0  0  0  0  0  0  0  0  0  0
  -27.2918  -28.3867   20.5681 C   0  0  0  0  0  0  0  0  0  0  0  0
  -21.7073   -6.3215   22.4914 C   0  0  0  0  0  0  0  0  0  0  0  0
  -20.6595   -6.0157   23.3598 C   0  0  0  0  0  0  0  0  0  0  0  0
  -31.0600  -23.0022   22.4062 C   0  0  0  0  0  0  0  0  0  0  0  0
  -26.2613  -26.3892   19.6922 C   0  0  0  0  0  0  0  0  0  0  0  0
  -28.7576  -22.2790   22.0975 C   0  0  0  0  0  0  0  0  0  0  0  0
  -22.2222   -4.9695   24.8766 C   0  0  0  0  0  0  0  0  0  0  0  0
  -24.7266  -10.2592   21.0858 C   0  0  0  0  0  0  0  0  0  0  0  0
  -23.9978  -12.6233   20.4633 C   0  0  0  0  0  0  0  0  0  0  0  0
  -17.8509  -28.6802   23.0733 C   0  0  0  0  0  0  0  0  0  0  0  0
  -24.9644  -28.4247   19.8779 C   0  0  0  0  0  0  0  0  0  0  0  0
  -19.2466  -28.8589   23.1218 C   0  0  0  0  0  0  0  0  0  0  0  0
  -31.4551  -21.6809   22.2810 C   0  0  0  0  0  0  0  0  0  0  0  0
  -25.0501  -27.0742   19.5107 C   0  0  0  0  0  0  0  0  0  0  0  0
  -30.5162  -20.6618   22.0782 C   0  0  0  0  0  0  0  0  0  0  0  0
  -29.1635  -20.9477   21.9847 C   0  0  0  0  0  0  0  0  0  0  0  0
  -24.2732   -7.5689   21.6682 C   0  0  0  0  0  0  0  0  0  0  0  0
  -27.3753  -27.0418   20.2196 C   0  0  0  0  0  0  0  0  0  0  0  0
  -23.0125   -5.9513   22.8155 C   0  0  0  0  0  0  0  0  0  0  0  0
  -29.6990  -23.2988   22.3076 C   0  0  0  0  0  0  0  0  0  0  0  0
  -20.9169   -5.3397   24.5525 C   0  0  0  0  0  0  0  0  0  0  0  0
  -23.2699   -5.2753   24.0081 C   0  0  0  0  0  0  0  0  0  0  0  0
  -24.9612  -11.6488   20.7857 C   0  0  0  0  0  0  0  0  0  0  0  0
  -24.7240  -13.7727   20.2681 C   0  0  0  0  0  0  0  0  0  0  0  0
  -22.5737  -12.5006   20.3505 C   0  0  0  0  0  0  0  0  0  0  0  0
  -22.0503  -27.7790   20.9710 C   0  0  0  0  0  0  0  0  0  0  0  0
  -21.5792  -26.6998   17.9484 C   0  0  0  0  0  0  0  0  0  0  0  0
  -22.9338  -25.4769   15.0647 C   0  0  0  0  0  0  0  0  0  0  0  0
  -29.9511  -15.5287   22.3773 C   0  0  0  0  0  0  0  0  0  0  0  0
  -17.2326  -27.3843   22.6117 C   0  0  0  0  0  0  0  0  0  0  0  0
  -23.6862  -29.1904   19.6719 C   0  0  0  0  0  0  0  0  0  0  0  0
  -32.8386  -21.1223   22.3857 C   0  0  0  0  0  0  0  0  0  0  0  0
  -23.8730  -26.3332   18.9330 C   0  0  0  0  0  0  0  0  0  0  0  0
  -18.1915  -26.5007   21.8179 C   0  0  0  0  0  0  0  0  0  0  0  0
  -32.6485  -19.7341   21.7543 C   0  0  0  0  0  0  0  0  0  0  0  0
  -29.0501  -15.2788   18.8811 C   0  0  0  0  0  0  0  0  0  0  0  0
  -19.5409  -26.4093   22.5231 C   0  0  0  0  0  0  0  0  0  0  0  0
  -27.7971  -14.4041   18.9517 C   0  0  0  0  0  0  0  0  0  0  0  0
  -30.0897  -14.8392   19.9079 C   0  0  0  0  0  0  0  0  0  0  0  0
  -28.3395  -13.9287   21.3848 C   0  0  0  0  0  0  0  0  0  0  0  0
  -31.1839  -19.3175   22.0097 C   0  0  1  0  0  0  0  0  0  0  0  0
  -20.1999  -27.7895   22.6344 C   0  0  1  0  0  0  0  0  0  0  0  0
  -22.4540  -28.2927   19.6179 C   0  0  1  0  0  0  0  0  0  0  0  0
  -27.2409  -14.3367   20.3864 C   0  0  2  0  0  0  0  0  0  0  0  0
  -28.1321  -19.9038   21.7368 C   0  0  0  0  0  0  0  0  0  0  0  0
  -22.2938  -24.6506   12.7832 C   0  0  0  0  0  0  0  0  0  0  0  0
  -20.6356  -24.0674   19.1692 C   0  0  0  0  0  0  0  0  0  0  0  0
  -20.9232  -23.0025   16.9217 C   0  0  0  0  0  0  0  0  0  0  0  0
  -19.2826  -24.8577   17.2200 C   0  0  0  0  0  0  0  0  0  0  0  0
  -24.4877  -27.6119   13.7283 C   0  0  0  0  0  0  0  0  0  0  0  0
  -31.0191  -18.5309   23.3044 C   0  0  0  0  0  0  0  0  0  0  0  0
  -31.6353  -17.1392   23.2299 C   0  0  0  0  0  0  0  0  0  0  0  0
  -29.3928  -26.7914   21.4537 C   0  0  0  0  0  0  0  0  0  1  0  0
  -30.1832  -25.6017   21.9630 C   0  0  0  0  0  0  0  0  0  0  0  0
  -21.7571  -25.3753   17.2463 C   0  0  1  0  0  0  0  0  0  0  0  0
  -22.7167  -25.8545   13.6105 C   0  0  2  0  0  0  0  0  0  0  0  0
  -20.6714  -24.3389   17.6520 C   0  0  0  0  0  0  0  0  0  0  0  0
  -26.2046  -12.1365   20.7956 N   0  0  0  0  0  0  0  0  0  0  0  0
  -26.0275  -13.4300   20.4769 N   0  0  0  0  0  0  0  0  0  0  0  0
  -22.6436  -27.1237   18.7566 N   0  0  0  0  0  0  0  0  0  0  0  0
  -29.5015  -14.8141   21.2545 N   0  0  0  0  0  0  0  0  0  0  0  0
  -24.3683  -15.0329   19.9397 N   0  0  0  0  0  0  0  0  0  0  0  0
  -21.9905  -11.2478   20.5841 N   0  0  0  0  0  0  0  0  0  0  0  0
  -20.7867  -28.1729   21.3682 N   0  0  0  0  0  0  0  0  0  0  0  0
  -21.7959  -25.6722   15.8184 N   0  0  0  0  0  0  0  0  0  0  0  0
  -31.0610  -16.3389   22.1713 N   0  0  0  0  0  0  0  0  0  0  0  0
  -23.9707  -26.4089   13.0265 N   0  3  0  0  0  0  0  0  0  0  0  0
  -21.8418  -13.4694   20.0353 O   0  0  0  0  0  0  0  0  0  0  0  0
  -22.8270  -27.0761   21.6068 O   0  0  0  0  0  0  0  0  0  0  0  0
  -20.5372  -27.3382   17.7803 O   0  0  0  0  0  0  0  0  0  0  0  0
  -24.0046  -25.0477   15.4887 O   0  0  0  0  0  0  0  0  0  0  0  0
  -29.4006  -15.4545   23.4811 O   0  0  0  0  0  0  0  0  0  0  0  0
  -24.0517   -6.2564   21.9526 O   0  0  0  0  0  0  0  0  0  0  0  0
  -28.5440  -26.3655   20.3885 O   0  0  0  0  0  0  0  0  0  1  0  0
  -29.2781  -24.5989   22.4086 O   0  0  0  0  0  0  0  0  0  0  0  0
  -19.9109   -5.0474   25.3871 F   0  0  0  0  0  0  0  0  0  0  0  0
  -24.5219   -4.9181   24.3255 F   0  0  0  0  0  0  0  0  0  0  0  0
  1  2  1  0  0  0  0
  1  5  2  0  0  0  0
  2  6  2  0  0  0  0
  3  8  2  0  0  0  0
  3 17  1  0  0  0  0
  4  9  1  0  0  0  0
  4 17  2  0  0  0  0
  5 19  1  0  0  0  0
  6 21  1  0  0  0  0
  7 10  2  0  0  0  0
  7 20  1  0  0  0  0
  8 26  1  0  0  0  0
  9 26  2  0  0  0  0
 10 27  1  0  0  0  0
 11 12  2  0  0  0  0
 11 28  1  0  0  0  0
 12 30  1  0  0  0  0
 13 22  1  0  0  0  0
 13 29  2  0  0  0  0
 14 23  1  0  0  0  0
 14 27  2  0  0  0  0
 15 25  2  0  0  0  0
 15 29  1  0  0  0  0
 16 30  2  0  0  0  0
 16 31  1  0  0  0  0
 17 32  1  0  0  0  0
 18 32  1  0  0  0  0
 18 33  2  0  0  0  0
 18 34  1  0  0  0  0
 19 21  2  0  0  0  0
 19 39  1  0  0  0  0
 20 23  2  0  0  0  0
 20 40  1  0  0  0  0
 21 51  1  0  0  0  0
 22 24  2  0  0  0  0
 22 41  1  0  0  0  0
 23 42  1  0  0  0  0
 24 25  1  0  0  0  0
 24 50  1  0  0  0  0
 25 54  1  0  0  0  0
 26 82  1  0  0  0  0
 27 83  1  0  0  0  0
 28 31  2  0  0  0  0
 28 82  1  0  0  0  0
 29 84  1  0  0  0  0
 30 85  1  0  0  0  0
 31 86  1  0  0  0  0
 32 67  2  0  0  0  0
 33 68  1  0  0  0  0
 33 71  1  0  0  0  0
 34 72  1  0  0  0  0
 34 77  2  0  0  0  0
 35 52  1  0  0  0  0
 35 73  1  0  0  0  0
 35 78  2  0  0  0  0
 36 64  1  0  0  0  0
 36 69  1  0  0  0  0
 36 79  2  0  0  0  0
 37 65  1  0  0  0  0
 37 74  1  0  0  0  0
 37 80  2  0  0  0  0
 38 70  1  0  0  0  0
 38 75  1  0  0  0  0
 38 81  2  0  0  0  0
 39 43  1  0  0  0  0
 40 52  1  0  0  0  0
 41 44  1  0  0  0  0
 42 69  1  0  0  0  0
 43 46  1  0  0  0  0
 44 50  1  0  0  0  0
 45 47  1  0  0  0  0
 45 48  1  0  0  0  0
 46 51  1  0  0  0  0
 47 53  1  0  0  0  0
 48 70  1  0  0  0  0
 49 53  1  0  0  0  0
 49 70  1  0  0  0  0
 50 60  1  0  0  0  0
 51 73  1  0  0  0  0
 52 69  1  0  0  0  0
 53 68  1  0  0  0  0
 55 65  1  0  0  0  0
 56 66  1  0  0  0  0
 57 66  1  0  0  0  0
 58 66  1  0  0  0  0
 59 76  1  0  0  0  0
 60 61  1  0  0  0  0
 61 75  1  0  0  0  0
 62 63  1  0  0  0  0
 62 83  1  0  0  0  0
 63 84  1  0  0  0  0
 64 66  1  0  0  0  0
 64 74  1  0  0  0  0
 65 76  1  0  0  0  0
 67 68  1  0  0  0  0
M  CHG  1  76   1
M  ISO  4  38 100  62 101  75 100  83 101
M  END
> <Batch ID>
0140

> <Smiles>
CNC(C)C(=O)NC(C(=O)N1Cc2cc([101O:1][101CH2:1]COc3cc(C)c4c(c3)CCC4CC[100NH:0][100C:0](=O)N3CCCC(n4nc(-c5ccc(Oc6ccc(F)cc6F)cc5)c(C(N)=O)c4N)C3)ccc2CC1C(=O)NC1CCCc2ccccc21)C(C)(C)C

> <Shape>
0.282

> <Color>
0.122

> <Negative vol penalty>
0.000

$$$$

  -OEChem-04052321133D

 86 95  0     1  0  0  0  0  0999 V2000
  -19.3108   -9.1950   20.9984 C   0  0  0  0  0  0  0  0  0  0  0  0
  -19.4445  -10.3852   21.7062 C   0  0  0  0  0  0  0  0  0  0  0  0
  -29.8998  -27.5203   21.4073 C   0  0  0  0  0  0  0  0  0  0  0  0
  -28.4058  -25.6577   21.7756 C   0  0  0  0  0  0  0  0  0  0  0  0
  -20.4461   -8.4881   20.6047 C   0  0  0  0  0  0  0  0  0  0  0  0
  -20.7139  -10.8685   22.0218 C   0  0  0  0  0  0  0  0  0  0  0  0
  -21.1737  -15.8356   21.1494 C   0  0  0  0  0  0  0  0  0  0  0  0
  -30.8878  -26.8749   22.1508 C   0  0  0  0  0  0  0  0  0  0  0  0
  -29.3939  -25.0122   22.5191 C   0  0  0  0  0  0  0  0  0  0  0  0
  -20.6180  -16.7015   22.0903 C   0  0  0  0  0  0  0  0  0  0  0  0
  -32.1958  -23.2229   21.9122 C   0  0  0  0  0  0  0  0  0  0  0  0
  -32.4114  -21.8678   21.6621 C   0  0  0  0  0  0  0  0  0  0  0  0
  -22.8020  -17.0445   23.0555 C   0  0  0  0  0  0  0  0  0  0  0  0
  -17.9065  -26.9489   22.9328 C   0  0  0  0  0  0  0  0  0  0  0  0
  -20.2623  -26.8017   22.4714 C   0  0  0  0  0  0  0  0  0  0  0  0
  -31.8621  -21.3565   23.9586 C   0  0  0  0  0  0  0  0  0  0  0  0
  -28.6588  -26.9117   21.2197 C   0  0  0  0  0  0  0  0  0  0  0  0
  -27.4168  -27.4807   19.0653 C   0  0  0  0  0  0  0  0  0  0  0  0
  -21.7302   -8.9679   20.9072 C   0  0  0  0  0  0  0  0  0  0  0  0
  -22.5483  -15.5588   21.1613 C   0  0  0  0  0  0  0  0  0  0  0  0
  -21.8675  -10.1666   21.6329 C   0  0  0  0  0  0  0  0  0  0  0  0
  -23.3730  -16.1768   22.1121 C   0  0  0  0  0  0  0  0  0  0  0  0
  -30.6349  -25.6208   22.7067 C   0  0  0  0  0  0  0  0  0  0  0  0
  -21.4317  -17.3038   23.0453 C   0  0  0  0  0  0  0  0  0  0  0  0
  -31.8133  -23.6449   23.1856 C   0  0  0  0  0  0  0  0  0  0  0  0
  -19.0389  -26.1789   22.6924 C   0  0  0  0  0  0  0  0  0  0  0  0
  -32.2446  -20.9345   22.6853 C   0  0  0  0  0  0  0  0  0  0  0  0
  -31.6465  -22.7117   24.2088 C   0  0  0  0  0  0  0  0  0  0  0  0
  -27.6376  -27.5782   20.4522 C   0  0  0  0  0  0  0  0  0  0  0  0
  -18.0492  -28.3271   22.9418 C   0  0  0  0  0  0  0  0  0  0  0  0
  -20.2995  -28.1864   22.5008 C   0  0  0  0  0  0  0  0  0  0  0  0
  -26.3384  -28.2983   18.8310 C   0  0  0  0  0  0  0  0  0  0  0  0
  -28.1234  -26.7192   18.0772 C   0  0  0  0  0  0  0  0  0  0  0  0
  -24.3059  -12.9420   21.5698 C   0  0  0  0  0  0  0  0  0  0  0  0
  -26.7493  -14.9364   20.8117 C   0  0  0  0  0  0  0  0  0  0  0  0
  -27.9457  -18.1295   20.6714 C   0  0  0  0  0  0  0  0  0  0  0  0
  -21.8209  -30.1799   22.2598 C   0  0  0  0  0  0  0  0  0  0  0  0
  -22.9270   -8.1445   20.5017 C   0  0  0  0  0  0  0  0  0  0  0  0
  -23.1364  -14.6433   20.1228 C   0  0  0  0  0  0  0  0  0  0  0  0
  -24.8579  -15.9285   22.1549 C   0  0  0  0  0  0  0  0  0  0  0  0
  -24.2426   -8.9174   20.5497 C   0  0  0  0  0  0  0  0  0  0  0  0
  -24.1716  -32.2175   20.5280 C   0  0  0  0  0  0  0  0  0  0  0  0
  -24.3537   -9.7017   21.8533 C   0  0  0  0  0  0  0  0  0  0  0  0
  -25.3044  -31.2488   20.1805 C   0  0  0  0  0  0  0  0  0  0  0  0
  -23.5645  -31.9127   21.8963 C   0  0  0  0  0  0  0  0  0  0  0  0
  -24.2608  -29.5548   21.7388 C   0  0  0  0  0  0  0  0  0  0  0  0
  -21.0522  -21.6625   22.6661 C   0  0  0  0  0  0  0  0  0  0  0  0
  -19.3271  -22.0324   23.7848 C   0  0  0  0  0  0  0  0  0  0  0  0
  -23.2278  -10.7360   21.9725 C   0  0  1  0  0  0  0  0  0  0  0  0
  -24.4679  -14.0330   20.5495 C   0  0  1  0  0  0  0  0  0  0  0  0
  -19.8521  -22.6093   22.4529 C   0  0  0  0  0  0  0  0  0  0  0  0
  -24.8604  -29.7816   20.3415 C   0  0  2  0  0  0  0  0  0  0  0  0
  -16.8556  -29.1848   23.1992 C   0  0  0  0  0  0  0  0  0  0  0  0
  -29.9905  -19.4411   20.0422 C   0  0  0  0  0  0  0  0  0  0  0  0
  -28.1123  -14.0444   23.3917 C   0  0  0  0  0  0  0  0  0  0  0  0
  -29.6275  -16.0278   23.1949 C   0  0  0  0  0  0  0  0  0  0  0  0
  -29.6430  -14.2683   21.4267 C   0  0  0  0  0  0  0  0  0  0  0  0
  -26.4803  -19.6354   18.5872 C   0  0  0  0  0  0  0  0  0  0  0  0
  -20.1492  -24.0934   22.4204 C   0  0  0  0  0  0  0  0  0  0  0  0
  -20.8826  -20.4157   24.7675 C   0  0  0  0  0  0  0  0  0  0  0  0
  -21.7278  -19.1969   24.4540 C   0  0  0  0  0  0  0  0  0  1  0  0
  -27.6713  -15.8422   21.5918 C   0  0  1  0  0  0  0  0  0  0  0  0
  -28.6545  -18.8920   19.5665 C   0  0  2  0  0  0  0  0  0  0  0  0
  -28.7353  -15.0490   22.4020 C   0  0  0  0  0  0  0  0  0  0  0  0
  -26.7692  -28.3936   21.0565 N   0  0  0  0  0  0  0  0  0  0  0  0
  -19.2207  -28.9680   22.7312 N   0  0  0  0  0  0  0  0  0  0  0  0
  -25.9924  -28.8160   20.0445 N   0  0  0  0  0  0  0  0  0  0  0  0
  -25.3846  -15.0207   21.1224 N   0  0  0  0  0  0  0  0  0  0  0  0
  -23.1635  -30.5063   21.9741 N   0  0  0  0  0  0  0  0  0  0  0  0
  -25.6618  -28.6179   17.7073 N   0  0  0  0  0  0  0  0  0  0  0  0
  -29.2074  -25.9322   18.4894 N   0  0  0  0  0  0  0  0  0  0  0  0
  -21.5509  -28.8119   22.2758 N   0  0  0  0  0  0  0  0  0  0  0  0
  -23.5135  -11.8912   21.1488 N   0  0  0  0  0  0  0  0  0  0  0  0
  -28.2329  -16.7816   20.6272 N   0  0  0  0  0  0  0  0  0  0  0  0
  -20.1781  -20.8535   23.5362 N   0  3  0  0  0  0  0  0  0  0  0  0
  -27.8151  -20.0332   19.1040 N   0  3  0  0  0  0  0  0  0  0  0  0
  -27.8133  -26.7488   16.8621 O   0  0  0  0  0  0  0  0  0  0  0  0
  -24.8602  -13.0452   22.6578 O   0  0  0  0  0  0  0  0  0  0  0  0
  -27.2216  -14.1871   19.9533 O   0  0  0  0  0  0  0  0  0  0  0  0
  -27.2136  -18.6756   21.4939 O   0  0  0  0  0  0  0  0  0  0  0  0
  -20.9672  -31.0505   22.4476 O   0  0  0  0  0  0  0  0  0  0  0  0
  -31.5988  -24.9906   23.4321 O   0  0  0  0  0  0  0  0  0  0  0  0
  -18.9501  -24.8106   22.6723 O   0  0  0  0  0  0  0  0  0  0  0  0
  -20.8918  -18.1488   23.9653 O   0  0  0  0  0  0  0  0  0  1  0  0
  -32.4502  -19.6330   22.4446 F   0  0  0  0  0  0  0  0  0  0  0  0
  -31.2781  -23.1110   25.4338 F   0  0  0  0  0  0  0  0  0  0  0  0
  1  2  1  0  0  0  0
  1  5  2  0  0  0  0
  2  6  2  0  0  0  0
  3  8  2  0  0  0  0
  3 17  1  0  0  0  0
  4  9  1  0  0  0  0
  4 17  2  0  0  0  0
  5 19  1  0  0  0  0
  6 21  1  0  0  0  0
  7 10  2  0  0  0  0
  7 20  1  0  0  0  0
  8 23  1  0  0  0  0
  9 23  2  0  0  0  0
 10 24  1  0  0  0  0
 11 12  2  0  0  0  0
 11 25  1  0  0  0  0
 12 27  1  0  0  0  0
 13 22  1  0  0  0  0
 13 24  2  0  0  0  0
 14 26  1  0  0  0  0
 14 30  2  0  0  0  0
 15 26  2  0  0  0  0
 15 31  1  0  0  0  0
 16 27  2  0  0  0  0
 16 28  1  0  0  0  0
 17 29  1  0  0  0  0
 18 29  1  0  0  0  0
 18 32  2  0  0  0  0
 18 33  1  0  0  0  0
 19 21  2  0  0  0  0
 19 38  1  0  0  0  0
 20 22  2  0  0  0  0
 20 39  1  0  0  0  0
 21 49  1  0  0  0  0
 22 40  1  0  0  0  0
 23 82  1  0  0  0  0
 24 84  1  0  0  0  0
 25 28  2  0  0  0  0
 25 82  1  0  0  0  0
 26 83  1  0  0  0  0
 27 85  1  0  0  0  0
 28 86  1  0  0  0  0
 29 65  2  0  0  0  0
 30 53  1  0  0  0  0
 30 66  1  0  0  0  0
 31 66  2  0  0  0  0
 31 72  1  0  0  0  0
 32 67  1  0  0  0  0
 32 70  1  0  0  0  0
 33 71  1  0  0  0  0
 33 77  2  0  0  0  0
 34 50  1  0  0  0  0
 34 73  1  0  0  0  0
 34 78  2  0  0  0  0
 35 62  1  0  0  0  0
 35 68  1  0  0  0  0
 35 79  2  0  0  0  0
 36 63  1  0  0  0  0
 36 74  1  0  0  0  0
 36 80  2  0  0  0  0
 37 69  1  0  0  0  0
 37 72  1  0  0  0  0
 37 81  2  0  0  0  0
 38 41  1  0  0  0  0
 39 50  1  0  0  0  0
 40 68  1  0  0  0  0
 41 43  1  0  0  0  0
 42 44  1  0  0  0  0
 42 45  1  0  0  0  0
 43 49  1  0  0  0  0
 44 52  1  0  0  0  0
 45 69  1  0  0  0  0
 46 52  1  0  0  0  0
 46 69  1  0  0  0  0
 47 51  1  0  0  0  0
 47 75  1  0  0  0  0
 48 51  1  0  0  0  0
 48 75  1  0  0  0  0
 49 73  1  0  0  0  0
 50 68  1  0  0  0  0
 51 59  1  0  0  0  0
 52 67  1  0  0  0  0
 54 63  1  0  0  0  0
 55 64  1  0  0  0  0
 56 64  1  0  0  0  0
 57 64  1  0  0  0  0
 58 76  1  0  0  0  0
 59 83  1  0  0  0  0
 60 61  1  0  0  0  0
 60 75  1  0  0  0  0
 61 84  1  0  0  0  0
 62 64  1  0  0  0  0
 62 74  1  0  0  0  0
 63 76  1  0  0  0  0
 65 67  1  0  0  0  0
M  CHG  2  75   1  76   1
M  ISO  4  37 100  61 101  72 100  84 101
M  END
> <Batch ID>
0140

> <Smiles>
CNC(C)C(=O)NC(C(=O)N1Cc2cc([101O:1][101CH2:1]CN3CC(COc4cc(C)nc([100NH:0][100C:0](=O)N5CCCC(n6nc(-c7ccc(Oc8ccc(F)cc8F)cc7)c(C(N)=O)c6N)C5)c4)C3)ccc2CC1C(=O)NC1CCCc2ccccc21)C(C)(C)C

> <Shape>
0.246

> <Color>
0.065

> <Negative vol penalty>
0.000

$$$$

  -OEChem-04052321133D

 88 98  0     1  0  0  0  0  0999 V2000
  -23.2979  -37.3924   19.1482 C   0  0  0  0  0  0  0  0  0  0  0  0
  -24.2408  -36.4567   18.7348 C   0  0  0  0  0  0  0  0  0  0  0  0
  -24.5961   -9.4454   20.8093 C   0  0  0  0  0  0  0  0  0  0  0  0
  -25.0657  -10.2173   23.0500 C   0  0  0  0  0  0  0  0  0  0  0  0
  -22.8306  -37.3759   20.4617 C   0  0  0  0  0  0  0  0  0  0  0  0
  -24.7178  -35.5047   19.6351 C   0  0  0  0  0  0  0  0  0  0  0  0
  -28.0835  -22.0415   21.5762 C   0  0  0  0  0  0  0  0  0  0  0  0
  -27.4713  -21.1919   22.4976 C   0  0  0  0  0  0  0  0  0  0  0  0
  -26.2985  -29.7218   18.3841 C   0  0  0  0  0  0  0  0  0  0  0  0
  -24.3791   -8.1574   21.2984 C   0  0  0  0  0  0  0  0  0  0  0  0
  -24.8486   -8.9292   23.5392 C   0  0  0  0  0  0  0  0  0  0  0  0
  -27.5327  -29.1157   18.1534 C   0  0  0  0  0  0  0  0  0  0  0  0
  -23.3483   -4.7435   22.0043 C   0  0  0  0  0  0  0  0  0  0  0  0
  -22.2329   -4.0506   21.5340 C   0  0  0  0  0  0  0  0  0  0  0  0
  -28.8774  -20.1255   20.3369 C   0  0  0  0  0  0  0  0  0  0  0  0
  -27.6320  -28.4499   20.4698 C   0  0  0  0  0  0  0  0  0  0  0  0
  -20.7902   -5.7815   22.4058 C   0  0  0  0  0  0  0  0  0  0  0  0
  -24.9395  -10.4754   21.6851 C   0  0  0  0  0  0  0  0  0  0  0  0
  -24.2103  -12.8300   21.0278 C   0  0  0  0  0  0  0  0  0  0  0  0
  -28.7865  -21.5083   20.4958 C   0  0  0  0  0  0  0  0  0  0  0  0
  -23.2949  -36.4171   21.3759 C   0  0  0  0  0  0  0  0  0  0  0  0
  -25.7259  -29.7058   19.6640 C   0  0  0  0  0  0  0  0  0  0  0  0
  -24.2572  -35.4762   20.9624 C   0  0  0  0  0  0  0  0  0  0  0  0
  -27.5621  -19.8091   22.3387 C   0  0  0  0  0  0  0  0  0  0  0  0
  -26.3892  -29.0542   20.7136 C   0  0  0  0  0  0  0  0  0  0  0  0
  -28.2652  -19.2759   21.2583 C   0  0  0  0  0  0  0  0  0  0  0  0
  -24.5053   -7.8992   22.6634 C   0  0  0  0  0  0  0  0  0  0  0  0
  -28.2010  -28.4821   19.1970 C   0  0  0  0  0  0  0  0  0  0  0  0
  -23.1848   -5.9554   22.6754 C   0  0  0  0  0  0  0  0  0  0  0  0
  -20.9538   -4.5696   21.7347 C   0  0  0  0  0  0  0  0  0  0  0  0
  -21.9057   -6.4744   22.8761 C   0  0  0  0  0  0  0  0  0  0  0  0
  -25.1644  -11.8061   21.1803 C   0  0  0  0  0  0  0  0  0  0  0  0
  -24.9209  -13.8878   20.5154 C   0  0  0  0  0  0  0  0  0  0  0  0
  -22.8073  -12.8253   21.3229 C   0  0  0  0  0  0  0  0  0  0  0  0
  -24.8976  -31.9298   21.7786 C   0  0  0  0  0  0  0  0  0  0  0  0
  -23.6726  -29.3916   23.3846 C   0  0  0  0  0  0  0  0  0  0  0  0
  -23.7224  -26.0278   23.9580 C   0  0  0  0  0  0  0  0  0  0  0  0
  -29.4150  -17.1749   20.4772 C   0  0  0  0  0  0  0  0  0  0  0  0
  -22.7955  -36.4685   22.7981 C   0  0  0  0  0  0  0  0  0  0  0  0
  -24.3814  -30.3410   19.8904 C   0  0  0  0  0  0  0  0  0  0  0  0
  -25.8078  -28.9915   22.1016 C   0  0  0  0  0  0  0  0  0  0  0  0
  -23.0728  -35.1917   23.5875 C   0  0  0  0  0  0  0  0  0  0  0  0
  -29.6322  -14.1101   18.6780 C   0  0  0  0  0  0  0  0  0  0  0  0
  -27.2413  -19.0824   24.7969 C   0  0  0  0  0  0  0  0  0  0  0  0
  -27.7191  -17.8776   24.0484 C   0  0  0  0  0  0  0  0  0  0  0  0
  -24.5135  -34.7366   23.3776 C   0  0  0  0  0  0  0  0  0  0  0  0
  -28.4107  -13.3217   19.1561 C   0  0  0  0  0  0  0  0  0  0  0  0
  -28.3899  -23.3038   18.8206 C   0  0  0  0  0  0  0  0  0  0  0  0
  -30.5036  -23.2845   20.2059 C   0  0  0  0  0  0  0  0  0  0  0  0
  -30.2523  -14.9338   19.8053 C   0  0  0  0  0  0  0  0  0  0  0  0
  -28.0965  -15.0278   20.9939 C   0  0  0  0  0  0  0  0  0  0  0  0
  -29.0354  -24.3013   17.8673 C   0  0  0  0  0  0  0  0  0  0  0  0
  -31.1329  -24.2819   19.2418 C   0  0  0  0  0  0  0  0  0  0  0  0
  -29.4421  -22.4187   19.5081 C   0  0  0  0  0  0  0  0  0  0  0  0
  -26.8984  -18.9218   23.3404 C   0  0  0  0  0  0  0  0  0  0  0  0
  -24.7802  -34.4121   21.9028 C   0  0  1  0  0  0  0  0  0  0  0  0
  -24.1329  -30.7096   21.3498 C   0  0  1  0  0  0  0  0  0  0  0  0
  -27.3989  -14.2332   19.8779 C   0  0  2  0  0  0  0  0  0  0  0  0
  -22.6307  -24.2510   25.3540 C   0  0  0  0  0  0  0  0  0  0  0  0
  -25.2970  -30.2974   25.8035 C   0  0  0  0  0  0  0  0  0  0  0  0
  -24.9324  -28.0336   26.8086 C   0  0  0  0  0  0  0  0  0  0  0  0
  -22.9820  -29.5150   26.3353 C   0  0  0  0  0  0  0  0  0  0  0  0
  -22.7064  -24.6101   21.5669 C   0  0  0  0  0  0  0  0  0  0  0  0
  -30.6269  -26.2168   17.7534 C   0  0  0  0  0  0  0  0  0  0  0  0
  -29.6406  -27.3649   17.6688 C   0  0  0  0  0  0  0  0  0  1  0  0
  -24.2020  -28.4192   24.4109 C   0  0  1  0  0  0  0  0  0  0  0  0
  -22.6058  -25.0019   24.0317 C   0  0  2  0  0  0  0  0  0  0  0  0
  -24.3655  -29.0690   25.8140 C   0  0  0  0  0  0  0  0  0  0  0  0
  -26.3877  -12.1798   20.7958 N   0  0  0  0  0  0  0  0  0  0  0  0
  -26.2072  -13.4502   20.3965 N   0  0  0  0  0  0  0  0  0  0  0  0
  -24.4938  -29.6328   22.2741 N   0  0  0  0  0  0  0  0  0  0  0  0
  -29.2359  -15.7759   20.4399 N   0  0  0  0  0  0  0  0  0  0  0  0
  -24.5646  -15.1403   20.1594 N   0  0  0  0  0  0  0  0  0  0  0  0
  -22.2381  -11.6554   21.8444 N   0  0  0  0  0  0  0  0  0  0  0  0
  -28.3681  -17.8744   21.0766 N   0  0  0  0  0  0  0  0  0  0  0  0
  -24.2275  -33.1187   21.5619 N   0  0  0  0  0  0  0  0  0  0  0  0
  -23.3037  -27.2699   24.3857 N   0  0  0  0  0  0  0  0  0  0  0  0
  -30.0576  -25.1436   18.6070 N   0  3  0  0  0  0  0  0  0  0  0  0
  -22.7386  -24.0114   22.9262 N   0  3  0  0  0  0  0  0  0  0  0  0
  -22.0766  -13.8234   21.1146 O   0  0  0  0  0  0  0  0  0  0  0  0
  -26.0124  -31.8020   22.2711 O   0  0  0  0  0  0  0  0  0  0  0  0
  -22.5680  -29.9124   23.5583 O   0  0  0  0  0  0  0  0  0  0  0  0
  -24.8538  -25.7536   23.5641 O   0  0  0  0  0  0  0  0  0  0  0  0
  -30.4101  -17.7150   19.9875 O   0  0  0  0  0  0  0  0  0  0  0  0
  -24.2933   -6.6424   23.1411 O   0  0  0  0  0  0  0  0  0  0  0  0
  -29.4061  -27.8904   18.9747 O   0  0  0  0  0  0  0  0  0  1  0  0
  -19.8828   -3.9049   21.2816 F   0  0  0  0  0  0  0  0  0  0  0  0
  -21.7424   -7.6387   23.5191 F   0  0  0  0  0  0  0  0  0  0  0  0
  1  2  1  0  0  0  0
  1  5  2  0  0  0  0
  2  6  2  0  0  0  0
  3 10  2  0  0  0  0
  3 18  1  0  0  0  0
  4 11  1  0  0  0  0
  4 18  2  0  0  0  0
  5 21  1  0  0  0  0
  6 23  1  0  0  0  0
  7  8  2  0  0  0  0
  7 20  1  0  0  0  0
  8 24  1  0  0  0  0
  9 12  2  0  0  0  0
  9 22  1  0  0  0  0
 10 27  1  0  0  0  0
 11 27  2  0  0  0  0
 12 28  1  0  0  0  0
 13 14  2  0  0  0  0
 13 29  1  0  0  0  0
 14 30  1  0  0  0  0
 15 20  2  0  0  0  0
 15 26  1  0  0  0  0
 16 25  1  0  0  0  0
 16 28  2  0  0  0  0
 17 30  2  0  0  0  0
 17 31  1  0  0  0  0
 18 32  1  0  0  0  0
 19 32  1  0  0  0  0
 19 33  2  0  0  0  0
 19 34  1  0  0  0  0
 20 54  1  0  0  0  0
 21 23  2  0  0  0  0
 21 39  1  0  0  0  0
 22 25  2  0  0  0  0
 22 40  1  0  0  0  0
 23 56  1  0  0  0  0
 24 26  2  0  0  0  0
 24 55  1  0  0  0  0
 25 41  1  0  0  0  0
 26 75  1  0  0  0  0
 27 85  1  0  0  0  0
 28 86  1  0  0  0  0
 29 31  2  0  0  0  0
 29 85  1  0  0  0  0
 30 87  1  0  0  0  0
 31 88  1  0  0  0  0
 32 69  2  0  0  0  0
 33 70  1  0  0  0  0
 33 73  1  0  0  0  0
 34 74  1  0  0  0  0
 34 80  2  0  0  0  0
 35 57  1  0  0  0  0
 35 76  1  0  0  0  0
 35 81  2  0  0  0  0
 36 66  1  0  0  0  0
 36 71  1  0  0  0  0
 36 82  2  0  0  0  0
 37 67  1  0  0  0  0
 37 77  1  0  0  0  0
 37 83  2  0  0  0  0
 38 72  1  0  0  0  0
 38 75  1  0  0  0  0
 38 84  2  0  0  0  0
 39 42  1  0  0  0  0
 40 57  1  0  0  0  0
 41 71  1  0  0  0  0
 42 46  1  0  0  0  0
 43 47  1  0  0  0  0
 43 50  1  0  0  0  0
 44 45  1  0  0  0  0
 44 55  1  0  0  0  0
 45 55  1  0  0  0  0
 46 56  1  0  0  0  0
 47 58  1  0  0  0  0
 48 52  1  0  0  0  0
 48 54  1  0  0  0  0
 49 53  1  0  0  0  0
 49 54  1  0  0  0  0
 50 72  1  0  0  0  0
 51 58  1  0  0  0  0
 51 72  1  0  0  0  0
 52 78  1  0  0  0  0
 53 78  1  0  0  0  0
 56 76  1  0  0  0  0
 57 71  1  0  0  0  0
 58 70  1  0  0  0  0
 59 67  1  0  0  0  0
 60 68  1  0  0  0  0
 61 68  1  0  0  0  0
 62 68  1  0  0  0  0
 63 79  1  0  0  0  0
 64 65  1  0  0  0  0
 64 78  1  0  0  0  0
 65 86  1  0  0  0  0
 66 68  1  0  0  0  0
 66 77  1  0  0  0  0
 67 79  1  0  0  0  0
 69 70  1  0  0  0  0
M  CHG  2  78   1  79   1
M  ISO  4  38 100  65 101  75 100  86 101
M  END
> <Batch ID>
0140

> <Smiles>
CNC(C)C(=O)NC(C(=O)N1Cc2cc([101O:1][101CH2:1]CN3CCC(c4ccc(C5CC5)c([100NH:0][100C:0](=O)N5CCCC(n6nc(-c7ccc(Oc8ccc(F)cc8F)cc7)c(C(N)=O)c6N)C5)c4)CC3)ccc2CC1C(=O)NC1CCCc2ccccc21)C(C)(C)C

> <Shape>
0.298

> <Color>
0.104

> <Negative vol penalty>
0.000

$$$$

  -OEChem-04052321133D

 88 97  0     1  0  0  0  0  0999 V2000
  -22.2268  -11.3649   18.9434 C   0  0  0  0  0  0  0  0  0  0  0  0
  -21.8975  -12.7160   18.9812 C   0  0  0  0  0  0  0  0  0  0  0  0
  -29.1596  -26.3411   22.6466 C   0  0  0  0  0  0  0  0  0  0  0  0
  -28.5269  -24.0979   22.0102 C   0  0  0  0  0  0  0  0  0  0  0  0
  -23.3656  -10.9073   19.6048 C   0  0  0  0  0  0  0  0  0  0  0  0
  -22.7065  -13.6102   19.6815 C   0  0  0  0  0  0  0  0  0  0  0  0
  -23.8974  -19.4324   18.2017 C   0  0  0  0  0  0  0  0  0  0  0  0
  -30.0288  -26.4049   21.5576 C   0  0  0  0  0  0  0  0  0  0  0  0
  -29.3961  -24.1617   20.9212 C   0  0  0  0  0  0  0  0  0  0  0  0
  -23.3620  -20.6411   18.6446 C   0  0  0  0  0  0  0  0  0  0  0  0
  -29.8114  -26.9293   18.2244 C   0  0  0  0  0  0  0  0  0  0  0  0
  -29.7990  -28.0908   17.4522 C   0  0  0  0  0  0  0  0  0  0  0  0
  -25.1763  -20.8608   20.2192 C   0  0  0  0  0  0  0  0  0  0  0  0
  -21.5547  -26.9930   21.0686 C   0  0  0  0  0  0  0  0  0  0  0  0
  -32.1318  -28.4560   17.9639 C   0  0  0  0  0  0  0  0  0  0  0  0
  -28.4086  -25.1875   22.8730 C   0  0  0  0  0  0  0  0  0  0  0  0
  -27.8445  -25.2439   25.3602 C   0  0  0  0  0  0  0  0  0  0  0  0
  -24.1942  -11.7979   20.3055 C   0  0  0  0  0  0  0  0  0  0  0  0
  -25.0723  -18.9226   18.7727 C   0  0  0  0  0  0  0  0  0  0  0  0
  -23.8568  -13.1639   20.3540 C   0  0  0  0  0  0  0  0  0  0  0  0
  -25.7259  -19.6466   19.7800 C   0  0  0  0  0  0  0  0  0  0  0  0
  -30.1471  -25.3152   20.6949 C   0  0  0  0  0  0  0  0  0  0  0  0
  -23.9999  -21.3541   19.6555 C   0  0  0  0  0  0  0  0  0  0  0  0
  -30.9841  -26.5311   18.8664 C   0  0  0  0  0  0  0  0  0  0  0  0
  -22.6794  -26.5241   20.3460 C   0  0  0  0  0  0  0  0  0  0  0  0
  -30.9591  -28.8542   17.3220 C   0  0  0  0  0  0  0  0  0  0  0  0
  -32.1442  -27.2945   18.7361 C   0  0  0  0  0  0  0  0  0  0  0  0
  -27.5110  -25.1208   23.9981 C   0  0  0  0  0  0  0  0  0  0  0  0
  -23.5569  -27.5785   20.2211 C   0  0  0  0  0  0  0  0  0  0  0  0
  -21.7791  -28.3197   21.3632 C   0  0  0  0  0  0  0  0  0  0  0  0
  -26.6477  -25.1087   26.0204 C   0  0  0  0  0  0  0  0  0  0  0  0
  -29.1220  -25.4612   25.9739 C   0  0  0  0  0  0  0  0  0  0  0  0
  -25.8197  -16.2941   20.3964 C   0  0  0  0  0  0  0  0  0  0  0  0
  -28.8380  -17.4489   20.1163 C   0  0  0  0  0  0  0  0  0  0  0  0
  -30.8769  -20.1473   19.6597 C   0  0  0  0  0  0  0  0  0  0  0  0
  -20.9651  -26.0730   24.3990 C   0  0  0  0  0  0  0  0  0  0  0  0
  -25.3890  -11.2491   21.0445 C   0  0  0  0  0  0  0  0  0  0  0  0
  -25.6515  -17.6305   18.2653 C   0  0  0  0  0  0  0  0  0  0  0  0
  -27.0008  -19.1527   20.4117 C   0  0  0  0  0  0  0  0  0  0  0  0
  -26.3982  -12.3199   21.4511 C   0  0  0  0  0  0  0  0  0  0  0  0
  -22.3589  -23.0284   25.6093 C   0  0  0  0  0  0  0  0  0  0  0  0
  -25.6861  -13.5135   22.0795 C   0  0  0  0  0  0  0  0  0  0  0  0
  -23.8674  -23.2305   25.4565 C   0  0  0  0  0  0  0  0  0  0  0  0
  -25.0020  -30.1520   21.5026 C   0  0  0  0  0  0  0  0  0  0  0  0
  -23.8184  -30.6560   22.2674 C   0  0  0  0  0  0  0  0  0  0  0  0
  -21.5839  -23.6752   24.4633 C   0  0  0  0  0  0  0  0  0  0  0  0
  -23.3952  -25.3031   24.0852 C   0  0  0  0  0  0  0  0  0  0  0  0
  -24.7228  -14.1688   21.0823 C   0  0  1  0  0  0  0  0  0  0  0  0
  -26.5724  -16.9515   19.2744 C   0  0  1  0  0  0  0  0  0  0  0  0
  -23.6136  -29.9783   20.9329 C   0  0  0  0  0  0  0  0  0  0  0  0
  -24.2157  -24.7165   25.2467 C   0  0  2  0  0  0  0  0  0  0  0  0
  -24.8079  -27.3646   18.0433 C   0  0  0  0  0  0  0  0  0  0  0  0
  -25.9184  -26.6968   20.2057 C   0  0  0  0  0  0  0  0  0  0  0  0
  -33.3001  -20.7833   19.5152 C   0  0  0  0  0  0  0  0  0  0  0  0
  -29.0842  -17.1904   23.1466 C   0  0  0  0  0  0  0  0  0  0  0  0
  -31.0882  -18.6874   23.0417 C   0  0  0  0  0  0  0  0  0  0  0  0
  -31.1162  -16.4848   21.8709 C   0  0  0  0  0  0  0  0  0  0  0  0
  -30.5675  -21.1537   16.8938 C   0  0  0  0  0  0  0  0  0  0  0  0
  -19.9425  -28.8768   22.9577 C   0  0  0  0  0  0  0  0  0  0  0  0
  -20.5043  -28.5104   24.3229 C   0  0  0  0  0  0  0  0  0  0  0  0
  -22.2766  -22.9821   19.4661 C   0  0  0  0  0  0  0  0  0  1  0  0
  -21.8640  -24.3060   20.0798 C   0  0  0  0  0  0  0  0  0  0  0  0
  -24.8790  -27.6420   19.5618 C   0  0  0  0  0  0  0  0  0  0  0  0
  -29.7116  -18.3676   20.9361 C   0  0  1  0  0  0  0  0  0  0  0  0
  -32.0610  -20.3704   18.7363 C   0  0  2  0  0  0  0  0  0  0  0  0
  -30.2250  -17.6912   22.2385 C   0  0  0  0  0  0  0  0  0  0  0  0
  -26.2046  -24.9224   23.8030 N   0  0  0  0  0  0  0  0  0  0  0  0
  -22.9990  -28.6649   20.8429 N   0  0  0  0  0  0  0  0  0  0  0  0
  -25.7068  -24.9198   25.0513 N   0  0  0  0  0  0  0  0  0  0  0  0
  -27.5243  -17.8811   19.8858 N   0  0  0  0  0  0  0  0  0  0  0  0
  -21.9591  -25.0838   24.3186 N   0  0  0  0  0  0  0  0  0  0  0  0
  -26.3190  -25.1341   27.3294 N   0  0  0  0  0  0  0  0  0  0  0  0
  -29.8921  -24.3448   26.3271 N   0  0  0  0  0  0  0  0  0  0  0  0
  -21.0213  -29.2180   22.0300 N   0  0  0  0  0  0  0  0  0  0  0  0
  -25.4526  -14.9873   20.1379 N   0  0  0  0  0  0  0  0  0  0  0  0
  -30.7705  -18.8274   20.0441 N   0  0  0  0  0  0  0  0  0  0  0  0
  -21.4070  -27.3827   24.2574 N   0  0  0  0  0  0  0  0  0  0  0  0
  -31.7508  -21.4394   17.7453 N   0  3  0  0  0  0  0  0  0  0  0  0
  -29.5602  -26.6112   26.2171 O   0  0  0  0  0  0  0  0  0  0  0  0
  -25.5904  -16.9253   21.4214 O   0  0  0  0  0  0  0  0  0  0  0  0
  -29.3063  -16.3903   19.6901 O   0  0  0  0  0  0  0  0  0  0  0  0
  -30.1241  -21.0540   20.0084 O   0  0  0  0  0  0  0  0  0  0  0  0
  -19.7729  -25.8088   24.5885 O   0  0  0  0  0  0  0  0  0  0  0  0
  -30.9950  -25.3773   19.6320 O   0  0  0  0  0  0  0  0  0  0  0  0
  -23.4791  -22.5338   20.0901 O   0  0  0  0  0  0  0  0  0  1  0  0
  -22.8892  -25.2646   19.8492 O   0  0  0  0  0  0  0  0  0  0  0  0
  -30.9474  -29.9688   16.5792 F   0  0  0  0  0  0  0  0  0  0  0  0
  -33.2741  -26.9164   19.3496 F   0  0  0  0  0  0  0  0  0  0  0  0
  1  2  1  0  0  0  0
  1  5  2  0  0  0  0
  2  6  2  0  0  0  0
  3  8  2  0  0  0  0
  3 16  1  0  0  0  0
  4  9  1  0  0  0  0
  4 16  2  0  0  0  0
  5 18  1  0  0  0  0
  6 20  1  0  0  0  0
  7 10  2  0  0  0  0
  7 19  1  0  0  0  0
  8 22  1  0  0  0  0
  9 22  2  0  0  0  0
 10 23  1  0  0  0  0
 11 12  2  0  0  0  0
 11 24  1  0  0  0  0
 12 26  1  0  0  0  0
 13 21  1  0  0  0  0
 13 23  2  0  0  0  0
 14 25  1  0  0  0  0
 14 30  2  0  0  0  0
 15 26  2  0  0  0  0
 15 27  1  0  0  0  0
 16 28  1  0  0  0  0
 17 28  1  0  0  0  0
 17 31  2  0  0  0  0
 17 32  1  0  0  0  0
 18 20  2  0  0  0  0
 18 37  1  0  0  0  0
 19 21  2  0  0  0  0
 19 38  1  0  0  0  0
 20 48  1  0  0  0  0
 21 39  1  0  0  0  0
 22 84  1  0  0  0  0
 23 85  1  0  0  0  0
 24 27  2  0  0  0  0
 24 84  1  0  0  0  0
 25 29  2  0  0  0  0
 25 86  1  0  0  0  0
 26 87  1  0  0  0  0
 27 88  1  0  0  0  0
 28 67  2  0  0  0  0
 29 63  1  0  0  0  0
 29 68  1  0  0  0  0
 30 68  1  0  0  0  0
 30 74  1  0  0  0  0
 31 69  1  0  0  0  0
 31 72  1  0  0  0  0
 32 73  1  0  0  0  0
 32 79  2  0  0  0  0
 33 49  1  0  0  0  0
 33 75  1  0  0  0  0
 33 80  2  0  0  0  0
 34 64  1  0  0  0  0
 34 70  1  0  0  0  0
 34 81  2  0  0  0  0
 35 65  1  0  0  0  0
 35 76  1  0  0  0  0
 35 82  2  0  0  0  0
 36 71  1  0  0  0  0
 36 77  1  0  0  0  0
 36 83  2  0  0  0  0
 37 40  1  0  0  0  0
 38 49  1  0  0  0  0
 39 70  1  0  0  0  0
 40 42  1  0  0  0  0
 41 43  1  0  0  0  0
 41 46  1  0  0  0  0
 42 48  1  0  0  0  0
 43 51  1  0  0  0  0
 44 45  1  0  0  0  0
 44 50  1  0  0  0  0
 45 50  1  0  0  0  0
 46 71  1  0  0  0  0
 47 51  1  0  0  0  0
 47 71  1  0  0  0  0
 48 75  1  0  0  0  0
 49 70  1  0  0  0  0
 50 68  1  0  0  0  0
 51 69  1  0  0  0  0
 52 63  1  0  0  0  0
 53 63  1  0  0  0  0
 54 65  1  0  0  0  0
 55 66  1  0  0  0  0
 56 66  1  0  0  0  0
 57 66  1  0  0  0  0
 58 78  1  0  0  0  0
 59 60  1  0  0  0  0
 59 74  1  0  0  0  0
 60 77  1  0  0  0  0
 61 62  1  0  0  0  0
 61 85  1  0  0  0  0
 62 86  1  0  0  0  0
 64 66  1  0  0  0  0
 64 76  1  0  0  0  0
 65 78  1  0  0  0  0
 67 69  1  0  0  0  0
M  CHG  1  78   1
M  ISO  4  36 100  61 101  77 100  85 101
M  END
> <Batch ID>
0140

> <Smiles>
CNC(C)C(=O)NC(C(=O)N1Cc2cc([101O:1][101CH2:1]COc3cc(NCC[100NH:0][100C:0](=O)N4CCCC(n5nc(-c6ccc(Oc7ccc(F)cc7F)cc6)c(C(N)=O)c5N)C4)n(C4CC4)c3C(C)C)ccc2CC1C(=O)NC1CCCc2ccccc21)C(C)(C)C

> <Shape>
0.194

> <Color>
0.072

> <Negative vol penalty>
0.000

$$$$

  -OEChem-04052321133D

 90100  0     1  0  0  0  0  0999 V2000
  -27.5415  -37.0598   23.0314 C   0  0  0  0  0  0  0  0  0  0  0  0
  -28.0567  -35.8814   22.5009 C   0  0  0  0  0  0  0  0  0  0  0  0
  -28.9862  -13.8035   16.3110 C   0  0  0  0  0  0  0  0  0  0  0  0
  -29.2788  -12.0886   17.9876 C   0  0  0  0  0  0  0  0  0  0  0  0
  -26.4889  -37.0103   23.9444 C   0  0  0  0  0  0  0  0  0  0  0  0
  -27.5202  -34.6527   22.8840 C   0  0  0  0  0  0  0  0  0  0  0  0
  -26.9020  -29.6574   19.3953 C   0  0  0  0  0  0  0  0  0  0  0  0
  -29.6804  -13.0204   15.3888 C   0  0  0  0  0  0  0  0  0  0  0  0
  -29.9729  -11.3055   17.0653 C   0  0  0  0  0  0  0  0  0  0  0  0
  -27.6714  -28.5018   19.2670 C   0  0  0  0  0  0  0  0  0  0  0  0
  -29.0484  -10.3500   13.4133 C   0  0  0  0  0  0  0  0  0  0  0  0
  -28.5141  -10.2327   12.1302 C   0  0  0  0  0  0  0  0  0  0  0  0
  -29.5104  -22.1930   19.0126 C   0  0  0  0  0  0  0  0  0  0  0  0
  -26.2207  -27.3698   20.8269 C   0  0  0  0  0  0  0  0  0  0  0  0
  -29.5604  -23.6532   21.3891 C   0  0  0  0  0  0  0  0  0  0  0  0
  -30.5256  -11.1987   11.2042 C   0  0  0  0  0  0  0  0  0  0  0  0
  -28.7855  -13.3377   17.6104 C   0  0  0  0  0  0  0  0  0  0  0  0
  -26.6823  -14.1467   18.8062 C   0  0  0  0  0  0  0  0  0  0  0  0
  -25.9328  -35.7808   24.3314 C   0  0  0  0  0  0  0  0  0  0  0  0
  -25.7907  -29.6812   20.2502 C   0  0  0  0  0  0  0  0  0  0  0  0
  -26.4600  -34.5865   23.8040 C   0  0  0  0  0  0  0  0  0  0  0  0
  -30.4368  -21.8766   20.0062 C   0  0  0  0  0  0  0  0  0  0  0  0
  -25.4373  -28.5261   20.9624 C   0  0  0  0  0  0  0  0  0  0  0  0
  -28.6090  -23.2396   19.2072 C   0  0  0  0  0  0  0  0  0  0  0  0
  -30.4618  -22.6067   21.1945 C   0  0  0  0  0  0  0  0  0  0  0  0
  -28.6340  -23.9697   20.3955 C   0  0  0  0  0  0  0  0  0  0  0  0
  -30.1737  -11.7713   15.7660 C   0  0  0  0  0  0  0  0  0  0  0  0
  -27.3326  -27.3587   19.9850 C   0  0  0  0  0  0  0  0  0  0  0  0
  -30.3214  -10.8917   13.5918 C   0  0  0  0  0  0  0  0  0  0  0  0
  -29.2526  -10.6570   11.0257 C   0  0  0  0  0  0  0  0  0  0  0  0
  -31.0600  -11.3160   12.4873 C   0  0  0  0  0  0  0  0  0  0  0  0
  -28.0690  -14.1464   18.5637 C   0  0  0  0  0  0  0  0  0  0  0  0
  -26.5070  -15.0829   19.7957 C   0  0  0  0  0  0  0  0  0  0  0  0
  -25.6454  -13.3699   18.1920 C   0  0  0  0  0  0  0  0  0  0  0  0
  -24.9917  -31.3343   22.8450 C   0  0  0  0  0  0  0  0  0  0  0  0
  -22.1629  -29.7886   22.4830 C   0  0  0  0  0  0  0  0  0  0  0  0
  -20.4702  -27.0961   21.2453 C   0  0  0  0  0  0  0  0  0  0  0  0
  -31.7031  -17.2042   20.1756 C   0  0  0  0  0  0  0  0  0  0  0  0
  -24.8272  -35.7749   25.3573 C   0  0  0  0  0  0  0  0  0  0  0  0
  -24.9552  -30.9274   20.3572 C   0  0  0  0  0  0  0  0  0  0  0  0
  -24.2419  -28.4937   21.8780 C   0  0  0  0  0  0  0  0  0  0  0  0
  -24.0671  -34.4529   25.4259 C   0  0  0  0  0  0  0  0  0  0  0  0
  -33.7984  -23.9177   17.8991 C   0  0  0  0  0  0  0  0  0  0  0  0
  -29.6447  -15.3461   22.6862 C   0  0  0  0  0  0  0  0  0  0  0  0
  -25.0401  -33.2784   25.4527 C   0  0  0  0  0  0  0  0  0  0  0  0
  -28.2899  -16.0293   22.5109 C   0  0  0  0  0  0  0  0  0  0  0  0
  -32.4740  -23.4398   18.5317 C   0  0  0  0  0  0  0  0  0  0  0  0
  -34.1302  -22.4319   17.6452 C   0  0  0  0  0  0  0  0  0  0  0  0
  -30.7818  -16.2960   22.3369 C   0  0  0  0  0  0  0  0  0  0  0  0
  -30.6290  -19.4164   19.5730 C   0  0  0  0  0  0  0  0  0  0  0  0
  -29.3236  -17.5301   20.7567 C   0  0  0  0  0  0  0  0  0  0  0  0
  -33.2738  -19.7568   18.3710 C   0  0  0  0  0  0  0  0  0  0  0  0
  -25.8884  -33.2356   24.1760 C   0  0  1  0  0  0  0  0  0  0  0  0
  -31.4074  -20.7328   19.7718 C   0  0  1  0  0  0  0  0  0  0  0  0
  -24.1470  -30.9959   21.6493 C   0  0  1  0  0  0  0  0  0  0  0  0
  -28.1165  -16.6343   21.1026 C   0  0  1  0  0  0  0  0  0  0  0  0
  -33.1869  -22.1005   18.8229 C   0  0  0  0  0  0  0  0  0  0  0  0
  -32.4686  -18.4725   18.1787 C   0  0  2  0  0  0  0  0  0  0  0  0
  -27.6269  -23.5607   18.1289 C   0  0  0  0  0  0  0  0  0  0  0  0
  -31.4442  -22.2857   22.2726 C   0  0  0  0  0  0  0  0  0  0  0  0
  -31.7454  -18.4213   16.8300 C   0  0  0  0  0  0  0  0  0  0  0  0
  -18.1731  -26.0910   21.1417 C   0  0  0  0  0  0  0  0  0  0  0  0
  -22.4360  -28.8717   25.3803 C   0  0  0  0  0  0  0  0  0  0  0  0
  -20.6740  -27.1514   24.9289 C   0  0  0  0  0  0  0  0  0  0  0  0
  -20.1285  -29.5768   24.7224 C   0  0  0  0  0  0  0  0  0  0  0  0
  -20.4104  -27.2487   18.2903 C   0  0  0  0  0  0  0  0  0  0  0  0
  -27.6794  -25.0949   20.6259 C   0  0  0  0  0  0  0  0  0  1  0  0
  -21.5885  -28.4813   22.9730 C   0  0  1  0  0  0  0  0  0  0  0  0
  -19.1812  -26.9954   20.4498 C   0  0  2  0  0  0  0  0  0  0  0  0
  -21.2305  -28.5212   24.4855 C   0  0  0  0  0  0  0  0  0  0  0  0
  -28.7278  -15.0139   19.3367 N   0  0  0  0  0  0  0  0  0  0  0  0
  -27.7508  -15.5679   20.0746 N   0  0  0  0  0  0  0  0  0  0  0  0
  -23.4602  -29.7390   21.9536 N   0  0  0  0  0  0  0  0  0  0  0  0
  -30.6120  -16.8748   20.9990 N   0  0  0  0  0  0  0  0  0  0  0  0
  -31.5257  -18.2846   19.2930 N   0  0  0  0  0  0  0  0  0  0  0  0
  -25.4117  -15.5305   20.4457 N   0  0  0  0  0  0  0  0  0  0  0  0
  -26.0000  -12.4540   17.1922 N   0  0  0  0  0  0  0  0  0  0  0  0
  -25.1207  -32.6904   23.0770 N   0  0  0  0  0  0  0  0  0  0  0  0
  -20.4599  -28.1784   22.0995 N   0  0  0  0  0  0  0  0  0  0  0  0
  -32.3440  -20.9248   18.5846 N   0  3  1  0  0  0  0  0  0  0  0  0
  -19.4523  -26.4446   19.0918 N   0  3  0  0  0  0  0  0  0  0  0  0
  -24.4383  -13.4965   18.5086 O   0  0  0  0  0  0  0  0  0  0  0  0
  -25.4883  -30.4318   23.5088 O   0  0  0  0  0  0  0  0  0  0  0  0
  -21.4826  -30.8148   22.5603 O   0  0  0  0  0  0  0  0  0  0  0  0
  -21.3923  -26.2927   21.1240 O   0  0  0  0  0  0  0  0  0  0  0  0
  -32.7689  -16.5792   20.2370 O   0  0  0  0  0  0  0  0  0  0  0  0
  -30.8508  -11.0068   14.8663 O   0  0  0  0  0  0  0  0  0  0  0  0
  -28.0876  -26.2216   19.8612 O   0  0  0  0  0  0  0  0  0  1  0  0
  -28.7400  -10.5429    9.7935 F   0  0  0  0  0  0  0  0  0  0  0  0
  -32.2839  -11.8362   12.6524 F   0  0  0  0  0  0  0  0  0  0  0  0
  1  2  1  0  0  0  0
  1  5  2  0  0  0  0
  2  6  2  0  0  0  0
  3  8  2  0  0  0  0
  3 17  1  0  0  0  0
  4  9  1  0  0  0  0
  4 17  2  0  0  0  0
  5 19  1  0  0  0  0
  6 21  1  0  0  0  0
  7 10  2  0  0  0  0
  7 20  1  0  0  0  0
  8 27  1  0  0  0  0
  9 27  2  0  0  0  0
 10 28  1  0  0  0  0
 11 12  2  0  0  0  0
 11 29  1  0  0  0  0
 12 30  1  0  0  0  0
 13 22  2  0  0  0  0
 13 24  1  0  0  0  0
 14 23  1  0  0  0  0
 14 28  2  0  0  0  0
 15 25  2  0  0  0  0
 15 26  1  0  0  0  0
 16 30  2  0  0  0  0
 16 31  1  0  0  0  0
 17 32  1  0  0  0  0
 18 32  1  0  0  0  0
 18 33  2  0  0  0  0
 18 34  1  0  0  0  0
 19 21  2  0  0  0  0
 19 39  1  0  0  0  0
 20 23  2  0  0  0  0
 20 40  1  0  0  0  0
 21 53  1  0  0  0  0
 22 25  1  0  0  0  0
 22 54  1  0  0  0  0
 23 41  1  0  0  0  0
 24 26  2  0  0  0  0
 24 59  1  0  0  0  0
 25 60  1  0  0  0  0
 26 67  1  0  0  0  0
 27 87  1  0  0  0  0
 28 88  1  0  0  0  0
 29 31  2  0  0  0  0
 29 87  1  0  0  0  0
 30 89  1  0  0  0  0
 31 90  1  0  0  0  0
 32 71  2  0  0  0  0
 33 72  1  0  0  0  0
 33 76  1  0  0  0  0
 34 77  1  0  0  0  0
 34 82  2  0  0  0  0
 35 55  1  0  0  0  0
 35 78  1  0  0  0  0
 35 83  2  0  0  0  0
 36 68  1  0  0  0  0
 36 73  1  0  0  0  0
 36 84  2  0  0  0  0
 37 69  1  0  0  0  0
 37 79  1  0  0  0  0
 37 85  2  0  0  0  0
 38 74  1  0  0  0  0
 38 75  1  0  0  0  0
 38 86  2  0  0  0  0
 39 42  1  0  0  0  0
 40 55  1  0  0  0  0
 41 73  1  0  0  0  0
 42 45  1  0  0  0  0
 43 47  1  0  0  0  0
 43 48  1  0  0  0  0
 44 46  1  0  0  0  0
 44 49  1  0  0  0  0
 45 53  1  0  0  0  0
 46 56  1  0  0  0  0
 47 57  1  0  0  0  0
 48 57  1  0  0  0  0
 49 74  1  0  0  0  0
 50 54  1  0  0  0  0
 50 75  1  0  0  0  0
 51 56  1  0  0  0  0
 51 74  1  0  0  0  0
 52 58  1  0  0  0  0
 52 80  1  0  0  0  0
 53 78  1  0  0  0  0
 54 80  1  0  0  0  0
 55 73  1  0  0  0  0
 56 72  1  0  0  0  0
 57 80  1  0  0  0  0
 58 61  1  0  0  0  0
 58 75  1  0  0  0  0
 62 69  1  0  0  0  0
 63 70  1  0  0  0  0
 64 70  1  0  0  0  0
 65 70  1  0  0  0  0
 66 81  1  0  0  0  0
 67 88  1  0  0  0  0
 68 70  1  0  0  0  0
 68 79  1  0  0  0  0
 69 81  1  0  0  0  0
 71 72  1  0  0  0  0
M  CHG  2  80   1  81   1
M  ISO  4  38 100  67 101  75 100  88 101
M  END
> <Batch ID>
0140

> <Smiles>
CNC(C)C(=O)NC(C(=O)N1Cc2cc([101O:1][101CH2:1]c3cc(C)c(C4C[100N:0]([100C:0](=O)N5CCCC(n6nc(-c7ccc(Oc8ccc(F)cc8F)cc7)c(C(N)=O)c6N)C5)C(C)CN4C4CCC4)cc3C)ccc2CC1C(=O)NC1CCCc2ccccc21)C(C)(C)C

> <Shape>
0.272

> <Color>
0.079

> <Negative vol penalty>
0.000

$$$$

  -OEChem-04052321133D

 83 91  0     1  0  0  0  0  0999 V2000
  -27.4481  -28.4977   18.9198 C   0  0  0  0  0  0  0  0  0  0  0  0
  -27.0068  -27.4226   19.6846 C   0  0  0  0  0  0  0  0  0  0  0  0
  -32.0742  -19.1346   18.9811 C   0  0  0  0  0  0  0  0  0  0  0  0
  -29.9484  -20.1093   19.5880 C   0  0  0  0  0  0  0  0  0  0  0  0
  -26.9015  -29.7647   19.1196 C   0  0  0  0  0  0  0  0  0  0  0  0
  -26.0194  -27.6141   20.6504 C   0  0  0  0  0  0  0  0  0  0  0  0
  -22.4641  -24.0098   20.5350 C   0  0  0  0  0  0  0  0  0  0  0  0
  -32.3231  -20.2090   18.1272 C   0  0  0  0  0  0  0  0  0  0  0  0
  -30.1973  -21.1838   18.7340 C   0  0  0  0  0  0  0  0  0  0  0  0
  -22.7826  -22.7824   21.1145 C   0  0  0  0  0  0  0  0  0  0  0  0
  -32.0211  -24.0285   18.7791 C   0  0  0  0  0  0  0  0  0  0  0  0
  -31.7533  -25.3107   19.2583 C   0  0  0  0  0  0  0  0  0  0  0  0
  -21.5594  -23.4079   23.0973 C   0  0  0  0  0  0  0  0  0  0  0  0
  -22.3916  -16.6316   23.0773 C   0  0  0  0  0  0  0  0  0  0  0  0
  -22.4020  -17.4195   20.7934 C   0  0  0  0  0  0  0  0  0  0  0  0
  -30.1652  -25.6478   17.4691 C   0  0  0  0  0  0  0  0  0  0  0  0
  -30.8868  -19.0847   19.7115 C   0  0  0  0  0  0  0  0  0  0  0  0
  -30.9711  -17.8737   21.9551 C   0  0  0  0  0  0  0  0  0  0  0  0
  -25.9000  -29.9699   20.0816 C   0  0  0  0  0  0  0  0  0  0  0  0
  -21.6986  -24.9514   21.2377 C   0  0  0  0  0  0  0  0  0  0  0  0
  -25.4598  -28.8853   20.8641 C   0  0  0  0  0  0  0  0  0  0  0  0
  -21.2303  -24.6454   22.5235 C   0  0  0  0  0  0  0  0  0  0  0  0
  -22.9974  -15.4430   22.6700 C   0  0  0  0  0  0  0  0  0  0  0  0
  -23.0078  -16.2309   20.3861 C   0  0  0  0  0  0  0  0  0  0  0  0
  -23.3055  -15.2427   21.3245 C   0  0  0  0  0  0  0  0  0  0  0  0
  -31.3847  -21.2336   18.0036 C   0  0  0  0  0  0  0  0  0  0  0  0
  -22.3327  -22.4824   22.3969 C   0  0  0  0  0  0  0  0  0  0  0  0
  -31.3610  -23.5559   17.6448 C   0  0  0  0  0  0  0  0  0  0  0  0
  -22.0939  -17.6199   22.1389 C   0  0  0  0  0  0  0  0  0  0  0  0
  -30.8254  -26.1204   18.6034 C   0  0  0  0  0  0  0  0  0  0  0  0
  -30.4330  -24.3655   16.9898 C   0  0  0  0  0  0  0  0  0  0  0  0
  -30.6289  -17.9748   20.5933 C   0  0  0  0  0  0  0  0  0  0  0  0
  -30.5109  -16.6362   22.3338 C   0  0  0  0  0  0  0  0  0  0  0  0
  -31.6446  -18.8142   22.8021 C   0  0  0  0  0  0  0  0  0  0  0  0
  -22.1960  -27.9078   22.2941 C   0  0  0  0  0  0  0  0  0  0  0  0
  -19.0519  -27.7405   23.0744 C   0  0  0  0  0  0  0  0  0  0  0  0
  -16.3530  -25.7916   23.8260 C   0  0  0  0  0  0  0  0  0  0  0  0
  -26.1772  -13.0791   20.2322 C   0  0  0  0  0  0  0  0  0  0  0  0
  -25.3728  -31.3669   20.2941 C   0  0  0  0  0  0  0  0  0  0  0  0
  -21.3411  -26.2601   20.5882 C   0  0  0  0  0  0  0  0  0  0  0  0
  -20.3883  -25.6138   23.3120 C   0  0  0  0  0  0  0  0  0  0  0  0
  -24.0642  -31.4113   21.0788 C   0  0  0  0  0  0  0  0  0  0  0  0
  -29.6273  -12.2726   20.5820 C   0  0  0  0  0  0  0  0  0  0  0  0
  -24.1474  -30.5105   22.3070 C   0  0  0  0  0  0  0  0  0  0  0  0
  -30.3061  -13.6334   20.7475 C   0  0  0  0  0  0  0  0  0  0  0  0
  -28.4568  -12.3410   19.6037 C   0  0  0  0  0  0  0  0  0  0  0  0
  -28.1318  -14.7379   20.0760 C   0  0  0  0  0  0  0  0  0  0  0  0
  -24.3728  -29.0481   21.9043 C   0  0  1  0  0  0  0  0  0  0  0  0
  -20.9883  -27.3503   21.5953 C   0  0  1  0  0  0  0  0  0  0  0  0
  -29.2834  -14.7315   21.0958 C   0  0  2  0  0  0  0  0  0  0  0  0
  -23.3065  -14.4018   23.6955 C   0  0  0  0  0  0  0  0  0  0  0  0
  -23.3259  -16.0395   18.9393 C   0  0  0  0  0  0  0  0  0  0  0  0
  -13.9285  -25.9424   24.4556 C   0  0  0  0  0  0  0  0  0  0  0  0
  -19.8406  -28.5516   25.9081 C   0  0  0  0  0  0  0  0  0  0  0  0
  -17.5913  -27.7713   26.6828 C   0  0  0  0  0  0  0  0  0  0  0  0
  -17.7637  -29.6484   25.0489 C   0  0  0  0  0  0  0  0  0  0  0  0
  -15.5133  -24.3045   21.4089 C   0  0  0  0  0  0  0  0  0  0  0  0
  -23.9547  -13.9677   20.8881 C   0  0  0  0  0  0  0  0  0  0  0  0
  -21.7060  -20.7468   23.8972 C   0  0  0  0  0  0  0  0  0  1  0  0
  -21.7838  -19.2329   23.8588 C   0  0  0  0  0  0  0  0  0  0  0  0
  -18.2739  -27.2920   24.2879 C   0  0  1  0  0  0  0  0  0  0  0  0
  -14.9241  -25.8089   23.3138 C   0  0  2  0  0  0  0  0  0  0  0  0
  -18.3849  -28.2982   25.4681 C   0  0  0  0  0  0  0  0  0  0  0  0
  -30.0000  -16.8881   20.1376 N   0  0  0  0  0  0  0  0  0  0  0  0
  -29.9434  -16.0924   21.2192 N   0  0  0  0  0  0  0  0  0  0  0  0
  -20.0707  -26.8826   22.6363 N   0  0  0  0  0  0  0  0  0  0  0  0
  -27.5231  -13.4011   19.9915 N   0  0  0  0  0  0  0  0  0  0  0  0
  -30.5403  -15.9711   23.5082 N   0  0  0  0  0  0  0  0  0  0  0  0
  -32.0496  -20.0381   22.2520 N   0  0  0  0  0  0  0  0  0  0  0  0
  -23.1364  -28.4548   21.4421 N   0  0  0  0  0  0  0  0  0  0  0  0
  -16.9086  -27.0535   23.8324 N   0  0  0  0  0  0  0  0  0  0  0  0
  -25.3612  -14.1415   20.6012 N   0  0  0  0  0  0  0  0  0  0  0  0
  -14.6241  -24.5509   22.5732 N   0  3  0  0  0  0  0  0  0  0  0  0
  -31.8950  -18.5698   24.0067 O   0  0  0  0  0  0  0  0  0  0  0  0
  -22.2686  -27.8476   23.5159 O   0  0  0  0  0  0  0  0  0  0  0  0
  -18.7614  -28.8090   22.5308 O   0  0  0  0  0  0  0  0  0  0  0  0
  -16.9184  -24.7621   24.1881 O   0  0  0  0  0  0  0  0  0  0  0  0
  -25.7365  -11.9290   20.1312 O   0  0  0  0  0  0  0  0  0  0  0  0
  -31.6273  -22.2823   17.1706 O   0  0  0  0  0  0  0  0  0  0  0  0
  -22.6428  -21.2854   22.9652 O   0  0  0  0  0  0  0  0  0  1  0  0
  -21.4969  -18.7863   22.5391 O   0  0  0  0  0  0  0  0  0  0  0  0
  -30.5672  -27.3512   19.0646 F   0  0  0  0  0  0  0  0  0  0  0  0
  -29.7948  -23.9166   15.9003 F   0  0  0  0  0  0  0  0  0  0  0  0
  1  2  1  0  0  0  0
  1  5  2  0  0  0  0
  2  6  2  0  0  0  0
  3  8  2  0  0  0  0
  3 17  1  0  0  0  0
  4  9  1  0  0  0  0
  4 17  2  0  0  0  0
  5 19  1  0  0  0  0
  6 21  1  0  0  0  0
  7 10  2  0  0  0  0
  7 20  1  0  0  0  0
  8 26  1  0  0  0  0
  9 26  2  0  0  0  0
 10 27  1  0  0  0  0
 11 12  2  0  0  0  0
 11 28  1  0  0  0  0
 12 30  1  0  0  0  0
 13 22  1  0  0  0  0
 13 27  2  0  0  0  0
 14 23  2  0  0  0  0
 14 29  1  0  0  0  0
 15 24  1  0  0  0  0
 15 29  2  0  0  0  0
 16 30  2  0  0  0  0
 16 31  1  0  0  0  0
 17 32  1  0  0  0  0
 18 32  1  0  0  0  0
 18 33  2  0  0  0  0
 18 34  1  0  0  0  0
 19 21  2  0  0  0  0
 19 39  1  0  0  0  0
 20 22  2  0  0  0  0
 20 40  1  0  0  0  0
 21 48  1  0  0  0  0
 22 41  1  0  0  0  0
 23 25  1  0  0  0  0
 23 51  1  0  0  0  0
 24 25  2  0  0  0  0
 24 52  1  0  0  0  0
 25 58  1  0  0  0  0
 26 79  1  0  0  0  0
 27 80  1  0  0  0  0
 28 31  2  0  0  0  0
 28 79  1  0  0  0  0
 29 81  1  0  0  0  0
 30 82  1  0  0  0  0
 31 83  1  0  0  0  0
 32 64  2  0  0  0  0
 33 65  1  0  0  0  0
 33 68  1  0  0  0  0
 34 69  1  0  0  0  0
 34 74  2  0  0  0  0
 35 49  1  0  0  0  0
 35 70  1  0  0  0  0
 35 75  2  0  0  0  0
 36 61  1  0  0  0  0
 36 66  1  0  0  0  0
 36 76  2  0  0  0  0
 37 62  1  0  0  0  0
 37 71  1  0  0  0  0
 37 77  2  0  0  0  0
 38 67  1  0  0  0  0
 38 72  1  0  0  0  0
 38 78  2  0  0  0  0
 39 42  1  0  0  0  0
 40 49  1  0  0  0  0
 41 66  1  0  0  0  0
 42 44  1  0  0  0  0
 43 45  1  0  0  0  0
 43 46  1  0  0  0  0
 44 48  1  0  0  0  0
 45 50  1  0  0  0  0
 46 67  1  0  0  0  0
 47 50  1  0  0  0  0
 47 67  1  0  0  0  0
 48 70  1  0  0  0  0
 49 66  1  0  0  0  0
 50 65  1  0  0  0  0
 53 62  1  0  0  0  0
 54 63  1  0  0  0  0
 55 63  1  0  0  0  0
 56 63  1  0  0  0  0
 57 73  1  0  0  0  0
 58 72  1  0  0  0  0
 59 60  1  0  0  0  0
 59 80  1  0  0  0  0
 60 81  1  0  0  0  0
 61 63  1  0  0  0  0
 61 71  1  0  0  0  0
 62 73  1  0  0  0  0
 64 65  1  0  0  0  0
M  CHG  1  73   1
M  ISO  4  38 100  59 101  72 100  80 101
M  END
> <Batch ID>
0140

> <Smiles>
CNC(C)C(=O)NC(C(=O)N1Cc2cc([101O:1][101CH2:1]COc3cc(C)c(C[100NH:0][100C:0](=O)N4CCCC(n5nc(-c6ccc(Oc7ccc(F)cc7F)cc6)c(C(N)=O)c5N)C4)c(C)c3)ccc2CC1C(=O)NC1CCCc2ccccc21)C(C)(C)C

> <Shape>
0.238

> <Color>
0.069

> <Negative vol penalty>
0.000

$$$$

  -OEChem-04052321133D

 84 92  0     1  0  0  0  0  0999 V2000
  -21.2744  -26.4703   14.1125 C   0  0  0  0  0  0  0  0  0  0  0  0
  -21.8745  -25.9066   15.2339 C   0  0  0  0  0  0  0  0  0  0  0  0
  -23.1955   -9.8554   19.9526 C   0  0  0  0  0  0  0  0  0  0  0  0
  -23.9027   -9.9356   22.2614 C   0  0  0  0  0  0  0  0  0  0  0  0
  -20.6331  -25.6539   13.1818 C   0  0  0  0  0  0  0  0  0  0  0  0
  -21.8325  -24.5261   15.4259 C   0  0  0  0  0  0  0  0  0  0  0  0
  -26.1742  -21.0282   17.9598 C   0  0  0  0  0  0  0  0  0  0  0  0
  -22.5011   -8.6726   20.2063 C   0  0  0  0  0  0  0  0  0  0  0  0
  -23.2082   -8.7528   22.5151 C   0  0  0  0  0  0  0  0  0  0  0  0
  -26.3288  -20.5082   19.2441 C   0  0  0  0  0  0  0  0  0  0  0  0
  -19.5617   -7.7613   21.6071 C   0  0  0  0  0  0  0  0  0  0  0  0
  -18.2696   -7.6455   21.0946 C   0  0  0  0  0  0  0  0  0  0  0  0
  -25.3368  -18.4330   18.5168 C   0  0  0  0  0  0  0  0  0  0  0  0
  -18.9493   -5.7098   19.8185 C   0  0  0  0  0  0  0  0  0  0  0  0
  -23.8964  -10.4869   20.9801 C   0  0  0  0  0  0  0  0  0  0  0  0
  -24.1220  -13.0231   20.8238 C   0  0  0  0  0  0  0  0  0  0  0  0
  -20.5916  -24.2617   13.3576 C   0  0  0  0  0  0  0  0  0  0  0  0
  -25.5888  -20.2570   16.9454 C   0  0  0  0  0  0  0  0  0  0  0  0
  -21.1889  -23.6904   14.4974 C   0  0  0  0  0  0  0  0  0  0  0  0
  -25.1783  -18.9446   17.2198 C   0  0  0  0  0  0  0  0  0  0  0  0
  -22.5075   -8.1213   21.4876 C   0  0  0  0  0  0  0  0  0  0  0  0
  -25.9075  -19.2115   19.5235 C   0  0  0  0  0  0  0  0  0  0  0  0
  -20.5477   -6.8514   21.2253 C   0  0  0  0  0  0  0  0  0  0  0  0
  -17.9634   -6.6197   20.2003 C   0  0  0  0  0  0  0  0  0  0  0  0
  -20.2414   -5.8256   20.3310 C   0  0  0  0  0  0  0  0  0  0  0  0
  -24.6143  -11.7084   20.7185 C   0  0  0  0  0  0  0  0  0  0  0  0
  -25.1857  -13.8173   20.4713 C   0  0  0  0  0  0  0  0  0  0  0  0
  -22.8197  -13.4850   21.2062 C   0  0  0  0  0  0  0  0  0  0  0  0
  -22.9848  -20.5263   15.1425 C   0  0  0  0  0  0  0  0  0  0  0  0
  -24.2091  -17.9093   13.6677 C   0  0  0  0  0  0  0  0  0  0  0  0
  -26.2256  -15.1617   13.8448 C   0  0  0  0  0  0  0  0  0  0  0  0
  -30.9489  -14.0481   20.9674 C   0  0  0  0  0  0  0  0  0  0  0  0
  -19.8458  -23.4246   12.3489 C   0  0  0  0  0  0  0  0  0  0  0  0
  -25.4535  -20.8231   15.5584 C   0  0  0  0  0  0  0  0  0  0  0  0
  -24.5624  -18.0685   16.1608 C   0  0  0  0  0  0  0  0  0  0  0  0
  -20.1704  -21.9354   12.4341 C   0  0  0  0  0  0  0  0  0  0  0  0
  -29.3617  -13.1173   17.9193 C   0  0  0  0  0  0  0  0  0  0  0  0
  -20.1351  -21.4635   13.8842 C   0  0  0  0  0  0  0  0  0  0  0  0
  -27.9299  -12.7813   18.3401 C   0  0  0  0  0  0  0  0  0  0  0  0
  -27.1120  -18.5210   22.9233 C   0  0  0  0  0  0  0  0  0  0  0  0
  -28.4635  -18.8860   20.8147 C   0  0  0  0  0  0  0  0  0  0  0  0
  -30.3762  -12.6888   18.9772 C   0  0  0  0  0  0  0  0  0  0  0  0
  -28.6786  -12.8662   20.7549 C   0  0  0  0  0  0  0  0  0  0  0  0
  -21.1861  -22.1948   14.7281 C   0  0  1  0  0  0  0  0  0  0  0  0
  -24.3747  -20.1294   14.7324 C   0  0  1  0  0  0  0  0  0  0  0  0
  -28.3256  -18.9094   23.7793 C   0  0  2  0  0  0  0  0  0  0  0  0
  -29.6869  -19.2775   21.6552 C   0  0  1  0  0  0  0  0  0  0  0  0
  -27.6151  -13.3299   19.7448 C   0  0  2  0  0  0  0  0  0  0  0  0
  -27.1567  -19.1837   21.5470 C   0  0  1  0  0  0  0  0  0  1  0  0
  -29.6531  -18.6194   23.0498 C   0  0  2  0  0  0  0  0  0  0  0  0
  -28.2573  -18.2122   25.1394 C   0  0  0  0  0  0  0  0  0  0  0  0
  -26.9940  -13.1919   12.4933 C   0  0  0  0  0  0  0  0  0  0  0  0
  -31.0041  -19.7052   19.5610 C   0  0  0  0  0  0  0  0  0  0  0  0
  -32.1959  -19.3141   21.7360 C   0  0  0  0  0  0  0  0  0  0  0  0
  -21.5219  -16.5423   14.1368 C   0  0  0  0  0  0  0  0  0  0  0  0
  -22.6313  -14.3506   13.6532 C   0  0  0  0  0  0  0  0  0  0  0  0
  -22.5329  -16.1125   11.8901 C   0  0  0  0  0  0  0  0  0  0  0  0
  -29.0528  -16.0268   13.9769 C   0  0  0  0  0  0  0  0  0  0  0  0
  -31.3703  -15.3856   23.0150 C   0  0  0  0  0  0  0  0  0  0  0  0
  -31.1668  -16.8564   22.6984 C   0  0  0  0  0  0  0  0  0  0  0  0
  -24.0860  -16.4173   13.8616 C   0  0  1  0  0  0  0  0  0  0  0  0
  -27.2863  -14.6281   12.8989 C   0  0  2  0  0  0  0  0  0  0  0  0
  -30.9743  -18.9601   20.8926 C   0  0  0  0  0  0  0  0  0  0  0  0
  -22.7028  -15.8726   13.4061 C   0  0  0  0  0  0  0  0  0  0  0  0
  -25.8913  -11.6657   20.3293 N   0  0  0  0  0  0  0  0  0  0  0  0
  -26.2104  -12.9634   20.1870 N   0  0  0  0  0  0  0  0  0  0  0  0
  -24.4458  -18.6695   14.8218 N   0  0  0  0  0  0  0  0  0  0  0  0
  -30.0210  -13.2436   20.2856 N   0  0  0  0  0  0  0  0  0  0  0  0
  -25.3350  -15.1559   20.3799 N   0  0  0  0  0  0  0  0  0  0  0  0
  -21.8442  -12.5347   21.5372 N   0  0  0  0  0  0  0  0  0  0  0  0
  -22.5018  -21.6425   14.4866 N   0  0  0  0  0  0  0  0  0  0  0  0
  -25.2215  -15.8203   13.1669 N   0  0  0  0  0  0  0  0  0  0  0  0
  -30.5300  -14.5386   22.1981 N   0  0  0  0  0  0  0  0  0  0  0  0
  -28.6272  -14.6696   13.5479 N   0  3  0  0  0  0  0  0  0  0  0  0
  -22.5247  -14.7039   21.2372 O   0  0  0  0  0  0  0  0  0  0  0  0
  -22.3936  -19.8677   15.9902 O   0  0  0  0  0  0  0  0  0  0  0  0
  -24.1064  -18.3822   12.5331 O   0  0  0  0  0  0  0  0  0  0  0  0
  -26.2802  -15.0064   15.0627 O   0  0  0  0  0  0  0  0  0  0  0  0
  -32.0658  -14.3142   20.5105 O   0  0  0  0  0  0  0  0  0  0  0  0
  -21.8298   -6.9673   21.7356 O   0  0  0  0  0  0  0  0  0  0  0  0
  -26.0566  -18.7017   20.7764 O   0  0  0  0  0  0  0  0  0  1  0  0
  -29.8112  -17.2050   22.9298 O   0  0  0  0  0  0  0  0  0  0  0  0
  -16.7222   -6.5077   19.7094 F   0  0  0  0  0  0  0  0  0  0  0  0
  -21.1841   -4.9478   19.9614 F   0  0  0  0  0  0  0  0  0  0  0  0
  1  2  1  0  0  0  0
  1  5  2  0  0  0  0
  2  6  2  0  0  0  0
  3  8  2  0  0  0  0
  3 15  1  0  0  0  0
  4  9  1  0  0  0  0
  4 15  2  0  0  0  0
  5 17  1  0  0  0  0
  6 19  1  0  0  0  0
  7 10  2  0  0  0  0
  7 18  1  0  0  0  0
  8 21  1  0  0  0  0
  9 21  2  0  0  0  0
 10 22  1  0  0  0  0
 11 12  2  0  0  0  0
 11 23  1  0  0  0  0
 12 24  1  0  0  0  0
 13 20  1  0  0  0  0
 13 22  2  0  0  0  0
 14 24  2  0  0  0  0
 14 25  1  0  0  0  0
 15 26  1  0  0  0  0
 16 26  1  0  0  0  0
 16 27  2  0  0  0  0
 16 28  1  0  0  0  0
 17 19  2  0  0  0  0
 17 33  1  0  0  0  0
 18 20  2  0  0  0  0
 18 34  1  0  0  0  0
 19 44  1  0  0  0  0
 20 35  1  0  0  0  0
 21 80  1  0  0  0  0
 22 81  1  0  0  0  0
 23 25  2  0  0  0  0
 23 80  1  0  0  0  0
 24 83  1  0  0  0  0
 25 84  1  0  0  0  0
 26 65  2  0  0  0  0
 27 66  1  0  0  0  0
 27 69  1  0  0  0  0
 28 70  1  0  0  0  0
 28 75  2  0  0  0  0
 29 45  1  0  0  0  0
 29 71  1  0  0  0  0
 29 76  2  0  0  0  0
 30 61  1  0  0  0  0
 30 67  1  0  0  0  0
 30 77  2  0  0  0  0
 31 62  1  0  0  0  0
 31 72  1  0  0  0  0
 31 78  2  0  0  0  0
 32 68  1  0  0  0  0
 32 73  1  0  0  0  0
 32 79  2  0  0  0  0
 33 36  1  0  0  0  0
 34 45  1  0  0  0  0
 35 67  1  0  0  0  0
 36 38  1  0  0  0  0
 37 39  1  0  0  0  0
 37 42  1  0  0  0  0
 38 44  1  0  0  0  0
 39 48  1  0  0  0  0
 40 46  1  0  0  0  0
 40 49  1  0  0  0  0
 41 47  1  0  0  0  0
 41 49  1  0  0  0  0
 42 68  1  0  0  0  0
 43 48  1  0  0  0  0
 43 68  1  0  0  0  0
 44 71  1  0  0  0  0
 45 67  1  0  0  0  0
 46 50  1  0  0  0  0
 46 51  1  0  0  0  0
 47 50  1  0  0  0  0
 47 63  1  0  0  0  0
 48 66  1  0  0  0  0
 49 81  1  0  0  0  0
 50 82  1  0  0  0  0
 52 62  1  0  0  0  0
 53 63  1  0  0  0  0
 54 63  1  0  0  0  0
 55 64  1  0  0  0  0
 56 64  1  0  0  0  0
 57 64  1  0  0  0  0
 58 74  1  0  0  0  0
 59 60  1  0  0  0  0
 59 73  1  0  0  0  0
 60 82  1  0  0  0  0
 61 64  1  0  0  0  0
 61 72  1  0  0  0  0
 62 74  1  0  0  0  0
 65 66  1  0  0  0  0
M  CHG  1  74   1
M  ISO  4  32 100  49 101  73 100  81 101
M  END
> <Batch ID>
0140

> <Smiles>
CNC(C)C(=O)NC(C(=O)N1Cc2cc([101O:1][101CH:1]3CC(C)C(OCC[100NH:0][100C:0](=O)N4CCCC(n5nc(-c6ccc(Oc7ccc(F)cc7F)cc6)c(C(N)=O)c5N)C4)C(C(C)C)C3)ccc2CC1C(=O)NC1CCCc2ccccc21)C(C)(C)C

> <Shape>
0.164

> <Color>
0.184

> <Negative vol penalty>
0.000

$$$$

  -OEChem-04052321133D

 84 92  0     1  0  0  0  0  0999 V2000
  -26.9926  -18.3531   16.2081 C   0  0  0  0  0  0  0  0  0  0  0  0
  -26.1367  -18.9529   17.1264 C   0  0  0  0  0  0  0  0  0  0  0  0
  -25.7247  -15.3629   21.2579 C   0  0  0  0  0  0  0  0  0  0  0  0
  -24.7883  -15.6393   19.0479 C   0  0  0  0  0  0  0  0  0  0  0  0
  -28.3632  -18.6012   16.2693 C   0  0  0  0  0  0  0  0  0  0  0  0
  -26.6512  -19.8002   18.1071 C   0  0  0  0  0  0  0  0  0  0  0  0
  -24.4577  -26.6426   18.6187 C   0  0  0  0  0  0  0  0  0  0  0  0
  -26.9101  -14.8884   20.6963 C   0  0  0  0  0  0  0  0  0  0  0  0
  -25.9737  -15.1648   18.4863 C   0  0  0  0  0  0  0  0  0  0  0  0
  -23.9348  -27.9017   18.9144 C   0  0  0  0  0  0  0  0  0  0  0  0
  -28.0527  -12.0004   19.3627 C   0  0  0  0  0  0  0  0  0  0  0  0
  -28.6288  -10.8642   19.9308 C   0  0  0  0  0  0  0  0  0  0  0  0
  -25.5432  -28.1617   20.7014 C   0  0  0  0  0  0  0  0  0  0  0  0
  -30.6291  -12.1258   20.4254 C   0  0  0  0  0  0  0  0  0  0  0  0
  -24.6638  -15.7383   20.4337 C   0  0  0  0  0  0  0  0  0  0  0  0
  -22.5865  -15.5455   21.9018 C   0  0  0  0  0  0  0  0  0  0  0  0
  -28.8936  -19.4596   17.2452 C   0  0  0  0  0  0  0  0  0  0  0  0
  -25.5366  -26.1441   19.3541 C   0  0  0  0  0  0  0  0  0  0  0  0
  -28.0304  -20.0589   18.1822 C   0  0  0  0  0  0  0  0  0  0  0  0
  -26.0792  -26.9064   20.4017 C   0  0  0  0  0  0  0  0  0  0  0  0
  -27.0346  -14.7894   19.3105 C   0  0  0  0  0  0  0  0  0  0  0  0
  -24.4761  -28.6592   19.9533 C   0  0  0  0  0  0  0  0  0  0  0  0
  -28.7648  -13.1993   19.3258 C   0  0  0  0  0  0  0  0  0  0  0  0
  -29.9170  -10.9269   20.4622 C   0  0  0  0  0  0  0  0  0  0  0  0
  -30.0530  -13.2620   19.8572 C   0  0  0  0  0  0  0  0  0  0  0  0
  -23.4389  -16.2279   21.0132 C   0  0  0  0  0  0  0  0  0  0  0  0
  -21.5703  -16.4345   22.1537 C   0  0  0  0  0  0  0  0  0  0  0  0
  -22.7029  -14.2260   22.4504 C   0  0  0  0  0  0  0  0  0  0  0  0
  -27.9676  -23.3366   19.8867 C   0  0  0  0  0  0  0  0  0  0  0  0
  -21.4382  -22.3673   21.9088 C   0  0  0  0  0  0  0  0  0  0  0  0
  -29.5383  -25.9505   20.2196 C   0  0  0  0  0  0  0  0  0  0  0  0
  -31.9236  -28.3878   20.3046 C   0  0  0  0  0  0  0  0  0  0  0  0
  -30.3874  -19.6600   17.3012 C   0  0  0  0  0  0  0  0  0  0  0  0
  -26.0920  -24.7672   19.1107 C   0  0  0  0  0  0  0  0  0  0  0  0
  -27.2169  -26.3153   21.1885 C   0  0  0  0  0  0  0  0  0  0  0  0
  -30.8093  -20.8653   18.1376 C   0  0  0  0  0  0  0  0  0  0  0  0
  -19.1997  -20.0819   20.1787 C   0  0  0  0  0  0  0  0  0  0  0  0
  -30.0601  -20.8817   19.4663 C   0  0  0  0  0  0  0  0  0  0  0  0
  -20.7436  -26.7659   21.2888 C   0  0  0  0  0  0  0  0  0  0  0  0
  -20.2746  -26.8540   23.7703 C   0  0  0  0  0  0  0  0  0  0  0  0
  -19.9807  -18.7708   20.2576 C   0  0  0  0  0  0  0  0  0  0  0  0
  -19.9930  -28.0841   21.0960 C   0  0  0  0  0  0  0  0  0  0  0  0
  -19.5340  -28.1793   23.5848 C   0  0  0  0  0  0  0  0  0  0  0  0
  -20.1306  -21.2810   20.0188 C   0  0  0  0  0  0  0  0  0  0  0  0
  -21.9595  -20.0671   21.1615 C   0  0  0  0  0  0  0  0  0  0  0  0
  -28.5476  -21.0036   19.2453 C   0  0  1  0  0  0  0  0  0  0  0  0
  -27.6136  -24.6832   19.3275 C   0  0  1  0  0  0  0  0  0  0  0  0
  -20.2217  -25.9897   22.5043 C   0  0  0  0  0  0  0  0  0  0  0  0
  -21.0586  -18.8357   21.3537 C   0  0  2  0  0  0  0  0  0  0  0  0
  -20.0048  -28.9575   22.3529 C   0  0  0  0  0  0  0  0  0  0  0  0
  -34.1987  -28.8857   21.2392 C   0  0  0  0  0  0  0  0  0  0  0  0
  -28.3034  -26.4119   22.9703 C   0  0  0  0  0  0  0  0  0  0  0  0
  -30.3198  -27.7695   23.5695 C   0  0  0  0  0  0  0  0  0  0  0  0
  -30.5681  -25.3518   23.0076 C   0  0  0  0  0  0  0  0  0  0  0  0
  -33.0886  -28.7162   17.6039 C   0  0  0  0  0  0  0  0  0  0  0  0
  -22.0024  -33.5178   21.1698 C   0  0  0  0  0  0  0  0  0  0  0  0
  -20.6048  -23.6094   21.7181 C   0  0  0  0  0  0  0  0  0  0  0  0
  -21.0142  -24.6984   22.6998 C   0  0  0  0  0  0  0  0  0  0  0  0
  -21.5093  -30.7003   21.7062 C   0  0  0  0  0  0  0  0  0  0  0  0
  -24.0390  -30.3298   21.5890 C   0  0  0  0  0  0  0  0  0  1  0  0
  -30.0523  -27.0056   21.1662 C   0  0  1  0  0  0  0  0  0  0  0  0
  -33.4196  -28.3427   20.0513 C   0  0  2  0  0  0  0  0  0  0  0  0
  -22.9022  -31.3039   21.8961 C   0  0  1  0  0  0  0  0  0  0  0  0
  -29.7951  -26.6415   22.6557 C   0  0  0  0  0  0  0  0  0  0  0  0
  -23.0021  -17.4557   20.7203 N   0  0  0  0  0  0  0  0  0  0  0  0
  -21.8641  -17.5518   21.4288 N   0  0  0  0  0  0  0  0  0  0  0  0
  -28.1698  -25.6602   20.2789 N   0  0  0  0  0  0  0  0  0  0  0  0
  -21.1594  -21.2914   21.0657 N   0  0  0  0  0  0  0  0  0  0  0  0
  -20.4629  -16.3617   22.9224 N   0  0  0  0  0  0  0  0  0  0  0  0
  -22.1242  -13.1581   21.7510 N   0  0  0  0  0  0  0  0  0  0  0  0
  -28.1920  -22.3695   18.9256 N   0  0  0  0  0  0  0  0  0  0  0  0
  -31.4591  -27.2021   20.8334 N   0  0  0  0  0  0  0  0  0  0  0  0
  -21.3108  -29.5383   22.5662 N   0  0  0  0  0  0  0  0  0  0  0  0
  -33.7665  -29.1549   18.8509 N   0  3  0  0  0  0  0  0  0  0  0  0
  -23.0249  -32.4641   20.9597 N   0  3  0  0  0  0  0  0  0  0  0  0
  -23.2882  -14.0027   23.5372 O   0  0  0  0  0  0  0  0  0  0  0  0
  -28.0342  -23.1852   21.1010 O   0  0  0  0  0  0  0  0  0  0  0  0
  -22.3084  -22.3546   22.7832 O   0  0  0  0  0  0  0  0  0  0  0  0
  -30.3274  -25.3933   19.4515 O   0  0  0  0  0  0  0  0  0  0  0  0
  -31.2364  -29.3774   20.0615 O   0  0  0  0  0  0  0  0  0  0  0  0
  -28.1912  -14.3267   18.7622 O   0  0  0  0  0  0  0  0  0  0  0  0
  -23.9638  -29.8895   20.2337 O   0  0  0  0  0  0  0  0  0  1  0  0
  -30.4695   -9.8361   21.0091 F   0  0  0  0  0  0  0  0  0  0  0  0
  -30.7415  -14.4112   19.8258 F   0  0  0  0  0  0  0  0  0  0  0  0
  1  2  1  0  0  0  0
  1  5  2  0  0  0  0
  2  6  2  0  0  0  0
  3  8  2  0  0  0  0
  3 15  1  0  0  0  0
  4  9  1  0  0  0  0
  4 15  2  0  0  0  0
  5 17  1  0  0  0  0
  6 19  1  0  0  0  0
  7 10  2  0  0  0  0
  7 18  1  0  0  0  0
  8 21  1  0  0  0  0
  9 21  2  0  0  0  0
 10 22  1  0  0  0  0
 11 12  2  0  0  0  0
 11 23  1  0  0  0  0
 12 24  1  0  0  0  0
 13 20  1  0  0  0  0
 13 22  2  0  0  0  0
 14 24  2  0  0  0  0
 14 25  1  0  0  0  0
 15 26  1  0  0  0  0
 16 26  1  0  0  0  0
 16 27  2  0  0  0  0
 16 28  1  0  0  0  0
 17 19  2  0  0  0  0
 17 33  1  0  0  0  0
 18 20  2  0  0  0  0
 18 34  1  0  0  0  0
 19 46  1  0  0  0  0
 20 35  1  0  0  0  0
 21 81  1  0  0  0  0
 22 82  1  0  0  0  0
 23 25  2  0  0  0  0
 23 81  1  0  0  0  0
 24 83  1  0  0  0  0
 25 84  1  0  0  0  0
 26 65  2  0  0  0  0
 27 66  1  0  0  0  0
 27 69  1  0  0  0  0
 28 70  1  0  0  0  0
 28 76  2  0  0  0  0
 29 47  1  0  0  0  0
 29 71  1  0  0  0  0
 29 77  2  0  0  0  0
 30 57  1  0  0  0  0
 30 68  1  0  0  0  0
 30 78  2  0  0  0  0
 31 61  1  0  0  0  0
 31 67  1  0  0  0  0
 31 79  2  0  0  0  0
 32 62  1  0  0  0  0
 32 72  1  0  0  0  0
 32 80  2  0  0  0  0
 33 36  1  0  0  0  0
 34 47  1  0  0  0  0
 35 67  1  0  0  0  0
 36 38  1  0  0  0  0
 37 41  1  0  0  0  0
 37 44  1  0  0  0  0
 38 46  1  0  0  0  0
 39 42  1  0  0  0  0
 39 48  1  0  0  0  0
 40 43  1  0  0  0  0
 40 48  1  0  0  0  0
 41 49  1  0  0  0  0
 42 50  1  0  0  0  0
 43 50  1  0  0  0  0
 44 68  1  0  0  0  0
 45 49  1  0  0  0  0
 45 68  1  0  0  0  0
 46 71  1  0  0  0  0
 47 67  1  0  0  0  0
 48 58  1  0  0  0  0
 49 66  1  0  0  0  0
 50 73  1  0  0  0  0
 51 62  1  0  0  0  0
 52 64  1  0  0  0  0
 53 64  1  0  0  0  0
 54 64  1  0  0  0  0
 55 74  1  0  0  0  0
 56 75  1  0  0  0  0
 57 58  1  0  0  0  0
 59 63  1  0  0  0  0
 59 73  1  0  0  0  0
 60 63  1  0  0  0  0
 60 82  1  0  0  0  0
 61 64  1  0  0  0  0
 61 72  1  0  0  0  0
 62 74  1  0  0  0  0
 63 75  1  0  0  0  0
 65 66  1  0  0  0  0
M  CHG  2  74   1  75   1
M  ISO  4  30 100  57 100  60 101  82 101
M  END
> <Batch ID>
0140

> <Smiles>
CNC(C)C(=O)NC(C(=O)N1Cc2cc([101O:1][101CH2:1]C(CNC3CCC(C[100CH2:0][100C:0](=O)N4CCCC(n5nc(-c6ccc(Oc7ccc(F)cc7F)cc6)c(C(N)=O)c5N)C4)CC3)NC)ccc2CC1C(=O)NC1CCCc2ccccc21)C(C)(C)C

> <Shape>
0.225

> <Color>
0.070

> <Negative vol penalty>
0.000

$$$$

  -OEChem-04052321133D

 80 88  0     1  0  0  0  0  0999 V2000
  -23.8896  -31.6245   20.2363 C   0  0  0  0  0  0  0  0  0  0  0  0
  -23.8491  -30.2351   20.1802 C   0  0  0  0  0  0  0  0  0  0  0  0
  -23.1423   -9.7506   21.2463 C   0  0  0  0  0  0  0  0  0  0  0  0
  -23.8916  -10.5227   23.4095 C   0  0  0  0  0  0  0  0  0  0  0  0
  -24.8325  -32.2614   21.0421 C   0  0  0  0  0  0  0  0  0  0  0  0
  -24.7522  -29.4816   20.9293 C   0  0  0  0  0  0  0  0  0  0  0  0
  -23.7100  -24.0655   23.5912 C   0  0  0  0  0  0  0  0  0  0  0  0
  -22.4324   -8.7189   21.8604 C   0  0  0  0  0  0  0  0  0  0  0  0
  -23.1816   -9.4911   24.0237 C   0  0  0  0  0  0  0  0  0  0  0  0
  -24.0015  -22.7584   23.2038 C   0  0  0  0  0  0  0  0  0  0  0  0
  -23.1028   -5.6923   23.2073 C   0  0  0  0  0  0  0  0  0  0  0  0
  -23.2047   -4.4166   22.6525 C   0  0  0  0  0  0  0  0  0  0  0  0
  -26.0137  -22.8196   24.5329 C   0  0  0  0  0  0  0  0  0  0  0  0
  -20.8179   -4.3883   22.2793 C   0  0  0  0  0  0  0  0  0  0  0  0
  -23.8720  -10.6525   22.0209 C   0  0  0  0  0  0  0  0  0  0  0  0
  -24.1383  -13.0116   21.0875 C   0  0  0  0  0  0  0  0  0  0  0  0
  -25.7413  -31.5152   21.8089 C   0  0  0  0  0  0  0  0  0  0  0  0
  -24.5752  -24.7645   24.4452 C   0  0  0  0  0  0  0  0  0  0  0  0
  -25.7090  -30.1090   21.7451 C   0  0  0  0  0  0  0  0  0  0  0  0
  -25.7296  -24.1346   24.9317 C   0  0  0  0  0  0  0  0  0  0  0  0
  -22.4519   -8.5892   23.2491 C   0  0  0  0  0  0  0  0  0  0  0  0
  -25.1549  -22.1362   23.6723 C   0  0  0  0  0  0  0  0  0  0  0  0
  -21.8585   -6.3159   23.2983 C   0  0  0  0  0  0  0  0  0  0  0  0
  -22.0623   -3.7646   22.1884 C   0  0  0  0  0  0  0  0  0  0  0  0
  -20.7160   -5.6639   22.8343 C   0  0  0  0  0  0  0  0  0  0  0  0
  -24.6061  -11.7181   21.3870 C   0  0  0  0  0  0  0  0  0  0  0  0
  -25.2091  -13.6353   20.4950 C   0  0  0  0  0  0  0  0  0  0  0  0
  -22.8511  -13.5972   21.3238 C   0  0  0  0  0  0  0  0  0  0  0  0
  -26.3159  -27.4126   24.1975 C   0  0  0  0  0  0  0  0  0  0  0  0
  -26.8817  -26.8691   27.3449 C   0  0  0  0  0  0  0  0  0  0  0  0
  -27.0252  -24.6327   29.9188 C   0  0  0  0  0  0  0  0  0  0  0  0
  -30.6588  -14.8236   20.3126 C   0  0  0  0  0  0  0  0  0  0  0  0
  -26.7732  -32.2486   22.6286 C   0  0  0  0  0  0  0  0  0  0  0  0
  -24.2328  -26.1646   24.8751 C   0  0  0  0  0  0  0  0  0  0  0  0
  -26.6806  -24.8344   25.8667 C   0  0  0  0  0  0  0  0  0  0  0  0
  -27.4501  -31.3734   23.6803 C   0  0  0  0  0  0  0  0  0  0  0  0
  -29.6039  -11.7617   18.8332 C   0  0  0  0  0  0  0  0  0  0  0  0
  -27.8716  -30.0390   23.0732 C   0  0  0  0  0  0  0  0  0  0  0  0
  -28.1741  -11.5813   19.3459 C   0  0  0  0  0  0  0  0  0  0  0  0
  -28.4307  -18.9610   21.9791 C   0  0  0  0  0  0  0  0  0  0  0  0
  -30.5087  -12.3869   19.8927 C   0  0  0  0  0  0  0  0  0  0  0  0
  -28.5798  -13.4706   20.9783 C   0  0  0  0  0  0  0  0  0  0  0  0
  -27.6478  -19.5436   19.8130 C   0  0  0  0  0  0  0  0  0  0  0  0
  -26.6557  -29.2568   22.5621 C   0  0  1  0  0  0  0  0  0  0  0  0
  -25.4484  -26.9616   25.3384 C   0  0  1  0  0  0  0  0  0  0  0  0
  -28.4403  -18.4670   20.5376 C   0  0  1  0  0  0  0  0  0  0  0  0
  -27.6165  -12.8949   19.9261 C   0  0  2  0  0  0  0  0  0  0  0  0
  -26.9925  -19.4265   22.1660 C   0  0  1  0  0  0  0  0  0  0  0  0
  -27.5539  -24.4783   32.3671 C   0  0  0  0  0  0  0  0  0  0  0  0
  -29.7697  -17.8366   18.5100 C   0  0  0  0  0  0  0  0  0  0  0  0
  -29.8614  -27.0351   26.7095 C   0  0  0  0  0  0  0  0  0  0  0  0
  -30.3221  -25.9545   28.9204 C   0  0  0  0  0  0  0  0  0  0  0  0
  -29.1823  -28.1717   28.8311 C   0  0  0  0  0  0  0  0  0  0  0  0
  -24.2897  -23.7096   30.5698 C   0  0  0  0  0  0  0  0  0  0  0  0
  -26.8210  -20.5008   23.2185 C   0  0  0  0  0  0  0  0  0  1  0  0
  -30.6546  -17.2598   20.7858 C   0  0  0  0  0  0  0  0  0  0  0  0
  -27.9176  -26.0986   28.1275 C   0  0  1  0  0  0  0  0  0  0  0  0
  -26.4623  -24.6811   31.3278 C   0  0  2  0  0  0  0  0  0  0  0  0
  -29.8388  -18.2803   19.9760 C   0  0  2  0  0  0  0  0  0  0  0  0
  -29.3041  -26.8022   28.1280 C   0  0  0  0  0  0  0  0  0  0  0  0
  -25.8751  -11.5297   21.0153 N   0  0  0  0  0  0  0  0  0  0  0  0
  -26.2138  -12.7131   20.4760 N   0  0  0  0  0  0  0  0  0  0  0  0
  -26.3054  -26.2046   26.2531 N   0  0  0  0  0  0  0  0  0  0  0  0
  -29.9236  -13.6300   20.4008 N   0  0  0  0  0  0  0  0  0  0  0  0
  -25.3797  -14.8770   19.9935 N   0  0  0  0  0  0  0  0  0  0  0  0
  -21.8655  -12.8165   21.9430 N   0  0  0  0  0  0  0  0  0  0  0  0
  -25.9544  -28.6354   23.6650 N   0  0  0  0  0  0  0  0  0  0  0  0
  -27.3531  -25.8896   29.4564 N   0  0  0  0  0  0  0  0  0  0  0  0
  -30.0284  -15.9568   20.8117 N   0  0  0  0  0  0  0  0  0  0  0  0
  -26.6034  -19.9605   20.8106 N   0  3  0  0  0  0  0  0  0  0  0  0
  -25.4347  -23.6176   31.5119 N   0  3  0  0  0  0  0  0  0  0  0  0
  -22.5777  -14.7724   20.9808 O   0  0  0  0  0  0  0  0  0  0  0  0
  -27.2453  -26.7043   23.8285 O   0  0  0  0  0  0  0  0  0  0  0  0
  -26.5894  -28.0155   27.6940 O   0  0  0  0  0  0  0  0  0  0  0  0
  -27.1638  -23.5843   29.2926 O   0  0  0  0  0  0  0  0  0  0  0  0
  -31.7910  -14.8765   19.8202 O   0  0  0  0  0  0  0  0  0  0  0  0
  -21.7591   -7.5827   23.8488 O   0  0  0  0  0  0  0  0  0  0  0  0
  -25.4422  -20.8606   23.2951 O   0  0  0  0  0  0  0  0  0  1  0  0
  -22.1605   -2.5402   21.6541 F   0  0  0  0  0  0  0  0  0  0  0  0
  -19.5180   -6.2585   22.9179 F   0  0  0  0  0  0  0  0  0  0  0  0
  1  2  1  0  0  0  0
  1  5  2  0  0  0  0
  2  6  2  0  0  0  0
  3  8  2  0  0  0  0
  3 15  1  0  0  0  0
  4  9  1  0  0  0  0
  4 15  2  0  0  0  0
  5 17  1  0  0  0  0
  6 19  1  0  0  0  0
  7 10  2  0  0  0  0
  7 18  1  0  0  0  0
  8 21  1  0  0  0  0
  9 21  2  0  0  0  0
 10 22  1  0  0  0  0
 11 12  2  0  0  0  0
 11 23  1  0  0  0  0
 12 24  1  0  0  0  0
 13 20  1  0  0  0  0
 13 22  2  0  0  0  0
 14 24  2  0  0  0  0
 14 25  1  0  0  0  0
 15 26  1  0  0  0  0
 16 26  1  0  0  0  0
 16 27  2  0  0  0  0
 16 28  1  0  0  0  0
 17 19  2  0  0  0  0
 17 33  1  0  0  0  0
 18 20  2  0  0  0  0
 18 34  1  0  0  0  0
 19 44  1  0  0  0  0
 20 35  1  0  0  0  0
 21 77  1  0  0  0  0
 22 78  1  0  0  0  0
 23 25  2  0  0  0  0
 23 77  1  0  0  0  0
 24 79  1  0  0  0  0
 25 80  1  0  0  0  0
 26 61  2  0  0  0  0
 27 62  1  0  0  0  0
 27 65  1  0  0  0  0
 28 66  1  0  0  0  0
 28 72  2  0  0  0  0
 29 45  1  0  0  0  0
 29 67  1  0  0  0  0
 29 73  2  0  0  0  0
 30 57  1  0  0  0  0
 30 63  1  0  0  0  0
 30 74  2  0  0  0  0
 31 58  1  0  0  0  0
 31 68  1  0  0  0  0
 31 75  2  0  0  0  0
 32 64  1  0  0  0  0
 32 69  1  0  0  0  0
 32 76  2  0  0  0  0
 33 36  1  0  0  0  0
 34 45  1  0  0  0  0
 35 63  1  0  0  0  0
 36 38  1  0  0  0  0
 37 39  1  0  0  0  0
 37 41  1  0  0  0  0
 38 44  1  0  0  0  0
 39 47  1  0  0  0  0
 40 46  1  0  0  0  0
 40 48  1  0  0  0  0
 41 64  1  0  0  0  0
 42 47  1  0  0  0  0
 42 64  1  0  0  0  0
 43 46  1  0  0  0  0
 43 70  1  0  0  0  0
 44 67  1  0  0  0  0
 45 63  1  0  0  0  0
 46 59  1  0  0  0  0
 47 62  1  0  0  0  0
 48 55  1  0  0  0  0
 48 70  1  0  0  0  0
 49 58  1  0  0  0  0
 50 59  1  0  0  0  0
 51 60  1  0  0  0  0
 52 60  1  0  0  0  0
 53 60  1  0  0  0  0
 54 71  1  0  0  0  0
 55 78  1  0  0  0  0
 56 59  1  0  0  0  0
 56 69  1  0  0  0  0
 57 60  1  0  0  0  0
 57 68  1  0  0  0  0
 58 71  1  0  0  0  0
 61 62  1  0  0  0  0
M  CHG  2  70   1  71   1
M  ISO  4  32 100  55 101  69 100  78 101
M  END
> <Batch ID>
0140

> <Smiles>
CNC(C)C(=O)NC(C(=O)N1Cc2cc([101O:1][101CH2:1]C3CC(C(C)C[100NH:0][100C:0](=O)N4CCCC(n5nc(-c6ccc(Oc7ccc(F)cc7F)cc6)c(C(N)=O)c5N)C4)CN3)ccc2CC1C(=O)NC1CCCc2ccccc21)C(C)(C)C

> <Shape>
0.238

> <Color>
0.162

> <Negative vol penalty>
0.000

$$$$

  -OEChem-04052321133D

 87 96  0     1  0  0  0  0  0999 V2000
  -26.5282  -10.8197   17.4757 C   0  0  0  0  0  0  0  0  0  0  0  0
  -25.8047  -11.9439   17.8609 C   0  0  0  0  0  0  0  0  0  0  0  0
  -25.9699  -30.2292   21.3739 C   0  0  0  0  0  0  0  0  0  0  0  0
  -23.7069  -29.4148   21.1441 C   0  0  0  0  0  0  0  0  0  0  0  0
  -27.8643  -10.6893   17.8524 C   0  0  0  0  0  0  0  0  0  0  0  0
  -26.4167  -12.9377   18.6239 C   0  0  0  0  0  0  0  0  0  0  0  0
  -20.7225  -23.1855   15.9968 C   0  0  0  0  0  0  0  0  0  0  0  0
  -25.3638  -17.5988   16.9473 C   0  0  0  0  0  0  0  0  0  0  0  0
  -20.8805  -23.8350   14.7725 C   0  0  0  0  0  0  0  0  0  0  0  0
  -25.5202  -31.2388   22.2247 C   0  0  0  0  0  0  0  0  0  0  0  0
  -23.2572  -30.4244   21.9950 C   0  0  0  0  0  0  0  0  0  0  0  0
  -24.1154  -18.1263   17.2745 C   0  0  0  0  0  0  0  0  0  0  0  0
  -25.0180  -33.8111   24.7439 C   0  0  0  0  0  0  0  0  0  0  0  0
  -25.7471  -34.0501   25.9087 C   0  0  0  0  0  0  0  0  0  0  0  0
  -25.1266  -19.3967   19.0585 C   0  0  0  0  0  0  0  0  0  0  0  0
  -23.2711  -23.9012   15.1163 C   0  0  0  0  0  0  0  0  0  0  0  0
  -25.3359  -31.7818   26.6318 C   0  0  0  0  0  0  0  0  0  0  0  0
  -25.0632  -29.3172   20.8335 C   0  0  0  0  0  0  0  0  0  0  0  0
  -25.9546  -26.9833   20.3176 C   0  0  0  0  0  0  0  0  0  0  0  0
  -28.4956  -11.6866   18.6122 C   0  0  0  0  0  0  0  0  0  0  0  0
  -26.5031  -17.9585   17.6814 C   0  0  0  0  0  0  0  0  0  0  0  0
  -27.7620  -12.8199   19.0122 C   0  0  0  0  0  0  0  0  0  0  0  0
  -21.8387  -22.8940   16.7809 C   0  0  0  0  0  0  0  0  0  0  0  0
  -26.3886  -18.8744   18.7370 C   0  0  0  0  0  0  0  0  0  0  0  0
  -22.1548  -24.1928   14.3322 C   0  0  0  0  0  0  0  0  0  0  0  0
  -23.1130  -23.2518   16.3406 C   0  0  0  0  0  0  0  0  0  0  0  0
  -24.1638  -31.3364   22.5354 C   0  0  0  0  0  0  0  0  0  0  0  0
  -23.9962  -19.0231   18.3321 C   0  0  0  0  0  0  0  0  0  0  0  0
  -24.4477  -32.5574   24.5231 C   0  0  0  0  0  0  0  0  0  0  0  0
  -25.9061  -33.0355   26.8526 C   0  0  0  0  0  0  0  0  0  0  0  0
  -24.6067  -31.5428   25.4670 C   0  0  0  0  0  0  0  0  0  0  0  0
  -25.5271  -28.2744   19.9540 C   0  0  0  0  0  0  0  0  0  0  0  0
  -26.2899  -26.3848   19.1277 C   0  0  0  0  0  0  0  0  0  0  0  0
  -26.0408  -26.3790   21.6150 C   0  0  0  0  0  0  0  0  0  0  0  0
  -28.6005  -16.3878   19.4807 C   0  0  0  0  0  0  0  0  0  0  0  0
  -30.1068  -19.2599   19.5461 C   0  0  0  0  0  0  0  0  0  0  0  0
  -29.8883  -22.6533   19.2561 C   0  0  0  0  0  0  0  0  0  0  0  0
  -24.5578  -27.3049   13.4705 C   0  0  0  0  0  0  0  0  0  0  0  0
  -29.9283  -11.4790   19.0355 C   0  0  0  0  0  0  0  0  0  0  0  0
  -27.8468  -17.4012   17.2988 C   0  0  0  0  0  0  0  0  0  0  0  0
  -27.5843  -19.3084   19.5434 C   0  0  0  0  0  0  0  0  0  0  0  0
  -30.6091  -12.7539   19.5268 C   0  0  0  0  0  0  0  0  0  0  0  0
  -27.8839  -27.4161   14.7361 C   0  0  0  0  0  0  0  0  0  0  0  0
  -29.7031  -13.5020   20.4996 C   0  0  0  0  0  0  0  0  0  0  0  0
  -27.6956  -27.5322   16.2497 C   0  0  0  0  0  0  0  0  0  0  0  0
  -26.8145  -28.1946   13.9730 C   0  0  0  0  0  0  0  0  0  0  0  0
  -25.2372  -27.9778   15.8542 C   0  0  0  0  0  0  0  0  0  0  0  0
  -20.3122  -21.9007   20.0426 C   0  0  0  0  0  0  0  0  0  0  0  0
  -21.6452  -22.1987   18.0861 C   0  0  1  0  0  0  0  0  0  0  0  0
  -28.3977  -13.9312   19.8191 C   0  0  1  0  0  0  0  0  0  0  0  0
  -28.8575  -17.4415   18.4408 C   0  0  1  0  0  0  0  0  0  0  0  0
  -26.2589  -27.1633   16.6660 C   0  0  2  0  0  0  0  0  0  0  0  0
  -20.6899  -22.9538   19.0167 C   0  0  2  0  0  0  0  0  0  0  0  0
  -20.9212  -20.8544   17.9098 C   0  0  1  0  0  0  0  0  0  0  0  0
  -24.3228  -22.9503   17.1631 C   0  0  0  0  0  0  0  0  0  0  0  0
  -31.2805  -24.7363   19.3987 C   0  0  0  0  0  0  0  0  0  0  0  0
  -30.0986  -19.0541   22.5904 C   0  0  0  0  0  0  0  0  0  0  0  0
  -30.6065  -21.5038   22.6878 C   0  0  0  0  0  0  0  0  0  0  0  0
  -32.2227  -19.9387   21.6103 C   0  0  0  0  0  0  0  0  0  0  0  0
  -29.3238  -23.3627   16.4388 C   0  0  0  0  0  0  0  0  0  0  0  0
  -22.3237  -24.8874   13.0235 C   0  0  0  0  0  0  0  0  0  0  0  0
  -21.8367  -19.6914   17.5930 C   0  0  0  0  0  0  0  0  0  1  0  0
  -22.2662  -26.4162   13.1275 C   0  0  0  0  0  0  0  0  0  0  0  0
  -30.0490  -20.4774   20.4368 C   0  0  1  0  0  0  0  0  0  0  0  0
  -30.7283  -23.6544   18.4836 C   0  0  2  0  0  0  0  0  0  0  0  0
  -30.7212  -20.2340   21.8176 C   0  0  0  0  0  0  0  0  0  0  0  0
  -25.5847  -28.4846   18.6363 N   0  0  0  0  0  0  0  0  0  0  0  0
  -26.0524  -27.3176   18.1614 N   0  0  0  0  0  0  0  0  0  0  0  0
  -28.8754  -18.7308   19.1346 N   0  0  0  0  0  0  0  0  0  0  0  0
  -25.4753  -27.7967   14.4136 N   0  0  0  0  0  0  0  0  0  0  0  0
  -26.7618  -25.1570   18.8242 N   0  0  0  0  0  0  0  0  0  0  0  0
  -25.6563  -27.1347   22.7309 N   0  0  0  0  0  0  0  0  0  0  0  0
  -28.6194  -15.0963   18.9898 N   0  0  0  0  0  0  0  0  0  0  0  0
  -30.6361  -21.5717   19.6711 N   0  0  0  0  0  0  0  0  0  0  0  0
  -23.3135  -26.9446   13.9729 N   0  0  0  0  0  0  0  0  0  0  0  0
  -20.2554  -20.6255   19.2479 N   0  3  0  0  0  0  0  0  0  0  0  0
  -29.9101  -24.3082   17.4234 N   0  3  0  0  0  0  0  0  0  0  0  0
  -26.4623  -25.2093   21.7813 O   0  0  0  0  0  0  0  0  0  0  0  0
  -28.4013  -16.7218   20.6428 O   0  0  0  0  0  0  0  0  0  0  0  0
  -31.2043  -18.7997   19.2215 O   0  0  0  0  0  0  0  0  0  0  0  0
  -28.6896  -22.8164   19.4731 O   0  0  0  0  0  0  0  0  0  0  0  0
  -24.8295  -27.1901   12.2705 O   0  0  0  0  0  0  0  0  0  0  0  0
  -23.7247  -32.3214   23.3658 O   0  0  0  0  0  0  0  0  0  0  0  0
  -22.7787  -19.5390   18.6540 O   0  0  0  0  0  0  0  0  0  1  0  0
  -26.6077  -33.2648   27.9704 F   0  0  0  0  0  0  0  0  0  0  0  0
  -24.0621  -30.3360   25.2598 F   0  0  0  0  0  0  0  0  0  0  0  0
  -21.4534  -24.3596   19.7839 Cl  0  0  0  0  0  0  0  0  0  0  0  0
  1  2  1  0  0  0  0
  1  5  2  0  0  0  0
  2  6  2  0  0  0  0
  3 10  2  0  0  0  0
  3 18  1  0  0  0  0
  4 11  1  0  0  0  0
  4 18  2  0  0  0  0
  5 20  1  0  0  0  0
  6 22  1  0  0  0  0
  7  9  2  0  0  0  0
  7 23  1  0  0  0  0
  8 12  2  0  0  0  0
  8 21  1  0  0  0  0
  9 25  1  0  0  0  0
 10 27  1  0  0  0  0
 11 27  2  0  0  0  0
 12 28  1  0  0  0  0
 13 14  2  0  0  0  0
 13 29  1  0  0  0  0
 14 30  1  0  0  0  0
 15 24  1  0  0  0  0
 15 28  2  0  0  0  0
 16 25  2  0  0  0  0
 16 26  1  0  0  0  0
 17 30  2  0  0  0  0
 17 31  1  0  0  0  0
 18 32  1  0  0  0  0
 19 32  1  0  0  0  0
 19 33  2  0  0  0  0
 19 34  1  0  0  0  0
 20 22  2  0  0  0  0
 20 39  1  0  0  0  0
 21 24  2  0  0  0  0
 21 40  1  0  0  0  0
 22 50  1  0  0  0  0
 23 26  2  0  0  0  0
 23 49  1  0  0  0  0
 24 41  1  0  0  0  0
 25 61  1  0  0  0  0
 26 55  1  0  0  0  0
 27 83  1  0  0  0  0
 28 84  1  0  0  0  0
 29 31  2  0  0  0  0
 29 83  1  0  0  0  0
 30 85  1  0  0  0  0
 31 86  1  0  0  0  0
 32 67  2  0  0  0  0
 33 68  1  0  0  0  0
 33 71  1  0  0  0  0
 34 72  1  0  0  0  0
 34 78  2  0  0  0  0
 35 51  1  0  0  0  0
 35 73  1  0  0  0  0
 35 79  2  0  0  0  0
 36 64  1  0  0  0  0
 36 69  1  0  0  0  0
 36 80  2  0  0  0  0
 37 65  1  0  0  0  0
 37 74  1  0  0  0  0
 37 81  2  0  0  0  0
 38 70  1  0  0  0  0
 38 75  1  0  0  0  0
 38 82  2  0  0  0  0
 39 42  1  0  0  0  0
 40 51  1  0  0  0  0
 41 69  1  0  0  0  0
 42 44  1  0  0  0  0
 43 45  1  0  0  0  0
 43 46  1  0  0  0  0
 44 50  1  0  0  0  0
 45 52  1  0  0  0  0
 46 70  1  0  0  0  0
 47 52  1  0  0  0  0
 47 70  1  0  0  0  0
 48 53  1  0  0  0  0
 48 76  1  0  0  0  0
 49 53  1  0  0  0  0
 49 54  1  0  0  0  0
 50 73  1  0  0  0  0
 51 69  1  0  0  0  0
 52 68  1  0  0  0  0
 53 87  1  0  0  0  0
 54 62  1  0  0  0  0
 54 76  1  0  0  0  0
 56 65  1  0  0  0  0
 57 66  1  0  0  0  0
 58 66  1  0  0  0  0
 59 66  1  0  0  0  0
 60 77  1  0  0  0  0
 61 63  1  0  0  0  0
 62 84  1  0  0  0  0
 63 75  1  0  0  0  0
 64 66  1  0  0  0  0
 64 74  1  0  0  0  0
 65 77  1  0  0  0  0
 67 68  1  0  0  0  0
M  CHG  2  76   1  77   1
M  ISO  4  38 100  62 101  75 100  84 101
M  END
> <Batch ID>
0140

> <Smiles>
CNC(C)C(=O)NC(C(=O)N1Cc2cc([101O:1][101CH2:1]C3NCC(Cl)C3c3ccc(CC[100NH:0][100C:0](=O)N4CCCC(n5nc(-c6ccc(Oc7ccc(F)cc7F)cc6)c(C(N)=O)c5N)C4)cc3C)ccc2CC1C(=O)NC1CCCc2ccccc21)C(C)(C)C

> <Shape>
0.216

> <Color>
0.061

> <Negative vol penalty>
0.000

$$$$

  -OEChem-04052321133D

 83 92  0     1  0  0  0  0  0999 V2000
  -29.3599  -30.8618   26.6716 C   0  0  0  0  0  0  0  0  0  0  0  0
  -29.1430  -29.9551   25.6389 C   0  0  0  0  0  0  0  0  0  0  0  0
  -26.1097  -13.5963   20.9755 C   0  0  0  0  0  0  0  0  0  0  0  0
  -26.4066  -11.6818   19.5320 C   0  0  0  0  0  0  0  0  0  0  0  0
  -28.2750  -31.4343   27.3344 C   0  0  0  0  0  0  0  0  0  0  0  0
  -27.8410  -29.6195   25.2693 C   0  0  0  0  0  0  0  0  0  0  0  0
  -29.4956  -24.0330   15.3263 C   0  0  0  0  0  0  0  0  0  0  0  0
  -27.1946  -29.5875   20.2467 C   0  0  0  0  0  0  0  0  0  0  0  0
  -29.2088  -25.1844   16.0596 C   0  0  0  0  0  0  0  0  0  0  0  0
  -24.8021  -13.1915   21.2435 C   0  0  0  0  0  0  0  0  0  0  0  0
  -25.0990  -11.2769   19.8000 C   0  0  0  0  0  0  0  0  0  0  0  0
  -27.6708  -28.4773   19.5506 C   0  0  0  0  0  0  0  0  0  0  0  0
  -23.4408   -9.7049   22.2899 C   0  0  0  0  0  0  0  0  0  0  0  0
  -23.2268   -8.3560   22.5733 C   0  0  0  0  0  0  0  0  0  0  0  0
  -29.2783  -22.7021   17.3309 C   0  0  0  0  0  0  0  0  0  0  0  0
  -25.4350  -27.5749   19.4726 C   0  0  0  0  0  0  0  0  0  0  0  0
  -21.7449   -8.1918   20.6722 C   0  0  0  0  0  0  0  0  0  0  0  0
  -26.9120  -12.8415   20.1197 C   0  0  0  0  0  0  0  0  0  0  0  0
  -29.4254  -12.9042   20.5519 C   0  0  0  0  0  0  0  0  0  0  0  0
  -29.5303  -22.7918   15.9619 C   0  0  0  0  0  0  0  0  0  0  0  0
  -26.9591  -31.1128   26.9662 C   0  0  0  0  0  0  0  0  0  0  0  0
  -25.8346  -29.6946   20.5711 C   0  0  0  0  0  0  0  0  0  0  0  0
  -26.7376  -30.1872   25.9287 C   0  0  0  0  0  0  0  0  0  0  0  0
  -24.9437  -28.6886   20.1707 C   0  0  0  0  0  0  0  0  0  0  0  0
  -28.9568  -25.0946   17.4286 C   0  0  0  0  0  0  0  0  0  0  0  0
  -24.2967  -12.0318   20.6558 C   0  0  0  0  0  0  0  0  0  0  0  0
  -26.7914  -27.4694   19.1659 C   0  0  0  0  0  0  0  0  0  0  0  0
  -22.8068  -10.2973   21.1977 C   0  0  0  0  0  0  0  0  0  0  0  0
  -28.9916  -23.8534   18.0643 C   0  0  0  0  0  0  0  0  0  0  0  0
  -22.3789   -7.5995   21.7644 C   0  0  0  0  0  0  0  0  0  0  0  0
  -21.9589   -9.5407   20.3889 C   0  0  0  0  0  0  0  0  0  0  0  0
  -28.2627  -13.2594   19.8420 C   0  0  0  0  0  0  0  0  0  0  0  0
  -30.4408  -13.5556   19.8954 C   0  0  0  0  0  0  0  0  0  0  0  0
  -29.5742  -12.0609   21.7018 C   0  0  0  0  0  0  0  0  0  0  0  0
  -24.1812  -29.8607   23.2808 C   0  0  0  0  0  0  0  0  0  0  0  0
  -21.6843  -30.3600   21.2712 C   0  0  0  0  0  0  0  0  0  0  0  0
  -20.3521  -29.9712   18.1534 C   0  0  0  0  0  0  0  0  0  0  0  0
  -30.3222  -18.5082   16.5853 C   0  0  0  0  0  0  0  0  0  0  0  0
  -25.8187  -31.7213   27.7434 C   0  0  0  0  0  0  0  0  0  0  0  0
  -25.3324  -30.9113   21.2991 C   0  0  0  0  0  0  0  0  0  0  0  0
  -23.4710  -28.7657   20.4767 C   0  0  0  0  0  0  0  0  0  0  0  0
  -24.4688  -31.5975   27.0415 C   0  0  0  0  0  0  0  0  0  0  0  0
  -31.6759  -15.2199   15.6017 C   0  0  0  0  0  0  0  0  0  0  0  0
  -24.2678  -30.1792   26.5170 C   0  0  0  0  0  0  0  0  0  0  0  0
  -31.0051  -14.3085   16.6252 C   0  0  0  0  0  0  0  0  0  0  0  0
  -31.1004  -21.5078   14.3623 C   0  0  0  0  0  0  0  0  0  0  0  0
  -30.7812  -16.3937   15.2056 C   0  0  0  0  0  0  0  0  0  0  0  0
  -29.6227  -16.2766   17.3939 C   0  0  0  0  0  0  0  0  0  0  0  0
  -29.8363  -21.5619   15.1783 C   0  0  1  0  0  0  0  0  0  0  0  0
  -25.3399  -29.8167   25.4823 C   0  0  1  0  0  0  0  0  0  0  0  0
  -24.0131  -30.6703   22.0262 C   0  0  1  0  0  0  0  0  0  0  0  0
  -30.5266  -15.1174   17.8406 C   0  0  1  0  0  0  0  0  0  0  0  0
  -30.9892  -20.6853   15.6119 C   0  0  1  0  0  0  0  0  0  0  0  0
  -18.2784  -30.4496   16.8236 C   0  0  0  0  0  0  0  0  0  0  0  0
  -20.2559  -28.0582   22.6752 C   0  0  0  0  0  0  0  0  0  0  0  0
  -18.6624  -27.9626   20.7465 C   0  0  0  0  0  0  0  0  0  0  0  0
  -18.8004  -30.0222   22.1472 C   0  0  0  0  0  0  0  0  0  0  0  0
  -21.8341  -31.6686   16.2347 C   0  0  0  0  0  0  0  0  0  0  0  0
  -28.8042  -22.4414   19.9687 C   0  0  0  0  0  0  0  0  0  0  0  0
  -28.6513  -26.3437   18.2017 C   0  0  0  0  0  0  0  0  0  1  0  0
  -20.6905  -29.4737   20.5601 C   0  0  1  0  0  0  0  0  0  0  0  0
  -19.6565  -30.9512   17.2258 C   0  0  2  0  0  0  0  0  0  0  0  0
  -19.6303  -28.8765   21.5280 C   0  0  0  0  0  0  0  0  0  0  0  0
  -28.5149  -14.0734   18.8135 N   0  0  0  0  0  0  0  0  0  0  0  0
  -29.8477  -14.2352   18.8723 N   0  0  0  0  0  0  0  0  0  0  0  0
  -23.0295  -29.9720   21.1960 N   0  0  0  0  0  0  0  0  0  0  0  0
  -30.2822  -17.1163   16.3863 N   0  0  0  0  0  0  0  0  0  0  0  0
  -31.7743  -13.6078   20.0993 N   0  0  0  0  0  0  0  0  0  0  0  0
  -28.4274  -11.4705   22.2502 N   0  0  0  0  0  0  0  0  0  0  0  0
  -25.0372  -30.4276   24.2057 N   0  0  0  0  0  0  0  0  0  0  0  0
  -20.1280  -30.2761   19.4793 N   0  0  0  0  0  0  0  0  0  0  0  0
  -30.8850  -19.2517   15.5540 N   0  0  0  0  0  0  0  0  0  0  0  0
  -20.4622  -31.1544   15.9887 N   0  3  0  0  0  0  0  0  0  0  0  0
  -30.6889  -11.8506   22.2372 O   0  0  0  0  0  0  0  0  0  0  0  0
  -23.5778  -28.8010   23.4015 O   0  0  0  0  0  0  0  0  0  0  0  0
  -21.2827  -31.3637   21.8652 O   0  0  0  0  0  0  0  0  0  0  0  0
  -21.0236  -29.0273   17.7428 O   0  0  0  0  0  0  0  0  0  0  0  0
  -29.8834  -19.0520   17.6048 O   0  0  0  0  0  0  0  0  0  0  0  0
  -23.0209  -11.6364   20.9173 O   0  0  0  0  0  0  0  0  0  0  0  0
  -28.7482  -23.7484   19.4005 O   0  0  0  0  0  0  0  0  0  0  0  0
  -27.2536  -26.3845   18.4869 O   0  0  0  0  0  0  0  0  0  1  0  0
  -22.1746   -6.3038   22.0357 F   0  0  0  0  0  0  0  0  0  0  0  0
  -21.3479  -10.1040   19.3375 F   0  0  0  0  0  0  0  0  0  0  0  0
  1  2  1  0  0  0  0
  1  5  2  0  0  0  0
  2  6  2  0  0  0  0
  3 10  2  0  0  0  0
  3 18  1  0  0  0  0
  4 11  1  0  0  0  0
  4 18  2  0  0  0  0
  5 21  1  0  0  0  0
  6 23  1  0  0  0  0
  7  9  2  0  0  0  0
  7 20  1  0  0  0  0
  8 12  2  0  0  0  0
  8 22  1  0  0  0  0
  9 25  1  0  0  0  0
 10 26  1  0  0  0  0
 11 26  2  0  0  0  0
 12 27  1  0  0  0  0
 13 14  2  0  0  0  0
 13 28  1  0  0  0  0
 14 30  1  0  0  0  0
 15 20  2  0  0  0  0
 15 29  1  0  0  0  0
 16 24  1  0  0  0  0
 16 27  2  0  0  0  0
 17 30  2  0  0  0  0
 17 31  1  0  0  0  0
 18 32  1  0  0  0  0
 19 32  1  0  0  0  0
 19 33  2  0  0  0  0
 19 34  1  0  0  0  0
 20 49  1  0  0  0  0
 21 23  2  0  0  0  0
 21 39  1  0  0  0  0
 22 24  2  0  0  0  0
 22 40  1  0  0  0  0
 23 50  1  0  0  0  0
 24 41  1  0  0  0  0
 25 29  2  0  0  0  0
 25 60  1  0  0  0  0
 26 79  1  0  0  0  0
 27 81  1  0  0  0  0
 28 31  2  0  0  0  0
 28 79  1  0  0  0  0
 29 80  1  0  0  0  0
 30 82  1  0  0  0  0
 31 83  1  0  0  0  0
 32 64  2  0  0  0  0
 33 65  1  0  0  0  0
 33 68  1  0  0  0  0
 34 69  1  0  0  0  0
 34 74  2  0  0  0  0
 35 51  1  0  0  0  0
 35 70  1  0  0  0  0
 35 75  2  0  0  0  0
 36 61  1  0  0  0  0
 36 66  1  0  0  0  0
 36 76  2  0  0  0  0
 37 62  1  0  0  0  0
 37 71  1  0  0  0  0
 37 77  2  0  0  0  0
 38 67  1  0  0  0  0
 38 72  1  0  0  0  0
 38 78  2  0  0  0  0
 39 42  1  0  0  0  0
 40 51  1  0  0  0  0
 41 66  1  0  0  0  0
 42 44  1  0  0  0  0
 43 45  1  0  0  0  0
 43 47  1  0  0  0  0
 44 50  1  0  0  0  0
 45 52  1  0  0  0  0
 46 49  1  0  0  0  0
 46 53  1  0  0  0  0
 47 67  1  0  0  0  0
 48 52  1  0  0  0  0
 48 67  1  0  0  0  0
 49 53  1  0  0  0  0
 50 70  1  0  0  0  0
 51 66  1  0  0  0  0
 52 65  1  0  0  0  0
 53 72  1  0  0  0  0
 54 62  1  0  0  0  0
 55 63  1  0  0  0  0
 56 63  1  0  0  0  0
 57 63  1  0  0  0  0
 58 73  1  0  0  0  0
 59 80  1  0  0  0  0
 60 81  1  0  0  0  0
 61 63  1  0  0  0  0
 61 71  1  0  0  0  0
 62 73  1  0  0  0  0
 64 65  1  0  0  0  0
M  CHG  1  73   1
M  ISO  4  38 100  60 101  72 100  81 101
M  END
> <Batch ID>
0140

> <Smiles>
CNC(C)C(=O)NC(C(=O)N1Cc2cc([101O:1][101CH2:1]c3ccc(C4CC4[100NH:0][100C:0](=O)N4CCCC(n5nc(-c6ccc(Oc7ccc(F)cc7F)cc6)c(C(N)=O)c5N)C4)cc3OC)ccc2CC1C(=O)NC1CCCc2ccccc21)C(C)(C)C

> <Shape>
0.291

> <Color>
0.104

> <Negative vol penalty>
0.000

$$$$

  -OEChem-04052321133D

 86 95  0     1  0  0  0  0  0999 V2000
  -27.4897  -31.3809   28.2410 C   0  0  0  0  0  0  0  0  0  0  0  0
  -27.6559  -30.4682   27.2042 C   0  0  0  0  0  0  0  0  0  0  0  0
  -26.6129  -12.0372   21.5472 C   0  0  0  0  0  0  0  0  0  0  0  0
  -26.0969  -13.1172   19.4485 C   0  0  0  0  0  0  0  0  0  0  0  0
  -26.2325  -31.9298   28.4901 C   0  0  0  0  0  0  0  0  0  0  0  0
  -26.5647  -30.1030   26.4167 C   0  0  0  0  0  0  0  0  0  0  0  0
  -27.6669  -30.0499   21.4743 C   0  0  0  0  0  0  0  0  0  0  0  0
  -25.3975  -11.3549   21.4949 C   0  0  0  0  0  0  0  0  0  0  0  0
  -24.8815  -12.4348   19.3961 C   0  0  0  0  0  0  0  0  0  0  0  0
  -28.3743  -28.9498   20.9915 C   0  0  0  0  0  0  0  0  0  0  0  0
  -22.1421  -12.0147   22.1206 C   0  0  0  0  0  0  0  0  0  0  0  0
  -21.3782  -11.9627   23.2865 C   0  0  0  0  0  0  0  0  0  0  0  0
  -26.3177  -27.9974   20.1655 C   0  0  0  0  0  0  0  0  0  0  0  0
  -29.0385  -23.2218   17.3635 C   0  0  0  0  0  0  0  0  0  0  0  0
  -29.5389  -22.3442   19.5581 C   0  0  0  0  0  0  0  0  0  0  0  0
  -21.5040   -9.5501   23.2613 C   0  0  0  0  0  0  0  0  0  0  0  0
  -26.9626  -12.9184   20.5240 C   0  0  0  0  0  0  0  0  0  0  0  0
  -29.4543  -13.2001   20.0554 C   0  0  0  0  0  0  0  0  0  0  0  0
  -25.1273  -31.5784   27.6991 C   0  0  0  0  0  0  0  0  0  0  0  0
  -26.2758  -30.1270   21.3157 C   0  0  0  0  0  0  0  0  0  0  0  0
  -25.2912  -30.6467   26.6563 C   0  0  0  0  0  0  0  0  0  0  0  0
  -25.5953  -29.1008   20.6450 C   0  0  0  0  0  0  0  0  0  0  0  0
  -28.6026  -21.9603   16.9584 C   0  0  0  0  0  0  0  0  0  0  0  0
  -28.6348  -20.8908   17.8531 C   0  0  0  0  0  0  0  0  0  0  0  0
  -29.1029  -21.0827   19.1530 C   0  0  0  0  0  0  0  0  0  0  0  0
  -24.5318  -11.5536   20.4194 C   0  0  0  0  0  0  0  0  0  0  0  0
  -27.6994  -27.9220   20.3395 C   0  0  0  0  0  0  0  0  0  0  0  0
  -22.5869  -10.8344   21.5250 C   0  0  0  0  0  0  0  0  0  0  0  0
  -29.5067  -23.4138   18.6634 C   0  0  0  0  0  0  0  0  0  0  0  0
  -21.0592  -10.7304   23.8569 C   0  0  0  0  0  0  0  0  0  0  0  0
  -22.2679   -9.6021   22.0954 C   0  0  0  0  0  0  0  0  0  0  0  0
  -28.2177  -13.6241   20.5777 C   0  0  0  0  0  0  0  0  0  0  0  0
  -30.3243  -14.2172   20.3639 C   0  0  0  0  0  0  0  0  0  0  0  0
  -29.7869  -11.9947   19.3539 C   0  0  0  0  0  0  0  0  0  0  0  0
  -23.7959  -30.2596   23.2997 C   0  0  0  0  0  0  0  0  0  0  0  0
  -22.1222  -30.7002   20.5562 C   0  0  0  0  0  0  0  0  0  0  0  0
  -21.9387  -30.2775   17.1747 C   0  0  0  0  0  0  0  0  0  0  0  0
  -29.5766  -20.0538   21.4032 C   0  0  0  0  0  0  0  0  0  0  0  0
  -23.7782  -32.1622   28.0365 C   0  0  0  0  0  0  0  0  0  0  0  0
  -25.5308  -31.3330   21.8186 C   0  0  0  0  0  0  0  0  0  0  0  0
  -24.1051  -29.1452   20.4311 C   0  0  0  0  0  0  0  0  0  0  0  0
  -22.7506  -32.0072   26.9184 C   0  0  0  0  0  0  0  0  0  0  0  0
  -31.0502  -17.6712   23.6007 C   0  0  0  0  0  0  0  0  0  0  0  0
  -22.7694  -30.5842   26.3694 C   0  0  0  0  0  0  0  0  0  0  0  0
  -25.6400  -19.7887   18.1408 C   0  0  0  0  0  0  0  0  0  0  0  0
  -25.7763  -18.4245   17.5242 C   0  0  0  0  0  0  0  0  0  0  0  0
  -30.6087  -16.3243   23.0238 C   0  0  0  0  0  0  0  0  0  0  0  0
  -29.9562  -18.7296   23.4714 C   0  0  0  0  0  0  0  0  0  0  0  0
  -28.9761  -17.5565   21.5395 C   0  0  0  0  0  0  0  0  0  0  0  0
  -24.1369  -30.2444   25.7643 C   0  0  1  0  0  0  0  0  0  0  0  0
  -24.0481  -31.0635   22.0556 C   0  0  1  0  0  0  0  0  0  0  0  0
  -26.9491  -19.0537   18.2236 C   0  0  0  0  0  0  0  0  0  0  0  0
  -30.0686  -16.4759   21.5882 C   0  0  2  0  0  0  0  0  0  0  0  0
  -28.1055  -21.7822   15.5611 C   0  0  0  0  0  0  0  0  0  0  0  0
  -29.2843  -18.4868   17.4618 C   0  0  0  0  0  0  0  0  0  0  0  0
  -20.4319  -30.7075   15.2146 C   0  0  0  0  0  0  0  0  0  0  0  0
  -20.3490  -28.3687   21.4109 C   0  0  0  0  0  0  0  0  0  0  0  0
  -19.5093  -28.2350   19.0560 C   0  0  0  0  0  0  0  0  0  0  0  0
  -19.1199  -30.2989   20.4018 C   0  0  0  0  0  0  0  0  0  0  0  0
  -23.9499  -32.0052   15.8596 C   0  0  0  0  0  0  0  0  0  0  0  0
  -29.5702  -26.4723   20.5729 C   0  0  0  0  0  0  0  0  0  1  0  0
  -29.7755  -24.9761   20.4362 C   0  0  0  0  0  0  0  0  0  0  0  0
  -28.1637  -19.5398   17.4141 C   0  0  2  0  0  0  0  0  0  0  0  0
  -21.4481  -29.7908   19.5573 C   0  0  1  0  0  0  0  0  0  0  0  0
  -21.5803  -31.2404   16.0572 C   0  0  2  0  0  0  0  0  0  0  0  0
  -20.1344  -29.1713   20.1121 C   0  0  0  0  0  0  0  0  0  0  0  0
  -28.2914  -14.8174   21.1731 N   0  0  0  0  0  0  0  0  0  0  0  0
  -29.5847  -15.1520   21.0268 N   0  0  0  0  0  0  0  0  0  0  0  0
  -23.4204  -30.3423   20.9466 N   0  0  0  0  0  0  0  0  0  0  0  0
  -29.4964  -18.8205   22.0839 N   0  0  0  0  0  0  0  0  0  0  0  0
  -31.6420  -14.3942   20.1302 N   0  0  0  0  0  0  0  0  0  0  0  0
  -28.7728  -11.0558   19.1209 N   0  0  0  0  0  0  0  0  0  0  0  0
  -29.1408  -20.0111   20.0793 N   0  0  0  0  0  0  0  0  0  0  0  0
  -24.2742  -30.8467   24.4556 N   0  0  0  0  0  0  0  0  0  0  0  0
  -21.2706  -30.5791   18.3426 N   0  0  0  0  0  0  0  0  0  0  0  0
  -22.7546  -31.4600   15.1661 N   0  3  0  0  0  0  0  0  0  0  0  0
  -30.9525  -11.7499   18.9602 O   0  0  0  0  0  0  0  0  0  0  0  0
  -23.2094  -29.1868   23.2172 O   0  0  0  0  0  0  0  0  0  0  0  0
  -21.5217  -31.6954   20.9692 O   0  0  0  0  0  0  0  0  0  0  0  0
  -22.7293  -29.3484   17.0254 O   0  0  0  0  0  0  0  0  0  0  0  0
  -30.0261  -21.0665   21.9459 O   0  0  0  0  0  0  0  0  0  0  0  0
  -23.3458  -10.8877   20.3679 O   0  0  0  0  0  0  0  0  0  0  0  0
  -28.3873  -26.8468   19.8679 O   0  0  0  0  0  0  0  0  0  1  0  0
  -29.9359  -24.6529   19.0603 O   0  0  0  0  0  0  0  0  0  0  0  0
  -20.3270  -10.6807   24.9774 F   0  0  0  0  0  0  0  0  0  0  0  0
  -22.6934   -8.4649   21.5284 F   0  0  0  0  0  0  0  0  0  0  0  0
  1  2  1  0  0  0  0
  1  5  2  0  0  0  0
  2  6  2  0  0  0  0
  3  8  2  0  0  0  0
  3 17  1  0  0  0  0
  4  9  1  0  0  0  0
  4 17  2  0  0  0  0
  5 19  1  0  0  0  0
  6 21  1  0  0  0  0
  7 10  2  0  0  0  0
  7 20  1  0  0  0  0
  8 26  1  0  0  0  0
  9 26  2  0  0  0  0
 10 27  1  0  0  0  0
 11 12  2  0  0  0  0
 11 28  1  0  0  0  0
 12 30  1  0  0  0  0
 13 22  1  0  0  0  0
 13 27  2  0  0  0  0
 14 23  2  0  0  0  0
 14 29  1  0  0  0  0
 15 25  1  0  0  0  0
 15 29  2  0  0  0  0
 16 30  2  0  0  0  0
 16 31  1  0  0  0  0
 17 32  1  0  0  0  0
 18 32  1  0  0  0  0
 18 33  2  0  0  0  0
 18 34  1  0  0  0  0
 19 21  2  0  0  0  0
 19 39  1  0  0  0  0
 20 22  2  0  0  0  0
 20 40  1  0  0  0  0
 21 50  1  0  0  0  0
 22 41  1  0  0  0  0
 23 24  1  0  0  0  0
 23 54  1  0  0  0  0
 24 25  2  0  0  0  0
 24 63  1  0  0  0  0
 25 73  1  0  0  0  0
 26 82  1  0  0  0  0
 27 83  1  0  0  0  0
 28 31  2  0  0  0  0
 28 82  1  0  0  0  0
 29 84  1  0  0  0  0
 30 85  1  0  0  0  0
 31 86  1  0  0  0  0
 32 67  2  0  0  0  0
 33 68  1  0  0  0  0
 33 71  1  0  0  0  0
 34 72  1  0  0  0  0
 34 77  2  0  0  0  0
 35 51  1  0  0  0  0
 35 74  1  0  0  0  0
 35 78  2  0  0  0  0
 36 64  1  0  0  0  0
 36 69  1  0  0  0  0
 36 79  2  0  0  0  0
 37 65  1  0  0  0  0
 37 75  1  0  0  0  0
 37 80  2  0  0  0  0
 38 70  1  0  0  0  0
 38 73  1  0  0  0  0
 38 81  2  0  0  0  0
 39 42  1  0  0  0  0
 40 51  1  0  0  0  0
 41 69  1  0  0  0  0
 42 44  1  0  0  0  0
 43 47  1  0  0  0  0
 43 48  1  0  0  0  0
 44 50  1  0  0  0  0
 45 46  1  0  0  0  0
 45 52  1  0  0  0  0
 46 52  1  0  0  0  0
 47 53  1  0  0  0  0
 48 70  1  0  0  0  0
 49 53  1  0  0  0  0
 49 70  1  0  0  0  0
 50 74  1  0  0  0  0
 51 69  1  0  0  0  0
 52 63  1  0  0  0  0
 53 68  1  0  0  0  0
 55 63  1  0  0  0  0
 56 65  1  0  0  0  0
 57 66  1  0  0  0  0
 58 66  1  0  0  0  0
 59 66  1  0  0  0  0
 60 76  1  0  0  0  0
 61 62  1  0  0  0  0
 61 83  1  0  0  0  0
 62 84  1  0  0  0  0
 64 66  1  0  0  0  0
 64 75  1  0  0  0  0
 65 76  1  0  0  0  0
 67 68  1  0  0  0  0
M  CHG  1  76   1
M  ISO  4  38 100  61 101  73 100  83 101
M  END
> <Batch ID>
0140

> <Smiles>
CNC(C)C(=O)NC(C(=O)N1Cc2cc([101O:1][101CH2:1]COc3cc(C)c(C(C)C4CC4)c([100NH:0][100C:0](=O)N4CCCC(n5nc(-c6ccc(Oc7ccc(F)cc7F)cc6)c(C(N)=O)c5N)C4)c3)ccc2CC1C(=O)NC1CCCc2ccccc21)C(C)(C)C

> <Shape>
0.313

> <Color>
0.093

> <Negative vol penalty>
0.000

$$$$

  -OEChem-04052321133D

 89 99  0     1  0  0  0  0  0999 V2000
  -17.9151  -16.7854   21.5529 C   0  0  0  0  0  0  0  0  0  0  0  0
  -19.2083  -17.2711   21.3885 C   0  0  0  0  0  0  0  0  0  0  0  0
  -23.1974   -9.8545   19.9527 C   0  0  0  0  0  0  0  0  0  0  0  0
  -23.9124   -9.9297   22.2593 C   0  0  0  0  0  0  0  0  0  0  0  0
  -16.9254  -17.1135   20.6273 C   0  0  0  0  0  0  0  0  0  0  0  0
  -19.5129  -18.0844   20.2975 C   0  0  0  0  0  0  0  0  0  0  0  0
  -22.3092  -22.1033   21.5914 C   0  0  0  0  0  0  0  0  0  0  0  0
  -29.8650  -19.2354   24.2348 C   0  0  0  0  0  0  0  0  0  0  0  0
  -31.0581  -18.7027   24.7295 C   0  0  0  0  0  0  0  0  0  0  0  0
  -22.5043   -8.6709   20.2061 C   0  0  0  0  0  0  0  0  0  0  0  0
  -23.2192   -8.7461   22.5127 C   0  0  0  0  0  0  0  0  0  0  0  0
  -23.6706  -21.8901   21.8033 C   0  0  0  0  0  0  0  0  0  0  0  0
  -20.0215   -7.8043   23.0678 C   0  0  0  0  0  0  0  0  0  0  0  0
  -19.2452   -7.7448   24.2250 C   0  0  0  0  0  0  0  0  0  0  0  0
  -24.1412  -22.7381   19.5945 C   0  0  0  0  0  0  0  0  0  0  0  0
  -32.3539  -14.9258   23.5780 C   0  0  0  0  0  0  0  0  0  0  0  0
  -20.5625   -5.8790   25.0128 C   0  0  0  0  0  0  0  0  0  0  0  0
  -30.7152  -16.6986   23.4483 C   0  0  0  0  0  0  0  0  0  0  0  0
  -23.9016  -10.4839   20.9793 C   0  0  0  0  0  0  0  0  0  0  0  0
  -24.1259  -13.0205   20.8280 C   0  0  0  0  0  0  0  0  0  0  0  0
  -17.2157  -17.9392   19.5297 C   0  0  0  0  0  0  0  0  0  0  0  0
  -21.8519  -22.6262   20.3732 C   0  0  0  0  0  0  0  0  0  0  0  0
  -18.5265  -18.4229   19.3556 C   0  0  0  0  0  0  0  0  0  0  0  0
  -22.7737  -22.9594   19.3706 C   0  0  0  0  0  0  0  0  0  0  0  0
  -29.0923  -18.5005   23.3442 C   0  0  0  0  0  0  0  0  0  0  0  0
  -29.5152  -17.2341   22.9505 C   0  0  0  0  0  0  0  0  0  0  0  0
  -31.5047  -17.4390   24.3529 C   0  0  0  0  0  0  0  0  0  0  0  0
  -31.1645  -15.4265   23.0687 C   0  0  0  0  0  0  0  0  0  0  0  0
  -22.5151   -8.1167   21.4861 C   0  0  0  0  0  0  0  0  0  0  0  0
  -24.5866  -22.2048   20.8038 C   0  0  0  0  0  0  0  0  0  0  0  0
  -21.0683   -6.9011   22.8829 C   0  0  0  0  0  0  0  0  0  0  0  0
  -19.5157   -6.7822   25.1976 C   0  0  0  0  0  0  0  0  0  0  0  0
  -21.3388   -5.9385   23.8555 C   0  0  0  0  0  0  0  0  0  0  0  0
  -24.6183  -11.7062   20.7180 C   0  0  0  0  0  0  0  0  0  0  0  0
  -33.0576  -15.7236   24.4572 C   0  0  0  0  0  0  0  0  0  0  0  0
  -25.1881  -13.8159   20.4737 C   0  0  0  0  0  0  0  0  0  0  0  0
  -22.8247  -13.4812   21.2158 C   0  0  0  0  0  0  0  0  0  0  0  0
  -19.9489  -21.5750   18.0543 C   0  0  0  0  0  0  0  0  0  0  0  0
  -20.3467  -24.5796   16.8981 C   0  0  0  0  0  0  0  0  0  0  0  0
  -22.2545  -27.4065   16.7722 C   0  0  0  0  0  0  0  0  0  0  0  0
  -30.9381  -14.0786   20.9525 C   0  0  0  0  0  0  0  0  0  0  0  0
  -16.1242  -18.2279   18.5297 C   0  0  0  0  0  0  0  0  0  0  0  0
  -20.3824  -22.8752   20.1703 C   0  0  0  0  0  0  0  0  0  0  0  0
  -22.3358  -23.5421   18.0526 C   0  0  0  0  0  0  0  0  0  0  0  0
  -16.4396  -19.4013   17.6056 C   0  0  0  0  0  0  0  0  0  0  0  0
  -29.3612  -13.1178   17.9082 C   0  0  0  0  0  0  0  0  0  0  0  0
  -17.8606  -19.2864   17.0629 C   0  0  0  0  0  0  0  0  0  0  0  0
  -27.9289  -12.7841   18.3315 C   0  0  0  0  0  0  0  0  0  0  0  0
  -28.0439  -21.4876   20.0115 C   0  0  0  0  0  0  0  0  0  0  0  0
  -30.3785  -12.6942   18.9662 C   0  0  0  0  0  0  0  0  0  0  0  0
  -28.6805  -12.8640   20.7430 C   0  0  0  0  0  0  0  0  0  0  0  0
  -28.6401  -20.9026   21.2760 C   0  0  0  0  0  0  0  0  0  0  0  0
  -26.5879  -19.6976   20.6960 C   0  0  0  0  0  0  0  0  0  0  0  0
  -18.8900  -19.3281   18.1986 C   0  0  1  0  0  0  0  0  0  0  0  0
  -19.9837  -22.9319   18.6988 C   0  0  1  0  0  0  0  0  0  0  0  0
  -27.6149  -13.3308   19.7379 C   0  0  2  0  0  0  0  0  0  0  0  0
  -26.5782  -21.1027   20.1145 C   0  0  1  0  0  0  0  0  0  1  0  0
  -28.6220  -16.5098   21.9870 C   0  0  0  0  0  0  0  0  0  0  0  0
  -34.3425  -15.2256   25.0302 C   0  0  0  0  0  0  0  0  0  0  0  0
  -22.3401  -29.6796   15.7126 C   0  0  0  0  0  0  0  0  0  0  0  0
  -21.2187  -23.3150   14.2617 C   0  0  0  0  0  0  0  0  0  0  0  0
  -22.1762  -25.5305   13.5960 C   0  0  0  0  0  0  0  0  0  0  0  0
  -19.7279  -25.3085   14.0199 C   0  0  0  0  0  0  0  0  0  0  0  0
  -22.1729  -28.7628   19.4014 C   0  0  0  0  0  0  0  0  0  0  0  0
  -27.8171  -19.1020   22.8314 C   0  0  0  0  0  0  0  0  0  0  0  0
  -21.3343  -25.2464   15.9712 C   0  0  1  0  0  0  0  0  0  0  0  0
  -21.8929  -28.8732   16.9219 C   0  0  2  0  0  0  0  0  0  0  0  0
  -21.1227  -24.8373   14.4862 C   0  0  0  0  0  0  0  0  0  0  0  0
  -32.6595  -16.9557   24.8488 N   0  0  0  0  0  0  0  0  0  0  0  0
  -25.8940  -11.6648   20.3244 N   0  0  0  0  0  0  0  0  0  0  0  0
  -26.2122  -12.9629   20.1839 N   0  0  0  0  0  0  0  0  0  0  0  0
  -20.8879  -23.7612   17.8997 N   0  0  0  0  0  0  0  0  0  0  0  0
  -30.0190  -13.2526   20.2715 N   0  0  0  0  0  0  0  0  0  0  0  0
  -25.3367  -15.1547   20.3847 N   0  0  0  0  0  0  0  0  0  0  0  0
  -21.8507  -12.5297   21.5480 N   0  0  0  0  0  0  0  0  0  0  0  0
  -30.4734  -14.5777   22.1689 N   0  0  0  0  0  0  0  0  0  0  0  0
  -19.0799  -20.6870   18.6589 N   0  0  0  0  0  0  0  0  0  0  0  0
  -21.2220  -26.6799   16.2180 N   0  0  0  0  0  0  0  0  0  0  0  0
  -27.9219  -19.5811   21.4192 N   0  3  2  0  0  0  0  0  0  0  0  0
  -22.5424  -29.4457   18.1349 N   0  3  0  0  0  0  0  0  0  0  0  0
  -22.5295  -14.6998   21.2505 O   0  0  0  0  0  0  0  0  0  0  0  0
  -20.6570  -21.3509   17.0795 O   0  0  0  0  0  0  0  0  0  0  0  0
  -19.1399  -24.7832   16.7437 O   0  0  0  0  0  0  0  0  0  0  0  0
  -23.3453  -26.9516   17.1096 O   0  0  0  0  0  0  0  0  0  0  0  0
  -32.0447  -14.3470   20.4779 O   0  0  0  0  0  0  0  0  0  0  0  0
  -21.8386   -6.9619   21.7338 O   0  0  0  0  0  0  0  0  0  0  0  0
  -25.9159  -21.9971   21.0078 O   0  0  0  0  0  0  0  0  0  1  0  0
  -18.7711   -6.7262   26.3096 F   0  0  0  0  0  0  0  0  0  0  0  0
  -22.3439   -5.0689   23.6841 F   0  0  0  0  0  0  0  0  0  0  0  0
  1  2  1  0  0  0  0
  1  5  2  0  0  0  0
  2  6  2  0  0  0  0
  3 10  2  0  0  0  0
  3 19  1  0  0  0  0
  4 11  1  0  0  0  0
  4 19  2  0  0  0  0
  5 21  1  0  0  0  0
  6 23  1  0  0  0  0
  7 12  2  0  0  0  0
  7 22  1  0  0  0  0
  8  9  2  0  0  0  0
  8 25  1  0  0  0  0
  9 27  1  0  0  0  0
 10 29  1  0  0  0  0
 11 29  2  0  0  0  0
 12 30  1  0  0  0  0
 13 14  2  0  0  0  0
 13 31  1  0  0  0  0
 14 32  1  0  0  0  0
 15 24  1  0  0  0  0
 15 30  2  0  0  0  0
 16 28  2  0  0  0  0
 16 35  1  0  0  0  0
 17 32  2  0  0  0  0
 17 33  1  0  0  0  0
 18 26  1  0  0  0  0
 18 27  2  0  0  0  0
 18 28  1  0  0  0  0
 19 34  1  0  0  0  0
 20 34  1  0  0  0  0
 20 36  2  0  0  0  0
 20 37  1  0  0  0  0
 21 23  2  0  0  0  0
 21 42  1  0  0  0  0
 22 24  2  0  0  0  0
 22 43  1  0  0  0  0
 23 54  1  0  0  0  0
 24 44  1  0  0  0  0
 25 26  2  0  0  0  0
 25 65  1  0  0  0  0
 26 58  1  0  0  0  0
 27 69  1  0  0  0  0
 28 76  1  0  0  0  0
 29 86  1  0  0  0  0
 30 87  1  0  0  0  0
 31 33  2  0  0  0  0
 31 86  1  0  0  0  0
 32 88  1  0  0  0  0
 33 89  1  0  0  0  0
 34 70  2  0  0  0  0
 35 59  1  0  0  0  0
 35 69  2  0  0  0  0
 36 71  1  0  0  0  0
 36 74  1  0  0  0  0
 37 75  1  0  0  0  0
 37 81  2  0  0  0  0
 38 55  1  0  0  0  0
 38 77  1  0  0  0  0
 38 82  2  0  0  0  0
 39 66  1  0  0  0  0
 39 72  1  0  0  0  0
 39 83  2  0  0  0  0
 40 67  1  0  0  0  0
 40 78  1  0  0  0  0
 40 84  2  0  0  0  0
 41 73  1  0  0  0  0
 41 76  1  0  0  0  0
 41 85  2  0  0  0  0
 42 45  1  0  0  0  0
 43 55  1  0  0  0  0
 44 72  1  0  0  0  0
 45 47  1  0  0  0  0
 46 48  1  0  0  0  0
 46 50  1  0  0  0  0
 47 54  1  0  0  0  0
 48 56  1  0  0  0  0
 49 52  1  0  0  0  0
 49 57  1  0  0  0  0
 50 73  1  0  0  0  0
 51 56  1  0  0  0  0
 51 73  1  0  0  0  0
 52 79  1  0  0  0  0
 53 57  1  0  0  0  0
 53 79  1  0  0  0  0
 54 77  1  0  0  0  0
 55 72  1  0  0  0  0
 56 71  1  0  0  0  0
 57 87  1  0  0  0  0
 60 67  1  0  0  0  0
 61 68  1  0  0  0  0
 62 68  1  0  0  0  0
 63 68  1  0  0  0  0
 64 80  1  0  0  0  0
 65 79  1  0  0  0  0
 66 68  1  0  0  0  0
 66 78  1  0  0  0  0
 67 80  1  0  0  0  0
 70 71  1  0  0  0  0
M  CHG  2  79   1  80   1
M  ISO  4  41 100  57 101  76 100  87 101
M  END
> <Batch ID>
0140

> <Smiles>
CNC(C)C(=O)NC(C(=O)N1Cc2cc([101O:1][101CH:1]3CCN(Cc4ccc5nc(C)cc([100NH:0][100C:0](=O)N6CCCC(n7nc(-c8ccc(Oc9ccc(F)cc9F)cc8)c(C(N)=O)c7N)C6)c5c4C)C3)ccc2CC1C(=O)NC1CCCc2ccccc21)C(C)(C)C

> <Shape>
0.188

> <Color>
0.174

> <Negative vol penalty>
0.000

$$$$

  -OEChem-04052321133D

 86 94  0     1  0  0  0  0  0999 V2000
  -32.3509  -13.8699   20.9831 C   0  0  0  0  0  0  0  0  0  0  0  0
  -31.6222  -14.9072   21.5563 C   0  0  0  0  0  0  0  0  0  0  0  0
  -28.8514  -25.8595   18.5136 C   0  0  0  0  0  0  0  0  0  0  0  0
  -26.7987  -24.6596   18.0850 C   0  0  0  0  0  0  0  0  0  0  0  0
  -31.7396  -13.0116   20.0700 C   0  0  0  0  0  0  0  0  0  0  0  0
  -30.2821  -15.0875   21.2159 C   0  0  0  0  0  0  0  0  0  0  0  0
  -25.7864  -17.0576   24.8784 C   0  0  0  0  0  0  0  0  0  0  0  0
  -29.5518  -24.6535   18.5356 C   0  0  0  0  0  0  0  0  0  0  0  0
  -27.4991  -23.4536   18.1069 C   0  0  0  0  0  0  0  0  0  0  0  0
  -25.1965  -18.3092   25.0495 C   0  0  0  0  0  0  0  0  0  0  0  0
  -28.7686  -21.3519   20.4312 C   0  0  0  0  0  0  0  0  0  0  0  0
  -28.2121  -20.2922   21.1473 C   0  0  0  0  0  0  0  0  0  0  0  0
  -23.4340  -17.6799   23.5274 C   0  0  0  0  0  0  0  0  0  0  0  0
  -20.2784  -23.9359   21.8990 C   0  0  0  0  0  0  0  0  0  0  0  0
  -28.1294  -18.9702   19.1267 C   0  0  0  0  0  0  0  0  0  0  0  0
  -21.5388  -25.7077   23.5477 C   0  0  0  0  0  0  0  0  0  0  0  0
  -27.4748  -25.8626   18.2883 C   0  0  0  0  0  0  0  0  0  0  0  0
  -26.5042  -27.9283   17.1487 C   0  0  0  0  0  0  0  0  0  0  0  0
  -30.3886  -13.1756   19.7256 C   0  0  0  0  0  0  0  0  0  0  0  0
  -25.2095  -16.1101   24.0207 C   0  0  0  0  0  0  0  0  0  0  0  0
  -29.6525  -14.2314   20.2964 C   0  0  0  0  0  0  0  0  0  0  0  0
  -24.0172  -16.4160   23.3492 C   0  0  0  0  0  0  0  0  0  0  0  0
  -19.7229  -25.1946   22.1000 C   0  0  0  0  0  0  0  0  0  0  0  0
  -20.3589  -26.1033   22.9386 C   0  0  0  0  0  0  0  0  0  0  0  0
  -28.8757  -23.4505   18.3322 C   0  0  0  0  0  0  0  0  0  0  0  0
  -24.0217  -18.6215   24.3718 C   0  0  0  0  0  0  0  0  0  0  0  0
  -29.0055  -21.2208   19.0628 C   0  0  0  0  0  0  0  0  0  0  0  0
  -27.8925  -19.1014   20.4951 C   0  0  0  0  0  0  0  0  0  0  0  0
  -28.6859  -20.0300   18.4106 C   0  0  0  0  0  0  0  0  0  0  0  0
  -26.7506  -27.1081   18.2660 C   0  0  0  0  0  0  0  0  0  0  0  0
  -21.4621  -23.6374   22.5545 C   0  0  0  0  0  0  0  0  0  0  0  0
  -25.7818  -28.9834   17.6500 C   0  0  0  0  0  0  0  0  0  0  0  0
  -26.8935  -27.7521   15.7801 C   0  0  0  0  0  0  0  0  0  0  0  0
  -26.1382  -14.6270   21.3670 C   0  0  0  0  0  0  0  0  0  0  0  0
  -23.3678  -12.9903   21.7772 C   0  0  0  0  0  0  0  0  0  0  0  0
  -20.2256  -12.9000   23.1058 C   0  0  0  0  0  0  0  0  0  0  0  0
  -22.2468  -29.5931   22.4441 C   0  0  0  0  0  0  0  0  0  0  0  0
  -29.7841  -12.2517   18.6981 C   0  0  0  0  0  0  0  0  0  0  0  0
  -25.8437  -14.7548   23.8676 C   0  0  0  0  0  0  0  0  0  0  0  0
  -23.3468  -15.4266   22.4326 C   0  0  0  0  0  0  0  0  0  0  0  0
  -28.2580  -12.2819   18.6748 C   0  0  0  0  0  0  0  0  0  0  0  0
  -25.1404  -31.5136   21.6597 C   0  0  0  0  0  0  0  0  0  0  0  0
  -27.7522  -13.7209   18.6920 C   0  0  0  0  0  0  0  0  0  0  0  0
  -25.8590  -30.6763   20.6002 C   0  0  0  0  0  0  0  0  0  0  0  0
  -24.4771  -30.6355   22.7185 C   0  0  0  0  0  0  0  0  0  0  0  0
  -24.2894  -28.7636   21.1265 C   0  0  0  0  0  0  0  0  0  0  0  0
  -28.1899  -14.4442   19.9713 C   0  0  1  0  0  0  0  0  0  0  0  0
  -25.4483  -14.0529   22.5720 C   0  0  1  0  0  0  0  0  0  0  0  0
  -24.9267  -29.6034   20.0062 C   0  0  2  0  0  0  0  0  0  0  0  0
  -18.1845  -11.4462   23.2398 C   0  0  0  0  0  0  0  0  0  0  0  0
  -16.9331  -24.6630   23.2583 C   0  0  0  0  0  0  0  0  0  0  0  0
  -16.0138  -25.0367   20.9608 C   0  0  0  0  0  0  0  0  0  0  0  0
  -22.6381  -13.7551   18.9149 C   0  0  0  0  0  0  0  0  0  0  0  0
  -20.2701  -13.1209   19.4231 C   0  0  0  0  0  0  0  0  0  0  0  0
  -22.0730  -11.4010   19.5420 C   0  0  0  0  0  0  0  0  0  0  0  0
  -20.4120  -12.7104   26.0534 C   0  0  0  0  0  0  0  0  0  0  0  0
  -18.4479  -25.5477   21.4084 C   0  0  0  0  0  0  0  0  0  0  0  0
  -19.8078  -27.4640   23.1888 C   0  0  0  0  0  0  0  0  0  0  0  0
  -20.0760  -28.4566   22.0501 C   0  0  0  0  0  0  0  0  0  0  0  0
  -22.7063  -20.3664   23.4330 C   0  0  0  0  0  0  0  0  0  1  0  0
  -22.7860  -21.8805   23.4578 C   0  0  0  0  0  0  0  0  0  0  0  0
  -21.9377  -13.1807   21.3326 C   0  0  1  0  0  0  0  0  0  0  0  0
  -19.4987  -11.8308   23.9014 C   0  0  2  0  0  0  0  0  0  0  0  0
  -17.2530  -24.6293   21.7617 C   0  0  0  0  0  0  0  0  0  0  0  0
  -21.7431  -12.8840   19.8189 C   0  0  0  0  0  0  0  0  0  0  0  0
  -22.1089  -24.4938   23.3766 N   0  0  0  0  0  0  0  0  0  0  0  0
  -26.2274  -27.6000   19.3922 N   0  0  0  0  0  0  0  0  0  0  0  0
  -25.6450  -28.7407   18.9851 N   0  0  0  0  0  0  0  0  0  0  0  0
  -24.0089  -14.1172   22.3110 N   0  0  0  0  0  0  0  0  0  0  0  0
  -23.6051  -29.6405   22.0896 N   0  0  0  0  0  0  0  0  0  0  0  0
  -25.2566  -30.0859   17.0746 N   0  0  0  0  0  0  0  0  0  0  0  0
  -27.6326  -26.6118   15.4372 N   0  0  0  0  0  0  0  0  0  0  0  0
  -27.3596  -14.0444   21.0872 N   0  0  0  0  0  0  0  0  0  0  0  0
  -21.1225  -12.3515   22.2137 N   0  0  0  0  0  0  0  0  0  0  0  0
  -21.4896  -28.6247   21.7964 N   0  0  0  0  0  0  0  0  0  0  0  0
  -19.2063  -12.3191   25.2788 N   0  3  0  0  0  0  0  0  0  0  0  0
  -26.6089  -28.5896   14.8907 O   0  0  0  0  0  0  0  0  0  0  0  0
  -25.6014  -15.5306   20.7368 O   0  0  0  0  0  0  0  0  0  0  0  0
  -23.8942  -11.8807   21.6619 O   0  0  0  0  0  0  0  0  0  0  0  0
  -20.0158  -14.1014   23.2578 O   0  0  0  0  0  0  0  0  0  0  0  0
  -21.7448  -30.3607   23.2722 O   0  0  0  0  0  0  0  0  0  0  0  0
  -29.5589  -22.2735   18.3534 O   0  0  0  0  0  0  0  0  0  0  0  0
  -23.4442  -19.8427   24.5365 O   0  0  0  0  0  0  0  0  0  1  0  0
  -22.0290  -22.4034   22.3730 O   0  0  0  0  0  0  0  0  0  0  0  0
  -27.3594  -18.0833   21.1832 F   0  0  0  0  0  0  0  0  0  0  0  0
  -28.9123  -19.8977   17.0964 F   0  0  0  0  0  0  0  0  0  0  0  0
  1  2  1  0  0  0  0
  1  5  2  0  0  0  0
  2  6  2  0  0  0  0
  3  8  2  0  0  0  0
  3 17  1  0  0  0  0
  4  9  1  0  0  0  0
  4 17  2  0  0  0  0
  5 19  1  0  0  0  0
  6 21  1  0  0  0  0
  7 10  2  0  0  0  0
  7 20  1  0  0  0  0
  8 25  1  0  0  0  0
  9 25  2  0  0  0  0
 10 26  1  0  0  0  0
 11 12  2  0  0  0  0
 11 27  1  0  0  0  0
 12 28  1  0  0  0  0
 13 22  1  0  0  0  0
 13 26  2  0  0  0  0
 14 23  2  0  0  0  0
 14 31  1  0  0  0  0
 15 28  2  0  0  0  0
 15 29  1  0  0  0  0
 16 24  2  0  0  0  0
 16 66  1  0  0  0  0
 17 30  1  0  0  0  0
 18 30  1  0  0  0  0
 18 32  2  0  0  0  0
 18 33  1  0  0  0  0
 19 21  2  0  0  0  0
 19 38  1  0  0  0  0
 20 22  2  0  0  0  0
 20 39  1  0  0  0  0
 21 47  1  0  0  0  0
 22 40  1  0  0  0  0
 23 24  1  0  0  0  0
 23 57  1  0  0  0  0
 24 58  1  0  0  0  0
 25 82  1  0  0  0  0
 26 83  1  0  0  0  0
 27 29  2  0  0  0  0
 27 82  1  0  0  0  0
 28 85  1  0  0  0  0
 29 86  1  0  0  0  0
 30 67  2  0  0  0  0
 31 66  2  0  0  0  0
 31 84  1  0  0  0  0
 32 68  1  0  0  0  0
 32 71  1  0  0  0  0
 33 72  1  0  0  0  0
 33 77  2  0  0  0  0
 34 48  1  0  0  0  0
 34 73  1  0  0  0  0
 34 78  2  0  0  0  0
 35 62  1  0  0  0  0
 35 69  1  0  0  0  0
 35 79  2  0  0  0  0
 36 63  1  0  0  0  0
 36 74  1  0  0  0  0
 36 80  2  0  0  0  0
 37 70  1  0  0  0  0
 37 75  1  0  0  0  0
 37 81  2  0  0  0  0
 38 41  1  0  0  0  0
 39 48  1  0  0  0  0
 40 69  1  0  0  0  0
 41 43  1  0  0  0  0
 42 44  1  0  0  0  0
 42 45  1  0  0  0  0
 43 47  1  0  0  0  0
 44 49  1  0  0  0  0
 45 70  1  0  0  0  0
 46 49  1  0  0  0  0
 46 70  1  0  0  0  0
 47 73  1  0  0  0  0
 48 69  1  0  0  0  0
 49 68  1  0  0  0  0
 50 63  1  0  0  0  0
 51 64  1  0  0  0  0
 52 64  1  0  0  0  0
 53 65  1  0  0  0  0
 54 65  1  0  0  0  0
 55 65  1  0  0  0  0
 56 76  1  0  0  0  0
 57 64  1  0  0  0  0
 58 59  1  0  0  0  0
 59 75  1  0  0  0  0
 60 61  1  0  0  0  0
 60 83  1  0  0  0  0
 61 84  1  0  0  0  0
 62 65  1  0  0  0  0
 62 74  1  0  0  0  0
 63 76  1  0  0  0  0
 67 68  1  0  0  0  0
M  CHG  1  76   1
M  ISO  4  37 100  60 101  75 100  83 101
M  END
> <Batch ID>
0140

> <Smiles>
CNC(C)C(=O)NC(C(=O)N1Cc2cc([101O:1][101CH2:1]COc3cc(CC(C)C)c(CC[100NH:0][100C:0](=O)N4CCCC(n5nc(-c6ccc(Oc7ccc(F)cc7F)cc6)c(C(N)=O)c5N)C4)cn3)ccc2CC1C(=O)NC1CCCc2ccccc21)C(C)(C)C

> <Shape>
0.249

> <Color>
0.064

> <Negative vol penalty>
0.000

$$$$

  -OEChem-04052321133D

 87 96  0     1  0  0  0  0  0999 V2000
  -20.1764  -31.8120   21.6266 C   0  0  0  0  0  0  0  0  0  0  0  0
  -21.4414  -31.2340   21.6606 C   0  0  0  0  0  0  0  0  0  0  0  0
  -24.0739  -11.9195   24.8301 C   0  0  0  0  0  0  0  0  0  0  0  0
  -23.6911  -14.1908   25.5593 C   0  0  0  0  0  0  0  0  0  0  0  0
  -19.0529  -31.0466   21.9361 C   0  0  0  0  0  0  0  0  0  0  0  0
  -21.5836  -29.8903   22.0053 C   0  0  0  0  0  0  0  0  0  0  0  0
  -24.7737  -27.4259   18.9402 C   0  0  0  0  0  0  0  0  0  0  0  0
  -23.4193  -11.4443   25.9664 C   0  0  0  0  0  0  0  0  0  0  0  0
  -23.0364  -13.7156   26.6956 C   0  0  0  0  0  0  0  0  0  0  0  0
  -26.1380  -27.6177   19.1539 C   0  0  0  0  0  0  0  0  0  0  0  0
  -21.5323   -9.6379   28.4945 C   0  0  0  0  0  0  0  0  0  0  0  0
  -20.6089   -8.6060   28.3270 C   0  0  0  0  0  0  0  0  0  0  0  0
  -26.2411  -25.5194   20.3396 C   0  0  0  0  0  0  0  0  0  0  0  0
  -28.6121  -21.8078   20.1853 C   0  0  0  0  0  0  0  0  0  0  0  0
  -29.8567  -19.3947   19.5446 C   0  0  0  0  0  0  0  0  0  0  0  0
  -19.3075  -10.0098   26.8530 C   0  0  0  0  0  0  0  0  0  0  0  0
  -24.2099  -13.2928   24.6266 C   0  0  0  0  0  0  0  0  0  0  0  0
  -24.3113  -14.0883   22.2049 C   0  0  0  0  0  0  0  0  0  0  0  0
  -19.1806  -29.6904   22.2752 C   0  0  0  0  0  0  0  0  0  0  0  0
  -24.1296  -26.2827   19.4348 C   0  0  0  0  0  0  0  0  0  0  0  0
  -20.4609  -29.1064   22.3208 C   0  0  0  0  0  0  0  0  0  0  0  0
  -24.8691  -25.3142   20.1285 C   0  0  0  0  0  0  0  0  0  0  0  0
  -29.2078  -21.6407   18.9352 C   0  0  0  0  0  0  0  0  0  0  0  0
  -28.6387  -20.7683   21.1151 C   0  0  0  0  0  0  0  0  0  0  0  0
  -29.8301  -20.4342   18.6148 C   0  0  0  0  0  0  0  0  0  0  0  0
  -29.2611  -19.5618   20.7947 C   0  0  0  0  0  0  0  0  0  0  0  0
  -22.9005  -12.3424   26.8992 C   0  0  0  0  0  0  0  0  0  0  0  0
  -26.8714  -26.6658   19.8562 C   0  0  0  0  0  0  0  0  0  0  0  0
  -21.3433  -10.8558   27.8413 C   0  0  0  0  0  0  0  0  0  0  0  0
  -19.4965   -8.7919   27.5063 C   0  0  0  0  0  0  0  0  0  0  0  0
  -20.2309  -11.0417   27.0205 C   0  0  0  0  0  0  0  0  0  0  0  0
  -24.8865  -13.7843   23.4533 C   0  0  0  0  0  0  0  0  0  0  0  0
  -25.3662  -14.5141   21.4353 C   0  0  0  0  0  0  0  0  0  0  0  0
  -30.4024  -24.5516   19.3757 C   0  0  0  0  0  0  0  0  0  0  0  0
  -22.9454  -13.9943   21.7791 C   0  0  0  0  0  0  0  0  0  0  0  0
  -21.7837  -25.7522   21.5130 C   0  0  0  0  0  0  0  0  0  0  0  0
  -22.1192  -22.6841   20.5147 C   0  0  0  0  0  0  0  0  0  0  0  0
  -24.1160  -20.2925   19.1219 C   0  0  0  0  0  0  0  0  0  0  0  0
  -30.2838  -17.5151   21.8490 C   0  0  0  0  0  0  0  0  0  0  0  0
  -17.9415  -28.9156   22.6479 C   0  0  0  0  0  0  0  0  0  0  0  0
  -22.6627  -26.0777   19.1727 C   0  0  0  0  0  0  0  0  0  0  0  0
  -24.2289  -24.0598   20.6626 C   0  0  0  0  0  0  0  0  0  0  0  0
  -18.1434  -27.4025   22.6386 C   0  0  0  0  0  0  0  0  0  0  0  0
  -30.2788  -13.9606   21.6434 C   0  0  0  0  0  0  0  0  0  0  0  0
  -19.4336  -27.0317   23.3630 C   0  0  0  0  0  0  0  0  0  0  0  0
  -28.8320  -13.5807   21.9668 C   0  0  0  0  0  0  0  0  0  0  0  0
  -30.7502  -15.1549   22.4711 C   0  0  0  0  0  0  0  0  0  0  0  0
  -30.2894  -25.0563   17.3389 C   0  0  0  0  0  0  0  0  0  0  0  0
  -28.4353  -15.9577   22.7283 C   0  0  0  0  0  0  0  0  0  0  0  0
  -20.6537  -27.6456   22.6659 C   0  0  1  0  0  0  0  0  0  0  0  0
  -30.3638  -23.6973   18.0863 C   0  0  2  0  0  0  0  0  0  0  0  0
  -22.0057  -25.1244   20.1661 C   0  0  1  0  0  0  0  0  0  0  0  0
  -27.8946  -14.8006   21.8725 C   0  0  2  0  0  0  0  0  0  0  0  0
  -27.9926  -20.9750   22.4465 C   0  0  0  0  0  0  0  0  0  0  0  0
  -30.4747  -20.2324   17.2827 C   0  0  0  0  0  0  0  0  0  0  0  0
  -24.1248  -17.8699   18.4676 C   0  0  0  0  0  0  0  0  0  0  0  0
  -22.4288  -21.8959   23.4461 C   0  0  0  0  0  0  0  0  0  0  0  0
  -23.3625  -19.7011   22.6851 C   0  0  0  0  0  0  0  0  0  0  0  0
  -21.0245  -20.3341   22.0886 C   0  0  0  0  0  0  0  0  0  0  0  0
  -24.5858  -20.9439   16.2734 C   0  0  0  0  0  0  0  0  0  0  0  0
  -29.1666  -22.7789   17.9463 C   0  0  0  0  0  0  0  0  0  0  0  0
  -30.3440  -27.0740   18.9959 C   0  0  0  0  0  0  0  0  0  0  0  0
  -28.9196  -27.5926   19.0806 C   0  0  0  0  0  0  0  0  0  1  0  0
  -22.9544  -21.5039   20.9489 C   0  0  1  0  0  0  0  0  0  0  0  0
  -23.8644  -19.2952   18.0055 C   0  0  2  0  0  0  0  0  0  0  0  0
  -22.4545  -20.8832   22.2839 C   0  0  0  0  0  0  0  0  0  0  0  0
  -26.2047  -13.9985   23.4795 N   0  0  0  0  0  0  0  0  0  0  0  0
  -26.4664  -14.4417   22.2380 N   0  0  0  0  0  0  0  0  0  0  0  0
  -30.3855  -25.6799   18.6422 N   0  0  0  0  0  0  0  0  0  0  0  0
  -22.7909  -23.9081   20.3861 N   0  0  0  0  0  0  0  0  0  0  0  0
  -29.8158  -16.2738   22.3295 N   0  0  0  0  0  0  0  0  0  0  0  0
  -25.4507  -14.9395   20.1569 N   0  0  0  0  0  0  0  0  0  0  0  0
  -21.9894  -13.5378   22.6967 N   0  0  0  0  0  0  0  0  0  0  0  0
  -29.2985  -18.4941   21.7256 N   0  0  0  0  0  0  0  0  0  0  0  0
  -20.9947  -26.8862   21.4820 N   0  0  0  0  0  0  0  0  0  0  0  0
  -22.9635  -20.5745   19.8243 N   0  0  0  0  0  0  0  0  0  0  0  0
  -24.7530  -19.5825   16.8442 N   0  3  0  0  0  0  0  0  0  0  0  0
  -30.4279  -24.3371   20.5657 O   0  0  0  0  0  0  0  0  0  0  0  0
  -22.5861  -14.2904   20.6143 O   0  0  0  0  0  0  0  0  0  0  0  0
  -22.2895  -25.2444   22.5070 O   0  0  0  0  0  0  0  0  0  0  0  0
  -20.9167  -22.5243   20.2908 O   0  0  0  0  0  0  0  0  0  0  0  0
  -25.2250  -20.7706   19.3506 O   0  0  0  0  0  0  0  0  0  0  0  0
  -31.4661  -17.6882   21.5420 O   0  0  0  0  0  0  0  0  0  0  0  0
  -22.2614  -11.8790   28.0080 O   0  0  0  0  0  0  0  0  0  0  0  0
  -28.2030  -26.8508   20.0668 O   0  0  0  0  0  0  0  0  0  1  0  0
  -18.6107   -7.8003   27.3443 F   0  0  0  0  0  0  0  0  0  0  0  0
  -20.0446  -12.2091   26.3895 F   0  0  0  0  0  0  0  0  0  0  0  0
  1  2  1  0  0  0  0
  1  5  2  0  0  0  0
  2  6  2  0  0  0  0
  3  8  2  0  0  0  0
  3 17  1  0  0  0  0
  4  9  1  0  0  0  0
  4 17  2  0  0  0  0
  5 19  1  0  0  0  0
  6 21  1  0  0  0  0
  7 10  2  0  0  0  0
  7 20  1  0  0  0  0
  8 27  1  0  0  0  0
  9 27  2  0  0  0  0
 10 28  1  0  0  0  0
 11 12  2  0  0  0  0
 11 29  1  0  0  0  0
 12 30  1  0  0  0  0
 13 22  1  0  0  0  0
 13 28  2  0  0  0  0
 14 23  1  0  0  0  0
 14 24  2  0  0  0  0
 15 25  1  0  0  0  0
 15 26  2  0  0  0  0
 16 30  2  0  0  0  0
 16 31  1  0  0  0  0
 17 32  1  0  0  0  0
 18 32  1  0  0  0  0
 18 33  2  0  0  0  0
 18 35  1  0  0  0  0
 19 21  2  0  0  0  0
 19 40  1  0  0  0  0
 20 22  2  0  0  0  0
 20 41  1  0  0  0  0
 21 50  1  0  0  0  0
 22 42  1  0  0  0  0
 23 25  2  0  0  0  0
 23 61  1  0  0  0  0
 24 26  1  0  0  0  0
 24 54  1  0  0  0  0
 25 55  1  0  0  0  0
 26 74  1  0  0  0  0
 27 84  1  0  0  0  0
 28 85  1  0  0  0  0
 29 31  2  0  0  0  0
 29 84  1  0  0  0  0
 30 86  1  0  0  0  0
 31 87  1  0  0  0  0
 32 67  2  0  0  0  0
 33 68  1  0  0  0  0
 33 72  1  0  0  0  0
 34 51  1  0  0  0  0
 34 69  1  0  0  0  0
 34 78  2  0  0  0  0
 35 73  1  0  0  0  0
 35 79  2  0  0  0  0
 36 52  1  0  0  0  0
 36 75  1  0  0  0  0
 36 80  2  0  0  0  0
 37 64  1  0  0  0  0
 37 70  1  0  0  0  0
 37 81  2  0  0  0  0
 38 65  1  0  0  0  0
 38 76  1  0  0  0  0
 38 82  2  0  0  0  0
 39 71  1  0  0  0  0
 39 74  1  0  0  0  0
 39 83  2  0  0  0  0
 40 43  1  0  0  0  0
 41 52  1  0  0  0  0
 42 70  1  0  0  0  0
 43 45  1  0  0  0  0
 44 46  1  0  0  0  0
 44 47  1  0  0  0  0
 45 50  1  0  0  0  0
 46 53  1  0  0  0  0
 47 71  1  0  0  0  0
 48 51  1  0  0  0  0
 48 69  1  0  0  0  0
 49 53  1  0  0  0  0
 49 71  1  0  0  0  0
 50 75  1  0  0  0  0
 51 61  1  0  0  0  0
 52 70  1  0  0  0  0
 53 68  1  0  0  0  0
 56 65  1  0  0  0  0
 57 66  1  0  0  0  0
 58 66  1  0  0  0  0
 59 66  1  0  0  0  0
 60 77  1  0  0  0  0
 62 63  1  0  0  0  0
 62 69  1  0  0  0  0
 63 85  1  0  0  0  0
 64 66  1  0  0  0  0
 64 76  1  0  0  0  0
 65 77  1  0  0  0  0
 67 68  1  0  0  0  0
M  CHG  1  77   1
M  ISO  4  39 100  63 101  74 100  85 101
M  END
> <Batch ID>
0140

> <Smiles>
CNC(C)C(=O)NC(C(=O)N1Cc2cc([101O:1][101CH2:1]CN3CC(Cc4cc(C)c([100NH:0][100C:0](=O)N5CCCC(n6nc(-c7ccc(Oc8ccc(F)cc8F)cc7)c(C(N)=O)c6N)C5)cc4C)C3=O)ccc2CC1C(=O)NC1CCCc2ccccc21)C(C)(C)C

> <Shape>
0.211

> <Color>
0.093

> <Negative vol penalty>
0.000

$$$$

  -OEChem-04052321133D

 87 96  0     1  0  0  0  0  0999 V2000
  -28.4679  -24.6905   16.9957 C   0  0  0  0  0  0  0  0  0  0  0  0
  -27.3104  -24.8056   17.7588 C   0  0  0  0  0  0  0  0  0  0  0  0
  -23.8749  -11.8037   20.8534 C   0  0  0  0  0  0  0  0  0  0  0  0
  -25.4848  -13.6040   20.7903 C   0  0  0  0  0  0  0  0  0  0  0  0
  -29.6328  -25.3442   17.3953 C   0  0  0  0  0  0  0  0  0  0  0  0
  -27.3174  -25.5736   18.9227 C   0  0  0  0  0  0  0  0  0  0  0  0
  -23.2411  -28.5535   19.3085 C   0  0  0  0  0  0  0  0  0  0  0  0
  -24.8528  -10.9136   20.4096 C   0  0  0  0  0  0  0  0  0  0  0  0
  -26.4628  -12.7139   20.3465 C   0  0  0  0  0  0  0  0  0  0  0  0
  -22.0511  -27.9545   19.7195 C   0  0  0  0  0  0  0  0  0  0  0  0
  -27.3428  -11.2252   17.4413 C   0  0  0  0  0  0  0  0  0  0  0  0
  -28.1564  -11.6310   16.3835 C   0  0  0  0  0  0  0  0  0  0  0  0
  -22.4123  -28.7852   21.9553 C   0  0  0  0  0  0  0  0  0  0  0  0
  -21.5951  -23.7760   24.0594 C   0  0  0  0  0  0  0  0  0  0  0  0
  -30.1053  -11.3939   17.7916 C   0  0  0  0  0  0  0  0  0  0  0  0
  -24.1909  -13.1489   21.0437 C   0  0  0  0  0  0  0  0  0  0  0  0
  -22.8694  -14.3945   22.8353 C   0  0  0  0  0  0  0  0  0  0  0  0
  -29.6514  -26.1285   18.5594 C   0  0  0  0  0  0  0  0  0  0  0  0
  -24.0325  -29.2648   20.2218 C   0  0  0  0  0  0  0  0  0  0  0  0
  -28.4840  -26.2373   19.3389 C   0  0  0  0  0  0  0  0  0  0  0  0
  -23.6106  -29.3945   21.5527 C   0  0  0  0  0  0  0  0  0  0  0  0
  -22.7426  -21.9841   22.9383 C   0  0  0  0  0  0  0  0  0  0  0  0
  -22.5181  -22.7365   24.0859 C   0  0  0  0  0  0  0  0  0  0  0  0
  -26.1468  -11.3687   20.1562 C   0  0  0  0  0  0  0  0  0  0  0  0
  -21.6380  -28.0679   21.0438 C   0  0  0  0  0  0  0  0  0  0  0  0
  -27.9104  -10.9038   18.6744 C   0  0  0  0  0  0  0  0  0  0  0  0
  -29.5377  -11.7153   16.5587 C   0  0  0  0  0  0  0  0  0  0  0  0
  -29.2917  -10.9882   18.8495 C   0  0  0  0  0  0  0  0  0  0  0  0
  -23.1810  -14.0690   21.5016 C   0  0  0  0  0  0  0  0  0  0  0  0
  -20.9279  -24.0208   22.8699 C   0  0  0  0  0  0  0  0  0  0  0  0
  -22.0239  -22.3090   21.7991 C   0  0  0  0  0  0  0  0  0  0  0  0
  -21.8471  -15.3064   22.7363 C   0  0  0  0  0  0  0  0  0  0  0  0
  -23.4521  -13.9156   24.0546 C   0  0  0  0  0  0  0  0  0  0  0  0
  -26.9854  -28.9473   21.3546 C   0  0  0  0  0  0  0  0  0  0  0  0
  -26.3309  -31.7923   22.7687 C   0  0  0  0  0  0  0  0  0  0  0  0
  -23.9813  -33.9754   23.9351 C   0  0  0  0  0  0  0  0  0  0  0  0
  -20.1888  -19.1212   18.4295 C   0  0  0  0  0  0  0  0  0  0  0  0
  -30.9472  -26.7779   18.9765 C   0  0  0  0  0  0  0  0  0  0  0  0
  -25.2999  -29.9277   19.7565 C   0  0  0  0  0  0  0  0  0  0  0  0
  -24.4138  -30.1645   22.5678 C   0  0  0  0  0  0  0  0  0  0  0  0
  -30.7692  -27.8764   20.0215 C   0  0  0  0  0  0  0  0  0  0  0  0
  -18.2046  -16.5543   19.8962 C   0  0  0  0  0  0  0  0  0  0  0  0
  -23.2667  -19.4916   22.5065 C   0  0  0  0  0  0  0  0  0  0  0  0
  -23.5808  -19.7568   23.9457 C   0  0  0  0  0  0  0  0  0  0  0  0
  -29.8419  -27.4062   21.1377 C   0  0  0  0  0  0  0  0  0  0  0  0
  -19.2269  -15.6557   20.5943 C   0  0  0  0  0  0  0  0  0  0  0  0
  -18.7477  -17.1121   18.5824 C   0  0  0  0  0  0  0  0  0  0  0  0
  -21.0666  -16.9074   19.3913 C   0  0  0  0  0  0  0  0  0  0  0  0
  -23.7252  -20.8612   22.9323 C   0  0  0  0  0  0  0  0  0  0  0  0
  -28.4452  -27.0813   20.5944 C   0  0  1  0  0  0  0  0  0  0  0  0
  -26.2861  -30.1933   20.8897 C   0  0  1  0  0  0  0  0  0  0  0  0
  -20.5852  -16.3660   20.7483 C   0  0  2  0  0  0  0  0  0  0  0  0
  -23.2521  -22.4494   25.3544 C   0  0  0  0  0  0  0  0  0  0  0  0
  -23.7521  -36.2006   25.0724 C   0  0  0  0  0  0  0  0  0  0  0  0
  -27.1348  -30.5167   25.4213 C   0  0  0  0  0  0  0  0  0  0  0  0
  -26.0050  -32.4163   26.5974 C   0  0  0  0  0  0  0  0  0  0  0  0
  -27.9507  -32.8589   25.1005 C   0  0  0  0  0  0  0  0  0  0  0  0
  -22.4852  -35.1186   21.6518 C   0  0  0  0  0  0  0  0  0  0  0  0
  -19.2401  -25.4347   21.6962 C   0  0  0  0  0  0  0  0  0  0  0  0
  -21.7485  -21.0501   18.3552 C   0  0  0  0  0  0  0  0  0  0  0  0
  -20.0753  -26.2971   20.7646 C   0  0  0  0  0  0  0  0  0  1  0  0
  -21.4445  -21.9800   19.5161 C   0  0  0  0  0  0  0  0  0  0  0  0
  -25.7259  -32.2180   24.0847 C   0  0  1  0  0  0  0  0  0  0  0  0
  -23.8106  -35.4710   23.7393 C   0  0  2  0  0  0  0  0  0  0  0  0
  -26.6897  -31.9863   25.2825 C   0  0  0  0  0  0  0  0  0  0  0  0
  -22.4182  -14.7208   20.6200 N   0  0  0  0  0  0  0  0  0  0  0  0
  -21.1192  -23.3116   21.7351 N   0  0  0  0  0  0  0  0  0  0  0  0
  -21.6171  -15.4651   21.4014 N   0  0  0  0  0  0  0  0  0  0  0  0
  -25.6487  -30.7893   22.0656 N   0  0  0  0  0  0  0  0  0  0  0  0
  -20.0365  -17.7743   18.7979 N   0  0  0  0  0  0  0  0  0  0  0  0
  -21.1313  -15.9798   23.6618 N   0  0  0  0  0  0  0  0  0  0  0  0
  -24.4933  -12.9808   23.9755 N   0  0  0  0  0  0  0  0  0  0  0  0
  -20.0117  -25.0594   22.8589 N   0  0  0  0  0  0  0  0  0  0  0  0
  -27.6970  -28.2985   20.3636 N   0  0  0  0  0  0  0  0  0  0  0  0
  -25.3095  -33.6056   23.9126 N   0  0  0  0  0  0  0  0  0  0  0  0
  -21.4400  -19.6739   18.6738 N   0  0  0  0  0  0  0  0  0  0  0  0
  -22.5529  -35.7554   22.9923 N   0  3  0  0  0  0  0  0  0  0  0  0
  -23.0500  -14.2928   25.1814 O   0  0  0  0  0  0  0  0  0  0  0  0
  -26.8877  -28.6010   22.5260 O   0  0  0  0  0  0  0  0  0  0  0  0
  -27.3665  -32.3350   22.3755 O   0  0  0  0  0  0  0  0  0  0  0  0
  -23.0316  -33.2120   24.0959 O   0  0  0  0  0  0  0  0  0  0  0  0
  -19.2755  -19.7838   17.9255 O   0  0  0  0  0  0  0  0  0  0  0  0
  -27.1014  -10.5004   19.7233 O   0  0  0  0  0  0  0  0  0  0  0  0
  -20.4773  -27.4836   21.4478 O   0  0  0  0  0  0  0  0  0  1  0  0
  -22.2155  -21.5919   20.6467 O   0  0  0  0  0  0  0  0  0  0  0  0
  -30.3190  -12.1035   15.5423 F   0  0  0  0  0  0  0  0  0  0  0  0
  -29.8429  -10.6796   20.0313 F   0  0  0  0  0  0  0  0  0  0  0  0
  1  2  1  0  0  0  0
  1  5  2  0  0  0  0
  2  6  2  0  0  0  0
  3  8  2  0  0  0  0
  3 16  1  0  0  0  0
  4  9  1  0  0  0  0
  4 16  2  0  0  0  0
  5 18  1  0  0  0  0
  6 20  1  0  0  0  0
  7 10  2  0  0  0  0
  7 19  1  0  0  0  0
  8 24  1  0  0  0  0
  9 24  2  0  0  0  0
 10 25  1  0  0  0  0
 11 12  2  0  0  0  0
 11 26  1  0  0  0  0
 12 27  1  0  0  0  0
 13 21  1  0  0  0  0
 13 25  2  0  0  0  0
 14 23  2  0  0  0  0
 14 30  1  0  0  0  0
 15 27  2  0  0  0  0
 15 28  1  0  0  0  0
 16 29  1  0  0  0  0
 17 29  1  0  0  0  0
 17 32  2  0  0  0  0
 17 33  1  0  0  0  0
 18 20  2  0  0  0  0
 18 38  1  0  0  0  0
 19 21  2  0  0  0  0
 19 39  1  0  0  0  0
 20 50  1  0  0  0  0
 21 40  1  0  0  0  0
 22 23  1  0  0  0  0
 22 31  2  0  0  0  0
 22 49  1  0  0  0  0
 23 53  1  0  0  0  0
 24 83  1  0  0  0  0
 25 84  1  0  0  0  0
 26 28  2  0  0  0  0
 26 83  1  0  0  0  0
 27 86  1  0  0  0  0
 28 87  1  0  0  0  0
 29 66  2  0  0  0  0
 30 67  2  0  0  0  0
 30 73  1  0  0  0  0
 31 67  1  0  0  0  0
 31 85  1  0  0  0  0
 32 68  1  0  0  0  0
 32 71  1  0  0  0  0
 33 72  1  0  0  0  0
 33 78  2  0  0  0  0
 34 51  1  0  0  0  0
 34 74  1  0  0  0  0
 34 79  2  0  0  0  0
 35 63  1  0  0  0  0
 35 69  1  0  0  0  0
 35 80  2  0  0  0  0
 36 64  1  0  0  0  0
 36 75  1  0  0  0  0
 36 81  2  0  0  0  0
 37 70  1  0  0  0  0
 37 76  1  0  0  0  0
 37 82  2  0  0  0  0
 38 41  1  0  0  0  0
 39 51  1  0  0  0  0
 40 69  1  0  0  0  0
 41 45  1  0  0  0  0
 42 46  1  0  0  0  0
 42 47  1  0  0  0  0
 43 44  1  0  0  0  0
 43 49  1  0  0  0  0
 44 49  1  0  0  0  0
 45 50  1  0  0  0  0
 46 52  1  0  0  0  0
 47 70  1  0  0  0  0
 48 52  1  0  0  0  0
 48 70  1  0  0  0  0
 50 74  1  0  0  0  0
 51 69  1  0  0  0  0
 52 68  1  0  0  0  0
 54 64  1  0  0  0  0
 55 65  1  0  0  0  0
 56 65  1  0  0  0  0
 57 65  1  0  0  0  0
 58 77  1  0  0  0  0
 59 61  1  0  0  0  0
 59 73  1  0  0  0  0
 60 62  1  0  0  0  0
 60 76  1  0  0  0  0
 61 84  1  0  0  0  0
 62 85  1  0  0  0  0
 63 65  1  0  0  0  0
 63 75  1  0  0  0  0
 64 77  1  0  0  0  0
 66 68  1  0  0  0  0
M  CHG  1  77   1
M  ISO  4  37 100  61 101  76 100  84 101
M  END
> <Batch ID>
0140

> <Smiles>
CNC(C)C(=O)NC(C(=O)N1Cc2cc([101O:1][101CH2:1]CNc3cc(C)c(C4CC4)c(OCC[100NH:0][100C:0](=O)N4CCCC(n5nc(-c6ccc(Oc7ccc(F)cc7F)cc6)c(C(N)=O)c5N)C4)n3)ccc2CC1C(=O)NC1CCCc2ccccc21)C(C)(C)C

> <Shape>
0.254

> <Color>
0.085

> <Negative vol penalty>
0.000

$$$$

  -OEChem-04052321133D

 82 91  0     1  0  0  0  0  0999 V2000
  -32.0162  -24.1270   12.7853 C   0  0  0  0  0  0  0  0  0  0  0  0
  -31.8916  -23.3597   13.9391 C   0  0  0  0  0  0  0  0  0  0  0  0
  -23.2415   -9.7284   20.0444 C   0  0  0  0  0  0  0  0  0  0  0  0
  -23.7378   -9.9891   22.3944 C   0  0  0  0  0  0  0  0  0  0  0  0
  -32.0902  -25.5162   12.8781 C   0  0  0  0  0  0  0  0  0  0  0  0
  -31.8421  -23.9811   15.1864 C   0  0  0  0  0  0  0  0  0  0  0  0
  -28.2210  -22.0702   18.1665 C   0  0  0  0  0  0  0  0  0  0  0  0
  -22.5029   -8.5796   20.3277 C   0  0  0  0  0  0  0  0  0  0  0  0
  -22.9992   -8.8403   22.6778 C   0  0  0  0  0  0  0  0  0  0  0  0
  -28.4875  -20.8528   18.7916 C   0  0  0  0  0  0  0  0  0  0  0  0
  -19.7444   -7.9904   23.0013 C   0  0  0  0  0  0  0  0  0  0  0  0
  -18.8617   -8.0390   24.0802 C   0  0  0  0  0  0  0  0  0  0  0  0
  -29.0305  -22.0247   20.8290 C   0  0  0  0  0  0  0  0  0  0  0  0
  -28.5680  -17.0035   21.9630 C   0  0  0  0  0  0  0  0  0  0  0  0
  -20.0597   -6.2296   25.1422 C   0  0  0  0  0  0  0  0  0  0  0  0
  -30.3141  -16.3857   20.4710 C   0  0  0  0  0  0  0  0  0  0  0  0
  -23.8590  -10.4332   21.0777 C   0  0  0  0  0  0  0  0  0  0  0  0
  -24.1496  -12.9448   20.7386 C   0  0  0  0  0  0  0  0  0  0  0  0
  -32.0319  -26.1555   14.1265 C   0  0  0  0  0  0  0  0  0  0  0  0
  -28.3681  -23.2767   18.8659 C   0  0  0  0  0  0  0  0  0  0  0  0
  -31.9168  -25.3800   15.2960 C   0  0  0  0  0  0  0  0  0  0  0  0
  -28.7629  -23.2559   20.2113 C   0  0  0  0  0  0  0  0  0  0  0  0
  -29.2972  -17.2643   20.8082 C   0  0  0  0  0  0  0  0  0  0  0  0
  -28.8736  -15.8878   22.7344 C   0  0  0  0  0  0  0  0  0  0  0  0
  -22.3817   -8.1355   21.6445 C   0  0  0  0  0  0  0  0  0  0  0  0
  -28.8951  -20.8301   20.1222 C   0  0  0  0  0  0  0  0  0  0  0  0
  -20.7849   -7.0612   22.9928 C   0  0  0  0  0  0  0  0  0  0  0  0
  -19.0193   -7.1587   25.1506 C   0  0  0  0  0  0  0  0  0  0  0  0
  -20.9425   -6.1809   24.0633 C   0  0  0  0  0  0  0  0  0  0  0  0
  -24.6225  -11.6196   20.7855 C   0  0  0  0  0  0  0  0  0  0  0  0
  -29.9093  -15.0707   22.3109 C   0  0  0  0  0  0  0  0  0  0  0  0
  -25.2569  -13.6935   20.4226 C   0  0  0  0  0  0  0  0  0  0  0  0
  -22.8277  -13.4534   20.9610 C   0  0  0  0  0  0  0  0  0  0  0  0
  -30.1986  -25.8539   18.5327 C   0  0  0  0  0  0  0  0  0  0  0  0
  -28.3737  -26.9856   20.9640 C   0  0  0  0  0  0  0  0  0  0  0  0
  -26.3708  -26.3061   23.6423 C   0  0  0  0  0  0  0  0  0  0  0  0
  -31.1959  -12.1982   21.1261 C   0  0  0  0  0  0  0  0  0  0  0  0
  -32.1633  -27.6570   14.1800 C   0  0  0  0  0  0  0  0  0  0  0  0
  -28.0510  -24.5799   18.1852 C   0  0  0  0  0  0  0  0  0  0  0  0
  -28.9163  -24.5221   21.0123 C   0  0  0  0  0  0  0  0  0  0  0  0
  -31.7267  -28.2596   15.5129 C   0  0  0  0  0  0  0  0  0  0  0  0
  -29.4181  -13.4549   18.1278 C   0  0  0  0  0  0  0  0  0  0  0  0
  -32.3230  -27.4724   16.6755 C   0  0  0  0  0  0  0  0  0  0  0  0
  -27.9581  -13.1466   18.4455 C   0  0  0  0  0  0  0  0  0  0  0  0
  -31.5836  -13.9262   24.0300 C   0  0  0  0  0  0  0  0  0  0  0  0
  -30.3630  -12.4892   18.8341 C   0  0  0  0  0  0  0  0  0  0  0  0
  -32.1948  -12.6724   23.4154 C   0  0  0  0  0  0  0  0  0  0  0  0
  -28.7113  -12.1432   20.6410 C   0  0  0  0  0  0  0  0  0  0  0  0
  -31.8348  -26.0188   16.6655 C   0  0  1  0  0  0  0  0  0  0  0  0
  -30.3709  -13.7659   23.0856 C   0  0  2  0  0  0  0  0  0  0  0  0
  -28.7302  -25.7778   18.8418 C   0  0  1  0  0  0  0  0  0  0  0  0
  -27.7319  -13.1166   19.9645 C   0  0  2  0  0  0  0  0  0  0  0  0
  -28.1030  -15.5937   23.9736 C   0  0  0  0  0  0  0  0  0  0  0  0
  -25.0568  -27.4370   25.4567 C   0  0  0  0  0  0  0  0  0  0  0  0
  -30.9632  -27.5843   22.4627 C   0  0  0  0  0  0  0  0  0  0  0  0
  -29.6163  -27.8007   24.5621 C   0  0  0  0  0  0  0  0  0  0  0  0
  -29.2115  -29.3588   22.6565 C   0  0  0  0  0  0  0  0  0  0  0  0
  -23.8260  -25.1318   22.6913 C   0  0  0  0  0  0  0  0  0  0  0  0
  -28.9924  -18.4598   19.9543 C   0  0  0  0  0  0  0  0  0  1  0  0
  -28.4600  -26.9519   22.4708 C   0  0  1  0  0  0  0  0  0  0  0  0
  -25.0162  -26.8553   24.0522 C   0  0  2  0  0  0  0  0  0  0  0  0
  -29.5618  -27.9000   23.0226 C   0  0  0  0  0  0  0  0  0  0  0  0
  -30.6401  -15.2917   21.1952 N   0  0  0  0  0  0  0  0  0  0  0  0
  -25.9284  -11.5285   20.5203 N   0  0  0  0  0  0  0  0  0  0  0  0
  -26.2856  -12.8058   20.3037 N   0  0  0  0  0  0  0  0  0  0  0  0
  -28.6006  -25.7715   20.3004 N   0  0  0  0  0  0  0  0  0  0  0  0
  -30.1065  -12.4220   20.2752 N   0  0  0  0  0  0  0  0  0  0  0  0
  -31.1663  -12.7514   22.3856 N   0  0  0  0  0  0  0  0  0  0  0  0
  -25.4412  -15.0179   20.2375 N   0  0  0  0  0  0  0  0  0  0  0  0
  -21.8070  -12.5462   21.2764 N   0  0  0  0  0  0  0  0  0  0  0  0
  -30.4861  -25.9350   17.1836 N   0  0  0  0  0  0  0  0  0  0  0  0
  -27.1182  -27.2448   22.9631 N   0  0  0  0  0  0  0  0  0  0  0  0
  -23.9885  -25.7765   24.0199 N   0  3  0  0  0  0  0  0  0  0  0  0
  -22.5562  -14.6744   20.8661 O   0  0  0  0  0  0  0  0  0  0  0  0
  -31.0106  -25.8415   19.4504 O   0  0  0  0  0  0  0  0  0  0  0  0
  -28.1074  -28.0483   20.3971 O   0  0  0  0  0  0  0  0  0  0  0  0
  -26.7313  -25.1602   23.9022 O   0  0  0  0  0  0  0  0  0  0  0  0
  -32.1822  -11.5442   20.7609 O   0  0  0  0  0  0  0  0  0  0  0  0
  -21.6609   -7.0147   21.9214 O   0  0  0  0  0  0  0  0  0  0  0  0
  -29.1564  -19.6433   20.7346 O   0  0  0  0  0  0  0  0  0  1  0  0
  -18.1724   -7.2066   26.1872 F   0  0  0  0  0  0  0  0  0  0  0  0
  -21.9408   -5.2870   24.0613 F   0  0  0  0  0  0  0  0  0  0  0  0
  1  2  1  0  0  0  0
  1  5  2  0  0  0  0
  2  6  2  0  0  0  0
  3  8  2  0  0  0  0
  3 17  1  0  0  0  0
  4  9  1  0  0  0  0
  4 17  2  0  0  0  0
  5 19  1  0  0  0  0
  6 21  1  0  0  0  0
  7 10  2  0  0  0  0
  7 20  1  0  0  0  0
  8 25  1  0  0  0  0
  9 25  2  0  0  0  0
 10 26  1  0  0  0  0
 11 12  2  0  0  0  0
 11 27  1  0  0  0  0
 12 28  1  0  0  0  0
 13 22  1  0  0  0  0
 13 26  2  0  0  0  0
 14 23  2  0  0  0  0
 14 24  1  0  0  0  0
 15 28  2  0  0  0  0
 15 29  1  0  0  0  0
 16 23  1  0  0  0  0
 16 63  2  0  0  0  0
 17 30  1  0  0  0  0
 18 30  1  0  0  0  0
 18 32  2  0  0  0  0
 18 33  1  0  0  0  0
 19 21  2  0  0  0  0
 19 38  1  0  0  0  0
 20 22  2  0  0  0  0
 20 39  1  0  0  0  0
 21 49  1  0  0  0  0
 22 40  1  0  0  0  0
 23 59  1  0  0  0  0
 24 31  2  0  0  0  0
 24 53  1  0  0  0  0
 25 79  1  0  0  0  0
 26 80  1  0  0  0  0
 27 29  2  0  0  0  0
 27 79  1  0  0  0  0
 28 81  1  0  0  0  0
 29 82  1  0  0  0  0
 30 64  2  0  0  0  0
 31 50  1  0  0  0  0
 31 63  1  0  0  0  0
 32 65  1  0  0  0  0
 32 69  1  0  0  0  0
 33 70  1  0  0  0  0
 33 74  2  0  0  0  0
 34 51  1  0  0  0  0
 34 71  1  0  0  0  0
 34 75  2  0  0  0  0
 35 60  1  0  0  0  0
 35 66  1  0  0  0  0
 35 76  2  0  0  0  0
 36 61  1  0  0  0  0
 36 72  1  0  0  0  0
 36 77  2  0  0  0  0
 37 67  1  0  0  0  0
 37 68  1  0  0  0  0
 37 78  2  0  0  0  0
 38 41  1  0  0  0  0
 39 51  1  0  0  0  0
 40 66  1  0  0  0  0
 41 43  1  0  0  0  0
 42 44  1  0  0  0  0
 42 46  1  0  0  0  0
 43 49  1  0  0  0  0
 44 52  1  0  0  0  0
 45 47  1  0  0  0  0
 45 50  1  0  0  0  0
 46 67  1  0  0  0  0
 47 68  1  0  0  0  0
 48 52  1  0  0  0  0
 48 67  1  0  0  0  0
 49 71  1  0  0  0  0
 50 68  1  0  0  0  0
 51 66  1  0  0  0  0
 52 65  1  0  0  0  0
 54 61  1  0  0  0  0
 55 62  1  0  0  0  0
 56 62  1  0  0  0  0
 57 62  1  0  0  0  0
 58 73  1  0  0  0  0
 59 80  1  0  0  0  0
 60 62  1  0  0  0  0
 60 72  1  0  0  0  0
 61 73  1  0  0  0  0
 64 65  1  0  0  0  0
M  CHG  1  73   1
M  ISO  4  37 100  59 101  68 100  80 101
M  END
> <Batch ID>
0140

> <Smiles>
CNC(C)C(=O)NC(C(=O)N1Cc2cc([101O:1][101CH2:1]c3cnc(C4CC[100N:0]4[100C:0](=O)N4CCCC(n5nc(-c6ccc(Oc7ccc(F)cc7F)cc6)c(C(N)=O)c5N)C4)c(C)c3)ccc2CC1C(=O)NC1CCCc2ccccc21)C(C)(C)C

> <Shape>
0.268

> <Color>
0.200

> <Negative vol penalty>
0.000

$$$$

  -OEChem-04052321133D

 90 99  0     1  0  0  0  0  0999 V2000
  -22.9000  -11.2639   17.9983 C   0  0  0  0  0  0  0  0  0  0  0  0
  -22.6610  -12.6320   17.9175 C   0  0  0  0  0  0  0  0  0  0  0  0
  -28.9510  -26.6119   18.1714 C   0  0  0  0  0  0  0  0  0  0  0  0
  -28.3897  -25.3625   20.1615 C   0  0  0  0  0  0  0  0  0  0  0  0
  -23.7769  -10.7662   18.9613 C   0  0  0  0  0  0  0  0  0  0  0  0
  -23.2980  -13.5032   18.8004 C   0  0  0  0  0  0  0  0  0  0  0  0
  -25.2272  -19.1922   17.6091 C   0  0  0  0  0  0  0  0  0  0  0  0
  -30.2076  -26.0069   18.1459 C   0  0  0  0  0  0  0  0  0  0  0  0
  -29.6463  -24.7574   20.1361 C   0  0  0  0  0  0  0  0  0  0  0  0
  -24.6684  -20.4443   17.8616 C   0  0  0  0  0  0  0  0  0  0  0  0
  -33.6973  -25.0585   17.7637 C   0  0  0  0  0  0  0  0  0  0  0  0
  -34.8055  -25.8715   17.5265 C   0  0  0  0  0  0  0  0  0  0  0  0
  -18.8935  -22.7949   22.3200 C   0  0  0  0  0  0  0  0  0  0  0  0
  -25.9809  -20.6166   19.8783 C   0  0  0  0  0  0  0  0  0  0  0  0
  -20.3629  -24.6460   20.8378 C   0  0  0  0  0  0  0  0  0  0  0  0
  -34.2806  -27.1628   19.4998 C   0  0  0  0  0  0  0  0  0  0  0  0
  -28.0421  -26.2897   19.1792 C   0  0  0  0  0  0  0  0  0  0  0  0
  -25.5665  -26.4558   18.5863 C   0  0  0  0  0  0  0  0  0  0  0  0
  -24.4324  -11.6327   19.8502 C   0  0  0  0  0  0  0  0  0  0  0  0
  -26.1604  -18.6372   18.4964 C   0  0  0  0  0  0  0  0  0  0  0  0
  -24.1835  -13.0166   19.7771 C   0  0  0  0  0  0  0  0  0  0  0  0
  -18.4352  -24.1059   22.1904 C   0  0  0  0  0  0  0  0  0  0  0  0
  -26.5520  -19.3584   19.6333 C   0  0  0  0  0  0  0  0  0  0  0  0
  -20.0865  -22.4094   21.7086 C   0  0  0  0  0  0  0  0  0  0  0  0
  -19.1699  -25.0314   21.4492 C   0  0  0  0  0  0  0  0  0  0  0  0
  -30.5552  -25.0797   19.1283 C   0  0  0  0  0  0  0  0  0  0  0  0
  -25.0431  -21.1555   18.9979 C   0  0  0  0  0  0  0  0  0  0  0  0
  -32.8806  -25.2976   18.8690 C   0  0  0  0  0  0  0  0  0  0  0  0
  -20.8212  -23.3349   20.9675 C   0  0  0  0  0  0  0  0  0  0  0  0
  -35.0972  -26.9237   18.3945 C   0  0  0  0  0  0  0  0  0  0  0  0
  -33.1723  -26.3498   19.7371 C   0  0  0  0  0  0  0  0  0  0  0  0
  -26.7441  -26.9147   19.2063 C   0  0  0  0  0  0  0  0  0  0  0  0
  -24.6191  -27.3960   18.9103 C   0  0  0  0  0  0  0  0  0  0  0  0
  -25.3485  -25.2844   17.7888 C   0  0  0  0  0  0  0  0  0  0  0  0
  -26.2538  -16.0300   20.3122 C   0  0  0  0  0  0  0  0  0  0  0  0
  -29.2981  -17.0011   20.8704 C   0  0  0  0  0  0  0  0  0  0  0  0
  -31.5527  -19.5616   20.9559 C   0  0  0  0  0  0  0  0  0  0  0  0
  -22.1640  -30.7476   22.6365 C   0  0  0  0  0  0  0  0  0  0  0  0
  -25.3352  -11.0437   20.9050 C   0  0  0  0  0  0  0  0  0  0  0  0
  -26.7739  -17.2972   18.1957 C   0  0  0  0  0  0  0  0  0  0  0  0
  -27.5651  -18.8157   20.6067 C   0  0  0  0  0  0  0  0  0  0  0  0
  -26.2575  -12.0693   21.5591 C   0  0  0  0  0  0  0  0  0  0  0  0
  -25.1028  -31.9612   21.0342 C   0  0  0  0  0  0  0  0  0  0  0  0
  -17.2040  -25.1262   24.2194 C   0  0  0  0  0  0  0  0  0  0  0  0
  -16.6932  -23.7282   24.0614 C   0  0  0  0  0  0  0  0  0  0  0  0
  -25.4767  -13.3230   21.9403 C   0  0  0  0  0  0  0  0  0  0  0  0
  -25.6975  -30.7179   20.3704 C   0  0  0  0  0  0  0  0  0  0  0  0
  -24.4643  -31.6309   22.3815 C   0  0  0  0  0  0  0  0  0  0  0  0
  -24.0602  -29.3030   21.6803 C   0  0  0  0  0  0  0  0  0  0  0  0
  -17.1558  -24.4971   22.8525 C   0  0  0  0  0  0  0  0  0  0  0  0
  -24.8745  -13.9960   20.7009 C   0  0  1  0  0  0  0  0  0  0  0  0
  -27.3306  -16.6033   19.4350 C   0  0  1  0  0  0  0  0  0  0  0  0
  -24.6662  -29.5761   20.2931 C   0  0  2  0  0  0  0  0  0  0  0  0
  -20.8194  -18.7459   20.7356 C   0  0  0  0  0  0  0  0  0  0  0  0
  -33.9556  -20.0536   21.4864 C   0  0  0  0  0  0  0  0  0  0  0  0
  -28.6710  -16.8368   23.8520 C   0  0  0  0  0  0  0  0  0  0  0  0
  -30.7166  -18.2131   24.2870 C   0  0  0  0  0  0  0  0  0  0  0  0
  -30.9286  -15.9723   23.2116 C   0  0  0  0  0  0  0  0  0  0  0  0
  -32.0935  -20.4849   18.1966 C   0  0  0  0  0  0  0  0  0  0  0  0
  -20.5622  -21.0019   21.8581 C   0  0  0  0  0  0  0  0  0  0  0  0
  -18.7008  -26.4412   21.2953 C   0  0  0  0  0  0  0  0  0  0  0  0
  -20.3040  -20.1693   20.5939 C   0  0  0  0  0  0  0  0  0  0  0  0
  -19.9094  -29.7262   22.8174 C   0  0  0  0  0  0  0  0  0  0  0  0
  -19.0549  -28.8272   21.9434 C   0  0  0  0  0  0  0  0  0  0  0  0
  -24.3664  -22.7629   20.6147 C   0  0  0  0  0  0  0  0  0  1  0  0
  -23.1652  -23.6774   20.7575 C   0  0  0  0  0  0  0  0  0  0  0  0
  -29.9652  -17.8973   21.8857 C   0  0  1  0  0  0  0  0  0  0  0  0
  -32.9593  -19.6842   20.3984 C   0  0  2  0  0  0  0  0  0  0  0  0
  -30.0498  -17.2395   23.2919 C   0  0  0  0  0  0  0  0  0  0  0  0
  -26.5638  -28.0576   19.8736 N   0  0  0  0  0  0  0  0  0  0  0  0
  -25.2618  -28.3248   19.6747 N   0  0  0  0  0  0  0  0  0  0  0  0
  -28.1317  -17.4986   20.2722 N   0  0  0  0  0  0  0  0  0  0  0  0
  -23.4953  -30.5416   22.2387 N   0  0  0  0  0  0  0  0  0  0  0  0
  -23.3072  -27.5105   18.6131 N   0  0  0  0  0  0  0  0  0  0  0  0
  -26.4306  -24.4253   17.5538 N   0  0  0  0  0  0  0  0  0  0  0  0
  -25.8901  -14.7377   19.9848 N   0  0  0  0  0  0  0  0  0  0  0  0
  -31.2584  -18.2643   21.3189 N   0  0  0  0  0  0  0  0  0  0  0  0
  -21.3096  -29.6660   22.4613 N   0  0  0  0  0  0  0  0  0  0  0  0
  -33.0078  -20.7332   19.3410 N   0  3  0  0  0  0  0  0  0  0  0  0
  -19.4676  -27.4106   22.1240 N   0  3  0  0  0  0  0  0  0  0  0  0
  -24.2312  -25.0163   17.2856 O   0  0  0  0  0  0  0  0  0  0  0  0
  -25.7885  -16.7092   21.2199 O   0  0  0  0  0  0  0  0  0  0  0  0
  -29.7976  -15.9031   20.6122 O   0  0  0  0  0  0  0  0  0  0  0  0
  -30.7924  -20.5214   21.0625 O   0  0  0  0  0  0  0  0  0  0  0  0
  -21.7652  -31.8181   23.1077 O   0  0  0  0  0  0  0  0  0  0  0  0
  -31.7812  -24.4890   19.1037 O   0  0  0  0  0  0  0  0  0  0  0  0
  -24.4988  -22.3775   19.2471 O   0  0  0  0  0  0  0  0  0  1  0  0
  -21.9950  -22.9728   20.3607 O   0  0  0  0  0  0  0  0  0  0  0  0
  -36.1624  -27.7035   18.1674 F   0  0  0  0  0  0  0  0  0  0  0  0
  -32.3922  -26.5837   20.8012 F   0  0  0  0  0  0  0  0  0  0  0  0
  1  2  1  0  0  0  0
  1  5  2  0  0  0  0
  2  6  2  0  0  0  0
  3  8  2  0  0  0  0
  3 17  1  0  0  0  0
  4  9  1  0  0  0  0
  4 17  2  0  0  0  0
  5 19  1  0  0  0  0
  6 21  1  0  0  0  0
  7 10  2  0  0  0  0
  7 20  1  0  0  0  0
  8 26  1  0  0  0  0
  9 26  2  0  0  0  0
 10 27  1  0  0  0  0
 11 12  2  0  0  0  0
 11 28  1  0  0  0  0
 12 30  1  0  0  0  0
 13 22  2  0  0  0  0
 13 24  1  0  0  0  0
 14 23  1  0  0  0  0
 14 27  2  0  0  0  0
 15 25  2  0  0  0  0
 15 29  1  0  0  0  0
 16 30  2  0  0  0  0
 16 31  1  0  0  0  0
 17 32  1  0  0  0  0
 18 32  1  0  0  0  0
 18 33  2  0  0  0  0
 18 34  1  0  0  0  0
 19 21  2  0  0  0  0
 19 39  1  0  0  0  0
 20 23  2  0  0  0  0
 20 40  1  0  0  0  0
 21 51  1  0  0  0  0
 22 25  1  0  0  0  0
 22 50  1  0  0  0  0
 23 41  1  0  0  0  0
 24 29  2  0  0  0  0
 24 60  1  0  0  0  0
 25 61  1  0  0  0  0
 26 86  1  0  0  0  0
 27 87  1  0  0  0  0
 28 31  2  0  0  0  0
 28 86  1  0  0  0  0
 29 88  1  0  0  0  0
 30 89  1  0  0  0  0
 31 90  1  0  0  0  0
 32 70  2  0  0  0  0
 33 71  1  0  0  0  0
 33 74  1  0  0  0  0
 34 75  1  0  0  0  0
 34 81  2  0  0  0  0
 35 52  1  0  0  0  0
 35 76  1  0  0  0  0
 35 82  2  0  0  0  0
 36 67  1  0  0  0  0
 36 72  1  0  0  0  0
 36 83  2  0  0  0  0
 37 68  1  0  0  0  0
 37 77  1  0  0  0  0
 37 84  2  0  0  0  0
 38 73  1  0  0  0  0
 38 78  1  0  0  0  0
 38 85  2  0  0  0  0
 39 42  1  0  0  0  0
 40 52  1  0  0  0  0
 41 72  1  0  0  0  0
 42 46  1  0  0  0  0
 43 47  1  0  0  0  0
 43 48  1  0  0  0  0
 44 45  1  0  0  0  0
 44 50  1  0  0  0  0
 45 50  1  0  0  0  0
 46 51  1  0  0  0  0
 47 53  1  0  0  0  0
 48 73  1  0  0  0  0
 49 53  1  0  0  0  0
 49 73  1  0  0  0  0
 51 76  1  0  0  0  0
 52 72  1  0  0  0  0
 53 71  1  0  0  0  0
 54 62  1  0  0  0  0
 55 68  1  0  0  0  0
 56 69  1  0  0  0  0
 57 69  1  0  0  0  0
 58 69  1  0  0  0  0
 59 79  1  0  0  0  0
 60 62  1  0  0  0  0
 61 80  1  0  0  0  0
 63 64  1  0  0  0  0
 63 78  1  0  0  0  0
 64 80  1  0  0  0  0
 65 66  1  0  0  0  0
 65 87  1  0  0  0  0
 66 88  1  0  0  0  0
 67 69  1  0  0  0  0
 67 77  1  0  0  0  0
 68 79  1  0  0  0  0
 70 71  1  0  0  0  0
M  CHG  2  79   1  80   1
M  ISO  4  38 100  65 101  78 100  87 101
M  END
> <Batch ID>
0140

> <Smiles>
CCCc1cc(C2CC2)c(CNCC[100NH:0][100C:0](=O)N2CCCC(n3nc(-c4ccc(Oc5ccc(F)cc5F)cc4)c(C(N)=O)c3N)C2)cc1OC[101CH2:1][101O:1]c1ccc2c(c1)CN(C(=O)C(NC(=O)C(C)NC)C(C)(C)C)C(C(=O)NC1CCCc3ccccc31)C2

> <Shape>
0.212

> <Color>
0.066

> <Negative vol penalty>
0.000

$$$$

  -OEChem-04052321133D

 79 87  0     1  0  0  0  0  0999 V2000
  -30.8352  -35.2075   24.4088 C   0  0  0  0  0  0  0  0  0  0  0  0
  -30.8930  -34.1214   23.5413 C   0  0  0  0  0  0  0  0  0  0  0  0
  -24.5688   -9.6454   21.6886 C   0  0  0  0  0  0  0  0  0  0  0  0
  -24.7029  -10.9301   23.7303 C   0  0  0  0  0  0  0  0  0  0  0  0
  -29.9458  -35.1942   25.4824 C   0  0  0  0  0  0  0  0  0  0  0  0
  -30.0620  -33.0208   23.7477 C   0  0  0  0  0  0  0  0  0  0  0  0
  -26.4950  -27.9641   20.1391 C   0  0  0  0  0  0  0  0  0  0  0  0
  -24.2540   -8.5047   22.4270 C   0  0  0  0  0  0  0  0  0  0  0  0
  -24.3880   -9.7893   24.4687 C   0  0  0  0  0  0  0  0  0  0  0  0
  -26.3397  -26.5793   20.0950 C   0  0  0  0  0  0  0  0  0  0  0  0
  -21.5358   -7.1994   23.9570 C   0  0  0  0  0  0  0  0  0  0  0  0
  -20.4903   -6.3982   23.4981 C   0  0  0  0  0  0  0  0  0  0  0  0
  -24.7866  -26.7008   21.9368 C   0  0  0  0  0  0  0  0  0  0  0  0
  -22.0115   -4.5330   23.2883 C   0  0  0  0  0  0  0  0  0  0  0  0
  -24.7933  -10.8581   22.3402 C   0  0  0  0  0  0  0  0  0  0  0  0
  -24.2200  -12.9793   21.0442 C   0  0  0  0  0  0  0  0  0  0  0  0
  -29.0967  -34.0970   25.6964 C   0  0  0  0  0  0  0  0  0  0  0  0
  -25.8044  -28.7278   21.0911 C   0  0  0  0  0  0  0  0  0  0  0  0
  -29.1614  -32.9922   24.8260 C   0  0  0  0  0  0  0  0  0  0  0  0
  -24.9329  -28.0954   21.9892 C   0  0  0  0  0  0  0  0  0  0  0  0
  -24.1635   -8.5766   23.8170 C   0  0  0  0  0  0  0  0  0  0  0  0
  -25.4876  -25.9471   20.9958 C   0  0  0  0  0  0  0  0  0  0  0  0
  -22.8193   -6.6674   24.0814 C   0  0  0  0  0  0  0  0  0  0  0  0
  -20.7281   -5.0651   23.1638 C   0  0  0  0  0  0  0  0  0  0  0  0
  -23.0571   -5.3342   23.7471 C   0  0  0  0  0  0  0  0  0  0  0  0
  -25.1191  -12.0367   21.5781 C   0  0  0  0  0  0  0  0  0  0  0  0
  -25.0214  -13.8994   20.4137 C   0  0  0  0  0  0  0  0  0  0  0  0
  -22.7884  -13.0196   21.1124 C   0  0  0  0  0  0  0  0  0  0  0  0
  -26.6596  -30.6191   23.4984 C   0  0  0  0  0  0  0  0  0  0  0  0
  -23.4753  -31.2199   23.6450 C   0  0  0  0  0  0  0  0  0  0  0  0
  -20.2962  -30.1767   22.9728 C   0  0  0  0  0  0  0  0  0  0  0  0
  -29.5532  -17.1552   20.3234 C   0  0  0  0  0  0  0  0  0  0  0  0
  -28.1853  -34.1079   26.8981 C   0  0  0  0  0  0  0  0  0  0  0  0
  -25.9623  -30.2235   21.1082 C   0  0  0  0  0  0  0  0  0  0  0  0
  -24.1530  -28.8721   23.0174 C   0  0  0  0  0  0  0  0  0  0  0  0
  -27.0740  -33.0637   26.8292 C   0  0  0  0  0  0  0  0  0  0  0  0
  -29.9579  -13.7636   19.3184 C   0  0  0  0  0  0  0  0  0  0  0  0
  -27.6374  -31.7120   26.4021 C   0  0  0  0  0  0  0  0  0  0  0  0
  -27.5586  -21.2731   19.1502 C   0  0  0  0  0  0  0  0  0  0  0  0
  -28.6642  -13.0890   19.7781 C   0  0  0  0  0  0  0  0  0  0  0  0
  -28.0761  -19.8394   18.9938 C   0  0  0  0  0  0  0  0  0  0  0  0
  -27.6302  -20.2045   21.3196 C   0  0  0  0  0  0  0  0  0  0  0  0
  -30.4179  -14.8339   20.3057 C   0  0  0  0  0  0  0  0  0  0  0  0
  -28.1082  -15.1766   21.0939 C   0  0  0  0  0  0  0  0  0  0  0  0
  -28.2586  -31.7905   25.0023 C   0  0  1  0  0  0  0  0  0  0  0  0
  -25.6040  -30.8468   22.4537 C   0  0  1  0  0  0  0  0  0  0  0  0
  -27.5905  -21.5790   20.6532 C   0  0  2  0  0  0  0  0  0  0  0  0
  -27.5745  -14.1285   20.1026 C   0  0  2  0  0  0  0  0  0  0  0  0
  -28.5416  -19.4205   20.3856 C   0  0  1  0  0  0  0  0  0  0  0  0
  -17.8983  -30.8649   23.2446 C   0  0  0  0  0  0  0  0  0  0  0  0
  -23.5957  -30.4641   26.5987 C   0  0  0  0  0  0  0  0  0  0  0  0
  -21.1017  -30.2462   26.5728 C   0  0  0  0  0  0  0  0  0  0  0  0
  -22.1644  -32.4502   26.0876 C   0  0  0  0  0  0  0  0  0  0  0  0
  -19.8521  -30.2063   20.0469 C   0  0  0  0  0  0  0  0  0  0  0  0
  -26.4502  -23.8289   20.5032 C   0  0  0  0  0  0  0  0  0  1  0  0
  -22.3030  -30.6020   24.3680 C   0  0  1  0  0  0  0  0  0  0  0  0
  -19.1166  -30.8877   22.3346 C   0  0  2  0  0  0  0  0  0  0  0  0
  -26.4222  -22.4337   21.1171 C   0  0  2  0  0  0  0  0  0  0  0  0
  -22.3072  -30.9255   25.8888 C   0  0  0  0  0  0  0  0  0  0  0  0
  -26.3941  -12.3308   21.3098 N   0  0  0  0  0  0  0  0  0  0  0  0
  -26.3019  -13.4685   20.6005 N   0  0  0  0  0  0  0  0  0  0  0  0
  -24.3462  -30.3315   22.9983 N   0  0  0  0  0  0  0  0  0  0  0  0
  -29.3389  -15.7889   20.5694 N   0  0  0  0  0  0  0  0  0  0  0  0
  -24.7487  -15.0268   19.7230 N   0  0  0  0  0  0  0  0  0  0  0  0
  -22.1231  -11.9953   21.7997 N   0  0  0  0  0  0  0  0  0  0  0  0
  -27.2250  -31.7804   23.9894 N   0  0  0  0  0  0  0  0  0  0  0  0
  -21.1065  -31.0519   23.6647 N   0  0  0  0  0  0  0  0  0  0  0  0
  -28.4768  -17.9912   20.5941 N   0  0  0  0  0  0  0  0  0  0  0  0
  -26.5040  -22.5675   22.6005 N   0  3  0  0  0  0  0  0  0  0  0  0
  -18.7529  -30.2335   21.0459 N   0  3  0  0  0  0  0  0  0  0  0  0
  -22.1181  -13.9280   20.5655 O   0  0  0  0  0  0  0  0  0  0  0  0
  -26.9394  -29.4745   23.8352 O   0  0  0  0  0  0  0  0  0  0  0  0
  -23.6094  -32.4461   23.6477 O   0  0  0  0  0  0  0  0  0  0  0  0
  -20.4784  -28.9656   22.8711 O   0  0  0  0  0  0  0  0  0  0  0  0
  -30.6226  -17.5966   19.8893 O   0  0  0  0  0  0  0  0  0  0  0  0
  -23.8561   -7.4638   24.5379 O   0  0  0  0  0  0  0  0  0  0  0  0
  -25.3348  -24.5955   20.9554 O   0  0  0  0  0  0  0  0  0  1  0  0
  -19.7236   -4.2955   22.7246 F   0  0  0  0  0  0  0  0  0  0  0  0
  -24.2877   -4.8172   23.8657 F   0  0  0  0  0  0  0  0  0  0  0  0
  1  2  1  0  0  0  0
  1  5  2  0  0  0  0
  2  6  2  0  0  0  0
  3  8  2  0  0  0  0
  3 15  1  0  0  0  0
  4  9  1  0  0  0  0
  4 15  2  0  0  0  0
  5 17  1  0  0  0  0
  6 19  1  0  0  0  0
  7 10  2  0  0  0  0
  7 18  1  0  0  0  0
  8 21  1  0  0  0  0
  9 21  2  0  0  0  0
 10 22  1  0  0  0  0
 11 12  2  0  0  0  0
 11 23  1  0  0  0  0
 12 24  1  0  0  0  0
 13 20  1  0  0  0  0
 13 22  2  0  0  0  0
 14 24  2  0  0  0  0
 14 25  1  0  0  0  0
 15 26  1  0  0  0  0
 16 26  1  0  0  0  0
 16 27  2  0  0  0  0
 16 28  1  0  0  0  0
 17 19  2  0  0  0  0
 17 33  1  0  0  0  0
 18 20  2  0  0  0  0
 18 34  1  0  0  0  0
 19 45  1  0  0  0  0
 20 35  1  0  0  0  0
 21 76  1  0  0  0  0
 22 77  1  0  0  0  0
 23 25  2  0  0  0  0
 23 76  1  0  0  0  0
 24 78  1  0  0  0  0
 25 79  1  0  0  0  0
 26 60  2  0  0  0  0
 27 61  1  0  0  0  0
 27 64  1  0  0  0  0
 28 65  1  0  0  0  0
 28 71  2  0  0  0  0
 29 46  1  0  0  0  0
 29 66  1  0  0  0  0
 29 72  2  0  0  0  0
 30 56  1  0  0  0  0
 30 62  1  0  0  0  0
 30 73  2  0  0  0  0
 31 57  1  0  0  0  0
 31 67  1  0  0  0  0
 31 74  2  0  0  0  0
 32 63  1  0  0  0  0
 32 68  1  0  0  0  0
 32 75  2  0  0  0  0
 33 36  1  0  0  0  0
 34 46  1  0  0  0  0
 35 62  1  0  0  0  0
 36 38  1  0  0  0  0
 37 40  1  0  0  0  0
 37 43  1  0  0  0  0
 38 45  1  0  0  0  0
 39 41  1  0  0  0  0
 39 47  1  0  0  0  0
 40 48  1  0  0  0  0
 41 49  1  0  0  0  0
 42 47  1  0  0  0  0
 42 49  1  0  0  0  0
 43 63  1  0  0  0  0
 44 48  1  0  0  0  0
 44 63  1  0  0  0  0
 45 66  1  0  0  0  0
 46 62  1  0  0  0  0
 47 58  1  0  0  0  0
 48 61  1  0  0  0  0
 49 68  1  0  0  0  0
 50 57  1  0  0  0  0
 51 59  1  0  0  0  0
 52 59  1  0  0  0  0
 53 59  1  0  0  0  0
 54 70  1  0  0  0  0
 55 58  1  0  0  0  0
 55 77  1  0  0  0  0
 56 59  1  0  0  0  0
 56 67  1  0  0  0  0
 57 70  1  0  0  0  0
 58 69  1  0  0  0  0
 60 61  1  0  0  0  0
M  CHG  2  69   1  70   1
M  ISO  4  32 100  55 101  68 100  77 101
M  END
> <Batch ID>
0140

> <Smiles>
CNC(C)C(=O)NC(C(=O)N1Cc2cc([101O:1][101CH2:1]C(N)C3CCC([100NH:0][100C:0](=O)N4CCCC(n5nc(-c6ccc(Oc7ccc(F)cc7F)cc6)c(C(N)=O)c5N)C4)C3)ccc2CC1C(=O)NC1CCCc2ccccc21)C(C)(C)C

> <Shape>
0.284

> <Color>
0.116

> <Negative vol penalty>
0.000

$$$$

  -OEChem-04052321133D

 90100  0     1  0  0  0  0  0999 V2000
  -20.1613  -30.3256   26.9609 C   0  0  0  0  0  0  0  0  0  0  0  0
  -21.3809  -29.8052   26.5401 C   0  0  0  0  0  0  0  0  0  0  0  0
  -24.4713  -14.7048   19.6196 C   0  0  0  0  0  0  0  0  0  0  0  0
  -23.8756  -14.1860   21.9028 C   0  0  0  0  0  0  0  0  0  0  0  0
  -19.0480  -30.2533   26.1246 C   0  0  0  0  0  0  0  0  0  0  0  0
  -21.4878  -29.2113   25.2830 C   0  0  0  0  0  0  0  0  0  0  0  0
  -26.3391  -29.3465   21.5477 C   0  0  0  0  0  0  0  0  0  0  0  0
  -31.5549  -25.2561   19.6552 C   0  0  0  0  0  0  0  0  0  0  0  0
  -32.3923  -25.1370   18.5460 C   0  0  0  0  0  0  0  0  0  0  0  0
  -25.1297  -13.4798   19.5130 C   0  0  0  0  0  0  0  0  0  0  0  0
  -24.5340  -12.9610   21.7962 C   0  0  0  0  0  0  0  0  0  0  0  0
  -27.3620  -28.4308   21.3053 C   0  0  0  0  0  0  0  0  0  0  0  0
  -23.9213   -9.9127   20.4721 C   0  0  0  0  0  0  0  0  0  0  0  0
  -23.2710   -8.7837   20.9700 C   0  0  0  0  0  0  0  0  0  0  0  0
  -26.1470  -27.5872   19.3997 C   0  0  0  0  0  0  0  0  0  0  0  0
  -25.0961   -8.4106   22.5084 C   0  0  0  0  0  0  0  0  0  0  0  0
  -23.8443  -15.0580   20.8146 C   0  0  0  0  0  0  0  0  0  0  0  0
  -21.8134  -16.5912   20.6340 C   0  0  0  0  0  0  0  0  0  0  0  0
  -19.1436  -29.6668   24.8528 C   0  0  0  0  0  0  0  0  0  0  0  0
  -25.2055  -29.3822   20.7231 C   0  0  0  0  0  0  0  0  0  0  0  0
  -20.3744  -29.1299   24.4294 C   0  0  0  0  0  0  0  0  0  0  0  0
  -25.1123  -28.5060   19.6323 C   0  0  0  0  0  0  0  0  0  0  0  0
  -29.9432  -23.8019   18.5946 C   0  0  0  0  0  0  0  0  0  0  0  0
  -30.3304  -24.5885   19.6795 C   0  0  0  0  0  0  0  0  0  0  0  0
  -32.0051  -24.3504   17.4611 C   0  0  0  0  0  0  0  0  0  0  0  0
  -30.7806  -23.6828   17.4854 C   0  0  0  0  0  0  0  0  0  0  0  0
  -25.1611  -12.6079   20.6013 C   0  0  0  0  0  0  0  0  0  0  0  0
  -27.2648  -27.5490   20.2329 C   0  0  0  0  0  0  0  0  0  0  0  0
  -25.1592  -10.2907   20.9924 C   0  0  0  0  0  0  0  0  0  0  0  0
  -23.8583   -8.0326   21.9881 C   0  0  0  0  0  0  0  0  0  0  0  0
  -25.7466   -9.5396   22.0105 C   0  0  0  0  0  0  0  0  0  0  0  0
  -23.1644  -16.3235   20.9255 C   0  0  0  0  0  0  0  0  0  0  0  0
  -21.6636  -17.9303   20.9001 C   0  0  0  0  0  0  0  0  0  0  0  0
  -20.7858  -15.7083   20.1648 C   0  0  0  0  0  0  0  0  0  0  0  0
  -22.0935  -28.9096   21.1661 C   0  0  0  0  0  0  0  0  0  0  0  0
  -21.9020  -29.8886   18.0795 C   0  0  0  0  0  0  0  0  0  0  0  0
  -23.4429  -30.2611   15.0573 C   0  0  0  0  0  0  0  0  0  0  0  0
  -25.2859  -22.5477   20.9670 C   0  0  0  0  0  0  0  0  0  0  0  0
  -17.9014  -29.5694   24.0030 C   0  0  0  0  0  0  0  0  0  0  0  0
  -24.1231  -30.3939   20.9821 C   0  0  0  0  0  0  0  0  0  0  0  0
  -23.9254  -28.5175   18.7050 C   0  0  0  0  0  0  0  0  0  0  0  0
  -18.1895  -29.2596   22.5363 C   0  0  0  0  0  0  0  0  0  0  0  0
  -23.4069  -21.4301   23.6445 C   0  0  0  0  0  0  0  0  0  0  0  0
  -19.1972  -28.1205   22.4192 C   0  0  0  0  0  0  0  0  0  0  0  0
  -28.9905  -22.9479   14.0860 C   0  0  0  0  0  0  0  0  0  0  0  0
  -28.0942  -23.4790   15.1697 C   0  0  0  0  0  0  0  0  0  0  0  0
  -22.9914  -20.0180   23.2326 C   0  0  0  0  0  0  0  0  0  0  0  0
  -28.5434  -22.0418   19.7627 C   0  0  0  0  0  0  0  0  0  0  0  0
  -27.4237  -24.0518   18.7063 C   0  0  0  0  0  0  0  0  0  0  0  0
  -24.8544  -21.7081   23.2561 C   0  0  0  0  0  0  0  0  0  0  0  0
  -27.1851  -21.3360   19.8069 C   0  0  0  0  0  0  0  0  0  0  0  0
  -26.1014  -23.2915   18.7511 C   0  0  0  0  0  0  0  0  0  0  0  0
  -24.7260  -20.1081   21.3741 C   0  0  0  0  0  0  0  0  0  0  0  0
  -28.6115  -23.0759   18.6244 C   0  0  0  0  0  0  0  0  0  0  0  0
  -20.5362  -28.5001   23.0629 C   0  0  1  0  0  0  0  0  0  0  0  0
  -22.7772  -29.9954   20.3843 C   0  0  1  0  0  0  0  0  0  0  0  0
  -29.5851  -23.6386   15.2819 C   0  0  0  0  0  0  0  0  0  0  0  0
  -23.2647  -19.7751   21.7377 C   0  0  1  0  0  0  0  0  0  0  0  0
  -32.9197  -24.2414   16.2849 C   0  0  0  0  0  0  0  0  0  0  0  0
  -30.1203  -24.1778   22.1531 C   0  0  0  0  0  0  0  0  0  0  0  0
  -23.0193  -31.0553   12.7148 C   0  0  0  0  0  0  0  0  0  0  0  0
  -20.3490  -27.3281   17.4947 C   0  0  0  0  0  0  0  0  0  0  0  0
  -20.7827  -27.7043   15.0578 C   0  0  0  0  0  0  0  0  0  0  0  0
  -19.4587  -29.3706   16.3589 C   0  0  0  0  0  0  0  0  0  0  0  0
  -25.5222  -32.3566   15.2680 C   0  0  0  0  0  0  0  0  0  0  0  0
  -30.3663  -22.8409   16.3203 C   0  0  0  0  0  0  0  0  0  0  0  0
  -29.0016  -26.1900   21.1233 C   0  0  0  0  0  0  0  0  0  1  0  0
  -29.4528  -24.7326   20.8797 C   0  0  1  0  0  0  0  0  0  0  0  0
  -21.9532  -29.2032   16.7354 C   0  0  1  0  0  0  0  0  0  0  0  0
  -23.5139  -31.4380   14.1011 C   0  0  2  0  0  0  0  0  0  0  0  0
  -20.6575  -28.3998   16.4302 C   0  0  0  0  0  0  0  0  0  0  0  0
  -23.8258  -17.4057   21.3444 N   0  0  0  0  0  0  0  0  0  0  0  0
  -22.8864  -18.3664   21.3181 N   0  0  0  0  0  0  0  0  0  0  0  0
  -22.8903  -29.5210   19.0036 N   0  0  0  0  0  0  0  0  0  0  0  0
  -25.0742  -21.4626   21.8309 N   0  0  0  0  0  0  0  0  0  0  0  0
  -26.0913  -22.3168   19.8417 N   0  0  0  0  0  0  0  0  0  0  0  0
  -20.6065  -18.7656   20.8148 N   0  0  0  0  0  0  0  0  0  0  0  0
  -21.1106  -14.3631   19.9431 N   0  0  0  0  0  0  0  0  0  0  0  0
  -21.2877  -29.3743   22.1880 N   0  0  0  0  0  0  0  0  0  0  0  0
  -22.2555  -30.2433   15.7581 N   0  0  0  0  0  0  0  0  0  0  0  0
  -24.9175  -31.9244   13.9817 N   0  3  0  0  0  0  0  0  0  0  0  0
  -19.6184  -16.1042   19.9329 O   0  0  0  0  0  0  0  0  0  0  0  0
  -22.2819  -27.7372   20.8637 O   0  0  0  0  0  0  0  0  0  0  0  0
  -21.0221  -30.7248   18.2988 O   0  0  0  0  0  0  0  0  0  0  0  0
  -24.3485  -29.4376   15.1685 O   0  0  0  0  0  0  0  0  0  0  0  0
  -24.7845  -23.6574   21.1871 O   0  0  0  0  0  0  0  0  0  0  0  0
  -25.8033  -11.4123   20.4976 O   0  0  0  0  0  0  0  0  0  0  0  0
  -28.2681  -26.6478   19.9928 O   0  0  0  0  0  0  0  0  0  1  0  0
  -23.2329   -6.9493   22.4671 F   0  0  0  0  0  0  0  0  0  0  0  0
  -26.9350   -9.8985   22.5151 F   0  0  0  0  0  0  0  0  0  0  0  0
  1  2  1  0  0  0  0
  1  5  2  0  0  0  0
  2  6  2  0  0  0  0
  3 10  2  0  0  0  0
  3 17  1  0  0  0  0
  4 11  1  0  0  0  0
  4 17  2  0  0  0  0
  5 19  1  0  0  0  0
  6 21  1  0  0  0  0
  7 12  2  0  0  0  0
  7 20  1  0  0  0  0
  8  9  2  0  0  0  0
  8 24  1  0  0  0  0
  9 25  1  0  0  0  0
 10 27  1  0  0  0  0
 11 27  2  0  0  0  0
 12 28  1  0  0  0  0
 13 14  2  0  0  0  0
 13 29  1  0  0  0  0
 14 30  1  0  0  0  0
 15 22  1  0  0  0  0
 15 28  2  0  0  0  0
 16 30  2  0  0  0  0
 16 31  1  0  0  0  0
 17 32  1  0  0  0  0
 18 32  1  0  0  0  0
 18 33  2  0  0  0  0
 18 34  1  0  0  0  0
 19 21  2  0  0  0  0
 19 39  1  0  0  0  0
 20 22  2  0  0  0  0
 20 40  1  0  0  0  0
 21 55  1  0  0  0  0
 22 41  1  0  0  0  0
 23 24  2  0  0  0  0
 23 26  1  0  0  0  0
 23 54  1  0  0  0  0
 24 68  1  0  0  0  0
 25 26  2  0  0  0  0
 25 59  1  0  0  0  0
 26 66  1  0  0  0  0
 27 87  1  0  0  0  0
 28 88  1  0  0  0  0
 29 31  2  0  0  0  0
 29 87  1  0  0  0  0
 30 89  1  0  0  0  0
 31 90  1  0  0  0  0
 32 72  2  0  0  0  0
 33 73  1  0  0  0  0
 33 77  1  0  0  0  0
 34 78  1  0  0  0  0
 34 82  2  0  0  0  0
 35 56  1  0  0  0  0
 35 79  1  0  0  0  0
 35 83  2  0  0  0  0
 36 69  1  0  0  0  0
 36 74  1  0  0  0  0
 36 84  2  0  0  0  0
 37 70  1  0  0  0  0
 37 80  1  0  0  0  0
 37 85  2  0  0  0  0
 38 75  1  0  0  0  0
 38 76  1  0  0  0  0
 38 86  2  0  0  0  0
 39 42  1  0  0  0  0
 40 56  1  0  0  0  0
 41 74  1  0  0  0  0
 42 44  1  0  0  0  0
 43 47  1  0  0  0  0
 43 50  1  0  0  0  0
 44 55  1  0  0  0  0
 45 46  1  0  0  0  0
 45 57  1  0  0  0  0
 46 57  1  0  0  0  0
 47 58  1  0  0  0  0
 48 51  1  0  0  0  0
 48 54  1  0  0  0  0
 49 52  1  0  0  0  0
 49 54  1  0  0  0  0
 50 75  1  0  0  0  0
 51 76  1  0  0  0  0
 52 76  1  0  0  0  0
 53 58  1  0  0  0  0
 53 75  1  0  0  0  0
 55 79  1  0  0  0  0
 56 74  1  0  0  0  0
 57 66  1  0  0  0  0
 58 73  1  0  0  0  0
 60 68  1  0  0  0  0
 61 70  1  0  0  0  0
 62 71  1  0  0  0  0
 63 71  1  0  0  0  0
 64 71  1  0  0  0  0
 65 81  1  0  0  0  0
 67 68  1  0  0  0  0
 67 88  1  0  0  0  0
 69 71  1  0  0  0  0
 69 80  1  0  0  0  0
 70 81  1  0  0  0  0
 72 73  1  0  0  0  0
M  CHG  1  81   1
M  ISO  4  38 100  67 101  76 100  88 101
M  END
> <Batch ID>
0140

> <Smiles>
CNC(C)C(=O)NC(C(=O)N1Cc2cc([101O:1][101CH2:1]C(C)c3ccc(C)c(CC4CC4)c3C3CC[100N:0]([100C:0](=O)N4CCCC(n5nc(-c6ccc(Oc7ccc(F)cc7F)cc6)c(C(N)=O)c5N)C4)CC3)ccc2CC1C(=O)NC1CCCc2ccccc21)C(C)(C)C

> <Shape>
0.214

> <Color>
0.083

> <Negative vol penalty>
0.000

$$$$

  -OEChem-04052321133D

 89 98  0     1  0  0  0  0  0999 V2000
  -28.1602  -34.8706   24.7975 C   0  0  0  0  0  0  0  0  0  0  0  0
  -28.3444  -33.5795   24.3131 C   0  0  0  0  0  0  0  0  0  0  0  0
  -22.8382  -10.8577   22.2478 C   0  0  0  0  0  0  0  0  0  0  0  0
  -24.5024   -9.1668   21.7916 C   0  0  0  0  0  0  0  0  0  0  0  0
  -26.9159  -35.2568   25.2939 C   0  0  0  0  0  0  0  0  0  0  0  0
  -27.2846  -32.6735   24.3259 C   0  0  0  0  0  0  0  0  0  0  0  0
  -26.8799  -30.0958   19.9858 C   0  0  0  0  0  0  0  0  0  0  0  0
  -27.1654  -20.0614   17.4482 C   0  0  0  0  0  0  0  0  0  0  0  0
  -27.1320  -18.8297   18.1019 C   0  0  0  0  0  0  0  0  0  0  0  0
  -22.1823   -9.9795   23.1104 C   0  0  0  0  0  0  0  0  0  0  0  0
  -23.8466   -8.2886   22.6543 C   0  0  0  0  0  0  0  0  0  0  0  0
  -27.7697  -29.0412   19.7862 C   0  0  0  0  0  0  0  0  0  0  0  0
  -21.1305   -6.2770   22.5696 C   0  0  0  0  0  0  0  0  0  0  0  0
  -20.9440   -4.9636   22.1386 C   0  0  0  0  0  0  0  0  0  0  0  0
  -26.0547  -27.4777   20.4448 C   0  0  0  0  0  0  0  0  0  0  0  0
  -29.5192  -18.9514   18.4533 C   0  0  0  0  0  0  0  0  0  0  0  0
  -22.2230   -4.1628   24.0254 C   0  0  0  0  0  0  0  0  0  0  0  0
  -23.9982  -10.4514   21.5884 C   0  0  0  0  0  0  0  0  0  0  0  0
  -24.1531  -11.9575   19.5353 C   0  0  0  0  0  0  0  0  0  0  0  0
  -25.8376  -34.3580   25.3038 C   0  0  0  0  0  0  0  0  0  0  0  0
  -25.5720  -29.8497   20.4275 C   0  0  0  0  0  0  0  0  0  0  0  0
  -26.0250  -33.0476   24.8241 C   0  0  0  0  0  0  0  0  0  0  0  0
  -25.1495  -28.5308   20.6467 C   0  0  0  0  0  0  0  0  0  0  0  0
  -28.3757  -20.7381   17.2969 C   0  0  0  0  0  0  0  0  0  0  0  0
  -29.5526  -20.1832   17.7995 C   0  0  0  0  0  0  0  0  0  0  0  0
  -28.3089  -18.2747   18.6045 C   0  0  0  0  0  0  0  0  0  0  0  0
  -22.6865   -8.6949   23.3137 C   0  0  0  0  0  0  0  0  0  0  0  0
  -27.3580  -27.7321   20.0185 C   0  0  0  0  0  0  0  0  0  0  0  0
  -21.8633   -6.5333   23.7285 C   0  0  0  0  0  0  0  0  0  0  0  0
  -21.4902   -3.9065   22.8664 C   0  0  0  0  0  0  0  0  0  0  0  0
  -22.4095   -5.4762   24.4564 C   0  0  0  0  0  0  0  0  0  0  0  0
  -24.6759  -11.3579   20.6967 C   0  0  0  0  0  0  0  0  0  0  0  0
  -25.1843  -12.7245   19.0508 C   0  0  0  0  0  0  0  0  0  0  0  0
  -22.8515  -11.8324   18.9470 C   0  0  0  0  0  0  0  0  0  0  0  0
  -23.8853  -30.6501   23.0001 C   0  0  0  0  0  0  0  0  0  0  0  0
  -21.4613  -29.2397   21.3700 C   0  0  0  0  0  0  0  0  0  0  0  0
  -21.0182  -26.2888   19.3419 C   0  0  0  0  0  0  0  0  0  0  0  0
  -29.3514  -16.3349   19.8278 C   0  0  0  0  0  0  0  0  0  0  0  0
  -24.5241  -34.8065   25.8939 C   0  0  0  0  0  0  0  0  0  0  0  0
  -24.6162  -30.9964   20.6123 C   0  0  0  0  0  0  0  0  0  0  0  0
  -23.7497  -28.2118   21.1021 C   0  0  0  0  0  0  0  0  0  0  0  0
  -23.3507  -33.9019   25.5263 C   0  0  0  0  0  0  0  0  0  0  0  0
  -30.0683  -12.8898   20.3704 C   0  0  0  0  0  0  0  0  0  0  0  0
  -23.7275  -32.4358   25.7146 C   0  0  0  0  0  0  0  0  0  0  0  0
  -28.6863  -12.2335   20.4082 C   0  0  0  0  0  0  0  0  0  0  0  0
  -28.9043  -25.6652   17.7545 C   0  0  0  0  0  0  0  0  0  0  0  0
  -27.7322  -24.3692   19.5655 C   0  0  0  0  0  0  0  0  0  0  0  0
  -30.0575  -14.2723   21.0203 C   0  0  0  0  0  0  0  0  0  0  0  0
  -27.6556  -14.5372   20.5407 C   0  0  0  0  0  0  0  0  0  0  0  0
  -28.6314  -24.5357   16.7735 C   0  0  0  0  0  0  0  0  0  0  0  0
  -27.4613  -23.2427   18.5808 C   0  0  0  0  0  0  0  0  0  0  0  0
  -24.8929  -32.0436   24.7984 C   0  0  1  0  0  0  0  0  0  0  0  0
  -23.4648  -30.6681   21.5577 C   0  0  1  0  0  0  0  0  0  0  0  0
  -27.6020  -13.1699   19.8398 C   0  0  2  0  0  0  0  0  0  0  0  0
  -27.8576  -25.7179   18.8640 C   0  0  0  0  0  0  0  0  0  1  0  0
  -19.3888  -25.8080   17.4950 C   0  0  0  0  0  0  0  0  0  0  0  0
  -33.2688  -22.2796   20.1921 C   0  0  0  0  0  0  0  0  0  0  0  0
  -32.4677  -23.5468   18.1607 C   0  0  0  0  0  0  0  0  0  0  0  0
  -19.7611  -28.0062   23.5831 C   0  0  0  0  0  0  0  0  0  0  0  0
  -19.0971  -26.2066   21.9742 C   0  0  0  0  0  0  0  0  0  0  0  0
  -18.5034  -28.5825   21.4997 C   0  0  0  0  0  0  0  0  0  0  0  0
  -23.1878  -25.6027   17.4495 C   0  0  0  0  0  0  0  0  0  0  0  0
  -28.3867  -22.0611   16.5894 C   0  0  0  0  0  0  0  0  0  0  0  0
  -30.8596  -20.8905   17.6511 C   0  0  0  0  0  0  0  0  0  0  0  0
  -20.9091  -27.8378   21.2766 C   0  0  1  0  0  0  0  0  0  0  0  0
  -20.8050  -26.2421   17.8397 C   0  0  2  0  0  0  0  0  0  0  0  0
  -32.6613  -22.1821   18.8019 C   0  0  0  0  0  0  0  0  0  0  0  0
  -19.5951  -27.6631   22.0892 C   0  0  0  0  0  0  0  0  0  0  0  0
  -25.9410  -11.7133   20.9357 N   0  0  0  0  0  0  0  0  0  0  0  0
  -26.2219  -12.5444   19.9176 N   0  0  0  0  0  0  0  0  0  0  0  0
  -22.8543  -29.3676   21.2747 N   0  0  0  0  0  0  0  0  0  0  0  0
  -29.0082  -15.1053   20.4288 N   0  0  0  0  0  0  0  0  0  0  0  0
  -25.2958  -13.5285   17.9722 N   0  0  0  0  0  0  0  0  0  0  0  0
  -22.6400  -10.8192   18.0020 N   0  0  0  0  0  0  0  0  0  0  0  0
  -28.2751  -17.0244   19.2704 N   0  0  0  0  0  0  0  0  0  0  0  0
  -24.4251  -31.8423   23.4437 N   0  0  0  0  0  0  0  0  0  0  0  0
  -20.7749  -27.5459   19.8535 N   0  0  0  0  0  0  0  0  0  0  0  0
  -28.5416  -23.2284   17.5250 N   0  3  0  0  0  0  0  0  0  0  0  0
  -21.7567  -25.2830   17.2109 N   0  3  0  0  0  0  0  0  0  0  0  0
  -31.3346  -21.5209   18.9127 N   0  3  0  0  0  0  0  0  0  0  0  0
  -21.9087  -12.6069   19.2381 O   0  0  0  0  0  0  0  0  0  0  0  0
  -23.7301  -29.6306   23.6620 O   0  0  0  0  0  0  0  0  0  0  0  0
  -20.6848  -30.1872   21.5147 O   0  0  0  0  0  0  0  0  0  0  0  0
  -21.3623  -25.3072   19.9967 O   0  0  0  0  0  0  0  0  0  0  0  0
  -30.5183  -16.7330   19.7850 O   0  0  0  0  0  0  0  0  0  0  0  0
  -22.0469   -7.8378   24.1556 O   0  0  0  0  0  0  0  0  0  0  0  0
  -28.2246  -26.7009   19.8252 O   0  0  0  0  0  0  0  0  0  1  0  0
  -21.3097   -2.6452   22.4533 F   0  0  0  0  0  0  0  0  0  0  0  0
  -23.1135   -5.7162   25.5711 F   0  0  0  0  0  0  0  0  0  0  0  0
  1  2  1  0  0  0  0
  1  5  2  0  0  0  0
  2  6  2  0  0  0  0
  3 10  2  0  0  0  0
  3 18  1  0  0  0  0
  4 11  1  0  0  0  0
  4 18  2  0  0  0  0
  5 20  1  0  0  0  0
  6 22  1  0  0  0  0
  7 12  2  0  0  0  0
  7 21  1  0  0  0  0
  8  9  2  0  0  0  0
  8 24  1  0  0  0  0
  9 26  1  0  0  0  0
 10 27  1  0  0  0  0
 11 27  2  0  0  0  0
 12 28  1  0  0  0  0
 13 14  2  0  0  0  0
 13 29  1  0  0  0  0
 14 30  1  0  0  0  0
 15 23  1  0  0  0  0
 15 28  2  0  0  0  0
 16 25  1  0  0  0  0
 16 26  2  0  0  0  0
 17 30  2  0  0  0  0
 17 31  1  0  0  0  0
 18 32  1  0  0  0  0
 19 32  1  0  0  0  0
 19 33  2  0  0  0  0
 19 34  1  0  0  0  0
 20 22  2  0  0  0  0
 20 39  1  0  0  0  0
 21 23  2  0  0  0  0
 21 40  1  0  0  0  0
 22 52  1  0  0  0  0
 23 41  1  0  0  0  0
 24 25  2  0  0  0  0
 24 63  1  0  0  0  0
 25 64  1  0  0  0  0
 26 75  1  0  0  0  0
 27 86  1  0  0  0  0
 28 87  1  0  0  0  0
 29 31  2  0  0  0  0
 29 86  1  0  0  0  0
 30 88  1  0  0  0  0
 31 89  1  0  0  0  0
 32 69  2  0  0  0  0
 33 70  1  0  0  0  0
 33 73  1  0  0  0  0
 34 74  1  0  0  0  0
 34 81  2  0  0  0  0
 35 53  1  0  0  0  0
 35 76  1  0  0  0  0
 35 82  2  0  0  0  0
 36 65  1  0  0  0  0
 36 71  1  0  0  0  0
 36 83  2  0  0  0  0
 37 66  1  0  0  0  0
 37 77  1  0  0  0  0
 37 84  2  0  0  0  0
 38 72  1  0  0  0  0
 38 75  1  0  0  0  0
 38 85  2  0  0  0  0
 39 42  1  0  0  0  0
 40 53  1  0  0  0  0
 41 71  1  0  0  0  0
 42 44  1  0  0  0  0
 43 45  1  0  0  0  0
 43 48  1  0  0  0  0
 44 52  1  0  0  0  0
 45 54  1  0  0  0  0
 46 50  1  0  0  0  0
 46 55  1  0  0  0  0
 47 51  1  0  0  0  0
 47 55  1  0  0  0  0
 48 72  1  0  0  0  0
 49 54  1  0  0  0  0
 49 72  1  0  0  0  0
 50 78  1  0  0  0  0
 51 78  1  0  0  0  0
 52 76  1  0  0  0  0
 53 71  1  0  0  0  0
 54 70  1  0  0  0  0
 55 87  1  0  0  0  0
 56 66  1  0  0  0  0
 57 67  1  0  0  0  0
 58 67  1  0  0  0  0
 59 68  1  0  0  0  0
 60 68  1  0  0  0  0
 61 68  1  0  0  0  0
 62 79  1  0  0  0  0
 63 78  1  0  0  0  0
 64 80  1  0  0  0  0
 65 68  1  0  0  0  0
 65 77  1  0  0  0  0
 66 79  1  0  0  0  0
 67 80  1  0  0  0  0
 69 70  1  0  0  0  0
M  CHG  3  78   1  79   1  80   1
M  ISO  4  38 100  55 101  75 100  87 101
M  END
> <Batch ID>
0140

> <Smiles>
CNC(C)C(=O)NC(C(=O)N1Cc2cc([101O:1][101CH:1]3CCN(Cc4ccc([100NH:0][100C:0](=O)N5CCCC(n6nc(-c7ccc(Oc8ccc(F)cc8F)cc7)c(C(N)=O)c6N)C5)cc4CNC(C)C)CC3)ccc2CC1C(=O)NC1CCCc2ccccc21)C(C)(C)C

> <Shape>
0.326

> <Color>
0.103

> <Negative vol penalty>
0.000

$$$$

  -OEChem-04052321133D

 88 97  0     1  0  0  0  0  0999 V2000
  -27.9708  -36.3091   17.8583 C   0  0  0  0  0  0  0  0  0  0  0  0
  -28.0296  -34.9389   17.6252 C   0  0  0  0  0  0  0  0  0  0  0  0
  -22.9583   -9.9976   20.0743 C   0  0  0  0  0  0  0  0  0  0  0  0
  -23.6001  -10.2125   22.3936 C   0  0  0  0  0  0  0  0  0  0  0  0
  -27.8385  -36.7885   19.1608 C   0  0  0  0  0  0  0  0  0  0  0  0
  -27.9572  -34.0471   18.6947 C   0  0  0  0  0  0  0  0  0  0  0  0
  -25.3235  -28.5181   18.7064 C   0  0  0  0  0  0  0  0  0  0  0  0
  -22.1590   -8.9010   20.3971 C   0  0  0  0  0  0  0  0  0  0  0  0
  -22.8008   -9.1159   22.7164 C   0  0  0  0  0  0  0  0  0  0  0  0
  -25.8422  -27.2318   18.5646 C   0  0  0  0  0  0  0  0  0  0  0  0
  -22.9923   -5.7467   22.5097 C   0  0  0  0  0  0  0  0  0  0  0  0
  -23.5307   -4.7799   23.3588 C   0  0  0  0  0  0  0  0  0  0  0  0
  -25.9131  -27.0024   20.9649 C   0  0  0  0  0  0  0  0  0  0  0  0
  -28.8686  -22.9232   20.5578 C   0  0  0  0  0  0  0  0  0  0  0  0
  -26.6713  -22.1514   19.9152 C   0  0  0  0  0  0  0  0  0  0  0  0
  -21.7525   -5.1820   24.9442 C   0  0  0  0  0  0  0  0  0  0  0  0
  -23.6789  -10.6534   21.0726 C   0  0  0  0  0  0  0  0  0  0  0  0
  -24.1228  -13.1406   20.7202 C   0  0  0  0  0  0  0  0  0  0  0  0
  -27.7547  -35.9019   20.2460 C   0  0  0  0  0  0  0  0  0  0  0  0
  -25.1056  -29.0613   19.9807 C   0  0  0  0  0  0  0  0  0  0  0  0
  -27.8250  -34.5151   20.0132 C   0  0  0  0  0  0  0  0  0  0  0  0
  -25.3892  -28.2949   21.1201 C   0  0  0  0  0  0  0  0  0  0  0  0
  -27.5029  -23.1600   20.4018 C   0  0  0  0  0  0  0  0  0  0  0  0
  -29.4027  -21.6777   20.2272 C   0  0  0  0  0  0  0  0  0  0  0  0
  -27.2054  -20.9059   19.5846 C   0  0  0  0  0  0  0  0  0  0  0  0
  -28.5711  -20.6691   19.7407 C   0  0  0  0  0  0  0  0  0  0  0  0
  -22.0803   -8.4601   21.7181 C   0  0  0  0  0  0  0  0  0  0  0  0
  -26.1398  -26.4748   19.6940 C   0  0  0  0  0  0  0  0  0  0  0  0
  -21.8340   -6.4312   22.8779 C   0  0  0  0  0  0  0  0  0  0  0  0
  -22.9108   -4.4975   24.5760 C   0  0  0  0  0  0  0  0  0  0  0  0
  -21.2141   -6.1488   24.0951 C   0  0  0  0  0  0  0  0  0  0  0  0
  -24.5051  -11.7859   20.7397 C   0  0  0  0  0  0  0  0  0  0  0  0
  -25.2600  -13.8129   20.3441 C   0  0  0  0  0  0  0  0  0  0  0  0
  -22.8533  -13.7379   21.0157 C   0  0  0  0  0  0  0  0  0  0  0  0
  -26.2411  -31.5652   21.5760 C   0  0  0  0  0  0  0  0  0  0  0  0
  -24.0091  -30.6918   23.7618 C   0  0  0  0  0  0  0  0  0  0  0  0
  -22.0469  -28.2264   25.0726 C   0  0  0  0  0  0  0  0  0  0  0  0
  -30.7620  -14.6644   20.7286 C   0  0  0  0  0  0  0  0  0  0  0  0
  -27.6598  -36.4683   21.6405 C   0  0  0  0  0  0  0  0  0  0  0  0
  -24.5205  -30.4403   20.1165 C   0  0  0  0  0  0  0  0  0  0  0  0
  -25.1545  -28.8243   22.5105 C   0  0  0  0  0  0  0  0  0  0  0  0
  -27.2132  -35.4472   22.6836 C   0  0  0  0  0  0  0  0  0  0  0  0
  -29.6570  -12.0886   18.5331 C   0  0  0  0  0  0  0  0  0  0  0  0
  -27.9868  -34.1429   22.5194 C   0  0  0  0  0  0  0  0  0  0  0  0
  -29.4368  -17.2973   16.2492 C   0  0  0  0  0  0  0  0  0  0  0  0
  -29.3358  -16.6100   17.5780 C   0  0  0  0  0  0  0  0  0  0  0  0
  -28.1891  -11.8879   18.9141 C   0  0  0  0  0  0  0  0  0  0  0  0
  -30.5195  -12.3999   19.7542 C   0  0  0  0  0  0  0  0  0  0  0  0
  -28.5790  -13.3304   20.9552 C   0  0  0  0  0  0  0  0  0  0  0  0
  -27.7249  -33.5154   21.1449 C   0  0  1  0  0  0  0  0  0  0  0  0
  -24.8210  -31.0868   21.4652 C   0  0  1  0  0  0  0  0  0  0  0  0
  -28.8473  -18.0289   17.4288 C   0  0  0  0  0  0  0  0  0  0  0  0
  -27.6601  -13.0693   19.7494 C   0  0  2  0  0  0  0  0  0  0  0  0
  -30.8697  -21.4545   20.4039 C   0  0  0  0  0  0  0  0  0  0  0  0
  -26.2903  -19.8448   19.0653 C   0  0  0  0  0  0  0  0  0  0  0  0
  -20.3547  -27.8059   26.8774 C   0  0  0  0  0  0  0  0  0  0  0  0
  -26.2398  -30.6639   25.8434 C   0  0  0  0  0  0  0  0  0  0  0  0
  -24.7265  -29.3518   27.3457 C   0  0  0  0  0  0  0  0  0  0  0  0
  -24.0852  -31.6558   26.6364 C   0  0  0  0  0  0  0  0  0  0  0  0
  -19.9639  -27.4811   23.1067 C   0  0  0  0  0  0  0  0  0  0  0  0
  -26.9288  -24.4997   20.7581 C   0  0  0  0  0  0  0  0  0  1  0  0
  -29.5944  -19.1518   18.0641 C   0  0  0  0  0  0  0  0  0  0  0  0
  -30.6620  -17.9876   20.6639 C   0  0  0  0  0  0  0  0  0  0  0  0
  -30.8471  -16.9262   21.7467 C   0  0  0  0  0  0  0  0  0  0  0  0
  -29.2035  -18.3624   20.4035 C   0  0  0  0  0  0  0  0  0  0  0  0
  -23.9862  -29.7691   24.9563 C   0  0  1  0  0  0  0  0  0  0  0  0
  -20.5701  -28.1935   25.4227 C   0  0  2  0  0  0  0  0  0  0  0  0
  -24.7658  -30.3506   26.1694 C   0  0  0  0  0  0  0  0  0  0  0  0
  -25.7851  -11.6064   20.4026 N   0  0  0  0  0  0  0  0  0  0  0  0
  -26.2169  -12.8572   20.1677 N   0  0  0  0  0  0  0  0  0  0  0  0
  -24.5868  -30.1803   22.5912 N   0  0  0  0  0  0  0  0  0  0  0  0
  -29.9643  -13.5307   20.5018 N   0  0  0  0  0  0  0  0  0  0  0  0
  -25.5247  -15.1224   20.1502 N   0  0  0  0  0  0  0  0  0  0  0  0
  -21.7915  -12.9016   21.3862 N   0  0  0  0  0  0  0  0  0  0  0  0
  -26.4360  -32.8575   21.1270 N   0  0  0  0  0  0  0  0  0  0  0  0
  -22.5807  -29.4882   25.2284 N   0  0  0  0  0  0  0  0  0  0  0  0
  -30.1567  -15.6932   21.4399 N   0  0  0  0  0  0  0  0  0  0  0  0
  -29.1128  -19.4068   19.4052 N   0  0  3  0  0  0  0  0  0  0  0  0
  -19.8558  -27.2079   24.5630 N   0  3  0  0  0  0  0  0  0  0  0  0
  -22.6618  -14.9751   20.9370 O   0  0  0  0  0  0  0  0  0  0  0  0
  -27.0963  -30.8178   22.0361 O   0  0  0  0  0  0  0  0  0  0  0  0
  -23.5255  -31.8222   23.8615 O   0  0  0  0  0  0  0  0  0  0  0  0
  -22.6659  -27.2314   24.7019 O   0  0  0  0  0  0  0  0  0  0  0  0
  -31.9255  -14.7554   20.3224 O   0  0  0  0  0  0  0  0  0  0  0  0
  -21.3003   -7.3902   22.0334 O   0  0  0  0  0  0  0  0  0  0  0  0
  -26.6468  -25.2192   19.5585 O   0  0  0  0  0  0  0  0  0  1  0  0
  -23.4271   -3.5680   25.3906 F   0  0  0  0  0  0  0  0  0  0  0  0
  -20.1005   -6.8023   24.4537 F   0  0  0  0  0  0  0  0  0  0  0  0
  1  2  1  0  0  0  0
  1  5  2  0  0  0  0
  2  6  2  0  0  0  0
  3  8  2  0  0  0  0
  3 17  1  0  0  0  0
  4  9  1  0  0  0  0
  4 17  2  0  0  0  0
  5 19  1  0  0  0  0
  6 21  1  0  0  0  0
  7 10  2  0  0  0  0
  7 20  1  0  0  0  0
  8 27  1  0  0  0  0
  9 27  2  0  0  0  0
 10 28  1  0  0  0  0
 11 12  2  0  0  0  0
 11 29  1  0  0  0  0
 12 30  1  0  0  0  0
 13 22  1  0  0  0  0
 13 28  2  0  0  0  0
 14 23  1  0  0  0  0
 14 24  2  0  0  0  0
 15 23  2  0  0  0  0
 15 25  1  0  0  0  0
 16 30  2  0  0  0  0
 16 31  1  0  0  0  0
 17 32  1  0  0  0  0
 18 32  1  0  0  0  0
 18 33  2  0  0  0  0
 18 34  1  0  0  0  0
 19 21  2  0  0  0  0
 19 39  1  0  0  0  0
 20 22  2  0  0  0  0
 20 40  1  0  0  0  0
 21 50  1  0  0  0  0
 22 41  1  0  0  0  0
 23 61  1  0  0  0  0
 24 26  1  0  0  0  0
 24 54  1  0  0  0  0
 25 26  2  0  0  0  0
 25 55  1  0  0  0  0
 26 78  1  0  0  0  0
 27 85  1  0  0  0  0
 28 86  1  0  0  0  0
 29 31  2  0  0  0  0
 29 85  1  0  0  0  0
 30 87  1  0  0  0  0
 31 88  1  0  0  0  0
 32 69  2  0  0  0  0
 33 70  1  0  0  0  0
 33 73  1  0  0  0  0
 34 74  1  0  0  0  0
 34 80  2  0  0  0  0
 35 51  1  0  0  0  0
 35 75  1  0  0  0  0
 35 81  2  0  0  0  0
 36 66  1  0  0  0  0
 36 71  1  0  0  0  0
 36 82  2  0  0  0  0
 37 67  1  0  0  0  0
 37 76  1  0  0  0  0
 37 83  2  0  0  0  0
 38 72  1  0  0  0  0
 38 77  1  0  0  0  0
 38 84  2  0  0  0  0
 39 42  1  0  0  0  0
 40 51  1  0  0  0  0
 41 71  1  0  0  0  0
 42 44  1  0  0  0  0
 43 47  1  0  0  0  0
 43 48  1  0  0  0  0
 44 50  1  0  0  0  0
 45 46  1  0  0  0  0
 45 52  1  0  0  0  0
 46 52  1  0  0  0  0
 47 53  1  0  0  0  0
 48 72  1  0  0  0  0
 49 53  1  0  0  0  0
 49 72  1  0  0  0  0
 50 75  1  0  0  0  0
 51 71  1  0  0  0  0
 52 62  1  0  0  0  0
 53 70  1  0  0  0  0
 56 67  1  0  0  0  0
 57 68  1  0  0  0  0
 58 68  1  0  0  0  0
 59 68  1  0  0  0  0
 60 79  1  0  0  0  0
 61 86  1  0  0  0  0
 62 78  1  0  0  0  0
 63 64  1  0  0  0  0
 63 65  1  0  0  0  0
 64 77  1  0  0  0  0
 65 78  1  0  0  0  0
 66 68  1  0  0  0  0
 66 76  1  0  0  0  0
 67 79  1  0  0  0  0
 69 70  1  0  0  0  0
M  CHG  1  79   1
M  ISO  4  38 100  61 101  77 100  86 101
M  END
> <Batch ID>
0140

> <Smiles>
CNC(C)C(=O)NC(C(=O)N1Cc2cc([101O:1][101CH2:1]c3cc(C)c(N(CCC[100NH:0][100C:0](=O)N4CCCC(n5nc(-c6ccc(Oc7ccc(F)cc7F)cc6)c(C(N)=O)c5N)C4)CC4CC4)c(C)c3)ccc2CC1C(=O)NC1CCCc2ccccc21)C(C)(C)C

> <Shape>
0.363

> <Color>
0.257

> <Negative vol penalty>
0.000

$$$$

  -OEChem-04052321133D

 88 98  0     1  0  0  0  0  0999 V2000
  -32.9026  -25.8605   17.5446 C   0  0  0  0  0  0  0  0  0  0  0  0
  -31.7127  -25.3563   18.0596 C   0  0  0  0  0  0  0  0  0  0  0  0
  -28.7319  -16.8458   18.7382 C   0  0  0  0  0  0  0  0  0  0  0  0
  -29.3587  -17.1839   21.0469 C   0  0  0  0  0  0  0  0  0  0  0  0
  -33.4886  -26.9866   18.1211 C   0  0  0  0  0  0  0  0  0  0  0  0
  -31.1086  -25.9774   19.1522 C   0  0  0  0  0  0  0  0  0  0  0  0
  -26.1114  -26.5355   18.5515 C   0  0  0  0  0  0  0  0  0  0  0  0
  -28.9097  -18.2069   18.4906 C   0  0  0  0  0  0  0  0  0  0  0  0
  -29.5365  -18.5450   20.7993 C   0  0  0  0  0  0  0  0  0  0  0  0
  -25.3154  -25.4101   18.7603 C   0  0  0  0  0  0  0  0  0  0  0  0
  -27.5921  -21.2897   20.4573 C   0  0  0  0  0  0  0  0  0  0  0  0
  -27.0637  -22.1910   21.3814 C   0  0  0  0  0  0  0  0  0  0  0  0
  -24.7666  -26.2151   20.9671 C   0  0  0  0  0  0  0  0  0  0  0  0
  -29.2764  -23.0720   21.7875 C   0  0  0  0  0  0  0  0  0  0  0  0
  -23.6455  -20.8852   22.3905 C   0  0  0  0  0  0  0  0  0  0  0  0
  -28.9564  -16.3343   20.0163 C   0  0  0  0  0  0  0  0  0  0  0  0
  -29.7380  -13.9102   20.1600 C   0  0  0  0  0  0  0  0  0  0  0  0
  -32.8864  -27.6275   19.2152 C   0  0  0  0  0  0  0  0  0  0  0  0
  -26.2499  -27.5054   19.5548 C   0  0  0  0  0  0  0  0  0  0  0  0
  -31.6878  -27.1123   19.7448 C   0  0  0  0  0  0  0  0  0  0  0  0
  -25.5630  -27.3532   20.7676 C   0  0  0  0  0  0  0  0  0  0  0  0
  -29.3120  -19.0565   19.5211 C   0  0  0  0  0  0  0  0  0  0  0  0
  -24.6451  -25.2483   19.9693 C   0  0  0  0  0  0  0  0  0  0  0  0
  -28.9627  -21.2796   20.1982 C   0  0  0  0  0  0  0  0  0  0  0  0
  -27.9058  -23.0821   22.0465 C   0  0  0  0  0  0  0  0  0  0  0  0
  -29.8048  -22.1707   20.8633 C   0  0  0  0  0  0  0  0  0  0  0  0
  -28.7724  -14.9284   20.2729 C   0  0  0  0  0  0  0  0  0  0  0  0
  -23.1296  -21.5328   21.2865 C   0  0  0  0  0  0  0  0  0  0  0  0
  -24.3602  -19.7344   22.1277 C   0  0  0  0  0  0  0  0  0  0  0  0
  -29.0694  -12.7627   20.5104 C   0  0  0  0  0  0  0  0  0  0  0  0
  -24.0089  -19.9661   19.8939 C   0  0  0  0  0  0  0  0  0  0  0  0
  -31.1160  -13.9941   19.7732 C   0  0  0  0  0  0  0  0  0  0  0  0
  -28.6826  -28.6401   21.2572 C   0  0  0  0  0  0  0  0  0  0  0  0
  -26.4465  -30.7277   22.3362 C   0  0  0  0  0  0  0  0  0  0  0  0
  -23.1488  -31.4135   22.8850 C   0  0  0  0  0  0  0  0  0  0  0  0
  -24.2189  -15.0060   21.8887 C   0  0  0  0  0  0  0  0  0  0  0  0
  -33.5820  -28.8139   19.8345 C   0  0  0  0  0  0  0  0  0  0  0  0
  -27.0910  -28.7269   19.3039 C   0  0  0  0  0  0  0  0  0  0  0  0
  -25.6624  -28.3756   21.8691 C   0  0  0  0  0  0  0  0  0  0  0  0
  -32.6823  -29.6356   20.7542 C   0  0  0  0  0  0  0  0  0  0  0  0
  -24.9058  -12.5352   19.4006 C   0  0  0  0  0  0  0  0  0  0  0  0
  -23.4203  -15.3642   25.4078 C   0  0  0  0  0  0  0  0  0  0  0  0
  -31.9048  -28.7218   21.6962 C   0  0  0  0  0  0  0  0  0  0  0  0
  -23.0064  -19.1984   17.6401 C   0  0  0  0  0  0  0  0  0  0  0  0
  -23.7956  -18.0458   18.1777 C   0  0  0  0  0  0  0  0  0  0  0  0
  -25.9346  -11.6106   20.0417 C   0  0  0  0  0  0  0  0  0  0  0  0
  -23.9848  -16.7540   25.1491 C   0  0  0  0  0  0  0  0  0  0  0  0
  -23.9113  -13.0320   20.4385 C   0  0  0  0  0  0  0  0  0  0  0  0
  -24.1548  -14.5115   24.3848 C   0  0  0  0  0  0  0  0  0  0  0  0
  -25.6404  -12.9176   22.2226 C   0  0  0  0  0  0  0  0  0  0  0  0
  -30.9893  -27.7729   20.9134 C   0  0  1  0  0  0  0  0  0  0  0  0
  -24.2109  -19.4554   18.5066 C   0  0  0  0  0  0  0  0  0  0  0  0
  -27.5700  -29.3966   20.5882 C   0  0  1  0  0  0  0  0  0  0  0  0
  -26.6396  -12.2573   21.2447 C   0  0  2  0  0  0  0  0  0  0  0  0
  -24.1343  -16.7947   23.6258 C   0  0  1  0  0  0  0  0  0  0  0  0
  -21.6332  -33.1845   23.8144 C   0  0  0  0  0  0  0  0  0  0  0  0
  -27.2256  -29.9043   25.1690 C   0  0  0  0  0  0  0  0  0  0  0  0
  -25.0991  -30.9461   25.9819 C   0  0  0  0  0  0  0  0  0  0  0  0
  -26.8294  -32.3550   24.8667 C   0  0  0  0  0  0  0  0  0  0  0  0
  -21.7743  -31.7643   20.2875 C   0  0  0  0  0  0  0  0  0  0  0  0
  -22.3418  -22.7863   21.4706 C   0  0  0  0  0  0  0  0  0  0  0  0
  -25.2953  -17.6801   23.1914 C   0  0  0  0  0  0  0  0  0  0  0  0
  -23.2098  -24.0477   21.4370 C   0  0  0  0  0  0  0  0  0  1  0  0
  -25.4618  -30.7427   23.4803 C   0  0  1  0  0  0  0  0  0  0  0  0
  -22.3077  -32.6365   22.5664 C   0  0  2  0  0  0  0  0  0  0  0  0
  -26.1534  -30.9666   24.8547 C   0  0  0  0  0  0  0  0  0  0  0  0
  -27.5811  -14.4682   20.6642 N   0  0  0  0  0  0  0  0  0  0  0  0
  -23.2927  -21.0996   20.0192 N   0  0  0  0  0  0  0  0  0  0  0  0
  -24.5620  -19.2441   20.8870 N   0  0  0  0  0  0  0  0  0  0  0  0
  -27.7937  -13.1482   20.8002 N   0  0  0  0  0  0  0  0  0  0  0  0
  -26.5020  -29.5494   21.5782 N   0  0  0  0  0  0  0  0  0  0  0  0
  -24.5769  -13.6892   21.5635 N   0  0  0  0  0  0  0  0  0  0  0  0
  -24.3136  -15.3933   23.2273 N   0  0  0  0  0  0  0  0  0  0  0  0
  -29.4543  -11.4715   20.5958 N   0  0  0  0  0  0  0  0  0  0  0  0
  -31.6426  -15.2510   19.4454 N   0  0  0  0  0  0  0  0  0  0  0  0
  -24.8989  -19.0492   23.2181 N   0  0  0  0  0  0  0  0  0  0  0  0
  -29.8027  -28.4702   20.4659 N   0  0  0  0  0  0  0  0  0  0  0  0
  -24.4607  -31.7493   23.1441 N   0  0  0  0  0  0  0  0  0  0  0  0
  -21.2509  -32.2939   21.5730 N   0  3  0  0  0  0  0  0  0  0  0  0
  -31.8541  -12.9822   19.7039 O   0  0  0  0  0  0  0  0  0  0  0  0
  -28.5363  -28.2414   22.4067 O   0  0  0  0  0  0  0  0  0  0  0  0
  -27.1359  -31.7272   22.1185 O   0  0  0  0  0  0  0  0  0  0  0  0
  -22.6872  -30.2746   22.9057 O   0  0  0  0  0  0  0  0  0  0  0  0
  -23.8225  -15.7979   21.0234 O   0  0  0  0  0  0  0  0  0  0  0  0
  -29.4857  -20.3848   19.2798 O   0  0  0  0  0  0  0  0  0  0  0  0
  -23.8626  -24.1428   20.1774 O   0  0  0  0  0  0  0  0  0  1  0  0
  -27.3980  -23.9486   22.9329 F   0  0  0  0  0  0  0  0  0  0  0  0
  -31.1222  -22.1665   20.6177 F   0  0  0  0  0  0  0  0  0  0  0  0
  1  2  1  0  0  0  0
  1  5  2  0  0  0  0
  2  6  2  0  0  0  0
  3  8  2  0  0  0  0
  3 16  1  0  0  0  0
  4  9  1  0  0  0  0
  4 16  2  0  0  0  0
  5 18  1  0  0  0  0
  6 20  1  0  0  0  0
  7 10  2  0  0  0  0
  7 19  1  0  0  0  0
  8 22  1  0  0  0  0
  9 22  2  0  0  0  0
 10 23  1  0  0  0  0
 11 12  2  0  0  0  0
 11 24  1  0  0  0  0
 12 25  1  0  0  0  0
 13 21  1  0  0  0  0
 13 23  2  0  0  0  0
 14 25  2  0  0  0  0
 14 26  1  0  0  0  0
 15 28  1  0  0  0  0
 15 29  2  0  0  0  0
 16 27  1  0  0  0  0
 17 27  1  0  0  0  0
 17 30  2  0  0  0  0
 17 32  1  0  0  0  0
 18 20  2  0  0  0  0
 18 37  1  0  0  0  0
 19 21  2  0  0  0  0
 19 38  1  0  0  0  0
 20 51  1  0  0  0  0
 21 39  1  0  0  0  0
 22 85  1  0  0  0  0
 23 86  1  0  0  0  0
 24 26  2  0  0  0  0
 24 85  1  0  0  0  0
 25 87  1  0  0  0  0
 26 88  1  0  0  0  0
 27 67  2  0  0  0  0
 28 61  1  0  0  0  0
 28 68  2  0  0  0  0
 29 69  1  0  0  0  0
 29 76  1  0  0  0  0
 30 70  1  0  0  0  0
 30 74  1  0  0  0  0
 31 52  1  0  0  0  0
 31 68  1  0  0  0  0
 31 69  2  0  0  0  0
 32 75  1  0  0  0  0
 32 80  2  0  0  0  0
 33 53  1  0  0  0  0
 33 77  1  0  0  0  0
 33 81  2  0  0  0  0
 34 64  1  0  0  0  0
 34 71  1  0  0  0  0
 34 82  2  0  0  0  0
 35 65  1  0  0  0  0
 35 78  1  0  0  0  0
 35 83  2  0  0  0  0
 36 72  1  0  0  0  0
 36 73  1  0  0  0  0
 36 84  2  0  0  0  0
 37 40  1  0  0  0  0
 38 53  1  0  0  0  0
 39 71  1  0  0  0  0
 40 43  1  0  0  0  0
 41 46  1  0  0  0  0
 41 48  1  0  0  0  0
 42 47  1  0  0  0  0
 42 49  1  0  0  0  0
 43 51  1  0  0  0  0
 44 45  1  0  0  0  0
 44 52  1  0  0  0  0
 45 52  1  0  0  0  0
 46 54  1  0  0  0  0
 47 55  1  0  0  0  0
 48 72  1  0  0  0  0
 49 73  1  0  0  0  0
 50 54  1  0  0  0  0
 50 72  1  0  0  0  0
 51 77  1  0  0  0  0
 53 71  1  0  0  0  0
 54 70  1  0  0  0  0
 55 62  1  0  0  0  0
 55 73  1  0  0  0  0
 56 65  1  0  0  0  0
 57 66  1  0  0  0  0
 58 66  1  0  0  0  0
 59 66  1  0  0  0  0
 60 79  1  0  0  0  0
 61 63  1  0  0  0  0
 62 76  1  0  0  0  0
 63 86  1  0  0  0  0
 64 66  1  0  0  0  0
 64 78  1  0  0  0  0
 65 79  1  0  0  0  0
 67 70  1  0  0  0  0
M  CHG  1  79   1
M  ISO  4  36 100  63 101  73 100  86 101
M  END
> <Batch ID>
0140

> <Smiles>
CNC(C)C(=O)NC(C(=O)N1Cc2cc([101O:1][101CH2:1]Cc3cc(NCC4CCC[100N:0]4[100C:0](=O)N4CCCC(n5nc(-c6ccc(Oc7ccc(F)cc7F)cc6)c(C(N)=O)c5N)C4)nc(C4CC4)n3)ccc2CC1C(=O)NC1CCCc2ccccc21)C(C)(C)C

> <Shape>
0.261

> <Color>
0.062

> <Negative vol penalty>
0.000

$$$$

  -OEChem-04052321133D

 83 92  0     1  0  0  0  0  0999 V2000
  -36.7361  -28.3633   22.1562 C   0  0  0  0  0  0  0  0  0  0  0  0
  -36.2519  -27.3511   21.3337 C   0  0  0  0  0  0  0  0  0  0  0  0
  -31.6343  -19.3309   22.7406 C   0  0  0  0  0  0  0  0  0  0  0  0
  -22.9959   -9.8998   19.9876 C   0  0  0  0  0  0  0  0  0  0  0  0
  -23.7173   -9.9592   22.2926 C   0  0  0  0  0  0  0  0  0  0  0  0
  -36.1469  -28.5919   23.3989 C   0  0  0  0  0  0  0  0  0  0  0  0
  -35.1787  -26.5662   21.7541 C   0  0  0  0  0  0  0  0  0  0  0  0
  -32.4922  -18.2499   22.5384 C   0  0  0  0  0  0  0  0  0  0  0  0
  -29.4825  -23.0615   19.1877 C   0  0  0  0  0  0  0  0  0  0  0  0
  -30.2643  -19.1844   22.5227 C   0  0  0  0  0  0  0  0  0  0  0  0
  -22.2251   -8.7691   20.2580 C   0  0  0  0  0  0  0  0  0  0  0  0
  -22.9465   -8.8285   22.5630 C   0  0  0  0  0  0  0  0  0  0  0  0
  -28.8864  -21.8017   19.2247 C   0  0  0  0  0  0  0  0  0  0  0  0
  -23.1805   -5.4866   22.1073 C   0  0  0  0  0  0  0  0  0  0  0  0
  -23.7633   -4.4710   22.8652 C   0  0  0  0  0  0  0  0  0  0  0  0
  -27.8966  -22.3394   21.3579 C   0  0  0  0  0  0  0  0  0  0  0  0
  -22.0374   -4.7276   24.5363 C   0  0  0  0  0  0  0  0  0  0  0  0
  -23.7421  -10.4948   21.0049 C   0  0  0  0  0  0  0  0  0  0  0  0
  -24.1361  -13.0082   20.8177 C   0  0  0  0  0  0  0  0  0  0  0  0
  -35.0598  -27.8157   23.8307 C   0  0  0  0  0  0  0  0  0  0  0  0
  -29.2987  -23.9672   20.2424 C   0  0  0  0  0  0  0  0  0  0  0  0
  -34.5753  -26.7837   23.0044 C   0  0  0  0  0  0  0  0  0  0  0  0
  -31.9802  -17.0223   22.1182 C   0  0  0  0  0  0  0  0  0  0  0  0
  -28.4894  -23.6110   21.3306 C   0  0  0  0  0  0  0  0  0  0  0  0
  -29.7523  -17.9569   22.1024 C   0  0  0  0  0  0  0  0  0  0  0  0
  -30.6102  -16.8758   21.9002 C   0  0  0  0  0  0  0  0  0  0  0  0
  -22.2004   -8.2335   21.5457 C   0  0  0  0  0  0  0  0  0  0  0  0
  -28.0957  -21.4394   20.3112 C   0  0  0  0  0  0  0  0  0  0  0  0
  -22.0261   -6.1228   22.5639 C   0  0  0  0  0  0  0  0  0  0  0  0
  -23.1918   -4.0915   24.0797 C   0  0  0  0  0  0  0  0  0  0  0  0
  -21.4546   -5.7433   23.7784 C   0  0  0  0  0  0  0  0  0  0  0  0
  -24.5389  -11.6624   20.7261 C   0  0  0  0  0  0  0  0  0  0  0  0
  -25.2489  -13.7254   20.4518 C   0  0  0  0  0  0  0  0  0  0  0  0
  -22.8693  -13.5607   21.1995 C   0  0  0  0  0  0  0  0  0  0  0  0
  -31.2191  -25.3887   22.3387 C   0  0  0  0  0  0  0  0  0  0  0  0
  -28.5083  -26.9687   23.1620 C   0  0  0  0  0  0  0  0  0  0  0  0
  -25.0969  -27.0231   23.2403 C   0  0  0  0  0  0  0  0  0  0  0  0
  -30.7311  -14.6693   20.6907 C   0  0  0  0  0  0  0  0  0  0  0  0
  -34.4861  -28.0692   25.2022 C   0  0  0  0  0  0  0  0  0  0  0  0
  -29.9268  -25.3322   20.1748 C   0  0  0  0  0  0  0  0  0  0  0  0
  -28.2441  -24.5544   22.4788 C   0  0  0  0  0  0  0  0  0  0  0  0
  -33.1124  -27.4381   25.4140 C   0  0  0  0  0  0  0  0  0  0  0  0
  -29.6086  -12.2092   18.3744 C   0  0  0  0  0  0  0  0  0  0  0  0
  -32.6773  -14.5902   22.6404 C   0  0  0  0  0  0  0  0  0  0  0  0
  -33.8249  -15.4644   23.0393 C   0  0  0  0  0  0  0  0  0  0  0  0
  -33.1055  -25.9954   24.9186 C   0  0  0  0  0  0  0  0  0  0  0  0
  -28.1564  -11.9583   18.7873 C   0  0  0  0  0  0  0  0  0  0  0  0
  -30.5079  -12.4553   19.5846 C   0  0  0  0  0  0  0  0  0  0  0  0
  -28.5929  -13.2568   20.9111 C   0  0  0  0  0  0  0  0  0  0  0  0
  -32.9231  -15.8823   21.9093 C   0  0  0  0  0  0  0  0  0  0  0  0
  -33.3970  -25.9272   23.4146 C   0  0  1  0  0  0  0  0  0  0  0  0
  -30.0904  -25.9831   21.5448 C   0  0  1  0  0  0  0  0  0  0  0  0
  -27.6366  -13.0681   19.7221 C   0  0  2  0  0  0  0  0  0  0  0  0
  -23.1664  -28.4296   24.0097 C   0  0  0  0  0  0  0  0  0  0  0  0
  -29.0235  -26.0968   26.0403 C   0  0  0  0  0  0  0  0  0  0  0  0
  -26.6492  -26.6881   26.5707 C   0  0  0  0  0  0  0  0  0  0  0  0
  -28.2282  -28.4548   25.7909 C   0  0  0  0  0  0  0  0  0  0  0  0
  -24.0569  -27.3095   20.4843 C   0  0  0  0  0  0  0  0  0  0  0  0
  -28.2670  -17.8306   21.8752 C   0  0  0  0  0  0  0  0  0  0  0  0
  -27.8671  -17.8376   20.3982 C   0  0  0  0  0  0  0  0  0  0  0  0
  -28.1971  -19.1461   19.6895 C   0  0  0  0  0  0  0  0  0  1  0  0
  -27.3880  -26.7292   24.1451 C   0  0  1  0  0  0  0  0  0  0  0  0
  -24.0975  -28.0984   22.8538 C   0  0  2  0  0  0  0  0  0  0  0  0
  -27.8282  -26.9735   25.6162 C   0  0  0  0  0  0  0  0  0  0  0  0
  -25.8084  -11.5298   20.3327 N   0  0  0  0  0  0  0  0  0  0  0  0
  -26.2129  -12.8015   20.1738 N   0  0  0  0  0  0  0  0  0  0  0  0
  -28.8852  -25.8752   22.3694 N   0  0  0  0  0  0  0  0  0  0  0  0
  -29.9549  -13.5221   20.4219 N   0  0  0  0  0  0  0  0  0  0  0  0
  -25.4869  -15.0498   20.3439 N   0  0  0  0  0  0  0  0  0  0  0  0
  -21.8340  -12.6816   21.5454 N   0  0  0  0  0  0  0  0  0  0  0  0
  -30.0887  -15.6303   21.4706 N   0  0  0  0  0  0  0  0  0  0  0  0
  -32.2195  -26.2882   22.6547 N   0  0  0  0  0  0  0  0  0  0  0  0
  -26.2754  -27.5653   23.7077 N   0  0  0  0  0  0  0  0  0  0  0  0
  -23.2710  -27.6465   21.6991 N   0  3  0  0  0  0  0  0  0  0  0  0
  -22.6567  -14.7968   21.2170 O   0  0  0  0  0  0  0  0  0  0  0  0
  -31.1843  -24.2023   22.6435 O   0  0  0  0  0  0  0  0  0  0  0  0
  -29.0251  -28.0867   23.0946 O   0  0  0  0  0  0  0  0  0  0  0  0
  -24.8549  -25.8222   23.1411 O   0  0  0  0  0  0  0  0  0  0  0  0
  -31.8710  -14.8022   20.2379 O   0  0  0  0  0  0  0  0  0  0  0  0
  -21.4482   -7.1304   21.8099 O   0  0  0  0  0  0  0  0  0  0  0  0
  -27.5132  -20.2101   20.3502 O   0  0  0  0  0  0  0  0  0  1  0  0
  -23.7508   -3.1152   24.8066 F   0  0  0  0  0  0  0  0  0  0  0  0
  -20.3450   -6.3499   24.2216 F   0  0  0  0  0  0  0  0  0  0  0  0
  1  2  1  0  0  0  0
  1  6  2  0  0  0  0
  2  7  2  0  0  0  0
  3  8  1  0  0  0  0
  3 10  2  0  0  0  0
  4 11  2  0  0  0  0
  4 18  1  0  0  0  0
  5 12  1  0  0  0  0
  5 18  2  0  0  0  0
  6 20  1  0  0  0  0
  7 22  1  0  0  0  0
  8 23  2  0  0  0  0
  9 13  2  0  0  0  0
  9 21  1  0  0  0  0
 10 25  1  0  0  0  0
 11 27  1  0  0  0  0
 12 27  2  0  0  0  0
 13 28  1  0  0  0  0
 14 15  2  0  0  0  0
 14 29  1  0  0  0  0
 15 30  1  0  0  0  0
 16 24  1  0  0  0  0
 16 28  2  0  0  0  0
 17 30  2  0  0  0  0
 17 31  1  0  0  0  0
 18 32  1  0  0  0  0
 19 32  1  0  0  0  0
 19 33  2  0  0  0  0
 19 34  1  0  0  0  0
 20 22  2  0  0  0  0
 20 39  1  0  0  0  0
 21 24  2  0  0  0  0
 21 40  1  0  0  0  0
 22 51  1  0  0  0  0
 23 26  1  0  0  0  0
 23 50  1  0  0  0  0
 24 41  1  0  0  0  0
 25 26  2  0  0  0  0
 25 59  1  0  0  0  0
 26 71  1  0  0  0  0
 27 80  1  0  0  0  0
 28 81  1  0  0  0  0
 29 31  2  0  0  0  0
 29 80  1  0  0  0  0
 30 82  1  0  0  0  0
 31 83  1  0  0  0  0
 32 65  2  0  0  0  0
 33 66  1  0  0  0  0
 33 69  1  0  0  0  0
 34 70  1  0  0  0  0
 34 75  2  0  0  0  0
 35 52  1  0  0  0  0
 35 72  1  0  0  0  0
 35 76  2  0  0  0  0
 36 62  1  0  0  0  0
 36 67  1  0  0  0  0
 36 77  2  0  0  0  0
 37 63  1  0  0  0  0
 37 73  1  0  0  0  0
 37 78  2  0  0  0  0
 38 68  1  0  0  0  0
 38 71  1  0  0  0  0
 38 79  2  0  0  0  0
 39 42  1  0  0  0  0
 40 52  1  0  0  0  0
 41 67  1  0  0  0  0
 42 46  1  0  0  0  0
 43 47  1  0  0  0  0
 43 48  1  0  0  0  0
 44 45  1  0  0  0  0
 44 50  1  0  0  0  0
 45 50  1  0  0  0  0
 46 51  1  0  0  0  0
 47 53  1  0  0  0  0
 48 68  1  0  0  0  0
 49 53  1  0  0  0  0
 49 68  1  0  0  0  0
 51 72  1  0  0  0  0
 52 67  1  0  0  0  0
 53 66  1  0  0  0  0
 54 63  1  0  0  0  0
 55 64  1  0  0  0  0
 56 64  1  0  0  0  0
 57 64  1  0  0  0  0
 58 74  1  0  0  0  0
 59 60  1  0  0  0  0
 60 61  1  0  0  0  0
 61 81  1  0  0  0  0
 62 64  1  0  0  0  0
 62 73  1  0  0  0  0
 63 74  1  0  0  0  0
 65 66  1  0  0  0  0
M  CHG  1  74   1
M  ISO  4  38 100  61 101  71 100  81 101
M  END
> <Batch ID>
0140

> <Smiles>
CNC(C)C(=O)NC(C(=O)N1Cc2cc([101O:1][101CH2:1]CCc3cccc(C4CC4)c3[100NH:0][100C:0](=O)N3CCCC(n4nc(-c5ccc(Oc6ccc(F)cc6F)cc5)c(C(N)=O)c4N)C3)ccc2CC1C(=O)NC1CCCc2ccccc21)C(C)(C)C

> <Shape>
0.268

> <Color>
0.207

> <Negative vol penalty>
0.000

$$$$

  -OEChem-04052321133D

 91100  0     1  0  0  0  0  0999 V2000
  -24.2744  -34.1583   22.2794 C   0  0  0  0  0  0  0  0  0  0  0  0
  -25.4999  -33.6703   21.8374 C   0  0  0  0  0  0  0  0  0  0  0  0
  -23.0735   -9.8709   19.9424 C   0  0  0  0  0  0  0  0  0  0  0  0
  -23.8347   -9.8769   22.2353 C   0  0  0  0  0  0  0  0  0  0  0  0
  -23.7437  -33.7136   23.4895 C   0  0  0  0  0  0  0  0  0  0  0  0
  -26.1960  -32.7380   22.6060 C   0  0  0  0  0  0  0  0  0  0  0  0
  -30.5841  -27.1151   21.9400 C   0  0  0  0  0  0  0  0  0  0  0  0
  -32.0707  -16.5909   22.5355 C   0  0  0  0  0  0  0  0  0  0  0  0
  -22.3286   -8.7185   20.1926 C   0  0  0  0  0  0  0  0  0  0  0  0
  -23.0897   -8.7245   22.4856 C   0  0  0  0  0  0  0  0  0  0  0  0
  -31.8155  -26.6494   22.3992 C   0  0  0  0  0  0  0  0  0  0  0  0
  -32.6740  -17.4676   23.4372 C   0  0  0  0  0  0  0  0  0  0  0  0
  -19.8611   -7.9301   23.0899 C   0  0  0  0  0  0  0  0  0  0  0  0
  -19.1047   -7.8909   24.2612 C   0  0  0  0  0  0  0  0  0  0  0  0
  -30.7640  -25.8938   24.4345 C   0  0  0  0  0  0  0  0  0  0  0  0
  -30.5029  -18.3346   24.0468 C   0  0  0  0  0  0  0  0  0  0  0  0
  -20.3445   -5.9520   24.9968 C   0  0  0  0  0  0  0  0  0  0  0  0
  -23.8267  -10.4501   20.9637 C   0  0  0  0  0  0  0  0  0  0  0  0
  -24.1712  -12.9749   20.8437 C   0  0  0  0  0  0  0  0  0  0  0  0
  -24.4290  -32.7682   24.2687 C   0  0  0  0  0  0  0  0  0  0  0  0
  -29.4335  -26.9831   22.7307 C   0  0  0  0  0  0  0  0  0  0  0  0
  -25.6746  -32.2812   23.8284 C   0  0  0  0  0  0  0  0  0  0  0  0
  -29.5188  -26.3563   23.9820 C   0  0  0  0  0  0  0  0  0  0  0  0
  -30.6835  -16.5861   22.3894 C   0  0  0  0  0  0  0  0  0  0  0  0
  -22.3366   -8.1453   21.4643 C   0  0  0  0  0  0  0  0  0  0  0  0
  -31.9061  -26.0413   23.6478 C   0  0  0  0  0  0  0  0  0  0  0  0
  -31.8901  -18.3394   24.1929 C   0  0  0  0  0  0  0  0  0  0  0  0
  -20.8591   -6.9802   22.8720 C   0  0  0  0  0  0  0  0  0  0  0  0
  -29.8996  -17.4579   23.1451 C   0  0  0  0  0  0  0  0  0  0  0  0
  -19.3465   -6.9019   25.2147 C   0  0  0  0  0  0  0  0  0  0  0  0
  -21.1008   -5.9912   23.8254 C   0  0  0  0  0  0  0  0  0  0  0  0
  -24.5969  -11.6401   20.7056 C   0  0  0  0  0  0  0  0  0  0  0  0
  -25.2639  -13.7232   20.4799 C   0  0  0  0  0  0  0  0  0  0  0  0
  -22.9015  -13.4920   21.2634 C   0  0  0  0  0  0  0  0  0  0  0  0
  -27.3830  -29.0134   24.0638 C   0  0  0  0  0  0  0  0  0  0  0  0
  -25.7896  -26.2936   24.8293 C   0  0  0  0  0  0  0  0  0  0  0  0
  -25.9048  -22.9301   25.3955 C   0  0  0  0  0  0  0  0  0  0  0  0
  -30.7313  -14.7629   20.6516 C   0  0  0  0  0  0  0  0  0  0  0  0
  -23.8379  -32.3529   25.5926 C   0  0  0  0  0  0  0  0  0  0  0  0
  -28.1079  -27.4666   22.2096 C   0  0  0  0  0  0  0  0  0  0  0  0
  -28.3095  -26.1721   24.8607 C   0  0  0  0  0  0  0  0  0  0  0  0
  -24.4608  -31.0827   26.1662 C   0  0  0  0  0  0  0  0  0  0  0  0
  -29.6130  -12.3505   18.2837 C   0  0  0  0  0  0  0  0  0  0  0  0
  -25.9823  -31.1481   26.0795 C   0  0  0  0  0  0  0  0  0  0  0  0
  -28.1732  -12.0604   18.7141 C   0  0  0  0  0  0  0  0  0  0  0  0
  -33.9804  -20.9712   25.6831 C   0  0  0  0  0  0  0  0  0  0  0  0
  -32.7158  -21.0174   23.5088 C   0  0  0  0  0  0  0  0  0  0  0  0
  -30.5290  -12.5782   19.4848 C   0  0  0  0  0  0  0  0  0  0  0  0
  -28.6236  -13.3046   20.8673 C   0  0  0  0  0  0  0  0  0  0  0  0
  -34.8944  -22.0739   25.1718 C   0  0  0  0  0  0  0  0  0  0  0  0
  -33.6325  -22.1201   23.0026 C   0  0  0  0  0  0  0  0  0  0  0  0
  -26.4479  -31.2505   24.6220 C   0  0  1  0  0  0  0  0  0  0  0  0
  -27.0951  -27.7418   23.3168 C   0  0  1  0  0  0  0  0  0  0  0  0
  -27.6499  -13.1325   19.6900 C   0  0  2  0  0  0  0  0  0  0  0  0
  -33.4111  -20.1340   24.5416 C   0  0  0  0  0  0  0  0  0  0  0  0
  -24.2938  -15.5293   24.5533 C   0  0  0  0  0  0  0  0  0  0  0  0
  -24.4494  -20.9901   26.0402 C   0  0  0  0  0  0  0  0  0  0  0  0
  -25.8006  -27.2512   27.7264 C   0  0  0  0  0  0  0  0  0  0  0  0
  -25.2181  -24.9190   28.4264 C   0  0  0  0  0  0  0  0  0  0  0  0
  -23.6517  -26.2129   26.9790 C   0  0  0  0  0  0  0  0  0  0  0  0
  -26.4505  -21.5248   22.8487 C   0  0  0  0  0  0  0  0  0  0  0  0
  -25.6078  -16.1662   24.9765 C   0  0  0  0  0  0  0  0  0  0  0  0
  -26.4829  -16.4970   23.7709 C   0  0  0  0  0  0  0  0  0  0  0  0
  -34.9620  -24.1032   23.7235 C   0  0  0  0  0  0  0  0  0  0  0  0
  -27.7809  -17.1741   24.1873 C   0  0  0  0  0  0  0  0  0  0  0  0
  -34.0449  -25.1471   23.1173 C   0  0  0  0  0  0  0  0  0  1  0  0
  -25.8092  -25.3353   25.9957 C   0  0  1  0  0  0  0  0  0  0  0  0
  -25.0355  -21.7931   24.8894 C   0  0  2  0  0  0  0  0  0  0  0  0
  -25.1433  -25.9347   27.2664 C   0  0  0  0  0  0  0  0  0  0  0  0
  -25.8614  -11.5430   20.2866 N   0  0  0  0  0  0  0  0  0  0  0  0
  -26.2396  -12.8262   20.1582 N   0  0  0  0  0  0  0  0  0  0  0  0
  -27.0371  -26.6671   24.3097 N   0  0  0  0  0  0  0  0  0  0  0  0
  -29.9716  -13.6096   20.3626 N   0  0  0  0  0  0  0  0  0  0  0  0
  -25.4757  -15.0544   20.4069 N   0  0  0  0  0  0  0  0  0  0  0  0
  -21.8888  -12.5839   21.6012 N   0  0  0  0  0  0  0  0  0  0  0  0
  -30.0854  -15.6886   21.4704 N   0  0  0  0  0  0  0  0  0  0  0  0
  -26.3773  -29.9570   23.9768 N   0  0  0  0  0  0  0  0  0  0  0  0
  -25.1899  -24.1024   25.5215 N   0  0  0  0  0  0  0  0  0  0  0  0
  -34.1432  -22.9250   24.1748 N   0  3  0  0  0  0  0  0  0  0  0  0
  -25.8345  -20.8721   24.0325 N   0  3  0  0  0  0  0  0  0  0  0  0
  -22.6666  -14.7229   21.3210 O   0  0  0  0  0  0  0  0  0  0  0  0
  -28.4388  -29.1292   24.6751 O   0  0  0  0  0  0  0  0  0  0  0  0
  -24.7071  -26.6903   24.3907 O   0  0  0  0  0  0  0  0  0  0  0  0
  -27.0977  -22.7912   25.6567 O   0  0  0  0  0  0  0  0  0  0  0  0
  -31.8603  -14.9304   20.1833 O   0  0  0  0  0  0  0  0  0  0  0  0
  -21.6096   -7.0210   21.7089 O   0  0  0  0  0  0  0  0  0  0  0  0
  -32.4820  -19.1999   25.0792 O   0  0  0  0  0  0  0  0  0  0  0  0
  -33.1068  -25.5865   24.0986 O   0  0  0  0  0  0  0  0  0  1  0  0
  -28.5423  -17.4689   23.0184 O   0  0  0  0  0  0  0  0  0  0  0  0
  -18.6211   -6.8652   26.3402 F   0  0  0  0  0  0  0  0  0  0  0  0
  -22.0590   -5.0767   23.6222 F   0  0  0  0  0  0  0  0  0  0  0  0
  1  2  1  0  0  0  0
  1  5  2  0  0  0  0
  2  6  2  0  0  0  0
  3  9  2  0  0  0  0
  3 18  1  0  0  0  0
  4 10  1  0  0  0  0
  4 18  2  0  0  0  0
  5 20  1  0  0  0  0
  6 22  1  0  0  0  0
  7 11  2  0  0  0  0
  7 21  1  0  0  0  0
  8 12  2  0  0  0  0
  8 24  1  0  0  0  0
  9 25  1  0  0  0  0
 10 25  2  0  0  0  0
 11 26  1  0  0  0  0
 12 27  1  0  0  0  0
 13 14  2  0  0  0  0
 13 28  1  0  0  0  0
 14 30  1  0  0  0  0
 15 23  1  0  0  0  0
 15 26  2  0  0  0  0
 16 27  2  0  0  0  0
 16 29  1  0  0  0  0
 17 30  2  0  0  0  0
 17 31  1  0  0  0  0
 18 32  1  0  0  0  0
 19 32  1  0  0  0  0
 19 33  2  0  0  0  0
 19 34  1  0  0  0  0
 20 22  2  0  0  0  0
 20 39  1  0  0  0  0
 21 23  2  0  0  0  0
 21 40  1  0  0  0  0
 22 52  1  0  0  0  0
 23 41  1  0  0  0  0
 24 29  2  0  0  0  0
 24 76  1  0  0  0  0
 25 86  1  0  0  0  0
 26 88  1  0  0  0  0
 27 87  1  0  0  0  0
 28 31  2  0  0  0  0
 28 86  1  0  0  0  0
 29 89  1  0  0  0  0
 30 90  1  0  0  0  0
 31 91  1  0  0  0  0
 32 70  2  0  0  0  0
 33 71  1  0  0  0  0
 33 74  1  0  0  0  0
 34 75  1  0  0  0  0
 34 81  2  0  0  0  0
 35 53  1  0  0  0  0
 35 77  1  0  0  0  0
 35 82  2  0  0  0  0
 36 67  1  0  0  0  0
 36 72  1  0  0  0  0
 36 83  2  0  0  0  0
 37 68  1  0  0  0  0
 37 78  1  0  0  0  0
 37 84  2  0  0  0  0
 38 73  1  0  0  0  0
 38 76  1  0  0  0  0
 38 85  2  0  0  0  0
 39 42  1  0  0  0  0
 40 53  1  0  0  0  0
 41 72  1  0  0  0  0
 42 44  1  0  0  0  0
 43 45  1  0  0  0  0
 43 48  1  0  0  0  0
 44 52  1  0  0  0  0
 45 54  1  0  0  0  0
 46 50  1  0  0  0  0
 46 55  1  0  0  0  0
 47 51  1  0  0  0  0
 47 55  1  0  0  0  0
 48 73  1  0  0  0  0
 49 54  1  0  0  0  0
 49 73  1  0  0  0  0
 50 79  1  0  0  0  0
 51 79  1  0  0  0  0
 52 77  1  0  0  0  0
 53 72  1  0  0  0  0
 54 71  1  0  0  0  0
 55 87  1  0  0  0  0
 56 62  1  0  0  0  0
 57 68  1  0  0  0  0
 58 69  1  0  0  0  0
 59 69  1  0  0  0  0
 60 69  1  0  0  0  0
 61 80  1  0  0  0  0
 62 63  1  0  0  0  0
 63 65  1  0  0  0  0
 64 66  1  0  0  0  0
 64 79  1  0  0  0  0
 65 89  1  0  0  0  0
 66 88  1  0  0  0  0
 67 69  1  0  0  0  0
 67 78  1  0  0  0  0
 68 80  1  0  0  0  0
 70 71  1  0  0  0  0
M  CHG  2  79   1  80   1
M  ISO  4  38 100  66 101  76 100  88 101
M  END
> <Batch ID>
0140

> <Smiles>
CCCCOc1cc(OC2CCN(C[101CH2:1][101O:1]c3ccc4c(c3)CN(C(=O)C(NC(=O)C(C)NC)C(C)(C)C)C(C(=O)NC3CCCc5ccccc53)C4)CC2)ccc1[100NH:0][100C:0](=O)N1CCCC(n2nc(-c3ccc(Oc4ccc(F)cc4F)cc3)c(C(N)=O)c2N)C1

> <Shape>
0.238

> <Color>
0.177

> <Negative vol penalty>
0.000

$$$$

  -OEChem-04052321133D

 85 94  0     1  0  0  0  0  0999 V2000
  -19.8907  -17.6700   17.2355 C   0  0  0  0  0  0  0  0  0  0  0  0
  -20.9403  -18.2355   17.9526 C   0  0  0  0  0  0  0  0  0  0  0  0
  -20.3648  -27.3118   23.7749 C   0  0  0  0  0  0  0  0  0  0  0  0
  -22.0202  -25.6355   23.2390 C   0  0  0  0  0  0  0  0  0  0  0  0
  -19.7408  -16.2844   17.1974 C   0  0  0  0  0  0  0  0  0  0  0  0
  -21.8400  -17.4156   18.6328 C   0  0  0  0  0  0  0  0  0  0  0  0
  -26.6553  -18.8233   17.9433 C   0  0  0  0  0  0  0  0  0  0  0  0
  -19.3564  -26.4600   23.3242 C   0  0  0  0  0  0  0  0  0  0  0  0
  -21.0117  -24.7837   22.7884 C   0  0  0  0  0  0  0  0  0  0  0  0
  -27.1098  -19.9184   18.6768 C   0  0  0  0  0  0  0  0  0  0  0  0
  -18.9073  -22.3062   21.1625 C   0  0  0  0  0  0  0  0  0  0  0  0
  -19.1152  -21.6363   19.9569 C   0  0  0  0  0  0  0  0  0  0  0  0
  -28.1603  -18.4211   20.2497 C   0  0  0  0  0  0  0  0  0  0  0  0
  -27.8446  -23.5439   20.2936 C   0  0  0  0  0  0  0  0  0  0  0  0
  -19.3122  -23.7553   18.8133 C   0  0  0  0  0  0  0  0  0  0  0  0
  -29.8603  -25.0793   19.2812 C   0  0  0  0  0  0  0  0  0  0  0  0
  -21.6968  -26.8996   23.7322 C   0  0  0  0  0  0  0  0  0  0  0  0
  -23.2545  -27.8703   25.5039 C   0  0  0  0  0  0  0  0  0  0  0  0
  -20.6448  -15.4467   17.8695 C   0  0  0  0  0  0  0  0  0  0  0  0
  -26.9411  -17.5166   18.3642 C   0  0  0  0  0  0  0  0  0  0  0  0
  -21.7012  -16.0175   18.6047 C   0  0  0  0  0  0  0  0  0  0  0  0
  -27.7104  -17.3112   19.5183 C   0  0  0  0  0  0  0  0  0  0  0  0
  -27.7102  -24.9278   20.2866 C   0  0  0  0  0  0  0  0  0  0  0  0
  -19.6798  -25.1960   22.8310 C   0  0  0  0  0  0  0  0  0  0  0  0
  -27.8600  -19.7174   19.8318 C   0  0  0  0  0  0  0  0  0  0  0  0
  -18.9017  -23.7008   21.1936 C   0  0  0  0  0  0  0  0  0  0  0  0
  -28.7328  -25.7173   19.7724 C   0  0  0  0  0  0  0  0  0  0  0  0
  -19.3176  -22.3608   18.7823 C   0  0  0  0  0  0  0  0  0  0  0  0
  -19.1042  -24.4253   20.0189 C   0  0  0  0  0  0  0  0  0  0  0  0
  -22.7390  -27.7792   24.1971 C   0  0  0  0  0  0  0  0  0  0  0  0
  -29.0118  -23.0031   19.7788 C   0  0  0  0  0  0  0  0  0  0  0  0
  -24.2182  -28.8458   25.4256 C   0  0  0  0  0  0  0  0  0  0  0  0
  -22.8945  -27.1384   26.6831 C   0  0  0  0  0  0  0  0  0  0  0  0
  -25.1957  -15.0210   19.2748 C   0  0  0  0  0  0  0  0  0  0  0  0
  -28.0663  -13.5105   19.2822 C   0  0  0  0  0  0  0  0  0  0  0  0
  -31.4633  -13.7457   19.5088 C   0  0  0  0  0  0  0  0  0  0  0  0
  -27.5607  -30.9225   20.9127 C   0  0  0  0  0  0  0  0  0  0  0  0
  -20.4144  -13.9565   17.8383 C   0  0  0  0  0  0  0  0  0  0  0  0
  -26.4662  -16.3464   17.5471 C   0  0  0  0  0  0  0  0  0  0  0  0
  -28.0617  -15.9287   20.0016 C   0  0  0  0  0  0  0  0  0  0  0  0
  -21.6292  -13.1430   18.2773 C   0  0  0  0  0  0  0  0  0  0  0  0
  -25.3542  -32.7996   22.9827 C   0  0  0  0  0  0  0  0  0  0  0  0
  -22.2262  -13.7227   19.5557 C   0  0  0  0  0  0  0  0  0  0  0  0
  -24.3300  -26.7778   19.9261 C   0  0  0  0  0  0  0  0  0  0  0  0
  -25.3962  -26.9385   18.8787 C   0  0  0  0  0  0  0  0  0  0  0  0
  -24.4803  -31.7340   23.6466 C   0  0  0  0  0  0  0  0  0  0  0  0
  -25.6981  -32.4298   21.5415 C   0  0  0  0  0  0  0  0  0  0  0  0
  -25.4303  -30.0303   22.0360 C   0  0  0  0  0  0  0  0  0  0  0  0
  -22.7122  -15.1603   19.3351 C   0  0  1  0  0  0  0  0  0  0  0  0
  -26.3799  -15.0524   18.3506 C   0  0  1  0  0  0  0  0  0  0  0  0
  -25.3906  -25.7242   19.7654 C   0  0  0  0  0  0  0  0  0  0  0  0
  -25.1036  -30.3319   23.5086 C   0  0  2  0  0  0  0  0  0  0  0  0
  -33.5392  -12.3357   19.5195 C   0  0  0  0  0  0  0  0  0  0  0  0
  -27.4690  -12.6571   22.1501 C   0  0  0  0  0  0  0  0  0  0  0  0
  -29.8957  -12.1017   22.4164 C   0  0  0  0  0  0  0  0  0  0  0  0
  -28.5171  -10.8845   20.7310 C   0  0  0  0  0  0  0  0  0  0  0  0
  -32.5185  -15.0752   17.0844 C   0  0  0  0  0  0  0  0  0  0  0  0
  -26.4671  -25.5476   20.8326 C   0  0  0  0  0  0  0  0  0  0  0  0
  -29.3454  -29.2905   20.3552 C   0  0  0  0  0  0  0  0  0  0  0  0
  -29.6402  -27.8050   20.4611 C   0  0  0  0  0  0  0  0  0  0  0  0
  -29.1571  -13.2926   20.3028 C   0  0  1  0  0  0  0  0  0  0  0  0
  -32.5732  -13.1431   18.6665 C   0  0  2  0  0  0  0  0  0  0  0  0
  -28.7516  -12.2601   21.3923 C   0  0  0  0  0  0  0  0  0  0  0  0
  -30.0268  -23.7377   19.2710 N   0  0  0  0  0  0  0  0  0  0  0  0
  -23.3264  -28.6292   23.3507 N   0  0  0  0  0  0  0  0  0  0  0  0
  -24.2210  -29.2637   24.1273 N   0  0  0  0  0  0  0  0  0  0  0  0
  -27.5690  -14.8167   19.1720 N   0  0  0  0  0  0  0  0  0  0  0  0
  -26.2868  -31.0897   21.4803 N   0  0  0  0  0  0  0  0  0  0  0  0
  -25.0550  -29.3783   26.3414 N   0  0  0  0  0  0  0  0  0  0  0  0
  -21.8839  -26.1721   26.5872 N   0  0  0  0  0  0  0  0  0  0  0  0
  -29.1325  -21.6074   19.7923 N   0  0  0  0  0  0  0  0  0  1  0  0
  -23.9790  -15.1639   18.6355 N   0  0  0  0  0  0  0  0  0  0  0  0
  -30.3531  -12.9290   19.5506 N   0  0  0  0  0  0  0  0  0  0  0  0
  -28.0474  -29.6211   20.9001 N   0  0  0  0  0  0  0  0  0  0  0  0
  -33.3411  -14.2177   17.9761 N   0  3  0  0  0  0  0  0  0  0  0  0
  -23.4412  -27.3471   27.7927 O   0  0  0  0  0  0  0  0  0  0  0  0
  -25.3726  -14.8764   20.4788 O   0  0  0  0  0  0  0  0  0  0  0  0
  -27.6750  -12.5582   18.6026 O   0  0  0  0  0  0  0  0  0  0  0  0
  -31.5719  -14.8304   20.0763 O   0  0  0  0  0  0  0  0  0  0  0  0
  -28.2180  -31.8640   20.4562 O   0  0  0  0  0  0  0  0  0  0  0  0
  -18.6960  -24.3645   22.3914 O   0  0  0  0  0  0  0  0  0  0  0  0
  -28.6449  -27.0715   19.7454 O   0  0  0  0  0  0  0  0  0  0  0  0
  -28.3043  -20.7844   20.5500 O   0  0  0  0  0  0  0  0  0  1  0  0
  -19.5188  -21.7173   17.6249 F   0  0  0  0  0  0  0  0  0  0  0  0
  -19.1012  -25.7652   20.0427 F   0  0  0  0  0  0  0  0  0  0  0  0
  1  2  1  0  0  0  0
  1  5  2  0  0  0  0
  2  6  2  0  0  0  0
  3  8  2  0  0  0  0
  3 17  1  0  0  0  0
  4  9  1  0  0  0  0
  4 17  2  0  0  0  0
  5 19  1  0  0  0  0
  6 21  1  0  0  0  0
  7 10  2  0  0  0  0
  7 20  1  0  0  0  0
  8 24  1  0  0  0  0
  9 24  2  0  0  0  0
 10 25  1  0  0  0  0
 11 12  2  0  0  0  0
 11 26  1  0  0  0  0
 12 28  1  0  0  0  0
 13 22  1  0  0  0  0
 13 25  2  0  0  0  0
 14 23  2  0  0  0  0
 14 31  1  0  0  0  0
 15 28  2  0  0  0  0
 15 29  1  0  0  0  0
 16 27  2  0  0  0  0
 16 64  1  0  0  0  0
 17 30  1  0  0  0  0
 18 30  1  0  0  0  0
 18 32  2  0  0  0  0
 18 33  1  0  0  0  0
 19 21  2  0  0  0  0
 19 38  1  0  0  0  0
 20 22  2  0  0  0  0
 20 39  1  0  0  0  0
 21 49  1  0  0  0  0
 22 40  1  0  0  0  0
 23 27  1  0  0  0  0
 23 58  1  0  0  0  0
 24 81  1  0  0  0  0
 25 83  1  0  0  0  0
 26 29  2  0  0  0  0
 26 81  1  0  0  0  0
 27 82  1  0  0  0  0
 28 84  1  0  0  0  0
 29 85  1  0  0  0  0
 30 65  2  0  0  0  0
 31 64  2  0  0  0  0
 31 71  1  0  0  0  0
 32 66  1  0  0  0  0
 32 69  1  0  0  0  0
 33 70  1  0  0  0  0
 33 76  2  0  0  0  0
 34 50  1  0  0  0  0
 34 72  1  0  0  0  0
 34 77  2  0  0  0  0
 35 61  1  0  0  0  0
 35 67  1  0  0  0  0
 35 78  2  0  0  0  0
 36 62  1  0  0  0  0
 36 73  1  0  0  0  0
 36 79  2  0  0  0  0
 37 68  1  0  0  0  0
 37 74  1  0  0  0  0
 37 80  2  0  0  0  0
 38 41  1  0  0  0  0
 39 50  1  0  0  0  0
 40 67  1  0  0  0  0
 41 43  1  0  0  0  0
 42 46  1  0  0  0  0
 42 47  1  0  0  0  0
 43 49  1  0  0  0  0
 44 45  1  0  0  0  0
 44 51  1  0  0  0  0
 45 51  1  0  0  0  0
 46 52  1  0  0  0  0
 47 68  1  0  0  0  0
 48 52  1  0  0  0  0
 48 68  1  0  0  0  0
 49 72  1  0  0  0  0
 50 67  1  0  0  0  0
 51 58  1  0  0  0  0
 52 66  1  0  0  0  0
 53 62  1  0  0  0  0
 54 63  1  0  0  0  0
 55 63  1  0  0  0  0
 56 63  1  0  0  0  0
 57 75  1  0  0  0  0
 59 60  1  0  0  0  0
 59 74  1  0  0  0  0
 60 82  1  0  0  0  0
 61 63  1  0  0  0  0
 61 73  1  0  0  0  0
 62 75  1  0  0  0  0
 65 66  1  0  0  0  0
 71 83  1  0  0  0  0
M  CHG  1  75   1
M  ISO  4  37 100  71 101  74 100  83 101
M  END
> <Batch ID>
0140

> <Smiles>
CNC(C)C(=O)NC(C(=O)N1Cc2cc([101O:1][101NH:1]c3cc(CC4CC4)c(OCC[100NH:0][100C:0](=O)N4CCCC(n5nc(-c6ccc(Oc7ccc(F)cc7F)cc6)c(C(N)=O)c5N)C4)cn3)ccc2CC1C(=O)NC1CCCc2ccccc21)C(C)(C)C

> <Shape>
0.229

> <Color>
0.073

> <Negative vol penalty>
0.000

$$$$

  -OEChem-04052321133D

 81 90  0     1  0  0  0  0  0999 V2000
  -22.0948  -11.2284   21.5371 C   0  0  0  0  0  0  0  0  0  0  0  0
  -22.2461  -12.3528   22.3424 C   0  0  0  0  0  0  0  0  0  0  0  0
  -25.0186  -29.1244   19.5580 C   0  0  0  0  0  0  0  0  0  0  0  0
  -25.6087  -27.0580   20.6619 C   0  0  0  0  0  0  0  0  0  0  0  0
  -23.1002  -10.8762   20.6377 C   0  0  0  0  0  0  0  0  0  0  0  0
  -23.4035  -13.1249   22.2494 C   0  0  0  0  0  0  0  0  0  0  0  0
  -22.4223  -18.0920   22.1493 C   0  0  0  0  0  0  0  0  0  0  0  0
  -26.3541  -29.5254   19.5947 C   0  0  0  0  0  0  0  0  0  0  0  0
  -26.9442  -27.4589   20.6986 C   0  0  0  0  0  0  0  0  0  0  0  0
  -22.1192  -18.7057   23.3639 C   0  0  0  0  0  0  0  0  0  0  0  0
  -28.8753  -29.5237   22.5528 C   0  0  0  0  0  0  0  0  0  0  0  0
  -29.5742  -29.3410   23.7460 C   0  0  0  0  0  0  0  0  0  0  0  0
  -24.3815  -19.5311   23.5047 C   0  0  0  0  0  0  0  0  0  0  0  0
  -20.3817  -23.3710   25.8772 C   0  0  0  0  0  0  0  0  0  0  0  0
  -31.1519  -27.9121   22.6032 C   0  0  0  0  0  0  0  0  0  0  0  0
  -18.2296  -23.3443   27.5546 C   0  0  0  0  0  0  0  0  0  0  0  0
  -24.6459  -27.8907   20.0916 C   0  0  0  0  0  0  0  0  0  0  0  0
  -22.6248  -26.7480   19.0348 C   0  0  0  0  0  0  0  0  0  0  0  0
  -24.2663  -11.6499   20.5268 C   0  0  0  0  0  0  0  0  0  0  0  0
  -23.7126  -18.1842   21.6078 C   0  0  0  0  0  0  0  0  0  0  0  0
  -24.4261  -12.7819   21.3486 C   0  0  0  0  0  0  0  0  0  0  0  0
  -24.6978  -18.9198   22.2819 C   0  0  0  0  0  0  0  0  0  0  0  0
  -20.1999  -22.2930   26.7364 C   0  0  0  0  0  0  0  0  0  0  0  0
  -19.1058  -22.2717   27.5942 C   0  0  0  0  0  0  0  0  0  0  0  0
  -27.3168  -28.6926   20.1650 C   0  0  0  0  0  0  0  0  0  0  0  0
  -23.0996  -19.4230   24.0432 C   0  0  0  0  0  0  0  0  0  0  0  0
  -29.3146  -28.9005   21.3848 C   0  0  0  0  0  0  0  0  0  0  0  0
  -30.7125  -28.5353   23.7712 C   0  0  0  0  0  0  0  0  0  0  0  0
  -30.4529  -28.0947   21.4099 C   0  0  0  0  0  0  0  0  0  0  0  0
  -23.2664  -27.4762   20.0545 C   0  0  0  0  0  0  0  0  0  0  0  0
  -19.4482  -24.3943   25.9143 C   0  0  0  0  0  0  0  0  0  0  0  0
  -21.3302  -26.6114   19.4729 C   0  0  0  0  0  0  0  0  0  0  0  0
  -23.1518  -26.2403   17.8019 C   0  0  0  0  0  0  0  0  0  0  0  0
  -25.9945  -16.0945   20.8803 C   0  0  0  0  0  0  0  0  0  0  0  0
  -27.4547  -18.7117   19.6390 C   0  0  0  0  0  0  0  0  0  0  0  0
  -27.7957  -22.1073   19.6285 C   0  0  0  0  0  0  0  0  0  0  0  0
  -18.8361  -26.6189   24.9029 C   0  0  0  0  0  0  0  0  0  0  0  0
  -25.3463  -11.2026   19.5737 C   0  0  0  0  0  0  0  0  0  0  0  0
  -24.0163  -17.5389   20.2835 C   0  0  0  0  0  0  0  0  0  0  0  0
  -26.0928  -19.0660   21.7330 C   0  0  0  0  0  0  0  0  0  0  0  0
  -26.3775  -12.2864   19.2698 C   0  0  0  0  0  0  0  0  0  0  0  0
  -18.0483  -28.7920   22.1948 C   0  0  0  0  0  0  0  0  0  0  0  0
  -26.8312  -12.9676   20.5570 C   0  0  0  0  0  0  0  0  0  0  0  0
  -19.2357  -28.6303   21.2429 C   0  0  0  0  0  0  0  0  0  0  0  0
  -20.6917  -19.7674   26.5014 C   0  0  0  0  0  0  0  0  0  0  0  0
  -18.4834  -28.7405   23.6582 C   0  0  0  0  0  0  0  0  0  0  0  0
  -20.4683  -27.4024   23.0760 C   0  0  0  0  0  0  0  0  0  0  0  0
  -21.1793  -21.1804   26.7213 C   0  0  1  0  0  0  0  0  0  0  0  0
  -25.6562  -13.6588   21.2592 C   0  0  1  0  0  0  0  0  0  0  0  0
  -25.5033  -17.2666   20.0786 C   0  0  1  0  0  0  0  0  0  0  0  0
  -20.0710  -27.3826   21.5909 C   0  0  2  0  0  0  0  0  0  0  0  0
  -21.4622  -20.4616   25.4203 C   0  0  1  0  0  0  0  0  0  1  0  0
  -18.8607  -21.1424   28.5340 C   0  0  0  0  0  0  0  0  0  0  0  0
  -28.5988  -24.3646   18.8819 C   0  0  0  0  0  0  0  0  0  0  0  0
  -29.8871  -18.0075   21.3412 C   0  0  0  0  0  0  0  0  0  0  0  0
  -30.7445  -20.3272   20.9513 C   0  0  0  0  0  0  0  0  0  0  0  0
  -30.4236  -18.7774   19.0231 C   0  0  0  0  0  0  0  0  0  0  0  0
  -25.5797  -22.3817   17.6861 C   0  0  0  0  0  0  0  0  0  0  0  0
  -28.3983  -19.7629   20.1715 C   0  0  1  0  0  0  0  0  0  0  0  0
  -27.8280  -23.1129   18.4918 C   0  0  2  0  0  0  0  0  0  0  0  0
  -29.8377  -19.2146   20.3834 C   0  0  0  0  0  0  0  0  0  0  0  0
  -18.3731  -24.4089   26.7338 N   0  0  0  0  0  0  0  0  0  0  0  0
  -22.4470  -27.7811   21.0643 N   0  0  0  0  0  0  0  0  0  0  0  0
  -21.2771  -27.2419   20.6812 N   0  0  0  0  0  0  0  0  0  0  0  0
  -26.3424  -18.4115   20.4381 N   0  0  0  0  0  0  0  0  0  0  0  0
  -19.2663  -27.5297   23.9149 N   0  0  0  0  0  0  0  0  0  0  0  0
  -20.2435  -26.0148   18.9386 N   0  0  0  0  0  0  0  0  0  0  0  0
  -24.5028  -26.4699   17.5079 N   0  0  0  0  0  0  0  0  0  0  0  0
  -19.6421  -25.4887   25.0353 N   0  0  0  0  0  0  0  0  0  0  0  0
  -25.3402  -14.9094   20.6031 N   0  0  0  0  0  0  0  0  0  0  0  0
  -28.3178  -20.8892   19.2478 N   0  0  0  0  0  0  0  0  0  0  0  0
  -26.4429  -23.5125   18.1141 N   0  3  0  0  0  0  0  0  0  0  0  0
  -22.4416  -25.6162   16.9775 O   0  0  0  0  0  0  0  0  0  0  0  0
  -26.9012  -16.2533   21.6893 O   0  0  0  0  0  0  0  0  0  0  0  0
  -27.6918  -18.1817   18.5506 O   0  0  0  0  0  0  0  0  0  0  0  0
  -27.3551  -22.3767   20.7438 O   0  0  0  0  0  0  0  0  0  0  0  0
  -17.8119  -26.8130   25.5627 O   0  0  0  0  0  0  0  0  0  0  0  0
  -28.6201  -29.0835   20.2008 O   0  0  0  0  0  0  0  0  0  0  0  0
  -22.8065  -20.0225   25.2292 O   0  0  0  0  0  0  0  0  0  1  0  0
  -31.3845  -28.3612   24.9168 F   0  0  0  0  0  0  0  0  0  0  0  0
  -30.8805  -27.4944   20.2908 F   0  0  0  0  0  0  0  0  0  0  0  0
  1  2  1  0  0  0  0
  1  5  2  0  0  0  0
  2  6  2  0  0  0  0
  3  8  2  0  0  0  0
  3 17  1  0  0  0  0
  4  9  1  0  0  0  0
  4 17  2  0  0  0  0
  5 19  1  0  0  0  0
  6 21  1  0  0  0  0
  7 10  2  0  0  0  0
  7 20  1  0  0  0  0
  8 25  1  0  0  0  0
  9 25  2  0  0  0  0
 10 26  1  0  0  0  0
 11 12  2  0  0  0  0
 11 27  1  0  0  0  0
 12 28  1  0  0  0  0
 13 22  1  0  0  0  0
 13 26  2  0  0  0  0
 14 23  1  0  0  0  0
 14 31  2  0  0  0  0
 15 28  2  0  0  0  0
 15 29  1  0  0  0  0
 16 24  1  0  0  0  0
 16 62  2  0  0  0  0
 17 30  1  0  0  0  0
 18 30  1  0  0  0  0
 18 32  2  0  0  0  0
 18 33  1  0  0  0  0
 19 21  2  0  0  0  0
 19 38  1  0  0  0  0
 20 22  2  0  0  0  0
 20 39  1  0  0  0  0
 21 49  1  0  0  0  0
 22 40  1  0  0  0  0
 23 24  2  0  0  0  0
 23 48  1  0  0  0  0
 24 53  1  0  0  0  0
 25 78  1  0  0  0  0
 26 79  1  0  0  0  0
 27 29  2  0  0  0  0
 27 78  1  0  0  0  0
 28 80  1  0  0  0  0
 29 81  1  0  0  0  0
 30 63  2  0  0  0  0
 31 62  1  0  0  0  0
 31 69  1  0  0  0  0
 32 64  1  0  0  0  0
 32 67  1  0  0  0  0
 33 68  1  0  0  0  0
 33 73  2  0  0  0  0
 34 50  1  0  0  0  0
 34 70  1  0  0  0  0
 34 74  2  0  0  0  0
 35 59  1  0  0  0  0
 35 65  1  0  0  0  0
 35 75  2  0  0  0  0
 36 60  1  0  0  0  0
 36 71  1  0  0  0  0
 36 76  2  0  0  0  0
 37 66  1  0  0  0  0
 37 69  1  0  0  0  0
 37 77  2  0  0  0  0
 38 41  1  0  0  0  0
 39 50  1  0  0  0  0
 40 65  1  0  0  0  0
 41 43  1  0  0  0  0
 42 44  1  0  0  0  0
 42 46  1  0  0  0  0
 43 49  1  0  0  0  0
 44 51  1  0  0  0  0
 45 48  1  0  0  0  0
 45 52  1  0  0  0  0
 46 66  1  0  0  0  0
 47 51  1  0  0  0  0
 47 66  1  0  0  0  0
 48 52  1  0  0  0  0
 49 70  1  0  0  0  0
 50 65  1  0  0  0  0
 51 64  1  0  0  0  0
 52 79  1  0  0  0  0
 54 60  1  0  0  0  0
 55 61  1  0  0  0  0
 56 61  1  0  0  0  0
 57 61  1  0  0  0  0
 58 72  1  0  0  0  0
 59 61  1  0  0  0  0
 59 71  1  0  0  0  0
 60 72  1  0  0  0  0
 63 64  1  0  0  0  0
M  CHG  1  72   1
M  ISO  4  37 100  52 101  69 100  79 101
M  END
> <Batch ID>
0140

> <Smiles>
CNC(C)C(=O)NC(C(=O)N1Cc2cc([101O:1][101CH:1]3CC3c3cc([100NH:0][100C:0](=O)N4CCCC(n5nc(-c6ccc(Oc7ccc(F)cc7F)cc6)c(C(N)=O)c5N)C4)ncc3C)ccc2CC1C(=O)NC1CCCc2ccccc21)C(C)(C)C

> <Shape>
0.200

> <Color>
0.070

> <Negative vol penalty>
0.000

$$$$

  -OEChem-04052321133D

 83 92  0     1  0  0  0  0  0999 V2000
  -43.8961  -22.4835   17.1477 C   0  0  0  0  0  0  0  0  0  0  0  0
  -43.0230  -22.3063   18.2162 C   0  0  0  0  0  0  0  0  0  0  0  0
  -23.0759   -9.8686   19.9389 C   0  0  0  0  0  0  0  0  0  0  0  0
  -23.8364   -9.8725   22.2321 C   0  0  0  0  0  0  0  0  0  0  0  0
  -43.5644  -23.3607   16.1160 C   0  0  0  0  0  0  0  0  0  0  0  0
  -41.8180  -23.0070   18.2541 C   0  0  0  0  0  0  0  0  0  0  0  0
  -30.4661  -18.3344   24.0530 C   0  0  0  0  0  0  0  0  0  0  0  0
  -37.9079  -20.0770   19.5851 C   0  0  0  0  0  0  0  0  0  0  0  0
  -29.8793  -17.4540   23.1443 C   0  0  0  0  0  0  0  0  0  0  0  0
  -22.3324   -8.7150   20.1874 C   0  0  0  0  0  0  0  0  0  0  0  0
  -23.0928   -8.7188   22.4806 C   0  0  0  0  0  0  0  0  0  0  0  0
  -37.7684  -19.7781   20.9398 C   0  0  0  0  0  0  0  0  0  0  0  0
  -19.8650   -7.9194   23.0828 C   0  0  0  0  0  0  0  0  0  0  0  0
  -19.1083   -7.8776   24.2538 C   0  0  0  0  0  0  0  0  0  0  0  0
  -32.0618  -16.6094   22.5543 C   0  0  0  0  0  0  0  0  0  0  0  0
  -36.0775  -21.4873   21.1366 C   0  0  0  0  0  0  0  0  0  0  0  0
  -20.3504   -5.9394   24.9872 C   0  0  0  0  0  0  0  0  0  0  0  0
  -23.8280  -10.4474   20.9612 C   0  0  0  0  0  0  0  0  0  0  0  0
  -24.1692  -12.9728   20.8447 C   0  0  0  0  0  0  0  0  0  0  0  0
  -42.3503  -24.0653   16.1365 C   0  0  0  0  0  0  0  0  0  0  0  0
  -31.8571  -18.3540   24.2277 C   0  0  0  0  0  0  0  0  0  0  0  0
  -37.1398  -21.0924   18.9975 C   0  0  0  0  0  0  0  0  0  0  0  0
  -41.4703  -23.8954   17.2224 C   0  0  0  0  0  0  0  0  0  0  0  0
  -32.6624  -17.4965   23.4581 C   0  0  0  0  0  0  0  0  0  0  0  0
  -36.2073  -21.7954   19.7737 C   0  0  0  0  0  0  0  0  0  0  0  0
  -30.6763  -16.5905   22.3973 C   0  0  0  0  0  0  0  0  0  0  0  0
  -22.3408   -8.1401   21.4582 C   0  0  0  0  0  0  0  0  0  0  0  0
  -36.8552  -20.4852   21.7163 C   0  0  0  0  0  0  0  0  0  0  0  0
  -20.8643   -6.9712   22.8639 C   0  0  0  0  0  0  0  0  0  0  0  0
  -19.3510   -6.8877   25.2060 C   0  0  0  0  0  0  0  0  0  0  0  0
  -21.1070   -5.9812   23.8161 C   0  0  0  0  0  0  0  0  0  0  0  0
  -24.5967  -11.6388   20.7050 C   0  0  0  0  0  0  0  0  0  0  0  0
  -25.2611  -13.7230   20.4823 C   0  0  0  0  0  0  0  0  0  0  0  0
  -22.8987  -13.4877   21.2647 C   0  0  0  0  0  0  0  0  0  0  0  0
  -37.7914  -23.8536   17.5641 C   0  0  0  0  0  0  0  0  0  0  0  0
  -34.6002  -23.8578   16.9823 C   0  0  0  0  0  0  0  0  0  0  0  0
  -31.4911  -22.7695   17.8746 C   0  0  0  0  0  0  0  0  0  0  0  0
  -30.7270  -14.7697   20.6571 C   0  0  0  0  0  0  0  0  0  0  0  0
  -42.0567  -25.0381   15.0221 C   0  0  0  0  0  0  0  0  0  0  0  0
  -32.4731  -19.3390   25.1885 C   0  0  0  0  0  0  0  0  0  0  0  0
  -37.2830  -21.3846   17.5290 C   0  0  0  0  0  0  0  0  0  0  0  0
  -35.3442  -22.8810   19.1863 C   0  0  0  0  0  0  0  0  0  0  0  0
  -34.1567  -17.4790   23.6307 C   0  0  0  0  0  0  0  0  0  0  0  0
  -40.5912  -25.4596   14.9518 C   0  0  0  0  0  0  0  0  0  0  0  0
  -29.6126  -12.3590   18.2856 C   0  0  0  0  0  0  0  0  0  0  0  0
  -40.0730  -25.8227   16.3398 C   0  0  0  0  0  0  0  0  0  0  0  0
  -28.1731  -12.0665   18.7152 C   0  0  0  0  0  0  0  0  0  0  0  0
  -30.5280  -12.5863   19.4874 C   0  0  0  0  0  0  0  0  0  0  0  0
  -28.6212  -13.3083   20.8702 C   0  0  0  0  0  0  0  0  0  0  0  0
  -33.8875  -18.9612   25.6147 C   0  0  0  0  0  0  0  0  0  0  0  0
  -40.1427  -24.6189   17.2871 C   0  0  1  0  0  0  0  0  0  0  0  0
  -36.8171  -22.7871   17.1506 C   0  0  1  0  0  0  0  0  0  0  0  0
  -27.6481  -13.1365   19.6923 C   0  0  2  0  0  0  0  0  0  0  0  0
  -29.0736  -22.9724   17.2329 C   0  0  0  0  0  0  0  0  0  0  0  0
  -34.4999  -26.6327   18.2471 C   0  0  0  0  0  0  0  0  0  0  0  0
  -32.0172  -26.3767   18.4443 C   0  0  0  0  0  0  0  0  0  0  0  0
  -33.0951  -26.3703   16.1947 C   0  0  0  0  0  0  0  0  0  0  0  0
  -31.2728  -19.8691   17.3280 C   0  0  0  0  0  0  0  0  0  0  0  0
  -36.1675  -18.5302   24.6837 C   0  0  0  0  0  0  0  0  0  0  0  0
  -36.9720  -18.8501   23.4393 C   0  0  0  0  0  0  0  0  0  1  0  0
  -33.3811  -24.3682   17.7119 C   0  0  1  0  0  0  0  0  0  0  0  0
  -30.3579  -22.1773   17.0564 C   0  0  2  0  0  0  0  0  0  0  0  0
  -33.2658  -25.9179   17.6613 C   0  0  0  0  0  0  0  0  0  0  0  0
  -25.8615  -11.5439   20.2863 N   0  0  0  0  0  0  0  0  0  0  0  0
  -26.2381  -12.8277   20.1597 N   0  0  0  0  0  0  0  0  0  0  0  0
  -35.5257  -23.1339   17.7473 N   0  0  0  0  0  0  0  0  0  0  0  0
  -29.9690  -13.6157   20.3664 N   0  0  0  0  0  0  0  0  0  0  0  0
  -25.4711  -15.0547   20.4111 N   0  0  0  0  0  0  0  0  0  0  0  0
  -21.8871  -12.5778   21.6009 N   0  0  0  0  0  0  0  0  0  0  0  0
  -30.0797  -15.6934   21.4770 N   0  0  0  0  0  0  0  0  0  0  0  0
  -39.0535  -23.7035   17.0219 N   0  0  0  0  0  0  0  0  0  0  0  0
  -32.2384  -23.6650   17.1391 N   0  0  0  0  0  0  0  0  0  0  0  0
  -34.7039  -18.6772   24.3794 N   0  3  1  0  0  0  0  0  0  0  0  0
  -30.0999  -20.7695   17.4716 N   0  3  0  0  0  0  0  0  0  0  0  0
  -22.6621  -14.7182   21.3239 O   0  0  0  0  0  0  0  0  0  0  0  0
  -37.4247  -24.7475   18.3179 O   0  0  0  0  0  0  0  0  0  0  0  0
  -34.7231  -24.0866   15.7764 O   0  0  0  0  0  0  0  0  0  0  0  0
  -31.6910  -22.4706   19.0499 O   0  0  0  0  0  0  0  0  0  0  0  0
  -31.8560  -14.9393   20.1894 O   0  0  0  0  0  0  0  0  0  0  0  0
  -21.6151   -7.0144   21.7011 O   0  0  0  0  0  0  0  0  0  0  0  0
  -36.7175  -20.1959   23.0389 O   0  0  0  0  0  0  0  0  0  1  0  0
  -18.6254   -6.8486   26.3312 F   0  0  0  0  0  0  0  0  0  0  0  0
  -22.0665   -5.0682   23.6119 F   0  0  0  0  0  0  0  0  0  0  0  0
  1  2  1  0  0  0  0
  1  5  2  0  0  0  0
  2  6  2  0  0  0  0
  3 10  2  0  0  0  0
  3 18  1  0  0  0  0
  4 11  1  0  0  0  0
  4 18  2  0  0  0  0
  5 20  1  0  0  0  0
  6 23  1  0  0  0  0
  7  9  2  0  0  0  0
  7 21  1  0  0  0  0
  8 12  2  0  0  0  0
  8 22  1  0  0  0  0
  9 26  1  0  0  0  0
 10 27  1  0  0  0  0
 11 27  2  0  0  0  0
 12 28  1  0  0  0  0
 13 14  2  0  0  0  0
 13 29  1  0  0  0  0
 14 30  1  0  0  0  0
 15 24  1  0  0  0  0
 15 26  2  0  0  0  0
 16 25  1  0  0  0  0
 16 28  2  0  0  0  0
 17 30  2  0  0  0  0
 17 31  1  0  0  0  0
 18 32  1  0  0  0  0
 19 32  1  0  0  0  0
 19 33  2  0  0  0  0
 19 34  1  0  0  0  0
 20 23  2  0  0  0  0
 20 39  1  0  0  0  0
 21 24  2  0  0  0  0
 21 40  1  0  0  0  0
 22 25  2  0  0  0  0
 22 41  1  0  0  0  0
 23 51  1  0  0  0  0
 24 43  1  0  0  0  0
 25 42  1  0  0  0  0
 26 70  1  0  0  0  0
 27 80  1  0  0  0  0
 28 81  1  0  0  0  0
 29 31  2  0  0  0  0
 29 80  1  0  0  0  0
 30 82  1  0  0  0  0
 31 83  1  0  0  0  0
 32 64  2  0  0  0  0
 33 65  1  0  0  0  0
 33 68  1  0  0  0  0
 34 69  1  0  0  0  0
 34 75  2  0  0  0  0
 35 52  1  0  0  0  0
 35 71  1  0  0  0  0
 35 76  2  0  0  0  0
 36 61  1  0  0  0  0
 36 66  1  0  0  0  0
 36 77  2  0  0  0  0
 37 62  1  0  0  0  0
 37 72  1  0  0  0  0
 37 78  2  0  0  0  0
 38 67  1  0  0  0  0
 38 70  1  0  0  0  0
 38 79  2  0  0  0  0
 39 44  1  0  0  0  0
 40 50  1  0  0  0  0
 41 52  1  0  0  0  0
 42 66  1  0  0  0  0
 43 73  1  0  0  0  0
 44 46  1  0  0  0  0
 45 47  1  0  0  0  0
 45 48  1  0  0  0  0
 46 51  1  0  0  0  0
 47 53  1  0  0  0  0
 48 67  1  0  0  0  0
 49 53  1  0  0  0  0
 49 67  1  0  0  0  0
 50 73  1  0  0  0  0
 51 71  1  0  0  0  0
 52 66  1  0  0  0  0
 53 65  1  0  0  0  0
 54 62  1  0  0  0  0
 55 63  1  0  0  0  0
 56 63  1  0  0  0  0
 57 63  1  0  0  0  0
 58 74  1  0  0  0  0
 59 60  1  0  0  0  0
 59 73  1  0  0  0  0
 60 81  1  0  0  0  0
 61 63  1  0  0  0  0
 61 72  1  0  0  0  0
 62 74  1  0  0  0  0
 64 65  1  0  0  0  0
M  CHG  2  73   1  74   1
M  ISO  4  38 100  60 101  70 100  81 101
M  END
> <Batch ID>
0140

> <Smiles>
CNC(C)C(=O)NC(C(=O)N1Cc2cc([101O:1][101CH2:1]CN3CCc4ccc([100NH:0][100C:0](=O)N5CCCC(n6nc(-c7ccc(Oc8ccc(F)cc8F)cc7)c(C(N)=O)c6N)C5)cc4C3)ccc2CC1C(=O)NC1CCCc2ccccc21)C(C)(C)C

> <Shape>
0.185

> <Color>
0.188

> <Negative vol penalty>
0.000

$$$$

  -OEChem-04052321133D

 90 99  0     1  0  0  0  0  0999 V2000
  -29.3509  -27.0519   15.1653 C   0  0  0  0  0  0  0  0  0  0  0  0
  -28.2353  -26.7736   15.9485 C   0  0  0  0  0  0  0  0  0  0  0  0
  -26.4634  -12.2358   21.6882 C   0  0  0  0  0  0  0  0  0  0  0  0
  -26.1753  -12.4896   19.3029 C   0  0  0  0  0  0  0  0  0  0  0  0
  -30.4144  -27.7766   15.7015 C   0  0  0  0  0  0  0  0  0  0  0  0
  -28.1831  -27.2189   17.2688 C   0  0  0  0  0  0  0  0  0  0  0  0
  -23.7042  -29.2636   18.4538 C   0  0  0  0  0  0  0  0  0  0  0  0
  -25.3501  -11.3968   21.7334 C   0  0  0  0  0  0  0  0  0  0  0  0
  -25.0620  -11.6505   19.3481 C   0  0  0  0  0  0  0  0  0  0  0  0
  -22.6530  -28.3861   18.7158 C   0  0  0  0  0  0  0  0  0  0  0  0
  -21.8032  -11.8798   20.2190 C   0  0  0  0  0  0  0  0  0  0  0  0
  -20.6655  -12.2741   19.5150 C   0  0  0  0  0  0  0  0  0  0  0  0
  -26.0117  -23.5969   21.1167 C   0  0  0  0  0  0  0  0  0  0  0  0
  -23.0002  -28.6868   21.0840 C   0  0  0  0  0  0  0  0  0  0  0  0
  -24.8267  -21.6609   20.3239 C   0  0  0  0  0  0  0  0  0  0  0  0
  -20.7894  -10.2600   18.1865 C   0  0  0  0  0  0  0  0  0  0  0  0
  -26.8760  -12.7823   20.4730 C   0  0  0  0  0  0  0  0  0  0  0  0
  -29.3669  -13.2730   20.2234 C   0  0  0  0  0  0  0  0  0  0  0  0
  -30.3711  -28.2394   17.0262 C   0  0  0  0  0  0  0  0  0  0  0  0
  -24.4196  -29.8519   19.5067 C   0  0  0  0  0  0  0  0  0  0  0  0
  -29.2476  -27.9494   17.8237 C   0  0  0  0  0  0  0  0  0  0  0  0
  -27.2167  -23.1234   20.5625 C   0  0  0  0  0  0  0  0  0  0  0  0
  -24.0585  -29.5734   20.8327 C   0  0  0  0  0  0  0  0  0  0  0  0
  -24.8263  -22.8752   20.9948 C   0  0  0  0  0  0  0  0  0  0  0  0
  -27.2176  -21.8968   19.8699 C   0  0  0  0  0  0  0  0  0  0  0  0
  -24.6494  -11.1040   20.5634 C   0  0  0  0  0  0  0  0  0  0  0  0
  -22.3027  -28.0953   20.0311 C   0  0  0  0  0  0  0  0  0  0  0  0
  -22.4341  -10.6756   19.9067 C   0  0  0  0  0  0  0  0  0  0  0  0
  -26.0099  -21.1755   19.7678 C   0  0  0  0  0  0  0  0  0  0  0  0
  -20.1585  -11.4642   18.4988 C   0  0  0  0  0  0  0  0  0  0  0  0
  -21.9272   -9.8657   18.8905 C   0  0  0  0  0  0  0  0  0  0  0  0
  -28.0257  -13.6496   20.4257 C   0  0  0  0  0  0  0  0  0  0  0  0
  -30.0653  -14.4549   20.2640 C   0  0  0  0  0  0  0  0  0  0  0  0
  -29.9311  -11.9711   20.0172 C   0  0  0  0  0  0  0  0  0  0  0  0
  -27.4442  -29.7765   20.4812 C   0  0  0  0  0  0  0  0  0  0  0  0
  -26.4162  -32.0266   22.5795 C   0  0  0  0  0  0  0  0  0  0  0  0
  -23.8123  -33.4152   24.2936 C   0  0  0  0  0  0  0  0  0  0  0  0
  -28.5787  -19.9786   19.0514 C   0  0  0  0  0  0  0  0  0  0  0  0
  -31.5652  -28.9782   17.5764 C   0  0  0  0  0  0  0  0  0  0  0  0
  -25.5336  -30.8171   19.2073 C   0  0  0  0  0  0  0  0  0  0  0  0
  -24.7817  -30.1945   21.9987 C   0  0  0  0  0  0  0  0  0  0  0  0
  -28.4745  -23.8971   20.8514 C   0  0  0  0  0  0  0  0  0  0  0  0
  -31.2702  -29.7362   18.8682 C   0  0  0  0  0  0  0  0  0  0  0  0
  -29.9265  -18.8335   22.1666 C   0  0  0  0  0  0  0  0  0  0  0  0
  -30.4968  -28.8521   19.8413 C   0  0  0  0  0  0  0  0  0  0  0  0
  -29.7000  -17.3266   22.0579 C   0  0  0  0  0  0  0  0  0  0  0  0
  -28.7655  -19.6324   21.5731 C   0  0  0  0  0  0  0  0  0  0  0  0
  -28.2046  -17.7460   20.0694 C   0  0  0  0  0  0  0  0  0  0  0  0
  -29.1431  -28.4367   19.2526 C   0  0  1  0  0  0  0  0  0  0  0  0
  -26.5261  -30.9594   20.3572 C   0  0  1  0  0  0  0  0  0  0  0  0
  -29.3833  -16.9213   20.6081 C   0  0  2  0  0  0  0  0  0  0  0  0
  -29.1620  -22.2831   18.3325 C   0  0  2  0  0  0  0  0  0  0  0  0
  -29.9711  -23.3424   19.1018 C   0  0  1  0  0  0  0  0  0  0  0  0
  -28.2687  -22.8508   17.2186 C   0  0  0  0  0  0  0  0  0  0  0  0
  -30.9579  -24.0796   18.1963 C   0  0  0  0  0  0  0  0  0  0  0  0
  -23.2885  -35.2159   25.9610 C   0  0  0  0  0  0  0  0  0  0  0  0
  -27.5664  -30.2919   24.8105 C   0  0  0  0  0  0  0  0  0  0  0  0
  -26.2107  -31.6176   26.4454 C   0  0  0  0  0  0  0  0  0  0  0  0
  -27.9702  -32.7449   25.0830 C   0  0  0  0  0  0  0  0  0  0  0  0
  -22.0228  -34.8132   22.3956 C   0  0  0  0  0  0  0  0  0  0  0  0
  -25.5015  -20.1988   17.6598 C   0  0  0  0  0  0  0  0  0  0  0  0
  -23.5647  -23.4030   21.5887 C   0  0  0  0  0  0  0  0  0  0  0  0
  -20.4424  -24.9989   20.0486 C   0  0  0  0  0  0  0  0  0  0  0  0
  -21.3348  -24.4371   21.1451 C   0  0  0  0  0  0  0  0  0  0  0  0
  -21.0353  -26.2073   19.3346 C   0  0  0  0  0  0  0  0  0  1  0  0
  -25.8256  -32.0027   23.9686 C   0  0  1  0  0  0  0  0  0  0  0  0
  -23.3894  -34.8604   24.4858 C   0  0  2  0  0  0  0  0  0  0  0  0
  -26.8806  -31.6509   25.0551 C   0  0  0  0  0  0  0  0  0  0  0  0
  -27.8784  -14.9677   20.5832 N   0  0  0  0  0  0  0  0  0  0  0  0
  -29.1362  -15.4297   20.4800 N   0  0  0  0  0  0  0  0  0  0  0  0
  -28.4008  -21.3731   19.2282 N   0  0  0  0  0  0  0  0  0  0  0  0
  -25.8678  -31.1269   21.6544 N   0  0  0  0  0  0  0  0  0  0  0  0
  -28.4622  -19.1815   20.2074 N   0  0  0  0  0  0  0  0  0  0  0  0
  -31.3775  -14.7451   20.1356 N   0  0  0  0  0  0  0  0  0  0  0  0
  -29.0709  -10.8646   20.0042 N   0  0  0  0  0  0  0  0  0  0  0  0
  -28.1947  -29.5256   19.3484 N   0  0  0  0  0  0  0  0  0  0  0  0
  -25.1795  -33.2966   24.1598 N   0  0  0  0  0  0  0  0  0  0  0  0
  -22.0618  -35.1002   23.8527 N   0  3  0  0  0  0  0  0  0  0  0  0
  -22.6221  -23.9580   20.5781 N   0  3  0  0  0  0  0  0  0  0  0  0
  -31.1635  -11.7925   19.8659 O   0  0  0  0  0  0  0  0  0  0  0  0
  -27.4709  -29.1395   21.5278 O   0  0  0  0  0  0  0  0  0  0  0  0
  -27.3256  -32.8195   22.3226 O   0  0  0  0  0  0  0  0  0  0  0  0
  -23.0104  -32.4842   24.2686 O   0  0  0  0  0  0  0  0  0  0  0  0
  -28.8492  -19.4887   17.9483 O   0  0  0  0  0  0  0  0  0  0  0  0
  -29.1229  -24.3354   19.6682 O   0  0  0  0  0  0  0  0  0  0  0  0
  -23.5631  -10.2851   20.6071 O   0  0  0  0  0  0  0  0  0  0  0  0
  -25.8894  -20.0369   19.0203 O   0  0  0  0  0  0  0  0  0  0  0  0
  -21.2703  -27.2326   20.2914 O   0  0  0  0  0  0  0  0  0  1  0  0
  -19.0651  -11.8423   17.8239 F   0  0  0  0  0  0  0  0  0  0  0  0
  -22.5283   -8.7071   18.5868 F   0  0  0  0  0  0  0  0  0  0  0  0
  1  2  1  0  0  0  0
  1  5  2  0  0  0  0
  2  6  2  0  0  0  0
  3  8  2  0  0  0  0
  3 17  1  0  0  0  0
  4  9  1  0  0  0  0
  4 17  2  0  0  0  0
  5 19  1  0  0  0  0
  6 21  1  0  0  0  0
  7 10  2  0  0  0  0
  7 20  1  0  0  0  0
  8 26  1  0  0  0  0
  9 26  2  0  0  0  0
 10 27  1  0  0  0  0
 11 12  2  0  0  0  0
 11 28  1  0  0  0  0
 12 30  1  0  0  0  0
 13 22  2  0  0  0  0
 13 24  1  0  0  0  0
 14 23  1  0  0  0  0
 14 27  2  0  0  0  0
 15 24  2  0  0  0  0
 15 29  1  0  0  0  0
 16 30  2  0  0  0  0
 16 31  1  0  0  0  0
 17 32  1  0  0  0  0
 18 32  1  0  0  0  0
 18 33  2  0  0  0  0
 18 34  1  0  0  0  0
 19 21  2  0  0  0  0
 19 39  1  0  0  0  0
 20 23  2  0  0  0  0
 20 40  1  0  0  0  0
 21 49  1  0  0  0  0
 22 25  1  0  0  0  0
 22 42  1  0  0  0  0
 23 41  1  0  0  0  0
 24 62  1  0  0  0  0
 25 29  2  0  0  0  0
 25 71  1  0  0  0  0
 26 86  1  0  0  0  0
 27 88  1  0  0  0  0
 28 31  2  0  0  0  0
 28 86  1  0  0  0  0
 29 87  1  0  0  0  0
 30 89  1  0  0  0  0
 31 90  1  0  0  0  0
 32 69  2  0  0  0  0
 33 70  1  0  0  0  0
 33 74  1  0  0  0  0
 34 75  1  0  0  0  0
 34 80  2  0  0  0  0
 35 50  1  0  0  0  0
 35 76  1  0  0  0  0
 35 81  2  0  0  0  0
 36 66  1  0  0  0  0
 36 72  1  0  0  0  0
 36 82  2  0  0  0  0
 37 67  1  0  0  0  0
 37 77  1  0  0  0  0
 37 83  2  0  0  0  0
 38 71  1  0  0  0  0
 38 73  1  0  0  0  0
 38 84  2  0  0  0  0
 39 43  1  0  0  0  0
 40 50  1  0  0  0  0
 41 72  1  0  0  0  0
 42 85  1  0  0  0  0
 43 45  1  0  0  0  0
 44 46  1  0  0  0  0
 44 47  1  0  0  0  0
 45 49  1  0  0  0  0
 46 51  1  0  0  0  0
 47 73  1  0  0  0  0
 48 51  1  0  0  0  0
 48 73  1  0  0  0  0
 49 76  1  0  0  0  0
 50 72  1  0  0  0  0
 51 70  1  0  0  0  0
 52 53  1  0  0  0  0
 52 54  1  0  0  0  0
 52 71  1  0  0  0  0
 53 55  1  0  0  0  0
 53 85  1  0  0  0  0
 56 67  1  0  0  0  0
 57 68  1  0  0  0  0
 58 68  1  0  0  0  0
 59 68  1  0  0  0  0
 60 78  1  0  0  0  0
 61 87  1  0  0  0  0
 62 79  1  0  0  0  0
 63 64  1  0  0  0  0
 63 65  1  0  0  0  0
 64 79  1  0  0  0  0
 65 88  1  0  0  0  0
 66 68  1  0  0  0  0
 66 77  1  0  0  0  0
 67 78  1  0  0  0  0
 69 70  1  0  0  0  0
M  CHG  2  78   1  79   1
M  ISO  4  38 100  65 101  71 100  88 101
M  END
> <Batch ID>
0140

> <Smiles>
CNC(C)C(=O)NC(C(=O)N1Cc2cc([101O:1][101CH2:1]CCNCc3cc4c(c(OC)c3)[100N:0]([100C:0](=O)N3CCCC(n5nc(-c6ccc(Oc7ccc(F)cc7F)cc6)c(C(N)=O)c5N)C3)C(C)C(C)OC4)ccc2CC1C(=O)NC1CCCc2ccccc21)C(C)(C)C

> <Shape>
0.293

> <Color>
0.073

> <Negative vol penalty>
0.000

$$$$

  -OEChem-04052321133D

 81 90  0     1  0  0  0  0  0999 V2000
  -21.8014  -12.0135   21.7814 C   0  0  0  0  0  0  0  0  0  0  0  0
  -22.1687  -13.0521   22.6310 C   0  0  0  0  0  0  0  0  0  0  0  0
  -25.0465  -28.7890   19.4402 C   0  0  0  0  0  0  0  0  0  0  0  0
  -25.8238  -26.8635   20.6752 C   0  0  0  0  0  0  0  0  0  0  0  0
  -22.6662  -11.6054   20.7668 C   0  0  0  0  0  0  0  0  0  0  0  0
  -23.4016  -13.6826   22.4671 C   0  0  0  0  0  0  0  0  0  0  0  0
  -23.0575  -18.7268   22.7530 C   0  0  0  0  0  0  0  0  0  0  0  0
  -26.3381  -29.3153   19.4477 C   0  0  0  0  0  0  0  0  0  0  0  0
  -27.1156  -27.3898   20.6826 C   0  0  0  0  0  0  0  0  0  0  0  0
  -22.9486  -19.2865   24.0252 C   0  0  0  0  0  0  0  0  0  0  0  0
  -30.5456  -28.3961   21.3400 C   0  0  0  0  0  0  0  0  0  0  0  0
  -31.2556  -28.3548   22.5399 C   0  0  0  0  0  0  0  0  0  0  0  0
  -21.9983  -22.9353   26.0369 C   0  0  0  0  0  0  0  0  0  0  0  0
  -25.3010  -19.8191   23.9858 C   0  0  0  0  0  0  0  0  0  0  0  0
  -29.5492  -29.7003   23.5958 C   0  0  0  0  0  0  0  0  0  0  0  0
  -21.3558  -23.7460   28.2003 C   0  0  0  0  0  0  0  0  0  0  0  0
  -24.7893  -27.5631   20.0540 C   0  0  0  0  0  0  0  0  0  0  0  0
  -22.8886  -26.1690   19.0785 C   0  0  0  0  0  0  0  0  0  0  0  0
  -23.9063  -12.2376   20.5844 C   0  0  0  0  0  0  0  0  0  0  0  0
  -24.2934  -18.6993   22.0909 C   0  0  0  0  0  0  0  0  0  0  0  0
  -24.2844  -13.2816   21.4500 C   0  0  0  0  0  0  0  0  0  0  0  0
  -23.1639  -22.4858   26.6244 C   0  0  0  0  0  0  0  0  0  0  0  0
  -25.4224  -19.2608   22.7041 C   0  0  0  0  0  0  0  0  0  0  0  0
  -21.0690  -23.5871   26.8444 C   0  0  0  0  0  0  0  0  0  0  0  0
  -27.3727  -28.6157   20.0689 C   0  0  0  0  0  0  0  0  0  0  0  0
  -24.0710  -19.8302   24.6430 C   0  0  0  0  0  0  0  0  0  0  0  0
  -29.3374  -29.0895   21.2679 C   0  0  0  0  0  0  0  0  0  0  0  0
  -30.7574  -29.0069   23.6678 C   0  0  0  0  0  0  0  0  0  0  0  0
  -28.8392  -29.7416   22.3959 C   0  0  0  0  0  0  0  0  0  0  0  0
  -23.4550  -27.0191   20.0471 C   0  0  0  0  0  0  0  0  0  0  0  0
  -23.3572  -22.6932   27.9863 C   0  0  0  0  0  0  0  0  0  0  0  0
  -21.6109  -25.9401   19.5276 C   0  0  0  0  0  0  0  0  0  0  0  0
  -23.4658  -25.6340   17.8801 C   0  0  0  0  0  0  0  0  0  0  0  0
  -26.2130  -16.4038   21.0187 C   0  0  0  0  0  0  0  0  0  0  0  0
  -27.8743  -18.9044   19.7904 C   0  0  0  0  0  0  0  0  0  0  0  0
  -28.6436  -22.2259   19.9418 C   0  0  0  0  0  0  0  0  0  0  0  0
  -19.1110  -26.0973   24.9660 C   0  0  0  0  0  0  0  0  0  0  0  0
  -24.8277  -11.7301   19.5036 C   0  0  0  0  0  0  0  0  0  0  0  0
  -24.3887  -18.1159   20.7078 C   0  0  0  0  0  0  0  0  0  0  0  0
  -26.7680  -19.2744   22.0275 C   0  0  0  0  0  0  0  0  0  0  0  0
  -24.6560  -22.0878   28.4366 C   0  0  0  0  0  0  0  0  0  0  0  0
  -25.9563  -12.6992   19.1608 C   0  0  0  0  0  0  0  0  0  0  0  0
  -25.3935  -21.9390   27.0939 C   0  0  0  0  0  0  0  0  0  0  0  0
  -18.1269  -27.9705   22.1025 C   0  0  0  0  0  0  0  0  0  0  0  0
  -26.6102  -13.2286   20.4332 C   0  0  0  0  0  0  0  0  0  0  0  0
  -19.3298  -27.8624   21.1636 C   0  0  0  0  0  0  0  0  0  0  0  0
  -18.5586  -28.0637   23.5643 C   0  0  0  0  0  0  0  0  0  0  0  0
  -20.6633  -26.8785   23.0748 C   0  0  0  0  0  0  0  0  0  0  0  0
  -25.6029  -14.0067   21.2884 C   0  0  1  0  0  0  0  0  0  0  0  0
  -24.3091  -21.7459   26.0181 C   0  0  1  0  0  0  0  0  0  1  0  0
  -25.8035  -17.6799   20.3394 C   0  0  1  0  0  0  0  0  0  0  0  0
  -20.2765  -26.7257   21.5938 C   0  0  2  0  0  0  0  0  0  0  0  0
  -29.6558  -24.4155   19.2500 C   0  0  0  0  0  0  0  0  0  0  0  0
  -30.3436  -17.7929   21.1965 C   0  0  0  0  0  0  0  0  0  0  0  0
  -31.4504  -20.0128   20.8571 C   0  0  0  0  0  0  0  0  0  0  0  0
  -30.7578  -18.6519   18.8846 C   0  0  0  0  0  0  0  0  0  0  0  0
  -26.3110  -22.9024   18.2507 C   0  0  0  0  0  0  0  0  0  0  0  0
  -19.7938  -24.1018   26.2739 C   0  0  0  0  0  0  0  0  0  0  0  0
  -28.9895  -19.7935   20.2854 C   0  0  1  0  0  0  0  0  0  0  0  0
  -28.6990  -23.2970   18.8676 C   0  0  2  0  0  0  0  0  0  0  0  0
  -30.3605  -19.0609   20.3197 C   0  0  0  0  0  0  0  0  0  0  0  0
  -22.4864  -23.3071   28.8041 N   0  0  0  0  0  0  0  0  0  0  0  0
  -22.6067  -27.3107   21.0367 N   0  0  0  0  0  0  0  0  0  0  0  0
  -21.4942  -26.6401   20.6923 N   0  0  0  0  0  0  0  0  0  0  0  0
  -26.8114  -18.6865   20.6784 N   0  0  0  0  0  0  0  0  0  0  0  0
  -19.4534  -26.9561   23.9085 N   0  0  0  0  0  0  0  0  0  0  0  0
  -20.5871  -25.2105   19.0358 N   0  0  0  0  0  0  0  0  0  0  0  0
  -24.7903  -25.9699   17.5687 N   0  0  0  0  0  0  0  0  0  0  0  0
  -25.3899  -15.3292   20.7406 N   0  0  0  0  0  0  0  0  0  0  0  0
  -28.9686  -20.9830   19.4410 N   0  0  0  0  0  0  0  0  0  0  0  0
  -20.0107  -25.0699   25.2220 N   0  0  0  0  0  0  0  0  0  0  0  0
  -27.3472  -23.8873   18.6545 N   0  3  0  0  0  0  0  0  0  0  0  0
  -22.8205  -24.8935   17.0998 O   0  0  0  0  0  0  0  0  0  0  0  0
  -27.2032  -16.3944   21.7405 O   0  0  0  0  0  0  0  0  0  0  0  0
  -27.9404  -18.4269   18.6550 O   0  0  0  0  0  0  0  0  0  0  0  0
  -28.3458  -22.4682   21.1094 O   0  0  0  0  0  0  0  0  0  0  0  0
  -18.0772  -26.2328   25.6292 O   0  0  0  0  0  0  0  0  0  0  0  0
  -28.6334  -29.1289   20.0761 O   0  0  0  0  0  0  0  0  0  0  0  0
  -23.9676  -20.3765   25.8851 O   0  0  0  0  0  0  0  0  0  1  0  0
  -31.4385  -28.9659   24.8204 F   0  0  0  0  0  0  0  0  0  0  0  0
  -27.6785  -30.4083   22.3331 F   0  0  0  0  0  0  0  0  0  0  0  0
  1  2  1  0  0  0  0
  1  5  2  0  0  0  0
  2  6  2  0  0  0  0
  3  8  2  0  0  0  0
  3 17  1  0  0  0  0
  4  9  1  0  0  0  0
  4 17  2  0  0  0  0
  5 19  1  0  0  0  0
  6 21  1  0  0  0  0
  7 10  2  0  0  0  0
  7 20  1  0  0  0  0
  8 25  1  0  0  0  0
  9 25  2  0  0  0  0
 10 26  1  0  0  0  0
 11 12  2  0  0  0  0
 11 27  1  0  0  0  0
 12 28  1  0  0  0  0
 13 22  1  0  0  0  0
 13 24  2  0  0  0  0
 14 23  1  0  0  0  0
 14 26  2  0  0  0  0
 15 28  2  0  0  0  0
 15 29  1  0  0  0  0
 16 24  1  0  0  0  0
 16 62  2  0  0  0  0
 17 30  1  0  0  0  0
 18 30  1  0  0  0  0
 18 32  2  0  0  0  0
 18 33  1  0  0  0  0
 19 21  2  0  0  0  0
 19 38  1  0  0  0  0
 20 23  2  0  0  0  0
 20 39  1  0  0  0  0
 21 49  1  0  0  0  0
 22 31  2  0  0  0  0
 22 50  1  0  0  0  0
 23 40  1  0  0  0  0
 24 58  1  0  0  0  0
 25 78  1  0  0  0  0
 26 79  1  0  0  0  0
 27 29  2  0  0  0  0
 27 78  1  0  0  0  0
 28 80  1  0  0  0  0
 29 81  1  0  0  0  0
 30 63  2  0  0  0  0
 31 41  1  0  0  0  0
 31 62  1  0  0  0  0
 32 64  1  0  0  0  0
 32 67  1  0  0  0  0
 33 68  1  0  0  0  0
 33 73  2  0  0  0  0
 34 51  1  0  0  0  0
 34 69  1  0  0  0  0
 34 74  2  0  0  0  0
 35 59  1  0  0  0  0
 35 65  1  0  0  0  0
 35 75  2  0  0  0  0
 36 60  1  0  0  0  0
 36 70  1  0  0  0  0
 36 76  2  0  0  0  0
 37 66  1  0  0  0  0
 37 71  1  0  0  0  0
 37 77  2  0  0  0  0
 38 42  1  0  0  0  0
 39 51  1  0  0  0  0
 40 65  1  0  0  0  0
 41 43  1  0  0  0  0
 42 45  1  0  0  0  0
 43 50  1  0  0  0  0
 44 46  1  0  0  0  0
 44 47  1  0  0  0  0
 45 49  1  0  0  0  0
 46 52  1  0  0  0  0
 47 66  1  0  0  0  0
 48 52  1  0  0  0  0
 48 66  1  0  0  0  0
 49 69  1  0  0  0  0
 50 79  1  0  0  0  0
 51 65  1  0  0  0  0
 52 64  1  0  0  0  0
 53 60  1  0  0  0  0
 54 61  1  0  0  0  0
 55 61  1  0  0  0  0
 56 61  1  0  0  0  0
 57 72  1  0  0  0  0
 58 71  1  0  0  0  0
 59 61  1  0  0  0  0
 59 70  1  0  0  0  0
 60 72  1  0  0  0  0
 63 64  1  0  0  0  0
M  CHG  1  72   1
M  ISO  4  37 100  50 101  71 100  79 101
M  END
> <Batch ID>
0140

> <Smiles>
CNC(C)C(=O)NC(C(=O)N1Cc2cc([101O:1][101CH:1]3CCc4ncc(C[100NH:0][100C:0](=O)N5CCCC(n6nc(-c7ccc(Oc8ccc(F)cc8F)cc7)c(C(N)=O)c6N)C5)cc43)ccc2CC1C(=O)NC1CCCc2ccccc21)C(C)(C)C

> <Shape>
0.201

> <Color>
0.071

> <Negative vol penalty>
0.000

$$$$

  -OEChem-04052321133D

 84 93  0     1  0  0  0  0  0999 V2000
  -42.2980  -27.8038   19.2171 C   0  0  0  0  0  0  0  0  0  0  0  0
  -41.3680  -26.7961   19.4519 C   0  0  0  0  0  0  0  0  0  0  0  0
  -23.0010   -9.8906   19.9820 C   0  0  0  0  0  0  0  0  0  0  0  0
  -23.7264   -9.9446   22.2859 C   0  0  0  0  0  0  0  0  0  0  0  0
  -41.8661  -29.1083   18.9811 C   0  0  0  0  0  0  0  0  0  0  0  0
  -40.0055  -27.0927   19.4519 C   0  0  0  0  0  0  0  0  0  0  0  0
  -35.4522  -23.4824   17.5181 C   0  0  0  0  0  0  0  0  0  0  0  0
  -30.2435  -18.9369   23.0715 C   0  0  0  0  0  0  0  0  0  0  0  0
  -22.2355   -8.7556   20.2496 C   0  0  0  0  0  0  0  0  0  0  0  0
  -22.9609   -8.8096   22.5535 C   0  0  0  0  0  0  0  0  0  0  0  0
  -34.5668  -22.6450   18.1955 C   0  0  0  0  0  0  0  0  0  0  0  0
  -23.2084   -5.4704   22.0849 C   0  0  0  0  0  0  0  0  0  0  0  0
  -23.7970   -4.4546   22.8380 C   0  0  0  0  0  0  0  0  0  0  0  0
  -29.7566  -17.6994   22.6654 C   0  0  0  0  0  0  0  0  0  0  0  0
  -32.9199  -24.4076   18.2093 C   0  0  0  0  0  0  0  0  0  0  0  0
  -22.0731   -4.6976   24.5132 C   0  0  0  0  0  0  0  0  0  0  0  0
  -32.2609  -18.4685   21.9023 C   0  0  0  0  0  0  0  0  0  0  0  0
  -23.7464  -10.4850   21.0002 C   0  0  0  0  0  0  0  0  0  0  0  0
  -24.1294  -13.0008   20.8215 C   0  0  0  0  0  0  0  0  0  0  0  0
  -40.4972  -29.4191   18.9686 C   0  0  0  0  0  0  0  0  0  0  0  0
  -35.0813  -24.7945   17.1904 C   0  0  0  0  0  0  0  0  0  0  0  0
  -39.5549  -28.4028   19.2168 C   0  0  0  0  0  0  0  0  0  0  0  0
  -33.8014  -25.2587   17.5256 C   0  0  0  0  0  0  0  0  0  0  0  0
  -31.5185  -19.3363   22.6870 C   0  0  0  0  0  0  0  0  0  0  0  0
  -22.2155   -8.2152   21.5353 C   0  0  0  0  0  0  0  0  0  0  0  0
  -33.3015  -23.1085   18.5437 C   0  0  0  0  0  0  0  0  0  0  0  0
  -22.0521   -6.1000   22.5460 C   0  0  0  0  0  0  0  0  0  0  0  0
  -23.2293   -4.0681   24.0521 C   0  0  0  0  0  0  0  0  0  0  0  0
  -21.4845   -5.7135   23.7601 C   0  0  0  0  0  0  0  0  0  0  0  0
  -24.5378  -11.6571   20.7242 C   0  0  0  0  0  0  0  0  0  0  0  0
  -30.5777  -16.9050   21.8815 C   0  0  0  0  0  0  0  0  0  0  0  0
  -25.2384  -13.7241   20.4563 C   0  0  0  0  0  0  0  0  0  0  0  0
  -22.8609  -13.5464   21.2077 C   0  0  0  0  0  0  0  0  0  0  0  0
  -36.1575  -27.6865   17.9529 C   0  0  0  0  0  0  0  0  0  0  0  0
  -33.9618  -28.6526   15.7693 C   0  0  0  0  0  0  0  0  0  0  0  0
  -31.0713  -27.9918   14.0796 C   0  0  0  0  0  0  0  0  0  0  0  0
  -30.7170  -14.6906   20.6886 C   0  0  0  0  0  0  0  0  0  0  0  0
  -40.0802  -30.8528   18.7558 C   0  0  0  0  0  0  0  0  0  0  0  0
  -36.0381  -25.6764   16.4360 C   0  0  0  0  0  0  0  0  0  0  0  0
  -33.3473  -26.6523   17.1787 C   0  0  0  0  0  0  0  0  0  0  0  0
  -38.6040  -31.0115   18.4013 C   0  0  0  0  0  0  0  0  0  0  0  0
  -29.6007  -12.2343   18.3652 C   0  0  0  0  0  0  0  0  0  0  0  0
  -37.7376  -30.1717   19.3346 C   0  0  0  0  0  0  0  0  0  0  0  0
  -33.7776  -21.6330   24.8695 C   0  0  0  0  0  0  0  0  0  0  0  0
  -33.3198  -20.3010   25.3948 C   0  0  0  0  0  0  0  0  0  0  0  0
  -28.1504  -11.9757   18.7799 C   0  0  0  0  0  0  0  0  0  0  0  0
  -30.5012  -12.4798   19.5747 C   0  0  0  0  0  0  0  0  0  0  0  0
  -28.5852  -13.2682   20.9076 C   0  0  0  0  0  0  0  0  0  0  0  0
  -38.0673  -28.6802   19.2003 C   0  0  1  0  0  0  0  0  0  0  0  0
  -35.7420  -27.1631   16.6071 C   0  0  1  0  0  0  0  0  0  0  0  0
  -33.3687  -20.5478   23.9124 C   0  0  0  0  0  0  0  0  0  0  0  0
  -27.6276  -13.0797   19.7198 C   0  0  2  0  0  0  0  0  0  0  0  0
  -29.5061  -28.9870   12.3893 C   0  0  0  0  0  0  0  0  0  0  0  0
  -32.8318  -30.5081   17.9117 C   0  0  0  0  0  0  0  0  0  0  0  0
  -30.7645  -30.7430   16.5190 C   0  0  0  0  0  0  0  0  0  0  0  0
  -32.9626  -31.5125   15.6251 C   0  0  0  0  0  0  0  0  0  0  0  0
  -31.5335  -25.7746   12.1746 C   0  0  0  0  0  0  0  0  0  0  0  0
  -31.1185  -21.9488   21.1876 C   0  0  0  0  0  0  0  0  0  0  0  0
  -31.5006  -22.9166   20.0850 C   0  0  0  0  0  0  0  0  0  1  0  0
  -32.0753  -20.6756   23.1117 C   0  0  1  0  0  0  0  0  0  0  0  0
  -32.5020  -29.0340   15.8178 C   0  0  1  0  0  0  0  0  0  0  0  0
  -30.7192  -28.0960   12.6066 C   0  0  2  0  0  0  0  0  0  0  0  0
  -32.2742  -30.4237   16.4768 C   0  0  0  0  0  0  0  0  0  0  0  0
  -31.8218  -17.2589   21.4882 N   0  0  0  0  0  0  0  0  0  0  0  0
  -25.8071  -11.5314   20.3280 N   0  0  0  0  0  0  0  0  0  0  0  0
  -26.2059  -12.8054   20.1731 N   0  0  0  0  0  0  0  0  0  0  0  0
  -34.3211  -27.4786   16.4464 N   0  0  0  0  0  0  0  0  0  0  0  0
  -29.9452  -13.5410   20.4170 N   0  0  0  0  0  0  0  0  0  0  0  0
  -25.4706  -15.0499   20.3528 N   0  0  0  0  0  0  0  0  0  0  0  0
  -21.8300  -12.6616   21.5522 N   0  0  0  0  0  0  0  0  0  0  0  0
  -30.0719  -15.6460   21.4732 N   0  0  0  0  0  0  0  0  0  0  0  0
  -37.4636  -28.1349   18.0034 N   0  0  0  0  0  0  0  0  0  0  0  0
  -32.0082  -28.9338   14.4487 N   0  0  0  0  0  0  0  0  0  0  0  0
  -30.4175  -26.7471   12.0495 N   0  3  0  0  0  0  0  0  0  0  0  0
  -32.3322  -21.5819   21.9600 N   0  3  0  0  0  0  0  0  0  0  0  0
  -22.6431  -14.7815   21.2302 O   0  0  0  0  0  0  0  0  0  0  0  0
  -35.3523  -27.6852   18.8766 O   0  0  0  0  0  0  0  0  0  0  0  0
  -34.7529  -29.3660   15.1474 O   0  0  0  0  0  0  0  0  0  0  0  0
  -30.5630  -27.1606   14.8288 O   0  0  0  0  0  0  0  0  0  0  0  0
  -31.8554  -14.8301   20.2342 O   0  0  0  0  0  0  0  0  0  0  0  0
  -21.4685   -7.1078   21.7969 O   0  0  0  0  0  0  0  0  0  0  0  0
  -32.4357  -22.2935   19.2055 O   0  0  0  0  0  0  0  0  0  1  0  0
  -23.7938   -3.0915   24.7744 F   0  0  0  0  0  0  0  0  0  0  0  0
  -20.3731   -6.3138   24.2077 F   0  0  0  0  0  0  0  0  0  0  0  0
  1  2  1  0  0  0  0
  1  5  2  0  0  0  0
  2  6  2  0  0  0  0
  3  9  2  0  0  0  0
  3 18  1  0  0  0  0
  4 10  1  0  0  0  0
  4 18  2  0  0  0  0
  5 20  1  0  0  0  0
  6 22  1  0  0  0  0
  7 11  2  0  0  0  0
  7 21  1  0  0  0  0
  8 14  2  0  0  0  0
  8 24  1  0  0  0  0
  9 25  1  0  0  0  0
 10 25  2  0  0  0  0
 11 26  1  0  0  0  0
 12 13  2  0  0  0  0
 12 27  1  0  0  0  0
 13 28  1  0  0  0  0
 14 31  1  0  0  0  0
 15 23  1  0  0  0  0
 15 26  2  0  0  0  0
 16 28  2  0  0  0  0
 16 29  1  0  0  0  0
 17 24  2  0  0  0  0
 17 64  1  0  0  0  0
 18 30  1  0  0  0  0
 19 30  1  0  0  0  0
 19 32  2  0  0  0  0
 19 33  1  0  0  0  0
 20 22  2  0  0  0  0
 20 38  1  0  0  0  0
 21 23  2  0  0  0  0
 21 39  1  0  0  0  0
 22 49  1  0  0  0  0
 23 40  1  0  0  0  0
 24 60  1  0  0  0  0
 25 81  1  0  0  0  0
 26 82  1  0  0  0  0
 27 29  2  0  0  0  0
 27 81  1  0  0  0  0
 28 83  1  0  0  0  0
 29 84  1  0  0  0  0
 30 65  2  0  0  0  0
 31 64  2  0  0  0  0
 31 71  1  0  0  0  0
 32 66  1  0  0  0  0
 32 69  1  0  0  0  0
 33 70  1  0  0  0  0
 33 76  2  0  0  0  0
 34 50  1  0  0  0  0
 34 72  1  0  0  0  0
 34 77  2  0  0  0  0
 35 61  1  0  0  0  0
 35 67  1  0  0  0  0
 35 78  2  0  0  0  0
 36 62  1  0  0  0  0
 36 73  1  0  0  0  0
 36 79  2  0  0  0  0
 37 68  1  0  0  0  0
 37 71  1  0  0  0  0
 37 80  2  0  0  0  0
 38 41  1  0  0  0  0
 39 50  1  0  0  0  0
 40 67  1  0  0  0  0
 41 43  1  0  0  0  0
 42 46  1  0  0  0  0
 42 47  1  0  0  0  0
 43 49  1  0  0  0  0
 44 45  1  0  0  0  0
 44 51  1  0  0  0  0
 45 51  1  0  0  0  0
 46 52  1  0  0  0  0
 47 68  1  0  0  0  0
 48 52  1  0  0  0  0
 48 68  1  0  0  0  0
 49 72  1  0  0  0  0
 50 67  1  0  0  0  0
 51 60  1  0  0  0  0
 52 66  1  0  0  0  0
 53 62  1  0  0  0  0
 54 63  1  0  0  0  0
 55 63  1  0  0  0  0
 56 63  1  0  0  0  0
 57 74  1  0  0  0  0
 58 59  1  0  0  0  0
 58 75  1  0  0  0  0
 59 82  1  0  0  0  0
 60 75  1  0  0  0  0
 61 63  1  0  0  0  0
 61 73  1  0  0  0  0
 62 74  1  0  0  0  0
 65 66  1  0  0  0  0
M  CHG  2  74   1  75   1
M  ISO  4  37 100  59 101  71 100  82 101
M  END
> <Batch ID>
0140

> <Smiles>
CNC(C)C(=O)NC(C(=O)N1Cc2cc([101O:1][101CH2:1]CNC(c3ccc([100NH:0][100C:0](=O)N4CCCC(n5nc(-c6ccc(Oc7ccc(F)cc7F)cc6)c(C(N)=O)c5N)C4)nc3)C3CC3)ccc2CC1C(=O)NC1CCCc2ccccc21)C(C)(C)C

> <Shape>
0.182

> <Color>
0.194

> <Negative vol penalty>
0.000

$$$$

  -OEChem-04052321133D

 86 94  0     1  0  0  0  0  0999 V2000
  -25.8141  -13.1864   25.5703 C   0  0  0  0  0  0  0  0  0  0  0  0
  -26.6802  -13.0391   24.4916 C   0  0  0  0  0  0  0  0  0  0  0  0
  -23.2871   -9.7944   19.9086 C   0  0  0  0  0  0  0  0  0  0  0  0
  -23.7165   -9.9368   22.2819 C   0  0  0  0  0  0  0  0  0  0  0  0
  -26.2008  -13.9442   26.6749 C   0  0  0  0  0  0  0  0  0  0  0  0
  -27.9332  -13.6505   24.5165 C   0  0  0  0  0  0  0  0  0  0  0  0
  -33.1328  -11.4882   22.1092 C   0  0  0  0  0  0  0  0  0  0  0  0
  -22.5538   -8.6253   20.1115 C   0  0  0  0  0  0  0  0  0  0  0  0
  -22.9831   -8.7678   22.4848 C   0  0  0  0  0  0  0  0  0  0  0  0
  -33.7921  -11.7526   20.9095 C   0  0  0  0  0  0  0  0  0  0  0  0
  -20.9209   -6.0184   23.6709 C   0  0  0  0  0  0  0  0  0  0  0  0
  -20.0094   -5.9987   24.7264 C   0  0  0  0  0  0  0  0  0  0  0  0
  -35.1958  -13.3551   22.0412 C   0  0  0  0  0  0  0  0  0  0  0  0
  -18.8171   -7.8495   23.7313 C   0  0  0  0  0  0  0  0  0  0  0  0
  -37.3524  -14.9072   17.7749 C   0  0  0  0  0  0  0  0  0  0  0  0
  -23.8685  -10.4501   20.9939 C   0  0  0  0  0  0  0  0  0  0  0  0
  -24.1407  -12.9786   20.7938 C   0  0  0  0  0  0  0  0  0  0  0  0
  -27.4630  -14.5571   26.7175 C   0  0  0  0  0  0  0  0  0  0  0  0
  -33.4933  -12.1644   23.2836 C   0  0  0  0  0  0  0  0  0  0  0  0
  -28.3367  -14.4182   25.6221 C   0  0  0  0  0  0  0  0  0  0  0  0
  -34.5412  -13.0956   23.2550 C   0  0  0  0  0  0  0  0  0  0  0  0
  -36.0559  -14.6241   17.3963 C   0  0  0  0  0  0  0  0  0  0  0  0
  -22.4017   -8.1121   21.3995 C   0  0  0  0  0  0  0  0  0  0  0  0
  -34.8218  -12.6883   20.8748 C   0  0  0  0  0  0  0  0  0  0  0  0
  -20.7806   -6.9537   22.6455 C   0  0  0  0  0  0  0  0  0  0  0  0
  -18.9574   -6.9142   24.7567 C   0  0  0  0  0  0  0  0  0  0  0  0
  -19.7287   -7.8692   22.6757 C   0  0  0  0  0  0  0  0  0  0  0  0
  -24.6267  -11.6574   20.7849 C   0  0  0  0  0  0  0  0  0  0  0  0
  -35.2631  -15.7184   17.1167 C   0  0  0  0  0  0  0  0  0  0  0  0
  -25.2479  -13.7534   20.5478 C   0  0  0  0  0  0  0  0  0  0  0  0
  -36.9760  -17.1402   17.5766 C   0  0  0  0  0  0  0  0  0  0  0  0
  -22.8077  -13.4624   21.0054 C   0  0  0  0  0  0  0  0  0  0  0  0
  -32.0053  -14.1372   25.2830 C   0  0  0  0  0  0  0  0  0  0  0  0
  -34.7378  -13.8288   27.0036 C   0  0  0  0  0  0  0  0  0  0  0  0
  -38.0741  -13.1111   27.0387 C   0  0  0  0  0  0  0  0  0  0  0  0
  -29.7354  -14.7173   17.5007 C   0  0  0  0  0  0  0  0  0  0  0  0
  -27.8181  -15.4055   27.9128 C   0  0  0  0  0  0  0  0  0  0  0  0
  -32.7902  -11.8483   24.5751 C   0  0  0  0  0  0  0  0  0  0  0  0
  -34.9801  -13.8338   24.4923 C   0  0  0  0  0  0  0  0  0  0  0  0
  -29.3098  -15.7109   28.0214 C   0  0  0  0  0  0  0  0  0  0  0  0
  -30.1511  -12.5860   20.4836 C   0  0  0  0  0  0  0  0  0  0  0  0
  -29.8637  -16.1542   26.6711 C   0  0  0  0  0  0  0  0  0  0  0  0
  -28.7008  -12.2237   20.7897 C   0  0  0  0  0  0  0  0  0  0  0  0
  -30.4015  -12.7314   18.9832 C   0  0  0  0  0  0  0  0  0  0  0  0
  -28.0226  -13.3275   18.6225 C   0  0  0  0  0  0  0  0  0  0  0  0
  -29.7139  -15.0454   25.6224 C   0  0  1  0  0  0  0  0  0  0  0  0
  -32.8962  -12.9704   25.6033 C   0  0  1  0  0  0  0  0  0  0  0  0
  -27.7406  -13.2248   20.1292 C   0  0  1  0  0  0  0  0  0  0  0  0
  -36.7344  -19.3650   18.7365 C   0  0  0  0  0  0  0  0  0  0  0  0
  -37.4598  -19.2735   16.3239 C   0  0  0  0  0  0  0  0  0  0  0  0
  -40.0447  -12.9801   28.5869 C   0  0  0  0  0  0  0  0  0  0  0  0
  -31.5420  -15.4990   14.9078 C   0  0  0  0  0  0  0  0  0  0  0  0
  -34.9194  -16.8745   27.0262 C   0  0  0  0  0  0  0  0  0  0  0  0
  -37.3152  -16.6570   27.7198 C   0  0  0  0  0  0  0  0  0  0  0  0
  -35.5065  -15.7783   29.1960 C   0  0  0  0  0  0  0  0  0  0  0  0
  -38.4635  -10.2297   26.4868 C   0  0  0  0  0  0  0  0  0  0  0  0
  -35.5719  -13.1973   17.3052 C   0  0  0  0  0  0  0  0  0  0  0  0
  -32.9115  -16.4941   16.8103 C   0  0  0  0  0  0  0  0  0  0  0  0
  -34.7148  -12.7983   18.5015 C   0  0  0  0  0  0  0  0  0  1  0  0
  -37.4868  -18.5375   17.6770 C   0  0  0  0  0  0  0  0  0  0  0  0
  -36.0589  -14.5579   27.0519 C   0  0  1  0  0  0  0  0  0  0  0  0
  -38.9018  -12.2130   27.9403 C   0  0  2  0  0  0  0  0  0  0  0  0
  -31.5476  -15.9623   16.3614 C   0  0  2  0  0  0  0  0  0  0  0  0
  -35.9407  -15.9546   27.7246 C   0  0  0  0  0  0  0  0  0  0  0  0
  -37.8476  -16.1582   17.8758 N   0  0  0  0  0  0  0  0  0  0  0  0
  -25.9402  -11.5927   20.5517 N   0  0  0  0  0  0  0  0  0  0  0  0
  -35.6921  -16.9951   17.1970 N   0  0  0  0  0  0  0  0  0  0  0  0
  -26.2891  -12.8830   20.4116 N   0  0  0  0  0  0  0  0  0  0  0  0
  -34.2576  -13.4946   25.7294 N   0  0  0  0  0  0  0  0  0  0  0  0
  -29.4316  -13.6448   18.3587 N   0  0  0  0  0  0  0  0  0  0  0  0
  -25.4226  -15.0874   20.4369 N   0  0  0  0  0  0  0  0  0  0  0  0
  -21.7888  -12.5303   21.2449 N   0  0  0  0  0  0  0  0  0  0  0  0
  -33.9216  -15.4903   16.7227 N   0  0  0  0  0  0  0  0  0  0  0  0
  -30.7315  -14.0333   25.8083 N   0  0  0  0  0  0  0  0  0  0  0  0
  -36.9991  -13.6560   27.7085 N   0  0  0  0  0  0  0  0  0  0  0  0
  -31.0846  -14.9101   17.2263 N   0  0  0  0  0  0  0  0  0  0  0  0
  -39.4776  -11.0828   27.1580 N   0  3  0  0  0  0  0  0  0  0  0  0
  -22.5255  -14.6840   20.9665 O   0  0  0  0  0  0  0  0  0  0  0  0
  -32.4418  -15.0638   24.6103 O   0  0  0  0  0  0  0  0  0  0  0  0
  -34.1570  -13.5592   28.0579 O   0  0  0  0  0  0  0  0  0  0  0  0
  -38.3553  -13.3122   25.8593 O   0  0  0  0  0  0  0  0  0  0  0  0
  -28.8683  -15.4481   17.0090 O   0  0  0  0  0  0  0  0  0  0  0  0
  -21.6860   -6.9715   21.5978 O   0  0  0  0  0  0  0  0  0  0  0  0
  -35.4666  -12.9487   19.7050 O   0  0  0  0  0  0  0  0  0  1  0  0
  -18.0813   -6.8942   25.7696 F   0  0  0  0  0  0  0  0  0  0  0  0
  -19.5880   -8.7693   21.6929 F   0  0  0  0  0  0  0  0  0  0  0  0
  1  2  1  0  0  0  0
  1  5  2  0  0  0  0
  2  6  2  0  0  0  0
  3  8  2  0  0  0  0
  3 16  1  0  0  0  0
  4  9  1  0  0  0  0
  4 16  2  0  0  0  0
  5 18  1  0  0  0  0
  6 20  1  0  0  0  0
  7 10  2  0  0  0  0
  7 19  1  0  0  0  0
  8 23  1  0  0  0  0
  9 23  2  0  0  0  0
 10 24  1  0  0  0  0
 11 12  2  0  0  0  0
 11 25  1  0  0  0  0
 12 26  1  0  0  0  0
 13 21  1  0  0  0  0
 13 24  2  0  0  0  0
 14 26  2  0  0  0  0
 14 27  1  0  0  0  0
 15 22  1  0  0  0  0
 15 65  2  0  0  0  0
 16 28  1  0  0  0  0
 17 28  1  0  0  0  0
 17 30  2  0  0  0  0
 17 32  1  0  0  0  0
 18 20  2  0  0  0  0
 18 37  1  0  0  0  0
 19 21  2  0  0  0  0
 19 38  1  0  0  0  0
 20 46  1  0  0  0  0
 21 39  1  0  0  0  0
 22 29  2  0  0  0  0
 22 57  1  0  0  0  0
 23 83  1  0  0  0  0
 24 84  1  0  0  0  0
 25 27  2  0  0  0  0
 25 83  1  0  0  0  0
 26 85  1  0  0  0  0
 27 86  1  0  0  0  0
 28 66  2  0  0  0  0
 29 67  1  0  0  0  0
 29 73  1  0  0  0  0
 30 68  1  0  0  0  0
 30 71  1  0  0  0  0
 31 60  1  0  0  0  0
 31 65  1  0  0  0  0
 31 67  2  0  0  0  0
 32 72  1  0  0  0  0
 32 78  2  0  0  0  0
 33 47  1  0  0  0  0
 33 74  1  0  0  0  0
 33 79  2  0  0  0  0
 34 61  1  0  0  0  0
 34 69  1  0  0  0  0
 34 80  2  0  0  0  0
 35 62  1  0  0  0  0
 35 75  1  0  0  0  0
 35 81  2  0  0  0  0
 36 70  1  0  0  0  0
 36 76  1  0  0  0  0
 36 82  2  0  0  0  0
 37 40  1  0  0  0  0
 38 47  1  0  0  0  0
 39 69  1  0  0  0  0
 40 42  1  0  0  0  0
 41 43  1  0  0  0  0
 41 44  1  0  0  0  0
 42 46  1  0  0  0  0
 43 48  1  0  0  0  0
 44 70  1  0  0  0  0
 45 48  1  0  0  0  0
 45 70  1  0  0  0  0
 46 74  1  0  0  0  0
 47 69  1  0  0  0  0
 48 68  1  0  0  0  0
 49 60  1  0  0  0  0
 50 60  1  0  0  0  0
 51 62  1  0  0  0  0
 52 63  1  0  0  0  0
 53 64  1  0  0  0  0
 54 64  1  0  0  0  0
 55 64  1  0  0  0  0
 56 77  1  0  0  0  0
 57 59  1  0  0  0  0
 58 63  1  0  0  0  0
 58 73  1  0  0  0  0
 59 84  1  0  0  0  0
 61 64  1  0  0  0  0
 61 75  1  0  0  0  0
 62 77  1  0  0  0  0
 63 76  1  0  0  0  0
 66 68  1  0  0  0  0
M  CHG  1  77   1
M  ISO  4  36 100  59 101  76 100  84 101
M  END
> <Batch ID>
0140

> <Smiles>
CNC(C)C(=O)NC(C(=O)N1Cc2cc([101O:1][101CH2:1]Cc3cnc(C(C)C)nc3NCC(C)[100NH:0][100C:0](=O)N3CCCC(n4nc(-c5ccc(Oc6ccc(F)cc6F)cc5)c(C(N)=O)c4N)C3)ccc2CC1C(=O)NC1CCCc2ccccc21)C(C)(C)C

> <Shape>
0.124

> <Color>
0.166

> <Negative vol penalty>
0.000

$$$$

  -OEChem-04052321133D

 86 95  0     1  0  0  0  0  0999 V2000
  -26.1554  -35.3485   22.8901 C   0  0  0  0  0  0  0  0  0  0  0  0
  -26.6817  -34.0735   22.7086 C   0  0  0  0  0  0  0  0  0  0  0  0
  -22.1097  -14.2628   21.3053 C   0  0  0  0  0  0  0  0  0  0  0  0
  -23.1967  -13.6225   23.3658 C   0  0  0  0  0  0  0  0  0  0  0  0
  -24.8645  -35.5033   23.3935 C   0  0  0  0  0  0  0  0  0  0  0  0
  -25.9177  -32.9526   23.0315 C   0  0  0  0  0  0  0  0  0  0  0  0
  -26.1495  -29.3537   19.4764 C   0  0  0  0  0  0  0  0  0  0  0  0
  -21.0054  -14.7142   22.0281 C   0  0  0  0  0  0  0  0  0  0  0  0
  -22.0924  -14.0739   24.0886 C   0  0  0  0  0  0  0  0  0  0  0  0
  -27.2936  -28.5574   19.4501 C   0  0  0  0  0  0  0  0  0  0  0  0
  -20.1617  -17.4381   23.8451 C   0  0  0  0  0  0  0  0  0  0  0  0
  -19.6179  -18.6736   23.4937 C   0  0  0  0  0  0  0  0  0  0  0  0
  -26.0991  -26.8135   20.6127 C   0  0  0  0  0  0  0  0  0  0  0  0
  -30.5488  -18.8664   18.8103 C   0  0  0  0  0  0  0  0  0  0  0  0
  -28.4672  -18.6107   17.6109 C   0  0  0  0  0  0  0  0  0  0  0  0
  -17.5073  -17.6050   23.0031 C   0  0  0  0  0  0  0  0  0  0  0  0
  -23.2053  -13.7169   21.9742 C   0  0  0  0  0  0  0  0  0  0  0  0
  -24.3649  -12.2403   20.2471 C   0  0  0  0  0  0  0  0  0  0  0  0
  -24.0807  -34.3836   23.7136 C   0  0  0  0  0  0  0  0  0  0  0  0
  -24.9728  -28.8894   20.0816 C   0  0  0  0  0  0  0  0  0  0  0  0
  -24.6155  -33.0927   23.5409 C   0  0  0  0  0  0  0  0  0  0  0  0
  -24.9407  -27.6049   20.6430 C   0  0  0  0  0  0  0  0  0  0  0  0
  -30.6940  -20.1502   18.2847 C   0  0  0  0  0  0  0  0  0  0  0  0
  -28.6123  -19.8946   17.0853 C   0  0  0  0  0  0  0  0  0  0  0  0
  -29.7258  -20.6644   17.4222 C   0  0  0  0  0  0  0  0  0  0  0  0
  -29.4354  -18.0966   18.4734 C   0  0  0  0  0  0  0  0  0  0  0  0
  -20.9968  -14.6198   23.4198 C   0  0  0  0  0  0  0  0  0  0  0  0
  -27.2694  -27.2882   20.0209 C   0  0  0  0  0  0  0  0  0  0  0  0
  -19.3784  -16.2861   23.7754 C   0  0  0  0  0  0  0  0  0  0  0  0
  -18.2907  -18.7570   23.0727 C   0  0  0  0  0  0  0  0  0  0  0  0
  -18.0512  -16.3695   23.3545 C   0  0  0  0  0  0  0  0  0  0  0  0
  -24.3461  -13.2499   21.2280 C   0  0  0  0  0  0  0  0  0  0  0  0
  -25.6769  -12.1760   19.8458 C   0  0  0  0  0  0  0  0  0  0  0  0
  -23.2924  -11.4329   19.7437 C   0  0  0  0  0  0  0  0  0  0  0  0
  -23.1893  -29.8352   22.5369 C   0  0  0  0  0  0  0  0  0  0  0  0
  -21.2189  -27.4702   21.5140 C   0  0  0  0  0  0  0  0  0  0  0  0
  -21.5712  -24.0955   20.2874 C   0  0  0  0  0  0  0  0  0  0  0  0
  -30.1544  -16.1329   19.8781 C   0  0  0  0  0  0  0  0  0  0  0  0
  -22.7081  -34.6018   24.2993 C   0  0  0  0  0  0  0  0  0  0  0  0
  -23.7393  -29.7502   20.0780 C   0  0  0  0  0  0  0  0  0  0  0  0
  -23.6966  -27.0519   21.2871 C   0  0  0  0  0  0  0  0  0  0  0  0
  -21.8259  -33.3564   24.2643 C   0  0  0  0  0  0  0  0  0  0  0  0
  -30.1249  -12.9377   21.4488 C   0  0  0  0  0  0  0  0  0  0  0  0
  -22.6014  -32.1388   24.7572 C   0  0  0  0  0  0  0  0  0  0  0  0
  -28.6419  -12.5606   21.4757 C   0  0  0  0  0  0  0  0  0  0  0  0
  -30.0351  -25.4487   18.5920 C   0  0  0  0  0  0  0  0  0  0  0  0
  -27.8654  -24.3167   19.1787 C   0  0  0  0  0  0  0  0  0  0  0  0
  -30.3342  -14.4330   21.6817 C   0  0  0  0  0  0  0  0  0  0  0  0
  -28.0817  -14.9362   20.8202 C   0  0  0  0  0  0  0  0  0  0  0  0
  -30.2677  -24.4261   17.4909 C   0  0  0  0  0  0  0  0  0  0  0  0
  -28.1021  -23.2967   18.0761 C   0  0  0  0  0  0  0  0  0  0  0  0
  -23.8086  -31.8518   23.8562 C   0  0  1  0  0  0  0  0  0  0  0  0
  -22.7475  -29.3776   21.1756 C   0  0  1  0  0  0  0  0  0  0  0  0
  -27.8168  -13.4507   20.5257 C   0  0  2  0  0  0  0  0  0  0  0  0
  -28.5489  -25.6467   18.8773 C   0  0  0  0  0  0  0  0  0  1  0  0
  -31.8957  -20.9538   18.6606 C   0  0  0  0  0  0  0  0  0  0  0  0
  -27.5612  -20.4216   16.1641 C   0  0  0  0  0  0  0  0  0  0  0  0
  -20.0990  -22.7516   18.7629 C   0  0  0  0  0  0  0  0  0  0  0  0
  -19.9822  -26.4287   24.1016 C   0  0  0  0  0  0  0  0  0  0  0  0
  -19.8105  -24.1726   23.0297 C   0  0  0  0  0  0  0  0  0  0  0  0
  -18.5660  -26.1077   22.0655 C   0  0  0  0  0  0  0  0  0  0  0  0
  -23.8020  -23.5551   18.4190 C   0  0  0  0  0  0  0  0  0  0  0  0
  -29.8818  -22.0455   16.8574 C   0  0  0  0  0  0  0  0  0  0  0  0
  -21.0783  -25.9954   21.8044 C   0  0  1  0  0  0  0  0  0  0  0  0
  -21.3450  -23.6175   18.8644 C   0  0  2  0  0  0  0  0  0  0  0  0
  -19.8844  -25.6893   22.7523 C   0  0  0  0  0  0  0  0  0  0  0  0
  -25.5505  -13.7881   21.4373 N   0  0  0  0  0  0  0  0  0  0  0  0
  -26.3384  -13.1142   20.5823 N   0  0  0  0  0  0  0  0  0  0  0  0
  -22.5182  -27.9341   21.2640 N   0  0  0  0  0  0  0  0  0  0  0  0
  -29.5246  -15.2132   20.7432 N   0  0  0  0  0  0  0  0  0  0  0  0
  -26.3177  -11.4090   18.9384 N   0  0  0  0  0  0  0  0  0  0  0  0
  -22.0066  -11.6291   20.2656 N   0  0  0  0  0  0  0  0  0  0  0  0
  -29.2871  -16.7928   19.0080 N   0  0  0  0  0  0  0  0  0  0  0  0
  -23.3847  -31.1996   22.6358 N   0  0  0  0  0  0  0  0  0  0  0  0
  -20.9983  -25.3300   20.5086 N   0  0  0  0  0  0  0  0  0  0  0  0
  -29.5875  -23.1284   17.8587 N   0  3  0  0  0  0  0  0  0  0  0  0
  -22.5121  -22.8185   18.3947 N   0  3  0  0  0  0  0  0  0  0  0  0
  -23.4721  -10.5520   18.8690 O   0  0  0  0  0  0  0  0  0  0  0  0
  -23.3403  -29.0116   23.4316 O   0  0  0  0  0  0  0  0  0  0  0  0
  -20.2122  -28.1829   21.5021 O   0  0  0  0  0  0  0  0  0  0  0  0
  -22.1907  -23.4377   21.1205 O   0  0  0  0  0  0  0  0  0  0  0  0
  -31.3765  -16.3013   19.8883 O   0  0  0  0  0  0  0  0  0  0  0  0
  -19.9195  -15.0604   24.1254 O   0  0  0  0  0  0  0  0  0  0  0  0
  -28.3849  -26.5091   19.9973 O   0  0  0  0  0  0  0  0  0  1  0  0
  -17.7681  -19.9437   22.7368 F   0  0  0  0  0  0  0  0  0  0  0  0
  -17.2933  -15.2664   23.2867 F   0  0  0  0  0  0  0  0  0  0  0  0
  1  2  1  0  0  0  0
  1  5  2  0  0  0  0
  2  6  2  0  0  0  0
  3  8  2  0  0  0  0
  3 17  1  0  0  0  0
  4  9  1  0  0  0  0
  4 17  2  0  0  0  0
  5 19  1  0  0  0  0
  6 21  1  0  0  0  0
  7 10  2  0  0  0  0
  7 20  1  0  0  0  0
  8 27  1  0  0  0  0
  9 27  2  0  0  0  0
 10 28  1  0  0  0  0
 11 12  2  0  0  0  0
 11 29  1  0  0  0  0
 12 30  1  0  0  0  0
 13 22  1  0  0  0  0
 13 28  2  0  0  0  0
 14 23  2  0  0  0  0
 14 26  1  0  0  0  0
 15 24  1  0  0  0  0
 15 26  2  0  0  0  0
 16 30  2  0  0  0  0
 16 31  1  0  0  0  0
 17 32  1  0  0  0  0
 18 32  1  0  0  0  0
 18 33  2  0  0  0  0
 18 34  1  0  0  0  0
 19 21  2  0  0  0  0
 19 39  1  0  0  0  0
 20 22  2  0  0  0  0
 20 40  1  0  0  0  0
 21 52  1  0  0  0  0
 22 41  1  0  0  0  0
 23 25  1  0  0  0  0
 23 56  1  0  0  0  0
 24 25  2  0  0  0  0
 24 57  1  0  0  0  0
 25 63  1  0  0  0  0
 26 73  1  0  0  0  0
 27 83  1  0  0  0  0
 28 84  1  0  0  0  0
 29 31  2  0  0  0  0
 29 83  1  0  0  0  0
 30 85  1  0  0  0  0
 31 86  1  0  0  0  0
 32 67  2  0  0  0  0
 33 68  1  0  0  0  0
 33 71  1  0  0  0  0
 34 72  1  0  0  0  0
 34 78  2  0  0  0  0
 35 53  1  0  0  0  0
 35 74  1  0  0  0  0
 35 79  2  0  0  0  0
 36 64  1  0  0  0  0
 36 69  1  0  0  0  0
 36 80  2  0  0  0  0
 37 65  1  0  0  0  0
 37 75  1  0  0  0  0
 37 81  2  0  0  0  0
 38 70  1  0  0  0  0
 38 73  1  0  0  0  0
 38 82  2  0  0  0  0
 39 42  1  0  0  0  0
 40 53  1  0  0  0  0
 41 69  1  0  0  0  0
 42 44  1  0  0  0  0
 43 45  1  0  0  0  0
 43 48  1  0  0  0  0
 44 52  1  0  0  0  0
 45 54  1  0  0  0  0
 46 50  1  0  0  0  0
 46 55  1  0  0  0  0
 47 51  1  0  0  0  0
 47 55  1  0  0  0  0
 48 70  1  0  0  0  0
 49 54  1  0  0  0  0
 49 70  1  0  0  0  0
 50 76  1  0  0  0  0
 51 76  1  0  0  0  0
 52 74  1  0  0  0  0
 53 69  1  0  0  0  0
 54 68  1  0  0  0  0
 55 84  1  0  0  0  0
 58 65  1  0  0  0  0
 59 66  1  0  0  0  0
 60 66  1  0  0  0  0
 61 66  1  0  0  0  0
 62 77  1  0  0  0  0
 63 76  1  0  0  0  0
 64 66  1  0  0  0  0
 64 75  1  0  0  0  0
 65 77  1  0  0  0  0
 67 68  1  0  0  0  0
M  CHG  2  76   1  77   1
M  ISO  4  38 100  55 101  73 100  84 101
M  END
> <Batch ID>
0140

> <Smiles>
CNC(C)C(=O)NC(C(=O)N1Cc2cc([101O:1][101CH:1]3CCN(Cc4c(C)cc([100NH:0][100C:0](=O)N5CCCC(n6nc(-c7ccc(Oc8ccc(F)cc8F)cc7)c(C(N)=O)c6N)C5)cc4C)CC3)ccc2CC1C(=O)NC1CCCc2ccccc21)C(C)(C)C

> <Shape>
0.269

> <Color>
0.077

> <Negative vol penalty>
0.000

$$$$

  -OEChem-04052321133D

 86 95  0     1  0  0  0  0  0999 V2000
  -26.3070  -35.8481   28.9460 C   0  0  0  0  0  0  0  0  0  0  0  0
  -25.9858  -34.5034   28.7913 C   0  0  0  0  0  0  0  0  0  0  0  0
  -22.7408  -10.0933   20.1382 C   0  0  0  0  0  0  0  0  0  0  0  0
  -24.2857   -9.4719   21.8887 C   0  0  0  0  0  0  0  0  0  0  0  0
  -26.0135  -36.7552   27.9286 C   0  0  0  0  0  0  0  0  0  0  0  0
  -25.3700  -34.0651   27.6196 C   0  0  0  0  0  0  0  0  0  0  0  0
  -27.4236  -29.7985   25.8242 C   0  0  0  0  0  0  0  0  0  0  0  0
  -22.0166   -8.9223   20.3616 C   0  0  0  0  0  0  0  0  0  0  0  0
  -23.5614   -8.3010   22.1122 C   0  0  0  0  0  0  0  0  0  0  0  0
  -27.0640  -28.6060   26.4507 C   0  0  0  0  0  0  0  0  0  0  0  0
  -20.7128   -7.3990   23.6909 C   0  0  0  0  0  0  0  0  0  0  0  0
  -20.4396   -7.0502   25.0135 C   0  0  0  0  0  0  0  0  0  0  0  0
  -25.4901  -28.1568   24.6787 C   0  0  0  0  0  0  0  0  0  0  0  0
  -21.6392   -4.9746   24.7140 C   0  0  0  0  0  0  0  0  0  0  0  0
  -23.8754  -10.3681   20.9017 C   0  0  0  0  0  0  0  0  0  0  0  0
  -24.1565  -12.9006   20.7794 C   0  0  0  0  0  0  0  0  0  0  0  0
  -25.4025  -36.3262   26.7398 C   0  0  0  0  0  0  0  0  0  0  0  0
  -26.8103  -30.1850   24.6238 C   0  0  0  0  0  0  0  0  0  0  0  0
  -25.0668  -34.9675   26.5859 C   0  0  0  0  0  0  0  0  0  0  0  0
  -25.8455  -29.3533   24.0376 C   0  0  0  0  0  0  0  0  0  0  0  0
  -22.4269   -8.0262   21.3486 C   0  0  0  0  0  0  0  0  0  0  0  0
  -26.0950  -27.7864   25.8794 C   0  0  0  0  0  0  0  0  0  0  0  0
  -21.4492   -6.5355   22.8798 C   0  0  0  0  0  0  0  0  0  0  0  0
  -20.9028   -5.8381   25.5251 C   0  0  0  0  0  0  0  0  0  0  0  0
  -21.9124   -5.3234   23.3914 C   0  0  0  0  0  0  0  0  0  0  0  0
  -24.6242  -11.5772   20.6709 C   0  0  0  0  0  0  0  0  0  0  0  0
  -25.2443  -13.6764   20.4612 C   0  0  0  0  0  0  0  0  0  0  0  0
  -22.8551  -13.3853   21.1360 C   0  0  0  0  0  0  0  0  0  0  0  0
  -25.0148  -32.6446   23.7128 C   0  0  0  0  0  0  0  0  0  0  0  0
  -25.3404  -31.2948   20.7812 C   0  0  0  0  0  0  0  0  0  0  0  0
  -25.2862  -27.9642   19.3950 C   0  0  0  0  0  0  0  0  0  0  0  0
  -30.5701  -14.9166   20.7231 C   0  0  0  0  0  0  0  0  0  0  0  0
  -25.0619  -37.3516   25.6876 C   0  0  0  0  0  0  0  0  0  0  0  0
  -27.2286  -31.4613   23.9467 C   0  0  0  0  0  0  0  0  0  0  0  0
  -25.1717  -29.7130   22.7395 C   0  0  0  0  0  0  0  0  0  0  0  0
  -24.7484  -36.7432   24.3231 C   0  0  0  0  0  0  0  0  0  0  0  0
  -29.7180  -12.4377   18.4686 C   0  0  0  0  0  0  0  0  0  0  0  0
  -23.7938  -35.5628   24.4715 C   0  0  0  0  0  0  0  0  0  0  0  0
  -28.2756  -12.0918   18.8377 C   0  0  0  0  0  0  0  0  0  0  0  0
  -28.8050  -18.0296   21.6824 C   0  0  0  0  0  0  0  0  0  0  0  0
  -28.3072  -16.2473   23.3925 C   0  0  0  0  0  0  0  0  0  0  0  0
  -24.9646  -22.2955   23.5614 C   0  0  0  0  0  0  0  0  0  0  0  0
  -30.5646  -12.6532   19.7179 C   0  0  0  0  0  0  0  0  0  0  0  0
  -30.0641  -17.2664   21.2808 C   0  0  0  0  0  0  0  0  0  0  0  0
  -29.5777  -15.5211   22.9629 C   0  0  0  0  0  0  0  0  0  0  0  0
  -25.2644  -20.9183   22.9396 C   0  0  0  0  0  0  0  0  0  0  0  0
  -28.5847  -13.3680   21.0158 C   0  0  0  0  0  0  0  0  0  0  0  0
  -24.4207  -34.4494   25.3193 C   0  0  1  0  0  0  0  0  0  0  0  0
  -26.1697  -32.0069   22.9936 C   0  0  1  0  0  0  0  0  0  0  0  0
  -28.4174  -17.7573   23.1416 C   0  0  0  0  0  0  0  0  0  0  0  0
  -27.6799  -13.1467   19.7870 C   0  0  2  0  0  0  0  0  0  0  0  0
  -26.2856  -22.0761   24.3374 C   0  0  1  0  0  0  0  0  0  0  0  0
  -26.3855  -27.0344   17.3396 C   0  0  0  0  0  0  0  0  0  0  0  0
  -22.6827  -31.9313   19.4243 C   0  0  0  0  0  0  0  0  0  0  0  0
  -22.9205  -29.8083   18.1187 C   0  0  0  0  0  0  0  0  0  0  0  0
  -24.6077  -31.6270   17.8570 C   0  0  0  0  0  0  0  0  0  0  0  0
  -26.6312  -25.8279   20.9396 C   0  0  0  0  0  0  0  0  0  0  0  0
  -27.1121  -18.4641   23.4989 C   0  0  0  0  0  0  0  0  0  0  0  0
  -26.2833  -22.4774   25.7994 C   0  0  0  0  0  0  0  0  0  0  0  0
  -27.3103  -19.9450   23.7899 C   0  0  0  0  0  0  0  0  0  0  0  0
  -26.4704  -24.4716   27.2917 C   0  0  0  0  0  0  0  0  0  0  0  0
  -26.7421  -25.9627   27.2621 C   0  0  0  0  0  0  0  0  0  1  0  0
  -24.5732  -30.2654   19.9870 C   0  0  1  0  0  0  0  0  0  0  0  0
  -26.4711  -27.1872   18.8503 C   0  0  2  0  0  0  0  0  0  0  0  0
  -23.6964  -30.9076   18.8752 C   0  0  0  0  0  0  0  0  0  0  0  0
  -25.9090  -11.5123   20.3117 N   0  0  0  0  0  0  0  0  0  0  0  0
  -26.2579  -12.8045   20.1916 N   0  0  0  0  0  0  0  0  0  0  0  0
  -25.6103  -30.9741   22.1192 N   0  0  0  0  0  0  0  0  0  0  0  0
  -29.9635  -13.6580   20.5948 N   0  0  0  0  0  0  0  0  0  0  0  0
  -29.9421  -15.8395   21.5759 N   0  0  0  0  0  0  0  0  0  0  0  0
  -26.0650  -20.6130   24.1530 N   0  0  2  0  0  0  0  0  0  0  0  0
  -25.4231  -15.0125   20.3884 N   0  0  0  0  0  0  0  0  0  0  0  0
  -22.5812  -13.6314   22.4883 N   0  0  0  0  0  0  0  0  0  0  0  0
  -25.3751  -33.6943   24.5360 N   0  0  0  0  0  0  0  0  0  0  0  0
  -25.5607  -29.3119   19.4930 N   0  0  0  0  0  0  0  0  0  0  0  0
  -26.5224  -25.8274   19.4580 N   0  3  0  0  0  0  0  0  0  0  0  0
  -26.5069  -23.9374   25.9017 N   0  3  0  0  0  0  0  0  0  0  0  0
  -21.9562  -13.5782   20.2826 O   0  0  0  0  0  0  0  0  0  0  0  0
  -23.8806  -32.2170   23.5329 O   0  0  0  0  0  0  0  0  0  0  0  0
  -25.6937  -32.3416   20.2326 O   0  0  0  0  0  0  0  0  0  0  0  0
  -24.2222  -27.4296   19.6993 O   0  0  0  0  0  0  0  0  0  0  0  0
  -31.6067  -15.2027   20.1110 O   0  0  0  0  0  0  0  0  0  0  0  0
  -21.7203   -6.8835   21.5671 O   0  0  0  0  0  0  0  0  0  0  0  0
  -25.7391  -26.6139   26.4936 O   0  0  0  0  0  0  0  0  0  1  0  0
  -20.6417   -5.5040   26.7957 F   0  0  0  0  0  0  0  0  0  0  0  0
  -22.6214   -4.4903   22.6173 F   0  0  0  0  0  0  0  0  0  0  0  0
  1  2  1  0  0  0  0
  1  5  2  0  0  0  0
  2  6  2  0  0  0  0
  3  8  2  0  0  0  0
  3 15  1  0  0  0  0
  4  9  1  0  0  0  0
  4 15  2  0  0  0  0
  5 17  1  0  0  0  0
  6 19  1  0  0  0  0
  7 10  2  0  0  0  0
  7 18  1  0  0  0  0
  8 21  1  0  0  0  0
  9 21  2  0  0  0  0
 10 22  1  0  0  0  0
 11 12  2  0  0  0  0
 11 23  1  0  0  0  0
 12 24  1  0  0  0  0
 13 20  1  0  0  0  0
 13 22  2  0  0  0  0
 14 24  2  0  0  0  0
 14 25  1  0  0  0  0
 15 26  1  0  0  0  0
 16 26  1  0  0  0  0
 16 27  2  0  0  0  0
 16 28  1  0  0  0  0
 17 19  2  0  0  0  0
 17 33  1  0  0  0  0
 18 20  2  0  0  0  0
 18 34  1  0  0  0  0
 19 48  1  0  0  0  0
 20 35  1  0  0  0  0
 21 83  1  0  0  0  0
 22 84  1  0  0  0  0
 23 25  2  0  0  0  0
 23 83  1  0  0  0  0
 24 85  1  0  0  0  0
 25 86  1  0  0  0  0
 26 66  2  0  0  0  0
 27 67  1  0  0  0  0
 27 72  1  0  0  0  0
 28 73  1  0  0  0  0
 28 78  2  0  0  0  0
 29 49  1  0  0  0  0
 29 74  1  0  0  0  0
 29 79  2  0  0  0  0
 30 63  1  0  0  0  0
 30 68  1  0  0  0  0
 30 80  2  0  0  0  0
 31 64  1  0  0  0  0
 31 75  1  0  0  0  0
 31 81  2  0  0  0  0
 32 69  1  0  0  0  0
 32 70  1  0  0  0  0
 32 82  2  0  0  0  0
 33 36  1  0  0  0  0
 34 49  1  0  0  0  0
 35 68  1  0  0  0  0
 36 38  1  0  0  0  0
 37 39  1  0  0  0  0
 37 43  1  0  0  0  0
 38 48  1  0  0  0  0
 39 51  1  0  0  0  0
 40 44  1  0  0  0  0
 40 50  1  0  0  0  0
 41 45  1  0  0  0  0
 41 50  1  0  0  0  0
 42 46  1  0  0  0  0
 42 52  1  0  0  0  0
 43 69  1  0  0  0  0
 44 70  1  0  0  0  0
 45 70  1  0  0  0  0
 46 71  1  0  0  0  0
 47 51  1  0  0  0  0
 47 69  1  0  0  0  0
 48 74  1  0  0  0  0
 49 68  1  0  0  0  0
 50 58  1  0  0  0  0
 51 67  1  0  0  0  0
 52 59  1  0  0  0  0
 52 71  1  0  0  0  0
 53 64  1  0  0  0  0
 54 65  1  0  0  0  0
 55 65  1  0  0  0  0
 56 65  1  0  0  0  0
 57 76  1  0  0  0  0
 58 60  1  0  0  0  0
 59 77  1  0  0  0  0
 60 71  1  0  0  0  0
 61 62  1  0  0  0  0
 61 77  1  0  0  0  0
 62 84  1  0  0  0  0
 63 65  1  0  0  0  0
 63 75  1  0  0  0  0
 64 76  1  0  0  0  0
 66 67  1  0  0  0  0
M  CHG  2  76   1  77   1
M  ISO  4  32 100  62 101  70 100  84 101
M  END
> <Batch ID>
0140

> <Smiles>
CNC(C)C(=O)NC(C(=O)N1Cc2cc([101O:1][101CH2:1]CNCC3CCN3CCC3CC[100N:0]([100C:0](=O)N4CCCC(n5nc(-c6ccc(Oc7ccc(F)cc7F)cc6)c(C(N)=O)c5N)C4)CC3)ccc2CC1C(=O)NC1CCCc2ccccc21)C(C)(C)C

> <Shape>
0.334

> <Color>
0.211

> <Negative vol penalty>
0.000

$$$$

  -OEChem-04052321133D

 88 97  0     1  0  0  0  0  0999 V2000
  -28.1263  -33.4379   25.9454 C   0  0  0  0  0  0  0  0  0  0  0  0
  -28.1123  -32.0857   25.6185 C   0  0  0  0  0  0  0  0  0  0  0  0
  -24.0702   -9.9547   22.8067 C   0  0  0  0  0  0  0  0  0  0  0  0
  -24.3640  -11.8835   24.2316 C   0  0  0  0  0  0  0  0  0  0  0  0
  -27.1182  -34.2782   25.4746 C   0  0  0  0  0  0  0  0  0  0  0  0
  -27.0895  -31.5728   24.8215 C   0  0  0  0  0  0  0  0  0  0  0  0
  -28.8115  -28.4669   21.2114 C   0  0  0  0  0  0  0  0  0  0  0  0
  -23.6317   -9.2118   23.9027 C   0  0  0  0  0  0  0  0  0  0  0  0
  -23.9255  -11.1406   25.3276 C   0  0  0  0  0  0  0  0  0  0  0  0
  -29.1521  -27.1708   21.5958 C   0  0  0  0  0  0  0  0  0  0  0  0
  -20.7921   -8.8728   25.7069 C   0  0  0  0  0  0  0  0  0  0  0  0
  -19.6587   -8.0774   25.5392 C   0  0  0  0  0  0  0  0  0  0  0  0
  -27.0361  -26.3723   20.7567 C   0  0  0  0  0  0  0  0  0  0  0  0
  -27.9738  -21.3542   19.0658 C   0  0  0  0  0  0  0  0  0  0  0  0
  -29.5380  -20.4301   20.6584 C   0  0  0  0  0  0  0  0  0  0  0  0
  -20.9548   -6.1143   26.0901 C   0  0  0  0  0  0  0  0  0  0  0  0
  -24.4364  -11.2906   22.9711 C   0  0  0  0  0  0  0  0  0  0  0  0
  -24.1013  -12.8267   20.9622 C   0  0  0  0  0  0  0  0  0  0  0  0
  -26.0878  -33.7772   24.6635 C   0  0  0  0  0  0  0  0  0  0  0  0
  -27.5739  -28.7276   20.6056 C   0  0  0  0  0  0  0  0  0  0  0  0
  -26.0659  -32.4069   24.3406 C   0  0  0  0  0  0  0  0  0  0  0  0
  -26.6832  -27.6722   20.3632 C   0  0  0  0  0  0  0  0  0  0  0  0
  -27.4229  -20.0876   18.8720 C   0  0  0  0  0  0  0  0  0  0  0  0
  -27.9294  -18.9922   19.5714 C   0  0  0  0  0  0  0  0  0  0  0  0
  -23.5593   -9.8047   25.1632 C   0  0  0  0  0  0  0  0  0  0  0  0
  -28.2632  -26.1237   21.3711 C   0  0  0  0  0  0  0  0  0  0  0  0
  -22.0070   -8.2890   26.0661 C   0  0  0  0  0  0  0  0  0  0  0  0
  -29.0315  -21.5255   19.9590 C   0  0  0  0  0  0  0  0  0  0  0  0
  -28.9870  -19.1634   20.4646 C   0  0  0  0  0  0  0  0  0  0  0  0
  -19.7400   -6.6981   25.7308 C   0  0  0  0  0  0  0  0  0  0  0  0
  -22.0883   -6.9098   26.2577 C   0  0  0  0  0  0  0  0  0  0  0  0
  -24.8900  -12.0584   21.8393 C   0  0  0  0  0  0  0  0  0  0  0  0
  -24.9986  -13.3534   20.0656 C   0  0  0  0  0  0  0  0  0  0  0  0
  -22.6842  -13.0450   20.9583 C   0  0  0  0  0  0  0  0  0  0  0  0
  -25.0358  -30.4881   21.3556 C   0  0  0  0  0  0  0  0  0  0  0  0
  -24.0406  -29.6138   18.3946 C   0  0  0  0  0  0  0  0  0  0  0  0
  -24.2160  -27.3785   15.8217 C   0  0  0  0  0  0  0  0  0  0  0  0
  -30.8581  -14.5437   20.3830 C   0  0  0  0  0  0  0  0  0  0  0  0
  -24.9940  -34.7149   24.2175 C   0  0  0  0  0  0  0  0  0  0  0  0
  -27.2326  -30.1270   20.1725 C   0  0  0  0  0  0  0  0  0  0  0  0
  -25.3507  -27.8960   19.6978 C   0  0  0  0  0  0  0  0  0  0  0  0
  -24.1517  -34.1657   23.0689 C   0  0  0  0  0  0  0  0  0  0  0  0
  -29.2264  -12.4364   18.0222 C   0  0  0  0  0  0  0  0  0  0  0  0
  -25.0579  -20.7704   18.0879 C   0  0  0  0  0  0  0  0  0  0  0  0
  -25.0090  -19.3041   18.3843 C   0  0  0  0  0  0  0  0  0  0  0  0
  -23.7518  -32.7196   23.3440 C   0  0  0  0  0  0  0  0  0  0  0  0
  -27.8589  -12.1699   18.6536 C   0  0  0  0  0  0  0  0  0  0  0  0
  -30.3301  -12.5072   19.0752 C   0  0  0  0  0  0  0  0  0  0  0  0
  -28.7126  -13.1956   20.8025 C   0  0  0  0  0  0  0  0  0  0  0  0
  -26.2933  -19.9291   17.9086 C   0  0  0  0  0  0  0  0  0  0  0  0
  -24.9869  -31.8178   23.4580 C   0  0  1  0  0  0  0  0  0  0  0  0
  -25.7316  -30.3591   20.0301 C   0  0  1  0  0  0  0  0  0  0  0  0
  -27.5590  -13.1713   19.7852 C   0  0  2  0  0  0  0  0  0  0  0  0
  -23.2574  -26.9101   13.5504 C   0  0  0  0  0  0  0  0  0  0  0  0
  -21.4602  -28.6270   19.6899 C   0  0  0  0  0  0  0  0  0  0  0  0
  -20.9795  -27.3463   17.5930 C   0  0  0  0  0  0  0  0  0  0  0  0
  -21.1442  -29.8344   17.5227 C   0  0  0  0  0  0  0  0  0  0  0  0
  -26.8729  -27.5733   14.5325 C   0  0  0  0  0  0  0  0  0  0  0  0
  -27.3426  -17.6314   19.3696 C   0  0  0  0  0  0  0  0  0  0  0  0
  -31.2408  -16.5695   21.7646 C   0  0  0  0  0  0  0  0  0  0  0  0
  -30.8728  -17.7999   20.9549 C   0  0  0  0  0  0  0  0  0  0  0  0
  -29.9787  -24.5174   21.7355 C   0  0  0  0  0  0  0  0  0  1  0  0
  -30.1232  -23.0383   21.4339 C   0  0  0  0  0  0  0  0  0  0  0  0
  -23.2446  -28.4614   17.8312 C   0  0  1  0  0  0  0  0  0  0  0  0
  -24.3837  -27.5756   14.3259 C   0  0  2  0  0  0  0  0  0  0  0  0
  -21.7313  -28.5631   18.1735 C   0  0  0  0  0  0  0  0  0  0  0  0
  -26.1885  -12.0911   21.5280 N   0  0  0  0  0  0  0  0  0  0  0  0
  -26.2226  -12.8864   20.4452 N   0  0  0  0  0  0  0  0  0  0  0  0
  -25.0602  -29.2829   19.2984 N   0  0  0  0  0  0  0  0  0  0  0  0
  -29.9848  -13.4758   20.1185 N   0  0  0  0  0  0  0  0  0  0  0  0
  -24.8522  -14.1657   18.9974 N   0  0  0  0  0  0  0  0  0  0  0  0
  -21.9105  -12.4285   21.9511 N   0  0  0  0  0  0  0  0  0  0  0  0
  -25.5152  -31.5160   22.1450 N   0  0  0  0  0  0  0  0  0  0  0  0
  -23.5328  -28.4266   16.4015 N   0  0  0  0  0  0  0  0  0  0  0  0
  -30.4523  -15.4192   21.3827 N   0  0  0  0  0  0  0  0  0  0  0  0
  -28.0022  -16.8636   18.2797 N   0  3  0  0  0  0  0  0  0  0  0  0
  -25.6771  -26.9934   13.8686 N   0  3  0  0  0  0  0  0  0  0  0  0
  -22.1188  -13.7520   20.0901 O   0  0  0  0  0  0  0  0  0  0  0  0
  -24.1301  -29.7134   21.6405 O   0  0  0  0  0  0  0  0  0  0  0  0
  -23.7725  -30.7645   18.0402 O   0  0  0  0  0  0  0  0  0  0  0  0
  -24.6448  -26.3917   16.4158 O   0  0  0  0  0  0  0  0  0  0  0  0
  -31.9182  -14.7079   19.7697 O   0  0  0  0  0  0  0  0  0  0  0  0
  -23.1312   -9.0802   26.2329 O   0  0  0  0  0  0  0  0  0  0  0  0
  -28.5929  -24.8577   21.7459 O   0  0  0  0  0  0  0  0  0  1  0  0
  -29.5719  -22.7699   20.1504 O   0  0  0  0  0  0  0  0  0  0  0  0
  -29.4946  -18.1053   21.1572 O   0  0  0  0  0  0  0  0  0  0  0  0
  -18.6511   -5.9346   25.5713 F   0  0  0  0  0  0  0  0  0  0  0  0
  -23.2524   -6.3433   26.6040 F   0  0  0  0  0  0  0  0  0  0  0  0
  1  2  1  0  0  0  0
  1  5  2  0  0  0  0
  2  6  2  0  0  0  0
  3  8  2  0  0  0  0
  3 17  1  0  0  0  0
  4  9  1  0  0  0  0
  4 17  2  0  0  0  0
  5 19  1  0  0  0  0
  6 21  1  0  0  0  0
  7 10  2  0  0  0  0
  7 20  1  0  0  0  0
  8 25  1  0  0  0  0
  9 25  2  0  0  0  0
 10 26  1  0  0  0  0
 11 12  2  0  0  0  0
 11 27  1  0  0  0  0
 12 30  1  0  0  0  0
 13 22  1  0  0  0  0
 13 26  2  0  0  0  0
 14 23  1  0  0  0  0
 14 28  2  0  0  0  0
 15 28  1  0  0  0  0
 15 29  2  0  0  0  0
 16 30  2  0  0  0  0
 16 31  1  0  0  0  0
 17 32  1  0  0  0  0
 18 32  1  0  0  0  0
 18 33  2  0  0  0  0
 18 34  1  0  0  0  0
 19 21  2  0  0  0  0
 19 39  1  0  0  0  0
 20 22  2  0  0  0  0
 20 40  1  0  0  0  0
 21 51  1  0  0  0  0
 22 41  1  0  0  0  0
 23 24  2  0  0  0  0
 23 50  1  0  0  0  0
 24 29  1  0  0  0  0
 24 59  1  0  0  0  0
 25 83  1  0  0  0  0
 26 84  1  0  0  0  0
 27 31  2  0  0  0  0
 27 83  1  0  0  0  0
 28 85  1  0  0  0  0
 29 86  1  0  0  0  0
 30 87  1  0  0  0  0
 31 88  1  0  0  0  0
 32 67  2  0  0  0  0
 33 68  1  0  0  0  0
 33 71  1  0  0  0  0
 34 72  1  0  0  0  0
 34 78  2  0  0  0  0
 35 52  1  0  0  0  0
 35 73  1  0  0  0  0
 35 79  2  0  0  0  0
 36 64  1  0  0  0  0
 36 69  1  0  0  0  0
 36 80  2  0  0  0  0
 37 65  1  0  0  0  0
 37 74  1  0  0  0  0
 37 81  2  0  0  0  0
 38 70  1  0  0  0  0
 38 75  1  0  0  0  0
 38 82  2  0  0  0  0
 39 42  1  0  0  0  0
 40 52  1  0  0  0  0
 41 69  1  0  0  0  0
 42 46  1  0  0  0  0
 43 47  1  0  0  0  0
 43 48  1  0  0  0  0
 44 45  1  0  0  0  0
 44 50  1  0  0  0  0
 45 50  1  0  0  0  0
 46 51  1  0  0  0  0
 47 53  1  0  0  0  0
 48 70  1  0  0  0  0
 49 53  1  0  0  0  0
 49 70  1  0  0  0  0
 51 73  1  0  0  0  0
 52 69  1  0  0  0  0
 53 68  1  0  0  0  0
 54 65  1  0  0  0  0
 55 66  1  0  0  0  0
 56 66  1  0  0  0  0
 57 66  1  0  0  0  0
 58 77  1  0  0  0  0
 59 76  1  0  0  0  0
 60 61  1  0  0  0  0
 60 75  1  0  0  0  0
 61 86  1  0  0  0  0
 62 63  1  0  0  0  0
 62 84  1  0  0  0  0
 63 85  1  0  0  0  0
 64 66  1  0  0  0  0
 64 74  1  0  0  0  0
 65 77  1  0  0  0  0
 67 68  1  0  0  0  0
M  CHG  2  76   1  77   1
M  ISO  4  38 100  62 101  75 100  84 101
M  END
> <Batch ID>
0140

> <Smiles>
CNC(C)C(=O)NC(C(=O)N1Cc2cc([101O:1][101CH2:1]COc3cc(OCC[100NH:0][100C:0](=O)N4CCCC(n5nc(-c6ccc(Oc7ccc(F)cc7F)cc6)c(C(N)=O)c5N)C4)c(CN)c(C4CC4)c3)ccc2CC1C(=O)NC1CCCc2ccccc21)C(C)(C)C

> <Shape>
0.318

> <Color>
0.097

> <Negative vol penalty>
0.000

$$$$

  -OEChem-04052321133D

 87 96  0     1  0  0  0  0  0999 V2000
  -29.9695  -32.6530   25.9717 C   0  0  0  0  0  0  0  0  0  0  0  0
  -29.5986  -31.5195   25.2556 C   0  0  0  0  0  0  0  0  0  0  0  0
  -24.7430   -8.2465   21.4499 C   0  0  0  0  0  0  0  0  0  0  0  0
  -23.1378   -9.9703   20.9122 C   0  0  0  0  0  0  0  0  0  0  0  0
  -28.9913  -33.5135   26.4684 C   0  0  0  0  0  0  0  0  0  0  0  0
  -28.2491  -31.2451   25.0366 C   0  0  0  0  0  0  0  0  0  0  0  0
  -27.3005  -29.8470   20.2627 C   0  0  0  0  0  0  0  0  0  0  0  0
  -23.8558   -7.7116   22.3839 C   0  0  0  0  0  0  0  0  0  0  0  0
  -22.2506   -9.4354   21.8462 C   0  0  0  0  0  0  0  0  0  0  0  0
  -27.6170  -28.5363   19.9082 C   0  0  0  0  0  0  0  0  0  0  0  0
  -21.0937   -5.7613   22.3633 C   0  0  0  0  0  0  0  0  0  0  0  0
  -20.9173   -4.3777   22.3715 C   0  0  0  0  0  0  0  0  0  0  0  0
  -25.2997  -27.9150   20.1598 C   0  0  0  0  0  0  0  0  0  0  0  0
  -25.5891  -17.5408   18.7252 C   0  0  0  0  0  0  0  0  0  0  0  0
  -21.6924   -4.2923   24.6582 C   0  0  0  0  0  0  0  0  0  0  0  0
  -24.3840   -9.3759   20.7141 C   0  0  0  0  0  0  0  0  0  0  0  0
  -25.4010   -9.5976   18.3851 C   0  0  0  0  0  0  0  0  0  0  0  0
  -27.6295  -33.2546   26.2472 C   0  0  0  0  0  0  0  0  0  0  0  0
  -25.9808  -30.1997   20.5795 C   0  0  0  0  0  0  0  0  0  0  0  0
  -27.2517  -32.1021   25.5320 C   0  0  0  0  0  0  0  0  0  0  0  0
  -24.9686  -29.2314   20.5155 C   0  0  0  0  0  0  0  0  0  0  0  0
  -25.1665  -18.8156   18.3654 C   0  0  0  0  0  0  0  0  0  0  0  0
  -26.0886  -19.8540   18.2963 C   0  0  0  0  0  0  0  0  0  0  0  0
  -22.6095   -8.3061   22.5820 C   0  0  0  0  0  0  0  0  0  0  0  0
  -26.6171  -27.5694   19.8596 C   0  0  0  0  0  0  0  0  0  0  0  0
  -21.5696   -6.4105   23.5026 C   0  0  0  0  0  0  0  0  0  0  0  0
  -21.2166   -3.6432   23.5189 C   0  0  0  0  0  0  0  0  0  0  0  0
  -21.8688   -5.6760   24.6500 C   0  0  0  0  0  0  0  0  0  0  0  0
  -25.3003   -9.9292   19.7495 C   0  0  0  0  0  0  0  0  0  0  0  0
  -27.4112  -19.5678   18.5942 C   0  0  0  0  0  0  0  0  0  0  0  0
  -26.9341  -17.3580   19.0037 C   0  0  0  0  0  0  0  0  0  0  0  0
  -26.4144  -10.3949   17.9119 C   0  0  0  0  0  0  0  0  0  0  0  0
  -24.6459   -8.6535   17.6143 C   0  0  0  0  0  0  0  0  0  0  0  0
  -24.5200  -31.3275   23.1675 C   0  0  0  0  0  0  0  0  0  0  0  0
  -21.9708  -31.5145   21.1703 C   0  0  0  0  0  0  0  0  0  0  0  0
  -20.4196  -30.4037   18.3407 C   0  0  0  0  0  0  0  0  0  0  0  0
  -28.6480  -15.6441   19.6902 C   0  0  0  0  0  0  0  0  0  0  0  0
  -26.6067  -34.1885   26.8442 C   0  0  0  0  0  0  0  0  0  0  0  0
  -25.6512  -31.6238   20.9340 C   0  0  0  0  0  0  0  0  0  0  0  0
  -23.5328  -29.5632   20.8268 C   0  0  0  0  0  0  0  0  0  0  0  0
  -25.2113  -34.0257   26.2471 C   0  0  0  0  0  0  0  0  0  0  0  0
  -30.4309  -12.5831   19.3310 C   0  0  0  0  0  0  0  0  0  0  0  0
  -24.8343  -32.5498   26.1657 C   0  0  0  0  0  0  0  0  0  0  0  0
  -29.3265  -11.5256   19.2672 C   0  0  0  0  0  0  0  0  0  0  0  0
  -30.0823  -13.7094   20.3024 C   0  0  0  0  0  0  0  0  0  0  0  0
  -27.6729  -13.2858   20.0117 C   0  0  0  0  0  0  0  0  0  0  0  0
  -25.1204  -24.5276   19.7221 C   0  0  0  0  0  0  0  0  0  0  0  0
  -26.3770  -24.2906   18.0707 C   0  0  0  0  0  0  0  0  0  0  0  0
  -25.7989  -31.7836   25.2525 C   0  0  1  0  0  0  0  0  0  0  0  0
  -24.3604  -31.7564   21.7364 C   0  0  1  0  0  0  0  0  0  0  0  0
  -27.9498  -12.1640   18.9975 C   0  0  2  0  0  0  0  0  0  0  0  0
  -25.9011  -25.5282   18.8515 C   0  0  0  0  0  0  0  0  0  1  0  0
  -23.7230  -19.0439   18.0599 C   0  0  0  0  0  0  0  0  0  0  0  0
  -29.5306  -20.3594   17.4829 C   0  0  0  0  0  0  0  0  0  0  0  0
  -29.1011  -20.8995   19.9075 C   0  0  0  0  0  0  0  0  0  0  0  0
  -18.3295  -30.7169   16.9877 C   0  0  0  0  0  0  0  0  0  0  0  0
  -20.4009  -29.8947   23.2250 C   0  0  0  0  0  0  0  0  0  0  0  0
  -18.6923  -29.4345   21.4537 C   0  0  0  0  0  0  0  0  0  0  0  0
  -19.1257  -31.7791   22.1871 C   0  0  0  0  0  0  0  0  0  0  0  0
  -21.9495  -31.2948   15.9691 C   0  0  0  0  0  0  0  0  0  0  0  0
  -25.6621  -21.2406   17.9097 C   0  0  0  0  0  0  0  0  0  0  0  0
  -25.5803  -22.2105   19.0841 C   0  0  0  0  0  0  0  0  0  0  0  0
  -28.4463  -20.6437   18.5380 C   0  0  0  0  0  0  0  0  0  0  0  0
  -20.8500  -30.5826   20.7773 C   0  0  1  0  0  0  0  0  0  0  0  0
  -19.7737  -31.1497   17.1871 C   0  0  2  0  0  0  0  0  0  0  0  0
  -19.7945  -30.4157   21.9067 C   0  0  0  0  0  0  0  0  0  0  0  0
  -26.1797  -10.8640   20.1193 N   0  0  0  0  0  0  0  0  0  0  0  0
  -27.8593  -18.3422   18.9474 N   0  0  0  0  0  0  0  0  0  0  0  0
  -26.8427  -11.1267   18.9802 N   0  0  0  0  0  0  0  0  0  0  0  0
  -23.2620  -30.9680   21.1743 N   0  0  0  0  0  0  0  0  0  0  0  0
  -28.7671  -14.2690   19.9832 N   0  0  0  0  0  0  0  0  0  0  0  0
  -26.9721  -10.5342   16.6904 N   0  0  0  0  0  0  0  0  0  0  0  0
  -23.6413   -7.9175   18.2572 N   0  0  0  0  0  0  0  0  0  0  0  0
  -27.3546  -16.0553   19.3696 N   0  0  0  0  0  0  0  0  0  0  0  0
  -25.4841  -32.0329   23.8621 N   0  0  0  0  0  0  0  0  0  0  0  0
  -20.3087  -31.1004   19.5254 N   0  0  0  0  0  0  0  0  0  0  0  0
  -25.2135  -23.5631   18.6106 N   0  3  0  0  0  0  0  0  0  0  0  0
  -20.5197  -30.8942   15.9225 N   0  3  0  0  0  0  0  0  0  0  0  0
  -24.8669   -8.4562   16.3954 O   0  0  0  0  0  0  0  0  0  0  0  0
  -23.8192  -30.4245   23.6094 O   0  0  0  0  0  0  0  0  0  0  0  0
  -21.7111  -32.6860   21.4562 O   0  0  0  0  0  0  0  0  0  0  0  0
  -20.9645  -29.3104   18.2052 O   0  0  0  0  0  0  0  0  0  0  0  0
  -29.6263  -16.3957   19.6948 O   0  0  0  0  0  0  0  0  0  0  0  0
  -21.7434   -7.7843   23.4932 O   0  0  0  0  0  0  0  0  0  0  0  0
  -26.9235  -26.2892   19.5145 O   0  0  0  0  0  0  0  0  0  1  0  0
  -21.0456   -2.3147   23.5271 F   0  0  0  0  0  0  0  0  0  0  0  0
  -22.3251   -6.2942   25.7479 F   0  0  0  0  0  0  0  0  0  0  0  0
  1  2  1  0  0  0  0
  1  5  2  0  0  0  0
  2  6  2  0  0  0  0
  3  8  2  0  0  0  0
  3 16  1  0  0  0  0
  4  9  1  0  0  0  0
  4 16  2  0  0  0  0
  5 18  1  0  0  0  0
  6 20  1  0  0  0  0
  7 10  2  0  0  0  0
  7 19  1  0  0  0  0
  8 24  1  0  0  0  0
  9 24  2  0  0  0  0
 10 25  1  0  0  0  0
 11 12  2  0  0  0  0
 11 26  1  0  0  0  0
 12 27  1  0  0  0  0
 13 21  1  0  0  0  0
 13 25  2  0  0  0  0
 14 22  2  0  0  0  0
 14 31  1  0  0  0  0
 15 27  2  0  0  0  0
 15 28  1  0  0  0  0
 16 29  1  0  0  0  0
 17 29  1  0  0  0  0
 17 32  2  0  0  0  0
 17 33  1  0  0  0  0
 18 20  2  0  0  0  0
 18 38  1  0  0  0  0
 19 21  2  0  0  0  0
 19 39  1  0  0  0  0
 20 49  1  0  0  0  0
 21 40  1  0  0  0  0
 22 23  1  0  0  0  0
 22 53  1  0  0  0  0
 23 30  2  0  0  0  0
 23 61  1  0  0  0  0
 24 84  1  0  0  0  0
 25 85  1  0  0  0  0
 26 28  2  0  0  0  0
 26 84  1  0  0  0  0
 27 86  1  0  0  0  0
 28 87  1  0  0  0  0
 29 67  2  0  0  0  0
 30 63  1  0  0  0  0
 30 68  1  0  0  0  0
 31 68  2  0  0  0  0
 31 74  1  0  0  0  0
 32 69  1  0  0  0  0
 32 72  1  0  0  0  0
 33 73  1  0  0  0  0
 33 79  2  0  0  0  0
 34 50  1  0  0  0  0
 34 75  1  0  0  0  0
 34 80  2  0  0  0  0
 35 64  1  0  0  0  0
 35 70  1  0  0  0  0
 35 81  2  0  0  0  0
 36 65  1  0  0  0  0
 36 76  1  0  0  0  0
 36 82  2  0  0  0  0
 37 71  1  0  0  0  0
 37 74  1  0  0  0  0
 37 83  2  0  0  0  0
 38 41  1  0  0  0  0
 39 50  1  0  0  0  0
 40 70  1  0  0  0  0
 41 43  1  0  0  0  0
 42 44  1  0  0  0  0
 42 45  1  0  0  0  0
 43 49  1  0  0  0  0
 44 51  1  0  0  0  0
 45 71  1  0  0  0  0
 46 51  1  0  0  0  0
 46 71  1  0  0  0  0
 47 52  1  0  0  0  0
 47 77  1  0  0  0  0
 48 52  1  0  0  0  0
 48 77  1  0  0  0  0
 49 75  1  0  0  0  0
 50 70  1  0  0  0  0
 51 69  1  0  0  0  0
 52 85  1  0  0  0  0
 54 63  1  0  0  0  0
 55 63  1  0  0  0  0
 56 65  1  0  0  0  0
 57 66  1  0  0  0  0
 58 66  1  0  0  0  0
 59 66  1  0  0  0  0
 60 78  1  0  0  0  0
 61 62  1  0  0  0  0
 62 77  1  0  0  0  0
 64 66  1  0  0  0  0
 64 76  1  0  0  0  0
 65 78  1  0  0  0  0
 67 69  1  0  0  0  0
M  CHG  2  77   1  78   1
M  ISO  4  37 100  52 101  74 100  85 101
M  END
> <Batch ID>
0140

> <Smiles>
CNC(C)C(=O)NC(C(=O)N1Cc2cc([101O:1][101CH:1]3CN(CCc4c(C)cc([100NH:0][100C:0](=O)N5CCCC(n6nc(-c7ccc(Oc8ccc(F)cc8F)cc7)c(C(N)=O)c6N)C5)nc4C(C)C)C3)ccc2CC1C(=O)NC1CCCc2ccccc21)C(C)(C)C

> <Shape>
0.282

> <Color>
0.086

> <Negative vol penalty>
0.000

$$$$

  -OEChem-04052321133D

 87 96  0     1  0  0  0  0  0999 V2000
  -36.2631  -21.0770   19.8123 C   0  0  0  0  0  0  0  0  0  0  0  0
  -34.8805  -21.1733   19.9228 C   0  0  0  0  0  0  0  0  0  0  0  0
  -23.0743   -9.8653   19.9452 C   0  0  0  0  0  0  0  0  0  0  0  0
  -23.8363   -9.8780   22.2379 C   0  0  0  0  0  0  0  0  0  0  0  0
  -37.0659  -22.1470   20.2020 C   0  0  0  0  0  0  0  0  0  0  0  0
  -34.2997  -22.3440   20.4117 C   0  0  0  0  0  0  0  0  0  0  0  0
  -29.3935  -22.6535   20.2209 C   0  0  0  0  0  0  0  0  0  0  0  0
  -22.3321   -8.7118   20.1983 C   0  0  0  0  0  0  0  0  0  0  0  0
  -23.0940   -8.7245   22.4910 C   0  0  0  0  0  0  0  0  0  0  0  0
  -28.5585  -21.9141   21.0575 C   0  0  0  0  0  0  0  0  0  0  0  0
  -19.9504   -5.9688   20.3347 C   0  0  0  0  0  0  0  0  0  0  0  0
  -30.8681  -17.8219   25.5285 C   0  0  0  0  0  0  0  0  0  0  0  0
  -18.6443   -5.9182   19.8477 C   0  0  0  0  0  0  0  0  0  0  0  0
  -29.5371  -18.1828   25.7058 C   0  0  0  0  0  0  0  0  0  0  0  0
  -28.1636  -23.8833   22.3937 C   0  0  0  0  0  0  0  0  0  0  0  0
  -18.0780   -7.8631   21.1643 C   0  0  0  0  0  0  0  0  0  0  0  0
  -23.8265  -10.4484   20.9650 C   0  0  0  0  0  0  0  0  0  0  0  0
  -24.1651  -12.9737   20.8394 C   0  0  0  0  0  0  0  0  0  0  0  0
  -36.4944  -23.3263   20.7076 C   0  0  0  0  0  0  0  0  0  0  0  0
  -29.6288  -24.0130   20.4711 C   0  0  0  0  0  0  0  0  0  0  0  0
  -35.0919  -23.4439   20.7878 C   0  0  0  0  0  0  0  0  0  0  0  0
  -28.9999  -24.6383   21.5572 C   0  0  0  0  0  0  0  0  0  0  0  0
  -22.3419   -8.1414   21.4712 C   0  0  0  0  0  0  0  0  0  0  0  0
  -27.9457  -22.5282   22.1457 C   0  0  0  0  0  0  0  0  0  0  0  0
  -20.3203   -6.9665   21.2366 C   0  0  0  0  0  0  0  0  0  0  0  0
  -31.3072  -17.3978   24.2792 C   0  0  0  0  0  0  0  0  0  0  0  0
  -17.7081   -6.8654   20.2625 C   0  0  0  0  0  0  0  0  0  0  0  0
  -19.3841   -7.9137   21.6514 C   0  0  0  0  0  0  0  0  0  0  0  0
  -24.5939  -11.6397   20.7041 C   0  0  0  0  0  0  0  0  0  0  0  0
  -28.6920  -18.1024   24.6107 C   0  0  0  0  0  0  0  0  0  0  0  0
  -30.3828  -17.3524   23.2481 C   0  0  0  0  0  0  0  0  0  0  0  0
  -25.2560  -13.7238   20.4735 C   0  0  0  0  0  0  0  0  0  0  0  0
  -22.8944  -13.4889   21.2584 C   0  0  0  0  0  0  0  0  0  0  0  0
  -32.1968  -25.7557   21.1581 C   0  0  0  0  0  0  0  0  0  0  0  0
  -30.1186  -28.2283   20.8579 C   0  0  0  0  0  0  0  0  0  0  0  0
  -26.8891  -29.3269   20.9579 C   0  0  0  0  0  0  0  0  0  0  0  0
  -30.7387  -14.7499   20.6547 C   0  0  0  0  0  0  0  0  0  0  0  0
  -37.4099  -24.4565   21.1073 C   0  0  0  0  0  0  0  0  0  0  0  0
  -30.5110  -24.8030   19.5437 C   0  0  0  0  0  0  0  0  0  0  0  0
  -29.2037  -26.1001   21.8575 C   0  0  0  0  0  0  0  0  0  0  0  0
  -36.7344  -25.4740   22.0208 C   0  0  0  0  0  0  0  0  0  0  0  0
  -35.2016  -19.1618   23.4791 C   0  0  0  0  0  0  0  0  0  0  0  0
  -29.6018  -12.3590   18.2740 C   0  0  0  0  0  0  0  0  0  0  0  0
  -35.3952  -25.8924   21.4324 C   0  0  0  0  0  0  0  0  0  0  0  0
  -28.1651  -12.0644   18.7088 C   0  0  0  0  0  0  0  0  0  0  0  0
  -35.0429  -17.6929   23.9148 C   0  0  0  0  0  0  0  0  0  0  0  0
  -33.6685  -19.2164   23.3434 C   0  0  0  0  0  0  0  0  0  0  0  0
  -30.5198  -12.5834   19.4735 C   0  0  0  0  0  0  0  0  0  0  0  0
  -28.6184  -13.3151   20.8604 C   0  0  0  0  0  0  0  0  0  0  0  0
  -34.4393  -24.6959   21.3454 C   0  0  1  0  0  0  0  0  0  0  0  0
  -31.0868  -26.0584   20.1917 C   0  0  1  0  0  0  0  0  0  0  0  0
  -27.6434  -13.1369   19.6840 C   0  0  2  0  0  0  0  0  0  0  0  0
  -33.6021  -18.0458   24.3528 C   0  0  0  0  0  0  0  0  0  0  0  0
  -30.5951  -17.9813   20.8148 C   0  0  0  0  0  0  0  0  0  0  0  0
  -25.5073  -31.4068   20.7087 C   0  0  0  0  0  0  0  0  0  0  0  0
  -31.0061  -29.1471   23.6288 C   0  0  0  0  0  0  0  0  0  0  0  0
  -28.9752  -30.6084   23.7183 C   0  0  0  0  0  0  0  0  0  0  0  0
  -30.7078  -30.9898   21.9646 C   0  0  0  0  0  0  0  0  0  0  0  0
  -25.3984  -28.2009   18.6626 C   0  0  0  0  0  0  0  0  0  0  0  0
  -27.2422  -18.4863   24.7664 C   0  0  0  0  0  0  0  0  0  0  0  0
  -26.9637  -19.9656   24.4911 C   0  0  0  0  0  0  0  0  0  0  0  0
  -27.4187  -20.4185   23.1087 C   0  0  0  0  0  0  0  0  0  1  0  0
  -30.8031  -16.9031   21.8870 C   0  0  2  0  0  0  0  0  0  0  0  0
  -29.1968  -28.9698   21.7956 C   0  0  1  0  0  0  0  0  0  0  0  0
  -26.0897  -30.1931   20.0013 C   0  0  2  0  0  0  0  0  0  0  0  0
  -29.9690  -29.9008   22.7726 C   0  0  0  0  0  0  0  0  0  0  0  0
  -25.8585  -11.5445   20.2848 N   0  0  0  0  0  0  0  0  0  0  0  0
  -29.0819  -17.6951   23.3821 N   0  0  0  0  0  0  0  0  0  0  0  0
  -26.2337  -12.8283   20.1535 N   0  0  0  0  0  0  0  0  0  0  0  0
  -30.0801  -26.8283   20.9252 N   0  0  0  0  0  0  0  0  0  0  0  0
  -29.9688  -13.6132   20.3579 N   0  0  0  0  0  0  0  0  0  0  0  0
  -25.4647  -15.0553   20.3975 N   0  0  0  0  0  0  0  0  0  0  0  0
  -21.8839  -12.5792   21.5985 N   0  0  0  0  0  0  0  0  0  0  0  0
  -33.2650  -25.0835   20.5953 N   0  0  0  0  0  0  0  0  0  0  0  0
  -28.2269  -29.6609   20.9528 N   0  0  0  0  0  0  0  0  0  0  0  0
  -30.1392  -15.6797   21.4953 N   0  0  0  0  0  0  0  0  0  0  0  0
  -24.9678  -29.4111   19.4089 N   0  3  0  0  0  0  0  0  0  0  0  0
  -22.6567  -14.7193   21.3134 O   0  0  0  0  0  0  0  0  0  0  0  0
  -32.0927  -26.1075   22.3273 O   0  0  0  0  0  0  0  0  0  0  0  0
  -30.8409  -28.8674   20.0889 O   0  0  0  0  0  0  0  0  0  0  0  0
  -26.3774  -28.4450   21.6441 O   0  0  0  0  0  0  0  0  0  0  0  0
  -31.8740  -14.9258   20.1996 O   0  0  0  0  0  0  0  0  0  0  0  0
  -21.6175   -7.0159   21.7185 O   0  0  0  0  0  0  0  0  0  0  0  0
  -32.6047  -17.0435   24.0955 O   0  0  0  0  0  0  0  0  0  0  0  0
  -27.1308  -21.8087   22.9643 O   0  0  0  0  0  0  0  0  0  1  0  0
  -16.4543   -6.8176   19.7935 F   0  0  0  0  0  0  0  0  0  0  0  0
  -19.7339   -8.8753   22.5167 F   0  0  0  0  0  0  0  0  0  0  0  0
  1  2  1  0  0  0  0
  1  5  2  0  0  0  0
  2  6  2  0  0  0  0
  3  8  2  0  0  0  0
  3 17  1  0  0  0  0
  4  9  1  0  0  0  0
  4 17  2  0  0  0  0
  5 19  1  0  0  0  0
  6 21  1  0  0  0  0
  7 10  2  0  0  0  0
  7 20  1  0  0  0  0
  8 23  1  0  0  0  0
  9 23  2  0  0  0  0
 10 24  1  0  0  0  0
 11 13  2  0  0  0  0
 11 25  1  0  0  0  0
 12 14  2  0  0  0  0
 12 26  1  0  0  0  0
 13 27  1  0  0  0  0
 14 30  1  0  0  0  0
 15 22  1  0  0  0  0
 15 24  2  0  0  0  0
 16 27  2  0  0  0  0
 16 28  1  0  0  0  0
 17 29  1  0  0  0  0
 18 29  1  0  0  0  0
 18 32  2  0  0  0  0
 18 33  1  0  0  0  0
 19 21  2  0  0  0  0
 19 38  1  0  0  0  0
 20 22  2  0  0  0  0
 20 39  1  0  0  0  0
 21 50  1  0  0  0  0
 22 40  1  0  0  0  0
 23 83  1  0  0  0  0
 24 85  1  0  0  0  0
 25 28  2  0  0  0  0
 25 83  1  0  0  0  0
 26 31  2  0  0  0  0
 26 84  1  0  0  0  0
 27 86  1  0  0  0  0
 28 87  1  0  0  0  0
 29 67  2  0  0  0  0
 30 60  1  0  0  0  0
 30 68  2  0  0  0  0
 31 63  1  0  0  0  0
 31 68  1  0  0  0  0
 32 69  1  0  0  0  0
 32 72  1  0  0  0  0
 33 73  1  0  0  0  0
 33 78  2  0  0  0  0
 34 51  1  0  0  0  0
 34 74  1  0  0  0  0
 34 79  2  0  0  0  0
 35 64  1  0  0  0  0
 35 70  1  0  0  0  0
 35 80  2  0  0  0  0
 36 65  1  0  0  0  0
 36 75  1  0  0  0  0
 36 81  2  0  0  0  0
 37 71  1  0  0  0  0
 37 76  1  0  0  0  0
 37 82  2  0  0  0  0
 38 41  1  0  0  0  0
 39 51  1  0  0  0  0
 40 70  1  0  0  0  0
 41 44  1  0  0  0  0
 42 46  1  0  0  0  0
 42 47  1  0  0  0  0
 43 45  1  0  0  0  0
 43 48  1  0  0  0  0
 44 50  1  0  0  0  0
 45 52  1  0  0  0  0
 46 53  1  0  0  0  0
 47 53  1  0  0  0  0
 48 71  1  0  0  0  0
 49 52  1  0  0  0  0
 49 71  1  0  0  0  0
 50 74  1  0  0  0  0
 51 70  1  0  0  0  0
 52 69  1  0  0  0  0
 53 84  1  0  0  0  0
 54 63  1  0  0  0  0
 55 65  1  0  0  0  0
 56 66  1  0  0  0  0
 57 66  1  0  0  0  0
 58 66  1  0  0  0  0
 59 77  1  0  0  0  0
 60 61  1  0  0  0  0
 61 62  1  0  0  0  0
 62 85  1  0  0  0  0
 63 76  1  0  0  0  0
 64 66  1  0  0  0  0
 64 75  1  0  0  0  0
 65 77  1  0  0  0  0
 67 69  1  0  0  0  0
M  CHG  1  77   1
M  ISO  4  37 100  62 101  76 100  85 101
M  END
> <Batch ID>
0140

> <Smiles>
CNC(C)C(=O)NC(C(=O)N1Cc2cc([101O:1][101CH2:1]CCc3ccc(OC4CCC4)c(C(C)[100NH:0][100C:0](=O)N4CCCC(n5nc(-c6ccc(Oc7ccc(F)cc7F)cc6)c(C(N)=O)c5N)C4)n3)ccc2CC1C(=O)NC1CCCc2ccccc21)C(C)(C)C

> <Shape>
0.251

> <Color>
0.187

> <Negative vol penalty>
0.000

$$$$

  -OEChem-04052321133D

 87 97  0     1  0  0  0  0  0999 V2000
  -25.8832  -23.4628   26.7771 C   0  0  0  0  0  0  0  0  0  0  0  0
  -26.0943  -23.7892   25.4414 C   0  0  0  0  0  0  0  0  0  0  0  0
  -23.6792   -9.6706   19.8496 C   0  0  0  0  0  0  0  0  0  0  0  0
  -24.4445   -9.5346   22.1372 C   0  0  0  0  0  0  0  0  0  0  0  0
  -24.9193  -24.1467   27.5167 C   0  0  0  0  0  0  0  0  0  0  0  0
  -25.3409  -24.7992   24.8441 C   0  0  0  0  0  0  0  0  0  0  0  0
  -28.1669  -27.9363   22.0483 C   0  0  0  0  0  0  0  0  0  0  0  0
  -23.2899   -8.3322   19.9002 C   0  0  0  0  0  0  0  0  0  0  0  0
  -24.0552   -8.1961   22.1878 C   0  0  0  0  0  0  0  0  0  0  0  0
  -28.5552  -27.4894   20.7860 C   0  0  0  0  0  0  0  0  0  0  0  0
  -21.1871   -6.4508   22.5728 C   0  0  0  0  0  0  0  0  0  0  0  0
  -20.4904   -6.0224   23.7027 C   0  0  0  0  0  0  0  0  0  0  0  0
  -26.7850  -28.7894   19.7880 C   0  0  0  0  0  0  0  0  0  0  0  0
  -28.0216  -25.8478   16.6925 C   0  0  0  0  0  0  0  0  0  0  0  0
  -22.2340   -4.4161   24.1687 C   0  0  0  0  0  0  0  0  0  0  0  0
  -24.2565  -10.2718   20.9681 C   0  0  0  0  0  0  0  0  0  0  0  0
  -26.4945  -24.0214   17.0344 C   0  0  0  0  0  0  0  0  0  0  0  0
  -23.8799  -12.7797   21.2442 C   0  0  0  0  0  0  0  0  0  0  0  0
  -24.1604  -25.1721   26.9309 C   0  0  0  0  0  0  0  0  0  0  0  0
  -27.0762  -28.8059   22.1910 C   0  0  0  0  0  0  0  0  0  0  0  0
  -24.3650  -25.4966   25.5762 C   0  0  0  0  0  0  0  0  0  0  0  0
  -26.3866  -29.2478   21.0529 C   0  0  0  0  0  0  0  0  0  0  0  0
  -27.4241  -24.6782   16.2358 C   0  0  0  0  0  0  0  0  0  0  0  0
  -23.4779   -7.5949   21.0693 C   0  0  0  0  0  0  0  0  0  0  0  0
  -27.8624  -27.9136   19.6558 C   0  0  0  0  0  0  0  0  0  0  0  0
  -22.4072   -5.8618   22.2408 C   0  0  0  0  0  0  0  0  0  0  0  0
  -21.0138   -5.0050   24.5007 C   0  0  0  0  0  0  0  0  0  0  0  0
  -22.9306   -4.8445   23.0387 C   0  0  0  0  0  0  0  0  0  0  0  0
  -24.6594  -11.6543   20.9163 C   0  0  0  0  0  0  0  0  0  0  0  0
  -26.1992  -24.5709   18.2717 C   0  0  0  0  0  0  0  0  0  0  0  0
  -27.6580  -26.3155   17.9451 C   0  0  0  0  0  0  0  0  0  1  0  0
  -24.7141  -13.8495   21.0296 C   0  0  0  0  0  0  0  0  0  0  0  0
  -26.3251  -21.5824   16.8394 C   0  0  0  0  0  0  0  0  0  0  0  0
  -25.8543  -22.7934   16.5818 C   0  0  0  0  0  0  0  0  0  0  0  0
  -22.5230  -12.8517   21.7020 C   0  0  0  0  0  0  0  0  0  0  0  0
  -24.2539  -28.6444   23.6444 C   0  0  0  0  0  0  0  0  0  0  0  0
  -24.0543  -31.7571   22.7536 C   0  0  0  0  0  0  0  0  0  0  0  0
  -25.0527  -34.2314   20.6257 C   0  0  0  0  0  0  0  0  0  0  0  0
  -28.2801  -16.4498   17.7320 C   0  0  0  0  0  0  0  0  0  0  0  0
  -23.0970  -25.8511   27.7574 C   0  0  0  0  0  0  0  0  0  0  0  0
  -26.6867  -29.3000   23.5573 C   0  0  0  0  0  0  0  0  0  0  0  0
  -25.2214  -30.1972   21.1505 C   0  0  0  0  0  0  0  0  0  0  0  0
  -26.1416  -20.1938   16.6727 C   0  0  0  0  0  0  0  0  0  0  0  0
  -22.6015  -27.1628   27.1538 C   0  0  0  0  0  0  0  0  0  0  0  0
  -29.6756  -14.0506   20.1629 C   0  0  0  0  0  0  0  0  0  0  0  0
  -22.3143  -26.9907   25.6656 C   0  0  0  0  0  0  0  0  0  0  0  0
  -28.4242  -13.2720   20.5580 C   0  0  0  0  0  0  0  0  0  0  0  0
  -30.7636  -19.1633   16.7063 C   0  0  0  0  0  0  0  0  0  0  0  0
  -29.6350  -14.4985   18.7025 C   0  0  0  0  0  0  0  0  0  0  0  0
  -27.1567  -14.4928   18.7475 C   0  0  0  0  0  0  0  0  0  0  0  0
  -23.5850  -26.6030   24.8998 C   0  0  1  0  0  0  0  0  0  0  0  0
  -27.3384  -20.8260   17.4630 C   0  0  1  0  0  0  0  0  0  0  0  0
  -25.2398  -29.7782   23.6298 C   0  0  1  0  0  0  0  0  0  0  0  0
  -29.5159  -19.5992   17.4211 C   0  0  2  0  0  0  0  0  0  0  0  0
  -27.1578  -14.0760   20.2262 C   0  0  1  0  0  0  0  0  0  0  0  0
  -29.5305  -18.2984   16.6591 C   0  0  2  0  0  0  0  0  0  0  0  0
  -27.8049  -24.1604   14.8863 C   0  0  0  0  0  0  0  0  0  0  0  0
  -25.2095  -23.9196   19.1838 C   0  0  0  0  0  0  0  0  0  0  0  0
  -24.6880  -36.6627   20.1223 C   0  0  0  0  0  0  0  0  0  0  0  0
  -21.3756  -31.0843   21.4567 C   0  0  0  0  0  0  0  0  0  0  0  0
  -21.5251  -33.2403   20.1927 C   0  0  0  0  0  0  0  0  0  0  0  0
  -21.4222  -33.2623   22.6850 C   0  0  0  0  0  0  0  0  0  0  0  0
  -27.8926  -34.8840   21.1437 C   0  0  0  0  0  0  0  0  0  0  0  0
  -28.7164  -20.7710   16.9070 C   0  0  0  0  0  0  0  0  0  0  0  0
  -23.5394  -32.4905   21.5387 C   0  0  1  0  0  0  0  0  0  0  0  0
  -25.5294  -35.6496   20.8829 C   0  0  2  0  0  0  0  0  0  0  0  0
  -21.9863  -32.4999   21.4662 C   0  0  0  0  0  0  0  0  0  0  0  0
  -25.8939  -11.9789   20.5231 N   0  0  0  0  0  0  0  0  0  0  0  0
  -26.7590  -25.7049   18.7493 N   0  0  0  0  0  0  0  0  0  0  0  0
  -25.8964  -13.3205   20.6025 N   0  0  0  0  0  0  0  0  0  0  0  0
  -24.8749  -30.6469   22.5089 N   0  0  0  0  0  0  0  0  0  0  0  0
  -28.3861  -15.2108   18.3893 N   0  0  0  0  0  0  0  0  0  0  0  0
  -24.5443  -15.1818   21.1664 N   0  0  0  0  0  0  0  0  0  0  0  0
  -21.8099  -11.6567   21.8687 N   0  0  0  0  0  0  0  0  0  0  0  0
  -24.4254  -27.7632   24.6949 N   0  0  0  0  0  0  0  0  0  0  0  0
  -24.1438  -33.8178   21.5766 N   0  0  0  0  0  0  0  0  0  0  0  0
  -29.4805  -17.0354   17.3458 N   0  0  0  0  0  0  0  0  0  0  0  0
  -26.9493  -35.8039   20.4574 N   0  3  0  0  0  0  0  0  0  0  0  0
  -21.9545  -13.9443   21.9399 O   0  0  0  0  0  0  0  0  0  0  0  0
  -23.3998  -28.5751   22.7684 O   0  0  0  0  0  0  0  0  0  0  0  0
  -23.7458  -32.1589   23.8783 O   0  0  0  0  0  0  0  0  0  0  0  0
  -25.4444  -33.5592   19.6743 O   0  0  0  0  0  0  0  0  0  0  0  0
  -27.1950  -16.9942   17.4998 O   0  0  0  0  0  0  0  0  0  0  0  0
  -23.0980   -6.2889   21.1191 O   0  0  0  0  0  0  0  0  0  0  0  0
  -28.2388  -27.4785   18.4226 O   0  0  0  0  0  0  0  0  0  1  0  0
  -20.3455   -4.5948   25.5865 F   0  0  0  0  0  0  0  0  0  0  0  0
  -24.1029   -4.2758   22.7254 F   0  0  0  0  0  0  0  0  0  0  0  0
  1  2  1  0  0  0  0
  1  5  2  0  0  0  0
  2  6  2  0  0  0  0
  3  8  2  0  0  0  0
  3 16  1  0  0  0  0
  4  9  1  0  0  0  0
  4 16  2  0  0  0  0
  5 19  1  0  0  0  0
  6 21  1  0  0  0  0
  7 10  2  0  0  0  0
  7 20  1  0  0  0  0
  8 24  1  0  0  0  0
  9 24  2  0  0  0  0
 10 25  1  0  0  0  0
 11 12  2  0  0  0  0
 11 26  1  0  0  0  0
 12 27  1  0  0  0  0
 13 22  1  0  0  0  0
 13 25  2  0  0  0  0
 14 23  2  0  0  0  0
 14 31  1  0  0  0  0
 15 27  2  0  0  0  0
 15 28  1  0  0  0  0
 16 29  1  0  0  0  0
 17 23  1  0  0  0  0
 17 30  2  0  0  0  0
 17 34  1  0  0  0  0
 18 29  1  0  0  0  0
 18 32  2  0  0  0  0
 18 35  1  0  0  0  0
 19 21  2  0  0  0  0
 19 40  1  0  0  0  0
 20 22  2  0  0  0  0
 20 41  1  0  0  0  0
 21 51  1  0  0  0  0
 22 42  1  0  0  0  0
 23 57  1  0  0  0  0
 24 84  1  0  0  0  0
 25 85  1  0  0  0  0
 26 28  2  0  0  0  0
 26 84  1  0  0  0  0
 27 86  1  0  0  0  0
 28 87  1  0  0  0  0
 29 68  2  0  0  0  0
 30 58  1  0  0  0  0
 30 69  1  0  0  0  0
 31 69  2  0  0  0  0
 31 85  1  0  0  0  0
 32 70  1  0  0  0  0
 32 73  1  0  0  0  0
 33 34  2  0  0  0  0
 33 43  1  0  0  0  0
 33 52  1  0  0  0  0
 35 74  1  0  0  0  0
 35 79  2  0  0  0  0
 36 53  1  0  0  0  0
 36 75  1  0  0  0  0
 36 80  2  0  0  0  0
 37 65  1  0  0  0  0
 37 71  1  0  0  0  0
 37 81  2  0  0  0  0
 38 66  1  0  0  0  0
 38 76  1  0  0  0  0
 38 82  2  0  0  0  0
 39 72  1  0  0  0  0
 39 77  1  0  0  0  0
 39 83  2  0  0  0  0
 40 44  1  0  0  0  0
 41 53  1  0  0  0  0
 42 71  1  0  0  0  0
 43 52  1  0  0  0  0
 44 46  1  0  0  0  0
 45 47  1  0  0  0  0
 45 49  1  0  0  0  0
 46 51  1  0  0  0  0
 47 55  1  0  0  0  0
 48 54  1  0  0  0  0
 48 56  1  0  0  0  0
 49 72  1  0  0  0  0
 50 55  1  0  0  0  0
 50 72  1  0  0  0  0
 51 75  1  0  0  0  0
 52 64  1  0  0  0  0
 53 71  1  0  0  0  0
 54 56  1  0  0  0  0
 54 64  1  0  0  0  0
 55 70  1  0  0  0  0
 56 77  1  0  0  0  0
 59 66  1  0  0  0  0
 60 67  1  0  0  0  0
 61 67  1  0  0  0  0
 62 67  1  0  0  0  0
 63 78  1  0  0  0  0
 65 67  1  0  0  0  0
 65 76  1  0  0  0  0
 66 78  1  0  0  0  0
 68 70  1  0  0  0  0
M  CHG  1  78   1
M  ISO  4  31 101  39 100  77 100  85 101
M  END
> <Batch ID>
0140

> <Smiles>
CNC(C)C(=O)NC(C(=O)N1Cc2cc([101O:1][101c:1]3cc(C)c(C=C4CC4CC4CC4[100NH:0][100C:0](=O)N4CCCC(n5nc(-c6ccc(Oc7ccc(F)cc7F)cc6)c(C(N)=O)c5N)C4)c(C)n3)ccc2CC1C(=O)NC1CCCc2ccccc21)C(C)(C)C

> <Shape>
0.218

> <Color>
0.125

> <Negative vol penalty>
0.000

$$$$

  -OEChem-04052321133D

 87 96  0     1  0  0  0  0  0999 V2000
  -13.1046  -21.8205   22.1880 C   0  0  0  0  0  0  0  0  0  0  0  0
  -14.3774  -21.8247   21.6263 C   0  0  0  0  0  0  0  0  0  0  0  0
  -23.0636   -9.8266   20.0275 C   0  0  0  0  0  0  0  0  0  0  0  0
  -23.6467  -10.0880   22.3575 C   0  0  0  0  0  0  0  0  0  0  0  0
  -12.5203  -23.0186   22.5968 C   0  0  0  0  0  0  0  0  0  0  0  0
  -15.0662  -23.0273   21.4721 C   0  0  0  0  0  0  0  0  0  0  0  0
  -19.9100  -22.6901   22.9105 C   0  0  0  0  0  0  0  0  0  0  0  0
  -22.3038   -8.7004   20.3440 C   0  0  0  0  0  0  0  0  0  0  0  0
  -22.8869   -8.9619   22.6740 C   0  0  0  0  0  0  0  0  0  0  0  0
  -20.7959  -22.0775   22.0253 C   0  0  0  0  0  0  0  0  0  0  0  0
  -23.2221   -5.6020   22.5035 C   0  0  0  0  0  0  0  0  0  0  0  0
  -23.7820   -4.6658   23.3728 C   0  0  0  0  0  0  0  0  0  0  0  0
  -21.5508  -24.2471   21.2889 C   0  0  0  0  0  0  0  0  0  0  0  0
  -27.0636  -18.6224   18.9793 C   0  0  0  0  0  0  0  0  0  0  0  0
  -28.1942  -18.9290   21.5112 C   0  0  0  0  0  0  0  0  0  0  0  0
  -21.9555   -5.0073   24.9170 C   0  0  0  0  0  0  0  0  0  0  0  0
  -23.7351  -10.5203   21.0343 C   0  0  0  0  0  0  0  0  0  0  0  0
  -24.0830  -13.0208   20.6675 C   0  0  0  0  0  0  0  0  0  0  0  0
  -13.2062  -24.2353   22.4564 C   0  0  0  0  0  0  0  0  0  0  0  0
  -19.8299  -24.0882   22.9839 C   0  0  0  0  0  0  0  0  0  0  0  0
  -14.4900  -24.2429   21.8782 C   0  0  0  0  0  0  0  0  0  0  0  0
  -20.6649  -24.8750   22.1777 C   0  0  0  0  0  0  0  0  0  0  0  0
  -26.2856  -19.0895   20.0385 C   0  0  0  0  0  0  0  0  0  0  0  0
  -26.8509  -19.2428   21.3045 C   0  0  0  0  0  0  0  0  0  0  0  0
  -28.9722  -18.4619   20.4519 C   0  0  0  0  0  0  0  0  0  0  0  0
  -22.2154   -8.2681   21.6673 C   0  0  0  0  0  0  0  0  0  0  0  0
  -21.6144  -22.8560   21.2122 C   0  0  0  0  0  0  0  0  0  0  0  0
  -22.0289   -6.2409   22.8410 C   0  0  0  0  0  0  0  0  0  0  0  0
  -28.4070  -18.3086   19.1859 C   0  0  0  0  0  0  0  0  0  0  0  0
  -23.1487   -4.3684   24.5795 C   0  0  0  0  0  0  0  0  0  0  0  0
  -21.3956   -5.9435   24.0477 C   0  0  0  0  0  0  0  0  0  0  0  0
  -24.5206  -11.6833   20.7079 C   0  0  0  0  0  0  0  0  0  0  0  0
  -25.1990  -13.7365   20.3087 C   0  0  0  0  0  0  0  0  0  0  0  0
  -22.7839  -13.5673   20.9308 C   0  0  0  0  0  0  0  0  0  0  0  0
  -17.5495  -26.2358   22.4441 C   0  0  0  0  0  0  0  0  0  0  0  0
  -19.7594  -28.3018   23.6147 C   0  0  0  0  0  0  0  0  0  0  0  0
  -23.0482  -29.0023   24.1982 C   0  0  0  0  0  0  0  0  0  0  0  0
  -30.6516  -14.8196   20.7995 C   0  0  0  0  0  0  0  0  0  0  0  0
  -12.5146  -25.5103   22.8694 C   0  0  0  0  0  0  0  0  0  0  0  0
  -18.8881  -24.7336   23.9631 C   0  0  0  0  0  0  0  0  0  0  0  0
  -20.6319  -26.3797   22.2328 C   0  0  0  0  0  0  0  0  0  0  0  0
  -13.4627  -26.6978   23.0153 C   0  0  0  0  0  0  0  0  0  0  0  0
  -29.7010  -12.1811   18.6061 C   0  0  0  0  0  0  0  0  0  0  0  0
  -14.4040  -26.7796   21.8178 C   0  0  0  0  0  0  0  0  0  0  0  0
  -28.2350  -11.9228   18.9584 C   0  0  0  0  0  0  0  0  0  0  0  0
  -24.5005  -20.3914   18.6956 C   0  0  0  0  0  0  0  0  0  0  0  0
  -30.5239  -12.5386   19.8418 C   0  0  0  0  0  0  0  0  0  0  0  0
  -28.5215  -13.3979   20.9933 C   0  0  0  0  0  0  0  0  0  0  0  0
  -24.8599  -19.4170   19.7964 C   0  0  2  0  0  0  0  0  0  0  0  0
  -15.2789  -25.5242   21.7170 C   0  0  1  0  0  0  0  0  0  0  0  0
  -18.5235  -26.1662   23.5861 C   0  0  1  0  0  0  0  0  0  0  0  0
  -24.3536  -20.8049   20.1297 C   0  0  2  0  0  0  0  0  0  0  0  0
  -27.6399  -13.0883   19.7713 C   0  0  2  0  0  0  0  0  0  0  0  0
  -26.0391  -19.7410   22.4551 C   0  0  0  0  0  0  0  0  0  0  0  0
  -29.9261  -15.9280   16.9461 C   0  0  0  0  0  0  0  0  0  0  0  0
  -24.5467  -30.7844   25.1341 C   0  0  0  0  0  0  0  0  0  0  0  0
  -19.3780  -29.9521   21.0767 C   0  0  0  0  0  0  0  0  0  0  0  0
  -21.5148  -31.1416   21.6125 C   0  0  0  0  0  0  0  0  0  0  0  0
  -19.5771  -31.2972   23.1756 C   0  0  0  0  0  0  0  0  0  0  0  0
  -24.0778  -27.1940   26.3027 C   0  0  0  0  0  0  0  0  0  0  0  0
  -30.4084  -18.1308   20.6911 C   0  0  0  0  0  0  0  0  0  0  0  0
  -22.9981  -20.9850   20.7215 C   0  0  0  0  0  0  0  0  0  1  0  0
  -30.6214  -17.0917   21.7975 C   0  0  0  0  0  0  0  0  0  0  0  0
  -28.7210  -16.6480   17.5127 C   0  0  0  0  0  0  0  0  0  0  0  0
  -20.8705  -29.1307   23.0168 C   0  0  1  0  0  0  0  0  0  0  0  0
  -23.7649  -29.5150   25.4343 C   0  0  2  0  0  0  0  0  0  0  0  0
  -20.3346  -30.3521   22.2177 C   0  0  0  0  0  0  0  0  0  0  0  0
  -25.8137  -11.5544   20.3992 N   0  0  0  0  0  0  0  0  0  0  0  0
  -26.1982  -12.8200   20.1614 N   0  0  0  0  0  0  0  0  0  0  0  0
  -19.6899  -26.9637   23.2018 N   0  0  0  0  0  0  0  0  0  0  0  0
  -29.9066  -13.6518   20.5670 N   0  0  0  0  0  0  0  0  0  0  0  0
  -25.4132  -15.0542   20.1080 N   0  0  0  0  0  0  0  0  0  0  0  0
  -21.7500  -12.6907   21.2871 N   0  0  0  0  0  0  0  0  0  0  0  0
  -16.3564  -25.5804   22.6815 N   0  0  0  0  0  0  0  0  0  0  0  0
  -21.7575  -29.4814   24.1207 N   0  0  0  0  0  0  0  0  0  0  0  0
  -29.9893  -15.8285   21.4882 N   0  0  0  0  0  0  0  0  0  0  0  0
  -24.7156  -28.4874   25.9454 N   0  3  0  0  0  0  0  0  0  0  0  0
  -22.5429  -14.7947   20.8364 O   0  0  0  0  0  0  0  0  0  0  0  0
  -17.8571  -26.8408   21.4238 O   0  0  0  0  0  0  0  0  0  0  0  0
  -18.9863  -28.8206   24.4238 O   0  0  0  0  0  0  0  0  0  0  0  0
  -23.5812  -28.2548   23.3811 O   0  0  0  0  0  0  0  0  0  0  0  0
  -31.8187  -14.9554   20.4167 O   0  0  0  0  0  0  0  0  0  0  0  0
  -21.4739   -7.1695   21.9765 O   0  0  0  0  0  0  0  0  0  0  0  0
  -22.4795  -22.2606   20.3468 O   0  0  0  0  0  0  0  0  0  1  0  0
  -29.1529  -17.8536   18.1404 O   0  0  0  0  0  0  0  0  0  0  0  0
  -23.6857   -3.4683   25.4135 F   0  0  0  0  0  0  0  0  0  0  0  0
  -20.2485   -6.5531   24.3767 F   0  0  0  0  0  0  0  0  0  0  0  0
  1  2  1  0  0  0  0
  1  5  2  0  0  0  0
  2  6  2  0  0  0  0
  3  8  2  0  0  0  0
  3 17  1  0  0  0  0
  4  9  1  0  0  0  0
  4 17  2  0  0  0  0
  5 19  1  0  0  0  0
  6 21  1  0  0  0  0
  7 10  2  0  0  0  0
  7 20  1  0  0  0  0
  8 26  1  0  0  0  0
  9 26  2  0  0  0  0
 10 27  1  0  0  0  0
 11 12  2  0  0  0  0
 11 28  1  0  0  0  0
 12 30  1  0  0  0  0
 13 22  1  0  0  0  0
 13 27  2  0  0  0  0
 14 23  2  0  0  0  0
 14 29  1  0  0  0  0
 15 24  2  0  0  0  0
 15 25  1  0  0  0  0
 16 30  2  0  0  0  0
 16 31  1  0  0  0  0
 17 32  1  0  0  0  0
 18 32  1  0  0  0  0
 18 33  2  0  0  0  0
 18 34  1  0  0  0  0
 19 21  2  0  0  0  0
 19 39  1  0  0  0  0
 20 22  2  0  0  0  0
 20 40  1  0  0  0  0
 21 50  1  0  0  0  0
 22 41  1  0  0  0  0
 23 24  1  0  0  0  0
 23 49  1  0  0  0  0
 24 54  1  0  0  0  0
 25 29  2  0  0  0  0
 25 61  1  0  0  0  0
 26 83  1  0  0  0  0
 27 84  1  0  0  0  0
 28 31  2  0  0  0  0
 28 83  1  0  0  0  0
 29 85  1  0  0  0  0
 30 86  1  0  0  0  0
 31 87  1  0  0  0  0
 32 68  2  0  0  0  0
 33 69  1  0  0  0  0
 33 72  1  0  0  0  0
 34 73  1  0  0  0  0
 34 78  2  0  0  0  0
 35 51  1  0  0  0  0
 35 74  1  0  0  0  0
 35 79  2  0  0  0  0
 36 65  1  0  0  0  0
 36 70  1  0  0  0  0
 36 80  2  0  0  0  0
 37 66  1  0  0  0  0
 37 75  1  0  0  0  0
 37 81  2  0  0  0  0
 38 71  1  0  0  0  0
 38 76  1  0  0  0  0
 38 82  2  0  0  0  0
 39 42  1  0  0  0  0
 40 51  1  0  0  0  0
 41 70  1  0  0  0  0
 42 44  1  0  0  0  0
 43 45  1  0  0  0  0
 43 47  1  0  0  0  0
 44 50  1  0  0  0  0
 45 53  1  0  0  0  0
 46 49  1  0  0  0  0
 46 52  1  0  0  0  0
 47 71  1  0  0  0  0
 48 53  1  0  0  0  0
 48 71  1  0  0  0  0
 49 52  1  0  0  0  0
 50 74  1  0  0  0  0
 51 70  1  0  0  0  0
 52 62  1  0  0  0  0
 53 69  1  0  0  0  0
 55 64  1  0  0  0  0
 56 66  1  0  0  0  0
 57 67  1  0  0  0  0
 58 67  1  0  0  0  0
 59 67  1  0  0  0  0
 60 77  1  0  0  0  0
 61 63  1  0  0  0  0
 62 84  1  0  0  0  0
 63 76  1  0  0  0  0
 64 85  1  0  0  0  0
 65 67  1  0  0  0  0
 65 75  1  0  0  0  0
 66 77  1  0  0  0  0
 68 69  1  0  0  0  0
M  CHG  1  77   1
M  ISO  4  38 100  62 101  76 100  84 101
M  END
> <Batch ID>
0140

> <Smiles>
CCOc1cc(C2CC2[101CH2:1][101O:1]c2ccc3c(c2)CN(C(=O)C(NC(=O)C(C)NC)C(C)(C)C)C(C(=O)NC2CCCc4ccccc42)C3)c(C)cc1CC[100NH:0][100C:0](=O)N1CCCC(n2nc(-c3ccc(Oc4ccc(F)cc4F)cc3)c(C(N)=O)c2N)C1

> <Shape>
0.287

> <Color>
0.212

> <Negative vol penalty>
0.000

$$$$

  -OEChem-04052321133D

 89 98  0     1  0  0  0  0  0999 V2000
  -30.6662  -25.7510   17.5920 C   0  0  0  0  0  0  0  0  0  0  0  0
  -29.2809  -25.6733   17.6932 C   0  0  0  0  0  0  0  0  0  0  0  0
  -23.3716  -14.0447   20.4219 C   0  0  0  0  0  0  0  0  0  0  0  0
  -25.2560  -15.0773   21.5263 C   0  0  0  0  0  0  0  0  0  0  0  0
  -31.4103  -26.3035   18.6337 C   0  0  0  0  0  0  0  0  0  0  0  0
  -28.6389  -26.1472   18.8368 C   0  0  0  0  0  0  0  0  0  0  0  0
  -23.1530  -28.8543   19.1241 C   0  0  0  0  0  0  0  0  0  0  0  0
  -24.1265  -12.8906   20.2128 C   0  0  0  0  0  0  0  0  0  0  0  0
  -26.0110  -13.9232   21.3172 C   0  0  0  0  0  0  0  0  0  0  0  0
  -21.8855  -28.3733   19.4495 C   0  0  0  0  0  0  0  0  0  0  0  0
  -27.7148  -12.4876   18.7741 C   0  0  0  0  0  0  0  0  0  0  0  0
  -29.0205  -12.6428   18.3089 C   0  0  0  0  0  0  0  0  0  0  0  0
  -22.1820  -29.1432   21.7164 C   0  0  0  0  0  0  0  0  0  0  0  0
  -18.2419  -22.1259   24.1299 C   0  0  0  0  0  0  0  0  0  0  0  0
  -17.7425  -24.1176   22.8569 C   0  0  0  0  0  0  0  0  0  0  0  0
  -29.8571  -11.5385   20.2882 C   0  0  0  0  0  0  0  0  0  0  0  0
  -23.9363  -15.1381   21.0787 C   0  0  0  0  0  0  0  0  0  0  0  0
  -22.3446  -16.6258   22.4056 C   0  0  0  0  0  0  0  0  0  0  0  0
  -30.7762  -26.7932   19.7865 C   0  0  0  0  0  0  0  0  0  0  0  0
  -23.9502  -29.4747   20.0968 C   0  0  0  0  0  0  0  0  0  0  0  0
  -29.3752  -26.7055   19.8954 C   0  0  0  0  0  0  0  0  0  0  0  0
  -23.4582  -29.6335   21.4002 C   0  0  0  0  0  0  0  0  0  0  0  0
  -19.9859  -23.7324   23.6666 C   0  0  0  0  0  0  0  0  0  0  0  0
  -17.3276  -22.9182   23.4357 C   0  0  0  0  0  0  0  0  0  0  0  0
  -19.5711  -22.5330   24.2454 C   0  0  0  0  0  0  0  0  0  0  0  0
  -25.4462  -12.8299   20.6604 C   0  0  0  0  0  0  0  0  0  0  0  0
  -21.4010  -28.5151   20.7465 C   0  0  0  0  0  0  0  0  0  0  0  0
  -27.4801  -11.8579   19.9965 C   0  0  0  0  0  0  0  0  0  0  0  0
  -19.0716  -24.5247   22.9723 C   0  0  0  0  0  0  0  0  0  0  0  0
  -30.0917  -12.1683   19.0659 C   0  0  0  0  0  0  0  0  0  0  0  0
  -28.5513  -11.3833   20.7535 C   0  0  0  0  0  0  0  0  0  0  0  0
  -23.1571  -16.3307   21.2945 C   0  0  0  0  0  0  0  0  0  0  0  0
  -21.8258  -17.8676   22.1314 C   0  0  0  0  0  0  0  0  0  0  0  0
  -22.0822  -15.8470   23.5805 C   0  0  0  0  0  0  0  0  0  0  0  0
  -26.7778  -28.8537   21.4093 C   0  0  0  0  0  0  0  0  0  0  0  0
  -26.3182  -31.7367   22.8233 C   0  0  0  0  0  0  0  0  0  0  0  0
  -24.1257  -34.1323   23.8725 C   0  0  0  0  0  0  0  0  0  0  0  0
  -22.4494  -23.1137   20.3328 C   0  0  0  0  0  0  0  0  0  0  0  0
  -31.6264  -27.3386   20.9064 C   0  0  0  0  0  0  0  0  0  0  0  0
  -25.3045  -30.0121   19.7231 C   0  0  0  0  0  0  0  0  0  0  0  0
  -24.2664  -30.3102   22.4760 C   0  0  0  0  0  0  0  0  0  0  0  0
  -30.8392  -28.1598   21.9243 C   0  0  0  0  0  0  0  0  0  0  0  0
  -21.8962  -20.5985   17.8742 C   0  0  0  0  0  0  0  0  0  0  0  0
  -29.5584  -27.4326   22.3210 C   0  0  0  0  0  0  0  0  0  0  0  0
  -22.8937  -26.0960   23.9514 C   0  0  0  0  0  0  0  0  0  0  0  0
  -22.1140  -19.2893   18.6349 C   0  0  0  0  0  0  0  0  0  0  0  0
  -23.2998  -25.2262   22.7592 C   0  0  0  0  0  0  0  0  0  0  0  0
  -22.8535  -21.6910   18.3455 C   0  0  0  0  0  0  0  0  0  0  0  0
  -23.0607  -20.6295   20.5601 C   0  0  0  0  0  0  0  0  0  0  0  0
  -21.4099  -24.1732   23.7865 C   0  0  2  0  0  0  0  0  0  0  0  0
  -28.6403  -27.2314   21.1093 C   0  0  1  0  0  0  0  0  0  0  0  0
  -26.2368  -30.1675   20.9205 C   0  0  1  0  0  0  0  0  0  0  0  0
  -21.5375  -25.5619   24.4430 C   0  0  1  0  0  0  0  0  0  0  0  0
  -22.0807  -19.5139   20.1586 C   0  0  2  0  0  0  0  0  0  0  0  0
  -22.0606  -24.4052   22.4161 C   0  0  2  0  0  0  0  0  0  0  0  0
  -15.9063  -22.4833   23.3136 C   0  0  0  0  0  0  0  0  0  0  0  0
  -20.5302  -21.6674   24.9951 C   0  0  0  0  0  0  0  0  0  0  0  0
  -21.6228  -26.8791   26.5658 C   0  0  0  0  0  0  0  0  0  0  0  0
  -24.0449  -36.3587   25.0276 C   0  0  0  0  0  0  0  0  0  0  0  0
  -26.8188  -30.3627   25.5013 C   0  0  0  0  0  0  0  0  0  0  0  0
  -25.8089  -32.3546   26.6330 C   0  0  0  0  0  0  0  0  0  0  0  0
  -27.8815  -32.6147   25.2694 C   0  0  0  0  0  0  0  0  0  0  0  0
  -22.9008  -35.4402   21.5171 C   0  0  0  0  0  0  0  0  0  0  0  0
  -21.4426  -25.5230   25.9627 C   0  0  0  0  0  0  0  0  0  0  0  0
  -19.6920  -26.9117   20.3413 C   0  0  0  0  0  0  0  0  0  1  0  0
  -18.7584  -26.1103   21.2277 C   0  0  0  0  0  0  0  0  0  0  0  0
  -25.6745  -32.2084   24.1048 C   0  0  1  0  0  0  0  0  0  0  0  0
  -24.1169  -35.6393   23.6897 C   0  0  2  0  0  0  0  0  0  0  0  0
  -26.5312  -31.8706   25.3576 C   0  0  0  0  0  0  0  0  0  0  0  0
  -23.1576  -17.3065   20.3824 N   0  0  0  0  0  0  0  0  0  0  0  0
  -22.3389  -18.2268   20.9199 N   0  0  0  0  0  0  0  0  0  0  0  0
  -25.5869  -30.8132   22.0629 N   0  0  0  0  0  0  0  0  0  0  0  0
  -22.7719  -21.8551   19.7989 N   0  0  0  0  0  0  0  0  0  0  0  0
  -20.9853  -18.6765   22.8109 N   0  0  0  0  0  0  0  0  0  0  0  0
  -22.6970  -14.5933   23.7021 N   0  0  0  0  0  0  0  0  0  0  0  0
  -27.9489  -28.4618   20.7892 N   0  0  0  0  0  0  0  0  0  0  0  0
  -25.4094  -33.6321   23.9285 N   0  0  0  0  0  0  0  0  0  0  0  0
  -22.3867  -23.1809   21.7192 N   0  0  0  0  0  0  0  0  0  0  0  0
  -22.9444  -36.0547   22.8690 N   0  3  0  0  0  0  0  0  0  0  0  0
  -21.3122  -16.2437   24.4877 O   0  0  0  0  0  0  0  0  0  0  0  0
  -26.1780  -28.2416   22.2852 O   0  0  0  0  0  0  0  0  0  0  0  0
  -27.4256  -32.1769   22.5051 O   0  0  0  0  0  0  0  0  0  0  0  0
  -23.0967  -33.4661   23.9609 O   0  0  0  0  0  0  0  0  0  0  0  0
  -22.2282  -24.1029   19.6260 O   0  0  0  0  0  0  0  0  0  0  0  0
  -26.1831  -11.7038   20.4567 O   0  0  0  0  0  0  0  0  0  0  0  0
  -20.1645  -28.0459   21.0670 O   0  0  0  0  0  0  0  0  0  1  0  0
  -19.4610  -25.7052   22.3963 O   0  0  0  0  0  0  0  0  0  0  0  0
  -31.3454  -12.3161   18.6182 F   0  0  0  0  0  0  0  0  0  0  0  0
  -28.3321  -10.7765   21.9280 F   0  0  0  0  0  0  0  0  0  0  0  0
  1  2  1  0  0  0  0
  1  5  2  0  0  0  0
  2  6  2  0  0  0  0
  3  8  2  0  0  0  0
  3 17  1  0  0  0  0
  4  9  1  0  0  0  0
  4 17  2  0  0  0  0
  5 19  1  0  0  0  0
  6 21  1  0  0  0  0
  7 10  2  0  0  0  0
  7 20  1  0  0  0  0
  8 26  1  0  0  0  0
  9 26  2  0  0  0  0
 10 27  1  0  0  0  0
 11 12  2  0  0  0  0
 11 28  1  0  0  0  0
 12 30  1  0  0  0  0
 13 22  1  0  0  0  0
 13 27  2  0  0  0  0
 14 24  1  0  0  0  0
 14 25  2  0  0  0  0
 15 24  2  0  0  0  0
 15 29  1  0  0  0  0
 16 30  2  0  0  0  0
 16 31  1  0  0  0  0
 17 32  1  0  0  0  0
 18 32  1  0  0  0  0
 18 33  2  0  0  0  0
 18 34  1  0  0  0  0
 19 21  2  0  0  0  0
 19 39  1  0  0  0  0
 20 22  2  0  0  0  0
 20 40  1  0  0  0  0
 21 51  1  0  0  0  0
 22 41  1  0  0  0  0
 23 25  1  0  0  0  0
 23 29  2  0  0  0  0
 23 50  1  0  0  0  0
 24 56  1  0  0  0  0
 25 57  1  0  0  0  0
 26 85  1  0  0  0  0
 27 86  1  0  0  0  0
 28 31  2  0  0  0  0
 28 85  1  0  0  0  0
 29 87  1  0  0  0  0
 30 88  1  0  0  0  0
 31 89  1  0  0  0  0
 32 70  2  0  0  0  0
 33 71  1  0  0  0  0
 33 74  1  0  0  0  0
 34 75  1  0  0  0  0
 34 80  2  0  0  0  0
 35 52  1  0  0  0  0
 35 76  1  0  0  0  0
 35 81  2  0  0  0  0
 36 67  1  0  0  0  0
 36 72  1  0  0  0  0
 36 82  2  0  0  0  0
 37 68  1  0  0  0  0
 37 77  1  0  0  0  0
 37 83  2  0  0  0  0
 38 73  1  0  0  0  0
 38 78  1  0  0  0  0
 38 84  2  0  0  0  0
 39 42  1  0  0  0  0
 40 52  1  0  0  0  0
 41 72  1  0  0  0  0
 42 44  1  0  0  0  0
 43 46  1  0  0  0  0
 43 48  1  0  0  0  0
 44 51  1  0  0  0  0
 45 47  1  0  0  0  0
 45 53  1  0  0  0  0
 46 54  1  0  0  0  0
 47 55  1  0  0  0  0
 48 73  1  0  0  0  0
 49 54  1  0  0  0  0
 49 73  1  0  0  0  0
 50 53  1  0  0  0  0
 50 55  1  0  0  0  0
 51 76  1  0  0  0  0
 52 72  1  0  0  0  0
 53 64  1  0  0  0  0
 54 71  1  0  0  0  0
 55 78  1  0  0  0  0
 58 64  1  0  0  0  0
 59 68  1  0  0  0  0
 60 69  1  0  0  0  0
 61 69  1  0  0  0  0
 62 69  1  0  0  0  0
 63 79  1  0  0  0  0
 65 66  1  0  0  0  0
 65 86  1  0  0  0  0
 66 87  1  0  0  0  0
 67 69  1  0  0  0  0
 67 77  1  0  0  0  0
 68 79  1  0  0  0  0
 70 71  1  0  0  0  0
M  CHG  1  79   1
M  ISO  4  38 100  65 101  78 100  86 101
M  END
> <Batch ID>
0140

> <Smiles>
CCC1CCC([100NH:0][100C:0](=O)N2CCCC(n3nc(-c4ccc(Oc5ccc(F)cc5F)cc4)c(C(N)=O)c3N)C2)C1c1c(C)cc(C)cc1OC[101CH2:1][101O:1]c1ccc2c(c1)CN(C(=O)C(NC(=O)C(C)NC)C(C)(C)C)C(C(=O)NC1CCCc3ccccc31)C2

> <Shape>
0.277

> <Color>
0.082

> <Negative vol penalty>
0.000

$$$$

  -OEChem-04052321133D

 82 90  0     1  0  0  0  0  0999 V2000
  -19.1488  -28.6235   19.0673 C   0  0  0  0  0  0  0  0  0  0  0  0
  -20.5323  -28.7027   19.1899 C   0  0  0  0  0  0  0  0  0  0  0  0
  -26.7707  -15.1522   21.4758 C   0  0  0  0  0  0  0  0  0  0  0  0
  -28.1069  -14.4151   19.6028 C   0  0  0  0  0  0  0  0  0  0  0  0
  -18.3824  -28.1436   20.1285 C   0  0  0  0  0  0  0  0  0  0  0  0
  -21.1502  -28.3030   20.3743 C   0  0  0  0  0  0  0  0  0  0  0  0
  -25.2566  -25.4541   19.5581 C   0  0  0  0  0  0  0  0  0  0  0  0
  -26.1184  -13.9195   21.4956 C   0  0  0  0  0  0  0  0  0  0  0  0
  -27.4546  -13.1823   19.6226 C   0  0  0  0  0  0  0  0  0  0  0  0
  -26.4248  -26.1145   19.1800 C   0  0  0  0  0  0  0  0  0  0  0  0
  -23.6554  -12.3772   19.7694 C   0  0  0  0  0  0  0  0  0  0  0  0
  -22.2670  -12.3816   19.9032 C   0  0  0  0  0  0  0  0  0  0  0  0
  -27.2319  -25.9730   21.4489 C   0  0  0  0  0  0  0  0  0  0  0  0
  -30.3171  -26.6322   18.1994 C   0  0  0  0  0  0  0  0  0  0  0  0
  -22.4594  -11.1000   21.9422 C   0  0  0  0  0  0  0  0  0  0  0  0
  -30.9598  -24.4088   19.6445 C   0  0  0  0  0  0  0  0  0  0  0  0
  -27.7649  -15.4001   20.5293 C   0  0  0  0  0  0  0  0  0  0  0  0
  -29.6101  -17.0272   21.2042 C   0  0  0  0  0  0  0  0  0  0  0  0
  -18.9920  -27.7288   21.3231 C   0  0  0  0  0  0  0  0  0  0  0  0
  -25.0622  -25.0572   20.8890 C   0  0  0  0  0  0  0  0  0  0  0  0
  -20.3911  -27.8184   21.4531 C   0  0  0  0  0  0  0  0  0  0  0  0
  -26.0615  -25.3055   21.8408 C   0  0  0  0  0  0  0  0  0  0  0  0
  -31.3855  -25.8403   17.7936 C   0  0  0  0  0  0  0  0  0  0  0  0
  -31.7199  -24.7058   18.5249 C   0  0  0  0  0  0  0  0  0  0  0  0
  -26.4603  -12.9345   20.5690 C   0  0  0  0  0  0  0  0  0  0  0  0
  -27.4114  -26.3766   20.1260 C   0  0  0  0  0  0  0  0  0  0  0  0
  -24.4459  -11.7342   20.7220 C   0  0  0  0  0  0  0  0  0  0  0  0
  -21.6690  -11.7431   20.9896 C   0  0  0  0  0  0  0  0  0  0  0  0
  -23.8479  -11.0956   21.8084 C   0  0  0  0  0  0  0  0  0  0  0  0
  -28.4388  -16.6735   20.5080 C   0  0  0  0  0  0  0  0  0  0  0  0
  -29.6203  -26.2495   19.3342 C   0  0  0  0  0  0  0  0  0  1  0  0
  -29.8378  -18.3348   20.8510 C   0  0  0  0  0  0  0  0  0  0  0  0
  -30.4200  -16.2438   22.0908 C   0  0  0  0  0  0  0  0  0  0  0  0
  -22.9487  -25.7655   23.1551 C   0  0  0  0  0  0  0  0  0  0  0  0
  -24.5017  -23.4323   24.7881 C   0  0  0  0  0  0  0  0  0  0  0  0
  -27.3568  -21.6167   25.2338 C   0  0  0  0  0  0  0  0  0  0  0  0
  -30.0978  -22.3595   16.9935 C   0  0  0  0  0  0  0  0  0  0  0  0
  -18.1180  -27.2616   22.4599 C   0  0  0  0  0  0  0  0  0  0  0  0
  -23.8081  -24.3221   21.2752 C   0  0  0  0  0  0  0  0  0  0  0  0
  -25.9102  -24.8820   23.2782 C   0  0  0  0  0  0  0  0  0  0  0  0
  -18.8817  -26.5065   23.5448 C   0  0  0  0  0  0  0  0  0  0  0  0
  -26.9030  -21.6394   18.3906 C   0  0  0  0  0  0  0  0  0  0  0  0
  -20.1583  -27.2536   23.9173 C   0  0  0  0  0  0  0  0  0  0  0  0
  -27.1130  -20.3100   19.1177 C   0  0  0  0  0  0  0  0  0  0  0  0
  -27.7099  -21.7081   17.0959 C   0  0  0  0  0  0  0  0  0  0  0  0
  -29.3608  -20.1038   17.9760 C   0  0  0  0  0  0  0  0  0  0  0  0
  -21.1002  -27.3712   22.7129 C   0  0  1  0  0  0  0  0  0  0  0  0
  -23.4925  -24.4204   22.7645 C   0  0  1  0  0  0  0  0  0  0  0  0
  -28.6109  -20.0097   19.3158 C   0  0  2  0  0  0  0  0  0  0  0  0
  -32.8496  -27.5914   16.7242 C   0  0  0  0  0  0  0  0  0  0  0  0
  -31.2889  -26.2136   15.3025 C   0  0  0  0  0  0  0  0  0  0  0  0
  -28.8639  -19.8379   26.1622 C   0  0  0  0  0  0  0  0  0  0  0  0
  -24.8703  -25.4388   27.0570 C   0  0  0  0  0  0  0  0  0  0  0  0
  -26.6238  -23.9295   28.0136 C   0  0  0  0  0  0  0  0  0  0  0  0
  -24.2722  -23.1259   27.7967 C   0  0  0  0  0  0  0  0  0  0  0  0
  -26.5004  -19.6591   23.1860 C   0  0  0  0  0  0  0  0  0  0  0  0
  -32.8536  -23.8222   18.1346 C   0  0  0  0  0  0  0  0  0  0  0  0
  -32.5253  -22.8752   16.9731 C   0  0  0  0  0  0  0  0  0  0  0  0
  -32.1568  -26.2243   16.5746 C   0  0  0  0  0  0  0  0  0  0  0  0
  -25.6891  -23.3880   25.7192 C   0  0  1  0  0  0  0  0  0  0  0  0
  -27.5878  -20.1240   25.3860 C   0  0  2  0  0  0  0  0  0  0  0  0
  -25.3662  -23.9804   27.1200 C   0  0  0  0  0  0  0  0  0  0  0  0
  -29.9150  -25.1540   20.0697 N   0  0  0  0  0  0  0  0  0  0  0  0
  -27.9559  -17.6756   19.7686 N   0  0  0  0  0  0  0  0  0  0  0  0
  -28.8281  -18.6718   19.9982 N   0  0  0  0  0  0  0  0  0  0  0  0
  -24.6634  -24.1719   23.6080 N   0  0  0  0  0  0  0  0  0  0  0  0
  -29.1220  -21.4153   17.3532 N   0  0  0  0  0  0  0  0  0  0  0  0
  -30.8011  -19.2178   21.1898 N   0  0  0  0  0  0  0  0  0  0  0  0
  -30.0427  -14.9180   22.3444 N   0  0  0  0  0  0  0  0  0  0  0  0
  -21.7916  -26.1199   22.4881 N   0  0  0  0  0  0  0  0  0  0  0  0
  -26.1351  -21.9992   25.7462 N   0  0  0  0  0  0  0  0  0  0  0  0
  -31.4110  -22.0057   17.2782 N   0  0  0  0  0  0  0  0  0  0  0  0
  -27.6969  -19.4777   24.0476 N   0  3  0  0  0  0  0  0  0  0  0  0
  -31.4385  -16.7108   22.6547 O   0  0  0  0  0  0  0  0  0  0  0  0
  -23.5347  -26.4319   24.0002 O   0  0  0  0  0  0  0  0  0  0  0  0
  -23.4711  -22.8269   25.0931 O   0  0  0  0  0  0  0  0  0  0  0  0
  -28.1794  -22.3686   24.7159 O   0  0  0  0  0  0  0  0  0  0  0  0
  -29.8188  -23.4401   16.4632 O   0  0  0  0  0  0  0  0  0  0  0  0
  -25.8242  -11.7314   20.5882 O   0  0  0  0  0  0  0  0  0  0  0  0
  -28.5523  -27.0216   19.7598 O   0  0  0  0  0  0  0  0  0  1  0  0
  -20.3358  -11.7487   21.1188 F   0  0  0  0  0  0  0  0  0  0  0  0
  -24.6021  -10.4772   22.7274 F   0  0  0  0  0  0  0  0  0  0  0  0
  1  2  1  0  0  0  0
  1  5  2  0  0  0  0
  2  6  2  0  0  0  0
  3  8  2  0  0  0  0
  3 17  1  0  0  0  0
  4  9  1  0  0  0  0
  4 17  2  0  0  0  0
  5 19  1  0  0  0  0
  6 21  1  0  0  0  0
  7 10  2  0  0  0  0
  7 20  1  0  0  0  0
  8 25  1  0  0  0  0
  9 25  2  0  0  0  0
 10 26  1  0  0  0  0
 11 12  2  0  0  0  0
 11 27  1  0  0  0  0
 12 28  1  0  0  0  0
 13 22  1  0  0  0  0
 13 26  2  0  0  0  0
 14 23  2  0  0  0  0
 14 31  1  0  0  0  0
 15 28  2  0  0  0  0
 15 29  1  0  0  0  0
 16 24  2  0  0  0  0
 16 63  1  0  0  0  0
 17 30  1  0  0  0  0
 18 30  1  0  0  0  0
 18 32  2  0  0  0  0
 18 33  1  0  0  0  0
 19 21  2  0  0  0  0
 19 38  1  0  0  0  0
 20 22  2  0  0  0  0
 20 39  1  0  0  0  0
 21 47  1  0  0  0  0
 22 40  1  0  0  0  0
 23 24  1  0  0  0  0
 23 59  1  0  0  0  0
 24 57  1  0  0  0  0
 25 79  1  0  0  0  0
 26 80  1  0  0  0  0
 27 29  2  0  0  0  0
 27 79  1  0  0  0  0
 28 81  1  0  0  0  0
 29 82  1  0  0  0  0
 30 64  2  0  0  0  0
 31 63  2  0  0  0  0
 31 80  1  0  0  0  0
 32 65  1  0  0  0  0
 32 68  1  0  0  0  0
 33 69  1  0  0  0  0
 33 74  2  0  0  0  0
 34 48  1  0  0  0  0
 34 70  1  0  0  0  0
 34 75  2  0  0  0  0
 35 60  1  0  0  0  0
 35 66  1  0  0  0  0
 35 76  2  0  0  0  0
 36 61  1  0  0  0  0
 36 71  1  0  0  0  0
 36 77  2  0  0  0  0
 37 67  1  0  0  0  0
 37 72  1  0  0  0  0
 37 78  2  0  0  0  0
 38 41  1  0  0  0  0
 39 48  1  0  0  0  0
 40 66  1  0  0  0  0
 41 43  1  0  0  0  0
 42 44  1  0  0  0  0
 42 45  1  0  0  0  0
 43 47  1  0  0  0  0
 44 49  1  0  0  0  0
 45 67  1  0  0  0  0
 46 49  1  0  0  0  0
 46 67  1  0  0  0  0
 47 70  1  0  0  0  0
 48 66  1  0  0  0  0
 49 65  1  0  0  0  0
 50 59  1  0  0  0  0
 51 59  1  0  0  0  0
 52 61  1  0  0  0  0
 53 62  1  0  0  0  0
 54 62  1  0  0  0  0
 55 62  1  0  0  0  0
 56 73  1  0  0  0  0
 57 58  1  0  0  0  0
 58 72  1  0  0  0  0
 60 62  1  0  0  0  0
 60 71  1  0  0  0  0
 61 73  1  0  0  0  0
 64 65  1  0  0  0  0
M  CHG  1  73   1
M  ISO  4  31 101  37 100  72 100  80 101
M  END
> <Batch ID>
0140

> <Smiles>
CNC(C)C(=O)NC(C(=O)N1Cc2cc([101O:1][101c:1]3cc(C(C)C)c(CC[100NH:0][100C:0](=O)N4CCCC(n5nc(-c6ccc(Oc7ccc(F)cc7F)cc6)c(C(N)=O)c5N)C4)cn3)ccc2CC1C(=O)NC1CCCc2ccccc21)C(C)(C)C

> <Shape>
0.212

> <Color>
0.058

> <Negative vol penalty>
0.000

$$$$

  -OEChem-04052321133D

 89 99  0     1  0  0  0  0  0999 V2000
  -33.2476   -9.3189   20.2294 C   0  0  0  0  0  0  0  0  0  0  0  0
  -33.2603  -10.6825   20.5047 C   0  0  0  0  0  0  0  0  0  0  0  0
  -24.8684  -31.4887   21.6127 C   0  0  0  0  0  0  0  0  0  0  0  0
  -27.2376  -31.2393   21.2102 C   0  0  0  0  0  0  0  0  0  0  0  0
  -32.2527   -8.7831   19.4128 C   0  0  0  0  0  0  0  0  0  0  0  0
  -32.2786  -11.5113   19.9627 C   0  0  0  0  0  0  0  0  0  0  0  0
  -28.5092  -17.4168   21.4571 C   0  0  0  0  0  0  0  0  0  0  0  0
  -25.0652  -32.8303   21.9397 C   0  0  0  0  0  0  0  0  0  0  0  0
  -27.4344  -32.5809   21.5372 C   0  0  0  0  0  0  0  0  0  0  0  0
  -28.1846  -18.6556   20.9059 C   0  0  0  0  0  0  0  0  0  0  0  0
  -26.1594  -34.6117   24.5956 C   0  0  0  0  0  0  0  0  0  0  0  0
  -25.5137  -35.1029   25.7302 C   0  0  0  0  0  0  0  0  0  0  0  0
  -26.4692  -17.6065   19.5733 C   0  0  0  0  0  0  0  0  0  0  0  0
  -24.3474  -36.7205   24.3662 C   0  0  0  0  0  0  0  0  0  0  0  0
  -30.8745  -24.8196   19.1344 C   0  0  0  0  0  0  0  0  0  0  0  0
  -25.9546  -30.6931   21.2480 C   0  0  0  0  0  0  0  0  0  0  0  0
  -29.7124  -25.6346   17.2260 C   0  0  0  0  0  0  0  0  0  0  0  0
  -25.2148  -28.3010   21.7360 C   0  0  0  0  0  0  0  0  0  0  0  0
  -31.2526   -9.6041   18.8684 C   0  0  0  0  0  0  0  0  0  0  0  0
  -27.8224  -16.2599   21.0618 C   0  0  0  0  0  0  0  0  0  0  0  0
  -31.2701  -10.9861   19.1370 C   0  0  0  0  0  0  0  0  0  0  0  0
  -26.7852  -16.3546   20.1229 C   0  0  0  0  0  0  0  0  0  0  0  0
  -29.8040  -24.7111   18.2615 C   0  0  0  0  0  0  0  0  0  0  0  0
  -30.6806  -26.6244   17.0970 C   0  0  0  0  0  0  0  0  0  0  0  0
  -26.3481  -33.3765   21.9019 C   0  0  0  0  0  0  0  0  0  0  0  0
  -27.1664  -18.7501   19.9617 C   0  0  0  0  0  0  0  0  0  0  0  0
  -25.8992  -35.1749   23.3463 C   0  0  0  0  0  0  0  0  0  0  0  0
  -24.6077  -36.1573   25.6155 C   0  0  0  0  0  0  0  0  0  0  0  0
  -24.9932  -36.2293   23.2316 C   0  0  0  0  0  0  0  0  0  0  0  0
  -25.7521  -29.3070   20.9107 C   0  0  0  0  0  0  0  0  0  0  0  0
  -31.7119  -26.6474   18.0221 C   0  0  0  0  0  0  0  0  0  0  0  0
  -25.2336  -27.1707   20.9560 C   0  0  0  0  0  0  0  0  0  0  0  0
  -28.5956  -25.5621   16.2751 C   0  0  0  0  0  0  0  0  0  0  0  0
  -24.7410  -28.3812   23.0869 C   0  0  0  0  0  0  0  0  0  0  0  0
  -28.6454  -13.5372   19.6430 C   0  0  0  0  0  0  0  0  0  0  0  0
  -25.5665  -12.7323   20.2714 C   0  0  0  0  0  0  0  0  0  0  0  0
  -22.3722  -13.7604   20.8930 C   0  0  0  0  0  0  0  0  0  0  0  0
  -30.2252   -8.9868   17.9529 C   0  0  0  0  0  0  0  0  0  0  0  0
  -28.1666  -14.9352   21.6855 C   0  0  0  0  0  0  0  0  0  0  0  0
  -26.0038  -15.1456   19.6798 C   0  0  0  0  0  0  0  0  0  0  0  0
  -29.0041   -9.8733   17.7222 C   0  0  0  0  0  0  0  0  0  0  0  0
  -25.0332  -25.7580   16.3876 C   0  0  0  0  0  0  0  0  0  0  0  0
  -28.5842  -23.2622   19.9420 C   0  0  0  0  0  0  0  0  0  0  0  0
  -29.1315  -22.3514   17.6376 C   0  0  0  0  0  0  0  0  0  0  0  0
  -29.4337  -11.3039   17.4129 C   0  0  0  0  0  0  0  0  0  0  0  0
  -24.7614  -26.6126   17.6269 C   0  0  0  0  0  0  0  0  0  0  0  0
  -27.5471  -22.1571   20.1253 C   0  0  0  0  0  0  0  0  0  0  0  0
  -28.0912  -21.2516   17.8328 C   0  0  0  0  0  0  0  0  0  0  0  0
  -34.0728  -29.1312   17.6874 C   0  0  0  0  0  0  0  0  0  0  0  0
  -26.2930  -26.2125   15.6548 C   0  0  0  0  0  0  0  0  0  0  0  0
  -33.1042  -28.6785   18.7846 C   0  0  0  0  0  0  0  0  0  0  0  0
  -33.7932  -27.7848   17.0118 C   0  0  0  0  0  0  0  0  0  0  0  0
  -27.2333  -27.1384   17.7437 C   0  0  0  0  0  0  0  0  0  0  0  0
  -28.7802  -23.6074   18.4549 C   0  0  0  0  0  0  0  0  0  0  0  0
  -30.2079  -11.9136   18.5878 C   0  0  1  0  0  0  0  0  0  0  0  0
  -27.7468  -13.7445   20.8292 C   0  0  1  0  0  0  0  0  0  0  0  0
  -26.0000  -26.6810   18.5398 C   0  0  1  0  0  0  0  0  0  0  0  0
  -27.8967  -20.9141   19.3091 C   0  0  0  0  0  0  0  0  0  1  0  0
  -29.3385  -28.5014   16.0824 C   0  0  0  0  0  0  0  0  0  0  0  0
  -30.6974  -26.9797   14.6015 C   0  0  0  0  0  0  0  0  0  0  0  0
  -20.0662  -12.8714   21.3283 C   0  0  0  0  0  0  0  0  0  0  0  0
  -25.2687  -12.0613   17.3098 C   0  0  0  0  0  0  0  0  0  0  0  0
  -22.7849  -12.1060   17.6209 C   0  0  0  0  0  0  0  0  0  0  0  0
  -24.1659  -10.4406   18.8627 C   0  0  0  0  0  0  0  0  0  0  0  0
  -22.2553  -15.0422   23.5579 C   0  0  0  0  0  0  0  0  0  0  0  0
  -30.6040  -27.6293   15.9941 C   0  0  0  0  0  0  0  0  0  0  0  0
  -24.2536  -12.8748   19.5400 C   0  0  1  0  0  0  0  0  0  0  0  0
  -21.3688  -13.3453   21.9538 C   0  0  2  0  0  0  0  0  0  0  0  0
  -24.1341  -11.8933   18.3400 C   0  0  0  0  0  0  0  0  0  0  0  0
  -31.8342  -25.7673   19.0412 N   0  0  0  0  0  0  0  0  0  0  0  0
  -26.0878  -28.8555   19.6994 N   0  0  0  0  0  0  0  0  0  0  0  0
  -25.7608  -27.5533   19.7578 N   0  0  0  0  0  0  0  0  0  0  0  0
  -32.6902  -27.6436   17.8999 N   0  0  0  0  0  0  0  0  0  0  0  0
  -27.4309  -26.2742   16.5714 N   0  0  0  0  0  0  0  0  0  0  0  0
  -26.3821  -13.8720   20.3140 N   0  0  0  0  0  0  0  0  0  0  0  0
  -24.8505  -25.8966   21.1852 N   0  0  0  0  0  0  0  0  0  0  0  0
  -25.6505  -28.1530   24.1285 N   0  0  0  0  0  0  0  0  0  0  0  0
  -29.2974  -12.3189   19.6371 N   0  0  0  0  0  0  0  0  0  0  0  0
  -23.2075  -12.7200   20.5450 N   0  0  0  0  0  0  0  0  0  0  0  0
  -21.0667  -14.4910   22.8576 N   0  3  0  0  0  0  0  0  0  0  0  0
  -28.7725  -24.8585   15.2817 O   0  0  0  0  0  0  0  0  0  0  0  0
  -23.5429  -28.6311   23.3617 O   0  0  0  0  0  0  0  0  0  0  0  0
  -28.7390  -14.4168   18.7949 O   0  0  0  0  0  0  0  0  0  0  0  0
  -25.8545  -11.6517   20.7920 O   0  0  0  0  0  0  0  0  0  0  0  0
  -22.4087  -14.8932   20.4176 O   0  0  0  0  0  0  0  0  0  0  0  0
  -26.5405  -34.6856   22.2207 O   0  0  0  0  0  0  0  0  0  0  0  0
  -26.8480  -19.9580   19.4217 O   0  0  0  0  0  0  0  0  0  1  0  0
  -23.9865  -36.6279   26.7050 F   0  0  0  0  0  0  0  0  0  0  0  0
  -24.7383  -36.7736   22.0339 F   0  0  0  0  0  0  0  0  0  0  0  0
  1  2  1  0  0  0  0
  1  5  2  0  0  0  0
  2  6  2  0  0  0  0
  3  8  2  0  0  0  0
  3 16  1  0  0  0  0
  4  9  1  0  0  0  0
  4 16  2  0  0  0  0
  5 19  1  0  0  0  0
  6 21  1  0  0  0  0
  7 10  2  0  0  0  0
  7 20  1  0  0  0  0
  8 25  1  0  0  0  0
  9 25  2  0  0  0  0
 10 26  1  0  0  0  0
 11 12  2  0  0  0  0
 11 27  1  0  0  0  0
 12 28  1  0  0  0  0
 13 22  1  0  0  0  0
 13 26  2  0  0  0  0
 14 28  2  0  0  0  0
 14 29  1  0  0  0  0
 15 23  1  0  0  0  0
 15 70  2  0  0  0  0
 16 30  1  0  0  0  0
 17 23  2  0  0  0  0
 17 24  1  0  0  0  0
 17 33  1  0  0  0  0
 18 30  1  0  0  0  0
 18 32  2  0  0  0  0
 18 34  1  0  0  0  0
 19 21  2  0  0  0  0
 19 38  1  0  0  0  0
 20 22  2  0  0  0  0
 20 39  1  0  0  0  0
 21 55  1  0  0  0  0
 22 40  1  0  0  0  0
 23 54  1  0  0  0  0
 24 31  2  0  0  0  0
 24 66  1  0  0  0  0
 25 86  1  0  0  0  0
 26 87  1  0  0  0  0
 27 29  2  0  0  0  0
 27 86  1  0  0  0  0
 28 88  1  0  0  0  0
 29 89  1  0  0  0  0
 30 71  2  0  0  0  0
 31 70  1  0  0  0  0
 31 73  1  0  0  0  0
 32 72  1  0  0  0  0
 32 76  1  0  0  0  0
 33 74  1  0  0  0  0
 33 81  2  0  0  0  0
 34 77  1  0  0  0  0
 34 82  2  0  0  0  0
 35 56  1  0  0  0  0
 35 78  1  0  0  0  0
 35 83  2  0  0  0  0
 36 67  1  0  0  0  0
 36 75  1  0  0  0  0
 36 84  2  0  0  0  0
 37 68  1  0  0  0  0
 37 79  1  0  0  0  0
 37 85  2  0  0  0  0
 38 41  1  0  0  0  0
 39 56  1  0  0  0  0
 40 75  1  0  0  0  0
 41 45  1  0  0  0  0
 42 46  1  0  0  0  0
 42 50  1  0  0  0  0
 43 47  1  0  0  0  0
 43 54  1  0  0  0  0
 44 48  1  0  0  0  0
 44 54  1  0  0  0  0
 45 55  1  0  0  0  0
 46 57  1  0  0  0  0
 47 58  1  0  0  0  0
 48 58  1  0  0  0  0
 49 51  1  0  0  0  0
 49 52  1  0  0  0  0
 50 74  1  0  0  0  0
 51 73  1  0  0  0  0
 52 73  1  0  0  0  0
 53 57  1  0  0  0  0
 53 74  1  0  0  0  0
 55 78  1  0  0  0  0
 56 75  1  0  0  0  0
 57 72  1  0  0  0  0
 58 87  1  0  0  0  0
 59 66  1  0  0  0  0
 60 66  1  0  0  0  0
 61 68  1  0  0  0  0
 62 69  1  0  0  0  0
 63 69  1  0  0  0  0
 64 69  1  0  0  0  0
 65 80  1  0  0  0  0
 67 69  1  0  0  0  0
 67 79  1  0  0  0  0
 68 80  1  0  0  0  0
 71 72  1  0  0  0  0
M  CHG  1  80   1
M  ISO  4  17 100  33 100  58 101  87 101
M  END
> <Batch ID>
0140

> <Smiles>
CNC(C)C(=O)NC(C(=O)N1Cc2cc([101O:1][101CH:1]3CCC(c4cnc(N5CCC5)c(C(C)C)[100c:0]4[100C:0](=O)N4CCCC(n5nc(-c6ccc(Oc7ccc(F)cc7F)cc6)c(C(N)=O)c5N)C4)CC3)ccc2CC1C(=O)NC1CCCc2ccccc21)C(C)(C)C

> <Shape>
0.257

> <Color>
0.087

> <Negative vol penalty>
0.000

$$$$

  -OEChem-04052321133D

 87 96  0     1  0  0  0  0  0999 V2000
  -29.5834  -13.1198   19.8833 C   0  0  0  0  0  0  0  0  0  0  0  0
  -29.1487  -14.3386   19.3724 C   0  0  0  0  0  0  0  0  0  0  0  0
  -20.2711  -27.7897   17.8620 C   0  0  0  0  0  0  0  0  0  0  0  0
  -29.0877  -25.7678   20.0759 C   0  0  0  0  0  0  0  0  0  0  0  0
  -27.1316  -24.3535   19.9720 C   0  0  0  0  0  0  0  0  0  0  0  0
  -28.6551  -12.1901   20.3502 C   0  0  0  0  0  0  0  0  0  0  0  0
  -27.7854  -14.6280   19.3271 C   0  0  0  0  0  0  0  0  0  0  0  0
  -19.7578  -28.1248   19.1149 C   0  0  0  0  0  0  0  0  0  0  0  0
  -25.1564  -20.1039   20.1069 C   0  0  0  0  0  0  0  0  0  0  0  0
  -20.8685  -26.5450   17.6633 C   0  0  0  0  0  0  0  0  0  0  0  0
  -29.8558  -24.6757   20.4796 C   0  0  0  0  0  0  0  0  0  0  0  0
  -27.8998  -23.2614   20.3756 C   0  0  0  0  0  0  0  0  0  0  0  0
  -24.6857  -21.0557   19.2033 C   0  0  0  0  0  0  0  0  0  0  0  0
  -29.4194  -20.0241   21.0303 C   0  0  0  0  0  0  0  0  0  0  0  0
  -29.2466  -18.8206   20.3467 C   0  0  0  0  0  0  0  0  0  0  0  0
  -20.4395  -25.9707   19.9705 C   0  0  0  0  0  0  0  0  0  0  0  0
  -22.4582  -20.1570   19.4263 C   0  0  0  0  0  0  0  0  0  0  0  0
  -29.9140  -19.8944   18.2879 C   0  0  0  0  0  0  0  0  0  0  0  0
  -27.7255  -25.6067   19.8222 C   0  0  0  0  0  0  0  0  0  0  0  0
  -26.6907  -27.1641   18.0869 C   0  0  0  0  0  0  0  0  0  0  0  0
  -19.8420  -27.2154   20.1691 C   0  0  0  0  0  0  0  0  0  0  0  0
  -27.2803  -12.4721   20.3195 C   0  0  0  0  0  0  0  0  0  0  0  0
  -24.2819  -19.1631   20.6696 C   0  0  0  0  0  0  0  0  0  0  0  0
  -26.8378  -13.7006   19.7928 C   0  0  0  0  0  0  0  0  0  0  0  0
  -22.9198  -19.1960   20.3387 C   0  0  0  0  0  0  0  0  0  0  0  0
  -29.2619  -23.4225   20.6294 C   0  0  0  0  0  0  0  0  0  0  0  0
  -20.9528  -25.6355   18.7175 C   0  0  0  0  0  0  0  0  0  0  0  0
  -23.3370  -21.0805   18.8606 C   0  0  0  0  0  0  0  0  0  0  0  0
  -29.8394  -21.1628   20.3428 C   0  0  0  0  0  0  0  0  0  0  0  0
  -29.4939  -18.7557   18.9755 C   0  0  0  0  0  0  0  0  0  0  0  0
  -30.0867  -21.0979   18.9715 C   0  0  0  0  0  0  0  0  0  0  0  0
  -26.9314  -26.7345   19.4057 C   0  0  0  0  0  0  0  0  0  0  0  0
  -25.8845  -28.2673   18.2269 C   0  0  0  0  0  0  0  0  0  0  0  0
  -27.1542  -26.6149   16.8462 C   0  0  0  0  0  0  0  0  0  0  0  0
  -24.0576  -15.9929   20.6104 C   0  0  0  0  0  0  0  0  0  0  0  0
  -21.6910  -16.5094   22.7678 C   0  0  0  0  0  0  0  0  0  0  0  0
  -19.3556  -18.6412   24.0518 C   0  0  0  0  0  0  0  0  0  0  0  0
  -22.0908  -30.0406   22.4960 C   0  0  0  0  0  0  0  0  0  0  0  0
  -26.3120  -11.4167   20.7917 C   0  0  0  0  0  0  0  0  0  0  0  0
  -24.8004  -18.1599   21.6631 C   0  0  0  0  0  0  0  0  0  0  0  0
  -21.9362  -18.2208   20.9304 C   0  0  0  0  0  0  0  0  0  0  0  0
  -24.9071  -11.9528   21.0546 C   0  0  0  0  0  0  0  0  0  0  0  0
  -24.9055  -31.8272   21.2721 C   0  0  0  0  0  0  0  0  0  0  0  0
  -24.4510  -12.8423   19.9024 C   0  0  0  0  0  0  0  0  0  0  0  0
  -25.7211  -30.7659   20.5316 C   0  0  0  0  0  0  0  0  0  0  0  0
  -19.6299  -27.8843   23.6521 C   0  0  0  0  0  0  0  0  0  0  0  0
  -24.2456  -31.2582   22.5263 C   0  0  0  0  0  0  0  0  0  0  0  0
  -24.2446  -28.9905   21.5652 C   0  0  0  0  0  0  0  0  0  0  0  0
  -19.2712  -27.5875   21.5619 C   0  0  1  0  0  0  0  0  0  0  0  0
  -25.3688  -14.0613   19.7498 C   0  0  1  0  0  0  0  0  0  0  0  0
  -23.9147  -16.9234   21.7815 C   0  0  1  0  0  0  0  0  0  0  0  0
  -19.5741  -26.6255   22.7516 C   0  0  2  0  0  0  0  0  0  0  0  0
  -24.8835  -29.5011   20.2623 C   0  0  2  0  0  0  0  0  0  0  0  0
  -19.9645  -28.7081   22.3895 C   0  0  2  0  0  0  0  0  0  0  0  0
  -17.8530  -23.6904   24.5963 C   0  0  0  0  0  0  0  0  0  0  0  0
  -17.5688  -19.4772   25.6029 C   0  0  0  0  0  0  0  0  0  0  0  0
  -19.8648  -14.8477   20.9751 C   0  0  0  0  0  0  0  0  0  0  0  0
  -17.9054  -15.7856   22.2198 C   0  0  0  0  0  0  0  0  0  0  0  0
  -19.6029  -14.4098   23.4233 C   0  0  0  0  0  0  0  0  0  0  0  0
  -21.3477  -19.7957   25.9112 C   0  0  0  0  0  0  0  0  0  0  0  0
  -18.5032  -25.6072   23.0910 C   0  0  0  0  0  0  0  0  0  0  0  0
  -18.9380  -24.6928   24.2365 C   0  0  0  0  0  0  0  0  0  0  0  0
  -22.5722  -24.3469   17.5458 C   0  0  0  0  0  0  0  0  0  0  0  0
  -23.5559  -23.2615   17.9380 C   0  0  0  0  0  0  0  0  0  1  0  0
  -20.2033  -16.7522   22.6852 C   0  0  1  0  0  0  0  0  0  0  0  0
  -19.0134  -19.0174   25.4821 C   0  0  2  0  0  0  0  0  0  0  0  0
  -19.4127  -15.4661   22.3130 C   0  0  0  0  0  0  0  0  0  0  0  0
  -26.3272  -27.5023   20.3165 N   0  0  0  0  0  0  0  0  0  0  0  0
  -25.6990  -28.4255   19.5688 N   0  0  0  0  0  0  0  0  0  0  0  0
  -22.4928  -17.2552   21.8922 N   0  0  0  0  0  0  0  0  0  0  0  0
  -23.4625  -30.0641   22.1984 N   0  0  0  0  0  0  0  0  0  0  0  0
  -25.3235  -29.1078   17.3318 N   0  0  0  0  0  0  0  0  0  0  0  0
  -27.9744  -25.4790   16.8833 N   0  0  0  0  0  0  0  0  0  0  0  0
  -25.0614  -15.0546   20.7565 N   0  0  0  0  0  0  0  0  0  0  0  0
  -19.8148  -17.3442   23.9607 N   0  0  0  0  0  0  0  0  0  0  0  0
  -21.4121  -28.8776   22.1476 N   0  0  0  0  0  0  0  0  0  0  0  0
  -19.8985  -20.1198   25.9536 N   0  3  0  0  0  0  0  0  0  0  0  0
  -26.8635  -27.1263   15.7383 O   0  0  0  0  0  0  0  0  0  0  0  0
  -23.3113  -16.1162   19.6462 O   0  0  0  0  0  0  0  0  0  0  0  0
  -22.1261  -15.6935   23.5843 O   0  0  0  0  0  0  0  0  0  0  0  0
  -19.2248  -19.4187   23.1090 O   0  0  0  0  0  0  0  0  0  0  0  0
  -21.5036  -30.9892   23.0277 O   0  0  0  0  0  0  0  0  0  0  0  0
  -30.0112  -22.3566   21.0231 O   0  0  0  0  0  0  0  0  0  0  0  0
  -21.5398  -24.4131   18.5222 O   0  0  0  0  0  0  0  0  0  0  0  0
  -22.8751  -22.0080   17.9784 O   0  0  0  0  0  0  0  0  0  1  0  0
  -29.3295  -17.5996   18.3194 F   0  0  0  0  0  0  0  0  0  0  0  0
  -30.4916  -22.1882   18.3058 F   0  0  0  0  0  0  0  0  0  0  0  0
  1  2  1  0  0  0  0
  1  6  2  0  0  0  0
  2  7  2  0  0  0  0
  3  8  2  0  0  0  0
  3 10  1  0  0  0  0
  4 11  2  0  0  0  0
  4 19  1  0  0  0  0
  5 12  1  0  0  0  0
  5 19  2  0  0  0  0
  6 22  1  0  0  0  0
  7 24  1  0  0  0  0
  8 21  1  0  0  0  0
  9 13  2  0  0  0  0
  9 23  1  0  0  0  0
 10 27  2  0  0  0  0
 11 26  1  0  0  0  0
 12 26  2  0  0  0  0
 13 28  1  0  0  0  0
 14 15  2  0  0  0  0
 14 29  1  0  0  0  0
 15 30  1  0  0  0  0
 16 21  2  0  0  0  0
 16 27  1  0  0  0  0
 17 25  1  0  0  0  0
 17 28  2  0  0  0  0
 18 30  2  0  0  0  0
 18 31  1  0  0  0  0
 19 32  1  0  0  0  0
 20 32  1  0  0  0  0
 20 33  2  0  0  0  0
 20 34  1  0  0  0  0
 21 49  1  0  0  0  0
 22 24  2  0  0  0  0
 22 39  1  0  0  0  0
 23 25  2  0  0  0  0
 23 40  1  0  0  0  0
 24 50  1  0  0  0  0
 25 41  1  0  0  0  0
 26 83  1  0  0  0  0
 27 84  1  0  0  0  0
 28 85  1  0  0  0  0
 29 31  2  0  0  0  0
 29 83  1  0  0  0  0
 30 86  1  0  0  0  0
 31 87  1  0  0  0  0
 32 68  2  0  0  0  0
 33 69  1  0  0  0  0
 33 72  1  0  0  0  0
 34 73  1  0  0  0  0
 34 78  2  0  0  0  0
 35 51  1  0  0  0  0
 35 74  1  0  0  0  0
 35 79  2  0  0  0  0
 36 65  1  0  0  0  0
 36 70  1  0  0  0  0
 36 80  2  0  0  0  0
 37 66  1  0  0  0  0
 37 75  1  0  0  0  0
 37 81  2  0  0  0  0
 38 71  1  0  0  0  0
 38 76  1  0  0  0  0
 38 82  2  0  0  0  0
 39 42  1  0  0  0  0
 40 51  1  0  0  0  0
 41 70  1  0  0  0  0
 42 44  1  0  0  0  0
 43 45  1  0  0  0  0
 43 47  1  0  0  0  0
 44 50  1  0  0  0  0
 45 53  1  0  0  0  0
 46 52  1  0  0  0  0
 46 54  1  0  0  0  0
 47 71  1  0  0  0  0
 48 53  1  0  0  0  0
 48 71  1  0  0  0  0
 49 52  1  0  0  0  0
 49 54  1  0  0  0  0
 50 74  1  0  0  0  0
 51 70  1  0  0  0  0
 52 61  1  0  0  0  0
 53 69  1  0  0  0  0
 54 76  1  0  0  0  0
 55 62  1  0  0  0  0
 56 66  1  0  0  0  0
 57 67  1  0  0  0  0
 58 67  1  0  0  0  0
 59 67  1  0  0  0  0
 60 77  1  0  0  0  0
 61 62  1  0  0  0  0
 63 64  1  0  0  0  0
 63 84  1  0  0  0  0
 64 85  1  0  0  0  0
 65 67  1  0  0  0  0
 65 75  1  0  0  0  0
 66 77  1  0  0  0  0
 68 69  1  0  0  0  0
M  CHG  1  77   1
M  ISO  4  38 100  64 101  76 100  85 101
M  END
> <Batch ID>
0140

> <Smiles>
CCCC1CC([100NH:0][100C:0](=O)N2CCCC(n3nc(-c4ccc(Oc5ccc(F)cc5F)cc4)c(C(N)=O)c3N)C2)C1c1cccc(OC[101CH2:1][101O:1]c2ccc3c(c2)CN(C(=O)C(NC(=O)C(C)NC)C(C)(C)C)C(C(=O)NC2CCCc4ccccc42)C3)c1

> <Shape>
0.226

> <Color>
0.084

> <Negative vol penalty>
0.000

$$$$

  -OEChem-04052321133D

 87 96  0     1  0  0  0  0  0999 V2000
  -32.3553  -13.2693   20.9548 C   0  0  0  0  0  0  0  0  0  0  0  0
  -31.7042  -14.4144   21.4023 C   0  0  0  0  0  0  0  0  0  0  0  0
  -27.3544  -25.2112   17.4038 C   0  0  0  0  0  0  0  0  0  0  0  0
  -28.9495  -26.5368   18.6431 C   0  0  0  0  0  0  0  0  0  0  0  0
  -31.6756  -12.3483   20.1589 C   0  0  0  0  0  0  0  0  0  0  0  0
  -30.3731  -14.6396   21.0531 C   0  0  0  0  0  0  0  0  0  0  0  0
  -26.0725  -17.3326   24.4822 C   0  0  0  0  0  0  0  0  0  0  0  0
  -28.2474  -24.1398   17.4003 C   0  0  0  0  0  0  0  0  0  0  0  0
  -29.8425  -25.4653   18.6396 C   0  0  0  0  0  0  0  0  0  0  0  0
  -25.5671  -18.6318   24.5032 C   0  0  0  0  0  0  0  0  0  0  0  0
  -29.2578  -21.7321   19.5486 C   0  0  0  0  0  0  0  0  0  0  0  0
  -28.7538  -20.4671   19.8508 C   0  0  0  0  0  0  0  0  0  0  0  0
  -23.7437  -17.9390   23.0840 C   0  0  0  0  0  0  0  0  0  0  0  0
  -22.5652  -22.7592   22.1264 C   0  0  0  0  0  0  0  0  0  0  0  0
  -21.7888  -22.3777   24.3822 C   0  0  0  0  0  0  0  0  0  0  0  0
  -29.4593  -19.6681   17.6827 C   0  0  0  0  0  0  0  0  0  0  0  0
  -27.7054  -26.4098   18.0252 C   0  0  0  0  0  0  0  0  0  0  0  0
  -26.2510  -28.1834   16.9087 C   0  0  0  0  0  0  0  0  0  0  0  0
  -30.3326  -12.5575   19.8078 C   0  0  0  0  0  0  0  0  0  0  0  0
  -25.4222  -16.3276   23.7518 C   0  0  0  0  0  0  0  0  0  0  0  0
  -29.6751  -13.7211   20.2506 C   0  0  0  0  0  0  0  0  0  0  0  0
  -24.2414  -16.6272   23.0574 C   0  0  0  0  0  0  0  0  0  0  0  0
  -22.3474  -21.8945   23.1990 C   0  0  0  0  0  0  0  0  0  0  0  0
  -22.2246  -24.1074   22.2372 C   0  0  0  0  0  0  0  0  0  0  0  0
  -21.4481  -23.7258   24.4930 C   0  0  0  0  0  0  0  0  0  0  0  0
  -21.6660  -24.5906   23.4204 C   0  0  0  0  0  0  0  0  0  0  0  0
  -29.4915  -24.2668   18.0182 C   0  0  0  0  0  0  0  0  0  0  0  0
  -24.4041  -18.9358   23.8017 C   0  0  0  0  0  0  0  0  0  0  0  0
  -29.8625  -21.9652   18.3134 C   0  0  0  0  0  0  0  0  0  0  0  0
  -28.8545  -19.4351   18.9179 C   0  0  0  0  0  0  0  0  0  0  0  0
  -29.9633  -20.9331   17.3805 C   0  0  0  0  0  0  0  0  0  0  0  0
  -26.7835  -27.5171   18.0286 C   0  0  0  0  0  0  0  0  0  0  0  0
  -25.4346  -29.1512   17.4410 C   0  0  0  0  0  0  0  0  0  0  0  0
  -26.4742  -27.9484   15.5120 C   0  0  0  0  0  0  0  0  0  0  0  0
  -26.2111  -14.4745   21.2927 C   0  0  0  0  0  0  0  0  0  0  0  0
  -23.3481  -13.0857   21.9226 C   0  0  0  0  0  0  0  0  0  0  0  0
  -20.2283  -13.3647   23.2774 C   0  0  0  0  0  0  0  0  0  0  0  0
  -22.5348  -29.6219   22.6584 C   0  0  0  0  0  0  0  0  0  0  0  0
  -29.6537  -11.5571   18.9062 C   0  0  0  0  0  0  0  0  0  0  0  0
  -25.9654  -14.9251   23.7610 C   0  0  0  0  0  0  0  0  0  0  0  0
  -23.4943  -15.5797   22.2745 C   0  0  0  0  0  0  0  0  0  0  0  0
  -28.1325  -11.6845   18.8915 C   0  0  0  0  0  0  0  0  0  0  0  0
  -24.9248  -31.8990   21.3244 C   0  0  0  0  0  0  0  0  0  0  0  0
  -27.7206  -13.1450   18.7361 C   0  0  0  0  0  0  0  0  0  0  0  0
  -25.6241  -31.0943   20.2274 C   0  0  0  0  0  0  0  0  0  0  0  0
  -18.9456  -26.2188   23.1003 C   0  0  0  0  0  0  0  0  0  0  0  0
  -24.5714  -31.0260   22.5264 C   0  0  0  0  0  0  0  0  0  0  0  0
  -24.4898  -29.0120   21.1084 C   0  0  0  0  0  0  0  0  0  0  0  0
  -17.8923  -26.9321   22.2653 C   0  0  0  0  0  0  0  0  0  0  0  0
  -19.4864  -28.8183   21.8307 C   0  0  0  0  0  0  0  0  0  0  0  0
  -28.2242  -13.9884   19.9136 C   0  0  1  0  0  0  0  0  0  0  0  0
  -25.5051  -14.0981   22.5645 C   0  0  1  0  0  0  0  0  0  0  0  0
  -24.8159  -29.8377   19.8521 C   0  0  2  0  0  0  0  0  0  0  0  0
  -20.3619  -26.5985   22.6568 C   0  0  1  0  0  0  0  0  0  0  0  0
  -20.5566  -28.1241   22.6696 C   0  0  1  0  0  0  0  0  0  0  0  0
  -22.4711  -25.0096   21.0718 C   0  0  0  0  0  0  0  0  0  0  0  0
  -20.8518  -24.2151   25.7729 C   0  0  0  0  0  0  0  0  0  0  0  0
  -18.1004  -12.0755   23.6050 C   0  0  0  0  0  0  0  0  0  0  0  0
  -22.6235  -13.5423   18.9941 C   0  0  0  0  0  0  0  0  0  0  0  0
  -20.2280  -13.1318   19.5951 C   0  0  0  0  0  0  0  0  0  0  0  0
  -21.9183  -11.3244   19.9097 C   0  0  0  0  0  0  0  0  0  0  0  0
  -20.4492  -13.5238   26.2244 C   0  0  0  0  0  0  0  0  0  0  0  0
  -22.7136  -20.4443   23.0790 C   0  0  0  0  0  0  0  0  0  1  0  0
  -21.9263  -13.3141   21.4695 C   0  0  1  0  0  0  0  0  0  0  0  0
  -19.4470  -12.4506   24.2039 C   0  0  2  0  0  0  0  0  0  0  0  0
  -21.6889  -12.8486   20.0052 C   0  0  0  0  0  0  0  0  0  0  0  0
  -26.3427  -28.0193   19.1851 N   0  0  0  0  0  0  0  0  0  0  0  0
  -25.5246  -29.0115   18.7947 N   0  0  0  0  0  0  0  0  0  0  0  0
  -24.0688  -14.2246   22.3090 N   0  0  0  0  0  0  0  0  0  0  0  0
  -23.8040  -29.8524   22.1025 N   0  0  0  0  0  0  0  0  0  0  0  0
  -24.6559  -30.0997   16.8786 N   0  0  0  0  0  0  0  0  0  0  0  0
  -27.5250  -28.6271   14.8799 N   0  0  0  0  0  0  0  0  0  0  0  0
  -21.3211  -25.9573   23.5327 N   0  0  0  0  0  0  0  0  0  0  0  0
  -27.3879  -13.7831   21.0767 N   0  0  0  0  0  0  0  0  0  0  0  0
  -21.0737  -12.6539   22.4521 N   0  0  0  0  0  0  0  0  0  0  0  0
  -21.8724  -28.4909   22.1970 N   0  0  0  0  0  0  0  0  0  0  0  0
  -18.1353  -28.4038   22.3181 N   0  3  0  0  0  0  0  0  0  0  0  0
  -19.2086  -13.1212   25.5133 N   0  3  0  0  0  0  0  0  0  0  0  0
  -25.7527  -27.1725   14.8406 O   0  0  0  0  0  0  0  0  0  0  0  0
  -25.7235  -15.3279   20.5608 O   0  0  0  0  0  0  0  0  0  0  0  0
  -23.8003  -11.9381   21.9401 O   0  0  0  0  0  0  0  0  0  0  0  0
  -20.0986  -14.5869   23.2826 O   0  0  0  0  0  0  0  0  0  0  0  0
  -22.0272  -30.3716   23.4993 O   0  0  0  0  0  0  0  0  0  0  0  0
  -30.3631  -23.2214   18.0152 O   0  0  0  0  0  0  0  0  0  0  0  0
  -23.9090  -20.2033   23.8200 O   0  0  0  0  0  0  0  0  0  1  0  0
  -28.3718  -18.2200   19.2088 F   0  0  0  0  0  0  0  0  0  0  0  0
  -30.5442  -21.1507   16.1926 F   0  0  0  0  0  0  0  0  0  0  0  0
  1  2  1  0  0  0  0
  1  5  2  0  0  0  0
  2  6  2  0  0  0  0
  3  8  2  0  0  0  0
  3 17  1  0  0  0  0
  4  9  1  0  0  0  0
  4 17  2  0  0  0  0
  5 19  1  0  0  0  0
  6 21  1  0  0  0  0
  7 10  2  0  0  0  0
  7 20  1  0  0  0  0
  8 27  1  0  0  0  0
  9 27  2  0  0  0  0
 10 28  1  0  0  0  0
 11 12  2  0  0  0  0
 11 29  1  0  0  0  0
 12 30  1  0  0  0  0
 13 22  1  0  0  0  0
 13 28  2  0  0  0  0
 14 23  1  0  0  0  0
 14 24  2  0  0  0  0
 15 23  2  0  0  0  0
 15 25  1  0  0  0  0
 16 30  2  0  0  0  0
 16 31  1  0  0  0  0
 17 32  1  0  0  0  0
 18 32  1  0  0  0  0
 18 33  2  0  0  0  0
 18 34  1  0  0  0  0
 19 21  2  0  0  0  0
 19 39  1  0  0  0  0
 20 22  2  0  0  0  0
 20 40  1  0  0  0  0
 21 51  1  0  0  0  0
 22 41  1  0  0  0  0
 23 63  1  0  0  0  0
 24 26  1  0  0  0  0
 24 56  1  0  0  0  0
 25 26  2  0  0  0  0
 25 57  1  0  0  0  0
 26 73  1  0  0  0  0
 27 84  1  0  0  0  0
 28 85  1  0  0  0  0
 29 31  2  0  0  0  0
 29 84  1  0  0  0  0
 30 86  1  0  0  0  0
 31 87  1  0  0  0  0
 32 67  2  0  0  0  0
 33 68  1  0  0  0  0
 33 71  1  0  0  0  0
 34 72  1  0  0  0  0
 34 79  2  0  0  0  0
 35 52  1  0  0  0  0
 35 74  1  0  0  0  0
 35 80  2  0  0  0  0
 36 64  1  0  0  0  0
 36 69  1  0  0  0  0
 36 81  2  0  0  0  0
 37 65  1  0  0  0  0
 37 75  1  0  0  0  0
 37 82  2  0  0  0  0
 38 70  1  0  0  0  0
 38 76  1  0  0  0  0
 38 83  2  0  0  0  0
 39 42  1  0  0  0  0
 40 52  1  0  0  0  0
 41 69  1  0  0  0  0
 42 44  1  0  0  0  0
 43 45  1  0  0  0  0
 43 47  1  0  0  0  0
 44 51  1  0  0  0  0
 45 53  1  0  0  0  0
 46 49  1  0  0  0  0
 46 54  1  0  0  0  0
 47 70  1  0  0  0  0
 48 53  1  0  0  0  0
 48 70  1  0  0  0  0
 49 77  1  0  0  0  0
 50 55  1  0  0  0  0
 50 77  1  0  0  0  0
 51 74  1  0  0  0  0
 52 69  1  0  0  0  0
 53 68  1  0  0  0  0
 54 55  1  0  0  0  0
 54 73  1  0  0  0  0
 55 76  1  0  0  0  0
 58 65  1  0  0  0  0
 59 66  1  0  0  0  0
 60 66  1  0  0  0  0
 61 66  1  0  0  0  0
 62 78  1  0  0  0  0
 63 85  1  0  0  0  0
 64 66  1  0  0  0  0
 64 75  1  0  0  0  0
 65 78  1  0  0  0  0
 67 68  1  0  0  0  0
M  CHG  2  77   1  78   1
M  ISO  4  38 100  63 101  76 100  85 101
M  END
> <Batch ID>
0140

> <Smiles>
CNC(C)C(=O)NC(C(=O)N1Cc2cc([101O:1][101CH2:1]c3cc(C)c(NC4CCNCC4[100NH:0][100C:0](=O)N4CCCC(n5nc(-c6ccc(Oc7ccc(F)cc7F)cc6)c(C(N)=O)c5N)C4)c(C)c3)ccc2CC1C(=O)NC1CCCc2ccccc21)C(C)(C)C

> <Shape>
0.252

> <Color>
0.083

> <Negative vol penalty>
0.000

$$$$

  -OEChem-04052321133D

 87 96  0     1  0  0  0  0  0999 V2000
  -35.0425  -32.0271   17.6338 C   0  0  0  0  0  0  0  0  0  0  0  0
  -35.7758  -31.1699   18.4479 C   0  0  0  0  0  0  0  0  0  0  0  0
  -23.0977   -9.8228   19.8971 C   0  0  0  0  0  0  0  0  0  0  0  0
  -23.7917   -9.8170   22.2112 C   0  0  0  0  0  0  0  0  0  0  0  0
  -33.6492  -31.9752   17.6447 C   0  0  0  0  0  0  0  0  0  0  0  0
  -35.1161  -30.2608   19.2744 C   0  0  0  0  0  0  0  0  0  0  0  0
  -35.8381  -23.6965   22.0500 C   0  0  0  0  0  0  0  0  0  0  0  0
  -22.3466   -8.6687   20.1194 C   0  0  0  0  0  0  0  0  0  0  0  0
  -23.0406   -8.6629   22.4336 C   0  0  0  0  0  0  0  0  0  0  0  0
  -35.7940  -23.0348   23.2764 C   0  0  0  0  0  0  0  0  0  0  0  0
  -19.7962   -7.8633   22.9392 C   0  0  0  0  0  0  0  0  0  0  0  0
  -19.0061   -7.8174   24.0878 C   0  0  0  0  0  0  0  0  0  0  0  0
  -33.3855  -22.9801   23.1535 C   0  0  0  0  0  0  0  0  0  0  0  0
  -32.7614  -19.5252   25.8534 C   0  0  0  0  0  0  0  0  0  0  0  0
  -34.4697  -18.0714   24.9561 C   0  0  0  0  0  0  0  0  0  0  0  0
  -20.2254   -5.8754   24.8489 C   0  0  0  0  0  0  0  0  0  0  0  0
  -23.8202  -10.3970   20.9430 C   0  0  0  0  0  0  0  0  0  0  0  0
  -24.1661  -12.9226   20.8465 C   0  0  0  0  0  0  0  0  0  0  0  0
  -32.9724  -31.0584   18.4645 C   0  0  0  0  0  0  0  0  0  0  0  0
  -34.6537  -24.0151   21.3702 C   0  0  0  0  0  0  0  0  0  0  0  0
  -33.7125  -30.1975   19.2973 C   0  0  0  0  0  0  0  0  0  0  0  0
  -33.4173  -23.6436   21.9174 C   0  0  0  0  0  0  0  0  0  0  0  0
  -32.1371  -17.5827   24.5595 C   0  0  0  0  0  0  0  0  0  0  0  0
  -34.1083  -19.2035   25.6865 C   0  0  0  0  0  0  0  0  0  0  0  0
  -31.7757  -18.7148   25.2899 C   0  0  0  0  0  0  0  0  0  0  0  0
  -22.3180   -8.0887   21.3877 C   0  0  0  0  0  0  0  0  0  0  0  0
  -34.5675  -22.6791   23.8297 C   0  0  0  0  0  0  0  0  0  0  0  0
  -20.8009   -6.9152   22.7455 C   0  0  0  0  0  0  0  0  0  0  0  0
  -33.4841  -17.2610   24.3926 C   0  0  0  0  0  0  0  0  0  0  0  0
  -19.2207   -6.8235   25.0426 C   0  0  0  0  0  0  0  0  0  0  0  0
  -21.0155   -5.9213   23.7003 C   0  0  0  0  0  0  0  0  0  0  0  0
  -24.5967  -11.5889   20.7138 C   0  0  0  0  0  0  0  0  0  0  0  0
  -25.2685  -13.6735   20.5187 C   0  0  0  0  0  0  0  0  0  0  0  0
  -22.8844  -13.4367   21.2317 C   0  0  0  0  0  0  0  0  0  0  0  0
  -33.2547  -26.7157   20.4465 C   0  0  0  0  0  0  0  0  0  0  0  0
  -31.1789  -24.6877   18.9971 C   0  0  0  0  0  0  0  0  0  0  0  0
  -29.7724  -21.5807   18.8749 C   0  0  0  0  0  0  0  0  0  0  0  0
  -30.7307  -14.6669   20.8583 C   0  0  0  0  0  0  0  0  0  0  0  0
  -31.4643  -31.0717   18.4774 C   0  0  0  0  0  0  0  0  0  0  0  0
  -34.7194  -24.7054   20.0354 C   0  0  0  0  0  0  0  0  0  0  0  0
  -32.1179  -23.9446   21.2178 C   0  0  0  0  0  0  0  0  0  0  0  0
  -30.8495  -29.8228   19.1038 C   0  0  0  0  0  0  0  0  0  0  0  0
  -29.6627  -12.3577   18.4249 C   0  0  0  0  0  0  0  0  0  0  0  0
  -31.5482  -29.4850   20.4170 C   0  0  0  0  0  0  0  0  0  0  0  0
  -28.2241  -12.0339   18.8201 C   0  0  0  0  0  0  0  0  0  0  0  0
  -31.1071  -15.2496   24.4358 C   0  0  0  0  0  0  0  0  0  0  0  0
  -30.5411  -12.5143   19.6592 C   0  0  0  0  0  0  0  0  0  0  0  0
  -30.2936  -14.5248   23.3719 C   0  0  0  0  0  0  0  0  0  0  0  0
  -28.6084  -13.2751   21.0113 C   0  0  0  0  0  0  0  0  0  0  0  0
  -31.0739  -16.7020   23.9463 C   0  0  2  0  0  0  0  0  0  0  0  0
  -33.0337  -29.1806   20.1891 C   0  0  1  0  0  0  0  0  0  0  0  0
  -33.4297  -25.4371   19.6770 C   0  0  1  0  0  0  0  0  0  0  0  0
  -27.6777  -13.0887   19.7954 C   0  0  2  0  0  0  0  0  0  0  0  0
  -31.1769  -16.5488   22.4204 C   0  0  1  0  0  0  0  0  0  0  0  0
  -30.3405  -19.0802   25.4842 C   0  0  0  0  0  0  0  0  0  0  0  0
  -28.0791  -20.2335   17.6040 C   0  0  0  0  0  0  0  0  0  0  0  0
  -28.9289  -26.1578   20.4415 C   0  0  0  0  0  0  0  0  0  0  0  0
  -27.4224  -24.2301   19.9100 C   0  0  0  0  0  0  0  0  0  0  0  0
  -28.4314  -25.5685   18.0625 C   0  0  0  0  0  0  0  0  0  0  0  0
  -31.8105  -19.6144   18.0153 C   0  0  0  0  0  0  0  0  0  0  0  0
  -35.2545  -15.9077   23.5619 C   0  0  0  0  0  0  0  0  0  0  0  0
  -35.1618  -20.0695   26.2902 C   0  0  0  0  0  0  0  0  0  0  0  0
  -35.6240  -21.1898   25.3535 C   0  0  0  0  0  0  0  0  0  1  0  0
  -29.8962  -24.0019   19.4012 C   0  0  1  0  0  0  0  0  0  0  0  0
  -29.5446  -20.6229   17.7194 C   0  0  2  0  0  0  0  0  0  0  0  0
  -28.6939  -24.9855   19.4682 C   0  0  0  0  0  0  0  0  0  0  0  0
  -25.8730  -11.4947   20.3314 N   0  0  0  0  0  0  0  0  0  0  0  0
  -26.2538  -12.7788   20.2208 N   0  0  0  0  0  0  0  0  0  0  0  0
  -32.2342  -24.6266   19.9183 N   0  0  0  0  0  0  0  0  0  0  0  0
  -29.9962  -13.5060   20.5879 N   0  0  0  0  0  0  0  0  0  0  0  0
  -30.6061  -15.2325   22.1289 N   0  0  0  0  0  0  0  0  0  0  0  0
  -25.4813  -15.0053   20.4589 N   0  0  0  0  0  0  0  0  0  0  0  0
  -21.8629  -12.5262   21.5350 N   0  0  0  0  0  0  0  0  0  0  0  0
  -33.2000  -27.8464   19.6539 N   0  0  0  0  0  0  0  0  0  0  0  0
  -29.7126  -22.8965   18.4670 N   0  0  0  0  0  0  0  0  0  0  0  0
  -30.3471  -19.3816   17.9096 N   0  3  0  0  0  0  0  0  0  0  0  0
  -22.6469  -14.6671   21.2889 O   0  0  0  0  0  0  0  0  0  0  0  0
  -33.1738  -26.6791   21.6687 O   0  0  0  0  0  0  0  0  0  0  0  0
  -31.2446  -25.2506   17.9015 O   0  0  0  0  0  0  0  0  0  0  0  0
  -29.9788  -21.1998   20.0250 O   0  0  0  0  0  0  0  0  0  0  0  0
  -31.4888  -15.1600   20.0126 O   0  0  0  0  0  0  0  0  0  0  0  0
  -30.4130  -17.5519   21.7652 O   0  0  0  0  0  0  0  0  0  0  0  0
  -21.5850   -6.9627   21.6050 O   0  0  0  0  0  0  0  0  0  0  0  0
  -33.8559  -16.1599   23.6815 O   0  0  0  0  0  0  0  0  0  0  0  0
  -34.5213  -22.0292   25.0353 O   0  0  0  0  0  0  0  0  0  1  0  0
  -18.4629   -6.7804   26.1463 F   0  0  0  0  0  0  0  0  0  0  0  0
  -21.9799   -5.0085   23.5202 F   0  0  0  0  0  0  0  0  0  0  0  0
  1  2  1  0  0  0  0
  1  5  2  0  0  0  0
  2  6  2  0  0  0  0
  3  8  2  0  0  0  0
  3 17  1  0  0  0  0
  4  9  1  0  0  0  0
  4 17  2  0  0  0  0
  5 19  1  0  0  0  0
  6 21  1  0  0  0  0
  7 10  2  0  0  0  0
  7 20  1  0  0  0  0
  8 26  1  0  0  0  0
  9 26  2  0  0  0  0
 10 27  1  0  0  0  0
 11 12  2  0  0  0  0
 11 28  1  0  0  0  0
 12 30  1  0  0  0  0
 13 22  1  0  0  0  0
 13 27  2  0  0  0  0
 14 24  1  0  0  0  0
 14 25  2  0  0  0  0
 15 24  2  0  0  0  0
 15 29  1  0  0  0  0
 16 30  2  0  0  0  0
 16 31  1  0  0  0  0
 17 32  1  0  0  0  0
 18 32  1  0  0  0  0
 18 33  2  0  0  0  0
 18 34  1  0  0  0  0
 19 21  2  0  0  0  0
 19 39  1  0  0  0  0
 20 22  2  0  0  0  0
 20 40  1  0  0  0  0
 21 51  1  0  0  0  0
 22 41  1  0  0  0  0
 23 25  1  0  0  0  0
 23 29  2  0  0  0  0
 23 50  1  0  0  0  0
 24 62  1  0  0  0  0
 25 55  1  0  0  0  0
 26 83  1  0  0  0  0
 27 85  1  0  0  0  0
 28 31  2  0  0  0  0
 28 83  1  0  0  0  0
 29 84  1  0  0  0  0
 30 86  1  0  0  0  0
 31 87  1  0  0  0  0
 32 67  2  0  0  0  0
 33 68  1  0  0  0  0
 33 72  1  0  0  0  0
 34 73  1  0  0  0  0
 34 77  2  0  0  0  0
 35 52  1  0  0  0  0
 35 74  1  0  0  0  0
 35 78  2  0  0  0  0
 36 64  1  0  0  0  0
 36 69  1  0  0  0  0
 36 79  2  0  0  0  0
 37 65  1  0  0  0  0
 37 75  1  0  0  0  0
 37 80  2  0  0  0  0
 38 70  1  0  0  0  0
 38 71  1  0  0  0  0
 38 81  2  0  0  0  0
 39 42  1  0  0  0  0
 40 52  1  0  0  0  0
 41 69  1  0  0  0  0
 42 44  1  0  0  0  0
 43 45  1  0  0  0  0
 43 47  1  0  0  0  0
 44 51  1  0  0  0  0
 45 53  1  0  0  0  0
 46 48  1  0  0  0  0
 46 50  1  0  0  0  0
 47 70  1  0  0  0  0
 48 71  1  0  0  0  0
 49 53  1  0  0  0  0
 49 70  1  0  0  0  0
 50 54  1  0  0  0  0
 51 74  1  0  0  0  0
 52 69  1  0  0  0  0
 53 68  1  0  0  0  0
 54 71  1  0  0  0  0
 54 82  1  0  0  0  0
 56 65  1  0  0  0  0
 57 66  1  0  0  0  0
 58 66  1  0  0  0  0
 59 66  1  0  0  0  0
 60 76  1  0  0  0  0
 61 84  1  0  0  0  0
 62 63  1  0  0  0  0
 63 85  1  0  0  0  0
 64 66  1  0  0  0  0
 64 75  1  0  0  0  0
 65 76  1  0  0  0  0
 67 68  1  0  0  0  0
M  CHG  1  76   1
M  ISO  4  38 100  63 101  71 100  85 101
M  END
> <Batch ID>
0140

> <Smiles>
CNC(C)C(=O)NC(C(=O)N1Cc2cc([101O:1][101CH2:1]Cc3cc(C)c(C4CC[100N:0]([100C:0](=O)N5CCCC(n6nc(-c7ccc(Oc8ccc(F)cc8F)cc7)c(C(N)=O)c6N)C5)C4O)c(OC)c3)ccc2CC1C(=O)NC1CCCc2ccccc21)C(C)(C)C

> <Shape>
0.225

> <Color>
0.194

> <Negative vol penalty>
0.000

$$$$

  -OEChem-04052321133D

 86 94  0     1  0  0  0  0  0999 V2000
  -24.6876  -25.8931   18.1715 C   0  0  0  0  0  0  0  0  0  0  0  0
  -25.3030  -25.7934   19.4152 C   0  0  0  0  0  0  0  0  0  0  0  0
  -23.0796   -9.8607   19.9457 C   0  0  0  0  0  0  0  0  0  0  0  0
  -23.8365   -9.8784   22.2400 C   0  0  0  0  0  0  0  0  0  0  0  0
  -25.1925  -25.1788   17.0859 C   0  0  0  0  0  0  0  0  0  0  0  0
  -26.4231  -24.9783   19.5742 C   0  0  0  0  0  0  0  0  0  0  0  0
  -32.5379  -24.5540   23.2818 C   0  0  0  0  0  0  0  0  0  0  0  0
  -22.3377   -8.7072   20.1993 C   0  0  0  0  0  0  0  0  0  0  0  0
  -23.0945   -8.7249   22.4937 C   0  0  0  0  0  0  0  0  0  0  0  0
  -33.2463  -23.6688   24.0932 C   0  0  0  0  0  0  0  0  0  0  0  0
  -19.8671   -7.9232   23.0952 C   0  0  0  0  0  0  0  0  0  0  0  0
  -19.1087   -7.8865   24.2652 C   0  0  0  0  0  0  0  0  0  0  0  0
  -34.0781  -22.5431   22.1284 C   0  0  0  0  0  0  0  0  0  0  0  0
  -30.5319  -18.3581   24.0246 C   0  0  0  0  0  0  0  0  0  0  0  0
  -20.3529   -5.9544   25.0111 C   0  0  0  0  0  0  0  0  0  0  0  0
  -32.0404  -16.6344   22.5417 C   0  0  0  0  0  0  0  0  0  0  0  0
  -23.8291  -10.4464   20.9660 C   0  0  0  0  0  0  0  0  0  0  0  0
  -24.1662  -12.9717   20.8363 C   0  0  0  0  0  0  0  0  0  0  0  0
  -26.3252  -24.3621   17.2293 C   0  0  0  0  0  0  0  0  0  0  0  0
  -32.5856  -24.4335   21.8855 C   0  0  0  0  0  0  0  0  0  0  0  0
  -26.9429  -24.2513   18.4897 C   0  0  0  0  0  0  0  0  0  0  0  0
  -33.3714  -23.4297   21.3015 C   0  0  0  0  0  0  0  0  0  0  0  0
  -29.9032  -17.4905   23.1385 C   0  0  0  0  0  0  0  0  0  0  0  0
  -30.6646  -16.6090   22.3792 C   0  0  0  0  0  0  0  0  0  0  0  0
  -22.3451   -8.1392   21.4733 C   0  0  0  0  0  0  0  0  0  0  0  0
  -34.0142  -22.6614   23.5166 C   0  0  0  0  0  0  0  0  0  0  0  0
  -20.8684   -6.9755   22.8830 C   0  0  0  0  0  0  0  0  0  0  0  0
  -19.3516   -6.9021   25.2232 C   0  0  0  0  0  0  0  0  0  0  0  0
  -21.1113   -5.9911   23.8410 C   0  0  0  0  0  0  0  0  0  0  0  0
  -24.5962  -11.6377   20.7045 C   0  0  0  0  0  0  0  0  0  0  0  0
  -31.9136  -18.3050   24.1137 C   0  0  0  0  0  0  0  0  0  0  0  0
  -25.2573  -13.7218   20.4714 C   0  0  0  0  0  0  0  0  0  0  0  0
  -22.8941  -13.4867   21.2514 C   0  0  0  0  0  0  0  0  0  0  0  0
  -30.4426  -23.8605   19.6090 C   0  0  0  0  0  0  0  0  0  0  0  0
  -32.9517  -24.4526   17.6401 C   0  0  0  0  0  0  0  0  0  0  0  0
  -36.3354  -24.5386   17.2049 C   0  0  0  0  0  0  0  0  0  0  0  0
  -30.7212  -14.7788   20.6490 C   0  0  0  0  0  0  0  0  0  0  0  0
  -26.8063  -23.5722   16.0380 C   0  0  0  0  0  0  0  0  0  0  0  0
  -31.8370  -25.4129   21.0237 C   0  0  0  0  0  0  0  0  0  0  0  0
  -33.4722  -23.2702   19.8073 C   0  0  0  0  0  0  0  0  0  0  0  0
  -28.2211  -23.0230   16.2023 C   0  0  0  0  0  0  0  0  0  0  0  0
  -29.6147  -12.3533   18.2890 C   0  0  0  0  0  0  0  0  0  0  0  0
  -28.3862  -22.3745   17.5730 C   0  0  0  0  0  0  0  0  0  0  0  0
  -28.1750  -12.0606   18.7179 C   0  0  0  0  0  0  0  0  0  0  0  0
  -30.5277  -12.5887   19.4909 C   0  0  0  0  0  0  0  0  0  0  0  0
  -28.6176  -13.3150   20.8668 C   0  0  0  0  0  0  0  0  0  0  0  0
  -28.1748  -23.3969   18.6962 C   0  0  1  0  0  0  0  0  0  0  0  0
  -31.5478  -24.8782   19.6245 C   0  0  1  0  0  0  0  0  0  0  0  0
  -27.6466  -13.1351   19.6884 C   0  0  2  0  0  0  0  0  0  0  0  0
  -28.0093  -15.7217   24.7985 C   0  0  0  0  0  0  0  0  0  0  0  0
  -38.0873  -25.0248   15.4752 C   0  0  0  0  0  0  0  0  0  0  0  0
  -27.9278  -18.9182   22.5703 C   0  0  0  0  0  0  0  0  0  0  0  0
  -32.3824  -21.7653   16.3118 C   0  0  0  0  0  0  0  0  0  0  0  0
  -34.6630  -21.8689   15.2842 C   0  0  0  0  0  0  0  0  0  0  0  0
  -32.9655  -23.6097   14.7268 C   0  0  0  0  0  0  0  0  0  0  0  0
  -37.4753  -26.7468   18.8123 C   0  0  0  0  0  0  0  0  0  0  0  0
  -27.6740  -17.1334   24.3297 C   0  0  0  0  0  0  0  0  0  0  0  0
  -34.5229  -20.0909   26.0039 C   0  0  0  0  0  0  0  0  0  0  0  0
  -34.1569  -21.5080   25.5915 C   0  0  0  0  0  0  0  0  0  1  0  0
  -33.9737  -19.0564   25.0341 C   0  0  0  0  0  0  0  0  0  0  0  0
  -34.0409  -23.6149   17.0149 C   0  0  1  0  0  0  0  0  0  0  0  0
  -37.2477  -25.5949   16.6077 C   0  0  2  0  0  0  0  0  0  0  0  0
  -28.4146  -17.5259   23.0221 C   0  0  2  0  0  0  0  0  0  0  0  0
  -33.5097  -22.7162   15.8626 C   0  0  0  0  0  0  0  0  0  0  0  0
  -32.6868  -17.4626   23.3924 N   0  0  0  0  0  0  0  0  0  0  0  0
  -25.8618  -11.5427   20.2882 N   0  0  0  0  0  0  0  0  0  0  0  0
  -26.2364  -12.8264   20.1552 N   0  0  0  0  0  0  0  0  0  0  0  0
  -32.7169  -24.2485   19.0073 N   0  0  0  0  0  0  0  0  0  0  0  0
  -29.9656  -13.6220   20.3634 N   0  0  0  0  0  0  0  0  0  0  0  0
  -25.4652  -15.0534   20.3933 N   0  0  0  0  0  0  0  0  0  0  0  0
  -21.8835  -12.5769   21.5911 N   0  0  0  0  0  0  0  0  0  0  0  0
  -30.0710  -15.7059   21.4628 N   0  0  0  0  0  0  0  0  0  0  0  0
  -29.3488  -24.2293   18.8494 N   0  0  0  0  0  0  0  0  0  0  0  0
  -35.0905  -24.5447   16.6122 N   0  0  0  0  0  0  0  0  0  0  0  0
  -38.1672  -26.1340   17.6493 N   0  3  0  0  0  0  0  0  0  0  0  0
  -22.6554  -14.7171   21.3035 O   0  0  0  0  0  0  0  0  0  0  0  0
  -30.5732  -22.8171   20.2383 O   0  0  0  0  0  0  0  0  0  0  0  0
  -32.3368  -25.2634   16.9429 O   0  0  0  0  0  0  0  0  0  0  0  0
  -36.6928  -23.7813   18.1045 O   0  0  0  0  0  0  0  0  0  0  0  0
  -31.8506  -14.9478   20.1822 O   0  0  0  0  0  0  0  0  0  0  0  0
  -21.6210   -7.0137   21.7212 O   0  0  0  0  0  0  0  0  0  0  0  0
  -34.7062  -21.7956   24.3062 O   0  0  0  0  0  0  0  0  0  1  0  0
  -32.5567  -19.1502   24.9801 O   0  0  0  0  0  0  0  0  0  0  0  0
  -18.6243   -6.8680   26.3475 F   0  0  0  0  0  0  0  0  0  0  0  0
  -22.0727   -5.0787   23.6433 F   0  0  0  0  0  0  0  0  0  0  0  0
  -27.9286  -16.6594   22.0576 F   0  0  0  0  0  0  0  0  0  0  0  0
  1  2  1  0  0  0  0
  1  5  2  0  0  0  0
  2  6  2  0  0  0  0
  3  8  2  0  0  0  0
  3 17  1  0  0  0  0
  4  9  1  0  0  0  0
  4 17  2  0  0  0  0
  5 19  1  0  0  0  0
  6 21  1  0  0  0  0
  7 10  2  0  0  0  0
  7 20  1  0  0  0  0
  8 25  1  0  0  0  0
  9 25  2  0  0  0  0
 10 26  1  0  0  0  0
 11 12  2  0  0  0  0
 11 27  1  0  0  0  0
 12 28  1  0  0  0  0
 13 22  1  0  0  0  0
 13 26  2  0  0  0  0
 14 23  1  0  0  0  0
 14 31  2  0  0  0  0
 15 28  2  0  0  0  0
 15 29  1  0  0  0  0
 16 24  1  0  0  0  0
 16 65  2  0  0  0  0
 17 30  1  0  0  0  0
 18 30  1  0  0  0  0
 18 32  2  0  0  0  0
 18 33  1  0  0  0  0
 19 21  2  0  0  0  0
 19 38  1  0  0  0  0
 20 22  2  0  0  0  0
 20 39  1  0  0  0  0
 21 47  1  0  0  0  0
 22 40  1  0  0  0  0
 23 24  2  0  0  0  0
 23 63  1  0  0  0  0
 24 72  1  0  0  0  0
 25 81  1  0  0  0  0
 26 82  1  0  0  0  0
 27 29  2  0  0  0  0
 27 81  1  0  0  0  0
 28 84  1  0  0  0  0
 29 85  1  0  0  0  0
 30 66  2  0  0  0  0
 31 65  1  0  0  0  0
 31 83  1  0  0  0  0
 32 67  1  0  0  0  0
 32 70  1  0  0  0  0
 33 71  1  0  0  0  0
 33 76  2  0  0  0  0
 34 48  1  0  0  0  0
 34 73  1  0  0  0  0
 34 77  2  0  0  0  0
 35 61  1  0  0  0  0
 35 68  1  0  0  0  0
 35 78  2  0  0  0  0
 36 62  1  0  0  0  0
 36 74  1  0  0  0  0
 36 79  2  0  0  0  0
 37 69  1  0  0  0  0
 37 72  1  0  0  0  0
 37 80  2  0  0  0  0
 38 41  1  0  0  0  0
 39 48  1  0  0  0  0
 40 68  1  0  0  0  0
 41 43  1  0  0  0  0
 42 44  1  0  0  0  0
 42 45  1  0  0  0  0
 43 47  1  0  0  0  0
 44 49  1  0  0  0  0
 45 69  1  0  0  0  0
 46 49  1  0  0  0  0
 46 69  1  0  0  0  0
 47 73  1  0  0  0  0
 48 68  1  0  0  0  0
 49 67  1  0  0  0  0
 50 57  1  0  0  0  0
 51 62  1  0  0  0  0
 52 63  1  0  0  0  0
 53 64  1  0  0  0  0
 54 64  1  0  0  0  0
 55 64  1  0  0  0  0
 56 75  1  0  0  0  0
 57 63  1  0  0  0  0
 58 59  1  0  0  0  0
 58 60  1  0  0  0  0
 59 82  1  0  0  0  0
 60 83  1  0  0  0  0
 61 64  1  0  0  0  0
 61 74  1  0  0  0  0
 62 75  1  0  0  0  0
 63 86  1  0  0  0  0
 66 67  1  0  0  0  0
M  CHG  1  75   1
M  ISO  4  37 100  59 101  72 100  82 101
M  END
> <Batch ID>
0140

> <Smiles>
CCC(C)(F)c1cc(OCC[101CH2:1][101O:1]c2ccc3c(c2)CN(C(=O)C(NC(=O)C(C)NC)C(C)(C)C)C(C(=O)NC2CCCc4ccccc42)C3)ncc1[100NH:0][100C:0](=O)N1CCCC(n2nc(-c3ccc(Oc4ccc(F)cc4F)cc3)c(C(N)=O)c2N)C1

> <Shape>
0.211

> <Color>
0.188

> <Negative vol penalty>
0.000

$$$$

  -OEChem-04052321133D

 86 94  0     1  0  0  0  0  0999 V2000
  -26.3162  -22.3793   26.3842 C   0  0  0  0  0  0  0  0  0  0  0  0
  -26.6088  -23.0419   25.1964 C   0  0  0  0  0  0  0  0  0  0  0  0
  -24.6653  -10.1075   22.1521 C   0  0  0  0  0  0  0  0  0  0  0  0
  -24.6523  -11.5171   24.1142 C   0  0  0  0  0  0  0  0  0  0  0  0
  -25.3547  -22.8968   27.2512 C   0  0  0  0  0  0  0  0  0  0  0  0
  -25.9392  -24.2219   24.8744 C   0  0  0  0  0  0  0  0  0  0  0  0
  -29.0580  -27.8135   23.1372 C   0  0  0  0  0  0  0  0  0  0  0  0
  -24.3233   -9.0082   22.9395 C   0  0  0  0  0  0  0  0  0  0  0  0
  -24.3102  -10.4178   24.9017 C   0  0  0  0  0  0  0  0  0  0  0  0
  -29.4831  -27.7022   21.8141 C   0  0  0  0  0  0  0  0  0  0  0  0
  -21.5363   -7.7461   24.3793 C   0  0  0  0  0  0  0  0  0  0  0  0
  -20.5340   -6.8982   23.9084 C   0  0  0  0  0  0  0  0  0  0  0  0
  -27.8340  -29.3340   21.1532 C   0  0  0  0  0  0  0  0  0  0  0  0
  -27.0893  -20.3878   20.6465 C   0  0  0  0  0  0  0  0  0  0  0  0
  -22.0944   -5.0537   23.9081 C   0  0  0  0  0  0  0  0  0  0  0  0
  -24.8299  -11.3620   22.7394 C   0  0  0  0  0  0  0  0  0  0  0  0
  -24.3048  -13.3883   21.2814 C   0  0  0  0  0  0  0  0  0  0  0  0
  -24.6799  -24.0889   26.9442 C   0  0  0  0  0  0  0  0  0  0  0  0
  -28.0086  -28.6793   23.4772 C   0  0  0  0  0  0  0  0  0  0  0  0
  -24.9668  -24.7551   25.7374 C   0  0  0  0  0  0  0  0  0  0  0  0
  -27.3992  -29.4564   22.4818 C   0  0  0  0  0  0  0  0  0  0  0  0
  -26.9602  -21.7430   20.3631 C   0  0  0  0  0  0  0  0  0  0  0  0
  -28.0558  -22.4558   19.8890 C   0  0  0  0  0  0  0  0  0  0  0  0
  -24.1457   -9.1633   24.3143 C   0  0  0  0  0  0  0  0  0  0  0  0
  -28.8692  -28.4603   20.8214 C   0  0  0  0  0  0  0  0  0  0  0  0
  -22.8178   -7.2479   24.6146 C   0  0  0  0  0  0  0  0  0  0  0  0
  -20.8130   -5.5519   23.6728 C   0  0  0  0  0  0  0  0  0  0  0  0
  -23.0968   -5.9017   24.3791 C   0  0  0  0  0  0  0  0  0  0  0  0
  -25.1837  -12.4979   21.9266 C   0  0  0  0  0  0  0  0  0  0  0  0
  -29.2488  -21.7726   19.7168 C   0  0  0  0  0  0  0  0  0  0  0  0
  -28.3256  -19.7972   20.4402 C   0  0  0  0  0  0  0  0  0  0  0  0
  -25.1292  -14.2836   20.6447 C   0  0  0  0  0  0  0  0  0  0  0  0
  -22.8713  -13.4048   21.2595 C   0  0  0  0  0  0  0  0  0  0  0  0
  -25.1145  -28.3094   24.7385 C   0  0  0  0  0  0  0  0  0  0  0  0
  -25.1217  -31.5532   24.7279 C   0  0  0  0  0  0  0  0  0  0  0  0
  -26.3504  -34.4433   23.3921 C   0  0  0  0  0  0  0  0  0  0  0  0
  -29.5855  -17.6217   20.6012 C   0  0  0  0  0  0  0  0  0  0  0  0
  -23.6147  -24.5843   27.8900 C   0  0  0  0  0  0  0  0  0  0  0  0
  -27.5797  -28.8078   24.9131 C   0  0  0  0  0  0  0  0  0  0  0  0
  -26.2819  -30.4158   22.7977 C   0  0  0  0  0  0  0  0  0  0  0  0
  -23.2184  -26.0393   27.6528 C   0  0  0  0  0  0  0  0  0  0  0  0
  -30.1302  -14.1801   19.8689 C   0  0  0  0  0  0  0  0  0  0  0  0
  -22.9952  -26.2962   26.1659 C   0  0  0  0  0  0  0  0  0  0  0  0
  -28.8195  -13.5089   20.2859 C   0  0  0  0  0  0  0  0  0  0  0  0
  -30.5065  -15.3231   20.8100 C   0  0  0  0  0  0  0  0  0  0  0  0
  -28.1464  -15.6584   21.4319 C   0  0  0  0  0  0  0  0  0  0  0  0
  -24.2795  -26.0508   25.3647 C   0  0  1  0  0  0  0  0  0  0  0  0
  -26.1580  -29.3395   25.0668 C   0  0  1  0  0  0  0  0  0  0  0  0
  -27.6925  -14.5429   20.4763 C   0  0  2  0  0  0  0  0  0  0  0  0
  -25.6404  -22.4078   20.5759 C   0  0  0  0  0  0  0  0  0  0  0  0
  -30.4600  -22.4867   19.2114 C   0  0  0  0  0  0  0  0  0  0  0  0
  -26.1384  -36.9380   23.5620 C   0  0  0  0  0  0  0  0  0  0  0  0
  -29.9529  -28.0143   16.6846 C   0  0  0  0  0  0  0  0  0  0  0  0
  -22.4775  -31.4294   23.2102 C   0  0  0  0  0  0  0  0  0  0  0  0
  -22.8009  -33.8334   22.5902 C   0  0  0  0  0  0  0  0  0  0  0  0
  -22.5784  -33.1848   24.9886 C   0  0  0  0  0  0  0  0  0  0  0  0
  -29.1920  -34.7488   24.1608 C   0  0  0  0  0  0  0  0  0  0  0  0
  -27.9459  -23.9259   19.5720 C   0  0  0  0  0  0  0  0  0  0  0  0
  -27.2976  -24.2215   18.2131 C   0  0  0  0  0  0  0  0  0  0  0  0
  -27.2198  -25.6966   17.8317 C   0  0  0  0  0  0  0  0  0  0  0  0
  -28.3040  -28.5783   18.5143 C   0  0  0  0  0  0  0  0  0  1  0  0
  -24.7054  -32.6200   23.7442 C   0  0  1  0  0  0  0  0  0  0  0  0
  -26.8876  -35.7052   24.0430 C   0  0  2  0  0  0  0  0  0  0  0  0
  -28.5933  -27.7122   17.2936 C   0  0  2  0  0  0  0  0  0  0  0  0
  -23.1603  -32.7474   23.6267 C   0  0  0  0  0  0  0  0  0  0  0  0
  -26.4681  -12.7999   21.7188 N   0  0  0  0  0  0  0  0  0  0  0  0
  -29.4125  -20.4570   19.9811 N   0  0  0  0  0  0  0  0  0  0  0  0
  -26.4023  -13.8901   20.9358 N   0  0  0  0  0  0  0  0  0  0  0  0
  -25.8939  -30.5012   24.2153 N   0  0  0  0  0  0  0  0  0  0  0  0
  -29.3926  -16.2653   20.9385 N   0  0  0  0  0  0  0  0  0  0  0  0
  -24.8822  -15.3611   19.8699 N   0  0  0  0  0  0  0  0  0  0  0  0
  -22.1808  -12.4116   21.9674 N   0  0  0  0  0  0  0  0  0  0  0  0
  -28.4469  -18.4160   20.7322 N   0  0  0  0  0  0  0  0  0  0  0  0
  -25.1885  -27.1671   25.5126 N   0  0  0  0  0  0  0  0  0  0  0  0
  -25.3760  -33.8459   24.1634 N   0  0  0  0  0  0  0  0  0  0  0  0
  -28.3326  -35.8785   23.7223 N   0  3  0  0  0  0  0  0  0  0  0  0
  -28.5799  -26.2812   17.7145 N   0  3  0  0  0  0  0  0  0  0  0  0
  -22.2220  -14.2648   20.6173 O   0  0  0  0  0  0  0  0  0  0  0  0
  -24.3015  -28.5349   23.8498 O   0  0  0  0  0  0  0  0  0  0  0  0
  -24.7804  -31.6534   25.9090 O   0  0  0  0  0  0  0  0  0  0  0  0
  -26.7521  -34.0310   22.3062 O   0  0  0  0  0  0  0  0  0  0  0  0
  -30.6731  -18.0417   20.1979 O   0  0  0  0  0  0  0  0  0  0  0  0
  -23.8117   -8.0908   25.0829 O   0  0  0  0  0  0  0  0  0  0  0  0
  -29.2817  -28.3531   19.5291 O   0  0  0  0  0  0  0  0  0  1  0  0
  -19.8499   -4.7374   23.2220 F   0  0  0  0  0  0  0  0  0  0  0  0
  -24.3257   -5.4170   24.6044 F   0  0  0  0  0  0  0  0  0  0  0  0
  1  2  1  0  0  0  0
  1  5  2  0  0  0  0
  2  6  2  0  0  0  0
  3  8  2  0  0  0  0
  3 16  1  0  0  0  0
  4  9  1  0  0  0  0
  4 16  2  0  0  0  0
  5 18  1  0  0  0  0
  6 20  1  0  0  0  0
  7 10  2  0  0  0  0
  7 19  1  0  0  0  0
  8 24  1  0  0  0  0
  9 24  2  0  0  0  0
 10 25  1  0  0  0  0
 11 12  2  0  0  0  0
 11 26  1  0  0  0  0
 12 27  1  0  0  0  0
 13 21  1  0  0  0  0
 13 25  2  0  0  0  0
 14 22  2  0  0  0  0
 14 31  1  0  0  0  0
 15 27  2  0  0  0  0
 15 28  1  0  0  0  0
 16 29  1  0  0  0  0
 17 29  1  0  0  0  0
 17 32  2  0  0  0  0
 17 33  1  0  0  0  0
 18 20  2  0  0  0  0
 18 38  1  0  0  0  0
 19 21  2  0  0  0  0
 19 39  1  0  0  0  0
 20 47  1  0  0  0  0
 21 40  1  0  0  0  0
 22 23  1  0  0  0  0
 22 50  1  0  0  0  0
 23 30  2  0  0  0  0
 23 58  1  0  0  0  0
 24 83  1  0  0  0  0
 25 84  1  0  0  0  0
 26 28  2  0  0  0  0
 26 83  1  0  0  0  0
 27 85  1  0  0  0  0
 28 86  1  0  0  0  0
 29 66  2  0  0  0  0
 30 51  1  0  0  0  0
 30 67  1  0  0  0  0
 31 67  2  0  0  0  0
 31 73  1  0  0  0  0
 32 68  1  0  0  0  0
 32 71  1  0  0  0  0
 33 72  1  0  0  0  0
 33 78  2  0  0  0  0
 34 48  1  0  0  0  0
 34 74  1  0  0  0  0
 34 79  2  0  0  0  0
 35 62  1  0  0  0  0
 35 69  1  0  0  0  0
 35 80  2  0  0  0  0
 36 63  1  0  0  0  0
 36 75  1  0  0  0  0
 36 81  2  0  0  0  0
 37 70  1  0  0  0  0
 37 73  1  0  0  0  0
 37 82  2  0  0  0  0
 38 41  1  0  0  0  0
 39 48  1  0  0  0  0
 40 69  1  0  0  0  0
 41 43  1  0  0  0  0
 42 44  1  0  0  0  0
 42 45  1  0  0  0  0
 43 47  1  0  0  0  0
 44 49  1  0  0  0  0
 45 70  1  0  0  0  0
 46 49  1  0  0  0  0
 46 70  1  0  0  0  0
 47 74  1  0  0  0  0
 48 69  1  0  0  0  0
 49 68  1  0  0  0  0
 52 63  1  0  0  0  0
 53 64  1  0  0  0  0
 54 65  1  0  0  0  0
 55 65  1  0  0  0  0
 56 65  1  0  0  0  0
 57 76  1  0  0  0  0
 58 59  1  0  0  0  0
 59 60  1  0  0  0  0
 60 77  1  0  0  0  0
 61 64  1  0  0  0  0
 61 84  1  0  0  0  0
 62 65  1  0  0  0  0
 62 75  1  0  0  0  0
 63 76  1  0  0  0  0
 64 77  1  0  0  0  0
 66 68  1  0  0  0  0
M  CHG  2  76   1  77   1
M  ISO  4  37 100  61 101  73 100  84 101
M  END
> <Batch ID>
0140

> <Smiles>
CNC(C)C(=O)NC(C(=O)N1Cc2cc([101O:1][101CH2:1]C(C)NCCCc3c(C)cc([100NH:0][100C:0](=O)N4CCCC(n5nc(-c6ccc(Oc7ccc(F)cc7F)cc6)c(C(N)=O)c5N)C4)nc3C)ccc2CC1C(=O)NC1CCCc2ccccc21)C(C)(C)C

> <Shape>
0.271

> <Color>
0.138

> <Negative vol penalty>
0.000

$$$$

  -OEChem-04052321133D

 83 92  0     1  0  0  0  0  0999 V2000
  -17.2026  -24.9411   20.9805 C   0  0  0  0  0  0  0  0  0  0  0  0
  -17.4795  -23.6960   20.4250 C   0  0  0  0  0  0  0  0  0  0  0  0
  -27.5730  -23.3095   20.6779 C   0  0  0  0  0  0  0  0  0  0  0  0
  -28.8426  -23.2827   18.6226 C   0  0  0  0  0  0  0  0  0  0  0  0
  -18.2057  -25.6454   21.6450 C   0  0  0  0  0  0  0  0  0  0  0  0
  -18.7602  -23.1550   20.5327 C   0  0  0  0  0  0  0  0  0  0  0  0
  -22.1283  -16.8640   21.1608 C   0  0  0  0  0  0  0  0  0  0  0  0
  -27.6388  -24.7026   20.7004 C   0  0  0  0  0  0  0  0  0  0  0  0
  -28.9084  -24.6758   18.6450 C   0  0  0  0  0  0  0  0  0  0  0  0
  -23.1500  -16.1251   20.5658 C   0  0  0  0  0  0  0  0  0  0  0  0
  -26.0870  -27.2944   19.1813 C   0  0  0  0  0  0  0  0  0  0  0  0
  -24.9163  -27.9940   19.4738 C   0  0  0  0  0  0  0  0  0  0  0  0
  -24.7830  -17.3967   21.8050 C   0  0  0  0  0  0  0  0  0  0  0  0
  -27.2885  -14.3730   17.9658 C   0  0  0  0  0  0  0  0  0  0  0  0
  -25.9891  -28.9846   21.3986 C   0  0  0  0  0  0  0  0  0  0  0  0
  -28.1750  -22.5995   19.6390 C   0  0  0  0  0  0  0  0  0  0  0  0
  -27.1150  -20.3654   19.0124 C   0  0  0  0  0  0  0  0  0  0  0  0
  -19.4968  -25.1084   21.7693 C   0  0  0  0  0  0  0  0  0  0  0  0
  -22.4273  -17.8838   22.0757 C   0  0  0  0  0  0  0  0  0  0  0  0
  -19.7819  -23.8534   21.1983 C   0  0  0  0  0  0  0  0  0  0  0  0
  -23.7632  -18.1453   22.4122 C   0  0  0  0  0  0  0  0  0  0  0  0
  -28.2507  -13.3241   17.8281 C   0  0  0  0  0  0  0  0  0  0  0  0
  -28.3064  -25.3858   19.6839 C   0  0  0  0  0  0  0  0  0  0  0  0
  -24.4777  -16.3934   20.8857 C   0  0  0  0  0  0  0  0  0  0  0  0
  -27.2088  -27.4398   19.9975 C   0  0  0  0  0  0  0  0  0  0  0  0
  -24.8673  -28.8391   20.5824 C   0  0  0  0  0  0  0  0  0  0  0  0
  -27.1598  -28.2850   21.1061 C   0  0  0  0  0  0  0  0  0  0  0  0
  -28.1079  -21.1604   19.6156 C   0  0  0  0  0  0  0  0  0  0  0  0
  -27.8348  -12.3189   18.6595 C   0  0  0  0  0  0  0  0  0  0  0  0
  -26.3245  -13.9657   18.8751 C   0  0  0  0  0  0  0  0  0  0  0  0
  -27.5058  -19.0741   19.2697 C   0  0  0  0  0  0  0  0  0  0  0  0
  -25.9441  -20.7590   18.2845 C   0  0  0  0  0  0  0  0  0  0  0  0
  -21.9547  -21.0258   22.1660 C   0  0  0  0  0  0  0  0  0  0  0  0
  -23.1491  -20.7264   25.1670 C   0  0  0  0  0  0  0  0  0  0  0  0
  -25.0622  -18.9429   27.3593 C   0  0  0  0  0  0  0  0  0  0  0  0
  -31.4614  -15.1454   19.5234 C   0  0  0  0  0  0  0  0  0  0  0  0
  -20.5609  -25.9279   22.4555 C   0  0  0  0  0  0  0  0  0  0  0  0
  -21.3125  -18.6537   22.7290 C   0  0  0  0  0  0  0  0  0  0  0  0
  -24.1363  -19.2159   23.4037 C   0  0  0  0  0  0  0  0  0  0  0  0
  -28.2102  -10.9587   19.0919 C   0  0  0  0  0  0  0  0  0  0  0  0
  -21.7929  -25.1180   22.8511 C   0  0  0  0  0  0  0  0  0  0  0  0
  -26.8991  -10.4676   19.7588 C   0  0  0  0  0  0  0  0  0  0  0  0
  -31.0854  -17.2705   22.3552 C   0  0  0  0  0  0  0  0  0  0  0  0
  -22.2430  -24.2315   21.6942 C   0  0  0  0  0  0  0  0  0  0  0  0
  -30.2009  -18.4089   21.8434 C   0  0  0  0  0  0  0  0  0  0  0  0
  -32.0574  -16.7849   21.2822 C   0  0  0  0  0  0  0  0  0  0  0  0
  -30.5444  -17.5443   19.4911 C   0  0  0  0  0  0  0  0  0  0  0  0
  -21.1522  -23.2222   21.3159 C   0  0  1  0  0  0  0  0  0  0  0  0
  -21.7562  -20.0138   23.2588 C   0  0  1  0  0  0  0  0  0  0  0  0
  -29.5092  -18.0300   20.5201 C   0  0  2  0  0  0  0  0  0  0  0  0
  -26.1312  -11.7429   20.1880 C   0  0  1  0  0  0  0  0  0  0  0  0
  -26.3714  -12.1080   21.6459 C   0  0  0  0  0  0  0  0  0  0  0  0
  -25.8813  -18.9677   29.7312 C   0  0  0  0  0  0  0  0  0  0  0  0
  -25.1726  -22.8924   24.4430 C   0  0  0  0  0  0  0  0  0  0  0  0
  -26.5163  -22.2073   26.4413 C   0  0  0  0  0  0  0  0  0  0  0  0
  -24.2044  -23.0951   26.7399 C   0  0  0  0  0  0  0  0  0  0  0  0
  -23.7184  -16.3783   27.9725 C   0  0  0  0  0  0  0  0  0  0  0  0
  -29.4414  -13.3270   16.9600 C   0  0  0  0  0  0  0  0  0  0  0  0
  -25.0932  -14.6596   19.3787 C   0  0  0  0  0  0  0  0  0  1  0  0
  -30.7621  -13.6145   17.6996 C   0  0  0  0  0  0  0  0  0  0  0  0
  -24.5282  -20.7791   25.7790 C   0  0  1  0  0  0  0  0  0  0  0  0
  -24.7987  -18.4803   28.7809 C   0  0  2  0  0  0  0  0  0  0  0  0
  -25.0988  -22.2246   25.8306 C   0  0  0  0  0  0  0  0  0  0  0  0
  -29.0580  -20.4349   20.2113 N   0  0  0  0  0  0  0  0  0  0  0  0
  -26.6936  -12.7334   19.2808 N   0  0  0  0  0  0  0  0  0  0  0  0
  -28.6638  -19.1704   19.9838 N   0  0  0  0  0  0  0  0  0  0  0  0
  -23.0108  -19.9456   24.0107 N   0  0  0  0  0  0  0  0  0  0  0  0
  -31.3378  -16.4403   20.0536 N   0  0  0  0  0  0  0  0  0  0  0  0
  -26.9684  -17.8770   18.9525 N   0  0  0  0  0  0  0  0  0  0  0  0
  -25.6929  -22.1271   18.1123 N   0  0  0  0  0  0  0  0  0  0  0  0
  -21.1263  -22.1276   22.2622 N   0  0  0  0  0  0  0  0  0  0  0  0
  -24.4215  -20.1320   27.0822 N   0  0  0  0  0  0  0  0  0  0  0  0
  -30.7413  -14.9003   18.3605 N   0  0  0  0  0  0  0  0  0  0  0  0
  -24.7553  -16.9918   28.8417 N   0  3  0  0  0  0  0  0  0  0  0  0
  -25.1356  -19.9225   17.8152 O   0  0  0  0  0  0  0  0  0  0  0  0
  -22.7981  -20.8228   21.3005 O   0  0  0  0  0  0  0  0  0  0  0  0
  -22.2270  -21.3491   25.6995 O   0  0  0  0  0  0  0  0  0  0  0  0
  -25.7689  -18.3144   26.5745 O   0  0  0  0  0  0  0  0  0  0  0  0
  -32.1574  -14.2709   20.0503 O   0  0  0  0  0  0  0  0  0  0  0  0
  -28.3706  -26.7452   19.7054 O   0  0  0  0  0  0  0  0  0  0  0  0
  -25.4769  -15.6742   20.3059 O   0  0  0  0  0  0  0  0  0  1  0  0
  -23.7435  -29.5121   20.8622 F   0  0  0  0  0  0  0  0  0  0  0  0
  -28.2347  -28.4297   21.8932 F   0  0  0  0  0  0  0  0  0  0  0  0
  1  2  1  0  0  0  0
  1  5  2  0  0  0  0
  2  6  2  0  0  0  0
  3  8  2  0  0  0  0
  3 16  1  0  0  0  0
  4  9  1  0  0  0  0
  4 16  2  0  0  0  0
  5 18  1  0  0  0  0
  6 20  1  0  0  0  0
  7 10  2  0  0  0  0
  7 19  1  0  0  0  0
  8 23  1  0  0  0  0
  9 23  2  0  0  0  0
 10 24  1  0  0  0  0
 11 12  2  0  0  0  0
 11 25  1  0  0  0  0
 12 26  1  0  0  0  0
 13 21  1  0  0  0  0
 13 24  2  0  0  0  0
 14 22  1  0  0  0  0
 14 30  2  0  0  0  0
 15 26  2  0  0  0  0
 15 27  1  0  0  0  0
 16 28  1  0  0  0  0
 17 28  1  0  0  0  0
 17 31  2  0  0  0  0
 17 32  1  0  0  0  0
 18 20  2  0  0  0  0
 18 37  1  0  0  0  0
 19 21  2  0  0  0  0
 19 38  1  0  0  0  0
 20 48  1  0  0  0  0
 21 39  1  0  0  0  0
 22 29  2  0  0  0  0
 22 58  1  0  0  0  0
 23 80  1  0  0  0  0
 24 81  1  0  0  0  0
 25 27  2  0  0  0  0
 25 80  1  0  0  0  0
 26 82  1  0  0  0  0
 27 83  1  0  0  0  0
 28 64  2  0  0  0  0
 29 40  1  0  0  0  0
 29 65  1  0  0  0  0
 30 59  1  0  0  0  0
 30 65  1  0  0  0  0
 31 66  1  0  0  0  0
 31 69  1  0  0  0  0
 32 70  1  0  0  0  0
 32 75  2  0  0  0  0
 33 49  1  0  0  0  0
 33 71  1  0  0  0  0
 33 76  2  0  0  0  0
 34 61  1  0  0  0  0
 34 67  1  0  0  0  0
 34 77  2  0  0  0  0
 35 62  1  0  0  0  0
 35 72  1  0  0  0  0
 35 78  2  0  0  0  0
 36 68  1  0  0  0  0
 36 73  1  0  0  0  0
 36 79  2  0  0  0  0
 37 41  1  0  0  0  0
 38 49  1  0  0  0  0
 39 67  1  0  0  0  0
 40 42  1  0  0  0  0
 41 44  1  0  0  0  0
 42 51  1  0  0  0  0
 43 45  1  0  0  0  0
 43 46  1  0  0  0  0
 44 48  1  0  0  0  0
 45 50  1  0  0  0  0
 46 68  1  0  0  0  0
 47 50  1  0  0  0  0
 47 68  1  0  0  0  0
 48 71  1  0  0  0  0
 49 67  1  0  0  0  0
 50 66  1  0  0  0  0
 51 52  1  0  0  0  0
 51 65  1  0  0  0  0
 53 62  1  0  0  0  0
 54 63  1  0  0  0  0
 55 63  1  0  0  0  0
 56 63  1  0  0  0  0
 57 74  1  0  0  0  0
 58 60  1  0  0  0  0
 59 81  1  0  0  0  0
 60 73  1  0  0  0  0
 61 63  1  0  0  0  0
 61 72  1  0  0  0  0
 62 74  1  0  0  0  0
 64 66  1  0  0  0  0
M  CHG  1  74   1
M  ISO  4  36 100  59 101  73 100  81 101
M  END
> <Batch ID>
0140

> <Smiles>
CNC(C)C(=O)NC(C(=O)N1Cc2cc([101O:1][101CH2:1]c3cc(CC[100NH:0][100C:0](=O)N4CCCC(n5nc(-c6ccc(Oc7ccc(F)cc7F)cc6)c(C(N)=O)c5N)C4)c4n3C(C)CC4)ccc2CC1C(=O)NC1CCCc2ccccc21)C(C)(C)C

> <Shape>
0.199

> <Color>
0.084

> <Negative vol penalty>
0.000

$$$$

  -OEChem-04052321133D

 87 95  0     1  0  0  0  0  0999 V2000
  -22.6915  -17.0972   14.3772 C   0  0  0  0  0  0  0  0  0  0  0  0
  -24.0118  -17.0127   14.8074 C   0  0  0  0  0  0  0  0  0  0  0  0
  -26.4259  -28.2499   18.9869 C   0  0  0  0  0  0  0  0  0  0  0  0
  -26.7771  -27.8531   21.3441 C   0  0  0  0  0  0  0  0  0  0  0  0
  -21.6522  -16.8014   15.2582 C   0  0  0  0  0  0  0  0  0  0  0  0
  -24.2935  -16.6332   16.1193 C   0  0  0  0  0  0  0  0  0  0  0  0
  -29.0716  -13.3240   18.0492 C   0  0  0  0  0  0  0  0  0  0  0  0
  -26.1772  -29.5968   19.2507 C   0  0  0  0  0  0  0  0  0  0  0  0
  -26.5285  -29.2001   21.6079 C   0  0  0  0  0  0  0  0  0  0  0  0
  -30.2913  -13.6829   18.6213 C   0  0  0  0  0  0  0  0  0  0  0  0
  -23.8380  -31.2278   21.8918 C   0  0  0  0  0  0  0  0  0  0  0  0
  -22.9981  -31.5342   22.9625 C   0  0  0  0  0  0  0  0  0  0  0  0
  -29.3688  -13.2958   20.8164 C   0  0  0  0  0  0  0  0  0  0  0  0
  -33.0257  -15.7440   21.4508 C   0  0  0  0  0  0  0  0  0  0  0  0
  -24.7898  -32.7665   24.0153 C   0  0  0  0  0  0  0  0  0  0  0  0
  -26.7258  -27.3780   20.0336 C   0  0  0  0  0  0  0  0  0  0  0  0
  -28.2255  -25.3911   19.4766 C   0  0  0  0  0  0  0  0  0  0  0  0
  -21.9216  -16.4088   16.5788 C   0  0  0  0  0  0  0  0  0  0  0  0
  -27.9862  -12.9582   18.8582 C   0  0  0  0  0  0  0  0  0  0  0  0
  -23.2568  -16.3332   17.0192 C   0  0  0  0  0  0  0  0  0  0  0  0
  -28.1372  -12.9302   20.2520 C   0  0  0  0  0  0  0  0  0  0  0  0
  -33.1980  -17.0898   21.7548 C   0  0  0  0  0  0  0  0  0  0  0  0
  -32.1775  -17.9944   21.4831 C   0  0  0  0  0  0  0  0  0  0  0  0
  -26.2285  -30.0719   20.5611 C   0  0  0  0  0  0  0  0  0  0  0  0
  -30.4392  -13.6716   20.0052 C   0  0  0  0  0  0  0  0  0  0  0  0
  -25.1538  -31.6906   21.8829 C   0  0  0  0  0  0  0  0  0  0  0  0
  -23.4740  -32.3035   24.0242 C   0  0  0  0  0  0  0  0  0  0  0  0
  -25.6297  -32.4600   22.9446 C   0  0  0  0  0  0  0  0  0  0  0  0
  -26.9821  -25.9865   19.7619 C   0  0  0  0  0  0  0  0  0  0  0  0
  -31.0136  -17.5064   20.9113 C   0  0  0  0  0  0  0  0  0  0  0  0
  -31.8238  -15.3566   20.8805 C   0  0  0  0  0  0  0  0  0  1  0  0
  -27.9358  -24.0606   19.2966 C   0  0  0  0  0  0  0  0  0  0  0  0
  -29.5260  -25.9873   19.3827 C   0  0  0  0  0  0  0  0  0  0  0  0
  -25.0686  -14.1172   19.3559 C   0  0  0  0  0  0  0  0  0  0  0  0
  -24.7330  -11.4367   21.1515 C   0  0  0  0  0  0  0  0  0  0  0  0
  -26.2224   -8.9614   22.9685 C   0  0  0  0  0  0  0  0  0  0  0  0
  -25.2930  -19.4005   20.8600 C   0  0  0  0  0  0  0  0  0  0  0  0
  -20.7636  -16.1447   17.5082 C   0  0  0  0  0  0  0  0  0  0  0  0
  -26.6852  -12.5480   18.2245 C   0  0  0  0  0  0  0  0  0  0  0  0
  -27.0088  -12.5257   21.1639 C   0  0  0  0  0  0  0  0  0  0  0  0
  -21.1585  -15.3877   18.7736 C   0  0  0  0  0  0  0  0  0  0  0  0
  -23.4907  -21.6943   18.8188 C   0  0  0  0  0  0  0  0  0  0  0  0
  -22.4137  -15.9968   19.3902 C   0  0  0  0  0  0  0  0  0  0  0  0
  -24.3375  -22.9675   18.8638 C   0  0  0  0  0  0  0  0  0  0  0  0
  -23.5019  -20.9613   20.1584 C   0  0  0  0  0  0  0  0  0  0  0  0
  -25.6917  -21.9345   20.7341 C   0  0  0  0  0  0  0  0  0  0  0  0
  -23.6035  -15.9012   18.4275 C   0  0  1  0  0  0  0  0  0  0  0  0
  -25.4922  -12.6883   19.1649 C   0  0  1  0  0  0  0  0  0  0  0  0
  -25.7565  -22.6788   19.3894 C   0  0  2  0  0  0  0  0  0  0  0  0
  -34.5649  -17.1935   23.8542 C   0  0  0  0  0  0  0  0  0  0  0  0
  -25.6854   -6.9353   24.3483 C   0  0  0  0  0  0  0  0  0  0  0  0
  -32.0871  -20.2370   19.3929 C   0  0  0  0  0  0  0  0  0  0  0  0
  -33.1353  -21.7381   21.0993 C   0  0  0  0  0  0  0  0  0  0  0  0
  -23.8592  -13.2388   23.4534 C   0  0  0  0  0  0  0  0  0  0  0  0
  -24.2573  -11.3216   25.0135 C   0  0  0  0  0  0  0  0  0  0  0  0
  -22.5352  -11.1301   23.2189 C   0  0  0  0  0  0  0  0  0  0  0  0
  -27.7291   -7.1794   21.1484 C   0  0  0  0  0  0  0  0  0  0  0  0
  -34.4835  -17.5358   22.3694 C   0  0  0  0  0  0  0  0  0  0  0  0
  -32.3440  -19.4436   21.8020 C   0  0  0  0  0  0  0  0  0  0  0  0
  -27.8232  -17.3111   20.3402 C   0  0  0  0  0  0  0  0  0  0  0  0
  -28.9306  -18.1430   19.6941 C   0  0  0  0  0  0  0  0  0  0  0  0
  -27.1896  -17.9642   21.5666 C   0  0  0  0  0  0  0  0  0  0  0  0
  -24.9851  -11.0792   22.5963 C   0  0  1  0  0  0  0  0  0  0  0  0
  -26.0344   -7.4551   22.9624 C   0  0  2  0  0  0  0  0  0  0  0  0
  -32.9530  -20.2849   20.6543 C   0  0  0  0  0  0  0  0  0  0  0  0
  -23.9301  -11.7020   23.5537 C   0  0  0  0  0  0  0  0  0  0  0  0
  -25.9774  -25.1064   19.7639 N   0  0  0  0  0  0  0  0  0  0  0  0
  -30.8097  -16.2062   20.6018 N   0  0  0  0  0  0  0  0  0  0  0  0
  -26.5890  -23.9445   19.4777 N   0  0  0  0  0  0  0  0  0  0  0  0
  -25.7546  -12.1391   20.4967 N   0  0  0  0  0  0  0  0  0  0  0  0
  -24.8771  -20.7167   20.5998 N   0  0  0  0  0  0  0  0  0  0  0  0
  -28.7043  -22.9903   19.0027 N   0  0  0  0  0  0  0  0  0  0  0  0
  -29.6453  -27.3673   19.5965 N   0  0  0  0  0  0  0  0  0  0  0  0
  -29.9704  -18.4235   20.6295 N   0  0  0  0  0  0  0  0  0  0  0  0
  -24.1464  -14.5597   18.4267 N   0  0  0  0  0  0  0  0  0  0  0  0
  -25.0552   -9.6230   22.6504 N   0  0  0  0  0  0  0  0  0  0  0  0
  -26.6135  -19.2563   21.2678 N   0  0  0  0  0  0  0  0  0  0  0  0
  -27.2823   -6.7792   22.5075 N   0  3  0  0  0  0  0  0  0  0  0  0
  -30.5495  -25.3190   19.1009 O   0  0  0  0  0  0  0  0  0  0  0  0
  -25.5421  -14.7696   20.2789 O   0  0  0  0  0  0  0  0  0  0  0  0
  -23.6718  -11.0986   20.6212 O   0  0  0  0  0  0  0  0  0  0  0  0
  -27.2961   -9.4977   23.2330 O   0  0  0  0  0  0  0  0  0  0  0  0
  -24.5446  -18.4254   20.7328 O   0  0  0  0  0  0  0  0  0  0  0  0
  -25.9862  -31.3862   20.8189 O   0  0  0  0  0  0  0  0  0  0  0  0
  -31.6285  -14.0221   20.5662 O   0  0  0  0  0  0  0  0  0  1  0  0
  -22.6669  -32.5990   25.0515 F   0  0  0  0  0  0  0  0  0  0  0  0
  -26.8925  -32.9085   22.9411 F   0  0  0  0  0  0  0  0  0  0  0  0
  1  2  1  0  0  0  0
  1  5  2  0  0  0  0
  2  6  2  0  0  0  0
  3  8  2  0  0  0  0
  3 16  1  0  0  0  0
  4  9  1  0  0  0  0
  4 16  2  0  0  0  0
  5 18  1  0  0  0  0
  6 20  1  0  0  0  0
  7 10  2  0  0  0  0
  7 19  1  0  0  0  0
  8 24  1  0  0  0  0
  9 24  2  0  0  0  0
 10 25  1  0  0  0  0
 11 12  2  0  0  0  0
 11 26  1  0  0  0  0
 12 27  1  0  0  0  0
 13 21  1  0  0  0  0
 13 25  2  0  0  0  0
 14 22  1  0  0  0  0
 14 31  2  0  0  0  0
 15 27  2  0  0  0  0
 15 28  1  0  0  0  0
 16 29  1  0  0  0  0
 17 29  1  0  0  0  0
 17 32  2  0  0  0  0
 17 33  1  0  0  0  0
 18 20  2  0  0  0  0
 18 38  1  0  0  0  0
 19 21  2  0  0  0  0
 19 39  1  0  0  0  0
 20 47  1  0  0  0  0
 21 40  1  0  0  0  0
 22 23  2  0  0  0  0
 22 58  1  0  0  0  0
 23 30  1  0  0  0  0
 23 59  1  0  0  0  0
 24 84  1  0  0  0  0
 25 85  1  0  0  0  0
 26 28  2  0  0  0  0
 26 84  1  0  0  0  0
 27 86  1  0  0  0  0
 28 87  1  0  0  0  0
 29 67  2  0  0  0  0
 30 68  2  0  0  0  0
 30 74  1  0  0  0  0
 31 68  1  0  0  0  0
 31 85  1  0  0  0  0
 32 69  1  0  0  0  0
 32 72  1  0  0  0  0
 33 73  1  0  0  0  0
 33 79  2  0  0  0  0
 34 48  1  0  0  0  0
 34 75  1  0  0  0  0
 34 80  2  0  0  0  0
 35 63  1  0  0  0  0
 35 70  1  0  0  0  0
 35 81  2  0  0  0  0
 36 64  1  0  0  0  0
 36 76  1  0  0  0  0
 36 82  2  0  0  0  0
 37 71  1  0  0  0  0
 37 77  1  0  0  0  0
 37 83  2  0  0  0  0
 38 41  1  0  0  0  0
 39 48  1  0  0  0  0
 40 70  1  0  0  0  0
 41 43  1  0  0  0  0
 42 44  1  0  0  0  0
 42 45  1  0  0  0  0
 43 47  1  0  0  0  0
 44 49  1  0  0  0  0
 45 71  1  0  0  0  0
 46 49  1  0  0  0  0
 46 71  1  0  0  0  0
 47 75  1  0  0  0  0
 48 70  1  0  0  0  0
 49 69  1  0  0  0  0
 50 58  1  0  0  0  0
 51 64  1  0  0  0  0
 52 65  1  0  0  0  0
 53 65  1  0  0  0  0
 54 66  1  0  0  0  0
 55 66  1  0  0  0  0
 56 66  1  0  0  0  0
 57 78  1  0  0  0  0
 59 65  1  0  0  0  0
 60 61  1  0  0  0  0
 60 62  1  0  0  0  0
 61 74  1  0  0  0  0
 62 77  1  0  0  0  0
 63 66  1  0  0  0  0
 63 76  1  0  0  0  0
 64 78  1  0  0  0  0
 67 69  1  0  0  0  0
M  CHG  1  78   1
M  ISO  4  31 101  37 100  77 100  85 101
M  END
> <Batch ID>
0140

> <Smiles>
CCc1c[101c:1]([101O:1]c2ccc3c(c2)CN(C(=O)C(NC(=O)C(C)NC)C(C)(C)C)C(C(=O)NC2CCCc4ccccc42)C3)nc(NCCC[100NH:0][100C:0](=O)N2CCCC(n3nc(-c4ccc(Oc5ccc(F)cc5F)cc4)c(C(N)=O)c3N)C2)c1CC(C)C

> <Shape>
0.234

> <Color>
0.085

> <Negative vol penalty>
0.000

$$$$

  -OEChem-04052321133D

 87 96  0     1  0  0  0  0  0999 V2000
  -27.9785  -36.9487   23.1860 C   0  0  0  0  0  0  0  0  0  0  0  0
  -28.5554  -35.9386   22.4229 C   0  0  0  0  0  0  0  0  0  0  0  0
  -24.2334  -12.2825   24.1823 C   0  0  0  0  0  0  0  0  0  0  0  0
  -24.3852  -14.6934   24.1425 C   0  0  0  0  0  0  0  0  0  0  0  0
  -27.0891  -36.6257   24.2100 C   0  0  0  0  0  0  0  0  0  0  0  0
  -28.2440  -34.6047   22.6841 C   0  0  0  0  0  0  0  0  0  0  0  0
  -27.4209  -28.3106   19.3642 C   0  0  0  0  0  0  0  0  0  0  0  0
  -23.8023  -12.3315   25.5079 C   0  0  0  0  0  0  0  0  0  0  0  0
  -23.9540  -14.7424   25.4681 C   0  0  0  0  0  0  0  0  0  0  0  0
  -27.8605  -26.9894   19.4359 C   0  0  0  0  0  0  0  0  0  0  0  0
  -22.5477  -15.5226   28.7288 C   0  0  0  0  0  0  0  0  0  0  0  0
  -21.5743  -16.4650   29.0605 C   0  0  0  0  0  0  0  0  0  0  0  0
  -26.2499  -26.5544   21.1783 C   0  0  0  0  0  0  0  0  0  0  0  0
  -28.4071  -20.0044   19.4414 C   0  0  0  0  0  0  0  0  0  0  0  0
  -20.0546  -15.4520   27.4790 C   0  0  0  0  0  0  0  0  0  0  0  0
  -30.9179  -19.5068   20.4561 C   0  0  0  0  0  0  0  0  0  0  0  0
  -24.5249  -13.4635   23.4995 C   0  0  0  0  0  0  0  0  0  0  0  0
  -24.1692  -13.4450   20.9735 C   0  0  0  0  0  0  0  0  0  0  0  0
  -26.7592  -35.2877   24.4776 C   0  0  0  0  0  0  0  0  0  0  0  0
  -26.3982  -28.7672   20.2080 C   0  0  0  0  0  0  0  0  0  0  0  0
  -27.3504  -34.2634   23.7136 C   0  0  0  0  0  0  0  0  0  0  0  0
  -25.7973  -27.8811   21.1135 C   0  0  0  0  0  0  0  0  0  0  0  0
  -30.3345  -18.5699   19.6150 C   0  0  0  0  0  0  0  0  0  0  0  0
  -29.0655  -18.8256   19.1047 C   0  0  0  0  0  0  0  0  0  0  0  0
  -23.6626  -13.5614   26.1509 C   0  0  0  0  0  0  0  0  0  0  0  0
  -27.2770  -26.1119   20.3450 C   0  0  0  0  0  0  0  0  0  0  0  0
  -22.2746  -14.5450   27.7720 C   0  0  0  0  0  0  0  0  0  0  0  0
  -20.3278  -16.4297   28.4357 C   0  0  0  0  0  0  0  0  0  0  0  0
  -21.0280  -14.5096   27.1472 C   0  0  0  0  0  0  0  0  0  0  0  0
  -24.9708  -13.4135   22.1303 C   0  0  0  0  0  0  0  0  0  0  0  0
  -25.0637  -13.3724   19.9338 C   0  0  0  0  0  0  0  0  0  0  0  0
  -29.0392  -20.9050   20.2870 C   0  0  0  0  0  0  0  0  0  0  0  0
  -22.7434  -13.5323   20.8499 C   0  0  0  0  0  0  0  0  0  0  0  0
  -26.1841  -30.9825   22.4774 C   0  0  0  0  0  0  0  0  0  0  0  0
  -23.0387  -30.1925   22.4080 C   0  0  0  0  0  0  0  0  0  0  0  0
  -20.6508  -27.8685   21.6709 C   0  0  0  0  0  0  0  0  0  0  0  0
  -30.8418  -14.8543   19.4152 C   0  0  0  0  0  0  0  0  0  0  0  0
  -25.8291  -34.9850   25.6257 C   0  0  0  0  0  0  0  0  0  0  0  0
  -25.9171  -30.1882   20.0997 C   0  0  0  0  0  0  0  0  0  0  0  0
  -24.6821  -28.3164   22.0274 C   0  0  0  0  0  0  0  0  0  0  0  0
  -25.2635  -33.5675   25.5938 C   0  0  0  0  0  0  0  0  0  0  0  0
  -29.3911  -11.6558   18.8304 C   0  0  0  0  0  0  0  0  0  0  0  0
  -26.3719  -32.5565   25.3181 C   0  0  0  0  0  0  0  0  0  0  0  0
  -28.0214  -11.7464   19.5054 C   0  0  0  0  0  0  0  0  0  0  0  0
  -26.2856  -16.9738   17.2077 C   0  0  0  0  0  0  0  0  0  0  0  0
  -30.4585  -12.4151   19.6153 C   0  0  0  0  0  0  0  0  0  0  0  0
  -28.7578  -13.9126   20.5843 C   0  0  0  0  0  0  0  0  0  0  0  0
  -27.0185  -32.8060   23.9502 C   0  0  1  0  0  0  0  0  0  0  0  0
  -25.2208  -30.6813   21.3644 C   0  0  1  0  0  0  0  0  0  0  0  0
  -27.6372  -13.2089   19.8000 C   0  0  2  0  0  0  0  0  0  0  0  0
  -27.1312  -18.1185   17.6961 C   0  0  1  0  0  0  0  0  0  0  0  0
  -25.8590  -17.7477   18.4324 C   0  0  0  0  0  0  0  0  0  0  0  0
  -25.9551  -17.0574   19.7673 C   0  0  0  0  0  0  0  0  0  0  0  0
  -24.6841  -18.6801   18.3040 C   0  0  0  0  0  0  0  0  0  0  0  0
  -18.1706  -27.4965   21.7581 C   0  0  0  0  0  0  0  0  0  0  0  0
  -23.2156  -29.7352   25.4196 C   0  0  0  0  0  0  0  0  0  0  0  0
  -21.0504  -28.4852   25.2866 C   0  0  0  0  0  0  0  0  0  0  0  0
  -21.1357  -30.8987   24.6615 C   0  0  0  0  0  0  0  0  0  0  0  0
  -20.4808  -27.5337   18.7353 C   0  0  0  0  0  0  0  0  0  0  0  0
  -31.0784  -17.3211   19.2815 C   0  0  0  0  0  0  0  0  0  0  0  0
  -27.1197  -22.4972   20.2088 C   0  0  0  0  0  0  0  0  0  0  0  0
  -26.7459  -23.8411   20.8115 C   0  0  0  0  0  0  0  0  0  1  0  0
  -22.1741  -29.1823   23.1227 C   0  0  1  0  0  0  0  0  0  0  0  0
  -19.3401  -27.9765   20.9127 C   0  0  2  0  0  0  0  0  0  0  0  0
  -21.9163  -29.5674   24.6069 C   0  0  0  0  0  0  0  0  0  0  0  0
  -26.2744  -13.3273   21.8522 N   0  0  0  0  0  0  0  0  0  0  0  0
  -26.2986  -13.3041   20.5087 N   0  0  0  0  0  0  0  0  0  0  0  0
  -30.2616  -20.6337   20.7642 N   0  3  0  0  0  0  0  0  0  0  0  0
  -24.2510  -29.7172   21.8881 N   0  0  0  0  0  0  0  0  0  0  0  0
  -30.0332  -13.7954   19.8601 N   0  0  0  0  0  0  0  0  0  0  0  0
  -24.9065  -13.3609   18.5931 N   0  0  0  0  0  0  0  0  0  0  0  0
  -21.9742  -13.5993   22.0195 N   0  0  0  0  0  0  0  0  0  0  0  0
  -28.4327  -17.9011   18.2453 N   0  0  0  0  0  0  0  0  0  0  0  0
  -28.4329  -22.0941   20.6571 N   0  0  0  0  0  0  0  0  0  0  0  0
  -26.1715  -32.3009   22.8911 N   0  0  0  0  0  0  0  0  0  0  0  0
  -20.9623  -29.0431   22.3223 N   0  0  0  0  0  0  0  0  0  0  0  0
  -30.3621  -16.1307   19.6823 N   0  0  0  0  0  0  0  0  0  0  0  0
  -19.3908  -27.1545   19.6707 N   0  3  0  0  0  0  0  0  0  0  0  0
  -22.1676  -13.5338   19.7355 O   0  0  0  0  0  0  0  0  0  0  0  0
  -26.8858  -30.0848   22.9287 O   0  0  0  0  0  0  0  0  0  0  0  0
  -22.6494  -31.3588   22.3082 O   0  0  0  0  0  0  0  0  0  0  0  0
  -21.3285  -26.8433   21.6869 O   0  0  0  0  0  0  0  0  0  0  0  0
  -31.9094  -14.6754   18.8192 O   0  0  0  0  0  0  0  0  0  0  0  0
  -23.2417  -13.6096   27.4443 O   0  0  0  0  0  0  0  0  0  0  0  0
  -27.7046  -24.8220   20.4175 O   0  0  0  0  0  0  0  0  0  1  0  0
  -19.3926  -17.3337   28.7555 F   0  0  0  0  0  0  0  0  0  0  0  0
  -20.7593  -13.5721   26.2282 F   0  0  0  0  0  0  0  0  0  0  0  0
  1  2  1  0  0  0  0
  1  5  2  0  0  0  0
  2  6  2  0  0  0  0
  3  8  2  0  0  0  0
  3 17  1  0  0  0  0
  4  9  1  0  0  0  0
  4 17  2  0  0  0  0
  5 19  1  0  0  0  0
  6 21  1  0  0  0  0
  7 10  2  0  0  0  0
  7 20  1  0  0  0  0
  8 25  1  0  0  0  0
  9 25  2  0  0  0  0
 10 26  1  0  0  0  0
 11 12  2  0  0  0  0
 11 27  1  0  0  0  0
 12 28  1  0  0  0  0
 13 22  1  0  0  0  0
 13 26  2  0  0  0  0
 14 24  2  0  0  0  0
 14 32  1  0  0  0  0
 15 28  2  0  0  0  0
 15 29  1  0  0  0  0
 16 23  2  0  0  0  0
 16 68  1  0  0  0  0
 17 30  1  0  0  0  0
 18 30  1  0  0  0  0
 18 31  2  0  0  0  0
 18 33  1  0  0  0  0
 19 21  2  0  0  0  0
 19 38  1  0  0  0  0
 20 22  2  0  0  0  0
 20 39  1  0  0  0  0
 21 48  1  0  0  0  0
 22 40  1  0  0  0  0
 23 24  1  0  0  0  0
 23 60  1  0  0  0  0
 24 73  1  0  0  0  0
 25 84  1  0  0  0  0
 26 85  1  0  0  0  0
 27 29  2  0  0  0  0
 27 84  1  0  0  0  0
 28 86  1  0  0  0  0
 29 87  1  0  0  0  0
 30 66  2  0  0  0  0
 31 67  1  0  0  0  0
 31 71  1  0  0  0  0
 32 68  2  0  0  0  0
 32 74  1  0  0  0  0
 33 72  1  0  0  0  0
 33 79  2  0  0  0  0
 34 49  1  0  0  0  0
 34 75  1  0  0  0  0
 34 80  2  0  0  0  0
 35 63  1  0  0  0  0
 35 69  1  0  0  0  0
 35 81  2  0  0  0  0
 36 64  1  0  0  0  0
 36 76  1  0  0  0  0
 36 82  2  0  0  0  0
 37 70  1  0  0  0  0
 37 77  1  0  0  0  0
 37 83  2  0  0  0  0
 38 41  1  0  0  0  0
 39 49  1  0  0  0  0
 40 69  1  0  0  0  0
 41 43  1  0  0  0  0
 42 44  1  0  0  0  0
 42 46  1  0  0  0  0
 43 48  1  0  0  0  0
 44 50  1  0  0  0  0
 45 51  1  0  0  0  0
 45 52  1  0  0  0  0
 46 70  1  0  0  0  0
 47 50  1  0  0  0  0
 47 70  1  0  0  0  0
 48 75  1  0  0  0  0
 49 69  1  0  0  0  0
 50 67  1  0  0  0  0
 51 52  1  0  0  0  0
 51 73  1  0  0  0  0
 52 53  1  0  0  0  0
 52 54  1  0  0  0  0
 55 64  1  0  0  0  0
 56 65  1  0  0  0  0
 57 65  1  0  0  0  0
 58 65  1  0  0  0  0
 59 78  1  0  0  0  0
 60 77  1  0  0  0  0
 61 62  1  0  0  0  0
 61 74  1  0  0  0  0
 62 85  1  0  0  0  0
 63 65  1  0  0  0  0
 63 76  1  0  0  0  0
 64 78  1  0  0  0  0
 66 67  1  0  0  0  0
M  CHG  2  68   1  78   1
M  ISO  4  37 100  62 101  77 100  85 101
M  END
> <Batch ID>
0140

> <Smiles>
CNC(C)C(=O)NC(C(=O)N1Cc2cc([101O:1][101CH2:1]CNc3cc(NC4CC4(C)C)c(C[100NH:0][100C:0](=O)N4CCCC(n5nc(-c6ccc(Oc7ccc(F)cc7F)cc6)c(C(N)=O)c5N)C4)cn3)ccc2CC1C(=O)NC1CCCc2ccccc21)C(C)(C)C

> <Shape>
0.293

> <Color>
0.071

> <Negative vol penalty>
0.000

$$$$

  -OEChem-04052321133D

 90100  0     1  0  0  0  0  0999 V2000
  -14.9851  -24.0030   17.3696 C   0  0  0  0  0  0  0  0  0  0  0  0
  -15.2577  -22.6480   17.2111 C   0  0  0  0  0  0  0  0  0  0  0  0
  -27.4881  -23.4393   20.7789 C   0  0  0  0  0  0  0  0  0  0  0  0
  -28.5565  -23.2862   18.6174 C   0  0  0  0  0  0  0  0  0  0  0  0
  -15.9171  -24.8321   17.9923 C   0  0  0  0  0  0  0  0  0  0  0  0
  -16.4629  -22.1215   17.6744 C   0  0  0  0  0  0  0  0  0  0  0  0
  -19.2309  -16.1390   20.4787 C   0  0  0  0  0  0  0  0  0  0  0  0
  -27.6154  -24.8279   20.7435 C   0  0  0  0  0  0  0  0  0  0  0  0
  -28.6836  -24.6748   18.5819 C   0  0  0  0  0  0  0  0  0  0  0  0
  -20.2791  -15.2414   20.2804 C   0  0  0  0  0  0  0  0  0  0  0  0
  -26.0400  -27.4370   19.2794 C   0  0  0  0  0  0  0  0  0  0  0  0
  -24.9330  -28.1991   19.6527 C   0  0  0  0  0  0  0  0  0  0  0  0
  -26.7237  -11.9383   20.1166 C   0  0  0  0  0  0  0  0  0  0  0  0
  -21.7801  -16.7537   21.4115 C   0  0  0  0  0  0  0  0  0  0  0  0
  -25.7920  -14.1522   19.6966 C   0  0  0  0  0  0  0  0  0  0  0  0
  -26.2236  -29.2020   21.4319 C   0  0  0  0  0  0  0  0  0  0  0  0
  -27.9587  -22.6684   19.7159 C   0  0  0  0  0  0  0  0  0  0  0  0
  -26.7497  -20.4661   19.2733 C   0  0  0  0  0  0  0  0  0  0  0  0
  -17.1303  -24.3138   18.4721 C   0  0  0  0  0  0  0  0  0  0  0  0
  -19.4521  -17.3576   21.1363 C   0  0  0  0  0  0  0  0  0  0  0  0
  -17.4126  -22.9448   18.3030 C   0  0  0  0  0  0  0  0  0  0  0  0
  -25.7893  -11.8019   21.1160 C   0  0  0  0  0  0  0  0  0  0  0  0
  -20.7324  -17.6639   21.6191 C   0  0  0  0  0  0  0  0  0  0  0  0
  -24.8822  -12.7928   21.4074 C   0  0  0  0  0  0  0  0  0  0  0  0
  -24.8549  -13.9834   20.7190 C   0  0  0  0  0  0  0  0  0  0  0  0
  -28.2131  -25.4456   19.6450 C   0  0  0  0  0  0  0  0  0  0  0  0
  -21.5545  -15.5499   20.7443 C   0  0  0  0  0  0  0  0  0  0  0  0
  -27.2388  -27.5573   19.9823 C   0  0  0  0  0  0  0  0  0  0  0  0
  -26.7204  -13.1363   19.3975 C   0  0  0  0  0  0  0  0  0  0  0  0
  -25.0248  -29.0816   20.7290 C   0  0  0  0  0  0  0  0  0  0  0  0
  -27.3306  -28.4399   21.0586 C   0  0  0  0  0  0  0  0  0  0  0  0
  -27.8282  -21.2340   19.7522 C   0  0  0  0  0  0  0  0  0  0  0  0
  -27.1073  -19.1673   19.5411 C   0  0  0  0  0  0  0  0  0  0  0  0
  -25.5335  -20.8891   18.6428 C   0  0  0  0  0  0  0  0  0  0  0  0
  -19.1962  -20.4212   20.3286 C   0  0  0  0  0  0  0  0  0  0  0  0
  -19.8725  -20.9017   23.4645 C   0  0  0  0  0  0  0  0  0  0  0  0
  -21.2794  -19.7175   26.3394 C   0  0  0  0  0  0  0  0  0  0  0  0
  -30.8973  -15.0709   19.5734 C   0  0  0  0  0  0  0  0  0  0  0  0
  -18.1270  -25.2581   19.0962 C   0  0  0  0  0  0  0  0  0  0  0  0
  -18.3051  -18.3032   21.3658 C   0  0  0  0  0  0  0  0  0  0  0  0
  -25.2699  -10.8760   22.1771 C   0  0  0  0  0  0  0  0  0  0  0  0
  -21.0179  -18.9499   22.3492 C   0  0  0  0  0  0  0  0  0  0  0  0
  -19.2192  -24.5507   19.8942 C   0  0  0  0  0  0  0  0  0  0  0  0
  -30.8807  -17.3032   22.3470 C   0  0  0  0  0  0  0  0  0  0  0  0
  -19.7837  -23.3761   19.1015 C   0  0  0  0  0  0  0  0  0  0  0  0
  -20.2401  -10.5096   18.0507 C   0  0  0  0  0  0  0  0  0  0  0  0
  -21.6360  -11.0060   17.7963 C   0  0  0  0  0  0  0  0  0  0  0  0
  -30.0017  -18.4637   21.8774 C   0  0  0  0  0  0  0  0  0  0  0  0
  -31.7258  -16.7382   21.2075 C   0  0  0  0  0  0  0  0  0  0  0  0
  -30.0849  -17.5071   19.5371 C   0  0  0  0  0  0  0  0  0  0  0  0
  -24.2375  -12.0111   22.5221 C   0  0  2  0  0  0  0  0  0  0  0  0
  -18.6982  -22.3317   18.8144 C   0  0  1  0  0  0  0  0  0  0  0  0
  -18.7544  -19.7431   21.5945 C   0  0  1  0  0  0  0  0  0  0  0  0
  -21.3210  -10.2675   19.0676 C   0  0  0  0  0  0  0  0  0  0  0  0
  -29.1729  -18.0737   20.6387 C   0  0  2  0  0  0  0  0  0  0  0  0
  -21.7096  -20.3524   28.7288 C   0  0  0  0  0  0  0  0  0  0  0  0
  -22.1983  -10.8091   23.4003 C   0  0  0  0  0  0  0  0  0  0  0  0
  -22.1346  -22.7416   22.5659 C   0  0  0  0  0  0  0  0  0  0  0  0
  -23.0902  -22.5790   24.8742 C   0  0  0  0  0  0  0  0  0  0  0  0
  -20.8294  -23.5753   24.5295 C   0  0  0  0  0  0  0  0  0  0  0  0
  -19.6758  -17.4460   27.3531 C   0  0  0  0  0  0  0  0  0  0  0  0
  -23.8604  -15.0561   21.0529 C   0  0  0  0  0  0  0  0  0  1  0  0
  -21.3019  -11.0022   20.3902 C   0  0  0  0  0  0  0  0  0  0  0  0
  -29.9645  -13.5146   17.8802 C   0  0  0  0  0  0  0  0  0  0  0  0
  -28.8830  -12.6674   18.5264 C   0  0  0  0  0  0  0  0  0  0  0  0
  -21.1365  -21.0792   24.2706 C   0  0  1  0  0  0  0  0  0  0  0  0
  -20.7603  -19.6580   27.7647 C   0  0  2  0  0  0  0  0  0  0  0  0
  -22.7736  -11.6771   22.2921 C   0  0  2  0  0  0  0  0  0  0  0  0
  -21.7930  -22.4703   24.0446 C   0  0  0  0  0  0  0  0  0  0  0  0
  -28.7981  -20.4854   20.2840 N   0  0  0  0  0  0  0  0  0  0  0  0
  -28.3304  -19.2336   20.1410 N   0  0  0  0  0  0  0  0  0  0  0  0
  -19.8650  -19.8447   22.5434 N   0  0  0  0  0  0  0  0  0  0  0  0
  -30.8797  -16.3868   20.0644 N   0  0  0  0  0  0  0  0  0  0  0  0
  -26.4917  -17.9865   19.3197 N   0  0  0  0  0  0  0  0  0  0  0  0
  -25.3260  -22.2609   18.4439 N   0  0  0  0  0  0  0  0  0  0  0  0
  -18.4437  -21.5303   19.9923 N   0  0  0  0  0  0  0  0  0  0  0  0
  -20.7775  -20.8061   25.6581 N   0  0  0  0  0  0  0  0  0  0  0  0
  -30.0612  -14.8211   18.4921 N   0  0  0  0  0  0  0  0  0  0  0  0
  -20.6019  -18.2415   28.1996 N   0  3  0  0  0  0  0  0  0  0  0  0
  -22.6535  -10.9386   21.0049 N   0  3  0  0  0  0  0  0  0  0  0  0
  -24.6494  -20.0758   18.2817 O   0  0  0  0  0  0  0  0  0  0  0  0
  -20.1502  -19.9724   19.7040 O   0  0  0  0  0  0  0  0  0  0  0  0
  -18.9240  -21.6681   23.6505 O   0  0  0  0  0  0  0  0  0  0  0  0
  -22.0557  -18.8839   25.8779 O   0  0  0  0  0  0  0  0  0  0  0  0
  -31.6017  -14.1830   20.0658 O   0  0  0  0  0  0  0  0  0  0  0  0
  -28.3371  -26.8006   19.6100 O   0  0  0  0  0  0  0  0  0  0  0  0
  -22.5796  -14.6759   20.5516 O   0  0  0  0  0  0  0  0  0  1  0  0
  -27.6246  -13.3254   18.3958 O   0  0  0  0  0  0  0  0  0  0  0  0
  -23.9622  -29.8145   21.0864 F   0  0  0  0  0  0  0  0  0  0  0  0
  -28.4799  -28.5607   21.7370 F   0  0  0  0  0  0  0  0  0  0  0  0
  1  2  1  0  0  0  0
  1  5  2  0  0  0  0
  2  6  2  0  0  0  0
  3  8  2  0  0  0  0
  3 17  1  0  0  0  0
  4  9  1  0  0  0  0
  4 17  2  0  0  0  0
  5 19  1  0  0  0  0
  6 21  1  0  0  0  0
  7 10  2  0  0  0  0
  7 20  1  0  0  0  0
  8 26  1  0  0  0  0
  9 26  2  0  0  0  0
 10 27  1  0  0  0  0
 11 12  2  0  0  0  0
 11 28  1  0  0  0  0
 12 30  1  0  0  0  0
 13 22  2  0  0  0  0
 13 29  1  0  0  0  0
 14 23  1  0  0  0  0
 14 27  2  0  0  0  0
 15 25  1  0  0  0  0
 15 29  2  0  0  0  0
 16 30  2  0  0  0  0
 16 31  1  0  0  0  0
 17 32  1  0  0  0  0
 18 32  1  0  0  0  0
 18 33  2  0  0  0  0
 18 34  1  0  0  0  0
 19 21  2  0  0  0  0
 19 39  1  0  0  0  0
 20 23  2  0  0  0  0
 20 40  1  0  0  0  0
 21 52  1  0  0  0  0
 22 24  1  0  0  0  0
 22 41  1  0  0  0  0
 23 42  1  0  0  0  0
 24 25  2  0  0  0  0
 24 51  1  0  0  0  0
 25 62  1  0  0  0  0
 26 86  1  0  0  0  0
 27 87  1  0  0  0  0
 28 31  2  0  0  0  0
 28 86  1  0  0  0  0
 29 88  1  0  0  0  0
 30 89  1  0  0  0  0
 31 90  1  0  0  0  0
 32 70  2  0  0  0  0
 33 71  1  0  0  0  0
 33 74  1  0  0  0  0
 34 75  1  0  0  0  0
 34 81  2  0  0  0  0
 35 53  1  0  0  0  0
 35 76  1  0  0  0  0
 35 82  2  0  0  0  0
 36 66  1  0  0  0  0
 36 72  1  0  0  0  0
 36 83  2  0  0  0  0
 37 67  1  0  0  0  0
 37 77  1  0  0  0  0
 37 84  2  0  0  0  0
 38 73  1  0  0  0  0
 38 78  1  0  0  0  0
 38 85  2  0  0  0  0
 39 43  1  0  0  0  0
 40 53  1  0  0  0  0
 41 51  1  0  0  0  0
 42 72  1  0  0  0  0
 43 45  1  0  0  0  0
 44 48  1  0  0  0  0
 44 49  1  0  0  0  0
 45 52  1  0  0  0  0
 46 47  1  0  0  0  0
 46 54  1  0  0  0  0
 47 54  1  0  0  0  0
 48 55  1  0  0  0  0
 49 73  1  0  0  0  0
 50 55  1  0  0  0  0
 50 73  1  0  0  0  0
 51 68  1  0  0  0  0
 52 76  1  0  0  0  0
 53 72  1  0  0  0  0
 54 63  1  0  0  0  0
 55 71  1  0  0  0  0
 56 67  1  0  0  0  0
 57 68  1  0  0  0  0
 58 69  1  0  0  0  0
 59 69  1  0  0  0  0
 60 69  1  0  0  0  0
 61 79  1  0  0  0  0
 62 87  1  0  0  0  0
 63 80  1  0  0  0  0
 64 65  1  0  0  0  0
 64 78  1  0  0  0  0
 65 88  1  0  0  0  0
 66 69  1  0  0  0  0
 66 77  1  0  0  0  0
 67 79  1  0  0  0  0
 68 80  1  0  0  0  0
 70 71  1  0  0  0  0
M  CHG  2  79   1  80   1
M  ISO  4  38 100  62 101  78 100  87 101
M  END
> <Batch ID>
0140

> <Smiles>
CNC(C)C(=O)NC(C(=O)N1Cc2cc([101O:1][101CH2:1]c3cc(OCC[100NH:0][100C:0](=O)N4CCCC(n5nc(-c6ccc(Oc7ccc(F)cc7F)cc6)c(C(N)=O)c5N)C4)cc4c3C(C(C)NCC3CC3)C4)ccc2CC1C(=O)NC1CCCc2ccccc21)C(C)(C)C

> <Shape>
0.203

> <Color>
0.093

> <Negative vol penalty>
0.000

$$$$

  -OEChem-04052321133D

 81 90  0     1  0  0  0  0  0999 V2000
  -28.7298  -37.0498   20.5991 C   0  0  0  0  0  0  0  0  0  0  0  0
  -29.0894  -35.7283   20.3550 C   0  0  0  0  0  0  0  0  0  0  0  0
  -24.5661  -10.1903   20.0706 C   0  0  0  0  0  0  0  0  0  0  0  0
  -25.2280  -10.5766   22.3619 C   0  0  0  0  0  0  0  0  0  0  0  0
  -27.7625  -37.3417   21.5598 C   0  0  0  0  0  0  0  0  0  0  0  0
  -28.4827  -34.6978   21.0723 C   0  0  0  0  0  0  0  0  0  0  0  0
  -27.1169  -29.0916   19.0202 C   0  0  0  0  0  0  0  0  0  0  0  0
  -24.3534   -8.8423   20.3593 C   0  0  0  0  0  0  0  0  0  0  0  0
  -25.0153   -9.2286   22.6506 C   0  0  0  0  0  0  0  0  0  0  0  0
  -27.7666  -27.8641   19.1419 C   0  0  0  0  0  0  0  0  0  0  0  0
  -26.2243   -6.0559   20.7595 C   0  0  0  0  0  0  0  0  0  0  0  0
  -26.7167   -5.1148   19.8555 C   0  0  0  0  0  0  0  0  0  0  0  0
  -26.3663  -27.3169   21.0284 C   0  0  0  0  0  0  0  0  0  0  0  0
  -28.8876  -22.9114   19.5848 C   0  0  0  0  0  0  0  0  0  0  0  0
  -24.4762   -4.2834   19.5005 C   0  0  0  0  0  0  0  0  0  0  0  0
  -30.9187  -23.8267   19.9375 C   0  0  0  0  0  0  0  0  0  0  0  0
  -25.0034  -11.0574   21.0719 C   0  0  0  0  0  0  0  0  0  0  0  0
  -24.2884  -13.4977   20.8680 C   0  0  0  0  0  0  0  0  0  0  0  0
  -27.1366  -36.3137   22.2825 C   0  0  0  0  0  0  0  0  0  0  0  0
  -26.0926  -29.4462   19.9099 C   0  0  0  0  0  0  0  0  0  0  0  0
  -27.5070  -34.9763   22.0445 C   0  0  0  0  0  0  0  0  0  0  0  0
  -25.7034  -28.5484   20.9142 C   0  0  0  0  0  0  0  0  0  0  0  0
  -29.6139  -24.1268   19.6107 C   0  0  0  0  0  0  0  0  0  0  0  0
  -24.5780   -8.3615   21.6492 C   0  0  0  0  0  0  0  0  0  0  0  0
  -27.3934  -26.9777   20.1479 C   0  0  0  0  0  0  0  0  0  0  0  0
  -24.8578   -6.1108   21.0342 C   0  0  0  0  0  0  0  0  0  0  0  0
  -25.8427   -4.2285   19.2260 C   0  0  0  0  0  0  0  0  0  0  0  0
  -23.9838   -5.2245   20.4046 C   0  0  0  0  0  0  0  0  0  0  0  0
  -25.2238  -12.4499   20.7742 C   0  0  0  0  0  0  0  0  0  0  0  0
  -29.7690  -21.8986   19.8975 C   0  0  0  0  0  0  0  0  0  0  0  0
  -24.9850  -14.6157   20.4791 C   0  0  0  0  0  0  0  0  0  0  0  0
  -29.6539  -20.4837   20.0318 C   0  0  0  0  0  0  0  0  0  0  0  0
  -32.0360  -20.3836   20.5776 C   0  0  0  0  0  0  0  0  0  0  0  0
  -32.1461  -21.7163   20.4514 C   0  0  0  0  0  0  0  0  0  0  0  0
  -30.7398  -19.7514   20.3585 C   0  0  0  0  0  0  0  0  0  0  0  0
  -22.9127  -13.4634   21.2706 C   0  0  0  0  0  0  0  0  0  0  0  0
  -25.6773  -31.7662   22.0427 C   0  0  0  0  0  0  0  0  0  0  0  0
  -22.7019  -30.4940   22.2685 C   0  0  0  0  0  0  0  0  0  0  0  0
  -20.6743  -27.7780   21.8694 C   0  0  0  0  0  0  0  0  0  0  0  0
  -29.5153  -17.7268   20.9131 C   0  0  0  0  0  0  0  0  0  0  0  0
  -26.1306  -36.6812   23.3443 C   0  0  0  0  0  0  0  0  0  0  0  0
  -25.3835  -30.7628   19.7486 C   0  0  0  0  0  0  0  0  0  0  0  0
  -24.5961  -28.8728   21.8823 C   0  0  0  0  0  0  0  0  0  0  0  0
  -25.2657  -35.5074   23.7964 C   0  0  0  0  0  0  0  0  0  0  0  0
  -29.5075  -15.1032   18.3102 C   0  0  0  0  0  0  0  0  0  0  0  0
  -26.1295  -34.2781   24.0596 C   0  0  0  0  0  0  0  0  0  0  0  0
  -28.3396  -14.2365   18.7713 C   0  0  0  0  0  0  0  0  0  0  0  0
  -30.2614  -15.7230   19.4861 C   0  0  0  0  0  0  0  0  0  0  0  0
  -28.2141  -15.6202   20.8793 C   0  0  0  0  0  0  0  0  0  0  0  0
  -26.8537  -33.8293   22.7846 C   0  0  1  0  0  0  0  0  0  0  0  0
  -24.7029  -31.2358   21.0294 C   0  0  1  0  0  0  0  0  0  0  0  0
  -27.4148  -15.0280   19.7084 C   0  0  2  0  0  0  0  0  0  0  0  0
  -18.2974  -27.0327   22.1727 C   0  0  0  0  0  0  0  0  0  0  0  0
  -23.1500  -30.2985   25.2803 C   0  0  0  0  0  0  0  0  0  0  0  0
  -21.2096  -28.7207   25.3963 C   0  0  0  0  0  0  0  0  0  0  0  0
  -20.8645  -31.0638   24.6132 C   0  0  0  0  0  0  0  0  0  0  0  0
  -20.3652  -27.2003   18.9833 C   0  0  0  0  0  0  0  0  0  0  0  0
  -29.0640  -25.4948   19.3320 C   0  0  0  0  0  0  0  0  0  1  0  0
  -22.0602  -29.4185   23.1115 C   0  0  1  0  0  0  0  0  0  0  0  0
  -19.3157  -27.6235   21.2100 C   0  0  2  0  0  0  0  0  0  0  0  0
  -21.8433  -29.8698   24.5834 C   0  0  0  0  0  0  0  0  0  0  0  0
  -26.4232  -12.8651   20.3582 N   0  0  0  0  0  0  0  0  0  0  0  0
  -31.0200  -22.4654   20.1141 N   0  0  0  0  0  0  0  0  0  0  0  0
  -26.2461  -14.1863   20.1871 N   0  0  0  0  0  0  0  0  0  0  0  0
  -23.9375  -30.1750   21.6875 N   0  0  0  0  0  0  0  0  0  0  0  0
  -29.3499  -16.4221   20.4063 N   0  0  0  0  0  0  0  0  0  0  0  0
  -24.6356  -15.9144   20.3618 N   0  0  0  0  0  0  0  0  0  0  0  0
  -22.3548  -12.2315   21.6387 N   0  0  0  0  0  0  0  0  0  0  0  0
  -30.6640  -18.3939   20.4960 N   0  0  0  0  0  0  0  0  0  0  0  0
  -25.9459  -33.1154   21.9124 N   0  0  0  0  0  0  0  0  0  0  0  0
  -20.8359  -29.0326   22.4182 N   0  0  0  0  0  0  0  0  0  0  0  0
  -19.4150  -26.7279   20.0230 N   0  3  0  0  0  0  0  0  0  0  0  0
  -22.1949  -14.4920   21.2874 O   0  0  0  0  0  0  0  0  0  0  0  0
  -26.1494  -31.0078   22.8816 O   0  0  0  0  0  0  0  0  0  0  0  0
  -22.1247  -31.5746   22.1248 O   0  0  0  0  0  0  0  0  0  0  0  0
  -21.5073  -26.8748   21.8984 O   0  0  0  0  0  0  0  0  0  0  0  0
  -28.7008  -18.2453   21.6854 O   0  0  0  0  0  0  0  0  0  0  0  0
  -24.3703   -7.0462   21.9314 O   0  0  0  0  0  0  0  0  0  0  0  0
  -28.0264  -25.7792   20.2694 O   0  0  0  0  0  0  0  0  0  1  0  0
  -26.3156   -3.3258   18.3566 F   0  0  0  0  0  0  0  0  0  0  0  0
  -22.6698   -5.2732   20.6635 F   0  0  0  0  0  0  0  0  0  0  0  0
  1  2  1  0  0  0  0
  1  5  2  0  0  0  0
  2  6  2  0  0  0  0
  3  8  2  0  0  0  0
  3 17  1  0  0  0  0
  4  9  1  0  0  0  0
  4 17  2  0  0  0  0
  5 19  1  0  0  0  0
  6 21  1  0  0  0  0
  7 10  2  0  0  0  0
  7 20  1  0  0  0  0
  8 24  1  0  0  0  0
  9 24  2  0  0  0  0
 10 25  1  0  0  0  0
 11 12  2  0  0  0  0
 11 26  1  0  0  0  0
 12 27  1  0  0  0  0
 13 22  1  0  0  0  0
 13 25  2  0  0  0  0
 14 23  1  0  0  0  0
 14 30  2  0  0  0  0
 15 27  2  0  0  0  0
 15 28  1  0  0  0  0
 16 23  2  0  0  0  0
 16 63  1  0  0  0  0
 17 29  1  0  0  0  0
 18 29  1  0  0  0  0
 18 31  2  0  0  0  0
 18 36  1  0  0  0  0
 19 21  2  0  0  0  0
 19 41  1  0  0  0  0
 20 22  2  0  0  0  0
 20 42  1  0  0  0  0
 21 50  1  0  0  0  0
 22 43  1  0  0  0  0
 23 58  1  0  0  0  0
 24 78  1  0  0  0  0
 25 79  1  0  0  0  0
 26 28  2  0  0  0  0
 26 78  1  0  0  0  0
 27 80  1  0  0  0  0
 28 81  1  0  0  0  0
 29 62  2  0  0  0  0
 30 32  1  0  0  0  0
 30 63  1  0  0  0  0
 31 64  1  0  0  0  0
 31 67  1  0  0  0  0
 32 35  2  0  0  0  0
 33 34  2  0  0  0  0
 33 35  1  0  0  0  0
 34 63  1  0  0  0  0
 35 69  1  0  0  0  0
 36 68  1  0  0  0  0
 36 73  2  0  0  0  0
 37 51  1  0  0  0  0
 37 70  1  0  0  0  0
 37 74  2  0  0  0  0
 38 59  1  0  0  0  0
 38 65  1  0  0  0  0
 38 75  2  0  0  0  0
 39 60  1  0  0  0  0
 39 71  1  0  0  0  0
 39 76  2  0  0  0  0
 40 66  1  0  0  0  0
 40 69  1  0  0  0  0
 40 77  2  0  0  0  0
 41 44  1  0  0  0  0
 42 51  1  0  0  0  0
 43 65  1  0  0  0  0
 44 46  1  0  0  0  0
 45 47  1  0  0  0  0
 45 48  1  0  0  0  0
 46 50  1  0  0  0  0
 47 52  1  0  0  0  0
 48 66  1  0  0  0  0
 49 52  1  0  0  0  0
 49 66  1  0  0  0  0
 50 70  1  0  0  0  0
 51 65  1  0  0  0  0
 52 64  1  0  0  0  0
 53 60  1  0  0  0  0
 54 61  1  0  0  0  0
 55 61  1  0  0  0  0
 56 61  1  0  0  0  0
 57 72  1  0  0  0  0
 58 79  1  0  0  0  0
 59 61  1  0  0  0  0
 59 71  1  0  0  0  0
 60 72  1  0  0  0  0
 62 64  1  0  0  0  0
M  CHG  1  72   1
M  ISO  4  40 100  58 101  69 100  79 101
M  END
> <Batch ID>
0140

> <Smiles>
CNC(C)C(=O)NC(C(=O)N1Cc2cc([101O:1][101CH2:1]c3cc4cc([100NH:0][100C:0](=O)N5CCCC(n6nc(-c7ccc(Oc8ccc(F)cc8F)cc7)c(C(N)=O)c6N)C5)ccn4c3)ccc2CC1C(=O)NC1CCCc2ccccc21)C(C)(C)C

> <Shape>
0.311

> <Color>
0.099

> <Negative vol penalty>
0.000

$$$$

  -OEChem-04052321133D

 86 96  0     1  0  0  0  0  0999 V2000
  -18.6157  -27.4478   23.3029 C   0  0  0  0  0  0  0  0  0  0  0  0
  -19.6162  -26.4811   23.3022 C   0  0  0  0  0  0  0  0  0  0  0  0
  -23.2120   -9.8363   19.8903 C   0  0  0  0  0  0  0  0  0  0  0  0
  -23.9447   -9.8318   22.1925 C   0  0  0  0  0  0  0  0  0  0  0  0
  -18.6729  -28.5093   22.4008 C   0  0  0  0  0  0  0  0  0  0  0  0
  -20.6740  -26.5749   22.3985 C   0  0  0  0  0  0  0  0  0  0  0  0
  -26.4925  -24.9219   23.3572 C   0  0  0  0  0  0  0  0  0  0  0  0
  -22.5423   -8.6311   20.1011 C   0  0  0  0  0  0  0  0  0  0  0  0
  -23.2749   -8.6266   22.4033 C   0  0  0  0  0  0  0  0  0  0  0  0
  -27.2100  -23.7756   23.0181 C   0  0  0  0  0  0  0  0  0  0  0  0
  -20.0993   -7.6052   22.9443 C   0  0  0  0  0  0  0  0  0  0  0  0
  -19.3338   -7.4852   24.1041 C   0  0  0  0  0  0  0  0  0  0  0  0
  -29.0355  -19.6521   20.8108 C   0  0  0  0  0  0  0  0  0  0  0  0
  -28.0415  -24.8870   21.0451 C   0  0  0  0  0  0  0  0  0  0  0  0
  -30.6520  -20.1262   22.5426 C   0  0  0  0  0  0  0  0  0  0  0  0
  -20.6908   -5.6136   24.8060 C   0  0  0  0  0  0  0  0  0  0  0  0
  -23.9133  -10.4367   20.9360 C   0  0  0  0  0  0  0  0  0  0  0  0
  -24.0910  -12.9810   20.8854 C   0  0  0  0  0  0  0  0  0  0  0  0
  -19.7370  -28.6213   21.4921 C   0  0  0  0  0  0  0  0  0  0  0  0
  -26.5355  -26.0576   22.5357 C   0  0  0  0  0  0  0  0  0  0  0  0
  -20.7449  -27.6382   21.4824 C   0  0  0  0  0  0  0  0  0  0  0  0
  -29.8397  -18.6120   20.3449 C   0  0  0  0  0  0  0  0  0  0  0  0
  -27.3257  -26.0473   21.3774 C   0  0  0  0  0  0  0  0  0  0  0  0
  -31.0501  -18.3290   20.9779 C   0  0  0  0  0  0  0  0  0  0  0  0
  -29.4417  -20.4092   21.9097 C   0  0  0  0  0  0  0  0  0  0  0  0
  -31.4562  -19.0861   22.0767 C   0  0  0  0  0  0  0  0  0  0  0  0
  -22.5737   -8.0263   21.3576 C   0  0  0  0  0  0  0  0  0  0  0  0
  -27.9823  -23.7571   21.8604 C   0  0  0  0  0  0  0  0  0  0  0  0
  -21.1605   -6.7294   22.7153 C   0  0  0  0  0  0  0  0  0  0  0  0
  -19.6295   -6.4894   25.0350 C   0  0  0  0  0  0  0  0  0  0  0  0
  -21.4563   -5.7336   23.6462 C   0  0  0  0  0  0  0  0  0  0  0  0
  -24.6059  -11.6814   20.7188 C   0  0  0  0  0  0  0  0  0  0  0  0
  -25.1359  -13.8092   20.5554 C   0  0  0  0  0  0  0  0  0  0  0  0
  -22.7851  -13.4020   21.3014 C   0  0  0  0  0  0  0  0  0  0  0  0
  -24.3874  -27.7004   20.8653 C   0  0  0  0  0  0  0  0  0  0  0  0
  -26.8847  -29.7104   20.3695 C   0  0  0  0  0  0  0  0  0  0  0  0
  -30.2661  -30.1509   20.2318 C   0  0  0  0  0  0  0  0  0  0  0  0
  -30.4352  -15.1547   21.0079 C   0  0  0  0  0  0  0  0  0  0  0  0
  -19.7310  -29.7609   20.5041 C   0  0  0  0  0  0  0  0  0  0  0  0
  -25.7770  -27.2953   22.9295 C   0  0  0  0  0  0  0  0  0  0  0  0
  -27.4217  -27.2474   20.4723 C   0  0  0  0  0  0  0  0  0  0  0  0
  -21.0818  -29.9907   19.8311 C   0  0  0  0  0  0  0  0  0  0  0  0
  -29.5900  -12.7865   18.3833 C   0  0  0  0  0  0  0  0  0  0  0  0
  -29.2547  -18.4947   17.8314 C   0  0  0  0  0  0  0  0  0  0  0  0
  -28.0262  -18.0841   18.5812 C   0  0  0  0  0  0  0  0  0  0  0  0
  -21.6732  -28.6675   19.3554 C   0  0  0  0  0  0  0  0  0  0  0  0
  -28.1627  -12.3979   18.7747 C   0  0  0  0  0  0  0  0  0  0  0  0
  -32.3074  -17.1195   18.9467 C   0  0  0  0  0  0  0  0  0  0  0  0
  -30.4546  -12.9956   19.6210 C   0  0  0  0  0  0  0  0  0  0  0  0
  -31.9916  -15.6249   18.9414 C   0  0  0  0  0  0  0  0  0  0  0  0
  -28.5083  -13.6127   20.9812 C   0  0  0  0  0  0  0  0  0  0  0  0
  -29.3863  -17.8141   19.1680 C   0  0  0  0  0  0  0  0  0  0  0  0
  -31.9659  -17.1466   20.4495 C   0  0  2  0  0  0  0  0  0  0  0  0
  -21.9215  -27.7187   20.5342 C   0  0  1  0  0  0  0  0  0  0  0  0
  -25.4859  -28.2182   21.7501 C   0  0  1  0  0  0  0  0  0  0  0  0
  -27.5649  -13.3983   19.7822 C   0  0  2  0  0  0  0  0  0  0  0  0
  -32.6604  -17.5771   23.6766 C   0  0  0  0  0  0  0  0  0  0  0  0
  -32.0079  -31.8962   19.7653 C   0  0  0  0  0  0  0  0  0  0  0  0
  -26.3281  -29.4632   17.3796 C   0  0  0  0  0  0  0  0  0  0  0  0
  -28.6039  -30.4134   16.9482 C   0  0  0  0  0  0  0  0  0  0  0  0
  -26.8926  -31.7752   18.1480 C   0  0  0  0  0  0  0  0  0  0  0  0
  -31.3976  -29.9162   22.9564 C   0  0  0  0  0  0  0  0  0  0  0  0
  -32.7478  -18.8010   22.7695 C   0  0  0  0  0  0  0  0  0  0  0  0
  -28.5820  -21.5217   22.4075 C   0  0  0  0  0  0  0  0  0  1  0  0
  -27.9770  -29.8231   19.3335 C   0  0  1  0  0  0  0  0  0  0  0  0
  -31.1689  -31.2126   20.8337 C   0  0  2  0  0  0  0  0  0  0  0  0
  -27.4473  -30.3453   17.9682 C   0  0  0  0  0  0  0  0  0  0  0  0
  -25.8788  -11.6790   20.3142 N   0  0  0  0  0  0  0  0  0  0  0  0
  -26.1725  -12.9873   20.2237 N   0  0  0  0  0  0  0  0  0  0  0  0
  -26.6567  -28.4315   20.8969 N   0  0  0  0  0  0  0  0  0  0  0  0
  -29.8478  -13.9883   20.5120 N   0  0  0  0  0  0  0  0  0  0  0  0
  -31.3610  -15.8171   20.2345 N   0  0  0  0  0  0  0  0  0  0  0  0
  -25.2597  -15.1530   20.5193 N   0  0  0  0  0  0  0  0  0  0  0  0
  -21.8310  -12.4204   21.6023 N   0  0  0  0  0  0  0  0  0  0  0  0
  -23.1213  -28.1015   21.2471 N   0  0  0  0  0  0  0  0  0  0  0  0
  -29.0188  -30.6539   19.9275 N   0  0  0  0  0  0  0  0  0  0  0  0
  -32.0890  -30.6030   21.8352 N   0  3  0  0  0  0  0  0  0  0  0  0
  -22.4684  -14.6127   21.3874 O   0  0  0  0  0  0  0  0  0  0  0  0
  -24.6678  -26.9909   19.9063 O   0  0  0  0  0  0  0  0  0  0  0  0
  -26.2617  -30.7212   20.7038 O   0  0  0  0  0  0  0  0  0  0  0  0
  -30.6320  -28.9924   20.0465 O   0  0  0  0  0  0  0  0  0  0  0  0
  -30.1078  -15.6165   22.1102 O   0  0  0  0  0  0  0  0  0  0  0  0
  -21.9200   -6.8503   21.5637 O   0  0  0  0  0  0  0  0  0  0  0  0
  -28.6880  -22.6316   21.5244 O   0  0  0  0  0  0  0  0  0  1  0  0
  -18.8953   -6.3752   26.1494 F   0  0  0  0  0  0  0  0  0  0  0  0
  -22.4753   -4.8900   23.4322 F   0  0  0  0  0  0  0  0  0  0  0  0
  1  2  1  0  0  0  0
  1  5  2  0  0  0  0
  2  6  2  0  0  0  0
  3  8  2  0  0  0  0
  3 17  1  0  0  0  0
  4  9  1  0  0  0  0
  4 17  2  0  0  0  0
  5 19  1  0  0  0  0
  6 21  1  0  0  0  0
  7 10  2  0  0  0  0
  7 20  1  0  0  0  0
  8 27  1  0  0  0  0
  9 27  2  0  0  0  0
 10 28  1  0  0  0  0
 11 12  2  0  0  0  0
 11 29  1  0  0  0  0
 12 30  1  0  0  0  0
 13 22  2  0  0  0  0
 13 25  1  0  0  0  0
 14 23  1  0  0  0  0
 14 28  2  0  0  0  0
 15 25  2  0  0  0  0
 15 26  1  0  0  0  0
 16 30  2  0  0  0  0
 16 31  1  0  0  0  0
 17 32  1  0  0  0  0
 18 32  1  0  0  0  0
 18 33  2  0  0  0  0
 18 34  1  0  0  0  0
 19 21  2  0  0  0  0
 19 39  1  0  0  0  0
 20 23  2  0  0  0  0
 20 40  1  0  0  0  0
 21 54  1  0  0  0  0
 22 24  1  0  0  0  0
 22 52  1  0  0  0  0
 23 41  1  0  0  0  0
 24 26  2  0  0  0  0
 24 53  1  0  0  0  0
 25 64  1  0  0  0  0
 26 63  1  0  0  0  0
 27 83  1  0  0  0  0
 28 84  1  0  0  0  0
 29 31  2  0  0  0  0
 29 83  1  0  0  0  0
 30 85  1  0  0  0  0
 31 86  1  0  0  0  0
 32 68  2  0  0  0  0
 33 69  1  0  0  0  0
 33 73  1  0  0  0  0
 34 74  1  0  0  0  0
 34 78  2  0  0  0  0
 35 55  1  0  0  0  0
 35 75  1  0  0  0  0
 35 79  2  0  0  0  0
 36 65  1  0  0  0  0
 36 70  1  0  0  0  0
 36 80  2  0  0  0  0
 37 66  1  0  0  0  0
 37 76  1  0  0  0  0
 37 81  2  0  0  0  0
 38 71  1  0  0  0  0
 38 72  1  0  0  0  0
 38 82  2  0  0  0  0
 39 42  1  0  0  0  0
 40 55  1  0  0  0  0
 41 70  1  0  0  0  0
 42 46  1  0  0  0  0
 43 47  1  0  0  0  0
 43 49  1  0  0  0  0
 44 45  1  0  0  0  0
 44 52  1  0  0  0  0
 45 52  1  0  0  0  0
 46 54  1  0  0  0  0
 47 56  1  0  0  0  0
 48 50  1  0  0  0  0
 48 53  1  0  0  0  0
 49 71  1  0  0  0  0
 50 72  1  0  0  0  0
 51 56  1  0  0  0  0
 51 71  1  0  0  0  0
 53 72  1  0  0  0  0
 54 75  1  0  0  0  0
 55 70  1  0  0  0  0
 56 69  1  0  0  0  0
 57 63  1  0  0  0  0
 58 66  1  0  0  0  0
 59 67  1  0  0  0  0
 60 67  1  0  0  0  0
 61 67  1  0  0  0  0
 62 77  1  0  0  0  0
 64 84  1  0  0  0  0
 65 67  1  0  0  0  0
 65 76  1  0  0  0  0
 66 77  1  0  0  0  0
 68 69  1  0  0  0  0
M  CHG  1  77   1
M  ISO  4  38 100  64 101  72 100  84 101
M  END
> <Batch ID>
0140

> <Smiles>
CCc1cc([101CH2:1][101O:1]c2ccc3c(c2)CN(C(=O)C(NC(=O)C(C)NC)C(C)(C)C)C(C(=O)NC2CCCc4ccccc42)C3)cc(C2CC2)c1C1CC[100N:0]1[100C:0](=O)N1CCCC(n2nc(-c3ccc(Oc4ccc(F)cc4F)cc3)c(C(N)=O)c2N)C1

> <Shape>
0.307

> <Color>
0.190

> <Negative vol penalty>
0.000

$$$$

  -OEChem-04052321133D

 89 98  0     1  0  0  0  0  0999 V2000
  -26.9948  -31.4536   18.1220 C   0  0  0  0  0  0  0  0  0  0  0  0
  -27.4901  -30.1673   18.3103 C   0  0  0  0  0  0  0  0  0  0  0  0
  -30.5685  -19.7466   20.1017 C   0  0  0  0  0  0  0  0  0  0  0  0
  -28.1933  -19.3192   20.2142 C   0  0  0  0  0  0  0  0  0  0  0  0
  -25.9611  -31.9264   18.9295 C   0  0  0  0  0  0  0  0  0  0  0  0
  -26.9529  -29.3534   19.3069 C   0  0  0  0  0  0  0  0  0  0  0  0
  -23.8070  -22.2219   18.7848 C   0  0  0  0  0  0  0  0  0  0  0  0
  -30.3151  -21.0232   19.6002 C   0  0  0  0  0  0  0  0  0  0  0  0
  -27.9398  -20.5959   19.7127 C   0  0  0  0  0  0  0  0  0  0  0  0
  -23.0865  -21.0274   18.7949 C   0  0  0  0  0  0  0  0  0  0  0  0
  -29.3749  -24.0354   20.8151 C   0  0  0  0  0  0  0  0  0  0  0  0
  -30.0958  -25.0995   21.3568 C   0  0  0  0  0  0  0  0  0  0  0  0
  -21.8929  -21.7517   20.7694 C   0  0  0  0  0  0  0  0  0  0  0  0
  -19.5308  -13.4062   22.2626 C   0  0  0  0  0  0  0  0  0  0  0  0
  -19.0598  -15.4437   21.0530 C   0  0  0  0  0  0  0  0  0  0  0  0
  -21.2650  -15.0615   21.9629 C   0  0  0  0  0  0  0  0  0  0  0  0
  -31.0070  -25.5931   19.1743 C   0  0  0  0  0  0  0  0  0  0  0  0
  -29.5076  -18.8945   20.4086 C   0  0  0  0  0  0  0  0  0  0  0  0
  -30.4544  -17.2475   22.1112 C   0  0  0  0  0  0  0  0  0  0  0  0
  -25.4044  -31.1144   19.9302 C   0  0  0  0  0  0  0  0  0  0  0  0
  -23.5619  -23.1936   19.7591 C   0  0  0  0  0  0  0  0  0  0  0  0
  -25.9117  -29.8162   20.1294 C   0  0  0  0  0  0  0  0  0  0  0  0
  -22.6026  -22.9554   20.7570 C   0  0  0  0  0  0  0  0  0  0  0  0
  -18.6388  -14.2128   21.5562 C   0  0  0  0  0  0  0  0  0  0  0  0
  -20.8440  -13.8306   22.4661 C   0  0  0  0  0  0  0  0  0  0  0  0
  -29.0007  -21.4479   19.4058 C   0  0  0  0  0  0  0  0  0  0  0  0
  -22.1320  -20.7928   19.7850 C   0  0  0  0  0  0  0  0  0  0  0  0
  -29.4700  -23.7500   19.4531 C   0  0  0  0  0  0  0  0  0  0  0  0
  -20.3729  -15.8681   21.2563 C   0  0  0  0  0  0  0  0  0  0  0  0
  -30.9118  -25.8784   20.5364 C   0  0  0  0  0  0  0  0  0  0  0  0
  -30.2860  -24.5289   18.6326 C   0  0  0  0  0  0  0  0  0  0  0  0
  -29.7688  -17.5754   20.9262 C   0  0  0  0  0  0  0  0  0  0  0  0
  -30.4332  -15.8747   22.1515 C   0  0  0  0  0  0  0  0  0  0  0  0
  -31.0564  -18.1069   23.0882 C   0  0  0  0  0  0  0  0  0  0  0  0
  -24.4000  -26.5911   21.1121 C   0  0  0  0  0  0  0  0  0  0  0  0
  -21.3547  -26.2793   21.3104 C   0  0  0  0  0  0  0  0  0  0  0  0
  -18.0093  -25.7068   20.9669 C   0  0  0  0  0  0  0  0  0  0  0  0
  -26.7623  -11.7821   19.7797 C   0  0  0  0  0  0  0  0  0  0  0  0
  -24.3204  -31.6861   20.8093 C   0  0  0  0  0  0  0  0  0  0  0  0
  -24.3576  -24.4690   19.8231 C   0  0  0  0  0  0  0  0  0  0  0  0
  -22.3970  -24.0146   21.8052 C   0  0  0  0  0  0  0  0  0  0  0  0
  -23.5523  -30.6270   21.5958 C   0  0  0  0  0  0  0  0  0  0  0  0
  -30.2783  -12.0466   19.2858 C   0  0  0  0  0  0  0  0  0  0  0  0
  -24.5170  -29.6388   22.2434 C   0  0  0  0  0  0  0  0  0  0  0  0
  -23.3182  -10.9439   23.0561 C   0  0  0  0  0  0  0  0  0  0  0  0
  -22.0966  -11.7722   21.0044 C   0  0  0  0  0  0  0  0  0  0  0  0
  -30.6083  -13.4639   19.7571 C   0  0  0  0  0  0  0  0  0  0  0  0
  -24.6025  -11.6117   22.5636 C   0  0  0  0  0  0  0  0  0  0  0  0
  -23.3790  -12.4408   20.5079 C   0  0  0  0  0  0  0  0  0  0  0  0
  -28.9228  -11.9860   18.5852 C   0  0  0  0  0  0  0  0  0  0  0  0
  -28.1283  -13.9563   19.8344 C   0  0  0  0  0  0  0  0  0  0  0  0
  -25.3382  -28.8944   21.1836 C   0  0  1  0  0  0  0  0  0  0  0  0
  -23.5293  -25.6734   20.3051 C   0  0  1  0  0  0  0  0  0  0  0  0
  -22.0457  -11.6247   22.5318 C   0  0  0  0  0  0  0  0  0  0  0  0
  -29.4608  -14.0571   20.5965 C   0  0  2  0  0  0  0  0  0  0  0  0
  -24.6238  -11.7269   21.0379 C   0  0  0  0  0  0  0  0  0  0  0  0
  -17.2349  -13.7586   21.3397 C   0  0  0  0  0  0  0  0  0  0  0  0
  -21.3533  -12.7342   24.6780 C   0  0  0  0  0  0  0  0  0  0  0  0
  -15.7751  -26.7612   21.4072 C   0  0  0  0  0  0  0  0  0  0  0  0
  -21.6360  -25.6279   24.2769 C   0  0  0  0  0  0  0  0  0  0  0  0
  -19.1456  -25.7906   24.4762 C   0  0  0  0  0  0  0  0  0  0  0  0
  -20.4732  -27.7874   23.7884 C   0  0  0  0  0  0  0  0  0  0  0  0
  -17.3058  -25.6917   18.0922 C   0  0  0  0  0  0  0  0  0  0  0  0
  -20.4682  -19.4495   20.8264 C   0  0  0  0  0  0  0  0  0  1  0  0
  -19.8009  -18.0980   20.6595 C   0  0  0  0  0  0  0  0  0  0  0  0
  -21.7980  -12.9689   23.2219 C   0  0  2  0  0  0  0  0  0  0  0  0
  -20.1772  -25.8753   22.1611 C   0  0  1  0  0  0  0  0  0  0  0  0
  -16.8938  -26.5639   20.3962 C   0  0  2  0  0  0  0  0  0  0  0  0
  -20.3699  -26.2522   23.6572 C   0  0  0  0  0  0  0  0  0  0  0  0
  -29.3433  -16.4978   20.2616 N   0  0  0  0  0  0  0  0  0  0  0  0
  -29.7627  -15.4793   21.0316 N   0  0  0  0  0  0  0  0  0  0  0  0
  -22.3902  -25.3461   21.1794 N   0  0  0  0  0  0  0  0  0  0  0  0
  -27.8780  -12.5626   19.4348 N   0  0  0  0  0  0  0  0  0  0  0  0
  -30.9230  -14.9795   23.0352 N   0  0  0  0  0  0  0  0  0  0  0  0
  -30.2751  -18.5420   24.1674 N   0  0  0  0  0  0  0  0  0  0  0  0
  -24.5437  -27.8531   20.5681 N   0  0  0  0  0  0  0  0  0  0  0  0
  -19.0006  -26.4745   21.5407 N   0  0  0  0  0  0  0  0  0  0  0  0
  -25.8222  -12.4028   20.5932 N   0  0  0  0  0  0  0  0  0  0  0  0
  -16.3198  -25.9237   19.1789 N   0  3  0  0  0  0  0  0  0  0  0  0
  -32.2470  -18.4913   22.9979 O   0  0  0  0  0  0  0  0  0  0  0  0
  -24.9038  -26.1855   22.1530 O   0  0  0  0  0  0  0  0  0  0  0  0
  -21.3613  -27.3937   20.7798 O   0  0  0  0  0  0  0  0  0  0  0  0
  -18.0002  -24.4790   20.9126 O   0  0  0  0  0  0  0  0  0  0  0  0
  -26.6174  -10.6165   19.3959 O   0  0  0  0  0  0  0  0  0  0  0  0
  -28.7530  -22.6937   18.9166 O   0  0  0  0  0  0  0  0  0  0  0  0
  -21.4291  -19.6263   19.7863 O   0  0  0  0  0  0  0  0  0  1  0  0
  -20.7863  -17.0774   20.7625 O   0  0  0  0  0  0  0  0  0  0  0  0
  -31.6029  -26.9012   21.0564 F   0  0  0  0  0  0  0  0  0  0  0  0
  -30.3805  -24.2604   17.3232 F   0  0  0  0  0  0  0  0  0  0  0  0
  1  2  1  0  0  0  0
  1  5  2  0  0  0  0
  2  6  2  0  0  0  0
  3  8  2  0  0  0  0
  3 18  1  0  0  0  0
  4  9  1  0  0  0  0
  4 18  2  0  0  0  0
  5 20  1  0  0  0  0
  6 22  1  0  0  0  0
  7 10  2  0  0  0  0
  7 21  1  0  0  0  0
  8 26  1  0  0  0  0
  9 26  2  0  0  0  0
 10 27  1  0  0  0  0
 11 12  2  0  0  0  0
 11 28  1  0  0  0  0
 12 30  1  0  0  0  0
 13 23  1  0  0  0  0
 13 27  2  0  0  0  0
 14 24  1  0  0  0  0
 14 25  2  0  0  0  0
 15 24  2  0  0  0  0
 15 29  1  0  0  0  0
 16 25  1  0  0  0  0
 16 29  2  0  0  0  0
 17 30  2  0  0  0  0
 17 31  1  0  0  0  0
 18 32  1  0  0  0  0
 19 32  1  0  0  0  0
 19 33  2  0  0  0  0
 19 34  1  0  0  0  0
 20 22  2  0  0  0  0
 20 39  1  0  0  0  0
 21 23  2  0  0  0  0
 21 40  1  0  0  0  0
 22 52  1  0  0  0  0
 23 41  1  0  0  0  0
 24 57  1  0  0  0  0
 25 66  1  0  0  0  0
 26 85  1  0  0  0  0
 27 86  1  0  0  0  0
 28 31  2  0  0  0  0
 28 85  1  0  0  0  0
 29 87  1  0  0  0  0
 30 88  1  0  0  0  0
 31 89  1  0  0  0  0
 32 70  2  0  0  0  0
 33 71  1  0  0  0  0
 33 74  1  0  0  0  0
 34 75  1  0  0  0  0
 34 80  2  0  0  0  0
 35 53  1  0  0  0  0
 35 76  1  0  0  0  0
 35 81  2  0  0  0  0
 36 67  1  0  0  0  0
 36 72  1  0  0  0  0
 36 82  2  0  0  0  0
 37 68  1  0  0  0  0
 37 77  1  0  0  0  0
 37 83  2  0  0  0  0
 38 73  1  0  0  0  0
 38 78  1  0  0  0  0
 38 84  2  0  0  0  0
 39 42  1  0  0  0  0
 40 53  1  0  0  0  0
 41 72  1  0  0  0  0
 42 44  1  0  0  0  0
 43 47  1  0  0  0  0
 43 50  1  0  0  0  0
 44 52  1  0  0  0  0
 45 48  1  0  0  0  0
 45 54  1  0  0  0  0
 46 49  1  0  0  0  0
 46 54  1  0  0  0  0
 47 55  1  0  0  0  0
 48 56  1  0  0  0  0
 49 56  1  0  0  0  0
 50 73  1  0  0  0  0
 51 55  1  0  0  0  0
 51 73  1  0  0  0  0
 52 76  1  0  0  0  0
 53 72  1  0  0  0  0
 54 66  1  0  0  0  0
 55 71  1  0  0  0  0
 56 78  1  0  0  0  0
 58 66  1  0  0  0  0
 59 68  1  0  0  0  0
 60 69  1  0  0  0  0
 61 69  1  0  0  0  0
 62 69  1  0  0  0  0
 63 79  1  0  0  0  0
 64 65  1  0  0  0  0
 64 86  1  0  0  0  0
 65 87  1  0  0  0  0
 67 69  1  0  0  0  0
 67 77  1  0  0  0  0
 68 79  1  0  0  0  0
 70 71  1  0  0  0  0
M  CHG  1  79   1
M  ISO  4  38 100  64 101  78 100  86 101
M  END
> <Batch ID>
0140

> <Smiles>
CNC(C)C(=O)NC(C(=O)N1Cc2cc([101O:1][101CH2:1]COc3cc(C)cc(C(C)C4CCC([100NH:0][100C:0](=O)N5CCCC(n6nc(-c7ccc(Oc8ccc(F)cc8F)cc7)c(C(N)=O)c6N)C5)CC4)c3)ccc2CC1C(=O)NC1CCCc2ccccc21)C(C)(C)C

> <Shape>
0.271

> <Color>
0.053

> <Negative vol penalty>
0.000

$$$$

  -OEChem-04052321133D

 84 93  0     1  0  0  0  0  0999 V2000
  -23.6192   -8.0228   21.5383 C   0  0  0  0  0  0  0  0  0  0  0  0
  -24.2565   -9.0410   20.8366 C   0  0  0  0  0  0  0  0  0  0  0  0
  -23.4119  -29.3029   20.1458 C   0  0  0  0  0  0  0  0  0  0  0  0
  -23.5650  -27.8263   22.0519 C   0  0  0  0  0  0  0  0  0  0  0  0
  -22.3595   -8.2432   22.0938 C   0  0  0  0  0  0  0  0  0  0  0  0
  -23.6341  -10.2801   20.6891 C   0  0  0  0  0  0  0  0  0  0  0  0
  -26.7867  -14.1512   21.5378 C   0  0  0  0  0  0  0  0  0  0  0  0
  -22.0810  -29.5743   20.4630 C   0  0  0  0  0  0  0  0  0  0  0  0
  -22.2340  -28.0977   22.3691 C   0  0  0  0  0  0  0  0  0  0  0  0
  -27.6754  -14.4842   20.5165 C   0  0  0  0  0  0  0  0  0  0  0  0
  -19.1730  -27.1361   21.3032 C   0  0  0  0  0  0  0  0  0  0  0  0
  -18.3541  -26.0582   21.6394 C   0  0  0  0  0  0  0  0  0  0  0  0
  -26.2247  -16.2934   19.8522 C   0  0  0  0  0  0  0  0  0  0  0  0
  -28.3635  -21.1143   21.8663 C   0  0  0  0  0  0  0  0  0  0  0  0
  -29.5112  -19.0017   21.9294 C   0  0  0  0  0  0  0  0  0  0  0  0
  -17.9505  -27.0414   23.8091 C   0  0  0  0  0  0  0  0  0  0  0  0
  -24.1539  -28.4289   20.9403 C   0  0  0  0  0  0  0  0  0  0  0  0
  -26.6683  -28.8427   21.0600 C   0  0  0  0  0  0  0  0  0  0  0  0
  -21.7255   -9.4887   21.9614 C   0  0  0  0  0  0  0  0  0  0  0  0
  -25.6029  -14.8812   21.7174 C   0  0  0  0  0  0  0  0  0  0  0  0
  -22.3642  -10.5170   21.2423 C   0  0  0  0  0  0  0  0  0  0  0  0
  -25.3238  -15.9692   20.8781 C   0  0  0  0  0  0  0  0  0  0  0  0
  -28.7881  -19.9972   22.5770 C   0  0  0  0  0  0  0  0  0  0  0  0
  -21.4920  -28.9718   21.5746 C   0  0  0  0  0  0  0  0  0  0  0  0
  -27.3931  -15.5536   19.6717 C   0  0  0  0  0  0  0  0  0  0  0  0
  -19.3807  -28.1667   22.2200 C   0  0  0  0  0  0  0  0  0  0  0  0
  -17.7428  -26.0108   22.8923 C   0  0  0  0  0  0  0  0  0  0  0  0
  -18.7695  -28.1193   23.4729 C   0  0  0  0  0  0  0  0  0  0  0  0
  -25.5286  -28.1476   20.6129 C   0  0  0  0  0  0  0  0  0  0  0  0
  -28.6853  -21.1878   20.5206 C   0  0  0  0  0  0  0  0  0  0  0  0
  -29.7813  -19.1696   20.5808 C   0  0  0  0  0  0  0  0  0  0  0  0
  -27.7224  -28.1891   20.4701 C   0  0  0  0  0  0  0  0  0  0  0  0
  -26.7653  -29.9775   21.9308 C   0  0  0  0  0  0  0  0  0  0  0  0
  -22.5023  -14.1927   21.5931 C   0  0  0  0  0  0  0  0  0  0  0  0
  -22.1805  -17.2442   22.6451 C   0  0  0  0  0  0  0  0  0  0  0  0
  -23.5097  -20.3774   22.8967 C   0  0  0  0  0  0  0  0  0  0  0  0
  -28.4555  -22.6116   18.4552 C   0  0  0  0  0  0  0  0  0  0  0  0
  -20.3434   -9.6647   22.5389 C   0  0  0  0  0  0  0  0  0  0  0  0
  -24.6676  -14.5259   22.8405 C   0  0  0  0  0  0  0  0  0  0  0  0
  -24.0764  -16.7973   21.0416 C   0  0  0  0  0  0  0  0  0  0  0  0
  -19.9146  -11.1249   22.6581 C   0  0  0  0  0  0  0  0  0  0  0  0
  -28.8336  -25.6181   16.5855 C   0  0  0  0  0  0  0  0  0  0  0  0
  -28.8801  -20.9690   24.9688 C   0  0  0  0  0  0  0  0  0  0  0  0
  -29.5937  -19.6538   25.0083 C   0  0  0  0  0  0  0  0  0  0  0  0
  -20.2258  -11.8797   21.3696 C   0  0  0  0  0  0  0  0  0  0  0  0
  -28.1380  -26.6723   17.4497 C   0  0  0  0  0  0  0  0  0  0  0  0
  -28.1108  -24.2733   16.6399 C   0  0  0  0  0  0  0  0  0  0  0  0
  -27.1750  -24.8061   18.8557 C   0  0  0  0  0  0  0  0  0  0  0  0
  -28.4703  -19.8667   24.0266 C   0  0  0  0  0  0  0  0  0  0  0  0
  -21.7321  -11.8826   21.0821 C   0  0  1  0  0  0  0  0  0  0  0  0
  -23.2419  -15.0168   22.6087 C   0  0  1  0  0  0  0  0  0  0  0  0
  -27.9033  -26.1597   18.8842 C   0  0  2  0  0  0  0  0  0  0  0  0
  -23.7039  -22.7734   23.6169 C   0  0  0  0  0  0  0  0  0  0  0  0
  -20.3027  -17.7260   20.2889 C   0  0  0  0  0  0  0  0  0  0  0  0
  -20.5824  -20.1863   20.6589 C   0  0  0  0  0  0  0  0  0  0  0  0
  -19.5654  -18.7666   22.4402 C   0  0  0  0  0  0  0  0  0  0  0  0
  -24.9348  -19.6358   25.3823 C   0  0  0  0  0  0  0  0  0  0  0  0
  -30.4960  -16.5973   18.1243 C   0  0  0  0  0  0  0  0  0  0  0  0
  -29.6409  -15.6050   18.8966 C   0  0  0  0  0  0  0  0  0  1  0  0
  -30.2134  -18.0335   18.5367 C   0  0  0  0  0  0  0  0  0  0  0  0
  -22.0461  -18.5946   21.9836 C   0  0  1  0  0  0  0  0  0  0  0  0
  -23.6393  -21.3249   24.0756 C   0  0  2  0  0  0  0  0  0  0  0  0
  -20.6468  -18.8018   21.3383 C   0  0  0  0  0  0  0  0  0  0  0  0
  -25.8303  -27.1306   19.8014 N   0  0  0  0  0  0  0  0  0  0  0  0
  -29.3857  -20.2408   19.8572 N   0  0  0  0  0  0  0  0  0  0  0  0
  -27.1715  -27.1818   19.7338 N   0  0  0  0  0  0  0  0  0  0  0  0
  -23.1901  -16.4066   22.1504 N   0  0  0  0  0  0  0  0  0  0  0  0
  -27.9276  -23.8490   18.0296 N   0  0  0  0  0  0  0  0  0  0  0  0
  -29.0576  -28.3835   20.5144 N   0  0  0  0  0  0  0  0  0  0  0  0
  -25.5838  -30.5251   22.4490 N   0  0  0  0  0  0  0  0  0  0  0  0
  -28.2477  -22.3297   19.8049 N   0  0  0  0  0  0  0  0  0  0  0  0
  -22.4045  -12.8533   21.9187 N   0  0  0  0  0  0  0  0  0  0  0  0
  -22.3874  -19.5831   23.0008 N   0  0  0  0  0  0  0  0  0  0  0  0
  -24.8757  -21.0217   24.8504 N   0  3  0  0  0  0  0  0  0  0  0  0
  -27.8661  -30.5009   22.2272 O   0  0  0  0  0  0  0  0  0  0  0  0
  -22.0523  -14.7323   20.5891 O   0  0  0  0  0  0  0  0  0  0  0  0
  -21.4224  -16.9466   23.5715 O   0  0  0  0  0  0  0  0  0  0  0  0
  -24.3209  -20.3476   21.9738 O   0  0  0  0  0  0  0  0  0  0  0  0
  -29.0719  -21.8700   17.6857 O   0  0  0  0  0  0  0  0  0  0  0  0
  -20.1934  -29.2366   21.8845 O   0  0  0  0  0  0  0  0  0  0  0  0
  -28.2586  -15.8804   18.6737 O   0  0  0  0  0  0  0  0  0  1  0  0
  -30.4924  -18.2019   19.9200 O   0  0  0  0  0  0  0  0  0  0  0  0
  -16.9552  -24.9764   23.2144 F   0  0  0  0  0  0  0  0  0  0  0  0
  -18.9644  -29.1070   24.3574 F   0  0  0  0  0  0  0  0  0  0  0  0
  1  2  1  0  0  0  0
  1  5  2  0  0  0  0
  2  6  2  0  0  0  0
  3  8  2  0  0  0  0
  3 17  1  0  0  0  0
  4  9  1  0  0  0  0
  4 17  2  0  0  0  0
  5 19  1  0  0  0  0
  6 21  1  0  0  0  0
  7 10  2  0  0  0  0
  7 20  1  0  0  0  0
  8 24  1  0  0  0  0
  9 24  2  0  0  0  0
 10 25  1  0  0  0  0
 11 12  2  0  0  0  0
 11 26  1  0  0  0  0
 12 27  1  0  0  0  0
 13 22  1  0  0  0  0
 13 25  2  0  0  0  0
 14 23  1  0  0  0  0
 14 30  2  0  0  0  0
 15 23  2  0  0  0  0
 15 31  1  0  0  0  0
 16 27  2  0  0  0  0
 16 28  1  0  0  0  0
 17 29  1  0  0  0  0
 18 29  1  0  0  0  0
 18 32  2  0  0  0  0
 18 33  1  0  0  0  0
 19 21  2  0  0  0  0
 19 38  1  0  0  0  0
 20 22  2  0  0  0  0
 20 39  1  0  0  0  0
 21 50  1  0  0  0  0
 22 40  1  0  0  0  0
 23 49  1  0  0  0  0
 24 80  1  0  0  0  0
 25 81  1  0  0  0  0
 26 28  2  0  0  0  0
 26 80  1  0  0  0  0
 27 83  1  0  0  0  0
 28 84  1  0  0  0  0
 29 64  2  0  0  0  0
 30 65  1  0  0  0  0
 30 71  1  0  0  0  0
 31 65  2  0  0  0  0
 31 82  1  0  0  0  0
 32 66  1  0  0  0  0
 32 69  1  0  0  0  0
 33 70  1  0  0  0  0
 33 75  2  0  0  0  0
 34 51  1  0  0  0  0
 34 72  1  0  0  0  0
 34 76  2  0  0  0  0
 35 61  1  0  0  0  0
 35 67  1  0  0  0  0
 35 77  2  0  0  0  0
 36 62  1  0  0  0  0
 36 73  1  0  0  0  0
 36 78  2  0  0  0  0
 37 68  1  0  0  0  0
 37 71  1  0  0  0  0
 37 79  2  0  0  0  0
 38 41  1  0  0  0  0
 39 51  1  0  0  0  0
 40 67  1  0  0  0  0
 41 45  1  0  0  0  0
 42 46  1  0  0  0  0
 42 47  1  0  0  0  0
 43 44  1  0  0  0  0
 43 49  1  0  0  0  0
 44 49  1  0  0  0  0
 45 50  1  0  0  0  0
 46 52  1  0  0  0  0
 47 68  1  0  0  0  0
 48 52  1  0  0  0  0
 48 68  1  0  0  0  0
 50 72  1  0  0  0  0
 51 67  1  0  0  0  0
 52 66  1  0  0  0  0
 53 62  1  0  0  0  0
 54 63  1  0  0  0  0
 55 63  1  0  0  0  0
 56 63  1  0  0  0  0
 57 74  1  0  0  0  0
 58 59  1  0  0  0  0
 58 60  1  0  0  0  0
 59 81  1  0  0  0  0
 60 82  1  0  0  0  0
 61 63  1  0  0  0  0
 61 73  1  0  0  0  0
 62 74  1  0  0  0  0
 64 66  1  0  0  0  0
M  CHG  1  74   1
M  ISO  4  37 100  59 101  71 100  81 101
M  END
> <Batch ID>
0140

> <Smiles>
CNC(C)C(=O)NC(C(=O)N1Cc2cc([101O:1][101CH2:1]CCOc3cc(C4CC4)cc([100NH:0][100C:0](=O)N4CCCC(n5nc(-c6ccc(Oc7ccc(F)cc7F)cc6)c(C(N)=O)c5N)C4)n3)ccc2CC1C(=O)NC1CCCc2ccccc21)C(C)(C)C

> <Shape>
0.250

> <Color>
0.110

> <Negative vol penalty>
0.000

$$$$

  -OEChem-04052321133D

 91101  0     1  0  0  0  0  0999 V2000
  -42.1411  -21.7211   26.1525 C   0  0  0  0  0  0  0  0  0  0  0  0
  -41.0010  -21.3301   25.4577 C   0  0  0  0  0  0  0  0  0  0  0  0
  -23.0000   -9.8906   19.9824 C   0  0  0  0  0  0  0  0  0  0  0  0
  -23.7245   -9.9459   22.2865 C   0  0  0  0  0  0  0  0  0  0  0  0
  -42.4316  -23.0759   26.3067 C   0  0  0  0  0  0  0  0  0  0  0  0
  -40.1502  -22.2939   24.9176 C   0  0  0  0  0  0  0  0  0  0  0  0
  -38.7138  -21.1872   20.1893 C   0  0  0  0  0  0  0  0  0  0  0  0
  -30.2431  -18.9389   23.0671 C   0  0  0  0  0  0  0  0  0  0  0  0
  -22.2343   -8.7559   20.2504 C   0  0  0  0  0  0  0  0  0  0  0  0
  -22.9587   -8.8113   22.5546 C   0  0  0  0  0  0  0  0  0  0  0  0
  -37.7134  -20.2284   20.0357 C   0  0  0  0  0  0  0  0  0  0  0  0
  -21.4794   -5.7190   23.7626 C   0  0  0  0  0  0  0  0  0  0  0  0
  -22.0660   -4.7050   24.5197 C   0  0  0  0  0  0  0  0  0  0  0  0
  -29.7564  -17.7005   22.6636 C   0  0  0  0  0  0  0  0  0  0  0  0
  -36.0877  -21.9832   19.7242 C   0  0  0  0  0  0  0  0  0  0  0  0
  -23.7929   -4.4564   22.8485 C   0  0  0  0  0  0  0  0  0  0  0  0
  -23.7452  -10.4855   21.0005 C   0  0  0  0  0  0  0  0  0  0  0  0
  -24.1286  -13.0011   20.8204 C   0  0  0  0  0  0  0  0  0  0  0  0
  -41.5891  -24.0567   25.7600 C   0  0  0  0  0  0  0  0  0  0  0  0
  -38.4063  -22.5537   20.1222 C   0  0  0  0  0  0  0  0  0  0  0  0
  -40.4290  -23.6632   25.0659 C   0  0  0  0  0  0  0  0  0  0  0  0
  -37.0865  -22.9573   19.8747 C   0  0  0  0  0  0  0  0  0  0  0  0
  -31.5177  -19.3381   22.6808 C   0  0  0  0  0  0  0  0  0  0  0  0
  -22.2136   -8.2163   21.5365 C   0  0  0  0  0  0  0  0  0  0  0  0
  -36.3996  -20.6263   19.8060 C   0  0  0  0  0  0  0  0  0  0  0  0
  -22.0495   -6.1018   22.5485 C   0  0  0  0  0  0  0  0  0  0  0  0
  -23.2228   -4.0736   24.0626 C   0  0  0  0  0  0  0  0  0  0  0  0
  -23.2063   -5.4704   22.0914 C   0  0  0  0  0  0  0  0  0  0  0  0
  -24.5368  -11.6573   20.7241 C   0  0  0  0  0  0  0  0  0  0  0  0
  -30.5771  -16.9049   21.8805 C   0  0  0  0  0  0  0  0  0  0  0  0
  -32.2597  -18.4692   21.8971 C   0  0  0  0  0  0  0  0  0  0  0  0
  -25.2379  -13.7240   20.4551 C   0  0  0  0  0  0  0  0  0  0  0  0
  -22.8601  -13.5472   21.2057 C   0  0  0  0  0  0  0  0  0  0  0  0
  -38.6085  -25.0001   22.1416 C   0  0  0  0  0  0  0  0  0  0  0  0
  -37.7065  -26.7167   19.5412 C   0  0  0  0  0  0  0  0  0  0  0  0
  -36.1517  -26.7732   16.5037 C   0  0  0  0  0  0  0  0  0  0  0  0
  -30.7165  -14.6897   20.6890 C   0  0  0  0  0  0  0  0  0  0  0  0
  -41.9195  -25.5096   25.9933 C   0  0  0  0  0  0  0  0  0  0  0  0
  -39.5015  -23.5751   20.2634 C   0  0  0  0  0  0  0  0  0  0  0  0
  -36.7077  -24.4115   19.7738 C   0  0  0  0  0  0  0  0  0  0  0  0
  -41.1655  -26.4618   25.0685 C   0  0  0  0  0  0  0  0  0  0  0  0
  -29.6008  -12.2321   18.3668 C   0  0  0  0  0  0  0  0  0  0  0  0
  -39.6872  -26.0906   25.0103 C   0  0  0  0  0  0  0  0  0  0  0  0
  -31.1543  -24.4743   20.3522 C   0  0  0  0  0  0  0  0  0  0  0  0
  -30.6692  -23.6925   19.1634 C   0  0  0  0  0  0  0  0  0  0  0  0
  -28.1503  -11.9740   18.7810 C   0  0  0  0  0  0  0  0  0  0  0  0
  -32.9836  -19.4021   26.7249 C   0  0  0  0  0  0  0  0  0  0  0  0
  -32.5615  -18.4101   25.6768 C   0  0  0  0  0  0  0  0  0  0  0  0
  -30.5008  -12.4782   19.5764 C   0  0  0  0  0  0  0  0  0  0  0  0
  -28.5844  -13.2678   20.9081 C   0  0  0  0  0  0  0  0  0  0  0  0
  -39.4948  -24.6785   24.4442 C   0  0  1  0  0  0  0  0  0  0  0  0
  -38.9877  -24.9471   20.6887 C   0  0  1  0  0  0  0  0  0  0  0  0
  -30.4444  -23.1641   20.5530 C   0  0  0  0  0  0  0  0  0  0  0  0
  -27.6273  -13.0787   19.7200 C   0  0  2  0  0  0  0  0  0  0  0  0
  -33.1027  -19.7529   25.2665 C   0  0  0  0  0  0  0  0  0  0  0  0
  -35.5399  -28.3294   14.6326 C   0  0  0  0  0  0  0  0  0  0  0  0
  -35.4468  -27.8660   21.2392 C   0  0  0  0  0  0  0  0  0  0  0  0
  -34.3444  -28.6349   19.1269 C   0  0  0  0  0  0  0  0  0  0  0  0
  -36.5870  -29.5271   19.7576 C   0  0  0  0  0  0  0  0  0  0  0  0
  -37.7622  -25.2422   14.5489 C   0  0  0  0  0  0  0  0  0  0  0  0
  -31.2106  -21.9440   21.0414 C   0  0  0  0  0  0  0  0  0  0  0  0
  -32.1777  -20.7987   24.6549 C   0  0  0  0  0  0  0  0  0  0  0  0
  -31.2137  -21.8630   22.5719 C   0  0  0  0  0  0  0  0  0  0  0  0
  -35.5901  -18.4576   20.3510 C   0  0  0  0  0  0  0  0  0  1  0  0
  -34.2257  -17.8898   20.6909 C   0  0  0  0  0  0  0  0  0  0  0  0
  -32.0506  -20.6616   23.1081 C   0  0  2  0  0  0  0  0  0  0  0  0
  -36.3857  -27.1411   18.9459 C   0  0  1  0  0  0  0  0  0  0  0  0
  -36.5756  -27.3517   15.1658 C   0  0  2  0  0  0  0  0  0  0  0  0
  -35.6975  -28.2648   19.7712 C   0  0  0  0  0  0  0  0  0  0  0  0
  -25.8063  -11.5311   20.3285 N   0  0  0  0  0  0  0  0  0  0  0  0
  -31.8207  -17.2586   21.4855 N   0  0  0  0  0  0  0  0  0  0  0  0
  -26.2053  -12.8050   20.1729 N   0  0  0  0  0  0  0  0  0  0  0  0
  -37.8129  -25.3724   19.9250 N   0  0  0  0  0  0  0  0  0  0  0  0
  -29.9447  -13.5401   20.4178 N   0  0  0  0  0  0  0  0  0  0  0  0
  -25.4703  -15.0497   20.3509 N   0  0  0  0  0  0  0  0  0  0  0  0
  -21.8289  -12.6628   21.5504 N   0  0  0  0  0  0  0  0  0  0  0  0
  -30.0713  -15.6457   21.4728 N   0  0  0  0  0  0  0  0  0  0  0  0
  -39.6414  -24.6869   23.0045 N   0  0  0  0  0  0  0  0  0  0  0  0
  -36.6599  -27.5009   17.5589 N   0  0  0  0  0  0  0  0  0  0  0  0
  -36.7539  -26.2631   14.1638 N   0  3  0  0  0  0  0  0  0  0  0  0
  -22.6424  -14.7824   21.2273 O   0  0  0  0  0  0  0  0  0  0  0  0
  -37.4639  -25.3042   22.4567 O   0  0  0  0  0  0  0  0  0  0  0  0
  -38.6129  -27.5456   19.6548 O   0  0  0  0  0  0  0  0  0  0  0  0
  -35.4379  -25.7776   16.6029 O   0  0  0  0  0  0  0  0  0  0  0  0
  -31.8552  -14.8288   20.2350 O   0  0  0  0  0  0  0  0  0  0  0  0
  -34.4353  -19.7629   24.7283 O   0  0  0  0  0  0  0  0  0  0  0  0
  -21.4663   -7.1092   21.7984 O   0  0  0  0  0  0  0  0  0  0  0  0
  -35.4211  -19.6926   19.6563 O   0  0  0  0  0  0  0  0  0  1  0  0
  -33.5188  -18.8278   21.4931 O   0  0  0  0  0  0  0  0  0  0  0  0
  -23.7868   -3.1009   24.7905 F   0  0  0  0  0  0  0  0  0  0  0  0
  -23.7593   -5.8346   20.9263 F   0  0  0  0  0  0  0  0  0  0  0  0
  1  2  1  0  0  0  0
  1  5  2  0  0  0  0
  2  6  2  0  0  0  0
  3  9  2  0  0  0  0
  3 17  1  0  0  0  0
  4 10  1  0  0  0  0
  4 17  2  0  0  0  0
  5 19  1  0  0  0  0
  6 21  1  0  0  0  0
  7 11  2  0  0  0  0
  7 20  1  0  0  0  0
  8 14  2  0  0  0  0
  8 23  1  0  0  0  0
  9 24  1  0  0  0  0
 10 24  2  0  0  0  0
 11 25  1  0  0  0  0
 12 13  2  0  0  0  0
 12 26  1  0  0  0  0
 13 27  1  0  0  0  0
 14 30  1  0  0  0  0
 15 22  1  0  0  0  0
 15 25  2  0  0  0  0
 16 27  2  0  0  0  0
 16 28  1  0  0  0  0
 17 29  1  0  0  0  0
 18 29  1  0  0  0  0
 18 32  2  0  0  0  0
 18 33  1  0  0  0  0
 19 21  2  0  0  0  0
 19 38  1  0  0  0  0
 20 22  2  0  0  0  0
 20 39  1  0  0  0  0
 21 51  1  0  0  0  0
 22 40  1  0  0  0  0
 23 31  2  0  0  0  0
 23 66  1  0  0  0  0
 24 87  1  0  0  0  0
 25 88  1  0  0  0  0
 26 28  2  0  0  0  0
 26 87  1  0  0  0  0
 27 90  1  0  0  0  0
 28 91  1  0  0  0  0
 29 70  2  0  0  0  0
 30 71  2  0  0  0  0
 30 77  1  0  0  0  0
 31 71  1  0  0  0  0
 31 89  1  0  0  0  0
 32 72  1  0  0  0  0
 32 75  1  0  0  0  0
 33 76  1  0  0  0  0
 33 81  2  0  0  0  0
 34 52  1  0  0  0  0
 34 78  1  0  0  0  0
 34 82  2  0  0  0  0
 35 67  1  0  0  0  0
 35 73  1  0  0  0  0
 35 83  2  0  0  0  0
 36 68  1  0  0  0  0
 36 79  1  0  0  0  0
 36 84  2  0  0  0  0
 37 74  1  0  0  0  0
 37 77  1  0  0  0  0
 37 85  2  0  0  0  0
 38 41  1  0  0  0  0
 39 52  1  0  0  0  0
 40 73  1  0  0  0  0
 41 43  1  0  0  0  0
 42 46  1  0  0  0  0
 42 49  1  0  0  0  0
 43 51  1  0  0  0  0
 44 45  1  0  0  0  0
 44 53  1  0  0  0  0
 45 53  1  0  0  0  0
 46 54  1  0  0  0  0
 47 48  1  0  0  0  0
 47 55  1  0  0  0  0
 48 55  1  0  0  0  0
 49 74  1  0  0  0  0
 50 54  1  0  0  0  0
 50 74  1  0  0  0  0
 51 78  1  0  0  0  0
 52 73  1  0  0  0  0
 53 61  1  0  0  0  0
 54 72  1  0  0  0  0
 55 62  1  0  0  0  0
 55 86  1  0  0  0  0
 56 68  1  0  0  0  0
 57 69  1  0  0  0  0
 58 69  1  0  0  0  0
 59 69  1  0  0  0  0
 60 80  1  0  0  0  0
 61 63  1  0  0  0  0
 62 66  1  0  0  0  0
 63 66  1  0  0  0  0
 64 65  1  0  0  0  0
 64 88  1  0  0  0  0
 65 89  1  0  0  0  0
 67 69  1  0  0  0  0
 67 79  1  0  0  0  0
 68 80  1  0  0  0  0
 70 72  1  0  0  0  0
M  CHG  1  80   1
M  ISO  4  37 100  64 101  77 100  88 101
M  END
> <Batch ID>
0140

> <Smiles>
CNC(C)C(=O)NC(C(=O)N1Cc2cc([101O:1][101CH2:1]COc3nc([100NH:0][100C:0](=O)N4CCCC(n5nc(-c6ccc(Oc7ccc(F)cc7F)cc6)c(C(N)=O)c5N)C4)ccc3C(CCC3CC3)CC3(O)CC3)ccc2CC1C(=O)NC1CCCc2ccccc21)C(C)(C)C

> <Shape>
0.184

> <Color>
0.186

> <Negative vol penalty>
0.000

$$$$

  -OEChem-04052321133D

 86 94  0     1  0  0  0  0  0999 V2000
  -31.1576  -17.2707   17.9591 C   0  0  0  0  0  0  0  0  0  0  0  0
  -30.9654  -18.6319   17.7456 C   0  0  0  0  0  0  0  0  0  0  0  0
  -23.7446  -17.5467   21.8471 C   0  0  0  0  0  0  0  0  0  0  0  0
  -22.0768  -17.8286   20.1220 C   0  0  0  0  0  0  0  0  0  0  0  0
  -30.5742  -16.6502   19.0629 C   0  0  0  0  0  0  0  0  0  0  0  0
  -30.1888  -19.3733   18.6353 C   0  0  0  0  0  0  0  0  0  0  0  0
  -31.0481  -25.2050   20.2962 C   0  0  0  0  0  0  0  0  0  0  0  0
  -25.3422  -27.3214   19.2864 C   0  0  0  0  0  0  0  0  0  0  0  0
  -23.6287  -16.1614   21.7329 C   0  0  0  0  0  0  0  0  0  0  0  0
  -21.9609  -16.4432   20.0077 C   0  0  0  0  0  0  0  0  0  0  0  0
  -30.4646  -26.3973   19.8701 C   0  0  0  0  0  0  0  0  0  0  0  0
  -26.7355  -27.2722   19.3291 C   0  0  0  0  0  0  0  0  0  0  0  0
  -24.7240  -13.7336   19.6499 C   0  0  0  0  0  0  0  0  0  0  0  0
  -25.9008  -12.9857   19.6110 C   0  0  0  0  0  0  0  0  0  0  0  0
  -28.9138  -26.2907   21.7148 C   0  0  0  0  0  0  0  0  0  0  0  0
  -25.2134  -11.8007   21.6011 C   0  0  0  0  0  0  0  0  0  0  0  0
  -22.9685  -18.3803   21.0417 C   0  0  0  0  0  0  0  0  0  0  0  0
  -23.9641  -20.6531   20.4493 C   0  0  0  0  0  0  0  0  0  0  0  0
  -29.7979  -17.3862   19.9719 C   0  0  0  0  0  0  0  0  0  0  0  0
  -30.5609  -24.5397   21.4305 C   0  0  0  0  0  0  0  0  0  0  0  0
  -29.5933  -18.7617   19.7516 C   0  0  0  0  0  0  0  0  0  0  0  0
  -29.4945  -25.0914   22.1547 C   0  0  0  0  0  0  0  0  0  0  0  0
  -25.3588  -29.1574   20.8565 C   0  0  0  0  0  0  0  0  0  0  0  0
  -26.7521  -29.1083   20.8992 C   0  0  0  0  0  0  0  0  0  0  0  0
  -24.6538  -28.2639   20.0501 C   0  0  0  0  0  0  0  0  0  0  0  0
  -22.7369  -15.6097   20.8131 C   0  0  0  0  0  0  0  0  0  0  0  0
  -29.3954  -26.9389   20.5778 C   0  0  0  0  0  0  0  0  0  0  0  0
  -27.4405  -28.1657   20.1355 C   0  0  0  0  0  0  0  0  0  1  0  0
  -23.7920  -13.5151   20.6644 C   0  0  0  0  0  0  0  0  0  0  0  0
  -26.1454  -12.0193   20.5865 C   0  0  0  0  0  0  0  0  0  0  0  0
  -24.0366  -12.5487   21.6400 C   0  0  0  0  0  0  0  0  0  0  0  0
  -23.0874  -19.8114   21.1597 C   0  0  0  0  0  0  0  0  0  0  0  0
  -23.6879  -21.9132   20.9210 C   0  0  0  0  0  0  0  0  0  0  0  0
  -24.9408  -20.3253   19.4522 C   0  0  0  0  0  0  0  0  0  0  0  0
  -29.2503  -21.6950   21.9723 C   0  0  0  0  0  0  0  0  0  0  0  0
  -29.4658  -22.6203   25.0739 C   0  0  0  0  0  0  0  0  0  0  0  0
  -29.6674  -25.1748   27.3278 C   0  0  0  0  0  0  0  0  0  0  0  0
  -20.0340  -25.8534   22.4272 C   0  0  0  0  0  0  0  0  0  0  0  0
  -29.1485  -16.6622   21.1246 C   0  0  0  0  0  0  0  0  0  0  0  0
  -31.2186  -23.2683   21.8925 C   0  0  0  0  0  0  0  0  0  0  0  0
  -28.9474  -24.4268   23.3907 C   0  0  0  0  0  0  0  0  0  0  0  0
  -28.6487  -17.5943   22.2254 C   0  0  0  0  0  0  0  0  0  0  0  0
  -20.9056  -23.4139   24.8697 C   0  0  0  0  0  0  0  0  0  0  0  0
  -27.8788  -18.7659   21.6241 C   0  0  0  0  0  0  0  0  0  0  0  0
  -21.6172  -22.3265   24.0629 C   0  0  0  0  0  0  0  0  0  0  0  0
  -19.7518  -24.0347   24.0853 C   0  0  0  0  0  0  0  0  0  0  0  0
  -20.8265  -23.4587   21.9436 C   0  0  0  0  0  0  0  0  0  0  0  0
  -28.7779  -19.6048   20.7079 C   0  0  1  0  0  0  0  0  0  0  0  0
  -30.3093  -22.4080   22.7646 C   0  0  1  0  0  0  0  0  0  0  0  0
  -22.0329  -22.8418   22.6719 C   0  0  2  0  0  0  0  0  0  0  0  0
  -27.6003  -31.4551   21.1440 C   0  0  0  0  0  0  0  0  0  0  0  0
  -23.7019  -29.5154   22.7221 C   0  0  0  0  0  0  0  0  0  0  0  0
  -23.8184  -31.1521   20.8083 C   0  0  0  0  0  0  0  0  0  0  0  0
  -29.7925  -25.6204   29.7943 C   0  0  0  0  0  0  0  0  0  0  0  0
  -26.4877  -22.0085   25.3329 C   0  0  0  0  0  0  0  0  0  0  0  0
  -26.4705  -23.3371   27.4548 C   0  0  0  0  0  0  0  0  0  0  0  0
  -27.8753  -21.2829   27.2830 C   0  0  0  0  0  0  0  0  0  0  0  0
  -32.2997  -26.5032   27.0720 C   0  0  0  0  0  0  0  0  0  0  0  0
  -27.5156  -30.0631   21.7609 C   0  0  0  0  0  0  0  0  0  0  0  0
  -20.9871  -27.7215   19.2711 C   0  0  0  0  0  0  0  0  0  0  0  0
  -22.4788  -27.4011   19.1838 C   0  0  0  0  0  0  0  0  0  0  0  0
  -20.3993  -27.5699   20.6724 C   0  0  0  0  0  0  0  0  0  0  0  0
  -24.6223  -30.1694   21.6772 C   0  0  0  0  0  0  0  0  0  0  0  0
  -28.5691  -23.3672   26.0314 C   0  0  1  0  0  0  0  0  0  0  0  0
  -30.5856  -25.4001   28.5155 C   0  0  2  0  0  0  0  0  0  0  0  0
  -27.3595  -22.5107   26.5012 C   0  0  0  0  0  0  0  0  0  0  0  0
  -22.3123  -20.4804   22.0176 N   0  0  0  0  0  0  0  0  0  0  0  0
  -22.7012  -21.7557   21.8493 N   0  0  0  0  0  0  0  0  0  0  0  0
  -29.6201  -23.1824   23.7987 N   0  0  0  0  0  0  0  0  0  0  0  0
  -20.2130  -24.5047   22.7768 N   0  0  0  0  0  0  0  0  0  0  0  0
  -24.1954  -23.1294   20.6281 N   0  0  0  0  0  0  0  0  0  0  0  0
  -25.0952  -18.9817   19.0844 N   0  0  0  0  0  0  0  0  0  0  0  0
  -23.2429  -28.2967   19.9939 N   0  0  0  0  0  0  0  0  0  0  0  0
  -29.6423  -20.4596   21.4931 N   0  0  0  0  0  0  0  0  0  0  0  0
  -29.4275  -23.8338   27.1149 N   0  0  0  0  0  0  0  0  0  0  0  0
  -20.5053  -26.2170   21.1717 N   0  0  0  0  0  0  0  0  0  0  0  0
  -31.4471  -26.5941   28.2852 N   0  3  0  0  0  0  0  0  0  0  0  0
  -25.6668  -21.1960   18.9153 O   0  0  0  0  0  0  0  0  0  0  0  0
  -28.1578  -22.2257   21.8092 O   0  0  0  0  0  0  0  0  0  0  0  0
  -30.0149  -21.5803   25.4460 O   0  0  0  0  0  0  0  0  0  0  0  0
  -29.2060  -26.0965   26.6584 O   0  0  0  0  0  0  0  0  0  0  0  0
  -19.4989  -26.6739   23.1805 O   0  0  0  0  0  0  0  0  0  0  0  0
  -22.6238  -14.2579   20.7012 O   0  0  0  0  0  0  0  0  0  0  0  0
  -28.8237  -28.1022   20.1636 O   0  0  0  0  0  0  0  0  0  1  0  0
  -27.2748  -11.3001   20.5482 F   0  0  0  0  0  0  0  0  0  0  0  0
  -23.1444  -12.3334   22.6164 F   0  0  0  0  0  0  0  0  0  0  0  0
  1  2  1  0  0  0  0
  1  5  2  0  0  0  0
  2  6  2  0  0  0  0
  3  9  2  0  0  0  0
  3 17  1  0  0  0  0
  4 10  1  0  0  0  0
  4 17  2  0  0  0  0
  5 19  1  0  0  0  0
  6 21  1  0  0  0  0
  7 11  2  0  0  0  0
  7 20  1  0  0  0  0
  8 12  2  0  0  0  0
  8 25  1  0  0  0  0
  9 26  1  0  0  0  0
 10 26  2  0  0  0  0
 11 27  1  0  0  0  0
 12 28  1  0  0  0  0
 13 14  2  0  0  0  0
 13 29  1  0  0  0  0
 14 30  1  0  0  0  0
 15 22  1  0  0  0  0
 15 27  2  0  0  0  0
 16 30  2  0  0  0  0
 16 31  1  0  0  0  0
 17 32  1  0  0  0  0
 18 32  1  0  0  0  0
 18 33  2  0  0  0  0
 18 34  1  0  0  0  0
 19 21  2  0  0  0  0
 19 39  1  0  0  0  0
 20 22  2  0  0  0  0
 20 40  1  0  0  0  0
 21 48  1  0  0  0  0
 22 41  1  0  0  0  0
 23 24  1  0  0  0  0
 23 25  2  0  0  0  0
 23 63  1  0  0  0  0
 24 28  2  0  0  0  0
 24 59  1  0  0  0  0
 25 73  1  0  0  0  0
 26 83  1  0  0  0  0
 27 84  1  0  0  0  0
 28 84  1  0  0  0  0
 29 31  2  0  0  0  0
 29 83  1  0  0  0  0
 30 85  1  0  0  0  0
 31 86  1  0  0  0  0
 32 67  2  0  0  0  0
 33 68  1  0  0  0  0
 33 71  1  0  0  0  0
 34 72  1  0  0  0  0
 34 78  2  0  0  0  0
 35 49  1  0  0  0  0
 35 74  1  0  0  0  0
 35 79  2  0  0  0  0
 36 64  1  0  0  0  0
 36 69  1  0  0  0  0
 36 80  2  0  0  0  0
 37 65  1  0  0  0  0
 37 75  1  0  0  0  0
 37 81  2  0  0  0  0
 38 70  1  0  0  0  0
 38 76  1  0  0  0  0
 38 82  2  0  0  0  0
 39 42  1  0  0  0  0
 40 49  1  0  0  0  0
 41 69  1  0  0  0  0
 42 44  1  0  0  0  0
 43 45  1  0  0  0  0
 43 46  1  0  0  0  0
 44 48  1  0  0  0  0
 45 50  1  0  0  0  0
 46 70  1  0  0  0  0
 47 50  1  0  0  0  0
 47 70  1  0  0  0  0
 48 74  1  0  0  0  0
 49 69  1  0  0  0  0
 50 68  1  0  0  0  0
 51 59  1  0  0  0  0
 52 63  1  0  0  0  0
 53 63  1  0  0  0  0
 54 65  1  0  0  0  0
 55 66  1  0  0  0  0
 56 66  1  0  0  0  0
 57 66  1  0  0  0  0
 58 77  1  0  0  0  0
 60 61  1  0  0  0  0
 60 62  1  0  0  0  0
 61 73  1  0  0  0  0
 62 76  1  0  0  0  0
 64 66  1  0  0  0  0
 64 75  1  0  0  0  0
 65 77  1  0  0  0  0
 67 68  1  0  0  0  0
M  CHG  1  77   1
M  ISO  4  28 101  38 100  76 100  84 101
M  END
> <Batch ID>
0140

> <Smiles>
CCc1c(C(C)C)c(NCCC[100NH:0][100C:0](=O)N2CCCC(n3nc(-c4ccc(Oc5ccc(F)cc5F)cc4)c(C(N)=O)c3N)C2)cc[101c:1]1[101O:1]c1ccc2c(c1)CN(C(=O)C(NC(=O)C(C)NC)C(C)(C)C)C(C(=O)NC1CCCc3ccccc31)C2

> <Shape>
0.202

> <Color>
0.053

> <Negative vol penalty>
0.000

$$$$

  -OEChem-04052321133D

 86 95  0     1  0  0  0  0  0999 V2000
  -17.6333  -26.0576   22.7739 C   0  0  0  0  0  0  0  0  0  0  0  0
  -18.8961  -25.7352   22.2873 C   0  0  0  0  0  0  0  0  0  0  0  0
  -28.5353  -12.1525   20.8185 C   0  0  0  0  0  0  0  0  0  0  0  0
  -29.8116  -13.4224   19.2074 C   0  0  0  0  0  0  0  0  0  0  0  0
  -17.2236  -27.3895   22.8180 C   0  0  0  0  0  0  0  0  0  0  0  0
  -19.7496  -26.7447   21.8434 C   0  0  0  0  0  0  0  0  0  0  0  0
  -25.8520  -26.8886   22.3391 C   0  0  0  0  0  0  0  0  0  0  0  0
  -28.4635  -11.0867   19.9216 C   0  0  0  0  0  0  0  0  0  0  0  0
  -29.7399  -12.3565   18.3105 C   0  0  0  0  0  0  0  0  0  0  0  0
  -26.8735  -26.5795   21.4421 C   0  0  0  0  0  0  0  0  0  0  0  0
  -27.6371   -8.1668   17.9178 C   0  0  0  0  0  0  0  0  0  0  0  0
  -26.4033   -7.5371   17.7539 C   0  0  0  0  0  0  0  0  0  0  0  0
  -28.8621  -22.3440   17.2584 C   0  0  0  0  0  0  0  0  0  0  0  0
  -27.0486  -28.9108   20.8474 C   0  0  0  0  0  0  0  0  0  0  0  0
  -26.6370  -22.3416   18.9411 C   0  0  0  0  0  0  0  0  0  0  0  0
  -25.4366   -9.6238   17.0136 C   0  0  0  0  0  0  0  0  0  0  0  0
  -29.2092  -13.3204   20.4614 C   0  0  0  0  0  0  0  0  0  0  0  0
  -30.2777  -14.6525   22.3565 C   0  0  0  0  0  0  0  0  0  0  0  0
  -18.0761  -28.4166   22.3834 C   0  0  0  0  0  0  0  0  0  0  0  0
  -25.4129  -28.2119   22.4893 C   0  0  0  0  0  0  0  0  0  0  0  0
  -19.3504  -28.0915   21.8804 C   0  0  0  0  0  0  0  0  0  0  0  0
  -28.8068  -21.4652   18.3402 C   0  0  0  0  0  0  0  0  0  0  0  0
  -26.0231  -29.2344   21.7489 C   0  0  0  0  0  0  0  0  0  0  0  0
  -27.8049  -23.2217   17.0180 C   0  0  0  0  0  0  0  0  0  0  0  0
  -26.6924  -23.2205   17.8594 C   0  0  0  0  0  0  0  0  0  0  0  0
  -27.6942  -21.4640   19.1815 C   0  0  0  0  0  0  0  0  0  0  0  0
  -29.0659  -11.1886   18.6676 C   0  0  0  0  0  0  0  0  0  0  0  0
  -27.4700  -27.5902   20.6939 C   0  0  0  0  0  0  0  0  0  0  0  0
  -27.7706   -9.5251   17.6297 C   0  0  0  0  0  0  0  0  0  0  0  0
  -25.3031   -8.2656   17.3018 C   0  0  0  0  0  0  0  0  0  0  0  0
  -26.6703  -10.2536   17.1776 C   0  0  0  0  0  0  0  0  0  0  0  0
  -29.2832  -14.4220   21.3872 C   0  0  0  0  0  0  0  0  0  0  0  0
  -29.8942  -15.8194   22.9712 C   0  0  0  0  0  0  0  0  0  0  0  0
  -31.4440  -13.8809   22.6729 C   0  0  0  0  0  0  0  0  0  0  0  0
  -22.6598  -29.7291   22.0175 C   0  0  0  0  0  0  0  0  0  0  0  0
  -24.2512  -32.2193   23.3550 C   0  0  0  0  0  0  0  0  0  0  0  0
  -27.2423  -33.7057   24.0552 C   0  0  0  0  0  0  0  0  0  0  0  0
  -26.5755  -20.4639   21.2050 C   0  0  0  0  0  0  0  0  0  0  0  0
  -17.5711  -29.8376   22.4062 C   0  0  0  0  0  0  0  0  0  0  0  0
  -24.3282  -28.5326   23.4808 C   0  0  0  0  0  0  0  0  0  0  0  0
  -25.6021  -30.6739   21.8880 C   0  0  0  0  0  0  0  0  0  0  0  0
  -18.6779  -30.8796   22.2662 C   0  0  0  0  0  0  0  0  0  0  0  0
  -25.9925  -18.3842   24.0356 C   0  0  0  0  0  0  0  0  0  0  0  0
  -30.6344  -20.5451   19.9172 C   0  0  0  0  0  0  0  0  0  0  0  0
  -31.3375  -21.1069   18.7213 C   0  0  0  0  0  0  0  0  0  0  0  0
  -19.6264  -30.5020   21.1328 C   0  0  0  0  0  0  0  0  0  0  0  0
  -26.8654  -17.1557   23.7688 C   0  0  0  0  0  0  0  0  0  0  0  0
  -25.3753  -18.9314   22.7498 C   0  0  0  0  0  0  0  0  0  0  0  0
  -27.2048  -17.9779   21.4032 C   0  0  0  0  0  0  0  0  0  0  0  0
  -29.9526  -20.5361   18.5756 C   0  0  0  0  0  0  0  0  0  0  0  0
  -20.3142  -29.1604   21.4129 C   0  0  1  0  0  0  0  0  0  0  0  0
  -23.6091  -29.8433   23.1766 C   0  0  1  0  0  0  0  0  0  0  0  0
  -27.9003  -17.4299   22.6600 C   0  0  2  0  0  0  0  0  0  0  0  0
  -25.5478  -24.1496   17.6209 C   0  0  0  0  0  0  0  0  0  0  0  0
  -28.2218  -35.7533   25.1255 C   0  0  0  0  0  0  0  0  0  0  0  0
  -23.4778  -33.8665   20.9058 C   0  0  0  0  0  0  0  0  0  0  0  0
  -25.2303  -35.5312   21.5585 C   0  0  0  0  0  0  0  0  0  0  0  0
  -23.3050  -35.0877   23.0814 C   0  0  0  0  0  0  0  0  0  0  0  0
  -28.6864  -32.0991   26.0782 C   0  0  0  0  0  0  0  0  0  0  0  0
  -27.8867  -24.1592   15.8482 C   0  0  0  0  0  0  0  0  0  0  0  0
  -28.8206  -25.3443   16.0717 C   0  0  0  0  0  0  0  0  0  0  0  0
  -29.2102  -27.3339   17.5306 C   0  0  0  0  0  0  0  0  0  0  0  0
  -28.5910  -28.1251   18.6658 C   0  0  0  0  0  0  0  0  0  1  0  0
  -25.1154  -33.3408   22.8314 C   0  0  1  0  0  0  0  0  0  0  0  0
  -27.7919  -34.3096   25.3349 C   0  0  2  0  0  0  0  0  0  0  0  0
  -24.2890  -34.4293   22.0900 C   0  0  0  0  0  0  0  0  0  0  0  0
  -28.3387  -15.3665   21.3827 N   0  0  0  0  0  0  0  0  0  0  0  0
  -28.7381  -16.2017   22.3568 N   0  0  0  0  0  0  0  0  0  0  0  0
  -24.5331  -30.9359   22.8658 N   0  0  0  0  0  0  0  0  0  0  0  0
  -26.4154  -19.1710   21.7470 N   0  0  0  0  0  0  0  0  0  0  0  0
  -30.4364  -16.5453   23.9719 N   0  0  0  0  0  0  0  0  0  0  0  0
  -31.6879  -12.7091   21.9437 N   0  0  0  0  0  0  0  0  0  0  0  0
  -27.6172  -20.5786   20.2851 N   0  0  0  0  0  0  0  0  0  0  0  0
  -21.3846  -29.3317   22.3717 N   0  0  0  0  0  0  0  0  0  0  0  0
  -25.8725  -33.8404   23.9741 N   0  0  0  0  0  0  0  0  0  0  0  0
  -28.9714  -33.5322   25.8097 N   0  3  0  0  0  0  0  0  0  0  0  0
  -28.3311  -26.1847   17.1977 N   0  3  0  0  0  0  0  0  0  0  0  0
  -32.2372  -14.2117   23.5866 O   0  0  0  0  0  0  0  0  0  0  0  0
  -23.0547  -29.9840   20.8858 O   0  0  0  0  0  0  0  0  0  0  0  0
  -23.3635  -32.4715   24.1735 O   0  0  0  0  0  0  0  0  0  0  0  0
  -27.9572  -33.1715   23.2101 O   0  0  0  0  0  0  0  0  0  0  0  0
  -25.8599  -21.4066   21.5532 O   0  0  0  0  0  0  0  0  0  0  0  0
  -28.9963  -10.1487   17.7923 O   0  0  0  0  0  0  0  0  0  0  0  0
  -28.4668  -27.2911   19.8171 O   0  0  0  0  0  0  0  0  0  1  0  0
  -24.1187   -7.6604   17.1429 F   0  0  0  0  0  0  0  0  0  0  0  0
  -26.7928  -11.5585   16.8981 F   0  0  0  0  0  0  0  0  0  0  0  0
  1  2  1  0  0  0  0
  1  5  2  0  0  0  0
  2  6  2  0  0  0  0
  3  8  2  0  0  0  0
  3 17  1  0  0  0  0
  4  9  1  0  0  0  0
  4 17  2  0  0  0  0
  5 19  1  0  0  0  0
  6 21  1  0  0  0  0
  7 10  2  0  0  0  0
  7 20  1  0  0  0  0
  8 27  1  0  0  0  0
  9 27  2  0  0  0  0
 10 28  1  0  0  0  0
 11 12  2  0  0  0  0
 11 29  1  0  0  0  0
 12 30  1  0  0  0  0
 13 22  2  0  0  0  0
 13 24  1  0  0  0  0
 14 23  1  0  0  0  0
 14 28  2  0  0  0  0
 15 25  1  0  0  0  0
 15 26  2  0  0  0  0
 16 30  2  0  0  0  0
 16 31  1  0  0  0  0
 17 32  1  0  0  0  0
 18 32  1  0  0  0  0
 18 33  2  0  0  0  0
 18 34  1  0  0  0  0
 19 21  2  0  0  0  0
 19 39  1  0  0  0  0
 20 23  2  0  0  0  0
 20 40  1  0  0  0  0
 21 51  1  0  0  0  0
 22 26  1  0  0  0  0
 22 50  1  0  0  0  0
 23 41  1  0  0  0  0
 24 25  2  0  0  0  0
 24 60  1  0  0  0  0
 25 54  1  0  0  0  0
 26 73  1  0  0  0  0
 27 83  1  0  0  0  0
 28 84  1  0  0  0  0
 29 31  2  0  0  0  0
 29 83  1  0  0  0  0
 30 85  1  0  0  0  0
 31 86  1  0  0  0  0
 32 67  2  0  0  0  0
 33 68  1  0  0  0  0
 33 71  1  0  0  0  0
 34 72  1  0  0  0  0
 34 78  2  0  0  0  0
 35 52  1  0  0  0  0
 35 74  1  0  0  0  0
 35 79  2  0  0  0  0
 36 64  1  0  0  0  0
 36 69  1  0  0  0  0
 36 80  2  0  0  0  0
 37 65  1  0  0  0  0
 37 75  1  0  0  0  0
 37 81  2  0  0  0  0
 38 70  1  0  0  0  0
 38 73  1  0  0  0  0
 38 82  2  0  0  0  0
 39 42  1  0  0  0  0
 40 52  1  0  0  0  0
 41 69  1  0  0  0  0
 42 46  1  0  0  0  0
 43 47  1  0  0  0  0
 43 48  1  0  0  0  0
 44 45  1  0  0  0  0
 44 50  1  0  0  0  0
 45 50  1  0  0  0  0
 46 51  1  0  0  0  0
 47 53  1  0  0  0  0
 48 70  1  0  0  0  0
 49 53  1  0  0  0  0
 49 70  1  0  0  0  0
 51 74  1  0  0  0  0
 52 69  1  0  0  0  0
 53 68  1  0  0  0  0
 55 65  1  0  0  0  0
 56 66  1  0  0  0  0
 57 66  1  0  0  0  0
 58 66  1  0  0  0  0
 59 76  1  0  0  0  0
 60 61  1  0  0  0  0
 61 77  1  0  0  0  0
 62 63  1  0  0  0  0
 62 77  1  0  0  0  0
 63 84  1  0  0  0  0
 64 66  1  0  0  0  0
 64 75  1  0  0  0  0
 65 76  1  0  0  0  0
 67 68  1  0  0  0  0
M  CHG  2  76   1  77   1
M  ISO  4  38 100  63 101  73 100  84 101
M  END
> <Batch ID>
0140

> <Smiles>
CNC(C)C(=O)NC(C(=O)N1Cc2cc([101O:1][101CH2:1]CNCCc3cc(C4CC4)c([100NH:0][100C:0](=O)N4CCCC(n5nc(-c6ccc(Oc7ccc(F)cc7F)cc6)c(C(N)=O)c5N)C4)cc3C)ccc2CC1C(=O)NC1CCCc2ccccc21)C(C)(C)C

> <Shape>
0.241

> <Color>
0.089

> <Negative vol penalty>
0.000

$$$$

  -OEChem-04052321133D

 88 97  0     1  0  0  0  0  0999 V2000
  -26.6002   -5.3309   23.1563 C   0  0  0  0  0  0  0  0  0  0  0  0
  -27.4926   -6.2902   22.6885 C   0  0  0  0  0  0  0  0  0  0  0  0
  -22.0199  -29.4735   21.2974 C   0  0  0  0  0  0  0  0  0  0  0  0
  -22.9564  -27.5896   22.4853 C   0  0  0  0  0  0  0  0  0  0  0  0
  -25.2273   -5.5329   23.0214 C   0  0  0  0  0  0  0  0  0  0  0  0
  -27.0125   -7.4516   22.0845 C   0  0  0  0  0  0  0  0  0  0  0  0
  -28.5725  -14.4014   21.3203 C   0  0  0  0  0  0  0  0  0  0  0  0
  -20.7342  -29.0071   21.5713 C   0  0  0  0  0  0  0  0  0  0  0  0
  -21.6707  -27.1232   22.7593 C   0  0  0  0  0  0  0  0  0  0  0  0
  -28.7326  -15.3664   20.3269 C   0  0  0  0  0  0  0  0  0  0  0  0
  -18.5866  -29.0117   24.1829 C   0  0  0  0  0  0  0  0  0  0  0  0
  -17.6413  -29.9379   24.6237 C   0  0  0  0  0  0  0  0  0  0  0  0
  -26.3388  -15.6443   20.2194 C   0  0  0  0  0  0  0  0  0  0  0  0
  -27.4491  -21.6623   22.7135 C   0  0  0  0  0  0  0  0  0  0  0  0
  -16.2549  -29.4334   22.7105 C   0  0  0  0  0  0  0  0  0  0  0  0
  -28.8825  -23.7919   23.6386 C   0  0  0  0  0  0  0  0  0  0  0  0
  -23.1311  -28.7647   21.7543 C   0  0  0  0  0  0  0  0  0  0  0  0
  -25.0153  -30.4815   21.8524 C   0  0  0  0  0  0  0  0  0  0  0  0
  -24.7300   -6.7019   22.4240 C   0  0  0  0  0  0  0  0  0  0  0  0
  -27.2916  -14.0421   21.7637 C   0  0  0  0  0  0  0  0  0  0  0  0
  -25.6317   -7.6689   21.9402 C   0  0  0  0  0  0  0  0  0  0  0  0
  -26.1652  -14.6763   21.2203 C   0  0  0  0  0  0  0  0  0  0  0  0
  -28.6574  -21.9865   22.1068 C   0  0  0  0  0  0  0  0  0  0  0  0
  -29.3939  -23.0702   22.5721 C   0  0  0  0  0  0  0  0  0  0  0  0
  -20.5596  -27.8320   22.3022 C   0  0  0  0  0  0  0  0  0  0  0  0
  -27.6156  -15.9859   19.7742 C   0  0  0  0  0  0  0  0  0  0  0  0
  -18.3661  -28.2964   23.0058 C   0  0  0  0  0  0  0  0  0  0  0  0
  -16.4754  -30.1487   23.8875 C   0  0  0  0  0  0  0  0  0  0  0  0
  -17.2002  -28.5073   22.2697 C   0  0  0  0  0  0  0  0  0  0  0  0
  -24.4595  -29.2456   21.4712 C   0  0  0  0  0  0  0  0  0  0  0  0
  -27.0248  -22.4470   23.7737 C   0  0  0  0  0  0  0  0  0  0  0  0
  -26.2913  -30.4553   21.3449 C   0  0  0  0  0  0  0  0  0  0  0  0
  -24.4305  -31.5571   22.5987 C   0  0  0  0  0  0  0  0  0  0  0  0
  -25.5870  -11.3592   21.7597 C   0  0  0  0  0  0  0  0  0  0  0  0
  -23.5062  -13.1387   23.4993 C   0  0  0  0  0  0  0  0  0  0  0  0
  -22.3354  -16.2332   24.3357 C   0  0  0  0  0  0  0  0  0  0  0  0
  -30.0207  -25.9938   19.9174 C   0  0  0  0  0  0  0  0  0  0  0  0
  -23.2387   -6.8542   22.2578 C   0  0  0  0  0  0  0  0  0  0  0  0
  -27.1371  -13.0186   22.8550 C   0  0  0  0  0  0  0  0  0  0  0  0
  -24.7694  -14.3410   21.6760 C   0  0  0  0  0  0  0  0  0  0  0  0
  -22.8038   -8.2833   21.9434 C   0  0  0  0  0  0  0  0  0  0  0  0
  -28.8608  -28.5849   17.7686 C   0  0  0  0  0  0  0  0  0  0  0  0
  -23.6849   -8.8815   20.8514 C   0  0  0  0  0  0  0  0  0  0  0  0
  -29.2763  -20.9372   18.4827 C   0  0  0  0  0  0  0  0  0  0  0  0
  -27.6514  -29.1595   18.5082 C   0  0  0  0  0  0  0  0  0  0  0  0
  -29.3411  -21.9473   19.6291 C   0  0  0  0  0  0  0  0  0  0  0  0
  -28.1338  -20.0828   20.4577 C   0  0  0  0  0  0  0  0  0  0  0  0
  -28.9680  -27.0726   17.9516 C   0  0  0  0  0  0  0  0  0  0  0  0
  -27.7555  -27.1915   20.0940 C   0  0  0  0  0  0  0  0  0  0  0  0
  -25.1491   -8.9532   21.3015 C   0  0  1  0  0  0  0  0  0  0  0  0
  -25.7609  -12.3605   22.8665 C   0  0  1  0  0  0  0  0  0  0  0  0
  -28.5788  -19.6946   19.0439 C   0  0  1  0  0  0  0  0  0  0  0  0
  -27.6372  -28.7213   19.9851 C   0  0  2  0  0  0  0  0  0  0  0  0
  -29.1551  -21.1410   20.9344 C   0  0  2  0  0  0  0  0  0  0  0  0
  -30.4818  -20.4772   21.3563 C   0  0  0  0  0  0  0  0  0  0  0  0
  -20.6035  -17.3669   25.7544 C   0  0  0  0  0  0  0  0  0  0  0  0
  -21.3496  -12.3561   21.4876 C   0  0  0  0  0  0  0  0  0  0  0  0
  -19.9391  -14.2227   22.3789 C   0  0  0  0  0  0  0  0  0  0  0  0
  -20.6044  -12.3407   23.8749 C   0  0  0  0  0  0  0  0  0  0  0  0
  -24.3932  -17.6695   25.9046 C   0  0  0  0  0  0  0  0  0  0  0  0
  -30.6938  -23.4613   21.9594 C   0  0  0  0  0  0  0  0  0  0  0  0
  -27.4230  -19.2170   18.1771 C   0  0  0  0  0  0  0  0  0  0  0  0
  -30.9539  -24.9732   21.9782 C   0  0  0  0  0  0  0  0  0  0  0  0
  -26.7814  -17.9554   18.7344 C   0  0  0  0  0  0  0  0  0  1  0  0
  -22.3399  -14.0407   23.1750 C   0  0  1  0  0  0  0  0  0  0  0  0
  -22.0381  -16.8676   25.6825 C   0  0  2  0  0  0  0  0  0  0  0  0
  -21.0843  -13.2452   22.7189 C   0  0  0  0  0  0  0  0  0  0  0  0
  -27.7127  -23.5073   24.2535 N   0  0  0  0  0  0  0  0  0  0  0  0
  -25.3124  -28.4894   20.7751 N   0  0  0  0  0  0  0  0  0  0  0  0
  -26.4172  -29.2523   20.7148 N   0  0  0  0  0  0  0  0  0  0  0  0
  -24.6700  -13.3293   22.7410 N   0  0  0  0  0  0  0  0  0  0  0  0
  -28.9506  -26.7237   19.3743 N   0  0  0  0  0  0  0  0  0  0  0  0
  -25.7915  -22.1043   24.3817 N   0  0  0  0  0  0  0  0  0  0  0  0
  -27.3067  -31.3442   21.3805 N   0  0  0  0  0  0  0  0  0  0  0  0
  -23.1091  -31.4197   23.0449 N   0  0  0  0  0  0  0  0  0  0  0  0
  -25.3478  -10.0710   22.1989 N   0  0  0  0  0  0  0  0  0  0  0  0
  -22.1252  -14.8706   24.3555 N   0  0  0  0  0  0  0  0  0  0  0  0
  -29.9282  -25.7106   21.2746 N   0  0  0  0  0  0  0  0  0  0  0  0
  -22.9500  -18.0213   25.9242 N   0  3  0  0  0  0  0  0  0  0  0  0
  -25.0557  -32.6157   22.8478 O   0  0  0  0  0  0  0  0  0  0  0  0
  -25.6628  -11.7283   20.5937 O   0  0  0  0  0  0  0  0  0  0  0  0
  -23.3912  -12.3007   24.3972 O   0  0  0  0  0  0  0  0  0  0  0  0
  -22.7124  -16.8821   23.3625 O   0  0  0  0  0  0  0  0  0  0  0  0
  -30.9895  -25.6266   19.2440 O   0  0  0  0  0  0  0  0  0  0  0  0
  -19.3051  -27.3768   22.5699 O   0  0  0  0  0  0  0  0  0  0  0  0
  -27.7690  -16.9277   18.8039 O   0  0  0  0  0  0  0  0  0  1  0  0
  -15.5671  -31.0369   24.3118 F   0  0  0  0  0  0  0  0  0  0  0  0
  -16.9822  -27.8222   21.1387 F   0  0  0  0  0  0  0  0  0  0  0  0
  1  2  1  0  0  0  0
  1  5  2  0  0  0  0
  2  6  2  0  0  0  0
  3  8  2  0  0  0  0
  3 17  1  0  0  0  0
  4  9  1  0  0  0  0
  4 17  2  0  0  0  0
  5 19  1  0  0  0  0
  6 21  1  0  0  0  0
  7 10  2  0  0  0  0
  7 20  1  0  0  0  0
  8 25  1  0  0  0  0
  9 25  2  0  0  0  0
 10 26  1  0  0  0  0
 11 12  2  0  0  0  0
 11 27  1  0  0  0  0
 12 28  1  0  0  0  0
 13 22  1  0  0  0  0
 13 26  2  0  0  0  0
 14 23  1  0  0  0  0
 14 31  2  0  0  0  0
 15 28  2  0  0  0  0
 15 29  1  0  0  0  0
 16 24  1  0  0  0  0
 16 68  2  0  0  0  0
 17 30  1  0  0  0  0
 18 30  1  0  0  0  0
 18 32  2  0  0  0  0
 18 33  1  0  0  0  0
 19 21  2  0  0  0  0
 19 38  1  0  0  0  0
 20 22  2  0  0  0  0
 20 39  1  0  0  0  0
 21 50  1  0  0  0  0
 22 40  1  0  0  0  0
 23 24  2  0  0  0  0
 23 54  1  0  0  0  0
 24 61  1  0  0  0  0
 25 85  1  0  0  0  0
 26 86  1  0  0  0  0
 27 29  2  0  0  0  0
 27 85  1  0  0  0  0
 28 87  1  0  0  0  0
 29 88  1  0  0  0  0
 30 69  2  0  0  0  0
 31 68  1  0  0  0  0
 31 73  1  0  0  0  0
 32 70  1  0  0  0  0
 32 74  1  0  0  0  0
 33 75  1  0  0  0  0
 33 80  2  0  0  0  0
 34 51  1  0  0  0  0
 34 76  1  0  0  0  0
 34 81  2  0  0  0  0
 35 65  1  0  0  0  0
 35 71  1  0  0  0  0
 35 82  2  0  0  0  0
 36 66  1  0  0  0  0
 36 77  1  0  0  0  0
 36 83  2  0  0  0  0
 37 72  1  0  0  0  0
 37 78  1  0  0  0  0
 37 84  2  0  0  0  0
 38 41  1  0  0  0  0
 39 51  1  0  0  0  0
 40 71  1  0  0  0  0
 41 43  1  0  0  0  0
 42 45  1  0  0  0  0
 42 48  1  0  0  0  0
 43 50  1  0  0  0  0
 44 46  1  0  0  0  0
 44 52  1  0  0  0  0
 45 53  1  0  0  0  0
 46 54  1  0  0  0  0
 47 52  1  0  0  0  0
 47 54  1  0  0  0  0
 48 72  1  0  0  0  0
 49 53  1  0  0  0  0
 49 72  1  0  0  0  0
 50 76  1  0  0  0  0
 51 71  1  0  0  0  0
 52 62  1  0  0  0  0
 53 70  1  0  0  0  0
 54 55  1  0  0  0  0
 56 66  1  0  0  0  0
 57 67  1  0  0  0  0
 58 67  1  0  0  0  0
 59 67  1  0  0  0  0
 60 79  1  0  0  0  0
 61 63  1  0  0  0  0
 62 64  1  0  0  0  0
 63 78  1  0  0  0  0
 64 86  1  0  0  0  0
 65 67  1  0  0  0  0
 65 77  1  0  0  0  0
 66 79  1  0  0  0  0
 69 70  1  0  0  0  0
M  CHG  1  79   1
M  ISO  4  37 100  64 101  78 100  86 101
M  END
> <Batch ID>
0140

> <Smiles>
CNC(C)C(=O)NC(C(=O)N1Cc2cc([101O:1][101CH2:1]CC3CCC(C)(c4cc(N)ncc4CC[100NH:0][100C:0](=O)N4CCCC(n5nc(-c6ccc(Oc7ccc(F)cc7F)cc6)c(C(N)=O)c5N)C4)C3)ccc2CC1C(=O)NC1CCCc2ccccc21)C(C)(C)C

> <Shape>
0.275

> <Color>
0.057

> <Negative vol penalty>
0.000

$$$$

  -OEChem-04052321133D

 86 95  0     1  0  0  0  0  0999 V2000
  -26.6830  -31.7878   27.5538 C   0  0  0  0  0  0  0  0  0  0  0  0
  -27.6192  -31.0689   26.8174 C   0  0  0  0  0  0  0  0  0  0  0  0
  -26.7757  -12.3970   21.8843 C   0  0  0  0  0  0  0  0  0  0  0  0
  -26.0249  -14.0840   20.3263 C   0  0  0  0  0  0  0  0  0  0  0  0
  -25.3253  -31.4980   27.4254 C   0  0  0  0  0  0  0  0  0  0  0  0
  -27.1981  -30.0590   25.9529 C   0  0  0  0  0  0  0  0  0  0  0  0
  -28.9141  -26.9682   19.7225 C   0  0  0  0  0  0  0  0  0  0  0  0
  -25.4911  -11.8543   21.9158 C   0  0  0  0  0  0  0  0  0  0  0  0
  -24.7403  -13.5413   20.3577 C   0  0  0  0  0  0  0  0  0  0  0  0
  -29.1542  -25.7086   19.1751 C   0  0  0  0  0  0  0  0  0  0  0  0
  -23.5851   -9.8507   19.9700 C   0  0  0  0  0  0  0  0  0  0  0  0
  -23.4648   -8.4641   19.8785 C   0  0  0  0  0  0  0  0  0  0  0  0
  -26.7772  -25.3491   18.9751 C   0  0  0  0  0  0  0  0  0  0  0  0
  -27.9855  -19.7019   16.2084 C   0  0  0  0  0  0  0  0  0  0  0  0
  -22.3748   -8.4165   22.0342 C   0  0  0  0  0  0  0  0  0  0  0  0
  -27.0426  -13.5119   21.0896 C   0  0  0  0  0  0  0  0  0  0  0  0
  -29.4162  -13.7302   20.1809 C   0  0  0  0  0  0  0  0  0  0  0  0
  -24.8867  -30.4906   26.5517 C   0  0  0  0  0  0  0  0  0  0  0  0
  -27.6013  -27.4240   19.9107 C   0  0  0  0  0  0  0  0  0  0  0  0
  -25.8333  -29.7546   25.8138 C   0  0  0  0  0  0  0  0  0  0  0  0
  -26.5232  -26.6158   19.5227 C   0  0  0  0  0  0  0  0  0  0  0  0
  -27.3703  -20.9778   16.1794 C   0  0  0  0  0  0  0  0  0  0  0  0
  -24.4734  -12.4264   21.1524 C   0  0  0  0  0  0  0  0  0  0  0  0
  -28.0857  -24.8977   18.8040 C   0  0  0  0  0  0  0  0  0  0  0  0
  -23.1004  -10.5203   21.0937 C   0  0  0  0  0  0  0  0  0  0  0  0
  -22.8596   -7.7470   20.9105 C   0  0  0  0  0  0  0  0  0  0  0  0
  -22.4952   -9.8031   22.1257 C   0  0  0  0  0  0  0  0  0  0  0  0
  -28.3692  -14.0732   21.0572 C   0  0  0  0  0  0  0  0  0  0  0  0
  -28.5618  -19.5513   17.4503 C   0  0  0  0  0  0  0  0  0  0  0  0
  -27.5896  -21.5680   17.4046 C   0  0  0  0  0  0  0  0  0  0  0  0
  -30.4583  -14.5422   20.5566 C   0  0  0  0  0  0  0  0  0  0  0  0
  -29.4443  -12.7640   19.1220 C   0  0  0  0  0  0  0  0  0  0  0  0
  -25.8587  -28.2649   22.4325 C   0  0  0  0  0  0  0  0  0  0  0  0
  -23.6965  -29.1104   20.1670 C   0  0  0  0  0  0  0  0  0  0  0  0
  -22.5222  -28.7056   16.9883 C   0  0  0  0  0  0  0  0  0  0  0  0
  -30.8556  -19.7725   23.1736 C   0  0  0  0  0  0  0  0  0  0  0  0
  -23.4121  -30.1816   26.4820 C   0  0  0  0  0  0  0  0  0  0  0  0
  -27.3595  -28.7960   20.4777 C   0  0  0  0  0  0  0  0  0  0  0  0
  -25.0953  -27.0668   19.6851 C   0  0  0  0  0  0  0  0  0  0  0  0
  -23.0212  -29.3489   25.2637 C   0  0  0  0  0  0  0  0  0  0  0  0
  -32.2568  -16.8361   24.3447 C   0  0  0  0  0  0  0  0  0  0  0  0
  -23.9815  -28.1768   25.0878 C   0  0  0  0  0  0  0  0  0  0  0  0
  -31.5288  -15.7477   23.5558 C   0  0  0  0  0  0  0  0  0  0  0  0
  -30.3089  -20.9543   19.7102 C   0  0  0  0  0  0  0  0  0  0  0  0
  -28.1621  -19.9392   20.5828 C   0  0  0  0  0  0  0  0  0  0  0  0
  -31.2927  -17.9355   24.7764 C   0  0  0  0  0  0  0  0  0  0  0  0
  -30.7590  -21.1840   21.1510 C   0  0  0  0  0  0  0  0  0  0  0  0
  -28.6592  -20.1937   22.0029 C   0  0  0  0  0  0  0  0  0  0  0  0
  -29.8136  -17.4854   22.8465 C   0  0  0  0  0  0  0  0  0  0  0  0
  -25.4139  -28.6685   24.8471 C   0  0  1  0  0  0  0  0  0  0  0  0
  -25.9753  -28.9498   21.1002 C   0  0  1  0  0  0  0  0  0  0  0  0
  -30.7464  -16.3516   22.3760 C   0  0  2  0  0  0  0  0  0  0  0  0
  -28.7750  -20.9450   19.5924 C   0  0  0  0  0  0  0  0  0  0  0  0
  -26.6312  -21.5600   15.0416 C   0  0  0  0  0  0  0  0  0  0  0  0
  -30.6305  -18.1276   17.2323 C   0  0  0  0  0  0  0  0  0  0  0  0
  -28.4912  -17.1175   18.1029 C   0  0  0  0  0  0  0  0  0  0  0  0
  -20.7190  -29.5063   15.4375 C   0  0  0  0  0  0  0  0  0  0  0  0
  -21.6644  -27.3718   21.6360 C   0  0  0  0  0  0  0  0  0  0  0  0
  -20.2281  -27.4408   19.5866 C   0  0  0  0  0  0  0  0  0  0  0  0
  -20.7641  -29.5514   20.8034 C   0  0  0  0  0  0  0  0  0  0  0  0
  -24.4950  -29.7916   15.0680 C   0  0  0  0  0  0  0  0  0  0  0  0
  -27.1704  -22.8916   17.9130 C   0  0  0  0  0  0  0  0  0  1  0  0
  -29.3249  -18.4158   18.0081 C   0  0  0  0  0  0  0  0  0  0  0  0
  -22.5683  -28.4080   19.4508 C   0  0  1  0  0  0  0  0  0  0  0  0
  -22.1473  -29.7137   15.9170 C   0  0  2  0  0  0  0  0  0  0  0  0
  -21.3330  -28.1834   20.3678 C   0  0  0  0  0  0  0  0  0  0  0  0
  -28.7147  -15.0286   21.9244 N   0  0  0  0  0  0  0  0  0  0  0  0
  -28.3151  -20.6919   18.1689 N   0  0  0  0  0  0  0  0  0  0  0  0
  -29.9905  -15.2927   21.5949 N   0  0  0  0  0  0  0  0  0  0  0  0
  -24.9104  -28.4138   20.2499 N   0  0  0  0  0  0  0  0  0  0  0  0
  -30.5641  -18.4780   23.6298 N   0  0  0  0  0  0  0  0  0  0  0  0
  -30.1266  -20.2336   22.0651 N   0  0  0  0  0  0  0  0  0  0  0  0
  -31.7201  -14.6802   20.0970 N   0  0  0  0  0  0  0  0  0  0  0  0
  -28.2867  -12.0151   18.8700 N   0  0  0  0  0  0  0  0  0  0  0  0
  -25.5709  -29.1183   23.4805 N   0  0  0  0  0  0  0  0  0  0  0  0
  -22.2898  -29.1969   18.2556 N   0  0  0  0  0  0  0  0  0  0  0  0
  -23.0594  -29.5876   14.7452 N   0  3  0  0  0  0  0  0  0  0  0  0
  -30.4707  -12.5590   18.4307 O   0  0  0  0  0  0  0  0  0  0  0  0
  -26.0165  -27.0518   22.5041 O   0  0  0  0  0  0  0  0  0  0  0  0
  -23.5097  -30.2387   20.6294 O   0  0  0  0  0  0  0  0  0  0  0  0
  -22.9724  -27.5923   16.7271 O   0  0  0  0  0  0  0  0  0  0  0  0
  -31.7179  -20.4733   23.7178 O   0  0  0  0  0  0  0  0  0  0  0  0
  -23.2199  -11.8970   21.1827 O   0  0  0  0  0  0  0  0  0  0  0  0
  -28.3185  -23.6608   18.2672 O   0  0  0  0  0  0  0  0  0  1  0  0
  -22.7427   -6.4156   20.8218 F   0  0  0  0  0  0  0  0  0  0  0  0
  -22.0265  -10.4409   23.2071 F   0  0  0  0  0  0  0  0  0  0  0  0
  1  2  1  0  0  0  0
  1  5  2  0  0  0  0
  2  6  2  0  0  0  0
  3  8  2  0  0  0  0
  3 16  1  0  0  0  0
  4  9  1  0  0  0  0
  4 16  2  0  0  0  0
  5 18  1  0  0  0  0
  6 20  1  0  0  0  0
  7 10  2  0  0  0  0
  7 19  1  0  0  0  0
  8 23  1  0  0  0  0
  9 23  2  0  0  0  0
 10 24  1  0  0  0  0
 11 12  2  0  0  0  0
 11 25  1  0  0  0  0
 12 26  1  0  0  0  0
 13 21  1  0  0  0  0
 13 24  2  0  0  0  0
 14 22  1  0  0  0  0
 14 29  2  0  0  0  0
 15 26  2  0  0  0  0
 15 27  1  0  0  0  0
 16 28  1  0  0  0  0
 17 28  1  0  0  0  0
 17 31  2  0  0  0  0
 17 32  1  0  0  0  0
 18 20  2  0  0  0  0
 18 37  1  0  0  0  0
 19 21  2  0  0  0  0
 19 38  1  0  0  0  0
 20 50  1  0  0  0  0
 21 39  1  0  0  0  0
 22 30  2  0  0  0  0
 22 54  1  0  0  0  0
 23 83  1  0  0  0  0
 24 84  1  0  0  0  0
 25 27  2  0  0  0  0
 25 83  1  0  0  0  0
 26 85  1  0  0  0  0
 27 86  1  0  0  0  0
 28 67  2  0  0  0  0
 29 63  1  0  0  0  0
 29 68  1  0  0  0  0
 30 62  1  0  0  0  0
 30 68  1  0  0  0  0
 31 69  1  0  0  0  0
 31 73  1  0  0  0  0
 32 74  1  0  0  0  0
 32 78  2  0  0  0  0
 33 51  1  0  0  0  0
 33 75  1  0  0  0  0
 33 79  2  0  0  0  0
 34 64  1  0  0  0  0
 34 70  1  0  0  0  0
 34 80  2  0  0  0  0
 35 65  1  0  0  0  0
 35 76  1  0  0  0  0
 35 81  2  0  0  0  0
 36 71  1  0  0  0  0
 36 72  1  0  0  0  0
 36 82  2  0  0  0  0
 37 40  1  0  0  0  0
 38 51  1  0  0  0  0
 39 70  1  0  0  0  0
 40 42  1  0  0  0  0
 41 43  1  0  0  0  0
 41 46  1  0  0  0  0
 42 50  1  0  0  0  0
 43 52  1  0  0  0  0
 44 47  1  0  0  0  0
 44 53  1  0  0  0  0
 45 48  1  0  0  0  0
 45 53  1  0  0  0  0
 46 71  1  0  0  0  0
 47 72  1  0  0  0  0
 48 72  1  0  0  0  0
 49 52  1  0  0  0  0
 49 71  1  0  0  0  0
 50 75  1  0  0  0  0
 51 70  1  0  0  0  0
 52 69  1  0  0  0  0
 53 68  1  0  0  0  0
 55 63  1  0  0  0  0
 56 63  1  0  0  0  0
 57 65  1  0  0  0  0
 58 66  1  0  0  0  0
 59 66  1  0  0  0  0
 60 66  1  0  0  0  0
 61 77  1  0  0  0  0
 62 84  1  0  0  0  0
 64 66  1  0  0  0  0
 64 76  1  0  0  0  0
 65 77  1  0  0  0  0
 67 69  1  0  0  0  0
M  CHG  1  77   1
M  ISO  4  36 100  62 101  72 100  84 101
M  END
> <Batch ID>
0140

> <Smiles>
CNC(C)C(=O)NC(C(=O)N1Cc2cc([101O:1][101CH2:1]c3c(C)cc(C(C)C)n3C3CC[100N:0]([100C:0](=O)N4CCCC(n5nc(-c6ccc(Oc7ccc(F)cc7F)cc6)c(C(N)=O)c5N)C4)CC3)ccc2CC1C(=O)NC1CCCc2ccccc21)C(C)(C)C

> <Shape>
0.283

> <Color>
0.070

> <Negative vol penalty>
0.000

$$$$

  -OEChem-04052321133D

 88 97  0     1  0  0  0  0  0999 V2000
  -28.6097  -29.8374   14.7652 C   0  0  0  0  0  0  0  0  0  0  0  0
  -28.4465  -28.4667   14.9386 C   0  0  0  0  0  0  0  0  0  0  0  0
  -23.5458   -9.7847   19.8734 C   0  0  0  0  0  0  0  0  0  0  0  0
  -24.2026   -9.8721   22.1968 C   0  0  0  0  0  0  0  0  0  0  0  0
  -29.5549  -30.5272   15.5233 C   0  0  0  0  0  0  0  0  0  0  0  0
  -29.2293  -27.7848   15.8695 C   0  0  0  0  0  0  0  0  0  0  0  0
  -27.5363  -23.0092   19.3094 C   0  0  0  0  0  0  0  0  0  0  0  0
  -30.5627  -17.2595   21.9712 C   0  0  0  0  0  0  0  0  0  0  0  0
  -23.0051   -8.5147   20.0740 C   0  0  0  0  0  0  0  0  0  0  0  0
  -23.6617   -8.6020   22.3974 C   0  0  0  0  0  0  0  0  0  0  0  0
  -27.7311  -21.6359   19.1686 C   0  0  0  0  0  0  0  0  0  0  0  0
  -30.2836  -17.9950   20.8194 C   0  0  0  0  0  0  0  0  0  0  0  0
  -20.6009   -7.2431   22.8502 C   0  0  0  0  0  0  0  0  0  0  0  0
  -19.8172   -7.0463   23.9872 C   0  0  0  0  0  0  0  0  0  0  0  0
  -29.6545  -21.7662   20.6187 C   0  0  0  0  0  0  0  0  0  0  0  0
  -28.5185  -19.1577   21.9894 C   0  0  0  0  0  0  0  0  0  0  0  0
  -21.3474   -5.3376   24.7461 C   0  0  0  0  0  0  0  0  0  0  0  0
  -24.1447  -10.4634   20.9348 C   0  0  0  0  0  0  0  0  0  0  0  0
  -24.0457  -13.0116   20.8678 C   0  0  0  0  0  0  0  0  0  0  0  0
  -30.3429  -29.8551   16.4708 C   0  0  0  0  0  0  0  0  0  0  0  0
  -28.4070  -23.7744   20.0985 C   0  0  0  0  0  0  0  0  0  0  0  0
  -30.1869  -28.4660   16.6401 C   0  0  0  0  0  0  0  0  0  0  0  0
  -29.8197  -17.4731   23.1322 C   0  0  0  0  0  0  0  0  0  0  0  0
  -29.4670  -23.1486   20.7699 C   0  0  0  0  0  0  0  0  0  0  0  0
  -28.7976  -18.4222   23.1413 C   0  0  0  0  0  0  0  0  0  0  0  0
  -23.0630   -7.9234   21.3360 C   0  0  0  0  0  0  0  0  0  0  0  0
  -28.7921  -21.0147   19.8210 C   0  0  0  0  0  0  0  0  0  0  0  0
  -29.2615  -18.9441   20.8285 C   0  0  0  0  0  0  0  0  0  1  0  0
  -21.7578   -6.4871   22.6611 C   0  0  0  0  0  0  0  0  0  0  0  0
  -20.1905   -6.0936   24.9351 C   0  0  0  0  0  0  0  0  0  0  0  0
  -22.1311   -5.5344   23.6090 C   0  0  0  0  0  0  0  0  0  0  0  0
  -24.7040  -11.7750   20.7280 C   0  0  0  0  0  0  0  0  0  0  0  0
  -25.0040  -13.9471   20.5626 C   0  0  0  0  0  0  0  0  0  0  0  0
  -22.6894  -13.2897   21.2402 C   0  0  0  0  0  0  0  0  0  0  0  0
  -30.3933  -26.1939   19.5466 C   0  0  0  0  0  0  0  0  0  0  0  0
  -30.7116  -26.1588   22.7746 C   0  0  0  0  0  0  0  0  0  0  0  0
  -30.4917  -24.3960   25.6885 C   0  0  0  0  0  0  0  0  0  0  0  0
  -30.9866  -13.8822   20.7979 C   0  0  0  0  0  0  0  0  0  0  0  0
  -31.3845  -30.6351   17.2333 C   0  0  0  0  0  0  0  0  0  0  0  0
  -28.1674  -25.2504   20.2616 C   0  0  0  0  0  0  0  0  0  0  0  0
  -30.4182  -23.9219   21.6451 C   0  0  0  0  0  0  0  0  0  0  0  0
  -31.9128  -29.9037   18.4647 C   0  0  0  0  0  0  0  0  0  0  0  0
  -28.9634  -14.5340   17.9416 C   0  0  0  0  0  0  0  0  0  0  0  0
  -32.2479  -28.4555   18.1226 C   0  0  0  0  0  0  0  0  0  0  0  0
  -27.5829  -14.0124   18.3445 C   0  0  0  0  0  0  0  0  0  0  0  0
  -30.0828  -13.6596   18.5023 C   0  0  0  0  0  0  0  0  0  0  0  0
  -28.6460  -12.9187   20.3625 C   0  0  0  0  0  0  0  0  0  0  0  0
  -30.9999  -27.6954   17.6576 C   0  0  1  0  0  0  0  0  0  0  0  0
  -30.1366  -16.6736   24.3532 C   0  0  2  0  0  0  0  0  0  0  0  0
  -29.4195  -26.0166   20.6770 C   0  0  1  0  0  0  0  0  0  0  0  0
  -27.4863  -13.7997   19.8672 C   0  0  2  0  0  0  0  0  0  0  0  0
  -31.6032  -16.7929   24.7562 C   0  0  2  0  0  0  0  0  0  0  0  0
  -31.0644  -14.5097   24.4414 C   0  0  2  0  0  0  0  0  0  0  0  0
  -31.8973  -15.4186   25.3661 C   0  0  0  0  0  0  0  0  0  0  0  0
  -27.9882  -18.6681   24.3722 C   0  0  0  0  0  0  0  0  0  0  0  0
  -31.3643  -15.3074   26.8125 C   0  0  0  0  0  0  0  0  0  0  0  0
  -33.3975  -15.1097   25.3919 C   0  0  0  0  0  0  0  0  0  0  0  0
  -30.8517  -24.6252   28.1614 C   0  0  0  0  0  0  0  0  0  0  0  0
  -32.6843  -12.8843   23.4131 C   0  0  0  0  0  0  0  0  0  0  0  0
  -33.7276  -25.9765   22.3499 C   0  0  0  0  0  0  0  0  0  0  0  0
  -33.9505  -25.2607   24.7387 C   0  0  0  0  0  0  0  0  0  0  0  0
  -33.0248  -27.5123   24.1943 C   0  0  0  0  0  0  0  0  0  0  0  0
  -27.6486  -23.8184   26.2733 C   0  0  0  0  0  0  0  0  0  0  0  0
  -31.6228  -25.4555   23.7514 C   0  0  1  0  0  0  0  0  0  0  0  0
  -29.8495  -24.7312   27.0225 C   0  0  2  0  0  0  0  0  0  0  0  0
  -31.7469  -14.0554   23.1540 C   0  0  1  0  0  0  0  0  0  0  0  0
  -33.0648  -26.0367   23.7406 C   0  0  0  0  0  0  0  0  0  0  0  0
  -25.9816  -11.9094   20.3624 N   0  0  0  0  0  0  0  0  0  0  0  0
  -26.1338  -13.2415   20.2697 N   0  0  0  0  0  0  0  0  0  0  0  0
  -30.1459  -25.3635   21.7679 N   0  0  0  0  0  0  0  0  0  0  0  0
  -29.9339  -13.4987   19.9507 N   0  0  0  0  0  0  0  0  0  0  0  0
  -24.9819  -15.2961   20.5189 N   0  0  0  0  0  0  0  0  0  0  0  0
  -21.8390  -12.2115   21.5204 N   0  0  0  0  0  0  0  0  0  0  0  0
  -30.1781  -27.3312   18.7918 N   0  0  0  0  0  0  0  0  0  0  0  0
  -30.9605  -25.5243   25.0495 N   0  0  0  0  0  0  0  0  0  0  0  0
  -30.7609  -13.7022   22.1571 N   0  0  0  0  0  0  0  0  0  0  0  0
  -28.7200  -23.8001   27.3022 N   0  3  0  0  0  0  0  0  0  0  0  0
  -22.2403  -14.4591   21.3062 O   0  0  0  0  0  0  0  0  0  0  0  0
  -31.2755  -25.3614   19.3730 O   0  0  0  0  0  0  0  0  0  0  0  0
  -30.5037  -27.3677   22.9043 O   0  0  0  0  0  0  0  0  0  0  0  0
  -30.5728  -23.2476   25.2582 O   0  0  0  0  0  0  0  0  0  0  0  0
  -32.0468  -14.3553   20.3748 O   0  0  0  0  0  0  0  0  0  0  0  0
  -29.9063  -15.2841   24.0551 O   0  0  0  0  0  0  0  0  0  0  0  0
  -31.7929  -17.8694   25.6562 O   0  0  0  0  0  0  0  0  0  0  0  0
  -22.5351   -6.6842   21.5321 O   0  0  0  0  0  0  0  0  0  0  0  0
  -28.9849  -19.6745   19.6848 O   0  0  0  0  0  0  0  0  0  1  0  0
  -19.4387   -5.9058   26.0277 F   0  0  0  0  0  0  0  0  0  0  0  0
  -23.2420   -4.8059   23.4334 F   0  0  0  0  0  0  0  0  0  0  0  0
  1  2  1  0  0  0  0
  1  5  2  0  0  0  0
  2  6  2  0  0  0  0
  3  9  2  0  0  0  0
  3 18  1  0  0  0  0
  4 10  1  0  0  0  0
  4 18  2  0  0  0  0
  5 20  1  0  0  0  0
  6 22  1  0  0  0  0
  7 11  2  0  0  0  0
  7 21  1  0  0  0  0
  8 12  2  0  0  0  0
  8 23  1  0  0  0  0
  9 26  1  0  0  0  0
 10 26  2  0  0  0  0
 11 27  1  0  0  0  0
 12 28  1  0  0  0  0
 13 14  2  0  0  0  0
 13 29  1  0  0  0  0
 14 30  1  0  0  0  0
 15 24  1  0  0  0  0
 15 27  2  0  0  0  0
 16 25  1  0  0  0  0
 16 28  2  0  0  0  0
 17 30  2  0  0  0  0
 17 31  1  0  0  0  0
 18 32  1  0  0  0  0
 19 32  1  0  0  0  0
 19 33  2  0  0  0  0
 19 34  1  0  0  0  0
 20 22  2  0  0  0  0
 20 39  1  0  0  0  0
 21 24  2  0  0  0  0
 21 40  1  0  0  0  0
 22 48  1  0  0  0  0
 23 25  2  0  0  0  0
 23 49  1  0  0  0  0
 24 41  1  0  0  0  0
 25 55  1  0  0  0  0
 26 85  1  0  0  0  0
 27 86  1  0  0  0  0
 28 86  1  0  0  0  0
 29 31  2  0  0  0  0
 29 85  1  0  0  0  0
 30 87  1  0  0  0  0
 31 88  1  0  0  0  0
 32 68  2  0  0  0  0
 33 69  1  0  0  0  0
 33 72  1  0  0  0  0
 34 73  1  0  0  0  0
 34 78  2  0  0  0  0
 35 50  1  0  0  0  0
 35 74  1  0  0  0  0
 35 79  2  0  0  0  0
 36 64  1  0  0  0  0
 36 70  1  0  0  0  0
 36 80  2  0  0  0  0
 37 65  1  0  0  0  0
 37 75  1  0  0  0  0
 37 81  2  0  0  0  0
 38 71  1  0  0  0  0
 38 76  1  0  0  0  0
 38 82  2  0  0  0  0
 39 42  1  0  0  0  0
 40 50  1  0  0  0  0
 41 70  1  0  0  0  0
 42 44  1  0  0  0  0
 43 45  1  0  0  0  0
 43 46  1  0  0  0  0
 44 48  1  0  0  0  0
 45 51  1  0  0  0  0
 46 71  1  0  0  0  0
 47 51  1  0  0  0  0
 47 71  1  0  0  0  0
 48 74  1  0  0  0  0
 49 52  1  0  0  0  0
 49 83  1  0  0  0  0
 50 70  1  0  0  0  0
 51 69  1  0  0  0  0
 52 54  1  0  0  0  0
 52 84  1  0  0  0  0
 53 54  1  0  0  0  0
 53 66  1  0  0  0  0
 53 83  1  0  0  0  0
 54 56  1  0  0  0  0
 54 57  1  0  0  0  0
 58 65  1  0  0  0  0
 59 66  1  0  0  0  0
 60 67  1  0  0  0  0
 61 67  1  0  0  0  0
 62 67  1  0  0  0  0
 63 77  1  0  0  0  0
 64 67  1  0  0  0  0
 64 75  1  0  0  0  0
 65 77  1  0  0  0  0
 66 76  1  0  0  0  0
 68 69  1  0  0  0  0
M  CHG  1  77   1
M  ISO  4  28 101  38 100  76 100  86 101
M  END
> <Batch ID>
0140

> <Smiles>
CNC(C)C(=O)NC(C(=O)N1Cc2cc([101O:1][101c:1]3ccc(C4OC(C(C)[100NH:0][100C:0](=O)N5CCCC(n6nc(-c7ccc(Oc8ccc(F)cc8F)cc7)c(C(N)=O)c6N)C5)C(C)(C)C4O)c(C)c3)ccc2CC1C(=O)NC1CCCc2ccccc21)C(C)(C)C

> <Shape>
0.245

> <Color>
0.166

> <Negative vol penalty>
0.000

$$$$

  -OEChem-04052321133D

 87 97  0     1  0  0  0  0  0999 V2000
  -19.1234  -24.1623   10.9835 C   0  0  0  0  0  0  0  0  0  0  0  0
  -20.0282  -24.3688   12.0199 C   0  0  0  0  0  0  0  0  0  0  0  0
  -27.8537  -17.4680   20.3921 C   0  0  0  0  0  0  0  0  0  0  0  0
  -29.5311  -17.8843   22.0804 C   0  0  0  0  0  0  0  0  0  0  0  0
  -17.8707  -23.6124   11.2525 C   0  0  0  0  0  0  0  0  0  0  0  0
  -19.6804  -24.0265   13.3261 C   0  0  0  0  0  0  0  0  0  0  0  0
  -23.3904  -21.5700   15.7441 C   0  0  0  0  0  0  0  0  0  0  0  0
  -25.2910  -29.3439   20.3467 C   0  0  0  0  0  0  0  0  0  0  0  0
  -27.9700  -16.0960   20.6150 C   0  0  0  0  0  0  0  0  0  0  0  0
  -29.6473  -16.5123   22.3033 C   0  0  0  0  0  0  0  0  0  0  0  0
  -24.4474  -22.3359   16.2339 C   0  0  0  0  0  0  0  0  0  0  0  0
  -30.0897  -13.6052   19.7622 C   0  0  0  0  0  0  0  0  0  0  0  0
  -30.1627  -12.7720   18.6460 C   0  0  0  0  0  0  0  0  0  0  0  0
  -24.9502  -28.2395   19.5738 C   0  0  0  0  0  0  0  0  0  0  0  0
  -23.4684  -22.2669   18.4375 C   0  0  0  0  0  0  0  0  0  0  0  0
  -28.1595  -11.6301   19.3675 C   0  0  0  0  0  0  0  0  0  0  0  0
  -28.6343  -18.3622   21.1248 C   0  0  0  0  0  0  0  0  0  0  0  0
  -27.6424  -20.6753   21.5411 C   0  0  0  0  0  0  0  0  0  0  0  0
  -17.5110  -23.2543   12.5613 C   0  0  0  0  0  0  0  0  0  0  0  0
  -22.3571  -21.1553   16.5965 C   0  0  0  0  0  0  0  0  0  0  0  0
  -18.4213  -23.4726   13.6131 C   0  0  0  0  0  0  0  0  0  0  0  0
  -26.5597  -29.4268   20.9096 C   0  0  0  0  0  0  0  0  0  0  0  0
  -22.4008  -21.4936   17.9566 C   0  0  0  0  0  0  0  0  0  0  0  0
  -28.8667  -15.6181   21.5705 C   0  0  0  0  0  0  0  0  0  0  0  0
  -24.4851  -22.6869   17.5801 C   0  0  0  0  0  0  0  0  0  0  0  0
  -29.0517  -13.4509   20.6811 C   0  0  0  0  0  0  0  0  0  0  0  0
  -29.1976  -11.7845   18.4486 C   0  0  0  0  0  0  0  0  0  0  0  0
  -28.0866  -12.4633   20.4838 C   0  0  0  0  0  0  0  0  0  0  0  0
  -28.5151  -19.7795   20.8947 C   0  0  0  0  0  0  0  0  0  0  0  0
  -27.4440  -28.3871   20.6715 C   0  0  0  0  0  0  0  0  0  0  0  0
  -25.9067  -27.2530   19.3953 C   0  0  0  0  0  0  0  0  0  0  0  0
  -27.9162  -21.8939   20.9697 C   0  0  0  0  0  0  0  0  0  0  0  0
  -26.6712  -20.4279   22.5664 C   0  0  0  0  0  0  0  0  0  0  0  0
  -19.2222  -21.6627   16.7333 C   0  0  0  0  0  0  0  0  0  0  0  0
  -19.3673  -19.4809   19.1294 C   0  0  0  0  0  0  0  0  0  0  0  0
  -21.2349  -17.9362   21.5320 C   0  0  0  0  0  0  0  0  0  0  0  0
  -31.5625  -25.7004   19.1365 C   0  0  0  0  0  0  0  0  0  0  0  0
  -16.1278  -22.7070   12.8100 C   0  0  0  0  0  0  0  0  0  0  0  0
  -21.2377  -20.3070   16.0582 C   0  0  0  0  0  0  0  0  0  0  0  0
  -21.3265  -21.0563   18.9174 C   0  0  0  0  0  0  0  0  0  0  0  0
  -15.9778  -22.0243   14.1672 C   0  0  0  0  0  0  0  0  0  0  0  0
  -30.6770  -23.0760   16.8994 C   0  0  0  0  0  0  0  0  0  0  0  0
  -27.4320  -30.3901   23.1423 C   0  0  0  0  0  0  0  0  0  0  0  0
  -26.0703  -30.9714   22.9228 C   0  0  0  0  0  0  0  0  0  0  0  0
  -16.5878  -22.8858   15.2684 C   0  0  0  0  0  0  0  0  0  0  0  0
  -29.9696  -22.0562   17.7936 C   0  0  0  0  0  0  0  0  0  0  0  0
  -29.6864  -29.6357   20.9835 C   0  0  0  0  0  0  0  0  0  0  0  0
  -31.8352  -23.7562   17.6259 C   0  0  0  0  0  0  0  0  0  0  0  0
  -30.7722  -23.3520   19.8124 C   0  0  0  0  0  0  0  0  0  0  0  0
  -26.9289  -30.6085   21.7389 C   0  0  0  0  0  0  0  0  0  0  0  0
  -18.0901  -23.0913   15.0397 C   0  0  1  0  0  0  0  0  0  0  0  0
  -28.8193  -28.4328   21.2552 C   0  0  2  0  0  0  0  0  0  0  0  0
  -19.9742  -20.3740   16.9105 C   0  0  1  0  0  0  0  0  0  0  0  0
  -30.0058  -28.3243   20.3297 C   0  0  2  0  0  0  0  0  0  0  0  0
  -29.5618  -22.6802   19.1418 C   0  0  2  0  0  0  0  0  0  0  0  0
  -21.0679  -16.2244   23.3593 C   0  0  0  0  0  0  0  0  0  0  0  0
  -17.9278  -21.5103   20.8956 C   0  0  0  0  0  0  0  0  0  0  0  0
  -18.6293  -20.1682   22.8894 C   0  0  0  0  0  0  0  0  0  0  0  0
  -17.1424  -19.1511   21.1639 C   0  0  0  0  0  0  0  0  0  0  0  0
  -23.2463  -16.1915   20.2401 C   0  0  0  0  0  0  0  0  0  0  0  0
  -31.2072  -27.5506   20.7520 C   0  0  0  0  0  0  0  0  0  0  0  0
  -26.1296  -24.3517   17.1559 C   0  0  0  0  0  0  0  0  0  1  0  0
  -26.6673  -25.5343   17.9382 C   0  0  0  0  0  0  0  0  0  0  0  0
  -19.5803  -19.5454   20.6225 C   0  0  1  0  0  0  0  0  0  0  0  0
  -21.3967  -16.4712   21.8951 C   0  0  2  0  0  0  0  0  0  0  0  0
  -18.3393  -20.1038   21.3746 C   0  0  0  0  0  0  0  0  0  0  0  0
  -29.2855  -20.3781   19.9823 N   0  0  0  0  0  0  0  0  0  0  0  0
  -27.1492  -27.2984   19.9261 N   0  0  0  0  0  0  0  0  0  0  0  0
  -28.8977  -21.6630   20.0513 N   0  0  0  0  0  0  0  0  0  0  0  0
  -20.2498  -20.2337   18.3417 N   0  0  0  0  0  0  0  0  0  0  0  0
  -31.3813  -24.3285   18.8957 N   0  0  0  0  0  0  0  0  0  0  0  0
  -27.4106  -23.1298   21.1683 N   0  0  0  0  0  0  0  0  0  0  0  0
  -26.5187  -19.1177   23.0401 N   0  0  0  0  0  0  0  0  0  0  0  0
  -18.8274  -21.9094   15.4323 N   0  0  0  0  0  0  0  0  0  0  0  0
  -19.9762  -18.2037   21.0367 N   0  0  0  0  0  0  0  0  0  0  0  0
  -31.0982  -26.1625   20.3619 N   0  0  0  0  0  0  0  0  0  0  0  0
  -22.7975  -16.0275   21.6467 N   0  3  0  0  0  0  0  0  0  0  0  0
  -25.9483  -21.3388   23.0367 O   0  0  0  0  0  0  0  0  0  0  0  0
  -19.0142  -22.3794   17.7053 O   0  0  0  0  0  0  0  0  0  0  0  0
  -18.4561  -18.7826   18.6781 O   0  0  0  0  0  0  0  0  0  0  0  0
  -22.1340  -18.7616   21.6770 O   0  0  0  0  0  0  0  0  0  0  0  0
  -32.0935  -26.4585   18.3178 O   0  0  0  0  0  0  0  0  0  0  0  0
  -28.9802  -14.2794   21.7884 O   0  0  0  0  0  0  0  0  0  0  0  0
  -25.5153  -23.4349   18.0607 O   0  0  0  0  0  0  0  0  0  1  0  0
  -25.5951  -26.1557   18.6364 O   0  0  0  0  0  0  0  0  0  0  0  0
  -29.2669  -10.9854   17.3758 F   0  0  0  0  0  0  0  0  0  0  0  0
  -27.0864  -12.3110   21.3625 F   0  0  0  0  0  0  0  0  0  0  0  0
  1  2  1  0  0  0  0
  1  5  2  0  0  0  0
  2  6  2  0  0  0  0
  3  9  2  0  0  0  0
  3 17  1  0  0  0  0
  4 10  1  0  0  0  0
  4 17  2  0  0  0  0
  5 19  1  0  0  0  0
  6 21  1  0  0  0  0
  7 11  2  0  0  0  0
  7 20  1  0  0  0  0
  8 14  2  0  0  0  0
  8 22  1  0  0  0  0
  9 24  1  0  0  0  0
 10 24  2  0  0  0  0
 11 25  1  0  0  0  0
 12 13  2  0  0  0  0
 12 26  1  0  0  0  0
 13 27  1  0  0  0  0
 14 31  1  0  0  0  0
 15 23  1  0  0  0  0
 15 25  2  0  0  0  0
 16 27  2  0  0  0  0
 16 28  1  0  0  0  0
 17 29  1  0  0  0  0
 18 29  1  0  0  0  0
 18 32  2  0  0  0  0
 18 33  1  0  0  0  0
 19 21  2  0  0  0  0
 19 38  1  0  0  0  0
 20 23  2  0  0  0  0
 20 39  1  0  0  0  0
 21 51  1  0  0  0  0
 22 30  2  0  0  0  0
 22 50  1  0  0  0  0
 23 40  1  0  0  0  0
 24 83  1  0  0  0  0
 25 84  1  0  0  0  0
 26 28  2  0  0  0  0
 26 83  1  0  0  0  0
 27 86  1  0  0  0  0
 28 87  1  0  0  0  0
 29 67  2  0  0  0  0
 30 52  1  0  0  0  0
 30 68  1  0  0  0  0
 31 68  2  0  0  0  0
 31 85  1  0  0  0  0
 32 69  1  0  0  0  0
 32 72  1  0  0  0  0
 33 73  1  0  0  0  0
 33 78  2  0  0  0  0
 34 53  1  0  0  0  0
 34 74  1  0  0  0  0
 34 79  2  0  0  0  0
 35 64  1  0  0  0  0
 35 70  1  0  0  0  0
 35 80  2  0  0  0  0
 36 65  1  0  0  0  0
 36 75  1  0  0  0  0
 36 81  2  0  0  0  0
 37 71  1  0  0  0  0
 37 76  1  0  0  0  0
 37 82  2  0  0  0  0
 38 41  1  0  0  0  0
 39 53  1  0  0  0  0
 40 70  1  0  0  0  0
 41 45  1  0  0  0  0
 42 46  1  0  0  0  0
 42 48  1  0  0  0  0
 43 44  1  0  0  0  0
 43 50  1  0  0  0  0
 44 50  1  0  0  0  0
 45 51  1  0  0  0  0
 46 55  1  0  0  0  0
 47 52  1  0  0  0  0
 47 54  1  0  0  0  0
 48 71  1  0  0  0  0
 49 55  1  0  0  0  0
 49 71  1  0  0  0  0
 51 74  1  0  0  0  0
 52 54  1  0  0  0  0
 53 70  1  0  0  0  0
 54 61  1  0  0  0  0
 55 69  1  0  0  0  0
 56 65  1  0  0  0  0
 57 66  1  0  0  0  0
 58 66  1  0  0  0  0
 59 66  1  0  0  0  0
 60 77  1  0  0  0  0
 61 76  1  0  0  0  0
 62 63  1  0  0  0  0
 62 84  1  0  0  0  0
 63 85  1  0  0  0  0
 64 66  1  0  0  0  0
 64 75  1  0  0  0  0
 65 77  1  0  0  0  0
 67 69  1  0  0  0  0
M  CHG  1  77   1
M  ISO  4  37 100  62 101  76 100  84 101
M  END
> <Batch ID>
0140

> <Smiles>
CNC(C)C(=O)NC(C(=O)N1Cc2cc([101O:1][101CH2:1]COc3ccc(C4CC4)c(C4CC4C[100NH:0][100C:0](=O)N4CCCC(n5nc(-c6ccc(Oc7ccc(F)cc7F)cc6)c(C(N)=O)c5N)C4)n3)ccc2CC1C(=O)NC1CCCc2ccccc21)C(C)(C)C

> <Shape>
0.204

> <Color>
0.059

> <Negative vol penalty>
0.000

$$$$

  -OEChem-04052321133D

 86 95  0     1  0  0  0  0  0999 V2000
  -32.9138  -31.9777   17.0111 C   0  0  0  0  0  0  0  0  0  0  0  0
  -33.1494  -30.9474   17.9157 C   0  0  0  0  0  0  0  0  0  0  0  0
  -23.0033  -10.0071   19.8631 C   0  0  0  0  0  0  0  0  0  0  0  0
  -23.9325   -9.6413   22.0630 C   0  0  0  0  0  0  0  0  0  0  0  0
  -31.6190  -32.2202   16.5544 C   0  0  0  0  0  0  0  0  0  0  0  0
  -32.0902  -30.1597   18.3651 C   0  0  0  0  0  0  0  0  0  0  0  0
  -33.2073  -25.2204   18.3687 C   0  0  0  0  0  0  0  0  0  0  0  0
  -22.2556   -8.8359   19.9841 C   0  0  0  0  0  0  0  0  0  0  0  0
  -23.1848   -8.4700   22.1841 C   0  0  0  0  0  0  0  0  0  0  0  0
  -33.9949  -24.7465   19.4170 C   0  0  0  0  0  0  0  0  0  0  0  0
  -21.2469   -5.5735   23.2199 C   0  0  0  0  0  0  0  0  0  0  0  0
  -20.5796   -5.3508   24.4244 C   0  0  0  0  0  0  0  0  0  0  0  0
  -32.0160  -23.9220   20.5230 C   0  0  0  0  0  0  0  0  0  0  0  0
  -32.0016  -17.2099   22.1240 C   0  0  0  0  0  0  0  0  0  0  0  0
  -19.3257   -7.3915   24.1069 C   0  0  0  0  0  0  0  0  0  0  0  0
  -30.9307  -18.3536   23.7411 C   0  0  0  0  0  0  0  0  0  0  0  0
  -23.8418  -10.4098   20.9025 C   0  0  0  0  0  0  0  0  0  0  0  0
  -24.2280  -12.9185   21.1576 C   0  0  0  0  0  0  0  0  0  0  0  0
  -30.5447  -31.4289   16.9909 C   0  0  0  0  0  0  0  0  0  0  0  0
  -31.8147  -25.0580   18.3949 C   0  0  0  0  0  0  0  0  0  0  0  0
  -30.7796  -30.3927   17.9148 C   0  0  0  0  0  0  0  0  0  0  0  0
  -31.2133  -24.3924   19.4726 C   0  0  0  0  0  0  0  0  0  0  0  0
  -22.3463   -8.0673   21.1446 C   0  0  0  0  0  0  0  0  0  0  0  0
  -33.3990  -24.0997   20.4957 C   0  0  0  0  0  0  0  0  0  0  0  0
  -20.9538   -6.7052   22.4590 C   0  0  0  0  0  0  0  0  0  0  0  0
  -32.0901  -18.3213   22.9981 C   0  0  0  0  0  0  0  0  0  0  0  0
  -19.6190   -6.2598   24.8679 C   0  0  0  0  0  0  0  0  0  0  0  0
  -19.9932   -7.6142   22.9025 C   0  0  0  0  0  0  0  0  0  0  0  0
  -24.6149  -11.6193   20.7779 C   0  0  0  0  0  0  0  0  0  0  0  0
  -30.7907  -16.5970   22.3593 C   0  0  0  0  0  0  0  0  0  0  0  0
  -25.3058  -13.7061   20.8342 C   0  0  0  0  0  0  0  0  0  0  0  0
  -23.0038  -13.3728   21.7497 C   0  0  0  0  0  0  0  0  0  0  0  0
  -29.3262  -27.0352   18.4321 C   0  0  0  0  0  0  0  0  0  0  0  0
  -27.6325  -24.2849   18.1330 C   0  0  0  0  0  0  0  0  0  0  0  0
  -27.4901  -20.9058   18.5896 C   0  0  0  0  0  0  0  0  0  0  0  0
  -30.7910  -14.6592   20.7495 C   0  0  0  0  0  0  0  0  0  0  0  0
  -29.1555  -31.7593   16.5056 C   0  0  0  0  0  0  0  0  0  0  0  0
  -30.9819  -25.5512   17.2436 C   0  0  0  0  0  0  0  0  0  0  0  0
  -29.7244  -24.1747   19.5390 C   0  0  0  0  0  0  0  0  0  0  0  0
  -28.1452  -30.6398   16.7427 C   0  0  0  0  0  0  0  0  0  0  0  0
  -29.4509  -12.6646   18.1222 C   0  0  0  0  0  0  0  0  0  0  0  0
  -28.2700  -30.1003   18.1640 C   0  0  0  0  0  0  0  0  0  0  0  0
  -26.3273  -17.6357   23.5158 C   0  0  0  0  0  0  0  0  0  0  0  0
  -27.1384  -18.8154   23.0701 C   0  0  0  0  0  0  0  0  0  0  0  0
  -28.0414  -12.3217   18.6101 C   0  0  0  0  0  0  0  0  0  0  0  0
  -30.4580  -12.6902   19.2706 C   0  0  0  0  0  0  0  0  0  0  0  0
  -28.6757  -13.2029   20.8923 C   0  0  0  0  0  0  0  0  0  0  0  0
  -29.6604  -29.5007   18.4064 C   0  0  1  0  0  0  0  0  0  0  0  0
  -29.5222  -25.7865   17.6197 C   0  0  1  0  0  0  0  0  0  0  0  0
  -27.7173  -17.4265   22.9698 C   0  0  0  0  0  0  0  0  0  0  0  0
  -27.6140  -13.2288   19.7806 C   0  0  2  0  0  0  0  0  0  0  0  0
  -25.9614  -18.9394   18.2839 C   0  0  0  0  0  0  0  0  0  0  0  0
  -26.0327  -25.1507   20.5828 C   0  0  0  0  0  0  0  0  0  0  0  0
  -25.2118  -22.7948   20.7929 C   0  0  0  0  0  0  0  0  0  0  0  0
  -24.6682  -24.1261   18.7545 C   0  0  0  0  0  0  0  0  0  0  0  0
  -29.3728  -19.5842   16.7274 C   0  0  0  0  0  0  0  0  0  0  0  0
  -28.8444  -16.9981   23.8937 C   0  0  0  0  0  0  0  0  0  0  0  0
  -35.9537  -22.1751   22.1898 C   0  0  0  0  0  0  0  0  0  0  0  0
  -35.4247  -19.8703   22.9942 C   0  0  0  0  0  0  0  0  0  0  0  0
  -35.4972  -23.2330   21.2047 C   0  0  0  0  0  0  0  0  0  1  0  0
  -34.4238  -18.7447   22.8231 C   0  0  0  0  0  0  0  0  0  0  0  0
  -27.0298  -23.2904   19.0958 C   0  0  1  0  0  0  0  0  0  0  0  0
  -27.0652  -19.7812   17.6628 C   0  0  2  0  0  0  0  0  0  0  0  0
  -25.7635  -23.8462   19.8065 C   0  0  0  0  0  0  0  0  0  0  0  0
  -25.8426  -11.5796   20.2532 N   0  0  0  0  0  0  0  0  0  0  0  0
  -30.1481  -17.3010   23.3440 N   0  0  0  0  0  0  0  0  0  0  0  0
  -26.2364  -12.8636   20.3009 N   0  0  0  0  0  0  0  0  0  0  0  0
  -28.9523  -24.6807   18.3922 N   0  0  0  0  0  0  0  0  0  0  0  0
  -29.9885  -13.5731   20.3406 N   0  0  0  0  0  0  0  0  0  0  0  0
  -25.5387  -15.0301   20.9568 N   0  0  0  0  0  0  0  0  0  0  0  0
  -22.0006  -12.4309   22.0160 N   0  0  0  0  0  0  0  0  0  0  0  0
  -30.2267  -15.4479   21.7516 N   0  0  0  0  0  0  0  0  0  0  0  0
  -29.7568  -28.1883   17.8041 N   0  0  0  0  0  0  0  0  0  0  0  0
  -26.7984  -22.0701   18.3304 N   0  0  0  0  0  0  0  0  0  0  0  0
  -28.2227  -18.8915   17.3633 N   0  3  0  0  0  0  0  0  0  0  0  0
  -35.0586  -20.9947   22.0910 N   0  3  0  0  0  0  0  0  0  0  0  0
  -22.7990  -14.5807   22.0191 O   0  0  0  0  0  0  0  0  0  0  0  0
  -28.8202  -26.9584   19.5455 O   0  0  0  0  0  0  0  0  0  0  0  0
  -26.9595  -24.6900   17.1819 O   0  0  0  0  0  0  0  0  0  0  0  0
  -28.3471  -20.7645   19.4592 O   0  0  0  0  0  0  0  0  0  0  0  0
  -31.8853  -14.8898   20.2287 O   0  0  0  0  0  0  0  0  0  0  0  0
  -21.6166   -6.9245   21.2631 O   0  0  0  0  0  0  0  0  0  0  0  0
  -34.1654  -23.6368   21.5206 O   0  0  0  0  0  0  0  0  0  1  0  0
  -33.1169  -19.2215   23.1151 O   0  0  0  0  0  0  0  0  0  0  0  0
  -18.9771   -6.0450   26.0237 F   0  0  0  0  0  0  0  0  0  0  0  0
  -19.7064   -8.7026   22.1753 F   0  0  0  0  0  0  0  0  0  0  0  0
  1  2  1  0  0  0  0
  1  5  2  0  0  0  0
  2  6  2  0  0  0  0
  3  8  2  0  0  0  0
  3 17  1  0  0  0  0
  4  9  1  0  0  0  0
  4 17  2  0  0  0  0
  5 19  1  0  0  0  0
  6 21  1  0  0  0  0
  7 10  2  0  0  0  0
  7 20  1  0  0  0  0
  8 23  1  0  0  0  0
  9 23  2  0  0  0  0
 10 24  1  0  0  0  0
 11 12  2  0  0  0  0
 11 25  1  0  0  0  0
 12 27  1  0  0  0  0
 13 22  1  0  0  0  0
 13 24  2  0  0  0  0
 14 26  1  0  0  0  0
 14 30  2  0  0  0  0
 15 27  2  0  0  0  0
 15 28  1  0  0  0  0
 16 26  2  0  0  0  0
 16 66  1  0  0  0  0
 17 29  1  0  0  0  0
 18 29  1  0  0  0  0
 18 31  2  0  0  0  0
 18 32  1  0  0  0  0
 19 21  2  0  0  0  0
 19 37  1  0  0  0  0
 20 22  2  0  0  0  0
 20 38  1  0  0  0  0
 21 48  1  0  0  0  0
 22 39  1  0  0  0  0
 23 82  1  0  0  0  0
 24 83  1  0  0  0  0
 25 28  2  0  0  0  0
 25 82  1  0  0  0  0
 26 84  1  0  0  0  0
 27 85  1  0  0  0  0
 28 86  1  0  0  0  0
 29 65  2  0  0  0  0
 30 66  1  0  0  0  0
 30 72  1  0  0  0  0
 31 67  1  0  0  0  0
 31 70  1  0  0  0  0
 32 71  1  0  0  0  0
 32 77  2  0  0  0  0
 33 49  1  0  0  0  0
 33 73  1  0  0  0  0
 33 78  2  0  0  0  0
 34 62  1  0  0  0  0
 34 68  1  0  0  0  0
 34 79  2  0  0  0  0
 35 63  1  0  0  0  0
 35 74  1  0  0  0  0
 35 80  2  0  0  0  0
 36 69  1  0  0  0  0
 36 72  1  0  0  0  0
 36 81  2  0  0  0  0
 37 40  1  0  0  0  0
 38 49  1  0  0  0  0
 39 68  1  0  0  0  0
 40 42  1  0  0  0  0
 41 45  1  0  0  0  0
 41 46  1  0  0  0  0
 42 48  1  0  0  0  0
 43 44  1  0  0  0  0
 43 50  1  0  0  0  0
 44 50  1  0  0  0  0
 45 51  1  0  0  0  0
 46 69  1  0  0  0  0
 47 51  1  0  0  0  0
 47 69  1  0  0  0  0
 48 73  1  0  0  0  0
 49 68  1  0  0  0  0
 50 57  1  0  0  0  0
 51 67  1  0  0  0  0
 52 63  1  0  0  0  0
 53 64  1  0  0  0  0
 54 64  1  0  0  0  0
 55 64  1  0  0  0  0
 56 75  1  0  0  0  0
 57 66  1  0  0  0  0
 58 60  1  0  0  0  0
 58 76  1  0  0  0  0
 59 61  1  0  0  0  0
 59 76  1  0  0  0  0
 60 83  1  0  0  0  0
 61 84  1  0  0  0  0
 62 64  1  0  0  0  0
 62 74  1  0  0  0  0
 63 75  1  0  0  0  0
 65 67  1  0  0  0  0
M  CHG  2  75   1  76   1
M  ISO  4  36 100  60 101  72 100  83 101
M  END
> <Batch ID>
0140

> <Smiles>
CNC(C)C(=O)NC(C(=O)N1Cc2cc([101O:1][101CH2:1]CNCCOc3cc([100NH:0][100C:0](=O)N4CCCC(n5nc(-c6ccc(Oc7ccc(F)cc7F)cc6)c(C(N)=O)c5N)C4)n(CC4CC4)c3)ccc2CC1C(=O)NC1CCCc2ccccc21)C(C)(C)C

> <Shape>
0.226

> <Color>
0.188

> <Negative vol penalty>
0.000

$$$$

  -OEChem-04052321133D

 82 90  0     1  0  0  0  0  0999 V2000
  -16.3844  -29.7077   23.0899 C   0  0  0  0  0  0  0  0  0  0  0  0
  -17.3207  -29.4868   22.0849 C   0  0  0  0  0  0  0  0  0  0  0  0
  -26.5126  -12.5233   21.5610 C   0  0  0  0  0  0  0  0  0  0  0  0
  -25.8230  -13.5739   19.4976 C   0  0  0  0  0  0  0  0  0  0  0  0
  -16.8092  -29.9542   24.3947 C   0  0  0  0  0  0  0  0  0  0  0  0
  -18.6824  -29.5134   22.3840 C   0  0  0  0  0  0  0  0  0  0  0  0
  -23.0762  -26.0813   19.8500 C   0  0  0  0  0  0  0  0  0  0  0  0
  -25.2845  -11.8664   21.6370 C   0  0  0  0  0  0  0  0  0  0  0  0
  -24.5949  -12.9169   19.5736 C   0  0  0  0  0  0  0  0  0  0  0  0
  -23.9976  -26.3364   18.8353 C   0  0  0  0  0  0  0  0  0  0  0  0
  -23.8122   -9.1671   20.2302 C   0  0  0  0  0  0  0  0  0  0  0  0
  -23.8214   -7.8113   20.5576 C   0  0  0  0  0  0  0  0  0  0  0  0
  -25.6542  -26.9105   20.4922 C   0  0  0  0  0  0  0  0  0  0  0  0
  -27.2333  -21.7077   18.3794 C   0  0  0  0  0  0  0  0  0  0  0  0
  -22.4786   -8.2740   22.5120 C   0  0  0  0  0  0  0  0  0  0  0  0
  -29.0021  -23.7855   18.3712 C   0  0  0  0  0  0  0  0  0  0  0  0
  -26.7819  -13.3771   20.4913 C   0  0  0  0  0  0  0  0  0  0  0  0
  -29.2235  -13.5961   19.7858 C   0  0  0  0  0  0  0  0  0  0  0  0
  -18.1765  -29.9743   24.7119 C   0  0  0  0  0  0  0  0  0  0  0  0
  -23.4341  -26.2497   21.1953 C   0  0  0  0  0  0  0  0  0  0  0  0
  -19.1259  -29.7618   23.6941 C   0  0  0  0  0  0  0  0  0  0  0  0
  -24.7362  -26.6545   21.5222 C   0  0  0  0  0  0  0  0  0  0  0  0
  -27.0192  -22.7824   17.5234 C   0  0  0  0  0  0  0  0  0  0  0  0
  -27.9158  -23.8451   17.5131 C   0  0  0  0  0  0  0  0  0  0  0  0
  -24.3256  -12.0631   20.6433 C   0  0  0  0  0  0  0  0  0  0  0  0
  -25.2860  -26.7539   19.1562 C   0  0  0  0  0  0  0  0  0  0  0  0
  -23.1362  -10.0764   21.0438 C   0  0  0  0  0  0  0  0  0  0  0  0
  -23.1546   -7.3647   21.6984 C   0  0  0  0  0  0  0  0  0  0  0  0
  -22.4693   -9.6298   22.1846 C   0  0  0  0  0  0  0  0  0  0  0  0
  -28.0501  -14.0564   20.4126 C   0  0  0  0  0  0  0  0  0  0  0  0
  -28.3502  -21.7437   19.1985 C   0  0  0  0  0  0  0  0  0  0  0  0
  -30.1384  -14.5999   19.9901 C   0  0  0  0  0  0  0  0  0  0  0  0
  -29.4650  -12.3706   19.0817 C   0  0  0  0  0  0  0  0  0  0  0  0
  -22.4295  -28.1115   23.5677 C   0  0  0  0  0  0  0  0  0  0  0  0
  -24.4860  -26.3204   25.3240 C   0  0  0  0  0  0  0  0  0  0  0  0
  -27.2567  -24.3294   25.4002 C   0  0  0  0  0  0  0  0  0  0  0  0
  -29.6065  -20.4700   20.9721 C   0  0  0  0  0  0  0  0  0  0  0  0
  -18.5888  -30.2918   26.1275 C   0  0  0  0  0  0  0  0  0  0  0  0
  -22.4367  -25.9446   22.2790 C   0  0  0  0  0  0  0  0  0  0  0  0
  -25.1766  -26.8308   22.9517 C   0  0  0  0  0  0  0  0  0  0  0  0
  -20.0401  -29.9319   26.4346 C   0  0  0  0  0  0  0  0  0  0  0  0
  -31.2331  -18.0986   23.0716 C   0  0  0  0  0  0  0  0  0  0  0  0
  -20.9592  -30.4238   25.3209 C   0  0  0  0  0  0  0  0  0  0  0  0
  -30.7129  -16.7507   22.5669 C   0  0  0  0  0  0  0  0  0  0  0  0
  -30.1528  -19.1776   23.0230 C   0  0  0  0  0  0  0  0  0  0  0  0
  -28.9726  -17.9893   21.2164 C   0  0  0  0  0  0  0  0  0  0  0  0
  -20.6112  -29.7581   23.9840 C   0  0  1  0  0  0  0  0  0  0  0  0
  -22.7535  -26.6446   23.5970 C   0  0  1  0  0  0  0  0  0  0  0  0
  -30.0433  -16.8865   21.1853 C   0  0  2  0  0  0  0  0  0  0  0  0
  -25.8255  -22.7743   16.6271 C   0  0  0  0  0  0  0  0  0  0  0  0
  -28.3633  -24.7764   15.2278 C   0  0  0  0  0  0  0  0  0  0  0  0
  -28.7162  -23.0445   26.9865 C   0  0  0  0  0  0  0  0  0  0  0  0
  -25.7650  -28.9291   26.2564 C   0  0  0  0  0  0  0  0  0  0  0  0
  -27.7394  -27.6014   27.0355 C   0  0  0  0  0  0  0  0  0  0  0  0
  -25.4935  -27.2026   28.0453 C   0  0  0  0  0  0  0  0  0  0  0  0
  -26.6570  -21.7621   24.0554 C   0  0  0  0  0  0  0  0  0  0  0  0
  -28.2834  -26.3517   17.1976 C   0  0  0  0  0  0  0  0  0  0  0  0
  -27.5635  -26.7823   18.4721 C   0  0  0  0  0  0  0  0  0  1  0  0
  -27.7306  -25.0438   16.5989 C   0  0  2  0  0  0  0  0  0  0  0  0
  -25.9486  -26.4179   25.6853 C   0  0  1  0  0  0  0  0  0  0  0  0
  -27.5135  -22.9854   26.0576 C   0  0  2  0  0  0  0  0  0  0  0  0
  -26.2281  -27.5364   26.7285 C   0  0  0  0  0  0  0  0  0  0  0  0
  -29.2432  -22.7585   19.2167 N   0  0  0  0  0  0  0  0  0  0  0  0
  -28.2028  -15.2591   20.9733 N   0  0  0  0  0  0  0  0  0  0  0  0
  -29.4830  -15.5629   20.6996 N   0  0  0  0  0  0  0  0  0  0  0  0
  -24.1631  -26.5262   23.9752 N   0  0  0  0  0  0  0  0  0  0  0  0
  -29.5665  -19.2519   21.6831 N   0  0  0  0  0  0  0  0  0  0  0  0
  -31.4316  -14.7440   19.6305 N   0  0  0  0  0  0  0  0  0  0  0  0
  -28.4152  -11.4495   18.9644 N   0  0  0  0  0  0  0  0  0  0  0  0
  -28.5589  -20.6449   20.0685 N   0  0  0  0  0  0  0  0  0  0  0  0
  -21.1325  -28.4088   23.9404 N   0  0  0  0  0  0  0  0  0  0  0  0
  -26.3521  -25.0839   26.1168 N   0  0  0  0  0  0  0  0  0  0  0  0
  -27.7693  -21.9433   25.0234 N   0  3  0  0  0  0  0  0  0  0  0  0
  -30.5834  -12.0933   18.5859 O   0  0  0  0  0  0  0  0  0  0  0  0
  -23.2927  -28.9144   23.2331 O   0  0  0  0  0  0  0  0  0  0  0  0
  -23.6613  -26.0640   26.2048 O   0  0  0  0  0  0  0  0  0  0  0  0
  -27.8066  -24.6767   24.3573 O   0  0  0  0  0  0  0  0  0  0  0  0
  -30.5189  -21.2850   21.1319 O   0  0  0  0  0  0  0  0  0  0  0  0
  -23.1272  -11.4221   20.7170 O   0  0  0  0  0  0  0  0  0  0  0  0
  -26.1871  -27.0042   18.1677 O   0  0  0  0  0  0  0  0  0  1  0  0
  -23.1623   -6.0624   22.0118 F   0  0  0  0  0  0  0  0  0  0  0  0
  -21.8172  -10.4985   22.9694 F   0  0  0  0  0  0  0  0  0  0  0  0
  1  2  1  0  0  0  0
  1  5  2  0  0  0  0
  2  6  2  0  0  0  0
  3  8  2  0  0  0  0
  3 17  1  0  0  0  0
  4  9  1  0  0  0  0
  4 17  2  0  0  0  0
  5 19  1  0  0  0  0
  6 21  1  0  0  0  0
  7 10  2  0  0  0  0
  7 20  1  0  0  0  0
  8 25  1  0  0  0  0
  9 25  2  0  0  0  0
 10 26  1  0  0  0  0
 11 12  2  0  0  0  0
 11 27  1  0  0  0  0
 12 28  1  0  0  0  0
 13 22  1  0  0  0  0
 13 26  2  0  0  0  0
 14 23  1  0  0  0  0
 14 31  2  0  0  0  0
 15 28  2  0  0  0  0
 15 29  1  0  0  0  0
 16 24  1  0  0  0  0
 16 63  2  0  0  0  0
 17 30  1  0  0  0  0
 18 30  1  0  0  0  0
 18 32  2  0  0  0  0
 18 33  1  0  0  0  0
 19 21  2  0  0  0  0
 19 38  1  0  0  0  0
 20 22  2  0  0  0  0
 20 39  1  0  0  0  0
 21 47  1  0  0  0  0
 22 40  1  0  0  0  0
 23 24  2  0  0  0  0
 23 50  1  0  0  0  0
 24 59  1  0  0  0  0
 25 79  1  0  0  0  0
 26 80  1  0  0  0  0
 27 29  2  0  0  0  0
 27 79  1  0  0  0  0
 28 81  1  0  0  0  0
 29 82  1  0  0  0  0
 30 64  2  0  0  0  0
 31 63  1  0  0  0  0
 31 70  1  0  0  0  0
 32 65  1  0  0  0  0
 32 68  1  0  0  0  0
 33 69  1  0  0  0  0
 33 74  2  0  0  0  0
 34 48  1  0  0  0  0
 34 71  1  0  0  0  0
 34 75  2  0  0  0  0
 35 60  1  0  0  0  0
 35 66  1  0  0  0  0
 35 76  2  0  0  0  0
 36 61  1  0  0  0  0
 36 72  1  0  0  0  0
 36 77  2  0  0  0  0
 37 67  1  0  0  0  0
 37 70  1  0  0  0  0
 37 78  2  0  0  0  0
 38 41  1  0  0  0  0
 39 48  1  0  0  0  0
 40 66  1  0  0  0  0
 41 43  1  0  0  0  0
 42 44  1  0  0  0  0
 42 45  1  0  0  0  0
 43 47  1  0  0  0  0
 44 49  1  0  0  0  0
 45 67  1  0  0  0  0
 46 49  1  0  0  0  0
 46 67  1  0  0  0  0
 47 71  1  0  0  0  0
 48 66  1  0  0  0  0
 49 65  1  0  0  0  0
 51 59  1  0  0  0  0
 52 61  1  0  0  0  0
 53 62  1  0  0  0  0
 54 62  1  0  0  0  0
 55 62  1  0  0  0  0
 56 73  1  0  0  0  0
 57 58  1  0  0  0  0
 57 59  1  0  0  0  0
 58 80  1  0  0  0  0
 60 62  1  0  0  0  0
 60 72  1  0  0  0  0
 61 73  1  0  0  0  0
 64 65  1  0  0  0  0
M  CHG  1  73   1
M  ISO  4  37 100  58 101  70 100  80 101
M  END
> <Batch ID>
0140

> <Smiles>
CNC(C)C(=O)NC(C(=O)N1Cc2cc([101O:1][101CH2:1]CC(C)c3cnc([100NH:0][100C:0](=O)N4CCCC(n5nc(-c6ccc(Oc7ccc(F)cc7F)cc6)c(C(N)=O)c5N)C4)cc3C)ccc2CC1C(=O)NC1CCCc2ccccc21)C(C)(C)C

> <Shape>
0.241

> <Color>
0.100

> <Negative vol penalty>
0.000

$$$$

  -OEChem-04052321133D

 82 91  0     1  0  0  0  0  0999 V2000
  -26.3848  -31.1850   14.5648 C   0  0  0  0  0  0  0  0  0  0  0  0
  -26.9927  -30.1122   15.2090 C   0  0  0  0  0  0  0  0  0  0  0  0
  -23.9169   -9.7691   22.0560 C   0  0  0  0  0  0  0  0  0  0  0  0
  -22.4024  -10.1243   20.2074 C   0  0  0  0  0  0  0  0  0  0  0  0
  -25.8119  -32.2124   15.3133 C   0  0  0  0  0  0  0  0  0  0  0  0
  -27.0290  -30.0667   16.6022 C   0  0  0  0  0  0  0  0  0  0  0  0
  -28.6871  -20.5497   22.8224 C   0  0  0  0  0  0  0  0  0  0  0  0
  -25.8378  -25.4961   18.4283 C   0  0  0  0  0  0  0  0  0  0  0  0
  -29.1420  -20.9614   21.5677 C   0  0  0  0  0  0  0  0  0  0  0  0
  -23.4810   -8.4482   22.1593 C   0  0  0  0  0  0  0  0  0  0  0  0
  -21.9665   -8.8034   20.3107 C   0  0  0  0  0  0  0  0  0  0  0  0
  -26.8251  -24.5130   18.3777 C   0  0  0  0  0  0  0  0  0  0  0  0
  -20.8232   -6.7955   23.4356 C   0  0  0  0  0  0  0  0  0  0  0  0
  -20.5441   -6.3038   24.7107 C   0  0  0  0  0  0  0  0  0  0  0  0
  -27.4827  -19.5703   20.4582 C   0  0  0  0  0  0  0  0  0  0  0  0
  -27.3255  -24.9042   20.7048 C   0  0  0  0  0  0  0  0  0  0  0  0
  -22.2264   -4.5943   24.4198 C   0  0  0  0  0  0  0  0  0  0  0  0
  -23.3776  -10.6072   21.0800 C   0  0  0  0  0  0  0  0  0  0  0  0
  -24.8934  -12.4572   20.1925 C   0  0  0  0  0  0  0  0  0  0  0  0
  -25.8328  -32.1746   16.7165 C   0  0  0  0  0  0  0  0  0  0  0  0
  -25.5939  -26.1993   19.6168 C   0  0  0  0  0  0  0  0  0  0  0  0
  -26.4571  -31.0952   17.3702 C   0  0  0  0  0  0  0  0  0  0  0  0
  -27.6353  -19.6499   22.8772 C   0  0  0  0  0  0  0  0  0  0  0  0
  -27.0376  -19.1712   21.7066 C   0  0  0  0  0  0  0  0  0  0  0  0
  -26.3328  -25.8939   20.7687 C   0  0  0  0  0  0  0  0  0  0  0  0
  -28.5444  -20.4748   20.3941 C   0  0  0  0  0  0  0  0  0  0  0  0
  -22.5058   -7.9653   21.2867 C   0  0  0  0  0  0  0  0  0  0  0  0
  -27.5711  -24.2190   19.5152 C   0  0  0  0  0  0  0  0  0  0  0  0
  -21.8039   -6.1865   22.6526 C   0  0  0  0  0  0  0  0  0  0  0  0
  -21.2457   -5.2033   25.2029 C   0  0  0  0  0  0  0  0  0  0  0  0
  -22.5055   -5.0860   23.1447 C   0  0  0  0  0  0  0  0  0  0  0  0
  -23.8271  -11.9720   20.9732 C   0  0  0  0  0  0  0  0  0  0  0  0
  -24.9107  -13.8086   20.4369 C   0  0  0  0  0  0  0  0  0  0  0  0
  -25.7882  -11.7495   19.3240 C   0  0  0  0  0  0  0  0  0  0  0  0
  -25.7796  -29.2478   20.4977 C   0  0  0  0  0  0  0  0  0  0  0  0
  -24.4594  -28.1304   23.2419 C   0  0  0  0  0  0  0  0  0  0  0  0
  -23.9290  -25.4879   25.3354 C   0  0  0  0  0  0  0  0  0  0  0  0
  -24.7429  -17.9209   24.2785 C   0  0  0  0  0  0  0  0  0  0  0  0
  -25.2421  -33.3317   17.4826 C   0  0  0  0  0  0  0  0  0  0  0  0
  -24.5071  -27.2382   19.6621 C   0  0  0  0  0  0  0  0  0  0  0  0
  -25.9426  -18.2097   22.0339 C   0  0  0  0  0  0  0  0  0  0  0  0
  -26.0961  -26.6059   22.0746 C   0  0  0  0  0  0  0  0  0  0  0  0
  -24.9930  -33.0225   18.9566 C   0  0  0  0  0  0  0  0  0  0  0  0
  -21.5780  -16.7856   22.8098 C   0  0  0  0  0  0  0  0  0  0  0  0
  -26.2089  -32.3364   19.5710 C   0  0  0  0  0  0  0  0  0  0  0  0
  -21.9652  -15.4480   22.1754 C   0  0  0  0  0  0  0  0  0  0  0  0
  -22.4242  -17.1025   24.0412 C   0  0  0  0  0  0  0  0  0  0  0  0
  -24.2582  -15.6925   23.1929 C   0  0  0  0  0  0  0  0  0  0  0  0
  -26.4949  -30.9977   18.8799 C   0  0  1  0  0  0  0  0  0  0  0  0
  -26.9580  -19.0682   24.0834 C   0  0  2  0  0  0  0  0  0  0  0  0
  -24.6944  -28.2501   20.7884 C   0  0  1  0  0  0  0  0  0  0  0  0
  -23.4810  -15.3752   21.9085 C   0  0  1  0  0  0  0  0  0  0  0  0
  -27.8943  -18.2111   24.9276 C   0  0  0  0  0  0  0  0  0  0  0  0
  -22.8470  -24.8914   27.5196 C   0  0  0  0  0  0  0  0  0  0  0  0
  -26.7635  -29.4539   24.7419 C   0  0  0  0  0  0  0  0  0  0  0  0
  -26.1753  -28.0583   26.7355 C   0  0  0  0  0  0  0  0  0  0  0  0
  -24.5280  -29.7012   25.8354 C   0  0  0  0  0  0  0  0  0  0  0  0
  -22.1000  -23.5582   24.0352 C   0  0  0  0  0  0  0  0  0  0  0  0
  -29.0508  -20.9288   19.0657 C   0  0  0  0  0  0  0  0  0  0  0  0
  -28.3395  -22.1843   18.5531 C   0  0  0  0  0  0  0  0  0  1  0  0
  -24.9978  -27.5809   24.5409 C   0  0  1  0  0  0  0  0  0  0  0  0
  -22.6702  -24.9753   26.0115 C   0  0  2  0  0  0  0  0  0  0  0  0
  -25.6222  -28.6863   25.4385 C   0  0  0  0  0  0  0  0  0  0  0  0
  -23.2118  -12.9368   21.6621 N   0  0  0  0  0  0  0  0  0  0  0  0
  -23.8936  -14.0417   21.3151 N   0  0  0  0  0  0  0  0  0  0  0  0
  -25.0268  -27.6179   22.0667 N   0  0  0  0  0  0  0  0  0  0  0  0
  -25.8621  -18.2557   23.5084 N   0  0  0  0  0  0  0  0  0  0  0  0
  -23.8494  -16.9919   23.7348 N   0  0  0  0  0  0  0  0  0  0  0  0
  -25.6967  -14.8085   19.9842 N   0  0  0  0  0  0  0  0  0  0  0  0
  -25.6305  -10.3635   19.1879 N   0  0  0  0  0  0  0  0  0  0  0  0
  -25.5748  -29.9820   19.3451 N   0  0  0  0  0  0  0  0  0  0  0  0
  -23.8964  -26.8558   25.1650 N   0  0  0  0  0  0  0  0  0  0  0  0
  -22.3248  -23.6179   25.5025 N   0  3  0  0  0  0  0  0  0  0  0  0
  -26.7109  -12.3266   18.7003 O   0  0  0  0  0  0  0  0  0  0  0  0
  -26.7315  -29.3454   21.2632 O   0  0  0  0  0  0  0  0  0  0  0  0
  -23.5634  -28.9777   23.2689 O   0  0  0  0  0  0  0  0  0  0  0  0
  -24.8507  -24.7492   24.9959 O   0  0  0  0  0  0  0  0  0  0  0  0
  -24.5266  -18.4598   25.3712 O   0  0  0  0  0  0  0  0  0  0  0  0
  -22.0804   -6.6763   21.3871 O   0  0  0  0  0  0  0  0  0  0  0  0
  -28.5427  -23.2536   19.4680 O   0  0  0  0  0  0  0  0  0  1  0  0
  -20.9786   -4.7322   26.4280 F   0  0  0  0  0  0  0  0  0  0  0  0
  -23.4495   -4.4975   22.3975 F   0  0  0  0  0  0  0  0  0  0  0  0
  1  2  1  0  0  0  0
  1  5  2  0  0  0  0
  2  6  2  0  0  0  0
  3 10  2  0  0  0  0
  3 18  1  0  0  0  0
  4 11  1  0  0  0  0
  4 18  2  0  0  0  0
  5 20  1  0  0  0  0
  6 22  1  0  0  0  0
  7  9  2  0  0  0  0
  7 23  1  0  0  0  0
  8 12  2  0  0  0  0
  8 21  1  0  0  0  0
  9 26  1  0  0  0  0
 10 27  1  0  0  0  0
 11 27  2  0  0  0  0
 12 28  1  0  0  0  0
 13 14  2  0  0  0  0
 13 29  1  0  0  0  0
 14 30  1  0  0  0  0
 15 24  1  0  0  0  0
 15 26  2  0  0  0  0
 16 25  1  0  0  0  0
 16 28  2  0  0  0  0
 17 30  2  0  0  0  0
 17 31  1  0  0  0  0
 18 32  1  0  0  0  0
 19 32  1  0  0  0  0
 19 33  2  0  0  0  0
 19 34  1  0  0  0  0
 20 22  2  0  0  0  0
 20 39  1  0  0  0  0
 21 25  2  0  0  0  0
 21 40  1  0  0  0  0
 22 49  1  0  0  0  0
 23 24  2  0  0  0  0
 23 50  1  0  0  0  0
 24 41  1  0  0  0  0
 25 42  1  0  0  0  0
 26 59  1  0  0  0  0
 27 79  1  0  0  0  0
 28 80  1  0  0  0  0
 29 31  2  0  0  0  0
 29 79  1  0  0  0  0
 30 81  1  0  0  0  0
 31 82  1  0  0  0  0
 32 64  2  0  0  0  0
 33 65  1  0  0  0  0
 33 69  1  0  0  0  0
 34 70  1  0  0  0  0
 34 74  2  0  0  0  0
 35 51  1  0  0  0  0
 35 71  1  0  0  0  0
 35 75  2  0  0  0  0
 36 61  1  0  0  0  0
 36 66  1  0  0  0  0
 36 76  2  0  0  0  0
 37 62  1  0  0  0  0
 37 72  1  0  0  0  0
 37 77  2  0  0  0  0
 38 67  1  0  0  0  0
 38 68  1  0  0  0  0
 38 78  2  0  0  0  0
 39 43  1  0  0  0  0
 40 51  1  0  0  0  0
 41 67  1  0  0  0  0
 42 66  1  0  0  0  0
 43 45  1  0  0  0  0
 44 46  1  0  0  0  0
 44 47  1  0  0  0  0
 45 49  1  0  0  0  0
 46 52  1  0  0  0  0
 47 68  1  0  0  0  0
 48 52  1  0  0  0  0
 48 68  1  0  0  0  0
 49 71  1  0  0  0  0
 50 53  1  0  0  0  0
 50 67  1  0  0  0  0
 51 66  1  0  0  0  0
 52 65  1  0  0  0  0
 54 62  1  0  0  0  0
 55 63  1  0  0  0  0
 56 63  1  0  0  0  0
 57 63  1  0  0  0  0
 58 73  1  0  0  0  0
 59 60  1  0  0  0  0
 60 80  1  0  0  0  0
 61 63  1  0  0  0  0
 61 72  1  0  0  0  0
 62 73  1  0  0  0  0
 64 65  1  0  0  0  0
M  CHG  1  73   1
M  ISO  4  38 100  60 101  67 100  80 101
M  END
> <Batch ID>
0140

> <Smiles>
CNC(C)C(=O)NC(C(=O)N1Cc2cc([101O:1][101CH2:1]Cc3ccc4c(c3)C[100N:0]([100C:0](=O)N3CCCC(n5nc(-c6ccc(Oc7ccc(F)cc7F)cc6)c(C(N)=O)c5N)C3)C4C)ccc2CC1C(=O)NC1CCCc2ccccc21)C(C)(C)C

> <Shape>
0.198

> <Color>
0.116

> <Negative vol penalty>
0.000

$$$$

  -OEChem-04052321133D

 85 94  0     1  0  0  0  0  0999 V2000
  -24.2550  -11.5001   20.4686 C   0  0  0  0  0  0  0  0  0  0  0  0
  -23.8269  -12.8075   20.6757 C   0  0  0  0  0  0  0  0  0  0  0  0
  -26.2642  -29.0845   21.6759 C   0  0  0  0  0  0  0  0  0  0  0  0
  -25.1353  -27.5949   20.1450 C   0  0  0  0  0  0  0  0  0  0  0  0
  -25.6050  -11.1799   20.6055 C   0  0  0  0  0  0  0  0  0  0  0  0
  -24.7485  -13.7953   21.0210 C   0  0  0  0  0  0  0  0  0  0  0  0
  -24.0698  -18.0827   18.4128 C   0  0  0  0  0  0  0  0  0  0  0  0
  -27.4858  -28.4975   21.3463 C   0  0  0  0  0  0  0  0  0  0  0  0
  -26.3569  -27.0079   19.8153 C   0  0  0  0  0  0  0  0  0  0  0  0
  -23.0316  -18.9188   18.8211 C   0  0  0  0  0  0  0  0  0  0  0  0
  -29.7292  -28.6649   18.8220 C   0  0  0  0  0  0  0  0  0  0  0  0
  -30.8101  -29.5118   18.5768 C   0  0  0  0  0  0  0  0  0  0  0  0
  -24.6199  -20.3130   19.9842 C   0  0  0  0  0  0  0  0  0  0  0  0
  -20.6312  -21.3663   21.6549 C   0  0  0  0  0  0  0  0  0  0  0  0
  -32.0282  -28.4826   20.3918 C   0  0  0  0  0  0  0  0  0  0  0  0
  -25.0889  -28.6332   21.0753 C   0  0  0  0  0  0  0  0  0  0  0  0
  -23.2173  -30.3430   20.7905 C   0  0  0  0  0  0  0  0  0  0  0  0
  -26.5451  -12.1663   20.9432 C   0  0  0  0  0  0  0  0  0  0  0  0
  -25.3918  -18.3498   18.7968 C   0  0  0  0  0  0  0  0  0  0  0  0
  -26.1122  -13.4877   21.1639 C   0  0  0  0  0  0  0  0  0  0  0  0
  -25.6734  -19.4801   19.5773 C   0  0  0  0  0  0  0  0  0  0  0  0
  -20.4350  -19.9538   23.5967 C   0  0  0  0  0  0  0  0  0  0  0  0
  -20.0112  -21.0570   22.8619 C   0  0  0  0  0  0  0  0  0  0  0  0
  -27.5322  -27.4593   20.4160 C   0  0  0  0  0  0  0  0  0  0  0  0
  -23.3062  -20.0325   19.6094 C   0  0  0  0  0  0  0  0  0  0  0  0
  -29.7978  -27.7270   19.8522 C   0  0  0  0  0  0  0  0  0  0  0  0
  -31.9596  -29.4206   19.3617 C   0  0  0  0  0  0  0  0  0  0  0  0
  -30.9473  -27.6358   20.6370 C   0  0  0  0  0  0  0  0  0  0  0  0
  -23.8266  -29.2387   21.4159 C   0  0  0  0  0  0  0  0  0  0  0  0
  -21.4762  -19.1814   23.1022 C   0  0  0  0  0  0  0  0  0  0  0  0
  -22.0430  -30.5231   21.4798 C   0  0  0  0  0  0  0  0  0  0  0  0
  -21.6676  -20.5582   21.2097 C   0  0  0  0  0  0  0  0  0  1  0  0
  -23.6720  -31.1350   19.6852 C   0  0  0  0  0  0  0  0  0  0  0  0
  -27.5829  -16.8143   20.5129 C   0  0  0  0  0  0  0  0  0  0  0  0
  -29.4909  -19.2490   19.5360 C   0  0  0  0  0  0  0  0  0  0  0  0
  -29.7417  -22.4622   18.4137 C   0  0  0  0  0  0  0  0  0  0  0  0
  -18.5945  -26.8320   24.6944 C   0  0  0  0  0  0  0  0  0  0  0  0
  -27.9868  -11.7628   21.1262 C   0  0  0  0  0  0  0  0  0  0  0  0
  -26.5037  -17.4531   18.3258 C   0  0  0  0  0  0  0  0  0  0  0  0
  -27.0780  -19.8223   19.9996 C   0  0  0  0  0  0  0  0  0  0  0  0
  -28.9543  -12.9435   21.1276 C   0  0  0  0  0  0  0  0  0  0  0  0
  -20.0988  -29.8633   25.8013 C   0  0  0  0  0  0  0  0  0  0  0  0
  -28.4311  -14.0613   22.0241 C   0  0  0  0  0  0  0  0  0  0  0  0
  -22.0662  -16.6668   23.0530 C   0  0  0  0  0  0  0  0  0  0  0  0
  -21.0798  -16.8582   24.1623 C   0  0  0  0  0  0  0  0  0  0  0  0
  -21.1698  -30.1466   24.7464 C   0  0  0  0  0  0  0  0  0  0  0  0
  -19.9603  -28.3677   26.0774 C   0  0  0  0  0  0  0  0  0  0  0  0
  -20.8011  -27.8192   23.8266 C   0  0  0  0  0  0  0  0  0  0  0  0
  -27.0853  -14.5921   21.5154 C   0  0  1  0  0  0  0  0  0  0  0  0
  -22.0159  -17.9834   23.7907 C   0  0  0  0  0  0  0  0  0  0  0  0
  -27.7486  -17.5333   19.2040 C   0  0  1  0  0  0  0  0  0  0  0  0
  -20.9383  -29.3101   23.4736 C   0  0  2  0  0  0  0  0  0  0  0  0
  -19.7876  -19.6016   24.8959 C   0  0  0  0  0  0  0  0  0  0  0  0
  -30.8313  -24.5358   17.5135 C   0  0  0  0  0  0  0  0  0  0  0  0
  -30.1683  -19.7301   22.4720 C   0  0  0  0  0  0  0  0  0  0  0  0
  -31.0601  -21.9785   21.8257 C   0  0  0  0  0  0  0  0  0  0  0  0
  -32.1127  -19.9107   20.9096 C   0  0  0  0  0  0  0  0  0  0  0  0
  -29.3870  -21.5728   15.6133 C   0  0  0  0  0  0  0  0  0  0  0  0
  -17.5792  -23.8677   23.5901 C   0  0  0  0  0  0  0  0  0  0  0  0
  -18.7504  -23.2102   22.8610 C   0  0  0  0  0  0  0  0  0  0  0  0
  -17.3310  -25.3194   23.1862 C   0  0  0  0  0  0  0  0  0  0  0  0
  -29.8350  -20.6182   20.0707 C   0  0  1  0  0  0  0  0  0  0  0  0
  -30.5215  -23.0685   17.2609 C   0  0  2  0  0  0  0  0  0  0  0  0
  -30.7672  -20.5521   21.3133 C   0  0  0  0  0  0  0  0  0  0  0  0
  -23.0996  -28.7518   22.4250 N   0  0  0  0  0  0  0  0  0  0  0  0
  -22.0214  -29.5538   22.4390 N   0  0  0  0  0  0  0  0  0  0  0  0
  -22.0556  -19.5018   21.9372 N   0  3  0  0  0  0  0  0  0  0  0  0
  -28.1302  -18.9115   19.5191 N   0  0  0  0  0  0  0  0  0  0  0  0
  -19.7411  -27.6320   24.8298 N   0  0  0  0  0  0  0  0  0  0  0  0
  -21.0372  -31.4146   21.3529 N   0  0  0  0  0  0  0  0  0  0  0  0
  -24.9010  -30.8130   19.0934 N   0  0  0  0  0  0  0  0  0  0  0  0
  -18.9556  -21.8733   23.3233 N   0  0  0  0  0  0  0  0  0  0  0  0
  -27.2842  -15.4714   20.3833 N   0  0  0  0  0  0  0  0  0  0  0  0
  -30.3883  -21.3677   18.9479 N   0  0  0  0  0  0  0  0  0  0  0  0
  -18.4603  -26.1739   23.4780 N   0  0  0  0  0  0  0  0  0  0  0  0
  -29.7408  -22.9641   15.9958 N   0  3  0  0  0  0  0  0  0  0  0  0
  -23.0160  -32.1099   19.2463 O   0  0  0  0  0  0  0  0  0  0  0  0
  -27.7177  -17.4319   21.5627 O   0  0  0  0  0  0  0  0  0  0  0  0
  -30.3955  -18.5091   19.1411 O   0  0  0  0  0  0  0  0  0  0  0  0
  -28.6684  -22.9164   18.8038 O   0  0  0  0  0  0  0  0  0  0  0  0
  -17.7501  -26.7171   25.5893 O   0  0  0  0  0  0  0  0  0  0  0  0
  -28.7241  -26.8864   20.0938 O   0  0  0  0  0  0  0  0  0  0  0  0
  -22.2945  -20.8499   20.0098 O   0  0  0  0  0  0  0  0  0  1  0  0
  -32.9981  -30.2328   19.1251 F   0  0  0  0  0  0  0  0  0  0  0  0
  -31.0194  -26.7358   21.6273 F   0  0  0  0  0  0  0  0  0  0  0  0
  1  2  1  0  0  0  0
  1  5  2  0  0  0  0
  2  6  2  0  0  0  0
  3  8  2  0  0  0  0
  3 16  1  0  0  0  0
  4  9  1  0  0  0  0
  4 16  2  0  0  0  0
  5 18  1  0  0  0  0
  6 20  1  0  0  0  0
  7 10  2  0  0  0  0
  7 19  1  0  0  0  0
  8 24  1  0  0  0  0
  9 24  2  0  0  0  0
 10 25  1  0  0  0  0
 11 12  2  0  0  0  0
 11 26  1  0  0  0  0
 12 27  1  0  0  0  0
 13 21  1  0  0  0  0
 13 25  2  0  0  0  0
 14 23  2  0  0  0  0
 14 32  1  0  0  0  0
 15 27  2  0  0  0  0
 15 28  1  0  0  0  0
 16 29  1  0  0  0  0
 17 29  1  0  0  0  0
 17 31  2  0  0  0  0
 17 33  1  0  0  0  0
 18 20  2  0  0  0  0
 18 38  1  0  0  0  0
 19 21  2  0  0  0  0
 19 39  1  0  0  0  0
 20 49  1  0  0  0  0
 21 40  1  0  0  0  0
 22 23  1  0  0  0  0
 22 30  2  0  0  0  0
 22 53  1  0  0  0  0
 23 72  1  0  0  0  0
 24 82  1  0  0  0  0
 25 83  1  0  0  0  0
 26 28  2  0  0  0  0
 26 82  1  0  0  0  0
 27 84  1  0  0  0  0
 28 85  1  0  0  0  0
 29 65  2  0  0  0  0
 30 50  1  0  0  0  0
 30 67  1  0  0  0  0
 31 66  1  0  0  0  0
 31 70  1  0  0  0  0
 32 67  2  0  0  0  0
 32 83  1  0  0  0  0
 33 71  1  0  0  0  0
 33 77  2  0  0  0  0
 34 51  1  0  0  0  0
 34 73  1  0  0  0  0
 34 78  2  0  0  0  0
 35 62  1  0  0  0  0
 35 68  1  0  0  0  0
 35 79  2  0  0  0  0
 36 63  1  0  0  0  0
 36 74  1  0  0  0  0
 36 80  2  0  0  0  0
 37 69  1  0  0  0  0
 37 75  1  0  0  0  0
 37 81  2  0  0  0  0
 38 41  1  0  0  0  0
 39 51  1  0  0  0  0
 40 68  1  0  0  0  0
 41 43  1  0  0  0  0
 42 46  1  0  0  0  0
 42 47  1  0  0  0  0
 43 49  1  0  0  0  0
 44 45  1  0  0  0  0
 44 50  1  0  0  0  0
 45 50  1  0  0  0  0
 46 52  1  0  0  0  0
 47 69  1  0  0  0  0
 48 52  1  0  0  0  0
 48 69  1  0  0  0  0
 49 73  1  0  0  0  0
 51 68  1  0  0  0  0
 52 66  1  0  0  0  0
 54 63  1  0  0  0  0
 55 64  1  0  0  0  0
 56 64  1  0  0  0  0
 57 64  1  0  0  0  0
 58 76  1  0  0  0  0
 59 60  1  0  0  0  0
 59 61  1  0  0  0  0
 60 72  1  0  0  0  0
 61 75  1  0  0  0  0
 62 64  1  0  0  0  0
 62 74  1  0  0  0  0
 63 76  1  0  0  0  0
 65 66  1  0  0  0  0
M  CHG  2  67   1  76   1
M  ISO  4  32 101  37 100  75 100  83 101
M  END
> <Batch ID>
0140

> <Smiles>
CNC(C)C(=O)NC(C(=O)N1Cc2cc([101O:1][101c:1]3cc(NCCC[100NH:0][100C:0](=O)N4CCCC(n5nc(-c6ccc(Oc7ccc(F)cc7F)cc6)c(C(N)=O)c5N)C4)c(C)c(C4CC4)n3)ccc2CC1C(=O)NC1CCCc2ccccc21)C(C)(C)C

> <Shape>
0.227

> <Color>
0.078

> <Negative vol penalty>
0.000

$$$$

  -OEChem-04052321133D

 86 95  0     1  0  0  0  0  0999 V2000
  -24.6766  -35.1282   26.5349 C   0  0  0  0  0  0  0  0  0  0  0  0
  -24.8716  -33.8032   26.9114 C   0  0  0  0  0  0  0  0  0  0  0  0
  -23.1426   -9.7962   19.8618 C   0  0  0  0  0  0  0  0  0  0  0  0
  -23.9269   -9.7272   22.1459 C   0  0  0  0  0  0  0  0  0  0  0  0
  -24.1098  -35.4234   25.2958 C   0  0  0  0  0  0  0  0  0  0  0  0
  -24.4989  -32.7725   26.0492 C   0  0  0  0  0  0  0  0  0  0  0  0
  -27.3125  -27.3815   25.3233 C   0  0  0  0  0  0  0  0  0  0  0  0
  -22.4503   -8.6022   20.0634 C   0  0  0  0  0  0  0  0  0  0  0  0
  -23.2345   -8.5332   22.3475 C   0  0  0  0  0  0  0  0  0  0  0  0
  -27.0559  -26.1124   25.8402 C   0  0  0  0  0  0  0  0  0  0  0  0
  -20.0493   -7.5724   22.9408 C   0  0  0  0  0  0  0  0  0  0  0  0
  -19.3078   -7.4455   24.1153 C   0  0  0  0  0  0  0  0  0  0  0  0
  -25.8459  -25.5456   23.8318 C   0  0  0  0  0  0  0  0  0  0  0  0
  -25.2754  -21.8800   24.7253 C   0  0  0  0  0  0  0  0  0  0  0  0
  -20.6370   -5.5296   24.7476 C   0  0  0  0  0  0  0  0  0  0  0  0
  -23.8809  -10.3587   20.9030 C   0  0  0  0  0  0  0  0  0  0  0  0
  -24.1158  -12.8989   20.9000 C   0  0  0  0  0  0  0  0  0  0  0  0
  -23.7389  -34.3960   24.4140 C   0  0  0  0  0  0  0  0  0  0  0  0
  -26.8276  -27.7466   24.0591 C   0  0  0  0  0  0  0  0  0  0  0  0
  -23.9254  -33.0542   24.7976 C   0  0  0  0  0  0  0  0  0  0  0  0
  -26.0999  -26.8191   23.3000 C   0  0  0  0  0  0  0  0  0  0  0  0
  -26.6200  -20.7477   23.0838 C   0  0  0  0  0  0  0  0  0  0  0  0
  -25.4750  -20.8013   23.8708 C   0  0  0  0  0  0  0  0  0  0  0  0
  -22.4962   -7.9707   21.3063 C   0  0  0  0  0  0  0  0  0  0  0  0
  -26.3200  -25.1952   25.0957 C   0  0  0  0  0  0  0  0  0  0  0  0
  -21.0847   -6.6779   22.6696 C   0  0  0  0  0  0  0  0  0  0  0  0
  -19.6016   -6.4241   25.0187 C   0  0  0  0  0  0  0  0  0  0  0  0
  -21.3786   -5.6565   23.5730 C   0  0  0  0  0  0  0  0  0  0  0  0
  -24.5968  -11.5918   20.6952 C   0  0  0  0  0  0  0  0  0  0  0  0
  -27.5275  -21.7896   23.1873 C   0  0  0  0  0  0  0  0  0  0  0  0
  -26.2431  -22.8713   24.7553 C   0  0  0  0  0  0  0  0  0  1  0  0
  -25.1716  -13.7100   20.5628 C   0  0  0  0  0  0  0  0  0  0  0  0
  -22.8296  -13.3403   21.3545 C   0  0  0  0  0  0  0  0  0  0  0  0
  -24.8226  -29.9646   22.9804 C   0  0  0  0  0  0  0  0  0  0  0  0
  -25.7776  -28.8624   20.0829 C   0  0  0  0  0  0  0  0  0  0  0  0
  -27.0790  -26.2994   18.2434 C   0  0  0  0  0  0  0  0  0  0  0  0
  -30.6098  -14.9495   20.7495 C   0  0  0  0  0  0  0  0  0  0  0  0
  -23.0864  -34.7634   23.1048 C   0  0  0  0  0  0  0  0  0  0  0  0
  -27.1359  -29.1103   23.5045 C   0  0  0  0  0  0  0  0  0  0  0  0
  -25.5744  -27.1547   21.9290 C   0  0  0  0  0  0  0  0  0  0  0  0
  -23.0639  -33.6201   22.0935 C   0  0  0  0  0  0  0  0  0  0  0  0
  -29.5463  -12.6342   18.2626 C   0  0  0  0  0  0  0  0  0  0  0  0
  -26.9955  -20.0641   20.6919 C   0  0  0  0  0  0  0  0  0  0  0  0
  -22.5988  -32.3284   22.7583 C   0  0  0  0  0  0  0  0  0  0  0  0
  -28.4270  -19.7330   20.2823 C   0  0  0  0  0  0  0  0  0  0  0  0
  -28.1272  -12.2601   18.6941 C   0  0  0  0  0  0  0  0  0  0  0  0
  -28.1803  -18.8829   22.4923 C   0  0  0  0  0  0  0  0  0  0  0  0
  -30.4667  -12.8367   19.4642 C   0  0  0  0  0  0  0  0  0  0  0  0
  -28.5516  -13.4208   20.9012 C   0  0  0  0  0  0  0  0  0  0  0  0
  -26.8605  -19.6028   22.1581 C   0  0  1  0  0  0  0  0  0  0  0  0
  -23.5570  -31.9090   23.8797 C   0  0  1  0  0  0  0  0  0  0  0  0
  -26.1549  -29.5509   22.4224 C   0  0  1  0  0  0  0  0  0  0  0  0
  -28.7691  -18.5140   21.1321 C   0  0  2  0  0  0  0  0  0  0  0  0
  -27.5726  -13.2609   19.7255 C   0  0  2  0  0  0  0  0  0  0  0  0
  -24.4495  -19.7175   23.8168 C   0  0  0  0  0  0  0  0  0  0  0  0
  -28.7758  -21.7871   22.3667 C   0  0  0  0  0  0  0  0  0  0  0  0
  -27.7077  -25.6821   15.8937 C   0  0  0  0  0  0  0  0  0  0  0  0
  -22.8296  -28.4726   19.3991 C   0  0  0  0  0  0  0  0  0  0  0  0
  -23.5368  -27.0099   17.4942 C   0  0  0  0  0  0  0  0  0  0  0  0
  -24.2165  -29.4096   17.5409 C   0  0  0  0  0  0  0  0  0  0  0  0
  -29.9170  -25.9031   18.9834 C   0  0  0  0  0  0  0  0  0  0  0  0
  -30.2587  -18.2215   21.1837 C   0  0  0  0  0  0  0  0  0  0  0  0
  -30.5996  -17.0403   22.0865 C   0  0  0  0  0  0  0  0  0  0  0  0
  -25.3040  -27.7819   19.1410 C   0  0  1  0  0  0  0  0  0  0  0  0
  -28.1928  -26.2635   17.2125 C   0  0  2  0  0  0  0  0  0  0  0  0
  -23.9798  -28.1625   18.4204 C   0  0  0  0  0  0  0  0  0  0  0  0
  -25.8598  -11.5692   20.2613 N   0  0  0  0  0  0  0  0  0  0  0  0
  -27.3680  -22.8537   24.0057 N   0  0  0  0  0  0  0  0  0  0  0  0
  -26.1814  -12.8722   20.1907 N   0  0  0  0  0  0  0  0  0  0  0  0
  -25.8966  -28.5029   21.4329 N   0  0  0  0  0  0  0  0  0  0  0  0
  -29.8836  -13.7982   20.4030 N   0  0  0  0  0  0  0  0  0  0  0  0
  -25.3255  -15.0512   20.5513 N   0  0  0  0  0  0  0  0  0  0  0  0
  -21.8603  -12.3744   21.6574 N   0  0  0  0  0  0  0  0  0  0  0  0
  -24.7476  -31.3005   23.3258 N   0  0  0  0  0  0  0  0  0  0  0  0
  -26.4180  -27.5094   18.2392 N   0  0  0  0  0  0  0  0  0  0  0  0
  -29.9818  -15.8116   21.6401 N   0  0  0  0  0  0  0  0  0  0  0  0
  -29.3271  -25.4313   17.7042 N   0  3  0  0  0  0  0  0  0  0  0  0
  -22.5429  -14.5558   21.4724 O   0  0  0  0  0  0  0  0  0  0  0  0
  -23.9283  -29.1337   23.0882 O   0  0  0  0  0  0  0  0  0  0  0  0
  -26.0393  -29.9820   19.6362 O   0  0  0  0  0  0  0  0  0  0  0  0
  -26.8188  -25.3476   18.9762 O   0  0  0  0  0  0  0  0  0  0  0  0
  -31.7324  -15.1939   20.2944 O   0  0  0  0  0  0  0  0  0  0  0  0
  -21.8206   -6.8057   21.5035 O   0  0  0  0  0  0  0  0  0  0  0  0
  -26.0675  -23.9560   25.5982 O   0  0  0  0  0  0  0  0  0  1  0  0
  -18.8903   -6.3033   26.1473 F   0  0  0  0  0  0  0  0  0  0  0  0
  -22.3728   -4.7949   23.3185 F   0  0  0  0  0  0  0  0  0  0  0  0
  1  2  1  0  0  0  0
  1  5  2  0  0  0  0
  2  6  2  0  0  0  0
  3  8  2  0  0  0  0
  3 16  1  0  0  0  0
  4  9  1  0  0  0  0
  4 16  2  0  0  0  0
  5 18  1  0  0  0  0
  6 20  1  0  0  0  0
  7 10  2  0  0  0  0
  7 19  1  0  0  0  0
  8 24  1  0  0  0  0
  9 24  2  0  0  0  0
 10 25  1  0  0  0  0
 11 12  2  0  0  0  0
 11 26  1  0  0  0  0
 12 27  1  0  0  0  0
 13 21  1  0  0  0  0
 13 25  2  0  0  0  0
 14 23  2  0  0  0  0
 14 31  1  0  0  0  0
 15 27  2  0  0  0  0
 15 28  1  0  0  0  0
 16 29  1  0  0  0  0
 17 29  1  0  0  0  0
 17 32  2  0  0  0  0
 17 33  1  0  0  0  0
 18 20  2  0  0  0  0
 18 38  1  0  0  0  0
 19 21  2  0  0  0  0
 19 39  1  0  0  0  0
 20 51  1  0  0  0  0
 21 40  1  0  0  0  0
 22 23  1  0  0  0  0
 22 30  2  0  0  0  0
 22 50  1  0  0  0  0
 23 55  1  0  0  0  0
 24 83  1  0  0  0  0
 25 84  1  0  0  0  0
 26 28  2  0  0  0  0
 26 83  1  0  0  0  0
 27 85  1  0  0  0  0
 28 86  1  0  0  0  0
 29 67  2  0  0  0  0
 30 56  1  0  0  0  0
 30 68  1  0  0  0  0
 31 68  2  0  0  0  0
 31 84  1  0  0  0  0
 32 69  1  0  0  0  0
 32 72  1  0  0  0  0
 33 73  1  0  0  0  0
 33 78  2  0  0  0  0
 34 52  1  0  0  0  0
 34 74  1  0  0  0  0
 34 79  2  0  0  0  0
 35 64  1  0  0  0  0
 35 70  1  0  0  0  0
 35 80  2  0  0  0  0
 36 65  1  0  0  0  0
 36 75  1  0  0  0  0
 36 81  2  0  0  0  0
 37 71  1  0  0  0  0
 37 76  1  0  0  0  0
 37 82  2  0  0  0  0
 38 41  1  0  0  0  0
 39 52  1  0  0  0  0
 40 70  1  0  0  0  0
 41 44  1  0  0  0  0
 42 46  1  0  0  0  0
 42 48  1  0  0  0  0
 43 45  1  0  0  0  0
 43 50  1  0  0  0  0
 44 51  1  0  0  0  0
 45 53  1  0  0  0  0
 46 54  1  0  0  0  0
 47 50  1  0  0  0  0
 47 53  1  0  0  0  0
 48 71  1  0  0  0  0
 49 54  1  0  0  0  0
 49 71  1  0  0  0  0
 51 74  1  0  0  0  0
 52 70  1  0  0  0  0
 53 62  1  0  0  0  0
 54 69  1  0  0  0  0
 57 65  1  0  0  0  0
 58 66  1  0  0  0  0
 59 66  1  0  0  0  0
 60 66  1  0  0  0  0
 61 77  1  0  0  0  0
 62 63  1  0  0  0  0
 63 76  1  0  0  0  0
 64 66  1  0  0  0  0
 64 75  1  0  0  0  0
 65 77  1  0  0  0  0
 67 69  1  0  0  0  0
M  CHG  1  77   1
M  ISO  4  31 101  37 100  76 100  84 101
M  END
> <Batch ID>
0140

> <Smiles>
CNC(C)C(=O)NC(C(=O)N1Cc2cc([101O:1][101c:1]3cc(C)c(C4CCC(CC[100NH:0][100C:0](=O)N5CCCC(n6nc(-c7ccc(Oc8ccc(F)cc8F)cc7)c(C(N)=O)c6N)C5)C4)c(C)n3)ccc2CC1C(=O)NC1CCCc2ccccc21)C(C)(C)C

> <Shape>
0.302

> <Color>
0.199

> <Negative vol penalty>
0.000

$$$$

  -OEChem-04052321133D

 93104  0     1  0  0  0  0  0999 V2000
  -28.9919  -32.6777   23.3262 C   0  0  0  0  0  0  0  0  0  0  0  0
  -28.7098  -31.4884   22.6618 C   0  0  0  0  0  0  0  0  0  0  0  0
  -26.3032  -13.7835   19.6803 C   0  0  0  0  0  0  0  0  0  0  0  0
  -26.6114  -12.6691   21.8017 C   0  0  0  0  0  0  0  0  0  0  0  0
  -28.1086  -33.1632   24.2896 C   0  0  0  0  0  0  0  0  0  0  0  0
  -27.5446  -30.7833   22.9612 C   0  0  0  0  0  0  0  0  0  0  0  0
  -25.1295  -29.1707   18.8125 C   0  0  0  0  0  0  0  0  0  0  0  0
  -24.9972  -13.2981   19.6151 C   0  0  0  0  0  0  0  0  0  0  0  0
  -25.3054  -12.1838   21.7365 C   0  0  0  0  0  0  0  0  0  0  0  0
  -25.6415  -28.0405   18.1766 C   0  0  0  0  0  0  0  0  0  0  0  0
  -23.6488   -9.6936   20.1599 C   0  0  0  0  0  0  0  0  0  0  0  0
  -23.4394   -8.3520   20.4788 C   0  0  0  0  0  0  0  0  0  0  0  0
  -23.9512  -26.6853   19.2376 C   0  0  0  0  0  0  0  0  0  0  0  0
  -21.9629   -9.0094   22.2747 C   0  0  0  0  0  0  0  0  0  0  0  0
  -27.1104  -13.4689   20.7736 C   0  0  0  0  0  0  0  0  0  0  0  0
  -29.5022  -13.7303   19.9259 C   0  0  0  0  0  0  0  0  0  0  0  0
  -26.9273  -32.4687   24.5940 C   0  0  0  0  0  0  0  0  0  0  0  0
  -24.0295  -29.0648   19.6757 C   0  0  0  0  0  0  0  0  0  0  0  0
  -26.6453  -31.2593   23.9305 C   0  0  0  0  0  0  0  0  0  0  0  0
  -23.4256  -27.8161   19.8812 C   0  0  0  0  0  0  0  0  0  0  0  0
  -24.4982  -12.4983   20.6432 C   0  0  0  0  0  0  0  0  0  0  0  0
  -25.0541  -26.7971   18.3913 C   0  0  0  0  0  0  0  0  0  0  0  0
  -23.0154  -10.6932   20.8984 C   0  0  0  0  0  0  0  0  0  0  0  0
  -22.5964   -8.0099   21.5362 C   0  0  0  0  0  0  0  0  0  0  0  0
  -22.1725  -10.3511   21.9558 C   0  0  0  0  0  0  0  0  0  0  0  0
  -28.4598  -13.9696   20.8413 C   0  0  0  0  0  0  0  0  0  0  0  0
  -30.5729  -14.4230   20.4360 C   0  0  0  0  0  0  0  0  0  0  0  0
  -29.5025  -12.9517   18.7220 C   0  0  0  0  0  0  0  0  0  0  0  0
  -23.5389  -29.6335   22.7643 C   0  0  0  0  0  0  0  0  0  0  0  0
  -20.4570  -28.9739   21.9967 C   0  0  0  0  0  0  0  0  0  0  0  0
  -25.1474  -20.3531   20.6562 C   0  0  0  0  0  0  0  0  0  0  0  0
  -18.2638  -27.4243   19.8907 C   0  0  0  0  0  0  0  0  0  0  0  0
  -30.7379  -19.2932   23.9750 C   0  0  0  0  0  0  0  0  0  0  0  0
  -26.0264  -33.0083   25.6766 C   0  0  0  0  0  0  0  0  0  0  0  0
  -23.4726  -30.2977   20.3332 C   0  0  0  0  0  0  0  0  0  0  0  0
  -22.2301  -27.6521   20.7826 C   0  0  0  0  0  0  0  0  0  0  0  0
  -24.6286  -32.3949   25.6677 C   0  0  0  0  0  0  0  0  0  0  0  0
  -31.9240  -15.8251   24.8820 C   0  0  0  0  0  0  0  0  0  0  0  0
  -24.7122  -30.8779   25.5315 C   0  0  0  0  0  0  0  0  0  0  0  0
  -23.6952  -17.1206   22.2724 C   0  0  0  0  0  0  0  0  0  0  0  0
  -22.3829  -16.7499   21.6397 C   0  0  0  0  0  0  0  0  0  0  0  0
  -21.3212  -18.5163   18.5913 C   0  0  0  0  0  0  0  0  0  0  0  0
  -22.0820  -19.7508   18.1953 C   0  0  0  0  0  0  0  0  0  0  0  0
  -25.9731  -21.9892   18.3014 C   0  0  0  0  0  0  0  0  0  0  0  0
  -26.0966  -23.1793   20.5295 C   0  0  0  0  0  0  0  0  0  0  0  0
  -31.6722  -15.0592   23.5820 C   0  0  0  0  0  0  0  0  0  0  0  0
  -25.9935  -23.3361   17.5851 C   0  0  0  0  0  0  0  0  0  0  0  0
  -26.1161  -24.5230   19.8070 C   0  0  0  0  0  0  0  0  0  0  0  0
  -28.8697  -21.1618   21.3975 C   0  0  0  0  0  0  0  0  0  0  0  0
  -27.3606  -19.4034   22.3967 C   0  0  0  0  0  0  0  0  0  0  0  0
  -32.0480  -17.3236   24.6500 C   0  0  0  0  0  0  0  0  0  0  0  0
  -29.7219  -21.1191   22.6635 C   0  0  0  0  0  0  0  0  0  0  0  0
  -28.2367  -19.4106   23.6444 C   0  0  0  0  0  0  0  0  0  0  0  0
  -30.0448  -16.9753   23.1937 C   0  0  0  0  0  0  0  0  0  0  0  0
  -25.3794  -30.4786   24.2098 C   0  0  1  0  0  0  0  0  0  0  0  0
  -22.6686  -29.9916   21.5930 C   0  0  1  0  0  0  0  0  0  0  0  0
  -26.6856  -22.0604   19.6592 C   0  0  0  0  0  0  0  0  0  0  0  0
  -23.5145  -17.2502   20.7854 C   0  0  0  0  0  0  0  0  0  0  0  0
  -22.8155  -18.5620   18.7515 C   0  0  0  0  0  0  0  0  0  0  0  0
  -27.4151  -20.7576   21.6751 C   0  0  0  0  0  0  0  0  0  0  0  0
  -30.9146  -15.8934   22.5309 C   0  0  2  0  0  0  0  0  0  0  0  0
  -25.4103  -24.4466   18.4548 C   0  0  0  0  0  0  0  0  0  1  0  0
  -15.8097  -27.0331   19.5421 C   0  0  0  0  0  0  0  0  0  0  0  0
  -20.4674  -26.9165   24.2499 C   0  0  0  0  0  0  0  0  0  0  0  0
  -18.3934  -25.9239   23.2591 C   0  0  0  0  0  0  0  0  0  0  0  0
  -18.3748  -28.2764   24.0886 C   0  0  0  0  0  0  0  0  0  0  0  0
  -18.3026  -28.7823   17.2614 C   0  0  0  0  0  0  0  0  0  0  0  0
  -19.6100  -27.7251   21.9527 C   0  0  1  0  0  0  0  0  0  0  0  0
  -26.6055  -20.7167   20.3814 C   0  0  1  0  0  0  0  0  0  0  0  0
  -17.0003  -27.9191   19.2102 C   0  0  2  0  0  0  0  0  0  0  0  0
  -23.4363  -18.6258   20.1394 C   0  0  0  0  0  0  0  0  0  0  0  0
  -19.2351  -27.2129   23.3720 C   0  0  0  0  0  0  0  0  0  0  0  0
  -28.8345  -14.7529   21.8562 N   0  0  0  0  0  0  0  0  0  0  0  0
  -30.1243  -15.0118   21.5816 N   0  0  0  0  0  0  0  0  0  0  0  0
  -21.7263  -28.8862   21.4075 N   0  0  0  0  0  0  0  0  0  0  0  0
  -30.8601  -17.8933   24.0088 N   0  0  0  0  0  0  0  0  0  0  0  0
  -29.6095  -19.8242   23.3333 N   0  0  0  0  0  0  0  0  0  0  0  0
  -31.8449  -14.5797   20.0120 N   0  0  0  0  0  0  0  0  0  0  0  0
  -29.1658  -13.5839   17.5173 N   0  0  0  0  0  0  0  0  0  0  0  0
  -24.4471  -30.6155   23.1114 N   0  0  0  0  0  0  0  0  0  0  0  0
  -18.4625  -28.0397   21.1085 N   0  0  0  0  0  0  0  0  0  0  0  0
  -24.7683  -19.1740   20.0311 N   0  0  0  0  0  0  0  0  0  0  0  0
  -17.1794  -27.9308   17.7307 N   0  3  0  0  0  0  0  0  0  0  0  0
  -29.7769  -11.7277   18.7172 O   0  0  0  0  0  0  0  0  0  0  0  0
  -23.3960  -28.5474   23.3135 O   0  0  0  0  0  0  0  0  0  0  0  0
  -20.0062  -29.9920   22.5278 O   0  0  0  0  0  0  0  0  0  0  0  0
  -24.4092  -21.0448   21.3544 O   0  0  0  0  0  0  0  0  0  0  0  0
  -18.9989  -26.5740   19.3936 O   0  0  0  0  0  0  0  0  0  0  0  0
  -31.6035  -20.0269   24.4699 O   0  0  0  0  0  0  0  0  0  0  0  0
  -23.2238  -12.0247   20.5800 O   0  0  0  0  0  0  0  0  0  0  0  0
  -25.5555  -25.6851   17.7684 O   0  0  0  0  0  0  0  0  0  1  0  0
  -22.3941   -6.7214   21.8414 F   0  0  0  0  0  0  0  0  0  0  0  0
  -21.5602  -11.3069   22.6681 F   0  0  0  0  0  0  0  0  0  0  0  0
  1  2  1  0  0  0  0
  1  5  2  0  0  0  0
  2  6  2  0  0  0  0
  3  8  2  0  0  0  0
  3 15  1  0  0  0  0
  4  9  1  0  0  0  0
  4 15  2  0  0  0  0
  5 17  1  0  0  0  0
  6 19  1  0  0  0  0
  7 10  2  0  0  0  0
  7 18  1  0  0  0  0
  8 21  1  0  0  0  0
  9 21  2  0  0  0  0
 10 22  1  0  0  0  0
 11 12  2  0  0  0  0
 11 23  1  0  0  0  0
 12 24  1  0  0  0  0
 13 20  1  0  0  0  0
 13 22  2  0  0  0  0
 14 24  2  0  0  0  0
 14 25  1  0  0  0  0
 15 26  1  0  0  0  0
 16 26  1  0  0  0  0
 16 27  2  0  0  0  0
 16 28  1  0  0  0  0
 17 19  2  0  0  0  0
 17 34  1  0  0  0  0
 18 20  2  0  0  0  0
 18 35  1  0  0  0  0
 19 55  1  0  0  0  0
 20 36  1  0  0  0  0
 21 90  1  0  0  0  0
 22 91  1  0  0  0  0
 23 25  2  0  0  0  0
 23 90  1  0  0  0  0
 24 92  1  0  0  0  0
 25 93  1  0  0  0  0
 26 73  2  0  0  0  0
 27 74  1  0  0  0  0
 27 78  1  0  0  0  0
 28 79  1  0  0  0  0
 28 84  2  0  0  0  0
 29 56  1  0  0  0  0
 29 80  1  0  0  0  0
 29 85  2  0  0  0  0
 30 68  1  0  0  0  0
 30 75  1  0  0  0  0
 30 86  2  0  0  0  0
 31 69  1  0  0  0  0
 31 82  1  0  0  0  0
 31 87  2  0  0  0  0
 32 70  1  0  0  0  0
 32 81  1  0  0  0  0
 32 88  2  0  0  0  0
 33 76  1  0  0  0  0
 33 77  1  0  0  0  0
 33 89  2  0  0  0  0
 34 37  1  0  0  0  0
 35 56  1  0  0  0  0
 36 75  1  0  0  0  0
 37 39  1  0  0  0  0
 38 46  1  0  0  0  0
 38 51  1  0  0  0  0
 39 55  1  0  0  0  0
 40 41  1  0  0  0  0
 40 58  1  0  0  0  0
 41 58  1  0  0  0  0
 42 43  1  0  0  0  0
 42 59  1  0  0  0  0
 43 59  1  0  0  0  0
 44 47  1  0  0  0  0
 44 57  1  0  0  0  0
 45 48  1  0  0  0  0
 45 57  1  0  0  0  0
 46 61  1  0  0  0  0
 47 62  1  0  0  0  0
 48 62  1  0  0  0  0
 49 52  1  0  0  0  0
 49 60  1  0  0  0  0
 50 53  1  0  0  0  0
 50 60  1  0  0  0  0
 51 76  1  0  0  0  0
 52 77  1  0  0  0  0
 53 77  1  0  0  0  0
 54 61  1  0  0  0  0
 54 76  1  0  0  0  0
 55 80  1  0  0  0  0
 56 75  1  0  0  0  0
 57 69  1  0  0  0  0
 58 71  1  0  0  0  0
 59 71  1  0  0  0  0
 60 69  1  0  0  0  0
 61 74  1  0  0  0  0
 62 91  1  0  0  0  0
 63 70  1  0  0  0  0
 64 72  1  0  0  0  0
 65 72  1  0  0  0  0
 66 72  1  0  0  0  0
 67 83  1  0  0  0  0
 68 72  1  0  0  0  0
 68 81  1  0  0  0  0
 70 83  1  0  0  0  0
 71 82  1  0  0  0  0
 73 74  1  0  0  0  0
M  CHG  1  83   1
M  ISO  4  33 100  62 101  77 100  91 101
M  END
> <Batch ID>
0140

> <Smiles>
CNC(C)C(=O)NC(C(=O)N1Cc2cc([101O:1][101CH:1]3CCC(C(C(=O)NC(C4CC4)C4CC4)C4CC[100N:0]([100C:0](=O)N5CCCC(n6nc(-c7ccc(Oc8ccc(F)cc8F)cc7)c(C(N)=O)c6N)C5)CC4)CC3)ccc2CC1C(=O)NC1CCCc2ccccc21)C(C)(C)C

> <Shape>
0.287

> <Color>
0.066

> <Negative vol penalty>
0.000

$$$$

  -OEChem-04052321133D

 82 90  0     1  0  0  0  0  0999 V2000
  -29.4462  -35.6233   18.8205 C   0  0  0  0  0  0  0  0  0  0  0  0
  -29.7624  -34.3613   18.3277 C   0  0  0  0  0  0  0  0  0  0  0  0
  -24.1475   -9.6417   21.7409 C   0  0  0  0  0  0  0  0  0  0  0  0
  -24.5631  -10.9401   23.7356 C   0  0  0  0  0  0  0  0  0  0  0  0
  -28.8573  -35.7520   20.0777 C   0  0  0  0  0  0  0  0  0  0  0  0
  -29.4908  -33.2273   19.0923 C   0  0  0  0  0  0  0  0  0  0  0  0
  -27.5989  -26.3523   18.4050 C   0  0  0  0  0  0  0  0  0  0  0  0
  -29.3045  -21.4189   22.8829 C   0  0  0  0  0  0  0  0  0  0  0  0
  -23.7390   -8.5644   22.5272 C   0  0  0  0  0  0  0  0  0  0  0  0
  -24.1546   -9.8628   24.5219 C   0  0  0  0  0  0  0  0  0  0  0  0
  -27.9989  -25.0795   18.8096 C   0  0  0  0  0  0  0  0  0  0  0  0
  -29.8106  -20.1421   23.1263 C   0  0  0  0  0  0  0  0  0  0  0  0
  -20.9777   -7.6411   24.2464 C   0  0  0  0  0  0  0  0  0  0  0  0
  -19.8151   -6.9683   23.8706 C   0  0  0  0  0  0  0  0  0  0  0  0
  -26.9069  -25.4180   20.9338 C   0  0  0  0  0  0  0  0  0  0  0  0
  -27.6082  -20.4728   21.4461 C   0  0  0  0  0  0  0  0  0  0  0  0
  -21.0779   -4.9233   23.6248 C   0  0  0  0  0  0  0  0  0  0  0  0
  -24.5596  -10.8295   22.3451 C   0  0  0  0  0  0  0  0  0  0  0  0
  -24.1763  -12.9794   21.0265 C   0  0  0  0  0  0  0  0  0  0  0  0
  -28.5695  -34.6183   20.8540 C   0  0  0  0  0  0  0  0  0  0  0  0
  -26.8579  -27.1732   19.2674 C   0  0  0  0  0  0  0  0  0  0  0  0
  -28.8987  -33.3410   20.3616 C   0  0  0  0  0  0  0  0  0  0  0  0
  -26.4964  -26.6999   20.5368 C   0  0  0  0  0  0  0  0  0  0  0  0
  -28.2033  -21.5842   22.0429 C   0  0  0  0  0  0  0  0  0  0  0  0
  -28.1143  -19.1959   21.6894 C   0  0  0  0  0  0  0  0  0  0  0  0
  -23.7425   -8.6750   23.9177 C   0  0  0  0  0  0  0  0  0  0  0  0
  -27.6554  -24.6133   20.0752 C   0  0  0  0  0  0  0  0  0  0  0  0
  -29.2155  -19.0306   22.5295 C   0  0  0  0  0  0  0  0  0  0  0  0
  -22.1905   -6.9550   24.3113 C   0  0  0  0  0  0  0  0  0  0  0  0
  -19.8651   -5.6094   23.5599 C   0  0  0  0  0  0  0  0  0  0  0  0
  -22.2406   -5.5961   24.0006 C   0  0  0  0  0  0  0  0  0  0  0  0
  -24.9823  -11.9424   21.5334 C   0  0  0  0  0  0  0  0  0  0  0  0
  -25.0459  -13.7789   20.3259 C   0  0  0  0  0  0  0  0  0  0  0  0
  -22.7675  -13.2002   21.1758 C   0  0  0  0  0  0  0  0  0  0  0  0
  -27.3370  -30.0033   20.6329 C   0  0  0  0  0  0  0  0  0  0  0  0
  -24.2666  -29.6177   21.6056 C   0  0  0  0  0  0  0  0  0  0  0  0
  -21.6951  -27.4858   22.3053 C   0  0  0  0  0  0  0  0  0  0  0  0
  -30.9459  -14.7173   20.7266 C   0  0  0  0  0  0  0  0  0  0  0  0
  -27.9756  -34.8104   22.2270 C   0  0  0  0  0  0  0  0  0  0  0  0
  -26.4111  -28.5333   18.8059 C   0  0  0  0  0  0  0  0  0  0  0  0
  -25.6847  -27.5340   21.4927 C   0  0  0  0  0  0  0  0  0  0  0  0
  -27.3773  -33.5353   22.8157 C   0  0  0  0  0  0  0  0  0  0  0  0
  -29.1458  -13.5967   17.8665 C   0  0  0  0  0  0  0  0  0  0  0  0
  -28.3368  -32.3632   22.6362 C   0  0  0  0  0  0  0  0  0  0  0  0
  -27.8019  -13.1393   18.4362 C   0  0  0  0  0  0  0  0  0  0  0  0
  -30.2988  -13.2794   18.8161 C   0  0  0  0  0  0  0  0  0  0  0  0
  -28.7840  -13.3311   20.7594 C   0  0  0  0  0  0  0  0  0  0  0  0
  -28.5968  -32.0855   21.1507 C   0  0  1  0  0  0  0  0  0  0  0  0
  -26.0993  -29.4827   19.9586 C   0  0  1  0  0  0  0  0  0  0  0  0
  -27.5841  -13.6799   19.8622 C   0  0  2  0  0  0  0  0  0  0  0  0
  -27.4642  -18.0170   21.0433 C   0  0  0  0  0  0  0  0  0  0  0  0
  -19.3205  -27.4628   23.1164 C   0  0  0  0  0  0  0  0  0  0  0  0
  -25.2372  -30.1227   24.4539 C   0  0  0  0  0  0  0  0  0  0  0  0
  -23.0779  -29.1660   25.2850 C   0  0  0  0  0  0  0  0  0  0  0  0
  -23.0680  -31.2271   23.8798 C   0  0  0  0  0  0  0  0  0  0  0  0
  -20.7264  -26.2592   19.7922 C   0  0  0  0  0  0  0  0  0  0  0  0
  -27.6584  -22.9578   21.7826 C   0  0  0  0  0  0  0  0  0  1  0  0
  -31.4511  -16.1207   22.7102 C   0  0  0  0  0  0  0  0  0  0  0  0
  -31.0818  -17.5617   22.4064 C   0  0  0  0  0  0  0  0  0  0  0  0
  -23.5958  -28.9988   22.8081 C   0  0  1  0  0  0  0  0  0  0  0  0
  -20.2323  -27.5048   21.9001 C   0  0  2  0  0  0  0  0  0  0  0  0
  -23.7617  -29.8634   24.0896 C   0  0  0  0  0  0  0  0  0  0  0  0
  -26.2653  -12.0690   21.1843 N   0  0  0  0  0  0  0  0  0  0  0  0
  -26.2721  -13.1948   20.4505 N   0  0  0  0  0  0  0  0  0  0  0  0
  -25.2771  -28.8593   20.9977 N   0  0  0  0  0  0  0  0  0  0  0  0
  -30.0306  -13.8210   20.1505 N   0  0  0  0  0  0  0  0  0  0  0  0
  -24.8737  -14.9176   19.6214 N   0  0  0  0  0  0  0  0  0  0  0  0
  -22.0232  -12.2813   21.9282 N   0  0  0  0  0  0  0  0  0  0  0  0
  -27.4790  -31.3762   20.5660 N   0  0  0  0  0  0  0  0  0  0  0  0
  -22.2088  -28.7599   22.4239 N   0  0  0  0  0  0  0  0  0  0  0  0
  -30.6126  -15.1879   21.9908 N   0  0  0  0  0  0  0  0  0  0  0  0
  -19.9187  -26.3310   21.0369 N   0  3  0  0  0  0  0  0  0  0  0  0
  -22.1831  -14.1743   20.6437 O   0  0  0  0  0  0  0  0  0  0  0  0
  -28.1055  -29.2177   21.1751 O   0  0  0  0  0  0  0  0  0  0  0  0
  -23.9023  -30.7298   21.2156 O   0  0  0  0  0  0  0  0  0  0  0  0
  -22.3187  -26.4449   22.5010 O   0  0  0  0  0  0  0  0  0  0  0  0
  -31.9807  -15.0760   20.1544 O   0  0  0  0  0  0  0  0  0  0  0  0
  -23.3438   -7.6241   24.6853 O   0  0  0  0  0  0  0  0  0  0  0  0
  -28.0452  -23.3716   20.4728 O   0  0  0  0  0  0  0  0  0  1  0  0
  -29.7239  -17.7908   22.7769 O   0  0  0  0  0  0  0  0  0  0  0  0
  -18.7483   -4.9631   23.2005 F   0  0  0  0  0  0  0  0  0  0  0  0
  -23.4025   -4.9314   24.0623 F   0  0  0  0  0  0  0  0  0  0  0  0
  1  2  1  0  0  0  0
  1  5  2  0  0  0  0
  2  6  2  0  0  0  0
  3  9  2  0  0  0  0
  3 18  1  0  0  0  0
  4 10  1  0  0  0  0
  4 18  2  0  0  0  0
  5 20  1  0  0  0  0
  6 22  1  0  0  0  0
  7 11  2  0  0  0  0
  7 21  1  0  0  0  0
  8 12  2  0  0  0  0
  8 24  1  0  0  0  0
  9 26  1  0  0  0  0
 10 26  2  0  0  0  0
 11 27  1  0  0  0  0
 12 28  1  0  0  0  0
 13 14  2  0  0  0  0
 13 29  1  0  0  0  0
 14 30  1  0  0  0  0
 15 23  1  0  0  0  0
 15 27  2  0  0  0  0
 16 24  2  0  0  0  0
 16 25  1  0  0  0  0
 17 30  2  0  0  0  0
 17 31  1  0  0  0  0
 18 32  1  0  0  0  0
 19 32  1  0  0  0  0
 19 33  2  0  0  0  0
 19 34  1  0  0  0  0
 20 22  2  0  0  0  0
 20 39  1  0  0  0  0
 21 23  2  0  0  0  0
 21 40  1  0  0  0  0
 22 48  1  0  0  0  0
 23 41  1  0  0  0  0
 24 57  1  0  0  0  0
 25 28  2  0  0  0  0
 25 51  1  0  0  0  0
 26 78  1  0  0  0  0
 27 79  1  0  0  0  0
 28 80  1  0  0  0  0
 29 31  2  0  0  0  0
 29 78  1  0  0  0  0
 30 81  1  0  0  0  0
 31 82  1  0  0  0  0
 32 63  2  0  0  0  0
 33 64  1  0  0  0  0
 33 67  1  0  0  0  0
 34 68  1  0  0  0  0
 34 73  2  0  0  0  0
 35 49  1  0  0  0  0
 35 69  1  0  0  0  0
 35 74  2  0  0  0  0
 36 60  1  0  0  0  0
 36 65  1  0  0  0  0
 36 75  2  0  0  0  0
 37 61  1  0  0  0  0
 37 70  1  0  0  0  0
 37 76  2  0  0  0  0
 38 66  1  0  0  0  0
 38 71  1  0  0  0  0
 38 77  2  0  0  0  0
 39 42  1  0  0  0  0
 40 49  1  0  0  0  0
 41 65  1  0  0  0  0
 42 44  1  0  0  0  0
 43 45  1  0  0  0  0
 43 46  1  0  0  0  0
 44 48  1  0  0  0  0
 45 50  1  0  0  0  0
 46 66  1  0  0  0  0
 47 50  1  0  0  0  0
 47 66  1  0  0  0  0
 48 69  1  0  0  0  0
 49 65  1  0  0  0  0
 50 64  1  0  0  0  0
 52 61  1  0  0  0  0
 53 62  1  0  0  0  0
 54 62  1  0  0  0  0
 55 62  1  0  0  0  0
 56 72  1  0  0  0  0
 57 79  1  0  0  0  0
 58 59  1  0  0  0  0
 58 71  1  0  0  0  0
 59 80  1  0  0  0  0
 60 62  1  0  0  0  0
 60 70  1  0  0  0  0
 61 72  1  0  0  0  0
 63 64  1  0  0  0  0
M  CHG  1  72   1
M  ISO  4  38 100  57 101  71 100  79 101
M  END
> <Batch ID>
0140

> <Smiles>
CNC(C)C(=O)NC(C(=O)N1Cc2cc([101O:1][101CH2:1]c3ccc(OCC[100NH:0][100C:0](=O)N4CCCC(n5nc(-c6ccc(Oc7ccc(F)cc7F)cc6)c(C(N)=O)c5N)C4)c(C)c3)ccc2CC1C(=O)NC1CCCc2ccccc21)C(C)(C)C

> <Shape>
0.299

> <Color>
0.139

> <Negative vol penalty>
0.000

$$$$

  -OEChem-04052321133D

 85 94  0     1  0  0  0  0  0999 V2000
  -16.6692  -29.2631   24.2914 C   0  0  0  0  0  0  0  0  0  0  0  0
  -17.5869  -28.2258   24.4227 C   0  0  0  0  0  0  0  0  0  0  0  0
  -23.1873   -9.7207   21.4761 C   0  0  0  0  0  0  0  0  0  0  0  0
  -23.6292  -10.9303   23.5203 C   0  0  0  0  0  0  0  0  0  0  0  0
  -16.9677  -30.3580   23.4814 C   0  0  0  0  0  0  0  0  0  0  0  0
  -18.8032  -28.2823   23.7432 C   0  0  0  0  0  0  0  0  0  0  0  0
  -24.2085  -26.1585   25.6871 C   0  0  0  0  0  0  0  0  0  0  0  0
  -22.4654   -8.7685   22.1956 C   0  0  0  0  0  0  0  0  0  0  0  0
  -22.9072   -9.9781   24.2398 C   0  0  0  0  0  0  0  0  0  0  0  0
  -24.9030  -24.9790   25.4224 C   0  0  0  0  0  0  0  0  0  0  0  0
  -23.1314   -6.0991   24.1590 C   0  0  0  0  0  0  0  0  0  0  0  0
  -23.3676   -4.7548   23.8718 C   0  0  0  0  0  0  0  0  0  0  0  0
  -26.1696  -26.1155   23.7127 C   0  0  0  0  0  0  0  0  0  0  0  0
  -29.7748  -20.1815   23.0909 C   0  0  0  0  0  0  0  0  0  0  0  0
  -21.0477   -4.4788   23.2561 C   0  0  0  0  0  0  0  0  0  0  0  0
  -28.3194  -18.8769   21.1869 C   0  0  0  0  0  0  0  0  0  0  0  0
  -23.7693  -10.8016   22.1385 C   0  0  0  0  0  0  0  0  0  0  0  0
  -24.0183  -12.9631   20.8067 C   0  0  0  0  0  0  0  0  0  0  0  0
  -18.1923  -30.4325   22.7993 C   0  0  0  0  0  0  0  0  0  0  0  0
  -24.4822  -27.3246   24.9579 C   0  0  0  0  0  0  0  0  0  0  0  0
  -19.1178  -29.3786   22.9222 C   0  0  0  0  0  0  0  0  0  0  0  0
  -25.4790  -27.3092   23.9718 C   0  0  0  0  0  0  0  0  0  0  0  0
  -30.4010  -19.2440   22.2771 C   0  0  0  0  0  0  0  0  0  0  0  0
  -29.6665  -18.5748   21.3045 C   0  0  0  0  0  0  0  0  0  0  0  0
  -22.3253   -8.8972   23.5774 C   0  0  0  0  0  0  0  0  0  0  0  0
  -25.8817  -24.9565   24.4331 C   0  0  0  0  0  0  0  0  0  0  0  0
  -21.8534   -6.6333   23.9949 C   0  0  0  0  0  0  0  0  0  0  0  0
  -22.3258   -3.9446   23.4203 C   0  0  0  0  0  0  0  0  0  0  0  0
  -20.8115   -5.8232   23.5434 C   0  0  0  0  0  0  0  0  0  0  0  0
  -24.5157  -11.7853   21.3959 C   0  0  0  0  0  0  0  0  0  0  0  0
  -28.4229  -20.4118   22.8932 C   0  0  0  0  0  0  0  0  0  0  0  0
  -25.1172  -13.5465   20.2249 C   0  0  0  0  0  0  0  0  0  0  0  0
  -22.6824  -13.4833   20.7871 C   0  0  0  0  0  0  0  0  0  0  0  0
  -22.8073  -29.1982   23.0116 C   0  0  0  0  0  0  0  0  0  0  0  0
  -25.4770  -31.0376   23.1189 C   0  0  0  0  0  0  0  0  0  0  0  0
  -28.8424  -31.2313   23.6513 C   0  0  0  0  0  0  0  0  0  0  0  0
  -30.4776  -15.0886   20.4070 C   0  0  0  0  0  0  0  0  0  0  0  0
  -18.4505  -31.6138   21.8978 C   0  0  0  0  0  0  0  0  0  0  0  0
  -23.7429  -28.5958   25.2739 C   0  0  0  0  0  0  0  0  0  0  0  0
  -25.8249  -28.5394   23.1746 C   0  0  0  0  0  0  0  0  0  0  0  0
  -19.9177  -31.7733   21.5080 C   0  0  0  0  0  0  0  0  0  0  0  0
  -29.7740  -11.7368   19.4337 C   0  0  0  0  0  0  0  0  0  0  0  0
  -32.2796  -17.8252   23.3411 C   0  0  0  0  0  0  0  0  0  0  0  0
  -32.4838  -19.2329   23.8068 C   0  0  0  0  0  0  0  0  0  0  0  0
  -20.5038  -30.4333   21.0750 C   0  0  0  0  0  0  0  0  0  0  0  0
  -28.3047  -11.5462   19.8144 C   0  0  0  0  0  0  0  0  0  0  0  0
  -30.5103  -12.6119   20.4457 C   0  0  0  0  0  0  0  0  0  0  0  0
  -28.4096  -13.7276   21.0907 C   0  0  0  0  0  0  0  0  0  0  0  0
  -31.8566  -18.9728   22.4628 C   0  0  0  0  0  0  0  0  0  0  0  0
  -20.4582  -29.4151   22.2207 C   0  0  1  0  0  0  0  0  0  0  0  0
  -23.7450  -29.5913   24.1179 C   0  0  1  0  0  0  0  0  0  0  0  0
  -27.6118  -12.8981   20.0701 C   0  0  2  0  0  0  0  0  0  0  0  0
  -30.1881  -17.9441   18.9188 C   0  0  0  0  0  0  0  0  0  0  0  0
  -30.7498  -32.8618   23.6284 C   0  0  0  0  0  0  0  0  0  0  0  0
  -25.4941  -30.9711   20.0685 C   0  0  0  0  0  0  0  0  0  0  0  0
  -27.8665  -31.7682   20.1338 C   0  0  0  0  0  0  0  0  0  0  0  0
  -26.0466  -33.1966   21.0665 C   0  0  0  0  0  0  0  0  0  0  0  0
  -29.4086  -30.7873   26.5221 C   0  0  0  0  0  0  0  0  0  0  0  0
  -25.8696  -22.5786   24.3990 C   0  0  0  0  0  0  0  0  0  1  0  0
  -26.3959  -21.5294   23.4389 C   0  0  0  0  0  0  0  0  0  0  0  0
  -30.2856  -17.5629   20.4038 C   0  0  2  0  0  0  0  0  0  0  0  0
  -26.7539  -31.1165   22.3174 C   0  0  1  0  0  0  0  0  0  0  0  0
  -29.6781  -32.1939   24.4757 C   0  0  2  0  0  0  0  0  0  0  0  0
  -26.5326  -31.7393   20.9101 C   0  0  0  0  0  0  0  0  0  0  0  0
  -27.6764  -19.7814   21.9589 N   0  0  0  0  0  0  0  0  0  0  0  0
  -25.8284  -11.6282   21.2057 N   0  0  0  0  0  0  0  0  0  0  0  0
  -26.1651  -12.7149   20.4903 N   0  0  0  0  0  0  0  0  0  0  0  0
  -25.0698  -29.7562   23.5163 N   0  0  0  0  0  0  0  0  0  0  0  0
  -29.8024  -13.8794   20.6415 N   0  0  0  0  0  0  0  0  0  0  0  0
  -25.2797  -14.6846   19.5172 N   0  0  0  0  0  0  0  0  0  0  0  0
  -21.6731  -12.7573   21.4340 N   0  0  0  0  0  0  0  0  0  0  0  0
  -21.5197  -29.6742   23.1697 N   0  0  0  0  0  0  0  0  0  0  0  0
  -27.7123  -31.8391   23.1466 N   0  0  0  0  0  0  0  0  0  0  0  0
  -29.7318  -16.2432   20.6101 N   0  0  0  0  0  0  0  0  0  0  0  0
  -30.3462  -31.4719   25.5952 N   0  3  0  0  0  0  0  0  0  0  0  0
  -22.3893  -14.5518   20.1989 O   0  0  0  0  0  0  0  0  0  0  0  0
  -23.2217  -28.5149   22.0826 O   0  0  0  0  0  0  0  0  0  0  0  0
  -24.8673  -32.0754   23.3888 O   0  0  0  0  0  0  0  0  0  0  0  0
  -29.1622  -30.0585   23.4699 O   0  0  0  0  0  0  0  0  0  0  0  0
  -31.6562  -15.1355   20.0384 O   0  0  0  0  0  0  0  0  0  0  0  0
  -21.6207   -7.9684   24.2798 O   0  0  0  0  0  0  0  0  0  0  0  0
  -26.5606  -23.8064   24.1723 O   0  0  0  0  0  0  0  0  0  1  0  0
  -27.7831  -21.3307   23.6828 O   0  0  0  0  0  0  0  0  0  0  0  0
  -22.5530   -2.6540   23.1430 F   0  0  0  0  0  0  0  0  0  0  0  0
  -19.5819   -6.3310   23.3827 F   0  0  0  0  0  0  0  0  0  0  0  0
  1  2  1  0  0  0  0
  1  5  2  0  0  0  0
  2  6  2  0  0  0  0
  3  8  2  0  0  0  0
  3 17  1  0  0  0  0
  4  9  1  0  0  0  0
  4 17  2  0  0  0  0
  5 19  1  0  0  0  0
  6 21  1  0  0  0  0
  7 10  2  0  0  0  0
  7 20  1  0  0  0  0
  8 25  1  0  0  0  0
  9 25  2  0  0  0  0
 10 26  1  0  0  0  0
 11 12  2  0  0  0  0
 11 27  1  0  0  0  0
 12 28  1  0  0  0  0
 13 22  1  0  0  0  0
 13 26  2  0  0  0  0
 14 23  2  0  0  0  0
 14 31  1  0  0  0  0
 15 28  2  0  0  0  0
 15 29  1  0  0  0  0
 16 24  2  0  0  0  0
 16 65  1  0  0  0  0
 17 30  1  0  0  0  0
 18 30  1  0  0  0  0
 18 32  2  0  0  0  0
 18 33  1  0  0  0  0
 19 21  2  0  0  0  0
 19 38  1  0  0  0  0
 20 22  2  0  0  0  0
 20 39  1  0  0  0  0
 21 50  1  0  0  0  0
 22 40  1  0  0  0  0
 23 24  1  0  0  0  0
 23 49  1  0  0  0  0
 24 61  1  0  0  0  0
 25 81  1  0  0  0  0
 26 82  1  0  0  0  0
 27 29  2  0  0  0  0
 27 81  1  0  0  0  0
 28 84  1  0  0  0  0
 29 85  1  0  0  0  0
 30 66  2  0  0  0  0
 31 65  2  0  0  0  0
 31 83  1  0  0  0  0
 32 67  1  0  0  0  0
 32 70  1  0  0  0  0
 33 71  1  0  0  0  0
 33 76  2  0  0  0  0
 34 51  1  0  0  0  0
 34 72  1  0  0  0  0
 34 77  2  0  0  0  0
 35 62  1  0  0  0  0
 35 68  1  0  0  0  0
 35 78  2  0  0  0  0
 36 63  1  0  0  0  0
 36 73  1  0  0  0  0
 36 79  2  0  0  0  0
 37 69  1  0  0  0  0
 37 74  1  0  0  0  0
 37 80  2  0  0  0  0
 38 41  1  0  0  0  0
 39 51  1  0  0  0  0
 40 68  1  0  0  0  0
 41 45  1  0  0  0  0
 42 46  1  0  0  0  0
 42 47  1  0  0  0  0
 43 44  1  0  0  0  0
 43 49  1  0  0  0  0
 44 49  1  0  0  0  0
 45 50  1  0  0  0  0
 46 52  1  0  0  0  0
 47 69  1  0  0  0  0
 48 52  1  0  0  0  0
 48 69  1  0  0  0  0
 50 72  1  0  0  0  0
 51 68  1  0  0  0  0
 52 67  1  0  0  0  0
 53 61  1  0  0  0  0
 54 63  1  0  0  0  0
 55 64  1  0  0  0  0
 56 64  1  0  0  0  0
 57 64  1  0  0  0  0
 58 75  1  0  0  0  0
 59 60  1  0  0  0  0
 59 82  1  0  0  0  0
 60 83  1  0  0  0  0
 61 74  1  0  0  0  0
 62 64  1  0  0  0  0
 62 73  1  0  0  0  0
 63 75  1  0  0  0  0
 66 67  1  0  0  0  0
M  CHG  1  75   1
M  ISO  4  37 100  59 101  74 100  82 101
M  END
> <Batch ID>
0140

> <Smiles>
CNC(C)C(=O)NC(C(=O)N1Cc2cc([101O:1][101CH2:1]COc3cc(C4CC4)c(C(C)[100NH:0][100C:0](=O)N4CCCC(n5nc(-c6ccc(Oc7ccc(F)cc7F)cc6)c(C(N)=O)c5N)C4)cn3)ccc2CC1C(=O)NC1CCCc2ccccc21)C(C)(C)C

> <Shape>
0.277

> <Color>
0.162

> <Negative vol penalty>
0.000

$$$$

  -OEChem-04052321133D

 83 92  0     1  0  0  0  0  0999 V2000
  -21.8297  -11.9631   20.3336 C   0  0  0  0  0  0  0  0  0  0  0  0
  -21.6787  -13.2638   20.8035 C   0  0  0  0  0  0  0  0  0  0  0  0
  -26.3203  -28.9459   21.5138 C   0  0  0  0  0  0  0  0  0  0  0  0
  -24.8994  -27.1981   20.6401 C   0  0  0  0  0  0  0  0  0  0  0  0
  -23.1060  -11.4286   20.1627 C   0  0  0  0  0  0  0  0  0  0  0  0
  -22.8041  -14.0304   21.1038 C   0  0  0  0  0  0  0  0  0  0  0  0
  -17.8622  -23.0395   23.9635 C   0  0  0  0  0  0  0  0  0  0  0  0
  -22.4700  -18.7558   19.3137 C   0  0  0  0  0  0  0  0  0  0  0  0
  -18.4845  -22.0604   23.1891 C   0  0  0  0  0  0  0  0  0  0  0  0
  -27.4418  -28.2840   21.0141 C   0  0  0  0  0  0  0  0  0  0  0  0
  -26.0209  -26.5362   20.1403 C   0  0  0  0  0  0  0  0  0  0  0  0
  -21.6772  -19.6528   20.0282 C   0  0  0  0  0  0  0  0  0  0  0  0
  -28.9847  -27.9022   18.0297 C   0  0  0  0  0  0  0  0  0  0  0  0
  -29.9420  -28.6640   17.3598 C   0  0  0  0  0  0  0  0  0  0  0  0
  -23.6562  -20.5759   21.0533 C   0  0  0  0  0  0  0  0  0  0  0  0
  -19.1115  -24.7512   22.8031 C   0  0  0  0  0  0  0  0  0  0  0  0
  -31.6051  -28.0006   18.9818 C   0  0  0  0  0  0  0  0  0  0  0  0
  -25.0491  -28.4029   21.3269 C   0  0  0  0  0  0  0  0  0  0  0  0
  -23.1080  -30.0519   21.1825 C   0  0  0  0  0  0  0  0  0  0  0  0
  -18.1756  -24.3849   23.7704 C   0  0  0  0  0  0  0  0  0  0  0  0
  -24.2478  -12.1924   20.4519 C   0  0  0  0  0  0  0  0  0  0  0  0
  -23.8634  -18.7548   19.4721 C   0  0  0  0  0  0  0  0  0  0  0  0
  -24.0969  -13.5052   20.9379 C   0  0  0  0  0  0  0  0  0  0  0  0
  -24.4646  -19.6796   20.3377 C   0  0  0  0  0  0  0  0  0  0  0  0
  -19.4203  -22.4266   22.2218 C   0  0  0  0  0  0  0  0  0  0  0  0
  -27.2921  -27.0792   20.3273 C   0  0  0  0  0  0  0  0  0  0  0  0
  -22.2700  -20.5611   20.9004 C   0  0  0  0  0  0  0  0  0  0  0  0
  -29.3376  -27.1897   19.1758 C   0  0  0  0  0  0  0  0  0  0  0  0
  -31.2522  -28.7132   17.8357 C   0  0  0  0  0  0  0  0  0  0  0  0
  -19.7338  -23.7721   22.0287 C   0  0  0  0  0  0  0  0  0  0  0  0
  -30.6478  -27.2388   19.6518 C   0  0  0  0  0  0  0  0  0  0  0  0
  -23.8902  -29.0859   21.8434 C   0  0  0  0  0  0  0  0  0  0  0  0
  -22.1351  -30.3869   22.0923 C   0  0  0  0  0  0  0  0  0  0  0  0
  -23.2482  -30.5976   19.8640 C   0  0  0  0  0  0  0  0  0  0  0  0
  -26.0026  -16.6404   20.5001 C   0  0  0  0  0  0  0  0  0  0  0  0
  -28.1217  -18.8987   19.5347 C   0  0  0  0  0  0  0  0  0  0  0  0
  -28.7457  -22.1846   18.8562 C   0  0  0  0  0  0  0  0  0  0  0  0
  -19.7158  -27.4767   26.7322 C   0  0  0  0  0  0  0  0  0  0  0  0
  -25.6059  -11.5553   20.2962 C   0  0  0  0  0  0  0  0  0  0  0  0
  -24.7067  -17.7987   18.6739 C   0  0  0  0  0  0  0  0  0  0  0  0
  -25.9577  -19.7329   20.5282 C   0  0  0  0  0  0  0  0  0  0  0  0
  -26.7530  -12.5623   20.2815 C   0  0  0  0  0  0  0  0  0  0  0  0
  -21.3428  -30.6428   26.8037 C   0  0  0  0  0  0  0  0  0  0  0  0
  -26.5902  -13.5736   21.4118 C   0  0  0  0  0  0  0  0  0  0  0  0
  -22.1096  -30.6900   25.4809 C   0  0  0  0  0  0  0  0  0  0  0  0
  -15.9979  -25.5391   24.5242 C   0  0  0  0  0  0  0  0  0  0  0  0
  -16.8447  -26.5893   23.8761 C   0  0  0  0  0  0  0  0  0  0  0  0
  -21.3278  -29.2360   27.3975 C   0  0  0  0  0  0  0  0  0  0  0  0
  -21.6044  -28.2317   25.1639 C   0  0  0  0  0  0  0  0  0  0  0  0
  -25.2938  -14.3767   21.2511 C   0  0  1  0  0  0  0  0  0  0  0  0
  -26.0739  -17.5419   19.3001 C   0  0  1  0  0  0  0  0  0  0  0  0
  -21.5994  -29.6186   24.4985 C   0  0  2  0  0  0  0  0  0  0  0  0
  -17.5104  -25.4311   24.5973 C   0  0  0  0  0  0  0  0  0  0  0  0
  -30.5815  -23.7305   18.1231 C   0  0  0  0  0  0  0  0  0  0  0  0
  -29.3485  -18.7612   22.3251 C   0  0  0  0  0  0  0  0  0  0  0  0
  -30.5033  -20.9309   21.8484 C   0  0  0  0  0  0  0  0  0  0  0  0
  -31.0092  -18.9198   20.4619 C   0  0  0  0  0  0  0  0  0  0  0  0
  -27.2599  -22.9835   16.4246 C   0  0  0  0  0  0  0  0  0  0  0  0
  -20.0883  -21.3707   21.3910 C   0  0  0  0  0  0  0  0  0  1  0  0
  -18.1709  -25.7132   25.9181 C   0  0  0  0  0  0  0  0  0  0  0  0
  -28.7851  -20.0893   20.1839 C   0  0  1  0  0  0  0  0  0  0  0  0
  -29.4189  -22.8589   17.6744 C   0  0  2  0  0  0  0  0  0  0  0  0
  -29.8832  -19.6733   21.2029 C   0  0  0  0  0  0  0  0  0  0  0  0
  -23.4522  -28.8242   23.0777 N   0  0  0  0  0  0  0  0  0  0  0  0
  -22.3842  -29.6308   23.1998 N   0  0  0  0  0  0  0  0  0  0  0  0
  -26.7389  -18.7735   19.7302 N   0  0  0  0  0  0  0  0  0  0  0  0
  -20.8323  -28.2681   26.4159 N   0  0  0  0  0  0  0  0  0  0  0  0
  -21.0994  -31.2515   22.0450 N   0  0  0  0  0  0  0  0  0  0  0  0
  -24.3031  -30.1424   19.0613 N   0  0  0  0  0  0  0  0  0  0  0  0
  -25.4547  -15.3989   20.2393 N   0  0  0  0  0  0  0  0  0  0  0  0
  -29.2685  -20.9312   19.0949 N   0  0  0  0  0  0  0  0  0  0  0  0
  -19.3076  -26.5898   25.7435 N   0  0  0  0  0  0  0  0  0  0  0  0
  -28.4438  -23.7162   16.9428 N   0  3  0  0  0  0  0  0  0  0  0  0
  -22.4712  -31.4751   19.4173 O   0  0  0  0  0  0  0  0  0  0  0  0
  -26.4155  -17.0410   21.5821 O   0  0  0  0  0  0  0  0  0  0  0  0
  -28.8039  -18.1128   18.8725 O   0  0  0  0  0  0  0  0  0  0  0  0
  -27.8486  -22.7180   19.5052 O   0  0  0  0  0  0  0  0  0  0  0  0
  -19.1231  -27.5585   27.8134 O   0  0  0  0  0  0  0  0  0  0  0  0
  -28.3862  -26.4332   19.8394 O   0  0  0  0  0  0  0  0  0  0  0  0
  -21.4984  -21.4373   21.5996 O   0  0  0  0  0  0  0  0  0  1  0  0
  -32.1717  -29.4435   17.1914 F   0  0  0  0  0  0  0  0  0  0  0  0
  -20.6320  -24.1336   21.1019 F   0  0  0  0  0  0  0  0  0  0  0  0
  -30.9930  -26.5554   20.7516 F   0  0  0  0  0  0  0  0  0  0  0  0
  1  2  1  0  0  0  0
  1  5  2  0  0  0  0
  2  6  2  0  0  0  0
  3 10  2  0  0  0  0
  3 18  1  0  0  0  0
  4 11  1  0  0  0  0
  4 18  2  0  0  0  0
  5 21  1  0  0  0  0
  6 23  1  0  0  0  0
  7  9  2  0  0  0  0
  7 20  1  0  0  0  0
  8 12  2  0  0  0  0
  8 22  1  0  0  0  0
  9 25  1  0  0  0  0
 10 26  1  0  0  0  0
 11 26  2  0  0  0  0
 12 27  1  0  0  0  0
 13 14  2  0  0  0  0
 13 28  1  0  0  0  0
 14 29  1  0  0  0  0
 15 24  1  0  0  0  0
 15 27  2  0  0  0  0
 16 20  2  0  0  0  0
 16 30  1  0  0  0  0
 17 29  2  0  0  0  0
 17 31  1  0  0  0  0
 18 32  1  0  0  0  0
 19 32  1  0  0  0  0
 19 33  2  0  0  0  0
 19 34  1  0  0  0  0
 20 53  1  0  0  0  0
 21 23  2  0  0  0  0
 21 39  1  0  0  0  0
 22 24  2  0  0  0  0
 22 40  1  0  0  0  0
 23 50  1  0  0  0  0
 24 41  1  0  0  0  0
 25 30  2  0  0  0  0
 25 59  1  0  0  0  0
 26 79  1  0  0  0  0
 27 80  1  0  0  0  0
 28 31  2  0  0  0  0
 28 79  1  0  0  0  0
 29 81  1  0  0  0  0
 30 82  1  0  0  0  0
 31 83  1  0  0  0  0
 32 64  2  0  0  0  0
 33 65  1  0  0  0  0
 33 68  1  0  0  0  0
 34 69  1  0  0  0  0
 34 74  2  0  0  0  0
 35 51  1  0  0  0  0
 35 70  1  0  0  0  0
 35 75  2  0  0  0  0
 36 61  1  0  0  0  0
 36 66  1  0  0  0  0
 36 76  2  0  0  0  0
 37 62  1  0  0  0  0
 37 71  1  0  0  0  0
 37 77  2  0  0  0  0
 38 67  1  0  0  0  0
 38 72  1  0  0  0  0
 38 78  2  0  0  0  0
 39 42  1  0  0  0  0
 40 51  1  0  0  0  0
 41 66  1  0  0  0  0
 42 44  1  0  0  0  0
 43 45  1  0  0  0  0
 43 48  1  0  0  0  0
 44 50  1  0  0  0  0
 45 52  1  0  0  0  0
 46 47  1  0  0  0  0
 46 53  1  0  0  0  0
 47 53  1  0  0  0  0
 48 67  1  0  0  0  0
 49 52  1  0  0  0  0
 49 67  1  0  0  0  0
 50 70  1  0  0  0  0
 51 66  1  0  0  0  0
 52 65  1  0  0  0  0
 53 60  1  0  0  0  0
 54 62  1  0  0  0  0
 55 63  1  0  0  0  0
 56 63  1  0  0  0  0
 57 63  1  0  0  0  0
 58 73  1  0  0  0  0
 59 80  1  0  0  0  0
 60 72  1  0  0  0  0
 61 63  1  0  0  0  0
 61 71  1  0  0  0  0
 62 73  1  0  0  0  0
 64 65  1  0  0  0  0
M  CHG  1  73   1
M  ISO  4  38 100  59 101  72 100  80 101
M  END
> <Batch ID>
0140

> <Smiles>
CNC(C)C(=O)NC(C(=O)N1Cc2cc([101O:1][101CH2:1]c3ccc(C4(C[100NH:0][100C:0](=O)N5CCCC(n6nc(-c7ccc(Oc8ccc(F)cc8F)cc7)c(C(N)=O)c6N)C5)CC4)cc3F)ccc2CC1C(=O)NC1CCCc2ccccc21)C(C)(C)C

> <Shape>
0.217

> <Color>
0.087

> <Negative vol penalty>
0.000

$$$$

  -OEChem-04052321133D

 84 93  0     1  0  0  0  0  0999 V2000
  -19.4556  -32.7951   16.0080 C   0  0  0  0  0  0  0  0  0  0  0  0
  -20.4235  -31.7960   16.0305 C   0  0  0  0  0  0  0  0  0  0  0  0
  -24.7694   -9.4113   19.8628 C   0  0  0  0  0  0  0  0  0  0  0  0
  -24.5684   -9.6302   22.2604 C   0  0  0  0  0  0  0  0  0  0  0  0
  -19.6536  -33.9722   16.7283 C   0  0  0  0  0  0  0  0  0  0  0  0
  -21.5906  -31.9741   16.7726 C   0  0  0  0  0  0  0  0  0  0  0  0
  -24.7362  -27.6636   19.7777 C   0  0  0  0  0  0  0  0  0  0  0  0
  -24.4500   -8.0570   19.9596 C   0  0  0  0  0  0  0  0  0  0  0  0
  -24.2489   -8.2759   22.3573 C   0  0  0  0  0  0  0  0  0  0  0  0
  -25.8778  -26.9343   19.4482 C   0  0  0  0  0  0  0  0  0  0  0  0
  -21.5416   -6.3153   21.8603 C   0  0  0  0  0  0  0  0  0  0  0  0
  -20.4727   -5.9603   22.6830 C   0  0  0  0  0  0  0  0  0  0  0  0
  -27.2322  -28.5152   20.6672 C   0  0  0  0  0  0  0  0  0  0  0  0
  -21.9551   -4.6028   24.0235 C   0  0  0  0  0  0  0  0  0  0  0  0
  -24.8287  -10.1979   21.0132 C   0  0  0  0  0  0  0  0  0  0  0  0
  -24.2659  -12.6712   20.7411 C   0  0  0  0  0  0  0  0  0  0  0  0
  -20.8194  -34.1608   17.4874 C   0  0  0  0  0  0  0  0  0  0  0  0
  -24.8353  -28.8321   20.5466 C   0  0  0  0  0  0  0  0  0  0  0  0
  -21.8050  -33.1555   17.5027 C   0  0  0  0  0  0  0  0  0  0  0  0
  -26.0900  -29.2561   21.0072 C   0  0  0  0  0  0  0  0  0  0  0  0
  -24.1897   -7.4893   21.2069 C   0  0  0  0  0  0  0  0  0  0  0  0
  -27.1264  -27.3617   19.8905 C   0  0  0  0  0  0  0  0  0  0  0  0
  -22.8174   -5.8139   22.1190 C   0  0  0  0  0  0  0  0  0  0  0  0
  -20.6794   -5.1042   23.7646 C   0  0  0  0  0  0  0  0  0  0  0  0
  -23.0241   -4.9577   23.2006 C   0  0  0  0  0  0  0  0  0  0  0  0
  -25.1591  -11.5969   20.9138 C   0  0  0  0  0  0  0  0  0  0  0  0
  -25.0699  -13.7842   20.7077 C   0  0  0  0  0  0  0  0  0  0  0  0
  -22.8372  -12.6637   20.6215 C   0  0  0  0  0  0  0  0  0  0  0  0
  -24.1519  -31.8989   20.0650 C   0  0  0  0  0  0  0  0  0  0  0  0
  -24.9245  -32.1616   23.2045 C   0  0  0  0  0  0  0  0  0  0  0  0
  -26.6181  -30.9025   25.8866 C   0  0  0  0  0  0  0  0  0  0  0  0
  -29.6861  -16.3219   19.2619 C   0  0  0  0  0  0  0  0  0  0  0  0
  -21.0101  -35.4699   18.2117 C   0  0  0  0  0  0  0  0  0  0  0  0
  -23.5914  -29.5928   20.9159 C   0  0  0  0  0  0  0  0  0  0  0  0
  -26.2481  -30.4926   21.8525 C   0  0  0  0  0  0  0  0  0  0  0  0
  -22.1057  -35.4243   19.2738 C   0  0  0  0  0  0  0  0  0  0  0  0
  -29.9012  -13.0021   21.0205 C   0  0  0  0  0  0  0  0  0  0  0  0
  -23.3583  -34.7526   18.7202 C   0  0  0  0  0  0  0  0  0  0  0  0
  -28.7095  -13.5491   21.8063 C   0  0  0  0  0  0  0  0  0  0  0  0
  -31.7804  -15.3356   16.9864 C   0  0  0  0  0  0  0  0  0  0  0  0
  -32.7354  -16.4857   17.1043 C   0  0  0  0  0  0  0  0  0  0  0  0
  -30.4415  -19.0109   18.1810 C   0  0  0  0  0  0  0  0  0  0  0  0
  -31.0842  -18.6117   20.5867 C   0  0  0  0  0  0  0  0  0  0  0  0
  -30.5076  -14.0642   20.0967 C   0  0  0  0  0  0  0  0  0  0  0  0
  -28.1414  -14.4046   19.4627 C   0  0  0  0  0  0  0  0  0  0  0  0
  -30.7038  -20.4999   18.3648 C   0  0  0  0  0  0  0  0  0  0  0  0
  -31.3419  -20.1029   20.7585 C   0  0  0  0  0  0  0  0  0  0  0  0
  -23.0730  -33.3012   18.3157 C   0  0  1  0  0  0  0  0  0  0  0  0
  -23.8661  -31.0506   21.2719 C   0  0  1  0  0  0  0  0  0  0  0  0
  -27.6204  -14.1526   20.8885 C   0  0  1  0  0  0  0  0  0  0  0  0
  -32.0233  -15.9743   18.3265 C   0  0  0  0  0  0  0  0  0  0  0  0
  -31.2873  -18.1695   19.1375 C   0  0  0  0  0  0  0  0  0  0  0  0
  -27.0884  -31.3568   28.3094 C   0  0  0  0  0  0  0  0  0  0  0  0
  -26.8855  -34.3597   22.4092 C   0  0  0  0  0  0  0  0  0  0  0  0
  -27.9732  -34.1037   24.6497 C   0  0  0  0  0  0  0  0  0  0  0  0
  -25.5896  -34.8233   24.4972 C   0  0  0  0  0  0  0  0  0  0  0  0
  -25.3699  -28.3539   26.7265 C   0  0  0  0  0  0  0  0  0  0  0  0
  -29.2952  -23.0398   19.6053 C   0  0  0  0  0  0  0  0  0  0  0  0
  -29.3943  -24.5556   19.7591 C   0  0  0  0  0  0  0  0  0  0  0  0
  -30.5936  -22.3626   20.0179 C   0  0  0  0  0  0  0  0  0  0  0  0
  -28.0881  -25.2447   19.3908 C   0  0  0  0  0  0  0  0  0  1  0  0
  -26.1962  -32.4253   23.9741 C   0  0  1  0  0  0  0  0  0  0  0  0
  -26.1857  -30.6394   27.3178 C   0  0  2  0  0  0  0  0  0  0  0  0
  -26.6587  -33.9057   23.8650 C   0  0  0  0  0  0  0  0  0  0  0  0
  -26.4331  -11.9918   20.9851 N   0  0  0  0  0  0  0  0  0  0  0  0
  -26.3462  -13.3267   20.8563 N   0  0  0  0  0  0  0  0  0  0  0  0
  -25.0029  -31.2058   22.1817 N   0  0  0  0  0  0  0  0  0  0  0  0
  -29.4965  -14.9524   19.5059 N   0  0  0  0  0  0  0  0  0  0  0  0
  -24.8027  -15.0999   20.5659 N   0  0  0  0  0  0  0  0  0  0  0  0
  -22.1685  -11.4331   20.6771 N   0  0  0  0  0  0  0  0  0  0  0  0
  -23.0253  -32.4505   19.4855 N   0  0  0  0  0  0  0  0  0  0  0  0
  -25.9475  -31.9761   25.3397 N   0  0  0  0  0  0  0  0  0  0  0  0
  -30.9872  -16.7666   18.9881 N   0  0  0  0  0  0  0  0  0  0  0  0
  -30.4643  -20.8791   19.8064 N   0  3  0  0  0  0  0  0  0  0  0  0
  -26.2308  -29.1792   27.6123 N   0  3  0  0  0  0  0  0  0  0  0  0
  -22.1745  -13.7154   20.4535 O   0  0  0  0  0  0  0  0  0  0  0  0
  -25.3090  -32.0434   19.6884 O   0  0  0  0  0  0  0  0  0  0  0  0
  -23.8976  -32.7756   23.5047 O   0  0  0  0  0  0  0  0  0  0  0  0
  -27.4685  -30.2259   25.3126 O   0  0  0  0  0  0  0  0  0  0  0  0
  -28.7383  -17.1189   19.2958 O   0  0  0  0  0  0  0  0  0  0  0  0
  -23.8777   -6.1678   21.3017 O   0  0  0  0  0  0  0  0  0  0  0  0
  -28.2424  -26.6521   19.5697 O   0  0  0  0  0  0  0  0  0  1  0  0
  -19.6531   -4.7647   24.5556 F   0  0  0  0  0  0  0  0  0  0  0  0
  -24.2476   -4.4739   23.4550 F   0  0  0  0  0  0  0  0  0  0  0  0
  1  2  1  0  0  0  0
  1  5  2  0  0  0  0
  2  6  2  0  0  0  0
  3  8  2  0  0  0  0
  3 15  1  0  0  0  0
  4  9  1  0  0  0  0
  4 15  2  0  0  0  0
  5 17  1  0  0  0  0
  6 19  1  0  0  0  0
  7 10  2  0  0  0  0
  7 18  1  0  0  0  0
  8 21  1  0  0  0  0
  9 21  2  0  0  0  0
 10 22  1  0  0  0  0
 11 12  2  0  0  0  0
 11 23  1  0  0  0  0
 12 24  1  0  0  0  0
 13 20  1  0  0  0  0
 13 22  2  0  0  0  0
 14 24  2  0  0  0  0
 14 25  1  0  0  0  0
 15 26  1  0  0  0  0
 16 26  1  0  0  0  0
 16 27  2  0  0  0  0
 16 28  1  0  0  0  0
 17 19  2  0  0  0  0
 17 33  1  0  0  0  0
 18 20  2  0  0  0  0
 18 34  1  0  0  0  0
 19 48  1  0  0  0  0
 20 35  1  0  0  0  0
 21 81  1  0  0  0  0
 22 82  1  0  0  0  0
 23 25  2  0  0  0  0
 23 81  1  0  0  0  0
 24 83  1  0  0  0  0
 25 84  1  0  0  0  0
 26 65  2  0  0  0  0
 27 66  1  0  0  0  0
 27 69  1  0  0  0  0
 28 70  1  0  0  0  0
 28 76  2  0  0  0  0
 29 49  1  0  0  0  0
 29 71  1  0  0  0  0
 29 77  2  0  0  0  0
 30 62  1  0  0  0  0
 30 67  1  0  0  0  0
 30 78  2  0  0  0  0
 31 63  1  0  0  0  0
 31 72  1  0  0  0  0
 31 79  2  0  0  0  0
 32 68  1  0  0  0  0
 32 73  1  0  0  0  0
 32 80  2  0  0  0  0
 33 36  1  0  0  0  0
 34 49  1  0  0  0  0
 35 67  1  0  0  0  0
 36 38  1  0  0  0  0
 37 39  1  0  0  0  0
 37 44  1  0  0  0  0
 38 48  1  0  0  0  0
 39 50  1  0  0  0  0
 40 41  1  0  0  0  0
 40 51  1  0  0  0  0
 41 51  1  0  0  0  0
 42 46  1  0  0  0  0
 42 52  1  0  0  0  0
 43 47  1  0  0  0  0
 43 52  1  0  0  0  0
 44 68  1  0  0  0  0
 45 50  1  0  0  0  0
 45 68  1  0  0  0  0
 46 74  1  0  0  0  0
 47 74  1  0  0  0  0
 48 71  1  0  0  0  0
 49 67  1  0  0  0  0
 50 66  1  0  0  0  0
 51 73  1  0  0  0  0
 52 73  1  0  0  0  0
 53 63  1  0  0  0  0
 54 64  1  0  0  0  0
 55 64  1  0  0  0  0
 56 64  1  0  0  0  0
 57 75  1  0  0  0  0
 58 59  1  0  0  0  0
 58 60  1  0  0  0  0
 59 61  1  0  0  0  0
 60 74  1  0  0  0  0
 61 82  1  0  0  0  0
 62 64  1  0  0  0  0
 62 72  1  0  0  0  0
 63 75  1  0  0  0  0
 65 66  1  0  0  0  0
M  CHG  2  74   1  75   1
M  ISO  4  32 100  61 101  73 100  82 101
M  END
> <Batch ID>
0140

> <Smiles>
CNC(C)C(=O)NC(C(=O)N1Cc2cc([101O:1][101CH2:1]CCCN3CCC([100N:0](C4CC4)[100C:0](=O)N4CCCC(n5nc(-c6ccc(Oc7ccc(F)cc7F)cc6)c(C(N)=O)c5N)C4)CC3)ccc2CC1C(=O)NC1CCCc2ccccc21)C(C)(C)C

> <Shape>
0.310

> <Color>
0.155

> <Negative vol penalty>
0.000

$$$$

  -OEChem-04052321133D

 86 95  0     1  0  0  0  0  0999 V2000
  -39.5123  -20.9935   34.2716 C   0  0  0  0  0  0  0  0  0  0  0  0
  -38.2933  -20.9959   33.6012 C   0  0  0  0  0  0  0  0  0  0  0  0
  -23.0005   -9.8944   19.9822 C   0  0  0  0  0  0  0  0  0  0  0  0
  -23.7309   -9.9448   22.2846 C   0  0  0  0  0  0  0  0  0  0  0  0
  -40.6392  -21.5506   33.6686 C   0  0  0  0  0  0  0  0  0  0  0  0
  -38.2003  -21.5565   32.3278 C   0  0  0  0  0  0  0  0  0  0  0  0
  -35.5670  -18.6582   29.1168 C   0  0  0  0  0  0  0  0  0  0  0  0
  -22.2356   -8.7591   20.2496 C   0  0  0  0  0  0  0  0  0  0  0  0
  -22.9659   -8.8095   22.5521 C   0  0  0  0  0  0  0  0  0  0  0  0
  -34.1773  -18.6894   29.2241 C   0  0  0  0  0  0  0  0  0  0  0  0
  -23.2120   -5.4710   22.0779 C   0  0  0  0  0  0  0  0  0  0  0  0
  -23.8022   -4.4540   22.8281 C   0  0  0  0  0  0  0  0  0  0  0  0
  -34.0731  -20.2110   27.3551 C   0  0  0  0  0  0  0  0  0  0  0  0
  -29.9264  -19.3203   26.1264 C   0  0  0  0  0  0  0  0  0  0  0  0
  -30.0171  -16.9101   26.2650 C   0  0  0  0  0  0  0  0  0  0  0  0
  -22.0818   -4.6945   24.5073 C   0  0  0  0  0  0  0  0  0  0  0  0
  -23.7482  -10.4873   20.9997 C   0  0  0  0  0  0  0  0  0  0  0  0
  -24.1310  -13.0033   20.8241 C   0  0  0  0  0  0  0  0  0  0  0  0
  -40.5621  -22.1097   32.3833 C   0  0  0  0  0  0  0  0  0  0  0  0
  -36.2220  -19.4130   28.1330 C   0  0  0  0  0  0  0  0  0  0  0  0
  -39.3269  -22.1229   31.7077 C   0  0  0  0  0  0  0  0  0  0  0  0
  -35.4710  -20.1857   27.2358 C   0  0  0  0  0  0  0  0  0  0  0  0
  -29.9324  -17.9936   24.1073 C   0  0  0  0  0  0  0  0  0  0  0  0
  -29.9848  -18.1557   26.8918 C   0  0  0  0  0  0  0  0  0  0  0  0
  -29.9002  -19.2393   24.7341 C   0  0  0  0  0  0  0  0  0  0  0  0
  -29.9909  -16.8290   24.8727 C   0  0  0  0  0  0  0  0  0  0  0  0
  -22.2182   -8.2167   21.5346 C   0  0  0  0  0  0  0  0  0  0  0  0
  -33.4303  -19.4681   28.3451 C   0  0  0  0  0  0  0  0  0  0  0  0
  -22.0568   -6.0999   22.5424 C   0  0  0  0  0  0  0  0  0  0  0  0
  -23.2371   -4.0656   24.0428 C   0  0  0  0  0  0  0  0  0  0  0  0
  -21.4917   -5.7116   23.7571 C   0  0  0  0  0  0  0  0  0  0  0  0
  -24.5391  -11.6597   20.7239 C   0  0  0  0  0  0  0  0  0  0  0  0
  -25.2393  -13.7270   20.4576 C   0  0  0  0  0  0  0  0  0  0  0  0
  -22.8634  -13.5484   21.2138 C   0  0  0  0  0  0  0  0  0  0  0  0
  -38.3343  -21.7881   28.1643 C   0  0  0  0  0  0  0  0  0  0  0  0
  -38.3234  -21.3204   24.9544 C   0  0  0  0  0  0  0  0  0  0  0  0
  -36.6688  -20.1714   22.1996 C   0  0  0  0  0  0  0  0  0  0  0  0
  -30.7354  -14.6663   20.6943 C   0  0  0  0  0  0  0  0  0  0  0  0
  -41.7967  -22.7426   31.7917 C   0  0  0  0  0  0  0  0  0  0  0  0
  -37.7200  -19.3477   28.0134 C   0  0  0  0  0  0  0  0  0  0  0  0
  -36.1247  -20.9984   26.1492 C   0  0  0  0  0  0  0  0  0  0  0  0
  -41.6978  -22.9807   30.2871 C   0  0  0  0  0  0  0  0  0  0  0  0
  -29.5915  -12.2428   18.3501 C   0  0  0  0  0  0  0  0  0  0  0  0
  -40.3581  -23.6191   29.9346 C   0  0  0  0  0  0  0  0  0  0  0  0
  -28.1442  -11.9816   18.7708 C   0  0  0  0  0  0  0  0  0  0  0  0
  -30.7023  -18.9692   21.7624 C   0  0  0  0  0  0  0  0  0  0  0  0
  -30.4964  -12.4784   19.5575 C   0  0  0  0  0  0  0  0  0  0  0  0
  -28.5886  -13.2716   20.9009 C   0  0  0  0  0  0  0  0  0  0  0  0
  -29.9031  -17.9037   22.5526 C   0  0  1  0  0  0  0  0  0  0  0  0
  -39.1915  -22.6993   30.3150 C   0  0  1  0  0  0  0  0  0  0  0  0
  -38.3159  -20.5582   27.3014 C   0  0  1  0  0  0  0  0  0  0  0  0
  -30.9953  -17.8625   20.7210 C   0  0  2  0  0  0  0  0  0  0  0  0
  -27.6271  -13.0837   19.7150 C   0  0  2  0  0  0  0  0  0  0  0  0
  -30.8188  -16.8447   21.8804 C   0  0  2  0  0  0  0  0  0  0  0  0
  -29.8376  -20.4988   23.9345 C   0  0  0  0  0  0  0  0  0  0  0  0
  -30.0253  -15.4848   24.2234 C   0  0  0  0  0  0  0  0  0  0  0  0
  -32.3577  -17.9048   20.0583 C   0  0  0  0  0  0  0  0  0  0  0  0
  -36.8982  -19.9601   19.7096 C   0  0  0  0  0  0  0  0  0  0  0  0
  -37.7205  -24.2958   24.6488 C   0  0  0  0  0  0  0  0  0  0  0  0
  -37.0311  -23.8422   22.2851 C   0  0  0  0  0  0  0  0  0  0  0  0
  -39.3764  -23.3929   23.0066 C   0  0  0  0  0  0  0  0  0  0  0  0
  -36.4988  -17.2191   22.3179 C   0  0  0  0  0  0  0  0  0  0  0  0
  -30.0123  -18.2438   28.3984 C   0  0  0  0  0  0  0  0  0  0  0  0
  -31.4319  -18.3286   28.9484 C   0  0  0  0  0  0  0  0  0  1  0  0
  -37.5225  -21.8665   23.7971 C   0  0  1  0  0  0  0  0  0  0  0  0
  -37.1168  -19.2825   21.0534 C   0  0  2  0  0  0  0  0  0  0  0  0
  -37.9001  -23.3357   23.4560 C   0  0  0  0  0  0  0  0  0  0  0  0
  -25.8076  -11.5345   20.3248 N   0  0  0  0  0  0  0  0  0  0  0  0
  -26.2061  -12.8087   20.1710 N   0  0  0  0  0  0  0  0  0  0  0  0
  -37.5923  -20.9065   26.0769 N   0  0  0  0  0  0  0  0  0  0  0  0
  -29.9506  -13.5362   20.4113 N   0  0  0  0  0  0  0  0  0  0  0  0
  -25.4714  -15.0530   20.3558 N   0  0  0  0  0  0  0  0  0  0  0  0
  -21.8332  -12.6631   21.5592 N   0  0  0  0  0  0  0  0  0  0  0  0
  -39.0446  -21.6398   29.3402 N   0  0  0  0  0  0  0  0  0  0  0  0
  -37.7086  -20.9301   22.6940 N   0  0  0  0  0  0  0  0  0  0  0  0
  -30.1400  -15.6242   21.5059 N   0  0  0  0  0  0  0  0  0  0  0  0
  -36.3554  -18.0015   21.0632 N   0  3  0  0  0  0  0  0  0  0  0  0
  -22.6457  -14.7835   21.2387 O   0  0  0  0  0  0  0  0  0  0  0  0
  -37.7487  -22.7975   27.7902 O   0  0  0  0  0  0  0  0  0  0  0  0
  -39.5519  -21.2566   24.8629 O   0  0  0  0  0  0  0  0  0  0  0  0
  -35.5114  -20.1933   22.6125 O   0  0  0  0  0  0  0  0  0  0  0  0
  -31.8797  -14.8135   20.2517 O   0  0  0  0  0  0  0  0  0  0  0  0
  -21.4717   -7.1090   21.7960 O   0  0  0  0  0  0  0  0  0  0  0  0
  -32.0738  -19.5008   28.4481 O   0  0  0  0  0  0  0  0  0  1  0  0
  -23.8030   -3.0879   24.7624 F   0  0  0  0  0  0  0  0  0  0  0  0
  -20.3814   -6.3113   24.2079 F   0  0  0  0  0  0  0  0  0  0  0  0
  1  2  1  0  0  0  0
  1  5  2  0  0  0  0
  2  6  2  0  0  0  0
  3  8  2  0  0  0  0
  3 17  1  0  0  0  0
  4  9  1  0  0  0  0
  4 17  2  0  0  0  0
  5 19  1  0  0  0  0
  6 21  1  0  0  0  0
  7 10  2  0  0  0  0
  7 20  1  0  0  0  0
  8 27  1  0  0  0  0
  9 27  2  0  0  0  0
 10 28  1  0  0  0  0
 11 12  2  0  0  0  0
 11 29  1  0  0  0  0
 12 30  1  0  0  0  0
 13 22  1  0  0  0  0
 13 28  2  0  0  0  0
 14 24  1  0  0  0  0
 14 25  2  0  0  0  0
 15 24  2  0  0  0  0
 15 26  1  0  0  0  0
 16 30  2  0  0  0  0
 16 31  1  0  0  0  0
 17 32  1  0  0  0  0
 18 32  1  0  0  0  0
 18 33  2  0  0  0  0
 18 34  1  0  0  0  0
 19 21  2  0  0  0  0
 19 39  1  0  0  0  0
 20 22  2  0  0  0  0
 20 40  1  0  0  0  0
 21 50  1  0  0  0  0
 22 41  1  0  0  0  0
 23 25  1  0  0  0  0
 23 26  2  0  0  0  0
 23 49  1  0  0  0  0
 24 63  1  0  0  0  0
 25 55  1  0  0  0  0
 26 56  1  0  0  0  0
 27 83  1  0  0  0  0
 28 84  1  0  0  0  0
 29 31  2  0  0  0  0
 29 83  1  0  0  0  0
 30 85  1  0  0  0  0
 31 86  1  0  0  0  0
 32 68  2  0  0  0  0
 33 69  1  0  0  0  0
 33 72  1  0  0  0  0
 34 73  1  0  0  0  0
 34 78  2  0  0  0  0
 35 51  1  0  0  0  0
 35 74  1  0  0  0  0
 35 79  2  0  0  0  0
 36 65  1  0  0  0  0
 36 70  1  0  0  0  0
 36 80  2  0  0  0  0
 37 66  1  0  0  0  0
 37 75  1  0  0  0  0
 37 81  2  0  0  0  0
 38 71  1  0  0  0  0
 38 76  1  0  0  0  0
 38 82  2  0  0  0  0
 39 42  1  0  0  0  0
 40 51  1  0  0  0  0
 41 70  1  0  0  0  0
 42 44  1  0  0  0  0
 43 45  1  0  0  0  0
 43 47  1  0  0  0  0
 44 50  1  0  0  0  0
 45 53  1  0  0  0  0
 46 49  1  0  0  0  0
 46 52  1  0  0  0  0
 47 71  1  0  0  0  0
 48 53  1  0  0  0  0
 48 71  1  0  0  0  0
 49 54  1  0  0  0  0
 50 74  1  0  0  0  0
 51 70  1  0  0  0  0
 52 54  1  0  0  0  0
 52 57  1  0  0  0  0
 53 69  1  0  0  0  0
 54 76  1  0  0  0  0
 58 66  1  0  0  0  0
 59 67  1  0  0  0  0
 60 67  1  0  0  0  0
 61 67  1  0  0  0  0
 62 77  1  0  0  0  0
 63 64  1  0  0  0  0
 64 84  1  0  0  0  0
 65 67  1  0  0  0  0
 65 75  1  0  0  0  0
 66 77  1  0  0  0  0
 68 69  1  0  0  0  0
M  CHG  1  77   1
M  ISO  4  38 100  64 101  76 100  84 101
M  END
> <Batch ID>
0140

> <Smiles>
CNC(C)C(=O)NC(C(=O)N1Cc2cc([101O:1][101CH2:1]Cc3cc(C)c(C4CC(C)C4[100NH:0][100C:0](=O)N4CCCC(n5nc(-c6ccc(Oc7ccc(F)cc7F)cc6)c(C(N)=O)c5N)C4)c(C)c3)ccc2CC1C(=O)NC1CCCc2ccccc21)C(C)(C)C

> <Shape>
0.178

> <Color>
0.202

> <Negative vol penalty>
0.000

$$$$

  -OEChem-04052321133D

 90 99  0     1  0  0  0  0  0999 V2000
  -28.2582  -34.6985   22.8645 C   0  0  0  0  0  0  0  0  0  0  0  0
  -28.9264  -33.7176   23.5904 C   0  0  0  0  0  0  0  0  0  0  0  0
  -22.9880   -9.9097   19.9851 C   0  0  0  0  0  0  0  0  0  0  0  0
  -23.7160   -9.9550   22.2884 C   0  0  0  0  0  0  0  0  0  0  0  0
  -27.0299  -34.4098   22.2712 C   0  0  0  0  0  0  0  0  0  0  0  0
  -28.3661  -32.4478   23.7243 C   0  0  0  0  0  0  0  0  0  0  0  0
  -31.3598  -27.1111   23.9775 C   0  0  0  0  0  0  0  0  0  0  0  0
  -22.2149   -8.7797   20.2517 C   0  0  0  0  0  0  0  0  0  0  0  0
  -22.9428   -8.8251   22.5550 C   0  0  0  0  0  0  0  0  0  0  0  0
  -31.7429  -26.3003   25.0450 C   0  0  0  0  0  0  0  0  0  0  0  0
  -23.1664   -5.4850   22.0811 C   0  0  0  0  0  0  0  0  0  0  0  0
  -23.7485   -4.4638   22.8320 C   0  0  0  0  0  0  0  0  0  0  0  0
  -29.7584  -24.9644   24.7347 C   0  0  0  0  0  0  0  0  0  0  0  0
  -30.5373  -18.3137   23.9939 C   0  0  0  0  0  0  0  0  0  0  0  0
  -32.0892  -16.4989   22.5513 C   0  0  0  0  0  0  0  0  0  0  0  0
  -22.0280   -4.7163   24.5092 C   0  0  0  0  0  0  0  0  0  0  0  0
  -23.7386  -10.4973   21.0034 C   0  0  0  0  0  0  0  0  0  0  0  0
  -24.1390  -13.0106   20.8283 C   0  0  0  0  0  0  0  0  0  0  0  0
  -26.4589  -33.1329   22.3898 C   0  0  0  0  0  0  0  0  0  0  0  0
  -30.1656  -26.8608   23.2864 C   0  0  0  0  0  0  0  0  0  0  0  0
  -27.1284  -32.1421   23.1332 C   0  0  0  0  0  0  0  0  0  0  0  0
  -29.3636  -25.7720   23.6572 C   0  0  0  0  0  0  0  0  0  0  0  0
  -31.9220  -18.2929   24.1609 C   0  0  0  0  0  0  0  0  0  0  0  0
  -32.6979  -17.3856   23.4396 C   0  0  0  0  0  0  0  0  0  0  0  0
  -30.7045  -16.5197   22.3844 C   0  0  0  0  0  0  0  0  0  0  0  0
  -22.1923   -8.2374   21.5366 C   0  0  0  0  0  0  0  0  0  0  0  0
  -30.9408  -25.2285   25.4256 C   0  0  0  0  0  0  0  0  0  0  0  0
  -22.0150   -6.1219   22.5442 C   0  0  0  0  0  0  0  0  0  0  0  0
  -29.9286  -17.4270   23.1057 C   0  0  0  0  0  0  0  0  0  0  0  0
  -23.1793   -4.0795   24.0461 C   0  0  0  0  0  0  0  0  0  0  0  0
  -21.4458   -5.7375   23.7583 C   0  0  0  0  0  0  0  0  0  0  0  0
  -24.5379  -11.6642   20.7285 C   0  0  0  0  0  0  0  0  0  0  0  0
  -25.2527  -13.7266   20.4631 C   0  0  0  0  0  0  0  0  0  0  0  0
  -22.8748  -13.5645   21.2165 C   0  0  0  0  0  0  0  0  0  0  0  0
  -27.4718  -28.4779   22.8041 C   0  0  0  0  0  0  0  0  0  0  0  0
  -26.7888  -25.9903   20.8374 C   0  0  0  0  0  0  0  0  0  0  0  0
  -27.3179  -22.7223   20.0086 C   0  0  0  0  0  0  0  0  0  0  0  0
  -30.7382  -14.6543   20.6916 C   0  0  0  0  0  0  0  0  0  0  0  0
  -25.1068  -32.8820   21.7707 C   0  0  0  0  0  0  0  0  0  0  0  0
  -29.7798  -27.7287   22.1200 C   0  0  0  0  0  0  0  0  0  0  0  0
  -28.0822  -25.4486   22.9348 C   0  0  0  0  0  0  0  0  0  0  0  0
  -24.7598  -31.4007   21.6450 C   0  0  0  0  0  0  0  0  0  0  0  0
  -29.6025  -12.2095   18.3656 C   0  0  0  0  0  0  0  0  0  0  0  0
  -25.0702  -30.6675   22.9461 C   0  0  0  0  0  0  0  0  0  0  0  0
  -28.1508  -11.9604   18.7812 C   0  0  0  0  0  0  0  0  0  0  0  0
  -32.9454  -20.5483   24.3909 C   0  0  0  0  0  0  0  0  0  0  0  0
  -31.5897  -19.5551   26.2784 C   0  0  0  0  0  0  0  0  0  0  0  0
  -30.5058  -12.4468   19.5745 C   0  0  0  0  0  0  0  0  0  0  0  0
  -28.5967  -13.2465   20.9105 C   0  0  0  0  0  0  0  0  0  0  0  0
  -33.5151  -21.5801   25.3560 C   0  0  0  0  0  0  0  0  0  0  0  0
  -32.1701  -20.5943   27.2291 C   0  0  0  0  0  0  0  0  0  0  0  0
  -32.5518  -19.2525   25.1183 C   0  0  0  0  0  0  0  0  0  0  0  0
  -26.5648  -30.7454   23.2801 C   0  0  1  0  0  0  0  0  0  0  0  0
  -28.2854  -27.6911   21.8158 C   0  0  1  0  0  0  0  0  0  0  0  0
  -27.6367  -13.0666   19.7233 C   0  0  2  0  0  0  0  0  0  0  0  0
  -34.9250  -17.6816   22.2968 C   0  0  0  0  0  0  0  0  0  0  0  0
  -34.6751  -15.9941   24.1529 C   0  0  0  0  0  0  0  0  0  0  0  0
  -26.5878  -20.9606   18.3774 C   0  0  0  0  0  0  0  0  0  0  0  0
  -24.1701  -25.6613   22.3685 C   0  0  0  0  0  0  0  0  0  0  0  0
  -23.9488  -23.3799   21.3614 C   0  0  0  0  0  0  0  0  0  0  0  0
  -23.9701  -25.3941   19.8900 C   0  0  0  0  0  0  0  0  0  0  0  0
  -30.0594  -22.4135   18.9372 C   0  0  0  0  0  0  0  0  0  0  0  0
  -28.0566  -18.3316   21.9510 C   0  0  0  0  0  0  0  0  0  0  0  0
  -32.9746  -22.9498   27.3676 C   0  0  0  0  0  0  0  0  0  0  0  0
  -32.7115  -24.2871   26.7040 C   0  0  0  0  0  0  0  0  0  1  0  0
  -34.1819  -17.3448   23.6025 C   0  0  0  0  0  0  0  0  0  0  0  0
  -26.1144  -24.6500   21.0036 C   0  0  1  0  0  0  0  0  0  0  0  0
  -27.6015  -22.0545   18.6752 C   0  0  2  0  0  0  0  0  0  0  0  0
  -24.5740  -24.7783   21.1709 C   0  0  0  0  0  0  0  0  0  0  0  0
  -25.8060  -11.5302   20.3309 N   0  0  0  0  0  0  0  0  0  0  0  0
  -26.2135  -12.8016   20.1775 N   0  0  0  0  0  0  0  0  0  0  0  0
  -27.7449  -26.3302   21.8050 N   0  0  0  0  0  0  0  0  0  0  0  0
  -29.9581  -13.5106   20.4190 N   0  0  0  0  0  0  0  0  0  0  0  0
  -25.4942  -15.0509   20.3614 N   0  0  0  0  0  0  0  0  0  0  0  0
  -21.8380  -12.6865   21.5607 N   0  0  0  0  0  0  0  0  0  0  0  0
  -30.1006  -15.6130   21.4783 N   0  0  0  0  0  0  0  0  0  0  0  0
  -27.3134  -29.8091   22.4693 N   0  0  0  0  0  0  0  0  0  0  0  0
  -26.5261  -23.8414   19.8612 N   0  0  0  0  0  0  0  0  0  0  0  0
  -32.5216  -21.8589   26.4682 N   0  3  0  0  0  0  0  0  0  0  0  0
  -28.9619  -21.4460   18.6795 N   0  3  0  0  0  0  0  0  0  0  0  0
  -22.6656  -14.8011   21.2411 O   0  0  0  0  0  0  0  0  0  0  0  0
  -27.0199  -27.9182   23.7962 O   0  0  0  0  0  0  0  0  0  0  0  0
  -26.4840  -26.7061   19.8802 O   0  0  0  0  0  0  0  0  0  0  0  0
  -27.7522  -22.2919   21.0748 O   0  0  0  0  0  0  0  0  0  0  0  0
  -31.8772  -14.7865   20.2364 O   0  0  0  0  0  0  0  0  0  0  0  0
  -21.4378   -7.1350   21.7971 O   0  0  0  0  0  0  0  0  0  0  0  0
  -28.5742  -17.4635   22.9568 O   0  0  0  0  0  0  0  0  0  0  0  0
  -31.3121  -24.4359   26.4676 O   0  0  0  0  0  0  0  0  0  1  0  0
  -23.7376   -3.0978   24.7664 F   0  0  0  0  0  0  0  0  0  0  0  0
  -20.3391   -6.3449   24.2078 F   0  0  0  0  0  0  0  0  0  0  0  0
  1  2  1  0  0  0  0
  1  5  2  0  0  0  0
  2  6  2  0  0  0  0
  3  8  2  0  0  0  0
  3 17  1  0  0  0  0
  4  9  1  0  0  0  0
  4 17  2  0  0  0  0
  5 19  1  0  0  0  0
  6 21  1  0  0  0  0
  7 10  2  0  0  0  0
  7 20  1  0  0  0  0
  8 26  1  0  0  0  0
  9 26  2  0  0  0  0
 10 27  1  0  0  0  0
 11 12  2  0  0  0  0
 11 28  1  0  0  0  0
 12 30  1  0  0  0  0
 13 22  1  0  0  0  0
 13 27  2  0  0  0  0
 14 23  1  0  0  0  0
 14 29  2  0  0  0  0
 15 24  1  0  0  0  0
 15 25  2  0  0  0  0
 16 30  2  0  0  0  0
 16 31  1  0  0  0  0
 17 32  1  0  0  0  0
 18 32  1  0  0  0  0
 18 33  2  0  0  0  0
 18 34  1  0  0  0  0
 19 21  2  0  0  0  0
 19 39  1  0  0  0  0
 20 22  2  0  0  0  0
 20 40  1  0  0  0  0
 21 53  1  0  0  0  0
 22 41  1  0  0  0  0
 23 24  2  0  0  0  0
 23 52  1  0  0  0  0
 24 66  1  0  0  0  0
 25 29  1  0  0  0  0
 25 76  1  0  0  0  0
 26 86  1  0  0  0  0
 27 88  1  0  0  0  0
 28 31  2  0  0  0  0
 28 86  1  0  0  0  0
 29 87  1  0  0  0  0
 30 89  1  0  0  0  0
 31 90  1  0  0  0  0
 32 70  2  0  0  0  0
 33 71  1  0  0  0  0
 33 74  1  0  0  0  0
 34 75  1  0  0  0  0
 34 81  2  0  0  0  0
 35 54  1  0  0  0  0
 35 77  1  0  0  0  0
 35 82  2  0  0  0  0
 36 67  1  0  0  0  0
 36 72  1  0  0  0  0
 36 83  2  0  0  0  0
 37 68  1  0  0  0  0
 37 78  1  0  0  0  0
 37 84  2  0  0  0  0
 38 73  1  0  0  0  0
 38 76  1  0  0  0  0
 38 85  2  0  0  0  0
 39 42  1  0  0  0  0
 40 54  1  0  0  0  0
 41 72  1  0  0  0  0
 42 44  1  0  0  0  0
 43 45  1  0  0  0  0
 43 48  1  0  0  0  0
 44 53  1  0  0  0  0
 45 55  1  0  0  0  0
 46 50  1  0  0  0  0
 46 52  1  0  0  0  0
 47 51  1  0  0  0  0
 47 52  1  0  0  0  0
 48 73  1  0  0  0  0
 49 55  1  0  0  0  0
 49 73  1  0  0  0  0
 50 79  1  0  0  0  0
 51 79  1  0  0  0  0
 53 77  1  0  0  0  0
 54 72  1  0  0  0  0
 55 71  1  0  0  0  0
 56 66  1  0  0  0  0
 57 66  1  0  0  0  0
 58 68  1  0  0  0  0
 59 69  1  0  0  0  0
 60 69  1  0  0  0  0
 61 69  1  0  0  0  0
 62 80  1  0  0  0  0
 63 87  1  0  0  0  0
 64 65  1  0  0  0  0
 64 79  1  0  0  0  0
 65 88  1  0  0  0  0
 67 69  1  0  0  0  0
 67 78  1  0  0  0  0
 68 80  1  0  0  0  0
 70 71  1  0  0  0  0
M  CHG  2  79   1  80   1
M  ISO  4  38 100  65 101  76 100  88 101
M  END
> <Batch ID>
0140

> <Smiles>
CNC(C)C(=O)NC(C(=O)N1Cc2cc([101O:1][101CH2:1]CN3CCC(c4cc(OC)c([100NH:0][100C:0](=O)N5CCCC(n6nc(-c7ccc(Oc8ccc(F)cc8F)cc7)c(C(N)=O)c6N)C5)cc4C(C)C)CC3)ccc2CC1C(=O)NC1CCCc2ccccc21)C(C)(C)C

> <Shape>
0.267

> <Color>
0.186

> <Negative vol penalty>
0.000

$$$$
